# Generated by pormake.
# Topology ptr, (4,4)-cn, num edge types: 1
# Building blocks:
#     Node 0, Type 0, BuildingBlock: AZAVOO_clean_sbu_0, # of connection points: 4
#     Node 1, Type 0, BuildingBlock: AZAVOO_clean_sbu_0, # of connection points: 4
#     Node 2, Type 0, BuildingBlock: AZAVOO_clean_sbu_0, # of connection points: 4
#     Node 3, Type 0, BuildingBlock: AZAVOO_clean_sbu_0, # of connection points: 4
#     Node 4, Type 0, BuildingBlock: AZAVOO_clean_sbu_0, # of connection points: 4
#     Node 5, Type 0, BuildingBlock: AZAVOO_clean_sbu_0, # of connection points: 4
#     Node 6, Type 0, BuildingBlock: AZAVOO_clean_sbu_0, # of connection points: 4
#     Node 7, Type 0, BuildingBlock: AZAVOO_clean_sbu_0, # of connection points: 4
#     Node 8, Type 0, BuildingBlock: AZAVOO_clean_sbu_0, # of connection points: 4
#     Node 9, Type 0, BuildingBlock: AZAVOO_clean_sbu_0, # of connection points: 4
#     Node 10, Type 0, BuildingBlock: AZAVOO_clean_sbu_0, # of connection points: 4
#     Node 11, Type 0, BuildingBlock: AZAVOO_clean_sbu_0, # of connection points: 4
#     Node 12, Type 0, BuildingBlock: AZAVOO_clean_sbu_0, # of connection points: 4
#     Node 13, Type 0, BuildingBlock: AZAVOO_clean_sbu_0, # of connection points: 4
#     Node 14, Type 0, BuildingBlock: AZAVOO_clean_sbu_0, # of connection points: 4
#     Node 15, Type 0, BuildingBlock: AZAVOO_clean_sbu_0, # of connection points: 4
#     Node 16, Type 0, BuildingBlock: AZAVOO_clean_sbu_0, # of connection points: 4
#     Node 17, Type 0, BuildingBlock: AZAVOO_clean_sbu_0, # of connection points: 4
#     Node 18, Type 1, BuildingBlock: MUDLON_clean_linker_0, # of connection points: 4
#     Node 19, Type 1, BuildingBlock: MUDLON_clean_linker_0, # of connection points: 4
#     Node 20, Type 1, BuildingBlock: MUDLON_clean_linker_0, # of connection points: 4
#     Node 21, Type 1, BuildingBlock: MUDLON_clean_linker_0, # of connection points: 4
#     Node 22, Type 1, BuildingBlock: MUDLON_clean_linker_0, # of connection points: 4
#     Node 23, Type 1, BuildingBlock: MUDLON_clean_linker_0, # of connection points: 4
#     Node 24, Type 1, BuildingBlock: MUDLON_clean_linker_0, # of connection points: 4
#     Node 25, Type 1, BuildingBlock: MUDLON_clean_linker_0, # of connection points: 4
#     Node 26, Type 1, BuildingBlock: MUDLON_clean_linker_0, # of connection points: 4
#     Node 27, Type 1, BuildingBlock: MUDLON_clean_linker_0, # of connection points: 4
#     Node 28, Type 1, BuildingBlock: MUDLON_clean_linker_0, # of connection points: 4
#     Node 29, Type 1, BuildingBlock: MUDLON_clean_linker_0, # of connection points: 4
#     Node 30, Type 1, BuildingBlock: MUDLON_clean_linker_0, # of connection points: 4
#     Node 31, Type 1, BuildingBlock: MUDLON_clean_linker_0, # of connection points: 4
#     Node 32, Type 1, BuildingBlock: MUDLON_clean_linker_0, # of connection points: 4
#     Node 33, Type 1, BuildingBlock: MUDLON_clean_linker_0, # of connection points: 4
#     Node 34, Type 1, BuildingBlock: MUDLON_clean_linker_0, # of connection points: 4
#     Node 35, Type 1, BuildingBlock: MUDLON_clean_linker_0, # of connection points: 4
#     Edge 36, Type (0, 1), BuildingBlock: FUNLAD_clean_linker_1, # of connection points: 2
#     Edge 37, Type (0, 1), BuildingBlock: FUNLAD_clean_linker_1, # of connection points: 2
#     Edge 38, Type (0, 1), BuildingBlock: FUNLAD_clean_linker_1, # of connection points: 2
#     Edge 39, Type (0, 1), BuildingBlock: FUNLAD_clean_linker_1, # of connection points: 2
#     Edge 40, Type (0, 1), BuildingBlock: FUNLAD_clean_linker_1, # of connection points: 2
#     Edge 41, Type (0, 1), BuildingBlock: FUNLAD_clean_linker_1, # of connection points: 2
#     Edge 42, Type (0, 1), BuildingBlock: FUNLAD_clean_linker_1, # of connection points: 2
#     Edge 43, Type (0, 1), BuildingBlock: FUNLAD_clean_linker_1, # of connection points: 2
#     Edge 44, Type (0, 1), BuildingBlock: FUNLAD_clean_linker_1, # of connection points: 2
#     Edge 45, Type (0, 1), BuildingBlock: FUNLAD_clean_linker_1, # of connection points: 2
#     Edge 46, Type (0, 1), BuildingBlock: FUNLAD_clean_linker_1, # of connection points: 2
#     Edge 47, Type (0, 1), BuildingBlock: FUNLAD_clean_linker_1, # of connection points: 2
#     Edge 48, Type (0, 1), BuildingBlock: FUNLAD_clean_linker_1, # of connection points: 2
#     Edge 49, Type (0, 1), BuildingBlock: FUNLAD_clean_linker_1, # of connection points: 2
#     Edge 50, Type (0, 1), BuildingBlock: FUNLAD_clean_linker_1, # of connection points: 2
#     Edge 51, Type (0, 1), BuildingBlock: FUNLAD_clean_linker_1, # of connection points: 2
#     Edge 52, Type (0, 1), BuildingBlock: FUNLAD_clean_linker_1, # of connection points: 2
#     Edge 53, Type (0, 1), BuildingBlock: FUNLAD_clean_linker_1, # of connection points: 2
#     Edge 54, Type (0, 1), BuildingBlock: FUNLAD_clean_linker_1, # of connection points: 2
#     Edge 55, Type (0, 1), BuildingBlock: FUNLAD_clean_linker_1, # of connection points: 2
#     Edge 56, Type (0, 1), BuildingBlock: FUNLAD_clean_linker_1, # of connection points: 2
#     Edge 57, Type (0, 1), BuildingBlock: FUNLAD_clean_linker_1, # of connection points: 2
#     Edge 58, Type (0, 1), BuildingBlock: FUNLAD_clean_linker_1, # of connection points: 2
#     Edge 59, Type (0, 1), BuildingBlock: FUNLAD_clean_linker_1, # of connection points: 2
#     Edge 60, Type (0, 1), BuildingBlock: FUNLAD_clean_linker_1, # of connection points: 2
#     Edge 61, Type (0, 1), BuildingBlock: FUNLAD_clean_linker_1, # of connection points: 2
#     Edge 62, Type (0, 1), BuildingBlock: FUNLAD_clean_linker_1, # of connection points: 2
#     Edge 63, Type (0, 1), BuildingBlock: FUNLAD_clean_linker_1, # of connection points: 2
#     Edge 64, Type (0, 1), BuildingBlock: FUNLAD_clean_linker_1, # of connection points: 2
#     Edge 65, Type (0, 1), BuildingBlock: FUNLAD_clean_linker_1, # of connection points: 2
#     Edge 66, Type (0, 1), BuildingBlock: FUNLAD_clean_linker_1, # of connection points: 2
#     Edge 67, Type (0, 1), BuildingBlock: FUNLAD_clean_linker_1, # of connection points: 2
#     Edge 68, Type (0, 1), BuildingBlock: FUNLAD_clean_linker_1, # of connection points: 2
#     Edge 69, Type (0, 1), BuildingBlock: FUNLAD_clean_linker_1, # of connection points: 2
#     Edge 70, Type (0, 1), BuildingBlock: FUNLAD_clean_linker_1, # of connection points: 2
#     Edge 71, Type (0, 1), BuildingBlock: FUNLAD_clean_linker_1, # of connection points: 2
#     Edge 72, Type (0, 1), BuildingBlock: FUNLAD_clean_linker_1, # of connection points: 2
#     Edge 73, Type (0, 1), BuildingBlock: FUNLAD_clean_linker_1, # of connection points: 2
#     Edge 74, Type (0, 1), BuildingBlock: FUNLAD_clean_linker_1, # of connection points: 2
#     Edge 75, Type (0, 1), BuildingBlock: FUNLAD_clean_linker_1, # of connection points: 2
#     Edge 76, Type (0, 1), BuildingBlock: FUNLAD_clean_linker_1, # of connection points: 2
#     Edge 77, Type (0, 1), BuildingBlock: FUNLAD_clean_linker_1, # of connection points: 2
#     Edge 78, Type (0, 1), BuildingBlock: FUNLAD_clean_linker_1, # of connection points: 2
#     Edge 79, Type (0, 1), BuildingBlock: FUNLAD_clean_linker_1, # of connection points: 2
#     Edge 80, Type (0, 1), BuildingBlock: FUNLAD_clean_linker_1, # of connection points: 2
#     Edge 81, Type (0, 1), BuildingBlock: FUNLAD_clean_linker_1, # of connection points: 2
#     Edge 82, Type (0, 1), BuildingBlock: FUNLAD_clean_linker_1, # of connection points: 2
#     Edge 83, Type (0, 1), BuildingBlock: FUNLAD_clean_linker_1, # of connection points: 2
#     Edge 84, Type (0, 1), BuildingBlock: FUNLAD_clean_linker_1, # of connection points: 2
#     Edge 85, Type (0, 1), BuildingBlock: FUNLAD_clean_linker_1, # of connection points: 2
#     Edge 86, Type (0, 1), BuildingBlock: FUNLAD_clean_linker_1, # of connection points: 2
#     Edge 87, Type (0, 1), BuildingBlock: FUNLAD_clean_linker_1, # of connection points: 2
#     Edge 88, Type (0, 1), BuildingBlock: FUNLAD_clean_linker_1, # of connection points: 2
#     Edge 89, Type (0, 1), BuildingBlock: FUNLAD_clean_linker_1, # of connection points: 2
#     Edge 90, Type (0, 1), BuildingBlock: FUNLAD_clean_linker_1, # of connection points: 2
#     Edge 91, Type (0, 1), BuildingBlock: FUNLAD_clean_linker_1, # of connection points: 2
#     Edge 92, Type (0, 1), BuildingBlock: FUNLAD_clean_linker_1, # of connection points: 2
#     Edge 93, Type (0, 1), BuildingBlock: FUNLAD_clean_linker_1, # of connection points: 2
#     Edge 94, Type (0, 1), BuildingBlock: FUNLAD_clean_linker_1, # of connection points: 2
#     Edge 95, Type (0, 1), BuildingBlock: FUNLAD_clean_linker_1, # of connection points: 2
#     Edge 96, Type (0, 1), BuildingBlock: FUNLAD_clean_linker_1, # of connection points: 2
#     Edge 97, Type (0, 1), BuildingBlock: FUNLAD_clean_linker_1, # of connection points: 2
#     Edge 98, Type (0, 1), BuildingBlock: FUNLAD_clean_linker_1, # of connection points: 2
#     Edge 99, Type (0, 1), BuildingBlock: FUNLAD_clean_linker_1, # of connection points: 2
#     Edge 100, Type (0, 1), BuildingBlock: FUNLAD_clean_linker_1, # of connection points: 2
#     Edge 101, Type (0, 1), BuildingBlock: FUNLAD_clean_linker_1, # of connection points: 2
#     Edge 102, Type (0, 1), BuildingBlock: FUNLAD_clean_linker_1, # of connection points: 2
#     Edge 103, Type (0, 1), BuildingBlock: FUNLAD_clean_linker_1, # of connection points: 2
#     Edge 104, Type (0, 1), BuildingBlock: FUNLAD_clean_linker_1, # of connection points: 2
#     Edge 105, Type (0, 1), BuildingBlock: FUNLAD_clean_linker_1, # of connection points: 2
#     Edge 106, Type (0, 1), BuildingBlock: FUNLAD_clean_linker_1, # of connection points: 2
#     Edge 107, Type (0, 1), BuildingBlock: FUNLAD_clean_linker_1, # of connection points: 2
# Relax obj value: 0.069
# Max RMSD: 0.226
# Mean RMSD: 0.109
data_MOF--net-ptr--node1-AZAVOO_clean_sbu_0--node2-MUDLON_clean_linker_0--edge1-FUNLAD_clean_linker_1
_symmetry_space_group_name_H-M    P1
_symmetry_Int_Tables_number       1
_symmetry_cell_setting            triclinic
loop_
_symmetry_equiv_pos_as_xyz
'x, y, z'
_cell_length_a     109.84364
_cell_length_b     108.31552
_cell_length_c     61.666112
_cell_angle_alpha  90.929544
_cell_angle_beta   90.979953
_cell_angle_gamma 120.00222
loop_
_atom_site_label
_atom_site_type_symbol
_atom_site_fract_x
_atom_site_fract_y
_atom_site_fract_z
_atom_type_partial_charge
Mg0 Mg 0.00811 0.3577 0.98553 0.0
O1 O 0.00153 0.36746 0.01325 0.0
O2 O 0.98213 0.3676 0.00185 0.0
Mg3 Mg 0.97641 0.35821 0.9673 0.0
C4 C 0.99169 0.3703 0.01623 0.0
C5 C 0.03281 0.36609 0.01901 0.0
O6 O 0.03311 0.37833 0.01782 0.0
O7 O 0.99014 0.33531 0.99245 0.0
O8 O 0.9715 0.33623 0.9793 0.0
O9 O 0.02093 0.37936 0.97194 0.0
O10 O 0.99859 0.36457 0.96295 0.0
C11 C 0.97698 0.32944 0.98801 0.0
C12 C 0.00961 0.37696 0.96149 0.0
O13 O 0.0234 0.35529 0.00826 0.0
Mg14 Mg 0.64244 0.64139 0.05538 0.0
O15 O 0.62411 0.62982 0.0307 0.0
O16 O 0.60475 0.62781 0.04546 0.0
Mg17 Mg 0.61084 0.63831 0.07946 0.0
C18 C 0.61098 0.62565 0.02983 0.0
C19 C 0.67043 0.64806 0.03537 0.0
O20 O 0.67352 0.64901 0.05623 0.0
O21 O 0.64375 0.66254 0.04863 0.0
O22 O 0.62498 0.66058 0.0654 0.0
O23 O 0.63717 0.62058 0.06951 0.0
O24 O 0.62846 0.63406 0.08063 0.0
C25 C 0.63615 0.66773 0.05466 0.0
C26 C 0.62865 0.62231 0.08179 0.0
O27 O 0.6581 0.64492 0.02922 0.0
Mg28 Mg 0.35794 0.99363 0.97939 0.0
O29 O 0.37241 0.99587 0.00816 0.0
O30 O 0.39474 0.00876 0.99819 0.0
Mg31 Mg 0.39445 0.01468 0.96281 0.0
C32 C 0.38559 0.00173 0.01226 0.0
C33 C 0.32755 0.97585 0.9958 0.0
O34 O 0.32587 0.97014 0.97622 0.0
O35 O 0.36313 0.01661 0.98418 0.0
O36 O 0.38511 0.02886 0.97234 0.0
O37 O 0.35799 0.97405 0.9678 0.0
O38 O 0.37324 0.9959 0.9579 0.0
C39 C 0.37409 0.02834 0.97981 0.0
C40 C 0.36907 0.98247 0.95722 0.0
O41 O 0.33958 0.98589 0.00206 0.0
Mg42 Mg 0.99163 0.64522 0.02892 0.0
O43 O 0.99798 0.63554 0.00097 0.0
O44 O 0.01611 0.63322 0.01267 0.0
Mg45 Mg 0.02149 0.6416 0.04789 0.0
C46 C 0.00713 0.63176 0.99794 0.0
C47 C 0.96627 0.6478 0.01188 0.0
O48 O 0.96216 0.64301 0.03141 0.0
O49 O 0.01078 0.6672 0.02393 0.0
O50 O 0.02827 0.66444 0.03746 0.0
O51 O 0.9774 0.62329 0.04103 0.0
O52 O 0.99971 0.63687 0.05137 0.0
C53 C 0.02373 0.67216 0.02909 0.0
C54 C 0.98826 0.62482 0.05202 0.0
O55 O 0.97805 0.64977 0.00558 0.0
Mg56 Mg 0.36233 0.36189 0.98654 0.0
O57 O 0.37829 0.37159 0.01519 0.0
O58 O 0.39954 0.37789 0.00254 0.0
Mg59 Mg 0.39726 0.37269 0.96607 0.0
C60 C 0.39154 0.37689 0.01801 0.0
C61 C 0.3323 0.35054 0.00208 0.0
O62 O 0.33124 0.35349 0.98178 0.0
O63 O 0.36373 0.34165 0.98711 0.0
O64 O 0.38457 0.34856 0.97235 0.0
O65 O 0.36537 0.38321 0.97808 0.0
O66 O 0.37799 0.37417 0.96517 0.0
C67 C 0.37305 0.33895 0.98009 0.0
C68 C 0.37565 0.38468 0.96638 0.0
O69 O 0.34408 0.35275 0.00958 0.0
Mg70 Mg 0.63781 0.01044 0.03845 0.0
O71 O 0.6214 0.00113 0.01034 0.0
O72 O 0.60247 0.98196 0.02284 0.0
Mg73 Mg 0.60666 0.97904 0.05833 0.0
C74 C 0.60891 0.99055 0.00772 0.0
C75 C 0.66755 0.02752 0.02127 0.0
O76 O 0.66958 0.02226 0.03911 0.0
O77 O 0.64258 0.99244 0.03407 0.0
O78 O 0.624 0.97403 0.04872 0.0
O79 O 0.62886 0.02382 0.05006 0.0
O80 O 0.62195 0.00194 0.06069 0.0
C81 C 0.63602 0.97953 0.03998 0.0
C82 C 0.62039 0.01293 0.0612 0.0
O83 O 0.65514 0.02444 0.01565 0.0
Mg84 Mg 0.67767 0.69176 0.31902 0.0
O85 O 0.67202 0.70207 0.34707 0.0
O86 O 0.65586 0.70716 0.33443 0.0
Mg87 Mg 0.65108 0.70002 0.29869 0.0
C88 C 0.66384 0.70715 0.34971 0.0
C89 C 0.70109 0.68678 0.33691 0.0
O90 O 0.70595 0.69252 0.31812 0.0
O91 O 0.65694 0.67082 0.32192 0.0
O92 O 0.64148 0.67644 0.30778 0.0
O93 O 0.69417 0.71331 0.30893 0.0
O94 O 0.67212 0.70243 0.29655 0.0
C95 C 0.64443 0.66744 0.31593 0.0
C96 C 0.68445 0.71361 0.29721 0.0
O97 O 0.68919 0.68479 0.34262 0.0
Mg98 Mg 0.30941 0.97395 0.37925 0.0
O99 O 0.29521 0.96568 0.3486 0.0
O100 O 0.27441 0.96345 0.35648 0.0
Mg101 Mg 0.27537 0.97014 0.39222 0.0
C102 C 0.28267 0.96241 0.34319 0.0
C103 C 0.33852 0.97848 0.36927 0.0
O104 O 0.33764 0.97593 0.39009 0.0
O105 O 0.31258 0.99615 0.37492 0.0
O106 O 0.29196 0.99348 0.38516 0.0
O107 O 0.30154 0.95174 0.38946 0.0
O108 O 0.2919 0.96471 0.39876 0.0
C109 C 0.30456 0.00124 0.37889 0.0
C110 C 0.29165 0.95268 0.39909 0.0
O111 O 0.32845 0.97881 0.35938 0.0
Mg112 Mg 0.02624 0.33015 0.32297 0.0
O113 O 0.04126 0.33444 0.35196 0.0
O114 O 0.06298 0.35095 0.34306 0.0
Mg115 Mg 0.06176 0.3572 0.30818 0.0
C116 C 0.05435 0.34233 0.35655 0.0
C117 C 0.99531 0.31483 0.33852 0.0
O118 O 0.99322 0.31847 0.31919 0.0
O119 O 0.02676 0.35119 0.32932 0.0
O120 O 0.04828 0.36699 0.31844 0.0
O121 O 0.03084 0.31357 0.31008 0.0
O122 O 0.04267 0.33635 0.30181 0.0
C123 C 0.03631 0.36397 0.32572 0.0
C124 C 0.04116 0.32379 0.30018 0.0
O125 O 0.00769 0.31827 0.34487 0.0
Mg126 Mg 0.66136 0.97431 0.37301 0.0
O127 O 0.66886 0.96621 0.34439 0.0
O128 O 0.68731 0.96449 0.35634 0.0
Mg129 Mg 0.69157 0.97144 0.39218 0.0
C130 C 0.67855 0.96318 0.34132 0.0
C131 C 0.63508 0.97441 0.35431 0.0
O132 O 0.62974 0.96606 0.37089 0.0
O133 O 0.68009 0.99667 0.36995 0.0
O134 O 0.69796 0.9945 0.38337 0.0
O135 O 0.64733 0.95185 0.38284 0.0
O136 O 0.66933 0.96545 0.39472 0.0
C137 C 0.69304 0.002 0.37541 0.0
C138 C 0.65799 0.95319 0.3941 0.0
O139 O 0.64799 0.97942 0.35027 0.0
Mg140 Mg 0.03106 0.69584 0.32293 0.0
O141 O 0.04867 0.70424 0.34921 0.0
O142 O 0.06734 0.70468 0.33439 0.0
Mg143 Mg 0.0617 0.69659 0.29905 0.0
C144 C 0.06136 0.70683 0.35041 0.0
C145 C 0.00585 0.69609 0.34324 0.0
O146 O 0.00683 0.70241 0.32481 0.0
O147 O 0.02703 0.67323 0.32652 0.0
O148 O 0.04525 0.67404 0.30955 0.0
O149 O 0.03904 0.71804 0.31137 0.0
O150 O 0.04581 0.70321 0.29893 0.0
C151 C 0.03364 0.66719 0.31935 0.0
C152 C 0.04706 0.71565 0.2989 0.0
O153 O 0.01476 0.69228 0.34799 0.0
Mg154 Mg 0.31372 0.34992 0.36888 0.0
O155 O 0.29934 0.34277 0.3384 0.0
O156 O 0.27863 0.3242 0.34707 0.0
Mg157 Mg 0.27969 0.31975 0.38306 0.0
C158 C 0.28677 0.33311 0.33339 0.0
C159 C 0.3446 0.36509 0.35615 0.0
O160 O 0.34496 0.35923 0.37444 0.0
O161 O 0.31661 0.33061 0.3655 0.0
O162 O 0.29613 0.31286 0.37672 0.0
O163 O 0.30582 0.36455 0.37876 0.0
O164 O 0.29638 0.34207 0.38836 0.0
C165 C 0.30866 0.3176 0.37023 0.0
C166 C 0.29601 0.35374 0.38855 0.0
O167 O 0.33291 0.36323 0.34876 0.0
Mg168 Mg 0.34301 0.02242 0.65427 0.0
O169 O 0.33892 0.03377 0.68273 0.0
O170 O 0.32289 0.03942 0.67149 0.0
Mg171 Mg 0.31646 0.03143 0.63636 0.0
C172 C 0.33128 0.0394 0.68605 0.0
C173 C 0.36601 0.01603 0.67028 0.0
O174 O 0.37001 0.02038 0.65054 0.0
O175 O 0.32211 0.00194 0.65893 0.0
O176 O 0.30661 0.00805 0.64658 0.0
O177 O 0.35951 0.04351 0.64271 0.0
O178 O 0.3371 0.03306 0.63226 0.0
C179 C 0.30952 0.99891 0.65428 0.0
C180 C 0.34957 0.04401 0.63193 0.0
O181 O 0.35488 0.01542 0.67713 0.0
Mg182 Mg 0.97785 0.30382 0.71637 0.0
O183 O 0.9623 0.29318 0.68763 0.0
O184 O 0.94068 0.28673 0.69869 0.0
Mg185 Mg 0.94252 0.29321 0.73466 0.0
C186 C 0.94908 0.28751 0.68402 0.0
C187 C 0.00703 0.31181 0.69955 0.0
O188 O 0.00761 0.30735 0.71903 0.0
O189 O 0.97636 0.32396 0.71343 0.0
O190 O 0.9551 0.31707 0.72656 0.0
O191 O 0.97447 0.28262 0.72595 0.0
O192 O 0.96198 0.2921 0.7379 0.0
C193 C 0.96674 0.32661 0.71897 0.0
C194 C 0.96408 0.28142 0.73711 0.0
O195 O 0.99605 0.31199 0.69333 0.0
Mg196 Mg 0.69085 0.64459 0.65317 0.0
O197 O 0.70833 0.65592 0.67938 0.0
O198 O 0.72747 0.67248 0.66303 0.0
Mg199 Mg 0.72228 0.67151 0.62671 0.0
C200 C 0.72116 0.66595 0.67995 0.0
C201 C 0.66204 0.63227 0.67383 0.0
O202 O 0.65976 0.63642 0.65507 0.0
O203 O 0.68785 0.66389 0.65167 0.0
O204 O 0.70678 0.67949 0.6339 0.0
O205 O 0.69809 0.62897 0.64712 0.0
O206 O 0.70568 0.64914 0.62971 0.0
C207 C 0.69516 0.67596 0.64303 0.0
C208 C 0.70642 0.63783 0.63316 0.0
O209 O 0.67427 0.63449 0.67872 0.0
Mg210 Mg 0.32876 0.31416 0.70714 0.0
O211 O 0.33512 0.30558 0.67765 0.0
O212 O 0.35402 0.30412 0.68778 0.0
Mg213 Mg 0.3598 0.31179 0.72323 0.0
C214 C 0.34468 0.3025 0.67361 0.0
C215 C 0.30208 0.30837 0.67983 0.0
O216 O 0.29826 0.29527 0.68514 0.0
O217 O 0.34715 0.3365 0.70225 0.0
O218 O 0.36553 0.33465 0.71416 0.0
O219 O 0.31536 0.29202 0.71899 0.0
O220 O 0.33783 0.30594 0.72805 0.0
C221 C 0.36026 0.34198 0.70672 0.0
C222 C 0.32656 0.29375 0.72911 0.0
O223 O 0.31417 0.31849 0.68584 0.0
Mg224 Mg 0.69543 0.02853 0.64205 0.0
O225 O 0.71251 0.04162 0.66817 0.0
O226 O 0.73346 0.04806 0.65415 0.0
Mg227 Mg 0.72975 0.03863 0.61962 0.0
C228 C 0.72593 0.04806 0.66968 0.0
C229 C 0.66739 0.02194 0.66137 0.0
O230 O 0.66637 0.02586 0.64167 0.0
O231 O 0.6979 0.0091 0.64766 0.0
O232 O 0.7186 0.01578 0.63251 0.0
O233 O 0.69756 0.04863 0.6291 0.0
O234 O 0.70978 0.03868 0.61788 0.0
C235 C 0.70763 0.0066 0.64206 0.0
C236 C 0.70739 0.04914 0.6172 0.0
O237 O 0.67842 0.0217 0.66713 0.0
Mg238 Mg 0.97315 0.68379 0.70873 0.0
O239 O 0.95462 0.67385 0.68406 0.0
O240 O 0.93567 0.65755 0.70107 0.0
Mg241 Mg 0.94223 0.65679 0.73625 0.0
C242 C 0.94158 0.66441 0.68416 0.0
C243 C 0.99647 0.70733 0.68154 0.0
O244 O 0.99498 0.71527 0.6964 0.0
O245 O 0.97519 0.66391 0.70669 0.0
O246 O 0.9566 0.64819 0.72501 0.0
O247 O 0.96709 0.69984 0.71906 0.0
O248 O 0.95949 0.67891 0.73408 0.0
C249 C 0.96777 0.6516 0.71457 0.0
C250 C 0.95916 0.69057 0.73294 0.0
O251 O 0.98866 0.69387 0.68169 0.0
H252 H 0.23379 0.33818 0.14644 0.0
N253 N 0.20948 0.31611 0.12827 0.0
H254 H 0.24398 0.33889 0.18198 0.0
H255 H 0.19921 0.29611 0.15792 0.0
H256 H 0.20955 0.29657 0.19373 0.0
H257 H 0.21548 0.29778 0.10909 0.0
H258 H 0.23334 0.30272 0.08216 0.0
H259 H 0.22537 0.34165 0.10776 0.0
H260 H 0.24311 0.3466 0.08108 0.0
H261 H 0.21509 0.34311 0.13981 0.0
H262 H 0.18261 0.30197 0.11527 0.0
H263 H 0.19875 0.35196 0.13848 0.0
H264 H 0.16571 0.31041 0.11543 0.0
H265 H 0.13928 0.37002 0.16045 0.0
H266 H 0.12609 0.36488 0.19394 0.0
H267 H 0.11362 0.32033 0.18586 0.0
H268 H 0.12682 0.32562 0.15251 0.0
H269 H 0.11759 0.32703 0.11763 0.0
H270 H 0.0995 0.32576 0.09257 0.0
H271 H 0.12428 0.37126 0.08426 0.0
H272 H 0.1422 0.37243 0.10965 0.0
H273 H 0.16349 0.35928 0.15819 0.0
H274 H 0.18013 0.35077 0.15657 0.0
H275 H 0.15789 0.32476 0.0997 0.0
N276 N 0.14074 0.35152 0.13338 0.0
H277 H 0.14079 0.33259 0.10223 0.0
C278 C 0.21572 0.31699 0.14944 0.0
C279 C 0.22841 0.32903 0.15659 0.0
C280 C 0.23435 0.32934 0.17696 0.0
C281 C 0.22776 0.31757 0.19055 0.0
C282 C 0.21493 0.30572 0.18353 0.0
C283 C 0.20901 0.30543 0.16315 0.0
C284 C 0.21896 0.31922 0.11058 0.0
C285 C 0.22139 0.30842 0.10284 0.0
C286 C 0.23173 0.31133 0.08765 0.0
C287 C 0.23989 0.3252 0.07991 0.0
C288 C 0.23704 0.33586 0.0869 0.0
C289 C 0.22679 0.33298 0.10221 0.0
C290 C 0.20012 0.32185 0.12733 0.0
C291 C 0.20442 0.33594 0.13408 0.0
C292 C 0.19493 0.34096 0.1336 0.0
C293 C 0.18078 0.33191 0.12701 0.0
C294 C 0.17653 0.31781 0.12025 0.0
C295 C 0.18614 0.3129 0.1203 0.0
C296 C 0.13385 0.34822 0.15391 0.0
C297 C 0.13376 0.35919 0.16607 0.0
C298 C 0.12626 0.35622 0.18514 0.0
C299 C 0.11854 0.34218 0.19225 0.0
C300 C 0.11909 0.33122 0.18052 0.0
C301 C 0.12669 0.33422 0.16148 0.0
C302 C 0.13128 0.3499 0.11558 0.0
C303 C 0.11923 0.3367 0.11021 0.0
C304 C 0.10888 0.33599 0.0959 0.0
C305 C 0.11021 0.34844 0.08699 0.0
C306 C 0.12264 0.3615 0.0914 0.0
C307 C 0.13302 0.36218 0.10562 0.0
C308 C 0.15067 0.34653 0.13069 0.0
C309 C 0.16216 0.35169 0.14541 0.0
C310 C 0.17179 0.3469 0.14429 0.0
C311 C 0.17046 0.33706 0.12794 0.0
C312 C 0.15913 0.33212 0.1128 0.0
C313 C 0.14929 0.33671 0.1142 0.0
H314 H 0.70936 0.79921 0.14209 0.0
N315 N 0.69303 0.80922 0.12837 0.0
H316 H 0.70684 0.78571 0.17439 0.0
H317 H 0.67514 0.80524 0.16135 0.0
H318 H 0.67255 0.79181 0.19418 0.0
H319 H 0.66444 0.7915 0.12761 0.0
H320 H 0.65118 0.77021 0.10445 0.0
H321 H 0.70214 0.80206 0.0933 0.0
H322 H 0.68889 0.78076 0.06982 0.0
H323 H 0.71293 0.83379 0.14588 0.0
H324 H 0.67267 0.81496 0.11173 0.0
H325 H 0.71336 0.85648 0.14849 0.0
H326 H 0.67342 0.83762 0.11335 0.0
H327 H 0.71491 0.92844 0.15385 0.0
H328 H 0.71585 0.9392 0.18963 0.0
H329 H 0.67858 0.90042 0.20712 0.0
H330 H 0.67765 0.88992 0.17167 0.0
H331 H 0.66783 0.89599 0.14074 0.0
H332 H 0.65517 0.90337 0.11631 0.0
H333 H 0.69157 0.92348 0.07603 0.0
H334 H 0.70425 0.91631 0.10095 0.0
H335 H 0.71685 0.89866 0.13194 0.0
H336 H 0.71628 0.87588 0.12833 0.0
H337 H 0.6713 0.85367 0.13685 0.0
N338 N 0.69548 0.90302 0.13812 0.0
H339 H 0.67193 0.87641 0.13909 0.0
C340 C 0.69253 0.80326 0.14932 0.0
C341 C 0.70155 0.79793 0.15371 0.0
C342 C 0.7001 0.79024 0.17238 0.0
C343 C 0.68955 0.7878 0.18722 0.0
C344 C 0.68082 0.79359 0.18315 0.0
C345 C 0.68229 0.80128 0.16442 0.0
C346 C 0.68437 0.79837 0.11224 0.0
C347 C 0.66982 0.78943 0.11477 0.0
C348 C 0.66223 0.77725 0.10148 0.0
C349 C 0.66905 0.7736 0.08575 0.0
C350 C 0.68338 0.78305 0.08222 0.0
C351 C 0.69095 0.79532 0.09542 0.0
C352 C 0.6928 0.82248 0.12886 0.0
C353 C 0.70423 0.83454 0.13883 0.0
C354 C 0.70451 0.84756 0.14013 0.0
C355 C 0.69342 0.84895 0.13111 0.0
C356 C 0.68202 0.83692 0.12086 0.0
C357 C 0.68164 0.82383 0.11984 0.0
C358 C 0.69623 0.90844 0.15993 0.0
C359 C 0.70701 0.92228 0.16551 0.0
C360 C 0.70751 0.9284 0.18588 0.0
C361 C 0.6971 0.92085 0.20098 0.0
C362 C 0.68652 0.90677 0.19565 0.0
C363 C 0.68607 0.90065 0.17532 0.0
C364 C 0.68714 0.90583 0.12284 0.0
C365 C 0.67308 0.90189 0.12662 0.0
C366 C 0.66582 0.90611 0.11257 0.0
C367 C 0.67242 0.91437 0.09454 0.0
C368 C 0.68622 0.91757 0.0901 0.0
C369 C 0.69348 0.91336 0.10422 0.0
C370 C 0.69453 0.8893 0.13597 0.0
C371 C 0.70689 0.88884 0.13292 0.0
C372 C 0.70653 0.87579 0.13105 0.0
C373 C 0.69375 0.86286 0.13247 0.0
C374 C 0.68132 0.86337 0.1354 0.0
C375 C 0.68168 0.87643 0.13695 0.0
H376 H 0.13059 0.77394 0.15603 0.0
N377 N 0.13559 0.79459 0.12894 0.0
H378 H 0.11515 0.76644 0.18681 0.0
H379 H 0.1208 0.80707 0.1435 0.0
H380 H 0.10533 0.79977 0.17467 0.0
H381 H 0.11349 0.79474 0.10795 0.0
H382 H 0.09798 0.77747 0.08053 0.0
H383 H 0.14042 0.77647 0.10649 0.0
H384 H 0.12501 0.75907 0.07853 0.0
H385 H 0.15767 0.80796 0.1557 0.0
H386 H 0.13756 0.81494 0.10034 0.0
H387 H 0.17519 0.83314 0.1576 0.0
H388 H 0.15572 0.83993 0.1009 0.0
H389 H 0.23177 0.89965 0.15509 0.0
H390 H 0.24124 0.90904 0.19131 0.0
H391 H 0.20833 0.91928 0.2007 0.0
H392 H 0.19873 0.90955 0.1642 0.0
H393 H 0.21528 0.92222 0.11425 0.0
H394 H 0.23269 0.93326 0.08614 0.0
H395 H 0.24183 0.8989 0.08958 0.0
H396 H 0.22458 0.888 0.11744 0.0
H397 H 0.21201 0.87612 0.14723 0.0
H398 H 0.19477 0.85103 0.14313 0.0
H399 H 0.16426 0.86182 0.11828 0.0
N400 N 0.20864 0.89858 0.13536 0.0
H401 H 0.18223 0.88706 0.12059 0.0
C402 C 0.12688 0.79103 0.14762 0.0
C403 C 0.12524 0.77972 0.16024 0.0
C404 C 0.1165 0.77558 0.17801 0.0
C405 C 0.10927 0.7828 0.18362 0.0
C406 C 0.11091 0.79415 0.17089 0.0
C407 C 0.11969 0.7983 0.15309 0.0
C408 C 0.12813 0.78686 0.10934 0.0
C409 C 0.1163 0.78726 0.10119 0.0
C410 C 0.1074 0.7773 0.0853 0.0
C411 C 0.1102 0.76674 0.07721 0.0
C412 C 0.12256 0.76705 0.08439 0.0
C413 C 0.13142 0.777 0.10028 0.0
C414 C 0.1463 0.80943 0.12793 0.0
C415 C 0.15722 0.81491 0.14366 0.0
C416 C 0.16734 0.82935 0.14456 0.0
C417 C 0.16706 0.83873 0.12929 0.0
C418 C 0.15621 0.83317 0.11321 0.0
C419 C 0.14583 0.81872 0.11269 0.0
C420 C 0.21456 0.90401 0.15682 0.0
C421 C 0.22659 0.90394 0.16483 0.0
C422 C 0.23212 0.9095 0.18561 0.0
C423 C 0.22574 0.91528 0.19879 0.0
C424 C 0.21355 0.91504 0.19086 0.0
C425 C 0.20806 0.9095 0.17008 0.0
C426 C 0.21848 0.90427 0.11802 0.0
C427 C 0.22103 0.91707 0.10885 0.0
C428 C 0.2311 0.92343 0.09294 0.0
C429 C 0.23885 0.91705 0.08594 0.0
C430 C 0.23604 0.90406 0.09473 0.0
C431 C 0.22608 0.89778 0.11072 0.0
C432 C 0.19848 0.88354 0.13384 0.0
C433 C 0.20172 0.87314 0.14053 0.0
C434 C 0.19168 0.85868 0.13847 0.0
C435 C 0.17796 0.85421 0.13044 0.0
C436 C 0.17473 0.8647 0.12409 0.0
C437 C 0.18493 0.87918 0.1256 0.0
H438 H 0.32952 0.20417 0.86042 0.0
N439 N 0.31137 0.19619 0.89423 0.0
H440 H 0.32736 0.21427 0.82661 0.0
H441 H 0.28946 0.19818 0.87998 0.0
H442 H 0.28728 0.20854 0.84607 0.0
H443 H 0.30042 0.19812 0.93147 0.0
H444 H 0.30913 0.2191 0.95604 0.0
H445 H 0.33652 0.22121 0.89176 0.0
H446 H 0.3451 0.2419 0.91564 0.0
H447 H 0.33843 0.20109 0.90148 0.0
H448 H 0.29557 0.16831 0.88677 0.0
H449 H 0.34591 0.18357 0.89928 0.0
H450 H 0.30317 0.15066 0.88355 0.0
H451 H 0.36285 0.12308 0.85557 0.0
H452 H 0.35818 0.10888 0.82242 0.0
H453 H 0.31415 0.09642 0.82484 0.0
H454 H 0.31904 0.11057 0.85847 0.0
H455 H 0.32257 0.10009 0.89258 0.0
H456 H 0.32356 0.08473 0.92012 0.0
H457 H 0.36674 0.11672 0.93581 0.0
H458 H 0.3655 0.13195 0.90838 0.0
H459 H 0.35749 0.15252 0.86868 0.0
H460 H 0.34941 0.16973 0.87275 0.0
H461 H 0.3118 0.13763 0.90282 0.0
N462 N 0.34458 0.12554 0.88007 0.0
H463 H 0.31967 0.1204 0.89775 0.0
C464 C 0.30964 0.20049 0.87288 0.0
C465 C 0.32017 0.20489 0.85736 0.0
C466 C 0.31899 0.21085 0.83806 0.0
C467 C 0.30731 0.2126 0.83397 0.0
C468 C 0.29645 0.20743 0.8489 0.0
C469 C 0.29766 0.20151 0.86822 0.0
C470 C 0.3178 0.20796 0.90988 0.0
C471 C 0.31037 0.20755 0.92836 0.0
C472 C 0.31534 0.21953 0.94231 0.0
C473 C 0.32794 0.23211 0.93816 0.0
C474 C 0.33561 0.23234 0.91995 0.0
C475 C 0.3306 0.22043 0.906 0.0
C476 C 0.31628 0.18604 0.89446 0.0
C477 C 0.33054 0.19014 0.89787 0.0
C478 C 0.33489 0.18006 0.89636 0.0
C479 C 0.32518 0.16568 0.89108 0.0
C480 C 0.31092 0.16158 0.88794 0.0
C481 C 0.30656 0.17166 0.88968 0.0
C482 C 0.3414 0.11803 0.85938 0.0
C483 C 0.35224 0.11744 0.8487 0.0
C484 C 0.34948 0.10926 0.82959 0.0
C485 C 0.3357 0.10152 0.8206 0.0
C486 C 0.32487 0.1023 0.83124 0.0
C487 C 0.32765 0.11044 0.85045 0.0
C488 C 0.34405 0.11719 0.89837 0.0
C489 C 0.33212 0.10395 0.90232 0.0
C490 C 0.33271 0.09516 0.91812 0.0
C491 C 0.34518 0.09936 0.93026 0.0
C492 C 0.35685 0.11299 0.92708 0.0
C493 C 0.35623 0.12179 0.91129 0.0
C494 C 0.33933 0.13526 0.88306 0.0
C495 C 0.34751 0.14925 0.87614 0.0
C496 C 0.34291 0.15908 0.87865 0.0
C497 C 0.33 0.15513 0.88833 0.0
C498 C 0.32173 0.14102 0.89514 0.0
C499 C 0.3263 0.13115 0.89242 0.0
H500 H 0.76836 0.13567 0.83742 0.0
N501 N 0.77245 0.12835 0.87664 0.0
H502 H 0.76075 0.12092 0.80409 0.0
H503 H 0.76967 0.10182 0.87128 0.0
H504 H 0.76202 0.087 0.83814 0.0
H505 H 0.77504 0.11237 0.90848 0.0
H506 H 0.75732 0.09819 0.93463 0.0
H507 H 0.7484 0.12779 0.88335 0.0
H508 H 0.73047 0.11352 0.90949 0.0
H509 H 0.78405 0.15517 0.89094 0.0
H510 H 0.79372 0.12189 0.87752 0.0
H511 H 0.80863 0.17146 0.90162 0.0
H512 H 0.81837 0.13821 0.88699 0.0
H513 H 0.87893 0.22016 0.89384 0.0
H514 H 0.89193 0.23297 0.8626 0.0
H515 H 0.89975 0.1986 0.84649 0.0
H516 H 0.88654 0.1857 0.87798 0.0
H517 H 0.8973 0.19814 0.93093 0.0
H518 H 0.91102 0.21702 0.95792 0.0
H519 H 0.87996 0.23036 0.95488 0.0
H520 H 0.86606 0.21111 0.92854 0.0
H521 H 0.85548 0.20101 0.89161 0.0
H522 H 0.83058 0.18461 0.8856 0.0
H523 H 0.83515 0.15115 0.91514 0.0
N524 N 0.87508 0.19451 0.90786 0.0
H525 H 0.86045 0.16765 0.92013 0.0
C526 C 0.76956 0.11992 0.85685 0.0
C527 C 0.76727 0.12516 0.83752 0.0
C528 C 0.763 0.11671 0.81845 0.0
C529 C 0.76094 0.1028 0.81843 0.0
C530 C 0.76356 0.09769 0.83769 0.0
C531 C 0.76794 0.10618 0.85668 0.0
C532 C 0.76296 0.12107 0.89384 0.0
C533 C 0.7654 0.11276 0.90868 0.0
C534 C 0.75515 0.10451 0.92349 0.0
C535 C 0.74228 0.10442 0.92367 0.0
C536 C 0.74021 0.11327 0.90954 0.0
C537 C 0.75042 0.12144 0.89468 0.0
C538 C 0.78704 0.13742 0.88308 0.0
C539 C 0.79152 0.15143 0.89017 0.0
C540 C 0.80559 0.16073 0.89613 0.0
C541 C 0.81558 0.15624 0.89496 0.0
C542 C 0.81099 0.14204 0.88832 0.0
C543 C 0.79686 0.13269 0.88261 0.0
C544 C 0.88173 0.20186 0.88836 0.0
C545 C 0.88323 0.21521 0.88354 0.0
C546 C 0.8907 0.22257 0.86559 0.0
C547 C 0.89678 0.21681 0.8519 0.0
C548 C 0.895 0.2033 0.85636 0.0
C549 C 0.88752 0.19592 0.87445 0.0
C550 C 0.8808 0.20331 0.92736 0.0
C551 C 0.89327 0.20489 0.93659 0.0
C552 C 0.90122 0.21588 0.95178 0.0
C553 C 0.89689 0.22566 0.95781 0.0
C554 C 0.88368 0.22315 0.95027 0.0
C555 C 0.87569 0.21209 0.93518 0.0
C556 C 0.85998 0.18552 0.90612 0.0
C557 C 0.85124 0.1902 0.89686 0.0
C558 C 0.83685 0.18077 0.8936 0.0
C559 C 0.83078 0.16647 0.89976 0.0
C560 C 0.83946 0.16199 0.90978 0.0
C561 C 0.8539 0.17142 0.91285 0.0
H562 H 0.78005 0.70786 0.87151 0.0
N563 N 0.78977 0.69426 0.8951 0.0
H564 H 0.7673 0.7003 0.83673 0.0
H565 H 0.78423 0.67038 0.8712 0.0
H566 H 0.77166 0.66276 0.83598 0.0
H567 H 0.76976 0.66684 0.90393 0.0
H568 H 0.75267 0.65946 0.93247 0.0
H569 H 0.78827 0.71063 0.92623 0.0
H570 H 0.77101 0.70334 0.95497 0.0
H571 H 0.81469 0.71521 0.88414 0.0
H572 H 0.79458 0.67381 0.91269 0.0
H573 H 0.83749 0.71672 0.88864 0.0
H574 H 0.81739 0.67555 0.91855 0.0
H575 H 0.91047 0.72133 0.89704 0.0
H576 H 0.9211 0.7244 0.86139 0.0
H577 H 0.88141 0.69126 0.83411 0.0
H578 H 0.87101 0.68785 0.86959 0.0
H579 H 0.88132 0.67611 0.89887 0.0
H580 H 0.89081 0.6641 0.9208 0.0
H581 H 0.90541 0.698 0.96954 0.0
H582 H 0.89587 0.70996 0.94737 0.0
H583 H 0.87801 0.72261 0.91528 0.0
H584 H 0.85474 0.7203 0.91443 0.0
H585 H 0.83599 0.67494 0.90143 0.0
N586 N 0.88442 0.70243 0.9077 0.0
H587 H 0.85927 0.67733 0.90372 0.0
C588 C 0.7832 0.68982 0.87381 0.0
C589 C 0.77841 0.69811 0.86363 0.0
C590 C 0.77121 0.69378 0.8436 0.0
C591 C 0.76871 0.68101 0.83322 0.0
C592 C 0.77354 0.6727 0.84348 0.0
C593 C 0.78075 0.67705 0.86356 0.0
C594 C 0.7802 0.68937 0.9128 0.0
C595 C 0.77013 0.67488 0.91497 0.0
C596 C 0.76024 0.67069 0.93125 0.0
C597 C 0.76022 0.68092 0.94561 0.0
C598 C 0.77069 0.69527 0.94398 0.0
C599 C 0.78054 0.69945 0.92765 0.0
C600 C 0.80296 0.69457 0.89828 0.0
C601 C 0.81525 0.70653 0.89163 0.0
C602 C 0.82829 0.70741 0.89446 0.0
C603 C 0.82939 0.69635 0.90431 0.0
C604 C 0.81699 0.68424 0.91079 0.0
C605 C 0.80389 0.68329 0.90763 0.0
C606 C 0.88995 0.7045 0.88614 0.0
C607 C 0.90407 0.71479 0.88333 0.0
C608 C 0.91012 0.71648 0.86305 0.0
C609 C 0.90203 0.70797 0.84513 0.0
C610 C 0.8878 0.69797 0.84772 0.0
C611 C 0.88185 0.69605 0.86809 0.0
C612 C 0.88807 0.69406 0.92143 0.0
C613 C 0.88644 0.68088 0.91436 0.0
C614 C 0.89203 0.6741 0.92684 0.0
C615 C 0.89926 0.68036 0.94666 0.0
C616 C 0.90003 0.69303 0.95425 0.0
C617 C 0.89458 0.69985 0.94168 0.0
C618 C 0.8704 0.70023 0.90937 0.0
C619 C 0.86882 0.71216 0.91263 0.0
C620 C 0.8555 0.71081 0.91185 0.0
C621 C 0.84342 0.69747 0.90738 0.0
C622 C 0.84499 0.68538 0.90503 0.0
C623 C 0.85834 0.68672 0.90622 0.0
H624 H 0.75806 0.61647 0.45581 0.0
N625 N 0.78423 0.63637 0.44784 0.0
H626 H 0.74495 0.61395 0.48885 0.0
H627 H 0.79493 0.65194 0.48616 0.0
H628 H 0.7821 0.64931 0.51896 0.0
H629 H 0.78724 0.66287 0.45428 0.0
H630 H 0.77765 0.67403 0.43072 0.0
H631 H 0.77367 0.62801 0.40781 0.0
H632 H 0.76403 0.63915 0.38399 0.0
H633 H 0.79137 0.61665 0.44141 0.0
H634 H 0.80898 0.66159 0.45502 0.0
H635 H 0.81476 0.61936 0.44441 0.0
H636 H 0.83228 0.66433 0.45978 0.0
H637 H 0.88961 0.6304 0.4825 0.0
H638 H 0.90086 0.63348 0.51837 0.0
H639 H 0.89297 0.66789 0.5336 0.0
H640 H 0.88181 0.66476 0.49767 0.0
H641 H 0.89843 0.67447 0.46571 0.0
H642 H 0.9182 0.68653 0.44146 0.0
H643 H 0.90452 0.6466 0.4066 0.0
H644 H 0.88488 0.63464 0.43104 0.0
H645 H 0.85445 0.62419 0.47467 0.0
H646 H 0.83155 0.62242 0.47012 0.0
H647 H 0.85165 0.66489 0.44452 0.0
N648 N 0.87946 0.64585 0.46559 0.0
H649 H 0.87446 0.66692 0.45068 0.0
C650 C 0.77751 0.6342 0.46846 0.0
C651 C 0.76342 0.62346 0.46974 0.0
C652 C 0.75597 0.62205 0.48854 0.0
C653 C 0.76257 0.63121 0.50659 0.0
C654 C 0.77681 0.64178 0.50558 0.0
C655 C 0.78419 0.64333 0.48664 0.0
C656 C 0.78101 0.64448 0.43285 0.0
C657 C 0.78238 0.65772 0.43885 0.0
C658 C 0.77672 0.66401 0.42545 0.0
C659 C 0.76966 0.65719 0.40578 0.0
C660 C 0.76926 0.64453 0.39916 0.0
C661 C 0.77479 0.63819 0.41266 0.0
C662 C 0.79839 0.63881 0.44825 0.0
C663 C 0.80033 0.6271 0.44514 0.0
C664 C 0.81371 0.62868 0.44717 0.0
C665 C 0.8255 0.64203 0.45282 0.0
C666 C 0.82356 0.65389 0.45528 0.0
C667 C 0.81016 0.65233 0.45275 0.0
C668 C 0.88475 0.64719 0.48756 0.0
C669 C 0.89012 0.63843 0.49377 0.0
C670 C 0.89657 0.64024 0.51417 0.0
C671 C 0.89761 0.65074 0.52893 0.0
C672 C 0.89203 0.65944 0.52285 0.0
C673 C 0.88569 0.65771 0.50227 0.0
C674 C 0.89022 0.6536 0.45018 0.0
C675 C 0.89963 0.66835 0.45274 0.0
C676 C 0.91091 0.67522 0.4389 0.0
C677 C 0.91315 0.66746 0.42257 0.0
C678 C 0.90339 0.65283 0.41948 0.0
C679 C 0.89206 0.64599 0.43322 0.0
C680 C 0.86621 0.64554 0.46283 0.0
C681 C 0.85388 0.63314 0.4682 0.0
C682 C 0.84077 0.63211 0.46532 0.0
C683 C 0.83961 0.64342 0.45655 0.0
C684 C 0.85204 0.65598 0.45146 0.0
C685 C 0.86521 0.6571 0.4548 0.0
H686 H 0.37356 0.13195 0.48182 0.0
N687 N 0.3565 0.14071 0.4666 0.0
H688 H 0.37061 0.11802 0.51388 0.0
H689 H 0.33708 0.13494 0.49783 0.0
H690 H 0.33398 0.12095 0.53021 0.0
H691 H 0.32801 0.12251 0.46328 0.0
H692 H 0.31598 0.10141 0.4394 0.0
H693 H 0.3672 0.13431 0.43274 0.0
H694 H 0.3552 0.1133 0.40844 0.0
H695 H 0.37489 0.16498 0.48677 0.0
H696 H 0.33661 0.14624 0.44734 0.0
H697 H 0.37459 0.18728 0.48926 0.0
H698 H 0.33667 0.16858 0.44891 0.0
H699 H 0.37279 0.25987 0.49062 0.0
H700 H 0.37176 0.26999 0.52587 0.0
H701 H 0.33822 0.2287 0.54397 0.0
H702 H 0.33913 0.21871 0.50873 0.0
H703 H 0.32898 0.22677 0.4757 0.0
H704 H 0.31745 0.23488 0.45006 0.0
H705 H 0.35499 0.25409 0.41214 0.0
H706 H 0.36651 0.2463 0.43826 0.0
H707 H 0.37841 0.22951 0.47247 0.0
H708 H 0.37835 0.20697 0.46923 0.0
H709 H 0.33294 0.18402 0.47158 0.0
N710 N 0.35651 0.23338 0.47535 0.0
H711 H 0.33315 0.20662 0.47359 0.0
C712 C 0.3556 0.13447 0.48744 0.0
C713 C 0.36513 0.1299 0.49267 0.0
C714 C 0.36344 0.12198 0.51116 0.0
C715 C 0.35212 0.11851 0.5249 0.0
C716 C 0.34284 0.12354 0.52002 0.0
C717 C 0.34459 0.13151 0.50153 0.0
C718 C 0.34859 0.12999 0.44987 0.0
C719 C 0.33399 0.12074 0.45113 0.0
C720 C 0.32711 0.10867 0.43743 0.0
C721 C 0.33468 0.10543 0.42249 0.0
C722 C 0.34909 0.11519 0.42023 0.0
C723 C 0.35596 0.12733 0.43388 0.0
C724 C 0.35577 0.15372 0.46717 0.0
C725 C 0.36645 0.16566 0.47858 0.0
C726 C 0.36633 0.17847 0.47981 0.0
C727 C 0.35561 0.17981 0.46924 0.0
C728 C 0.34495 0.1679 0.4576 0.0
C729 C 0.34497 0.155 0.45663 0.0
C730 C 0.35618 0.23855 0.49695 0.0
C731 C 0.36527 0.25301 0.50226 0.0
C732 C 0.36454 0.2588 0.52229 0.0
C733 C 0.35469 0.25015 0.5375 0.0
C734 C 0.34585 0.23559 0.53247 0.0
C735 C 0.34643 0.22985 0.51229 0.0
C736 C 0.34873 0.2362 0.45905 0.0
C737 C 0.33467 0.23261 0.46177 0.0
C738 C 0.32809 0.23725 0.44707 0.0
C739 C 0.3354 0.24555 0.42944 0.0
C740 C 0.34914 0.24823 0.42593 0.0
C741 C 0.35573 0.24364 0.44071 0.0
C742 C 0.35587 0.21978 0.47344 0.0
C743 C 0.36847 0.21958 0.4722 0.0
C744 C 0.36839 0.20667 0.47053 0.0
C745 C 0.35564 0.19359 0.47034 0.0
C746 C 0.34296 0.19384 0.47142 0.0
C747 C 0.34306 0.20679 0.47278 0.0
H748 H 0.78071 0.12113 0.47201 0.0
N749 N 0.7833 0.14415 0.45003 0.0
H750 H 0.76795 0.11148 0.50475 0.0
H751 H 0.77006 0.15444 0.47369 0.0
H752 H 0.75684 0.14452 0.50687 0.0
H753 H 0.76109 0.13513 0.42334 0.0
H754 H 0.75055 0.1138 0.39967 0.0
H755 H 0.7959 0.12859 0.43844 0.0
H756 H 0.78529 0.1071 0.41523 0.0
H757 H 0.80326 0.14269 0.47596 0.0
H758 H 0.79717 0.16842 0.42916 0.0
H759 H 0.82766 0.1609 0.48109 0.0
H760 H 0.82208 0.18652 0.43319 0.0
H761 H 0.9048 0.21948 0.50002 0.0
H762 H 0.91276 0.23078 0.53581 0.0
H763 H 0.88057 0.24269 0.53432 0.0
H764 H 0.87294 0.23161 0.49827 0.0
H765 H 0.88566 0.24372 0.46548 0.0
H766 H 0.89972 0.26035 0.43766 0.0
H767 H 0.91398 0.2314 0.4174 0.0
H768 H 0.90012 0.21504 0.44552 0.0
H769 H 0.87406 0.19056 0.47397 0.0
H770 H 0.84978 0.17195 0.46595 0.0
H771 H 0.83823 0.20439 0.45743 0.0
N772 N 0.88461 0.21853 0.47471 0.0
H773 H 0.86265 0.22279 0.46404 0.0
C774 C 0.77622 0.13848 0.47009 0.0
C775 C 0.77552 0.12634 0.47929 0.0
C776 C 0.76805 0.12071 0.49805 0.0
C777 C 0.76096 0.12697 0.50802 0.0
C778 C 0.76206 0.13938 0.49933 0.0
C779 C 0.76957 0.14504 0.48045 0.0
C780 C 0.77916 0.13342 0.4329 0.0
C781 C 0.76658 0.12924 0.4212 0.0
C782 C 0.76049 0.11692 0.40793 0.0
C783 C 0.76685 0.10845 0.40627 0.0
C784 C 0.78008 0.11333 0.41643 0.0
C785 C 0.78618 0.12567 0.4297 0.0
C786 C 0.79819 0.15427 0.45238 0.0
C787 C 0.80714 0.15221 0.46662 0.0
C788 C 0.82127 0.16264 0.46935 0.0
C789 C 0.82694 0.17529 0.45764 0.0
C790 C 0.81807 0.17709 0.44286 0.0
C791 C 0.80385 0.16671 0.44037 0.0
C792 C 0.88822 0.22451 0.4965 0.0
C793 C 0.89937 0.22438 0.50761 0.0
C794 C 0.90384 0.23082 0.52823 0.0
C795 C 0.89712 0.2375 0.53829 0.0
C796 C 0.88589 0.23755 0.52712 0.0
C797 C 0.88147 0.23115 0.50645 0.0
C798 C 0.89201 0.22819 0.45771 0.0
C799 C 0.89178 0.24094 0.45505 0.0
C800 C 0.89983 0.25045 0.43914 0.0
C801 C 0.9083 0.24744 0.42577 0.0
C802 C 0.90803 0.23438 0.42792 0.0
C803 C 0.89999 0.22491 0.44381 0.0
C804 C 0.87014 0.208 0.46997 0.0
C805 C 0.86625 0.19358 0.4703 0.0
C806 C 0.85233 0.18298 0.46585 0.0
C807 C 0.84193 0.18661 0.46124 0.0
C808 C 0.84593 0.20115 0.46066 0.0
C809 C 0.85991 0.21174 0.46478 0.0
H810 H 0.99868 0.53818 0.17811 0.0
N811 N 0.98309 0.53094 0.21484 0.0
H812 H 0.99396 0.54732 0.14508 0.0
H813 H 0.96031 0.53254 0.20495 0.0
H814 H 0.95555 0.5419 0.17195 0.0
H815 H 0.97527 0.53315 0.25473 0.0
H816 H 0.98627 0.55388 0.27972 0.0
H817 H 0.00773 0.55594 0.20883 0.0
H818 H 0.01865 0.57667 0.23343 0.0
H819 H 0.01022 0.53557 0.21892 0.0
H820 H 0.96681 0.50303 0.208 0.0
H821 H 0.01716 0.51765 0.21801 0.0
H822 H 0.97384 0.48494 0.20552 0.0
H823 H 0.03537 0.45744 0.19242 0.0
H824 H 0.03421 0.44421 0.15905 0.0
H825 H 0.98977 0.42953 0.15209 0.0
H826 H 0.99109 0.44279 0.18533 0.0
H827 H 0.99058 0.43323 0.22075 0.0
H828 H 0.98768 0.41787 0.25105 0.0
H829 H 0.0293 0.44858 0.2757 0.0
H830 H 0.03214 0.46392 0.24516 0.0
H831 H 0.02811 0.48453 0.19697 0.0
H832 H 0.02046 0.50215 0.19599 0.0
H833 H 0.9816 0.47215 0.22568 0.0
N834 N 0.01441 0.4583 0.2117 0.0
H835 H 0.9889 0.45442 0.2251 0.0
C836 C 0.97985 0.53477 0.1941 0.0
C837 C 0.98916 0.53881 0.1768 0.0
C838 C 0.98651 0.5442 0.15796 0.0
C839 C 0.97453 0.54572 0.15613 0.0
C840 C 0.9649 0.54095 0.17296 0.0
C841 C 0.96758 0.53561 0.19178 0.0
C842 C 0.99054 0.54295 0.22987 0.0
C843 C 0.9848 0.54261 0.25012 0.0
C844 C 0.99105 0.55454 0.26428 0.0
C845 C 0.0032 0.5671 0.25831 0.0
C846 C 0.00925 0.5672 0.23841 0.0
C847 C 0.00296 0.55533 0.22426 0.0
C848 C 0.98783 0.52066 0.21391 0.0
C849 C 0.00211 0.52459 0.21623 0.0
C850 C 0.00614 0.51424 0.2154 0.0
C851 C 0.99609 0.49974 0.21169 0.0
C852 C 0.98187 0.49591 0.20888 0.0
C853 C 0.97782 0.50625 0.21013 0.0
C854 C 0.01335 0.45101 0.1914 0.0
C855 C 0.02542 0.45138 0.18359 0.0
C856 C 0.02472 0.44381 0.16462 0.0
C857 C 0.01187 0.43554 0.15322 0.0
C858 C 0.99977 0.43542 0.1608 0.0
C859 C 0.00052 0.4431 0.17973 0.0
C860 C 0.01169 0.44972 0.23059 0.0
C861 C 0.99903 0.43677 0.23276 0.0
C862 C 0.99735 0.42801 0.25015 0.0
C863 C 0.00835 0.43185 0.26545 0.0
C864 C 0.02074 0.44512 0.26385 0.0
C865 C 0.02236 0.45395 0.24655 0.0
C866 C 0.00928 0.46824 0.21138 0.0
C867 C 0.01791 0.48179 0.20314 0.0
C868 C 0.01355 0.49188 0.2028 0.0
C869 C 0.00045 0.48871 0.21103 0.0
C870 C 0.99168 0.47499 0.21897 0.0
C871 C 0.99596 0.46481 0.21891 0.0
H872 H 0.58807 0.52805 0.23492 0.0
N873 N 0.56332 0.5218 0.25067 0.0
H874 H 0.59823 0.53999 0.20103 0.0
H875 H 0.54985 0.52834 0.21904 0.0
H876 H 0.55976 0.54004 0.18517 0.0
H877 H 0.55618 0.5427 0.25271 0.0
H878 H 0.56785 0.56426 0.27483 0.0
H879 H 0.58022 0.52653 0.28494 0.0
H880 H 0.59218 0.54835 0.30765 0.0
H881 H 0.55636 0.496 0.23601 0.0
H882 H 0.53834 0.5198 0.26399 0.0
H883 H 0.53298 0.47544 0.23029 0.0
H884 H 0.51502 0.49905 0.2596 0.0
H885 H 0.45895 0.41161 0.20547 0.0
H886 H 0.44976 0.40377 0.16835 0.0
H887 H 0.45716 0.44599 0.15521 0.0
H888 H 0.4663 0.45373 0.19227 0.0
H889 H 0.44938 0.44745 0.22305 0.0
H890 H 0.4287 0.43986 0.24529 0.0
H891 H 0.43956 0.41226 0.28026 0.0
H892 H 0.45993 0.41965 0.25759 0.0
H893 H 0.49057 0.43663 0.23586 0.0
H894 H 0.51364 0.45695 0.24555 0.0
H895 H 0.49747 0.48546 0.23376 0.0
N896 N 0.46738 0.43687 0.22432 0.0
H897 H 0.47425 0.46497 0.22587 0.0
C898 C 0.56832 0.52744 0.22958 0.0
C899 C 0.58184 0.53055 0.22398 0.0
C900 C 0.5876 0.53735 0.20467 0.0
C901 C 0.57998 0.54131 0.1907 0.0
C902 C 0.56614 0.5376 0.19585 0.0
C903 C 0.56038 0.53076 0.21516 0.0
C904 C 0.56728 0.53289 0.26717 0.0
C905 C 0.56366 0.54358 0.26514 0.0
C906 C 0.57049 0.55609 0.27798 0.0
C907 C 0.58119 0.55823 0.29313 0.0
C908 C 0.58403 0.54707 0.29615 0.0
C909 C 0.57715 0.53455 0.28331 0.0
C910 C 0.54929 0.50952 0.25036 0.0
C911 C 0.54737 0.49668 0.24137 0.0
C912 C 0.53394 0.48488 0.23824 0.0
C913 C 0.52197 0.48548 0.24446 0.0
C914 C 0.52391 0.49823 0.25417 0.0
C915 C 0.53739 0.51017 0.25692 0.0
C916 C 0.46337 0.43321 0.20173 0.0
C917 C 0.45868 0.41918 0.19449 0.0
C918 C 0.45326 0.41469 0.17336 0.0
C919 C 0.45241 0.42422 0.15902 0.0
C920 C 0.4576 0.43842 0.166 0.0
C921 C 0.4629 0.44287 0.18723 0.0
C922 C 0.45607 0.43392 0.23857 0.0
C923 C 0.44735 0.43984 0.23558 0.0
C924 C 0.43552 0.43547 0.24828 0.0
C925 C 0.43218 0.4251 0.26401 0.0
C926 C 0.44142 0.41982 0.26771 0.0
C927 C 0.45319 0.42416 0.255 0.0
C928 C 0.4808 0.44926 0.22966 0.0
C929 C 0.49207 0.44729 0.23545 0.0
C930 C 0.50528 0.45896 0.24083 0.0
C931 C 0.5076 0.47297 0.24017 0.0
C932 C 0.49615 0.47489 0.23468 0.0
C933 C 0.48285 0.46314 0.22974 0.0
H934 H 0.53366 0.99732 0.20454 0.0
N935 N 0.54281 0.01407 0.24165 0.0
H936 H 0.5453 0.00282 0.1698 0.0
H937 H 0.56532 0.03829 0.23095 0.0
H938 H 0.5771 0.04394 0.19603 0.0
H939 H 0.55631 0.0237 0.27975 0.0
H940 H 0.56804 0.01367 0.30138 0.0
H941 H 0.54204 0.98864 0.23337 0.0
H942 H 0.55355 0.97854 0.25493 0.0
H943 H 0.52056 0.98638 0.24472 0.0
H944 H 0.53112 0.03022 0.23815 0.0
H945 H 0.4958 0.9788 0.24149 0.0
H946 H 0.50622 0.02259 0.2337 0.0
H947 H 0.42151 0.96484 0.18835 0.0
H948 H 0.41645 0.97045 0.15228 0.0
H949 H 0.45061 0.01382 0.16148 0.0
H950 H 0.45567 0.00805 0.19752 0.0
H951 H 0.43897 0.00611 0.22652 0.0
H952 H 0.42288 0.00772 0.25162 0.0
H953 H 0.40738 0.96386 0.2687 0.0
H954 H 0.42365 0.96247 0.24377 0.0
H955 H 0.45449 0.96862 0.20705 0.0
H956 H 0.4791 0.976 0.21478 0.0
H957 H 0.48433 0.01333 0.24989 0.0
N958 N 0.44095 0.98232 0.21724 0.0
H959 H 0.46006 0.0063 0.24101 0.0
C960 C 0.54879 0.01737 0.22045 0.0
C961 C 0.54313 0.00751 0.20285 0.0
C962 C 0.54985 0.01065 0.18301 0.0
C963 C 0.56232 0.0237 0.18042 0.0
C964 C 0.56755 0.03378 0.19768 0.0
C965 C 0.56089 0.03058 0.21757 0.0
C966 C 0.54823 0.00697 0.25503 0.0
C967 C 0.55557 0.01377 0.27439 0.0
C968 C 0.5624 0.00811 0.28656 0.0
C969 C 0.56193 0.99545 0.27953 0.0
C970 C 0.55412 0.98834 0.26062 0.0
C971 C 0.5475 0.99412 0.2483 0.0
C972 C 0.52789 0.00902 0.24181 0.0
C973 C 0.51767 0.99447 0.2427 0.0
C974 C 0.50337 0.99007 0.2406 0.0
C975 C 0.49892 4e-05 0.23715 0.0
C976 C 0.50916 0.01459 0.23669 0.0
C977 C 0.52343 0.01899 0.23912 0.0
C978 C 0.4389 0.98595 0.19561 0.0
C979 C 0.42791 0.97554 0.18251 0.0
C980 C 0.42494 0.97884 0.16201 0.0
C981 C 0.43293 0.99274 0.15427 0.0
C982 C 0.44422 0.00308 0.16715 0.0
C983 C 0.44714 0.99977 0.18771 0.0
C984 C 0.43253 0.98411 0.23332 0.0
C985 C 0.43227 0.9969 0.23589 0.0
C986 C 0.42305 0.99782 0.25026 0.0
C987 C 0.41396 0.98605 0.26244 0.0
C988 C 0.41443 0.97333 0.26012 0.0
C989 C 0.42367 0.97243 0.24574 0.0
C990 C 0.45532 0.98675 0.22352 0.0
C991 C 0.46097 0.97835 0.21651 0.0
C992 C 0.47502 0.98256 0.22112 0.0
C993 C 0.48376 0.99526 0.23309 0.0
C994 C 0.47801 0.00358 0.2404 0.0
C995 C 0.46399 0.99946 0.2355 0.0
H996 H 0.42874 0.94926 0.80376 0.0
N997 N 0.45167 0.97056 0.78737 0.0
H998 H 0.41771 0.94933 0.83774 0.0
H999 H 0.46271 0.99178 0.81896 0.0
H1000 H 0.45164 0.99216 0.85259 0.0
H1001 H 0.45723 0.99815 0.78491 0.0
H1002 H 0.44613 0.00685 0.75953 0.0
H1003 H 0.43601 0.95689 0.75237 0.0
H1004 H 0.42494 0.96558 0.72659 0.0
H1005 H 0.45679 0.94948 0.78038 0.0
H1006 H 0.47748 0.99497 0.79114 0.0
H1007 H 0.47952 0.95061 0.78035 0.0
H1008 H 0.50025 0.99618 0.79303 0.0
H1009 H 0.5554 0.95835 0.80734 0.0
H1010 H 0.56884 0.96244 0.84145 0.0
H1011 H 0.56228 0.99756 0.85789 0.0
H1012 H 0.54911 0.99357 0.82357 0.0
H1013 H 0.56561 0.00098 0.78907 0.0
H1014 H 0.58352 0.01019 0.7615 0.0
H1015 H 0.56253 0.96914 0.72788 0.0
H1016 H 0.54462 0.95997 0.75575 0.0
H1017 H 0.51943 0.95329 0.80491 0.0
H1018 H 0.49723 0.95323 0.80379 0.0
H1019 H 0.518 0.99482 0.77518 0.0
N1020 N 0.5443 0.97337 0.79203 0.0
H1021 H 0.54031 0.99518 0.77795 0.0
C1022 C 0.44643 0.9705 0.80864 0.0
C1023 C 0.43384 0.95857 0.81454 0.0
C1024 C 0.42748 0.95873 0.83389 0.0
C1025 C 0.43359 0.97099 0.84764 0.0
C1026 C 0.44662 0.98263 0.84224 0.0
C1027 C 0.45297 0.98242 0.82292 0.0
C1028 C 0.44728 0.97676 0.77067 0.0
C1029 C 0.45031 0.991 0.77216 0.0
C1030 C 0.44382 0.99592 0.75773 0.0
C1031 C 0.4343 0.98672 0.74146 0.0
C1032 C 0.4321 0.97283 0.73913 0.0
C1033 C 0.43844 0.96788 0.75372 0.0
C1034 C 0.4654 0.97203 0.78617 0.0
C1035 C 0.46629 0.95971 0.78291 0.0
C1036 C 0.47932 0.96039 0.7832 0.0
C1037 C 0.49184 0.97346 0.7872 0.0
C1038 C 0.49092 0.98592 0.78983 0.0
C1039 C 0.47784 0.98524 0.78907 0.0
C1040 C 0.55107 0.97545 0.81309 0.0
C1041 C 0.55672 0.96679 0.81848 0.0
C1042 C 0.56442 0.96918 0.83785 0.0
C1043 C 0.5664 0.98013 0.85245 0.0
C1044 C 0.56063 0.98879 0.84722 0.0
C1045 C 0.55311 0.98654 0.82758 0.0
C1046 C 0.5539 0.97968 0.77458 0.0
C1047 C 0.56482 0.99399 0.77572 0.0
C1048 C 0.57513 0.9992 0.76003 0.0
C1049 C 0.57464 0.99021 0.74288 0.0
C1050 C 0.56322 0.97623 0.74106 0.0
C1051 C 0.553 0.97099 0.75687 0.0
C1052 C 0.5315 0.97406 0.79124 0.0
C1053 C 0.51916 0.96241 0.79851 0.0
C1054 C 0.50644 0.96236 0.7976 0.0
C1055 C 0.50565 0.97391 0.78897 0.0
C1056 C 0.51813 0.98576 0.78205 0.0
C1057 C 0.53095 0.98591 0.78341 0.0
H1058 H 0.98778 0.55947 0.82096 0.0
N1059 N 0.00747 0.55534 0.80022 0.0
H1060 H 0.99107 0.57248 0.85476 0.0
H1061 H 0.03019 0.5671 0.82646 0.0
H1062 H 0.03356 0.58008 0.86109 0.0
H1063 H 0.02342 0.57753 0.77614 0.0
H1064 H 0.0157 0.58956 0.75094 0.0
H1065 H 0.98023 0.54532 0.78528 0.0
H1066 H 0.97243 0.55743 0.76063 0.0
H1067 H 0.98309 0.53531 0.81884 0.0
H1068 H 0.0185 0.54083 0.78227 0.0
H1069 H 0.97389 0.50974 0.81896 0.0
H1070 H 0.00951 0.51507 0.78283 0.0
H1071 H 0.95027 0.42897 0.82976 0.0
H1072 H 0.9559 0.41769 0.85936 0.0
H1073 H 0.00021 0.44709 0.85119 0.0
H1074 H 0.99442 0.45833 0.82211 0.0
H1075 H 0.99101 0.45082 0.78467 0.0
H1076 H 0.99037 0.43324 0.75886 0.0
H1077 H 0.94493 0.41167 0.75666 0.0
H1078 H 0.94575 0.42957 0.78233 0.0
H1079 H 0.9691 0.46715 0.83599 0.0
H1080 H 0.9789 0.4928 0.83506 0.0
H1081 H 0.99047 0.49241 0.76859 0.0
N1082 N 0.96818 0.44941 0.80448 0.0
H1083 H 0.98104 0.46689 0.76956 0.0
C1084 C 0.00878 0.56225 0.82108 0.0
C1085 C 0.99778 0.56376 0.82961 0.0
C1086 C 0.99966 0.57117 0.84926 0.0
C1087 C 0.01256 0.57714 0.861 0.0
C1088 C 0.02348 0.57552 0.85251 0.0
C1089 C 0.02159 0.56811 0.8328 0.0
C1090 C 0.00251 0.56064 0.78285 0.0
C1091 C 0.01229 0.57296 0.77247 0.0
C1092 C 0.00781 0.57992 0.75828 0.0
C1093 C 0.99336 0.5747 0.75439 0.0
C1094 C 0.98361 0.56177 0.76351 0.0
C1095 C 0.9881 0.55482 0.77767 0.0
C1096 C 0.00159 0.54007 0.80055 0.0
C1097 C 0.98896 0.53107 0.81091 0.0
C1098 C 0.98373 0.51638 0.81108 0.0
C1099 C 0.991 0.51033 0.80104 0.0
C1100 C 0.00356 0.51934 0.79054 0.0
C1101 C 0.00876 0.53405 0.7903 0.0
C1102 C 0.97187 0.44445 0.82377 0.0
C1103 C 0.96116 0.43314 0.83479 0.0
C1104 C 0.96441 0.42671 0.85161 0.0
C1105 C 0.97846 0.43148 0.85783 0.0
C1106 C 0.98924 0.44319 0.84726 0.0
C1107 C 0.98596 0.44962 0.83041 0.0
C1108 C 0.96836 0.4414 0.78562 0.0
C1109 C 0.98093 0.44247 0.77833 0.0
C1110 C 0.98051 0.43227 0.76369 0.0
C1111 C 0.96753 0.42068 0.75634 0.0
C1112 C 0.95508 0.42037 0.76222 0.0
C1113 C 0.95551 0.4306 0.7768 0.0
C1114 C 0.97476 0.46484 0.80331 0.0
C1115 C 0.974 0.47256 0.8213 0.0
C1116 C 0.97945 0.48726 0.82066 0.0
C1117 C 0.98555 0.4947 0.80178 0.0
C1118 C 0.98613 0.48705 0.78357 0.0
C1119 C 0.98071 0.4723 0.78422 0.0
H1120 H 0.44487 0.44995 0.80312 0.0
N1121 N 0.45517 0.47824 0.79318 0.0
H1122 H 0.43383 0.43858 0.8363 0.0
H1123 H 0.45057 0.49007 0.82816 0.0
H1124 H 0.43997 0.47854 0.86235 0.0
H1125 H 0.43218 0.47254 0.77016 0.0
H1126 H 0.41976 0.45346 0.7428 0.0
H1127 H 0.46615 0.46336 0.77221 0.0
H1128 H 0.45372 0.44423 0.74529 0.0
H1129 H 0.47325 0.47081 0.81229 0.0
H1130 H 0.47123 0.50481 0.78012 0.0
H1131 H 0.4983 0.48633 0.81949 0.0
H1132 H 0.49661 0.52037 0.78641 0.0
H1133 H 0.56084 0.53371 0.86792 0.0
H1134 H 0.56875 0.54902 0.9007 0.0
H1135 H 0.5704 0.58349 0.86412 0.0
H1136 H 0.56236 0.56811 0.83157 0.0
H1137 H 0.55599 0.55646 0.79489 0.0
H1138 H 0.57374 0.56939 0.76818 0.0
H1139 H 0.59962 0.55349 0.79535 0.0
H1140 H 0.58162 0.54042 0.82207 0.0
H1141 H 0.54534 0.51368 0.815 0.0
H1142 H 0.52068 0.49818 0.80386 0.0
H1143 H 0.51292 0.53309 0.81555 0.0
N1144 N 0.55796 0.54084 0.82792 0.0
H1145 H 0.53764 0.54859 0.82562 0.0
C1146 C 0.44829 0.47096 0.8127 0.0
C1147 C 0.44362 0.45636 0.81552 0.0
C1148 C 0.43728 0.44978 0.83462 0.0
C1149 C 0.43581 0.45766 0.85162 0.0
C1150 C 0.44084 0.47226 0.84927 0.0
C1151 C 0.44684 0.4788 0.82982 0.0
C1152 C 0.45 0.46937 0.77359 0.0
C1153 C 0.43711 0.46665 0.76434 0.0
C1154 C 0.42993 0.45558 0.74892 0.0
C1155 C 0.43554 0.44695 0.74254 0.0
C1156 C 0.44908 0.45059 0.75013 0.0
C1157 C 0.45623 0.46163 0.76557 0.0
C1158 C 0.47029 0.48673 0.79583 0.0
C1159 C 0.47823 0.48159 0.80654 0.0
C1160 C 0.49265 0.49048 0.81048 0.0
C1161 C 0.49952 0.50467 0.80363 0.0
C1162 C 0.49163 0.50961 0.79228 0.0
C1163 C 0.47717 0.50071 0.78848 0.0
C1164 C 0.56108 0.5497 0.84728 0.0
C1165 C 0.56263 0.54448 0.86713 0.0
C1166 C 0.56707 0.55324 0.88587 0.0
C1167 C 0.57005 0.56746 0.885 0.0
C1168 C 0.56814 0.57257 0.86523 0.0
C1169 C 0.56356 0.56376 0.84658 0.0
C1170 C 0.56755 0.54752 0.81059 0.0
C1171 C 0.56542 0.55566 0.79504 0.0
C1172 C 0.5757 0.56322 0.7799 0.0
C1173 C 0.5883 0.56279 0.78009 0.0
C1174 C 0.59009 0.55413 0.79501 0.0
C1175 C 0.57984 0.54665 0.8102 0.0
C1176 C 0.54332 0.53219 0.82147 0.0
C1177 C 0.53828 0.51795 0.81507 0.0
C1178 C 0.52417 0.50911 0.80883 0.0
C1179 C 0.51474 0.51432 0.80898 0.0
C1180 C 0.51989 0.52872 0.81501 0.0
C1181 C 0.53405 0.5376 0.82106 0.0
H1182 H 0.70636 0.90027 0.54085 0.0
N1183 N 0.68694 0.87838 0.56205 0.0
H1184 H 0.70288 0.91136 0.50888 0.0
H1185 H 0.66256 0.86794 0.53768 0.0
H1186 H 0.65883 0.87895 0.5061 0.0
H1187 H 0.66263 0.87778 0.57359 0.0
H1188 H 0.6609 0.89364 0.60031 0.0
H1189 H 0.7063 0.89485 0.59185 0.0
H1190 H 0.70465 0.91081 0.61871 0.0
H1191 H 0.70146 0.86666 0.54768 0.0
H1192 H 0.66221 0.85617 0.57699 0.0
H1193 H 0.69441 0.84144 0.54565 0.0
H1194 H 0.65537 0.83106 0.57612 0.0
H1195 H 0.67599 0.78653 0.51919 0.0
H1196 H 0.6738 0.77618 0.48293 0.0
H1197 H 0.63311 0.74085 0.49827 0.0
H1198 H 0.63541 0.75137 0.53471 0.0
H1199 H 0.64637 0.75966 0.58752 0.0
H1200 H 0.65535 0.74711 0.60937 0.0
H1201 H 0.69189 0.76337 0.56944 0.0
H1202 H 0.68293 0.77585 0.54793 0.0
H1203 H 0.6842 0.79713 0.56158 0.0
H1204 H 0.69092 0.82198 0.56594 0.0
H1205 H 0.64791 0.81118 0.55233 0.0
N1206 N 0.65745 0.77453 0.55208 0.0
H1207 H 0.64107 0.78599 0.54918 0.0
C1208 C 0.68478 0.88334 0.5416 0.0
C1209 C 0.69606 0.89543 0.53295 0.0
C1210 C 0.69402 0.90173 0.51475 0.0
C1211 C 0.68063 0.89607 0.50477 0.0
C1212 C 0.66937 0.88358 0.51299 0.0
C1213 C 0.67145 0.87726 0.53123 0.0
C1214 C 0.68467 0.88512 0.58069 0.0
C1215 C 0.67175 0.8846 0.58379 0.0
C1216 C 0.67077 0.89373 0.59904 0.0
C1217 C 0.68271 0.90373 0.61114 0.0
C1218 C 0.69535 0.90352 0.60918 0.0
C1219 C 0.69628 0.89428 0.59406 0.0
C1220 C 0.68252 0.86341 0.56264 0.0
C1221 C 0.69142 0.85891 0.55402 0.0
C1222 C 0.68738 0.84448 0.55301 0.0
C1223 C 0.67433 0.83413 0.56085 0.0
C1224 C 0.66542 0.83867 0.56967 0.0
C1225 C 0.66941 0.85314 0.5704 0.0
C1226 C 0.65586 0.76963 0.52975 0.0
C1227 C 0.66656 0.77661 0.51475 0.0
C1228 C 0.66535 0.77057 0.49404 0.0
C1229 C 0.65342 0.75744 0.48796 0.0
C1230 C 0.64247 0.75089 0.50261 0.0
C1231 C 0.64374 0.75688 0.52334 0.0
C1232 C 0.66386 0.76866 0.56606 0.0
C1233 C 0.65639 0.76062 0.58371 0.0
C1234 C 0.66149 0.75333 0.59602 0.0
C1235 C 0.67423 0.75399 0.59079 0.0
C1236 C 0.68202 0.76261 0.57378 0.0
C1237 C 0.67687 0.76977 0.56142 0.0
C1238 C 0.66198 0.7895 0.55525 0.0
C1239 C 0.6761 0.79993 0.55978 0.0
C1240 C 0.68 0.81431 0.56206 0.0
C1241 C 0.66999 0.8187 0.55943 0.0
C1242 C 0.65589 0.80824 0.55487 0.0
C1243 C 0.65196 0.79383 0.5529 0.0
H1244 H 0.23978 0.86657 0.54842 0.0
N1245 N 0.21781 0.86015 0.57262 0.0
H1246 H 0.24694 0.88107 0.51633 0.0
H1247 H 0.20244 0.87005 0.55125 0.0
H1248 H 0.20943 0.88454 0.51894 0.0
H1249 H 0.21082 0.87981 0.58734 0.0
H1250 H 0.22432 0.89902 0.61369 0.0
H1251 H 0.23797 0.86245 0.59954 0.0
H1252 H 0.25193 0.88204 0.62572 0.0
H1253 H 0.21329 0.83422 0.56373 0.0
H1254 H 0.19222 0.85681 0.584 0.0
H1255 H 0.19081 0.81184 0.56217 0.0
H1256 H 0.16969 0.83461 0.58198 0.0
H1257 H 0.11744 0.74147 0.55133 0.0
H1258 H 0.10562 0.72955 0.51684 0.0
H1259 H 0.10954 0.76901 0.49484 0.0
H1260 H 0.12123 0.78078 0.5293 0.0
H1261 H 0.11179 0.78313 0.56318 0.0
H1262 H 0.09107 0.77825 0.58395 0.0
H1263 H 0.09327 0.74415 0.61585 0.0
H1264 H 0.1138 0.74901 0.59487 0.0
H1265 H 0.14762 0.77823 0.53688 0.0
H1266 H 0.16962 0.80068 0.53978 0.0
H1267 H 0.15627 0.81149 0.599 0.0
N1268 N 0.12574 0.76809 0.56429 0.0
H1269 H 0.13418 0.78927 0.59609 0.0
C1270 C 0.22062 0.86718 0.55218 0.0
C1271 C 0.23297 0.87019 0.54172 0.0
C1272 C 0.23697 0.87843 0.52322 0.0
C1273 C 0.22858 0.88379 0.51476 0.0
C1274 C 0.21602 0.88045 0.52498 0.0
C1275 C 0.21202 0.87217 0.54348 0.0
C1276 C 0.22342 0.86964 0.59137 0.0
C1277 C 0.21948 0.8799 0.59606 0.0
C1278 C 0.22743 0.8911 0.61095 0.0
C1279 C 0.23958 0.89238 0.6212 0.0
C1280 C 0.24273 0.88144 0.61788 0.0
C1281 C 0.23476 0.87022 0.60303 0.0
C1282 C 0.2045 0.84717 0.574 0.0
C1283 C 0.20381 0.83431 0.568 0.0
C1284 C 0.19094 0.82158 0.56689 0.0
C1285 C 0.17842 0.82145 0.5717 0.0
C1286 C 0.17915 0.83432 0.57829 0.0
C1287 C 0.19207 0.84708 0.57941 0.0
C1288 C 0.12037 0.762 0.54281 0.0
C1289 C 0.11597 0.74758 0.53886 0.0
C1290 C 0.10919 0.7408 0.51926 0.0
C1291 C 0.10686 0.74837 0.50303 0.0
C1292 C 0.11149 0.76294 0.50677 0.0
C1293 C 0.1181 0.76967 0.52655 0.0
C1294 C 0.11427 0.76634 0.57748 0.0
C1295 C 0.10777 0.77461 0.57462 0.0
C1296 C 0.09598 0.77183 0.5865 0.0
C1297 C 0.09032 0.76059 0.60105 0.0
C1298 C 0.09706 0.75259 0.60425 0.0
C1299 C 0.1089 0.75545 0.59251 0.0
C1300 C 0.13845 0.7821 0.56533 0.0
C1301 C 0.14909 0.78553 0.55019 0.0
C1302 C 0.16188 0.79835 0.55205 0.0
C1303 C 0.16465 0.80798 0.5695 0.0
C1304 C 0.15431 0.8045 0.58502 0.0
C1305 C 0.14151 0.79168 0.58318 0.0
H1306 H 0.21985 0.33888 0.53916 0.0
N1307 N 0.21862 0.359 0.56509 0.0
H1308 H 0.22961 0.34232 0.50343 0.0
H1309 H 0.22933 0.38261 0.54229 0.0
H1310 H 0.2398 0.3864 0.50639 0.0
H1311 H 0.24093 0.3771 0.58908 0.0
H1312 H 0.25588 0.37166 0.61227 0.0
H1313 H 0.21305 0.33213 0.57651 0.0
H1314 H 0.22772 0.32665 0.5989 0.0
H1315 H 0.19783 0.33197 0.55219 0.0
H1316 H 0.20534 0.37222 0.57913 0.0
H1317 H 0.17278 0.32266 0.55281 0.0
H1318 H 0.18009 0.36346 0.5778 0.0
H1319 H 0.09382 0.30549 0.52841 0.0
H1320 H 0.08622 0.31242 0.49583 0.0
H1321 H 0.11956 0.35606 0.50705 0.0
H1322 H 0.12679 0.34895 0.54016 0.0
H1323 H 0.11234 0.34411 0.57349 0.0
H1324 H 0.09741 0.34279 0.60309 0.0
H1325 H 0.08442 0.29828 0.61035 0.0
H1326 H 0.09962 0.29979 0.58061 0.0
H1327 H 0.12998 0.31483 0.53169 0.0
H1328 H 0.15512 0.32362 0.5345 0.0
H1329 H 0.15816 0.34905 0.59139 0.0
N1330 N 0.11472 0.32202 0.55602 0.0
H1331 H 0.13335 0.34116 0.58734 0.0
C1332 C 0.22392 0.36056 0.54351 0.0
C1333 C 0.22403 0.34926 0.53216 0.0
C1334 C 0.22986 0.35134 0.51169 0.0
C1335 C 0.23593 0.36483 0.50228 0.0
C1336 C 0.23534 0.37594 0.51333 0.0
C1337 C 0.22941 0.37382 0.53378 0.0
C1338 C 0.2258 0.35513 0.58107 0.0
C1339 C 0.23786 0.36606 0.59168 0.0
C1340 C 0.2464 0.36293 0.60481 0.0
C1341 C 0.24307 0.34874 0.60767 0.0
C1342 C 0.23068 0.33773 0.59759 0.0
C1343 C 0.22215 0.34089 0.58448 0.0
C1344 C 0.20358 0.35277 0.56624 0.0
C1345 C 0.19415 0.33881 0.55857 0.0
C1346 C 0.17967 0.33356 0.55845 0.0
C1347 C 0.17423 0.34229 0.56517 0.0
C1348 C 0.18374 0.35626 0.57289 0.0
C1349 C 0.19822 0.36135 0.57355 0.0
C1350 C 0.11092 0.32661 0.5365 0.0
C1351 C 0.09952 0.31652 0.52367 0.0
C1352 C 0.0953 0.32054 0.50487 0.0
C1353 C 0.10255 0.33483 0.49839 0.0
C1354 C 0.11388 0.34497 0.51147 0.0
C1355 C 0.11804 0.34093 0.53036 0.0
C1356 C 0.10692 0.32194 0.57466 0.0
C1357 C 0.10627 0.33406 0.58141 0.0
C1358 C 0.09761 0.33325 0.5983 0.0
C1359 C 0.08936 0.32026 0.60868 0.0
C1360 C 0.09054 0.30837 0.60251 0.0
C1361 C 0.09919 0.3092 0.58559 0.0
C1362 C 0.12961 0.32719 0.55919 0.0
C1363 C 0.13611 0.32233 0.54473 0.0
C1364 C 0.15051 0.32728 0.54656 0.0
C1365 C 0.15881 0.337 0.56334 0.0
C1366 C 0.15225 0.34176 0.57803 0.0
C1367 C 0.13788 0.33708 0.57584 0.0
H1368 H 0.98282 0.37961 0.03858 0.0
C1369 C 0.99157 0.37773 0.03641 0.0
H1370 H 0.01098 0.38126 0.04968 0.0
H1371 H 0.00209 0.43238 0.0951 0.0
H1372 H 0.00601 0.44214 0.05912 0.0
H1373 H 0.00876 0.42922 0.028 0.0
H1374 H 0.00738 0.40639 0.03263 0.0
C1375 C 0.00219 0.38311 0.05126 0.0
C1376 C 0.0021 0.39167 0.07034 0.0
C1377 C 0.00351 0.4053 0.06748 0.0
C1378 C 0.00251 0.41303 0.08558 0.0
C1379 C 0.00324 0.42627 0.08208 0.0
C1380 C 0.00542 0.43197 0.06147 0.0
C1381 C 0.00692 0.42468 0.04394 0.0
C1382 C 0.00601 0.41152 0.04681 0.0
H1383 H 0.02145 0.4309 0.12524 0.0
C1384 C 0.01159 0.42741 0.1334 0.0
H1385 H 0.99027 0.41108 0.1344 0.0
H1386 H 0.99956 0.36616 0.0815 0.0
H1387 H 0.9966 0.35683 0.11774 0.0
H1388 H 0.99557 0.37055 0.1493 0.0
H1389 H 0.99744 0.39364 0.14481 0.0
C1390 C 4e-05 0.41557 0.12577 0.0
C1391 C 0.0007 0.40738 0.10664 0.0
C1392 C 0.99962 0.39392 0.10955 0.0
C1393 C 0.00035 0.38606 0.09139 0.0
C1394 C 0.99916 0.37261 0.09475 0.0
C1395 C 0.99745 0.36713 0.11547 0.0
C1396 C 0.99687 0.37484 0.13323 0.0
C1397 C 0.99793 0.38808 0.13042 0.0
H1398 H 0.61236 0.6134 0.10637 0.0
C1399 C 0.61924 0.61123 0.09653 0.0
H1400 H 0.62598 0.59652 0.08897 0.0
H1401 H 0.60045 0.57924 0.18797 0.0
H1402 H 0.62067 0.60181 0.19963 0.0
H1403 H 0.63677 0.61837 0.17289 0.0
H1404 H 0.63266 0.61254 0.13438 0.0
C1405 C 0.61942 0.59904 0.09898 0.0
C1406 C 0.61049 0.58858 0.11523 0.0
C1407 C 0.61332 0.59203 0.13774 0.0
C1408 C 0.60429 0.58231 0.15317 0.0
C1409 C 0.60709 0.58615 0.17554 0.0
C1410 C 0.61866 0.59907 0.18247 0.0
C1411 C 0.6277 0.60841 0.16742 0.0
C1412 C 0.62515 0.60497 0.14532 0.0
H1413 H 0.59638 0.5497 0.16598 0.0
C1414 C 0.58706 0.54978 0.1715 0.0
H1415 H 0.57495 0.56 0.16817 0.0
H1416 H 0.60244 0.57852 0.07338 0.0
H1417 H 0.58262 0.55557 0.06188 0.0
H1418 H 0.56727 0.53852 0.08879 0.0
H1419 H 0.57161 0.54433 0.12741 0.0
C1420 C 0.58359 0.55881 0.16236 0.0
C1421 C 0.59277 0.569 0.1461 0.0
C1422 C 0.59014 0.5654 0.12368 0.0
C1423 C 0.59903 0.57521 0.10819 0.0
C1424 C 0.59607 0.57142 0.08585 0.0
C1425 C 0.58472 0.5583 0.07903 0.0
C1426 C 0.57607 0.5487 0.09418 0.0
C1427 C 0.57869 0.55215 0.11627 0.0
H1428 H 0.38211 0.99301 0.04508 0.0
C1429 C 0.39017 0.99961 0.03379 0.0
H1430 H 0.41208 0.01171 0.02878 0.0
H1431 H 0.42043 0.01548 0.13309 0.0
H1432 H 0.42217 0.0384 0.12753 0.0
H1433 H 0.41752 0.04483 0.09136 0.0
H1434 H 0.41098 0.02827 0.06054 0.0
C1435 C 0.40377 0.00496 0.03957 0.0
C1436 C 0.40776 0.00157 0.06084 0.0
C1437 C 0.41198 0.01151 0.0785 0.0
C1438 C 0.41495 0.00792 0.09923 0.0
C1439 C 0.41847 0.01779 0.11683 0.0
C1440 C 0.41941 0.03097 0.1139 0.0
C1441 C 0.41677 0.03458 0.09354 0.0
C1442 C 0.41304 0.02499 0.076 0.0
H1443 H 0.43833 0.00564 0.12474 0.0
C1444 C 0.42981 0.99676 0.13285 0.0
H1445 H 0.408 0.98173 0.13156 0.0
H1446 H 0.40089 0.98052 0.0299 0.0
H1447 H 0.39944 0.95768 0.0352 0.0
H1448 H 0.4047 0.95144 0.0711 0.0
H1449 H 0.41146 0.96799 0.1019 0.0
C1450 C 0.41681 0.99042 0.1237 0.0
C1451 C 0.41404 0.9945 0.10206 0.0
C1452 C 0.41003 0.98465 0.08427 0.0
C1453 C 0.40695 0.98822 0.06361 0.0
C1454 C 0.40317 0.97828 0.04603 0.0
C1455 C 0.40235 0.96515 0.04882 0.0
C1456 C 0.40531 0.96164 0.06903 0.0
C1457 C 0.40915 0.97124 0.08659 0.0
H1458 H 0.37244 0.96533 0.94417 0.0
C1459 C 0.37655 0.97678 0.94463 0.0
H1460 H 0.39136 0.99663 0.93222 0.0
H1461 H 0.41974 0.95716 0.90501 0.0
H1462 H 0.42358 0.95602 0.94365 0.0
H1463 H 0.41398 0.96583 0.97043 0.0
H1464 H 0.40036 0.97669 0.95875 0.0
C1465 C 0.38759 0.98526 0.93261 0.0
C1466 C 0.3935 0.97932 0.91682 0.0
C1467 C 0.40166 0.97327 0.92397 0.0
C1468 C 0.40757 0.96801 0.90853 0.0
C1469 C 0.41535 0.96166 0.91605 0.0
C1470 C 0.41757 0.96088 0.93818 0.0
C1471 C 0.41214 0.96637 0.95326 0.0
C1472 C 0.40428 0.97252 0.94634 0.0
H1473 H 0.43265 0.9814 0.87823 0.0
C1474 C 0.42645 0.97249 0.86694 0.0
H1475 H 0.40573 0.95637 0.85795 0.0
H1476 H 0.37791 0.98978 0.89774 0.0
H1477 H 0.37453 0.99139 0.85918 0.0
H1478 H 0.3854 0.98299 0.8324 0.0
H1479 H 0.39962 0.97285 0.84402 0.0
C1480 C 0.4125 0.96469 0.86964 0.0
C1481 C 0.40559 0.96916 0.88602 0.0
C1482 C 0.39731 0.97508 0.8789 0.0
C1483 C 0.39124 0.98014 0.89432 0.0
C1484 C 0.38294 0.98594 0.88675 0.0
C1485 C 0.38088 0.98691 0.86464 0.0
C1486 C 0.38698 0.98216 0.84957 0.0
C1487 C 0.39511 0.97632 0.8565 0.0
H1488 H 0.01873 0.39878 0.94916 0.0
C1489 C 0.00927 0.38836 0.94922 0.0
H1490 H 0.98846 0.37552 0.93702 0.0
H1491 H 0.99706 0.43966 0.92083 0.0
H1492 H 0.99853 0.44264 0.96009 0.0
H1493 H 0.99934 0.42473 0.98335 0.0
H1494 H 0.99878 0.4038 0.96755 0.0
C1495 C 0.99775 0.38606 0.93787 0.0
C1496 C 0.99772 0.3972 0.92415 0.0
C1497 C 0.998 0.40935 0.93374 0.0
C1498 C 0.99729 0.41957 0.92036 0.0
C1499 C 0.99753 0.43157 0.93027 0.0
C1500 C 0.99836 0.4334 0.95277 0.0
C1501 C 0.99883 0.42332 0.96587 0.0
C1502 C 0.99859 0.41138 0.95657 0.0
H1503 H 0.97271 0.41254 0.87745 0.0
C1504 C 0.98134 0.4231 0.87391 0.0
H1505 H 0.00277 0.43804 0.88176 0.0
H1506 H 0.99748 0.37541 0.9006 0.0
H1507 H 0.99634 0.37267 0.86138 0.0
H1508 H 0.99546 0.39058 0.83822 0.0
H1509 H 0.99556 0.41124 0.85413 0.0
C1510 C 0.99394 0.42739 0.88362 0.0
C1511 C 0.99602 0.41746 0.89752 0.0
C1512 C 0.99617 0.40555 0.88792 0.0
C1513 C 0.99688 0.39534 0.90126 0.0
C1514 C 0.99689 0.38348 0.89125 0.0
C1515 C 0.99629 0.38179 0.86874 0.0
C1516 C 0.99577 0.39186 0.8557 0.0
C1517 C 0.99575 0.40363 0.86507 0.0
H1518 H 0.591 0.61232 0.0115 0.0
C1519 C 0.60236 0.61717 0.01077 0.0
H1520 H 0.61931 0.61907 0.99265 0.0
H1521 H 0.58678 0.56125 0.94 0.0
H1522 H 0.6025 0.55729 0.96305 0.0
H1523 H 0.61658 0.57449 0.99254 0.0
H1524 H 0.61516 0.59583 0.99897 0.0
C1525 C 0.608 0.61462 0.99328 0.0
C1526 C 0.59903 0.60414 0.97586 0.0
C1527 C 0.59978 0.59154 0.97259 0.0
C1528 C 0.5914 0.58145 0.95593 0.0
C1529 C 0.59269 0.56917 0.95265 0.0
C1530 C 0.6017 0.56676 0.96575 0.0
C1531 C 0.60965 0.57645 0.98232 0.0
C1532 C 0.60875 0.5887 0.98578 0.0
H1533 H 0.58323 0.58877 0.90051 0.0
C1534 C 0.57633 0.57756 0.90384 0.0
H1535 H 0.56703 0.56249 0.9284 0.0
H1536 H 0.59603 0.62781 0.97616 0.0
H1537 H 0.57921 0.63106 0.95466 0.0
H1538 H 0.56296 0.61241 0.92836 0.0
H1539 H 0.5637 0.59056 0.92303 0.0
C1540 C 0.57402 0.57357 0.92459 0.0
C1541 C 0.5821 0.58384 0.94278 0.0
C1542 C 0.58096 0.59618 0.94657 0.0
C1543 C 0.58975 0.60656 0.96266 0.0
C1544 C 0.58914 0.61927 0.96494 0.0
C1545 C 0.5796 0.62132 0.95258 0.0
C1546 C 0.57049 0.61085 0.93771 0.0
C1547 C 0.57111 0.5984 0.93468 0.0
H1548 H 0.999 0.62373 0.96464 0.0
C1549 C 0.00674 0.62485 0.9769 0.0
H1550 H 0.02241 0.61973 0.9853 0.0
H1551 H 0.99795 0.56581 0.9218 0.0
H1552 H 0.99276 0.5548 0.95693 0.0
H1553 H 0.99674 0.56921 0.99045 0.0
H1554 H 0.00594 0.59472 0.98909 0.0
C1555 C 0.01503 0.61926 0.9729 0.0
C1556 C 0.01313 0.61076 0.95262 0.0
C1557 C 0.0077 0.59584 0.95373 0.0
C1558 C 0.00524 0.5875 0.93438 0.0
C1559 C 0.99987 0.57263 0.93597 0.0
C1560 C 0.99687 0.56618 0.95603 0.0
C1561 C 0.99911 0.57429 0.97491 0.0
C1562 C 0.00444 0.58894 0.97388 0.0
H1563 H 0.02609 0.59271 0.88683 0.0
C1564 C 0.01522 0.58568 0.88149 0.0
H1565 H 0.99398 0.57753 0.89001 0.0
H1566 H 0.02524 0.63929 0.94496 0.0
H1567 H 0.02992 0.65024 0.9098 0.0
H1568 H 0.02429 0.63558 0.87611 0.0
H1569 H 0.01417 0.60995 0.87738 0.0
C1570 C 0.00495 0.58513 0.89377 0.0
C1571 C 0.00819 0.59407 0.91396 0.0
C1572 C 0.01372 0.60901 0.91285 0.0
C1573 C 0.01644 0.6174 0.93223 0.0
C1574 C 0.02251 0.63236 0.93072 0.0
C1575 C 0.02533 0.63879 0.91064 0.0
C1576 C 0.0222 0.63054 0.89168 0.0
C1577 C 0.01646 0.61583 0.89266 0.0
H1578 H 0.37824 0.40314 0.9483 0.0
C1579 C 0.38355 0.39744 0.95338 0.0
H1580 H 0.40161 0.39552 0.95135 0.0
H1581 H 0.41818 0.41653 0.85721 0.0
H1582 H 0.41397 0.39241 0.85498 0.0
H1583 H 0.40404 0.37636 0.88568 0.0
H1584 H 0.39851 0.38442 0.91884 0.0
C1585 C 0.39635 0.40121 0.94604 0.0
C1586 C 0.40249 0.41119 0.92781 0.0
C1587 C 0.40532 0.40614 0.90824 0.0
C1588 C 0.41055 0.41522 0.89024 0.0
C1589 C 0.41379 0.41003 0.8712 0.0
C1590 C 0.41149 0.39618 0.8697 0.0
C1591 C 0.40594 0.38716 0.88699 0.0
C1592 C 0.40286 0.392 0.90603 0.0
H1593 H 0.4354 0.4555 0.88728 0.0
C1594 C 0.42961 0.45067 0.87213 0.0
H1595 H 0.41175 0.43366 0.85673 0.0
H1596 H 0.40071 0.42517 0.96399 0.0
H1597 H 0.40341 0.44882 0.96556 0.0
H1598 H 0.40932 0.46336 0.93289 0.0
H1599 H 0.41302 0.45456 0.8987 0.0
C1600 C 0.41743 0.43821 0.87206 0.0
C1601 C 0.41246 0.42918 0.89151 0.0
C1602 C 0.40945 0.43418 0.91099 0.0
C1603 C 0.40502 0.42538 0.92943 0.0
C1604 C 0.40327 0.43108 0.94919 0.0
C1605 C 0.40491 0.44468 0.95036 0.0
C1606 C 0.40831 0.4529 0.932 0.0
C1607 C 0.41054 0.44776 0.9125 0.0
H1608 H 0.59008 0.98033 0.98615 0.0
C1609 C 0.60122 0.98823 0.98684 0.0
H1610 H 0.6184 0.00354 0.96945 0.0
H1611 H 0.56576 0.96082 0.8987 0.0
H1612 H 0.5685 0.94144 0.9122 0.0
H1613 H 0.58592 0.94574 0.9414 0.0
H1614 H 0.60033 0.96934 0.95775 0.0
C1615 C 0.60733 0.99541 0.96892 0.0
C1616 C 0.5989 0.9933 0.94855 0.0
C1617 C 0.59134 0.97964 0.93806 0.0
C1618 C 0.58211 0.9774 0.92007 0.0
C1619 C 0.57362 0.96335 0.91142 0.0
C1620 C 0.57498 0.95208 0.91917 0.0
C1621 C 0.58472 0.95448 0.93569 0.0
C1622 C 0.59283 0.96807 0.94508 0.0
H1623 H 0.58322 0.9797 0.87198 0.0
C1624 C 0.57503 0.98256 0.87249 0.0
H1625 H 0.56436 0.98984 0.89253 0.0
H1626 H 0.61202 0.02088 0.96452 0.0
H1627 H 0.61056 0.0406 0.94934 0.0
H1628 H 0.59605 0.03712 0.91636 0.0
H1629 H 0.58274 0.01384 0.89853 0.0
C1630 C 0.57261 0.98713 0.89146 0.0
C1631 C 0.58142 0.9891 0.91132 0.0
C1632 C 0.58936 0.00285 0.92132 0.0
C1633 C 0.598 0.00492 0.94006 0.0
C1634 C 0.60548 0.0187 0.95005 0.0
C1635 C 0.60473 0.03014 0.94152 0.0
C1636 C 0.59654 0.02817 0.92298 0.0
C1637 C 0.58893 0.01473 0.91292 0.0
H1638 H 0.60222 0.00304 0.0823 0.0
C1639 C 0.60934 0.01288 0.07434 0.0
H1640 H 0.61609 0.0348 0.0717 0.0
H1641 H 0.55316 0.006 0.11732 0.0
H1642 H 0.54381 0.99716 0.08085 0.0
H1643 H 0.55968 0.0009 0.0507 0.0
H1644 H 0.58504 0.01353 0.05685 0.0
C1645 C 0.60861 0.02468 0.07854 0.0
C1646 C 0.59915 0.02449 0.09559 0.0
C1647 C 0.58441 0.01725 0.0917 0.0
C1648 C 0.57528 0.01513 0.10907 0.0
C1649 C 0.56058 0.00781 0.10474 0.0
C1650 C 0.55507 0.00272 0.08387 0.0
C1651 C 0.56401 0.00482 0.0669 0.0
C1652 C 0.57852 0.01201 0.07066 0.0
H1653 H 0.57715 0.03802 0.15627 0.0
C1654 C 0.57044 0.0269 0.16031 0.0
H1655 H 0.56499 0.0056 0.15266 0.0
H1656 H 0.62697 0.04016 0.10784 0.0
H1657 H 0.63646 0.04874 0.14428 0.0
H1658 H 0.6207 0.04392 0.17492 0.0
H1659 H 0.59545 0.0307 0.16933 0.0
C1660 C 0.57126 0.01676 0.14866 0.0
C1661 C 0.58093 0.02026 0.13029 0.0
C1662 C 0.59574 0.02786 0.13406 0.0
C1663 C 0.60485 0.03025 0.11654 0.0
C1664 C 0.61958 0.03792 0.12062 0.0
C1665 C 0.62518 0.04291 0.14146 0.0
C1666 C 0.6163 0.04022 0.15869 0.0
C1667 C 0.60177 0.03272 0.15518 0.0
H1668 H 0.99731 0.61576 0.07435 0.0
C1669 C 0.9879 0.61331 0.06484 0.0
H1670 H 0.96693 0.59749 0.05655 0.0
H1671 H 0.98388 0.55153 0.0897 0.0
H1672 H 0.985 0.54856 0.05076 0.0
H1673 H 0.98222 0.5644 0.02535 0.0
H1674 H 0.97828 0.58332 0.03868 0.0
C1675 C 0.97644 0.60035 0.06605 0.0
C1676 C 0.97656 0.58982 0.0811 0.0
C1677 C 0.97871 0.57876 0.07304 0.0
C1678 C 0.98037 0.56967 0.08771 0.0
C1679 C 0.98263 0.55877 0.07925 0.0
C1680 C 0.98328 0.55695 0.05696 0.0
C1681 C 0.98171 0.56587 0.04264 0.0
C1682 C 0.97946 0.57668 0.0505 0.0
H1683 H 0.9615 0.55133 0.13525 0.0
C1684 C 0.97203 0.55291 0.13765 0.0
H1685 H 0.99318 0.56501 0.1279 0.0
H1686 H 0.9709 0.60891 0.10159 0.0
H1687 H 0.97018 0.61224 0.14046 0.0
H1688 H 0.9743 0.59735 0.16606 0.0
H1689 H 0.97896 0.57896 0.153 0.0
C1690 C 0.98242 0.5627 0.12575 0.0
C1691 C 0.97982 0.57164 0.11038 0.0
C1692 C 0.97741 0.58257 0.11842 0.0
C1693 C 0.97552 0.59149 0.10372 0.0
C1694 C 0.97276 0.60208 0.11209 0.0
C1695 C 0.97227 0.60407 0.13435 0.0
C1696 C 0.97455 0.59566 0.14876 0.0
C1697 C 0.97713 0.58506 0.141 0.0
H1698 H 0.39063 0.38012 0.0533 0.0
C1699 C 0.39771 0.382 0.04005 0.0
H1700 H 0.41887 0.39066 0.03111 0.0
H1701 H 0.42285 0.421 0.12835 0.0
H1702 H 0.41088 0.43205 0.11104 0.0
H1703 H 0.40254 0.4262 0.07285 0.0
H1704 H 0.40583 0.40902 0.05193 0.0
C1705 C 0.41168 0.38897 0.04411 0.0
C1706 C 0.41778 0.39358 0.06653 0.0
C1707 C 0.41637 0.40419 0.07818 0.0
C1708 C 0.42188 0.40816 0.09983 0.0
C1709 C 0.41948 0.41807 0.11156 0.0
C1710 C 0.41253 0.42443 0.10186 0.0
C1711 C 0.40778 0.42109 0.08039 0.0
C1712 C 0.40965 0.41111 0.06861 0.0
H1713 H 0.44976 0.42767 0.12435 0.0
C1714 C 0.44616 0.41967 0.13677 0.0
H1715 H 0.43159 0.39827 0.14396 0.0
H1716 H 0.42232 0.37292 0.0488 0.0
H1717 H 0.43524 0.36268 0.06556 0.0
H1718 H 0.44583 0.37045 0.10238 0.0
H1719 H 0.44347 0.38844 0.12273 0.0
C1720 C 0.43562 0.40639 0.13178 0.0
C1721 C 0.42948 0.4021 0.10934 0.0
C1722 C 0.43108 0.39168 0.09756 0.0
C1723 C 0.42518 0.38738 0.07619 0.0
C1724 C 0.42676 0.37676 0.06496 0.0
C1725 C 0.43413 0.37075 0.07441 0.0
C1726 C 0.44007 0.37511 0.09514 0.0
C1727 C 0.4386 0.38544 0.10666 0.0
H1728 H 0.67121 0.71383 0.38372 0.0
C1729 C 0.66415 0.71372 0.37105 0.0
H1730 H 0.64978 0.72047 0.36217 0.0
H1731 H 0.65354 0.72617 0.47053 0.0
H1732 H 0.64277 0.70044 0.46993 0.0
H1733 H 0.63831 0.68688 0.43535 0.0
H1734 H 0.64485 0.69904 0.40121 0.0
C1735 C 0.65647 0.72001 0.37493 0.0
C1736 C 0.65804 0.72792 0.39574 0.0
C1737 C 0.65361 0.72057 0.41547 0.0
C1738 C 0.65558 0.72833 0.43531 0.0
C1739 C 0.65179 0.7208 0.45489 0.0
C1740 C 0.64567 0.70601 0.4548 0.0
C1741 C 0.64321 0.69839 0.43535 0.0
C1742 C 0.6471 0.70552 0.41586 0.0
H1743 H 0.64157 0.74252 0.46049 0.0
C1744 C 0.65209 0.75015 0.46671 0.0
H1745 H 0.67387 0.7588 0.46173 0.0
H1746 H 0.66776 0.7453 0.36086 0.0
H1747 H 0.67779 0.77096 0.36133 0.0
H1748 H 0.68031 0.78428 0.39552 0.0
H1749 H 0.67288 0.77201 0.4295 0.0
C1750 C 0.66321 0.75155 0.45584 0.0
C1751 C 0.66137 0.74335 0.43524 0.0
C1752 C 0.66565 0.75066 0.4155 0.0
C1753 C 0.66401 0.74294 0.39574 0.0
C1754 C 0.66857 0.75057 0.37631 0.0
C1755 C 0.67438 0.76532 0.37634 0.0
C1756 C 0.67581 0.77282 0.3956 0.0
C1757 C 0.67152 0.76564 0.41499 0.0
H1758 H 0.28167 0.93082 0.41098 0.0
C1759 C 0.28087 0.94043 0.41069 0.0
H1760 H 0.27057 0.95096 0.4231 0.0
H1761 H 0.23102 0.88183 0.44741 0.0
H1762 H 0.22563 0.87745 0.40872 0.0
H1763 H 0.23685 0.89705 0.38304 0.0
H1764 H 0.25358 0.92114 0.39589 0.0
C1765 C 0.27111 0.94122 0.4225 0.0
C1766 C 0.26265 0.92982 0.43791 0.0
C1767 C 0.25271 0.91587 0.43016 0.0
C1768 C 0.2461 0.90462 0.44498 0.0
C1769 C 0.23635 0.89076 0.43682 0.0
C1770 C 0.23314 0.88811 0.41468 0.0
C1771 C 0.23947 0.89914 0.40022 0.0
C1772 C 0.24912 0.91289 0.40778 0.0
H1773 H 0.22906 0.90114 0.49564 0.0
C1774 C 0.23333 0.89401 0.4968 0.0
H1775 H 0.24707 0.88802 0.48239 0.0
H1776 H 0.28031 0.95561 0.45827 0.0
H1777 H 0.28539 0.96006 0.49689 0.0
H1778 H 0.27428 0.94047 0.52256 0.0
H1779 H 0.25799 0.91637 0.50977 0.0
C1780 C 0.24317 0.89545 0.4828 0.0
C1781 C 0.24927 0.9074 0.46751 0.0
C1782 C 0.25881 0.92146 0.47535 0.0
C1783 C 0.26538 0.93272 0.46053 0.0
C1784 C 0.27499 0.94664 0.46875 0.0
C1785 C 0.27803 0.94935 0.49092 0.0
C1786 C 0.27177 0.93833 0.50537 0.0
C1787 C 0.26234 0.92453 0.49777 0.0
H1788 H 0.05208 0.33273 0.38853 0.0
C1789 C 0.05958 0.34074 0.3779 0.0
H1790 H 0.08095 0.35593 0.37343 0.0
H1791 H 0.07417 0.33981 0.47906 0.0
H1792 H 0.06001 0.35119 0.48087 0.0
H1793 H 0.05461 0.36042 0.44797 0.0
H1794 H 0.06311 0.35804 0.41298 0.0
C1795 C 0.07323 0.34822 0.38414 0.0
C1796 C 0.07833 0.34486 0.4045 0.0
C1797 C 0.07388 0.347 0.42499 0.0
C1798 C 0.07759 0.34231 0.44411 0.0
C1799 C 0.0722 0.3437 0.46413 0.0
C1800 C 0.06397 0.35014 0.4654 0.0
C1801 C 0.06088 0.35529 0.44687 0.0
C1802 C 0.06575 0.35376 0.42686 0.0
H1803 H 0.10263 0.35105 0.47683 0.0
C1804 C 0.09839 0.33965 0.47856 0.0
H1805 H 0.08628 0.31943 0.46271 0.0
H1806 H 0.08912 0.33972 0.36788 0.0
H1807 H 0.10432 0.32951 0.36627 0.0
H1808 H 0.1117 0.32247 0.39964 0.0
H1809 H 0.10382 0.32548 0.43479 0.0
C1810 C 0.08993 0.33075 0.46252 0.0
C1811 C 0.08633 0.33615 0.4428 0.0
C1812 C 0.09126 0.33458 0.42242 0.0
C1813 C 0.08721 0.33888 0.40323 0.0
C1814 C 0.09201 0.33684 0.38303 0.0
C1815 C 0.10073 0.33096 0.38185 0.0
C1816 C 0.10487 0.32698 0.40063 0.0
C1817 C 0.10023 0.32873 0.42071 0.0
H1818 H 0.04951 0.31047 0.28697 0.0
C1819 C 0.05093 0.32114 0.28753 0.0
H1820 H 0.06192 0.34194 0.27538 0.0
H1821 H 0.10891 0.3243 0.24983 0.0
H1822 H 0.11375 0.32529 0.28865 0.0
H1823 H 0.09842 0.32789 0.31491 0.0
H1824 H 0.07811 0.32942 0.30257 0.0
C1825 C 0.06087 0.33143 0.27572 0.0
C1826 C 0.06941 0.32848 0.26038 0.0
C1827 C 0.08122 0.32763 0.26793 0.0
C1828 C 0.09021 0.32641 0.2528 0.0
C1829 C 0.1019 0.3255 0.26068 0.0
C1830 C 0.10476 0.326 0.28289 0.0
C1831 C 0.09611 0.32744 0.29768 0.0
C1832 C 0.08447 0.32828 0.29038 0.0
H1833 H 0.11187 0.34843 0.22209 0.0
C1834 C 0.10958 0.33941 0.21135 0.0
H1835 H 0.09441 0.31801 0.20292 0.0
H1836 H 0.04703 0.3288 0.24071 0.0
H1837 H 0.0422 0.32777 0.20198 0.0
H1838 H 0.05796 0.32595 0.17571 0.0
H1839 H 0.07861 0.32511 0.18801 0.0
C1840 C 0.09773 0.32695 0.21427 0.0
C1841 C 0.08744 0.32622 0.23024 0.0
C1842 C 0.07529 0.32644 0.22272 0.0
C1843 C 0.06628 0.32761 0.23783 0.0
C1844 C 0.05431 0.32803 0.22992 0.0
C1845 C 0.05139 0.32742 0.20773 0.0
C1846 C 0.06025 0.32638 0.19295 0.0
C1847 C 0.07208 0.32591 0.20024 0.0
H1848 H 0.69819 0.73548 0.28613 0.0
C1849 C 0.68754 0.72643 0.28511 0.0
H1850 H 0.6674 0.71767 0.27005 0.0
H1851 H 0.69744 0.78713 0.24982 0.0
H1852 H 0.69615 0.79064 0.28855 0.0
H1853 H 0.68795 0.77046 0.31324 0.0
H1854 H 0.68113 0.7467 0.29942 0.0
C1855 C 0.67791 0.72687 0.27193 0.0
C1856 C 0.68185 0.73894 0.25715 0.0
C1857 C 0.68554 0.7527 0.2655 0.0
C1858 C 0.68994 0.76427 0.25121 0.0
C1859 C 0.69385 0.77795 0.25996 0.0
C1860 C 0.69317 0.78011 0.28214 0.0
C1861 C 0.68858 0.76875 0.29605 0.0
C1862 C 0.68477 0.75518 0.28792 0.0
H1863 H 0.67607 0.77364 0.21273 0.0
C1864 C 0.68643 0.77813 0.20578 0.0
H1865 H 0.7058 0.77823 0.20743 0.0
H1866 H 0.67494 0.71379 0.23571 0.0
H1867 H 0.67534 0.71018 0.1969 0.0
H1868 H 0.68261 0.73017 0.17212 0.0
H1869 H 0.68955 0.75393 0.18604 0.0
C1870 C 0.6953 0.77399 0.21353 0.0
C1871 C 0.69039 0.76198 0.22863 0.0
C1872 C 0.68632 0.74815 0.22022 0.0
C1873 C 0.68202 0.73661 0.23449 0.0
C1874 C 0.67816 0.72294 0.22564 0.0
C1875 C 0.67837 0.72071 0.20337 0.0
C1876 C 0.68247 0.73197 0.18942 0.0
C1877 C 0.68643 0.74555 0.19764 0.0
H1878 H 0.28488 0.95623 0.30983 0.0
C1879 C 0.27759 0.95689 0.32084 0.0
H1880 H 0.2567 0.95236 0.32495 0.0
H1881 H 0.26108 0.95175 0.2174 0.0
H1882 H 0.27737 0.97716 0.22168 0.0
H1883 H 0.28527 0.98853 0.25808 0.0
H1884 H 0.27699 0.97456 0.29041 0.0
C1885 C 0.26429 0.95231 0.31394 0.0
C1886 C 0.25919 0.94569 0.2919 0.0
C1887 C 0.26404 0.95405 0.27316 0.0
C1888 C 0.25933 0.94753 0.25217 0.0
C1889 C 0.26434 0.95613 0.23373 0.0
C1890 C 0.27366 0.97075 0.23595 0.0
C1891 C 0.27812 0.97715 0.25645 0.0
C1892 C 0.27336 0.96897 0.27488 0.0
H1893 H 0.22419 0.92255 0.23188 0.0
C1894 C 0.23124 0.92137 0.22096 0.0
H1895 H 0.25226 0.92608 0.2171 0.0
H1896 H 0.24768 0.92664 0.32447 0.0
H1897 H 0.23143 0.90123 0.32019 0.0
H1898 H 0.22354 0.88985 0.28378 0.0
H1899 H 0.2318 0.90382 0.25146 0.0
C1900 C 0.24456 0.92603 0.22792 0.0
C1901 C 0.24959 0.9327 0.24996 0.0
C1902 C 0.24473 0.92434 0.2687 0.0
C1903 C 0.24944 0.93087 0.28969 0.0
C1904 C 0.24444 0.92225 0.30813 0.0
C1905 C 0.23513 0.90764 0.30591 0.0
C1906 C 0.23068 0.90124 0.28542 0.0
C1907 C 0.23543 0.90941 0.26698 0.0
H1908 H 0.67144 0.95603 0.30736 0.0
C1909 C 0.67923 0.95746 0.31976 0.0
H1910 H 0.69629 0.95437 0.32778 0.0
H1911 H 0.68008 0.90442 0.25938 0.0
H1912 H 0.67497 0.89184 0.29318 0.0
H1913 H 0.67576 0.90396 0.32783 0.0
H1914 H 0.68174 0.92875 0.32892 0.0
C1915 C 0.68876 0.9535 0.31532 0.0
C1916 C 0.68832 0.94633 0.29429 0.0
C1917 C 0.68473 0.9318 0.29394 0.0
C1918 C 0.68408 0.92475 0.27393 0.0
C1919 C 0.68058 0.91026 0.27409 0.0
C1920 C 0.67765 0.90291 0.29338 0.0
C1921 C 0.67811 0.90974 0.31289 0.0
C1922 C 0.68159 0.924 0.31327 0.0
H1923 H 0.70766 0.9368 0.22781 0.0
C1924 C 0.69759 0.92796 0.22204 0.0
H1925 H 0.67578 0.91611 0.22801 0.0
H1926 H 0.69703 0.97465 0.28946 0.0
H1927 H 0.7013 0.98699 0.25555 0.0
H1928 H 0.69852 0.97431 0.2206 0.0
H1929 H 0.69171 0.94929 0.2194 0.0
C1930 C 0.68607 0.92465 0.23346 0.0
C1931 C 0.68697 0.93222 0.2543 0.0
C1932 C 0.69044 0.94672 0.25461 0.0
C1933 C 0.69141 0.95387 0.27468 0.0
C1934 C 0.69561 0.96855 0.27463 0.0
C1935 C 0.69818 0.97579 0.25528 0.0
C1936 C 0.69666 0.96867 0.23562 0.0
C1937 C 0.69282 0.95431 0.23518 0.0
H1938 H 0.06358 0.72353 0.27488 0.0
C1939 C 0.05733 0.72654 0.28479 0.0
H1940 H 0.05264 0.74286 0.29226 0.0
H1941 H 0.1126 0.78606 0.25127 0.0
H1942 H 0.11783 0.7931 0.28944 0.0
H1943 H 0.1003 0.78005 0.31712 0.0
H1944 H 0.07737 0.7599 0.3068 0.0
C1945 C 0.05859 0.73942 0.28247 0.0
C1946 C 0.06804 0.74899 0.26576 0.0
C1947 C 0.08124 0.76081 0.27202 0.0
C1948 C 0.09138 0.76824 0.25608 0.0
C1949 C 0.10458 0.77995 0.26277 0.0
C1950 C 0.10769 0.78412 0.2846 0.0
C1951 C 0.09781 0.77677 0.30019 0.0
C1952 C 0.08472 0.76522 0.29407 0.0
H1953 H 0.09077 0.7806 0.20089 0.0
C1954 C 0.09917 0.77804 0.20154 0.0
H1955 H 0.10836 0.76835 0.22002 0.0
H1956 H 0.04263 0.72877 0.24819 0.0
H1957 H 0.03723 0.72151 0.21015 0.0
H1958 H 0.0553 0.73312 0.18264 0.0
H1959 H 0.07867 0.75214 0.19284 0.0
C1960 C 0.09957 0.77018 0.21789 0.0
C1961 C 0.08825 0.76379 0.23394 0.0
C1962 C 0.07471 0.75241 0.22755 0.0
C1963 C 0.06449 0.74526 0.24348 0.0
C1964 C 0.05091 0.73422 0.23676 0.0
C1965 C 0.04766 0.73 0.21499 0.0
C1966 C 0.05781 0.73657 0.1995 0.0
C1967 C 0.0712 0.74759 0.20561 0.0
H1968 H 0.28856 0.34046 0.2998 0.0
C1969 C 0.28141 0.33278 0.31115 0.0
H1970 H 0.2607 0.31591 0.31577 0.0
H1971 H 0.25165 0.34943 0.2333 0.0
H1972 H 0.25757 0.36869 0.25951 0.0
H1973 H 0.26547 0.36769 0.2968 0.0
H1974 H 0.26763 0.34752 0.30804 0.0
C1975 C 0.26796 0.32387 0.30487 0.0
C1976 C 0.26266 0.32431 0.28269 0.0
C1977 C 0.26127 0.33613 0.27652 0.0
C1978 C 0.25644 0.33658 0.25515 0.0
C1979 C 0.25524 0.34853 0.24933 0.0
C1980 C 0.25857 0.35965 0.26423 0.0
C1981 C 0.26304 0.3591 0.28521 0.0
C1982 C 0.26433 0.34748 0.2914 0.0
H1983 H 0.2267 0.30977 0.22383 0.0
C1984 C 0.23374 0.31735 0.21226 0.0
H1985 H 0.25493 0.33311 0.20701 0.0
H1986 H 0.26378 0.29999 0.2895 0.0
H1987 H 0.25759 0.28061 0.26337 0.0
H1988 H 0.24933 0.28146 0.22626 0.0
H1989 H 0.24716 0.30165 0.21507 0.0
C1990 C 0.24742 0.32557 0.21805 0.0
C1991 C 0.25268 0.32507 0.24021 0.0
C1992 C 0.25396 0.31321 0.24642 0.0
C1993 C 0.25886 0.31279 0.26774 0.0
C1994 C 0.26008 0.30084 0.27352 0.0
C1995 C 0.25659 0.28966 0.25867 0.0
C1996 C 0.25193 0.29013 0.23779 0.0
C1997 C 0.25066 0.30176 0.23161 0.0
H1998 H 0.27749 0.34517 0.40883 0.0
C1999 C 0.28491 0.35459 0.40029 0.0
H2000 H 0.2921 0.37633 0.39484 0.0
H2001 H 0.22974 0.34525 0.44501 0.0
H2002 H 0.21968 0.33238 0.41073 0.0
H2003 H 0.23477 0.33585 0.37955 0.0
H2004 H 0.26003 0.35213 0.38252 0.0
C2005 C 0.28443 0.36668 0.40259 0.0
C2006 C 0.27492 0.3675 0.41873 0.0
C2007 C 0.26017 0.35837 0.41646 0.0
C2008 C 0.25145 0.35656 0.43428 0.0
C2009 C 0.23681 0.347 0.4319 0.0
C2010 C 0.23092 0.3396 0.41232 0.0
C2011 C 0.23941 0.34154 0.39477 0.0
C2012 C 0.25388 0.35082 0.39671 0.0
H2013 H 0.24493 0.37711 0.47256 0.0
C2014 C 0.24325 0.36777 0.48134 0.0
H2015 H 0.24818 0.3512 0.48259 0.0
H2016 H 0.30252 0.38773 0.42715 0.0
H2017 H 0.31229 0.40159 0.46062 0.0
H2018 H 0.29711 0.39852 0.49148 0.0
H2019 H 0.27207 0.38158 0.48904 0.0
C2020 C 0.24898 0.36017 0.47385 0.0
C2021 C 0.2575 0.36413 0.4541 0.0
C2022 C 0.27205 0.37431 0.45567 0.0
C2023 C 0.28078 0.37606 0.43788 0.0
C2024 C 0.29537 0.38598 0.4401 0.0
C2025 C 0.30112 0.39401 0.45924 0.0
C2026 C 0.29258 0.39229 0.47662 0.0
C2027 C 0.27822 0.38253 0.47499 0.0
H2028 H 0.64751 0.93073 0.40399 0.0
C2029 C 0.65717 0.94096 0.40553 0.0
H2030 H 0.67718 0.95276 0.42105 0.0
H2031 H 0.66109 0.91374 0.50226 0.0
H2032 H 0.65879 0.93334 0.51701 0.0
H2033 H 0.65986 0.95195 0.49325 0.0
H2034 H 0.66316 0.95101 0.45458 0.0
C2035 C 0.66774 0.94242 0.41859 0.0
C2036 C 0.66625 0.93067 0.43242 0.0
C2037 C 0.66445 0.93146 0.455 0.0
C2038 C 0.66404 0.92087 0.46873 0.0
C2039 C 0.66186 0.92172 0.49116 0.0
C2040 C 0.66042 0.93286 0.49983 0.0
C2041 C 0.66101 0.94332 0.48645 0.0
C2042 C 0.66296 0.94267 0.46428 0.0
H2043 H 0.68725 0.91525 0.48539 0.0
C2044 C 0.67875 0.90435 0.48734 0.0
H2045 H 0.65852 0.88875 0.47492 0.0
H2046 H 0.66953 0.92584 0.38974 0.0
H2047 H 0.6714 0.90597 0.37495 0.0
H2048 H 0.67057 0.88751 0.39882 0.0
H2049 H 0.66792 0.88885 0.4377 0.0
C2050 C 0.66711 0.89967 0.47465 0.0
C2051 C 0.66574 0.90967 0.4599 0.0
C2052 C 0.66693 0.90852 0.43721 0.0
C2053 C 0.66727 0.9191 0.42343 0.0
C2054 C 0.66899 0.91799 0.40091 0.0
C2055 C 0.67013 0.90667 0.39221 0.0
C2056 C 0.66967 0.89628 0.40566 0.0
C2057 C 0.66814 0.89717 0.42793 0.0
H2058 H 0.08109 0.7171 0.37006 0.0
C2059 C 0.06986 0.71321 0.37055 0.0
H2060 H 0.0532 0.71112 0.38963 0.0
H2061 H 0.10861 0.72789 0.4571 0.0
H2062 H 0.10697 0.70578 0.44452 0.0
H2063 H 0.08935 0.69058 0.41632 0.0
H2064 H 0.0736 0.69764 0.40008 0.0
C2065 C 0.06436 0.71469 0.38906 0.0
C2066 C 0.07349 0.72256 0.40842 0.0
C2067 C 0.08197 0.71776 0.41876 0.0
C2068 C 0.09142 0.726 0.43613 0.0
C2069 C 0.10065 0.72162 0.44479 0.0
C2070 C 0.09991 0.70901 0.43757 0.0
C2071 C 0.09005 0.70049 0.42162 0.0
C2072 C 0.08115 0.70475 0.41228 0.0
H2073 H 0.09116 0.72923 0.48432 0.0
C2074 C 0.09875 0.74053 0.48307 0.0
H2075 H 0.10825 0.75776 0.46184 0.0
H2076 H 0.05885 0.73493 0.39222 0.0
H2077 H 0.05944 0.75622 0.40635 0.0
H2078 H 0.07447 0.76945 0.43826 0.0
H2079 H 0.08913 0.76158 0.45604 0.0
C2080 C 0.1006 0.74655 0.46361 0.0
C2081 C 0.09158 0.73841 0.44432 0.0
C2082 C 0.08285 0.74301 0.43433 0.0
C2083 C 0.07392 0.73516 0.41625 0.0
C2084 C 0.06563 0.74027 0.40625 0.0
C2085 C 0.06589 0.75252 0.41417 0.0
C2086 C 0.07436 0.75998 0.4321 0.0
C2087 C 0.08276 0.75534 0.44213 0.0
H2088 H 0.34058 0.04726 0.71893 0.0
C2089 C 0.33297 0.04692 0.70705 0.0
H2090 H 0.31891 0.05426 0.69925 0.0
H2091 H 0.3311 0.06698 0.80632 0.0
H2092 H 0.31904 0.04131 0.80957 0.0
H2093 H 0.31118 0.02542 0.777 0.0
H2094 H 0.31556 0.03513 0.74097 0.0
C2095 C 0.32613 0.05405 0.71131 0.0
C2096 C 0.32961 0.06342 0.73107 0.0
C2097 C 0.32646 0.05754 0.75199 0.0
C2098 C 0.33045 0.06669 0.77077 0.0
C2099 C 0.32785 0.06055 0.79149 0.0
C2100 C 0.321 0.04581 0.7936 0.0
C2101 C 0.31662 0.03687 0.77526 0.0
C2102 C 0.31928 0.04259 0.75467 0.0
H2103 H 0.32093 0.08524 0.79654 0.0
C2104 C 0.33202 0.09208 0.80081 0.0
H2105 H 0.35269 0.0985 0.79067 0.0
H2106 H 0.33706 0.0782 0.69333 0.0
H2107 H 0.34821 0.10382 0.69004 0.0
H2108 H 0.35427 0.11962 0.72251 0.0
H2109 H 0.34926 0.10987 0.75851 0.0
C2110 C 0.3415 0.09141 0.78801 0.0
C2111 C 0.33707 0.08169 0.76851 0.0
C2112 C 0.33991 0.08753 0.74757 0.0
C2113 C 0.33622 0.0784 0.72884 0.0
C2114 C 0.33944 0.08459 0.70813 0.0
C2115 C 0.34588 0.0993 0.70599 0.0
C2116 C 0.3493 0.10819 0.72427 0.0
C2117 C 0.34639 0.10245 0.74485 0.0
H2118 H 0.95744 0.25959 0.74757 0.0
C2119 C 0.95499 0.26815 0.74842 0.0
H2120 H 0.94174 0.27512 0.76159 0.0
H2121 H 0.89323 0.21312 0.7835 0.0
H2122 H 0.88421 0.21507 0.74821 0.0
H2123 H 0.89896 0.23476 0.72421 0.0
H2124 H 0.9228 0.25267 0.73538 0.0
C2125 C 0.94441 0.26674 0.76064 0.0
C2126 C 0.93621 0.25396 0.77382 0.0
C2127 C 0.92241 0.24352 0.76692 0.0
C2128 C 0.91395 0.23212 0.78069 0.0
C2129 C 0.9001 0.22197 0.77362 0.0
C2130 C 0.89481 0.22296 0.75341 0.0
C2131 C 0.90311 0.23405 0.7399 0.0
C2132 C 0.91676 0.24426 0.74651 0.0
H2133 H 0.90919 0.23713 0.83537 0.0
C2134 C 0.90568 0.22578 0.83427 0.0
H2135 H 0.90599 0.2097 0.81447 0.0
H2136 H 0.96248 0.27197 0.79167 0.0
H2137 H 0.97182 0.26929 0.82606 0.0
H2138 H 0.95743 0.24894 0.8492 0.0
H2139 H 0.93353 0.23122 0.83814 0.0
C2140 C 0.90977 0.22097 0.81726 0.0
C2141 C 0.91931 0.23129 0.80132 0.0
C2142 C 0.93344 0.24121 0.80759 0.0
C2143 C 0.94185 0.25269 0.79397 0.0
C2144 C 0.9557 0.26285 0.80114 0.0
C2145 C 0.96119 0.26146 0.82089 0.0
C2146 C 0.95308 0.25002 0.83394 0.0
C2147 C 0.93936 0.23998 0.82746 0.0
H2148 H 0.73991 0.67926 0.70085 0.0
C2149 C 0.72928 0.67016 0.7007 0.0
H2150 H 0.71357 0.65407 0.7194 0.0
H2151 H 0.77425 0.67712 0.7755 0.0
H2152 H 0.78071 0.66669 0.74598 0.0
H2153 H 0.76507 0.656 0.71365 0.0
H2154 H 0.743 0.65594 0.71049 0.0
C2155 C 0.72425 0.66301 0.71905 0.0
C2156 C 0.73283 0.66768 0.73965 0.0
C2157 C 0.74539 0.66704 0.74165 0.0
C2158 C 0.7541 0.67259 0.76074 0.0
C2159 C 0.76698 0.67257 0.76176 0.0
C2160 C 0.77086 0.66669 0.74486 0.0
C2161 C 0.76208 0.66072 0.72663 0.0
C2162 C 0.74948 0.66085 0.72496 0.0
H2163 H 0.75589 0.66441 0.80814 0.0
C2164 C 0.76058 0.67571 0.81231 0.0
H2165 H 0.76355 0.69549 0.80149 0.0
H2166 H 0.7091 0.66991 0.74149 0.0
H2167 H 0.70204 0.67922 0.77179 0.0
H2168 H 0.71668 0.68802 0.80542 0.0
H2169 H 0.73851 0.68763 0.80892 0.0
C2170 C 0.75891 0.68414 0.7982 0.0
C2171 C 0.74988 0.67817 0.77819 0.0
C2172 C 0.73708 0.67835 0.77648 0.0
C2173 C 0.72855 0.67311 0.75719 0.0
C2174 C 0.71592 0.67362 0.75583 0.0
C2175 C 0.71175 0.67895 0.7731 0.0
C2176 C 0.72 0.68392 0.79203 0.0
C2177 C 0.73252 0.68365 0.7938 0.0
H2178 H 0.71867 0.62697 0.62786 0.0
C2179 C 0.71657 0.63511 0.62183 0.0
H2180 H 0.72034 0.65 0.59756 0.0
H2181 H 0.77606 0.65978 0.55947 0.0
H2182 H 0.78364 0.68248 0.57789 0.0
H2183 H 0.76807 0.68551 0.6031 0.0
H2184 H 0.74473 0.66587 0.60977 0.0
C2185 C 0.72242 0.64181 0.6035 0.0
C2186 C 0.73235 0.63905 0.59111 0.0
C2187 C 0.74616 0.65048 0.58797 0.0
C2188 C 0.75526 0.64863 0.57386 0.0
C2189 C 0.76876 0.66046 0.57027 0.0
C2190 C 0.77326 0.67359 0.58075 0.0
C2191 C 0.76449 0.6753 0.59491 0.0
C2192 C 0.75109 0.66394 0.59853 0.0
H2193 H 0.74302 0.62719 0.52201 0.0
C2194 C 0.75401 0.6305 0.52531 0.0
H2195 H 0.77008 0.63712 0.54949 0.0
H2196 H 0.70619 0.61487 0.59215 0.0
H2197 H 0.69956 0.59162 0.57667 0.0
H2198 H 0.71652 0.58775 0.55618 0.0
H2199 H 0.74011 0.60735 0.55047 0.0
C2200 C 0.7592 0.63402 0.5458 0.0
C2201 C 0.75063 0.63523 0.56328 0.0
C2202 C 0.73732 0.62345 0.56801 0.0
C2203 C 0.72792 0.62547 0.58118 0.0
C2204 C 0.71412 0.61384 0.58351 0.0
C2205 C 0.7101 0.60041 0.57451 0.0
C2206 C 0.71962 0.59825 0.56288 0.0
C2207 C 0.73307 0.6096 0.55958 0.0
H2208 H 0.36335 0.0656 0.61991 0.0
C2209 C 0.35253 0.05688 0.62006 0.0
H2210 H 0.33174 0.04899 0.60817 0.0
H2211 H 0.36385 0.11882 0.58903 0.0
H2212 H 0.36581 0.12245 0.62822 0.0
H2213 H 0.35834 0.10212 0.6524 0.0
H2214 H 0.34898 0.07807 0.63762 0.0
C2215 C 0.34248 0.05785 0.60879 0.0
C2216 C 0.346 0.07009 0.59456 0.0
C2217 C 0.3512 0.08404 0.60354 0.0
C2218 C 0.35524 0.09573 0.58961 0.0
C2219 C 0.36058 0.10958 0.59892 0.0
C2220 C 0.36174 0.1118 0.62136 0.0
C2221 C 0.35755 0.10035 0.63498 0.0
C2222 C 0.35229 0.08661 0.62627 0.0
H2223 H 0.33797 0.10254 0.54797 0.0
C2224 C 0.34881 0.10844 0.54288 0.0
H2225 H 0.36932 0.11161 0.54842 0.0
H2226 H 0.33583 0.04462 0.57202 0.0
H2227 H 0.33318 0.04099 0.53297 0.0
H2228 H 0.34 0.06125 0.5089 0.0
H2229 H 0.34953 0.08528 0.52375 0.0
C2230 C 0.35826 0.10559 0.55217 0.0
C2231 C 0.35373 0.09339 0.56683 0.0
C2232 C 0.34816 0.0794 0.55785 0.0
C2233 C 0.34424 0.06773 0.57174 0.0
C2234 C 0.33887 0.05389 0.5623 0.0
C2235 C 0.33732 0.05164 0.53987 0.0
C2236 C 0.34116 0.06305 0.52632 0.0
C2237 C 0.34658 0.07679 0.53509 0.0
H2238 H 0.95081 0.28151 0.65036 0.0
C2239 C 0.94345 0.28118 0.66222 0.0
H2240 H 0.9221 0.27379 0.66869 0.0
H2241 H 0.92619 0.26983 0.56043 0.0
H2242 H 0.93996 0.29563 0.56229 0.0
H2243 H 0.94616 0.30871 0.59755 0.0
H2244 H 0.93886 0.29602 0.63118 0.0
C2245 C 0.92967 0.27464 0.65683 0.0
C2246 C 0.92425 0.26703 0.63545 0.0
C2247 C 0.92802 0.27465 0.61591 0.0
C2248 C 0.92383 0.26713 0.59554 0.0
C2249 C 0.92854 0.27498 0.57632 0.0
C2250 C 0.93654 0.28981 0.57715 0.0
C2251 C 0.94008 0.29718 0.59701 0.0
C2252 C 0.9359 0.28975 0.6162 0.0
H2253 H 0.89762 0.25186 0.56471 0.0
C2254 C 0.90182 0.24505 0.55983 0.0
H2255 H 0.91474 0.23673 0.57023 0.0
H2256 H 0.91479 0.24917 0.66985 0.0
H2257 H 0.89998 0.22345 0.66799 0.0
H2258 H 0.89182 0.21052 0.63268 0.0
H2259 H 0.89851 0.22324 0.599 0.0
C2260 C 0.91092 0.24404 0.57356 0.0
C2261 C 0.91528 0.25205 0.59477 0.0
C2262 C 0.91111 0.24448 0.61431 0.0
C2263 C 0.91563 0.25197 0.63467 0.0
C2264 C 0.91153 0.24408 0.65393 0.0
C2265 C 0.90304 0.22929 0.6531 0.0
C2266 C 0.89846 0.22201 0.63322 0.0
C2267 C 0.90241 0.22945 0.61401 0.0
H2268 H 0.33779 0.29692 0.63919 0.0
C2269 C 0.34476 0.29675 0.65176 0.0
H2270 H 0.36003 0.29101 0.65959 0.0
H2271 H 0.32878 0.25365 0.56795 0.0
H2272 H 0.30732 0.24207 0.58811 0.0
H2273 H 0.30679 0.24965 0.62585 0.0
H2274 H 0.3276 0.26912 0.64339 0.0
C2275 C 0.35288 0.29104 0.64722 0.0
C2276 C 0.35325 0.28555 0.62505 0.0
C2277 C 0.34115 0.27361 0.61549 0.0
C2278 C 0.34169 0.26862 0.59423 0.0
C2279 C 0.32919 0.25738 0.58446 0.0
C2280 C 0.31675 0.25071 0.59579 0.0
C2281 C 0.31643 0.25502 0.61699 0.0
C2282 C 0.32845 0.26631 0.62682 0.0
H2283 H 0.35017 0.24892 0.57249 0.0
C2284 C 0.3535 0.25598 0.55879 0.0
H2285 H 0.35861 0.27638 0.54793 0.0
H2286 H 0.37823 0.30891 0.63831 0.0
H2287 H 0.39998 0.31974 0.61879 0.0
H2288 H 0.4013 0.31012 0.58294 0.0
H2289 H 0.38087 0.28968 0.56631 0.0
C2290 C 0.35557 0.26925 0.56149 0.0
C2291 C 0.35458 0.27495 0.58315 0.0
C2292 C 0.36668 0.28681 0.59278 0.0
C2293 C 0.36599 0.29217 0.61366 0.0
C2294 C 0.3782 0.30421 0.62267 0.0
C2295 C 0.39076 0.31057 0.61162 0.0
C2296 C 0.3915 0.30517 0.59142 0.0
C2297 C 0.37966 0.29344 0.58204 0.0
H2298 H 0.72424 0.06109 0.59446 0.0
C2299 C 0.716 0.06137 0.60362 0.0
H2300 H 0.70513 0.07254 0.60964 0.0
H2301 H 0.76593 0.11556 0.56075 0.0
H2302 H 0.77716 0.11607 0.59525 0.0
H2303 H 0.76308 0.10205 0.6258 0.0
H2304 H 0.73766 0.08727 0.62189 0.0
C2305 C 0.71366 0.07232 0.60131 0.0
C2306 C 0.72168 0.08339 0.58521 0.0
C2307 C 0.73642 0.09243 0.58806 0.0
C2308 C 0.74447 0.10081 0.57065 0.0
C2309 C 0.75926 0.10917 0.57355 0.0
C2310 C 0.76585 0.10955 0.59327 0.0
C2311 C 0.75792 0.10164 0.61046 0.0
C2312 C 0.74337 0.09315 0.60797 0.0
H2313 H 0.75112 0.12776 0.53884 0.0
C2314 C 0.75248 0.12077 0.52753 0.0
H2315 H 0.74632 0.09936 0.51925 0.0
H2316 H 0.69337 0.06889 0.57566 0.0
H2317 H 0.68199 0.0695 0.54193 0.0
H2318 H 0.69595 0.08438 0.51194 0.0
H2319 H 0.72141 0.09873 0.51551 0.0
C2320 C 0.74609 0.10672 0.53118 0.0
C2321 C 0.73768 0.10036 0.55066 0.0
C2322 C 0.72283 0.09232 0.54851 0.0
C2323 C 0.71479 0.08384 0.56585 0.0
C2324 C 0.69999 0.07558 0.56304 0.0
C2325 C 0.69332 0.07584 0.54377 0.0
C2326 C 0.70118 0.0842 0.52687 0.0
C2327 C 0.71577 0.09235 0.52911 0.0
H2328 H 0.92147 0.65443 0.66545 0.0
C2329 C 0.93276 0.66143 0.66429 0.0
H2330 H 0.94935 0.67429 0.64379 0.0
H2331 H 0.89397 0.63167 0.57817 0.0
H2332 H 0.89502 0.61187 0.59398 0.0
H2333 H 0.9122 0.61598 0.62349 0.0
H2334 H 0.92809 0.63984 0.63778 0.0
C2335 C 0.93813 0.66702 0.64508 0.0
C2336 C 0.92888 0.66451 0.62557 0.0
C2337 C 0.92026 0.65054 0.61655 0.0
C2338 C 0.91104 0.64826 0.59853 0.0
C2339 C 0.90173 0.6341 0.59101 0.0
C2340 C 0.90214 0.62261 0.60006 0.0
C2341 C 0.91176 0.62492 0.61675 0.0
C2342 C 0.92074 0.63869 0.62494 0.0
H2343 H 0.91311 0.64941 0.55054 0.0
C2344 C 0.9053 0.65279 0.54989 0.0
H2345 H 0.89496 0.6613 0.56822 0.0
H2346 H 0.94373 0.69259 0.6391 0.0
H2347 H 0.94351 0.71247 0.62205 0.0
H2348 H 0.92871 0.70869 0.5893 0.0
H2349 H 0.91393 0.68497 0.57354 0.0
C2350 C 0.90279 0.65798 0.56815 0.0
C2351 C 0.91122 0.66006 0.5885 0.0
C2352 C 0.91992 0.67402 0.59738 0.0
C2353 C 0.92868 0.67624 0.61601 0.0
C2354 C 0.93706 0.69028 0.62476 0.0
C2355 C 0.93701 0.70181 0.61517 0.0
C2356 C 0.92867 0.69968 0.59675 0.0
C2357 C 0.92021 0.68599 0.58788 0.0
H2358 H 0.94503 0.68541 0.76014 0.0
C2359 C 0.94999 0.69299 0.74733 0.0
H2360 H 0.95305 0.71198 0.73344 0.0
H2361 H 0.90158 0.68411 0.80732 0.0
H2362 H 0.88933 0.66416 0.78193 0.0
H2363 H 0.89951 0.66389 0.74669 0.0
H2364 H 0.92234 0.68345 0.73711 0.0
C2365 C 0.94793 0.70417 0.74588 0.0
C2366 C 0.93982 0.70671 0.7628 0.0
C2367 C 0.92594 0.69588 0.76727 0.0
C2368 C 0.91961 0.6966 0.7868 0.0
C2369 C 0.90651 0.68471 0.79208 0.0
C2370 C 0.8994 0.67306 0.77771 0.0
C2371 C 0.90516 0.67287 0.75793 0.0
C2372 C 0.91829 0.6841 0.75271 0.0
H2373 H 0.90198 0.70745 0.80922 0.0
C2374 C 0.90832 0.70888 0.8238 0.0
H2375 H 0.92703 0.71058 0.8366 0.0
H2376 H 0.96576 0.73027 0.75752 0.0
H2377 H 0.97704 0.75148 0.78087 0.0
H2378 H 0.96527 0.75365 0.81321 0.0
H2379 H 0.9422 0.73453 0.82255 0.0
C2380 C 0.92078 0.70949 0.82209 0.0
C2381 C 0.92666 0.70887 0.8008 0.0
C2382 C 0.93993 0.72035 0.79512 0.0
C2383 C 0.94659 0.71922 0.77621 0.0
C2384 C 0.96012 0.7306 0.77151 0.0
C2385 C 0.96673 0.74285 0.78479 0.0
C2386 C 0.96011 0.74408 0.80301 0.0
C2387 C 0.94688 0.73299 0.80821 0.0
H2388 H 0.33652 0.28452 0.74933 0.0
C2389 C 0.3266 0.28241 0.74186 0.0
H2390 H 0.30475 0.26788 0.7387 0.0
H2391 H 0.31042 0.21538 0.77069 0.0
H2392 H 0.30384 0.20869 0.73269 0.0
H2393 H 0.30232 0.22538 0.70752 0.0
H2394 H 0.30735 0.24886 0.72016 0.0
C2395 C 0.31475 0.27028 0.74617 0.0
C2396 C 0.31498 0.25995 0.76158 0.0
C2397 C 0.31186 0.24623 0.75396 0.0
C2398 C 0.31271 0.23659 0.76847 0.0
C2399 C 0.3098 0.22305 0.76037 0.0
C2400 C 0.30605 0.2191 0.7386 0.0
C2401 C 0.3052 0.2285 0.72443 0.0
C2402 C 0.30809 0.24194 0.7319 0.0
H2403 H 0.29615 0.21875 0.81003 0.0
C2404 C 0.30644 0.22045 0.81503 0.0
H2405 H 0.32838 0.23378 0.81165 0.0
H2406 H 0.31936 0.28452 0.7824 0.0
H2407 H 0.32586 0.29111 0.82032 0.0
H2408 H 0.32841 0.27482 0.84506 0.0
H2409 H 0.32428 0.25176 0.83203 0.0
C2410 C 0.31789 0.2309 0.80581 0.0
C2411 C 0.31666 0.24071 0.79054 0.0
C2412 C 0.31951 0.25431 0.79828 0.0
C2413 C 0.31842 0.26385 0.78389 0.0
C2414 C 0.32059 0.27707 0.79236 0.0
C2415 C 0.3242 0.28094 0.81418 0.0
C2416 C 0.32561 0.27176 0.82811 0.0
C2417 C 0.32324 0.25857 0.82039 0.0
H2418 H 0.74467 0.06301 0.68942 0.0
C2419 C 0.73327 0.05652 0.68952 0.0
H2420 H 0.71502 0.05081 0.70725 0.0
H2421 H 0.76991 0.08315 0.77829 0.0
H2422 H 0.77404 0.06356 0.77055 0.0
H2423 H 0.75944 0.04487 0.74309 0.0
H2424 H 0.74087 0.04589 0.72283 0.0
C2425 C 0.72643 0.05693 0.70714 0.0
C2426 C 0.73406 0.06701 0.72576 0.0
C2427 C 0.74437 0.0658 0.73828 0.0
C2428 C 0.75222 0.0761 0.75504 0.0
C2429 C 0.76315 0.07523 0.76617 0.0
C2430 C 0.76571 0.0641 0.76176 0.0
C2431 C 0.75753 0.05362 0.74623 0.0
C2432 C 0.74697 0.0544 0.73459 0.0
H2433 H 0.74921 0.08156 0.80207 0.0
C2434 C 0.75505 0.09295 0.79921 0.0
H2435 H 0.76247 0.1086 0.77519 0.0
H2436 H 0.71515 0.07254 0.7048 0.0
H2437 H 0.7102 0.09141 0.71384 0.0
H2438 H 0.72277 0.10834 0.74437 0.0
H2439 H 0.74048 0.10661 0.7659 0.0
C2440 C 0.75657 0.09733 0.77865 0.0
C2441 C 0.74913 0.08705 0.76018 0.0
C2442 C 0.73865 0.08808 0.74794 0.0
C2443 C 0.73118 0.07812 0.73063 0.0
C2444 C 0.72099 0.07964 0.71837 0.0
C2445 C 0.71805 0.09045 0.72334 0.0
C2446 C 0.72514 0.1 0.74051 0.0
C2447 C 0.73532 0.09888 0.75272 0.0
H2448 H 0.0517 0.37493 0.04051 0.0
C2449 C 0.04398 0.36537 0.03158 0.0
H2450 H 0.03813 0.3443 0.02176 0.0
H2451 H 0.10057 0.35595 0.03233 0.0
H2452 H 0.09681 0.35297 0.99331 0.0
H2453 H 0.07519 0.3504 0.97612 0.0
H2454 H 0.05723 0.35086 0.99785 0.0
C2455 C 0.0454 0.35374 0.03137 0.0
C2456 C 0.05783 0.35406 0.04208 0.0
C2457 C 0.06808 0.35342 0.02917 0.0
C2458 C 0.08048 0.35472 0.03911 0.0
C2459 C 0.0908 0.35466 0.02573 0.0
C2460 C 0.08882 0.35304 0.00327 0.0
C2461 C 0.07665 0.35161 0.99359 0.0
C2462 C 0.06641 0.35186 0.00628 0.0
H2463 H 0.09066 0.33718 0.06659 0.0
C2464 C 0.09824 0.34747 0.07393 0.0
H2465 H 0.10231 0.36836 0.08129 0.0
H2466 H 0.03946 0.35387 0.07175 0.0
H2467 H 0.04304 0.35648 0.11083 0.0
H2468 H 0.06467 0.35907 0.12804 0.0
H2469 H 0.08281 0.359 0.10627 0.0
C2470 C 0.09563 0.35833 0.07258 0.0
C2471 C 0.08249 0.35642 0.06198 0.0
C2472 C 0.07207 0.3567 0.07492 0.0
C2473 C 0.05967 0.35539 0.06499 0.0
C2474 C 0.04925 0.35523 0.07838 0.0
C2475 C 0.05112 0.35661 0.10087 0.0
C2476 C 0.06329 0.35805 0.11055 0.0
C2477 C 0.07365 0.35805 0.09784 0.0
H2478 H 0.6514 0.68904 0.04311 0.0
C2479 C 0.64145 0.68301 0.05117 0.0
H2480 H 0.6259 0.68423 0.06921 0.0
H2481 H 0.6694 0.74511 0.10851 0.0
H2482 H 0.66612 0.73022 0.13927 0.0
H2483 H 0.65244 0.70399 0.13526 0.0
H2484 H 0.64192 0.69251 0.10049 0.0
C2485 C 0.63547 0.68999 0.06017 0.0
C2486 C 0.64332 0.70581 0.06234 0.0
C2487 C 0.64933 0.71233 0.08286 0.0
C2488 C 0.65728 0.72742 0.08515 0.0
C2489 C 0.66326 0.73367 0.1058 0.0
C2490 C 0.66148 0.72525 0.12363 0.0
C2491 C 0.65377 0.71049 0.12137 0.0
C2492 C 0.64776 0.70405 0.10129 0.0
H2493 H 0.64979 0.75373 0.075 0.0
C2494 C 0.66122 0.75922 0.0751 0.0
H2495 H 0.67883 0.75643 0.07145 0.0
H2496 H 0.63259 0.6967 0.0211 0.0
H2497 H 0.63595 0.71167 0.99026 0.0
H2498 H 0.64997 0.73789 0.99421 0.0
H2499 H 0.66071 0.74934 0.02908 0.0
C2500 C 0.6675 0.75172 0.06972 0.0
C2501 C 0.65909 0.73597 0.06697 0.0
C2502 C 0.653 0.72948 0.04652 0.0
C2503 C 0.64505 0.71435 0.04419 0.0
C2504 C 0.6389 0.70813 0.02366 0.0
C2505 C 0.64071 0.7166 0.00587 0.0
C2506 C 0.6486 0.73137 0.0081 0.0
C2507 C 0.65469 0.73781 0.02817 0.0
H2508 H 0.31776 0.97555 0.02685 0.0
C2509 C 0.31581 0.97045 0.01083 0.0
H2510 H 0.30083 0.95429 0.98954 0.0
H2511 H 0.27575 0.93407 0.08855 0.0
H2512 H 0.29614 0.93145 0.09517 0.0
H2513 H 0.31432 0.93833 0.06769 0.0
H2514 H 0.31237 0.94817 0.03368 0.0
C2515 C 0.30307 0.95927 0.00566 0.0
C2516 C 0.2915 0.95378 0.02139 0.0
C2517 C 0.29251 0.9474 0.04075 0.0
C2518 C 0.28165 0.94269 0.05607 0.0
C2519 C 0.28335 0.93721 0.07589 0.0
C2520 C 0.29506 0.93574 0.07999 0.0
C2521 C 0.30533 0.93967 0.06456 0.0
C2522 C 0.30412 0.94542 0.04515 0.0
H2523 H 0.2529 0.91662 0.0611 0.0
C2524 C 0.25 0.92357 0.06972 0.0
H2525 H 0.25526 0.9451 0.0751 0.0
H2526 H 0.28631 0.96554 0.98594 0.0
H2527 H 0.26545 0.96729 0.97874 0.0
H2528 H 0.24614 0.95813 0.00458 0.0
H2529 H 0.24761 0.94724 0.03788 0.0
C2530 C 0.25755 0.93768 0.06659 0.0
C2531 C 0.26943 0.94359 0.05141 0.0
C2532 C 0.26837 0.94987 0.03201 0.0
C2533 C 0.27944 0.95499 0.01699 0.0
C2534 C 0.27816 0.96134 0.99782 0.0
C2535 C 0.26625 0.96243 0.99349 0.0
C2536 C 0.25538 0.95728 0.00805 0.0
C2537 C 0.25637 0.95106 0.0271 0.0
H2538 H 0.38309 0.05147 0.97643 0.0
C2539 C 0.3736 0.0417 0.98049 0.0
H2540 H 0.35176 0.03217 0.98575 0.0
H2541 H 0.35386 0.09189 0.99686 0.0
H2542 H 0.35101 0.08478 0.03448 0.0
H2543 H 0.3526 0.06381 0.04547 0.0
H2544 H 0.35699 0.04976 0.01892 0.0
C2545 C 0.36145 0.04179 0.98195 0.0
C2546 C 0.36054 0.05447 0.97549 0.0
C2547 C 0.35806 0.06259 0.9912 0.0
C2548 C 0.35722 0.07473 0.9849 0.0
C2549 C 0.35462 0.0826 0.00085 0.0
C2550 C 0.35298 0.07864 0.02247 0.0
C2551 C 0.35387 0.06683 0.02866 0.0
C2552 C 0.35639 0.05885 0.01328 0.0
H2553 H 0.33756 0.07749 0.94135 0.0
C2554 C 0.34604 0.08848 0.94359 0.0
H2555 H 0.36594 0.10156 0.95951 0.0
H2556 H 0.36338 0.04011 0.94049 0.0
H2557 H 0.36718 0.04778 0.90338 0.0
H2558 H 0.36798 0.07009 0.89315 0.0
H2559 H 0.36463 0.08464 0.91994 0.0
C2560 C 0.3573 0.0909 0.9559 0.0
C2561 C 0.3589 0.07871 0.96292 0.0
C2562 C 0.36169 0.07077 0.94726 0.0
C2563 C 0.36204 0.05838 0.9534 0.0
C2564 C 0.36374 0.05003 0.93706 0.0
C2565 C 0.36581 0.05424 0.91558 0.0
C2566 C 0.3662 0.06676 0.90981 0.0
C2567 C 0.36416 0.07497 0.92537 0.0
H2568 H 0.97306 0.30788 0.99577 0.0
C2569 C 0.96804 0.3139 0.99087 0.0
H2570 H 0.9493 0.31282 0.97938 0.0
H2571 H 0.92617 0.25385 0.93051 0.0
H2572 H 0.93614 0.26988 0.9007 0.0
H2573 H 0.95094 0.29583 0.90746 0.0
H2574 H 0.95583 0.30589 0.94409 0.0
C2575 C 0.9543 0.30694 0.98507 0.0
C2576 C 0.94627 0.2912 0.98159 0.0
C2577 C 0.94363 0.28547 0.96007 0.0
C2578 C 0.93524 0.27051 0.9562 0.0
C2579 C 0.93261 0.26512 0.93448 0.0
C2580 C 0.93824 0.2742 0.91716 0.0
C2581 C 0.94656 0.28881 0.92097 0.0
C2582 C 0.94925 0.29444 0.9421 0.0
H2583 H 0.90179 0.24548 0.97605 0.0
C2584 C 0.90639 0.23935 0.96972 0.0
H2585 H 0.92554 0.24042 0.96159 0.0
H2586 H 0.94928 0.29874 0.02469 0.0
H2587 H 0.93964 0.28264 0.05469 0.0
H2588 H 0.92543 0.25662 0.04801 0.0
H2589 H 0.92069 0.24651 0.01128 0.0
C2590 C 0.92051 0.2457 0.96932 0.0
C2591 C 0.92948 0.26129 0.97387 0.0
C2592 C 0.93229 0.26698 0.99541 0.0
C2593 C 0.94067 0.28198 0.99928 0.0
C2594 C 0.94312 0.28743 0.0209 0.0
C2595 C 0.93764 0.27831 0.03824 0.0
C2596 C 0.92962 0.26365 0.03447 0.0
C2597 C 0.92694 0.25799 0.01334 0.0
H2598 H 0.67812 0.65008 0.00205 0.0
C2599 C 0.68115 0.65092 0.01913 0.0
H2600 H 0.69755 0.65526 0.0418 0.0
H2601 H 0.734 0.64314 0.97604 0.0
H2602 H 0.72565 0.62263 0.99901 0.0
H2603 H 0.70777 0.61787 0.02631 0.0
H2604 H 0.69817 0.6336 0.03089 0.0
C2605 C 0.69446 0.65477 0.02483 0.0
C2606 C 0.70518 0.65769 0.00823 0.0
C2607 C 0.71062 0.64835 0.00571 0.0
C2608 C 0.72081 0.651 0.98981 0.0
C2609 C 0.72616 0.64156 0.98775 0.0
C2610 C 0.72147 0.62975 0.00084 0.0
C2611 C 0.71141 0.62708 0.01622 0.0
C2612 C 0.706 0.63622 0.0187 0.0
H2613 H 0.75186 0.68441 0.97607 0.0
C2614 C 0.74938 0.67709 0.96224 0.0
H2615 H 0.73326 0.65836 0.9463 0.0
H2616 H 0.6981 0.67865 0.0104 0.0
H2617 H 0.70576 0.69859 0.98652 0.0
H2618 H 0.72209 0.70216 0.95715 0.0
H2619 H 0.73105 0.68598 0.95179 0.0
C2620 C 0.73632 0.66577 0.96007 0.0
C2621 C 0.72553 0.66298 0.97647 0.0
C2622 C 0.71993 0.67223 0.97875 0.0
C2623 C 0.71 0.66977 0.995 0.0
C2624 C 0.70521 0.67964 0.99776 0.0
C2625 C 0.7096 0.69121 0.98425 0.0
C2626 C 0.71883 0.69325 0.96777 0.0
C2627 C 0.72396 0.68391 0.96496 0.0
H2628 H 0.96164 0.65573 0.98184 0.0
C2629 C 0.95769 0.65151 0.99767 0.0
H2630 H 0.94121 0.64572 0.01957 0.0
H2631 H 0.93461 0.69113 0.95572 0.0
H2632 H 0.95724 0.70902 0.97101 0.0
H2633 H 0.97068 0.70235 0.9959 0.0
H2634 H 0.9617 0.67772 0.00527 0.0
C2635 C 0.94549 0.65029 0.00404 0.0
C2636 C 0.93713 0.65455 0.98994 0.0
C2637 C 0.9423 0.66912 0.98536 0.0
C2638 C 0.93422 0.67306 0.97187 0.0
C2639 C 0.94 0.68758 0.96658 0.0
C2640 C 0.95304 0.69797 0.97514 0.0
C2641 C 0.96063 0.69421 0.98908 0.0
C2642 C 0.95537 0.67999 0.99421 0.0
H2643 H 0.90883 0.67747 0.97663 0.0
C2644 C 0.90655 0.67435 0.95953 0.0
H2645 H 0.91019 0.66361 0.93358 0.0
H2646 H 0.92419 0.62573 0.99533 0.0
H2647 H 0.90119 0.60792 0.98091 0.0
H2648 H 0.88684 0.61488 0.95867 0.0
H2649 H 0.89542 0.63971 0.95061 0.0
C2650 C 0.91188 0.66669 0.95068 0.0
C2651 C 0.92068 0.66253 0.96389 0.0
C2652 C 0.91552 0.648 0.96849 0.0
C2653 C 0.92374 0.644 0.98151 0.0
C2654 C 0.91834 0.62938 0.98572 0.0
C2655 C 0.90516 0.61904 0.97751 0.0
C2656 C 0.89708 0.62296 0.96497 0.0
C2657 C 0.90214 0.63725 0.96046 0.0
H2658 H 0.37793 0.32212 0.97152 0.0
C2659 C 0.36997 0.32406 0.97841 0.0
H2660 H 0.34897 0.31446 0.98885 0.0
H2661 H 0.3449 0.26724 0.91612 0.0
H2662 H 0.34632 0.28456 0.89038 0.0
H2663 H 0.35064 0.30819 0.90291 0.0
H2664 H 0.35367 0.31468 0.94121 0.0
C2665 C 0.35719 0.3129 0.98211 0.0
C2666 C 0.35351 0.29825 0.97478 0.0
C2667 C 0.3515 0.29455 0.95229 0.0
C2668 C 0.34874 0.28085 0.9451 0.0
C2669 C 0.34698 0.2775 0.92252 0.0
C2670 C 0.34774 0.28732 0.90755 0.0
C2671 C 0.35019 0.30063 0.9146 0.0
C2672 C 0.35201 0.30425 0.93667 0.0
H2673 H 0.32359 0.246 0.95955 0.0
C2674 C 0.33192 0.24524 0.95144 0.0
H2675 H 0.35366 0.25621 0.94485 0.0
H2676 H 0.35589 0.30166 0.01893 0.0
H2677 H 0.35363 0.28398 0.04481 0.0
H2678 H 0.34864 0.2601 0.0323 0.0
H2679 H 0.34588 0.25372 0.99383 0.0
C2680 C 0.34501 0.25658 0.95245 0.0
C2681 C 0.34763 0.27074 0.9604 0.0
C2682 C 0.34915 0.27424 0.98289 0.0
C2683 C 0.35207 0.28803 0.99009 0.0
C2684 C 0.35366 0.29133 0.01263 0.0
C2685 C 0.35239 0.28129 0.02762 0.0
C2686 C 0.34958 0.26783 0.02058 0.0
C2687 C 0.34799 0.2643 0.99848 0.0
H2688 H 0.69011 0.03945 0.0143 0.0
C2689 C 0.67978 0.03736 0.00874 0.0
H2690 H 0.66845 0.04193 0.98524 0.0
H2691 H 0.73421 0.09654 0.98205 0.0
H2692 H 0.72994 0.10305 0.01775 0.0
H2693 H 0.70777 0.08758 0.03606 0.0
H2694 H 0.68985 0.06541 0.01891 0.0
C2695 C 0.67869 0.04411 0.99139 0.0
C2696 C 0.6914 0.0542 0.97954 0.0
C2697 C 0.70152 0.06741 0.98947 0.0
C2698 C 0.71404 0.07662 0.97853 0.0
C2699 C 0.72429 0.08939 0.98927 0.0
C2700 C 0.72202 0.09322 0.00984 0.0
C2701 C 0.70956 0.08449 0.02017 0.0
C2702 C 0.69939 0.07173 0.01019 0.0
H2703 H 0.72273 0.09797 0.94139 0.0
C2704 C 0.73069 0.09509 0.938 0.0
H2705 H 0.73597 0.07886 0.94084 0.0
H2706 H 0.67396 0.02986 0.9558 0.0
H2707 H 0.67781 0.02378 0.9195 0.0
H2708 H 0.69913 0.04014 0.9 0.0
H2709 H 0.71677 0.06263 0.9167 0.0
C2710 C 0.7289 0.08269 0.94537 0.0
C2711 C 0.71612 0.07289 0.95733 0.0
C2712 C 0.70588 0.05982 0.94725 0.0
C2713 C 0.6935 0.05046 0.95838 0.0
C2714 C 0.6835 0.03741 0.94802 0.0
C2715 C 0.68558 0.03379 0.92718 0.0
C2716 C 0.69759 0.04299 0.91621 0.0
C2717 C 0.70765 0.05587 0.92603 0.0
H2718 H 0.65387 0.97643 0.03218 0.0
C2719 C 0.64344 0.97134 0.03895 0.0
H2720 H 0.62825 0.95356 0.05576 0.0
H2721 H 0.65498 0.9145 0.03817 0.0
H2722 H 0.63546 0.90377 0.01188 0.0
H2723 H 0.62139 0.91524 0.00392 0.0
H2724 H 0.62676 0.93753 0.02215 0.0
C2725 C 0.63864 0.95886 0.0489 0.0
C2726 C 0.64771 0.95246 0.05261 0.0
C2727 C 0.6444 0.93944 0.0419 0.0
C2728 C 0.65243 0.93276 0.04662 0.0
C2729 C 0.64904 0.91986 0.03546 0.0
C2730 C 0.63792 0.91364 0.02026 0.0
C2731 C 0.63 0.92011 0.01577 0.0
C2732 C 0.63317 0.93287 0.02637 0.0
H2733 H 0.65372 0.91587 0.08497 0.0
C2734 C 0.66482 0.92012 0.08183 0.0
H2735 H 0.68241 0.93676 0.06662 0.0
H2736 H 0.65641 0.977 0.07732 0.0
H2737 H 0.67608 0.9878 0.10299 0.0
H2738 H 0.69047 0.97659 0.11023 0.0
H2739 H 0.68515 0.95445 0.09193 0.0
C2740 C 0.67119 0.9315 0.06912 0.0
C2741 C 0.66367 0.93907 0.06219 0.0
C2742 C 0.66727 0.95232 0.07243 0.0
C2743 C 0.65915 0.95893 0.06791 0.0
C2744 C 0.66246 0.97171 0.07944 0.0
C2745 C 0.67369 0.978 0.09442 0.0
C2746 C 0.68178 0.97169 0.09853 0.0
C2747 C 0.67861 0.95897 0.08783 0.0
H2748 H 0.02939 0.69429 0.02152 0.0
C2749 C 0.03352 0.68765 0.02735 0.0
H2750 H 0.0512 0.68732 0.04075 0.0
H2751 H 0.09805 0.74909 0.01858 0.0
H2752 H 0.10129 0.7359 0.98913 0.0
H2753 H 0.08386 0.71057 0.98149 0.0
H2754 H 0.06303 0.69827 0.00316 0.0
C2755 C 0.04686 0.69382 0.03512 0.0
C2756 C 0.05611 0.70957 0.03751 0.0
C2757 C 0.06819 0.7166 0.02471 0.0
C2758 C 0.07832 0.73115 0.02926 0.0
C2759 C 0.09021 0.73795 0.01607 0.0
C2760 C 0.09214 0.73054 0.99907 0.0
C2761 C 0.08232 0.71627 0.99475 0.0
C2762 C 0.07045 0.70933 0.00735 0.0
H2763 H 0.10123 0.74497 0.06309 0.0
C2764 C 0.09977 0.75419 0.06378 0.0
H2765 H 0.08601 0.76173 0.05445 0.0
H2766 H 0.03398 0.69947 0.0652 0.0
H2767 H 0.03049 0.71288 0.0937 0.0
H2768 H 0.04781 0.73826 0.10098 0.0
H2769 H 0.06879 0.75033 0.07985 0.0
C2770 C 0.08804 0.75292 0.05431 0.0
C2771 C 0.07644 0.73861 0.04679 0.0
C2772 C 0.06391 0.73186 0.05869 0.0
C2773 C 0.05381 0.71727 0.05424 0.0
C2774 C 0.04184 0.71059 0.06736 0.0
C2775 C 0.03973 0.71816 0.08393 0.0
C2776 C 0.04949 0.73244 0.08804 0.0
C2777 C 0.06149 0.73924 0.07573 0.0
H2778 H 0.32148 0.34286 0.03299 0.0
C2779 C 0.32013 0.34512 0.01628 0.0
H2780 H 0.30602 0.34508 0.9925 0.0
H2781 H 0.25045 0.30135 0.03796 0.0
H2782 H 0.25038 0.287 0.00727 0.0
H2783 H 0.27096 0.29571 0.98397 0.0
H2784 H 0.2917 0.31884 0.99113 0.0
C2785 C 0.30764 0.34325 0.00931 0.0
C2786 C 0.29545 0.33794 0.02384 0.0
C2787 C 0.28345 0.32434 0.01951 0.0
C2788 C 0.27165 0.31924 0.03309 0.0
C2789 C 0.25974 0.30569 0.02827 0.0
C2790 C 0.25956 0.29735 0.0107 0.0
C2791 C 0.27114 0.30226 0.99757 0.0
C2792 C 0.28297 0.31557 0.00184 0.0
H2793 H 0.25495 0.33843 0.05524 0.0
C2794 C 0.25166 0.32907 0.06502 0.0
H2795 H 0.25664 0.31336 0.0746 0.0
H2796 H 0.31613 0.36515 0.03544 0.0
H2797 H 0.31662 0.37898 0.06705 0.0
H2798 H 0.29697 0.36929 0.09229 0.0
H2799 H 0.2766 0.34584 0.08579 0.0
C2800 C 0.25933 0.32253 0.06472 0.0
C2801 C 0.27188 0.32773 0.05099 0.0
C2802 C 0.28402 0.34119 0.05565 0.0
C2803 C 0.29567 0.34646 0.04173 0.0
C2804 C 0.30725 0.36033 0.04597 0.0
C2805 C 0.30763 0.36844 0.064 0.0
C2806 C 0.29655 0.36301 0.07816 0.0
C2807 C 0.28487 0.34956 0.07413 0.0
H2808 H 0.70494 0.67797 0.36668 0.0
C2809 C 0.70928 0.68263 0.35122 0.0
H2810 H 0.72645 0.68946 0.33045 0.0
H2811 H 0.77163 0.69675 0.40106 0.0
H2812 H 0.77934 0.72144 0.39332 0.0
H2813 H 0.76465 0.7277 0.37054 0.0
H2814 H 0.74219 0.70932 0.35526 0.0
C2815 C 0.72182 0.6844 0.34555 0.0
C2816 C 0.73027 0.68051 0.36011 0.0
C2817 C 0.74333 0.6914 0.36906 0.0
C2818 C 0.75173 0.68781 0.38242 0.0
C2819 C 0.76478 0.69889 0.39095 0.0
C2820 C 0.76934 0.71311 0.38663 0.0
C2821 C 0.76108 0.71663 0.37378 0.0
C2822 C 0.74822 0.70596 0.36507 0.0
H2823 H 0.7602 0.65939 0.37513 0.0
C2824 C 0.76208 0.66256 0.39224 0.0
H2825 H 0.7573 0.6727 0.41769 0.0
H2826 H 0.70644 0.65685 0.34394 0.0
H2827 H 0.69828 0.6323 0.35302 0.0
H2828 H 0.71198 0.62626 0.3784 0.0
H2829 H 0.73407 0.64471 0.3945 0.0
C2830 C 0.75602 0.66967 0.40059 0.0
C2831 C 0.74706 0.67335 0.38685 0.0
C2832 C 0.73384 0.66247 0.37834 0.0
C2833 C 0.72559 0.66602 0.36454 0.0
C2834 C 0.71286 0.65485 0.35523 0.0
C2835 C 0.70808 0.64068 0.36019 0.0
C2836 C 0.71582 0.63728 0.37441 0.0
C2837 C 0.72854 0.64798 0.38343 0.0
H2838 H 0.32166 0.02329 0.3741 0.0
C2839 C 0.31067 0.01685 0.37822 0.0
H2840 H 0.29284 0.01709 0.38999 0.0
H2841 H 0.32963 0.07478 0.4433 0.0
H2842 H 0.32105 0.05767 0.47199 0.0
H2843 H 0.30777 0.03183 0.46343 0.0
H2844 H 0.30306 0.02295 0.42615 0.0
C2845 C 0.30364 0.02336 0.38488 0.0
C2846 C 0.31112 0.03899 0.38964 0.0
C2847 C 0.31354 0.044 0.41157 0.0
C2848 C 0.32111 0.05889 0.4165 0.0
C2849 C 0.32375 0.06359 0.43857 0.0
C2850 C 0.31893 0.05388 0.45524 0.0
C2851 C 0.31146 0.03934 0.45042 0.0
C2852 C 0.3088 0.03439 0.4289 0.0
H2853 H 0.31595 0.08545 0.41058 0.0
C2854 C 0.32739 0.09125 0.4111 0.0
H2855 H 0.34544 0.0893 0.40614 0.0
H2856 H 0.30755 0.03298 0.34595 0.0
H2857 H 0.31632 0.05016 0.31723 0.0
H2858 H 0.32966 0.076 0.32585 0.0
H2859 H 0.33427 0.08485 0.36331 0.0
C2860 C 0.33408 0.0843 0.40484 0.0
C2861 C 0.32605 0.06875 0.39949 0.0
C2862 C 0.32359 0.06377 0.3776 0.0
C2863 C 0.31604 0.04886 0.37264 0.0
C2864 C 0.31346 0.04418 0.35062 0.0
C2865 C 0.31837 0.05392 0.33399 0.0
C2866 C 0.32588 0.06848 0.33885 0.0
C2867 C 0.32846 0.07342 0.36038 0.0
H2868 H 0.98584 0.30301 0.36803 0.0
C2869 C 0.98347 0.30606 0.3525 0.0
H2870 H 0.96738 0.30373 0.33061 0.0
H2871 H 0.92381 0.2439 0.36887 0.0
H2872 H 0.92648 0.2371 0.33231 0.0
H2873 H 0.94378 0.25487 0.30806 0.0
H2874 H 0.95847 0.27954 0.32014 0.0
C2875 C 0.97 0.30123 0.3464 0.0
C2876 C 0.9584 0.29101 0.36006 0.0
C2877 C 0.94982 0.27667 0.35262 0.0
C2878 C 0.93996 0.2664 0.36667 0.0
C2879 C 0.93157 0.25211 0.35892 0.0
C2880 C 0.93297 0.24807 0.33797 0.0
C2881 C 0.94271 0.25808 0.32431 0.0
C2882 C 0.95107 0.27222 0.33146 0.0
H2883 H 0.91453 0.26595 0.40469 0.0
C2884 C 0.91738 0.25818 0.40999 0.0
H2885 H 0.93291 0.25205 0.40868 0.0
H2886 H 0.97135 0.31807 0.37784 0.0
H2887 H 0.96879 0.32489 0.41445 0.0
H2888 H 0.95276 0.30683 0.43964 0.0
H2889 H 0.93904 0.28193 0.4283 0.0
C2890 C 0.9295 0.25935 0.40332 0.0
C2891 C 0.9387 0.27048 0.38809 0.0
C2892 C 0.94688 0.28494 0.39525 0.0
C2893 C 0.95655 0.29527 0.38104 0.0
C2894 C 0.96423 0.30972 0.38826 0.0
C2895 C 0.9628 0.31379 0.40917 0.0
C2896 C 0.95374 0.30363 0.42333 0.0
C2897 C 0.94587 0.28936 0.41656 0.0
H2898 H 0.04144 0.3862 0.32283 0.0
C2899 C 0.03307 0.37562 0.32689 0.0
H2900 H 0.01128 0.36266 0.33149 0.0
H2901 H 0.02785 0.43157 0.32537 0.0
H2902 H 0.03821 0.43465 0.36162 0.0
H2903 H 0.03857 0.41462 0.37953 0.0
H2904 H 0.02856 0.39135 0.36126 0.0
C2905 C 0.01991 0.37329 0.32852 0.0
C2906 C 0.01666 0.38425 0.32052 0.0
C2907 C 0.02228 0.39765 0.3315 0.0
C2908 C 0.022 0.40915 0.3212 0.0
C2909 C 0.02787 0.4225 0.33243 0.0
C2910 C 0.0338 0.42439 0.35324 0.0
C2911 C 0.03401 0.41311 0.36332 0.0
C2912 C 0.02832 0.39986 0.35265 0.0
H2913 H 0.99641 0.41321 0.2861 0.0
C2914 C 0.00694 0.4213 0.2817 0.0
H2915 H 0.0285 0.4274 0.28325 0.0
H2916 H 0.00297 0.35923 0.29647 0.0
H2917 H 0.99247 0.35599 0.26049 0.0
H2918 H 0.99303 0.37618 0.24172 0.0
H2919 H 0.0039 0.39961 0.25885 0.0
C2920 C 0.0179 0.41981 0.28798 0.0
C2921 C 0.01606 0.40721 0.29997 0.0
C2922 C 0.00968 0.39353 0.28947 0.0
C2923 C 0.00971 0.38196 0.30002 0.0
C2924 C 0.00335 0.36843 0.28919 0.0
C2925 C 0.99728 0.3664 0.2685 0.0
C2926 C 0.99757 0.37776 0.25795 0.0
C2927 C 0.00376 0.39119 0.26814 0.0
H2928 H 0.6226 0.65006 0.31054 0.0
C2929 C 0.63299 0.65245 0.31631 0.0
H2930 H 0.64537 0.64356 0.3267 0.0
H2931 H 0.58911 0.58424 0.34448 0.0
H2932 H 0.59615 0.5933 0.3816 0.0
H2933 H 0.61592 0.61764 0.38926 0.0
H2934 H 0.6288 0.63311 0.35985 0.0
C2935 C 0.63514 0.64159 0.32093 0.0
C2936 C 0.62381 0.62658 0.31647 0.0
C2937 C 0.61655 0.61762 0.3338 0.0
C2938 C 0.60519 0.60354 0.32938 0.0
C2939 C 0.59791 0.59494 0.34697 0.0
C2940 C 0.60182 0.60003 0.36832 0.0
C2941 C 0.61295 0.61375 0.37264 0.0
C2942 C 0.62025 0.6225 0.35564 0.0
H2943 H 0.60042 0.5738 0.31165 0.0
C2944 C 0.59081 0.57238 0.30388 0.0
H2945 H 0.57996 0.58323 0.29487 0.0
H2946 H 0.63669 0.64028 0.27948 0.0
H2947 H 0.62985 0.63112 0.2425 0.0
H2948 H 0.60979 0.60697 0.23482 0.0
H2949 H 0.59654 0.59179 0.26408 0.0
C2950 C 0.58921 0.58388 0.30256 0.0
C2951 C 0.60121 0.59845 0.30763 0.0
C2952 C 0.60868 0.60729 0.2903 0.0
C2953 C 0.6201 0.6213 0.29472 0.0
C2954 C 0.62769 0.6297 0.27709 0.0
C2955 C 0.62394 0.62454 0.25575 0.0
C2956 C 0.61266 0.61094 0.25143 0.0
C2957 C 0.60511 0.60235 0.26841 0.0
H2958 H 0.3588 0.97911 0.3668 0.0
C2959 C 0.35073 0.97995 0.35757 0.0
H2960 H 0.34361 0.98183 0.32643 0.0
H2961 H 0.41148 0.00149 0.31546 0.0
H2962 H 0.41657 0.022 0.33843 0.0
H2963 H 0.39739 0.02431 0.35462 0.0
H2964 H 0.37302 0.00599 0.34822 0.0
C2965 C 0.35186 0.98154 0.33602 0.0
C2966 C 0.3634 0.98108 0.32446 0.0
C2967 C 0.37756 0.99216 0.32774 0.0
C2968 C 0.38858 0.99112 0.31768 0.0
C2969 C 0.40267 0.00198 0.32207 0.0
C2970 C 0.40574 0.01377 0.33533 0.0
C2971 C 0.39495 0.01505 0.34451 0.0
C2972 C 0.38101 0.00441 0.34081 0.0
H2973 H 0.40139 0.99578 0.27285 0.0
C2974 C 0.40358 0.98722 0.27617 0.0
H2975 H 0.39855 0.96973 0.29637 0.0
H2976 H 0.33739 0.95806 0.31462 0.0
H2977 H 0.33227 0.93798 0.29066 0.0
H2978 H 0.35132 0.93659 0.27221 0.0
H2979 H 0.37562 0.95525 0.27772 0.0
C2980 C 0.3967 0.97836 0.29226 0.0
C2981 C 0.38536 0.97929 0.30368 0.0
C2982 C 0.3712 0.96833 0.30016 0.0
C2983 C 0.36021 0.96923 0.31057 0.0
C2984 C 0.34617 0.95803 0.30696 0.0
C2985 C 0.34306 0.94641 0.29326 0.0
C2986 C 0.35379 0.94563 0.28289 0.0
C2987 C 0.36771 0.95642 0.28623 0.0
H2988 H 0.63175 0.98674 0.32908 0.0
C2989 C 0.62656 0.97883 0.34138 0.0
H2990 H 0.60768 0.96619 0.35763 0.0
H2991 H 0.58085 0.00465 0.34084 0.0
H2992 H 0.58497 0.00735 0.37982 0.0
H2993 H 0.59837 0.9976 0.39811 0.0
H2994 H 0.60761 0.98501 0.37758 0.0
C2995 C 0.61284 0.97379 0.34494 0.0
C2996 C 0.60477 0.9796 0.33363 0.0
C2997 C 0.59955 0.98707 0.34588 0.0
C2998 C 0.59205 0.99292 0.3353 0.0
C2999 C 0.58678 0.00015 0.34799 0.0
C3000 C 0.58905 0.00176 0.3704 0.0
C3001 C 0.59657 0.99626 0.3807 0.0
C3002 C 0.60179 0.98901 0.36869 0.0
H3003 H 0.56541 0.978 0.29017 0.0
C3004 C 0.56961 0.98947 0.29133 0.0
H3005 H 0.58671 0.00921 0.30261 0.0
H3006 H 0.6116 0.96424 0.3056 0.0
H3007 H 0.60847 0.96251 0.26645 0.0
H3008 H 0.59748 0.97461 0.24775 0.0
H3009 H 0.58926 0.98819 0.26813 0.0
C3010 C 0.5821 0.9977 0.30161 0.0
C3011 C 0.58989 0.99142 0.31246 0.0
C3012 C 0.59528 0.98413 0.30015 0.0
C3013 C 0.60236 0.97784 0.31081 0.0
C3014 C 0.60677 0.9698 0.29827 0.0
C3015 C 0.60494 0.96863 0.27578 0.0
C3016 C 0.5987 0.97538 0.26526 0.0
C3017 C 0.59393 0.98307 0.2772 0.0
H3018 H 0.0168 0.64583 0.32846 0.0
C3019 C 0.02674 0.6515 0.32029 0.0
H3020 H 0.0413 0.64955 0.30061 0.0
H3021 H 0.02104 0.58496 0.31477 0.0
H3022 H 0.04201 0.59583 0.33825 0.0
H3023 H 0.05437 0.62165 0.34716 0.0
H3024 H 0.04583 0.63675 0.3327 0.0
C3025 C 0.03136 0.64408 0.30881 0.0
C3026 C 0.02289 0.62831 0.30563 0.0
C3027 C 0.02798 0.61964 0.31426 0.0
C3028 C 0.02093 0.60478 0.309 0.0
C3029 C 0.02617 0.59635 0.31795 0.0
C3030 C 0.03814 0.60244 0.33153 0.0
C3031 C 0.0451 0.61697 0.33656 0.0
C3032 C 0.04011 0.62552 0.3281 0.0
H3033 H 0.02017 0.58884 0.26765 0.0
C3034 C 0.00966 0.58052 0.27172 0.0
H3035 H 0.99187 0.57616 0.29007 0.0
H3036 H 0.01039 0.64184 0.28551 0.0
H3037 H 0.98914 0.63077 0.26309 0.0
H3038 H 0.97645 0.60485 0.25522 0.0
H3039 H 0.98507 0.58989 0.26962 0.0
C3040 C 0.00272 0.5837 0.28653 0.0
C3041 C 0.00884 0.59864 0.29502 0.0
C3042 C 0.00329 0.60714 0.28732 0.0
C3043 C 0.01045 0.62204 0.29231 0.0
C3044 C 0.00519 0.63041 0.28303 0.0
C3045 C 0.99302 0.6242 0.26992 0.0
C3046 C 0.98589 0.60962 0.26546 0.0
C3047 C 0.99096 0.60115 0.27388 0.0
H3048 H 0.36723 0.37407 0.35111 0.0
C3049 C 0.35773 0.37357 0.34455 0.0
H3050 H 0.34895 0.37993 0.31935 0.0
H3051 H 0.41914 0.42284 0.3193 0.0
H3052 H 0.41641 0.43236 0.35354 0.0
H3053 H 0.39315 0.42231 0.37 0.0
H3054 H 0.37253 0.40249 0.35246 0.0
C3055 C 0.35839 0.38059 0.32646 0.0
C3056 C 0.37181 0.38838 0.31478 0.0
C3057 C 0.38362 0.40041 0.32473 0.0
C3058 C 0.39691 0.40661 0.31475 0.0
C3059 C 0.4087 0.41803 0.32572 0.0
C3060 C 0.4073 0.42357 0.34546 0.0
C3061 C 0.39421 0.41788 0.35477 0.0
C3062 C 0.38248 0.40643 0.3446 0.0
H3063 H 0.41406 0.42644 0.2766 0.0
C3064 C 0.41891 0.41981 0.27591 0.0
H3065 H 0.41606 0.39942 0.28237 0.0
H3066 H 0.35098 0.36621 0.29052 0.0
H3067 H 0.35336 0.35764 0.25517 0.0
H3068 H 0.37619 0.36899 0.23719 0.0
H3069 H 0.3968 0.38893 0.25452 0.0
C3070 C 0.41215 0.40678 0.28445 0.0
C3071 C 0.39819 0.40113 0.29441 0.0
C3072 C 0.38619 0.38965 0.28388 0.0
C3073 C 0.37298 0.38325 0.29409 0.0
C3074 C 0.36124 0.37158 0.28342 0.0
C3075 C 0.36246 0.36654 0.26312 0.0
C3076 C 0.37532 0.37291 0.25301 0.0
C3077 C 0.38707 0.38433 0.26318 0.0
H3078 H 0.32572 0.3127 0.36595 0.0
C3079 C 0.31485 0.30825 0.37065 0.0
H3080 H 0.2974 0.29066 0.3844 0.0
H3081 H 0.32071 0.24802 0.37178 0.0
H3082 H 0.30308 0.23936 0.34248 0.0
H3083 H 0.29115 0.25269 0.33237 0.0
H3084 H 0.29679 0.2748 0.35144 0.0
C3085 C 0.30826 0.29535 0.37959 0.0
C3086 C 0.31586 0.28762 0.38508 0.0
C3087 C 0.31238 0.27469 0.37389 0.0
C3088 C 0.31918 0.26694 0.37983 0.0
C3089 C 0.31569 0.25419 0.36814 0.0
C3090 C 0.30564 0.24914 0.35124 0.0
C3091 C 0.29893 0.25665 0.34554 0.0
C3092 C 0.30223 0.26931 0.35664 0.0
H3093 H 0.31752 0.24807 0.41827 0.0
C3094 C 0.32868 0.25202 0.41621 0.0
H3095 H 0.34728 0.2687 0.40322 0.0
H3096 H 0.32416 0.3114 0.41142 0.0
H3097 H 0.34184 0.32007 0.44036 0.0
H3098 H 0.35417 0.30703 0.44982 0.0
H3099 H 0.34877 0.28518 0.43047 0.0
C3100 C 0.33597 0.26374 0.40445 0.0
C3101 C 0.32937 0.2721 0.39706 0.0
C3102 C 0.333 0.28514 0.40808 0.0
C3103 C 0.3261 0.29281 0.40232 0.0
C3104 C 0.32938 0.30537 0.41449 0.0
C3105 C 0.33945 0.31043 0.43133 0.0
C3106 C 0.34638 0.30308 0.43667 0.0
C3107 C 0.34318 0.29055 0.42535 0.0
H3108 H 0.69766 0.02388 0.36874 0.0
C3109 C 0.70231 0.01758 0.37406 0.0
H3110 H 0.72046 0.01814 0.38725 0.0
H3111 H 0.74579 0.08463 0.35382 0.0
H3112 H 0.74151 0.07433 0.31726 0.0
H3113 H 0.72938 0.04824 0.31109 0.0
H3114 H 0.72136 0.03227 0.34141 0.0
C3115 C 0.71582 0.02424 0.38107 0.0
C3116 C 0.72393 0.04 0.38443 0.0
C3117 C 0.72872 0.04916 0.36654 0.0
C3118 C 0.73595 0.06422 0.37011 0.0
C3119 C 0.7404 0.07313 0.35199 0.0
C3120 C 0.738 0.06736 0.33095 0.0
C3121 C 0.73115 0.05266 0.32747 0.0
C3122 C 0.72655 0.04361 0.345 0.0
H3123 H 0.76573 0.08913 0.39131 0.0
C3124 C 0.75947 0.09393 0.39595 0.0
H3125 H 0.73886 0.08973 0.40198 0.0
H3126 H 0.71648 0.02545 0.42239 0.0
H3127 H 0.72133 0.03579 0.45884 0.0
H3128 H 0.73413 0.06189 0.465 0.0
H3129 H 0.74214 0.0778 0.43472 0.0
C3130 C 0.74538 0.08569 0.39561 0.0
C3131 C 0.73847 0.07004 0.39154 0.0
C3132 C 0.73395 0.06088 0.40944 0.0
C3133 C 0.7267 0.04585 0.40589 0.0
C3134 C 0.72217 0.03696 0.42409 0.0
C3135 C 0.72486 0.04275 0.44514 0.0
C3136 C 0.73205 0.05744 0.44861 0.0
C3137 C 0.73656 0.06645 0.43105 0.0
H3138 H 0.99284 0.68587 0.37147 0.0
C3139 C 0.99382 0.69215 0.35733 0.0
H3140 H 0.98437 0.70114 0.33799 0.0
H3141 H 0.92252 0.65706 0.36414 0.0
H3142 H 0.92219 0.651 0.32602 0.0
H3143 H 0.94397 0.66221 0.30527 0.0
H3144 H 0.96617 0.6796 0.32244 0.0
C3145 C 0.98372 0.69528 0.35247 0.0
C3146 C 0.97055 0.68918 0.36489 0.0
C3147 C 0.95765 0.67901 0.35454 0.0
C3148 C 0.94513 0.67239 0.36657 0.0
C3149 C 0.93238 0.6623 0.35584 0.0
C3150 C 0.93203 0.65874 0.33394 0.0
C3151 C 0.94429 0.66506 0.32226 0.0
C3152 C 0.95697 0.67506 0.33234 0.0
H3153 H 0.93051 0.68626 0.40726 0.0
C3154 C 0.92588 0.67484 0.40936 0.0
H3155 H 0.92839 0.65691 0.40383 0.0
H3156 H 0.99304 0.70976 0.38877 0.0
H3157 H 0.9935 0.71539 0.42712 0.0
H3158 H 0.97218 0.70263 0.44865 0.0
H3159 H 0.95023 0.68439 0.43189 0.0
C3160 C 0.93253 0.66822 0.40153 0.0
C3161 C 0.94554 0.67588 0.38891 0.0
C3162 C 0.9584 0.68618 0.39922 0.0
C3163 C 0.97086 0.69307 0.38705 0.0
C3164 C 0.98341 0.7038 0.39745 0.0
C3165 C 0.9838 0.7072 0.41942 0.0
C3166 C 0.97178 0.70006 0.43152 0.0
C3167 C 0.95921 0.68965 0.42164 0.0
H3168 H 0.37097 0.009 0.701 0.0
C3169 C 0.37442 0.01212 0.68455 0.0
H3170 H 0.38989 0.01594 0.66162 0.0
H3171 H 0.43861 0.0264 0.72729 0.0
H3172 H 0.44709 0.05019 0.7139 0.0
H3173 H 0.43182 0.05553 0.69083 0.0
H3174 H 0.40803 0.03711 0.68089 0.0
C3175 C 0.38613 0.01241 0.6778 0.0
C3176 C 0.39502 0.00915 0.6925 0.0
C3177 C 0.40888 0.02008 0.69833 0.0
C3178 C 0.41762 0.01705 0.7119 0.0
C3179 C 0.43147 0.02814 0.71722 0.0
C3180 C 0.43648 0.04184 0.70963 0.0
C3181 C 0.42789 0.04484 0.69662 0.0
C3182 C 0.41426 0.03415 0.69099 0.0
H3183 H 0.42248 0.98566 0.71136 0.0
C3184 C 0.42615 0.99104 0.72715 0.0
H3185 H 0.42494 0.00534 0.74966 0.0
H3186 H 0.36955 0.9853 0.68268 0.0
H3187 H 0.36067 0.96188 0.69759 0.0
H3188 H 0.37507 0.95719 0.72365 0.0
H3189 H 0.39855 0.97582 0.73453 0.0
C3190 C 0.42178 6e-05 0.73378 0.0
C3191 C 0.41249 0.00313 0.71974 0.0
C3192 C 0.39849 0.99228 0.71438 0.0
C3193 C 0.38989 0.99519 0.70028 0.0
C3194 C 0.37631 0.9839 0.69408 0.0
C3195 C 0.37111 0.97035 0.70241 0.0
C3196 C 0.37924 0.9677 0.717 0.0
C3197 C 0.39276 0.97848 0.72299 0.0
H3198 H 0.98013 0.34968 0.71343 0.0
C3199 C 0.96979 0.34153 0.71844 0.0
H3200 H 0.95065 0.33744 0.732 0.0
H3201 H 0.97575 0.39549 0.78422 0.0
H3202 H 0.97306 0.37938 0.81289 0.0
H3203 H 0.96701 0.3546 0.8044 0.0
H3204 H 0.96345 0.34574 0.76715 0.0
C3205 C 0.96078 0.34542 0.72607 0.0
C3206 C 0.96524 0.36065 0.73069 0.0
C3207 C 0.96747 0.36572 0.75256 0.0
C3208 C 0.97122 0.38008 0.75743 0.0
C3209 C 0.97311 0.38476 0.77949 0.0
C3210 C 0.97158 0.37561 0.79616 0.0
C3211 C 0.96814 0.36165 0.79138 0.0
C3212 C 0.96609 0.3567 0.7699 0.0
H3213 H 0.95626 0.40053 0.73684 0.0
C3214 C 0.96638 0.40806 0.74446 0.0
H3215 H 0.98609 0.41089 0.75491 0.0
H3216 H 0.96131 0.35421 0.68713 0.0
H3217 H 0.96457 0.37051 0.6583 0.0
H3218 H 0.97192 0.39567 0.6667 0.0
H3219 H 0.97593 0.40467 0.70402 0.0
C3220 C 0.97627 0.40422 0.74597 0.0
C3221 C 0.97279 0.38937 0.74041 0.0
C3222 C 0.97079 0.38438 0.71852 0.0
C3223 C 0.96689 0.36995 0.71365 0.0
C3224 C 0.96456 0.36513 0.6917 0.0
C3225 C 0.96635 0.37436 0.67501 0.0
C3226 C 0.97047 0.38853 0.67974 0.0
C3227 C 0.97268 0.39354 0.70122 0.0
H3228 H 0.6399 0.62258 0.683 0.0
C3229 C 0.65013 0.62416 0.68805 0.0
H3230 H 0.66146 0.61964 0.71165 0.0
H3231 H 0.6156 0.60473 0.78321 0.0
H3232 H 0.63439 0.62749 0.79742 0.0
H3233 H 0.65534 0.6421 0.77594 0.0
H3234 H 0.65768 0.634 0.74015 0.0
C3235 C 0.6513 0.61801 0.70608 0.0
C3236 C 0.63878 0.60902 0.71911 0.0
C3237 C 0.63757 0.61394 0.73994 0.0
C3238 C 0.62541 0.60559 0.7522 0.0
C3239 C 0.62453 0.6107 0.77307 0.0
C3240 C 0.63525 0.62374 0.78145 0.0
C3241 C 0.64706 0.63196 0.76937 0.0
C3242 C 0.64826 0.62718 0.74885 0.0
H3243 H 0.6074 0.56781 0.76201 0.0
C3244 C 0.59984 0.57128 0.76517 0.0
H3245 H 0.59537 0.58799 0.76095 0.0
H3246 H 0.63855 0.59564 0.68081 0.0
H3247 H 0.6195 0.57322 0.66613 0.0
H3248 H 0.59772 0.55954 0.68631 0.0
H3249 H 0.59497 0.56807 0.72144 0.0
C3250 C 0.60199 0.58355 0.75673 0.0
C3251 C 0.61451 0.59234 0.74358 0.0
C3252 C 0.6157 0.58744 0.72269 0.0
C3253 C 0.62799 0.59564 0.71064 0.0
C3254 C 0.62922 0.59014 0.69031 0.0
C3255 C 0.6184 0.57722 0.68174 0.0
C3256 C 0.60616 0.56949 0.69313 0.0
C3257 C 0.60476 0.57448 0.71336 0.0
H3258 H 0.67904 0.6821 0.64868 0.0
C3259 C 0.68941 0.68571 0.64228 0.0
H3260 H 0.70625 0.70177 0.62524 0.0
H3261 H 0.66886 0.72114 0.57446 0.0
H3262 H 0.67233 0.70734 0.54643 0.0
H3263 H 0.68344 0.69302 0.55519 0.0
H3264 H 0.69109 0.69238 0.59204 0.0
C3265 C 0.69611 0.69829 0.63245 0.0
C3266 C 0.68903 0.70662 0.62768 0.0
C3267 C 0.68473 0.70697 0.60599 0.0
C3268 C 0.67844 0.71531 0.60091 0.0
C3269 C 0.67395 0.71521 0.57918 0.0
C3270 C 0.67581 0.70727 0.56293 0.0
C3271 C 0.68205 0.69921 0.56787 0.0
C3272 C 0.68644 0.69898 0.5891 0.0
H3273 H 0.69039 0.74828 0.59924 0.0
C3274 C 0.67949 0.74536 0.60168 0.0
H3275 H 0.66012 0.7293 0.6139 0.0
H3276 H 0.69613 0.70836 0.67086 0.0
H3277 H 0.69226 0.72188 0.69898 0.0
H3278 H 0.68113 0.73617 0.69012 0.0
H3279 H 0.67384 0.73708 0.65301 0.0
C3280 C 0.6712 0.7331 0.61168 0.0
C3281 C 0.67669 0.72348 0.61746 0.0
C3282 C 0.6806 0.72282 0.63922 0.0
C3283 C 0.68686 0.71444 0.64435 0.0
C3284 C 0.6911 0.71434 0.66612 0.0
C3285 C 0.68899 0.7221 0.6824 0.0
C3286 C 0.68274 0.73017 0.6774 0.0
C3287 C 0.6786 0.7306 0.65607 0.0
H3288 H 0.28721 0.98217 0.65272 0.0
C3289 C 0.29783 0.98408 0.65551 0.0
H3290 H 0.31046 0.97448 0.65765 0.0
H3291 H 0.2465 0.91887 0.67058 0.0
H3292 H 0.24958 0.92783 0.70782 0.0
H3293 H 0.27038 0.95075 0.7192 0.0
H3294 H 0.28824 0.9649 0.69335 0.0
C3295 C 0.29988 0.97287 0.65635 0.0
C3296 C 0.28812 0.95833 0.65041 0.0
C3297 C 0.27792 0.9501 0.66573 0.0
C3298 C 0.26602 0.93678 0.65922 0.0
C3299 C 0.25582 0.92895 0.67474 0.0
C3300 C 0.25745 0.93399 0.69614 0.0
C3301 C 0.26916 0.9469 0.70254 0.0
C3302 C 0.27931 0.95493 0.68757 0.0
H3303 H 0.25756 0.90484 0.64428 0.0
C3304 C 0.24988 0.90548 0.63371 0.0
H3305 H 0.24486 0.9196 0.61786 0.0
H3306 H 0.30617 0.97111 0.61728 0.0
H3307 H 0.30333 0.962 0.58025 0.0
H3308 H 0.28277 0.9389 0.56896 0.0
H3309 H 0.26493 0.92476 0.59463 0.0
C3310 C 0.25156 0.91842 0.62978 0.0
C3311 C 0.26441 0.93174 0.63742 0.0
C3312 C 0.27484 0.93979 0.62225 0.0
C3313 C 0.28673 0.95306 0.62878 0.0
C3314 C 0.29692 0.96094 0.61322 0.0
C3315 C 0.29544 0.95583 0.5919 0.0
C3316 C 0.28386 0.94283 0.58554 0.0
C3317 C 0.27367 0.93485 0.60046 0.0
H3318 H 0.01729 0.31865 0.66809 0.0
C3319 C 0.01851 0.31563 0.68436 0.0
H3320 H 0.03157 0.31216 0.70604 0.0
H3321 H 0.05256 0.30405 0.60907 0.0
H3322 H 0.02979 0.28253 0.60558 0.0
H3323 H 0.01206 0.27656 0.63359 0.0
H3324 H 0.01692 0.29221 0.66503 0.0
C3325 C 0.03 0.31482 0.6897 0.0
C3326 C 0.04101 0.31779 0.67365 0.0
C3327 C 0.03817 0.3082 0.6558 0.0
C3328 C 0.04861 0.31131 0.64016 0.0
C3329 C 0.04523 0.30195 0.62189 0.0
C3330 C 0.03215 0.28959 0.6196 0.0
C3331 C 0.02216 0.28626 0.63532 0.0
C3332 C 0.02507 0.2954 0.65324 0.0
H3333 H 0.07569 0.30957 0.63624 0.0
C3334 C 0.07922 0.31858 0.62559 0.0
H3335 H 0.0761 0.33563 0.61647 0.0
H3336 H 0.04989 0.33824 0.70609 0.0
H3337 H 0.07297 0.35941 0.71018 0.0
H3338 H 0.09133 0.36442 0.68365 0.0
H3339 H 0.08672 0.34831 0.6528 0.0
C3340 C 0.0732 0.32673 0.62704 0.0
C3341 C 0.06208 0.32366 0.64295 0.0
C3342 C 0.06497 0.33316 0.66089 0.0
C3343 C 0.05442 0.33021 0.67628 0.0
C3344 C 0.05755 0.33992 0.694 0.0
C3345 C 0.07075 0.35211 0.69653 0.0
C3346 C 0.08109 0.35494 0.68158 0.0
C3347 C 0.0783 0.34561 0.66394 0.0
H3348 H 0.28163 0.30218 0.66392 0.0
C3349 C 0.29196 0.31121 0.66811 0.0
H3350 H 0.30493 0.33361 0.66807 0.0
H3351 H 0.25366 0.31944 0.59465 0.0
H3352 H 0.26325 0.30735 0.57363 0.0
H3353 H 0.28267 0.30452 0.58852 0.0
H3354 H 0.29254 0.31367 0.62458 0.0
C3355 C 0.29484 0.32444 0.66326 0.0
C3356 C 0.28387 0.32703 0.65342 0.0
C3357 C 0.27839 0.32183 0.63213 0.0
C3358 C 0.26737 0.32371 0.62338 0.0
C3359 C 0.26203 0.31831 0.60213 0.0
C3360 C 0.26746 0.31138 0.58984 0.0
C3361 C 0.27838 0.30977 0.59824 0.0
C3362 C 0.28387 0.31497 0.61906 0.0
H3363 H 0.26372 0.35516 0.62346 0.0
C3364 C 0.25332 0.34606 0.61987 0.0
H3365 H 0.24059 0.32366 0.62302 0.0
H3366 H 0.29231 0.33874 0.69446 0.0
H3367 H 0.28293 0.35112 0.71524 0.0
H3368 H 0.26373 0.35424 0.70011 0.0
H3369 H 0.25384 0.34503 0.66407 0.0
C3370 C 0.25071 0.33314 0.62614 0.0
C3371 C 0.2621 0.33109 0.63569 0.0
C3372 C 0.26771 0.33648 0.65685 0.0
C3373 C 0.27868 0.33454 0.66565 0.0
C3374 C 0.28402 0.33995 0.68689 0.0
C3375 C 0.27871 0.34705 0.69905 0.0
C3376 C 0.26791 0.34882 0.69052 0.0
C3377 C 0.26239 0.34356 0.66974 0.0
H3378 H 0.71452 0.99076 0.63987 0.0
C3379 C 0.70584 0.99227 0.64459 0.0
H3380 H 0.68449 0.98193 0.65309 0.0
H3381 H 0.67599 0.92879 0.595 0.0
H3382 H 0.66276 0.93711 0.57432 0.0
H3383 H 0.66217 0.95866 0.58609 0.0
H3384 H 0.67499 0.9721 0.61855 0.0
C3385 C 0.69354 0.98081 0.64948 0.0
C3386 C 0.69141 0.96624 0.64552 0.0
C3387 C 0.68326 0.95808 0.62714 0.0
C3388 C 0.68331 0.94543 0.62068 0.0
C3389 C 0.67595 0.93814 0.60125 0.0
C3390 C 0.66837 0.94287 0.58905 0.0
C3391 C 0.66806 0.95502 0.59564 0.0
C3392 C 0.67547 0.96263 0.61435 0.0
H3393 H 0.67174 0.91289 0.62947 0.0
C3394 C 0.68194 0.91508 0.62386 0.0
H3395 H 0.70294 0.93124 0.61891 0.0
H3396 H 0.70635 0.97828 0.68331 0.0
H3397 H 0.71904 0.96958 0.70498 0.0
H3398 H 0.71897 0.94751 0.69411 0.0
H3399 H 0.70619 0.93399 0.66152 0.0
C3400 C 0.69275 0.92858 0.6251 0.0
C3401 C 0.69111 0.94069 0.63317 0.0
C3402 C 0.69854 0.94841 0.6523 0.0
C3403 C 0.69867 0.96118 0.65851 0.0
C3404 C 0.70614 0.96866 0.67771 0.0
C3405 C 0.71339 0.96374 0.69033 0.0
C3406 C 0.71334 0.9513 0.68421 0.0
C3407 C 0.70601 0.94367 0.66545 0.0
H3408 H 0.00977 0.70646 0.65591 0.0
C3409 C 0.00812 0.71366 0.66636 0.0
H3410 H 0.01599 0.73499 0.67707 0.0
H3411 H 0.07883 0.75255 0.65737 0.0
H3412 H 0.07971 0.75571 0.6965 0.0
H3413 H 0.05807 0.74871 0.71656 0.0
H3414 H 0.03545 0.73854 0.69766 0.0
C3415 C 0.01727 0.72774 0.66621 0.0
C3416 C 0.0304 0.73344 0.65375 0.0
C3417 C 0.04358 0.7396 0.6651 0.0
C3418 C 0.05606 0.74361 0.65357 0.0
C3419 C 0.06904 0.7494 0.66532 0.0
C3420 C 0.06969 0.75125 0.68779 0.0
C3421 C 0.05751 0.74731 0.69908 0.0
C3422 C 0.04458 0.7415 0.68799 0.0
H3423 H 0.07535 0.76617 0.61579 0.0
C3424 C 0.07747 0.75751 0.6128 0.0
H3425 H 0.06937 0.73526 0.61493 0.0
H3426 H 0.00726 0.72433 0.62672 0.0
H3427 H 0.0065 0.72149 0.5875 0.0
H3428 H 0.02806 0.72768 0.56767 0.0
H3429 H 0.05053 0.73688 0.58693 0.0
C3430 C 0.0681 0.74433 0.61899 0.0
C3431 C 0.05532 0.74149 0.63075 0.0
C3432 C 0.04227 0.73593 0.6193 0.0
C3433 C 0.02981 0.73207 0.63078 0.0
C3434 C 0.01697 0.72699 0.61887 0.0
C3435 C 0.01641 0.72541 0.59634 0.0
C3436 C 0.02855 0.72892 0.58517 0.0
C3437 C 0.04137 0.73415 0.59642 0.0
H3438 H 0.98342 0.64522 0.70656 0.0
C3439 C 0.97315 0.64155 0.71344 0.0
H3440 H 0.95655 0.62526 0.73052 0.0
H3441 H 0.99202 0.59319 0.69986 0.0
H3442 H 0.98404 0.59384 0.66312 0.0
H3443 H 0.97113 0.60656 0.65537 0.0
H3444 H 0.9662 0.6188 0.68427 0.0
C3445 C 0.96656 0.62881 0.72284 0.0
C3446 C 0.97392 0.62069 0.72715 0.0
C3447 C 0.9765 0.61342 0.71012 0.0
C3448 C 0.98367 0.60581 0.71466 0.0
C3449 C 0.98639 0.59889 0.69733 0.0
C3450 C 0.98191 0.59922 0.67618 0.0
C3451 C 0.97466 0.60641 0.67181 0.0
C3452 C 0.97194 0.61343 0.68852 0.0
H3453 H 0.97694 0.57738 0.73739 0.0
C3454 C 0.98796 0.58295 0.74262 0.0
H3455 H 0.00594 0.60332 0.74814 0.0
H3456 H 0.97083 0.63368 0.76354 0.0
H3457 H 0.97834 0.63258 0.80026 0.0
H3458 H 0.99026 0.61892 0.80824 0.0
H3459 H 0.99479 0.60635 0.77953 0.0
C3460 C 0.99528 0.59724 0.74148 0.0
C3461 C 0.98803 0.60534 0.73625 0.0
C3462 C 0.98539 0.61257 0.75328 0.0
C3463 C 0.97834 0.62026 0.74873 0.0
C3464 C 0.97598 0.62751 0.76605 0.0
C3465 C 0.98026 0.627 0.78724 0.0
C3466 C 0.98699 0.61932 0.79173 0.0
C3467 C 0.98955 0.61218 0.77504 0.0
H3468 H 0.36434 0.36381 0.70108 0.0
C3469 C 0.3693 0.35761 0.70535 0.0
H3470 H 0.38788 0.35834 0.71679 0.0
H3471 H 0.41174 0.42579 0.6895 0.0
H3472 H 0.40656 0.41679 0.65215 0.0
H3473 H 0.39436 0.39093 0.64374 0.0
H3474 H 0.38715 0.37387 0.6726 0.0
C3475 C 0.38294 0.3644 0.71166 0.0
C3476 C 0.39079 0.38006 0.71624 0.0
C3477 C 0.3951 0.38986 0.69915 0.0
C3478 C 0.4024 0.40479 0.70398 0.0
C3479 C 0.40636 0.41435 0.68668 0.0
C3480 C 0.40343 0.40933 0.6652 0.0
C3481 C 0.39654 0.39476 0.66046 0.0
C3482 C 0.39241 0.38508 0.67717 0.0
H3483 H 0.43265 0.42841 0.72264 0.0
C3484 C 0.42709 0.43326 0.7301 0.0
H3485 H 0.40723 0.42937 0.74032 0.0
H3486 H 0.38401 0.36415 0.75289 0.0
H3487 H 0.38972 0.37318 0.79005 0.0
H3488 H 0.40282 0.39905 0.79836 0.0
H3489 H 0.41021 0.41605 0.76955 0.0
C3490 C 0.41302 0.42538 0.73134 0.0
C3491 C 0.4055 0.40985 0.72584 0.0
C3492 C 0.40134 0.40005 0.74291 0.0
C3493 C 0.39397 0.38515 0.73811 0.0
C3494 C 0.38979 0.3756 0.75553 0.0
C3495 C 0.39298 0.38063 0.77698 0.0
C3496 C 0.40033 0.39519 0.78166 0.0
C3497 C 0.40449 0.40484 0.76492 0.0
H3498 H 0.65731 0.01499 0.69298 0.0
C3499 C 0.65594 0.01792 0.67672 0.0
H3500 H 0.64269 0.02112 0.65514 0.0
H3501 H 0.59965 0.98024 0.73148 0.0
H3502 H 0.60469 0.96208 0.71857 0.0
H3503 H 0.62208 0.96728 0.69026 0.0
H3504 H 0.63476 0.99078 0.67508 0.0
C3505 C 0.64399 0.01778 0.67113 0.0
C3506 C 0.63266 0.01417 0.68689 0.0
C3507 C 0.62487 0.00016 0.69483 0.0
C3508 C 0.6143 0.99694 0.71029 0.0
C3509 C 0.60732 0.98312 0.71899 0.0
C3510 C 0.61019 0.9726 0.71183 0.0
C3511 C 0.62002 0.97555 0.69596 0.0
C3512 C 0.6273 0.98913 0.68749 0.0
H3513 H 0.58349 0.98958 0.71117 0.0
C3514 C 0.58606 0.99488 0.72709 0.0
H3515 H 0.60262 0.00934 0.74839 0.0
H3516 H 0.64567 0.04209 0.67506 0.0
H3517 H 0.64 0.06002 0.68701 0.0
H3518 H 0.62094 0.05413 0.71257 0.0
H3519 H 0.60747 0.03028 0.72644 0.0
C3520 C 0.59961 0.00413 0.73245 0.0
C3521 C 0.611 0.00753 0.71688 0.0
C3522 C 0.61869 0.02148 0.7088 0.0
C3523 C 0.62955 0.02481 0.69383 0.0
C3524 C 0.63718 0.0389 0.68624 0.0
C3525 C 0.63406 0.04932 0.693 0.0
C3526 C 0.62334 0.04601 0.70741 0.0
C3527 C 0.61571 0.03227 0.71527 0.0
loop_
_geom_bond_atom_site_label_1
_geom_bond_atom_site_label_2
_geom_bond_distance
_geom_bond_site_symmetry_2
_ccdc_geom_bond_type
Mg0 O1 1.980 1_556 S
Mg0 O7 1.980 1_456 S
Mg0 O9 2.138 . S
Mg0 O10 2.279 1_455 S
Mg0 O13 1.996 1_556 S
O1 Mg0 1.980 1_554 S
O1 C4 1.250 1_455 S
O2 Mg3 2.028 1_554 S
O2 C4 1.248 . S
Mg3 O2 2.028 1_556 S
Mg3 O8 2.032 . S
Mg3 O10 2.079 . S
C4 O1 1.250 1_655 S
C4 O2 1.248 . S
C5 O6 1.264 . S
C5 O13 1.249 . S
O6 C5 1.264 . S
O7 Mg0 1.980 1_654 S
O7 C11 1.246 1_554 S
O8 Mg3 2.032 . S
O8 C11 1.259 . S
O9 Mg0 2.138 . S
O9 C12 1.252 . S
O10 Mg0 2.279 1_655 S
O10 Mg3 2.079 . S
O10 C12 1.273 1_655 S
C11 O7 1.246 1_556 S
C11 O8 1.259 . S
C12 O9 1.252 . S
C12 O10 1.273 1_455 S
O13 Mg0 1.996 1_554 S
O13 C5 1.249 . S
Mg14 O15 2.028 1_554 S
Mg14 O21 1.986 . S
Mg14 O23 2.114 . S
Mg14 O24 2.251 . S
Mg14 O27 2.010 . S
O15 Mg14 2.028 1_556 S
O15 C18 1.250 . S
O16 Mg17 2.009 1_556 S
O16 C18 1.259 . S
Mg17 O16 2.009 1_554 S
Mg17 O22 2.032 . S
Mg17 O24 2.079 . S
C18 O15 1.250 . S
C18 O16 1.259 . S
C19 O20 1.264 . S
C19 O27 1.249 . S
O20 C19 1.264 . S
O21 Mg14 1.986 . S
O21 C25 1.246 . S
O22 Mg17 2.032 . S
O22 C25 1.259 . S
O23 Mg14 2.114 . S
O23 C26 1.252 . S
O24 Mg14 2.251 . S
O24 Mg17 2.079 . S
O24 C26 1.273 . S
C25 O21 1.246 . S
C25 O22 1.259 . S
C26 O23 1.252 . S
C26 O24 1.273 . S
O27 Mg14 2.010 . S
O27 C19 1.249 . S
Mg28 O29 2.026 1_556 S
Mg28 O35 1.987 1_566 S
Mg28 O37 2.111 . S
Mg28 O38 2.248 1_565 S
Mg28 O41 2.012 1_556 S
O29 Mg28 2.026 1_554 S
O29 C32 1.242 1_565 S
O30 Mg31 2.028 1_554 S
O30 C32 1.248 . S
Mg31 O30 2.028 1_556 S
Mg31 O36 2.032 . S
Mg31 O38 2.079 . S
C32 O29 1.242 1_545 S
C32 O30 1.248 . S
C33 O34 1.264 . S
C33 O41 1.249 . S
O34 C33 1.264 . S
O35 Mg28 1.987 1_544 S
O35 C39 1.251 . S
O36 Mg31 2.032 . S
O36 C39 1.258 1_556 S
O37 Mg28 2.111 . S
O37 C40 1.252 . S
O38 Mg28 2.248 1_545 S
O38 Mg31 2.079 . S
O38 C40 1.273 1_545 S
C39 O35 1.251 . S
C39 O36 1.258 1_554 S
C40 O37 1.252 . S
C40 O38 1.273 1_565 S
O41 Mg28 2.012 1_554 S
O41 C33 1.249 . S
Mg42 O43 2.059 1_554 S
Mg42 O49 1.986 1_655 S
Mg42 O51 2.114 . S
Mg42 O52 2.251 1_655 S
Mg42 O55 2.010 . S
O43 Mg42 2.059 1_556 S
O43 C46 1.168 1_655 S
O44 Mg45 2.029 . S
O44 C46 1.247 1_554 S
Mg45 O44 2.029 . S
Mg45 O50 2.032 . S
Mg45 O52 2.079 . S
C46 O43 1.168 1_455 S
C46 O44 1.247 1_556 S
C47 O48 1.264 . S
C47 O55 1.249 . S
O48 C47 1.264 . S
O49 Mg42 1.986 1_455 S
O49 C53 1.246 . S
O50 Mg45 2.032 . S
O50 C53 1.259 . S
O51 Mg42 2.114 . S
O51 C54 1.252 . S
O52 Mg42 2.251 1_455 S
O52 Mg45 2.079 . S
O52 C54 1.273 1_455 S
C53 O49 1.246 . S
C53 O50 1.259 . S
C54 O51 1.252 . S
C54 O52 1.273 1_655 S
O55 Mg42 2.010 . S
O55 C47 1.249 . S
Mg56 O57 2.028 . S
Mg56 O63 1.986 . S
Mg56 O65 2.114 1_554 S
Mg56 O66 2.251 1_554 S
Mg56 O69 2.010 . S
O57 Mg56 2.028 . S
O57 C60 1.250 . S
O58 Mg59 2.028 1_554 S
O58 C60 1.248 . S
Mg59 O58 2.028 1_556 S
Mg59 O64 2.036 . S
Mg59 O66 2.079 . S
C60 O57 1.250 . S
C60 O58 1.248 . S
C61 O62 1.264 . S
C61 O69 1.249 . S
O62 C61 1.264 . S
O63 Mg56 1.986 . S
O63 C67 1.249 . S
O64 Mg59 2.036 . S
O64 C67 1.256 1_556 S
O65 Mg56 2.114 1_556 S
O65 C68 1.252 . S
O66 Mg56 2.251 1_556 S
O66 Mg59 2.079 . S
O66 C68 1.273 . S
C67 O63 1.249 . S
C67 O64 1.256 1_554 S
C68 O65 1.252 . S
C68 O66 1.273 . S
O69 Mg56 2.010 . S
O69 C61 1.249 . S
Mg70 O71 2.028 1_554 S
Mg70 O77 1.986 1_545 S
Mg70 O79 2.114 . S
Mg70 O80 2.251 1_545 S
Mg70 O83 2.010 . S
O71 Mg70 2.028 1_556 S
O71 C74 1.250 1_545 S
O72 Mg73 2.028 . S
O72 C74 1.248 1_554 S
Mg73 O72 2.028 . S
Mg73 O78 2.032 . S
Mg73 O80 2.079 . S
C74 O71 1.250 1_565 S
C74 O72 1.248 1_556 S
C75 O76 1.264 . S
C75 O83 1.249 . S
O76 C75 1.264 . S
O77 Mg70 1.986 1_565 S
O77 C81 1.246 . S
O78 Mg73 2.032 . S
O78 C81 1.259 . S
O79 Mg70 2.114 . S
O79 C82 1.252 . S
O80 Mg70 2.251 1_565 S
O80 Mg73 2.079 . S
O80 C82 1.273 1_565 S
C81 O77 1.246 . S
C81 O78 1.259 . S
C82 O79 1.252 . S
C82 O80 1.273 1_545 S
O83 Mg70 2.010 . S
O83 C75 1.249 . S
Mg84 O85 2.028 . S
Mg84 O91 1.986 . S
Mg84 O93 2.114 . S
Mg84 O94 2.251 . S
Mg84 O97 2.010 . S
O85 Mg84 2.028 . S
O85 C88 1.250 . S
O86 Mg87 2.028 . S
O86 C88 1.248 . S
Mg87 O86 2.028 . S
Mg87 O92 2.032 . S
Mg87 O94 2.079 . S
C88 O85 1.250 . S
C88 O86 1.248 . S
C89 O90 1.264 . S
C89 O97 1.249 . S
O90 C89 1.264 . S
O91 Mg84 1.986 . S
O91 C95 1.246 . S
O92 Mg87 2.032 . S
O92 C95 1.259 . S
O93 Mg84 2.114 . S
O93 C96 1.252 . S
O94 Mg84 2.251 . S
O94 Mg87 2.079 . S
O94 C96 1.273 . S
C95 O91 1.246 . S
C95 O92 1.259 . S
C96 O93 1.252 . S
C96 O94 1.273 . S
O97 Mg84 2.010 . S
O97 C89 1.249 . S
Mg98 O99 2.028 . S
Mg98 O105 1.986 . S
Mg98 O107 2.114 . S
Mg98 O108 2.251 . S
Mg98 O111 2.010 . S
O99 Mg98 2.028 . S
O99 C102 1.250 . S
O100 Mg101 2.028 . S
O100 C102 1.248 . S
Mg101 O100 2.028 . S
Mg101 O106 2.032 . S
Mg101 O108 2.079 . S
C102 O99 1.250 . S
C102 O100 1.248 . S
C103 O104 1.264 . S
C103 O111 1.249 . S
O104 C103 1.264 . S
O105 Mg98 1.986 . S
O105 C109 1.246 1_565 S
O106 Mg101 2.032 . S
O106 C109 1.259 1_565 S
O107 Mg98 2.114 . S
O107 C110 1.252 . S
O108 Mg98 2.251 . S
O108 Mg101 2.079 . S
O108 C110 1.273 . S
C109 O105 1.246 1_545 S
C109 O106 1.259 1_545 S
C110 O107 1.252 . S
C110 O108 1.273 . S
O111 Mg98 2.010 . S
O111 C103 1.249 . S
Mg112 O113 2.028 . S
Mg112 O119 1.986 . S
Mg112 O121 2.114 . S
Mg112 O122 2.251 . S
Mg112 O125 2.010 . S
O113 Mg112 2.028 . S
O113 C116 1.250 . S
O114 Mg115 2.028 . S
O114 C116 1.248 . S
Mg115 O114 2.028 . S
Mg115 O120 2.032 . S
Mg115 O122 2.079 . S
C116 O113 1.250 . S
C116 O114 1.248 . S
C117 O118 1.264 . S
C117 O125 1.249 1_655 S
O118 C117 1.264 . S
O119 Mg112 1.986 . S
O119 C123 1.246 . S
O120 Mg115 2.032 . S
O120 C123 1.259 . S
O121 Mg112 2.114 . S
O121 C124 1.252 . S
O122 Mg112 2.251 . S
O122 Mg115 2.079 . S
O122 C124 1.273 . S
C123 O119 1.246 . S
C123 O120 1.259 . S
C124 O121 1.252 . S
C124 O122 1.273 . S
O125 Mg112 2.010 . S
O125 C117 1.249 1_455 S
Mg126 O127 2.028 . S
Mg126 O133 1.986 . S
Mg126 O135 2.114 . S
Mg126 O136 2.251 . S
Mg126 O139 2.010 . S
O127 Mg126 2.028 . S
O127 C130 1.250 . S
O128 Mg129 2.028 . S
O128 C130 1.248 . S
Mg129 O128 2.028 . S
Mg129 O134 2.032 . S
Mg129 O136 2.079 . S
C130 O127 1.250 . S
C130 O128 1.248 . S
C131 O132 1.264 . S
C131 O139 1.249 . S
O132 C131 1.264 . S
O133 Mg126 1.986 . S
O133 C137 1.236 . S
O134 Mg129 2.032 . S
O134 C137 1.340 . S
O135 Mg126 2.114 . S
O135 C138 1.252 . S
O136 Mg126 2.251 . S
O136 Mg129 2.079 . S
O136 C138 1.273 . S
C137 O133 1.236 . S
C137 O134 1.340 . S
C138 O135 1.252 . S
C138 O136 1.273 . S
O139 Mg126 2.010 . S
O139 C131 1.249 . S
Mg140 O141 2.028 . S
Mg140 O147 1.986 . S
Mg140 O149 2.114 . S
Mg140 O150 2.251 . S
Mg140 O153 2.010 . S
O141 Mg140 2.028 . S
O141 C144 1.250 . S
O142 Mg143 2.028 . S
O142 C144 1.248 . S
Mg143 O142 2.028 . S
Mg143 O148 2.032 . S
Mg143 O150 2.079 . S
C144 O141 1.250 . S
C144 O142 1.248 . S
C145 O146 1.264 . S
C145 O153 1.249 1_655 S
O146 C145 1.264 . S
O147 Mg140 1.986 . S
O147 C151 1.246 . S
O148 Mg143 2.032 . S
O148 C151 1.259 . S
O149 Mg140 2.114 . S
O149 C152 1.252 . S
O150 Mg140 2.251 . S
O150 Mg143 2.079 . S
O150 C152 1.273 . S
C151 O147 1.246 . S
C151 O148 1.259 . S
C152 O149 1.252 . S
C152 O150 1.273 . S
O153 Mg140 2.010 . S
O153 C145 1.249 1_455 S
Mg154 O155 2.028 . S
Mg154 O161 1.986 . S
Mg154 O163 2.114 . S
Mg154 O164 2.251 . S
Mg154 O167 2.010 . S
O155 Mg154 2.028 . S
O155 C158 1.250 . S
O156 Mg157 2.028 . S
O156 C158 1.248 . S
Mg157 O156 2.028 . S
Mg157 O162 2.032 . S
Mg157 O164 2.079 . S
C158 O155 1.250 . S
C158 O156 1.248 . S
C159 O160 1.264 . S
C159 O167 1.249 . S
O160 C159 1.264 . S
O161 Mg154 1.986 . S
O161 C165 1.246 . S
O162 Mg157 2.032 . S
O162 C165 1.259 . S
O163 Mg154 2.114 . S
O163 C166 1.252 . S
O164 Mg154 2.251 . S
O164 Mg157 2.079 . S
O164 C166 1.273 . S
C165 O161 1.246 . S
C165 O162 1.259 . S
C166 O163 1.252 . S
C166 O164 1.273 . S
O167 Mg154 2.010 . S
O167 C159 1.249 . S
Mg168 O169 2.028 . S
Mg168 O175 1.986 . S
Mg168 O177 2.114 . S
Mg168 O178 2.251 . S
Mg168 O181 2.010 . S
O169 Mg168 2.028 . S
O169 C172 1.250 . S
O170 Mg171 2.028 . S
O170 C172 1.248 . S
Mg171 O170 2.028 . S
Mg171 O176 2.032 . S
Mg171 O178 2.079 . S
C172 O169 1.250 . S
C172 O170 1.248 . S
C173 O174 1.264 . S
C173 O181 1.249 . S
O174 C173 1.264 . S
O175 Mg168 1.986 . S
O175 C179 1.246 . S
O176 Mg171 2.032 . S
O176 C179 1.259 . S
O177 Mg168 2.114 . S
O177 C180 1.252 . S
O178 Mg168 2.251 . S
O178 Mg171 2.079 . S
O178 C180 1.273 . S
C179 O175 1.246 . S
C179 O176 1.259 . S
C180 O177 1.252 . S
C180 O178 1.273 . S
O181 Mg168 2.010 . S
O181 C173 1.249 . S
Mg182 O183 2.028 . S
Mg182 O189 1.986 . S
Mg182 O191 2.114 . S
Mg182 O192 2.251 . S
Mg182 O195 2.010 . S
O183 Mg182 2.028 . S
O183 C186 1.250 . S
O184 Mg185 2.028 . S
O184 C186 1.248 . S
Mg185 O184 2.028 . S
Mg185 O190 2.032 . S
Mg185 O192 2.079 . S
C186 O183 1.250 . S
C186 O184 1.248 . S
C187 O188 1.264 . S
C187 O195 1.249 1_455 S
O188 C187 1.264 . S
O189 Mg182 1.986 . S
O189 C193 1.246 . S
O190 Mg185 2.032 . S
O190 C193 1.259 . S
O191 Mg182 2.114 . S
O191 C194 1.252 . S
O192 Mg182 2.251 . S
O192 Mg185 2.079 . S
O192 C194 1.273 . S
C193 O189 1.246 . S
C193 O190 1.259 . S
C194 O191 1.252 . S
C194 O192 1.273 . S
O195 Mg182 2.010 . S
O195 C187 1.249 1_655 S
Mg196 O197 2.028 . S
Mg196 O203 1.986 . S
Mg196 O205 2.114 . S
Mg196 O206 2.251 . S
Mg196 O209 2.010 . S
O197 Mg196 2.028 . S
O197 C200 1.250 . S
O198 Mg199 2.028 . S
O198 C200 1.248 . S
Mg199 O198 2.028 . S
Mg199 O204 2.032 . S
Mg199 O206 2.079 . S
C200 O197 1.250 . S
C200 O198 1.248 . S
C201 O202 1.264 . S
C201 O209 1.249 . S
O202 C201 1.264 . S
O203 Mg196 1.986 . S
O203 C207 1.246 . S
O204 Mg199 2.032 . S
O204 C207 1.259 . S
O205 Mg196 2.114 . S
O205 C208 1.252 . S
O206 Mg196 2.251 . S
O206 Mg199 2.079 . S
O206 C208 1.273 . S
C207 O203 1.246 . S
C207 O204 1.259 . S
C208 O205 1.252 . S
C208 O206 1.273 . S
O209 Mg196 2.010 . S
O209 C201 1.249 . S
Mg210 O211 2.028 . S
Mg210 O217 1.986 . S
Mg210 O219 2.114 . S
Mg210 O220 2.251 . S
Mg210 O223 2.010 . S
O211 Mg210 2.028 . S
O211 C214 1.250 . S
O212 Mg213 2.028 . S
O212 C214 1.248 . S
Mg213 O212 2.028 . S
Mg213 O218 2.032 . S
Mg213 O220 2.079 . S
C214 O211 1.250 . S
C214 O212 1.248 . S
C215 O216 1.264 . S
C215 O223 1.249 . S
O216 C215 1.264 . S
O217 Mg210 1.986 . S
O217 C221 1.246 . S
O218 Mg213 2.032 . S
O218 C221 1.259 . S
O219 Mg210 2.114 . S
O219 C222 1.252 . S
O220 Mg210 2.251 . S
O220 Mg213 2.079 . S
O220 C222 1.273 . S
C221 O217 1.246 . S
C221 O218 1.259 . S
C222 O219 1.252 . S
C222 O220 1.273 . S
O223 Mg210 2.010 . S
O223 C215 1.249 . S
Mg224 O225 2.028 . S
Mg224 O231 1.986 . S
Mg224 O233 2.114 . S
Mg224 O234 2.251 . S
Mg224 O237 2.010 . S
O225 Mg224 2.028 . S
O225 C228 1.250 . S
O226 Mg227 2.028 . S
O226 C228 1.248 . S
Mg227 O226 2.028 . S
Mg227 O232 2.032 . S
Mg227 O234 2.079 . S
C228 O225 1.250 . S
C228 O226 1.248 . S
C229 O230 1.264 . S
C229 O237 1.249 . S
O230 C229 1.264 . S
O231 Mg224 1.986 . S
O231 C235 1.246 . S
O232 Mg227 2.032 . S
O232 C235 1.259 . S
O233 Mg224 2.114 . S
O233 C236 1.252 . S
O234 Mg224 2.251 . S
O234 Mg227 2.079 . S
O234 C236 1.273 . S
C235 O231 1.246 . S
C235 O232 1.259 . S
C236 O233 1.252 . S
C236 O234 1.273 . S
O237 Mg224 2.010 . S
O237 C229 1.249 . S
Mg238 O239 2.028 . S
Mg238 O245 1.986 . S
Mg238 O247 2.114 . S
Mg238 O248 2.251 . S
Mg238 O251 1.958 1_655 S
O239 Mg238 2.028 . S
O239 C242 1.250 . S
O240 Mg241 2.028 . S
O240 C242 1.248 . S
Mg241 O240 2.028 . S
Mg241 O246 2.032 . S
Mg241 O248 2.079 . S
C242 O239 1.250 . S
C242 O240 1.248 . S
C243 O244 1.264 . S
C243 O251 1.285 . S
O244 C243 1.264 . S
O245 Mg238 1.986 . S
O245 C249 1.246 . S
O246 Mg241 2.032 . S
O246 C249 1.259 . S
O247 Mg238 2.114 . S
O247 C250 1.252 . S
O248 Mg238 2.251 . S
O248 Mg241 2.079 . S
O248 C250 1.273 . S
C249 O245 1.246 . S
C249 O246 1.259 . S
C250 O247 1.252 . S
C250 O248 1.273 . S
O251 Mg238 1.958 1_455 S
O251 C243 1.285 . S
H252 C279 0.929 . S
N253 C278 1.433 . S
N253 C284 1.435 . S
N253 C290 1.423 . S
H254 C280 0.930 . S
H255 C283 0.931 . S
H256 C282 0.929 . S
H257 C285 0.930 . S
H258 C286 0.932 . S
H259 C289 0.929 . S
H260 C288 0.931 . S
H261 C291 0.929 . S
H262 C295 0.932 . S
H263 C292 0.931 . S
H264 C294 0.929 . S
H265 C297 0.929 . S
H266 C298 0.930 . S
H267 C300 0.929 . S
H268 C301 0.931 . S
H269 C303 0.930 . S
H270 C304 0.932 . S
H271 C306 0.931 . S
H272 C307 0.929 . S
H273 C309 0.929 . S
H274 C310 0.931 . S
H275 C312 0.929 . S
N276 C296 1.433 . S
N276 C302 1.435 . S
N276 C308 1.423 . S
H277 C313 0.932 . S
C278 N253 1.433 . S
C278 C279 1.363 . S
C278 C283 1.370 . S
C279 H252 0.929 . S
C279 C278 1.363 . S
C279 C280 1.385 . S
C280 H254 0.930 . S
C280 C279 1.385 . S
C280 C281 1.357 . S
C281 C280 1.357 . S
C281 C282 1.406 . S
C282 H256 0.929 . S
C282 C281 1.406 . S
C282 C283 1.391 . S
C283 H255 0.931 . S
C283 C278 1.370 . S
C283 C282 1.391 . S
C284 N253 1.435 . S
C284 C285 1.358 . S
C284 C289 1.371 . S
C285 H257 0.930 . S
C285 C284 1.358 . S
C285 C286 1.405 . S
C286 H258 0.932 . S
C286 C285 1.405 . S
C286 C287 1.383 . S
C287 C286 1.383 . S
C287 C288 1.393 . S
C288 H260 0.931 . S
C288 C287 1.393 . S
C288 C289 1.382 . S
C289 H259 0.929 . S
C289 C284 1.371 . S
C289 C288 1.382 . S
C290 N253 1.423 . S
C290 C291 1.362 . S
C290 C295 1.388 . S
C291 H261 0.929 . S
C291 C290 1.362 . S
C291 C292 1.376 . S
C292 H263 0.931 . S
C292 C291 1.376 . S
C292 C293 1.396 . S
C293 C292 1.396 . S
C293 C294 1.348 . S
C293 C311 1.472 . S
C294 H264 0.929 . S
C294 C293 1.348 . S
C294 C295 1.443 . S
C295 H262 0.932 . S
C295 C290 1.388 . S
C295 C294 1.443 . S
C296 N276 1.433 . S
C296 C297 1.363 . S
C296 C301 1.370 . S
C297 H265 0.929 . S
C297 C296 1.363 . S
C297 C298 1.385 . S
C298 H266 0.930 . S
C298 C297 1.385 . S
C298 C299 1.357 . S
C299 C298 1.357 . S
C299 C300 1.406 . S
C300 H267 0.929 . S
C300 C299 1.406 . S
C300 C301 1.391 . S
C301 H268 0.931 . S
C301 C296 1.370 . S
C301 C300 1.391 . S
C302 N276 1.435 . S
C302 C303 1.358 . S
C302 C307 1.371 . S
C303 H269 0.930 . S
C303 C302 1.358 . S
C303 C304 1.405 . S
C304 H270 0.932 . S
C304 C303 1.405 . S
C304 C305 1.383 . S
C305 C304 1.383 . S
C305 C306 1.393 . S
C306 H271 0.931 . S
C306 C305 1.393 . S
C306 C307 1.382 . S
C307 H272 0.929 . S
C307 C302 1.371 . S
C307 C306 1.382 . S
C308 N276 1.423 . S
C308 C309 1.362 . S
C308 C313 1.388 . S
C309 H273 0.929 . S
C309 C308 1.362 . S
C309 C310 1.376 . S
C310 H274 0.931 . S
C310 C309 1.376 . S
C310 C311 1.396 . S
C311 C293 1.472 . S
C311 C310 1.396 . S
C311 C312 1.348 . S
C312 H275 0.929 . S
C312 C311 1.348 . S
C312 C313 1.443 . S
C313 H277 0.932 . S
C313 C308 1.388 . S
C313 C312 1.443 . S
H314 C341 0.929 . S
N315 C340 1.433 . S
N315 C346 1.435 . S
N315 C352 1.423 . S
H316 C342 0.930 . S
H317 C345 0.931 . S
H318 C344 0.929 . S
H319 C347 0.930 . S
H320 C348 0.932 . S
H321 C351 0.929 . S
H322 C350 0.931 . S
H323 C353 0.929 . S
H324 C357 0.932 . S
H325 C354 0.931 . S
H326 C356 0.929 . S
H327 C359 0.929 . S
H328 C360 0.930 . S
H329 C362 0.929 . S
H330 C363 0.931 . S
H331 C365 0.930 . S
H332 C366 0.932 . S
H333 C368 0.931 . S
H334 C369 0.929 . S
H335 C371 0.929 . S
H336 C372 0.931 . S
H337 C374 0.929 . S
N338 C358 1.433 . S
N338 C364 1.435 . S
N338 C370 1.423 . S
H339 C375 0.932 . S
C340 N315 1.433 . S
C340 C341 1.363 . S
C340 C345 1.370 . S
C341 H314 0.929 . S
C341 C340 1.363 . S
C341 C342 1.385 . S
C342 H316 0.930 . S
C342 C341 1.385 . S
C342 C343 1.357 . S
C343 C342 1.357 . S
C343 C344 1.406 . S
C344 H318 0.929 . S
C344 C343 1.406 . S
C344 C345 1.391 . S
C345 H317 0.931 . S
C345 C340 1.370 . S
C345 C344 1.391 . S
C346 N315 1.435 . S
C346 C347 1.358 . S
C346 C351 1.371 . S
C347 H319 0.930 . S
C347 C346 1.358 . S
C347 C348 1.405 . S
C348 H320 0.932 . S
C348 C347 1.405 . S
C348 C349 1.383 . S
C349 C348 1.383 . S
C349 C350 1.393 . S
C350 H322 0.931 . S
C350 C349 1.393 . S
C350 C351 1.382 . S
C351 H321 0.929 . S
C351 C346 1.371 . S
C351 C350 1.382 . S
C352 N315 1.423 . S
C352 C353 1.362 . S
C352 C357 1.388 . S
C353 H323 0.929 . S
C353 C352 1.362 . S
C353 C354 1.376 . S
C354 H325 0.931 . S
C354 C353 1.376 . S
C354 C355 1.396 . S
C355 C354 1.396 . S
C355 C356 1.348 . S
C355 C373 1.472 . S
C356 H326 0.929 . S
C356 C355 1.348 . S
C356 C357 1.443 . S
C357 H324 0.932 . S
C357 C352 1.388 . S
C357 C356 1.443 . S
C358 N338 1.433 . S
C358 C359 1.363 . S
C358 C363 1.370 . S
C359 H327 0.929 . S
C359 C358 1.363 . S
C359 C360 1.385 . S
C360 H328 0.930 . S
C360 C359 1.385 . S
C360 C361 1.357 . S
C361 C360 1.357 . S
C361 C362 1.406 . S
C362 H329 0.929 . S
C362 C361 1.406 . S
C362 C363 1.391 . S
C363 H330 0.931 . S
C363 C358 1.370 . S
C363 C362 1.391 . S
C364 N338 1.435 . S
C364 C365 1.358 . S
C364 C369 1.371 . S
C365 H331 0.930 . S
C365 C364 1.358 . S
C365 C366 1.405 . S
C366 H332 0.932 . S
C366 C365 1.405 . S
C366 C367 1.383 . S
C367 C366 1.383 . S
C367 C368 1.393 . S
C368 H333 0.931 . S
C368 C367 1.393 . S
C368 C369 1.382 . S
C369 H334 0.929 . S
C369 C364 1.371 . S
C369 C368 1.382 . S
C370 N338 1.423 . S
C370 C371 1.362 . S
C370 C375 1.388 . S
C371 H335 0.929 . S
C371 C370 1.362 . S
C371 C372 1.376 . S
C372 H336 0.931 . S
C372 C371 1.376 . S
C372 C373 1.396 . S
C373 C355 1.472 . S
C373 C372 1.396 . S
C373 C374 1.348 . S
C374 H337 0.929 . S
C374 C373 1.348 . S
C374 C375 1.443 . S
C375 H339 0.932 . S
C375 C370 1.388 . S
C375 C374 1.443 . S
H376 C403 0.929 . S
N377 C402 1.433 . S
N377 C408 1.435 . S
N377 C414 1.423 . S
H378 C404 0.930 . S
H379 C407 0.931 . S
H380 C406 0.929 . S
H381 C409 0.930 . S
H382 C410 0.932 . S
H383 C413 0.929 . S
H384 C412 0.931 . S
H385 C415 0.929 . S
H386 C419 0.932 . S
H387 C416 0.931 . S
H388 C418 0.929 . S
H389 C421 0.929 . S
H390 C422 0.930 . S
H391 C424 0.929 . S
H392 C425 0.931 . S
H393 C427 0.930 . S
H394 C428 0.932 . S
H395 C430 0.931 . S
H396 C431 0.929 . S
H397 C433 0.929 . S
H398 C434 0.931 . S
H399 C436 0.929 . S
N400 C420 1.433 . S
N400 C426 1.435 . S
N400 C432 1.423 . S
H401 C437 0.932 . S
C402 N377 1.433 . S
C402 C403 1.363 . S
C402 C407 1.370 . S
C403 H376 0.929 . S
C403 C402 1.363 . S
C403 C404 1.385 . S
C404 H378 0.930 . S
C404 C403 1.385 . S
C404 C405 1.357 . S
C405 C404 1.357 . S
C405 C406 1.406 . S
C406 H380 0.929 . S
C406 C405 1.406 . S
C406 C407 1.391 . S
C407 H379 0.931 . S
C407 C402 1.370 . S
C407 C406 1.391 . S
C408 N377 1.435 . S
C408 C409 1.358 . S
C408 C413 1.371 . S
C409 H381 0.930 . S
C409 C408 1.358 . S
C409 C410 1.405 . S
C410 H382 0.932 . S
C410 C409 1.405 . S
C410 C411 1.383 . S
C411 C410 1.383 . S
C411 C412 1.393 . S
C412 H384 0.931 . S
C412 C411 1.393 . S
C412 C413 1.382 . S
C413 H383 0.929 . S
C413 C408 1.371 . S
C413 C412 1.382 . S
C414 N377 1.423 . S
C414 C415 1.362 . S
C414 C419 1.388 . S
C415 H385 0.929 . S
C415 C414 1.362 . S
C415 C416 1.376 . S
C416 H387 0.931 . S
C416 C415 1.376 . S
C416 C417 1.396 . S
C417 C416 1.396 . S
C417 C418 1.348 . S
C417 C435 1.472 . S
C418 H388 0.929 . S
C418 C417 1.348 . S
C418 C419 1.443 . S
C419 H386 0.932 . S
C419 C414 1.388 . S
C419 C418 1.443 . S
C420 N400 1.433 . S
C420 C421 1.363 . S
C420 C425 1.370 . S
C421 H389 0.929 . S
C421 C420 1.363 . S
C421 C422 1.385 . S
C422 H390 0.930 . S
C422 C421 1.385 . S
C422 C423 1.357 . S
C423 C422 1.357 . S
C423 C424 1.406 . S
C424 H391 0.929 . S
C424 C423 1.406 . S
C424 C425 1.391 . S
C425 H392 0.931 . S
C425 C420 1.370 . S
C425 C424 1.391 . S
C426 N400 1.435 . S
C426 C427 1.358 . S
C426 C431 1.371 . S
C427 H393 0.930 . S
C427 C426 1.358 . S
C427 C428 1.405 . S
C428 H394 0.932 . S
C428 C427 1.405 . S
C428 C429 1.383 . S
C429 C428 1.383 . S
C429 C430 1.393 . S
C430 H395 0.931 . S
C430 C429 1.393 . S
C430 C431 1.382 . S
C431 H396 0.929 . S
C431 C426 1.371 . S
C431 C430 1.382 . S
C432 N400 1.423 . S
C432 C433 1.362 . S
C432 C437 1.388 . S
C433 H397 0.929 . S
C433 C432 1.362 . S
C433 C434 1.376 . S
C434 H398 0.931 . S
C434 C433 1.376 . S
C434 C435 1.396 . S
C435 C417 1.472 . S
C435 C434 1.396 . S
C435 C436 1.348 . S
C436 H399 0.929 . S
C436 C435 1.348 . S
C436 C437 1.443 . S
C437 H401 0.932 . S
C437 C432 1.388 . S
C437 C436 1.443 . S
H438 C465 0.929 . S
N439 C464 1.433 . S
N439 C470 1.435 . S
N439 C476 1.423 . S
H440 C466 0.930 . S
H441 C469 0.931 . S
H442 C468 0.929 . S
H443 C471 0.930 . S
H444 C472 0.932 . S
H445 C475 0.929 . S
H446 C474 0.931 . S
H447 C477 0.929 . S
H448 C481 0.932 . S
H449 C478 0.931 . S
H450 C480 0.929 . S
H451 C483 0.929 . S
H452 C484 0.930 . S
H453 C486 0.929 . S
H454 C487 0.931 . S
H455 C489 0.930 . S
H456 C490 0.932 . S
H457 C492 0.931 . S
H458 C493 0.929 . S
H459 C495 0.929 . S
H460 C496 0.931 . S
H461 C498 0.929 . S
N462 C482 1.433 . S
N462 C488 1.435 . S
N462 C494 1.423 . S
H463 C499 0.932 . S
C464 N439 1.433 . S
C464 C465 1.363 . S
C464 C469 1.370 . S
C465 H438 0.929 . S
C465 C464 1.363 . S
C465 C466 1.385 . S
C466 H440 0.930 . S
C466 C465 1.385 . S
C466 C467 1.357 . S
C467 C466 1.357 . S
C467 C468 1.406 . S
C468 H442 0.929 . S
C468 C467 1.406 . S
C468 C469 1.391 . S
C469 H441 0.931 . S
C469 C464 1.370 . S
C469 C468 1.391 . S
C470 N439 1.435 . S
C470 C471 1.358 . S
C470 C475 1.371 . S
C471 H443 0.930 . S
C471 C470 1.358 . S
C471 C472 1.405 . S
C472 H444 0.932 . S
C472 C471 1.405 . S
C472 C473 1.383 . S
C473 C472 1.383 . S
C473 C474 1.393 . S
C474 H446 0.931 . S
C474 C473 1.393 . S
C474 C475 1.382 . S
C475 H445 0.929 . S
C475 C470 1.371 . S
C475 C474 1.382 . S
C476 N439 1.423 . S
C476 C477 1.362 . S
C476 C481 1.388 . S
C477 H447 0.929 . S
C477 C476 1.362 . S
C477 C478 1.376 . S
C478 H449 0.931 . S
C478 C477 1.376 . S
C478 C479 1.396 . S
C479 C478 1.396 . S
C479 C480 1.348 . S
C479 C497 1.472 . S
C480 H450 0.929 . S
C480 C479 1.348 . S
C480 C481 1.443 . S
C481 H448 0.932 . S
C481 C476 1.388 . S
C481 C480 1.443 . S
C482 N462 1.433 . S
C482 C483 1.363 . S
C482 C487 1.370 . S
C483 H451 0.929 . S
C483 C482 1.363 . S
C483 C484 1.385 . S
C484 H452 0.930 . S
C484 C483 1.385 . S
C484 C485 1.357 . S
C485 C484 1.357 . S
C485 C486 1.406 . S
C486 H453 0.929 . S
C486 C485 1.406 . S
C486 C487 1.391 . S
C487 H454 0.931 . S
C487 C482 1.370 . S
C487 C486 1.391 . S
C488 N462 1.435 . S
C488 C489 1.358 . S
C488 C493 1.371 . S
C489 H455 0.930 . S
C489 C488 1.358 . S
C489 C490 1.405 . S
C490 H456 0.932 . S
C490 C489 1.405 . S
C490 C491 1.383 . S
C491 C490 1.383 . S
C491 C492 1.393 . S
C492 H457 0.931 . S
C492 C491 1.393 . S
C492 C493 1.382 . S
C493 H458 0.929 . S
C493 C488 1.371 . S
C493 C492 1.382 . S
C494 N462 1.423 . S
C494 C495 1.362 . S
C494 C499 1.388 . S
C495 H459 0.929 . S
C495 C494 1.362 . S
C495 C496 1.376 . S
C496 H460 0.931 . S
C496 C495 1.376 . S
C496 C497 1.396 . S
C497 C479 1.472 . S
C497 C496 1.396 . S
C497 C498 1.348 . S
C498 H461 0.929 . S
C498 C497 1.348 . S
C498 C499 1.443 . S
C499 H463 0.932 . S
C499 C494 1.388 . S
C499 C498 1.443 . S
H500 C527 0.929 . S
N501 C526 1.433 . S
N501 C532 1.435 . S
N501 C538 1.423 . S
H502 C528 0.930 . S
H503 C531 0.931 . S
H504 C530 0.929 . S
H505 C533 0.930 . S
H506 C534 0.932 . S
H507 C537 0.929 . S
H508 C536 0.931 . S
H509 C539 0.929 . S
H510 C543 0.932 . S
H511 C540 0.931 . S
H512 C542 0.929 . S
H513 C545 0.929 . S
H514 C546 0.930 . S
H515 C548 0.929 . S
H516 C549 0.931 . S
H517 C551 0.930 . S
H518 C552 0.932 . S
H519 C554 0.931 . S
H520 C555 0.929 . S
H521 C557 0.929 . S
H522 C558 0.931 . S
H523 C560 0.929 . S
N524 C544 1.433 . S
N524 C550 1.435 . S
N524 C556 1.423 . S
H525 C561 0.932 . S
C526 N501 1.433 . S
C526 C527 1.363 . S
C526 C531 1.370 . S
C527 H500 0.929 . S
C527 C526 1.363 . S
C527 C528 1.385 . S
C528 H502 0.930 . S
C528 C527 1.385 . S
C528 C529 1.357 . S
C529 C528 1.357 . S
C529 C530 1.406 . S
C530 H504 0.929 . S
C530 C529 1.406 . S
C530 C531 1.391 . S
C531 H503 0.931 . S
C531 C526 1.370 . S
C531 C530 1.391 . S
C532 N501 1.435 . S
C532 C533 1.358 . S
C532 C537 1.371 . S
C533 H505 0.930 . S
C533 C532 1.358 . S
C533 C534 1.405 . S
C534 H506 0.932 . S
C534 C533 1.405 . S
C534 C535 1.383 . S
C535 C534 1.383 . S
C535 C536 1.393 . S
C536 H508 0.931 . S
C536 C535 1.393 . S
C536 C537 1.382 . S
C537 H507 0.929 . S
C537 C532 1.371 . S
C537 C536 1.382 . S
C538 N501 1.423 . S
C538 C539 1.362 . S
C538 C543 1.388 . S
C539 H509 0.929 . S
C539 C538 1.362 . S
C539 C540 1.376 . S
C540 H511 0.931 . S
C540 C539 1.376 . S
C540 C541 1.396 . S
C541 C540 1.396 . S
C541 C542 1.348 . S
C541 C559 1.472 . S
C542 H512 0.929 . S
C542 C541 1.348 . S
C542 C543 1.443 . S
C543 H510 0.932 . S
C543 C538 1.388 . S
C543 C542 1.443 . S
C544 N524 1.433 . S
C544 C545 1.363 . S
C544 C549 1.370 . S
C545 H513 0.929 . S
C545 C544 1.363 . S
C545 C546 1.385 . S
C546 H514 0.930 . S
C546 C545 1.385 . S
C546 C547 1.357 . S
C547 C546 1.357 . S
C547 C548 1.406 . S
C548 H515 0.929 . S
C548 C547 1.406 . S
C548 C549 1.391 . S
C549 H516 0.931 . S
C549 C544 1.370 . S
C549 C548 1.391 . S
C550 N524 1.435 . S
C550 C551 1.358 . S
C550 C555 1.371 . S
C551 H517 0.930 . S
C551 C550 1.358 . S
C551 C552 1.405 . S
C552 H518 0.932 . S
C552 C551 1.405 . S
C552 C553 1.383 . S
C553 C552 1.383 . S
C553 C554 1.393 . S
C554 H519 0.931 . S
C554 C553 1.393 . S
C554 C555 1.382 . S
C555 H520 0.929 . S
C555 C550 1.371 . S
C555 C554 1.382 . S
C556 N524 1.423 . S
C556 C557 1.362 . S
C556 C561 1.388 . S
C557 H521 0.929 . S
C557 C556 1.362 . S
C557 C558 1.376 . S
C558 H522 0.931 . S
C558 C557 1.376 . S
C558 C559 1.396 . S
C559 C541 1.472 . S
C559 C558 1.396 . S
C559 C560 1.348 . S
C560 H523 0.929 . S
C560 C559 1.348 . S
C560 C561 1.443 . S
C561 H525 0.932 . S
C561 C556 1.388 . S
C561 C560 1.443 . S
H562 C589 0.929 . S
N563 C588 1.433 . S
N563 C594 1.435 . S
N563 C600 1.423 . S
H564 C590 0.930 . S
H565 C593 0.931 . S
H566 C592 0.929 . S
H567 C595 0.930 . S
H568 C596 0.932 . S
H569 C599 0.929 . S
H570 C598 0.931 . S
H571 C601 0.929 . S
H572 C605 0.932 . S
H573 C602 0.931 . S
H574 C604 0.929 . S
H575 C607 0.929 . S
H576 C608 0.930 . S
H577 C610 0.929 . S
H578 C611 0.931 . S
H579 C613 0.930 . S
H580 C614 0.932 . S
H581 C616 0.931 . S
H582 C617 0.929 . S
H583 C619 0.929 . S
H584 C620 0.931 . S
H585 C622 0.929 . S
N586 C606 1.433 . S
N586 C612 1.435 . S
N586 C618 1.423 . S
H587 C623 0.932 . S
C588 N563 1.433 . S
C588 C589 1.363 . S
C588 C593 1.370 . S
C589 H562 0.929 . S
C589 C588 1.363 . S
C589 C590 1.385 . S
C590 H564 0.930 . S
C590 C589 1.385 . S
C590 C591 1.357 . S
C591 C590 1.357 . S
C591 C592 1.406 . S
C592 H566 0.929 . S
C592 C591 1.406 . S
C592 C593 1.391 . S
C593 H565 0.931 . S
C593 C588 1.370 . S
C593 C592 1.391 . S
C594 N563 1.435 . S
C594 C595 1.358 . S
C594 C599 1.371 . S
C595 H567 0.930 . S
C595 C594 1.358 . S
C595 C596 1.405 . S
C596 H568 0.932 . S
C596 C595 1.405 . S
C596 C597 1.383 . S
C597 C596 1.383 . S
C597 C598 1.393 . S
C598 H570 0.931 . S
C598 C597 1.393 . S
C598 C599 1.382 . S
C599 H569 0.929 . S
C599 C594 1.371 . S
C599 C598 1.382 . S
C600 N563 1.423 . S
C600 C601 1.362 . S
C600 C605 1.388 . S
C601 H571 0.929 . S
C601 C600 1.362 . S
C601 C602 1.376 . S
C602 H573 0.931 . S
C602 C601 1.376 . S
C602 C603 1.396 . S
C603 C602 1.396 . S
C603 C604 1.348 . S
C603 C621 1.472 . S
C604 H574 0.929 . S
C604 C603 1.348 . S
C604 C605 1.443 . S
C605 H572 0.932 . S
C605 C600 1.388 . S
C605 C604 1.443 . S
C606 N586 1.433 . S
C606 C607 1.363 . S
C606 C611 1.370 . S
C607 H575 0.929 . S
C607 C606 1.363 . S
C607 C608 1.385 . S
C608 H576 0.930 . S
C608 C607 1.385 . S
C608 C609 1.357 . S
C609 C608 1.357 . S
C609 C610 1.406 . S
C610 H577 0.929 . S
C610 C609 1.406 . S
C610 C611 1.391 . S
C611 H578 0.931 . S
C611 C606 1.370 . S
C611 C610 1.391 . S
C612 N586 1.435 . S
C612 C613 1.358 . S
C612 C617 1.371 . S
C613 H579 0.930 . S
C613 C612 1.358 . S
C613 C614 1.405 . S
C614 H580 0.932 . S
C614 C613 1.405 . S
C614 C615 1.383 . S
C615 C614 1.383 . S
C615 C616 1.393 . S
C616 H581 0.931 . S
C616 C615 1.393 . S
C616 C617 1.382 . S
C617 H582 0.929 . S
C617 C612 1.371 . S
C617 C616 1.382 . S
C618 N586 1.423 . S
C618 C619 1.362 . S
C618 C623 1.388 . S
C619 H583 0.929 . S
C619 C618 1.362 . S
C619 C620 1.376 . S
C620 H584 0.931 . S
C620 C619 1.376 . S
C620 C621 1.396 . S
C621 C603 1.472 . S
C621 C620 1.396 . S
C621 C622 1.348 . S
C622 H585 0.929 . S
C622 C621 1.348 . S
C622 C623 1.443 . S
C623 H587 0.932 . S
C623 C618 1.388 . S
C623 C622 1.443 . S
H624 C651 0.929 . S
N625 C650 1.433 . S
N625 C656 1.435 . S
N625 C662 1.423 . S
H626 C652 0.930 . S
H627 C655 0.931 . S
H628 C654 0.929 . S
H629 C657 0.930 . S
H630 C658 0.932 . S
H631 C661 0.929 . S
H632 C660 0.931 . S
H633 C663 0.929 . S
H634 C667 0.932 . S
H635 C664 0.931 . S
H636 C666 0.929 . S
H637 C669 0.929 . S
H638 C670 0.930 . S
H639 C672 0.929 . S
H640 C673 0.931 . S
H641 C675 0.930 . S
H642 C676 0.932 . S
H643 C678 0.931 . S
H644 C679 0.929 . S
H645 C681 0.929 . S
H646 C682 0.931 . S
H647 C684 0.929 . S
N648 C668 1.433 . S
N648 C674 1.435 . S
N648 C680 1.423 . S
H649 C685 0.932 . S
C650 N625 1.433 . S
C650 C651 1.363 . S
C650 C655 1.370 . S
C651 H624 0.929 . S
C651 C650 1.363 . S
C651 C652 1.385 . S
C652 H626 0.930 . S
C652 C651 1.385 . S
C652 C653 1.357 . S
C653 C652 1.357 . S
C653 C654 1.406 . S
C654 H628 0.929 . S
C654 C653 1.406 . S
C654 C655 1.391 . S
C655 H627 0.931 . S
C655 C650 1.370 . S
C655 C654 1.391 . S
C656 N625 1.435 . S
C656 C657 1.358 . S
C656 C661 1.371 . S
C657 H629 0.930 . S
C657 C656 1.358 . S
C657 C658 1.405 . S
C658 H630 0.932 . S
C658 C657 1.405 . S
C658 C659 1.383 . S
C659 C658 1.383 . S
C659 C660 1.393 . S
C660 H632 0.931 . S
C660 C659 1.393 . S
C660 C661 1.382 . S
C661 H631 0.929 . S
C661 C656 1.371 . S
C661 C660 1.382 . S
C662 N625 1.423 . S
C662 C663 1.362 . S
C662 C667 1.388 . S
C663 H633 0.929 . S
C663 C662 1.362 . S
C663 C664 1.376 . S
C664 H635 0.931 . S
C664 C663 1.376 . S
C664 C665 1.396 . S
C665 C664 1.396 . S
C665 C666 1.348 . S
C665 C683 1.472 . S
C666 H636 0.929 . S
C666 C665 1.348 . S
C666 C667 1.443 . S
C667 H634 0.932 . S
C667 C662 1.388 . S
C667 C666 1.443 . S
C668 N648 1.433 . S
C668 C669 1.363 . S
C668 C673 1.370 . S
C669 H637 0.929 . S
C669 C668 1.363 . S
C669 C670 1.385 . S
C670 H638 0.930 . S
C670 C669 1.385 . S
C670 C671 1.357 . S
C671 C670 1.357 . S
C671 C672 1.406 . S
C672 H639 0.929 . S
C672 C671 1.406 . S
C672 C673 1.391 . S
C673 H640 0.931 . S
C673 C668 1.370 . S
C673 C672 1.391 . S
C674 N648 1.435 . S
C674 C675 1.358 . S
C674 C679 1.371 . S
C675 H641 0.930 . S
C675 C674 1.358 . S
C675 C676 1.405 . S
C676 H642 0.932 . S
C676 C675 1.405 . S
C676 C677 1.383 . S
C677 C676 1.383 . S
C677 C678 1.393 . S
C678 H643 0.931 . S
C678 C677 1.393 . S
C678 C679 1.382 . S
C679 H644 0.929 . S
C679 C674 1.371 . S
C679 C678 1.382 . S
C680 N648 1.423 . S
C680 C681 1.362 . S
C680 C685 1.388 . S
C681 H645 0.929 . S
C681 C680 1.362 . S
C681 C682 1.376 . S
C682 H646 0.931 . S
C682 C681 1.376 . S
C682 C683 1.396 . S
C683 C665 1.472 . S
C683 C682 1.396 . S
C683 C684 1.348 . S
C684 H647 0.929 . S
C684 C683 1.348 . S
C684 C685 1.443 . S
C685 H649 0.932 . S
C685 C680 1.388 . S
C685 C684 1.443 . S
H686 C713 0.929 . S
N687 C712 1.433 . S
N687 C718 1.435 . S
N687 C724 1.423 . S
H688 C714 0.930 . S
H689 C717 0.931 . S
H690 C716 0.929 . S
H691 C719 0.930 . S
H692 C720 0.932 . S
H693 C723 0.929 . S
H694 C722 0.931 . S
H695 C725 0.929 . S
H696 C729 0.932 . S
H697 C726 0.931 . S
H698 C728 0.929 . S
H699 C731 0.929 . S
H700 C732 0.930 . S
H701 C734 0.929 . S
H702 C735 0.931 . S
H703 C737 0.930 . S
H704 C738 0.932 . S
H705 C740 0.931 . S
H706 C741 0.929 . S
H707 C743 0.929 . S
H708 C744 0.931 . S
H709 C746 0.929 . S
N710 C730 1.433 . S
N710 C736 1.435 . S
N710 C742 1.423 . S
H711 C747 0.932 . S
C712 N687 1.433 . S
C712 C713 1.363 . S
C712 C717 1.370 . S
C713 H686 0.929 . S
C713 C712 1.363 . S
C713 C714 1.385 . S
C714 H688 0.930 . S
C714 C713 1.385 . S
C714 C715 1.357 . S
C715 C714 1.357 . S
C715 C716 1.406 . S
C716 H690 0.929 . S
C716 C715 1.406 . S
C716 C717 1.391 . S
C717 H689 0.931 . S
C717 C712 1.370 . S
C717 C716 1.391 . S
C718 N687 1.435 . S
C718 C719 1.358 . S
C718 C723 1.371 . S
C719 H691 0.930 . S
C719 C718 1.358 . S
C719 C720 1.405 . S
C720 H692 0.932 . S
C720 C719 1.405 . S
C720 C721 1.383 . S
C721 C720 1.383 . S
C721 C722 1.393 . S
C722 H694 0.931 . S
C722 C721 1.393 . S
C722 C723 1.382 . S
C723 H693 0.929 . S
C723 C718 1.371 . S
C723 C722 1.382 . S
C724 N687 1.423 . S
C724 C725 1.362 . S
C724 C729 1.388 . S
C725 H695 0.929 . S
C725 C724 1.362 . S
C725 C726 1.376 . S
C726 H697 0.931 . S
C726 C725 1.376 . S
C726 C727 1.396 . S
C727 C726 1.396 . S
C727 C728 1.348 . S
C727 C745 1.472 . S
C728 H698 0.929 . S
C728 C727 1.348 . S
C728 C729 1.443 . S
C729 H696 0.932 . S
C729 C724 1.388 . S
C729 C728 1.443 . S
C730 N710 1.433 . S
C730 C731 1.363 . S
C730 C735 1.370 . S
C731 H699 0.929 . S
C731 C730 1.363 . S
C731 C732 1.385 . S
C732 H700 0.930 . S
C732 C731 1.385 . S
C732 C733 1.357 . S
C733 C732 1.357 . S
C733 C734 1.406 . S
C734 H701 0.929 . S
C734 C733 1.406 . S
C734 C735 1.391 . S
C735 H702 0.931 . S
C735 C730 1.370 . S
C735 C734 1.391 . S
C736 N710 1.435 . S
C736 C737 1.358 . S
C736 C741 1.371 . S
C737 H703 0.930 . S
C737 C736 1.358 . S
C737 C738 1.405 . S
C738 H704 0.932 . S
C738 C737 1.405 . S
C738 C739 1.383 . S
C739 C738 1.383 . S
C739 C740 1.393 . S
C740 H705 0.931 . S
C740 C739 1.393 . S
C740 C741 1.382 . S
C741 H706 0.929 . S
C741 C736 1.371 . S
C741 C740 1.382 . S
C742 N710 1.423 . S
C742 C743 1.362 . S
C742 C747 1.388 . S
C743 H707 0.929 . S
C743 C742 1.362 . S
C743 C744 1.376 . S
C744 H708 0.931 . S
C744 C743 1.376 . S
C744 C745 1.396 . S
C745 C727 1.472 . S
C745 C744 1.396 . S
C745 C746 1.348 . S
C746 H709 0.929 . S
C746 C745 1.348 . S
C746 C747 1.443 . S
C747 H711 0.932 . S
C747 C742 1.388 . S
C747 C746 1.443 . S
H748 C775 0.929 . S
N749 C774 1.433 . S
N749 C780 1.435 . S
N749 C786 1.423 . S
H750 C776 0.930 . S
H751 C779 0.931 . S
H752 C778 0.929 . S
H753 C781 0.930 . S
H754 C782 0.932 . S
H755 C785 0.929 . S
H756 C784 0.931 . S
H757 C787 0.929 . S
H758 C791 0.932 . S
H759 C788 0.931 . S
H760 C790 0.929 . S
H761 C793 0.929 . S
H762 C794 0.930 . S
H763 C796 0.929 . S
H764 C797 0.931 . S
H765 C799 0.930 . S
H766 C800 0.932 . S
H767 C802 0.931 . S
H768 C803 0.929 . S
H769 C805 0.929 . S
H770 C806 0.931 . S
H771 C808 0.929 . S
N772 C792 1.433 . S
N772 C798 1.435 . S
N772 C804 1.423 . S
H773 C809 0.932 . S
C774 N749 1.433 . S
C774 C775 1.363 . S
C774 C779 1.370 . S
C775 H748 0.929 . S
C775 C774 1.363 . S
C775 C776 1.385 . S
C776 H750 0.930 . S
C776 C775 1.385 . S
C776 C777 1.357 . S
C777 C776 1.357 . S
C777 C778 1.406 . S
C778 H752 0.929 . S
C778 C777 1.406 . S
C778 C779 1.391 . S
C779 H751 0.931 . S
C779 C774 1.370 . S
C779 C778 1.391 . S
C780 N749 1.435 . S
C780 C781 1.358 . S
C780 C785 1.371 . S
C781 H753 0.930 . S
C781 C780 1.358 . S
C781 C782 1.405 . S
C782 H754 0.932 . S
C782 C781 1.405 . S
C782 C783 1.383 . S
C783 C782 1.383 . S
C783 C784 1.393 . S
C784 H756 0.931 . S
C784 C783 1.393 . S
C784 C785 1.382 . S
C785 H755 0.929 . S
C785 C780 1.371 . S
C785 C784 1.382 . S
C786 N749 1.423 . S
C786 C787 1.362 . S
C786 C791 1.388 . S
C787 H757 0.929 . S
C787 C786 1.362 . S
C787 C788 1.376 . S
C788 H759 0.931 . S
C788 C787 1.376 . S
C788 C789 1.396 . S
C789 C788 1.396 . S
C789 C790 1.348 . S
C789 C807 1.472 . S
C790 H760 0.929 . S
C790 C789 1.348 . S
C790 C791 1.443 . S
C791 H758 0.932 . S
C791 C786 1.388 . S
C791 C790 1.443 . S
C792 N772 1.433 . S
C792 C793 1.363 . S
C792 C797 1.370 . S
C793 H761 0.929 . S
C793 C792 1.363 . S
C793 C794 1.385 . S
C794 H762 0.930 . S
C794 C793 1.385 . S
C794 C795 1.357 . S
C795 C794 1.357 . S
C795 C796 1.406 . S
C796 H763 0.929 . S
C796 C795 1.406 . S
C796 C797 1.391 . S
C797 H764 0.931 . S
C797 C792 1.370 . S
C797 C796 1.391 . S
C798 N772 1.435 . S
C798 C799 1.358 . S
C798 C803 1.371 . S
C799 H765 0.930 . S
C799 C798 1.358 . S
C799 C800 1.405 . S
C800 H766 0.932 . S
C800 C799 1.405 . S
C800 C801 1.383 . S
C801 C800 1.383 . S
C801 C802 1.393 . S
C802 H767 0.931 . S
C802 C801 1.393 . S
C802 C803 1.382 . S
C803 H768 0.929 . S
C803 C798 1.371 . S
C803 C802 1.382 . S
C804 N772 1.423 . S
C804 C805 1.362 . S
C804 C809 1.388 . S
C805 H769 0.929 . S
C805 C804 1.362 . S
C805 C806 1.376 . S
C806 H770 0.931 . S
C806 C805 1.376 . S
C806 C807 1.396 . S
C807 C789 1.472 . S
C807 C806 1.396 . S
C807 C808 1.348 . S
C808 H771 0.929 . S
C808 C807 1.348 . S
C808 C809 1.443 . S
C809 H773 0.932 . S
C809 C804 1.388 . S
C809 C808 1.443 . S
H810 C837 0.929 . S
N811 C836 1.433 . S
N811 C842 1.435 . S
N811 C848 1.423 . S
H812 C838 0.930 . S
H813 C841 0.931 . S
H814 C840 0.929 . S
H815 C843 0.930 . S
H816 C844 0.932 . S
H817 C847 0.929 . S
H818 C846 0.931 . S
H819 C849 0.929 . S
H820 C853 0.932 1_655 S
H821 C850 0.931 . S
H822 C852 0.942 . S
H823 C855 0.929 . S
H824 C856 0.930 . S
H825 C858 0.929 . S
H826 C859 0.931 . S
H827 C861 0.930 . S
H828 C862 0.932 . S
H829 C864 0.931 . S
H830 C865 0.929 . S
H831 C867 0.929 . S
H832 C868 0.931 . S
H833 C870 0.988 . S
N834 C854 1.433 . S
N834 C860 1.435 . S
N834 C866 1.423 . S
H835 C871 0.932 1_655 S
C836 N811 1.433 . S
C836 C837 1.363 . S
C836 C841 1.370 1_455 S
C837 H810 0.929 . S
C837 C836 1.363 . S
C837 C838 1.385 . S
C838 H812 0.930 . S
C838 C837 1.385 . S
C838 C839 1.357 1_455 S
C839 C838 1.357 1_655 S
C839 C840 1.406 . S
C840 H814 0.929 . S
C840 C839 1.406 . S
C840 C841 1.391 . S
C841 H813 0.931 . S
C841 C836 1.370 1_655 S
C841 C840 1.391 . S
C842 N811 1.435 . S
C842 C843 1.358 1_455 S
C842 C847 1.371 . S
C843 H815 0.930 . S
C843 C842 1.358 1_655 S
C843 C844 1.405 . S
C844 H816 0.932 . S
C844 C843 1.405 . S
C844 C845 1.383 1_655 S
C845 C844 1.383 1_455 S
C845 C846 1.393 . S
C846 H818 0.931 . S
C846 C845 1.393 . S
C846 C847 1.382 . S
C847 H817 0.929 . S
C847 C842 1.371 . S
C847 C846 1.382 . S
C848 N811 1.423 . S
C848 C849 1.362 . S
C848 C853 1.388 . S
C849 H819 0.929 . S
C849 C848 1.362 . S
C849 C850 1.376 . S
C850 H821 0.931 . S
C850 C849 1.376 . S
C850 C851 1.396 . S
C851 C850 1.396 . S
C851 C852 1.348 . S
C851 C869 1.472 . S
C852 H822 0.942 . S
C852 C851 1.348 . S
C852 C853 1.443 . S
C853 H820 0.932 1_455 S
C853 C848 1.388 . S
C853 C852 1.443 . S
C854 N834 1.433 . S
C854 C855 1.363 . S
C854 C859 1.370 1_455 S
C855 H823 0.929 . S
C855 C854 1.363 . S
C855 C856 1.385 . S
C856 H824 0.930 . S
C856 C855 1.385 . S
C856 C857 1.357 1_455 S
C857 C856 1.357 1_655 S
C857 C858 1.406 . S
C858 H825 0.929 . S
C858 C857 1.406 . S
C858 C859 1.391 . S
C859 H826 0.931 . S
C859 C854 1.370 1_655 S
C859 C858 1.391 . S
C860 N834 1.435 . S
C860 C861 1.358 1_455 S
C860 C865 1.371 . S
C861 H827 0.930 . S
C861 C860 1.358 1_655 S
C861 C862 1.405 . S
C862 H828 0.932 . S
C862 C861 1.405 . S
C862 C863 1.383 1_655 S
C863 C862 1.383 1_455 S
C863 C864 1.393 . S
C864 H829 0.931 . S
C864 C863 1.393 . S
C864 C865 1.382 . S
C865 H830 0.929 . S
C865 C860 1.371 . S
C865 C864 1.382 . S
C866 N834 1.423 . S
C866 C867 1.362 . S
C866 C871 1.388 . S
C867 H831 0.929 . S
C867 C866 1.362 . S
C867 C868 1.376 . S
C868 H832 0.931 . S
C868 C867 1.376 . S
C868 C869 1.396 . S
C869 C851 1.472 . S
C869 C868 1.396 . S
C869 C870 1.348 . S
C870 H833 0.988 . S
C870 C869 1.348 . S
C870 C871 1.443 . S
C871 H835 0.932 1_455 S
C871 C866 1.388 . S
C871 C870 1.443 . S
H872 C899 0.929 . S
N873 C898 1.433 . S
N873 C904 1.435 . S
N873 C910 1.423 . S
H874 C900 0.930 . S
H875 C903 0.931 . S
H876 C902 0.929 . S
H877 C905 0.930 . S
H878 C906 0.932 . S
H879 C909 0.929 . S
H880 C908 0.931 . S
H881 C911 0.929 . S
H882 C915 0.932 . S
H883 C912 0.931 . S
H884 C914 0.929 . S
H885 C917 0.929 . S
H886 C918 0.930 . S
H887 C920 0.929 . S
H888 C921 0.931 . S
H889 C923 0.930 . S
H890 C924 0.932 . S
H891 C926 0.931 . S
H892 C927 0.929 . S
H893 C929 0.929 . S
H894 C930 0.931 . S
H895 C932 0.929 . S
N896 C916 1.433 . S
N896 C922 1.435 . S
N896 C928 1.423 . S
H897 C933 0.932 . S
C898 N873 1.433 . S
C898 C899 1.363 . S
C898 C903 1.370 . S
C899 H872 0.929 . S
C899 C898 1.363 . S
C899 C900 1.385 . S
C900 H874 0.930 . S
C900 C899 1.385 . S
C900 C901 1.357 . S
C901 C900 1.357 . S
C901 C902 1.406 . S
C902 H876 0.929 . S
C902 C901 1.406 . S
C902 C903 1.391 . S
C903 H875 0.931 . S
C903 C898 1.370 . S
C903 C902 1.391 . S
C904 N873 1.435 . S
C904 C905 1.358 . S
C904 C909 1.371 . S
C905 H877 0.930 . S
C905 C904 1.358 . S
C905 C906 1.405 . S
C906 H878 0.932 . S
C906 C905 1.405 . S
C906 C907 1.383 . S
C907 C906 1.383 . S
C907 C908 1.393 . S
C908 H880 0.931 . S
C908 C907 1.393 . S
C908 C909 1.382 . S
C909 H879 0.929 . S
C909 C904 1.371 . S
C909 C908 1.382 . S
C910 N873 1.423 . S
C910 C911 1.362 . S
C910 C915 1.388 . S
C911 H881 0.929 . S
C911 C910 1.362 . S
C911 C912 1.376 . S
C912 H883 0.931 . S
C912 C911 1.376 . S
C912 C913 1.396 . S
C913 C912 1.396 . S
C913 C914 1.348 . S
C913 C931 1.472 . S
C914 H884 0.929 . S
C914 C913 1.348 . S
C914 C915 1.443 . S
C915 H882 0.932 . S
C915 C910 1.388 . S
C915 C914 1.443 . S
C916 N896 1.433 . S
C916 C917 1.363 . S
C916 C921 1.370 . S
C917 H885 0.929 . S
C917 C916 1.363 . S
C917 C918 1.385 . S
C918 H886 0.930 . S
C918 C917 1.385 . S
C918 C919 1.357 . S
C919 C918 1.357 . S
C919 C920 1.406 . S
C920 H887 0.929 . S
C920 C919 1.406 . S
C920 C921 1.391 . S
C921 H888 0.931 . S
C921 C916 1.370 . S
C921 C920 1.391 . S
C922 N896 1.435 . S
C922 C923 1.358 . S
C922 C927 1.371 . S
C923 H889 0.930 . S
C923 C922 1.358 . S
C923 C924 1.405 . S
C924 H890 0.932 . S
C924 C923 1.405 . S
C924 C925 1.383 . S
C925 C924 1.383 . S
C925 C926 1.393 . S
C926 H891 0.931 . S
C926 C925 1.393 . S
C926 C927 1.382 . S
C927 H892 0.929 . S
C927 C922 1.371 . S
C927 C926 1.382 . S
C928 N896 1.423 . S
C928 C929 1.362 . S
C928 C933 1.388 . S
C929 H893 0.929 . S
C929 C928 1.362 . S
C929 C930 1.376 . S
C930 H894 0.931 . S
C930 C929 1.376 . S
C930 C931 1.396 . S
C931 C913 1.472 . S
C931 C930 1.396 . S
C931 C932 1.348 . S
C932 H895 0.929 . S
C932 C931 1.348 . S
C932 C933 1.443 . S
C933 H897 0.932 . S
C933 C928 1.388 . S
C933 C932 1.443 . S
H934 C961 0.929 . S
N935 C960 1.433 . S
N935 C966 1.435 . S
N935 C972 1.423 . S
H936 C962 0.930 . S
H937 C965 0.931 . S
H938 C964 0.929 . S
H939 C967 0.930 . S
H940 C968 0.932 . S
H941 C971 0.929 . S
H942 C970 0.931 . S
H943 C973 0.929 . S
H944 C977 0.932 1_545 S
H945 C974 0.931 . S
H946 C976 0.929 . S
H947 C979 0.929 . S
H948 C980 0.930 . S
H949 C982 0.929 . S
H950 C983 0.931 . S
H951 C985 0.930 . S
H952 C986 0.932 . S
H953 C988 0.931 . S
H954 C989 0.929 . S
H955 C991 0.929 . S
H956 C992 0.931 . S
H957 C994 0.929 . S
N958 C978 1.433 . S
N958 C984 1.435 . S
N958 C990 1.423 . S
H959 C995 0.932 1_545 S
C960 N935 1.433 . S
C960 C961 1.363 . S
C960 C965 1.370 1_565 S
C961 H934 0.929 . S
C961 C960 1.363 . S
C961 C962 1.385 . S
C962 H936 0.930 . S
C962 C961 1.385 . S
C962 C963 1.357 1_565 S
C963 C962 1.357 1_545 S
C963 C964 1.406 . S
C964 H938 0.929 . S
C964 C963 1.406 . S
C964 C965 1.391 . S
C965 H937 0.931 . S
C965 C960 1.370 1_545 S
C965 C964 1.391 . S
C966 N935 1.435 . S
C966 C967 1.358 1_565 S
C966 C971 1.371 . S
C967 H939 0.930 . S
C967 C966 1.358 1_545 S
C967 C968 1.405 . S
C968 H940 0.932 . S
C968 C967 1.405 . S
C968 C969 1.383 1_545 S
C969 C968 1.383 1_565 S
C969 C970 1.393 . S
C970 H942 0.931 . S
C970 C969 1.393 . S
C970 C971 1.382 . S
C971 H941 0.929 . S
C971 C966 1.371 . S
C971 C970 1.382 . S
C972 N935 1.423 . S
C972 C973 1.362 . S
C972 C977 1.388 . S
C973 H943 0.929 . S
C973 C972 1.362 . S
C973 C974 1.376 . S
C974 H945 0.931 . S
C974 C973 1.376 . S
C974 C975 1.396 . S
C975 C974 1.396 . S
C975 C976 1.348 . S
C975 C993 1.472 . S
C976 H946 0.929 . S
C976 C975 1.348 . S
C976 C977 1.443 . S
C977 H944 0.932 1_565 S
C977 C972 1.388 . S
C977 C976 1.443 . S
C978 N958 1.433 . S
C978 C979 1.363 . S
C978 C983 1.370 1_565 S
C979 H947 0.929 . S
C979 C978 1.363 . S
C979 C980 1.385 . S
C980 H948 0.930 . S
C980 C979 1.385 . S
C980 C981 1.357 1_565 S
C981 C980 1.357 1_545 S
C981 C982 1.406 . S
C982 H949 0.929 . S
C982 C981 1.406 . S
C982 C983 1.391 . S
C983 H950 0.931 . S
C983 C978 1.370 1_545 S
C983 C982 1.391 . S
C984 N958 1.435 . S
C984 C985 1.358 1_565 S
C984 C989 1.371 . S
C985 H951 0.930 . S
C985 C984 1.358 1_545 S
C985 C986 1.405 . S
C986 H952 0.932 . S
C986 C985 1.405 . S
C986 C987 1.383 1_545 S
C987 C986 1.383 1_565 S
C987 C988 1.393 . S
C988 H953 0.931 . S
C988 C987 1.393 . S
C988 C989 1.382 . S
C989 H954 0.929 . S
C989 C984 1.371 . S
C989 C988 1.382 . S
C990 N958 1.423 . S
C990 C991 1.362 . S
C990 C995 1.388 . S
C991 H955 0.929 . S
C991 C990 1.362 . S
C991 C992 1.376 . S
C992 H956 0.931 . S
C992 C991 1.376 . S
C992 C993 1.396 . S
C993 C975 1.472 . S
C993 C992 1.396 . S
C993 C994 1.348 . S
C994 H957 0.929 . S
C994 C993 1.348 . S
C994 C995 1.443 . S
C995 H959 0.932 1_565 S
C995 C990 1.388 . S
C995 C994 1.443 . S
H996 C1023 0.929 . S
N997 C1022 1.433 . S
N997 C1028 1.435 . S
N997 C1034 1.423 . S
H998 C1024 0.930 . S
H999 C1027 0.930 . S
H1000 C1026 0.946 . S
H1001 C1029 0.930 . S
H1002 C1030 0.932 . S
H1003 C1033 0.929 . S
H1004 C1032 0.931 . S
H1005 C1035 0.929 . S
H1006 C1039 1.007 . S
H1007 C1036 0.931 . S
H1008 C1038 0.917 1_545 S
H1009 C1041 0.929 . S
H1010 C1042 0.930 . S
H1011 C1044 0.929 . S
H1012 C1045 1.006 . S
H1013 C1047 0.930 . S
H1014 C1048 0.932 . S
H1015 C1050 0.931 . S
H1016 C1051 0.929 . S
H1017 C1053 0.929 . S
H1018 C1054 0.931 . S
H1019 C1056 0.896 1_545 S
N1020 C1040 1.433 . S
N1020 C1046 1.435 . S
N1020 C1052 1.423 . S
H1021 C1057 0.932 . S
C1022 N997 1.433 . S
C1022 C1023 1.363 . S
C1022 C1027 1.364 1_565 S
C1023 H996 0.929 . S
C1023 C1022 1.363 . S
C1023 C1024 1.385 . S
C1024 H998 0.930 . S
C1024 C1023 1.385 . S
C1024 C1025 1.357 . S
C1025 C1024 1.357 . S
C1025 C1026 1.413 1_565 S
C1026 H1000 0.946 . S
C1026 C1025 1.413 1_545 S
C1026 C1027 1.386 . S
C1027 H999 0.930 . S
C1027 C1022 1.364 1_545 S
C1027 C1026 1.386 . S
C1028 N997 1.435 . S
C1028 C1029 1.358 1_565 S
C1028 C1033 1.371 . S
C1029 H1001 0.930 . S
C1029 C1028 1.358 1_545 S
C1029 C1030 1.405 . S
C1030 H1002 0.932 . S
C1030 C1029 1.405 . S
C1030 C1031 1.383 . S
C1031 C1030 1.383 . S
C1031 C1032 1.393 1_545 S
C1032 H1004 0.931 . S
C1032 C1031 1.393 1_565 S
C1032 C1033 1.382 . S
C1033 H1003 0.929 . S
C1033 C1028 1.371 . S
C1033 C1032 1.382 . S
C1034 N997 1.423 . S
C1034 C1035 1.362 . S
C1034 C1039 1.366 1_565 S
C1035 H1005 0.929 . S
C1035 C1034 1.362 . S
C1035 C1036 1.376 . S
C1036 H1007 0.931 . S
C1036 C1035 1.376 . S
C1036 C1037 1.396 . S
C1037 C1036 1.396 . S
C1037 C1038 1.393 . S
C1037 C1055 1.472 . S
C1038 H1008 0.917 1_565 S
C1038 C1037 1.393 . S
C1038 C1039 1.364 1_565 S
C1039 H1006 1.007 . S
C1039 C1034 1.366 1_545 S
C1039 C1038 1.364 1_545 S
C1040 N1020 1.433 . S
C1040 C1041 1.363 . S
C1040 C1045 1.313 1_565 S
C1041 H1009 0.929 . S
C1041 C1040 1.363 . S
C1041 C1042 1.385 . S
C1042 H1010 0.930 . S
C1042 C1041 1.385 . S
C1042 C1043 1.357 . S
C1043 C1042 1.357 . S
C1043 C1044 1.406 1_565 S
C1044 H1011 0.929 . S
C1044 C1043 1.406 1_545 S
C1044 C1045 1.379 . S
C1045 H1012 1.006 . S
C1045 C1040 1.313 1_545 S
C1045 C1044 1.379 . S
C1046 N1020 1.435 . S
C1046 C1047 1.358 1_565 S
C1046 C1051 1.371 . S
C1047 H1013 0.930 . S
C1047 C1046 1.358 1_545 S
C1047 C1048 1.405 . S
C1048 H1014 0.932 . S
C1048 C1047 1.405 . S
C1048 C1049 1.383 . S
C1049 C1048 1.383 . S
C1049 C1050 1.393 1_545 S
C1050 H1015 0.931 . S
C1050 C1049 1.393 1_565 S
C1050 C1051 1.382 . S
C1051 H1016 0.929 . S
C1051 C1046 1.371 . S
C1051 C1050 1.382 . S
C1052 N1020 1.423 . S
C1052 C1053 1.362 . S
C1052 C1057 1.388 1_565 S
C1053 H1017 0.929 . S
C1053 C1052 1.362 . S
C1053 C1054 1.376 . S
C1054 H1018 0.931 . S
C1054 C1053 1.376 . S
C1054 C1055 1.396 . S
C1055 C1037 1.472 . S
C1055 C1054 1.396 . S
C1055 C1056 1.362 . S
C1056 H1019 0.896 1_565 S
C1056 C1055 1.362 . S
C1056 C1057 1.462 1_565 S
C1057 H1021 0.932 . S
C1057 C1052 1.388 1_545 S
C1057 C1056 1.462 1_545 S
H1058 C1085 0.929 . S
N1059 C1084 1.433 . S
N1059 C1090 1.435 . S
N1059 C1096 1.423 . S
H1060 C1086 0.930 . S
H1061 C1089 0.931 . S
H1062 C1088 0.929 . S
H1063 C1091 0.930 . S
H1064 C1092 0.932 . S
H1065 C1095 0.929 . S
H1066 C1094 0.931 . S
H1067 C1097 0.929 . S
H1068 C1101 0.932 1_455 S
H1069 C1098 0.931 . S
H1070 C1100 0.929 . S
H1071 C1103 0.929 . S
H1072 C1104 0.930 . S
H1073 C1106 0.929 . S
H1074 C1107 0.931 . S
H1075 C1109 0.930 . S
H1076 C1110 0.932 . S
H1077 C1112 0.931 . S
H1078 C1113 0.929 . S
H1079 C1115 0.929 . S
H1080 C1116 0.931 . S
H1081 C1118 0.929 . S
N1082 C1102 1.433 . S
N1082 C1108 1.435 . S
N1082 C1114 1.423 . S
H1083 C1119 0.932 1_455 S
C1084 N1059 1.433 . S
C1084 C1085 1.363 . S
C1084 C1089 1.370 1_655 S
C1085 H1058 0.929 . S
C1085 C1084 1.363 . S
C1085 C1086 1.385 . S
C1086 H1060 0.930 . S
C1086 C1085 1.385 . S
C1086 C1087 1.357 1_655 S
C1087 C1086 1.357 1_455 S
C1087 C1088 1.406 . S
C1088 H1062 0.929 . S
C1088 C1087 1.406 . S
C1088 C1089 1.391 . S
C1089 H1061 0.931 . S
C1089 C1084 1.370 1_455 S
C1089 C1088 1.391 . S
C1090 N1059 1.435 . S
C1090 C1091 1.358 1_655 S
C1090 C1095 1.371 . S
C1091 H1063 0.930 . S
C1091 C1090 1.358 1_455 S
C1091 C1092 1.405 . S
C1092 H1064 0.932 . S
C1092 C1091 1.405 . S
C1092 C1093 1.383 1_455 S
C1093 C1092 1.383 1_655 S
C1093 C1094 1.393 . S
C1094 H1066 0.931 . S
C1094 C1093 1.393 . S
C1094 C1095 1.382 . S
C1095 H1065 0.929 . S
C1095 C1090 1.371 . S
C1095 C1094 1.382 . S
C1096 N1059 1.423 . S
C1096 C1097 1.362 . S
C1096 C1101 1.388 . S
C1097 H1067 0.929 . S
C1097 C1096 1.362 . S
C1097 C1098 1.376 . S
C1098 H1069 0.931 . S
C1098 C1097 1.376 . S
C1098 C1099 1.396 . S
C1099 C1098 1.396 . S
C1099 C1100 1.348 . S
C1099 C1117 1.472 . S
C1100 H1070 0.929 . S
C1100 C1099 1.348 . S
C1100 C1101 1.443 . S
C1101 H1068 0.932 1_655 S
C1101 C1096 1.388 . S
C1101 C1100 1.443 . S
C1102 N1082 1.433 . S
C1102 C1103 1.363 . S
C1102 C1107 1.370 1_655 S
C1103 H1071 0.929 . S
C1103 C1102 1.363 . S
C1103 C1104 1.385 . S
C1104 H1072 0.930 . S
C1104 C1103 1.385 . S
C1104 C1105 1.357 1_655 S
C1105 C1104 1.357 1_455 S
C1105 C1106 1.406 . S
C1106 H1073 0.929 . S
C1106 C1105 1.406 . S
C1106 C1107 1.391 . S
C1107 H1074 0.931 . S
C1107 C1102 1.370 1_455 S
C1107 C1106 1.391 . S
C1108 N1082 1.435 . S
C1108 C1109 1.358 1_655 S
C1108 C1113 1.371 . S
C1109 H1075 0.930 . S
C1109 C1108 1.358 1_455 S
C1109 C1110 1.405 . S
C1110 H1076 0.932 . S
C1110 C1109 1.405 . S
C1110 C1111 1.383 1_455 S
C1111 C1110 1.383 1_655 S
C1111 C1112 1.393 . S
C1112 H1077 0.931 . S
C1112 C1111 1.393 . S
C1112 C1113 1.382 . S
C1113 H1078 0.929 . S
C1113 C1108 1.371 . S
C1113 C1112 1.382 . S
C1114 N1082 1.423 . S
C1114 C1115 1.362 . S
C1114 C1119 1.388 . S
C1115 H1079 0.929 . S
C1115 C1114 1.362 . S
C1115 C1116 1.376 . S
C1116 H1080 0.931 . S
C1116 C1115 1.376 . S
C1116 C1117 1.396 . S
C1117 C1099 1.472 . S
C1117 C1116 1.396 . S
C1117 C1118 1.348 . S
C1118 H1081 0.929 . S
C1118 C1117 1.348 . S
C1118 C1119 1.443 . S
C1119 H1083 0.932 1_655 S
C1119 C1114 1.388 . S
C1119 C1118 1.443 . S
H1120 C1147 0.929 . S
N1121 C1146 1.433 . S
N1121 C1152 1.435 . S
N1121 C1158 1.423 . S
H1122 C1148 0.930 . S
H1123 C1151 0.931 . S
H1124 C1150 0.929 . S
H1125 C1153 0.930 . S
H1126 C1154 0.932 . S
H1127 C1157 0.929 . S
H1128 C1156 0.931 . S
H1129 C1159 0.929 . S
H1130 C1163 0.932 . S
H1131 C1160 0.931 . S
H1132 C1162 0.929 . S
H1133 C1165 0.929 . S
H1134 C1166 0.930 . S
H1135 C1168 0.929 . S
H1136 C1169 0.931 . S
H1137 C1171 0.930 . S
H1138 C1172 0.932 . S
H1139 C1174 0.931 . S
H1140 C1175 0.929 . S
H1141 C1177 0.929 . S
H1142 C1178 0.931 . S
H1143 C1180 0.929 . S
N1144 C1164 1.433 . S
N1144 C1170 1.435 . S
N1144 C1176 1.423 . S
H1145 C1181 0.932 . S
C1146 N1121 1.433 . S
C1146 C1147 1.363 . S
C1146 C1151 1.370 . S
C1147 H1120 0.929 . S
C1147 C1146 1.363 . S
C1147 C1148 1.385 . S
C1148 H1122 0.930 . S
C1148 C1147 1.385 . S
C1148 C1149 1.357 . S
C1149 C1148 1.357 . S
C1149 C1150 1.406 . S
C1150 H1124 0.929 . S
C1150 C1149 1.406 . S
C1150 C1151 1.391 . S
C1151 H1123 0.931 . S
C1151 C1146 1.370 . S
C1151 C1150 1.391 . S
C1152 N1121 1.435 . S
C1152 C1153 1.358 . S
C1152 C1157 1.371 . S
C1153 H1125 0.930 . S
C1153 C1152 1.358 . S
C1153 C1154 1.405 . S
C1154 H1126 0.932 . S
C1154 C1153 1.405 . S
C1154 C1155 1.383 . S
C1155 C1154 1.383 . S
C1155 C1156 1.393 . S
C1156 H1128 0.931 . S
C1156 C1155 1.393 . S
C1156 C1157 1.382 . S
C1157 H1127 0.929 . S
C1157 C1152 1.371 . S
C1157 C1156 1.382 . S
C1158 N1121 1.423 . S
C1158 C1159 1.362 . S
C1158 C1163 1.388 . S
C1159 H1129 0.929 . S
C1159 C1158 1.362 . S
C1159 C1160 1.376 . S
C1160 H1131 0.931 . S
C1160 C1159 1.376 . S
C1160 C1161 1.396 . S
C1161 C1160 1.396 . S
C1161 C1162 1.348 . S
C1161 C1179 1.472 . S
C1162 H1132 0.929 . S
C1162 C1161 1.348 . S
C1162 C1163 1.443 . S
C1163 H1130 0.932 . S
C1163 C1158 1.388 . S
C1163 C1162 1.443 . S
C1164 N1144 1.433 . S
C1164 C1165 1.363 . S
C1164 C1169 1.370 . S
C1165 H1133 0.929 . S
C1165 C1164 1.363 . S
C1165 C1166 1.385 . S
C1166 H1134 0.930 . S
C1166 C1165 1.385 . S
C1166 C1167 1.357 . S
C1167 C1166 1.357 . S
C1167 C1168 1.406 . S
C1168 H1135 0.929 . S
C1168 C1167 1.406 . S
C1168 C1169 1.391 . S
C1169 H1136 0.931 . S
C1169 C1164 1.370 . S
C1169 C1168 1.391 . S
C1170 N1144 1.435 . S
C1170 C1171 1.358 . S
C1170 C1175 1.371 . S
C1171 H1137 0.930 . S
C1171 C1170 1.358 . S
C1171 C1172 1.405 . S
C1172 H1138 0.932 . S
C1172 C1171 1.405 . S
C1172 C1173 1.383 . S
C1173 C1172 1.383 . S
C1173 C1174 1.393 . S
C1174 H1139 0.931 . S
C1174 C1173 1.393 . S
C1174 C1175 1.382 . S
C1175 H1140 0.929 . S
C1175 C1170 1.371 . S
C1175 C1174 1.382 . S
C1176 N1144 1.423 . S
C1176 C1177 1.362 . S
C1176 C1181 1.388 . S
C1177 H1141 0.929 . S
C1177 C1176 1.362 . S
C1177 C1178 1.376 . S
C1178 H1142 0.931 . S
C1178 C1177 1.376 . S
C1178 C1179 1.396 . S
C1179 C1161 1.472 . S
C1179 C1178 1.396 . S
C1179 C1180 1.348 . S
C1180 H1143 0.929 . S
C1180 C1179 1.348 . S
C1180 C1181 1.443 . S
C1181 H1145 0.932 . S
C1181 C1176 1.388 . S
C1181 C1180 1.443 . S
H1182 C1209 0.929 . S
N1183 C1208 1.433 . S
N1183 C1214 1.435 . S
N1183 C1220 1.423 . S
H1184 C1210 0.930 . S
H1185 C1213 0.931 . S
H1186 C1212 0.929 . S
H1187 C1215 0.930 . S
H1188 C1216 0.932 . S
H1189 C1219 0.929 . S
H1190 C1218 0.931 . S
H1191 C1221 0.929 . S
H1192 C1225 0.932 . S
H1193 C1222 0.931 . S
H1194 C1224 0.929 . S
H1195 C1227 0.929 . S
H1196 C1228 0.930 . S
H1197 C1230 0.929 . S
H1198 C1231 0.931 . S
H1199 C1233 0.930 . S
H1200 C1234 0.932 . S
H1201 C1236 0.931 . S
H1202 C1237 0.929 . S
H1203 C1239 0.929 . S
H1204 C1240 0.931 . S
H1205 C1242 0.929 . S
N1206 C1226 1.433 . S
N1206 C1232 1.435 . S
N1206 C1238 1.423 . S
H1207 C1243 0.932 . S
C1208 N1183 1.433 . S
C1208 C1209 1.363 . S
C1208 C1213 1.370 . S
C1209 H1182 0.929 . S
C1209 C1208 1.363 . S
C1209 C1210 1.385 . S
C1210 H1184 0.930 . S
C1210 C1209 1.385 . S
C1210 C1211 1.357 . S
C1211 C1210 1.357 . S
C1211 C1212 1.406 . S
C1212 H1186 0.929 . S
C1212 C1211 1.406 . S
C1212 C1213 1.391 . S
C1213 H1185 0.931 . S
C1213 C1208 1.370 . S
C1213 C1212 1.391 . S
C1214 N1183 1.435 . S
C1214 C1215 1.358 . S
C1214 C1219 1.371 . S
C1215 H1187 0.930 . S
C1215 C1214 1.358 . S
C1215 C1216 1.405 . S
C1216 H1188 0.932 . S
C1216 C1215 1.405 . S
C1216 C1217 1.383 . S
C1217 C1216 1.383 . S
C1217 C1218 1.393 . S
C1218 H1190 0.931 . S
C1218 C1217 1.393 . S
C1218 C1219 1.382 . S
C1219 H1189 0.929 . S
C1219 C1214 1.371 . S
C1219 C1218 1.382 . S
C1220 N1183 1.423 . S
C1220 C1221 1.362 . S
C1220 C1225 1.388 . S
C1221 H1191 0.929 . S
C1221 C1220 1.362 . S
C1221 C1222 1.376 . S
C1222 H1193 0.931 . S
C1222 C1221 1.376 . S
C1222 C1223 1.396 . S
C1223 C1222 1.396 . S
C1223 C1224 1.348 . S
C1223 C1241 1.472 . S
C1224 H1194 0.929 . S
C1224 C1223 1.348 . S
C1224 C1225 1.443 . S
C1225 H1192 0.932 . S
C1225 C1220 1.388 . S
C1225 C1224 1.443 . S
C1226 N1206 1.433 . S
C1226 C1227 1.363 . S
C1226 C1231 1.370 . S
C1227 H1195 0.929 . S
C1227 C1226 1.363 . S
C1227 C1228 1.385 . S
C1228 H1196 0.930 . S
C1228 C1227 1.385 . S
C1228 C1229 1.357 . S
C1229 C1228 1.357 . S
C1229 C1230 1.406 . S
C1230 H1197 0.929 . S
C1230 C1229 1.406 . S
C1230 C1231 1.391 . S
C1231 H1198 0.931 . S
C1231 C1226 1.370 . S
C1231 C1230 1.391 . S
C1232 N1206 1.435 . S
C1232 C1233 1.358 . S
C1232 C1237 1.371 . S
C1233 H1199 0.930 . S
C1233 C1232 1.358 . S
C1233 C1234 1.405 . S
C1234 H1200 0.932 . S
C1234 C1233 1.405 . S
C1234 C1235 1.383 . S
C1235 C1234 1.383 . S
C1235 C1236 1.393 . S
C1236 H1201 0.931 . S
C1236 C1235 1.393 . S
C1236 C1237 1.382 . S
C1237 H1202 0.929 . S
C1237 C1232 1.371 . S
C1237 C1236 1.382 . S
C1238 N1206 1.423 . S
C1238 C1239 1.362 . S
C1238 C1243 1.388 . S
C1239 H1203 0.929 . S
C1239 C1238 1.362 . S
C1239 C1240 1.376 . S
C1240 H1204 0.931 . S
C1240 C1239 1.376 . S
C1240 C1241 1.396 . S
C1241 C1223 1.472 . S
C1241 C1240 1.396 . S
C1241 C1242 1.348 . S
C1242 H1205 0.929 . S
C1242 C1241 1.348 . S
C1242 C1243 1.443 . S
C1243 H1207 0.932 . S
C1243 C1238 1.388 . S
C1243 C1242 1.443 . S
H1244 C1271 0.929 . S
N1245 C1270 1.433 . S
N1245 C1276 1.435 . S
N1245 C1282 1.423 . S
H1246 C1272 0.930 . S
H1247 C1275 0.931 . S
H1248 C1274 0.929 . S
H1249 C1277 0.930 . S
H1250 C1278 0.932 . S
H1251 C1281 0.929 . S
H1252 C1280 0.931 . S
H1253 C1283 0.929 . S
H1254 C1287 0.932 . S
H1255 C1284 0.931 . S
H1256 C1286 0.929 . S
H1257 C1289 0.929 . S
H1258 C1290 0.930 . S
H1259 C1292 0.929 . S
H1260 C1293 0.931 . S
H1261 C1295 0.930 . S
H1262 C1296 0.932 . S
H1263 C1298 0.931 . S
H1264 C1299 0.929 . S
H1265 C1301 0.929 . S
H1266 C1302 0.931 . S
H1267 C1304 0.929 . S
N1268 C1288 1.433 . S
N1268 C1294 1.435 . S
N1268 C1300 1.423 . S
H1269 C1305 0.932 . S
C1270 N1245 1.433 . S
C1270 C1271 1.363 . S
C1270 C1275 1.370 . S
C1271 H1244 0.929 . S
C1271 C1270 1.363 . S
C1271 C1272 1.385 . S
C1272 H1246 0.930 . S
C1272 C1271 1.385 . S
C1272 C1273 1.357 . S
C1273 C1272 1.357 . S
C1273 C1274 1.406 . S
C1274 H1248 0.929 . S
C1274 C1273 1.406 . S
C1274 C1275 1.391 . S
C1275 H1247 0.931 . S
C1275 C1270 1.370 . S
C1275 C1274 1.391 . S
C1276 N1245 1.435 . S
C1276 C1277 1.358 . S
C1276 C1281 1.371 . S
C1277 H1249 0.930 . S
C1277 C1276 1.358 . S
C1277 C1278 1.405 . S
C1278 H1250 0.932 . S
C1278 C1277 1.405 . S
C1278 C1279 1.383 . S
C1279 C1278 1.383 . S
C1279 C1280 1.393 . S
C1280 H1252 0.931 . S
C1280 C1279 1.393 . S
C1280 C1281 1.382 . S
C1281 H1251 0.929 . S
C1281 C1276 1.371 . S
C1281 C1280 1.382 . S
C1282 N1245 1.423 . S
C1282 C1283 1.362 . S
C1282 C1287 1.388 . S
C1283 H1253 0.929 . S
C1283 C1282 1.362 . S
C1283 C1284 1.376 . S
C1284 H1255 0.931 . S
C1284 C1283 1.376 . S
C1284 C1285 1.396 . S
C1285 C1284 1.396 . S
C1285 C1286 1.348 . S
C1285 C1303 1.472 . S
C1286 H1256 0.929 . S
C1286 C1285 1.348 . S
C1286 C1287 1.443 . S
C1287 H1254 0.932 . S
C1287 C1282 1.388 . S
C1287 C1286 1.443 . S
C1288 N1268 1.433 . S
C1288 C1289 1.363 . S
C1288 C1293 1.370 . S
C1289 H1257 0.929 . S
C1289 C1288 1.363 . S
C1289 C1290 1.385 . S
C1290 H1258 0.930 . S
C1290 C1289 1.385 . S
C1290 C1291 1.357 . S
C1291 C1290 1.357 . S
C1291 C1292 1.406 . S
C1292 H1259 0.929 . S
C1292 C1291 1.406 . S
C1292 C1293 1.391 . S
C1293 H1260 0.931 . S
C1293 C1288 1.370 . S
C1293 C1292 1.391 . S
C1294 N1268 1.435 . S
C1294 C1295 1.358 . S
C1294 C1299 1.371 . S
C1295 H1261 0.930 . S
C1295 C1294 1.358 . S
C1295 C1296 1.405 . S
C1296 H1262 0.932 . S
C1296 C1295 1.405 . S
C1296 C1297 1.383 . S
C1297 C1296 1.383 . S
C1297 C1298 1.393 . S
C1298 H1263 0.931 . S
C1298 C1297 1.393 . S
C1298 C1299 1.382 . S
C1299 H1264 0.929 . S
C1299 C1294 1.371 . S
C1299 C1298 1.382 . S
C1300 N1268 1.423 . S
C1300 C1301 1.362 . S
C1300 C1305 1.388 . S
C1301 H1265 0.929 . S
C1301 C1300 1.362 . S
C1301 C1302 1.376 . S
C1302 H1266 0.931 . S
C1302 C1301 1.376 . S
C1302 C1303 1.396 . S
C1303 C1285 1.472 . S
C1303 C1302 1.396 . S
C1303 C1304 1.348 . S
C1304 H1267 0.929 . S
C1304 C1303 1.348 . S
C1304 C1305 1.443 . S
C1305 H1269 0.932 . S
C1305 C1300 1.388 . S
C1305 C1304 1.443 . S
H1306 C1333 0.929 . S
N1307 C1332 1.433 . S
N1307 C1338 1.435 . S
N1307 C1344 1.423 . S
H1308 C1334 0.930 . S
H1309 C1337 0.931 . S
H1310 C1336 0.929 . S
H1311 C1339 0.930 . S
H1312 C1340 0.932 . S
H1313 C1343 0.929 . S
H1314 C1342 0.931 . S
H1315 C1345 0.929 . S
H1316 C1349 0.932 . S
H1317 C1346 0.931 . S
H1318 C1348 0.929 . S
H1319 C1351 0.929 . S
H1320 C1352 0.930 . S
H1321 C1354 0.929 . S
H1322 C1355 0.931 . S
H1323 C1357 0.930 . S
H1324 C1358 0.932 . S
H1325 C1360 0.931 . S
H1326 C1361 0.929 . S
H1327 C1363 0.929 . S
H1328 C1364 0.931 . S
H1329 C1366 0.929 . S
N1330 C1350 1.433 . S
N1330 C1356 1.435 . S
N1330 C1362 1.423 . S
H1331 C1367 0.932 . S
C1332 N1307 1.433 . S
C1332 C1333 1.363 . S
C1332 C1337 1.370 . S
C1333 H1306 0.929 . S
C1333 C1332 1.363 . S
C1333 C1334 1.385 . S
C1334 H1308 0.930 . S
C1334 C1333 1.385 . S
C1334 C1335 1.357 . S
C1335 C1334 1.357 . S
C1335 C1336 1.406 . S
C1336 H1310 0.929 . S
C1336 C1335 1.406 . S
C1336 C1337 1.391 . S
C1337 H1309 0.931 . S
C1337 C1332 1.370 . S
C1337 C1336 1.391 . S
C1338 N1307 1.435 . S
C1338 C1339 1.358 . S
C1338 C1343 1.371 . S
C1339 H1311 0.930 . S
C1339 C1338 1.358 . S
C1339 C1340 1.405 . S
C1340 H1312 0.932 . S
C1340 C1339 1.405 . S
C1340 C1341 1.383 . S
C1341 C1340 1.383 . S
C1341 C1342 1.393 . S
C1342 H1314 0.931 . S
C1342 C1341 1.393 . S
C1342 C1343 1.382 . S
C1343 H1313 0.929 . S
C1343 C1338 1.371 . S
C1343 C1342 1.382 . S
C1344 N1307 1.423 . S
C1344 C1345 1.362 . S
C1344 C1349 1.388 . S
C1345 H1315 0.929 . S
C1345 C1344 1.362 . S
C1345 C1346 1.376 . S
C1346 H1317 0.931 . S
C1346 C1345 1.376 . S
C1346 C1347 1.396 . S
C1347 C1346 1.396 . S
C1347 C1348 1.348 . S
C1347 C1365 1.472 . S
C1348 H1318 0.929 . S
C1348 C1347 1.348 . S
C1348 C1349 1.443 . S
C1349 H1316 0.932 . S
C1349 C1344 1.388 . S
C1349 C1348 1.443 . S
C1350 N1330 1.433 . S
C1350 C1351 1.363 . S
C1350 C1355 1.370 . S
C1351 H1319 0.929 . S
C1351 C1350 1.363 . S
C1351 C1352 1.385 . S
C1352 H1320 0.930 . S
C1352 C1351 1.385 . S
C1352 C1353 1.357 . S
C1353 C1352 1.357 . S
C1353 C1354 1.406 . S
C1354 H1321 0.929 . S
C1354 C1353 1.406 . S
C1354 C1355 1.391 . S
C1355 H1322 0.931 . S
C1355 C1350 1.370 . S
C1355 C1354 1.391 . S
C1356 N1330 1.435 . S
C1356 C1357 1.358 . S
C1356 C1361 1.371 . S
C1357 H1323 0.930 . S
C1357 C1356 1.358 . S
C1357 C1358 1.405 . S
C1358 H1324 0.932 . S
C1358 C1357 1.405 . S
C1358 C1359 1.383 . S
C1359 C1358 1.383 . S
C1359 C1360 1.393 . S
C1360 H1325 0.931 . S
C1360 C1359 1.393 . S
C1360 C1361 1.382 . S
C1361 H1326 0.929 . S
C1361 C1356 1.371 . S
C1361 C1360 1.382 . S
C1362 N1330 1.423 . S
C1362 C1363 1.362 . S
C1362 C1367 1.388 . S
C1363 H1327 0.929 . S
C1363 C1362 1.362 . S
C1363 C1364 1.376 . S
C1364 H1328 0.931 . S
C1364 C1363 1.376 . S
C1364 C1365 1.396 . S
C1365 C1347 1.472 . S
C1365 C1364 1.396 . S
C1365 C1366 1.348 . S
C1366 H1329 0.929 . S
C1366 C1365 1.348 . S
C1366 C1367 1.443 . S
C1367 H1331 0.932 . S
C1367 C1362 1.388 . S
C1367 C1366 1.443 . S
H1368 C1369 0.951 . S
C1369 H1368 0.951 . S
C1369 C1375 1.265 1_655 S
H1370 C1375 0.950 . S
H1371 C1379 0.949 . S
H1372 C1380 0.950 . S
H1373 C1381 0.951 . S
H1374 C1382 0.951 . S
C1375 C1369 1.265 1_455 S
C1375 H1370 0.950 . S
C1375 C1376 1.514 . S
C1376 C1375 1.514 . S
C1376 C1377 1.389 . S
C1376 C1393 1.370 1_455 S
C1377 C1376 1.389 . S
C1377 C1378 1.438 . S
C1377 C1382 1.429 . S
C1378 C1377 1.438 . S
C1378 C1379 1.428 . S
C1378 C1391 1.394 1_455 S
C1379 H1371 0.949 . S
C1379 C1378 1.428 . S
C1379 C1380 1.345 . S
C1380 H1372 0.950 . S
C1380 C1379 1.345 . S
C1380 C1381 1.424 . S
C1381 H1373 0.951 . S
C1381 C1380 1.424 . S
C1381 C1382 1.347 . S
C1382 H1374 0.951 . S
C1382 C1377 1.429 . S
C1382 C1381 1.347 . S
H1383 C1384 0.951 1_455 S
C1384 H1383 0.951 1_655 S
C1384 C1390 1.265 . S
H1385 C1390 0.950 . S
H1386 C1394 0.949 . S
H1387 C1395 0.950 . S
H1388 C1396 0.951 . S
H1389 C1397 0.951 . S
C1390 C1384 1.265 . S
C1390 H1385 0.950 . S
C1390 C1391 1.478 . S
C1391 C1378 1.394 1_655 S
C1391 C1390 1.478 . S
C1391 C1392 1.397 . S
C1392 C1391 1.397 . S
C1392 C1393 1.438 . S
C1392 C1397 1.429 . S
C1393 C1376 1.370 1_655 S
C1393 C1392 1.438 . S
C1393 C1394 1.428 . S
C1394 H1386 0.949 . S
C1394 C1393 1.428 . S
C1394 C1395 1.345 . S
C1395 H1387 0.950 . S
C1395 C1394 1.345 . S
C1395 C1396 1.424 . S
C1396 H1388 0.951 . S
C1396 C1395 1.424 . S
C1396 C1397 1.347 . S
C1397 H1389 0.951 . S
C1397 C1392 1.429 . S
C1397 C1396 1.347 . S
H1398 C1399 0.951 . S
C1399 H1398 0.951 . S
C1399 C1405 1.265 . S
H1400 C1405 0.950 . S
H1401 C1409 0.949 . S
H1402 C1410 0.950 . S
H1403 C1411 0.951 . S
H1404 C1412 0.951 . S
C1405 C1399 1.265 . S
C1405 H1400 0.950 . S
C1405 C1406 1.478 . S
C1406 C1405 1.478 . S
C1406 C1407 1.397 . S
C1406 C1423 1.394 . S
C1407 C1406 1.397 . S
C1407 C1408 1.438 . S
C1407 C1412 1.429 . S
C1408 C1407 1.438 . S
C1408 C1409 1.428 . S
C1408 C1421 1.394 . S
C1409 H1401 0.949 . S
C1409 C1408 1.428 . S
C1409 C1410 1.345 . S
C1410 H1402 0.950 . S
C1410 C1409 1.345 . S
C1410 C1411 1.424 . S
C1411 H1403 0.951 . S
C1411 C1410 1.424 . S
C1411 C1412 1.347 . S
C1412 H1404 0.951 . S
C1412 C1407 1.429 . S
C1412 C1411 1.347 . S
H1413 C1414 0.951 . S
C1414 H1413 0.951 . S
C1414 C1420 1.265 . S
H1415 C1420 0.950 . S
H1416 C1424 0.949 . S
H1417 C1425 0.950 . S
H1418 C1426 0.951 . S
H1419 C1427 0.951 . S
C1420 C1414 1.265 . S
C1420 H1415 0.950 . S
C1420 C1421 1.478 . S
C1421 C1408 1.394 . S
C1421 C1420 1.478 . S
C1421 C1422 1.397 . S
C1422 C1421 1.397 . S
C1422 C1423 1.438 . S
C1422 C1427 1.429 . S
C1423 C1406 1.394 . S
C1423 C1422 1.438 . S
C1423 C1424 1.428 . S
C1424 H1416 0.949 . S
C1424 C1423 1.428 . S
C1424 C1425 1.345 . S
C1425 H1417 0.950 . S
C1425 C1424 1.345 . S
C1425 C1426 1.424 . S
C1426 H1418 0.951 . S
C1426 C1425 1.424 . S
C1426 C1427 1.347 . S
C1427 H1419 0.951 . S
C1427 C1422 1.429 . S
C1427 C1426 1.347 . S
H1428 C1429 0.951 . S
C1429 H1428 0.951 . S
C1429 C1435 1.265 . S
H1430 C1435 0.950 . S
H1431 C1439 0.949 . S
H1432 C1440 0.950 . S
H1433 C1441 0.951 . S
H1434 C1442 0.951 . S
C1435 C1429 1.265 . S
C1435 H1430 0.950 . S
C1435 C1436 1.478 . S
C1436 C1435 1.478 . S
C1436 C1437 1.397 . S
C1436 C1453 1.394 1_545 S
C1437 C1436 1.397 . S
C1437 C1438 1.438 . S
C1437 C1442 1.429 . S
C1438 C1437 1.438 . S
C1438 C1439 1.428 . S
C1438 C1451 1.394 . S
C1439 H1431 0.949 . S
C1439 C1438 1.428 . S
C1439 C1440 1.345 . S
C1440 H1432 0.950 . S
C1440 C1439 1.345 . S
C1440 C1441 1.424 . S
C1441 H1433 0.951 . S
C1441 C1440 1.424 . S
C1441 C1442 1.347 . S
C1442 H1434 0.951 . S
C1442 C1437 1.429 . S
C1442 C1441 1.347 . S
H1443 C1444 0.951 . S
C1444 H1443 0.951 . S
C1444 C1450 1.265 . S
H1445 C1450 0.950 . S
H1446 C1454 0.949 . S
H1447 C1455 0.950 . S
H1448 C1456 0.951 . S
H1449 C1457 0.951 . S
C1450 C1444 1.265 . S
C1450 H1445 0.950 . S
C1450 C1451 1.478 . S
C1451 C1438 1.394 . S
C1451 C1450 1.478 . S
C1451 C1452 1.397 1_545 S
C1452 C1451 1.397 1_565 S
C1452 C1453 1.438 . S
C1452 C1457 1.429 . S
C1453 C1436 1.394 1_565 S
C1453 C1452 1.438 . S
C1453 C1454 1.428 . S
C1454 H1446 0.949 . S
C1454 C1453 1.428 . S
C1454 C1455 1.345 . S
C1455 H1447 0.950 . S
C1455 C1454 1.345 . S
C1455 C1456 1.424 . S
C1456 H1448 0.951 . S
C1456 C1455 1.424 . S
C1456 C1457 1.347 . S
C1457 H1449 0.951 . S
C1457 C1452 1.429 . S
C1457 C1456 1.347 . S
H1458 C1459 0.951 . S
C1459 H1458 0.951 . S
C1459 C1465 1.265 . S
H1460 C1465 0.950 . S
H1461 C1469 0.949 . S
H1462 C1470 0.950 . S
H1463 C1471 0.951 . S
H1464 C1472 0.951 . S
C1465 C1459 1.265 . S
C1465 H1460 0.950 . S
C1465 C1466 1.478 . S
C1466 C1465 1.478 . S
C1466 C1467 1.397 . S
C1466 C1483 1.394 1_565 S
C1467 C1466 1.397 . S
C1467 C1468 1.438 . S
C1467 C1472 1.429 . S
C1468 C1467 1.438 . S
C1468 C1469 1.428 . S
C1468 C1481 1.394 . S
C1469 H1461 0.949 . S
C1469 C1468 1.428 . S
C1469 C1470 1.345 . S
C1470 H1462 0.950 . S
C1470 C1469 1.345 . S
C1470 C1471 1.424 . S
C1471 H1463 0.951 . S
C1471 C1470 1.424 . S
C1471 C1472 1.347 . S
C1472 H1464 0.951 . S
C1472 C1467 1.429 . S
C1472 C1471 1.347 . S
H1473 C1474 0.951 . S
C1474 H1473 0.951 . S
C1474 C1480 1.265 . S
H1475 C1480 0.950 . S
H1476 C1484 0.949 . S
H1477 C1485 0.950 . S
H1478 C1486 0.951 . S
H1479 C1487 0.951 . S
C1480 C1474 1.265 . S
C1480 H1475 0.950 . S
C1480 C1481 1.478 . S
C1481 C1468 1.394 . S
C1481 C1480 1.478 . S
C1481 C1482 1.397 1_565 S
C1482 C1481 1.397 1_545 S
C1482 C1483 1.438 . S
C1482 C1487 1.429 . S
C1483 C1466 1.394 1_545 S
C1483 C1482 1.438 . S
C1483 C1484 1.428 . S
C1484 H1476 0.949 . S
C1484 C1483 1.428 . S
C1484 C1485 1.345 . S
C1485 H1477 0.950 . S
C1485 C1484 1.345 . S
C1485 C1486 1.424 . S
C1486 H1478 0.951 . S
C1486 C1485 1.424 . S
C1486 C1487 1.347 . S
C1487 H1479 0.951 . S
C1487 C1482 1.429 . S
C1487 C1486 1.347 . S
H1488 C1489 0.951 . S
C1489 H1488 0.951 . S
C1489 C1495 1.265 . S
H1490 C1495 0.950 1_655 S
H1491 C1499 0.949 . S
H1492 C1500 0.950 . S
H1493 C1501 0.951 . S
H1494 C1502 0.951 . S
C1495 C1489 1.265 . S
C1495 H1490 0.950 1_455 S
C1495 C1496 1.478 . S
C1496 C1495 1.478 . S
C1496 C1497 1.397 . S
C1496 C1513 1.394 . S
C1497 C1496 1.397 . S
C1497 C1498 1.438 . S
C1497 C1502 1.429 . S
C1498 C1497 1.438 . S
C1498 C1499 1.428 . S
C1498 C1511 1.394 . S
C1499 H1491 0.949 . S
C1499 C1498 1.428 . S
C1499 C1500 1.345 . S
C1500 H1492 0.950 . S
C1500 C1499 1.345 . S
C1500 C1501 1.424 . S
C1501 H1493 0.951 . S
C1501 C1500 1.424 . S
C1501 C1502 1.347 . S
C1502 H1494 0.951 . S
C1502 C1497 1.429 . S
C1502 C1501 1.347 . S
H1503 C1504 0.951 1_655 S
C1504 H1503 0.951 1_455 S
C1504 C1510 1.265 . S
H1505 C1510 0.950 . S
H1506 C1514 0.949 . S
H1507 C1515 0.950 . S
H1508 C1516 0.951 . S
H1509 C1517 0.969 . S
C1510 C1504 1.265 . S
C1510 H1505 0.950 . S
C1510 C1511 1.478 . S
C1511 C1498 1.394 . S
C1511 C1510 1.478 . S
C1511 C1512 1.397 . S
C1512 C1511 1.397 . S
C1512 C1513 1.438 . S
C1512 C1517 1.429 . S
C1513 C1496 1.394 . S
C1513 C1512 1.438 . S
C1513 C1514 1.428 1_455 S
C1514 H1506 0.949 . S
C1514 C1513 1.428 1_655 S
C1514 C1515 1.345 . S
C1515 H1507 0.950 . S
C1515 C1514 1.345 . S
C1515 C1516 1.424 . S
C1516 H1508 0.951 . S
C1516 C1515 1.424 . S
C1516 C1517 1.349 1_655 S
C1517 H1509 0.969 . S
C1517 C1512 1.429 . S
C1517 C1516 1.349 1_455 S
H1518 C1519 0.951 . S
C1519 H1518 0.951 . S
C1519 C1525 1.265 . S
H1520 C1525 0.950 . S
H1521 C1529 0.949 . S
H1522 C1530 0.950 . S
H1523 C1531 0.951 . S
H1524 C1532 0.951 . S
C1525 C1519 1.265 . S
C1525 H1520 0.950 . S
C1525 C1526 1.478 . S
C1526 C1525 1.478 . S
C1526 C1527 1.397 . S
C1526 C1543 1.394 . S
C1527 C1526 1.397 . S
C1527 C1528 1.438 . S
C1527 C1532 1.429 . S
C1528 C1527 1.438 . S
C1528 C1529 1.428 . S
C1528 C1541 1.394 . S
C1529 H1521 0.949 . S
C1529 C1528 1.428 . S
C1529 C1530 1.345 . S
C1530 H1522 0.950 . S
C1530 C1529 1.345 . S
C1530 C1531 1.424 . S
C1531 H1523 0.951 . S
C1531 C1530 1.424 . S
C1531 C1532 1.347 . S
C1532 H1524 0.951 . S
C1532 C1527 1.429 . S
C1532 C1531 1.347 . S
H1533 C1534 0.951 . S
C1534 H1533 0.951 . S
C1534 C1540 1.265 . S
H1535 C1540 0.950 . S
H1536 C1544 0.949 . S
H1537 C1545 0.950 . S
H1538 C1546 0.951 . S
H1539 C1547 0.951 . S
C1540 C1534 1.265 . S
C1540 H1535 0.950 . S
C1540 C1541 1.478 . S
C1541 C1528 1.394 . S
C1541 C1540 1.478 . S
C1541 C1542 1.397 . S
C1542 C1541 1.397 . S
C1542 C1543 1.438 . S
C1542 C1547 1.429 . S
C1543 C1526 1.394 . S
C1543 C1542 1.438 . S
C1543 C1544 1.428 . S
C1544 H1536 0.949 . S
C1544 C1543 1.428 . S
C1544 C1545 1.345 . S
C1545 H1537 0.950 . S
C1545 C1544 1.345 . S
C1545 C1546 1.424 . S
C1546 H1538 0.951 . S
C1546 C1545 1.424 . S
C1546 C1547 1.347 . S
C1547 H1539 0.951 . S
C1547 C1542 1.429 . S
C1547 C1546 1.347 . S
H1548 C1549 0.951 1_655 S
C1549 H1548 0.951 1_455 S
C1549 C1555 1.265 . S
H1550 C1555 0.950 . S
H1551 C1559 0.949 . S
H1552 C1560 0.950 . S
H1553 C1561 0.951 . S
H1554 C1562 0.951 . S
C1555 C1549 1.265 . S
C1555 H1550 0.950 . S
C1555 C1556 1.478 . S
C1556 C1555 1.478 . S
C1556 C1557 1.397 . S
C1556 C1573 1.394 . S
C1557 C1556 1.397 . S
C1557 C1558 1.438 . S
C1557 C1562 1.429 . S
C1558 C1557 1.438 . S
C1558 C1559 1.428 . S
C1558 C1571 1.394 . S
C1559 H1551 0.949 . S
C1559 C1558 1.428 . S
C1559 C1560 1.345 . S
C1560 H1552 0.950 . S
C1560 C1559 1.345 . S
C1560 C1561 1.424 . S
C1561 H1553 0.951 . S
C1561 C1560 1.424 . S
C1561 C1562 1.347 . S
C1562 H1554 0.951 . S
C1562 C1557 1.429 . S
C1562 C1561 1.347 . S
H1563 C1564 0.951 . S
C1564 H1563 0.951 . S
C1564 C1570 1.265 1_455 S
H1565 C1570 0.950 . S
H1566 C1574 0.949 . S
H1567 C1575 0.950 . S
H1568 C1576 0.951 . S
H1569 C1577 0.951 . S
C1570 C1564 1.265 1_655 S
C1570 H1565 0.950 . S
C1570 C1571 1.478 1_655 S
C1571 C1558 1.394 . S
C1571 C1570 1.478 1_455 S
C1571 C1572 1.435 . S
C1572 C1571 1.435 . S
C1572 C1573 1.428 . S
C1572 C1577 1.403 1_455 S
C1573 C1556 1.394 . S
C1573 C1572 1.428 . S
C1573 C1574 1.428 . S
C1574 H1566 0.949 . S
C1574 C1573 1.428 . S
C1574 C1575 1.345 1_455 S
C1575 H1567 0.950 . S
C1575 C1574 1.345 1_655 S
C1575 C1576 1.424 . S
C1576 H1568 0.951 . S
C1576 C1575 1.424 . S
C1576 C1577 1.347 . S
C1577 H1569 0.951 . S
C1577 C1572 1.403 1_655 S
C1577 C1576 1.347 . S
H1578 C1579 0.951 . S
C1579 H1578 0.951 . S
C1579 C1585 1.265 . S
H1580 C1585 0.950 . S
H1581 C1589 0.949 . S
H1582 C1590 0.950 . S
H1583 C1591 0.951 . S
H1584 C1592 0.951 . S
C1585 C1579 1.265 . S
C1585 H1580 0.950 . S
C1585 C1586 1.478 . S
C1586 C1585 1.478 . S
C1586 C1587 1.397 . S
C1586 C1603 1.394 . S
C1587 C1586 1.397 . S
C1587 C1588 1.438 . S
C1587 C1592 1.429 . S
C1588 C1587 1.438 . S
C1588 C1589 1.428 . S
C1588 C1601 1.394 . S
C1589 H1581 0.949 . S
C1589 C1588 1.428 . S
C1589 C1590 1.345 . S
C1590 H1582 0.950 . S
C1590 C1589 1.345 . S
C1590 C1591 1.424 . S
C1591 H1583 0.951 . S
C1591 C1590 1.424 . S
C1591 C1592 1.347 . S
C1592 H1584 0.951 . S
C1592 C1587 1.429 . S
C1592 C1591 1.347 . S
H1593 C1594 0.951 . S
C1594 H1593 0.951 . S
C1594 C1600 1.265 . S
H1595 C1600 0.950 . S
H1596 C1604 0.949 . S
H1597 C1605 0.950 . S
H1598 C1606 0.951 . S
H1599 C1607 0.951 . S
C1600 C1594 1.265 . S
C1600 H1595 0.950 . S
C1600 C1601 1.478 . S
C1601 C1588 1.394 . S
C1601 C1600 1.478 . S
C1601 C1602 1.397 . S
C1602 C1601 1.397 . S
C1602 C1603 1.438 . S
C1602 C1607 1.429 . S
C1603 C1586 1.394 . S
C1603 C1602 1.438 . S
C1603 C1604 1.428 . S
C1604 H1596 0.949 . S
C1604 C1603 1.428 . S
C1604 C1605 1.345 . S
C1605 H1597 0.950 . S
C1605 C1604 1.345 . S
C1605 C1606 1.424 . S
C1606 H1598 0.951 . S
C1606 C1605 1.424 . S
C1606 C1607 1.347 . S
C1607 H1599 0.951 . S
C1607 C1602 1.429 . S
C1607 C1606 1.347 . S
H1608 C1609 0.979 . S
C1609 H1608 0.979 . S
C1609 C1615 1.265 . S
H1610 C1615 0.950 . S
H1611 C1619 0.949 . S
H1612 C1620 0.950 . S
H1613 C1621 0.951 . S
H1614 C1622 0.951 . S
C1615 C1609 1.265 . S
C1615 H1610 0.950 . S
C1615 C1616 1.478 . S
C1616 C1615 1.478 . S
C1616 C1617 1.397 . S
C1616 C1633 1.394 1_565 S
C1617 C1616 1.397 . S
C1617 C1618 1.438 . S
C1617 C1622 1.429 . S
C1618 C1617 1.438 . S
C1618 C1619 1.428 . S
C1618 C1631 1.394 . S
C1619 H1611 0.949 . S
C1619 C1618 1.428 . S
C1619 C1620 1.345 . S
C1620 H1612 0.950 . S
C1620 C1619 1.345 . S
C1620 C1621 1.424 . S
C1621 H1613 0.951 . S
C1621 C1620 1.424 . S
C1621 C1622 1.347 . S
C1622 H1614 0.951 . S
C1622 C1617 1.429 . S
C1622 C1621 1.347 . S
H1623 C1624 0.951 . S
C1624 H1623 0.951 . S
C1624 C1630 1.265 . S
H1625 C1630 0.950 . S
H1626 C1634 0.949 . S
H1627 C1635 0.950 . S
H1628 C1636 0.951 . S
H1629 C1637 0.951 . S
C1630 C1624 1.265 . S
C1630 H1625 0.950 . S
C1630 C1631 1.478 . S
C1631 C1618 1.394 . S
C1631 C1630 1.478 . S
C1631 C1632 1.397 1_565 S
C1632 C1631 1.397 1_545 S
C1632 C1633 1.438 . S
C1632 C1637 1.429 . S
C1633 C1616 1.394 1_545 S
C1633 C1632 1.438 . S
C1633 C1634 1.428 . S
C1634 H1626 0.949 . S
C1634 C1633 1.428 . S
C1634 C1635 1.345 . S
C1635 H1627 0.950 . S
C1635 C1634 1.345 . S
C1635 C1636 1.424 . S
C1636 H1628 0.951 . S
C1636 C1635 1.424 . S
C1636 C1637 1.347 . S
C1637 H1629 0.951 . S
C1637 C1632 1.429 . S
C1637 C1636 1.347 . S
H1638 C1639 0.951 . S
C1639 H1638 0.951 . S
C1639 C1645 1.265 . S
H1640 C1645 0.950 . S
H1641 C1649 0.949 . S
H1642 C1650 0.950 . S
H1643 C1651 0.951 . S
H1644 C1652 0.951 . S
C1645 C1639 1.265 . S
C1645 H1640 0.950 . S
C1645 C1646 1.478 . S
C1646 C1645 1.478 . S
C1646 C1647 1.397 1_545 S
C1646 C1663 1.394 . S
C1647 C1646 1.397 1_565 S
C1647 C1648 1.438 . S
C1647 C1652 1.429 . S
C1648 C1647 1.438 . S
C1648 C1649 1.428 . S
C1648 C1661 1.394 1_565 S
C1649 H1641 0.949 . S
C1649 C1648 1.428 . S
C1649 C1650 1.345 . S
C1650 H1642 0.950 . S
C1650 C1649 1.345 . S
C1650 C1651 1.424 . S
C1651 H1643 0.951 . S
C1651 C1650 1.424 . S
C1651 C1652 1.347 . S
C1652 H1644 0.951 . S
C1652 C1647 1.429 . S
C1652 C1651 1.347 . S
H1653 C1654 0.951 . S
C1654 H1653 0.951 . S
C1654 C1660 1.265 . S
H1655 C1660 0.950 . S
H1656 C1664 0.949 . S
H1657 C1665 0.950 . S
H1658 C1666 0.951 . S
H1659 C1667 0.951 . S
C1660 C1654 1.265 . S
C1660 H1655 0.950 . S
C1660 C1661 1.478 . S
C1661 C1648 1.394 1_545 S
C1661 C1660 1.478 . S
C1661 C1662 1.397 . S
C1662 C1661 1.397 . S
C1662 C1663 1.438 . S
C1662 C1667 1.429 . S
C1663 C1646 1.394 . S
C1663 C1662 1.438 . S
C1663 C1664 1.428 . S
C1664 H1656 0.949 . S
C1664 C1663 1.428 . S
C1664 C1665 1.345 . S
C1665 H1657 0.950 . S
C1665 C1664 1.345 . S
C1665 C1666 1.424 . S
C1666 H1658 0.951 . S
C1666 C1665 1.424 . S
C1666 C1667 1.347 . S
C1667 H1659 0.951 . S
C1667 C1662 1.429 . S
C1667 C1666 1.347 . S
H1668 C1669 0.951 1_455 S
C1669 H1668 0.951 1_655 S
C1669 C1675 1.265 . S
H1670 C1675 0.950 . S
H1671 C1679 0.949 . S
H1672 C1680 0.950 . S
H1673 C1681 0.951 . S
H1674 C1682 0.951 . S
C1675 C1669 1.265 . S
C1675 H1670 0.950 . S
C1675 C1676 1.478 . S
C1676 C1675 1.478 . S
C1676 C1677 1.397 . S
C1676 C1693 1.386 1_655 S
C1677 C1676 1.397 . S
C1677 C1678 1.438 . S
C1677 C1682 1.429 . S
C1678 C1677 1.438 . S
C1678 C1679 1.428 . S
C1678 C1691 1.394 . S
C1679 H1671 0.949 . S
C1679 C1678 1.428 . S
C1679 C1680 1.345 . S
C1680 H1672 0.950 . S
C1680 C1679 1.345 . S
C1680 C1681 1.424 . S
C1681 H1673 0.951 . S
C1681 C1680 1.424 . S
C1681 C1682 1.347 . S
C1682 H1674 0.951 . S
C1682 C1677 1.429 . S
C1682 C1681 1.347 . S
H1683 C1684 0.951 . S
C1684 H1683 0.951 . S
C1684 C1690 1.265 1_655 S
H1685 C1690 0.950 . S
H1686 C1694 0.949 . S
H1687 C1695 0.950 . S
H1688 C1696 0.951 . S
H1689 C1697 0.951 . S
C1690 C1684 1.265 1_455 S
C1690 H1685 0.950 . S
C1690 C1691 1.478 1_455 S
C1691 C1678 1.394 . S
C1691 C1690 1.478 1_655 S
C1691 C1692 1.397 1_655 S
C1692 C1691 1.397 1_455 S
C1692 C1693 1.448 . S
C1692 C1697 1.429 . S
C1693 C1676 1.386 1_455 S
C1693 C1692 1.448 . S
C1693 C1694 1.426 . S
C1694 H1686 0.949 . S
C1694 C1693 1.426 . S
C1694 C1695 1.345 . S
C1695 H1687 0.950 . S
C1695 C1694 1.345 . S
C1695 C1696 1.424 . S
C1696 H1688 0.951 . S
C1696 C1695 1.424 . S
C1696 C1697 1.347 . S
C1697 H1689 0.951 . S
C1697 C1692 1.429 . S
C1697 C1696 1.347 . S
H1698 C1699 0.951 . S
C1699 H1698 0.951 . S
C1699 C1705 1.265 . S
H1700 C1705 0.950 . S
H1701 C1709 0.949 . S
H1702 C1710 0.950 . S
H1703 C1711 0.951 . S
H1704 C1712 0.951 . S
C1705 C1699 1.265 . S
C1705 H1700 0.950 . S
C1705 C1706 1.478 . S
C1706 C1705 1.478 . S
C1706 C1707 1.397 . S
C1706 C1723 1.394 . S
C1707 C1706 1.397 . S
C1707 C1708 1.438 . S
C1707 C1712 1.429 . S
C1708 C1707 1.438 . S
C1708 C1709 1.428 . S
C1708 C1721 1.394 . S
C1709 H1701 0.949 . S
C1709 C1708 1.428 . S
C1709 C1710 1.345 . S
C1710 H1702 0.950 . S
C1710 C1709 1.345 . S
C1710 C1711 1.424 . S
C1711 H1703 0.951 . S
C1711 C1710 1.424 . S
C1711 C1712 1.347 . S
C1712 H1704 0.951 . S
C1712 C1707 1.429 . S
C1712 C1711 1.347 . S
H1713 C1714 0.951 . S
C1714 H1713 0.951 . S
C1714 C1720 1.265 . S
H1715 C1720 0.950 . S
H1716 C1724 0.949 . S
H1717 C1725 0.950 . S
H1718 C1726 0.951 . S
H1719 C1727 0.951 . S
C1720 C1714 1.265 . S
C1720 H1715 0.950 . S
C1720 C1721 1.478 . S
C1721 C1708 1.394 . S
C1721 C1720 1.478 . S
C1721 C1722 1.397 . S
C1722 C1721 1.397 . S
C1722 C1723 1.438 . S
C1722 C1727 1.429 . S
C1723 C1706 1.394 . S
C1723 C1722 1.438 . S
C1723 C1724 1.428 . S
C1724 H1716 0.949 . S
C1724 C1723 1.428 . S
C1724 C1725 1.345 . S
C1725 H1717 0.950 . S
C1725 C1724 1.345 . S
C1725 C1726 1.424 . S
C1726 H1718 0.951 . S
C1726 C1725 1.424 . S
C1726 C1727 1.347 . S
C1727 H1719 0.951 . S
C1727 C1722 1.429 . S
C1727 C1726 1.347 . S
H1728 C1729 0.951 . S
C1729 H1728 0.951 . S
C1729 C1735 1.265 . S
H1730 C1735 0.950 . S
H1731 C1739 0.949 . S
H1732 C1740 0.950 . S
H1733 C1741 0.951 . S
H1734 C1742 0.951 . S
C1735 C1729 1.265 . S
C1735 H1730 0.950 . S
C1735 C1736 1.478 . S
C1736 C1735 1.478 . S
C1736 C1737 1.397 . S
C1736 C1753 1.394 . S
C1737 C1736 1.397 . S
C1737 C1738 1.438 . S
C1737 C1742 1.429 . S
C1738 C1737 1.438 . S
C1738 C1739 1.428 . S
C1738 C1751 1.394 . S
C1739 H1731 0.949 . S
C1739 C1738 1.428 . S
C1739 C1740 1.345 . S
C1740 H1732 0.950 . S
C1740 C1739 1.345 . S
C1740 C1741 1.424 . S
C1741 H1733 0.951 . S
C1741 C1740 1.424 . S
C1741 C1742 1.347 . S
C1742 H1734 0.951 . S
C1742 C1737 1.429 . S
C1742 C1741 1.347 . S
H1743 C1744 0.951 . S
C1744 H1743 0.951 . S
C1744 C1750 1.265 . S
H1745 C1750 0.950 . S
H1746 C1754 0.949 . S
H1747 C1755 0.950 . S
H1748 C1756 0.951 . S
H1749 C1757 0.951 . S
C1750 C1744 1.265 . S
C1750 H1745 0.950 . S
C1750 C1751 1.478 . S
C1751 C1738 1.394 . S
C1751 C1750 1.478 . S
C1751 C1752 1.397 . S
C1752 C1751 1.397 . S
C1752 C1753 1.438 . S
C1752 C1757 1.429 . S
C1753 C1736 1.394 . S
C1753 C1752 1.438 . S
C1753 C1754 1.428 . S
C1754 H1746 0.949 . S
C1754 C1753 1.428 . S
C1754 C1755 1.345 . S
C1755 H1747 0.950 . S
C1755 C1754 1.345 . S
C1755 C1756 1.424 . S
C1756 H1748 0.951 . S
C1756 C1755 1.424 . S
C1756 C1757 1.347 . S
C1757 H1749 0.951 . S
C1757 C1752 1.429 . S
C1757 C1756 1.347 . S
H1758 C1759 0.951 . S
C1759 H1758 0.951 . S
C1759 C1765 1.265 . S
H1760 C1765 0.950 . S
H1761 C1769 0.949 . S
H1762 C1770 0.950 . S
H1763 C1771 0.951 . S
H1764 C1772 0.951 . S
C1765 C1759 1.265 . S
C1765 H1760 0.950 . S
C1765 C1766 1.478 . S
C1766 C1765 1.478 . S
C1766 C1767 1.397 . S
C1766 C1783 1.394 . S
C1767 C1766 1.397 . S
C1767 C1768 1.438 . S
C1767 C1772 1.429 . S
C1768 C1767 1.438 . S
C1768 C1769 1.428 . S
C1768 C1781 1.394 . S
C1769 H1761 0.949 . S
C1769 C1768 1.428 . S
C1769 C1770 1.345 . S
C1770 H1762 0.950 . S
C1770 C1769 1.345 . S
C1770 C1771 1.424 . S
C1771 H1763 0.951 . S
C1771 C1770 1.424 . S
C1771 C1772 1.347 . S
C1772 H1764 0.951 . S
C1772 C1767 1.429 . S
C1772 C1771 1.347 . S
H1773 C1774 0.951 . S
C1774 H1773 0.951 . S
C1774 C1780 1.265 . S
H1775 C1780 0.950 . S
H1776 C1784 0.949 . S
H1777 C1785 0.950 . S
H1778 C1786 0.951 . S
H1779 C1787 0.951 . S
C1780 C1774 1.265 . S
C1780 H1775 0.950 . S
C1780 C1781 1.478 . S
C1781 C1768 1.394 . S
C1781 C1780 1.478 . S
C1781 C1782 1.397 . S
C1782 C1781 1.397 . S
C1782 C1783 1.438 . S
C1782 C1787 1.429 . S
C1783 C1766 1.394 . S
C1783 C1782 1.438 . S
C1783 C1784 1.428 . S
C1784 H1776 0.949 . S
C1784 C1783 1.428 . S
C1784 C1785 1.345 . S
C1785 H1777 0.950 . S
C1785 C1784 1.345 . S
C1785 C1786 1.424 . S
C1786 H1778 0.951 . S
C1786 C1785 1.424 . S
C1786 C1787 1.347 . S
C1787 H1779 0.951 . S
C1787 C1782 1.429 . S
C1787 C1786 1.347 . S
H1788 C1789 0.951 . S
C1789 H1788 0.951 . S
C1789 C1795 1.265 . S
H1790 C1795 0.950 . S
H1791 C1799 0.949 . S
H1792 C1800 0.950 . S
H1793 C1801 0.951 . S
H1794 C1802 0.951 . S
C1795 C1789 1.265 . S
C1795 H1790 0.950 . S
C1795 C1796 1.478 . S
C1796 C1795 1.478 . S
C1796 C1797 1.397 . S
C1796 C1813 1.394 . S
C1797 C1796 1.397 . S
C1797 C1798 1.438 . S
C1797 C1802 1.429 . S
C1798 C1797 1.438 . S
C1798 C1799 1.428 . S
C1798 C1811 1.394 . S
C1799 H1791 0.949 . S
C1799 C1798 1.428 . S
C1799 C1800 1.345 . S
C1800 H1792 0.950 . S
C1800 C1799 1.345 . S
C1800 C1801 1.424 . S
C1801 H1793 0.951 . S
C1801 C1800 1.424 . S
C1801 C1802 1.347 . S
C1802 H1794 0.951 . S
C1802 C1797 1.429 . S
C1802 C1801 1.347 . S
H1803 C1804 0.951 . S
C1804 H1803 0.951 . S
C1804 C1810 1.265 . S
H1805 C1810 0.950 . S
H1806 C1814 0.949 . S
H1807 C1815 0.950 . S
H1808 C1816 0.951 . S
H1809 C1817 0.951 . S
C1810 C1804 1.265 . S
C1810 H1805 0.950 . S
C1810 C1811 1.478 . S
C1811 C1798 1.394 . S
C1811 C1810 1.478 . S
C1811 C1812 1.397 . S
C1812 C1811 1.397 . S
C1812 C1813 1.438 . S
C1812 C1817 1.429 . S
C1813 C1796 1.394 . S
C1813 C1812 1.438 . S
C1813 C1814 1.428 . S
C1814 H1806 0.949 . S
C1814 C1813 1.428 . S
C1814 C1815 1.345 . S
C1815 H1807 0.950 . S
C1815 C1814 1.345 . S
C1815 C1816 1.424 . S
C1816 H1808 0.951 . S
C1816 C1815 1.424 . S
C1816 C1817 1.347 . S
C1817 H1809 0.951 . S
C1817 C1812 1.429 . S
C1817 C1816 1.347 . S
H1818 C1819 0.951 . S
C1819 H1818 0.951 . S
C1819 C1825 1.265 . S
H1820 C1825 0.950 . S
H1821 C1829 0.949 . S
H1822 C1830 0.950 . S
H1823 C1831 0.951 . S
H1824 C1832 0.951 . S
C1825 C1819 1.265 . S
C1825 H1820 0.950 . S
C1825 C1826 1.478 . S
C1826 C1825 1.478 . S
C1826 C1827 1.397 . S
C1826 C1843 1.394 . S
C1827 C1826 1.397 . S
C1827 C1828 1.438 . S
C1827 C1832 1.429 . S
C1828 C1827 1.438 . S
C1828 C1829 1.428 . S
C1828 C1841 1.394 . S
C1829 H1821 0.949 . S
C1829 C1828 1.428 . S
C1829 C1830 1.345 . S
C1830 H1822 0.950 . S
C1830 C1829 1.345 . S
C1830 C1831 1.424 . S
C1831 H1823 0.951 . S
C1831 C1830 1.424 . S
C1831 C1832 1.347 . S
C1832 H1824 0.951 . S
C1832 C1827 1.429 . S
C1832 C1831 1.347 . S
H1833 C1834 0.951 . S
C1834 H1833 0.951 . S
C1834 C1840 1.265 . S
H1835 C1840 0.950 . S
H1836 C1844 0.949 . S
H1837 C1845 0.950 . S
H1838 C1846 0.951 . S
H1839 C1847 0.951 . S
C1840 C1834 1.265 . S
C1840 H1835 0.950 . S
C1840 C1841 1.478 . S
C1841 C1828 1.394 . S
C1841 C1840 1.478 . S
C1841 C1842 1.397 . S
C1842 C1841 1.397 . S
C1842 C1843 1.438 . S
C1842 C1847 1.429 . S
C1843 C1826 1.394 . S
C1843 C1842 1.438 . S
C1843 C1844 1.428 . S
C1844 H1836 0.949 . S
C1844 C1843 1.428 . S
C1844 C1845 1.345 . S
C1845 H1837 0.950 . S
C1845 C1844 1.345 . S
C1845 C1846 1.424 . S
C1846 H1838 0.951 . S
C1846 C1845 1.424 . S
C1846 C1847 1.347 . S
C1847 H1839 0.951 . S
C1847 C1842 1.429 . S
C1847 C1846 1.347 . S
H1848 C1849 0.951 . S
C1849 H1848 0.951 . S
C1849 C1855 1.265 . S
H1850 C1855 0.950 . S
H1851 C1859 0.949 . S
H1852 C1860 0.950 . S
H1853 C1861 0.951 . S
H1854 C1862 0.951 . S
C1855 C1849 1.265 . S
C1855 H1850 0.950 . S
C1855 C1856 1.478 . S
C1856 C1855 1.478 . S
C1856 C1857 1.397 . S
C1856 C1873 1.394 . S
C1857 C1856 1.397 . S
C1857 C1858 1.438 . S
C1857 C1862 1.429 . S
C1858 C1857 1.438 . S
C1858 C1859 1.428 . S
C1858 C1871 1.394 . S
C1859 H1851 0.949 . S
C1859 C1858 1.428 . S
C1859 C1860 1.345 . S
C1860 H1852 0.950 . S
C1860 C1859 1.345 . S
C1860 C1861 1.424 . S
C1861 H1853 0.951 . S
C1861 C1860 1.424 . S
C1861 C1862 1.347 . S
C1862 H1854 0.951 . S
C1862 C1857 1.429 . S
C1862 C1861 1.347 . S
H1863 C1864 0.951 . S
C1864 H1863 0.951 . S
C1864 C1870 1.265 . S
H1865 C1870 0.950 . S
H1866 C1874 0.949 . S
H1867 C1875 0.950 . S
H1868 C1876 0.951 . S
H1869 C1877 0.951 . S
C1870 C1864 1.265 . S
C1870 H1865 0.950 . S
C1870 C1871 1.478 . S
C1871 C1858 1.394 . S
C1871 C1870 1.478 . S
C1871 C1872 1.397 . S
C1872 C1871 1.397 . S
C1872 C1873 1.438 . S
C1872 C1877 1.429 . S
C1873 C1856 1.394 . S
C1873 C1872 1.438 . S
C1873 C1874 1.428 . S
C1874 H1866 0.949 . S
C1874 C1873 1.428 . S
C1874 C1875 1.345 . S
C1875 H1867 0.950 . S
C1875 C1874 1.345 . S
C1875 C1876 1.424 . S
C1876 H1868 0.951 . S
C1876 C1875 1.424 . S
C1876 C1877 1.347 . S
C1877 H1869 0.951 . S
C1877 C1872 1.429 . S
C1877 C1876 1.347 . S
H1878 C1879 0.951 . S
C1879 H1878 0.951 . S
C1879 C1885 1.265 . S
H1880 C1885 0.950 . S
H1881 C1889 0.949 . S
H1882 C1890 0.950 . S
H1883 C1891 0.951 . S
H1884 C1892 0.951 . S
C1885 C1879 1.265 . S
C1885 H1880 0.950 . S
C1885 C1886 1.478 . S
C1886 C1885 1.478 . S
C1886 C1887 1.397 . S
C1886 C1903 1.394 . S
C1887 C1886 1.397 . S
C1887 C1888 1.438 . S
C1887 C1892 1.429 . S
C1888 C1887 1.438 . S
C1888 C1889 1.428 . S
C1888 C1901 1.394 . S
C1889 H1881 0.949 . S
C1889 C1888 1.428 . S
C1889 C1890 1.345 . S
C1890 H1882 0.950 . S
C1890 C1889 1.345 . S
C1890 C1891 1.424 . S
C1891 H1883 0.951 . S
C1891 C1890 1.424 . S
C1891 C1892 1.347 . S
C1892 H1884 0.951 . S
C1892 C1887 1.429 . S
C1892 C1891 1.347 . S
H1893 C1894 0.951 . S
C1894 H1893 0.951 . S
C1894 C1900 1.265 . S
H1895 C1900 0.950 . S
H1896 C1904 0.949 . S
H1897 C1905 0.950 . S
H1898 C1906 0.951 . S
H1899 C1907 0.951 . S
C1900 C1894 1.265 . S
C1900 H1895 0.950 . S
C1900 C1901 1.478 . S
C1901 C1888 1.394 . S
C1901 C1900 1.478 . S
C1901 C1902 1.397 . S
C1902 C1901 1.397 . S
C1902 C1903 1.438 . S
C1902 C1907 1.429 . S
C1903 C1886 1.394 . S
C1903 C1902 1.438 . S
C1903 C1904 1.428 . S
C1904 H1896 0.949 . S
C1904 C1903 1.428 . S
C1904 C1905 1.345 . S
C1905 H1897 0.950 . S
C1905 C1904 1.345 . S
C1905 C1906 1.424 . S
C1906 H1898 0.951 . S
C1906 C1905 1.424 . S
C1906 C1907 1.347 . S
C1907 H1899 0.951 . S
C1907 C1902 1.429 . S
C1907 C1906 1.347 . S
H1908 C1909 0.951 . S
C1909 H1908 0.951 . S
C1909 C1915 1.265 . S
H1910 C1915 0.950 . S
H1911 C1919 0.949 . S
H1912 C1920 0.950 . S
H1913 C1921 0.951 . S
H1914 C1922 0.951 . S
C1915 C1909 1.265 . S
C1915 H1910 0.950 . S
C1915 C1916 1.478 . S
C1916 C1915 1.478 . S
C1916 C1917 1.397 . S
C1916 C1933 1.394 . S
C1917 C1916 1.397 . S
C1917 C1918 1.438 . S
C1917 C1922 1.429 . S
C1918 C1917 1.438 . S
C1918 C1919 1.428 . S
C1918 C1931 1.394 . S
C1919 H1911 0.949 . S
C1919 C1918 1.428 . S
C1919 C1920 1.345 . S
C1920 H1912 0.950 . S
C1920 C1919 1.345 . S
C1920 C1921 1.424 . S
C1921 H1913 0.951 . S
C1921 C1920 1.424 . S
C1921 C1922 1.347 . S
C1922 H1914 0.951 . S
C1922 C1917 1.429 . S
C1922 C1921 1.347 . S
H1923 C1924 0.951 . S
C1924 H1923 0.951 . S
C1924 C1930 1.265 . S
H1925 C1930 0.950 . S
H1926 C1934 0.949 . S
H1927 C1935 0.950 . S
H1928 C1936 0.951 . S
H1929 C1937 0.951 . S
C1930 C1924 1.265 . S
C1930 H1925 0.950 . S
C1930 C1931 1.478 . S
C1931 C1918 1.394 . S
C1931 C1930 1.478 . S
C1931 C1932 1.397 . S
C1932 C1931 1.397 . S
C1932 C1933 1.438 . S
C1932 C1937 1.429 . S
C1933 C1916 1.394 . S
C1933 C1932 1.438 . S
C1933 C1934 1.428 . S
C1934 H1926 0.949 . S
C1934 C1933 1.428 . S
C1934 C1935 1.345 . S
C1935 H1927 0.950 . S
C1935 C1934 1.345 . S
C1935 C1936 1.424 . S
C1936 H1928 0.951 . S
C1936 C1935 1.424 . S
C1936 C1937 1.347 . S
C1937 H1929 0.951 . S
C1937 C1932 1.429 . S
C1937 C1936 1.347 . S
H1938 C1939 0.951 . S
C1939 H1938 0.951 . S
C1939 C1945 1.265 . S
H1940 C1945 0.950 . S
H1941 C1949 0.949 . S
H1942 C1950 0.950 . S
H1943 C1951 0.951 . S
H1944 C1952 0.951 . S
C1945 C1939 1.265 . S
C1945 H1940 0.950 . S
C1945 C1946 1.478 . S
C1946 C1945 1.478 . S
C1946 C1947 1.397 . S
C1946 C1963 1.394 . S
C1947 C1946 1.397 . S
C1947 C1948 1.438 . S
C1947 C1952 1.429 . S
C1948 C1947 1.438 . S
C1948 C1949 1.428 . S
C1948 C1961 1.394 . S
C1949 H1941 0.949 . S
C1949 C1948 1.428 . S
C1949 C1950 1.345 . S
C1950 H1942 0.950 . S
C1950 C1949 1.345 . S
C1950 C1951 1.424 . S
C1951 H1943 0.951 . S
C1951 C1950 1.424 . S
C1951 C1952 1.347 . S
C1952 H1944 0.951 . S
C1952 C1947 1.429 . S
C1952 C1951 1.347 . S
H1953 C1954 0.951 . S
C1954 H1953 0.951 . S
C1954 C1960 1.265 . S
H1955 C1960 0.950 . S
H1956 C1964 0.949 . S
H1957 C1965 0.950 . S
H1958 C1966 0.951 . S
H1959 C1967 0.951 . S
C1960 C1954 1.265 . S
C1960 H1955 0.950 . S
C1960 C1961 1.478 . S
C1961 C1948 1.394 . S
C1961 C1960 1.478 . S
C1961 C1962 1.397 . S
C1962 C1961 1.397 . S
C1962 C1963 1.438 . S
C1962 C1967 1.429 . S
C1963 C1946 1.394 . S
C1963 C1962 1.438 . S
C1963 C1964 1.428 . S
C1964 H1956 0.949 . S
C1964 C1963 1.428 . S
C1964 C1965 1.345 . S
C1965 H1957 0.950 . S
C1965 C1964 1.345 . S
C1965 C1966 1.424 . S
C1966 H1958 0.951 . S
C1966 C1965 1.424 . S
C1966 C1967 1.347 . S
C1967 H1959 0.951 . S
C1967 C1962 1.429 . S
C1967 C1966 1.347 . S
H1968 C1969 0.951 . S
C1969 H1968 0.951 . S
C1969 C1975 1.265 . S
H1970 C1975 0.950 . S
H1971 C1979 0.949 . S
H1972 C1980 0.950 . S
H1973 C1981 0.951 . S
H1974 C1982 0.951 . S
C1975 C1969 1.265 . S
C1975 H1970 0.950 . S
C1975 C1976 1.478 . S
C1976 C1975 1.478 . S
C1976 C1977 1.397 . S
C1976 C1993 1.394 . S
C1977 C1976 1.397 . S
C1977 C1978 1.438 . S
C1977 C1982 1.429 . S
C1978 C1977 1.438 . S
C1978 C1979 1.428 . S
C1978 C1991 1.394 . S
C1979 H1971 0.949 . S
C1979 C1978 1.428 . S
C1979 C1980 1.345 . S
C1980 H1972 0.950 . S
C1980 C1979 1.345 . S
C1980 C1981 1.424 . S
C1981 H1973 0.951 . S
C1981 C1980 1.424 . S
C1981 C1982 1.347 . S
C1982 H1974 0.951 . S
C1982 C1977 1.429 . S
C1982 C1981 1.347 . S
H1983 C1984 0.951 . S
C1984 H1983 0.951 . S
C1984 C1990 1.265 . S
H1985 C1990 0.950 . S
H1986 C1994 0.949 . S
H1987 C1995 0.950 . S
H1988 C1996 0.951 . S
H1989 C1997 0.951 . S
C1990 C1984 1.265 . S
C1990 H1985 0.950 . S
C1990 C1991 1.478 . S
C1991 C1978 1.394 . S
C1991 C1990 1.478 . S
C1991 C1992 1.397 . S
C1992 C1991 1.397 . S
C1992 C1993 1.438 . S
C1992 C1997 1.429 . S
C1993 C1976 1.394 . S
C1993 C1992 1.438 . S
C1993 C1994 1.428 . S
C1994 H1986 0.949 . S
C1994 C1993 1.428 . S
C1994 C1995 1.345 . S
C1995 H1987 0.950 . S
C1995 C1994 1.345 . S
C1995 C1996 1.424 . S
C1996 H1988 0.951 . S
C1996 C1995 1.424 . S
C1996 C1997 1.347 . S
C1997 H1989 0.951 . S
C1997 C1992 1.429 . S
C1997 C1996 1.347 . S
H1998 C1999 0.951 . S
C1999 H1998 0.951 . S
C1999 C2005 1.265 . S
H2000 C2005 0.950 . S
H2001 C2009 0.949 . S
H2002 C2010 0.950 . S
H2003 C2011 0.951 . S
H2004 C2012 0.951 . S
C2005 C1999 1.265 . S
C2005 H2000 0.950 . S
C2005 C2006 1.478 . S
C2006 C2005 1.478 . S
C2006 C2007 1.397 . S
C2006 C2023 1.394 . S
C2007 C2006 1.397 . S
C2007 C2008 1.438 . S
C2007 C2012 1.429 . S
C2008 C2007 1.438 . S
C2008 C2009 1.428 . S
C2008 C2021 1.394 . S
C2009 H2001 0.949 . S
C2009 C2008 1.428 . S
C2009 C2010 1.345 . S
C2010 H2002 0.950 . S
C2010 C2009 1.345 . S
C2010 C2011 1.424 . S
C2011 H2003 0.951 . S
C2011 C2010 1.424 . S
C2011 C2012 1.347 . S
C2012 H2004 0.951 . S
C2012 C2007 1.429 . S
C2012 C2011 1.347 . S
H2013 C2014 0.951 . S
C2014 H2013 0.951 . S
C2014 C2020 1.265 . S
H2015 C2020 0.950 . S
H2016 C2024 0.949 . S
H2017 C2025 0.950 . S
H2018 C2026 0.951 . S
H2019 C2027 0.951 . S
C2020 C2014 1.265 . S
C2020 H2015 0.950 . S
C2020 C2021 1.478 . S
C2021 C2008 1.394 . S
C2021 C2020 1.478 . S
C2021 C2022 1.397 . S
C2022 C2021 1.397 . S
C2022 C2023 1.438 . S
C2022 C2027 1.429 . S
C2023 C2006 1.394 . S
C2023 C2022 1.438 . S
C2023 C2024 1.428 . S
C2024 H2016 0.949 . S
C2024 C2023 1.428 . S
C2024 C2025 1.345 . S
C2025 H2017 0.950 . S
C2025 C2024 1.345 . S
C2025 C2026 1.424 . S
C2026 H2018 0.951 . S
C2026 C2025 1.424 . S
C2026 C2027 1.347 . S
C2027 H2019 0.951 . S
C2027 C2022 1.429 . S
C2027 C2026 1.347 . S
H2028 C2029 0.951 . S
C2029 H2028 0.951 . S
C2029 C2035 1.265 . S
H2030 C2035 0.950 . S
H2031 C2039 0.949 . S
H2032 C2040 0.950 . S
H2033 C2041 0.951 . S
H2034 C2042 0.951 . S
C2035 C2029 1.265 . S
C2035 H2030 0.950 . S
C2035 C2036 1.478 . S
C2036 C2035 1.478 . S
C2036 C2037 1.397 . S
C2036 C2053 1.394 . S
C2037 C2036 1.397 . S
C2037 C2038 1.438 . S
C2037 C2042 1.429 . S
C2038 C2037 1.438 . S
C2038 C2039 1.428 . S
C2038 C2051 1.394 . S
C2039 H2031 0.949 . S
C2039 C2038 1.428 . S
C2039 C2040 1.345 . S
C2040 H2032 0.950 . S
C2040 C2039 1.345 . S
C2040 C2041 1.424 . S
C2041 H2033 0.951 . S
C2041 C2040 1.424 . S
C2041 C2042 1.347 . S
C2042 H2034 0.951 . S
C2042 C2037 1.429 . S
C2042 C2041 1.347 . S
H2043 C2044 0.951 . S
C2044 H2043 0.951 . S
C2044 C2050 1.265 . S
H2045 C2050 0.950 . S
H2046 C2054 0.949 . S
H2047 C2055 0.950 . S
H2048 C2056 0.951 . S
H2049 C2057 0.951 . S
C2050 C2044 1.265 . S
C2050 H2045 0.950 . S
C2050 C2051 1.478 . S
C2051 C2038 1.394 . S
C2051 C2050 1.478 . S
C2051 C2052 1.397 . S
C2052 C2051 1.397 . S
C2052 C2053 1.438 . S
C2052 C2057 1.429 . S
C2053 C2036 1.394 . S
C2053 C2052 1.438 . S
C2053 C2054 1.428 . S
C2054 H2046 0.949 . S
C2054 C2053 1.428 . S
C2054 C2055 1.345 . S
C2055 H2047 0.950 . S
C2055 C2054 1.345 . S
C2055 C2056 1.424 . S
C2056 H2048 0.951 . S
C2056 C2055 1.424 . S
C2056 C2057 1.347 . S
C2057 H2049 0.951 . S
C2057 C2052 1.429 . S
C2057 C2056 1.347 . S
H2058 C2059 0.951 . S
C2059 H2058 0.951 . S
C2059 C2065 1.265 . S
H2060 C2065 0.950 . S
H2061 C2069 0.949 . S
H2062 C2070 0.950 . S
H2063 C2071 0.951 . S
H2064 C2072 0.951 . S
C2065 C2059 1.265 . S
C2065 H2060 0.950 . S
C2065 C2066 1.478 . S
C2066 C2065 1.478 . S
C2066 C2067 1.397 . S
C2066 C2083 1.394 . S
C2067 C2066 1.397 . S
C2067 C2068 1.438 . S
C2067 C2072 1.429 . S
C2068 C2067 1.438 . S
C2068 C2069 1.428 . S
C2068 C2081 1.394 . S
C2069 H2061 0.949 . S
C2069 C2068 1.428 . S
C2069 C2070 1.345 . S
C2070 H2062 0.950 . S
C2070 C2069 1.345 . S
C2070 C2071 1.424 . S
C2071 H2063 0.951 . S
C2071 C2070 1.424 . S
C2071 C2072 1.347 . S
C2072 H2064 0.951 . S
C2072 C2067 1.429 . S
C2072 C2071 1.347 . S
H2073 C2074 0.951 . S
C2074 H2073 0.951 . S
C2074 C2080 1.265 . S
H2075 C2080 0.950 . S
H2076 C2084 0.949 . S
H2077 C2085 0.950 . S
H2078 C2086 0.951 . S
H2079 C2087 0.951 . S
C2080 C2074 1.265 . S
C2080 H2075 0.950 . S
C2080 C2081 1.478 . S
C2081 C2068 1.394 . S
C2081 C2080 1.478 . S
C2081 C2082 1.397 . S
C2082 C2081 1.397 . S
C2082 C2083 1.438 . S
C2082 C2087 1.429 . S
C2083 C2066 1.394 . S
C2083 C2082 1.438 . S
C2083 C2084 1.428 . S
C2084 H2076 0.949 . S
C2084 C2083 1.428 . S
C2084 C2085 1.345 . S
C2085 H2077 0.950 . S
C2085 C2084 1.345 . S
C2085 C2086 1.424 . S
C2086 H2078 0.951 . S
C2086 C2085 1.424 . S
C2086 C2087 1.347 . S
C2087 H2079 0.951 . S
C2087 C2082 1.429 . S
C2087 C2086 1.347 . S
H2088 C2089 0.951 . S
C2089 H2088 0.951 . S
C2089 C2095 1.265 . S
H2090 C2095 0.950 . S
H2091 C2099 0.949 . S
H2092 C2100 0.950 . S
H2093 C2101 0.951 . S
H2094 C2102 0.951 . S
C2095 C2089 1.265 . S
C2095 H2090 0.950 . S
C2095 C2096 1.478 . S
C2096 C2095 1.478 . S
C2096 C2097 1.397 . S
C2096 C2113 1.394 . S
C2097 C2096 1.397 . S
C2097 C2098 1.438 . S
C2097 C2102 1.429 . S
C2098 C2097 1.438 . S
C2098 C2099 1.428 . S
C2098 C2111 1.394 . S
C2099 H2091 0.949 . S
C2099 C2098 1.428 . S
C2099 C2100 1.345 . S
C2100 H2092 0.950 . S
C2100 C2099 1.345 . S
C2100 C2101 1.424 . S
C2101 H2093 0.951 . S
C2101 C2100 1.424 . S
C2101 C2102 1.347 . S
C2102 H2094 0.951 . S
C2102 C2097 1.429 . S
C2102 C2101 1.347 . S
H2103 C2104 0.951 . S
C2104 H2103 0.951 . S
C2104 C2110 1.265 . S
H2105 C2110 0.950 . S
H2106 C2114 0.949 . S
H2107 C2115 0.950 . S
H2108 C2116 0.951 . S
H2109 C2117 0.951 . S
C2110 C2104 1.265 . S
C2110 H2105 0.950 . S
C2110 C2111 1.478 . S
C2111 C2098 1.394 . S
C2111 C2110 1.478 . S
C2111 C2112 1.397 . S
C2112 C2111 1.397 . S
C2112 C2113 1.438 . S
C2112 C2117 1.429 . S
C2113 C2096 1.394 . S
C2113 C2112 1.438 . S
C2113 C2114 1.428 . S
C2114 H2106 0.949 . S
C2114 C2113 1.428 . S
C2114 C2115 1.345 . S
C2115 H2107 0.950 . S
C2115 C2114 1.345 . S
C2115 C2116 1.424 . S
C2116 H2108 0.951 . S
C2116 C2115 1.424 . S
C2116 C2117 1.347 . S
C2117 H2109 0.951 . S
C2117 C2112 1.429 . S
C2117 C2116 1.347 . S
H2118 C2119 0.951 . S
C2119 H2118 0.951 . S
C2119 C2125 1.265 . S
H2120 C2125 0.950 . S
H2121 C2129 0.949 . S
H2122 C2130 0.950 . S
H2123 C2131 0.951 . S
H2124 C2132 0.951 . S
C2125 C2119 1.265 . S
C2125 H2120 0.950 . S
C2125 C2126 1.478 . S
C2126 C2125 1.478 . S
C2126 C2127 1.397 . S
C2126 C2143 1.394 . S
C2127 C2126 1.397 . S
C2127 C2128 1.438 . S
C2127 C2132 1.429 . S
C2128 C2127 1.438 . S
C2128 C2129 1.428 . S
C2128 C2141 1.394 . S
C2129 H2121 0.949 . S
C2129 C2128 1.428 . S
C2129 C2130 1.345 . S
C2130 H2122 0.950 . S
C2130 C2129 1.345 . S
C2130 C2131 1.424 . S
C2131 H2123 0.951 . S
C2131 C2130 1.424 . S
C2131 C2132 1.347 . S
C2132 H2124 0.951 . S
C2132 C2127 1.429 . S
C2132 C2131 1.347 . S
H2133 C2134 0.951 . S
C2134 H2133 0.951 . S
C2134 C2140 1.265 . S
H2135 C2140 0.950 . S
H2136 C2144 0.949 . S
H2137 C2145 0.950 . S
H2138 C2146 0.951 . S
H2139 C2147 0.951 . S
C2140 C2134 1.265 . S
C2140 H2135 0.950 . S
C2140 C2141 1.478 . S
C2141 C2128 1.394 . S
C2141 C2140 1.478 . S
C2141 C2142 1.397 . S
C2142 C2141 1.397 . S
C2142 C2143 1.438 . S
C2142 C2147 1.429 . S
C2143 C2126 1.394 . S
C2143 C2142 1.438 . S
C2143 C2144 1.428 . S
C2144 H2136 0.949 . S
C2144 C2143 1.428 . S
C2144 C2145 1.345 . S
C2145 H2137 0.950 . S
C2145 C2144 1.345 . S
C2145 C2146 1.424 . S
C2146 H2138 0.951 . S
C2146 C2145 1.424 . S
C2146 C2147 1.347 . S
C2147 H2139 0.951 . S
C2147 C2142 1.429 . S
C2147 C2146 1.347 . S
H2148 C2149 0.951 . S
C2149 H2148 0.951 . S
C2149 C2155 1.265 . S
H2150 C2155 0.950 . S
H2151 C2159 0.949 . S
H2152 C2160 0.950 . S
H2153 C2161 0.951 . S
H2154 C2162 0.951 . S
C2155 C2149 1.265 . S
C2155 H2150 0.950 . S
C2155 C2156 1.478 . S
C2156 C2155 1.478 . S
C2156 C2157 1.397 . S
C2156 C2173 1.394 . S
C2157 C2156 1.397 . S
C2157 C2158 1.438 . S
C2157 C2162 1.429 . S
C2158 C2157 1.438 . S
C2158 C2159 1.428 . S
C2158 C2171 1.394 . S
C2159 H2151 0.949 . S
C2159 C2158 1.428 . S
C2159 C2160 1.345 . S
C2160 H2152 0.950 . S
C2160 C2159 1.345 . S
C2160 C2161 1.424 . S
C2161 H2153 0.951 . S
C2161 C2160 1.424 . S
C2161 C2162 1.347 . S
C2162 H2154 0.951 . S
C2162 C2157 1.429 . S
C2162 C2161 1.347 . S
H2163 C2164 0.951 . S
C2164 H2163 0.951 . S
C2164 C2170 1.265 . S
H2165 C2170 0.950 . S
H2166 C2174 0.949 . S
H2167 C2175 0.950 . S
H2168 C2176 0.951 . S
H2169 C2177 0.951 . S
C2170 C2164 1.265 . S
C2170 H2165 0.950 . S
C2170 C2171 1.478 . S
C2171 C2158 1.394 . S
C2171 C2170 1.478 . S
C2171 C2172 1.397 . S
C2172 C2171 1.397 . S
C2172 C2173 1.438 . S
C2172 C2177 1.429 . S
C2173 C2156 1.394 . S
C2173 C2172 1.438 . S
C2173 C2174 1.428 . S
C2174 H2166 0.949 . S
C2174 C2173 1.428 . S
C2174 C2175 1.345 . S
C2175 H2167 0.950 . S
C2175 C2174 1.345 . S
C2175 C2176 1.424 . S
C2176 H2168 0.951 . S
C2176 C2175 1.424 . S
C2176 C2177 1.347 . S
C2177 H2169 0.951 . S
C2177 C2172 1.429 . S
C2177 C2176 1.347 . S
H2178 C2179 0.951 . S
C2179 H2178 0.951 . S
C2179 C2185 1.265 . S
H2180 C2185 0.950 . S
H2181 C2189 0.949 . S
H2182 C2190 0.950 . S
H2183 C2191 0.951 . S
H2184 C2192 0.951 . S
C2185 C2179 1.265 . S
C2185 H2180 0.950 . S
C2185 C2186 1.478 . S
C2186 C2185 1.478 . S
C2186 C2187 1.397 . S
C2186 C2203 1.394 . S
C2187 C2186 1.397 . S
C2187 C2188 1.438 . S
C2187 C2192 1.429 . S
C2188 C2187 1.438 . S
C2188 C2189 1.428 . S
C2188 C2201 1.394 . S
C2189 H2181 0.949 . S
C2189 C2188 1.428 . S
C2189 C2190 1.345 . S
C2190 H2182 0.950 . S
C2190 C2189 1.345 . S
C2190 C2191 1.424 . S
C2191 H2183 0.951 . S
C2191 C2190 1.424 . S
C2191 C2192 1.347 . S
C2192 H2184 0.951 . S
C2192 C2187 1.429 . S
C2192 C2191 1.347 . S
H2193 C2194 0.951 . S
C2194 H2193 0.951 . S
C2194 C2200 1.265 . S
H2195 C2200 0.950 . S
H2196 C2204 0.949 . S
H2197 C2205 0.950 . S
H2198 C2206 0.951 . S
H2199 C2207 0.951 . S
C2200 C2194 1.265 . S
C2200 H2195 0.950 . S
C2200 C2201 1.478 . S
C2201 C2188 1.394 . S
C2201 C2200 1.478 . S
C2201 C2202 1.397 . S
C2202 C2201 1.397 . S
C2202 C2203 1.438 . S
C2202 C2207 1.429 . S
C2203 C2186 1.394 . S
C2203 C2202 1.438 . S
C2203 C2204 1.428 . S
C2204 H2196 0.949 . S
C2204 C2203 1.428 . S
C2204 C2205 1.345 . S
C2205 H2197 0.950 . S
C2205 C2204 1.345 . S
C2205 C2206 1.424 . S
C2206 H2198 0.951 . S
C2206 C2205 1.424 . S
C2206 C2207 1.347 . S
C2207 H2199 0.951 . S
C2207 C2202 1.429 . S
C2207 C2206 1.347 . S
H2208 C2209 0.951 . S
C2209 H2208 0.951 . S
C2209 C2215 1.265 . S
H2210 C2215 0.950 . S
H2211 C2219 0.949 . S
H2212 C2220 0.950 . S
H2213 C2221 0.951 . S
H2214 C2222 0.951 . S
C2215 C2209 1.265 . S
C2215 H2210 0.950 . S
C2215 C2216 1.478 . S
C2216 C2215 1.478 . S
C2216 C2217 1.397 . S
C2216 C2233 1.394 . S
C2217 C2216 1.397 . S
C2217 C2218 1.438 . S
C2217 C2222 1.429 . S
C2218 C2217 1.438 . S
C2218 C2219 1.428 . S
C2218 C2231 1.394 . S
C2219 H2211 0.949 . S
C2219 C2218 1.428 . S
C2219 C2220 1.345 . S
C2220 H2212 0.950 . S
C2220 C2219 1.345 . S
C2220 C2221 1.424 . S
C2221 H2213 0.951 . S
C2221 C2220 1.424 . S
C2221 C2222 1.347 . S
C2222 H2214 0.951 . S
C2222 C2217 1.429 . S
C2222 C2221 1.347 . S
H2223 C2224 0.951 . S
C2224 H2223 0.951 . S
C2224 C2230 1.265 . S
H2225 C2230 0.950 . S
H2226 C2234 0.949 . S
H2227 C2235 0.950 . S
H2228 C2236 0.951 . S
H2229 C2237 0.951 . S
C2230 C2224 1.265 . S
C2230 H2225 0.950 . S
C2230 C2231 1.478 . S
C2231 C2218 1.394 . S
C2231 C2230 1.478 . S
C2231 C2232 1.397 . S
C2232 C2231 1.397 . S
C2232 C2233 1.438 . S
C2232 C2237 1.429 . S
C2233 C2216 1.394 . S
C2233 C2232 1.438 . S
C2233 C2234 1.428 . S
C2234 H2226 0.949 . S
C2234 C2233 1.428 . S
C2234 C2235 1.345 . S
C2235 H2227 0.950 . S
C2235 C2234 1.345 . S
C2235 C2236 1.424 . S
C2236 H2228 0.951 . S
C2236 C2235 1.424 . S
C2236 C2237 1.347 . S
C2237 H2229 0.951 . S
C2237 C2232 1.429 . S
C2237 C2236 1.347 . S
H2238 C2239 0.951 . S
C2239 H2238 0.951 . S
C2239 C2245 1.265 . S
H2240 C2245 0.950 . S
H2241 C2249 0.949 . S
H2242 C2250 0.950 . S
H2243 C2251 0.951 . S
H2244 C2252 0.951 . S
C2245 C2239 1.265 . S
C2245 H2240 0.950 . S
C2245 C2246 1.478 . S
C2246 C2245 1.478 . S
C2246 C2247 1.397 . S
C2246 C2263 1.394 . S
C2247 C2246 1.397 . S
C2247 C2248 1.438 . S
C2247 C2252 1.429 . S
C2248 C2247 1.438 . S
C2248 C2249 1.428 . S
C2248 C2261 1.394 . S
C2249 H2241 0.949 . S
C2249 C2248 1.428 . S
C2249 C2250 1.345 . S
C2250 H2242 0.950 . S
C2250 C2249 1.345 . S
C2250 C2251 1.424 . S
C2251 H2243 0.951 . S
C2251 C2250 1.424 . S
C2251 C2252 1.347 . S
C2252 H2244 0.951 . S
C2252 C2247 1.429 . S
C2252 C2251 1.347 . S
H2253 C2254 0.951 . S
C2254 H2253 0.951 . S
C2254 C2260 1.265 . S
H2255 C2260 0.950 . S
H2256 C2264 0.949 . S
H2257 C2265 0.950 . S
H2258 C2266 0.951 . S
H2259 C2267 0.951 . S
C2260 C2254 1.265 . S
C2260 H2255 0.950 . S
C2260 C2261 1.478 . S
C2261 C2248 1.394 . S
C2261 C2260 1.478 . S
C2261 C2262 1.397 . S
C2262 C2261 1.397 . S
C2262 C2263 1.438 . S
C2262 C2267 1.429 . S
C2263 C2246 1.394 . S
C2263 C2262 1.438 . S
C2263 C2264 1.428 . S
C2264 H2256 0.949 . S
C2264 C2263 1.428 . S
C2264 C2265 1.345 . S
C2265 H2257 0.950 . S
C2265 C2264 1.345 . S
C2265 C2266 1.424 . S
C2266 H2258 0.951 . S
C2266 C2265 1.424 . S
C2266 C2267 1.347 . S
C2267 H2259 0.951 . S
C2267 C2262 1.429 . S
C2267 C2266 1.347 . S
H2268 C2269 0.951 . S
C2269 H2268 0.951 . S
C2269 C2275 1.265 . S
H2270 C2275 0.950 . S
H2271 C2279 0.949 . S
H2272 C2280 0.950 . S
H2273 C2281 0.951 . S
H2274 C2282 0.951 . S
C2275 C2269 1.265 . S
C2275 H2270 0.950 . S
C2275 C2276 1.478 . S
C2276 C2275 1.478 . S
C2276 C2277 1.397 . S
C2276 C2293 1.394 . S
C2277 C2276 1.397 . S
C2277 C2278 1.438 . S
C2277 C2282 1.429 . S
C2278 C2277 1.438 . S
C2278 C2279 1.428 . S
C2278 C2291 1.394 . S
C2279 H2271 0.949 . S
C2279 C2278 1.428 . S
C2279 C2280 1.345 . S
C2280 H2272 0.950 . S
C2280 C2279 1.345 . S
C2280 C2281 1.424 . S
C2281 H2273 0.951 . S
C2281 C2280 1.424 . S
C2281 C2282 1.347 . S
C2282 H2274 0.951 . S
C2282 C2277 1.429 . S
C2282 C2281 1.347 . S
H2283 C2284 0.951 . S
C2284 H2283 0.951 . S
C2284 C2290 1.265 . S
H2285 C2290 0.950 . S
H2286 C2294 0.949 . S
H2287 C2295 0.950 . S
H2288 C2296 0.951 . S
H2289 C2297 0.951 . S
C2290 C2284 1.265 . S
C2290 H2285 0.950 . S
C2290 C2291 1.478 . S
C2291 C2278 1.394 . S
C2291 C2290 1.478 . S
C2291 C2292 1.397 . S
C2292 C2291 1.397 . S
C2292 C2293 1.438 . S
C2292 C2297 1.429 . S
C2293 C2276 1.394 . S
C2293 C2292 1.438 . S
C2293 C2294 1.428 . S
C2294 H2286 0.949 . S
C2294 C2293 1.428 . S
C2294 C2295 1.345 . S
C2295 H2287 0.950 . S
C2295 C2294 1.345 . S
C2295 C2296 1.424 . S
C2296 H2288 0.951 . S
C2296 C2295 1.424 . S
C2296 C2297 1.347 . S
C2297 H2289 0.951 . S
C2297 C2292 1.429 . S
C2297 C2296 1.347 . S
H2298 C2299 0.951 . S
C2299 H2298 0.951 . S
C2299 C2305 1.265 . S
H2300 C2305 0.950 . S
H2301 C2309 0.949 . S
H2302 C2310 0.950 . S
H2303 C2311 0.951 . S
H2304 C2312 0.951 . S
C2305 C2299 1.265 . S
C2305 H2300 0.950 . S
C2305 C2306 1.478 . S
C2306 C2305 1.478 . S
C2306 C2307 1.397 . S
C2306 C2323 1.394 . S
C2307 C2306 1.397 . S
C2307 C2308 1.438 . S
C2307 C2312 1.429 . S
C2308 C2307 1.438 . S
C2308 C2309 1.428 . S
C2308 C2321 1.394 . S
C2309 H2301 0.949 . S
C2309 C2308 1.428 . S
C2309 C2310 1.345 . S
C2310 H2302 0.950 . S
C2310 C2309 1.345 . S
C2310 C2311 1.424 . S
C2311 H2303 0.951 . S
C2311 C2310 1.424 . S
C2311 C2312 1.347 . S
C2312 H2304 0.951 . S
C2312 C2307 1.429 . S
C2312 C2311 1.347 . S
H2313 C2314 0.951 . S
C2314 H2313 0.951 . S
C2314 C2320 1.265 . S
H2315 C2320 0.950 . S
H2316 C2324 0.949 . S
H2317 C2325 0.950 . S
H2318 C2326 0.951 . S
H2319 C2327 0.951 . S
C2320 C2314 1.265 . S
C2320 H2315 0.950 . S
C2320 C2321 1.478 . S
C2321 C2308 1.394 . S
C2321 C2320 1.478 . S
C2321 C2322 1.397 . S
C2322 C2321 1.397 . S
C2322 C2323 1.438 . S
C2322 C2327 1.429 . S
C2323 C2306 1.394 . S
C2323 C2322 1.438 . S
C2323 C2324 1.428 . S
C2324 H2316 0.949 . S
C2324 C2323 1.428 . S
C2324 C2325 1.345 . S
C2325 H2317 0.950 . S
C2325 C2324 1.345 . S
C2325 C2326 1.424 . S
C2326 H2318 0.951 . S
C2326 C2325 1.424 . S
C2326 C2327 1.347 . S
C2327 H2319 0.951 . S
C2327 C2322 1.429 . S
C2327 C2326 1.347 . S
H2328 C2329 0.951 . S
C2329 H2328 0.951 . S
C2329 C2335 1.265 . S
H2330 C2335 0.950 . S
H2331 C2339 0.949 . S
H2332 C2340 0.950 . S
H2333 C2341 0.951 . S
H2334 C2342 0.951 . S
C2335 C2329 1.265 . S
C2335 H2330 0.950 . S
C2335 C2336 1.478 . S
C2336 C2335 1.478 . S
C2336 C2337 1.397 . S
C2336 C2353 1.394 . S
C2337 C2336 1.397 . S
C2337 C2338 1.438 . S
C2337 C2342 1.429 . S
C2338 C2337 1.438 . S
C2338 C2339 1.428 . S
C2338 C2351 1.394 . S
C2339 H2331 0.949 . S
C2339 C2338 1.428 . S
C2339 C2340 1.345 . S
C2340 H2332 0.950 . S
C2340 C2339 1.345 . S
C2340 C2341 1.424 . S
C2341 H2333 0.951 . S
C2341 C2340 1.424 . S
C2341 C2342 1.347 . S
C2342 H2334 0.951 . S
C2342 C2337 1.429 . S
C2342 C2341 1.347 . S
H2343 C2344 0.951 . S
C2344 H2343 0.951 . S
C2344 C2350 1.265 . S
H2345 C2350 0.950 . S
H2346 C2354 0.949 . S
H2347 C2355 0.950 . S
H2348 C2356 0.951 . S
H2349 C2357 0.951 . S
C2350 C2344 1.265 . S
C2350 H2345 0.950 . S
C2350 C2351 1.478 . S
C2351 C2338 1.394 . S
C2351 C2350 1.478 . S
C2351 C2352 1.397 . S
C2352 C2351 1.397 . S
C2352 C2353 1.438 . S
C2352 C2357 1.429 . S
C2353 C2336 1.394 . S
C2353 C2352 1.438 . S
C2353 C2354 1.428 . S
C2354 H2346 0.949 . S
C2354 C2353 1.428 . S
C2354 C2355 1.345 . S
C2355 H2347 0.950 . S
C2355 C2354 1.345 . S
C2355 C2356 1.424 . S
C2356 H2348 0.951 . S
C2356 C2355 1.424 . S
C2356 C2357 1.347 . S
C2357 H2349 0.951 . S
C2357 C2352 1.429 . S
C2357 C2356 1.347 . S
H2358 C2359 0.951 . S
C2359 H2358 0.951 . S
C2359 C2365 1.265 . S
H2360 C2365 0.950 . S
H2361 C2369 0.949 . S
H2362 C2370 0.950 . S
H2363 C2371 0.951 . S
H2364 C2372 0.951 . S
C2365 C2359 1.265 . S
C2365 H2360 0.950 . S
C2365 C2366 1.478 . S
C2366 C2365 1.478 . S
C2366 C2367 1.397 . S
C2366 C2383 1.394 . S
C2367 C2366 1.397 . S
C2367 C2368 1.438 . S
C2367 C2372 1.429 . S
C2368 C2367 1.438 . S
C2368 C2369 1.428 . S
C2368 C2381 1.394 . S
C2369 H2361 0.949 . S
C2369 C2368 1.428 . S
C2369 C2370 1.345 . S
C2370 H2362 0.950 . S
C2370 C2369 1.345 . S
C2370 C2371 1.424 . S
C2371 H2363 0.951 . S
C2371 C2370 1.424 . S
C2371 C2372 1.347 . S
C2372 H2364 0.951 . S
C2372 C2367 1.429 . S
C2372 C2371 1.347 . S
H2373 C2374 0.951 . S
C2374 H2373 0.951 . S
C2374 C2380 1.265 . S
H2375 C2380 0.950 . S
H2376 C2384 0.949 . S
H2377 C2385 0.950 . S
H2378 C2386 0.951 . S
H2379 C2387 0.951 . S
C2380 C2374 1.265 . S
C2380 H2375 0.950 . S
C2380 C2381 1.478 . S
C2381 C2368 1.394 . S
C2381 C2380 1.478 . S
C2381 C2382 1.397 . S
C2382 C2381 1.397 . S
C2382 C2383 1.438 . S
C2382 C2387 1.429 . S
C2383 C2366 1.394 . S
C2383 C2382 1.438 . S
C2383 C2384 1.428 . S
C2384 H2376 0.949 . S
C2384 C2383 1.428 . S
C2384 C2385 1.345 . S
C2385 H2377 0.950 . S
C2385 C2384 1.345 . S
C2385 C2386 1.424 . S
C2386 H2378 0.951 . S
C2386 C2385 1.424 . S
C2386 C2387 1.347 . S
C2387 H2379 0.951 . S
C2387 C2382 1.429 . S
C2387 C2386 1.347 . S
H2388 C2389 0.951 . S
C2389 H2388 0.951 . S
C2389 C2395 1.265 . S
H2390 C2395 0.950 . S
H2391 C2399 0.949 . S
H2392 C2400 0.950 . S
H2393 C2401 0.951 . S
H2394 C2402 0.951 . S
C2395 C2389 1.265 . S
C2395 H2390 0.950 . S
C2395 C2396 1.478 . S
C2396 C2395 1.478 . S
C2396 C2397 1.397 . S
C2396 C2413 1.394 . S
C2397 C2396 1.397 . S
C2397 C2398 1.438 . S
C2397 C2402 1.429 . S
C2398 C2397 1.438 . S
C2398 C2399 1.428 . S
C2398 C2411 1.394 . S
C2399 H2391 0.949 . S
C2399 C2398 1.428 . S
C2399 C2400 1.345 . S
C2400 H2392 0.950 . S
C2400 C2399 1.345 . S
C2400 C2401 1.424 . S
C2401 H2393 0.951 . S
C2401 C2400 1.424 . S
C2401 C2402 1.347 . S
C2402 H2394 0.951 . S
C2402 C2397 1.429 . S
C2402 C2401 1.347 . S
H2403 C2404 0.951 . S
C2404 H2403 0.951 . S
C2404 C2410 1.265 . S
H2405 C2410 0.950 . S
H2406 C2414 0.949 . S
H2407 C2415 0.950 . S
H2408 C2416 0.951 . S
H2409 C2417 0.951 . S
C2410 C2404 1.265 . S
C2410 H2405 0.950 . S
C2410 C2411 1.478 . S
C2411 C2398 1.394 . S
C2411 C2410 1.478 . S
C2411 C2412 1.397 . S
C2412 C2411 1.397 . S
C2412 C2413 1.438 . S
C2412 C2417 1.429 . S
C2413 C2396 1.394 . S
C2413 C2412 1.438 . S
C2413 C2414 1.428 . S
C2414 H2406 0.949 . S
C2414 C2413 1.428 . S
C2414 C2415 1.345 . S
C2415 H2407 0.950 . S
C2415 C2414 1.345 . S
C2415 C2416 1.424 . S
C2416 H2408 0.951 . S
C2416 C2415 1.424 . S
C2416 C2417 1.347 . S
C2417 H2409 0.951 . S
C2417 C2412 1.429 . S
C2417 C2416 1.347 . S
H2418 C2419 0.951 . S
C2419 H2418 0.951 . S
C2419 C2425 1.265 . S
H2420 C2425 0.950 . S
H2421 C2429 0.949 . S
H2422 C2430 0.950 . S
H2423 C2431 0.951 . S
H2424 C2432 0.951 . S
C2425 C2419 1.265 . S
C2425 H2420 0.950 . S
C2425 C2426 1.478 . S
C2426 C2425 1.478 . S
C2426 C2427 1.397 . S
C2426 C2443 1.394 . S
C2427 C2426 1.397 . S
C2427 C2428 1.438 . S
C2427 C2432 1.429 . S
C2428 C2427 1.438 . S
C2428 C2429 1.428 . S
C2428 C2441 1.394 . S
C2429 H2421 0.949 . S
C2429 C2428 1.428 . S
C2429 C2430 1.345 . S
C2430 H2422 0.950 . S
C2430 C2429 1.345 . S
C2430 C2431 1.424 . S
C2431 H2423 0.951 . S
C2431 C2430 1.424 . S
C2431 C2432 1.347 . S
C2432 H2424 0.951 . S
C2432 C2427 1.429 . S
C2432 C2431 1.347 . S
H2433 C2434 0.951 . S
C2434 H2433 0.951 . S
C2434 C2440 1.265 . S
H2435 C2440 0.950 . S
H2436 C2444 0.949 . S
H2437 C2445 0.950 . S
H2438 C2446 0.951 . S
H2439 C2447 0.951 . S
C2440 C2434 1.265 . S
C2440 H2435 0.950 . S
C2440 C2441 1.478 . S
C2441 C2428 1.394 . S
C2441 C2440 1.478 . S
C2441 C2442 1.397 . S
C2442 C2441 1.397 . S
C2442 C2443 1.438 . S
C2442 C2447 1.429 . S
C2443 C2426 1.394 . S
C2443 C2442 1.438 . S
C2443 C2444 1.428 . S
C2444 H2436 0.949 . S
C2444 C2443 1.428 . S
C2444 C2445 1.345 . S
C2445 H2437 0.950 . S
C2445 C2444 1.345 . S
C2445 C2446 1.424 . S
C2446 H2438 0.951 . S
C2446 C2445 1.424 . S
C2446 C2447 1.347 . S
C2447 H2439 0.951 . S
C2447 C2442 1.429 . S
C2447 C2446 1.347 . S
H2448 C2449 0.951 . S
C2449 H2448 0.951 . S
C2449 C2455 1.265 . S
H2450 C2455 0.950 . S
H2451 C2459 0.949 . S
H2452 C2460 0.950 . S
H2453 C2461 0.951 1_556 S
H2454 C2462 0.951 . S
C2455 C2449 1.265 . S
C2455 H2450 0.950 . S
C2455 C2456 1.478 . S
C2456 C2455 1.478 . S
C2456 C2457 1.397 . S
C2456 C2473 1.394 . S
C2457 C2456 1.397 . S
C2457 C2458 1.438 . S
C2457 C2462 1.429 . S
C2458 C2457 1.438 . S
C2458 C2459 1.428 . S
C2458 C2471 1.394 . S
C2459 H2451 0.949 . S
C2459 C2458 1.428 . S
C2459 C2460 1.345 . S
C2460 H2452 0.950 . S
C2460 C2459 1.345 . S
C2460 C2461 1.424 . S
C2461 H2453 0.951 1_554 S
C2461 C2460 1.424 . S
C2461 C2462 1.347 . S
C2462 H2454 0.951 . S
C2462 C2457 1.429 . S
C2462 C2461 1.347 . S
H2463 C2464 0.951 . S
C2464 H2463 0.951 . S
C2464 C2470 1.265 . S
H2465 C2470 0.950 . S
H2466 C2474 0.949 . S
H2467 C2475 0.950 . S
H2468 C2476 0.951 . S
H2469 C2477 0.951 . S
C2470 C2464 1.265 . S
C2470 H2465 0.950 . S
C2470 C2471 1.478 . S
C2471 C2458 1.394 . S
C2471 C2470 1.478 . S
C2471 C2472 1.397 . S
C2472 C2471 1.397 . S
C2472 C2473 1.438 . S
C2472 C2477 1.429 . S
C2473 C2456 1.394 . S
C2473 C2472 1.438 . S
C2473 C2474 1.428 . S
C2474 H2466 0.949 . S
C2474 C2473 1.428 . S
C2474 C2475 1.345 . S
C2475 H2467 0.950 . S
C2475 C2474 1.345 . S
C2475 C2476 1.424 . S
C2476 H2468 0.951 . S
C2476 C2475 1.424 . S
C2476 C2477 1.347 . S
C2477 H2469 0.951 . S
C2477 C2472 1.429 . S
C2477 C2476 1.347 . S
H2478 C2479 0.951 . S
C2479 H2478 0.951 . S
C2479 C2485 1.265 . S
H2480 C2485 0.950 . S
H2481 C2489 0.949 . S
H2482 C2490 0.950 . S
H2483 C2491 0.951 . S
H2484 C2492 0.951 . S
C2485 C2479 1.265 . S
C2485 H2480 0.950 . S
C2485 C2486 1.478 . S
C2486 C2485 1.478 . S
C2486 C2487 1.397 . S
C2486 C2503 1.394 . S
C2487 C2486 1.397 . S
C2487 C2488 1.438 . S
C2487 C2492 1.429 . S
C2488 C2487 1.438 . S
C2488 C2489 1.428 . S
C2488 C2501 1.394 . S
C2489 H2481 0.949 . S
C2489 C2488 1.428 . S
C2489 C2490 1.345 . S
C2490 H2482 0.950 . S
C2490 C2489 1.345 . S
C2490 C2491 1.424 . S
C2491 H2483 0.951 . S
C2491 C2490 1.424 . S
C2491 C2492 1.347 . S
C2492 H2484 0.951 . S
C2492 C2487 1.429 . S
C2492 C2491 1.347 . S
H2493 C2494 0.951 . S
C2494 H2493 0.951 . S
C2494 C2500 1.265 . S
H2495 C2500 0.950 . S
H2496 C2504 0.943 1_556 S
H2497 C2505 0.950 . S
H2498 C2506 0.951 . S
H2499 C2507 0.951 . S
C2500 C2494 1.265 . S
C2500 H2495 0.950 . S
C2500 C2501 1.478 . S
C2501 C2488 1.394 . S
C2501 C2500 1.478 . S
C2501 C2502 1.397 . S
C2502 C2501 1.397 . S
C2502 C2503 1.438 . S
C2502 C2507 1.429 . S
C2503 C2486 1.394 . S
C2503 C2502 1.438 . S
C2503 C2504 1.428 . S
C2504 H2496 0.943 1_554 S
C2504 C2503 1.428 . S
C2504 C2505 1.345 1_554 S
C2505 H2497 0.950 . S
C2505 C2504 1.345 1_556 S
C2505 C2506 1.424 . S
C2506 H2498 0.951 . S
C2506 C2505 1.424 . S
C2506 C2507 1.347 1_556 S
C2507 H2499 0.951 . S
C2507 C2502 1.429 . S
C2507 C2506 1.347 1_554 S
H2508 C2509 0.951 . S
C2509 H2508 0.951 . S
C2509 C2515 1.265 . S
H2510 C2515 0.950 . S
H2511 C2519 0.949 . S
H2512 C2520 0.950 . S
H2513 C2521 0.951 . S
H2514 C2522 0.951 . S
C2515 C2509 1.265 . S
C2515 H2510 0.950 . S
C2515 C2516 1.478 . S
C2516 C2515 1.478 . S
C2516 C2517 1.397 . S
C2516 C2533 1.394 . S
C2517 C2516 1.397 . S
C2517 C2518 1.438 . S
C2517 C2522 1.429 . S
C2518 C2517 1.438 . S
C2518 C2519 1.428 . S
C2518 C2531 1.394 . S
C2519 H2511 0.949 . S
C2519 C2518 1.428 . S
C2519 C2520 1.345 . S
C2520 H2512 0.950 . S
C2520 C2519 1.345 . S
C2520 C2521 1.424 . S
C2521 H2513 0.951 . S
C2521 C2520 1.424 . S
C2521 C2522 1.347 . S
C2522 H2514 0.951 . S
C2522 C2517 1.429 . S
C2522 C2521 1.347 . S
H2523 C2524 0.951 . S
C2524 H2523 0.951 . S
C2524 C2530 1.265 . S
H2525 C2530 0.950 . S
H2526 C2534 0.949 . S
H2527 C2535 0.950 1_556 S
H2528 C2536 0.951 . S
H2529 C2537 0.951 . S
C2530 C2524 1.265 . S
C2530 H2525 0.950 . S
C2530 C2531 1.478 . S
C2531 C2518 1.394 . S
C2531 C2530 1.478 . S
C2531 C2532 1.397 . S
C2532 C2531 1.397 . S
C2532 C2533 1.438 . S
C2532 C2537 1.429 . S
C2533 C2516 1.394 . S
C2533 C2532 1.438 . S
C2533 C2534 1.428 . S
C2534 H2526 0.949 . S
C2534 C2533 1.428 . S
C2534 C2535 1.345 . S
C2535 H2527 0.950 1_554 S
C2535 C2534 1.345 . S
C2535 C2536 1.424 . S
C2536 H2528 0.951 . S
C2536 C2535 1.424 . S
C2536 C2537 1.347 . S
C2537 H2529 0.951 . S
C2537 C2532 1.429 . S
C2537 C2536 1.347 . S
H2538 C2539 0.951 1_554 S
C2539 H2538 0.951 1_556 S
C2539 C2545 1.265 . S
H2540 C2545 0.950 . S
H2541 C2549 0.949 . S
H2542 C2550 0.947 1_554 S
H2543 C2551 0.968 . S
H2544 C2552 0.958 . S
C2545 C2539 1.265 . S
C2545 H2540 0.950 . S
C2545 C2546 1.478 . S
C2546 C2545 1.478 . S
C2546 C2547 1.397 . S
C2546 C2563 1.394 . S
C2547 C2546 1.397 . S
C2547 C2548 1.438 . S
C2547 C2552 1.429 . S
C2548 C2547 1.438 . S
C2548 C2549 1.428 . S
C2548 C2561 1.394 . S
C2549 H2541 0.949 . S
C2549 C2548 1.428 . S
C2549 C2550 1.345 . S
C2550 H2542 0.947 1_556 S
C2550 C2549 1.345 . S
C2550 C2551 1.417 1_556 S
C2551 H2543 0.968 . S
C2551 C2550 1.417 1_554 S
C2551 C2552 1.338 1_554 S
C2552 H2544 0.958 . S
C2552 C2547 1.429 . S
C2552 C2551 1.338 1_556 S
H2553 C2554 0.951 . S
C2554 H2553 0.951 . S
C2554 C2560 1.265 . S
H2555 C2560 0.950 . S
H2556 C2564 0.949 . S
H2557 C2565 0.950 . S
H2558 C2566 0.951 . S
H2559 C2567 0.951 . S
C2560 C2554 1.265 . S
C2560 H2555 0.950 . S
C2560 C2561 1.478 . S
C2561 C2548 1.394 . S
C2561 C2560 1.478 . S
C2561 C2562 1.397 . S
C2562 C2561 1.397 . S
C2562 C2563 1.438 . S
C2562 C2567 1.429 . S
C2563 C2546 1.394 . S
C2563 C2562 1.438 . S
C2563 C2564 1.428 . S
C2564 H2556 0.949 . S
C2564 C2563 1.428 . S
C2564 C2565 1.345 . S
C2565 H2557 0.950 . S
C2565 C2564 1.345 . S
C2565 C2566 1.424 . S
C2566 H2558 0.951 . S
C2566 C2565 1.424 . S
C2566 C2567 1.347 . S
C2567 H2559 0.951 . S
C2567 C2562 1.429 . S
C2567 C2566 1.347 . S
H2568 C2569 0.951 . S
C2569 H2568 0.951 . S
C2569 C2575 1.265 . S
H2570 C2575 0.950 . S
H2571 C2579 0.949 . S
H2572 C2580 0.950 . S
H2573 C2581 0.951 . S
H2574 C2582 0.951 . S
C2575 C2569 1.265 . S
C2575 H2570 0.950 . S
C2575 C2576 1.478 . S
C2576 C2575 1.478 . S
C2576 C2577 1.397 . S
C2576 C2593 1.432 . S
C2577 C2576 1.397 . S
C2577 C2578 1.438 . S
C2577 C2582 1.429 . S
C2578 C2577 1.438 . S
C2578 C2579 1.428 . S
C2578 C2591 1.394 . S
C2579 H2571 0.949 . S
C2579 C2578 1.428 . S
C2579 C2580 1.345 . S
C2580 H2572 0.950 . S
C2580 C2579 1.345 . S
C2580 C2581 1.424 . S
C2581 H2573 0.951 . S
C2581 C2580 1.424 . S
C2581 C2582 1.347 . S
C2582 H2574 0.951 . S
C2582 C2577 1.429 . S
C2582 C2581 1.347 . S
H2583 C2584 0.951 . S
C2584 H2583 0.951 . S
C2584 C2590 1.265 . S
H2585 C2590 0.950 . S
H2586 C2594 0.949 . S
H2587 C2595 0.950 . S
H2588 C2596 0.951 . S
H2589 C2597 0.951 . S
C2590 C2584 1.265 . S
C2590 H2585 0.950 . S
C2590 C2591 1.478 . S
C2591 C2578 1.394 . S
C2591 C2590 1.478 . S
C2591 C2592 1.397 . S
C2592 C2591 1.397 . S
C2592 C2593 1.449 . S
C2592 C2597 1.429 1_556 S
C2593 C2576 1.432 . S
C2593 C2592 1.449 . S
C2593 C2594 1.379 1_556 S
C2594 H2586 0.949 . S
C2594 C2593 1.379 1_554 S
C2594 C2595 1.345 . S
C2595 H2587 0.950 . S
C2595 C2594 1.345 . S
C2595 C2596 1.424 . S
C2596 H2588 0.951 . S
C2596 C2595 1.424 . S
C2596 C2597 1.347 . S
C2597 H2589 0.951 . S
C2597 C2592 1.429 1_554 S
C2597 C2596 1.347 . S
H2598 C2599 0.951 . S
C2599 H2598 0.951 . S
C2599 C2605 1.263 1_556 S
H2600 C2605 0.955 . S
H2601 C2609 0.949 . S
H2602 C2610 0.950 . S
H2603 C2611 0.951 . S
H2604 C2612 0.951 . S
C2605 C2599 1.263 1_554 S
C2605 H2600 0.955 . S
C2605 C2606 1.475 1_554 S
C2606 C2605 1.475 1_556 S
C2606 C2607 1.397 . S
C2606 C2623 1.394 . S
C2607 C2606 1.397 . S
C2607 C2608 1.438 . S
C2607 C2612 1.429 1_556 S
C2608 C2607 1.438 . S
C2608 C2609 1.428 . S
C2608 C2621 1.394 . S
C2609 H2601 0.949 . S
C2609 C2608 1.428 . S
C2609 C2610 1.345 1_556 S
C2610 H2602 0.950 . S
C2610 C2609 1.345 1_554 S
C2610 C2611 1.424 . S
C2611 H2603 0.951 . S
C2611 C2610 1.424 . S
C2611 C2612 1.347 . S
C2612 H2604 0.951 . S
C2612 C2607 1.429 1_554 S
C2612 C2611 1.347 . S
H2613 C2614 0.951 . S
C2614 H2613 0.951 . S
C2614 C2620 1.265 . S
H2615 C2620 0.950 . S
H2616 C2624 0.949 . S
H2617 C2625 0.950 . S
H2618 C2626 0.951 . S
H2619 C2627 0.951 . S
C2620 C2614 1.265 . S
C2620 H2615 0.950 . S
C2620 C2621 1.478 . S
C2621 C2608 1.394 . S
C2621 C2620 1.478 . S
C2621 C2622 1.397 . S
C2622 C2621 1.397 . S
C2622 C2623 1.438 . S
C2622 C2627 1.429 . S
C2623 C2606 1.394 . S
C2623 C2622 1.438 . S
C2623 C2624 1.428 . S
C2624 H2616 0.949 . S
C2624 C2623 1.428 . S
C2624 C2625 1.345 . S
C2625 H2617 0.950 . S
C2625 C2624 1.345 . S
C2625 C2626 1.424 . S
C2626 H2618 0.951 . S
C2626 C2625 1.424 . S
C2626 C2627 1.347 . S
C2627 H2619 0.951 . S
C2627 C2622 1.429 . S
C2627 C2626 1.347 . S
H2628 C2629 0.951 . S
C2629 H2628 0.951 . S
C2629 C2635 1.265 1_556 S
H2630 C2635 0.950 . S
H2631 C2639 0.949 . S
H2632 C2640 0.950 . S
H2633 C2641 0.951 . S
H2634 C2642 0.951 . S
C2635 C2629 1.265 1_554 S
C2635 H2630 0.950 . S
C2635 C2636 1.478 1_554 S
C2636 C2635 1.478 1_556 S
C2636 C2637 1.397 . S
C2636 C2653 1.394 . S
C2637 C2636 1.397 . S
C2637 C2638 1.438 . S
C2637 C2642 1.429 1_556 S
C2638 C2637 1.438 . S
C2638 C2639 1.428 . S
C2638 C2651 1.394 . S
C2639 H2631 0.949 . S
C2639 C2638 1.428 . S
C2639 C2640 1.345 1_556 S
C2640 H2632 0.950 . S
C2640 C2639 1.345 1_554 S
C2640 C2641 1.424 . S
C2641 H2633 0.951 . S
C2641 C2640 1.424 . S
C2641 C2642 1.347 . S
C2642 H2634 0.951 . S
C2642 C2637 1.429 1_554 S
C2642 C2641 1.347 . S
H2643 C2644 0.951 . S
C2644 H2643 0.951 . S
C2644 C2650 1.265 . S
H2645 C2650 0.950 . S
H2646 C2654 0.949 . S
H2647 C2655 0.950 . S
H2648 C2656 0.951 . S
H2649 C2657 0.951 . S
C2650 C2644 1.265 . S
C2650 H2645 0.950 . S
C2650 C2651 1.478 . S
C2651 C2638 1.394 . S
C2651 C2650 1.478 . S
C2651 C2652 1.397 . S
C2652 C2651 1.397 . S
C2652 C2653 1.438 . S
C2652 C2657 1.429 . S
C2653 C2636 1.394 . S
C2653 C2652 1.438 . S
C2653 C2654 1.428 . S
C2654 H2646 0.949 . S
C2654 C2653 1.428 . S
C2654 C2655 1.345 . S
C2655 H2647 0.950 . S
C2655 C2654 1.345 . S
C2655 C2656 1.424 . S
C2656 H2648 0.951 . S
C2656 C2655 1.424 . S
C2656 C2657 1.347 . S
C2657 H2649 0.951 . S
C2657 C2652 1.429 . S
C2657 C2656 1.347 . S
H2658 C2659 0.951 1_554 S
C2659 H2658 0.951 1_556 S
C2659 C2665 1.265 . S
H2660 C2665 0.950 . S
H2661 C2669 0.949 . S
H2662 C2670 0.950 . S
H2663 C2671 0.951 . S
H2664 C2672 0.951 . S
C2665 C2659 1.265 . S
C2665 H2660 0.950 . S
C2665 C2666 1.478 . S
C2666 C2665 1.478 . S
C2666 C2667 1.397 . S
C2666 C2683 1.394 1_556 S
C2667 C2666 1.397 . S
C2667 C2668 1.438 . S
C2667 C2672 1.429 . S
C2668 C2667 1.438 . S
C2668 C2669 1.428 . S
C2668 C2681 1.394 . S
C2669 H2661 0.949 . S
C2669 C2668 1.428 . S
C2669 C2670 1.345 . S
C2670 H2662 0.950 . S
C2670 C2669 1.345 . S
C2670 C2671 1.424 . S
C2671 H2663 0.951 . S
C2671 C2670 1.424 . S
C2671 C2672 1.347 . S
C2672 H2664 0.951 . S
C2672 C2667 1.429 . S
C2672 C2671 1.347 . S
H2673 C2674 0.951 . S
C2674 H2673 0.951 . S
C2674 C2680 1.265 . S
H2675 C2680 0.950 . S
H2676 C2684 0.949 . S
H2677 C2685 0.950 . S
H2678 C2686 0.951 . S
H2679 C2687 0.951 . S
C2680 C2674 1.265 . S
C2680 H2675 0.950 . S
C2680 C2681 1.478 . S
C2681 C2668 1.394 . S
C2681 C2680 1.478 . S
C2681 C2682 1.397 . S
C2682 C2681 1.397 . S
C2682 C2683 1.438 1_556 S
C2682 C2687 1.429 1_556 S
C2683 C2666 1.394 1_554 S
C2683 C2682 1.438 1_554 S
C2683 C2684 1.428 . S
C2684 H2676 0.949 . S
C2684 C2683 1.428 . S
C2684 C2685 1.345 . S
C2685 H2677 0.950 . S
C2685 C2684 1.345 . S
C2685 C2686 1.424 . S
C2686 H2678 0.951 . S
C2686 C2685 1.424 . S
C2686 C2687 1.347 . S
C2687 H2679 0.951 . S
C2687 C2682 1.429 1_554 S
C2687 C2686 1.347 . S
H2688 C2689 0.953 . S
C2689 H2688 0.953 . S
C2689 C2695 1.258 1_554 S
H2690 C2695 0.950 . S
H2691 C2699 0.963 . S
H2692 C2700 0.950 . S
H2693 C2701 0.951 . S
H2694 C2702 0.951 . S
C2695 C2689 1.258 1_556 S
C2695 H2690 0.950 . S
C2695 C2696 1.478 . S
C2696 C2695 1.478 . S
C2696 C2697 1.397 . S
C2696 C2713 1.394 . S
C2697 C2696 1.397 . S
C2697 C2698 1.438 . S
C2697 C2702 1.429 1_556 S
C2698 C2697 1.438 . S
C2698 C2699 1.428 1_556 S
C2698 C2711 1.394 . S
C2699 H2691 0.963 . S
C2699 C2698 1.428 1_554 S
C2699 C2700 1.345 . S
C2700 H2692 0.950 . S
C2700 C2699 1.345 . S
C2700 C2701 1.424 . S
C2701 H2693 0.951 . S
C2701 C2700 1.424 . S
C2701 C2702 1.347 . S
C2702 H2694 0.951 . S
C2702 C2697 1.429 1_554 S
C2702 C2701 1.347 . S
H2703 C2704 0.951 . S
C2704 H2703 0.951 . S
C2704 C2710 1.265 . S
H2705 C2710 0.950 . S
H2706 C2714 0.949 . S
H2707 C2715 0.950 . S
H2708 C2716 0.951 . S
H2709 C2717 0.951 . S
C2710 C2704 1.265 . S
C2710 H2705 0.950 . S
C2710 C2711 1.478 . S
C2711 C2698 1.394 . S
C2711 C2710 1.478 . S
C2711 C2712 1.397 . S
C2712 C2711 1.397 . S
C2712 C2713 1.438 . S
C2712 C2717 1.429 . S
C2713 C2696 1.394 . S
C2713 C2712 1.438 . S
C2713 C2714 1.428 . S
C2714 H2706 0.949 . S
C2714 C2713 1.428 . S
C2714 C2715 1.345 . S
C2715 H2707 0.950 . S
C2715 C2714 1.345 . S
C2715 C2716 1.424 . S
C2716 H2708 0.951 . S
C2716 C2715 1.424 . S
C2716 C2717 1.347 . S
C2717 H2709 0.951 . S
C2717 C2712 1.429 . S
C2717 C2716 1.347 . S
H2718 C2719 0.951 . S
C2719 H2718 0.951 . S
C2719 C2725 1.265 . S
H2720 C2725 0.950 . S
H2721 C2729 0.949 . S
H2722 C2730 0.950 1_556 S
H2723 C2731 0.951 . S
H2724 C2732 0.951 . S
C2725 C2719 1.265 . S
C2725 H2720 0.950 . S
C2725 C2726 1.478 . S
C2726 C2725 1.478 . S
C2726 C2727 1.397 . S
C2726 C2743 1.394 . S
C2727 C2726 1.397 . S
C2727 C2728 1.438 . S
C2727 C2732 1.429 . S
C2728 C2727 1.438 . S
C2728 C2729 1.428 . S
C2728 C2741 1.394 . S
C2729 H2721 0.949 . S
C2729 C2728 1.428 . S
C2729 C2730 1.345 . S
C2730 H2722 0.950 1_554 S
C2730 C2729 1.345 . S
C2730 C2731 1.424 1_554 S
C2731 H2723 0.951 . S
C2731 C2730 1.424 1_556 S
C2731 C2732 1.347 1_556 S
C2732 H2724 0.951 . S
C2732 C2727 1.429 . S
C2732 C2731 1.347 1_554 S
H2733 C2734 0.951 . S
C2734 H2733 0.951 . S
C2734 C2740 1.265 . S
H2735 C2740 0.950 . S
H2736 C2744 0.949 . S
H2737 C2745 0.950 . S
H2738 C2746 0.951 . S
H2739 C2747 0.951 . S
C2740 C2734 1.265 . S
C2740 H2735 0.950 . S
C2740 C2741 1.478 . S
C2741 C2728 1.394 . S
C2741 C2740 1.478 . S
C2741 C2742 1.397 . S
C2742 C2741 1.397 . S
C2742 C2743 1.438 . S
C2742 C2747 1.429 . S
C2743 C2726 1.394 . S
C2743 C2742 1.438 . S
C2743 C2744 1.428 . S
C2744 H2736 0.949 . S
C2744 C2743 1.428 . S
C2744 C2745 1.345 . S
C2745 H2737 0.950 . S
C2745 C2744 1.345 . S
C2745 C2746 1.424 . S
C2746 H2738 0.951 . S
C2746 C2745 1.424 . S
C2746 C2747 1.347 . S
C2747 H2739 0.951 . S
C2747 C2742 1.429 . S
C2747 C2746 1.347 . S
H2748 C2749 0.951 . S
C2749 H2748 0.951 . S
C2749 C2755 1.265 . S
H2750 C2755 0.950 . S
H2751 C2759 0.949 . S
H2752 C2760 0.950 . S
H2753 C2761 0.951 . S
H2754 C2762 0.951 1_556 S
C2755 C2749 1.265 . S
C2755 H2750 0.950 . S
C2755 C2756 1.478 . S
C2756 C2755 1.478 . S
C2756 C2757 1.397 . S
C2756 C2773 1.394 . S
C2757 C2756 1.397 . S
C2757 C2758 1.438 . S
C2757 C2762 1.429 . S
C2758 C2757 1.438 . S
C2758 C2759 1.428 . S
C2758 C2771 1.394 . S
C2759 H2751 0.949 . S
C2759 C2758 1.428 . S
C2759 C2760 1.345 1_554 S
C2760 H2752 0.950 . S
C2760 C2759 1.345 1_556 S
C2760 C2761 1.424 . S
C2761 H2753 0.951 . S
C2761 C2760 1.424 . S
C2761 C2762 1.347 1_556 S
C2762 H2754 0.951 1_554 S
C2762 C2757 1.429 . S
C2762 C2761 1.347 1_554 S
H2763 C2764 0.951 . S
C2764 H2763 0.951 . S
C2764 C2770 1.265 . S
H2765 C2770 0.950 . S
H2766 C2774 0.949 . S
H2767 C2775 0.950 . S
H2768 C2776 0.951 . S
H2769 C2777 0.951 . S
C2770 C2764 1.265 . S
C2770 H2765 0.950 . S
C2770 C2771 1.478 . S
C2771 C2758 1.394 . S
C2771 C2770 1.478 . S
C2771 C2772 1.397 . S
C2772 C2771 1.397 . S
C2772 C2773 1.438 . S
C2772 C2777 1.429 . S
C2773 C2756 1.394 . S
C2773 C2772 1.438 . S
C2773 C2774 1.428 . S
C2774 H2766 0.949 . S
C2774 C2773 1.428 . S
C2774 C2775 1.345 . S
C2775 H2767 0.950 . S
C2775 C2774 1.345 . S
C2775 C2776 1.424 . S
C2776 H2768 0.951 . S
C2776 C2775 1.424 . S
C2776 C2777 1.347 . S
C2777 H2769 0.951 . S
C2777 C2772 1.429 . S
C2777 C2776 1.347 . S
H2778 C2779 0.951 . S
C2779 H2778 0.951 . S
C2779 C2785 1.265 . S
H2780 C2785 0.950 . S
H2781 C2789 0.949 . S
H2782 C2790 0.950 . S
H2783 C2791 0.951 1_556 S
H2784 C2792 0.951 . S
C2785 C2779 1.265 . S
C2785 H2780 0.950 . S
C2785 C2786 1.478 . S
C2786 C2785 1.478 . S
C2786 C2787 1.397 . S
C2786 C2803 1.394 . S
C2787 C2786 1.397 . S
C2787 C2788 1.438 . S
C2787 C2792 1.429 . S
C2788 C2787 1.438 . S
C2788 C2789 1.428 . S
C2788 C2801 1.394 . S
C2789 H2781 0.949 . S
C2789 C2788 1.428 . S
C2789 C2790 1.345 . S
C2790 H2782 0.950 . S
C2790 C2789 1.345 . S
C2790 C2791 1.424 . S
C2791 H2783 0.951 1_554 S
C2791 C2790 1.424 . S
C2791 C2792 1.347 . S
C2792 H2784 0.951 . S
C2792 C2787 1.429 . S
C2792 C2791 1.347 . S
H2793 C2794 0.951 . S
C2794 H2793 0.951 . S
C2794 C2800 1.265 . S
H2795 C2800 0.950 . S
H2796 C2804 0.949 . S
H2797 C2805 0.950 . S
H2798 C2806 0.951 . S
H2799 C2807 0.951 . S
C2800 C2794 1.265 . S
C2800 H2795 0.950 . S
C2800 C2801 1.478 . S
C2801 C2788 1.394 . S
C2801 C2800 1.478 . S
C2801 C2802 1.397 . S
C2802 C2801 1.397 . S
C2802 C2803 1.438 . S
C2802 C2807 1.429 . S
C2803 C2786 1.394 . S
C2803 C2802 1.438 . S
C2803 C2804 1.428 . S
C2804 H2796 0.949 . S
C2804 C2803 1.428 . S
C2804 C2805 1.345 . S
C2805 H2797 0.950 . S
C2805 C2804 1.345 . S
C2805 C2806 1.424 . S
C2806 H2798 0.951 . S
C2806 C2805 1.424 . S
C2806 C2807 1.347 . S
C2807 H2799 0.951 . S
C2807 C2802 1.429 . S
C2807 C2806 1.347 . S
H2808 C2809 0.951 . S
C2809 H2808 0.951 . S
C2809 C2815 1.265 . S
H2810 C2815 0.950 . S
H2811 C2819 0.949 . S
H2812 C2820 0.950 . S
H2813 C2821 0.951 . S
H2814 C2822 0.951 . S
C2815 C2809 1.265 . S
C2815 H2810 0.950 . S
C2815 C2816 1.478 . S
C2816 C2815 1.478 . S
C2816 C2817 1.397 . S
C2816 C2833 1.394 . S
C2817 C2816 1.397 . S
C2817 C2818 1.438 . S
C2817 C2822 1.429 . S
C2818 C2817 1.438 . S
C2818 C2819 1.428 . S
C2818 C2831 1.394 . S
C2819 H2811 0.949 . S
C2819 C2818 1.428 . S
C2819 C2820 1.345 . S
C2820 H2812 0.950 . S
C2820 C2819 1.345 . S
C2820 C2821 1.424 . S
C2821 H2813 0.951 . S
C2821 C2820 1.424 . S
C2821 C2822 1.347 . S
C2822 H2814 0.951 . S
C2822 C2817 1.429 . S
C2822 C2821 1.347 . S
H2823 C2824 0.951 . S
C2824 H2823 0.951 . S
C2824 C2830 1.265 . S
H2825 C2830 0.950 . S
H2826 C2834 0.949 . S
H2827 C2835 0.950 . S
H2828 C2836 0.951 . S
H2829 C2837 0.951 . S
C2830 C2824 1.265 . S
C2830 H2825 0.950 . S
C2830 C2831 1.478 . S
C2831 C2818 1.394 . S
C2831 C2830 1.478 . S
C2831 C2832 1.397 . S
C2832 C2831 1.397 . S
C2832 C2833 1.438 . S
C2832 C2837 1.429 . S
C2833 C2816 1.394 . S
C2833 C2832 1.438 . S
C2833 C2834 1.428 . S
C2834 H2826 0.949 . S
C2834 C2833 1.428 . S
C2834 C2835 1.345 . S
C2835 H2827 0.950 . S
C2835 C2834 1.345 . S
C2835 C2836 1.424 . S
C2836 H2828 0.951 . S
C2836 C2835 1.424 . S
C2836 C2837 1.347 . S
C2837 H2829 0.951 . S
C2837 C2832 1.429 . S
C2837 C2836 1.347 . S
H2838 C2839 0.951 . S
C2839 H2838 0.951 . S
C2839 C2845 1.265 . S
H2840 C2845 0.950 . S
H2841 C2849 0.949 . S
H2842 C2850 0.950 . S
H2843 C2851 0.951 . S
H2844 C2852 0.951 . S
C2845 C2839 1.265 . S
C2845 H2840 0.950 . S
C2845 C2846 1.478 . S
C2846 C2845 1.478 . S
C2846 C2847 1.397 . S
C2846 C2863 1.394 . S
C2847 C2846 1.397 . S
C2847 C2848 1.438 . S
C2847 C2852 1.429 . S
C2848 C2847 1.438 . S
C2848 C2849 1.428 . S
C2848 C2861 1.394 . S
C2849 H2841 0.949 . S
C2849 C2848 1.428 . S
C2849 C2850 1.345 . S
C2850 H2842 0.950 . S
C2850 C2849 1.345 . S
C2850 C2851 1.424 . S
C2851 H2843 0.951 . S
C2851 C2850 1.424 . S
C2851 C2852 1.347 . S
C2852 H2844 0.951 . S
C2852 C2847 1.429 . S
C2852 C2851 1.347 . S
H2853 C2854 0.951 . S
C2854 H2853 0.951 . S
C2854 C2860 1.265 . S
H2855 C2860 0.950 . S
H2856 C2864 0.949 . S
H2857 C2865 0.950 . S
H2858 C2866 0.951 . S
H2859 C2867 0.951 . S
C2860 C2854 1.265 . S
C2860 H2855 0.950 . S
C2860 C2861 1.478 . S
C2861 C2848 1.394 . S
C2861 C2860 1.478 . S
C2861 C2862 1.397 . S
C2862 C2861 1.397 . S
C2862 C2863 1.438 . S
C2862 C2867 1.429 . S
C2863 C2846 1.394 . S
C2863 C2862 1.438 . S
C2863 C2864 1.428 . S
C2864 H2856 0.949 . S
C2864 C2863 1.428 . S
C2864 C2865 1.345 . S
C2865 H2857 0.950 . S
C2865 C2864 1.345 . S
C2865 C2866 1.424 . S
C2866 H2858 0.951 . S
C2866 C2865 1.424 . S
C2866 C2867 1.347 . S
C2867 H2859 0.951 . S
C2867 C2862 1.429 . S
C2867 C2866 1.347 . S
H2868 C2869 0.951 . S
C2869 H2868 0.951 . S
C2869 C2875 1.265 . S
H2870 C2875 0.950 . S
H2871 C2879 0.949 . S
H2872 C2880 0.950 . S
H2873 C2881 0.951 . S
H2874 C2882 0.951 . S
C2875 C2869 1.265 . S
C2875 H2870 0.950 . S
C2875 C2876 1.478 . S
C2876 C2875 1.478 . S
C2876 C2877 1.397 . S
C2876 C2893 1.394 . S
C2877 C2876 1.397 . S
C2877 C2878 1.438 . S
C2877 C2882 1.429 . S
C2878 C2877 1.438 . S
C2878 C2879 1.428 . S
C2878 C2891 1.394 . S
C2879 H2871 0.949 . S
C2879 C2878 1.428 . S
C2879 C2880 1.345 . S
C2880 H2872 0.950 . S
C2880 C2879 1.345 . S
C2880 C2881 1.424 . S
C2881 H2873 0.951 . S
C2881 C2880 1.424 . S
C2881 C2882 1.347 . S
C2882 H2874 0.951 . S
C2882 C2877 1.429 . S
C2882 C2881 1.347 . S
H2883 C2884 0.951 . S
C2884 H2883 0.951 . S
C2884 C2890 1.265 . S
H2885 C2890 0.950 . S
H2886 C2894 0.949 . S
H2887 C2895 0.950 . S
H2888 C2896 0.951 . S
H2889 C2897 0.951 . S
C2890 C2884 1.265 . S
C2890 H2885 0.950 . S
C2890 C2891 1.478 . S
C2891 C2878 1.394 . S
C2891 C2890 1.478 . S
C2891 C2892 1.397 . S
C2892 C2891 1.397 . S
C2892 C2893 1.438 . S
C2892 C2897 1.429 . S
C2893 C2876 1.394 . S
C2893 C2892 1.438 . S
C2893 C2894 1.428 . S
C2894 H2886 0.949 . S
C2894 C2893 1.428 . S
C2894 C2895 1.345 . S
C2895 H2887 0.950 . S
C2895 C2894 1.345 . S
C2895 C2896 1.424 . S
C2896 H2888 0.951 . S
C2896 C2895 1.424 . S
C2896 C2897 1.347 . S
C2897 H2889 0.951 . S
C2897 C2892 1.429 . S
C2897 C2896 1.347 . S
H2898 C2899 0.951 . S
C2899 H2898 0.951 . S
C2899 C2905 1.265 . S
H2900 C2905 0.950 . S
H2901 C2909 0.949 . S
H2902 C2910 0.950 . S
H2903 C2911 0.951 . S
H2904 C2912 0.951 . S
C2905 C2899 1.265 . S
C2905 H2900 0.950 . S
C2905 C2906 1.478 . S
C2906 C2905 1.478 . S
C2906 C2907 1.397 . S
C2906 C2923 1.394 . S
C2907 C2906 1.397 . S
C2907 C2908 1.438 . S
C2907 C2912 1.429 . S
C2908 C2907 1.438 . S
C2908 C2909 1.428 . S
C2908 C2921 1.394 . S
C2909 H2901 0.949 . S
C2909 C2908 1.428 . S
C2909 C2910 1.345 . S
C2910 H2902 0.950 . S
C2910 C2909 1.345 . S
C2910 C2911 1.424 . S
C2911 H2903 0.951 . S
C2911 C2910 1.424 . S
C2911 C2912 1.347 . S
C2912 H2904 0.951 . S
C2912 C2907 1.429 . S
C2912 C2911 1.347 . S
H2913 C2914 0.951 1_655 S
C2914 H2913 0.951 1_455 S
C2914 C2920 1.265 . S
H2915 C2920 0.950 . S
H2916 C2924 0.949 . S
H2917 C2925 0.950 . S
H2918 C2926 0.951 . S
H2919 C2927 0.951 . S
C2920 C2914 1.265 . S
C2920 H2915 0.950 . S
C2920 C2921 1.478 . S
C2921 C2908 1.394 . S
C2921 C2920 1.478 . S
C2921 C2922 1.397 . S
C2922 C2921 1.397 . S
C2922 C2923 1.438 . S
C2922 C2927 1.429 . S
C2923 C2906 1.394 . S
C2923 C2922 1.438 . S
C2923 C2924 1.428 . S
C2924 H2916 0.949 . S
C2924 C2923 1.428 . S
C2924 C2925 1.345 . S
C2925 H2917 0.950 . S
C2925 C2924 1.345 . S
C2925 C2926 1.424 . S
C2926 H2918 0.951 . S
C2926 C2925 1.424 . S
C2926 C2927 1.347 . S
C2927 H2919 0.951 . S
C2927 C2922 1.429 . S
C2927 C2926 1.347 . S
H2928 C2929 0.951 . S
C2929 H2928 0.951 . S
C2929 C2935 1.265 . S
H2930 C2935 0.950 . S
H2931 C2939 0.949 . S
H2932 C2940 0.950 . S
H2933 C2941 0.951 . S
H2934 C2942 0.951 . S
C2935 C2929 1.265 . S
C2935 H2930 0.950 . S
C2935 C2936 1.478 . S
C2936 C2935 1.478 . S
C2936 C2937 1.397 . S
C2936 C2953 1.394 . S
C2937 C2936 1.397 . S
C2937 C2938 1.438 . S
C2937 C2942 1.429 . S
C2938 C2937 1.438 . S
C2938 C2939 1.428 . S
C2938 C2951 1.394 . S
C2939 H2931 0.949 . S
C2939 C2938 1.428 . S
C2939 C2940 1.345 . S
C2940 H2932 0.950 . S
C2940 C2939 1.345 . S
C2940 C2941 1.424 . S
C2941 H2933 0.951 . S
C2941 C2940 1.424 . S
C2941 C2942 1.347 . S
C2942 H2934 0.951 . S
C2942 C2937 1.429 . S
C2942 C2941 1.347 . S
H2943 C2944 0.951 . S
C2944 H2943 0.951 . S
C2944 C2950 1.265 . S
H2945 C2950 0.950 . S
H2946 C2954 0.949 . S
H2947 C2955 0.950 . S
H2948 C2956 0.951 . S
H2949 C2957 0.951 . S
C2950 C2944 1.265 . S
C2950 H2945 0.950 . S
C2950 C2951 1.478 . S
C2951 C2938 1.394 . S
C2951 C2950 1.478 . S
C2951 C2952 1.397 . S
C2952 C2951 1.397 . S
C2952 C2953 1.438 . S
C2952 C2957 1.429 . S
C2953 C2936 1.394 . S
C2953 C2952 1.438 . S
C2953 C2954 1.428 . S
C2954 H2946 0.949 . S
C2954 C2953 1.428 . S
C2954 C2955 1.345 . S
C2955 H2947 0.950 . S
C2955 C2954 1.345 . S
C2955 C2956 1.424 . S
C2956 H2948 0.951 . S
C2956 C2955 1.424 . S
C2956 C2957 1.347 . S
C2957 H2949 0.951 . S
C2957 C2952 1.429 . S
C2957 C2956 1.347 . S
H2958 C2959 0.951 . S
C2959 H2958 0.951 . S
C2959 C2965 1.265 . S
H2960 C2965 0.950 . S
H2961 C2969 0.949 . S
H2962 C2970 0.950 . S
H2963 C2971 0.951 . S
H2964 C2972 0.951 . S
C2965 C2959 1.265 . S
C2965 H2960 0.950 . S
C2965 C2966 1.478 . S
C2966 C2965 1.478 . S
C2966 C2967 1.397 . S
C2966 C2983 1.394 . S
C2967 C2966 1.397 . S
C2967 C2968 1.438 . S
C2967 C2972 1.429 1_565 S
C2968 C2967 1.438 . S
C2968 C2969 1.428 1_565 S
C2968 C2981 1.394 . S
C2969 H2961 0.949 . S
C2969 C2968 1.428 1_545 S
C2969 C2970 1.345 . S
C2970 H2962 0.950 . S
C2970 C2969 1.345 . S
C2970 C2971 1.424 . S
C2971 H2963 0.951 . S
C2971 C2970 1.424 . S
C2971 C2972 1.347 . S
C2972 H2964 0.951 . S
C2972 C2967 1.429 1_545 S
C2972 C2971 1.347 . S
H2973 C2974 0.951 1_545 S
C2974 H2973 0.951 1_565 S
C2974 C2980 1.265 . S
H2975 C2980 0.950 . S
H2976 C2984 0.949 . S
H2977 C2985 0.950 . S
H2978 C2986 0.951 . S
H2979 C2987 0.951 . S
C2980 C2974 1.265 . S
C2980 H2975 0.950 . S
C2980 C2981 1.478 . S
C2981 C2968 1.394 . S
C2981 C2980 1.478 . S
C2981 C2982 1.397 . S
C2982 C2981 1.397 . S
C2982 C2983 1.438 . S
C2982 C2987 1.429 . S
C2983 C2966 1.394 . S
C2983 C2982 1.438 . S
C2983 C2984 1.428 . S
C2984 H2976 0.949 . S
C2984 C2983 1.428 . S
C2984 C2985 1.345 . S
C2985 H2977 0.950 . S
C2985 C2984 1.345 . S
C2985 C2986 1.424 . S
C2986 H2978 0.951 . S
C2986 C2985 1.424 . S
C2986 C2987 1.347 . S
C2987 H2979 0.951 . S
C2987 C2982 1.429 . S
C2987 C2986 1.347 . S
H2988 C2989 0.951 . S
C2989 H2988 0.951 . S
C2989 C2995 1.265 . S
H2990 C2995 0.950 . S
H2991 C2999 0.991 . S
H2992 C3000 0.950 . S
H2993 C3001 0.951 . S
H2994 C3002 0.951 . S
C2995 C2989 1.265 . S
C2995 H2990 0.950 . S
C2995 C2996 1.478 . S
C2996 C2995 1.478 . S
C2996 C2997 1.397 . S
C2996 C3013 1.394 . S
C2997 C2996 1.397 . S
C2997 C2998 1.438 . S
C2997 C3002 1.429 . S
C2998 C2997 1.438 . S
C2998 C2999 1.428 . S
C2998 C3011 1.394 . S
C2999 H2991 0.991 . S
C2999 C2998 1.428 . S
C2999 C3000 1.345 . S
C3000 H2992 0.950 . S
C3000 C2999 1.345 . S
C3000 C3001 1.424 . S
C3001 H2993 0.951 . S
C3001 C3000 1.424 . S
C3001 C3002 1.347 . S
C3002 H2994 0.951 . S
C3002 C2997 1.429 . S
C3002 C3001 1.347 . S
H3003 C3004 0.951 . S
C3004 H3003 0.951 . S
C3004 C3010 1.265 . S
H3005 C3010 0.950 1_545 S
H3006 C3014 0.949 . S
H3007 C3015 0.950 . S
H3008 C3016 0.951 . S
H3009 C3017 0.951 . S
C3010 C3004 1.265 . S
C3010 H3005 0.950 1_565 S
C3010 C3011 1.478 . S
C3011 C2998 1.394 . S
C3011 C3010 1.478 . S
C3011 C3012 1.397 . S
C3012 C3011 1.397 . S
C3012 C3013 1.438 . S
C3012 C3017 1.429 . S
C3013 C2996 1.394 . S
C3013 C3012 1.438 . S
C3013 C3014 1.428 . S
C3014 H3006 0.949 . S
C3014 C3013 1.428 . S
C3014 C3015 1.345 . S
C3015 H3007 0.950 . S
C3015 C3014 1.345 . S
C3015 C3016 1.424 . S
C3016 H3008 0.951 . S
C3016 C3015 1.424 . S
C3016 C3017 1.347 . S
C3017 H3009 0.951 . S
C3017 C3012 1.429 . S
C3017 C3016 1.347 . S
H3018 C3019 0.951 . S
C3019 H3018 0.951 . S
C3019 C3025 1.265 . S
H3020 C3025 0.950 . S
H3021 C3029 0.949 . S
H3022 C3030 0.950 . S
H3023 C3031 0.951 . S
H3024 C3032 0.951 . S
C3025 C3019 1.265 . S
C3025 H3020 0.950 . S
C3025 C3026 1.478 . S
C3026 C3025 1.478 . S
C3026 C3027 1.397 . S
C3026 C3043 1.394 . S
C3027 C3026 1.397 . S
C3027 C3028 1.438 . S
C3027 C3032 1.429 . S
C3028 C3027 1.438 . S
C3028 C3029 1.428 . S
C3028 C3041 1.394 . S
C3029 H3021 0.949 . S
C3029 C3028 1.428 . S
C3029 C3030 1.345 . S
C3030 H3022 0.950 . S
C3030 C3029 1.345 . S
C3030 C3031 1.424 . S
C3031 H3023 0.951 . S
C3031 C3030 1.424 . S
C3031 C3032 1.347 . S
C3032 H3024 0.951 . S
C3032 C3027 1.429 . S
C3032 C3031 1.347 . S
H3033 C3034 0.951 . S
C3034 H3033 0.951 . S
C3034 C3040 1.265 . S
H3035 C3040 0.950 1_655 S
H3036 C3044 0.949 . S
H3037 C3045 0.950 . S
H3038 C3046 0.951 . S
H3039 C3047 0.951 . S
C3040 C3034 1.265 . S
C3040 H3035 0.950 1_455 S
C3040 C3041 1.478 . S
C3041 C3028 1.394 . S
C3041 C3040 1.478 . S
C3041 C3042 1.397 . S
C3042 C3041 1.397 . S
C3042 C3043 1.438 . S
C3042 C3047 1.429 1_455 S
C3043 C3026 1.394 . S
C3043 C3042 1.438 . S
C3043 C3044 1.428 . S
C3044 H3036 0.949 . S
C3044 C3043 1.428 . S
C3044 C3045 1.345 . S
C3045 H3037 0.950 . S
C3045 C3044 1.345 . S
C3045 C3046 1.424 1_455 S
C3046 H3038 0.951 . S
C3046 C3045 1.424 1_655 S
C3046 C3047 1.347 . S
C3047 H3039 0.951 . S
C3047 C3042 1.429 1_655 S
C3047 C3046 1.347 . S
H3048 C3049 0.951 . S
C3049 H3048 0.951 . S
C3049 C3055 1.265 . S
H3050 C3055 0.950 . S
H3051 C3059 0.949 . S
H3052 C3060 0.950 . S
H3053 C3061 0.951 . S
H3054 C3062 0.951 . S
C3055 C3049 1.265 . S
C3055 H3050 0.950 . S
C3055 C3056 1.478 . S
C3056 C3055 1.478 . S
C3056 C3057 1.397 . S
C3056 C3073 1.394 . S
C3057 C3056 1.397 . S
C3057 C3058 1.438 . S
C3057 C3062 1.429 . S
C3058 C3057 1.438 . S
C3058 C3059 1.428 . S
C3058 C3071 1.394 . S
C3059 H3051 0.949 . S
C3059 C3058 1.428 . S
C3059 C3060 1.345 . S
C3060 H3052 0.950 . S
C3060 C3059 1.345 . S
C3060 C3061 1.424 . S
C3061 H3053 0.951 . S
C3061 C3060 1.424 . S
C3061 C3062 1.347 . S
C3062 H3054 0.951 . S
C3062 C3057 1.429 . S
C3062 C3061 1.347 . S
H3063 C3064 0.951 . S
C3064 H3063 0.951 . S
C3064 C3070 1.265 . S
H3065 C3070 0.950 . S
H3066 C3074 0.949 . S
H3067 C3075 0.950 . S
H3068 C3076 0.951 . S
H3069 C3077 0.951 . S
C3070 C3064 1.265 . S
C3070 H3065 0.950 . S
C3070 C3071 1.478 . S
C3071 C3058 1.394 . S
C3071 C3070 1.478 . S
C3071 C3072 1.397 . S
C3072 C3071 1.397 . S
C3072 C3073 1.438 . S
C3072 C3077 1.429 . S
C3073 C3056 1.394 . S
C3073 C3072 1.438 . S
C3073 C3074 1.428 . S
C3074 H3066 0.949 . S
C3074 C3073 1.428 . S
C3074 C3075 1.345 . S
C3075 H3067 0.950 . S
C3075 C3074 1.345 . S
C3075 C3076 1.424 . S
C3076 H3068 0.951 . S
C3076 C3075 1.424 . S
C3076 C3077 1.347 . S
C3077 H3069 0.951 . S
C3077 C3072 1.429 . S
C3077 C3076 1.347 . S
H3078 C3079 0.951 . S
C3079 H3078 0.951 . S
C3079 C3085 1.265 . S
H3080 C3085 0.950 . S
H3081 C3089 0.949 . S
H3082 C3090 0.950 . S
H3083 C3091 0.951 . S
H3084 C3092 0.951 . S
C3085 C3079 1.265 . S
C3085 H3080 0.950 . S
C3085 C3086 1.478 . S
C3086 C3085 1.478 . S
C3086 C3087 1.397 . S
C3086 C3103 1.394 . S
C3087 C3086 1.397 . S
C3087 C3088 1.438 . S
C3087 C3092 1.429 . S
C3088 C3087 1.438 . S
C3088 C3089 1.428 . S
C3088 C3101 1.394 . S
C3089 H3081 0.949 . S
C3089 C3088 1.428 . S
C3089 C3090 1.345 . S
C3090 H3082 0.950 . S
C3090 C3089 1.345 . S
C3090 C3091 1.424 . S
C3091 H3083 0.951 . S
C3091 C3090 1.424 . S
C3091 C3092 1.347 . S
C3092 H3084 0.951 . S
C3092 C3087 1.429 . S
C3092 C3091 1.347 . S
H3093 C3094 0.951 . S
C3094 H3093 0.951 . S
C3094 C3100 1.265 . S
H3095 C3100 0.950 . S
H3096 C3104 0.949 . S
H3097 C3105 0.950 . S
H3098 C3106 0.951 . S
H3099 C3107 0.951 . S
C3100 C3094 1.265 . S
C3100 H3095 0.950 . S
C3100 C3101 1.478 . S
C3101 C3088 1.394 . S
C3101 C3100 1.478 . S
C3101 C3102 1.397 . S
C3102 C3101 1.397 . S
C3102 C3103 1.438 . S
C3102 C3107 1.429 . S
C3103 C3086 1.394 . S
C3103 C3102 1.438 . S
C3103 C3104 1.428 . S
C3104 H3096 0.949 . S
C3104 C3103 1.428 . S
C3104 C3105 1.345 . S
C3105 H3097 0.950 . S
C3105 C3104 1.345 . S
C3105 C3106 1.424 . S
C3106 H3098 0.951 . S
C3106 C3105 1.424 . S
C3106 C3107 1.347 . S
C3107 H3099 0.951 . S
C3107 C3102 1.429 . S
C3107 C3106 1.347 . S
H3108 C3109 0.951 . S
C3109 H3108 0.951 . S
C3109 C3115 1.265 . S
H3110 C3115 0.950 . S
H3111 C3119 0.949 . S
H3112 C3120 0.950 . S
H3113 C3121 0.951 . S
H3114 C3122 0.951 . S
C3115 C3109 1.265 . S
C3115 H3110 0.950 . S
C3115 C3116 1.478 . S
C3116 C3115 1.478 . S
C3116 C3117 1.397 . S
C3116 C3133 1.394 . S
C3117 C3116 1.397 . S
C3117 C3118 1.438 . S
C3117 C3122 1.429 . S
C3118 C3117 1.438 . S
C3118 C3119 1.428 . S
C3118 C3131 1.394 . S
C3119 H3111 0.949 . S
C3119 C3118 1.428 . S
C3119 C3120 1.345 . S
C3120 H3112 0.950 . S
C3120 C3119 1.345 . S
C3120 C3121 1.424 . S
C3121 H3113 0.951 . S
C3121 C3120 1.424 . S
C3121 C3122 1.347 . S
C3122 H3114 0.951 . S
C3122 C3117 1.429 . S
C3122 C3121 1.347 . S
H3123 C3124 0.951 . S
C3124 H3123 0.951 . S
C3124 C3130 1.265 . S
H3125 C3130 0.950 . S
H3126 C3134 0.949 . S
H3127 C3135 0.950 . S
H3128 C3136 0.951 . S
H3129 C3137 0.951 . S
C3130 C3124 1.265 . S
C3130 H3125 0.950 . S
C3130 C3131 1.478 . S
C3131 C3118 1.394 . S
C3131 C3130 1.478 . S
C3131 C3132 1.397 . S
C3132 C3131 1.397 . S
C3132 C3133 1.438 . S
C3132 C3137 1.429 . S
C3133 C3116 1.394 . S
C3133 C3132 1.438 . S
C3133 C3134 1.428 . S
C3134 H3126 0.949 . S
C3134 C3133 1.428 . S
C3134 C3135 1.345 . S
C3135 H3127 0.950 . S
C3135 C3134 1.345 . S
C3135 C3136 1.424 . S
C3136 H3128 0.951 . S
C3136 C3135 1.424 . S
C3136 C3137 1.347 . S
C3137 H3129 0.951 . S
C3137 C3132 1.429 . S
C3137 C3136 1.347 . S
H3138 C3139 0.951 . S
C3139 H3138 0.951 . S
C3139 C3145 1.265 . S
H3140 C3145 0.950 . S
H3141 C3149 0.949 . S
H3142 C3150 0.950 . S
H3143 C3151 0.951 . S
H3144 C3152 0.951 . S
C3145 C3139 1.265 . S
C3145 H3140 0.950 . S
C3145 C3146 1.478 . S
C3146 C3145 1.478 . S
C3146 C3147 1.397 . S
C3146 C3163 1.394 . S
C3147 C3146 1.397 . S
C3147 C3148 1.438 . S
C3147 C3152 1.429 . S
C3148 C3147 1.438 . S
C3148 C3149 1.428 . S
C3148 C3161 1.394 . S
C3149 H3141 0.949 . S
C3149 C3148 1.428 . S
C3149 C3150 1.345 . S
C3150 H3142 0.950 . S
C3150 C3149 1.345 . S
C3150 C3151 1.424 . S
C3151 H3143 0.951 . S
C3151 C3150 1.424 . S
C3151 C3152 1.347 . S
C3152 H3144 0.951 . S
C3152 C3147 1.429 . S
C3152 C3151 1.347 . S
H3153 C3154 0.951 . S
C3154 H3153 0.951 . S
C3154 C3160 1.265 . S
H3155 C3160 0.950 . S
H3156 C3164 0.949 . S
H3157 C3165 0.950 . S
H3158 C3166 0.951 . S
H3159 C3167 0.951 . S
C3160 C3154 1.265 . S
C3160 H3155 0.950 . S
C3160 C3161 1.478 . S
C3161 C3148 1.394 . S
C3161 C3160 1.478 . S
C3161 C3162 1.397 . S
C3162 C3161 1.397 . S
C3162 C3163 1.438 . S
C3162 C3167 1.429 . S
C3163 C3146 1.394 . S
C3163 C3162 1.438 . S
C3163 C3164 1.428 . S
C3164 H3156 0.949 . S
C3164 C3163 1.428 . S
C3164 C3165 1.345 . S
C3165 H3157 0.950 . S
C3165 C3164 1.345 . S
C3165 C3166 1.424 . S
C3166 H3158 0.951 . S
C3166 C3165 1.424 . S
C3166 C3167 1.347 . S
C3167 H3159 0.951 . S
C3167 C3162 1.429 . S
C3167 C3166 1.347 . S
H3168 C3169 0.951 . S
C3169 H3168 0.951 . S
C3169 C3175 1.265 . S
H3170 C3175 0.950 . S
H3171 C3179 0.949 . S
H3172 C3180 0.950 . S
H3173 C3181 0.951 . S
H3174 C3182 0.951 . S
C3175 C3169 1.265 . S
C3175 H3170 0.950 . S
C3175 C3176 1.478 . S
C3176 C3175 1.478 . S
C3176 C3177 1.397 . S
C3176 C3193 1.394 . S
C3177 C3176 1.397 . S
C3177 C3178 1.438 . S
C3177 C3182 1.429 . S
C3178 C3177 1.438 . S
C3178 C3179 1.428 . S
C3178 C3191 1.394 . S
C3179 H3171 0.949 . S
C3179 C3178 1.428 . S
C3179 C3180 1.345 . S
C3180 H3172 0.950 . S
C3180 C3179 1.345 . S
C3180 C3181 1.424 . S
C3181 H3173 0.951 . S
C3181 C3180 1.424 . S
C3181 C3182 1.347 . S
C3182 H3174 0.951 . S
C3182 C3177 1.429 . S
C3182 C3181 1.347 . S
H3183 C3184 0.951 . S
C3184 H3183 0.951 . S
C3184 C3190 1.265 . S
H3185 C3190 0.950 1_565 S
H3186 C3194 0.907 1_545 S
H3187 C3195 0.950 . S
H3188 C3196 0.951 . S
H3189 C3197 0.951 . S
C3190 C3184 1.265 . S
C3190 H3185 0.950 1_545 S
C3190 C3191 1.478 . S
C3191 C3178 1.394 . S
C3191 C3190 1.478 . S
C3191 C3192 1.397 . S
C3192 C3191 1.397 . S
C3192 C3193 1.438 . S
C3192 C3197 1.429 1_545 S
C3193 C3176 1.394 . S
C3193 C3192 1.438 . S
C3193 C3194 1.428 1_545 S
C3194 H3186 0.907 1_565 S
C3194 C3193 1.428 1_565 S
C3194 C3195 1.345 . S
C3195 H3187 0.950 . S
C3195 C3194 1.345 . S
C3195 C3196 1.424 . S
C3196 H3188 0.951 . S
C3196 C3195 1.424 . S
C3196 C3197 1.347 . S
C3197 H3189 0.951 . S
C3197 C3192 1.429 1_565 S
C3197 C3196 1.347 . S
H3198 C3199 0.951 . S
C3199 H3198 0.951 . S
C3199 C3205 1.265 . S
H3200 C3205 0.950 . S
H3201 C3209 0.949 . S
H3202 C3210 0.950 . S
H3203 C3211 0.951 . S
H3204 C3212 0.951 . S
C3205 C3199 1.265 . S
C3205 H3200 0.950 . S
C3205 C3206 1.478 . S
C3206 C3205 1.478 . S
C3206 C3207 1.397 . S
C3206 C3223 1.394 . S
C3207 C3206 1.397 . S
C3207 C3208 1.438 . S
C3207 C3212 1.429 . S
C3208 C3207 1.438 . S
C3208 C3209 1.428 . S
C3208 C3221 1.394 . S
C3209 H3201 0.949 . S
C3209 C3208 1.428 . S
C3209 C3210 1.345 . S
C3210 H3202 0.950 . S
C3210 C3209 1.345 . S
C3210 C3211 1.424 . S
C3211 H3203 0.951 . S
C3211 C3210 1.424 . S
C3211 C3212 1.347 . S
C3212 H3204 0.951 . S
C3212 C3207 1.429 . S
C3212 C3211 1.347 . S
H3213 C3214 0.951 . S
C3214 H3213 0.951 . S
C3214 C3220 1.265 . S
H3215 C3220 0.950 1_455 S
H3216 C3224 0.949 . S
H3217 C3225 0.950 . S
H3218 C3226 0.941 1_455 S
H3219 C3227 0.951 1_455 S
C3220 C3214 1.265 . S
C3220 H3215 0.950 1_655 S
C3220 C3221 1.478 . S
C3221 C3208 1.394 . S
C3221 C3220 1.478 . S
C3221 C3222 1.397 . S
C3222 C3221 1.397 . S
C3222 C3223 1.438 . S
C3222 C3227 1.429 . S
C3223 C3206 1.394 . S
C3223 C3222 1.438 . S
C3223 C3224 1.428 . S
C3224 H3216 0.949 . S
C3224 C3223 1.428 . S
C3224 C3225 1.345 . S
C3225 H3217 0.950 . S
C3225 C3224 1.345 . S
C3225 C3226 1.417 . S
C3226 H3218 0.941 1_655 S
C3226 C3225 1.417 . S
C3226 C3227 1.375 . S
C3227 H3219 0.951 1_655 S
C3227 C3222 1.429 . S
C3227 C3226 1.375 . S
H3228 C3229 0.951 . S
C3229 H3228 0.951 . S
C3229 C3235 1.265 . S
H3230 C3235 0.950 . S
H3231 C3239 0.949 . S
H3232 C3240 0.950 . S
H3233 C3241 0.951 . S
H3234 C3242 0.951 . S
C3235 C3229 1.265 . S
C3235 H3230 0.950 . S
C3235 C3236 1.478 . S
C3236 C3235 1.478 . S
C3236 C3237 1.397 . S
C3236 C3253 1.394 . S
C3237 C3236 1.397 . S
C3237 C3238 1.438 . S
C3237 C3242 1.429 . S
C3238 C3237 1.438 . S
C3238 C3239 1.428 . S
C3238 C3251 1.394 . S
C3239 H3231 0.949 . S
C3239 C3238 1.428 . S
C3239 C3240 1.345 . S
C3240 H3232 0.950 . S
C3240 C3239 1.345 . S
C3240 C3241 1.424 . S
C3241 H3233 0.951 . S
C3241 C3240 1.424 . S
C3241 C3242 1.347 . S
C3242 H3234 0.951 . S
C3242 C3237 1.429 . S
C3242 C3241 1.347 . S
H3243 C3244 0.951 . S
C3244 H3243 0.951 . S
C3244 C3250 1.265 . S
H3245 C3250 0.950 . S
H3246 C3254 0.949 . S
H3247 C3255 0.950 . S
H3248 C3256 0.951 . S
H3249 C3257 0.951 . S
C3250 C3244 1.265 . S
C3250 H3245 0.950 . S
C3250 C3251 1.478 . S
C3251 C3238 1.394 . S
C3251 C3250 1.478 . S
C3251 C3252 1.397 . S
C3252 C3251 1.397 . S
C3252 C3253 1.438 . S
C3252 C3257 1.429 . S
C3253 C3236 1.394 . S
C3253 C3252 1.438 . S
C3253 C3254 1.428 . S
C3254 H3246 0.949 . S
C3254 C3253 1.428 . S
C3254 C3255 1.345 . S
C3255 H3247 0.950 . S
C3255 C3254 1.345 . S
C3255 C3256 1.424 . S
C3256 H3248 0.951 . S
C3256 C3255 1.424 . S
C3256 C3257 1.347 . S
C3257 H3249 0.951 . S
C3257 C3252 1.429 . S
C3257 C3256 1.347 . S
H3258 C3259 0.951 . S
C3259 H3258 0.951 . S
C3259 C3265 1.265 . S
H3260 C3265 0.950 . S
H3261 C3269 0.949 . S
H3262 C3270 0.950 . S
H3263 C3271 0.951 . S
H3264 C3272 0.951 . S
C3265 C3259 1.265 . S
C3265 H3260 0.950 . S
C3265 C3266 1.478 . S
C3266 C3265 1.478 . S
C3266 C3267 1.397 . S
C3266 C3283 1.394 . S
C3267 C3266 1.397 . S
C3267 C3268 1.438 . S
C3267 C3272 1.429 . S
C3268 C3267 1.438 . S
C3268 C3269 1.428 . S
C3268 C3281 1.394 . S
C3269 H3261 0.949 . S
C3269 C3268 1.428 . S
C3269 C3270 1.345 . S
C3270 H3262 0.950 . S
C3270 C3269 1.345 . S
C3270 C3271 1.424 . S
C3271 H3263 0.951 . S
C3271 C3270 1.424 . S
C3271 C3272 1.347 . S
C3272 H3264 0.951 . S
C3272 C3267 1.429 . S
C3272 C3271 1.347 . S
H3273 C3274 0.951 . S
C3274 H3273 0.951 . S
C3274 C3280 1.265 . S
H3275 C3280 0.950 . S
H3276 C3284 0.949 . S
H3277 C3285 0.950 . S
H3278 C3286 0.951 . S
H3279 C3287 0.951 . S
C3280 C3274 1.265 . S
C3280 H3275 0.950 . S
C3280 C3281 1.478 . S
C3281 C3268 1.394 . S
C3281 C3280 1.478 . S
C3281 C3282 1.397 . S
C3282 C3281 1.397 . S
C3282 C3283 1.438 . S
C3282 C3287 1.429 . S
C3283 C3266 1.394 . S
C3283 C3282 1.438 . S
C3283 C3284 1.428 . S
C3284 H3276 0.949 . S
C3284 C3283 1.428 . S
C3284 C3285 1.345 . S
C3285 H3277 0.950 . S
C3285 C3284 1.345 . S
C3285 C3286 1.424 . S
C3286 H3278 0.951 . S
C3286 C3285 1.424 . S
C3286 C3287 1.347 . S
C3287 H3279 0.951 . S
C3287 C3282 1.429 . S
C3287 C3286 1.347 . S
H3288 C3289 0.951 . S
C3289 H3288 0.951 . S
C3289 C3295 1.265 . S
H3290 C3295 0.950 . S
H3291 C3299 0.949 . S
H3292 C3300 0.950 . S
H3293 C3301 0.951 . S
H3294 C3302 0.951 . S
C3295 C3289 1.265 . S
C3295 H3290 0.950 . S
C3295 C3296 1.478 . S
C3296 C3295 1.478 . S
C3296 C3297 1.397 . S
C3296 C3313 1.394 . S
C3297 C3296 1.397 . S
C3297 C3298 1.438 . S
C3297 C3302 1.429 . S
C3298 C3297 1.438 . S
C3298 C3299 1.428 . S
C3298 C3311 1.394 . S
C3299 H3291 0.949 . S
C3299 C3298 1.428 . S
C3299 C3300 1.345 . S
C3300 H3292 0.950 . S
C3300 C3299 1.345 . S
C3300 C3301 1.424 . S
C3301 H3293 0.951 . S
C3301 C3300 1.424 . S
C3301 C3302 1.347 . S
C3302 H3294 0.951 . S
C3302 C3297 1.429 . S
C3302 C3301 1.347 . S
H3303 C3304 0.951 . S
C3304 H3303 0.951 . S
C3304 C3310 1.265 . S
H3305 C3310 0.950 . S
H3306 C3314 0.949 . S
H3307 C3315 0.950 . S
H3308 C3316 0.951 . S
H3309 C3317 0.951 . S
C3310 C3304 1.265 . S
C3310 H3305 0.950 . S
C3310 C3311 1.478 . S
C3311 C3298 1.394 . S
C3311 C3310 1.478 . S
C3311 C3312 1.397 . S
C3312 C3311 1.397 . S
C3312 C3313 1.438 . S
C3312 C3317 1.429 . S
C3313 C3296 1.394 . S
C3313 C3312 1.438 . S
C3313 C3314 1.428 . S
C3314 H3306 0.949 . S
C3314 C3313 1.428 . S
C3314 C3315 1.345 . S
C3315 H3307 0.950 . S
C3315 C3314 1.345 . S
C3315 C3316 1.424 . S
C3316 H3308 0.951 . S
C3316 C3315 1.424 . S
C3316 C3317 1.347 . S
C3317 H3309 0.951 . S
C3317 C3312 1.429 . S
C3317 C3316 1.347 . S
H3318 C3319 0.951 . S
C3319 H3318 0.951 . S
C3319 C3325 1.265 . S
H3320 C3325 0.950 . S
H3321 C3329 0.949 . S
H3322 C3330 0.950 . S
H3323 C3331 0.951 . S
H3324 C3332 0.951 . S
C3325 C3319 1.265 . S
C3325 H3320 0.950 . S
C3325 C3326 1.478 . S
C3326 C3325 1.478 . S
C3326 C3327 1.397 . S
C3326 C3343 1.394 . S
C3327 C3326 1.397 . S
C3327 C3328 1.438 . S
C3327 C3332 1.429 . S
C3328 C3327 1.438 . S
C3328 C3329 1.428 . S
C3328 C3341 1.394 . S
C3329 H3321 0.949 . S
C3329 C3328 1.428 . S
C3329 C3330 1.345 . S
C3330 H3322 0.950 . S
C3330 C3329 1.345 . S
C3330 C3331 1.424 . S
C3331 H3323 0.951 . S
C3331 C3330 1.424 . S
C3331 C3332 1.347 . S
C3332 H3324 0.951 . S
C3332 C3327 1.429 . S
C3332 C3331 1.347 . S
H3333 C3334 0.951 . S
C3334 H3333 0.951 . S
C3334 C3340 1.265 . S
H3335 C3340 0.950 . S
H3336 C3344 0.949 . S
H3337 C3345 0.950 . S
H3338 C3346 0.951 . S
H3339 C3347 0.951 . S
C3340 C3334 1.265 . S
C3340 H3335 0.950 . S
C3340 C3341 1.478 . S
C3341 C3328 1.394 . S
C3341 C3340 1.478 . S
C3341 C3342 1.397 . S
C3342 C3341 1.397 . S
C3342 C3343 1.438 . S
C3342 C3347 1.429 . S
C3343 C3326 1.394 . S
C3343 C3342 1.438 . S
C3343 C3344 1.428 . S
C3344 H3336 0.949 . S
C3344 C3343 1.428 . S
C3344 C3345 1.345 . S
C3345 H3337 0.950 . S
C3345 C3344 1.345 . S
C3345 C3346 1.424 . S
C3346 H3338 0.951 . S
C3346 C3345 1.424 . S
C3346 C3347 1.347 . S
C3347 H3339 0.951 . S
C3347 C3342 1.429 . S
C3347 C3346 1.347 . S
H3348 C3349 0.951 . S
C3349 H3348 0.951 . S
C3349 C3355 1.265 . S
H3350 C3355 0.950 . S
H3351 C3359 0.949 . S
H3352 C3360 0.950 . S
H3353 C3361 0.951 . S
H3354 C3362 0.951 . S
C3355 C3349 1.265 . S
C3355 H3350 0.950 . S
C3355 C3356 1.478 . S
C3356 C3355 1.478 . S
C3356 C3357 1.397 . S
C3356 C3373 1.394 . S
C3357 C3356 1.397 . S
C3357 C3358 1.438 . S
C3357 C3362 1.429 . S
C3358 C3357 1.438 . S
C3358 C3359 1.428 . S
C3358 C3371 1.394 . S
C3359 H3351 0.949 . S
C3359 C3358 1.428 . S
C3359 C3360 1.345 . S
C3360 H3352 0.950 . S
C3360 C3359 1.345 . S
C3360 C3361 1.424 . S
C3361 H3353 0.951 . S
C3361 C3360 1.424 . S
C3361 C3362 1.347 . S
C3362 H3354 0.951 . S
C3362 C3357 1.429 . S
C3362 C3361 1.347 . S
H3363 C3364 0.951 . S
C3364 H3363 0.951 . S
C3364 C3370 1.265 . S
H3365 C3370 0.950 . S
H3366 C3374 0.949 . S
H3367 C3375 0.950 . S
H3368 C3376 0.951 . S
H3369 C3377 0.951 . S
C3370 C3364 1.265 . S
C3370 H3365 0.950 . S
C3370 C3371 1.478 . S
C3371 C3358 1.394 . S
C3371 C3370 1.478 . S
C3371 C3372 1.397 . S
C3372 C3371 1.397 . S
C3372 C3373 1.438 . S
C3372 C3377 1.429 . S
C3373 C3356 1.394 . S
C3373 C3372 1.438 . S
C3373 C3374 1.428 . S
C3374 H3366 0.949 . S
C3374 C3373 1.428 . S
C3374 C3375 1.345 . S
C3375 H3367 0.950 . S
C3375 C3374 1.345 . S
C3375 C3376 1.424 . S
C3376 H3368 0.951 . S
C3376 C3375 1.424 . S
C3376 C3377 1.347 . S
C3377 H3369 0.951 . S
C3377 C3372 1.429 . S
C3377 C3376 1.347 . S
H3378 C3379 0.951 . S
C3379 H3378 0.951 . S
C3379 C3385 1.265 . S
H3380 C3385 0.950 . S
H3381 C3389 0.949 . S
H3382 C3390 0.950 . S
H3383 C3391 0.951 . S
H3384 C3392 0.951 . S
C3385 C3379 1.265 . S
C3385 H3380 0.950 . S
C3385 C3386 1.478 . S
C3386 C3385 1.478 . S
C3386 C3387 1.397 . S
C3386 C3403 1.394 . S
C3387 C3386 1.397 . S
C3387 C3388 1.438 . S
C3387 C3392 1.429 . S
C3388 C3387 1.438 . S
C3388 C3389 1.428 . S
C3388 C3401 1.394 . S
C3389 H3381 0.949 . S
C3389 C3388 1.428 . S
C3389 C3390 1.345 . S
C3390 H3382 0.950 . S
C3390 C3389 1.345 . S
C3390 C3391 1.424 . S
C3391 H3383 0.951 . S
C3391 C3390 1.424 . S
C3391 C3392 1.347 . S
C3392 H3384 0.951 . S
C3392 C3387 1.429 . S
C3392 C3391 1.347 . S
H3393 C3394 0.951 . S
C3394 H3393 0.951 . S
C3394 C3400 1.265 . S
H3395 C3400 0.950 . S
H3396 C3404 0.949 . S
H3397 C3405 0.950 . S
H3398 C3406 0.951 . S
H3399 C3407 0.951 . S
C3400 C3394 1.265 . S
C3400 H3395 0.950 . S
C3400 C3401 1.478 . S
C3401 C3388 1.394 . S
C3401 C3400 1.478 . S
C3401 C3402 1.397 . S
C3402 C3401 1.397 . S
C3402 C3403 1.438 . S
C3402 C3407 1.429 . S
C3403 C3386 1.394 . S
C3403 C3402 1.438 . S
C3403 C3404 1.428 . S
C3404 H3396 0.949 . S
C3404 C3403 1.428 . S
C3404 C3405 1.345 . S
C3405 H3397 0.950 . S
C3405 C3404 1.345 . S
C3405 C3406 1.424 . S
C3406 H3398 0.951 . S
C3406 C3405 1.424 . S
C3406 C3407 1.347 . S
C3407 H3399 0.951 . S
C3407 C3402 1.429 . S
C3407 C3406 1.347 . S
H3408 C3409 0.951 . S
C3409 H3408 0.951 . S
C3409 C3415 1.265 . S
H3410 C3415 0.950 . S
H3411 C3419 0.949 . S
H3412 C3420 0.950 . S
H3413 C3421 0.951 . S
H3414 C3422 0.951 . S
C3415 C3409 1.265 . S
C3415 H3410 0.950 . S
C3415 C3416 1.478 . S
C3416 C3415 1.478 . S
C3416 C3417 1.397 . S
C3416 C3433 1.394 . S
C3417 C3416 1.397 . S
C3417 C3418 1.438 . S
C3417 C3422 1.429 . S
C3418 C3417 1.438 . S
C3418 C3419 1.428 . S
C3418 C3431 1.394 . S
C3419 H3411 0.949 . S
C3419 C3418 1.428 . S
C3419 C3420 1.345 . S
C3420 H3412 0.950 . S
C3420 C3419 1.345 . S
C3420 C3421 1.424 . S
C3421 H3413 0.951 . S
C3421 C3420 1.424 . S
C3421 C3422 1.347 . S
C3422 H3414 0.951 . S
C3422 C3417 1.429 . S
C3422 C3421 1.347 . S
H3423 C3424 0.951 . S
C3424 H3423 0.951 . S
C3424 C3430 1.265 . S
H3425 C3430 0.950 . S
H3426 C3434 0.949 . S
H3427 C3435 0.950 . S
H3428 C3436 0.951 . S
H3429 C3437 0.951 . S
C3430 C3424 1.265 . S
C3430 H3425 0.950 . S
C3430 C3431 1.478 . S
C3431 C3418 1.394 . S
C3431 C3430 1.478 . S
C3431 C3432 1.397 . S
C3432 C3431 1.397 . S
C3432 C3433 1.438 . S
C3432 C3437 1.429 . S
C3433 C3416 1.394 . S
C3433 C3432 1.438 . S
C3433 C3434 1.428 . S
C3434 H3426 0.949 . S
C3434 C3433 1.428 . S
C3434 C3435 1.345 . S
C3435 H3427 0.950 . S
C3435 C3434 1.345 . S
C3435 C3436 1.424 . S
C3436 H3428 0.951 . S
C3436 C3435 1.424 . S
C3436 C3437 1.347 . S
C3437 H3429 0.951 . S
C3437 C3432 1.429 . S
C3437 C3436 1.347 . S
H3438 C3439 0.951 . S
C3439 H3438 0.951 . S
C3439 C3445 1.265 . S
H3440 C3445 0.950 . S
H3441 C3449 0.949 . S
H3442 C3450 0.950 . S
H3443 C3451 0.951 . S
H3444 C3452 0.951 . S
C3445 C3439 1.265 . S
C3445 H3440 0.950 . S
C3445 C3446 1.478 . S
C3446 C3445 1.478 . S
C3446 C3447 1.397 . S
C3446 C3463 1.394 . S
C3447 C3446 1.397 . S
C3447 C3448 1.438 . S
C3447 C3452 1.429 1_655 S
C3448 C3447 1.438 . S
C3448 C3449 1.428 1_655 S
C3448 C3461 1.394 . S
C3449 H3441 0.949 . S
C3449 C3448 1.428 1_455 S
C3449 C3450 1.345 . S
C3450 H3442 0.950 . S
C3450 C3449 1.345 . S
C3450 C3451 1.424 . S
C3451 H3443 0.951 . S
C3451 C3450 1.424 . S
C3451 C3452 1.347 . S
C3452 H3444 0.951 . S
C3452 C3447 1.429 1_455 S
C3452 C3451 1.347 . S
H3453 C3454 0.951 . S
C3454 H3453 0.951 . S
C3454 C3460 1.265 . S
H3455 C3460 0.950 . S
H3456 C3464 0.949 . S
H3457 C3465 0.950 . S
H3458 C3466 0.951 . S
H3459 C3467 0.951 . S
C3460 C3454 1.265 . S
C3460 H3455 0.950 . S
C3460 C3461 1.478 . S
C3461 C3448 1.394 . S
C3461 C3460 1.478 . S
C3461 C3462 1.397 . S
C3462 C3461 1.397 . S
C3462 C3463 1.438 . S
C3462 C3467 1.429 . S
C3463 C3446 1.394 . S
C3463 C3462 1.438 . S
C3463 C3464 1.428 . S
C3464 H3456 0.949 . S
C3464 C3463 1.428 . S
C3464 C3465 1.345 . S
C3465 H3457 0.950 . S
C3465 C3464 1.345 . S
C3465 C3466 1.424 . S
C3466 H3458 0.951 . S
C3466 C3465 1.424 . S
C3466 C3467 1.347 . S
C3467 H3459 0.951 . S
C3467 C3462 1.429 . S
C3467 C3466 1.347 . S
H3468 C3469 0.951 . S
C3469 H3468 0.951 . S
C3469 C3475 1.265 . S
H3470 C3475 0.950 . S
H3471 C3479 0.949 . S
H3472 C3480 0.950 . S
H3473 C3481 0.951 . S
H3474 C3482 0.951 . S
C3475 C3469 1.265 . S
C3475 H3470 0.950 . S
C3475 C3476 1.478 . S
C3476 C3475 1.478 . S
C3476 C3477 1.397 . S
C3476 C3493 1.394 . S
C3477 C3476 1.397 . S
C3477 C3478 1.438 . S
C3477 C3482 1.429 . S
C3478 C3477 1.438 . S
C3478 C3479 1.428 . S
C3478 C3491 1.394 . S
C3479 H3471 0.949 . S
C3479 C3478 1.428 . S
C3479 C3480 1.345 . S
C3480 H3472 0.950 . S
C3480 C3479 1.345 . S
C3480 C3481 1.424 . S
C3481 H3473 0.951 . S
C3481 C3480 1.424 . S
C3481 C3482 1.347 . S
C3482 H3474 0.951 . S
C3482 C3477 1.429 . S
C3482 C3481 1.347 . S
H3483 C3484 0.951 . S
C3484 H3483 0.951 . S
C3484 C3490 1.265 . S
H3485 C3490 0.950 . S
H3486 C3494 0.949 . S
H3487 C3495 0.950 . S
H3488 C3496 0.951 . S
H3489 C3497 0.951 . S
C3490 C3484 1.265 . S
C3490 H3485 0.950 . S
C3490 C3491 1.478 . S
C3491 C3478 1.394 . S
C3491 C3490 1.478 . S
C3491 C3492 1.397 . S
C3492 C3491 1.397 . S
C3492 C3493 1.438 . S
C3492 C3497 1.429 . S
C3493 C3476 1.394 . S
C3493 C3492 1.438 . S
C3493 C3494 1.428 . S
C3494 H3486 0.949 . S
C3494 C3493 1.428 . S
C3494 C3495 1.345 . S
C3495 H3487 0.950 . S
C3495 C3494 1.345 . S
C3495 C3496 1.424 . S
C3496 H3488 0.951 . S
C3496 C3495 1.424 . S
C3496 C3497 1.347 . S
C3497 H3489 0.951 . S
C3497 C3492 1.429 . S
C3497 C3496 1.347 . S
H3498 C3499 0.951 . S
C3499 H3498 0.951 . S
C3499 C3505 1.265 . S
H3500 C3505 0.950 . S
H3501 C3509 0.949 . S
H3502 C3510 0.950 . S
H3503 C3511 0.951 . S
H3504 C3512 0.951 . S
C3505 C3499 1.265 . S
C3505 H3500 0.950 . S
C3505 C3506 1.478 . S
C3506 C3505 1.478 . S
C3506 C3507 1.397 . S
C3506 C3523 1.394 . S
C3507 C3506 1.397 . S
C3507 C3508 1.438 . S
C3507 C3512 1.429 1_545 S
C3508 C3507 1.438 . S
C3508 C3509 1.428 1_545 S
C3508 C3521 1.394 . S
C3509 H3501 0.949 . S
C3509 C3508 1.428 1_565 S
C3509 C3510 1.345 . S
C3510 H3502 0.950 . S
C3510 C3509 1.345 . S
C3510 C3511 1.424 . S
C3511 H3503 0.951 . S
C3511 C3510 1.424 . S
C3511 C3512 1.347 . S
C3512 H3504 0.951 . S
C3512 C3507 1.429 1_565 S
C3512 C3511 1.347 . S
H3513 C3514 0.951 . S
C3514 H3513 0.951 . S
C3514 C3520 1.265 . S
H3515 C3520 0.950 . S
H3516 C3524 0.949 . S
H3517 C3525 0.950 . S
H3518 C3526 0.951 . S
H3519 C3527 0.951 . S
C3520 C3514 1.265 . S
C3520 H3515 0.950 . S
C3520 C3521 1.478 . S
C3521 C3508 1.394 . S
C3521 C3520 1.478 . S
C3521 C3522 1.397 . S
C3522 C3521 1.397 . S
C3522 C3523 1.438 . S
C3522 C3527 1.429 . S
C3523 C3506 1.394 . S
C3523 C3522 1.438 . S
C3523 C3524 1.428 . S
C3524 H3516 0.949 . S
C3524 C3523 1.428 . S
C3524 C3525 1.345 . S
C3525 H3517 0.950 . S
C3525 C3524 1.345 . S
C3525 C3526 1.424 . S
C3526 H3518 0.951 . S
C3526 C3525 1.424 . S
C3526 C3527 1.347 . S
C3527 H3519 0.951 . S
C3527 C3522 1.429 . S
C3527 C3526 1.347 . S
C1369 C4 1.552 . S
C1384 C857 1.520 . S
C1399 C26 1.573 . S
C1414 C901 1.519 . S
C1444 C981 1.526 . S
C1429 C32 1.547 . S
C1459 C40 1.523 . S
C1474 C1025 1.507 . S
C1489 C12 1.568 . S
C1504 C1105 1.512 . S
C1519 C18 1.506 . S
C1534 C1167 1.487 . S
C1549 C46 1.578 . S
C1564 C1087 1.570 . S
C1594 C1149 1.504 . S
C1579 C68 1.594 . S
C1624 C1043 1.474 . S
C1609 C74 1.489 . S
C1639 C82 1.506 . S
C1654 C963 1.484 . S
C1684 C839 1.524 . S
C1669 C54 1.555 . S
C1699 C60 1.567 . S
C1714 C919 1.576 . S
C1729 C88 1.633 . S
C1744 C1229 1.622 . S
C1759 C110 1.615 . S
C1774 C1273 1.567 . S
C1804 C1353 1.582 . S
C1789 C116 1.595 . S
C1819 C124 1.541 . S
C1834 C299 1.502 . S
C1849 C96 1.584 . S
C1864 C343 1.542 . S
C1879 C102 1.521 . S
C1894 C423 1.501 . S
C1909 C130 1.634 . S
C1924 C361 1.625 . S
C1939 C152 1.616 . S
C1954 C405 1.584 . S
C1984 C281 1.592 . S
C1969 C158 1.615 . S
C2014 C1335 1.520 . S
C1999 C166 1.558 . S
C2044 C1211 1.472 . S
C2029 C138 1.573 . S
C2074 C1291 1.540 . S
C2059 C144 1.550 . S
C2089 C172 1.605 . S
C2104 C485 1.589 . S
C2119 C194 1.616 . S
C2134 C547 1.489 . S
C2149 C200 1.601 . S
C2164 C591 1.613 . S
C2179 C208 1.524 . S
C2194 C653 1.440 . S
C2224 C715 1.558 . S
C2209 C180 1.588 . S
C2254 C795 1.575 . S
C2239 C186 1.583 . S
C2284 C733 1.662 . S
C2269 C214 1.651 . S
C2314 C777 1.582 . S
C2299 C236 1.612 . S
C2329 C242 1.529 . S
C2344 C671 1.528 . S
C2374 C609 1.515 . S
C2359 C250 1.530 . S
C2389 C222 1.558 . S
C2404 C467 1.497 . S
C2434 C529 1.513 . S
C2419 C228 1.531 . S
C2464 C305 1.332 . S
C2449 C5 1.178 . S
C2479 C25 1.375 . S
C2494 C349 1.281 . S
C2524 C429 1.353 . S
C2509 C33 1.203 . S
C2554 C491 1.190 . S
C2539 C39 1.275 1_556 S
C2584 C553 1.259 . S
C2569 C11 1.375 . S
C2614 C597 1.355 . S
C2599 C19 1.233 1_556 S
C2629 C47 1.268 1_556 S
C2644 C615 1.437 . S
C2659 C67 1.349 1_556 S
C2674 C473 1.267 . S
C2689 C75 1.126 . S
C2704 C535 1.291 . S
C2719 C81 1.324 . S
C2734 C367 1.252 . S
C2764 C411 1.254 . S
C2749 C53 1.348 . S
C2779 C61 1.198 . S
C2794 C287 1.328 . S
C2824 C659 1.386 . S
C2809 C89 1.214 . S
C2839 C109 1.417 . S
C2854 C721 1.327 . S
C2869 C117 1.273 . S
C2884 C801 1.392 . S
C2914 C863 1.245 . S
C2899 C123 1.251 . S
C2929 C95 1.327 . S
C2944 C907 1.291 . S
C2959 C103 1.060 . S
C2974 C987 1.199 . S
C2989 C131 1.116 . S
C3004 C969 1.254 . S
C3019 C151 1.340 . S
C3034 C845 1.226 . S
C3064 C925 1.294 . S
C3049 C159 1.072 . S
C3079 C165 1.339 . S
C3094 C739 1.266 . S
C3109 C137 1.328 1_545 S
C3124 C783 1.309 . S
C3154 C677 1.369 . S
C3139 C145 1.210 . S
C3184 C1031 1.324 . S
C3169 C173 1.165 . S
C3199 C193 1.316 . S
C3214 C1111 1.203 . S
C3229 C201 1.027 . S
C3244 C1173 1.229 . S
C3274 C1235 1.223 . S
C3259 C207 1.320 . S
C3304 C1279 1.291 . S
C3289 C179 1.397 1_565 S
C3319 C187 1.165 . S
C3334 C1359 1.326 . S
C3349 C215 1.076 . S
C3364 C1341 1.279 . S
C3379 C235 1.396 1_565 S
C3394 C1217 1.276 . S
C3424 C1297 1.327 . S
C3409 C243 1.112 . S
C3454 C1093 1.257 . S
C3439 C249 1.231 . S
C3484 C1155 1.279 . S
C3469 C221 1.360 . S
C3499 C229 1.187 . S
C3514 C1049 1.305 . S
