# Generated by pormake.
# Topology wbl, (4,4)-cn, num edge types: 1
# Building blocks:
#     Node 0, Type 0, BuildingBlock: NAWXER_clean_linker_0, # of connection points: 4
#     Node 1, Type 0, BuildingBlock: NAWXER_clean_linker_0, # of connection points: 4
#     Node 2, Type 0, BuildingBlock: NAWXER_clean_linker_0, # of connection points: 4
#     Node 3, Type 0, BuildingBlock: NAWXER_clean_linker_0, # of connection points: 4
#     Node 4, Type 0, BuildingBlock: NAWXER_clean_linker_0, # of connection points: 4
#     Node 5, Type 0, BuildingBlock: NAWXER_clean_linker_0, # of connection points: 4
#     Node 6, Type 0, BuildingBlock: NAWXER_clean_linker_0, # of connection points: 4
#     Node 7, Type 0, BuildingBlock: NAWXER_clean_linker_0, # of connection points: 4
#     Node 8, Type 1, BuildingBlock: QUQFOY_clean_sbu_3, # of connection points: 4
#     Node 9, Type 1, BuildingBlock: QUQFOY_clean_sbu_3, # of connection points: 4
#     Node 10, Type 1, BuildingBlock: QUQFOY_clean_sbu_3, # of connection points: 4
#     Node 11, Type 1, BuildingBlock: QUQFOY_clean_sbu_3, # of connection points: 4
#     Node 12, Type 1, BuildingBlock: QUQFOY_clean_sbu_3, # of connection points: 4
#     Node 13, Type 1, BuildingBlock: QUQFOY_clean_sbu_3, # of connection points: 4
#     Node 14, Type 1, BuildingBlock: QUQFOY_clean_sbu_3, # of connection points: 4
#     Node 15, Type 1, BuildingBlock: QUQFOY_clean_sbu_3, # of connection points: 4
#     Edge 16, Type (0, 1), BuildingBlock: ZUJKAS_clean_linker_0, # of connection points: 2
#     Edge 17, Type (0, 1), BuildingBlock: ZUJKAS_clean_linker_0, # of connection points: 2
#     Edge 18, Type (0, 1), BuildingBlock: ZUJKAS_clean_linker_0, # of connection points: 2
#     Edge 19, Type (0, 1), BuildingBlock: ZUJKAS_clean_linker_0, # of connection points: 2
#     Edge 20, Type (0, 1), BuildingBlock: ZUJKAS_clean_linker_0, # of connection points: 2
#     Edge 21, Type (0, 1), BuildingBlock: ZUJKAS_clean_linker_0, # of connection points: 2
#     Edge 22, Type (0, 1), BuildingBlock: ZUJKAS_clean_linker_0, # of connection points: 2
#     Edge 23, Type (0, 1), BuildingBlock: ZUJKAS_clean_linker_0, # of connection points: 2
#     Edge 24, Type (0, 1), BuildingBlock: ZUJKAS_clean_linker_0, # of connection points: 2
#     Edge 25, Type (0, 1), BuildingBlock: ZUJKAS_clean_linker_0, # of connection points: 2
#     Edge 26, Type (0, 1), BuildingBlock: ZUJKAS_clean_linker_0, # of connection points: 2
#     Edge 27, Type (0, 1), BuildingBlock: ZUJKAS_clean_linker_0, # of connection points: 2
#     Edge 28, Type (0, 1), BuildingBlock: ZUJKAS_clean_linker_0, # of connection points: 2
#     Edge 29, Type (0, 1), BuildingBlock: ZUJKAS_clean_linker_0, # of connection points: 2
#     Edge 30, Type (0, 1), BuildingBlock: ZUJKAS_clean_linker_0, # of connection points: 2
#     Edge 31, Type (0, 1), BuildingBlock: ZUJKAS_clean_linker_0, # of connection points: 2
#     Edge 32, Type (0, 1), BuildingBlock: ZUJKAS_clean_linker_0, # of connection points: 2
#     Edge 33, Type (0, 1), BuildingBlock: ZUJKAS_clean_linker_0, # of connection points: 2
#     Edge 34, Type (0, 1), BuildingBlock: ZUJKAS_clean_linker_0, # of connection points: 2
#     Edge 35, Type (0, 1), BuildingBlock: ZUJKAS_clean_linker_0, # of connection points: 2
#     Edge 36, Type (0, 1), BuildingBlock: ZUJKAS_clean_linker_0, # of connection points: 2
#     Edge 37, Type (0, 1), BuildingBlock: ZUJKAS_clean_linker_0, # of connection points: 2
#     Edge 38, Type (0, 1), BuildingBlock: ZUJKAS_clean_linker_0, # of connection points: 2
#     Edge 39, Type (0, 1), BuildingBlock: ZUJKAS_clean_linker_0, # of connection points: 2
#     Edge 40, Type (0, 1), BuildingBlock: ZUJKAS_clean_linker_0, # of connection points: 2
#     Edge 41, Type (0, 1), BuildingBlock: ZUJKAS_clean_linker_0, # of connection points: 2
#     Edge 42, Type (0, 1), BuildingBlock: ZUJKAS_clean_linker_0, # of connection points: 2
#     Edge 43, Type (0, 1), BuildingBlock: ZUJKAS_clean_linker_0, # of connection points: 2
#     Edge 44, Type (0, 1), BuildingBlock: ZUJKAS_clean_linker_0, # of connection points: 2
#     Edge 45, Type (0, 1), BuildingBlock: ZUJKAS_clean_linker_0, # of connection points: 2
#     Edge 46, Type (0, 1), BuildingBlock: ZUJKAS_clean_linker_0, # of connection points: 2
#     Edge 47, Type (0, 1), BuildingBlock: ZUJKAS_clean_linker_0, # of connection points: 2
# Relax obj value: 0.172
# Max RMSD: 0.174
# Mean RMSD: 0.144
data_MOF--net-wbl--node1-QUQFOY_clean_sbu_3--node2-NAWXER_clean_linker_0--edge1-ZUJKAS_clean_linker_0
_symmetry_space_group_name_H-M    P1
_symmetry_Int_Tables_number       1
_symmetry_cell_setting            triclinic
loop_
_symmetry_equiv_pos_as_xyz
'x, y, z'
_cell_length_a     56.841799
_cell_length_b     57.397475
_cell_length_c     98.459533
_cell_angle_alpha  90.625201
_cell_angle_beta   90.296322
_cell_angle_gamma 90.011054
loop_
_atom_site_label
_atom_site_type_symbol
_atom_site_fract_x
_atom_site_fract_y
_atom_site_fract_z
_atom_type_partial_charge
C0 C 0.07936 0.96134 0.3499 0.0
C1 C 0.09274 0.97093 0.36064 0.0
C2 C 0.06697 0.97581 0.34105 0.0
C3 C 0.06789 0.00014 0.34271 0.0
C4 C 0.09364 -0.00471 0.36223 0.0
C5 C 0.08125 0.00972 0.3534 0.0
C6 C 0.05383 0.0157 0.33394 0.0
C7 C 0.10816 0.98271 0.30771 0.0
C8 C 0.09916 0.9677 0.29757 0.0
C9 C 0.09332 -0.00211 0.31474 0.0
C10 C 0.0691 -0.00182 0.31192 0.0
C11 C 0.07503 0.96856 0.29442 0.0
C12 C 0.06012 0.98374 0.30152 0.0
C13 C 0.05328 0.01388 0.31962 0.0
C14 C -0.00471 0.09778 0.30431 0.0
C15 C 0.97889 0.08766 0.29526 0.0
C16 C 0.01073 0.0838 0.31171 0.0
C17 C 0.00993 0.05945 0.31027 0.0
C18 C 0.97893 0.06331 0.29342 0.0
C19 C -0.00558 0.04937 0.30079 0.0
C20 C 0.0248 0.04435 0.31881 0.0
C21 C 0.97233 0.07805 0.34729 0.0
C22 C 0.98254 0.09125 0.35791 0.0
C23 C 0.98626 0.06376 0.33901 0.0
C24 C 0.01072 0.06266 0.34106 0.0
C25 C 0.00705 0.09018 0.35985 0.0
C26 C 0.02095 0.07599 0.35155 0.0
C27 C 0.02559 0.04636 0.33312 0.0
H28 H 0.07834 0.94264 0.3484 0.0
H29 H 0.05631 0.96796 0.33308 0.0
H30 H 0.1034 0.00323 0.37055 0.0
H31 H 0.08199 0.02842 0.35497 0.0
H32 H 0.12678 0.98291 0.31012 0.0
H33 H 0.10082 0.00947 0.32237 0.0
H34 H 0.06762 0.95723 0.28664 0.0
H35 H 0.04152 0.9839 0.29908 0.0
H36 H -0.00397 0.1165 0.30577 0.0
H37 H 0.02302 0.09198 0.31872 0.0
H38 H 0.96638 0.0549 0.28666 0.0
H39 H -0.00635 0.03061 0.29948 0.0
H40 H 0.95353 0.07852 0.34549 0.0
H41 H 0.97781 0.05316 0.33124 0.0
H42 H 0.01547 0.0997 0.3681 0.0
H43 H 0.03973 0.07518 0.35344 0.0
N44 N 0.04013 0.032 0.3401 0.0
N45 N 0.0386 0.02811 0.31259 0.0
C46 C 0.93708 0.49502 0.59741 0.0
C47 C 0.94666 0.48511 0.60919 0.0
C48 C 0.95125 0.50807 0.58875 0.0
C49 C 0.97537 0.51102 0.59157 0.0
C50 C 0.9708 0.48785 0.61191 0.0
C51 C 0.98497 0.50068 0.60321 0.0
C52 C 0.99039 0.52634 0.58323 0.0
C53 C 0.97051 0.46817 0.55482 0.0
C54 C 0.95449 0.47468 0.54464 0.0
C55 C 0.98171 0.48506 0.56282 0.0
C56 C 0.97716 0.50878 0.56075 0.0
C57 C 0.94983 0.49843 0.5426 0.0
C58 C 0.96135 0.51539 0.5505 0.0
C59 C 0.98986 0.52653 0.56888 0.0
C60 C 0.07375 0.5848 0.5554 0.0
C61 C 0.06446 0.60128 0.54636 0.0
C62 C 0.05886 0.57011 0.56259 0.0
C63 C 0.03438 0.5716 0.56089 0.0
C64 C 0.03991 0.60217 0.54439 0.0
C65 C 0.02504 0.58732 0.55152 0.0
C66 C 0.01856 0.55682 0.56893 0.0
C67 C 0.04892 0.61007 0.5983 0.0
C68 C 0.0631 0.60019 0.60847 0.0
C69 C 0.03495 0.59588 0.58989 0.0
C70 C 0.03495 0.57159 0.59151 0.0
C71 C 0.06315 0.57586 0.60998 0.0
C72 C 0.04909 0.56174 0.60165 0.0
C73 C 0.01941 0.55634 0.58324 0.0
H74 H 0.91846 0.49343 0.59518 0.0
H75 H 0.94316 0.51647 0.58011 0.0
H76 H 0.9787 0.48019 0.62084 0.0
H77 H 0.00346 0.50273 0.60566 0.0
H78 H 0.97427 0.44997 0.55666 0.0
H79 H -0.00584 0.47961 0.57052 0.0
H80 H 0.93762 0.50383 0.53476 0.0
H81 H 0.95781 0.53365 0.54868 0.0
H82 H 0.09256 0.58325 0.55694 0.0
H83 H 0.06644 0.55767 0.56956 0.0
H84 H 0.0321 0.61481 0.53764 0.0
H85 H 0.00619 0.58859 0.55002 0.0
H86 H 0.04853 0.62875 0.59691 0.0
H87 H 0.02381 0.60392 0.58231 0.0
H88 H 0.07356 0.56777 0.61788 0.0
H89 H 0.04919 0.54307 0.60315 0.0
N90 N 0.0053 0.54115 0.58982 0.0
N91 N 0.0038 0.54191 0.56225 0.0
C92 C 0.53335 0.4331 0.84691 0.0
C93 C 0.54453 0.44176 0.85869 0.0
C94 C 0.52112 0.44817 0.8383 0.0
C95 C 0.52027 0.47221 0.8412 0.0
C96 C 0.54372 0.4658 0.86151 0.0
C97 C 0.53166 0.48083 0.85289 0.0
C98 C 0.50638 0.48841 0.83272 0.0
C99 C 0.56401 0.46139 0.80649 0.0
C100 C 0.5565 0.44779 0.79532 0.0
C101 C 0.54796 0.47471 0.81389 0.0
C102 C 0.52398 0.47448 0.81043 0.0
C103 C 0.53259 0.44809 0.7916 0.0
C104 C 0.51646 0.4614 0.79908 0.0
C105 C 0.50699 0.48853 0.81836 0.0
C106 C 0.45144 0.57506 0.80572 0.0
C107 C 0.43487 0.56677 0.79618 0.0
C108 C 0.4661 0.55958 0.81259 0.0
C109 C 0.46439 0.5355 0.81011 0.0
C110 C 0.43397 0.5427 0.79329 0.0
C111 C 0.44871 0.52724 0.80014 0.0
C112 C 0.47835 0.5189 0.81818 0.0
C113 C 0.42445 0.54964 0.8469 0.0
C114 C 0.43456 0.56293 0.8575 0.0
C115 C 0.43855 0.53564 0.83856 0.0
C116 C 0.46299 0.53471 0.84069 0.0
C117 C 0.45905 0.56208 0.8595 0.0
C118 C 0.47309 0.54798 0.85124 0.0
C119 C 0.47808 0.51903 0.83251 0.0
H120 H 0.53346 0.41462 0.84458 0.0
H121 H 0.51191 0.44096 0.82957 0.0
H122 H 0.55242 0.47303 0.87042 0.0
H123 H 0.5312 0.49926 0.85538 0.0
H124 H 0.58241 0.46206 0.80938 0.0
H125 H 0.55436 0.48534 0.82228 0.0
H126 H 0.52631 0.43784 0.78302 0.0
H127 H 0.49808 0.46123 0.79613 0.0
H128 H 0.45294 0.59351 0.80798 0.0
H129 H 0.47852 0.56637 0.82002 0.0
H130 H 0.42127 0.53568 0.78611 0.0
H131 H 0.44723 0.50872 0.79804 0.0
H132 H 0.40563 0.54996 0.84513 0.0
H133 H 0.43033 0.52518 0.83064 0.0
H134 H 0.4673 0.57179 0.86774 0.0
H135 H 0.49187 0.54734 0.85313 0.0
N136 N 0.4921 0.50383 0.83921 0.0
N137 N 0.49273 0.5036 0.81162 0.0
C138 C 0.49484 0.92067 0.05308 0.0
C139 C 0.477 0.9294 0.04462 0.0
C140 C 0.50973 0.93585 0.06018 0.0
C141 C 0.5071 0.96003 0.05894 0.0
C142 C 0.4745 0.95364 0.04328 0.0
C143 C 0.48963 0.96885 0.05029 0.0
C144 C 0.52271 0.976 0.06663 0.0
C145 C 0.47328 0.94737 0.09819 0.0
C146 C 0.48431 0.9332 0.10791 0.0
C147 C 0.48667 0.9602 0.08904 0.0
C148 C 0.51135 0.9591 0.08942 0.0
C149 C 0.50904 0.93164 0.10794 0.0
C150 C 0.52239 0.94466 0.0989 0.0
C151 C 0.52574 0.97443 0.08082 0.0
C152 C 0.58129 0.05896 0.09577 0.0
C153 C 0.59697 0.04957 0.10537 0.0
C154 C 0.568 0.04432 0.08728 0.0
C155 C 0.57021 0.02003 0.08818 0.0
C156 C 0.59947 0.02521 0.106 0.0
C157 C 0.58607 0.0106 0.09758 0.0
C158 C 0.55473 0.00434 0.08018 0.0
C159 C 0.60351 0.03906 0.05167 0.0
C160 C 0.59222 0.0546 0.04283 0.0
C161 C 0.59048 0.02278 0.05891 0.0
C162 C 0.56588 0.0219 0.05758 0.0
C163 C 0.5677 0.0529 0.04103 0.0
C164 C 0.55467 0.03662 0.04829 0.0
C165 C 0.55177 0.00592 0.06596 0.0
H166 H 0.49705 0.90208 0.05437 0.0
H167 H 0.52335 0.92868 0.06664 0.0
H168 H 0.46099 0.96078 0.03674 0.0
H169 H 0.48745 0.98748 0.04915 0.0
H170 H 0.45433 0.94929 0.09799 0.0
H171 H 0.47778 0.97164 0.082 0.0
H172 H 0.51815 0.92057 0.11508 0.0
H173 H 0.54141 0.94359 0.09937 0.0
H174 H 0.57861 0.0776 0.09516 0.0
H175 H 0.55545 0.05198 0.08032 0.0
H176 H 0.61164 0.01737 0.11311 0.0
H177 H 0.58797 -0.0081 0.09846 0.0
H178 H 0.62241 0.03961 0.05307 0.0
H179 H 0.59961 0.01107 0.06569 0.0
H180 H 0.55844 0.06473 0.03437 0.0
H181 H 0.53574 0.03608 0.04702 0.0
N182 N 0.53574 -0.00824 0.0597 0.0
N183 N 0.5417 0.98858 0.08704 0.0
C184 C 0.04209 0.60556 0.90585 0.0
C185 C 0.05483 0.59644 0.8948 0.0
C186 C 0.02833 0.59094 0.91386 0.0
C187 C 0.0272 0.56691 0.91101 0.0
C188 C 0.05381 0.57235 0.8921 0.0
C189 C 0.04008 0.55779 0.90008 0.0
C190 C 0.01127 0.55137 0.91859 0.0
C191 C 0.06613 0.57445 0.94844 0.0
C192 C 0.05756 0.58957 0.95859 0.0
C193 C 0.05063 0.56195 0.9401 0.0
C194 C 0.02624 0.56436 0.94173 0.0
C195 C 0.03312 0.59183 0.96028 0.0
C196 C 0.01757 0.5791 0.952 0.0
C197 C 0.00989 0.55104 0.9329 0.0
C198 C 0.94834 0.46683 0.94191 0.0
C199 C 0.93386 0.47512 0.95245 0.0
C200 C 0.96371 0.48185 0.93529 0.0
C201 C 0.96453 0.50562 0.93883 0.0
C202 C 0.93561 0.49871 0.95641 0.0
C203 C 0.95081 0.51378 0.94967 0.0
C204 C 0.97994 0.52195 0.93145 0.0
C205 C 0.92758 0.49576 0.90002 0.0
C206 C 0.93796 0.48266 0.88947 0.0
C207 C 0.94157 0.50846 0.90919 0.0
C208 C 0.96619 0.50814 0.90803 0.0
C209 C 0.96264 0.48224 0.88847 0.0
C210 C 0.97656 0.49501 0.89758 0.0
C211 C 0.9813 0.52239 0.91713 0.0
H212 H 0.04253 0.62403 0.90821 0.0
H213 H 0.01808 0.59853 0.92203 0.0
H214 H 0.063 0.56479 0.8835 0.0
H215 H 0.03929 0.53937 0.89759 0.0
H216 H 0.08487 0.57251 0.94682 0.0
H217 H 0.0577 0.55033 0.9324 0.0
H218 H 0.02607 0.60322 0.9681 0.0
H219 H -0.00121 0.581 0.95348 0.0
H220 H 0.94745 0.44884 0.93854 0.0
H221 H 0.97478 0.47488 0.92731 0.0
H222 H 0.92516 0.5056 0.96469 0.0
H223 H 0.9515 0.53195 0.95276 0.0
H224 H 0.90863 0.49674 0.90096 0.0
H225 H 0.93316 0.51888 0.91701 0.0
H226 H 0.97125 0.47204 0.88064 0.0
H227 H -0.00448 0.49456 0.89649 0.0
N228 N -0.00301 0.53696 0.91129 0.0
N229 N -0.0058 0.53644 0.9388 0.0
C230 C 0.44364 0.5437 0.15238 0.0
C231 C 0.45363 0.56009 0.14363 0.0
C232 C 0.45802 0.52984 0.16054 0.0
C233 C 0.48261 0.53196 0.15993 0.0
C234 C 0.47822 0.56245 0.14321 0.0
C235 C 0.49261 0.5483 0.15119 0.0
C236 C 0.49789 0.51655 0.16802 0.0
C237 C 0.47293 0.57176 0.19629 0.0
C238 C 0.45289 0.56451 0.20344 0.0
C239 C 0.48713 0.55559 0.18962 0.0
C240 C 0.48184 0.53179 0.19009 0.0
C241 C 0.44798 0.5405 0.20419 0.0
C242 C 0.46248 0.52423 0.19762 0.0
C243 C 0.49627 0.5152 0.18225 0.0
C244 C 0.58084 0.45717 0.19629 0.0
C245 C 0.57122 0.44108 0.2054 0.0
C246 C 0.56623 0.47207 0.18896 0.0
C247 C 0.54171 0.47109 0.19053 0.0
C248 C 0.54669 0.44075 0.20729 0.0
C249 C 0.5321 0.45574 0.19998 0.0
C250 C 0.52608 0.48609 0.18238 0.0
C251 C 0.55678 0.43411 0.15258 0.0
C252 C 0.57096 0.44421 0.14258 0.0
C253 C 0.54308 0.44812 0.16114 0.0
C254 C 0.54338 0.47247 0.15985 0.0
C255 C 0.57144 0.4686 0.14145 0.0
C256 C 0.55765 0.48257 0.14994 0.0
C257 C 0.52768 0.48745 0.16808 0.0
H258 H 0.42473 0.54154 0.15285 0.0
H259 H 0.44998 0.51711 0.1671 0.0
H260 H 0.48633 0.57478 0.13642 0.0
H261 H 0.51155 0.55009 0.15055 0.0
H262 H 0.47772 0.58999 0.19583 0.0
H263 H 0.50223 0.56168 0.184 0.0
H264 H 0.43265 0.5343 0.20954 0.0
H265 H 0.4582 0.50586 0.19806 0.0
H266 H 0.59967 0.45823 0.1948 0.0
H267 H 0.57408 0.48428 0.182 0.0
H268 H 0.53867 0.42843 0.21411 0.0
H269 H 0.51324 0.45485 0.20141 0.0
H270 H 0.55609 0.41537 0.15369 0.0
H271 H 0.53181 0.4399 0.16851 0.0
H272 H 0.58187 0.47688 0.13369 0.0
H273 H 0.55796 0.5013 0.14869 0.0
N274 N 0.51359 0.50273 0.16144 0.0
N275 N 0.51036 0.5 0.18897 0.0
C276 C 0.48657 0.94152 0.40357 0.0
C277 C 0.47338 0.95073 0.39276 0.0
C278 C 0.50136 0.95586 0.41137 0.0
C279 C 0.50289 0.97983 0.40872 0.0
C280 C 0.47518 0.97468 0.39005 0.0
C281 C 0.48975 0.98904 0.39794 0.0
C282 C 0.51908 -0.00474 0.41652 0.0
C283 C 0.4661 0.97138 0.44662 0.0
C284 C 0.475 0.95395 0.45512 0.0
C285 C 0.48127 0.98466 0.43876 0.0
C286 C 0.50562 0.98087 0.43936 0.0
C287 C 0.49941 0.95023 0.45578 0.0
C288 C 0.51467 0.96386 0.44807 0.0
C289 C 0.52143 -0.0053 0.43079 0.0
C290 C 0.57944 0.08003 0.44291 0.0
C291 C 0.59569 0.07121 0.45236 0.0
C292 C 0.56455 0.06497 0.43567 0.0
C293 C 0.56584 0.0408 0.43763 0.0
C294 C 0.59645 0.04704 0.45456 0.0
C295 C 0.58157 0.03201 0.44731 0.0
C296 C 0.55044 0.02464 0.42991 0.0
C297 C 0.59875 0.05616 0.39856 0.0
C298 C 0.58689 0.06854 0.38835 0.0
C299 C 0.58619 0.04245 0.40769 0.0
C300 C 0.56154 0.04112 0.40685 0.0
C301 C 0.56219 0.06749 0.38775 0.0
C302 C 0.54969 0.05382 0.39684 0.0
C303 C 0.54793 0.02536 0.41564 0.0
H304 H 0.48559 0.92319 0.40599 0.0
H305 H 0.51193 0.94807 0.41929 0.0
H306 H 0.46577 0.98233 0.38161 0.0
H307 H 0.49085 0.00739 0.39556 0.0
H308 H 0.44733 0.97446 0.44588 0.0
H309 H 0.474 -0.00212 0.43219 0.0
H310 H 0.50664 0.93695 0.46233 0.0
H311 H 0.53345 0.96081 0.44868 0.0
H312 H 0.57813 0.09858 0.44116 0.0
H313 H 0.55201 0.07222 0.42856 0.0
H314 H 0.60895 0.03966 0.46164 0.0
H315 H 0.58268 0.01343 0.44907 0.0
H316 H 0.61778 0.05636 0.39918 0.0
H317 H 0.59578 0.03237 0.41513 0.0
H318 H 0.55251 0.07707 0.38013 0.0
H319 H 0.53069 0.05303 0.39599 0.0
N320 N 0.53232 0.01067 0.40953 0.0
N321 N 0.53714 0.00926 0.43696 0.0
C322 C 0.10195 0.99044 0.65751 0.0
C323 C 0.09202 0.97809 0.64646 0.0
C324 C 0.08825 0.00582 0.66524 0.0
C325 C 0.06425 0.00882 0.66225 0.0
C326 C 0.068 0.98125 0.64349 0.0
C327 C 0.05431 -0.00358 0.65129 0.0
C328 C 0.04955 0.02584 0.66981 0.0
C329 C 0.07082 0.97168 0.69936 0.0
C330 C 0.08914 0.97947 0.70794 0.0
C331 C 0.05757 0.98747 0.69186 0.0
C332 C 0.06221 0.01141 0.69285 0.0
C333 C 0.09316 0.00361 0.70928 0.0
C334 C 0.07965 0.01946 0.70186 0.0
C335 C 0.04929 0.02779 0.68412 0.0
C336 C 0.96448 0.08832 0.69319 0.0
C337 C 0.97284 0.10474 0.70275 0.0
C338 C 0.97995 0.07275 0.68691 0.0
C339 C 0.0041 0.07349 0.68994 0.0
C340 C -0.00311 0.10473 0.70621 0.0
C341 C 0.01237 0.08914 0.6999 0.0
C342 C 0.02071 0.05806 0.68266 0.0
C343 C -0.00671 0.10893 0.65163 0.0
C344 C 0.9811 0.09837 0.64073 0.0
C345 C 0.00618 0.09536 0.66076 0.0
C346 C 0.00679 0.07099 0.65924 0.0
C347 C 0.9817 0.07398 0.63931 0.0
C348 C -0.00551 0.06047 0.64842 0.0
C349 C 0.02115 0.05626 0.66834 0.0
H350 H 0.12035 0.9884 0.66011 0.0
H351 H 0.0966 0.01571 0.67335 0.0
H352 H 0.05983 0.97251 0.63488 0.0
H353 H 0.03592 -0.00137 0.64866 0.0
H354 H 0.06671 0.95332 0.69837 0.0
H355 H 0.04385 0.98097 0.68513 0.0
H356 H 0.10717 0.01023 0.71573 0.0
H357 H 0.08337 0.03792 0.70277 0.0
H358 H 0.94599 0.08757 0.69052 0.0
H359 H 0.97306 0.06031 0.67955 0.0
H360 H 0.0039 0.11726 0.71347 0.0
H361 H 0.03092 0.08981 0.70247 0.0
H362 H -0.00659 0.1277 0.65288 0.0
H363 H 0.01604 0.10396 0.66881 0.0
H364 H 0.97223 0.06529 0.63113 0.0
H365 H -0.00525 0.04172 0.64703 0.0
N366 N 0.03543 0.04012 0.66251 0.0
N367 N 0.03496 0.04388 0.69004 0.0
C368 C 0.35799 0.6579 0.02458 0.0
O369 O 0.37363 0.65573 0.0155 0.0
Cd370 Cd 0.37055 0.66996 0.99302 0.0
O371 O 0.33817 0.66727 0.02185 0.0
Cd372 Cd 0.31821 0.6829 0.00102 0.0
C373 C 0.35696 0.72732 0.00028 0.0
O374 O 0.33402 0.65481 0.98497 0.0
O375 O 0.31813 0.68474 0.97577 0.0
O376 O 0.28274 0.6622 0.00753 0.0
C377 C 0.32731 0.66476 0.97425 0.0
O378 O 0.37148 0.71236 -0.00435 0.0
C379 C 0.26878 0.67915 0.00575 0.0
O380 O 0.33632 0.72124 0.00373 0.0
O381 O 0.27794 0.69838 0.00231 0.0
C382 C 0.38495 0.84593 0.22851 0.0
O383 O 0.40155 0.84485 0.23715 0.0
Cd384 Cd 0.39758 0.83228 0.25989 0.0
O385 O 0.36387 0.84103 0.23189 0.0
Cd386 Cd 0.34277 0.82973 0.25323 0.0
C387 C 0.3719 0.77869 0.25348 0.0
O388 O 0.36548 0.85442 0.26854 0.0
O389 O 0.34424 0.82867 0.27837 0.0
O390 O 0.31202 0.8565 0.2461 0.0
C391 C 0.35761 0.84625 0.27949 0.0
O392 O 0.38956 0.79065 0.25746 0.0
C393 C 0.29494 0.84337 0.24919 0.0
O394 O 0.35244 0.78849 0.25061 0.0
O395 O 0.30008 0.82334 0.25368 0.0
C396 C 0.19361 0.88499 0.48175 0.0
O397 O 0.19686 0.90219 0.48976 0.0
Cd398 Cd 0.21099 0.89899 0.51244 0.0
O399 O 0.19757 0.86425 0.4857 0.0
Cd400 Cd 0.2107 0.84476 0.50709 0.0
C401 C 0.26352 0.87124 0.50598 0.0
O402 O 0.18725 0.86918 0.52203 0.0
O403 O 0.21292 0.84796 0.5322 0.0
O404 O 0.18235 0.81499 0.50033 0.0
C405 C 0.19547 0.86162 0.5331 0.0
O406 O 0.25256 0.88926 0.51016 0.0
C407 C 0.19465 0.79779 0.50414 0.0
O408 O 0.25244 0.85249 0.5032 0.0
O409 O 0.21499 0.80232 0.50887 0.0
C410 C 0.15981 0.68294 0.77572 0.0
O411 O 0.15993 0.66627 0.76714 0.0
Cd412 Cd 0.17311 0.66839 0.74424 0.0
O413 O 0.16714 0.70312 0.77244 0.0
Cd414 Cd 0.18361 0.72138 0.75156 0.0
C415 C 0.23013 0.68463 0.75076 0.0
O416 O 0.15624 0.70323 0.73576 0.0
O417 O 0.18575 0.71996 0.72637 0.0
O418 O 0.16089 0.75611 0.75674 0.0
C419 C 0.16605 0.70981 0.72497 0.0
O420 O 0.21588 0.66976 0.74569 0.0
C421 C 0.17774 0.77043 0.75555 0.0
O422 O 0.22291 0.7045 0.75486 0.0
O423 O 0.19789 0.76186 0.75303 0.0
C424 C 0.86853 0.17346 0.47694 0.0
O425 O 0.86717 0.15706 0.48546 0.0
Cd426 Cd 0.85543 0.16134 0.50859 0.0
O427 O 0.86322 0.1943 0.48039 0.0
Cd428 Cd 0.8492 0.21468 0.50139 0.0
C429 C 0.79981 0.18198 0.50313 0.0
O430 O 0.87615 0.19489 0.51653 0.0
O431 O 0.84986 0.21547 0.52667 0.0
O432 O 0.87325 0.24742 0.49438 0.0
C433 C 0.86829 0.20315 0.52756 0.0
O434 O 0.81292 0.16616 0.50805 0.0
C435 C 0.85799 0.263 0.49692 0.0
O436 O 0.80857 0.20091 0.49882 0.0
O437 O 0.83805 0.25601 0.50097 0.0
C438 C 0.85619 0.37657 0.7247 0.0
O439 O 0.87302 0.37758 0.73321 0.0
Cd440 Cd 0.87082 0.36578 0.75631 0.0
O441 O 0.83601 0.36906 0.72822 0.0
Cd442 Cd 0.8176 0.35375 0.74936 0.0
C443 C 0.85594 0.30871 0.75002 0.0
O444 O 0.83521 0.38225 0.76475 0.0
O445 O 0.81845 0.3533 0.77447 0.0
O446 O 0.78246 0.3743 0.74195 0.0
C447 C 0.82839 0.37299 0.77565 0.0
O448 O 0.87074 0.32341 0.75473 0.0
C449 C 0.76808 0.35831 0.74503 0.0
O450 O 0.83543 0.31518 0.74639 0.0
O451 O 0.77682 0.33959 0.74963 0.0
C452 C 0.65961 0.35563 0.97338 0.0
O453 O 0.65916 0.37305 0.98143 0.0
Cd454 Cd 0.67334 0.37361 0.00419 0.0
O455 O 0.66775 0.33608 0.9773 0.0
Cd456 Cd 0.68488 0.31998 -0.00125 0.0
C457 C 0.73057 0.35762 -0.00249 0.0
O458 O 0.6578 0.33937 0.01415 0.0
O459 O 0.68779 0.32355 0.02376 0.0
O460 O 0.66234 0.28496 0.99374 0.0
C461 C 0.66817 0.3338 0.02504 0.0
O462 O 0.71589 0.37281 0.00168 0.0
C463 C 0.67875 0.27069 -0.00364 0.0
O464 O 0.72397 0.33684 0.99482 0.0
O465 O 0.69864 0.27937 -0.00049 0.0
C466 C 0.69358 0.15253 0.26883 0.0
O467 O 0.6962 0.13545 0.26067 0.0
Cd468 Cd 0.70867 0.13867 0.23769 0.0
O469 O 0.69718 0.17334 0.2649 0.0
Cd470 Cd 0.70891 0.19296 0.24341 0.0
C471 C 0.76156 0.1657 0.24383 0.0
O472 O 0.68485 0.16887 0.2284 0.0
O473 O 0.71017 0.19044 0.21832 0.0
O474 O 0.68132 0.22331 0.25021 0.0
C475 C 0.69279 0.17667 0.21737 0.0
O476 O 0.75053 0.14785 0.23939 0.0
C477 C 0.6943 0.24026 0.24684 0.0
O478 O 0.75053 0.18429 0.24697 0.0
O479 O 0.71457 0.23526 0.24228 0.0
H480 H 0.13353 0.94057 0.30853 0.0
H481 H 0.16275 0.91705 0.2965 0.0
H482 H 0.1303 0.9343 0.25824 0.0
H483 H 0.10097 0.95815 0.27023 0.0
H484 H 0.14602 0.88466 0.26178 0.0
H485 H 0.214 0.95156 0.27343 0.0
H486 H 0.19757 0.94203 0.28789 0.0
H487 H 0.18287 0.95748 0.27453 0.0
C488 C 0.13255 0.93932 0.29756 0.0
C489 C 0.11519 0.95149 0.2903 0.0
C490 C 0.14917 0.9258 0.29072 0.0
C491 C 0.14879 0.92423 0.2765 0.0
C492 C 0.13082 0.93536 0.26923 0.0
H493 H 0.27842 0.88258 0.23701 0.0
H494 H 0.24016 0.90102 0.2405 0.0
C495 C 0.11411 0.94892 0.27608 0.0
C496 C 0.16823 0.91235 0.26934 0.0
H497 H 0.22759 0.91507 0.26509 0.0
C498 C 0.16385 0.89136 0.26234 0.0
C499 C 0.19132 0.9214 0.2699 0.0
C500 C 0.19679 0.94446 0.27673 0.0
C501 C 0.18231 0.87861 0.25636 0.0
C502 C 0.20564 0.88704 0.25762 0.0
C503 C 0.20973 0.90854 0.26414 0.0
C504 C 0.22642 0.8735 0.25306 0.0
C505 C 0.17666 0.85628 0.24883 0.0
C506 C 0.23113 0.85151 0.25857 0.0
C507 C 0.25293 0.84082 0.25647 0.0
C508 C 0.27051 0.85215 0.24903 0.0
C509 C 0.26526 0.87349 0.24286 0.0
C510 C 0.24339 0.88404 0.24483 0.0
H511 H 0.15832 0.85634 0.24488 0.0
H512 H 0.18887 0.85335 0.24021 0.0
H513 H 0.17838 0.84144 0.2559 0.0
H514 H 0.21856 0.84326 0.2652 0.0
H515 H 0.25651 0.82442 0.26141 0.0
H516 H 0.06103 0.61785 0.52033 0.0
H517 H 0.08519 0.64807 0.50987 0.0
H518 H 0.12782 0.65264 0.5461 0.0
H519 H 0.10338 0.6232 0.55687 0.0
H520 H 0.09439 0.69627 0.52729 0.0
H521 H 0.17157 0.64587 0.50842 0.0
H522 H 0.14246 0.63322 0.50923 0.0
H523 H 0.15881 0.63848 0.52456 0.0
C524 C 0.07553 0.62527 0.52609 0.0
C525 C 0.08019 0.61812 0.53948 0.0
C526 C 0.08941 0.64235 0.52004 0.0
C527 C 0.10832 0.6523 0.5272 0.0
C528 C 0.11345 0.64485 0.54039 0.0
H529 H 0.21061 0.76045 0.51845 0.0
H530 H 0.18977 0.72381 0.52225 0.0
C531 C 0.0995 0.62794 0.54649 0.0
C532 C 0.12143 0.67203 0.52149 0.0
H533 H 0.1736 0.68693 0.50697 0.0
C534 C 0.11159 0.6943 0.52269 0.0
C535 C 0.14391 0.6692 0.51571 0.0
C536 C 0.15495 0.64543 0.51431 0.0
C537 C 0.12399 0.71409 0.51858 0.0
C538 C 0.14656 0.71137 0.51271 0.0
C539 C 0.15624 0.68895 0.51135 0.0
C540 C 0.1608 0.7318 0.50873 0.0
C541 C 0.11321 0.73777 0.52116 0.0
C542 C 0.15197 0.74794 0.49938 0.0
C543 C 0.16365 0.76902 0.49735 0.0
C544 C 0.18463 0.77407 0.50441 0.0
C545 C 0.19445 0.75706 0.51289 0.0
C546 C 0.18256 0.73612 0.51507 0.0
H547 H 0.09895 0.73705 0.52882 0.0
H548 H 0.12667 0.75046 0.52477 0.0
H549 H 0.10546 0.74434 0.51158 0.0
H550 H 0.13554 0.74465 0.49408 0.0
H551 H 0.15583 0.78168 0.49062 0.0
H552 H 0.41182 0.60341 0.80816 0.0
H553 H 0.3809 0.62764 0.79831 0.0
H554 H 0.38736 0.59055 0.76022 0.0
H555 H 0.4188 0.56656 0.76984 0.0
H556 H 0.37994 0.65538 0.77092 0.0
H557 H 0.31735 0.58132 0.77618 0.0
H558 H 0.34404 0.58351 0.78614 0.0
H559 H 0.34544 0.57531 0.76853 0.0
C560 C 0.40713 0.60076 0.79759 0.0
C561 C 0.41771 0.58292 0.78981 0.0
C562 C 0.3894 0.61459 0.792 0.0
C563 C 0.38188 0.61076 0.77859 0.0
C564 C 0.39295 0.59364 0.77062 0.0
H565 H 0.2541 0.65051 0.73734 0.0
H566 H 0.29299 0.63513 0.7428 0.0
C567 C 0.41075 0.57986 0.77617 0.0
C568 C 0.36107 0.6232 0.77334 0.0
H569 H 0.30278 0.61555 0.76645 0.0
C570 C 0.36304 0.64675 0.76988 0.0
C571 C 0.33916 0.6118 0.77206 0.0
C572 C 0.33614 0.58662 0.77598 0.0
C573 C 0.34353 0.6592 0.76493 0.0
C574 C 0.3215 0.64781 0.76376 0.0
C575 C 0.31969 0.62423 0.76727 0.0
C576 C 0.29983 0.6598 0.75913 0.0
C577 C 0.34681 0.6842 0.76079 0.0
C578 C 0.29097 0.67922 0.76626 0.0
C579 C 0.26879 0.68826 0.76303 0.0
C580 C 0.25494 0.67772 0.75281 0.0
C581 C 0.26428 0.6589 0.74534 0.0
C582 C 0.28651 0.6501 0.74844 0.0
H583 H 0.3655 0.68801 0.7584 0.0
H584 H 0.33579 0.68843 0.75181 0.0
H585 H 0.34153 0.69583 0.76932 0.0
H586 H 0.30067 0.68668 0.77474 0.0
H587 H 0.26199 0.70267 0.76902 0.0
H588 H 0.48897 0.89076 0.02994 0.0
H589 H 0.46255 0.86171 0.0198 0.0
H590 H 0.40253 0.90182 0.03296 0.0
H591 H 0.42898 0.93101 0.04322 0.0
H592 H 0.40304 0.85355 0.04075 0.0
H593 H 0.41928 0.86411 0.98572 0.0
H594 H 0.44566 0.8626 -0.0042 0.0
H595 H 0.42581 0.88668 -0.00188 0.0
C596 C 0.47014 0.8935 0.03055 0.0
C597 C 0.46099 0.91308 0.03738 0.0
C598 C 0.45509 0.87703 0.02465 0.0
C599 C 0.43063 0.87981 0.02549 0.0
C600 C 0.42139 0.89954 0.03209 0.0
H601 H 0.33094 0.76482 0.00912 0.0
H602 H 0.34516 0.80428 0.01418 0.0
C603 C 0.43647 0.91619 0.0379 0.0
C604 C 0.415 0.86091 0.02056 0.0
H605 H 0.40238 0.82776 0.9925 0.0
C606 C 0.40243 0.84812 0.03017 0.0
C607 C 0.41436 0.85397 0.00675 0.0
C608 C 0.42682 0.86768 -0.00403 0.0
C609 C 0.39048 0.8276 0.02648 0.0
C610 C 0.39069 0.82005 0.01274 0.0
C611 C 0.40227 0.83356 0.00302 0.0
C612 C 0.38118 0.79704 0.00852 0.0
C613 C 0.37901 0.81344 0.03746 0.0
C614 C 0.3965 0.78021 0.00313 0.0
C615 C 0.38842 0.7578 9e-05 0.0
C616 C 0.36482 0.75171 0.00241 0.0
C617 C 0.34927 0.76887 0.00734 0.0
C618 C 0.35738 0.79139 0.0103 0.0
H619 H 0.38453 0.81925 0.04779 0.0
H620 H 0.35963 0.81533 0.0367 0.0
H621 H 0.38337 0.79467 0.03624 0.0
H622 H 0.41493 0.78422 0.00164 0.0
H623 H 0.40088 0.74509 -0.00374 0.0
H624 H 0.05606 0.63598 0.96529 0.0
H625 H 0.08604 0.65861 0.97774 0.0
H626 H 0.12668 0.59607 0.9836 0.0
H627 H 0.09683 0.57338 0.97132 0.0
H628 H 0.12226 0.62909 0.00751 0.0
H629 H 0.15221 0.66911 0.95919 0.0
H630 H 0.12142 0.67031 0.96335 0.0
H631 H 0.13475 0.64284 0.95925 0.0
C632 C 0.0712 0.62703 0.96945 0.0
C633 C 0.07427 0.60298 0.96723 0.0
C634 C 0.0883 0.63997 0.9765 0.0
C635 C 0.10857 0.62898 0.98148 0.0
C636 C 0.11113 0.60483 0.97981 0.0
H637 H 0.24501 0.63932 0.01157 0.0
H638 H 0.20327 0.63171 0.00822 0.0
C639 C 0.09418 0.59195 0.97272 0.0
C640 C 0.12817 0.64256 0.9875 0.0
H641 H 0.17573 0.67494 0.97845 0.0
C642 C 0.13376 0.63951 0.00125 0.0
C643 C 0.14296 0.65627 0.97931 0.0
C644 C 0.13774 0.65987 0.96443 0.0
C645 C 0.15442 0.64899 0.00691 0.0
C646 C 0.17012 0.66125 -0.00153 0.0
C647 C 0.16373 0.66551 0.98492 0.0
C648 C 0.19446 0.66714 0.00281 0.0
C649 C 0.15943 0.64533 0.02179 0.0
C650 C 0.20353 0.68963 0.00091 0.0
C651 C 0.22759 0.69398 0.00265 0.0
C652 C 0.24298 0.67585 0.00624 0.0
C653 C 0.23364 0.65368 0.00884 0.0
C654 C 0.20966 0.64934 0.00705 0.0
H655 H 0.14283 0.64422 0.02765 0.0
H656 H 0.16893 0.62859 0.02306 0.0
H657 H 0.17041 0.65959 0.02615 0.0
H658 H 0.19215 0.70359 -0.00245 0.0
H659 H 0.23426 0.71125 0.00057 0.0
H660 H 0.44051 0.60712 0.19362 0.0
H661 H 0.41915 0.638 0.20523 0.0
H662 H 0.40633 0.59247 0.23898 0.0
H663 H 0.42946 0.56185 0.22784 0.0
H664 H 0.37603 0.64358 0.21399 0.0
H665 H 0.43718 0.64583 0.25833 0.0
H666 H 0.44307 0.62853 0.24336 0.0
H667 H 0.42193 0.6188 0.2556 0.0
C668 C 0.43348 0.60368 0.2036 0.0
C669 C 0.43732 0.58217 0.20995 0.0
C670 C 0.42093 0.6213 0.21016 0.0
C671 C 0.41156 0.61778 0.22313 0.0
C672 C 0.41397 0.59583 0.22915 0.0
H673 H 0.3375 0.7452 0.25132 0.0
H674 H 0.34293 0.70357 0.24635 0.0
C675 C 0.42694 0.57822 0.22267 0.0
C676 C 0.40048 0.63773 0.23036 0.0
H677 H 0.40832 0.67471 0.25738 0.0
C678 C 0.38286 0.65029 0.22357 0.0
C679 C 0.40945 0.64641 0.24287 0.0
C680 C 0.42906 0.63435 0.25044 0.0
C681 C 0.37522 0.6721 0.22838 0.0
C682 C 0.38477 0.68114 0.24066 0.0
C683 C 0.40106 0.66774 0.24797 0.0
C684 C 0.3809 0.70565 0.24506 0.0
C685 C 0.35834 0.6859 0.21972 0.0
C686 C 0.40044 0.7204 0.24666 0.0
C687 C 0.39743 0.74391 0.24983 0.0
C688 C 0.37477 0.75333 0.25129 0.0
C689 C 0.35517 0.73847 0.25008 0.0
C690 C 0.35824 0.71473 0.24716 0.0
H691 H 0.35665 0.6785 0.20929 0.0
H692 H 0.34065 0.68567 0.22442 0.0
H693 H 0.36413 0.70431 0.21895 0.0
H694 H 0.41811 0.71384 0.24509 0.0
H695 H 0.41291 0.75486 0.25067 0.0
H696 H 0.44053 0.96942 0.47191 0.0
H697 H 0.41049 0.9462 0.48323 0.0
H698 H 0.44181 0.8832 0.46734 0.0
H699 H 0.4722 0.90649 0.45604 0.0
H700 H 0.39106 0.89147 0.46168 0.0
H701 H 0.41441 0.90008 0.51624 0.0
H702 H 0.41607 0.92678 0.50691 0.0
H703 H 0.43572 0.90325 0.5028 0.0
C704 C 0.44121 0.9506 0.47102 0.0
C705 C 0.45859 0.93969 0.46313 0.0
C706 C 0.42418 0.93737 0.47755 0.0
C707 C 0.42415 0.91302 0.47622 0.0
C708 C 0.44177 0.90198 0.46858 0.0
H709 H 0.29309 0.83764 0.49557 0.0
H710 H 0.33456 0.84232 0.48941 0.0
C711 C 0.45907 0.91524 0.46218 0.0
C712 C 0.40416 0.89969 0.48169 0.0
H713 H 0.37425 0.8904 0.51106 0.0
C714 C 0.38755 0.89062 0.47248 0.0
C715 C 0.39978 0.89874 0.49577 0.0
C716 C 0.41752 0.90754 0.50604 0.0
C717 C 0.36573 0.8823 0.47695 0.0
C718 C 0.36076 0.88259 0.49103 0.0
C719 C 0.37809 0.89021 0.50028 0.0
C720 C 0.33672 0.87827 0.49616 0.0
C721 C 0.34757 0.87496 0.4665 0.0
C722 C 0.32456 0.89657 0.50253 0.0
C723 C 0.30105 0.89392 0.50616 0.0
C724 C 0.28915 0.87287 0.50348 0.0
C725 C 0.30168 0.85414 0.49767 0.0
C726 C 0.32533 0.8568 0.49408 0.0
H727 H 0.35287 0.87956 0.45602 0.0
H728 H 0.34518 0.85579 0.46687 0.0
H729 H 0.33034 0.88326 0.46869 0.0
H730 H 0.33303 0.91326 0.50426 0.0
H731 H 0.29205 0.90867 0.5107 0.0
H732 H 0.10773 0.98263 0.7338 0.0
H733 H 0.13141 0.9535 0.74566 0.0
H734 H 0.1268 0.90792 0.71061 0.0
H735 H 0.10472 0.93734 0.69844 0.0
H736 H 0.11986 0.91204 0.75339 0.0
H737 H 0.19471 0.90145 0.71882 0.0
H738 H 0.17442 0.92548 0.71735 0.0
H739 H 0.16814 0.89782 0.7092 0.0
C740 C 0.11227 0.96663 0.7285 0.0
C741 C 0.1042 0.96233 0.71517 0.0
C742 C 0.1257 0.94994 0.73533 0.0
C743 C 0.13132 0.92866 0.72895 0.0
C744 C 0.12335 0.92444 0.71564 0.0
H745 H 0.13545 0.79248 0.75573 0.0
H746 H 0.12785 0.83362 0.75232 0.0
C747 C 0.11025 0.94115 0.70877 0.0
C748 C 0.14368 0.90991 0.73644 0.0
H749 H 0.18409 0.86674 0.73176 0.0
C750 C 0.1343 0.90246 0.74882 0.0
C751 C 0.16306 0.89779 0.73081 0.0
C752 C 0.1758 0.90629 0.7184 0.0
C753 C 0.14234 0.88204 0.75504 0.0
C754 C 0.15959 0.86827 0.74842 0.0
C755 C 0.17047 0.8769 0.73672 0.0
C756 C 0.16456 0.84385 0.75241 0.0
C757 C 0.13185 0.87526 0.76847 0.0
C758 C 0.18779 0.83559 0.75341 0.0
C759 C 0.19222 0.81177 0.75502 0.0
C760 C 0.17348 0.79585 0.75574 0.0
C761 C 0.15029 0.8043 0.75534 0.0
C762 C 0.1459 0.82796 0.75352 0.0
H763 H 0.12758 0.89099 0.77465 0.0
H764 H 0.11514 0.8657 0.76662 0.0
H765 H 0.14394 0.86404 0.7744 0.0
H766 H 0.2025 0.84746 0.75248 0.0
H767 H 0.21027 0.80577 0.75529 0.0
H768 H 0.59192 0.42083 0.80534 0.0
H769 H 0.62372 0.40214 0.79264 0.0
H770 H 0.59236 0.42435 0.755 0.0
H771 H 0.56052 0.44348 0.76766 0.0
H772 H 0.61413 0.37305 0.75773 0.0
H773 H 0.67059 0.44912 0.7713 0.0
H774 H 0.65377 0.43669 0.78486 0.0
H775 H 0.63885 0.45073 0.77108 0.0
C776 C 0.59167 0.4216 0.79435 0.0
C777 C 0.57391 0.43391 0.7875 0.0
C778 C 0.60973 0.41078 0.78713 0.0
C779 C 0.61034 0.41201 0.77293 0.0
C780 C 0.59204 0.42317 0.76597 0.0
H781 H 0.74472 0.39411 0.73298 0.0
H782 H 0.7038 0.40551 0.73656 0.0
C783 C 0.5739 0.43405 0.77321 0.0
C784 C 0.6314 0.40373 0.76563 0.0
H785 H 0.68944 0.41641 0.76153 0.0
C786 C 0.63058 0.38257 0.75838 0.0
C787 C 0.65265 0.41642 0.7664 0.0
C788 C 0.65415 0.4396 0.77374 0.0
C789 C 0.65091 0.3733 0.75228 0.0
C790 C 0.67248 0.38547 0.75364 0.0
C791 C 0.67293 0.40707 0.76047 0.0
C792 C 0.69524 0.37577 0.74893 0.0
C793 C 0.64912 0.3506 0.74449 0.0
C794 C 0.7038 0.35482 0.75429 0.0
C795 C 0.72717 0.34815 0.75215 0.0
C796 C 0.74244 0.36254 0.74482 0.0
C797 C 0.73341 0.38273 0.73875 0.0
C798 C 0.71002 0.38926 0.74077 0.0
H799 H 0.63097 0.34763 0.74061 0.0
H800 H 0.66149 0.35014 0.7358 0.0
H801 H 0.65358 0.33604 0.75137 0.0
H802 H 0.69292 0.34438 0.76085 0.0
H803 H 0.73364 0.33255 0.75701 0.0
H804 H 0.58793 0.07013 0.01667 0.0
H805 H 0.60744 0.1038 0.00661 0.0
H806 H 0.6465 0.11513 0.04376 0.0
H807 H 0.62667 0.08195 0.054 0.0
H808 H 0.62187 0.15401 0.03477 0.0
H809 H 0.67521 0.11515 0.99321 0.0
H810 H 0.64495 0.10607 0.99341 0.0
H811 H 0.66413 0.09827 0.00719 0.0
C812 C 0.60082 0.07969 0.02265 0.0
C813 C 0.60572 0.07339 0.03614 0.0
C814 C 0.61216 0.09873 0.01683 0.0
C815 C 0.62863 0.11175 0.02439 0.0
C816 C 0.63401 0.10514 0.03772 0.0
H817 H 0.70854 0.2363 0.00503 0.0
H818 H 0.69788 0.19607 0.01047 0.0
C819 C 0.62273 0.08611 0.04353 0.0
C820 C 0.63835 0.13367 0.01897 0.0
H821 H 0.67098 0.15656 0.99327 0.0
C822 C 0.63274 0.15454 0.02576 0.0
C823 C 0.65258 0.13426 0.00723 0.0
C824 C 0.65979 0.11224 -0.00012 0.0
C825 C 0.64058 0.17605 0.02097 0.0
C826 C 0.65424 0.17672 0.00904 0.0
C827 C 0.66033 0.15589 0.00236 0.0
C828 C 0.66194 0.19921 0.00343 0.0
C829 C 0.63413 0.19801 0.02867 0.0
C830 C 0.64544 0.21386 -0.00275 0.0
C831 C 0.65142 0.23677 0.99415 0.0
C832 C 0.67401 0.24541 -0.00279 0.0
C833 C 0.69099 0.23017 0.00257 0.0
C834 C 0.68496 0.20719 0.00567 0.0
H835 H 0.62674 0.19424 0.03884 0.0
H836 H 0.64978 0.20941 0.02998 0.0
H837 H 0.62077 0.2078 0.02278 0.0
H838 H 0.6276 0.20791 0.99545 0.0
H839 H 0.63797 0.24802 0.98997 0.0
H840 H 0.96205 0.08341 0.26919 0.0
H841 H 0.92866 0.10386 0.25916 0.0
H842 H 0.92172 0.14553 0.29565 0.0
H843 H 0.95437 0.12443 0.30599 0.0
H844 H 0.88117 0.12506 0.28853 0.0
H845 H 0.91862 0.16775 0.24339 0.0
H846 H 0.92534 0.13724 0.24384 0.0
H847 H 0.93679 0.1564 0.25689 0.0
C848 C 0.95354 0.09705 0.27505 0.0
C849 C 0.96082 0.10218 0.28843 0.0
C850 C 0.93467 0.10898 0.26922 0.0
C851 C 0.92291 0.12647 0.27658 0.0
C852 C 0.93069 0.13224 0.28974 0.0
H853 H 0.7897 0.19636 0.25797 0.0
H854 H 0.8305 0.19011 0.26526 0.0
C855 C 0.94947 0.12024 0.29561 0.0
C856 C 0.90084 0.13668 0.27122 0.0
H857 H 0.87642 0.16296 0.24353 0.0
C858 C 0.88023 0.13373 0.27881 0.0
C859 C 0.89963 0.14795 0.25851 0.0
C860 C 0.92133 0.15274 0.25025 0.0
C861 C 0.85833 0.14092 0.2738 0.0
C862 C 0.85703 0.15131 0.2609 0.0
C863 C 0.87761 0.15491 0.25343 0.0
C864 C 0.83404 0.15701 0.25479 0.0
C865 C 0.83652 0.13663 0.28209 0.0
C866 C 0.82294 0.14069 0.24626 0.0
C867 C 0.79967 0.14407 0.24216 0.0
C868 C 0.78714 0.16391 0.24651 0.0
C869 C 0.79883 0.1809 0.25445 0.0
C870 C 0.82212 0.1774 0.25861 0.0
H871 H 0.8405 0.12781 0.29182 0.0
H872 H 0.82769 0.15346 0.28437 0.0
H873 H 0.82394 0.1257 0.27616 0.0
H874 H 0.83194 0.12481 0.24328 0.0
H875 H 0.79125 0.13072 0.23598 0.0
H876 H 0.9075 0.46956 0.53931 0.0
H877 H 0.88821 0.43636 0.52787 0.0
H878 H 0.9561 0.40606 0.51948 0.0
H879 H 0.97535 0.43882 0.53111 0.0
H880 H 0.89123 0.41492 0.50177 0.0
H881 H 0.92351 0.35699 0.54256 0.0
H882 H 0.9248 0.38833 0.54396 0.0
H883 H 0.94667 0.37267 0.53437 0.0
C884 C 0.91824 0.45594 0.53483 0.0
C885 C 0.94285 0.45647 0.53625 0.0
C886 C 0.90724 0.43704 0.52832 0.0
C887 C 0.92074 0.41856 0.5231 0.0
C888 C 0.94537 0.4199 0.52372 0.0
H889 H 0.8998 0.28223 0.48953 0.0
H890 H 0.91291 0.32216 0.49385 0.0
C891 C 0.95633 0.43858 0.53034 0.0
C892 C 0.90928 0.39708 0.5179 0.0
H893 H 0.90666 0.33849 0.52314 0.0
C894 C 0.89444 0.39821 0.50646 0.0
C895 C 0.91329 0.37537 0.52418 0.0
C896 C 0.92773 0.37323 0.53703 0.0
C897 C 0.88417 0.37794 0.50088 0.0
C898 C 0.88895 0.35624 0.5069 0.0
C899 C 0.90333 0.35521 0.51847 0.0
C900 C 0.87938 0.33407 0.50151 0.0
C901 C 0.86871 0.37962 0.48845 0.0
C902 C 0.85598 0.32783 0.50404 0.0
C903 C 0.84841 0.30494 0.50165 0.0
C904 C 0.86424 0.28801 0.49677 0.0
C905 C 0.8872 0.29482 0.49335 0.0
C906 C 0.89473 0.31763 0.49578 0.0
H907 H 0.86854 0.39747 0.48419 0.0
H908 H 0.87482 0.36717 0.4805 0.0
H909 H 0.85043 0.37473 0.49112 0.0
H910 H 0.84399 0.34027 0.50862 0.0
H911 H 0.83061 0.30024 0.50437 0.0
H912 H 0.6199 0.10812 0.44197 0.0
H913 H 0.65018 0.1317 0.45333 0.0
H914 H 0.63994 0.09335 0.49023 0.0
H915 H 0.60933 0.06993 0.47905 0.0
H916 H 0.65 0.15903 0.48011 0.0
H917 H 0.71037 0.08269 0.47753 0.0
H918 H 0.68434 0.08482 0.46703 0.0
H919 H 0.68175 0.07779 0.48467 0.0
C920 C 0.6237 0.10504 0.45259 0.0
C921 C 0.61238 0.08699 0.45958 0.0
C922 C 0.64101 0.1185 0.45904 0.0
C923 C 0.64732 0.11409 0.47255 0.0
C924 C 0.63537 0.09684 0.47975 0.0
H925 H 0.77315 0.15124 0.51719 0.0
H926 H 0.73351 0.13781 0.51154 0.0
C927 C 0.61803 0.08339 0.47332 0.0
C928 C 0.66784 0.12603 0.47869 0.0
H929 H 0.72481 0.11668 0.48801 0.0
C930 C 0.66637 0.14985 0.48192 0.0
C931 C 0.68907 0.1139 0.48098 0.0
C932 C 0.6917 0.08842 0.47731 0.0
C933 C 0.68571 0.16188 0.48755 0.0
C934 C 0.70709 0.14978 0.48968 0.0
C935 C 0.70837 0.12591 0.48648 0.0
C936 C 0.72881 0.16135 0.49472 0.0
C937 C 0.68297 0.18727 0.4913 0.0
C938 C 0.73905 0.17963 0.48743 0.0
C939 C 0.76164 0.18757 0.49077 0.0
C940 C 0.77451 0.17699 0.50126 0.0
C941 C 0.76373 0.15958 0.50898 0.0
C942 C 0.74107 0.15192 0.50578 0.0
H943 H 0.66424 0.19181 0.49314 0.0
H944 H 0.6934 0.19183 0.50052 0.0
H945 H 0.68929 0.19809 0.4828 0.0
H946 H 0.73019 0.18683 0.47867 0.0
H947 H 0.76958 0.2009 0.48458 0.0
H948 H 0.97062 0.1205 0.72911 0.0
H949 H 0.94599 0.15199 0.73815 0.0
H950 H 0.91399 0.16046 0.69871 0.0
H951 H 0.93894 0.1295 0.6895 0.0
H952 H 0.93158 0.20147 0.71003 0.0
H953 H 0.8752 0.15503 0.74681 0.0
H954 H 0.90615 0.14953 0.74872 0.0
H955 H 0.89119 0.1401 0.7335 0.0
C956 C 0.95825 0.129 0.72238 0.0
C957 C 0.95672 0.12251 0.70859 0.0
C958 C 0.94399 0.14677 0.72761 0.0
C959 C 0.92794 0.15829 0.71914 0.0
C960 C 0.9261 0.1516 0.70543 0.0
H961 H 0.8319 0.27334 0.73702 0.0
H962 H 0.84753 0.23515 0.73019 0.0
C963 C 0.9403 0.13383 0.70021 0.0
C964 C 0.91465 0.17873 0.72423 0.0
H965 H 0.87498 0.19666 0.74812 0.0
C966 C 0.91905 0.20037 0.71827 0.0
C967 C 0.89824 0.17718 0.73494 0.0
C968 C 0.8922 0.15419 0.74131 0.0
C969 C 0.90795 0.22065 0.72298 0.0
C970 C 0.89217 0.21925 0.73397 0.0
C971 C 0.88724 0.19758 0.73974 0.0
C972 C 0.88143 0.2405 0.73977 0.0
C973 C 0.91335 0.24358 0.7163 0.0
C974 C 0.89517 0.25567 0.74772 0.0
C975 C 0.88638 0.2774 0.75163 0.0
C976 C 0.86368 0.28438 0.7476 0.0
C977 C 0.84947 0.26854 0.74025 0.0
C978 C 0.85832 0.24672 0.73636 0.0
H979 H 0.9231 0.24119 0.70664 0.0
H980 H 0.89684 0.25327 0.71421 0.0
H981 H 0.92425 0.25444 0.72329 0.0
H982 H 0.91304 0.25104 0.75046 0.0
H983 H 0.89776 0.28905 0.75737 0.0
H984 H 0.88917 0.48587 0.96062 0.0
H985 H 0.85998 0.45997 0.97048 0.0
H986 H 0.9089 0.40277 0.9682 0.0
H987 H 0.93878 0.42876 0.95879 0.0
H988 H 0.85596 0.40057 0.95532 0.0
H989 H 0.86661 0.42382 0.01002 0.0
H990 H 0.86804 0.44711 -0.00209 0.0
H991 H 0.89063 0.42532 -0.00192 0.0
C992 C 0.89401 0.46793 0.96246 0.0
C993 C 0.91642 0.45947 0.95893 0.0
C994 C 0.87722 0.45314 0.96801 0.0
C995 C 0.88241 0.42958 0.97007 0.0
C996 C 0.90468 0.42096 0.96666 0.0
H997 H 0.76778 0.33084 0.98864 0.0
H998 H 0.80748 0.34432 0.983 0.0
C999 C 0.92163 0.43581 0.96121 0.0
C1000 C 0.86397 0.414 0.97527 0.0
H1001 H 0.83222 0.40283 0.00374 0.0
C1002 C 0.85094 0.40059 0.96594 0.0
C1003 C 0.85764 0.4143 0.9891 0.0
C1004 C 0.87148 0.42828 -0.00056 0.0
C1005 C 0.83071 0.38851 0.96996 0.0
C1006 C 0.82375 0.38954 0.98375 0.0
C1007 C 0.8376 0.40201 0.99319 0.0
C1008 C 0.8007 0.38042 0.98825 0.0
C1009 C 0.81614 0.37605 0.95927 0.0
C1010 C 0.78409 0.39603 0.99357 0.0
C1011 C 0.76162 0.38839 -0.00306 0.0
C1012 C 0.75518 0.36492 0.99502 0.0
C1013 C 0.77211 0.34907 0.99013 0.0
C1014 C 0.79475 0.35675 0.98683 0.0
H1015 H 0.82156 0.38068 0.94881 0.0
H1016 H 0.8183 0.35696 0.9604 0.0
H1017 H 0.7972 0.38026 0.96046 0.0
H1018 H 0.7883 0.41435 0.99477 0.0
H1019 H 0.74913 0.4011 0.00073 0.0
H1020 H 0.60887 0.41736 0.19497 0.0
H1021 H 0.63221 0.38706 0.20592 0.0
H1022 H 0.59129 0.39499 0.24239 0.0
H1023 H 0.56815 0.42588 0.23168 0.0
H1024 H 0.65529 0.38897 0.23753 0.0
H1025 H 0.58665 0.32368 0.22298 0.0
H1026 H 0.5917 0.34912 0.21276 0.0
H1027 H 0.57822 0.35222 0.22909 0.0
C1028 C 0.60516 0.41312 0.20543 0.0
C1029 C 0.58656 0.42401 0.21243 0.0
C1030 C 0.61848 0.39576 0.21164 0.0
C1031 C 0.61341 0.38894 0.22492 0.0
C1032 C 0.59541 0.40016 0.23212 0.0
H1033 H 0.65509 0.25672 0.25957 0.0
H1034 H 0.63682 0.29495 0.25686 0.0
C1035 C 0.58211 0.41761 0.22594 0.0
C1036 C 0.62559 0.36865 0.23074 0.0
H1037 H 0.62098 0.30971 0.23331 0.0
C1038 C 0.6478 0.37162 0.23676 0.0
C1039 C 0.61559 0.34621 0.22973 0.0
C1040 C 0.59173 0.34237 0.22329 0.0
C1041 C 0.66051 0.35245 0.24169 0.0
C1042 C 0.65087 0.32979 0.24023 0.0
C1043 C 0.62836 0.32706 0.23447 0.0
C1044 C 0.66409 0.30843 0.24384 0.0
C1045 C 0.684 0.35669 0.24847 0.0
C1046 C 0.68581 0.30348 0.23771 0.0
C1047 C 0.69643 0.28173 0.23938 0.0
C1048 C 0.68528 0.26439 0.247 0.0
C1049 C 0.66406 0.26971 0.2536 0.0
C1050 C 0.6536 0.29154 0.25206 0.0
H1051 H 0.68504 0.37453 0.25292 0.0
H1052 H 0.68741 0.34388 0.25661 0.0
H1053 H 0.69812 0.35505 0.24077 0.0
H1054 H 0.69396 0.31596 0.23104 0.0
H1055 H 0.7127 0.27808 0.23409 0.0
H1056 H 0.13659 0.97648 0.37181 0.0
H1057 H 0.15417 0.95431 0.3903 0.0
H1058 H 0.09388 0.90867 0.39048 0.0
H1059 H 0.07581 0.93125 0.37226 0.0
H1060 H 0.10369 0.92689 0.4154 0.0
H1061 H 0.18517 0.89076 0.39306 0.0
H1062 H 0.18249 0.92151 0.39036 0.0
H1063 H 0.16134 0.90189 0.38279 0.0
C1064 C 0.12717 0.96159 0.37569 0.0
C1065 C 0.10475 0.95571 0.37062 0.0
C1066 C 0.13739 0.94873 0.38614 0.0
C1067 C 0.12549 0.92963 0.39164 0.0
C1068 C 0.10346 0.92322 0.38628 0.0
H1069 H 0.18439 0.85305 0.46135 0.0
H1070 H 0.16726 0.86075 0.43889 0.0
C1071 C 0.09322 0.93608 0.37583 0.0
C1072 C 0.13479 0.91823 0.40398 0.0
H1073 H 0.18419 0.89366 0.41758 0.0
C1074 C 0.12112 0.91922 0.4158 0.0
C1075 C 0.15744 0.90803 0.40448 0.0
C1076 C 0.17236 0.90525 0.39195 0.0
C1077 C 0.13 0.91152 0.42826 0.0
C1078 C 0.15323 0.90284 0.42894 0.0
C1079 C 0.16646 0.90057 0.41702 0.0
C1080 C 0.16458 0.89797 0.44214 0.0
C1081 C 0.1147 0.91329 0.44071 0.0
C1082 C 0.16913 0.91642 0.45121 0.0
C1083 C 0.17891 0.91216 0.46395 0.0
C1084 C 0.18437 0.8893 0.4679 0.0
C1085 C 0.18031 0.87084 0.45864 0.0
C1086 C 0.17056 0.87518 0.44582 0.0
H1087 H 0.09575 0.9145 0.43798 0.0
H1088 H 0.11734 0.89804 0.44739 0.0
H1089 H 0.11952 0.92923 0.44657 0.0
H1090 H 0.16489 0.93417 0.44845 0.0
H1091 H 0.18189 0.92682 0.47075 0.0
H1092 H 0.10842 0.59398 0.61714 0.0
H1093 H 0.12923 0.61587 0.63499 0.0
H1094 H 0.06954 0.66164 0.63937 0.0
H1095 H 0.04867 0.63993 0.62148 0.0
H1096 H 0.11347 0.68487 0.64117 0.0
H1097 H 0.10924 0.60759 0.67463 0.0
H1098 H 0.12337 0.60255 0.6586 0.0
H1099 H 0.09256 0.60952 0.65905 0.0
C1100 C 0.09981 0.60882 0.62185 0.0
C1101 C 0.07682 0.61509 0.61803 0.0
C1102 C 0.11172 0.6213 0.63202 0.0
C1103 C 0.10074 0.64009 0.63865 0.0
C1104 C 0.07829 0.64716 0.63438 0.0
H1105 H 0.12321 0.69086 0.71957 0.0
H1106 H 0.10835 0.67594 0.69789 0.0
C1107 C 0.06641 0.63477 0.62415 0.0
C1108 C 0.11186 0.65131 0.65068 0.0
H1109 H 0.12913 0.64059 0.68325 0.0
C1110 C 0.11702 0.67523 0.65037 0.0
C1111 C 0.11615 0.63869 0.6627 0.0
C1112 C 0.10988 0.61322 0.66388 0.0
C1113 C 0.12632 0.68689 0.66183 0.0
C1114 C 0.13077 0.67419 0.67379 0.0
C1115 C 0.1258 0.65025 0.67403 0.0
C1116 C 0.13932 0.68539 0.68651 0.0
C1117 C 0.1306 0.71279 0.66118 0.0
C1118 C 0.16158 0.69595 0.68727 0.0
C1119 C 0.17012 0.70465 0.6997 0.0
C1120 C 0.1566 0.70265 0.71155 0.0
C1121 C 0.13411 0.69255 0.71065 0.0
C1122 C 0.12558 0.68402 0.69826 0.0
H1123 H 0.12155 0.72076 0.65235 0.0
H1124 H 0.1245 0.72162 0.67062 0.0
H1125 H 0.14975 0.71604 0.66019 0.0
H1126 H 0.17263 0.69683 0.67836 0.0
H1127 H 0.18755 0.71227 0.7001 0.0
H1128 H 0.44199 0.60723 0.86706 0.0
H1129 H 0.42018 0.62769 0.88496 0.0
H1130 H 0.37204 0.56983 0.88747 0.0
H1131 H 0.39366 0.54934 0.86953 0.0
H1132 H 0.34998 0.61406 0.8899 0.0
H1133 H 0.42736 0.60535 0.92424 0.0
H1134 H 0.43319 0.62001 0.90859 0.0
H1135 H 0.42503 0.58975 0.90829 0.0
C1136 C 0.42663 0.59897 0.87136 0.0
C1137 C 0.41968 0.57658 0.86702 0.0
C1138 C 0.4142 0.61067 0.88155 0.0
C1139 C 0.39478 0.60007 0.88768 0.0
C1140 C 0.38702 0.57828 0.88287 0.0
H1141 H 0.34406 0.62147 0.96854 0.0
H1142 H 0.35816 0.60652 0.94677 0.0
C1143 C 0.39936 0.56662 0.87261 0.0
C1144 C 0.38367 0.61079 0.8998 0.0
H1145 H 0.39474 0.62594 0.93281 0.0
C1146 C 0.35973 0.61677 0.89929 0.0
C1147 C 0.39641 0.61397 0.91206 0.0
C1148 C 0.42186 0.60676 0.91343 0.0
C1149 C 0.34816 0.62586 0.91077 0.0
C1150 C 0.36102 0.62926 0.92296 0.0
C1151 C 0.38497 0.62341 0.92341 0.0
C1152 C 0.34996 0.63781 0.93566 0.0
C1153 C 0.32221 0.63111 0.90988 0.0
C1154 C 0.34031 0.66029 0.93658 0.0
C1155 C 0.33207 0.66889 0.94904 0.0
C1156 C 0.33366 0.65521 0.96077 0.0
C1157 C 0.34272 0.63249 0.95969 0.0
C1158 C 0.35078 0.6239 0.94727 0.0
H1159 H 0.3139 0.6227 0.90084 0.0
H1160 H 0.31298 0.62518 0.91913 0.0
H1161 H 0.31968 0.65022 0.90908 0.0
H1162 H 0.33988 0.67146 0.92778 0.0
H1163 H 0.32525 0.68645 0.94957 0.0
H1164 H 0.49557 0.92763 0.1347 0.0
H1165 H 0.47272 0.90834 0.15216 0.0
H1166 H 0.41781 0.89332 0.12303 0.0
H1167 H 0.44101 0.91192 0.10519 0.0
H1168 H 0.40596 0.91699 0.15122 0.0
H1169 H 0.45703 0.83455 0.15283 0.0
H1170 H 0.47414 0.86085 0.15181 0.0
H1171 H 0.45537 0.85248 0.13787 0.0
C1172 C 0.47887 0.91985 0.13186 0.0
C1173 C 0.47029 0.92115 0.11846 0.0
C1174 C 0.46576 0.90899 0.14191 0.0
C1175 C 0.44372 0.89933 0.13882 0.0
C1176 C 0.43485 0.90069 0.12555 0.0
H1177 H 0.35536 0.84773 0.20625 0.0
H1178 H 0.36576 0.85864 0.18298 0.0
C1179 C 0.44809 0.91141 0.11541 0.0
C1180 C 0.43011 0.88825 0.14973 0.0
H1181 H 0.43323 0.84342 0.17208 0.0
C1182 C 0.41144 0.90063 0.15564 0.0
C1183 C 0.43742 0.86694 0.15538 0.0
C1184 C 0.45698 0.85276 0.14911 0.0
C1185 C 0.40099 0.89302 0.16772 0.0
C1186 C 0.40929 0.87237 0.17383 0.0
C1187 C 0.42694 0.85927 0.16738 0.0
C1188 C 0.40232 0.86567 0.18772 0.0
C1189 C 0.3823 0.90789 0.17434 0.0
C1190 C 0.41945 0.86575 0.198 0.0
C1191 C 0.41366 0.85945 0.21118 0.0
C1192 C 0.39054 0.85287 0.21443 0.0
C1193 C 0.3733 0.8528 0.2041 0.0
C1194 C 0.37918 0.8591 0.19082 0.0
H1195 H 0.38019 0.92496 0.16926 0.0
H1196 H 0.36519 0.8986 0.17385 0.0
H1197 H 0.38665 0.91105 0.18521 0.0
H1198 H 0.4374 0.87081 0.19583 0.0
H1199 H 0.42742 0.85976 0.21884 0.0
H1200 H 0.04128 0.63903 0.88514 0.0
H1201 H 0.06033 0.66175 0.86742 0.0
H1202 H 0.11634 0.61122 0.86523 0.0
H1203 H 0.09793 0.58888 0.8833 0.0
H1204 H 0.13185 0.6577 0.86227 0.0
H1205 H 0.05594 0.63615 0.82842 0.0
H1206 H 0.04895 0.65126 0.84395 0.0
H1207 H 0.06044 0.62214 0.84453 0.0
C1208 C 0.05797 0.63306 0.88115 0.0
C1209 C 0.06793 0.61194 0.88549 0.0
C1210 C 0.06871 0.64597 0.87094 0.0
C1211 C 0.08948 0.6379 0.86484 0.0
C1212 C 0.10023 0.61766 0.86975 0.0
H1213 H 0.14477 0.64169 0.78598 0.0
H1214 H 0.12818 0.63443 0.80826 0.0
C1215 C 0.08957 0.60481 0.87998 0.0
C1216 C 0.09894 0.6491 0.85253 0.0
H1217 H 0.08723 0.65668 0.81883 0.0
C1218 C 0.12203 0.65781 0.8528 0.0
C1219 C 0.08609 0.64898 0.84018 0.0
C1220 C 0.06155 0.63899 0.83914 0.0
C1221 C 0.13287 0.66579 0.84092 0.0
C1222 C 0.12017 0.66515 0.82854 0.0
C1223 C 0.09683 0.65722 0.82839 0.0
C1224 C 0.1314 0.67008 0.81536 0.0
C1225 C 0.15815 0.67374 0.84152 0.0
C1226 C 0.13884 0.6926 0.81199 0.0
C1227 C 0.14843 0.69688 0.79916 0.0
C1228 C 0.1506 0.67869 0.78953 0.0
C1229 C 0.14333 0.65615 0.79309 0.0
C1230 C 0.13382 0.65193 0.80584 0.0
H1231 H 0.16645 0.67026 0.85153 0.0
H1232 H 0.16856 0.66488 0.83347 0.0
H1233 H 0.15895 0.69276 0.83967 0.0
H1234 H 0.13685 0.70689 0.81916 0.0
H1235 H 0.15381 0.71444 0.79673 0.0
H1236 H 0.45357 0.60716 0.14004 0.0
H1237 H 0.43118 0.62918 0.12314 0.0
H1238 H 0.39889 0.56533 0.10883 0.0
H1239 H 0.42039 0.5436 0.12609 0.0
H1240 H 0.43558 0.62649 0.09753 0.0
H1241 H 0.34281 0.60602 0.10787 0.0
H1242 H 0.36598 0.59942 0.11983 0.0
H1243 H 0.35907 0.57946 0.10609 0.0
C1244 C 0.44129 0.598 0.13344 0.0
C1245 C 0.4386 0.57375 0.13436 0.0
C1246 C 0.42848 0.61054 0.12382 0.0
C1247 C 0.41298 0.59903 0.11482 0.0
C1248 C 0.41004 0.57481 0.11592 0.0
H1249 H 0.39202 0.6273 0.03193 0.0
H1250 H 0.40329 0.6156 0.05473 0.0
C1251 C 0.4225 0.56234 0.12571 0.0
C1252 C 0.40222 0.61169 0.10325 0.0
H1253 H 0.35177 0.61642 0.08446 0.0
C1254 C 0.41712 0.62465 0.09487 0.0
C1255 C 0.37804 0.60981 0.09982 0.0
C1256 C 0.36056 0.59814 0.109 0.0
C1257 C 0.4089 0.63446 0.08278 0.0
C1258 C 0.38533 0.63051 0.07867 0.0
C1259 C 0.36998 0.61896 0.08746 0.0
C1260 C 0.37703 0.63671 0.06488 0.0
C1261 C 0.42573 0.64865 0.07442 0.0
C1262 C 0.35764 0.6515 0.06295 0.0
C1263 C 0.35084 0.65798 0.04981 0.0
C1264 C 0.36342 0.64978 0.03846 0.0
C1265 C 0.38221 0.63426 0.04046 0.0
C1266 C 0.38878 0.62765 0.05351 0.0
H1267 H 0.43957 0.65681 0.08091 0.0
H1268 H 0.43465 0.63704 0.06697 0.0
H1269 H 0.41643 0.66258 0.06879 0.0
H1270 H 0.34816 0.65846 0.0716 0.0
H1271 H 0.33623 0.6699 0.04857 0.0
H1272 H 0.43056 0.96057 0.3812 0.0
H1273 H 0.409 0.93738 0.36443 0.0
H1274 H 0.46037 0.88242 0.3679 0.0
H1275 H 0.48294 0.90617 0.38402 0.0
H1276 H 0.45348 0.89227 0.34254 0.0
H1277 H 0.36618 0.8825 0.36601 0.0
H1278 H 0.3743 0.91263 0.36543 0.0
H1279 H 0.39147 0.89276 0.3755 0.0
C1280 C 0.4373 0.94354 0.37843 0.0
C1281 C 0.45864 0.93537 0.3839 0.0
C1282 C 0.42467 0.93008 0.36901 0.0
C1283 C 0.43281 0.90796 0.36506 0.0
C1284 C 0.45364 0.89937 0.37088 0.0
H1285 H 0.35297 0.82571 0.30437 0.0
H1286 H 0.37121 0.83829 0.32589 0.0
C1287 C 0.46644 0.91293 0.38018 0.0
C1288 C 0.42111 0.89507 0.35376 0.0
H1289 H 0.36737 0.87824 0.34145 0.0
C1290 C 0.43471 0.88885 0.34242 0.0
C1291 C 0.39668 0.8902 0.35364 0.0
C1292 C 0.3814 0.89465 0.36588 0.0
C1293 C 0.42441 0.87906 0.33074 0.0
C1294 C 0.39972 0.87606 0.3302 0.0
C1295 C 0.38625 0.88101 0.34178 0.0
C1296 C 0.38761 0.86891 0.31747 0.0
C1297 C 0.44011 0.87221 0.31904 0.0
C1298 C 0.3902 0.88235 0.30576 0.0
C1299 C 0.38002 0.87515 0.2935 0.0
C1300 C 0.36672 0.85455 0.29276 0.0
C1301 C 0.36321 0.84163 0.30464 0.0
C1302 C 0.37361 0.84877 0.31692 0.0
H1303 H 0.45828 0.86838 0.32257 0.0
H1304 H 0.43317 0.85667 0.31352 0.0
H1305 H 0.44112 0.88687 0.31181 0.0
H1306 H 0.40036 0.8983 0.30606 0.0
H1307 H 0.38278 0.88564 0.28457 0.0
H1308 H 0.13745 0.98552 0.63819 0.0
H1309 H 0.1598 0.96294 0.62153 0.0
H1310 H 0.10192 0.91479 0.61718 0.0
H1311 H 0.08001 0.9364 0.63444 0.0
H1312 H 0.1442 0.89255 0.61593 0.0
H1313 H 0.14331 0.96901 0.58178 0.0
H1314 H 0.15738 0.97428 0.59788 0.0
H1315 H 0.12636 0.96813 0.59718 0.0
C1316 C 0.12967 0.9698 0.63397 0.0
C1317 C 0.10673 0.96301 0.63752 0.0
C1318 C 0.14238 0.95707 0.62431 0.0
C1319 C 0.13227 0.93756 0.61785 0.0
C1320 C 0.10997 0.92995 0.62193 0.0
H1321 H 0.15505 0.88553 0.53763 0.0
H1322 H 0.14121 0.90232 0.55899 0.0
C1323 C 0.09736 0.94249 0.6317 0.0
C1324 C 0.14403 0.92597 0.6062 0.0
H1325 H 0.16281 0.93544 0.57387 0.0
C1326 C 0.14841 0.90191 0.60675 0.0
C1327 C 0.1492 0.9382 0.59417 0.0
C1328 C 0.14365 0.96377 0.59261 0.0
C1329 C 0.15747 0.88967 0.5955 0.0
C1330 C 0.16274 0.90196 0.58351 0.0
C1331 C 0.15884 0.92609 0.5831 0.0
C1332 C 0.17077 0.89014 0.57091 0.0
C1333 C 0.16042 0.8636 0.59636 0.0
C1334 C 0.19191 0.87748 0.57053 0.0
C1335 C 0.19975 0.86759 0.5583 0.0
C1336 C 0.18676 0.87057 0.54625 0.0
C1337 C 0.16551 0.88303 0.54673 0.0
C1338 C 0.15759 0.89265 0.55893 0.0
H1339 H 0.15038 0.85621 0.60495 0.0
H1340 H 0.15455 0.85488 0.5868 0.0
H1341 H 0.17929 0.85947 0.59795 0.0
H1342 H 0.2026 0.87572 0.57959 0.0
H1343 H 0.21627 0.85818 0.55821 0.0
H1344 H 0.54102 0.44183 0.88623 0.0
H1345 H 0.56269 0.41786 0.90234 0.0
H1346 H 0.59629 0.38143 0.86918 0.0
H1347 H 0.57483 0.40579 0.85288 0.0
H1348 H 0.56518 0.36754 0.90491 0.0
H1349 H 0.65108 0.40926 0.89281 0.0
H1350 H 0.62342 0.4222 0.88791 0.0
H1351 H 0.63403 0.39684 0.87908 0.0
C1352 C 0.55304 0.42875 0.88234 0.0
C1353 C 0.55649 0.42589 0.8683 0.0
C1354 C 0.56524 0.41493 0.89156 0.0
C1355 C 0.5812 0.39803 0.88694 0.0
C1356 C 0.58417 0.39453 0.87292 0.0
H1357 H 0.65084 0.32156 0.95407 0.0
H1358 H 0.63383 0.32689 0.93129 0.0
C1359 C 0.57184 0.40835 0.86365 0.0
C1360 C 0.59545 0.38526 0.89703 0.0
H1361 H 0.64969 0.38569 0.91205 0.0
C1362 C 0.58381 0.37096 0.90631 0.0
C1363 C 0.6197 0.38992 0.8988 0.0
C1364 C 0.63292 0.40546 0.8892 0.0
C1365 C 0.59547 0.36234 0.91781 0.0
C1366 C 0.61937 0.36815 0.91999 0.0
C1367 C 0.63138 0.38122 0.91026 0.0
C1368 C 0.6309 0.36434 0.93327 0.0
C1369 C 0.5818 0.34853 0.92806 0.0
C1370 C 0.63516 0.38365 0.94175 0.0
C1371 C 0.64471 0.38072 0.95467 0.0
C1372 C 0.65036 0.35836 0.95939 0.0
C1373 C 0.64662 0.339 0.95074 0.0
C1374 C 0.63688 0.34198 0.93776 0.0
H1375 H 0.56291 0.34687 0.92528 0.0
H1376 H 0.58941 0.33079 0.92885 0.0
H1377 H 0.58316 0.35698 0.93824 0.0
H1378 H 0.63063 0.40105 0.93845 0.0
H1379 H 0.64748 0.39604 0.96099 0.0
H1380 H 0.60518 0.0419 0.13233 0.0
H1381 H 0.62473 0.06759 0.14873 0.0
H1382 H 0.63618 0.11827 0.11747 0.0
H1383 H 0.61716 0.09232 0.10077 0.0
H1384 H 0.67301 0.08872 0.14667 0.0
H1385 H 0.59876 0.15205 0.14956 0.0
H1386 H 0.59466 0.12255 0.14342 0.0
H1387 H 0.60944 0.1434 0.13306 0.0
C1388 C 0.61221 0.05829 0.12883 0.0
C1389 C 0.60964 0.06499 0.1152 0.0
C1390 C 0.62325 0.07301 0.13826 0.0
C1391 C 0.63174 0.09481 0.1343 0.0
C1392 C 0.62952 0.10155 0.12071 0.0
H1393 H 0.71206 0.18276 0.19217 0.0
H1394 H 0.69854 0.16545 0.17057 0.0
C1395 C 0.61857 0.08675 0.11122 0.0
C1396 C 0.64241 0.11048 0.14461 0.0
H1397 H 0.63042 0.15781 0.16469 0.0
C1398 C 0.66396 0.10407 0.15047 0.0
C1399 C 0.63036 0.13034 0.14955 0.0
C1400 C 0.60696 0.13759 0.14367 0.0
C1401 C 0.67349 0.11669 0.16148 0.0
C1402 C 0.6611 0.13614 0.16669 0.0
C1403 C 0.63989 0.14295 0.16057 0.0
C1404 C 0.66863 0.14799 0.17937 0.0
C1405 C 0.69613 0.10853 0.16792 0.0
C1406 C 0.65601 0.14416 0.19132 0.0
C1407 C 0.6637 0.15384 0.20361 0.0
C1408 C 0.68408 0.1677 0.20415 0.0
C1409 C 0.69632 0.17212 0.19206 0.0
C1410 C 0.68868 0.16224 0.17975 0.0
H1411 H 0.70243 0.09183 0.16344 0.0
H1412 H 0.70996 0.12193 0.16653 0.0
H1413 H 0.69371 0.10624 0.17901 0.0
H1414 H 0.64048 0.1332 0.19118 0.0
H1415 H 0.65382 0.15023 0.21273 0.0
H1416 H 0.94009 0.07884 0.36868 0.0
H1417 H 0.91813 0.099 0.38651 0.0
H1418 H 0.9697 0.15409 0.38722 0.0
H1419 H -0.00837 0.13426 0.36916 0.0
H1420 H 0.96194 0.1333 0.41243 0.0
H1421 H 0.87762 0.15868 0.38816 0.0
H1422 H 0.88582 0.12885 0.3851 0.0
H1423 H 0.90376 0.15188 0.37851 0.0
C1424 C 0.94643 0.09558 0.37232 0.0
C1425 C 0.9677 0.10488 0.36752 0.0
C1426 C 0.93383 0.10709 0.38252 0.0
C1427 C 0.94218 0.12813 0.38809 0.0
C1428 C 0.96293 0.1379 0.38301 0.0
H1429 H 0.876 0.20396 0.45603 0.0
H1430 H 0.89336 0.19511 0.43379 0.0
C1431 C 0.97551 0.12645 0.37277 0.0
C1432 C 0.93081 0.13839 0.40025 0.0
H1433 H 0.87842 0.1585 0.41254 0.0
C1434 C 0.94378 0.13913 0.4124 0.0
C1435 C 0.90717 0.14609 0.40017 0.0
C1436 C 0.8928 0.14657 0.38726 0.0
C1437 C 0.93345 0.14643 0.42462 0.0
C1438 C 0.9095 0.153 0.42467 0.0
C1439 C 0.89675 0.15326 0.41244 0.0
C1440 C 0.89726 0.15827 0.43754 0.0
C1441 C 0.94808 0.14663 0.43745 0.0
C1442 C 0.89328 0.14036 0.4468 0.0
C1443 C 0.88341 0.14528 0.45945 0.0
C1444 C 0.87731 0.16826 0.46309 0.0
C1445 C 0.88058 0.1861 0.45357 0.0
C1446 C 0.89045 0.1811 0.44086 0.0
H1447 H 0.96723 0.14618 0.43524 0.0
H1448 H 0.94422 0.16235 0.44373 0.0
H1449 H 0.9437 0.13106 0.44353 0.0
H1450 H 0.89824 0.12259 0.44433 0.0
H1451 H 0.881 0.13108 0.46646 0.0
H1452 H 0.91321 0.45169 0.60395 0.0
H1453 H 0.88926 0.43072 0.6206 0.0
H1454 H 0.92219 0.47001 0.65309 0.0
H1455 H 0.94592 0.49098 0.63661 0.0
H1456 H 0.90789 0.40356 0.64273 0.0
H1457 H 0.85067 0.47532 0.66092 0.0
H1458 H 0.86588 0.47617 0.64485 0.0
H1459 H 0.88122 0.48327 0.66038 0.0
C1460 C 0.91508 0.45599 0.61464 0.0
C1461 C 0.93148 0.47287 0.61901 0.0
C1462 C 0.90146 0.44401 0.62411 0.0
C1463 C 0.90376 0.44909 0.63803 0.0
C1464 C 0.91988 0.46613 0.64237 0.0
H1465 H 0.89837 0.38485 0.71272 0.0
H1466 H 0.90563 0.39933 0.68997 0.0
C1467 C 0.9336 0.4779 0.63296 0.0
C1468 C 0.89067 0.43568 0.64828 0.0
H1469 H 0.85596 0.44307 0.67616 0.0
C1470 C 0.89609 0.41202 0.64986 0.0
C1471 C 0.87503 0.44667 0.65744 0.0
C1472 C 0.86764 0.47171 0.65575 0.0
C1473 C 0.88773 0.39957 0.66103 0.0
C1474 C 0.8738 0.41117 0.67085 0.0
C1475 C 0.86684 0.43428 0.66868 0.0
C1476 C 0.86889 0.4007 0.6842 0.0
C1477 C 0.89462 0.37435 0.66253 0.0
C1478 C 0.84574 0.39694 0.68857 0.0
C1479 C 0.84148 0.38858 0.70165 0.0
C1480 C 0.86032 0.3843 0.71061 0.0
C1481 C 0.88345 0.38801 0.70611 0.0
C1482 C 0.88766 0.3961 0.69306 0.0
H1483 H 0.89882 0.36623 0.65254 0.0
H1484 H 0.91057 0.37326 0.66905 0.0
H1485 H 0.88037 0.3642 0.66739 0.0
H1486 H 0.83102 0.40065 0.6819 0.0
H1487 H 0.82347 0.38598 0.70483 0.0
H1488 H 0.5783 0.06901 0.36113 0.0
H1489 H 0.60003 0.08951 0.34364 0.0
H1490 H 0.64735 0.11745 0.37408 0.0
H1491 H 0.6255 0.09692 0.39178 0.0
H1492 H 0.60885 0.13756 0.3411 0.0
H1493 H 0.69133 0.0859 0.3462 0.0
H1494 H 0.66392 0.07664 0.35357 0.0
H1495 H 0.68037 0.1 0.3613 0.0
C1496 C 0.59316 0.07972 0.36416 0.0
C1497 C 0.60013 0.08141 0.37786 0.0
C1498 C 0.6056 0.09136 0.35414 0.0
C1499 C 0.62536 0.10487 0.35756 0.0
C1500 C 0.63233 0.10684 0.37122 0.0
H1501 H 0.68598 0.18425 0.2895 0.0
H1502 H 0.67199 0.17619 0.31251 0.0
C1503 C 0.61986 0.09511 0.3813 0.0
C1504 C 0.63858 0.1164 0.3466 0.0
H1505 H 0.68944 0.11273 0.32843 0.0
C1506 C 0.62663 0.13247 0.33843 0.0
C1507 C 0.66172 0.1096 0.34317 0.0
C1508 C 0.67515 0.09199 0.35143 0.0
C1509 C 0.63674 0.14107 0.32652 0.0
C1510 C 0.65957 0.13362 0.32282 0.0
C1511 C 0.67198 0.11845 0.33135 0.0
C1512 C 0.66958 0.1389 0.30934 0.0
C1513 C 0.62237 0.15688 0.31756 0.0
C1514 C 0.67343 0.12057 0.3001 0.0
C1515 C 0.68148 0.12505 0.28704 0.0
C1516 C 0.6859 0.14802 0.28292 0.0
C1517 C 0.68257 0.16638 0.29231 0.0
C1518 C 0.67453 0.16183 0.30545 0.0
H1519 H 0.60369 0.15786 0.32078 0.0
H1520 H 0.62985 0.17473 0.31803 0.0
H1521 H 0.62296 0.15077 0.30683 0.0
H1522 H 0.6697 0.10274 0.3029 0.0
H1523 H 0.68392 0.11046 0.28012 0.0
H1524 H 0.98103 0.09282 0.61321 0.0
H1525 H 0.95882 0.11491 0.59645 0.0
H1526 H 0.93019 0.15834 0.62832 0.0
H1527 H 0.95237 0.13611 0.64528 0.0
H1528 H 0.90904 0.11985 0.59582 0.0
H1529 H 0.95522 0.20531 0.59999 0.0
H1530 H 0.96799 0.1787 0.6063 0.0
H1531 H 0.94463 0.1927 0.61545 0.0
C1532 C 0.96995 0.10701 0.61669 0.0
C1533 C 0.96832 0.11261 0.63059 0.0
C1534 C 0.95737 0.11969 0.60709 0.0
C1535 C 0.94299 0.13831 0.61114 0.0
C1536 C 0.94148 0.14423 0.62498 0.0
H1537 H 0.85473 0.21682 0.55317 0.0
H1538 H 0.87082 0.20307 0.57491 0.0
C1539 C 0.95414 0.13152 0.63464 0.0
C1540 C 0.92901 0.15071 0.60077 0.0
H1541 H 0.92526 0.20186 0.58345 0.0
C1542 C 0.91236 0.13787 0.59324 0.0
C1543 C 0.93334 0.17425 0.59748 0.0
C1544 C 0.95134 0.18862 0.60514 0.0
C1545 C 0.90055 0.14768 0.58217 0.0
C1546 C 0.90565 0.17083 0.5785 0.0
C1547 C 0.92144 0.1841 0.58638 0.0
C1548 C 0.89669 0.18043 0.56563 0.0
C1549 C 0.88323 0.13302 0.57416 0.0
C1550 C 0.90626 0.17247 0.55336 0.0
C1551 C 0.89725 0.18024 0.54102 0.0
C1552 C 0.87843 0.19611 0.54074 0.0
C1553 C 0.86919 0.20451 0.55309 0.0
C1554 C 0.87834 0.19675 0.56548 0.0
H1555 H 0.87769 0.11734 0.57984 0.0
H1556 H 0.86738 0.14337 0.57152 0.0
H1557 H 0.89155 0.12716 0.56453 0.0
H1558 H 0.92053 0.15993 0.55333 0.0
H1559 H 0.90483 0.1735 0.53171 0.0
H1560 H 0.94519 0.4791 0.86212 0.0
H1561 H 0.9217 0.45777 0.84532 0.0
H1562 H 0.87343 0.43698 0.87654 0.0
H1563 H 0.89728 0.45781 0.89363 0.0
H1564 H 0.90787 0.40581 0.84789 0.0
H1565 H 0.83455 0.46997 0.84383 0.0
H1566 H 0.86362 0.47872 0.84937 0.0
H1567 H 0.84544 0.46187 0.86036 0.0
C1568 C 0.92976 0.46978 0.8655 0.0
C1569 C 0.92323 0.47004 0.87926 0.0
C1570 C 0.91629 0.45774 0.85585 0.0
C1571 C 0.8959 0.4459 0.85973 0.0
C1572 C 0.88909 0.44618 0.87339 0.0
H1573 H 0.82378 0.35336 0.80076 0.0
H1574 H 0.83722 0.36961 0.82263 0.0
C1575 C 0.90267 0.45816 0.88311 0.0
C1576 C 0.88209 0.43314 0.84932 0.0
H1577 H 0.83444 0.43842 0.82835 0.0
C1578 C 0.89158 0.41264 0.84375 0.0
C1579 C 0.86098 0.44231 0.84397 0.0
C1580 C 0.85041 0.46446 0.8496 0.0
C1581 C 0.88087 0.40142 0.83261 0.0
C1582 C 0.86014 0.41098 0.82696 0.0
C1583 C 0.85025 0.4311 0.8328 0.0
C1584 C 0.85006 0.40176 0.81413 0.0
C1585 C 0.8924 0.3801 0.82649 0.0
C1586 C 0.85239 0.41473 0.80223 0.0
C1587 C 0.84487 0.40551 0.78978 0.0
C1588 C 0.83472 0.3832 0.78902 0.0
C1589 C 0.83161 0.37056 0.80104 0.0
C1590 C 0.8393 0.37977 0.81351 0.0
H1591 H 0.90991 0.37656 0.83109 0.0
H1592 H 0.881 0.36469 0.82811 0.0
H1593 H 0.89455 0.38221 0.81537 0.0
H1594 H 0.86066 0.43174 0.80254 0.0
H1595 H 0.84738 0.41574 0.78072 0.0
H1596 H 0.6161 0.44996 0.13367 0.0
H1597 H 0.63585 0.42831 0.11544 0.0
H1598 H 0.57508 0.38386 0.11087 0.0
H1599 H 0.55528 0.40533 0.12911 0.0
H1600 H 0.61818 0.35978 0.10874 0.0
H1601 H 0.6152 0.43797 0.07594 0.0
H1602 H 0.6299 0.44223 0.09196 0.0
H1603 H 0.59889 0.4361 0.09155 0.0
C1604 C 0.60703 0.43547 0.12884 0.0
C1605 C 0.58406 0.42948 0.13272 0.0
C1606 C 0.61832 0.42313 0.11844 0.0
C1607 C 0.60674 0.40477 0.11167 0.0
C1608 C 0.58429 0.39801 0.11597 0.0
H1609 H 0.6262 0.35466 0.0303 0.0
H1610 H 0.61219 0.37014 0.05197 0.0
C1611 C 0.57303 0.41025 0.12641 0.0
C1612 C 0.61726 0.3936 0.09951 0.0
H1613 H 0.63394 0.40464 0.06698 0.0
C1614 C 0.62175 0.36955 0.09961 0.0
C1615 C 0.62157 0.4064 0.08758 0.0
C1616 C 0.61597 0.43206 0.08664 0.0
C1617 C 0.63039 0.35792 0.08804 0.0
C1618 C 0.6349 0.3708 0.07617 0.0
C1619 C 0.63057 0.39486 0.07613 0.0
C1620 C 0.64299 0.35966 0.06338 0.0
C1621 C 0.63393 0.33189 0.08846 0.0
C1622 C 0.6649 0.34846 0.06264 0.0
C1623 C 0.67294 0.33946 0.05023 0.0
C1624 C 0.65927 0.34177 0.03837 0.0
C1625 C 0.63719 0.35267 0.03924 0.0
C1626 C 0.62915 0.36153 0.05161 0.0
H1627 H 0.6247 0.32395 0.09719 0.0
H1628 H 0.62753 0.32347 0.07893 0.0
H1629 H 0.65299 0.32808 0.08951 0.0
H1630 H 0.67604 0.3472 0.07156 0.0
H1631 H 0.69007 0.33122 0.04987 0.0
loop_
_geom_bond_atom_site_label_1
_geom_bond_atom_site_label_2
_geom_bond_distance
_geom_bond_site_symmetry_2
_ccdc_geom_bond_type
C0 C1 1.384 . S
C0 C2 1.384 . S
C0 H28 0.931 . S
C1 C0 1.384 . S
C1 C4 1.382 1_565 S
C2 C0 1.384 . S
C2 C3 1.381 1_565 S
C2 H29 0.930 . S
C3 C2 1.381 1_545 S
C3 C5 1.381 . S
C3 C6 1.487 . S
C4 C1 1.382 1_545 S
C4 C5 1.387 . S
C4 H30 0.930 . S
C5 C3 1.381 . S
C5 C4 1.387 . S
C5 H31 0.931 . S
C6 C3 1.487 . S
C6 C13 1.399 . S
C6 N44 1.343 . S
C7 C8 1.384 . S
C7 C9 1.384 1_565 S
C7 H32 0.936 . S
C8 C7 1.384 . S
C8 C11 1.382 . S
C9 C7 1.384 1_545 S
C9 C10 1.381 . S
C9 H33 0.930 . S
C10 C9 1.381 . S
C10 C12 1.381 1_545 S
C10 C13 1.487 . S
C11 C8 1.382 . S
C11 C12 1.387 . S
C11 H34 0.930 . S
C12 C10 1.381 1_565 S
C12 C11 1.387 . S
C12 H35 0.931 . S
C13 C6 1.399 . S
C13 C10 1.487 . S
C13 N45 1.343 . S
C14 C15 1.384 . S
C14 C16 1.384 1_655 S
C14 H36 0.931 . S
C15 C14 1.384 . S
C15 C18 1.382 . S
C16 C14 1.384 1_455 S
C16 C17 1.381 . S
C16 H37 0.930 . S
C17 C16 1.381 . S
C17 C19 1.381 1_455 S
C17 C20 1.487 . S
C18 C15 1.382 . S
C18 C19 1.387 . S
C18 H38 0.930 . S
C19 C17 1.381 1_655 S
C19 C18 1.387 . S
C19 H39 0.929 1_655 S
C20 C17 1.487 . S
C20 C27 1.399 . S
C20 N45 1.343 . S
C21 C22 1.384 . S
C21 C23 1.384 . S
C21 H40 0.931 . S
C22 C21 1.384 . S
C22 C25 1.382 1_655 S
C23 C21 1.384 . S
C23 C24 1.381 1_655 S
C23 H41 0.930 . S
C24 C23 1.381 1_455 S
C24 C26 1.381 . S
C24 C27 1.487 . S
C25 C22 1.382 1_455 S
C25 C26 1.387 . S
C25 H42 0.930 . S
C26 C24 1.381 . S
C26 C25 1.387 . S
C26 H43 0.931 . S
C27 C20 1.399 . S
C27 C24 1.487 . S
C27 N44 1.343 . S
H28 C0 0.931 . S
H29 C2 0.930 . S
H30 C4 0.930 . S
H31 C5 0.931 . S
H32 C7 0.936 . S
H33 C9 0.930 . S
H34 C11 0.930 . S
H35 C12 0.931 . S
H36 C14 0.931 . S
H37 C16 0.930 . S
H38 C18 0.930 . S
H39 C19 0.929 1_455 S
H40 C21 0.931 . S
H41 C23 0.930 . S
H42 C25 0.930 . S
H43 C26 0.931 . S
N44 C6 1.343 . S
N44 C27 1.343 . S
N45 C13 1.343 . S
N45 C20 1.343 . S
C46 C47 1.384 . S
C46 C48 1.384 . S
C46 H74 0.931 . S
C47 C46 1.384 . S
C47 C50 1.382 . S
C48 C46 1.384 . S
C48 C49 1.381 . S
C48 H75 0.930 . S
C49 C48 1.381 . S
C49 C51 1.388 . S
C49 C52 1.487 1_655 S
C50 C47 1.382 . S
C50 C51 1.395 . S
C50 H76 0.930 . S
C51 C49 1.388 . S
C51 C50 1.395 . S
C51 H77 0.917 1_655 S
C52 C49 1.487 1_455 S
C52 C59 1.399 . S
C52 N90 1.343 . S
C53 C54 1.384 . S
C53 C55 1.384 . S
C53 H78 0.931 . S
C54 C53 1.384 . S
C54 C57 1.382 . S
C55 C53 1.384 . S
C55 C56 1.381 . S
C55 H79 0.943 . S
C56 C55 1.381 . S
C56 C58 1.381 . S
C56 C59 1.487 1_655 S
C57 C54 1.382 . S
C57 C58 1.387 . S
C57 H80 0.930 . S
C58 C56 1.381 . S
C58 C57 1.387 . S
C58 H81 0.931 . S
C59 C52 1.399 . S
C59 C56 1.487 1_455 S
C59 N91 1.343 . S
C60 C61 1.384 . S
C60 C62 1.384 . S
C60 H82 0.931 . S
C61 C60 1.384 . S
C61 C64 1.382 . S
C62 C60 1.384 . S
C62 C63 1.381 . S
C62 H83 0.930 . S
C63 C62 1.381 . S
C63 C65 1.381 . S
C63 C66 1.487 . S
C64 C61 1.382 . S
C64 C65 1.387 . S
C64 H84 0.930 . S
C65 C63 1.381 . S
C65 C64 1.387 . S
C65 H85 0.931 . S
C66 C63 1.487 . S
C66 C73 1.399 . S
C66 N91 1.343 . S
C67 C68 1.384 . S
C67 C69 1.384 . S
C67 H86 0.931 . S
C68 C67 1.384 . S
C68 C71 1.382 . S
C69 C67 1.384 . S
C69 C70 1.381 . S
C69 H87 0.930 . S
C70 C69 1.381 . S
C70 C72 1.381 . S
C70 C73 1.487 . S
C71 C68 1.382 . S
C71 C72 1.387 . S
C71 H88 0.930 . S
C72 C70 1.381 . S
C72 C71 1.387 . S
C72 H89 0.931 . S
C73 C66 1.399 . S
C73 C70 1.487 . S
C73 N90 1.343 . S
H74 C46 0.931 . S
H75 C48 0.930 . S
H76 C50 0.930 . S
H77 C51 0.917 1_455 S
H78 C53 0.931 . S
H79 C55 0.943 . S
H80 C57 0.930 . S
H81 C58 0.931 . S
H82 C60 0.931 . S
H83 C62 0.930 . S
H84 C64 0.930 . S
H85 C65 0.931 . S
H86 C67 0.931 . S
H87 C69 0.930 . S
H88 C71 0.930 . S
H89 C72 0.931 . S
N90 C52 1.343 . S
N90 C73 1.343 . S
N91 C59 1.343 . S
N91 C66 1.343 . S
C92 C93 1.384 . S
C92 C94 1.384 . S
C92 H120 0.931 . S
C93 C92 1.384 . S
C93 C96 1.382 . S
C94 C92 1.384 . S
C94 C95 1.381 . S
C94 H121 0.930 . S
C95 C94 1.381 . S
C95 C97 1.381 . S
C95 C98 1.487 . S
C96 C93 1.382 . S
C96 C97 1.387 . S
C96 H122 0.930 . S
C97 C95 1.381 . S
C97 C96 1.387 . S
C97 H123 0.931 . S
C98 C95 1.487 . S
C98 C105 1.399 . S
C98 N136 1.343 . S
C99 C100 1.384 . S
C99 C101 1.384 . S
C99 H124 0.931 . S
C100 C99 1.384 . S
C100 C103 1.382 . S
C101 C99 1.384 . S
C101 C102 1.381 . S
C101 H125 0.930 . S
C102 C101 1.381 . S
C102 C104 1.381 . S
C102 C105 1.487 . S
C103 C100 1.382 . S
C103 C104 1.387 . S
C103 H126 0.930 . S
C104 C102 1.381 . S
C104 C103 1.387 . S
C104 H127 0.931 . S
C105 C98 1.399 . S
C105 C102 1.487 . S
C105 N137 1.343 . S
C106 C107 1.384 . S
C106 C108 1.384 . S
C106 H128 0.931 . S
C107 C106 1.384 . S
C107 C110 1.382 . S
C108 C106 1.384 . S
C108 C109 1.381 . S
C108 H129 0.930 . S
C109 C108 1.381 . S
C109 C111 1.381 . S
C109 C112 1.487 . S
C110 C107 1.382 . S
C110 C111 1.387 . S
C110 H130 0.930 . S
C111 C109 1.381 . S
C111 C110 1.387 . S
C111 H131 0.931 . S
C112 C109 1.487 . S
C112 C119 1.399 . S
C112 N137 1.343 . S
C113 C114 1.384 . S
C113 C115 1.384 . S
C113 H132 0.931 . S
C114 C113 1.384 . S
C114 C117 1.382 . S
C115 C113 1.384 . S
C115 C116 1.381 . S
C115 H133 0.930 . S
C116 C115 1.381 . S
C116 C118 1.381 . S
C116 C119 1.487 . S
C117 C114 1.382 . S
C117 C118 1.387 . S
C117 H134 0.930 . S
C118 C116 1.381 . S
C118 C117 1.387 . S
C118 H135 0.931 . S
C119 C112 1.399 . S
C119 C116 1.487 . S
C119 N136 1.343 . S
H120 C92 0.931 . S
H121 C94 0.930 . S
H122 C96 0.930 . S
H123 C97 0.931 . S
H124 C99 0.931 . S
H125 C101 0.930 . S
H126 C103 0.930 . S
H127 C104 0.931 . S
H128 C106 0.931 . S
H129 C108 0.930 . S
H130 C110 0.930 . S
H131 C111 0.931 . S
H132 C113 0.931 . S
H133 C115 0.930 . S
H134 C117 0.930 . S
H135 C118 0.931 . S
N136 C98 1.343 . S
N136 C119 1.343 . S
N137 C105 1.343 . S
N137 C112 1.343 . S
C138 C139 1.384 . S
C138 C140 1.384 . S
C138 H166 0.931 . S
C139 C138 1.384 . S
C139 C142 1.382 . S
C140 C138 1.384 . S
C140 C141 1.381 . S
C140 H167 0.930 . S
C141 C140 1.381 . S
C141 C143 1.381 . S
C141 C144 1.487 . S
C142 C139 1.382 . S
C142 C143 1.387 . S
C142 H168 0.930 . S
C143 C141 1.381 . S
C143 C142 1.387 . S
C143 H169 0.931 . S
C144 C141 1.487 . S
C144 C151 1.399 . S
C144 N182 1.343 1_565 S
C145 C146 1.384 . S
C145 C147 1.384 . S
C145 H170 0.931 . S
C146 C145 1.384 . S
C146 C149 1.382 . S
C147 C145 1.384 . S
C147 C148 1.381 . S
C147 H171 0.930 . S
C148 C147 1.381 . S
C148 C150 1.381 . S
C148 C151 1.487 . S
C149 C146 1.382 . S
C149 C150 1.387 . S
C149 H172 0.930 . S
C150 C148 1.381 . S
C150 C149 1.387 . S
C150 H173 0.931 . S
C151 C144 1.399 . S
C151 C148 1.487 . S
C151 N183 1.343 . S
C152 C153 1.384 . S
C152 C154 1.384 . S
C152 H174 0.931 . S
C153 C152 1.384 . S
C153 C156 1.382 . S
C154 C152 1.384 . S
C154 C155 1.381 . S
C154 H175 0.930 . S
C155 C154 1.381 . S
C155 C157 1.381 . S
C155 C158 1.487 . S
C156 C153 1.382 . S
C156 C157 1.387 . S
C156 H176 0.930 . S
C157 C155 1.381 . S
C157 C156 1.387 . S
C157 H177 0.931 . S
C158 C155 1.487 . S
C158 C165 1.399 . S
C158 N183 1.343 1_545 S
C159 C160 1.384 . S
C159 C161 1.384 . S
C159 H178 0.931 . S
C160 C159 1.384 . S
C160 C163 1.382 . S
C161 C159 1.384 . S
C161 C162 1.381 . S
C161 H179 0.930 . S
C162 C161 1.381 . S
C162 C164 1.381 . S
C162 C165 1.487 . S
C163 C160 1.382 . S
C163 C164 1.387 . S
C163 H180 0.930 . S
C164 C162 1.381 . S
C164 C163 1.387 . S
C164 H181 0.931 . S
C165 C158 1.399 . S
C165 C162 1.487 . S
C165 N182 1.343 . S
H166 C138 0.931 . S
H167 C140 0.930 . S
H168 C142 0.930 . S
H169 C143 0.931 . S
H170 C145 0.931 . S
H171 C147 0.930 . S
H172 C149 0.930 . S
H173 C150 0.931 . S
H174 C152 0.931 . S
H175 C154 0.930 . S
H176 C156 0.930 . S
H177 C157 0.931 . S
H178 C159 0.931 . S
H179 C161 0.930 . S
H180 C163 0.930 . S
H181 C164 0.931 . S
N182 C144 1.343 1_545 S
N182 C165 1.343 . S
N183 C151 1.343 . S
N183 C158 1.343 1_565 S
C184 C185 1.384 . S
C184 C186 1.384 . S
C184 H212 0.931 . S
C185 C184 1.384 . S
C185 C188 1.382 . S
C186 C184 1.384 . S
C186 C187 1.381 . S
C186 H213 0.930 . S
C187 C186 1.381 . S
C187 C189 1.381 . S
C187 C190 1.487 . S
C188 C185 1.382 . S
C188 C189 1.387 . S
C188 H214 0.930 . S
C189 C187 1.381 . S
C189 C188 1.387 . S
C189 H215 0.931 . S
C190 C187 1.487 . S
C190 C197 1.399 . S
C190 N228 1.343 . S
C191 C192 1.384 . S
C191 C193 1.384 . S
C191 H216 0.931 . S
C192 C191 1.384 . S
C192 C195 1.382 . S
C193 C191 1.384 . S
C193 C194 1.381 . S
C193 H217 0.930 . S
C194 C193 1.381 . S
C194 C196 1.381 . S
C194 C197 1.487 . S
C195 C192 1.382 . S
C195 C196 1.387 . S
C195 H218 0.930 . S
C196 C194 1.381 . S
C196 C195 1.387 . S
C196 H219 0.931 . S
C197 C190 1.399 . S
C197 C194 1.487 . S
C197 N229 1.345 . S
C198 C199 1.384 . S
C198 C200 1.384 . S
C198 H220 0.931 . S
C199 C198 1.384 . S
C199 C202 1.382 . S
C200 C198 1.384 . S
C200 C201 1.381 . S
C200 H221 0.930 . S
C201 C200 1.381 . S
C201 C203 1.381 . S
C201 C204 1.487 . S
C202 C199 1.382 . S
C202 C203 1.387 . S
C202 H222 0.930 . S
C203 C201 1.381 . S
C203 C202 1.387 . S
C203 H223 0.931 . S
C204 C201 1.487 . S
C204 C211 1.399 . S
C204 N229 1.341 1_655 S
C205 C206 1.384 . S
C205 C207 1.384 . S
C205 H224 0.931 . S
C206 C205 1.384 . S
C206 C209 1.382 . S
C207 C205 1.384 . S
C207 C208 1.381 . S
C207 H225 0.930 . S
C208 C207 1.381 . S
C208 C210 1.381 . S
C208 C211 1.487 . S
C209 C206 1.382 . S
C209 C210 1.387 . S
C209 H226 0.930 . S
C210 C208 1.381 . S
C210 C209 1.387 . S
C210 H227 0.931 . S
C211 C204 1.399 . S
C211 C208 1.487 . S
C211 N228 1.343 1_655 S
H212 C184 0.931 . S
H213 C186 0.930 . S
H214 C188 0.930 . S
H215 C189 0.931 . S
H216 C191 0.931 . S
H217 C193 0.930 . S
H218 C195 0.930 . S
H219 C196 0.931 . S
H220 C198 0.931 . S
H221 C200 0.930 . S
H222 C202 0.930 . S
H223 C203 0.931 . S
H224 C205 0.931 . S
H225 C207 0.930 . S
H226 C209 0.930 . S
H227 C210 0.931 . S
N228 C190 1.343 . S
N228 C211 1.343 1_455 S
N229 C197 1.345 . S
N229 C204 1.341 1_455 S
C230 C231 1.384 . S
C230 C232 1.384 . S
C230 H258 0.931 . S
C231 C230 1.384 . S
C231 C234 1.382 . S
C232 C230 1.384 . S
C232 C233 1.381 . S
C232 H259 0.930 . S
C233 C232 1.381 . S
C233 C235 1.381 . S
C233 C236 1.487 . S
C234 C231 1.382 . S
C234 C235 1.387 . S
C234 H260 0.930 . S
C235 C233 1.381 . S
C235 C234 1.387 . S
C235 H261 0.931 . S
C236 C233 1.487 . S
C236 C243 1.399 . S
C236 N274 1.343 . S
C237 C238 1.384 . S
C237 C239 1.384 . S
C237 H262 0.931 . S
C238 C237 1.384 . S
C238 C241 1.382 . S
C239 C237 1.384 . S
C239 C240 1.381 . S
C239 H263 0.930 . S
C240 C239 1.381 . S
C240 C242 1.381 . S
C240 C243 1.487 . S
C241 C238 1.382 . S
C241 C242 1.387 . S
C241 H264 0.930 . S
C242 C240 1.381 . S
C242 C241 1.387 . S
C242 H265 0.931 . S
C243 C236 1.399 . S
C243 C240 1.487 . S
C243 N275 1.343 . S
C244 C245 1.384 . S
C244 C246 1.384 . S
C244 H266 0.931 . S
C245 C244 1.384 . S
C245 C248 1.382 . S
C246 C244 1.384 . S
C246 C247 1.381 . S
C246 H267 0.930 . S
C247 C246 1.381 . S
C247 C249 1.381 . S
C247 C250 1.487 . S
C248 C245 1.382 . S
C248 C249 1.387 . S
C248 H268 0.930 . S
C249 C247 1.381 . S
C249 C248 1.387 . S
C249 H269 0.931 . S
C250 C247 1.487 . S
C250 C257 1.399 . S
C250 N275 1.343 . S
C251 C252 1.384 . S
C251 C253 1.384 . S
C251 H270 0.931 . S
C252 C251 1.384 . S
C252 C255 1.382 . S
C253 C251 1.384 . S
C253 C254 1.381 . S
C253 H271 0.930 . S
C254 C253 1.381 . S
C254 C256 1.381 . S
C254 C257 1.487 . S
C255 C252 1.382 . S
C255 C256 1.387 . S
C255 H272 0.930 . S
C256 C254 1.381 . S
C256 C255 1.387 . S
C256 H273 0.931 . S
C257 C250 1.399 . S
C257 C254 1.487 . S
C257 N274 1.343 . S
H258 C230 0.931 . S
H259 C232 0.930 . S
H260 C234 0.930 . S
H261 C235 0.931 . S
H262 C237 0.931 . S
H263 C239 0.930 . S
H264 C241 0.930 . S
H265 C242 0.931 . S
H266 C244 0.931 . S
H267 C246 0.930 . S
H268 C248 0.930 . S
H269 C249 0.931 . S
H270 C251 0.931 . S
H271 C253 0.930 . S
H272 C255 0.930 . S
H273 C256 0.931 . S
N274 C236 1.343 . S
N274 C257 1.343 . S
N275 C243 1.343 . S
N275 C250 1.343 . S
C276 C277 1.384 . S
C276 C278 1.384 . S
C276 H304 0.931 . S
C277 C276 1.384 . S
C277 C280 1.382 . S
C278 C276 1.384 . S
C278 C279 1.381 . S
C278 H305 0.930 . S
C279 C278 1.381 . S
C279 C281 1.381 . S
C279 C282 1.478 1_565 S
C280 C277 1.382 . S
C280 C281 1.387 . S
C280 H306 0.930 . S
C281 C279 1.381 . S
C281 C280 1.387 . S
C281 H307 0.931 1_565 S
C282 C279 1.478 1_545 S
C282 C289 1.399 1_545 S
C282 N320 1.353 . S
C283 C284 1.384 . S
C283 C285 1.384 . S
C283 H308 0.931 . S
C284 C283 1.384 . S
C284 C287 1.382 . S
C285 C283 1.384 . S
C285 C286 1.381 . S
C285 H309 0.930 . S
C286 C285 1.381 . S
C286 C288 1.381 . S
C286 C289 1.485 . S
C287 C284 1.382 . S
C287 C288 1.387 . S
C287 H310 0.930 . S
C288 C286 1.381 . S
C288 C287 1.387 . S
C288 H311 0.931 . S
C289 C282 1.399 1_565 S
C289 C286 1.485 . S
C289 N321 1.345 1_565 S
C290 C291 1.384 . S
C290 C292 1.384 . S
C290 H312 0.931 . S
C291 C290 1.384 . S
C291 C294 1.382 . S
C292 C290 1.384 . S
C292 C293 1.381 . S
C292 H313 0.930 . S
C293 C292 1.381 . S
C293 C295 1.381 . S
C293 C296 1.487 . S
C294 C291 1.382 . S
C294 C295 1.387 . S
C294 H314 0.930 . S
C295 C293 1.381 . S
C295 C294 1.387 . S
C295 H315 0.931 . S
C296 C293 1.487 . S
C296 C303 1.399 . S
C296 N321 1.343 . S
C297 C298 1.384 . S
C297 C299 1.384 . S
C297 H316 0.931 . S
C298 C297 1.384 . S
C298 C301 1.382 . S
C299 C297 1.384 . S
C299 C300 1.381 . S
C299 H317 0.930 . S
C300 C299 1.381 . S
C300 C302 1.381 . S
C300 C303 1.487 . S
C301 C298 1.382 . S
C301 C302 1.387 . S
C301 H318 0.930 . S
C302 C300 1.381 . S
C302 C301 1.387 . S
C302 H319 0.931 . S
C303 C296 1.399 . S
C303 C300 1.487 . S
C303 N320 1.343 . S
H304 C276 0.931 . S
H305 C278 0.930 . S
H306 C280 0.930 . S
H307 C281 0.931 1_545 S
H308 C283 0.931 . S
H309 C285 0.930 . S
H310 C287 0.930 . S
H311 C288 0.931 . S
H312 C290 0.931 . S
H313 C292 0.930 . S
H314 C294 0.930 . S
H315 C295 0.931 . S
H316 C297 0.931 . S
H317 C299 0.930 . S
H318 C301 0.930 . S
H319 C302 0.931 . S
N320 C282 1.353 . S
N320 C303 1.343 . S
N321 C289 1.345 1_545 S
N321 C296 1.343 . S
C322 C323 1.384 1_545 S
C322 C324 1.384 . S
C322 H350 0.931 . S
C323 C322 1.384 1_565 S
C323 C326 1.382 . S
C324 C322 1.384 . S
C324 C325 1.381 . S
C324 H351 0.930 . S
C325 C324 1.381 . S
C325 C327 1.381 . S
C325 C328 1.487 . S
C326 C323 1.382 . S
C326 C327 1.387 1_565 S
C326 H352 0.930 . S
C327 C325 1.381 . S
C327 C326 1.387 1_545 S
C327 H353 0.931 . S
C328 C325 1.487 . S
C328 C335 1.399 . S
C328 N366 1.343 . S
C329 C330 1.384 . S
C329 C331 1.400 . S
C329 H354 0.931 . S
C330 C329 1.384 . S
C330 C333 1.382 1_565 S
C331 C329 1.400 . S
C331 C332 1.357 1_565 S
C331 H355 0.939 . S
C332 C331 1.357 1_545 S
C332 C334 1.381 . S
C332 C335 1.487 . S
C333 C330 1.382 1_545 S
C333 C334 1.387 . S
C333 H356 0.930 . S
C334 C332 1.381 . S
C334 C333 1.387 . S
C334 H357 0.931 . S
C335 C328 1.399 . S
C335 C332 1.487 . S
C335 N367 1.343 . S
C336 C337 1.384 . S
C336 C338 1.384 . S
C336 H358 0.931 . S
C337 C336 1.384 . S
C337 C340 1.382 1_655 S
C338 C336 1.384 . S
C338 C339 1.381 1_655 S
C338 H359 0.930 . S
C339 C338 1.381 1_455 S
C339 C341 1.381 . S
C339 C342 1.487 . S
C340 C337 1.382 1_455 S
C340 C341 1.387 . S
C340 H360 0.930 . S
C341 C339 1.381 . S
C341 C340 1.387 . S
C341 H361 0.931 . S
C342 C339 1.487 . S
C342 C349 1.399 . S
C342 N367 1.343 . S
C343 C344 1.384 1_455 S
C343 C345 1.384 . S
C343 H362 0.931 . S
C344 C343 1.384 1_655 S
C344 C347 1.382 . S
C345 C343 1.384 . S
C345 C346 1.381 . S
C345 H363 0.930 . S
C346 C345 1.381 . S
C346 C348 1.381 . S
C346 C349 1.487 . S
C347 C344 1.382 . S
C347 C348 1.387 1_655 S
C347 H364 0.930 . S
C348 C346 1.381 . S
C348 C347 1.387 1_455 S
C348 H365 0.931 . S
C349 C342 1.399 . S
C349 C346 1.487 . S
C349 N366 1.343 . S
H350 C322 0.931 . S
H351 C324 0.930 . S
H352 C326 0.930 . S
H353 C327 0.931 . S
H354 C329 0.931 . S
H355 C331 0.939 . S
H356 C333 0.930 . S
H357 C334 0.931 . S
H358 C336 0.931 . S
H359 C338 0.930 . S
H360 C340 0.930 . S
H361 C341 0.931 . S
H362 C343 0.931 . S
H363 C345 0.930 . S
H364 C347 0.930 . S
H365 C348 0.931 . S
N366 C328 1.343 . S
N366 C349 1.343 . S
N367 C335 1.343 . S
N367 C342 1.343 . S
C368 O369 1.306 . S
C368 O371 1.160 . S
O369 C368 1.306 . S
O369 Cd370 2.228 . S
Cd370 O369 2.228 . S
Cd370 O374 2.273 1_554 S
Cd370 O378 2.277 . S
O371 C368 1.160 . S
O371 Cd372 2.203 . S
Cd372 O371 2.203 . S
Cd372 O374 2.411 1_554 S
Cd372 O375 2.333 1_554 S
Cd372 O376 2.352 . S
Cd372 O380 2.277 . S
Cd372 O381 2.356 . S
C373 O378 1.209 . S
C373 O380 1.226 . S
O374 Cd370 2.273 1_556 S
O374 Cd372 2.411 1_556 S
O374 C377 1.320 . S
O375 Cd372 2.333 1_556 S
O375 C377 1.214 . S
O376 Cd372 2.352 . S
O376 C379 1.258 . S
C377 O374 1.320 . S
C377 O375 1.214 . S
O378 Cd370 2.277 . S
O378 C373 1.209 . S
C379 O376 1.258 . S
C379 O381 1.282 . S
O380 Cd372 2.277 . S
O380 C373 1.226 . S
O381 Cd372 2.356 . S
O381 C379 1.282 . S
C382 O383 1.306 . S
C382 O385 1.160 . S
O383 C382 1.306 . S
O383 Cd384 2.228 . S
Cd384 O383 2.228 . S
Cd384 O388 2.273 . S
Cd384 O392 2.277 . S
O385 C382 1.160 . S
O385 Cd386 2.203 . S
Cd386 O385 2.203 . S
Cd386 O388 2.411 . S
Cd386 O389 2.333 . S
Cd386 O390 2.352 . S
Cd386 O394 2.277 . S
Cd386 O395 2.356 . S
C387 O392 1.209 . S
C387 O394 1.226 . S
O388 Cd384 2.273 . S
O388 Cd386 2.411 . S
O388 C391 1.320 . S
O389 Cd386 2.333 . S
O389 C391 1.214 . S
O390 Cd386 2.352 . S
O390 C393 1.258 . S
C391 O388 1.320 . S
C391 O389 1.214 . S
O392 Cd384 2.277 . S
O392 C387 1.209 . S
C393 O390 1.258 . S
C393 O395 1.282 . S
O394 Cd386 2.277 . S
O394 C387 1.226 . S
O395 Cd386 2.356 . S
O395 C393 1.282 . S
C396 O397 1.306 . S
C396 O399 1.160 . S
O397 C396 1.306 . S
O397 Cd398 2.228 . S
Cd398 O397 2.228 . S
Cd398 O402 2.273 . S
Cd398 O406 2.277 . S
O399 C396 1.160 . S
O399 Cd400 2.203 . S
Cd400 O399 2.203 . S
Cd400 O402 2.411 . S
Cd400 O403 2.333 . S
Cd400 O404 2.352 . S
Cd400 O408 2.277 . S
Cd400 O409 2.356 . S
C401 O406 1.209 . S
C401 O408 1.226 . S
O402 Cd398 2.273 . S
O402 Cd400 2.411 . S
O402 C405 1.320 . S
O403 Cd400 2.333 . S
O403 C405 1.214 . S
O404 Cd400 2.352 . S
O404 C407 1.258 . S
C405 O402 1.320 . S
C405 O403 1.214 . S
O406 Cd398 2.277 . S
O406 C401 1.209 . S
C407 O404 1.258 . S
C407 O409 1.282 . S
O408 Cd400 2.277 . S
O408 C401 1.226 . S
O409 Cd400 2.356 . S
O409 C407 1.282 . S
C410 O411 1.306 . S
C410 O413 1.160 . S
O411 C410 1.306 . S
O411 Cd412 2.228 . S
Cd412 O411 2.228 . S
Cd412 O416 2.273 . S
Cd412 O420 2.277 . S
O413 C410 1.160 . S
O413 Cd414 2.203 . S
Cd414 O413 2.203 . S
Cd414 O416 2.411 . S
Cd414 O417 2.333 . S
Cd414 O418 2.352 . S
Cd414 O422 2.277 . S
Cd414 O423 2.356 . S
C415 O420 1.209 . S
C415 O422 1.226 . S
O416 Cd412 2.273 . S
O416 Cd414 2.411 . S
O416 C419 1.320 . S
O417 Cd414 2.333 . S
O417 C419 1.214 . S
O418 Cd414 2.352 . S
O418 C421 1.258 . S
C419 O416 1.320 . S
C419 O417 1.214 . S
O420 Cd412 2.277 . S
O420 C415 1.209 . S
C421 O418 1.258 . S
C421 O423 1.282 . S
O422 Cd414 2.277 . S
O422 C415 1.226 . S
O423 Cd414 2.356 . S
O423 C421 1.282 . S
C424 O425 1.306 . S
C424 O427 1.160 . S
O425 C424 1.306 . S
O425 Cd426 2.228 . S
Cd426 O425 2.228 . S
Cd426 O430 2.273 . S
Cd426 O434 2.277 . S
O427 C424 1.160 . S
O427 Cd428 2.203 . S
Cd428 O427 2.203 . S
Cd428 O430 2.411 . S
Cd428 O431 2.333 . S
Cd428 O432 2.352 . S
Cd428 O436 2.277 . S
Cd428 O437 2.356 . S
C429 O434 1.209 . S
C429 O436 1.226 . S
O430 Cd426 2.273 . S
O430 Cd428 2.411 . S
O430 C433 1.320 . S
O431 Cd428 2.333 . S
O431 C433 1.214 . S
O432 Cd428 2.352 . S
O432 C435 1.258 . S
C433 O430 1.320 . S
C433 O431 1.214 . S
O434 Cd426 2.277 . S
O434 C429 1.209 . S
C435 O432 1.258 . S
C435 O437 1.282 . S
O436 Cd428 2.277 . S
O436 C429 1.226 . S
O437 Cd428 2.356 . S
O437 C435 1.282 . S
C438 O439 1.306 . S
C438 O441 1.160 . S
O439 C438 1.306 . S
O439 Cd440 2.228 . S
Cd440 O439 2.228 . S
Cd440 O444 2.273 . S
Cd440 O448 2.277 . S
O441 C438 1.160 . S
O441 Cd442 2.203 . S
Cd442 O441 2.203 . S
Cd442 O444 2.411 . S
Cd442 O445 2.333 . S
Cd442 O446 2.352 . S
Cd442 O450 2.277 . S
Cd442 O451 2.356 . S
C443 O448 1.209 . S
C443 O450 1.226 . S
O444 Cd440 2.273 . S
O444 Cd442 2.411 . S
O444 C447 1.320 . S
O445 Cd442 2.333 . S
O445 C447 1.214 . S
O446 Cd442 2.352 . S
O446 C449 1.258 . S
C447 O444 1.320 . S
C447 O445 1.214 . S
O448 Cd440 2.277 . S
O448 C443 1.209 . S
C449 O446 1.258 . S
C449 O451 1.282 . S
O450 Cd442 2.277 . S
O450 C443 1.226 . S
O451 Cd442 2.356 . S
O451 C449 1.282 . S
C452 O453 1.306 . S
C452 O455 1.160 . S
O453 C452 1.306 . S
O453 Cd454 2.228 . S
Cd454 O453 2.228 . S
Cd454 O458 2.273 1_556 S
Cd454 O462 2.277 . S
O455 C452 1.160 . S
O455 Cd456 2.203 1_556 S
Cd456 O455 2.203 1_554 S
Cd456 O458 2.411 . S
Cd456 O459 2.333 . S
Cd456 O460 2.352 . S
Cd456 O464 2.277 1_554 S
Cd456 O465 2.356 . S
C457 O462 1.209 . S
C457 O464 1.226 . S
O458 Cd454 2.273 1_554 S
O458 Cd456 2.411 . S
O458 C461 1.320 . S
O459 Cd456 2.333 . S
O459 C461 1.214 . S
O460 Cd456 2.352 . S
O460 C463 1.258 . S
C461 O458 1.320 . S
C461 O459 1.214 . S
O462 Cd454 2.277 . S
O462 C457 1.209 . S
C463 O460 1.258 . S
C463 O465 1.282 . S
O464 Cd456 2.277 1_556 S
O464 C457 1.226 . S
O465 Cd456 2.356 . S
O465 C463 1.282 . S
C466 O467 1.306 . S
C466 O469 1.160 . S
O467 C466 1.306 . S
O467 Cd468 2.228 . S
Cd468 O467 2.228 . S
Cd468 O472 2.273 . S
Cd468 O476 2.277 . S
O469 C466 1.160 . S
O469 Cd470 2.203 . S
Cd470 O469 2.203 . S
Cd470 O472 2.411 . S
Cd470 O473 2.333 . S
Cd470 O474 2.352 . S
Cd470 O478 2.277 . S
Cd470 O479 2.356 . S
C471 O476 1.209 . S
C471 O478 1.226 . S
O472 Cd468 2.273 . S
O472 Cd470 2.411 . S
O472 C475 1.320 . S
O473 Cd470 2.333 . S
O473 C475 1.214 . S
O474 Cd470 2.352 . S
O474 C477 1.258 . S
C475 O472 1.320 . S
C475 O473 1.214 . S
O476 Cd468 2.277 . S
O476 C471 1.209 . S
C477 O474 1.258 . S
C477 O479 1.282 . S
O478 Cd470 2.277 . S
O478 C471 1.226 . S
O479 Cd470 2.356 . S
O479 C477 1.282 . S
H480 C488 0.929 . S
H481 C490 0.930 . S
H482 C492 0.930 . S
H483 C495 0.929 . S
H484 C498 0.930 . S
H485 C500 0.960 . S
H486 C500 0.960 . S
H487 C500 0.960 . S
C488 H480 0.929 . S
C488 C489 1.377 . S
C488 C490 1.384 . S
C489 C488 1.377 . S
C489 C495 1.390 . S
C490 H481 0.930 . S
C490 C488 1.384 . S
C490 C491 1.372 . S
C491 C490 1.372 . S
C491 C492 1.400 . S
C491 C496 1.490 . S
C492 H482 0.930 . S
C492 C491 1.400 . S
C492 C495 1.386 . S
H493 C509 0.930 . S
H494 C510 0.931 . S
C495 H483 0.929 . S
C495 C489 1.390 . S
C495 C492 1.386 . S
C496 C491 1.490 . S
C496 C498 1.395 . S
C496 C499 1.403 . S
H497 C503 0.930 . S
C498 H484 0.930 . S
C498 C496 1.395 . S
C498 C501 1.403 . S
C499 C496 1.403 . S
C499 C500 1.524 . S
C499 C503 1.400 . S
C500 H485 0.960 . S
C500 H486 0.960 . S
C500 H487 0.960 . S
C500 C499 1.524 . S
C501 C498 1.403 . S
C501 C502 1.392 . S
C501 C505 1.495 . S
C502 C501 1.392 . S
C502 C503 1.385 . S
C502 C504 1.478 . S
C503 H497 0.930 . S
C503 C499 1.400 . S
C503 C502 1.385 . S
C504 C502 1.478 . S
C504 C506 1.381 . S
C504 C510 1.383 . S
C505 C501 1.495 . S
C505 H511 0.959 . S
C505 H512 0.961 . S
C505 H513 0.960 . S
C506 C504 1.381 . S
C506 C507 1.394 . S
C506 H514 0.930 . S
C507 C506 1.394 . S
C507 C508 1.383 . S
C507 H515 0.929 . S
C508 C507 1.383 . S
C508 C509 1.377 . S
C509 H493 0.930 . S
C509 C508 1.377 . S
C509 C510 1.379 . S
C510 H494 0.931 . S
C510 C504 1.383 . S
C510 C509 1.379 . S
H511 C505 0.959 . S
H512 C505 0.961 . S
H513 C505 0.960 . S
H514 C506 0.930 . S
H515 C507 0.929 . S
H516 C524 0.929 . S
H517 C526 0.930 . S
H518 C528 0.930 . S
H519 C531 0.929 . S
H520 C534 0.930 . S
H521 C536 0.960 . S
H522 C536 0.960 . S
H523 C536 0.960 . S
C524 H516 0.929 . S
C524 C525 1.377 . S
C524 C526 1.384 . S
C525 C524 1.377 . S
C525 C531 1.390 . S
C526 H517 0.930 . S
C526 C524 1.384 . S
C526 C527 1.372 . S
C527 C526 1.372 . S
C527 C528 1.400 . S
C527 C532 1.490 . S
C528 H518 0.930 . S
C528 C527 1.400 . S
C528 C531 1.386 . S
H529 C545 0.930 . S
H530 C546 0.931 . S
C531 H519 0.929 . S
C531 C525 1.390 . S
C531 C528 1.386 . S
C532 C527 1.490 . S
C532 C534 1.395 . S
C532 C535 1.403 . S
H533 C539 0.930 . S
C534 H520 0.930 . S
C534 C532 1.395 . S
C534 C537 1.403 . S
C535 C532 1.403 . S
C535 C536 1.524 . S
C535 C539 1.400 . S
C536 H521 0.960 . S
C536 H522 0.960 . S
C536 H523 0.960 . S
C536 C535 1.524 . S
C537 C534 1.403 . S
C537 C538 1.392 . S
C537 C541 1.495 . S
C538 C537 1.392 . S
C538 C539 1.385 . S
C538 C540 1.478 . S
C539 H533 0.930 . S
C539 C535 1.400 . S
C539 C538 1.385 . S
C540 C538 1.478 . S
C540 C542 1.381 . S
C540 C546 1.383 . S
C541 C537 1.495 . S
C541 H547 0.959 . S
C541 H548 0.961 . S
C541 H549 0.960 . S
C542 C540 1.381 . S
C542 C543 1.394 . S
C542 H550 0.930 . S
C543 C542 1.394 . S
C543 C544 1.383 . S
C543 H551 0.929 . S
C544 C543 1.383 . S
C544 C545 1.377 . S
C545 H529 0.930 . S
C545 C544 1.377 . S
C545 C546 1.379 . S
C546 H530 0.931 . S
C546 C540 1.383 . S
C546 C545 1.379 . S
H547 C541 0.959 . S
H548 C541 0.961 . S
H549 C541 0.960 . S
H550 C542 0.930 . S
H551 C543 0.929 . S
H552 C560 0.929 . S
H553 C562 0.930 . S
H554 C564 0.930 . S
H555 C567 0.929 . S
H556 C570 0.930 . S
H557 C572 0.960 . S
H558 C572 0.960 . S
H559 C572 0.960 . S
C560 H552 0.929 . S
C560 C561 1.377 . S
C560 C562 1.384 . S
C561 C560 1.377 . S
C561 C567 1.390 . S
C562 H553 0.930 . S
C562 C560 1.384 . S
C562 C563 1.372 . S
C563 C562 1.372 . S
C563 C564 1.400 . S
C563 C568 1.490 . S
C564 H554 0.930 . S
C564 C563 1.400 . S
C564 C567 1.386 . S
H565 C581 0.930 . S
H566 C582 0.931 . S
C567 H555 0.929 . S
C567 C561 1.390 . S
C567 C564 1.386 . S
C568 C563 1.490 . S
C568 C570 1.395 . S
C568 C571 1.403 . S
H569 C575 0.930 . S
C570 H556 0.930 . S
C570 C568 1.395 . S
C570 C573 1.403 . S
C571 C568 1.403 . S
C571 C572 1.524 . S
C571 C575 1.400 . S
C572 H557 0.960 . S
C572 H558 0.960 . S
C572 H559 0.960 . S
C572 C571 1.524 . S
C573 C570 1.403 . S
C573 C574 1.392 . S
C573 C577 1.495 . S
C574 C573 1.392 . S
C574 C575 1.385 . S
C574 C576 1.478 . S
C575 H569 0.930 . S
C575 C571 1.400 . S
C575 C574 1.385 . S
C576 C574 1.478 . S
C576 C578 1.381 . S
C576 C582 1.383 . S
C577 C573 1.495 . S
C577 H583 0.959 . S
C577 H584 0.961 . S
C577 H585 0.960 . S
C578 C576 1.381 . S
C578 C579 1.394 . S
C578 H586 0.930 . S
C579 C578 1.394 . S
C579 C580 1.383 . S
C579 H587 0.929 . S
C580 C579 1.383 . S
C580 C581 1.377 . S
C581 H565 0.930 . S
C581 C580 1.377 . S
C581 C582 1.379 . S
C582 H566 0.931 . S
C582 C576 1.383 . S
C582 C581 1.379 . S
H583 C577 0.959 . S
H584 C577 0.961 . S
H585 C577 0.960 . S
H586 C578 0.930 . S
H587 C579 0.929 . S
H588 C596 0.929 . S
H589 C598 0.930 . S
H590 C600 0.930 . S
H591 C603 0.929 . S
H592 C606 0.930 . S
H593 C608 1.010 . S
H594 C608 0.960 . S
H595 C608 0.960 . S
C596 H588 0.929 . S
C596 C597 1.377 . S
C596 C598 1.384 . S
C597 C596 1.377 . S
C597 C603 1.390 . S
C598 H589 0.930 . S
C598 C596 1.384 . S
C598 C599 1.372 . S
C599 C598 1.372 . S
C599 C600 1.400 . S
C599 C604 1.490 . S
C600 H590 0.930 . S
C600 C599 1.400 . S
C600 C603 1.386 . S
H601 C617 0.930 . S
H602 C618 0.931 . S
C603 H591 0.929 . S
C603 C597 1.390 . S
C603 C600 1.386 . S
C604 C599 1.490 . S
C604 C606 1.395 . S
C604 C607 1.403 . S
H605 C611 0.930 . S
C606 H592 0.930 . S
C606 C604 1.395 . S
C606 C609 1.403 . S
C607 C604 1.403 . S
C607 C608 1.524 . S
C607 C611 1.400 . S
C608 H593 1.010 . S
C608 H594 0.960 . S
C608 H595 0.960 . S
C608 C607 1.524 . S
C609 C606 1.403 . S
C609 C610 1.392 . S
C609 C613 1.495 . S
C610 C609 1.392 . S
C610 C611 1.385 . S
C610 C612 1.478 . S
C611 H605 0.930 . S
C611 C607 1.400 . S
C611 C610 1.385 . S
C612 C610 1.478 . S
C612 C614 1.381 . S
C612 C618 1.383 . S
C613 C609 1.495 . S
C613 H619 0.959 . S
C613 H620 0.961 . S
C613 H621 0.960 . S
C614 C612 1.381 . S
C614 C615 1.394 . S
C614 H622 0.930 . S
C615 C614 1.394 . S
C615 C616 1.383 . S
C615 H623 0.929 . S
C616 C615 1.383 . S
C616 C617 1.377 . S
C617 H601 0.930 . S
C617 C616 1.377 . S
C617 C618 1.379 . S
C618 H602 0.931 . S
C618 C612 1.383 . S
C618 C617 1.379 . S
H619 C613 0.959 . S
H620 C613 0.961 . S
H621 C613 0.960 . S
H622 C614 0.930 . S
H623 C615 0.929 . S
H624 C632 0.929 . S
H625 C634 0.930 . S
H626 C636 0.930 . S
H627 C639 0.929 . S
H628 C642 0.979 . S
H629 C644 0.960 . S
H630 C644 0.960 . S
H631 C644 0.960 . S
C632 H624 0.929 . S
C632 C633 1.377 . S
C632 C634 1.384 . S
C633 C632 1.377 . S
C633 C639 1.390 . S
C634 H625 0.930 . S
C634 C632 1.384 . S
C634 C635 1.372 . S
C635 C634 1.372 . S
C635 C636 1.400 . S
C635 C640 1.490 . S
C636 H626 0.930 . S
C636 C635 1.400 . S
C636 C639 1.386 . S
H637 C653 0.930 . S
H638 C654 0.931 . S
C639 H627 0.929 . S
C639 C633 1.390 . S
C639 C636 1.386 . S
C640 C635 1.490 . S
C640 C642 1.395 . S
C640 C643 1.403 . S
H641 C647 0.930 . S
C642 H628 0.979 . S
C642 C640 1.395 . S
C642 C645 1.433 . S
C643 C640 1.403 . S
C643 C644 1.524 . S
C643 C647 1.400 . S
C644 H629 0.960 . S
C644 H630 0.960 . S
C644 H631 0.960 . S
C644 C643 1.524 . S
C645 C642 1.433 . S
C645 C646 1.437 . S
C645 C649 1.426 1_556 S
C646 C645 1.437 . S
C646 C647 1.385 . S
C646 C648 1.478 . S
C647 H641 0.930 . S
C647 C643 1.400 . S
C647 C646 1.385 . S
C648 C646 1.478 . S
C648 C650 1.381 . S
C648 C654 1.383 . S
C649 C645 1.426 1_554 S
C649 H655 0.959 . S
C649 H656 0.961 . S
C649 H657 0.960 . S
C650 C648 1.381 . S
C650 C651 1.386 1_556 S
C650 H658 0.930 . S
C651 C650 1.386 1_554 S
C651 C652 1.390 . S
C651 H659 0.933 . S
C652 C651 1.390 . S
C652 C653 1.377 . S
C653 H637 0.930 . S
C653 C652 1.377 . S
C653 C654 1.379 1_554 S
C654 H638 0.931 . S
C654 C648 1.383 . S
C654 C653 1.379 1_556 S
H655 C649 0.959 . S
H656 C649 0.961 . S
H657 C649 0.960 . S
H658 C650 0.930 . S
H659 C651 0.933 . S
H660 C668 0.929 . S
H661 C670 0.930 . S
H662 C672 0.930 . S
H663 C675 0.929 . S
H664 C678 0.930 . S
H665 C680 0.960 . S
H666 C680 0.960 . S
H667 C680 0.960 . S
C668 H660 0.929 . S
C668 C669 1.377 . S
C668 C670 1.384 . S
C669 C668 1.377 . S
C669 C675 1.390 . S
C670 H661 0.930 . S
C670 C668 1.384 . S
C670 C671 1.372 . S
C671 C670 1.372 . S
C671 C672 1.400 . S
C671 C676 1.490 . S
C672 H662 0.930 . S
C672 C671 1.400 . S
C672 C675 1.386 . S
H673 C689 0.930 . S
H674 C690 0.931 . S
C675 H663 0.929 . S
C675 C669 1.390 . S
C675 C672 1.386 . S
C676 C671 1.490 . S
C676 C678 1.395 . S
C676 C679 1.403 . S
H677 C683 0.930 . S
C678 H664 0.930 . S
C678 C676 1.395 . S
C678 C681 1.403 . S
C679 C676 1.403 . S
C679 C680 1.524 . S
C679 C683 1.400 . S
C680 H665 0.960 . S
C680 H666 0.960 . S
C680 H667 0.960 . S
C680 C679 1.524 . S
C681 C678 1.403 . S
C681 C682 1.392 . S
C681 C685 1.495 . S
C682 C681 1.392 . S
C682 C683 1.385 . S
C682 C684 1.478 . S
C683 H677 0.930 . S
C683 C679 1.400 . S
C683 C682 1.385 . S
C684 C682 1.478 . S
C684 C686 1.381 . S
C684 C690 1.383 . S
C685 C681 1.495 . S
C685 H691 0.959 . S
C685 H692 0.961 . S
C685 H693 0.960 . S
C686 C684 1.381 . S
C686 C687 1.394 . S
C686 H694 0.930 . S
C687 C686 1.394 . S
C687 C688 1.383 . S
C687 H695 0.929 . S
C688 C687 1.383 . S
C688 C689 1.377 . S
C689 H673 0.930 . S
C689 C688 1.377 . S
C689 C690 1.379 . S
C690 H674 0.931 . S
C690 C684 1.383 . S
C690 C689 1.379 . S
H691 C685 0.959 . S
H692 C685 0.961 . S
H693 C685 0.960 . S
H694 C686 0.930 . S
H695 C687 0.929 . S
H696 C704 0.929 . S
H697 C706 0.930 . S
H698 C708 0.930 . S
H699 C711 0.929 . S
H700 C714 0.930 . S
H701 C716 0.960 . S
H702 C716 0.960 . S
H703 C716 0.960 . S
C704 H696 0.929 . S
C704 C705 1.377 . S
C704 C706 1.384 . S
C705 C704 1.377 . S
C705 C711 1.390 . S
C706 H697 0.930 . S
C706 C704 1.384 . S
C706 C707 1.372 . S
C707 C706 1.372 . S
C707 C708 1.400 . S
C707 C712 1.490 . S
C708 H698 0.930 . S
C708 C707 1.400 . S
C708 C711 1.386 . S
H709 C725 0.930 . S
H710 C726 0.931 . S
C711 H699 0.929 . S
C711 C705 1.390 . S
C711 C708 1.386 . S
C712 C707 1.490 . S
C712 C714 1.395 . S
C712 C715 1.403 . S
H713 C719 0.930 . S
C714 H700 0.930 . S
C714 C712 1.395 . S
C714 C717 1.403 . S
C715 C712 1.403 . S
C715 C716 1.524 . S
C715 C719 1.400 . S
C716 H701 0.960 . S
C716 H702 0.960 . S
C716 H703 0.960 . S
C716 C715 1.524 . S
C717 C714 1.403 . S
C717 C718 1.392 . S
C717 C721 1.495 . S
C718 C717 1.392 . S
C718 C719 1.385 . S
C718 C720 1.478 . S
C719 H713 0.930 . S
C719 C715 1.400 . S
C719 C718 1.385 . S
C720 C718 1.478 . S
C720 C722 1.381 . S
C720 C726 1.383 . S
C721 C717 1.495 . S
C721 H727 0.959 . S
C721 H728 0.961 . S
C721 H729 0.960 . S
C722 C720 1.381 . S
C722 C723 1.394 . S
C722 H730 0.930 . S
C723 C722 1.394 . S
C723 C724 1.383 . S
C723 H731 0.929 . S
C724 C723 1.383 . S
C724 C725 1.377 . S
C725 H709 0.930 . S
C725 C724 1.377 . S
C725 C726 1.379 . S
C726 H710 0.931 . S
C726 C720 1.383 . S
C726 C725 1.379 . S
H727 C721 0.959 . S
H728 C721 0.961 . S
H729 C721 0.960 . S
H730 C722 0.930 . S
H731 C723 0.929 . S
H732 C740 0.929 . S
H733 C742 0.930 . S
H734 C744 0.930 . S
H735 C747 0.929 . S
H736 C750 0.930 . S
H737 C752 0.960 . S
H738 C752 0.960 . S
H739 C752 0.960 . S
C740 H732 0.929 . S
C740 C741 1.377 . S
C740 C742 1.384 . S
C741 C740 1.377 . S
C741 C747 1.390 . S
C742 H733 0.930 . S
C742 C740 1.384 . S
C742 C743 1.372 . S
C743 C742 1.372 . S
C743 C744 1.400 . S
C743 C748 1.490 . S
C744 H734 0.930 . S
C744 C743 1.400 . S
C744 C747 1.386 . S
H745 C761 0.930 . S
H746 C762 0.931 . S
C747 H735 0.929 . S
C747 C741 1.390 . S
C747 C744 1.386 . S
C748 C743 1.490 . S
C748 C750 1.395 . S
C748 C751 1.403 . S
H749 C755 0.930 . S
C750 H736 0.930 . S
C750 C748 1.395 . S
C750 C753 1.403 . S
C751 C748 1.403 . S
C751 C752 1.524 . S
C751 C755 1.400 . S
C752 H737 0.960 . S
C752 H738 0.960 . S
C752 H739 0.960 . S
C752 C751 1.524 . S
C753 C750 1.403 . S
C753 C754 1.392 . S
C753 C757 1.495 . S
C754 C753 1.392 . S
C754 C755 1.385 . S
C754 C756 1.478 . S
C755 H749 0.930 . S
C755 C751 1.400 . S
C755 C754 1.385 . S
C756 C754 1.478 . S
C756 C758 1.381 . S
C756 C762 1.383 . S
C757 C753 1.495 . S
C757 H763 0.959 . S
C757 H764 0.961 . S
C757 H765 0.960 . S
C758 C756 1.381 . S
C758 C759 1.394 . S
C758 H766 0.930 . S
C759 C758 1.394 . S
C759 C760 1.383 . S
C759 H767 0.929 . S
C760 C759 1.383 . S
C760 C761 1.377 . S
C761 H745 0.930 . S
C761 C760 1.377 . S
C761 C762 1.379 . S
C762 H746 0.931 . S
C762 C756 1.383 . S
C762 C761 1.379 . S
H763 C757 0.959 . S
H764 C757 0.961 . S
H765 C757 0.960 . S
H766 C758 0.930 . S
H767 C759 0.929 . S
H768 C776 0.929 . S
H769 C778 0.930 . S
H770 C780 0.930 . S
H771 C783 0.929 . S
H772 C786 0.930 . S
H773 C788 0.960 . S
H774 C788 0.960 . S
H775 C788 0.960 . S
C776 H768 0.929 . S
C776 C777 1.377 . S
C776 C778 1.384 . S
C777 C776 1.377 . S
C777 C783 1.390 . S
C778 H769 0.930 . S
C778 C776 1.384 . S
C778 C779 1.372 . S
C779 C778 1.372 . S
C779 C780 1.400 . S
C779 C784 1.490 . S
C780 H770 0.930 . S
C780 C779 1.400 . S
C780 C783 1.386 . S
H781 C797 0.930 . S
H782 C798 0.931 . S
C783 H771 0.929 . S
C783 C777 1.390 . S
C783 C780 1.386 . S
C784 C779 1.490 . S
C784 C786 1.395 . S
C784 C787 1.403 . S
H785 C791 0.930 . S
C786 H772 0.930 . S
C786 C784 1.395 . S
C786 C789 1.403 . S
C787 C784 1.403 . S
C787 C788 1.524 . S
C787 C791 1.400 . S
C788 H773 0.960 . S
C788 H774 0.960 . S
C788 H775 0.960 . S
C788 C787 1.524 . S
C789 C786 1.403 . S
C789 C790 1.392 . S
C789 C793 1.495 . S
C790 C789 1.392 . S
C790 C791 1.385 . S
C790 C792 1.478 . S
C791 H785 0.930 . S
C791 C787 1.400 . S
C791 C790 1.385 . S
C792 C790 1.478 . S
C792 C794 1.381 . S
C792 C798 1.383 . S
C793 C789 1.495 . S
C793 H799 0.959 . S
C793 H800 0.961 . S
C793 H801 0.960 . S
C794 C792 1.381 . S
C794 C795 1.394 . S
C794 H802 0.930 . S
C795 C794 1.394 . S
C795 C796 1.383 . S
C795 H803 0.929 . S
C796 C795 1.383 . S
C796 C797 1.377 . S
C797 H781 0.930 . S
C797 C796 1.377 . S
C797 C798 1.379 . S
C798 H782 0.931 . S
C798 C792 1.383 . S
C798 C797 1.379 . S
H799 C793 0.959 . S
H800 C793 0.961 . S
H801 C793 0.960 . S
H802 C794 0.930 . S
H803 C795 0.929 . S
H804 C812 0.929 . S
H805 C814 0.930 . S
H806 C816 0.930 . S
H807 C819 0.929 . S
H808 C822 0.930 . S
H809 C824 0.960 . S
H810 C824 0.960 . S
H811 C824 0.960 . S
C812 H804 0.929 . S
C812 C813 1.377 . S
C812 C814 1.384 . S
C813 C812 1.377 . S
C813 C819 1.390 . S
C814 H805 0.930 . S
C814 C812 1.384 . S
C814 C815 1.372 . S
C815 C814 1.372 . S
C815 C816 1.400 . S
C815 C820 1.490 . S
C816 H806 0.930 . S
C816 C815 1.400 . S
C816 C819 1.386 . S
H817 C833 0.930 . S
H818 C834 0.931 . S
C819 H807 0.929 . S
C819 C813 1.390 . S
C819 C816 1.386 . S
C820 C815 1.490 . S
C820 C822 1.395 . S
C820 C823 1.403 . S
H821 C827 0.930 . S
C822 H808 0.930 . S
C822 C820 1.395 . S
C822 C825 1.403 . S
C823 C820 1.403 . S
C823 C824 1.524 . S
C823 C827 1.400 . S
C824 H809 0.960 . S
C824 H810 0.960 . S
C824 H811 0.960 . S
C824 C823 1.524 . S
C825 C822 1.403 . S
C825 C826 1.392 . S
C825 C829 1.495 . S
C826 C825 1.392 . S
C826 C827 1.385 . S
C826 C828 1.478 . S
C827 H821 0.930 . S
C827 C823 1.400 . S
C827 C826 1.385 . S
C828 C826 1.478 . S
C828 C830 1.381 . S
C828 C834 1.383 . S
C829 C825 1.495 . S
C829 H835 0.959 . S
C829 H836 0.961 . S
C829 H837 0.960 . S
C830 C828 1.381 . S
C830 C831 1.394 . S
C830 H838 0.930 . S
C831 C830 1.394 . S
C831 C832 1.383 . S
C831 H839 0.929 1_554 S
C832 C831 1.383 . S
C832 C833 1.377 . S
C833 H817 0.930 . S
C833 C832 1.377 . S
C833 C834 1.379 . S
C834 H818 0.931 . S
C834 C828 1.383 . S
C834 C833 1.379 . S
H835 C829 0.959 . S
H836 C829 0.961 . S
H837 C829 0.960 . S
H838 C830 0.930 . S
H839 C831 0.929 1_556 S
H840 C848 0.929 . S
H841 C850 0.930 . S
H842 C852 0.930 . S
H843 C855 0.929 . S
H844 C858 0.930 . S
H845 C860 0.960 . S
H846 C860 0.960 . S
H847 C860 0.960 . S
C848 H840 0.929 . S
C848 C849 1.377 . S
C848 C850 1.384 . S
C849 C848 1.377 . S
C849 C855 1.390 . S
C850 H841 0.930 . S
C850 C848 1.384 . S
C850 C851 1.372 . S
C851 C850 1.372 . S
C851 C852 1.400 . S
C851 C856 1.490 . S
C852 H842 0.930 . S
C852 C851 1.400 . S
C852 C855 1.386 . S
H853 C869 0.930 . S
H854 C870 0.931 . S
C855 H843 0.929 . S
C855 C849 1.390 . S
C855 C852 1.386 . S
C856 C851 1.490 . S
C856 C858 1.395 . S
C856 C859 1.403 . S
H857 C863 0.930 . S
C858 H844 0.930 . S
C858 C856 1.395 . S
C858 C861 1.403 . S
C859 C856 1.403 . S
C859 C860 1.524 . S
C859 C863 1.400 . S
C860 H845 0.960 . S
C860 H846 0.960 . S
C860 H847 0.960 . S
C860 C859 1.524 . S
C861 C858 1.403 . S
C861 C862 1.392 . S
C861 C865 1.495 . S
C862 C861 1.392 . S
C862 C863 1.385 . S
C862 C864 1.478 . S
C863 H857 0.930 . S
C863 C859 1.400 . S
C863 C862 1.385 . S
C864 C862 1.478 . S
C864 C866 1.381 . S
C864 C870 1.383 . S
C865 C861 1.495 . S
C865 H871 0.959 . S
C865 H872 0.961 . S
C865 H873 0.960 . S
C866 C864 1.381 . S
C866 C867 1.394 . S
C866 H874 0.930 . S
C867 C866 1.394 . S
C867 C868 1.383 . S
C867 H875 0.929 . S
C868 C867 1.383 . S
C868 C869 1.377 . S
C869 H853 0.930 . S
C869 C868 1.377 . S
C869 C870 1.379 . S
C870 H854 0.931 . S
C870 C864 1.383 . S
C870 C869 1.379 . S
H871 C865 0.959 . S
H872 C865 0.961 . S
H873 C865 0.960 . S
H874 C866 0.930 . S
H875 C867 0.929 . S
H876 C884 0.929 . S
H877 C886 0.930 . S
H878 C888 0.930 . S
H879 C891 0.929 . S
H880 C894 0.930 . S
H881 C896 0.960 . S
H882 C896 0.960 . S
H883 C896 0.960 . S
C884 H876 0.929 . S
C884 C885 1.377 . S
C884 C886 1.384 . S
C885 C884 1.377 . S
C885 C891 1.390 . S
C886 H877 0.930 . S
C886 C884 1.384 . S
C886 C887 1.372 . S
C887 C886 1.372 . S
C887 C888 1.400 . S
C887 C892 1.490 . S
C888 H878 0.930 . S
C888 C887 1.400 . S
C888 C891 1.386 . S
H889 C905 0.930 . S
H890 C906 0.931 . S
C891 H879 0.929 . S
C891 C885 1.390 . S
C891 C888 1.386 . S
C892 C887 1.490 . S
C892 C894 1.395 . S
C892 C895 1.403 . S
H893 C899 0.930 . S
C894 H880 0.930 . S
C894 C892 1.395 . S
C894 C897 1.403 . S
C895 C892 1.403 . S
C895 C896 1.524 . S
C895 C899 1.400 . S
C896 H881 0.960 . S
C896 H882 0.960 . S
C896 H883 0.960 . S
C896 C895 1.524 . S
C897 C894 1.403 . S
C897 C898 1.392 . S
C897 C901 1.495 . S
C898 C897 1.392 . S
C898 C899 1.385 . S
C898 C900 1.478 . S
C899 H893 0.930 . S
C899 C895 1.400 . S
C899 C898 1.385 . S
C900 C898 1.478 . S
C900 C902 1.381 . S
C900 C906 1.383 . S
C901 C897 1.495 . S
C901 H907 0.959 . S
C901 H908 0.961 . S
C901 H909 0.960 . S
C902 C900 1.381 . S
C902 C903 1.394 . S
C902 H910 0.930 . S
C903 C902 1.394 . S
C903 C904 1.383 . S
C903 H911 0.929 . S
C904 C903 1.383 . S
C904 C905 1.377 . S
C905 H889 0.930 . S
C905 C904 1.377 . S
C905 C906 1.379 . S
C906 H890 0.931 . S
C906 C900 1.383 . S
C906 C905 1.379 . S
H907 C901 0.959 . S
H908 C901 0.961 . S
H909 C901 0.960 . S
H910 C902 0.930 . S
H911 C903 0.929 . S
H912 C920 0.929 . S
H913 C922 0.930 . S
H914 C924 0.930 . S
H915 C927 0.929 . S
H916 C930 0.930 . S
H917 C932 0.960 . S
H918 C932 0.960 . S
H919 C932 0.960 . S
C920 H912 0.929 . S
C920 C921 1.377 . S
C920 C922 1.384 . S
C921 C920 1.377 . S
C921 C927 1.390 . S
C922 H913 0.930 . S
C922 C920 1.384 . S
C922 C923 1.372 . S
C923 C922 1.372 . S
C923 C924 1.400 . S
C923 C928 1.490 . S
C924 H914 0.930 . S
C924 C923 1.400 . S
C924 C927 1.386 . S
H925 C941 0.930 . S
H926 C942 0.931 . S
C927 H915 0.929 . S
C927 C921 1.390 . S
C927 C924 1.386 . S
C928 C923 1.490 . S
C928 C930 1.395 . S
C928 C931 1.403 . S
H929 C935 0.930 . S
C930 H916 0.930 . S
C930 C928 1.395 . S
C930 C933 1.403 . S
C931 C928 1.403 . S
C931 C932 1.524 . S
C931 C935 1.400 . S
C932 H917 0.960 . S
C932 H918 0.960 . S
C932 H919 0.960 . S
C932 C931 1.524 . S
C933 C930 1.403 . S
C933 C934 1.392 . S
C933 C937 1.495 . S
C934 C933 1.392 . S
C934 C935 1.385 . S
C934 C936 1.478 . S
C935 H929 0.930 . S
C935 C931 1.400 . S
C935 C934 1.385 . S
C936 C934 1.478 . S
C936 C938 1.381 . S
C936 C942 1.383 . S
C937 C933 1.495 . S
C937 H943 0.959 . S
C937 H944 0.961 . S
C937 H945 0.960 . S
C938 C936 1.381 . S
C938 C939 1.394 . S
C938 H946 0.930 . S
C939 C938 1.394 . S
C939 C940 1.383 . S
C939 H947 0.929 . S
C940 C939 1.383 . S
C940 C941 1.377 . S
C941 H925 0.930 . S
C941 C940 1.377 . S
C941 C942 1.379 . S
C942 H926 0.931 . S
C942 C936 1.383 . S
C942 C941 1.379 . S
H943 C937 0.959 . S
H944 C937 0.961 . S
H945 C937 0.960 . S
H946 C938 0.930 . S
H947 C939 0.929 . S
H948 C956 0.929 1_455 S
H949 C958 0.930 . S
H950 C960 0.930 . S
H951 C963 0.929 . S
H952 C966 0.930 . S
H953 C968 0.960 . S
H954 C968 0.960 . S
H955 C968 0.960 . S
C956 H948 0.929 1_655 S
C956 C957 1.377 . S
C956 C958 1.384 . S
C957 C956 1.377 . S
C957 C963 1.390 . S
C958 H949 0.930 . S
C958 C956 1.384 . S
C958 C959 1.372 . S
C959 C958 1.372 . S
C959 C960 1.400 . S
C959 C964 1.490 . S
C960 H950 0.930 . S
C960 C959 1.400 . S
C960 C963 1.386 . S
H961 C977 0.930 . S
H962 C978 0.931 . S
C963 H951 0.929 . S
C963 C957 1.390 . S
C963 C960 1.386 . S
C964 C959 1.490 . S
C964 C966 1.395 . S
C964 C967 1.403 . S
H965 C971 0.930 . S
C966 H952 0.930 . S
C966 C964 1.395 . S
C966 C969 1.403 . S
C967 C964 1.403 . S
C967 C968 1.524 . S
C967 C971 1.400 . S
C968 H953 0.960 . S
C968 H954 0.960 . S
C968 H955 0.960 . S
C968 C967 1.524 . S
C969 C966 1.403 . S
C969 C970 1.392 . S
C969 C973 1.495 . S
C970 C969 1.392 . S
C970 C971 1.385 . S
C970 C972 1.478 . S
C971 H965 0.930 . S
C971 C967 1.400 . S
C971 C970 1.385 . S
C972 C970 1.478 . S
C972 C974 1.381 . S
C972 C978 1.383 . S
C973 C969 1.495 . S
C973 H979 0.959 . S
C973 H980 0.961 . S
C973 H981 0.960 . S
C974 C972 1.381 . S
C974 C975 1.394 . S
C974 H982 0.930 . S
C975 C974 1.394 . S
C975 C976 1.383 . S
C975 H983 0.929 . S
C976 C975 1.383 . S
C976 C977 1.377 . S
C977 H961 0.930 . S
C977 C976 1.377 . S
C977 C978 1.379 . S
C978 H962 0.931 . S
C978 C972 1.383 . S
C978 C977 1.379 . S
H979 C973 0.959 . S
H980 C973 0.961 . S
H981 C973 0.960 . S
H982 C974 0.930 . S
H983 C975 0.929 . S
H984 C992 0.929 . S
H985 C994 0.930 . S
H986 C996 0.930 . S
H987 C999 0.929 . S
H988 C1002 0.930 . S
H989 C1004 0.960 1_554 S
H990 C1004 0.960 . S
H991 C1004 0.958 1_554 S
C992 H984 0.929 . S
C992 C993 1.377 . S
C992 C994 1.384 . S
C993 C992 1.377 . S
C993 C999 1.390 . S
C994 H985 0.930 . S
C994 C992 1.384 . S
C994 C995 1.372 . S
C995 C994 1.372 . S
C995 C996 1.400 . S
C995 C1000 1.490 . S
C996 H986 0.930 . S
C996 C995 1.400 . S
C996 C999 1.386 . S
H997 C1013 0.930 1_554 S
H998 C1014 0.931 . S
C999 H987 0.929 . S
C999 C993 1.390 . S
C999 C996 1.386 . S
C1000 C995 1.490 . S
C1000 C1002 1.395 . S
C1000 C1003 1.403 . S
H1001 C1007 0.930 . S
C1002 H988 0.930 . S
C1002 C1000 1.395 . S
C1002 C1005 1.403 . S
C1003 C1000 1.403 . S
C1003 C1004 1.524 . S
C1003 C1007 1.400 . S
C1004 H989 0.960 1_556 S
C1004 H990 0.960 . S
C1004 H991 0.958 1_556 S
C1004 C1003 1.524 . S
C1005 C1002 1.403 . S
C1005 C1006 1.392 . S
C1005 C1009 1.495 . S
C1006 C1005 1.392 . S
C1006 C1007 1.385 . S
C1006 C1008 1.478 . S
C1007 H1001 0.930 . S
C1007 C1003 1.400 . S
C1007 C1006 1.385 . S
C1008 C1006 1.478 . S
C1008 C1010 1.381 . S
C1008 C1014 1.383 . S
C1009 C1005 1.495 . S
C1009 H1015 0.959 . S
C1009 H1016 0.961 . S
C1009 H1017 0.960 . S
C1010 C1008 1.381 . S
C1010 C1011 1.394 . S
C1010 H1018 0.930 . S
C1011 C1010 1.394 . S
C1011 C1012 1.383 . S
C1011 H1019 0.929 . S
C1012 C1011 1.383 . S
C1012 C1013 1.377 . S
C1013 H997 0.930 1_556 S
C1013 C1012 1.377 . S
C1013 C1014 1.379 . S
C1014 H998 0.931 . S
C1014 C1008 1.383 . S
C1014 C1013 1.379 . S
H1015 C1009 0.959 . S
H1016 C1009 0.961 . S
H1017 C1009 0.960 . S
H1018 C1010 0.930 . S
H1019 C1011 0.929 . S
H1020 C1028 0.929 . S
H1021 C1030 0.930 . S
H1022 C1032 0.930 . S
H1023 C1035 0.929 . S
H1024 C1038 0.930 . S
H1025 C1040 0.960 . S
H1026 C1040 0.960 . S
H1027 C1040 0.960 . S
C1028 H1020 0.929 . S
C1028 C1029 1.377 . S
C1028 C1030 1.384 . S
C1029 C1028 1.377 . S
C1029 C1035 1.390 . S
C1030 H1021 0.930 . S
C1030 C1028 1.384 . S
C1030 C1031 1.372 . S
C1031 C1030 1.372 . S
C1031 C1032 1.400 . S
C1031 C1036 1.490 . S
C1032 H1022 0.930 . S
C1032 C1031 1.400 . S
C1032 C1035 1.386 . S
H1033 C1049 0.930 . S
H1034 C1050 0.931 . S
C1035 H1023 0.929 . S
C1035 C1029 1.390 . S
C1035 C1032 1.386 . S
C1036 C1031 1.490 . S
C1036 C1038 1.395 . S
C1036 C1039 1.403 . S
H1037 C1043 0.930 . S
C1038 H1024 0.930 . S
C1038 C1036 1.395 . S
C1038 C1041 1.403 . S
C1039 C1036 1.403 . S
C1039 C1040 1.524 . S
C1039 C1043 1.400 . S
C1040 H1025 0.960 . S
C1040 H1026 0.960 . S
C1040 H1027 0.960 . S
C1040 C1039 1.524 . S
C1041 C1038 1.403 . S
C1041 C1042 1.392 . S
C1041 C1045 1.495 . S
C1042 C1041 1.392 . S
C1042 C1043 1.385 . S
C1042 C1044 1.478 . S
C1043 H1037 0.930 . S
C1043 C1039 1.400 . S
C1043 C1042 1.385 . S
C1044 C1042 1.478 . S
C1044 C1046 1.381 . S
C1044 C1050 1.383 . S
C1045 C1041 1.495 . S
C1045 H1051 0.959 . S
C1045 H1052 0.961 . S
C1045 H1053 0.960 . S
C1046 C1044 1.381 . S
C1046 C1047 1.394 . S
C1046 H1054 0.930 . S
C1047 C1046 1.394 . S
C1047 C1048 1.383 . S
C1047 H1055 0.929 . S
C1048 C1047 1.383 . S
C1048 C1049 1.377 . S
C1049 H1033 0.930 . S
C1049 C1048 1.377 . S
C1049 C1050 1.379 . S
C1050 H1034 0.931 . S
C1050 C1044 1.383 . S
C1050 C1049 1.379 . S
H1051 C1045 0.959 . S
H1052 C1045 0.961 . S
H1053 C1045 0.960 . S
H1054 C1046 0.930 . S
H1055 C1047 0.929 . S
H1056 C1064 0.929 1_545 S
H1057 C1066 0.930 . S
H1058 C1068 0.930 . S
H1059 C1071 0.929 . S
H1060 C1074 0.930 . S
H1061 C1076 0.960 . S
H1062 C1076 0.960 . S
H1063 C1076 0.960 . S
C1064 H1056 0.929 1_565 S
C1064 C1065 1.377 . S
C1064 C1066 1.384 . S
C1065 C1064 1.377 . S
C1065 C1071 1.390 . S
C1066 H1057 0.930 . S
C1066 C1064 1.384 . S
C1066 C1067 1.372 . S
C1067 C1066 1.372 . S
C1067 C1068 1.400 . S
C1067 C1072 1.490 . S
C1068 H1058 0.930 . S
C1068 C1067 1.400 . S
C1068 C1071 1.386 . S
H1069 C1085 0.930 . S
H1070 C1086 0.931 . S
C1071 H1059 0.929 . S
C1071 C1065 1.390 . S
C1071 C1068 1.386 . S
C1072 C1067 1.490 . S
C1072 C1074 1.395 . S
C1072 C1075 1.403 . S
H1073 C1079 0.930 . S
C1074 H1060 0.930 . S
C1074 C1072 1.395 . S
C1074 C1077 1.403 . S
C1075 C1072 1.403 . S
C1075 C1076 1.524 . S
C1075 C1079 1.400 . S
C1076 H1061 0.960 . S
C1076 H1062 0.960 . S
C1076 H1063 0.960 . S
C1076 C1075 1.524 . S
C1077 C1074 1.403 . S
C1077 C1078 1.392 . S
C1077 C1081 1.495 . S
C1078 C1077 1.392 . S
C1078 C1079 1.385 . S
C1078 C1080 1.478 . S
C1079 H1073 0.930 . S
C1079 C1075 1.400 . S
C1079 C1078 1.385 . S
C1080 C1078 1.478 . S
C1080 C1082 1.381 . S
C1080 C1086 1.383 . S
C1081 C1077 1.495 . S
C1081 H1087 0.959 . S
C1081 H1088 0.961 . S
C1081 H1089 0.960 . S
C1082 C1080 1.381 . S
C1082 C1083 1.394 . S
C1082 H1090 0.930 . S
C1083 C1082 1.394 . S
C1083 C1084 1.383 . S
C1083 H1091 0.929 . S
C1084 C1083 1.383 . S
C1084 C1085 1.377 . S
C1085 H1069 0.930 . S
C1085 C1084 1.377 . S
C1085 C1086 1.379 . S
C1086 H1070 0.931 . S
C1086 C1080 1.383 . S
C1086 C1085 1.379 . S
H1087 C1081 0.959 . S
H1088 C1081 0.961 . S
H1089 C1081 0.960 . S
H1090 C1082 0.930 . S
H1091 C1083 0.929 . S
H1092 C1100 0.929 . S
H1093 C1102 0.930 . S
H1094 C1104 0.930 . S
H1095 C1107 0.929 . S
H1096 C1110 0.930 . S
H1097 C1112 0.960 . S
H1098 C1112 0.960 . S
H1099 C1112 0.960 . S
C1100 H1092 0.929 . S
C1100 C1101 1.377 . S
C1100 C1102 1.384 . S
C1101 C1100 1.377 . S
C1101 C1107 1.390 . S
C1102 H1093 0.930 . S
C1102 C1100 1.384 . S
C1102 C1103 1.372 . S
C1103 C1102 1.372 . S
C1103 C1104 1.400 . S
C1103 C1108 1.490 . S
C1104 H1094 0.930 . S
C1104 C1103 1.400 . S
C1104 C1107 1.386 . S
H1105 C1121 0.930 . S
H1106 C1122 0.931 . S
C1107 H1095 0.929 . S
C1107 C1101 1.390 . S
C1107 C1104 1.386 . S
C1108 C1103 1.490 . S
C1108 C1110 1.395 . S
C1108 C1111 1.403 . S
H1109 C1115 0.930 . S
C1110 H1096 0.930 . S
C1110 C1108 1.395 . S
C1110 C1113 1.403 . S
C1111 C1108 1.403 . S
C1111 C1112 1.524 . S
C1111 C1115 1.400 . S
C1112 H1097 0.960 . S
C1112 H1098 0.960 . S
C1112 H1099 0.960 . S
C1112 C1111 1.524 . S
C1113 C1110 1.403 . S
C1113 C1114 1.392 . S
C1113 C1117 1.495 . S
C1114 C1113 1.392 . S
C1114 C1115 1.385 . S
C1114 C1116 1.478 . S
C1115 H1109 0.930 . S
C1115 C1111 1.400 . S
C1115 C1114 1.385 . S
C1116 C1114 1.478 . S
C1116 C1118 1.381 . S
C1116 C1122 1.383 . S
C1117 C1113 1.495 . S
C1117 H1123 0.959 . S
C1117 H1124 0.961 . S
C1117 H1125 0.960 . S
C1118 C1116 1.381 . S
C1118 C1119 1.394 . S
C1118 H1126 0.930 . S
C1119 C1118 1.394 . S
C1119 C1120 1.383 . S
C1119 H1127 0.929 . S
C1120 C1119 1.383 . S
C1120 C1121 1.377 . S
C1121 H1105 0.930 . S
C1121 C1120 1.377 . S
C1121 C1122 1.379 . S
C1122 H1106 0.931 . S
C1122 C1116 1.383 . S
C1122 C1121 1.379 . S
H1123 C1117 0.959 . S
H1124 C1117 0.961 . S
H1125 C1117 0.960 . S
H1126 C1118 0.930 . S
H1127 C1119 0.929 . S
H1128 C1136 0.929 . S
H1129 C1138 0.930 . S
H1130 C1140 0.930 . S
H1131 C1143 0.929 . S
H1132 C1146 0.930 . S
H1133 C1148 0.960 . S
H1134 C1148 0.960 . S
H1135 C1148 0.960 . S
C1136 H1128 0.929 . S
C1136 C1137 1.377 . S
C1136 C1138 1.384 . S
C1137 C1136 1.377 . S
C1137 C1143 1.390 . S
C1138 H1129 0.930 . S
C1138 C1136 1.384 . S
C1138 C1139 1.372 . S
C1139 C1138 1.372 . S
C1139 C1140 1.400 . S
C1139 C1144 1.490 . S
C1140 H1130 0.930 . S
C1140 C1139 1.400 . S
C1140 C1143 1.386 . S
H1141 C1157 0.930 . S
H1142 C1158 0.931 . S
C1143 H1131 0.929 . S
C1143 C1137 1.390 . S
C1143 C1140 1.386 . S
C1144 C1139 1.490 . S
C1144 C1146 1.395 . S
C1144 C1147 1.403 . S
H1145 C1151 0.930 . S
C1146 H1132 0.930 . S
C1146 C1144 1.395 . S
C1146 C1149 1.403 . S
C1147 C1144 1.403 . S
C1147 C1148 1.524 . S
C1147 C1151 1.400 . S
C1148 H1133 0.960 . S
C1148 H1134 0.960 . S
C1148 H1135 0.960 . S
C1148 C1147 1.524 . S
C1149 C1146 1.403 . S
C1149 C1150 1.392 . S
C1149 C1153 1.495 . S
C1150 C1149 1.392 . S
C1150 C1151 1.385 . S
C1150 C1152 1.478 . S
C1151 H1145 0.930 . S
C1151 C1147 1.400 . S
C1151 C1150 1.385 . S
C1152 C1150 1.478 . S
C1152 C1154 1.381 . S
C1152 C1158 1.383 . S
C1153 C1149 1.495 . S
C1153 H1159 0.959 . S
C1153 H1160 0.961 . S
C1153 H1161 0.960 . S
C1154 C1152 1.381 . S
C1154 C1155 1.394 . S
C1154 H1162 0.930 . S
C1155 C1154 1.394 . S
C1155 C1156 1.383 . S
C1155 H1163 0.929 . S
C1156 C1155 1.383 . S
C1156 C1157 1.377 . S
C1157 H1141 0.930 . S
C1157 C1156 1.377 . S
C1157 C1158 1.379 . S
C1158 H1142 0.931 . S
C1158 C1152 1.383 . S
C1158 C1157 1.379 . S
H1159 C1153 0.959 . S
H1160 C1153 0.961 . S
H1161 C1153 0.960 . S
H1162 C1154 0.930 . S
H1163 C1155 0.929 . S
H1164 C1172 0.929 . S
H1165 C1174 0.930 . S
H1166 C1176 0.930 . S
H1167 C1179 0.929 . S
H1168 C1182 0.930 . S
H1169 C1184 0.960 . S
H1170 C1184 0.960 . S
H1171 C1184 0.960 . S
C1172 H1164 0.929 . S
C1172 C1173 1.377 . S
C1172 C1174 1.384 . S
C1173 C1172 1.377 . S
C1173 C1179 1.390 . S
C1174 H1165 0.930 . S
C1174 C1172 1.384 . S
C1174 C1175 1.372 . S
C1175 C1174 1.372 . S
C1175 C1176 1.400 . S
C1175 C1180 1.490 . S
C1176 H1166 0.930 . S
C1176 C1175 1.400 . S
C1176 C1179 1.386 . S
H1177 C1193 0.930 . S
H1178 C1194 0.931 . S
C1179 H1167 0.929 . S
C1179 C1173 1.390 . S
C1179 C1176 1.386 . S
C1180 C1175 1.490 . S
C1180 C1182 1.395 . S
C1180 C1183 1.403 . S
H1181 C1187 0.930 . S
C1182 H1168 0.930 . S
C1182 C1180 1.395 . S
C1182 C1185 1.403 . S
C1183 C1180 1.403 . S
C1183 C1184 1.524 . S
C1183 C1187 1.400 . S
C1184 H1169 0.960 . S
C1184 H1170 0.960 . S
C1184 H1171 0.960 . S
C1184 C1183 1.524 . S
C1185 C1182 1.403 . S
C1185 C1186 1.392 . S
C1185 C1189 1.495 . S
C1186 C1185 1.392 . S
C1186 C1187 1.385 . S
C1186 C1188 1.478 . S
C1187 H1181 0.930 . S
C1187 C1183 1.400 . S
C1187 C1186 1.385 . S
C1188 C1186 1.478 . S
C1188 C1190 1.381 . S
C1188 C1194 1.383 . S
C1189 C1185 1.495 . S
C1189 H1195 0.959 . S
C1189 H1196 0.961 . S
C1189 H1197 0.960 . S
C1190 C1188 1.381 . S
C1190 C1191 1.394 . S
C1190 H1198 0.930 . S
C1191 C1190 1.394 . S
C1191 C1192 1.383 . S
C1191 H1199 0.929 . S
C1192 C1191 1.383 . S
C1192 C1193 1.377 . S
C1193 H1177 0.930 . S
C1193 C1192 1.377 . S
C1193 C1194 1.379 . S
C1194 H1178 0.931 . S
C1194 C1188 1.383 . S
C1194 C1193 1.379 . S
H1195 C1189 0.959 . S
H1196 C1189 0.961 . S
H1197 C1189 0.960 . S
H1198 C1190 0.930 . S
H1199 C1191 0.929 . S
H1200 C1208 0.929 . S
H1201 C1210 0.930 . S
H1202 C1212 0.930 . S
H1203 C1215 0.929 . S
H1204 C1218 0.930 . S
H1205 C1220 0.960 . S
H1206 C1220 0.960 . S
H1207 C1220 0.960 . S
C1208 H1200 0.929 . S
C1208 C1209 1.377 . S
C1208 C1210 1.384 . S
C1209 C1208 1.377 . S
C1209 C1215 1.390 . S
C1210 H1201 0.930 . S
C1210 C1208 1.384 . S
C1210 C1211 1.372 . S
C1211 C1210 1.372 . S
C1211 C1212 1.400 . S
C1211 C1216 1.490 . S
C1212 H1202 0.930 . S
C1212 C1211 1.400 . S
C1212 C1215 1.386 . S
H1213 C1229 0.930 . S
H1214 C1230 0.931 . S
C1215 H1203 0.929 . S
C1215 C1209 1.390 . S
C1215 C1212 1.386 . S
C1216 C1211 1.490 . S
C1216 C1218 1.395 . S
C1216 C1219 1.403 . S
H1217 C1223 0.930 . S
C1218 H1204 0.930 . S
C1218 C1216 1.395 . S
C1218 C1221 1.403 . S
C1219 C1216 1.403 . S
C1219 C1220 1.524 . S
C1219 C1223 1.400 . S
C1220 H1205 0.960 . S
C1220 H1206 0.960 . S
C1220 H1207 0.960 . S
C1220 C1219 1.524 . S
C1221 C1218 1.403 . S
C1221 C1222 1.392 . S
C1221 C1225 1.495 . S
C1222 C1221 1.392 . S
C1222 C1223 1.385 . S
C1222 C1224 1.478 . S
C1223 H1217 0.930 . S
C1223 C1219 1.400 . S
C1223 C1222 1.385 . S
C1224 C1222 1.478 . S
C1224 C1226 1.381 . S
C1224 C1230 1.383 . S
C1225 C1221 1.495 . S
C1225 H1231 0.959 . S
C1225 H1232 0.961 . S
C1225 H1233 0.960 . S
C1226 C1224 1.381 . S
C1226 C1227 1.394 . S
C1226 H1234 0.930 . S
C1227 C1226 1.394 . S
C1227 C1228 1.383 . S
C1227 H1235 0.929 . S
C1228 C1227 1.383 . S
C1228 C1229 1.377 . S
C1229 H1213 0.930 . S
C1229 C1228 1.377 . S
C1229 C1230 1.379 . S
C1230 H1214 0.931 . S
C1230 C1224 1.383 . S
C1230 C1229 1.379 . S
H1231 C1225 0.959 . S
H1232 C1225 0.961 . S
H1233 C1225 0.960 . S
H1234 C1226 0.930 . S
H1235 C1227 0.929 . S
H1236 C1244 0.929 . S
H1237 C1246 0.930 . S
H1238 C1248 0.930 . S
H1239 C1251 0.929 . S
H1240 C1254 0.930 . S
H1241 C1256 0.960 . S
H1242 C1256 0.960 . S
H1243 C1256 0.960 . S
C1244 H1236 0.929 . S
C1244 C1245 1.377 . S
C1244 C1246 1.384 . S
C1245 C1244 1.377 . S
C1245 C1251 1.390 . S
C1246 H1237 0.930 . S
C1246 C1244 1.384 . S
C1246 C1247 1.372 . S
C1247 C1246 1.372 . S
C1247 C1248 1.400 . S
C1247 C1252 1.490 . S
C1248 H1238 0.930 . S
C1248 C1247 1.400 . S
C1248 C1251 1.386 . S
H1249 C1265 0.930 . S
H1250 C1266 0.931 . S
C1251 H1239 0.929 . S
C1251 C1245 1.390 . S
C1251 C1248 1.386 . S
C1252 C1247 1.490 . S
C1252 C1254 1.395 . S
C1252 C1255 1.403 . S
H1253 C1259 0.930 . S
C1254 H1240 0.930 . S
C1254 C1252 1.395 . S
C1254 C1257 1.403 . S
C1255 C1252 1.403 . S
C1255 C1256 1.524 . S
C1255 C1259 1.400 . S
C1256 H1241 0.960 . S
C1256 H1242 0.960 . S
C1256 H1243 0.960 . S
C1256 C1255 1.524 . S
C1257 C1254 1.403 . S
C1257 C1258 1.392 . S
C1257 C1261 1.495 . S
C1258 C1257 1.392 . S
C1258 C1259 1.385 . S
C1258 C1260 1.478 . S
C1259 H1253 0.930 . S
C1259 C1255 1.400 . S
C1259 C1258 1.385 . S
C1260 C1258 1.478 . S
C1260 C1262 1.381 . S
C1260 C1266 1.383 . S
C1261 C1257 1.495 . S
C1261 H1267 0.959 . S
C1261 H1268 0.961 . S
C1261 H1269 0.960 . S
C1262 C1260 1.381 . S
C1262 C1263 1.394 . S
C1262 H1270 0.930 . S
C1263 C1262 1.394 . S
C1263 C1264 1.383 . S
C1263 H1271 0.929 . S
C1264 C1263 1.383 . S
C1264 C1265 1.377 . S
C1265 H1249 0.930 . S
C1265 C1264 1.377 . S
C1265 C1266 1.379 . S
C1266 H1250 0.931 . S
C1266 C1260 1.383 . S
C1266 C1265 1.379 . S
H1267 C1261 0.959 . S
H1268 C1261 0.961 . S
H1269 C1261 0.960 . S
H1270 C1262 0.930 . S
H1271 C1263 0.929 . S
H1272 C1280 0.929 . S
H1273 C1282 0.930 . S
H1274 C1284 0.930 . S
H1275 C1287 0.929 . S
H1276 C1290 0.930 . S
H1277 C1292 0.960 . S
H1278 C1292 0.960 . S
H1279 C1292 0.960 . S
C1280 H1272 0.929 . S
C1280 C1281 1.377 . S
C1280 C1282 1.384 . S
C1281 C1280 1.377 . S
C1281 C1287 1.390 . S
C1282 H1273 0.930 . S
C1282 C1280 1.384 . S
C1282 C1283 1.372 . S
C1283 C1282 1.372 . S
C1283 C1284 1.400 . S
C1283 C1288 1.490 . S
C1284 H1274 0.930 . S
C1284 C1283 1.400 . S
C1284 C1287 1.386 . S
H1285 C1301 0.930 . S
H1286 C1302 0.931 . S
C1287 H1275 0.929 . S
C1287 C1281 1.390 . S
C1287 C1284 1.386 . S
C1288 C1283 1.490 . S
C1288 C1290 1.395 . S
C1288 C1291 1.403 . S
H1289 C1295 0.930 . S
C1290 H1276 0.930 . S
C1290 C1288 1.395 . S
C1290 C1293 1.403 . S
C1291 C1288 1.403 . S
C1291 C1292 1.524 . S
C1291 C1295 1.400 . S
C1292 H1277 0.960 . S
C1292 H1278 0.960 . S
C1292 H1279 0.960 . S
C1292 C1291 1.524 . S
C1293 C1290 1.403 . S
C1293 C1294 1.392 . S
C1293 C1297 1.495 . S
C1294 C1293 1.392 . S
C1294 C1295 1.385 . S
C1294 C1296 1.478 . S
C1295 H1289 0.930 . S
C1295 C1291 1.400 . S
C1295 C1294 1.385 . S
C1296 C1294 1.478 . S
C1296 C1298 1.381 . S
C1296 C1302 1.383 . S
C1297 C1293 1.495 . S
C1297 H1303 0.959 . S
C1297 H1304 0.961 . S
C1297 H1305 0.960 . S
C1298 C1296 1.381 . S
C1298 C1299 1.394 . S
C1298 H1306 0.930 . S
C1299 C1298 1.394 . S
C1299 C1300 1.383 . S
C1299 H1307 0.929 . S
C1300 C1299 1.383 . S
C1300 C1301 1.377 . S
C1301 H1285 0.930 . S
C1301 C1300 1.377 . S
C1301 C1302 1.379 . S
C1302 H1286 0.931 . S
C1302 C1296 1.383 . S
C1302 C1301 1.379 . S
H1303 C1297 0.959 . S
H1304 C1297 0.961 . S
H1305 C1297 0.960 . S
H1306 C1298 0.930 . S
H1307 C1299 0.929 . S
H1308 C1316 0.929 1_545 S
H1309 C1318 0.930 . S
H1310 C1320 0.930 . S
H1311 C1323 0.929 . S
H1312 C1326 0.930 . S
H1313 C1328 0.960 . S
H1314 C1328 0.960 . S
H1315 C1328 0.960 . S
C1316 H1308 0.929 1_565 S
C1316 C1317 1.377 . S
C1316 C1318 1.384 . S
C1317 C1316 1.377 . S
C1317 C1323 1.390 . S
C1318 H1309 0.930 . S
C1318 C1316 1.384 . S
C1318 C1319 1.372 . S
C1319 C1318 1.372 . S
C1319 C1320 1.400 . S
C1319 C1324 1.490 . S
C1320 H1310 0.930 . S
C1320 C1319 1.400 . S
C1320 C1323 1.386 . S
H1321 C1337 0.930 . S
H1322 C1338 0.931 . S
C1323 H1311 0.929 . S
C1323 C1317 1.390 . S
C1323 C1320 1.386 . S
C1324 C1319 1.490 . S
C1324 C1326 1.395 . S
C1324 C1327 1.403 . S
H1325 C1331 0.930 . S
C1326 H1312 0.930 . S
C1326 C1324 1.395 . S
C1326 C1329 1.403 . S
C1327 C1324 1.403 . S
C1327 C1328 1.524 . S
C1327 C1331 1.400 . S
C1328 H1313 0.960 . S
C1328 H1314 0.960 . S
C1328 H1315 0.960 . S
C1328 C1327 1.524 . S
C1329 C1326 1.403 . S
C1329 C1330 1.392 . S
C1329 C1333 1.495 . S
C1330 C1329 1.392 . S
C1330 C1331 1.385 . S
C1330 C1332 1.478 . S
C1331 H1325 0.930 . S
C1331 C1327 1.400 . S
C1331 C1330 1.385 . S
C1332 C1330 1.478 . S
C1332 C1334 1.381 . S
C1332 C1338 1.383 . S
C1333 C1329 1.495 . S
C1333 H1339 0.959 . S
C1333 H1340 0.961 . S
C1333 H1341 0.960 . S
C1334 C1332 1.381 . S
C1334 C1335 1.394 . S
C1334 H1342 0.930 . S
C1335 C1334 1.394 . S
C1335 C1336 1.383 . S
C1335 H1343 0.929 . S
C1336 C1335 1.383 . S
C1336 C1337 1.377 . S
C1337 H1321 0.930 . S
C1337 C1336 1.377 . S
C1337 C1338 1.379 . S
C1338 H1322 0.931 . S
C1338 C1332 1.383 . S
C1338 C1337 1.379 . S
H1339 C1333 0.959 . S
H1340 C1333 0.961 . S
H1341 C1333 0.960 . S
H1342 C1334 0.930 . S
H1343 C1335 0.929 . S
H1344 C1352 0.929 . S
H1345 C1354 0.930 . S
H1346 C1356 0.930 . S
H1347 C1359 0.929 . S
H1348 C1362 0.930 . S
H1349 C1364 0.960 . S
H1350 C1364 0.960 . S
H1351 C1364 0.960 . S
C1352 H1344 0.929 . S
C1352 C1353 1.377 . S
C1352 C1354 1.384 . S
C1353 C1352 1.377 . S
C1353 C1359 1.390 . S
C1354 H1345 0.930 . S
C1354 C1352 1.384 . S
C1354 C1355 1.372 . S
C1355 C1354 1.372 . S
C1355 C1356 1.400 . S
C1355 C1360 1.490 . S
C1356 H1346 0.930 . S
C1356 C1355 1.400 . S
C1356 C1359 1.386 . S
H1357 C1373 0.930 . S
H1358 C1374 0.931 . S
C1359 H1347 0.929 . S
C1359 C1353 1.390 . S
C1359 C1356 1.386 . S
C1360 C1355 1.490 . S
C1360 C1362 1.395 . S
C1360 C1363 1.403 . S
H1361 C1367 0.930 . S
C1362 H1348 0.930 . S
C1362 C1360 1.395 . S
C1362 C1365 1.403 . S
C1363 C1360 1.403 . S
C1363 C1364 1.524 . S
C1363 C1367 1.400 . S
C1364 H1349 0.960 . S
C1364 H1350 0.960 . S
C1364 H1351 0.960 . S
C1364 C1363 1.524 . S
C1365 C1362 1.403 . S
C1365 C1366 1.392 . S
C1365 C1369 1.495 . S
C1366 C1365 1.392 . S
C1366 C1367 1.385 . S
C1366 C1368 1.478 . S
C1367 H1361 0.930 . S
C1367 C1363 1.400 . S
C1367 C1366 1.385 . S
C1368 C1366 1.478 . S
C1368 C1370 1.381 . S
C1368 C1374 1.383 . S
C1369 C1365 1.495 . S
C1369 H1375 0.959 . S
C1369 H1376 0.961 . S
C1369 H1377 0.960 . S
C1370 C1368 1.381 . S
C1370 C1371 1.394 . S
C1370 H1378 0.930 . S
C1371 C1370 1.394 . S
C1371 C1372 1.383 . S
C1371 H1379 0.929 . S
C1372 C1371 1.383 . S
C1372 C1373 1.377 . S
C1373 H1357 0.930 . S
C1373 C1372 1.377 . S
C1373 C1374 1.379 . S
C1374 H1358 0.931 . S
C1374 C1368 1.383 . S
C1374 C1373 1.379 . S
H1375 C1369 0.959 . S
H1376 C1369 0.961 . S
H1377 C1369 0.960 . S
H1378 C1370 0.930 . S
H1379 C1371 0.929 . S
H1380 C1388 0.929 . S
H1381 C1390 0.930 . S
H1382 C1392 0.930 . S
H1383 C1395 0.929 . S
H1384 C1398 0.930 . S
H1385 C1400 0.960 . S
H1386 C1400 0.960 . S
H1387 C1400 0.960 . S
C1388 H1380 0.929 . S
C1388 C1389 1.377 . S
C1388 C1390 1.384 . S
C1389 C1388 1.377 . S
C1389 C1395 1.390 . S
C1390 H1381 0.930 . S
C1390 C1388 1.384 . S
C1390 C1391 1.372 . S
C1391 C1390 1.372 . S
C1391 C1392 1.400 . S
C1391 C1396 1.490 . S
C1392 H1382 0.930 . S
C1392 C1391 1.400 . S
C1392 C1395 1.386 . S
H1393 C1409 0.930 . S
H1394 C1410 0.931 . S
C1395 H1383 0.929 . S
C1395 C1389 1.390 . S
C1395 C1392 1.386 . S
C1396 C1391 1.490 . S
C1396 C1398 1.395 . S
C1396 C1399 1.403 . S
H1397 C1403 0.930 . S
C1398 H1384 0.930 . S
C1398 C1396 1.395 . S
C1398 C1401 1.403 . S
C1399 C1396 1.403 . S
C1399 C1400 1.524 . S
C1399 C1403 1.400 . S
C1400 H1385 0.960 . S
C1400 H1386 0.960 . S
C1400 H1387 0.960 . S
C1400 C1399 1.524 . S
C1401 C1398 1.403 . S
C1401 C1402 1.392 . S
C1401 C1405 1.495 . S
C1402 C1401 1.392 . S
C1402 C1403 1.385 . S
C1402 C1404 1.478 . S
C1403 H1397 0.930 . S
C1403 C1399 1.400 . S
C1403 C1402 1.385 . S
C1404 C1402 1.478 . S
C1404 C1406 1.381 . S
C1404 C1410 1.383 . S
C1405 C1401 1.495 . S
C1405 H1411 0.959 . S
C1405 H1412 0.961 . S
C1405 H1413 0.960 . S
C1406 C1404 1.381 . S
C1406 C1407 1.394 . S
C1406 H1414 0.930 . S
C1407 C1406 1.394 . S
C1407 C1408 1.383 . S
C1407 H1415 0.929 . S
C1408 C1407 1.383 . S
C1408 C1409 1.377 . S
C1409 H1393 0.930 . S
C1409 C1408 1.377 . S
C1409 C1410 1.379 . S
C1410 H1394 0.931 . S
C1410 C1404 1.383 . S
C1410 C1409 1.379 . S
H1411 C1405 0.959 . S
H1412 C1405 0.961 . S
H1413 C1405 0.960 . S
H1414 C1406 0.930 . S
H1415 C1407 0.929 . S
H1416 C1424 0.929 . S
H1417 C1426 0.930 . S
H1418 C1428 0.930 . S
H1419 C1431 0.929 . S
H1420 C1434 0.930 . S
H1421 C1436 0.960 . S
H1422 C1436 0.960 . S
H1423 C1436 0.960 . S
C1424 H1416 0.929 . S
C1424 C1425 1.377 . S
C1424 C1426 1.384 . S
C1425 C1424 1.377 . S
C1425 C1431 1.390 . S
C1426 H1417 0.930 . S
C1426 C1424 1.384 . S
C1426 C1427 1.372 . S
C1427 C1426 1.372 . S
C1427 C1428 1.400 . S
C1427 C1432 1.490 . S
C1428 H1418 0.930 . S
C1428 C1427 1.400 . S
C1428 C1431 1.386 . S
H1429 C1445 0.930 . S
H1430 C1446 0.931 . S
C1431 H1419 0.929 . S
C1431 C1425 1.390 . S
C1431 C1428 1.386 . S
C1432 C1427 1.490 . S
C1432 C1434 1.395 . S
C1432 C1435 1.403 . S
H1433 C1439 0.930 . S
C1434 H1420 0.930 . S
C1434 C1432 1.395 . S
C1434 C1437 1.403 . S
C1435 C1432 1.403 . S
C1435 C1436 1.524 . S
C1435 C1439 1.400 . S
C1436 H1421 0.960 . S
C1436 H1422 0.960 . S
C1436 H1423 0.960 . S
C1436 C1435 1.524 . S
C1437 C1434 1.403 . S
C1437 C1438 1.392 . S
C1437 C1441 1.495 . S
C1438 C1437 1.392 . S
C1438 C1439 1.385 . S
C1438 C1440 1.478 . S
C1439 H1433 0.930 . S
C1439 C1435 1.400 . S
C1439 C1438 1.385 . S
C1440 C1438 1.478 . S
C1440 C1442 1.381 . S
C1440 C1446 1.383 . S
C1441 C1437 1.495 . S
C1441 H1447 0.959 . S
C1441 H1448 0.961 . S
C1441 H1449 0.960 . S
C1442 C1440 1.381 . S
C1442 C1443 1.394 . S
C1442 H1450 0.930 . S
C1443 C1442 1.394 . S
C1443 C1444 1.383 . S
C1443 H1451 0.929 . S
C1444 C1443 1.383 . S
C1444 C1445 1.377 . S
C1445 H1429 0.930 . S
C1445 C1444 1.377 . S
C1445 C1446 1.379 . S
C1446 H1430 0.931 . S
C1446 C1440 1.383 . S
C1446 C1445 1.379 . S
H1447 C1441 0.959 . S
H1448 C1441 0.961 . S
H1449 C1441 0.960 . S
H1450 C1442 0.930 . S
H1451 C1443 0.929 . S
H1452 C1460 0.929 . S
H1453 C1462 0.930 . S
H1454 C1464 0.930 . S
H1455 C1467 0.929 . S
H1456 C1470 0.930 . S
H1457 C1472 0.960 . S
H1458 C1472 0.960 . S
H1459 C1472 0.960 . S
C1460 H1452 0.929 . S
C1460 C1461 1.377 . S
C1460 C1462 1.384 . S
C1461 C1460 1.377 . S
C1461 C1467 1.390 . S
C1462 H1453 0.930 . S
C1462 C1460 1.384 . S
C1462 C1463 1.372 . S
C1463 C1462 1.372 . S
C1463 C1464 1.400 . S
C1463 C1468 1.490 . S
C1464 H1454 0.930 . S
C1464 C1463 1.400 . S
C1464 C1467 1.386 . S
H1465 C1481 0.930 . S
H1466 C1482 0.931 . S
C1467 H1455 0.929 . S
C1467 C1461 1.390 . S
C1467 C1464 1.386 . S
C1468 C1463 1.490 . S
C1468 C1470 1.395 . S
C1468 C1471 1.403 . S
H1469 C1475 0.930 . S
C1470 H1456 0.930 . S
C1470 C1468 1.395 . S
C1470 C1473 1.403 . S
C1471 C1468 1.403 . S
C1471 C1472 1.524 . S
C1471 C1475 1.400 . S
C1472 H1457 0.960 . S
C1472 H1458 0.960 . S
C1472 H1459 0.960 . S
C1472 C1471 1.524 . S
C1473 C1470 1.403 . S
C1473 C1474 1.392 . S
C1473 C1477 1.495 . S
C1474 C1473 1.392 . S
C1474 C1475 1.385 . S
C1474 C1476 1.478 . S
C1475 H1469 0.930 . S
C1475 C1471 1.400 . S
C1475 C1474 1.385 . S
C1476 C1474 1.478 . S
C1476 C1478 1.381 . S
C1476 C1482 1.383 . S
C1477 C1473 1.495 . S
C1477 H1483 0.959 . S
C1477 H1484 0.961 . S
C1477 H1485 0.960 . S
C1478 C1476 1.381 . S
C1478 C1479 1.394 . S
C1478 H1486 0.930 . S
C1479 C1478 1.394 . S
C1479 C1480 1.383 . S
C1479 H1487 0.929 . S
C1480 C1479 1.383 . S
C1480 C1481 1.377 . S
C1481 H1465 0.930 . S
C1481 C1480 1.377 . S
C1481 C1482 1.379 . S
C1482 H1466 0.931 . S
C1482 C1476 1.383 . S
C1482 C1481 1.379 . S
H1483 C1477 0.959 . S
H1484 C1477 0.961 . S
H1485 C1477 0.960 . S
H1486 C1478 0.930 . S
H1487 C1479 0.929 . S
H1488 C1496 0.929 . S
H1489 C1498 0.930 . S
H1490 C1500 0.930 . S
H1491 C1503 0.929 . S
H1492 C1506 0.930 . S
H1493 C1508 0.960 . S
H1494 C1508 0.960 . S
H1495 C1508 0.960 . S
C1496 H1488 0.929 . S
C1496 C1497 1.377 . S
C1496 C1498 1.384 . S
C1497 C1496 1.377 . S
C1497 C1503 1.390 . S
C1498 H1489 0.930 . S
C1498 C1496 1.384 . S
C1498 C1499 1.372 . S
C1499 C1498 1.372 . S
C1499 C1500 1.400 . S
C1499 C1504 1.490 . S
C1500 H1490 0.930 . S
C1500 C1499 1.400 . S
C1500 C1503 1.386 . S
H1501 C1517 0.930 . S
H1502 C1518 0.931 . S
C1503 H1491 0.929 . S
C1503 C1497 1.390 . S
C1503 C1500 1.386 . S
C1504 C1499 1.490 . S
C1504 C1506 1.395 . S
C1504 C1507 1.403 . S
H1505 C1511 0.930 . S
C1506 H1492 0.930 . S
C1506 C1504 1.395 . S
C1506 C1509 1.403 . S
C1507 C1504 1.403 . S
C1507 C1508 1.524 . S
C1507 C1511 1.400 . S
C1508 H1493 0.960 . S
C1508 H1494 0.960 . S
C1508 H1495 0.960 . S
C1508 C1507 1.524 . S
C1509 C1506 1.403 . S
C1509 C1510 1.392 . S
C1509 C1513 1.495 . S
C1510 C1509 1.392 . S
C1510 C1511 1.385 . S
C1510 C1512 1.478 . S
C1511 H1505 0.930 . S
C1511 C1507 1.400 . S
C1511 C1510 1.385 . S
C1512 C1510 1.478 . S
C1512 C1514 1.381 . S
C1512 C1518 1.383 . S
C1513 C1509 1.495 . S
C1513 H1519 0.959 . S
C1513 H1520 0.961 . S
C1513 H1521 0.960 . S
C1514 C1512 1.381 . S
C1514 C1515 1.394 . S
C1514 H1522 0.930 . S
C1515 C1514 1.394 . S
C1515 C1516 1.383 . S
C1515 H1523 0.929 . S
C1516 C1515 1.383 . S
C1516 C1517 1.377 . S
C1517 H1501 0.930 . S
C1517 C1516 1.377 . S
C1517 C1518 1.379 . S
C1518 H1502 0.931 . S
C1518 C1512 1.383 . S
C1518 C1517 1.379 . S
H1519 C1513 0.959 . S
H1520 C1513 0.961 . S
H1521 C1513 0.960 . S
H1522 C1514 0.930 . S
H1523 C1515 0.929 . S
H1524 C1532 0.929 . S
H1525 C1534 0.930 . S
H1526 C1536 0.930 . S
H1527 C1539 0.929 . S
H1528 C1542 0.930 . S
H1529 C1544 0.960 . S
H1530 C1544 0.960 . S
H1531 C1544 0.960 . S
C1532 H1524 0.929 . S
C1532 C1533 1.377 . S
C1532 C1534 1.384 . S
C1533 C1532 1.377 . S
C1533 C1539 1.390 . S
C1534 H1525 0.930 . S
C1534 C1532 1.384 . S
C1534 C1535 1.372 . S
C1535 C1534 1.372 . S
C1535 C1536 1.400 . S
C1535 C1540 1.490 . S
C1536 H1526 0.930 . S
C1536 C1535 1.400 . S
C1536 C1539 1.386 . S
H1537 C1553 0.930 . S
H1538 C1554 0.931 . S
C1539 H1527 0.929 . S
C1539 C1533 1.390 . S
C1539 C1536 1.386 . S
C1540 C1535 1.490 . S
C1540 C1542 1.395 . S
C1540 C1543 1.403 . S
H1541 C1547 0.930 . S
C1542 H1528 0.930 . S
C1542 C1540 1.395 . S
C1542 C1545 1.403 . S
C1543 C1540 1.403 . S
C1543 C1544 1.524 . S
C1543 C1547 1.400 . S
C1544 H1529 0.960 . S
C1544 H1530 0.960 . S
C1544 H1531 0.960 . S
C1544 C1543 1.524 . S
C1545 C1542 1.403 . S
C1545 C1546 1.392 . S
C1545 C1549 1.495 . S
C1546 C1545 1.392 . S
C1546 C1547 1.385 . S
C1546 C1548 1.478 . S
C1547 H1541 0.930 . S
C1547 C1543 1.400 . S
C1547 C1546 1.385 . S
C1548 C1546 1.478 . S
C1548 C1550 1.381 . S
C1548 C1554 1.383 . S
C1549 C1545 1.495 . S
C1549 H1555 0.959 . S
C1549 H1556 0.961 . S
C1549 H1557 0.960 . S
C1550 C1548 1.381 . S
C1550 C1551 1.394 . S
C1550 H1558 0.930 . S
C1551 C1550 1.394 . S
C1551 C1552 1.383 . S
C1551 H1559 0.929 . S
C1552 C1551 1.383 . S
C1552 C1553 1.377 . S
C1553 H1537 0.930 . S
C1553 C1552 1.377 . S
C1553 C1554 1.379 . S
C1554 H1538 0.931 . S
C1554 C1548 1.383 . S
C1554 C1553 1.379 . S
H1555 C1549 0.959 . S
H1556 C1549 0.961 . S
H1557 C1549 0.960 . S
H1558 C1550 0.930 . S
H1559 C1551 0.929 . S
H1560 C1568 0.929 . S
H1561 C1570 0.930 . S
H1562 C1572 0.930 . S
H1563 C1575 0.929 . S
H1564 C1578 0.930 . S
H1565 C1580 0.960 . S
H1566 C1580 0.960 . S
H1567 C1580 0.960 . S
C1568 H1560 0.929 . S
C1568 C1569 1.377 . S
C1568 C1570 1.384 . S
C1569 C1568 1.377 . S
C1569 C1575 1.390 . S
C1570 H1561 0.930 . S
C1570 C1568 1.384 . S
C1570 C1571 1.372 . S
C1571 C1570 1.372 . S
C1571 C1572 1.400 . S
C1571 C1576 1.490 . S
C1572 H1562 0.930 . S
C1572 C1571 1.400 . S
C1572 C1575 1.386 . S
H1573 C1589 0.930 . S
H1574 C1590 0.931 . S
C1575 H1563 0.929 . S
C1575 C1569 1.390 . S
C1575 C1572 1.386 . S
C1576 C1571 1.490 . S
C1576 C1578 1.395 . S
C1576 C1579 1.403 . S
H1577 C1583 0.930 . S
C1578 H1564 0.930 . S
C1578 C1576 1.395 . S
C1578 C1581 1.403 . S
C1579 C1576 1.403 . S
C1579 C1580 1.524 . S
C1579 C1583 1.400 . S
C1580 H1565 0.960 . S
C1580 H1566 0.960 . S
C1580 H1567 0.960 . S
C1580 C1579 1.524 . S
C1581 C1578 1.403 . S
C1581 C1582 1.392 . S
C1581 C1585 1.495 . S
C1582 C1581 1.392 . S
C1582 C1583 1.385 . S
C1582 C1584 1.478 . S
C1583 H1577 0.930 . S
C1583 C1579 1.400 . S
C1583 C1582 1.385 . S
C1584 C1582 1.478 . S
C1584 C1586 1.381 . S
C1584 C1590 1.383 . S
C1585 C1581 1.495 . S
C1585 H1591 0.959 . S
C1585 H1592 0.961 . S
C1585 H1593 0.960 . S
C1586 C1584 1.381 . S
C1586 C1587 1.394 . S
C1586 H1594 0.930 . S
C1587 C1586 1.394 . S
C1587 C1588 1.383 . S
C1587 H1595 0.929 . S
C1588 C1587 1.383 . S
C1588 C1589 1.377 . S
C1589 H1573 0.930 . S
C1589 C1588 1.377 . S
C1589 C1590 1.379 . S
C1590 H1574 0.931 . S
C1590 C1584 1.383 . S
C1590 C1589 1.379 . S
H1591 C1585 0.959 . S
H1592 C1585 0.961 . S
H1593 C1585 0.960 . S
H1594 C1586 0.930 . S
H1595 C1587 0.929 . S
H1596 C1604 0.929 . S
H1597 C1606 0.930 . S
H1598 C1608 0.930 . S
H1599 C1611 0.929 . S
H1600 C1614 0.930 . S
H1601 C1616 0.960 . S
H1602 C1616 0.960 . S
H1603 C1616 0.960 . S
C1604 H1596 0.929 . S
C1604 C1605 1.377 . S
C1604 C1606 1.384 . S
C1605 C1604 1.377 . S
C1605 C1611 1.390 . S
C1606 H1597 0.930 . S
C1606 C1604 1.384 . S
C1606 C1607 1.372 . S
C1607 C1606 1.372 . S
C1607 C1608 1.400 . S
C1607 C1612 1.490 . S
C1608 H1598 0.930 . S
C1608 C1607 1.400 . S
C1608 C1611 1.386 . S
H1609 C1625 0.930 . S
H1610 C1626 0.931 . S
C1611 H1599 0.929 . S
C1611 C1605 1.390 . S
C1611 C1608 1.386 . S
C1612 C1607 1.490 . S
C1612 C1614 1.395 . S
C1612 C1615 1.403 . S
H1613 C1619 0.930 . S
C1614 H1600 0.930 . S
C1614 C1612 1.395 . S
C1614 C1617 1.403 . S
C1615 C1612 1.403 . S
C1615 C1616 1.524 . S
C1615 C1619 1.400 . S
C1616 H1601 0.960 . S
C1616 H1602 0.960 . S
C1616 H1603 0.960 . S
C1616 C1615 1.524 . S
C1617 C1614 1.403 . S
C1617 C1618 1.392 . S
C1617 C1621 1.495 . S
C1618 C1617 1.392 . S
C1618 C1619 1.385 . S
C1618 C1620 1.478 . S
C1619 H1613 0.930 . S
C1619 C1615 1.400 . S
C1619 C1618 1.385 . S
C1620 C1618 1.478 . S
C1620 C1622 1.381 . S
C1620 C1626 1.383 . S
C1621 C1617 1.495 . S
C1621 H1627 0.959 . S
C1621 H1628 0.961 . S
C1621 H1629 0.960 . S
C1622 C1620 1.381 . S
C1622 C1623 1.394 . S
C1622 H1630 0.930 . S
C1623 C1622 1.394 . S
C1623 C1624 1.383 . S
C1623 H1631 0.929 . S
C1624 C1623 1.383 . S
C1624 C1625 1.377 . S
C1625 H1609 0.930 . S
C1625 C1624 1.377 . S
C1625 C1626 1.379 . S
C1626 H1610 0.931 . S
C1626 C1620 1.383 . S
C1626 C1625 1.379 . S
H1627 C1621 0.959 . S
H1628 C1621 0.961 . S
H1629 C1621 0.960 . S
H1630 C1622 0.930 . S
H1631 C1623 0.929 . S
C508 C393 1.212 . S
C489 C8 1.182 . S
C544 C407 1.217 . S
C525 C61 1.213 . S
C580 C415 1.292 . S
C561 C107 1.257 . S
C597 C139 1.220 . S
C616 C373 1.226 . S
C633 C192 1.121 . S
C652 C379 1.155 . S
C669 C238 1.117 . S
C688 C387 1.139 . S
C724 C401 1.263 . S
C705 C284 1.258 . S
C760 C421 1.241 . S
C741 C330 1.219 . S
C777 C100 1.133 . S
C796 C449 1.162 . S
C832 C463 1.259 . S
C813 C160 1.242 . S
C849 C15 1.135 . S
C868 C471 1.135 . S
C904 C435 1.101 . S
C885 C54 1.069 . S
C921 C291 1.223 . S
C940 C429 1.254 . S
C957 C337 1.270 . S
C976 C443 1.262 . S
C1012 C457 1.273 . S
C993 C199 1.252 . S
C1029 C245 1.242 . S
C1048 C477 1.276 . S
C1084 C396 1.644 . S
C1065 C1 1.704 . S
C1120 C419 1.695 . S
C1101 C68 1.688 . S
C1137 C114 1.703 . S
C1156 C377 1.700 . S
C1173 C146 1.734 . S
C1192 C382 1.708 . S
C1209 C185 1.620 . S
C1228 C410 1.588 . S
C1264 C368 1.549 . S
C1245 C231 1.627 . S
C1300 C391 1.605 . S
C1281 C277 1.633 . S
C1336 C405 1.632 . S
C1317 C323 1.639 . S
C1372 C452 1.571 . S
C1353 C93 1.624 . S
C1408 C475 1.625 . S
C1389 C153 1.627 . S
C1425 C22 1.607 . S
C1444 C424 1.539 . S
C1480 C438 1.533 . S
C1461 C47 1.604 . S
C1516 C466 1.711 . S
C1497 C298 1.729 . S
C1533 C344 1.726 . S
C1552 C433 1.736 . S
C1588 C447 1.722 . S
C1569 C206 1.711 . S
C1624 C461 1.693 . S
C1605 C252 1.699 . S
