# Generated by pormake.
# Topology zzz, (3,6)-cn, num edge types: 1
# Building blocks:
#     Node 0, Type 0, BuildingBlock: PAMTOO_clean_linker_0, # of connection points: 3
#     Node 1, Type 0, BuildingBlock: PAMTOO_clean_linker_0, # of connection points: 3
#     Node 2, Type 0, BuildingBlock: PAMTOO_clean_linker_0, # of connection points: 3
#     Node 3, Type 0, BuildingBlock: PAMTOO_clean_linker_0, # of connection points: 3
#     Node 4, Type 0, BuildingBlock: PAMTOO_clean_linker_0, # of connection points: 3
#     Node 5, Type 0, BuildingBlock: PAMTOO_clean_linker_0, # of connection points: 3
#     Node 6, Type 0, BuildingBlock: PAMTOO_clean_linker_0, # of connection points: 3
#     Node 7, Type 0, BuildingBlock: PAMTOO_clean_linker_0, # of connection points: 3
#     Node 8, Type 1, BuildingBlock: KUMBOL_clean_sbu_1, # of connection points: 6
#     Node 9, Type 1, BuildingBlock: KUMBOL_clean_sbu_1, # of connection points: 6
#     Node 10, Type 1, BuildingBlock: KUMBOL_clean_sbu_1, # of connection points: 6
#     Node 11, Type 1, BuildingBlock: KUMBOL_clean_sbu_1, # of connection points: 6
#     Edge 12, Type (0, 1), BuildingBlock: MIFKUJ_clean_linker_0, # of connection points: 2
#     Edge 13, Type (0, 1), BuildingBlock: MIFKUJ_clean_linker_0, # of connection points: 2
#     Edge 14, Type (0, 1), BuildingBlock: MIFKUJ_clean_linker_0, # of connection points: 2
#     Edge 15, Type (0, 1), BuildingBlock: MIFKUJ_clean_linker_0, # of connection points: 2
#     Edge 16, Type (0, 1), BuildingBlock: MIFKUJ_clean_linker_0, # of connection points: 2
#     Edge 17, Type (0, 1), BuildingBlock: MIFKUJ_clean_linker_0, # of connection points: 2
#     Edge 18, Type (0, 1), BuildingBlock: MIFKUJ_clean_linker_0, # of connection points: 2
#     Edge 19, Type (0, 1), BuildingBlock: MIFKUJ_clean_linker_0, # of connection points: 2
#     Edge 20, Type (0, 1), BuildingBlock: MIFKUJ_clean_linker_0, # of connection points: 2
#     Edge 21, Type (0, 1), BuildingBlock: MIFKUJ_clean_linker_0, # of connection points: 2
#     Edge 22, Type (0, 1), BuildingBlock: MIFKUJ_clean_linker_0, # of connection points: 2
#     Edge 23, Type (0, 1), BuildingBlock: MIFKUJ_clean_linker_0, # of connection points: 2
#     Edge 24, Type (0, 1), BuildingBlock: MIFKUJ_clean_linker_0, # of connection points: 2
#     Edge 25, Type (0, 1), BuildingBlock: MIFKUJ_clean_linker_0, # of connection points: 2
#     Edge 26, Type (0, 1), BuildingBlock: MIFKUJ_clean_linker_0, # of connection points: 2
#     Edge 27, Type (0, 1), BuildingBlock: MIFKUJ_clean_linker_0, # of connection points: 2
#     Edge 28, Type (0, 1), BuildingBlock: MIFKUJ_clean_linker_0, # of connection points: 2
#     Edge 29, Type (0, 1), BuildingBlock: MIFKUJ_clean_linker_0, # of connection points: 2
#     Edge 30, Type (0, 1), BuildingBlock: MIFKUJ_clean_linker_0, # of connection points: 2
#     Edge 31, Type (0, 1), BuildingBlock: MIFKUJ_clean_linker_0, # of connection points: 2
#     Edge 32, Type (0, 1), BuildingBlock: MIFKUJ_clean_linker_0, # of connection points: 2
#     Edge 33, Type (0, 1), BuildingBlock: MIFKUJ_clean_linker_0, # of connection points: 2
#     Edge 34, Type (0, 1), BuildingBlock: MIFKUJ_clean_linker_0, # of connection points: 2
#     Edge 35, Type (0, 1), BuildingBlock: MIFKUJ_clean_linker_0, # of connection points: 2
# Relax obj value: 0.145
# Max RMSD: 0.092
# Mean RMSD: 0.075
data_MOF--net-zzz--node1-KUMBOL_clean_sbu_1--node2-PAMTOO_clean_linker_0--edge1-MIFKUJ_clean_linker_0
_symmetry_space_group_name_H-M    P1
_symmetry_Int_Tables_number       1
_symmetry_cell_setting            triclinic
loop_
_symmetry_equiv_pos_as_xyz
'x, y, z'
_cell_length_a     64.640439
_cell_length_b     64.840527
_cell_length_c     20.458634
_cell_angle_alpha  89.843287
_cell_angle_beta   90.263841
_cell_angle_gamma 90.478958
loop_
_atom_site_label
_atom_site_type_symbol
_atom_site_fract_x
_atom_site_fract_y
_atom_site_fract_z
_atom_type_partial_charge
H0 H 0.81326 0.57546 0.21596 0.0
H1 H 0.75448 0.57182 0.11745 0.0
H2 H 0.76481 0.53662 0.29324 0.0
H3 H 0.72815 0.51667 0.18708 0.0
C4 C 0.7316 0.53063 0.15734 0.0
O5 O 0.73731 0.54654 0.19927 0.0
H6 H 0.74467 0.52643 0.12474 0.0
C7 C 0.79737 0.56993 0.21442 0.0
C8 C 0.7906 0.55601 0.2625 0.0
C9 C 0.78467 0.57542 0.16151 0.0
C10 C 0.7644 0.5677 0.15823 0.0
C11 C 0.75708 0.55376 0.20518 0.0
C12 C 0.77032 0.54759 0.25718 0.0
H13 H 0.99075 0.8176 0.15055 0.0
H14 H 0.9958 0.75508 0.08526 0.0
H15 H 1.00924 0.7699 0.28613 0.0
H16 H 0.03047 0.72165 0.22391 0.0
C17 C 0.02414 0.72929 0.17959 0.0
O18 O 1.00613 0.73952 0.19686 0.0
H19 H 0.03613 0.74057 0.16307 0.0
C20 C 0.9937 0.80155 0.16198 0.0
C21 C 0.99971 0.79589 0.22581 0.0
C22 C 0.99244 0.78701 0.11146 0.0
C23 C 0.99685 0.76635 0.12423 0.0
C24 C 1.00293 0.76002 0.1866 0.0
C25 C 1.00466 0.77484 0.23764 0.0
H26 H 0.73008 1.00213 0.20201 0.0
H27 H 0.78877 0.99508 0.10705 0.0
H28 H 0.78651 1.01029 0.31199 0.0
H29 H 0.83203 0.02504 0.23837 0.0
C30 C 0.82353 0.02004 0.19379 0.0
O31 O 0.81132 1.00301 0.20966 0.0
H32 H 0.81364 0.03325 0.1787 0.0
C33 C 0.74687 1.00261 0.20421 0.0
C34 C 0.75667 1.00678 0.26386 0.0
C35 C 0.75827 0.99838 0.14784 0.0
C36 C 0.7799 0.99846 0.15051 0.0
C37 C 0.79025 1.00315 0.20898 0.0
C38 C 0.7786 1.00714 0.2663 0.0
H39 H 0.51292 0.73195 0.22605 0.0
H40 H 0.51931 0.78768 0.11372 0.0
H41 H 0.55394 0.78004 0.29276 0.0
H42 H 0.54168 0.8299 0.25183 0.0
C43 C 0.53577 0.82402 0.20423 0.0
O44 O 0.54569 0.80552 0.19119 0.0
H45 H 0.5188 0.82148 0.20957 0.0
C46 C 0.51917 0.74743 0.22067 0.0
C47 C 0.53358 0.75445 0.26663 0.0
C48 C 0.51399 0.75913 0.16552 0.0
C49 C 0.52296 0.77867 0.15688 0.0
C50 C 0.53696 0.78664 0.203 0.0
C51 C 0.54256 0.77435 0.25811 0.0
H52 H 0.22812 0.48298 0.10437 0.0
H53 H 0.28695 0.4921 0.19798 0.0
H54 H 0.27557 0.51856 0.00799 0.0
H55 H 0.32838 0.5122 0.04933 0.0
C56 C 0.32119 0.50461 0.09241 0.0
O57 O 0.3029 0.51475 0.10672 0.0
H58 H 0.31789 0.48833 0.07811 0.0
C59 C 0.24389 0.48869 0.10221 0.0
C60 C 0.2501 0.50043 0.04789 0.0
C61 C 0.25692 0.48547 0.1562 0.0
C62 C 0.27685 0.49408 0.15605 0.0
C63 C 0.28378 0.50579 0.10281 0.0
C64 C 0.27034 0.50916 0.04859 0.0
H65 H 0.06802 0.23511 0.11063 0.0
H66 H 0.06138 0.29652 0.18439 0.0
H67 H 0.03319 0.2799 1.00062 0.0
H68 H 0.01695 0.30449 0.16012 0.0
C69 C 0.02193 0.31663 0.12479 0.0
O70 O 0.03904 0.31021 0.08932 0.0
H71 H 1.00892 0.31888 0.08987 0.0
C72 C 0.06264 0.25076 0.10366 0.0
C73 C 0.05101 0.2556 0.0475 0.0
C74 C 0.0663 0.26526 0.15316 0.0
C75 C 0.05865 0.28524 0.14626 0.0
C76 C 0.04653 0.29063 0.09227 0.0
C77 C 0.04248 0.27573 0.04268 0.0
H78 H 0.3208 0.06083 0.08706 0.0
H79 H 0.26693 0.0555 0.20851 0.0
H80 H 0.26994 0.02187 0.02736 0.0
H81 H 0.22184 0.03221 0.07041 0.0
C82 C 0.22815 0.03993 0.11469 0.0
O83 O 0.24661 0.03044 0.13188 0.0
H84 H 0.23103 0.05642 0.10182 0.0
C85 C 0.30519 0.05501 0.09467 0.0
C86 C 0.29671 0.0411 0.04958 0.0
C87 C 0.29468 0.06019 0.15196 0.0
C88 C 0.27494 0.0519 0.16361 0.0
C89 C 0.26562 0.03856 0.11814 0.0
C90 C 0.27669 0.03285 0.06124 0.0
H91 H 0.47653 0.30736 0.0808 0.0
H92 H 0.49038 0.25155 0.18247 0.0
H93 H 0.51806 0.26334 0.99464 0.0
H94 H 0.51578 0.21029 0.04432 0.0
C95 C 0.50702 0.21759 0.08455 0.0
O96 O 0.51553 0.23702 0.09631 0.0
H97 H 0.49075 0.21896 0.06689 0.0
C98 C 0.48401 0.29251 0.08038 0.0
C99 C 0.49715 0.28722 0.02847 0.0
C100 C 0.48126 0.27971 0.13489 0.0
C101 C 0.49199 0.26118 0.13936 0.0
C102 C 0.50497 0.25498 0.08873 0.0
C103 C 0.50769 0.26803 0.03313 0.0
C104 C 0.06514 0.04356 0.815 0.0
C105 C 0.04403 0.04632 0.91227 0.0
C106 C 0.0474 0.03808 0.84942 0.0
C107 C 0.05815 0.06069 0.9385 0.0
C108 C 0.07972 0.05743 0.84223 0.0
C109 C 0.07598 0.06617 0.9037 0.0
N110 N 0.06808 0.03544 0.75458 0.0
C111 C 0.08553 0.03993 0.71968 0.0
C112 C 0.09753 0.06232 0.80642 0.0
C113 C 0.10047 0.05348 0.74496 0.0
Gd114 Gd 1.00426 0.03654 0.58955 0.0
Gd115 Gd 0.04288 1.01187 0.71845 0.0
N116 N 0.03407 0.02393 0.82321 0.0
C117 C 0.02698 0.03927 0.94807 0.0
C118 C 0.01889 1.01542 0.8611 0.0
C119 C 1.01462 0.02342 0.92291 0.0
H120 H 1.01047 1.00196 0.8452 0.0
H121 H 1.00216 0.01695 0.95182 0.0
H122 H 0.02867 0.01778 0.45815 0.0
H123 H 0.08788 0.03301 0.67234 0.0
H124 H 0.01997 0.99802 0.35886 0.0
H125 H 0.02385 0.04522 0.99644 0.0
H126 H 0.05568 0.06728 0.98642 0.0
H127 H 0.95903 0.04797 0.65916 0.0
H128 H 0.10906 0.07293 0.82565 0.0
H129 H 0.1142 0.05713 0.71703 0.0
H130 H 0.94685 0.98564 0.37537 0.0
H131 H 0.08686 0.07706 0.925 0.0
H132 H 0.91091 0.01641 0.55432 0.0
H133 H 0.92212 0.03891 0.64586 0.0
N134 N 0.96875 0.02966 0.57933 0.0
C135 C 0.96288 0.01801 0.52729 0.0
C136 C 0.95438 0.0375 0.62084 0.0
C137 C 0.92717 0.02004 0.56087 0.0
C138 C 0.93342 0.03265 0.6127 0.0
C139 C 0.94192 1.01278 0.5168 0.0
H140 H 0.92029 0.99655 0.45357 0.0
N141 N 0.9979 0.01733 0.49442 0.0
C142 C 0.97782 1.01196 0.48293 0.0
C143 C 0.9876 0.99529 0.38241 0.0
C144 C 0.97218 1.00051 0.42708 0.0
C145 C 1.0129 1.01286 0.45004 0.0
C146 C 1.00801 1.00165 0.39369 0.0
O147 O 0.04316 0.04677 0.69767 0.0
O148 O 1.00901 0.05311 0.68548 0.0
O149 O 0.01814 0.06356 0.54409 0.0
O150 O 0.9848 0.05968 0.54429 0.0
O151 O 1.0083 1.00382 0.72856 0.0
O152 O 0.99308 0.03365 0.69369 0.0
O153 O 1.00561 1.00138 0.58323 0.0
O154 O 0.03571 0.99035 0.63398 0.0
O155 O 0.04523 0.98425 0.77863 0.0
O156 O 0.07261 0.99762 0.73603 0.0
O157 O 0.03833 0.03697 0.55949 0.0
O158 O 0.05677 1.01252 0.61822 0.0
C159 C 0.02736 0.0592 0.70522 0.0
C160 C 0.99254 0.01666 0.72879 0.0
C161 C 0.99827 0.09324 0.56166 0.0
C162 C 1.01266 0.12798 0.57314 0.0
C163 C 0.98287 0.11734 0.63755 0.0
C164 C 0.9832 0.09788 0.60859 0.0
C165 C 0.99764 0.13223 0.62071 0.0
C166 C 1.01262 0.10844 0.54336 0.0
C167 C 1.00024 0.0723 0.53469 0.0
C168 C 0.95141 0.99472 0.41747 0.0
C169 C 0.9363 1.00086 0.46217 0.0
H170 H 0.9838 0.98667 0.33869 0.0
C171 C 0.01964 0.98717 0.59534 0.0
C172 C 0.05488 0.02549 0.56913 0.0
C173 C 0.06969 0.96138 0.73328 0.0
C174 C 0.06104 0.92512 0.71588 0.0
C175 C 0.08809 0.94136 0.65176 0.0
C176 C 0.085 0.95994 0.68472 0.0
C177 C 0.076 0.92404 0.66665 0.0
C178 C 0.05806 0.94376 0.74918 0.0
C179 C 0.06456 0.98142 0.76346 0.0
H180 H 0.97142 0.12073 0.67436 0.0
H181 H 0.972 0.08639 0.62412 0.0
H182 H 0.99741 0.14695 0.64554 0.0
H183 H 0.0238 0.10488 0.50579 0.0
H184 H 0.09972 0.94047 0.614 0.0
H185 H 0.0943 0.97323 0.67111 0.0
H186 H 0.07848 0.90979 0.64041 0.0
H187 H 0.04616 0.94469 0.78624 0.0
C188 C 0.5111 0.9567 0.60061 0.0
C189 C 0.47587 0.94865 0.63189 0.0
C190 C 0.49123 0.96316 0.61399 0.0
C191 C 0.48109 0.92775 0.63858 0.0
C192 C 0.51614 0.9356 0.60346 0.0
C193 C 0.50116 0.92122 0.62404 0.0
N194 N 0.52534 0.97101 0.5821 0.0
C195 C 0.54439 0.96523 0.56054 0.0
C196 C 0.53599 0.92959 0.58438 0.0
C197 C 0.55009 0.94446 0.56207 0.0
Gd198 Gd 0.53524 0.04197 0.72011 0.0
Gd199 Gd 0.5146 1.00539 0.57851 0.0
N200 N 0.48658 0.98338 0.60492 0.0
C201 C 0.45558 0.95546 0.64008 0.0
C202 C 0.46645 0.98961 0.60674 0.0
C203 C 0.45082 0.97597 0.62643 0.0
H204 H 0.46225 1.00508 0.59255 0.0
H205 H 0.43507 0.98124 0.63011 0.0
H206 H 0.57934 0.06116 0.66297 0.0
H207 H 0.55523 0.97675 0.54309 0.0
H208 H 0.5929 0.09424 0.61883 0.0
H209 H 0.44335 0.94485 0.65424 0.0
H210 H 0.46954 0.91642 0.65287 0.0
H211 H 0.49054 0.05425 0.79777 0.0
H212 H 0.54045 0.91353 0.58572 0.0
H213 H 0.56533 0.93995 0.54615 0.0
H214 H 0.53519 0.14027 0.63319 0.0
H215 H 0.50481 0.90497 0.62752 0.0
H216 H 0.47432 0.11557 0.74213 0.0
H217 H 0.46594 0.08292 0.79935 0.0
N218 N 0.5115 0.06922 0.73255 0.0
C219 C 0.51715 0.0876 0.70556 0.0
C220 C 0.49391 0.06785 0.76918 0.0
C221 C 0.48493 0.10275 0.73951 0.0
C222 C 0.48011 0.08433 0.77167 0.0
C223 C 0.50392 0.10478 0.70753 0.0
H224 H 0.50032 0.13689 0.68013 0.0
N225 N 0.54926 0.0729 0.67978 0.0
C226 C 0.53679 0.08962 0.67951 0.0
C227 C 0.5641 0.11023 0.63148 0.0
C228 C 0.54373 0.10868 0.65421 0.0
C229 C 0.5694 0.07447 0.6604 0.0
C230 C 0.57707 0.09311 0.63542 0.0
O231 O 0.53253 0.99009 0.66298 0.0
O232 O 0.52416 1.01017 0.75042 0.0
O233 O 0.56372 0.0398 0.7751 0.0
O234 O 0.53703 0.05344 0.82002 0.0
O235 O 0.49081 0.02492 0.63214 0.0
O236 O 0.50402 0.02614 0.73604 0.0
O237 O 0.5355 0.0524 0.61344 0.0
O238 O 0.50525 0.03901 0.57618 0.0
O239 O 0.49749 0.99636 0.49141 0.0
O240 O 0.52812 1.00965 0.48262 0.0
O241 O 0.5606 0.02322 0.67145 0.0
O242 O 0.54774 0.01669 0.5677 0.0
C243 C 0.53013 0.99242 0.72653 0.0
C244 C 0.48808 0.02531 0.69585 0.0
C245 C 0.55742 0.03075 0.8844 0.0
C246 C 0.5762 1.00173 0.93146 0.0
C247 C 0.54364 1.01246 0.97876 0.0
C248 C 0.54195 0.02811 0.93185 0.0
C249 C 0.56061 0.99921 0.97845 0.0
C250 C 0.57466 0.01781 0.88583 0.0
C251 C 0.55521 0.04549 0.8296 0.0
C252 C 0.53025 0.12555 0.65318 0.0
C253 C 0.51037 0.1236 0.67973 0.0
H254 H 0.57003 0.12461 0.6117 0.0
C255 C 0.51921 0.05378 0.57519 0.0
C256 C 0.56333 0.019 0.60893 0.0
C257 C 0.50446 0.01762 0.39984 0.0
C258 C 0.48124 0.0443 0.35948 0.0
C259 C 0.50866 0.03124 0.29022 0.0
C260 C 0.51491 0.01789 0.33999 0.0
C261 C 0.49193 0.04435 0.2997 0.0
C262 C 0.48783 0.03102 0.40976 0.0
C263 C 0.51149 1.00369 0.45191 0.0
H264 H 0.5316 1.01039 0.01484 0.0
H265 H 0.52839 0.03782 0.93201 0.0
H266 H 0.56146 0.98698 0.01448 0.0
H267 H 0.58695 0.02023 0.85069 0.0
H268 H 0.51669 0.0313 0.24392 0.0
H269 H 0.5279 1.00778 0.33182 0.0
H270 H 0.48701 0.05408 0.2595 0.0
H271 H 0.47997 0.03101 0.45645 0.0
C272 C 0.49035 0.52085 0.82744 0.0
C273 C 0.50744 0.54639 0.89546 0.0
C274 C 0.50389 0.53734 0.8338 0.0
C275 C 0.49783 0.53795 0.951 0.0
C276 C 0.47987 0.51293 0.88242 0.0
C277 C 0.48406 0.52124 0.9445 0.0
N278 N 0.48635 0.51351 0.7667 0.0
C279 C 0.47109 0.49921 0.75655 0.0
C280 C 0.46498 0.49739 0.87293 0.0
C281 C 0.46036 0.49072 0.80957 0.0
Gd282 Gd 0.54608 0.50576 0.5586 0.0
Gd283 Gd 0.50561 0.52771 0.68081 0.0
N284 N 0.51257 0.54532 0.77896 0.0
C285 C 0.51998 0.56406 0.89905 0.0
C286 C 0.52395 0.56316 0.78169 0.0
C287 C 0.52805 0.57263 0.84177 0.0
H288 H 0.53014 0.57002 0.73776 0.0
H289 H 0.53733 0.58658 0.8438 0.0
H290 H 0.54119 0.52824 0.41288 0.0
H291 H 0.46743 0.49417 0.70745 0.0
H292 H 0.56346 0.54547 0.33069 0.0
H293 H 0.52307 0.57151 0.94547 0.0
H294 H 0.50049 0.54457 0.9989 0.0
H295 H 0.57817 0.47934 0.65706 0.0
H296 H 0.45657 0.49089 0.91389 0.0
H297 H 0.44854 0.47907 0.80153 0.0
H298 H 0.63221 0.53858 0.41819 0.0
H299 H 0.4763 0.51525 0.98747 0.0
H300 H 0.6404 0.49669 0.61009 0.0
H301 H 0.61569 0.47692 0.67842 0.0
N302 N 0.58156 0.50095 0.57927 0.0
C303 C 0.59489 0.5112 0.53956 0.0
C304 C 0.58879 0.48809 0.62708 0.0
C305 C 0.62394 0.49792 0.6008 0.0
C306 C 0.61005 0.48668 0.63934 0.0
C307 C 0.61646 0.51005 0.54929 0.0
H308 H 0.64642 0.51995 0.51314 0.0
N309 N 0.56616 0.52145 0.47703 0.0
C310 C 0.58692 0.52178 0.48656 0.0
C311 C 0.5916 0.54035 0.38511 0.0
C312 C 0.60024 0.53139 0.44119 0.0
C313 C 0.55771 0.52924 0.42103 0.0
C314 C 0.57026 0.53898 0.37451 0.0
O315 O 0.50659 0.49264 0.67721 0.0
O316 O 0.54076 0.48739 0.65296 0.0
O317 O 0.52906 0.47715 0.54352 0.0
O318 O 0.5554 0.48468 0.4823 0.0
O319 O 0.53741 0.52568 0.72926 0.0
O320 O 0.56182 0.52003 0.64777 0.0
O321 O 0.53451 0.53782 0.53374 0.0
O322 O 0.52883 0.55052 0.63629 0.0
O323 O 0.47605 0.54222 0.69766 0.0
O324 O 0.49185 0.54708 0.60564 0.0
O325 O 0.51518 0.51687 0.51948 0.0
O326 O 0.49601 0.50477 0.60329 0.0
C327 C 0.52311 0.48082 0.67812 0.0
C328 C 0.55675 0.52449 0.70866 0.0
C329 C 0.5263 0.4686 0.43245 0.0
C330 C 0.49814 0.44893 0.38213 0.0
C331 C 0.515 0.47671 0.32203 0.0
C332 C 0.52818 0.48039 0.375 0.0
C333 C 0.50008 0.46107 0.32536 0.0
C334 C 0.51119 0.45303 0.43578 0.0
C335 C 0.53921 0.47284 0.49047 0.0
C336 C 0.62171 0.53111 0.45213 0.0
C337 C 0.62981 0.52049 0.50618 0.0
H338 H 0.6013 0.54785 0.34896 0.0
C339 C 0.53287 0.55355 0.57383 0.0
C340 C 0.49746 0.50961 0.54121 0.0
C341 C 0.47131 0.5741 0.64362 0.0
C342 C 0.46931 0.60678 0.70083 0.0
C343 C 0.45802 0.60431 0.58778 0.0
C344 C 0.46309 0.58343 0.58738 0.0
C345 C 0.46095 0.61594 0.64442 0.0
C346 C 0.47471 0.58592 0.7001 0.0
C347 C 0.47628 0.55211 0.6421 0.0
H348 H 0.5165 0.48587 0.27798 0.0
H349 H 0.5397 0.49249 0.37092 0.0
H350 H 0.49051 0.45813 0.28277 0.0
H351 H 0.50959 0.44415 0.48048 0.0
H352 H 0.45168 0.61145 0.5443 0.0
H353 H 0.46057 0.57453 0.54324 0.0
H354 H 0.4568 0.6321 0.64422 0.0
H355 H 0.48114 0.57889 0.74373 0.0
C356 C 0.04123 0.4718 0.75519 0.0
C357 C 0.05645 0.48445 0.85629 0.0
C358 C 0.0434 0.48721 0.80161 0.0
C359 C 0.0678 0.46618 0.86252 0.0
C360 C 0.05197 0.45309 0.76267 0.0
C361 C 0.06556 0.45052 0.81586 0.0
N362 N 0.028 0.47478 0.70427 0.0
C363 C 0.0234 0.45895 0.6626 0.0
C364 C 0.04842 0.43735 0.71722 0.0
C365 C 0.03382 0.44019 0.66758 0.0
Gd366 Gd 0.03425 0.54672 0.56707 0.0
Gd367 Gd 1.0125 0.5075 0.69816 0.0
N368 N 0.03245 0.50482 0.79377 0.0
C369 C 0.05744 0.50004 0.9035 0.0
C370 C 0.03235 0.51951 0.8415 0.0
C371 C 0.04508 0.51749 0.89655 0.0
H372 H 0.02275 0.53296 0.83644 0.0
H373 H 0.04533 0.52936 0.93358 0.0
H374 H 0.04871 0.51855 0.4354 0.0
H375 H 1.01145 0.46052 0.62601 0.0
H376 H 0.03506 0.51011 0.32652 0.0
H377 H 0.06733 0.49854 0.94614 0.0
H378 H 0.07808 0.46385 0.90384 0.0
H379 H 1.01114 0.58995 0.6121 0.0
H380 H 0.05637 0.42275 0.72121 0.0
H381 H 0.03038 0.42784 0.63361 0.0
H382 H 0.97683 0.55481 0.29999 0.0
H383 H 0.0741 0.43634 0.822 0.0
H384 H 0.96623 0.60578 0.46564 0.0
H385 H 0.98378 0.61332 0.57086 0.0
N386 N 1.0085 0.56944 0.53169 0.0
C387 C 1.00005 0.56576 0.47195 0.0
C388 C 1.0035 0.58671 0.56609 0.0
C389 C 0.97823 0.59559 0.48339 0.0
C390 C 0.98809 0.5999 0.54285 0.0
C391 C 0.98434 0.57849 0.44672 0.0
H392 H 0.96327 0.58341 0.36555 0.0
N393 N 0.02402 0.53877 0.45914 0.0
C394 C 1.00775 0.54965 0.43516 0.0
C395 C 1.00928 0.53086 0.33353 0.0
C396 C 0.9998 0.54584 0.37196 0.0
C397 C 0.03441 0.52549 0.41954 0.0
C398 C 0.02693 0.52095 0.35697 0.0
O399 O 0.04511 0.52061 0.7129 0.0
O400 O 0.05793 0.52477 0.60942 0.0
O401 O 0.05393 0.5619 0.49571 0.0
O402 O 0.05388 0.57247 0.59565 0.0
O403 O 1.00762 0.54147 0.72322 0.0
O404 O 0.03414 0.55877 0.67087 0.0
O405 O 0.99986 0.54566 0.59391 0.0
O406 O 0.99445 0.5114 0.60426 0.0
O407 O 0.98411 0.51665 0.74426 0.0
O408 O 0.99263 0.48395 0.74306 0.0
O409 O 0.04224 0.51276 0.54838 0.0
O410 O 1.01426 0.49595 0.59331 0.0
C411 C 0.06075 0.52104 0.672 0.0
C412 C 0.02008 0.5576 0.71708 0.0
C413 C 0.08556 0.5727 0.54197 0.0
C414 C 0.11733 0.55299 0.53229 0.0
C415 C 0.11861 0.58919 0.56368 0.0
C416 C 0.09708 0.59023 0.55935 0.0
C417 C 0.12873 0.57076 0.54978 0.0
C418 C 0.09567 0.55406 0.53013 0.0
C419 C 0.06295 0.57354 0.53925 0.0
C420 C 0.98329 0.5577 0.3481 0.0
C421 C 0.9756 0.57402 0.38535 0.0
H422 H 1.00368 0.52754 0.28467 0.0
C423 C 0.98787 0.52945 0.58509 0.0
C424 C 0.02965 0.49663 0.55131 0.0
C425 C 0.95977 0.49286 0.79385 0.0
C426 C 0.92707 0.50474 0.83833 0.0
C427 C 0.93456 0.46807 0.83422 0.0
C428 C 0.95378 0.47237 0.80609 0.0
C429 C 0.9212 0.48413 0.85006 0.0
C430 C 0.94645 0.50892 0.81066 0.0
C431 C 0.97904 0.49773 0.75907 0.0
H432 H 0.1275 0.60279 0.57682 0.0
H433 H 0.08943 0.60465 0.56975 0.0
H434 H 0.14547 0.57066 0.55087 0.0
H435 H 0.08659 0.54039 0.51883 0.0
H436 H 0.92991 0.45224 0.84312 0.0
H437 H 0.96375 0.45971 0.79297 0.0
H438 H 0.90624 0.4804 0.87078 0.0
H439 H 0.95119 0.52477 0.8022 0.0
H440 H 0.22464 1.01342 0.22317 0.0
H441 H 0.19638 1.01146 0.30274 0.0
H442 H 0.16534 0.06121 0.2033 0.0
H443 H 0.19382 0.06357 0.12527 0.0
H444 H 0.16066 0.06664 0.32789 0.0
H445 H 0.15139 1.00797 0.18611 0.0
H446 H 0.16163 0.97583 0.13118 0.0
H447 H 0.17148 0.94682 0.31754 0.0
H448 H 0.16153 0.97888 0.37357 0.0
H449 H 0.0595 0.05126 0.46199 0.0
H450 H 0.08905 0.05389 0.38764 0.0
H451 H 0.12023 1.00607 0.49567 0.0
H452 H 0.09081 1.00315 0.56928 0.0
H453 H 0.12526 0.99979 0.36944 0.0
H454 H 0.13245 0.05786 0.51149 0.0
H455 H 0.1212 0.08964 0.56634 0.0
H456 H 0.11538 0.11998 0.38057 0.0
H457 H 0.1259 0.08818 0.32429 0.0
C458 C 0.21196 0.02414 0.21882 0.0
C459 C 0.21174 0.03894 0.16828 0.0
C460 C 0.19561 0.02289 0.26412 0.0
C461 C 0.17838 0.03605 0.25918 0.0
C462 C 0.17833 0.0509 0.20898 0.0
C463 C 0.19468 0.05224 0.16418 0.0
C464 C 0.16021 0.03422 0.30494 0.0
C465 C 0.15281 0.05203 0.33625 0.0
C466 C 0.15 1.01516 0.31759 0.0
C467 C 0.15593 0.99588 0.28398 0.0
C468 C 0.15588 0.99478 0.21534 0.0
C469 C 0.1616 0.97657 0.18403 0.0
C470 C 0.16726 0.95932 0.22085 0.0
C471 C 0.16713 0.96021 0.28908 0.0
C472 C 0.16144 0.97838 0.32064 0.0
C473 C 0.07261 0.04126 0.46996 0.0
C474 C 0.07262 0.02705 0.5222 0.0
C475 C 0.08961 0.04285 0.42742 0.0
C476 C 0.10716 0.03035 0.4361 0.0
C477 C 0.10702 0.01594 0.48755 0.0
C478 C 0.09008 1.01434 0.52997 0.0
C479 C 0.12568 0.03219 0.39204 0.0
C480 C 0.13313 1.0144 0.36112 0.0
C481 C 0.1359 0.05126 0.37983 0.0
C482 C 0.12974 0.07051 0.41357 0.0
C483 C 0.12855 0.07123 0.48221 0.0
C484 C 0.12226 0.08925 0.51357 0.0
C485 C 0.11741 0.10677 0.4769 0.0
C486 C 0.11893 0.10634 0.40883 0.0
C487 C 0.12505 0.08831 0.37716 0.0
H488 H 0.11256 0.12072 0.50125 0.0
H489 H 0.17169 0.94524 0.19651 0.0
H490 H 0.47537 0.19546 0.14211 0.0
H491 H 0.47733 0.16913 0.22764 0.0
H492 H 0.54293 0.18036 0.2467 0.0
H493 H 0.541 0.20646 0.1594 0.0
H494 H 0.5365 0.14065 0.2462 0.0
H495 H 0.50549 0.19566 0.36594 0.0
H496 H 0.47996 0.22278 0.38815 0.0
H497 H 0.4312 0.1774 0.39017 0.0
H498 H 0.4564 0.15003 0.36704 0.0
H499 H 0.55043 0.07835 0.52803 0.0
H500 H 0.5482 0.10739 0.45241 0.0
H501 H 0.48232 0.09784 0.43595 0.0
H502 H 0.48446 0.06896 0.51345 0.0
H503 H 0.489 0.1369 0.43555 0.0
H504 H 0.52036 0.08181 0.31531 0.0
H505 H 0.54633 0.05484 0.29539 0.0
H506 H 0.59464 0.1006 0.29473 0.0
H507 H 0.5691 0.1278 0.31586 0.0
C508 C 0.49017 0.19262 0.16534 0.0
C509 C 0.50797 0.20342 0.14449 0.0
C510 C 0.49129 0.1775 0.21461 0.0
C511 C 0.51025 0.17271 0.24507 0.0
C512 C 0.52805 0.18365 0.22464 0.0
C513 C 0.52693 0.19876 0.17505 0.0
C514 C 0.5116 0.15578 0.29587 0.0
C515 C 0.52629 0.14008 0.28809 0.0
C516 C 0.49799 0.15442 0.3501 0.0
C517 C 0.48281 0.17083 0.36416 0.0
C518 C 0.4893 0.19149 0.37064 0.0
C519 C 0.47489 0.2069 0.38347 0.0
C520 C 0.45396 0.20183 0.39041 0.0
C521 C 0.44741 0.18132 0.3847 0.0
C522 C 0.46175 0.16584 0.37178 0.0
C523 C 0.53541 0.08246 0.5087 0.0
C524 C 0.51764 0.07121 0.52717 0.0
C525 C 0.53417 0.09901 0.46446 0.0
C526 C 0.51515 0.10463 0.43596 0.0
C527 C 0.49729 0.09367 0.45552 0.0
C528 C 0.49853 0.07708 0.49996 0.0
C529 C 0.51394 0.1218 0.38595 0.0
C530 C 0.49923 0.13749 0.39371 0.0
C531 C 0.52753 0.12315 0.33163 0.0
C532 C 0.54282 0.10683 0.31765 0.0
C533 C 0.53653 0.0861 0.31119 0.0
C534 C 0.55116 0.07078 0.29971 0.0
C535 C 0.57208 0.07601 0.29385 0.0
C536 C 0.57843 0.09658 0.29931 0.0
C537 C 0.56389 0.11195 0.31103 0.0
H538 H 0.58337 0.06411 0.28501 0.0
H539 H 0.44283 0.21378 0.40035 0.0
H540 H 0.33346 0.53769 0.16987 0.0
H541 H 0.36155 0.53905 0.25122 0.0
H542 H 0.37347 0.47452 0.21935 0.0
H543 H 0.34514 0.47307 0.13982 0.0
H544 H 0.37846 0.48145 0.34234 0.0
H545 H 0.40336 0.51524 0.14829 0.0
H546 H 0.40303 0.54094 0.05915 0.0
H547 H 0.40611 0.58999 0.19955 0.0
H548 H 0.40621 0.56457 0.28956 0.0
H549 H 0.49539 0.51175 0.40721 0.0
H550 H 0.46459 0.51073 0.33712 0.0
H551 H 0.42585 0.50701 0.50798 0.0
H552 H 0.45667 0.50699 0.57787 0.0
H553 H 0.43381 0.53418 0.31675 0.0
H554 H 0.37855 0.48114 0.46882 0.0
H555 H 0.38051 0.45268 0.54872 0.0
H556 H 0.44135 0.43776 0.48136 0.0
H557 H 0.43962 0.46603 0.4006 0.0
C558 C 0.34181 0.52372 0.1813 0.0
C559 C 0.33674 0.50519 0.149 0.0
C560 C 0.35808 0.52453 0.22738 0.0
C561 C 0.37005 0.50694 0.24143 0.0
C562 C 0.36462 0.48835 0.21014 0.0
C563 C 0.34833 0.48752 0.16449 0.0
C564 C 0.38855 0.50786 0.28674 0.0
C565 C 0.39048 0.4931 0.33699 0.0
C566 C 0.40463 0.52273 0.2796 0.0
C567 C 0.40457 0.53802 0.22562 0.0
C568 C 0.40382 0.53151 0.16013 0.0
C569 C 0.4037 0.54602 0.10946 0.0
C570 C 0.40449 0.56708 0.12368 0.0
C571 C 0.40546 0.57368 0.18861 0.0
C572 C 0.40556 0.55923 0.23946 0.0
C573 C 0.48032 0.51055 0.42986 0.0
C574 C 0.47862 0.50923 0.4983 0.0
C575 C 0.46261 0.5101 0.38964 0.0
C576 C 0.44262 0.50856 0.41661 0.0
C577 C 0.44093 0.50772 0.48522 0.0
C578 C 0.45865 0.50779 0.52538 0.0
C579 C 0.42372 0.50785 0.37292 0.0
C580 C 0.42172 0.52265 0.32284 0.0
C581 C 0.40777 0.49274 0.37966 0.0
C582 C 0.40901 0.47579 0.42863 0.0
C583 C 0.39232 0.47175 0.47079 0.0
C584 C 0.39338 0.45565 0.51631 0.0
C585 C 0.41104 0.44341 0.52007 0.0
C586 C 0.42767 0.44724 0.47833 0.0
C587 C 0.42665 0.46328 0.43264 0.0
H588 H 0.41184 0.43096 0.55533 0.0
H589 H 0.40439 0.5783 0.08439 0.0
H590 H 0.05908 0.33577 0.16637 0.0
H591 H 0.0631 0.36683 0.23399 0.0
H592 H 0.99675 0.37261 0.24274 0.0
H593 H 0.9928 0.3421 0.17394 0.0
H594 H 1.0113 0.40874 0.22718 0.0
H595 H 0.02889 0.35378 0.37369 0.0
H596 H 0.04798 0.3233 0.41256 0.0
H597 H 0.10472 0.35821 0.41071 0.0
H598 H 0.08599 0.38883 0.37091 0.0
H599 H 0.99845 0.47183 0.50609 0.0
H600 H 1.00023 0.44294 0.43021 0.0
H601 H 0.06585 0.45294 0.40925 0.0
H602 H 0.06412 0.48224 0.48573 0.0
H603 H 0.05487 0.41034 0.42727 0.0
H604 H 0.03606 0.46475 0.2743 0.0
H605 H 0.01578 0.4943 0.23406 0.0
H606 H 0.95959 0.45932 0.25691 0.0
H607 H 0.97963 0.4293 0.29506 0.0
C608 C 0.04536 0.34381 0.18202 0.0
C609 C 0.02557 0.3366 0.16329 0.0
C610 C 0.04766 0.36153 0.2215 0.0
C611 C 0.03023 0.37228 0.24454 0.0
C612 C 1.01054 0.36495 0.22577 0.0
C613 C 1.00827 0.34742 0.18617 0.0
C614 C 0.03218 0.39117 0.28751 0.0
C615 C 0.02074 0.40885 0.27114 0.0
C616 C 0.04477 0.39191 0.34471 0.0
C617 C 0.05607 0.37353 0.36852 0.0
C618 C 0.04546 0.35491 0.38102 0.0
C619 C 0.05621 0.33762 0.40332 0.0
C620 C 0.07756 0.3388 0.41389 0.0
C621 C 0.08819 0.3573 0.40235 0.0
C622 C 0.07751 0.37464 0.37994 0.0
C623 C 1.01332 0.46799 0.48541 0.0
C624 C 0.03116 0.47946 0.50243 0.0
C625 C 1.01429 0.45143 0.44153 0.0
C626 C 0.03315 0.44563 0.41324 0.0
C627 C 0.05107 0.457 0.43013 0.0
C628 C 0.05006 0.47385 0.47367 0.0
C629 C 0.03383 0.4276 0.36688 0.0
C630 C 0.04566 0.41014 0.38282 0.0
C631 C 0.02141 0.42685 0.30971 0.0
C632 C 1.0093 0.4449 0.28795 0.0
C633 C 0.01937 0.46342 0.271 0.0
C634 C 1.00793 0.48021 0.2484 0.0
C635 C 0.9864 0.47879 0.24374 0.0
C636 C 0.97627 0.46043 0.26077 0.0
C637 C 0.98766 0.44347 0.28233 0.0
H638 H 0.97758 0.49186 0.22659 0.0
H639 H 0.08585 0.3254 0.43119 0.0
H640 H 0.85092 0.98742 0.18466 0.0
H641 H 0.8789 0.98264 0.10514 0.0
H642 H 0.8609 0.03869 1.00689 0.0
H643 H 0.83277 0.04306 0.0848 0.0
H644 H 0.87065 1.01283 0.91864 0.0
H645 H 0.90377 0.03456 0.11698 0.0
H646 H 0.91361 0.03324 0.23349 0.0
H647 H 0.94173 0.97422 0.20472 0.0
H648 H 0.93175 0.97503 0.0881 0.0
H649 H 0.96523 0.04564 0.77145 0.0
H650 H 0.93596 0.04141 0.84499 0.0
H651 H 0.95095 0.97733 0.8716 0.0
H652 H 0.97986 0.98114 0.79422 0.0
H653 H 0.9429 1.00255 0.99364 0.0
H654 H 0.91187 0.9841 0.78847 0.0
H655 H 0.90202 0.98782 0.67249 0.0
H656 H 0.87067 0.04424 0.71564 0.0
H657 H 0.88065 0.04109 0.8317 0.0
C658 C 0.85273 0.99847 0.14526 0.0
C659 C 0.83932 1.01542 0.14053 0.0
C660 C 0.86892 0.99589 0.10014 0.0
C661 C 0.8724 1.01042 0.04983 0.0
C662 C 0.85871 0.02713 0.04464 0.0
C663 C 0.84252 0.02963 0.08935 0.0
C664 C 0.89026 1.00861 1.00293 0.0
C665 C 0.88643 1.01073 0.93546 0.0
C666 C 0.911 1.00542 0.0238 0.0
C667 C 0.91675 1.00472 0.09402 0.0
C668 C 0.91185 0.02119 0.13563 0.0
C669 C 0.91748 0.02056 0.20165 0.0
C670 C 0.92821 1.00362 0.22651 0.0
C671 C 0.93335 0.98729 0.1854 0.0
C672 C 0.9277 0.98783 0.11934 0.0
C673 C 0.96212 0.03045 0.79134 0.0
C674 C 0.97483 1.01364 0.77535 0.0
C675 C 0.9454 0.02813 0.8342 0.0
C676 C 0.94106 1.00904 0.8638 0.0
C677 C 0.95391 0.99224 0.84935 0.0
C678 C 0.97046 0.99444 0.80503 0.0
C679 C 0.92318 1.00705 0.91001 0.0
C680 C 0.92704 1.00435 0.97714 0.0
C681 C 0.9025 1.01008 0.88904 0.0
C682 C 0.89714 1.01242 0.8188 0.0
C683 C 0.9031 0.99744 0.77314 0.0
C684 C 0.89741 0.9994 0.70742 0.0
C685 C 0.88562 0.01619 0.68683 0.0
C686 C 0.87971 0.03119 0.73174 0.0
C687 C 0.8854 0.02933 0.79749 0.0
H688 H 0.88112 0.01763 0.63602 0.0
H689 H 0.9326 1.00321 0.27757 0.0
H690 H 0.53844 0.86582 0.21941 0.0
H691 H 0.53904 0.89299 0.13624 0.0
H692 H 0.53915 0.84695 0.98476 0.0
H693 H 0.53854 0.81957 0.06845 0.0
H694 H 0.56552 0.87948 0.95453 0.0
H695 H 0.49512 0.87184 0.0212 0.0
H696 H 0.46621 0.86974 0.09918 0.0
H697 H 0.47989 0.93115 0.16554 0.0
H698 H 0.50909 0.93351 0.08855 0.0
H699 H 0.54235 0.95243 0.70031 0.0
H700 H 0.54389 0.92304 0.7747 0.0
H701 H 0.52916 0.96311 0.93575 0.0
H702 H 0.52513 0.99179 0.85979 0.0
H703 H 0.50984 0.93154 0.95802 0.0
H704 H 0.58218 0.93819 0.89185 0.0
H705 H 0.61111 0.93871 0.81319 0.0
H706 H 0.59374 0.87857 0.745 0.0
H707 H 0.56458 0.87765 0.82231 0.0
C708 C 0.53899 0.86142 0.16841 0.0
C709 C 0.53894 0.84041 0.15099 0.0
C710 C 0.53914 0.87704 0.12067 0.0
C711 C 0.53898 0.87222 0.05367 0.0
C712 C 0.53935 0.85122 0.0359 0.0
C713 C 0.53907 0.83552 0.08389 0.0
C714 C 0.5378 0.88911 1.00286 0.0
C715 C 0.55323 0.89077 0.9549 0.0
C716 C 0.52198 0.90413 1.00326 0.0
C717 C 0.50442 0.90277 0.04955 0.0
C718 C 0.49207 0.88484 0.05279 0.0
C719 C 0.47561 0.88361 0.09675 0.0
C720 C 0.47125 0.90028 0.13741 0.0
C721 C 0.48331 0.91824 0.13408 0.0
C722 C 0.49981 0.91953 0.09026 0.0
C723 C 0.53895 0.95489 0.75113 0.0
C724 C 0.53305 0.97455 0.77293 0.0
C725 C 0.54039 0.93804 0.7946 0.0
C726 C 0.53702 0.94049 0.86227 0.0
C727 C 0.53177 0.96036 0.88427 0.0
C728 C 0.52962 0.97698 0.84046 0.0
C729 C 0.53797 0.92251 0.90999 0.0
C730 C 0.52234 0.9205 0.95753 0.0
C731 C 0.55365 0.90719 0.90907 0.0
C732 C 0.57109 0.90795 0.86239 0.0
C733 C 0.58444 0.92514 0.85975 0.0
C734 C 0.60089 0.92551 0.81555 0.0
C735 C 0.60422 0.90876 0.77423 0.0
C736 C 0.59113 0.89155 0.77698 0.0
C737 C 0.57466 0.89109 0.82096 0.0
H738 H 0.61698 0.90912 0.74015 0.0
H739 H 0.45849 0.8993 0.17139 0.0
H740 H 0.7301 0.54464 0.0297 0.0
H741 H 0.69978 0.54787 0.95795 0.0
H742 H 0.65999 0.53193 0.1194 0.0
H743 H 0.6904 0.5283 0.19063 0.0
H744 H 0.6501 0.50928 0.02072 0.0
H745 H 0.6613 0.58153 0.04389 0.0
H746 H 0.68098 0.61426 0.04221 0.0
H747 H 0.6923 0.60691 0.83699 0.0
H748 H 0.67293 0.57397 0.8376 0.0
H749 H 0.55519 0.52352 0.84357 0.0
H750 H 0.5838 0.52751 0.92187 0.0
H751 H 0.62625 0.53734 0.76285 0.0
H752 H 0.59783 0.53313 0.68435 0.0
H753 H 0.63393 0.56493 0.86256 0.0
H754 H 0.62762 0.49189 0.84231 0.0
H755 H 0.61482 0.45619 0.84663 0.0
H756 H 0.59685 0.46426 0.04682 0.0
H757 H 0.60968 0.5002 0.04355 0.0
C758 C 0.71484 0.5422 0.0501 0.0
C759 C 0.71269 0.53603 0.11581 0.0
C760 C 0.69742 0.54414 0.00901 0.0
C761 C 0.67733 0.54021 0.03271 0.0
C762 C 0.67519 0.535 0.09932 0.0
C763 C 0.6926 0.53302 0.1403 0.0
C764 C 0.65885 0.53954 0.98732 0.0
C765 C 0.64631 0.52177 0.98746 0.0
C766 C 0.65415 0.55537 0.94158 0.0
C767 C 0.66582 0.57517 0.94094 0.0
C768 C 0.66813 0.5868 0.9985 0.0
C769 C 0.6792 0.60541 0.99772 0.0
C770 C 0.68793 0.61263 0.93956 0.0
C771 C 0.68555 0.60128 0.88202 0.0
C772 C 0.67451 0.58265 0.88254 0.0
C773 C 0.57058 0.52658 0.82507 0.0
C774 C 0.57405 0.52787 0.75715 0.0
C775 C 0.58703 0.52878 0.87011 0.0
C776 C 0.6074 0.53264 0.84878 0.0
C777 C 0.6108 0.53439 0.78107 0.0
C778 C 0.59444 0.53188 0.736 0.0
C779 C 0.62511 0.5347 0.89677 0.0
C780 C 0.63753 0.55268 0.89683 0.0
C781 C 0.62979 0.51908 0.943 0.0
C782 C 0.61933 0.49876 0.94238 0.0
C783 C 0.6205 0.4862 0.88677 0.0
C784 C 0.61342 0.46583 0.8893 0.0
C785 C 0.60508 0.45787 0.94716 0.0
C786 C 0.60336 0.47043 1.00214 0.0
C787 C 0.61052 0.4908 0.99996 0.0
H788 H 0.60006 0.44193 0.9497 0.0
H789 H 0.69649 0.62705 0.93906 0.0
H790 H 0.04919 0.71959 0.07659 0.0
H791 H 0.0464 0.69094 0.99974 0.0
H792 H 0.98898 0.67189 0.08868 0.0
H793 H 0.99213 0.70045 0.16736 0.0
H794 H 1.01221 0.6388 0.06552 0.0
H795 H 0.99175 0.69703 0.933 0.0
H796 H 0.99683 0.73222 0.88927 0.0
H797 H 0.0534 0.71362 0.7984 0.0
H798 H 0.04882 0.67841 0.84221 0.0
H799 H 0.99121 0.56419 0.81445 0.0
H800 H 0.98935 0.59318 0.89086 0.0
H801 H 0.04444 0.61969 0.80592 0.0
H802 H 0.04604 0.59119 0.72869 0.0
H803 H 0.01958 0.64939 0.8266 0.0
H804 H 0.04334 0.59397 0.96142 0.0
H805 H 0.04271 0.55937 0.01163 0.0
H806 H 0.98421 0.57243 0.10034 0.0
H807 H 0.9844 0.6071 0.05017 0.0
C808 C 0.03574 0.70956 0.07911 0.0
C809 C 0.02057 0.7128 0.12712 0.0
C810 C 0.03414 0.69307 0.0349 0.0
C811 C 0.01722 0.67925 0.03681 0.0
C812 C 1.00211 0.68231 0.08527 0.0
C813 C 1.0038 0.69881 0.12995 0.0
C814 C 0.0157 0.66148 0.98923 0.0
C815 C 1.01341 0.64121 0.01319 0.0
C816 C 0.01789 0.66426 0.92069 0.0
C817 C 0.02002 0.68512 0.89133 0.0
C818 C 1.00527 0.70045 0.90369 0.0
C819 C 1.00808 0.7204 0.87897 0.0
C820 C 0.02549 0.72515 0.84145 0.0
C821 C 0.03996 0.70991 0.82765 0.0
C822 C 0.03724 0.68995 0.85229 0.0
C823 C 1.00295 0.57617 0.81198 0.0
C824 C 0.01879 0.57515 0.76494 0.0
C825 C 1.00195 0.59279 0.85619 0.0
C826 C 0.01689 0.60879 0.85534 0.0
C827 C 0.03262 0.60777 0.80813 0.0
C828 C 0.03355 0.59128 0.76379 0.0
C829 C 0.01624 0.62663 0.90283 0.0
C830 C 0.01812 0.64695 0.87885 0.0
C831 C 1.01401 0.62386 0.97138 0.0
C832 C 1.01377 0.60303 1.00143 0.0
C833 C 0.03025 0.5894 0.99119 0.0
C834 C 0.02998 0.56978 0.01967 0.0
C835 C 1.01336 0.56365 0.0588 0.0
C836 C 0.99702 0.57717 0.06978 0.0
C837 C 0.99722 0.59682 0.04143 0.0
H838 H 1.01317 0.54846 0.08084 0.0
H839 H 0.02784 0.74066 0.82326 0.0
H840 H 0.05128 0.27204 0.27457 0.0
H841 H 0.05888 0.25198 0.37158 0.0
H842 H 0.10918 0.22236 0.27139 0.0
H843 H 0.10114 0.24225 0.17275 0.0
H844 H 0.08215 0.1955 0.30281 0.0
H845 H 0.11634 0.24622 0.42626 0.0
H846 H 0.12383 0.2809 0.4698 0.0
H847 H 0.06587 0.28042 0.57139 0.0
H848 H 0.05783 0.24589 0.52773 0.0
H849 H 0.05318 0.1223 0.53858 0.0
H850 H 0.07706 0.14776 0.49294 0.0
H851 H 0.03133 0.19511 0.51756 0.0
H852 H 1.00723 0.16979 0.56238 0.0
H853 H 0.07098 0.2102 0.53769 0.0
H854 H 0.03332 0.16755 0.3783 0.0
H855 H 0.02347 0.13427 0.32841 0.0
H856 H 0.08732 0.12158 0.28955 0.0
H857 H 0.09757 0.15467 0.34039 0.0
C858 C 0.06458 0.26198 0.27403 0.0
C859 C 0.07538 0.25838 0.21589 0.0
C860 C 0.06905 0.25055 0.32996 0.0
C861 C 0.08459 0.23552 0.32894 0.0
C862 C 0.09707 0.23378 0.27322 0.0
C863 C 0.09243 0.24507 0.21689 0.0
C864 C 0.08396 0.21871 0.37817 0.0
C865 C 0.0806 0.19863 0.35463 0.0
C866 C 0.08159 0.22274 0.4457 0.0
C867 C 0.08649 0.24337 0.47365 0.0
C868 C 0.10514 0.25351 0.45774 0.0
C869 C 0.10948 0.27317 0.48244 0.0
C870 C 0.09533 0.28286 0.52334 0.0
C871 C 0.07684 0.27288 0.53981 0.0
C872 C 0.07241 0.25322 0.51525 0.0
C873 C 0.04817 0.13814 0.53456 0.0
C874 C 0.02809 0.14388 0.55324 0.0
C875 C 0.06198 0.15271 0.50929 0.0
C876 C 0.0559 0.17326 0.50152 0.0
C877 C 0.0364 0.17934 0.52381 0.0
C878 C 0.02259 0.16479 0.54927 0.0
C879 C 0.06819 0.18769 0.461 0.0
C880 C 0.07366 0.20709 0.48638 0.0
C881 C 0.07239 0.1832 0.39479 0.0
C882 C 0.06623 0.16338 0.36403 0.0
C883 C 0.04526 0.15757 0.35962 0.0
C884 C 0.03961 0.13876 0.33118 0.0
C885 C 0.05477 0.12577 0.30616 0.0
C886 C 0.07561 0.13161 0.30929 0.0
C887 C 0.08136 0.15037 0.33798 0.0
H888 H 0.05037 0.11122 0.28411 0.0
H889 H 0.0987 0.2981 0.54225 0.0
H890 H 0.30443 0.04706 0.27377 0.0
H891 H 0.33376 0.05938 0.33827 0.0
H892 H 0.3409 0.11134 0.20767 0.0
H893 H 0.31195 0.09846 0.14161 0.0
H894 H 0.37291 0.08856 0.20288 0.0
H895 H 0.33621 0.11741 0.37987 0.0
H896 H 0.30972 0.11962 0.46583 0.0
H897 H 0.33483 0.06612 0.56037 0.0
H898 H 0.36125 0.06338 0.47436 0.0
H899 H 0.47404 0.08386 0.31729 0.0
H900 H 0.44057 0.10112 0.31119 0.0
H901 H 0.41192 0.04964 0.41081 0.0
H902 H 0.44514 0.0325 0.41781 0.0
H903 H 0.39166 0.08477 0.43774 0.0
H904 H 0.41936 0.04986 0.24864 0.0
H905 H 0.4439 0.04363 0.15921 0.0
H906 H 0.43309 0.10448 0.08383 0.0
H907 H 0.40878 0.11123 0.17383 0.0
C908 C 0.31159 0.06168 0.26089 0.0
C909 C 0.30614 0.07176 0.20266 0.0
C910 C 0.32837 0.0688 0.29795 0.0
C911 C 0.33968 0.08628 0.27774 0.0
C912 C 0.33247 0.0978 0.22413 0.0
C913 C 0.31591 0.0905 0.18651 0.0
C914 C 0.36125 0.08922 0.30145 0.0
C915 C 0.37697 0.08852 0.25438 0.0
C916 C 0.36662 0.08858 0.36858 0.0
C917 C 0.35074 0.09019 0.42055 0.0
C918 C 0.33602 0.10604 0.41875 0.0
C919 C 0.32102 0.10739 0.46752 0.0
C920 C 0.3206 0.09302 0.51852 0.0
C921 C 0.33519 0.07727 0.52089 0.0
C922 C 0.35022 0.07583 0.47221 0.0
C923 C 0.46066 0.07642 0.33899 0.0
C924 C 0.46217 0.05663 0.36687 0.0
C925 C 0.4416 0.08639 0.33606 0.0
C926 C 0.4237 0.07647 0.35939 0.0
C927 C 0.42553 0.05761 0.39255 0.0
C928 C 0.44459 0.04776 0.39626 0.0
C929 C 0.40288 0.0834 0.33899 0.0
C930 C 0.38746 0.08579 0.38645 0.0
C931 C 0.39757 0.08511 0.272 0.0
C932 C 0.41258 0.08122 0.21879 0.0
C933 C 0.42249 0.06205 0.2137 0.0
C934 C 0.43631 0.05839 0.16276 0.0
C935 C 0.44014 0.07369 0.11604 0.0
C936 C 0.43017 0.09267 0.12021 0.0
C937 C 0.4164 0.09644 0.17125 0.0
H938 H 0.45077 0.0708 0.07646 0.0
H939 H 0.30896 0.0941 0.55622 0.0
H940 H 0.44026 0.28881 0.13523 0.0
H941 H 0.42366 0.31286 0.21031 0.0
H942 H 0.47894 0.3139 0.32936 0.0
H943 H 0.49506 0.28916 0.25622 0.0
H944 H 0.44525 0.32548 0.40126 0.0
H945 H 0.47774 0.34821 0.18487 0.0
H946 H 0.47929 0.34748 0.06429 0.0
H947 H 0.41337 0.35475 0.05344 0.0
H948 H 0.41159 0.35604 0.17405 0.0
H949 H 0.50484 0.41098 0.43532 0.0
H950 H 0.48352 0.3804 0.42484 0.0
H951 H 0.43685 0.4156 0.32329 0.0
H952 H 0.45898 0.44621 0.33011 0.0
H953 H 0.44613 0.38629 0.25375 0.0
H954 H 0.42621 0.38688 0.47148 0.0
H955 H 0.42969 0.39243 0.59006 0.0
H956 H 0.47271 0.34251 0.60341 0.0
H957 H 0.46986 0.33684 0.48471 0.0
C958 C 0.44836 0.29337 0.17943 0.0
C959 C 0.46896 0.28747 0.1899 0.0
C960 C 0.43892 0.30714 0.22212 0.0
C961 C 0.45031 0.31568 0.27418 0.0
C962 C 0.46987 0.3076 0.28936 0.0
C963 C 0.47913 0.2935 0.24746 0.0
C964 C 0.44481 0.33604 0.30145 0.0
C965 C 0.44504 0.3389 0.36951 0.0
C966 C 0.44363 0.3535 0.25997 0.0
C967 C 0.4445 0.35196 0.18798 0.0
C968 C 0.4636 0.34958 0.15657 0.0
C969 C 0.46453 0.34916 0.08834 0.0
C970 C 0.44642 0.35092 0.05121 0.0
C971 C 0.42737 0.3533 0.08226 0.0
C972 C 0.4264 0.35398 0.15049 0.0
C973 C 0.48976 0.41246 0.4126 0.0
C974 C 0.48358 0.43114 0.38393 0.0
C975 C 0.47737 0.39489 0.40729 0.0
C976 C 0.45827 0.39563 0.37435 0.0
C977 C 0.45144 0.4146 0.3493 0.0
C978 C 0.46413 0.4321 0.35311 0.0
C979 C 0.44816 0.37601 0.35395 0.0
C980 C 0.44496 0.37321 0.28677 0.0
C981 C 0.44658 0.3588 0.39657 0.0
C982 C 0.44775 0.36139 0.46879 0.0
C983 C 0.43642 0.37705 0.49957 0.0
C984 C 0.43831 0.38025 0.56687 0.0
C985 C 0.45142 0.36783 0.60418 0.0
C986 C 0.46253 0.35208 0.5744 0.0
C987 C 0.46072 0.34882 0.50706 0.0
H988 H 0.45303 0.3705 0.65608 0.0
H989 H 0.44713 0.35053 0.9984 0.0
H990 H 0.23218 0.45107 0.16485 0.0
H991 H 0.20608 0.44583 0.24933 0.0
H992 H 0.2353 0.49282 0.36711 0.0
H993 H 0.2608 0.49887 0.28199 0.0
H994 H 0.20609 0.456 0.43262 0.0
H995 H 0.20906 0.51874 0.27523 0.0
H996 H 0.21347 0.53164 0.1623 0.0
H997 H 0.1714 0.48507 0.09186 0.0
H998 H 0.16688 0.47187 0.20449 0.0
H999 H 0.15329 0.53633 0.58056 0.0
H1000 H 0.17377 0.50928 0.53057 0.0
H1001 H 0.12527 0.49845 0.38873 0.0
H1002 H 0.10548 0.52643 0.43492 0.0
H1003 H 0.1582 0.50582 0.3283 0.0
H1004 H 0.14157 0.4603 0.49591 0.0
H1005 H 0.135 0.44726 0.60713 0.0
H1006 H 0.19922 0.45551 0.65542 0.0
H1007 H 0.20606 0.46929 0.54592 0.0
C1008 C 0.23359 0.45964 0.21006 0.0
C1009 C 0.24801 0.47594 0.21583 0.0
C1010 C 0.2188 0.45643 0.25856 0.0
C1011 C 0.21868 0.46916 0.31372 0.0
C1012 C 0.23526 0.48281 0.32478 0.0
C1013 C 0.24985 0.48629 0.27584 0.0
C1014 C 0.19894 0.47349 0.34618 0.0
C1015 C 0.19538 0.46671 0.41022 0.0
C1016 C 0.18467 0.48675 0.31544 0.0
C1017 C 0.18769 0.49434 0.24785 0.0
C1018 C 0.20082 0.51126 0.23552 0.0
C1019 C 0.20329 0.51863 0.17171 0.0
C1020 C 0.19259 0.50927 0.12004 0.0
C1021 C 0.17958 0.49236 0.13199 0.0
C1022 C 0.17707 0.48492 0.19574 0.0
C1023 C 0.14692 0.52811 0.53897 0.0
C1024 C 0.12794 0.53393 0.51099 0.0
C1025 C 0.15848 0.51233 0.51118 0.0
C1026 C 0.15107 0.5018 0.45574 0.0
C1027 C 0.13133 0.50638 0.43134 0.0
C1028 C 0.11995 0.52237 0.45829 0.0
C1029 C 0.16532 0.48899 0.41681 0.0
C1030 C 0.1681 0.49439 0.35098 0.0
C1031 C 0.17833 0.47401 0.44571 0.0
C1032 C 0.17433 0.46591 0.51245 0.0
C1033 C 0.15426 0.45957 0.53055 0.0
C1034 C 0.15047 0.45206 0.59349 0.0
C1035 C 0.16665 0.4506 0.63862 0.0
C1036 C 0.18664 0.45672 0.6209 0.0
C1037 C 0.1905 0.46439 0.55829 0.0
H1038 H 0.1637 0.44463 0.68714 0.0
H1039 H 0.19444 0.51506 0.07076 0.0
H1040 H 0.95844 0.8068 0.06364 0.0
H1041 H 0.95522 0.82375 0.95689 0.0
H1042 H 0.01576 0.80131 0.90484 0.0
H1043 H 0.01803 0.78327 0.00857 0.0
H1044 H 0.97375 0.85378 0.92549 0.0
H1045 H 0.03041 0.80471 0.75772 0.0
H1046 H 0.0319 0.76924 0.71558 0.0
H1047 H 0.96786 0.75986 0.76255 0.0
H1048 H 0.96578 0.79543 0.80375 0.0
H1049 H 0.05501 0.90938 0.83662 0.0
H1050 H 0.03086 0.88225 0.86864 0.0
H1051 H 1.0134 0.87319 0.66673 0.0
H1052 H 0.03837 0.90025 0.6343 0.0
H1053 H 1.01496 0.83706 0.72911 0.0
H1054 H 0.9793 0.89719 0.76199 0.0
H1055 H 0.9731 0.93355 0.79015 0.0
H1056 H 0.98576 0.92043 0.9921 0.0
H1057 H 0.99243 0.88409 0.9652 0.0
C1058 C 0.97062 0.80496 0.02797 0.0
C1059 C 0.98853 0.79394 0.04391 0.0
C1060 C 0.96882 0.81463 0.96705 0.0
C1061 C 0.98523 0.81396 0.92207 0.0
C1062 C 1.00253 0.80173 0.93699 0.0
C1063 C 1.00402 0.7916 0.99694 0.0
C1064 C 0.98664 0.82921 0.86761 0.0
C1065 C 0.9823 0.84993 0.88184 0.0
C1066 C 0.99655 0.82446 0.80785 0.0
C1067 C 0.99792 0.80288 0.78378 0.0
C1068 C 0.01657 0.7952 0.75862 0.0
C1069 C 0.01752 0.77504 0.73488 0.0
C1070 C 0.99996 0.76234 0.73611 0.0
C1071 C 0.98144 0.76973 0.76147 0.0
C1072 C 0.98037 0.7899 0.7851 0.0
C1073 C 0.04611 0.90154 0.79905 0.0
C1074 C 0.04819 0.90706 0.73317 0.0
C1075 C 0.03222 0.88615 0.81728 0.0
C1076 C 0.0198 0.87625 0.77021 0.0
C1077 C 0.02259 0.88092 0.7038 0.0
C1078 C 0.03681 0.89626 0.68537 0.0
C1079 C 1.00421 0.86102 0.79254 0.0
C1080 C 1.00565 0.84055 0.77152 0.0
C1081 C 0.99066 0.86596 0.8441 0.0
C1082 C 0.98628 0.88779 0.86147 0.0
C1083 C 0.98081 0.90204 0.81243 0.0
C1084 C 0.97723 0.92268 0.82816 0.0
C1085 C 0.979 0.92929 0.89288 0.0
C1086 C 0.98433 0.91527 0.94201 0.0
C1087 C 0.98795 0.89462 0.92655 0.0
H1088 H 0.97626 0.94528 0.90494 0.0
H1089 H 1.00075 0.74673 0.71773 0.0
H1090 H 0.75939 0.96257 0.07835 0.0
H1091 H 0.7341 0.95147 0.9951 0.0
H1092 H 0.70593 1.01159 1.0021 0.0
H1093 H 0.73107 0.02253 0.08393 0.0
H1094 H 0.69505 0.94754 0.02173 0.0
H1095 H 0.68097 0.02479 0.87475 0.0
H1096 H 0.70185 0.05015 0.81359 0.0
H1097 H 0.75004 1.00566 0.79048 0.0
H1098 H 0.72938 0.97986 0.85085 0.0
H1099 H 0.59924 0.98919 0.03601 0.0
H1100 H 0.63402 0.97523 0.03304 0.0
H1101 H 0.63077 0.97181 0.82257 0.0
H1102 H 0.59557 0.98519 0.82546 0.0
H1103 H 0.66279 0.99251 0.85424 0.0
H1104 H 0.63955 0.9276 0.91288 0.0
H1105 H 0.61818 0.90119 0.96778 0.0
H1106 H 0.64535 0.91747 0.15274 0.0
H1107 H 0.66652 0.94433 0.0992 0.0
C1108 C 0.74826 0.97356 0.05981 0.0
C1109 C 0.747 0.99334 0.08717 0.0
C1110 C 0.73382 0.96722 0.01259 0.0
C1111 C 0.71819 0.98071 0.99187 0.0
C1112 C 0.71807 1.001 0.01592 0.0
C1113 C 0.73233 1.00724 0.06311 0.0
C1114 C 0.69976 0.9731 0.95565 0.0
C1115 C 0.68812 0.95703 0.98398 0.0
C1116 C 0.69108 0.98476 0.90399 0.0
C1117 C 0.70354 1.0003 0.86732 0.0
C1118 C 0.69592 0.02029 0.85611 0.0
C1119 C 0.70775 0.03479 0.82168 0.0
C1120 C 0.72723 0.02951 0.79802 0.0
C1121 C 0.73495 1.00973 0.80887 0.0
C1122 C 0.72319 0.99517 0.84333 0.0
C1123 C 0.60556 0.98463 0.98934 0.0
C1124 C 0.59485 0.98862 0.93098 0.0
C1125 C 0.62549 0.97661 0.98757 0.0
C1126 C 0.63501 0.97234 0.92746 0.0
C1127 C 0.62374 0.97494 0.86943 0.0
C1128 C 0.6037 0.98271 0.87121 0.0
C1129 C 0.65757 0.96859 0.92575 0.0
C1130 C 0.66995 0.98239 0.88986 0.0
C1131 C 0.66702 0.9545 0.96913 0.0
C1132 C 0.65475 0.93797 1.00185 0.0
C1133 C 0.64096 0.92559 0.96529 0.0
C1134 C 0.62884 0.91055 0.99619 0.0
C1135 C 0.63045 0.9076 0.06369 0.0
C1136 C 0.64418 0.91971 0.10041 0.0
C1137 C 0.65629 0.93482 0.06975 0.0
H1138 H 0.62103 0.89596 0.08756 0.0
H1139 H 0.73636 0.04076 0.77136 0.0
H1140 H 0.47838 0.73647 0.17765 0.0
H1141 H 0.4675 0.70912 0.10237 0.0
H1142 H 0.51108 0.7316 0.95955 0.0
H1143 H 0.52287 0.75821 0.03562 0.0
H1144 H 0.47093 0.71636 0.91191 0.0
H1145 H 0.53116 0.70257 0.03049 0.0
H1146 H 0.5604 0.70342 0.12379 0.0
H1147 H 0.50786 0.64137 0.22551 0.0
H1148 H 0.485 0.6501 0.11517 0.0
H1149 H 0.50511 0.61519 0.76661 0.0
H1150 H 0.50967 0.63972 0.85709 0.0
H1151 H 0.44368 0.64936 0.86102 0.0
H1152 H 0.43926 0.62556 0.76929 0.0
H1153 H 0.49574 0.6475 0.98337 0.0
H1154 H 0.43556 0.70017 0.85613 0.0
H1155 H 0.42075 0.70554 0.74597 0.0
H1156 H 0.47611 0.68196 0.65934 0.0
H1157 H 0.49128 0.67681 0.76893 0.0
C1158 C 0.48521 0.73592 0.12943 0.0
C1159 C 0.50192 0.74898 0.11312 0.0
C1160 C 0.47907 0.72027 0.08684 0.0
C1161 C 0.48924 0.71795 0.02719 0.0
C1162 C 0.50353 0.73296 1.00651 0.0
C1163 C 0.51006 0.7483 0.04966 0.0
C1164 C 0.48608 0.6992 0.98817 0.0
C1165 C 0.47607 0.70125 0.92787 0.0
C1166 C 0.49356 0.67969 0.00882 0.0
C1167 C 0.50667 0.67719 0.0684 0.0
C1168 C 0.52853 0.69242 0.0716 0.0
C1169 C 0.54744 0.69292 0.12952 0.0
C1170 C 0.5467 0.67691 0.19587 0.0
C1171 C 0.51361 0.65339 0.19247 0.0
C1172 C 0.49913 0.65874 0.12373 0.0
C1173 C 0.49162 0.62233 0.78788 0.0
C1174 C 0.47189 0.61898 0.76078 0.0
C1175 C 0.49419 0.63612 0.83976 0.0
C1176 C 0.47701 0.64647 0.86515 0.0
C1177 C 0.45713 0.64166 0.84159 0.0
C1178 C 0.45462 0.62823 0.78911 0.0
C1179 C 0.48002 0.66463 0.90775 0.0
C1180 C 0.49007 0.6625 0.96849 0.0
C1181 C 0.47334 0.68432 0.88674 0.0
C1182 C 0.46446 0.68788 0.82065 0.0
C1183 C 0.44458 0.69623 0.81353 0.0
C1184 C 0.43612 0.69923 0.75121 0.0
C1185 C 0.44745 0.69403 0.69569 0.0
C1186 C 0.46731 0.68593 0.70234 0.0
C1187 C 0.47584 0.68296 0.7645 0.0
H1188 H 0.44085 0.69632 0.64752 0.0
H1189 H 0.55972 0.67784 0.22992 0.0
H1190 H 0.80882 0.61042 0.15945 0.0
H1191 H 0.83382 0.61918 0.07417 0.0
H1192 H 0.80808 0.57074 0.95308 0.0
H1193 H 0.78277 0.56296 0.0358 0.0
H1194 H 0.86175 0.59544 0.05699 0.0
H1195 H 0.8231 0.56616 0.80879 0.0
H1196 H 0.79356 0.57596 0.73941 0.0
H1197 H 0.79218 0.6356 0.82976 0.0
H1198 H 0.82198 0.62636 0.89903 0.0
H1199 H 0.90356 0.50852 0.94773 0.0
H1200 H 0.88211 0.53747 0.97895 0.0
H1201 H 0.89876 0.56966 0.80166 0.0
H1202 H 0.91958 0.54014 0.76831 0.0
H1203 H 0.85898 0.57416 0.82454 0.0
H1204 H 0.91816 0.59016 0.94688 0.0
H1205 H 0.94932 0.58415 0.0142 0.0
H1206 H 0.91166 0.55857 0.16719 0.0
H1207 H 0.88042 0.56386 0.09977 0.0
C1208 C 0.80792 0.60247 0.11302 0.0
C1209 C 0.79415 0.58579 0.10448 0.0
C1210 C 0.82221 0.60744 0.06429 0.0
C1211 C 0.8232 0.59549 1.00712 0.0
C1212 C 0.80765 0.5806 0.99565 0.0
C1213 C 0.79313 0.57596 0.04361 0.0
C1214 C 0.8428 0.59415 0.96957 0.0
C1215 C 0.86117 0.59142 1.0056 0.0
C1216 C 0.84279 0.58991 0.90163 0.0
C1217 C 0.82494 0.59557 0.85915 0.0
C1218 C 0.81673 0.58148 0.81344 0.0
C1219 C 0.79985 0.58691 0.77423 0.0
C1220 C 0.79101 0.60639 0.78013 0.0
C1221 C 0.79903 0.6205 0.82527 0.0
C1222 C 0.81591 0.61516 0.86461 0.0
C1223 C 0.9025 0.52161 0.91494 0.0
C1224 C 0.91335 0.52205 0.85578 0.0
C1225 C 0.89053 0.53834 0.93333 0.0
C1226 C 0.88938 0.556 0.89352 0.0
C1227 C 0.89975 0.55634 0.83357 0.0
C1228 C 0.91168 0.5395 0.81485 0.0
C1229 C 0.87634 0.57337 0.91446 0.0
C1230 C 0.85958 0.57922 0.87497 0.0
C1231 C 0.87809 0.58128 0.97843 0.0
C1232 C 0.89689 0.57779 0.0189 0.0
C1233 C 0.91654 0.58324 0.99486 0.0
C1234 C 0.93424 0.5799 0.03291 0.0
C1235 C 0.93247 0.57111 0.09511 0.0
C1236 C 0.91302 0.56552 0.11921 0.0
C1237 C 0.89531 0.56877 0.08123 0.0
H1238 H 0.94615 0.56855 0.12458 0.0
H1239 H 0.77794 0.61056 0.74976 0.0
H1240 H 1.01515 0.24303 0.98204 0.0
H1241 H 1.01029 0.21176 0.91551 0.0
H1242 H 0.07513 0.19796 0.9377 0.0
H1243 H 0.08015 0.22948 0.99972 0.0
H1244 H 0.06629 0.18601 0.82805 0.0
H1245 H 0.03244 0.17456 0.03251 0.0
H1246 H 1.00768 0.18099 0.12139 0.0
H1247 H 0.95696 0.17371 0.98688 0.0
H1248 H 0.98146 0.16747 0.897 0.0
H1249 H 0.06337 0.07975 0.73927 0.0
H1250 H 0.06732 0.1119 0.79888 0.0
H1251 H 1.00141 0.12146 0.78419 0.0
H1252 H 0.99728 0.08696 0.73867 0.0
H1253 H 1.01018 0.13696 0.8859 0.0
H1254 H 0.05188 0.14329 0.68172 0.0
H1255 H 0.08168 0.13239 0.61431 0.0
H1256 H 0.12342 0.14687 0.77076 0.0
H1257 H 0.09417 0.15667 0.84044 0.0
C1258 C 0.02844 0.23359 0.9712 0.0
C1259 C 0.04801 0.23882 0.99718 0.0
C1260 C 0.02561 0.21542 0.93395 0.0
C1261 C 0.04221 0.20183 0.92241 0.0
C1262 C 0.0619 0.20778 0.94548 0.0
C1263 C 0.06475 0.22593 0.98161 0.0
C1264 C 0.03944 0.18127 0.88812 0.0
C1265 C 0.05397 0.1753 0.8409 0.0
C1266 C 0.02353 0.16694 0.90417 0.0
C1267 C 1.00878 0.17083 0.95791 0.0
C1268 C 0.01601 0.1745 0.0218 0.0
C1269 C 1.00203 0.17808 0.07237 0.0
C1270 C 0.98077 0.17783 0.05974 0.0
C1271 C 0.97344 0.17395 0.99654 0.0
C1272 C 0.98736 0.17039 0.94578 0.0
C1273 C 0.04966 0.08824 0.75142 0.0
C1274 C 0.03001 0.08022 0.73548 0.0
C1275 C 0.05196 0.10733 0.7833 0.0
C1276 C 0.03482 0.12023 0.79426 0.0
C1277 C 1.01514 0.11233 0.77679 0.0
C1278 C 1.01276 0.09254 0.74939 0.0
C1279 C 0.03698 0.14155 0.82487 0.0
C1280 C 0.02228 0.14772 0.87168 0.0
C1281 C 0.05332 0.15576 0.81026 0.0
C1282 C 0.07077 0.15066 0.76636 0.0
C1283 C 0.06742 0.14419 0.70161 0.0
C1284 C 0.08417 0.13814 0.66313 0.0
C1285 C 0.1043 0.13917 0.6879 0.0
C1286 C 0.10781 0.14611 0.7515 0.0
C1287 C 0.09117 0.15177 0.79067 0.0
H1288 H 0.11717 0.1345 0.65785 0.0
H1289 H 0.96996 0.18059 0.09896 0.0
H1290 H 0.32237 1.00814 0.04782 0.0
H1291 H 0.35279 1.00382 0.97796 0.0
H1292 H 0.33438 0.05641 0.86308 0.0
H1293 H 0.30403 0.06085 0.93362 0.0
H1294 H 0.35304 0.02415 0.78662 0.0
H1295 H 0.367 0.06477 0.97737 0.0
H1296 H 0.36462 0.0706 0.09605 0.0
H1297 H 0.4021 0.01738 0.1321 0.0
H1298 H 0.4043 1.01093 0.01343 0.0
H1299 H 0.45306 0.04401 0.64763 0.0
H1300 H 0.41885 0.0458 0.69832 0.0
H1301 H 0.4404 1.0076 0.8574 0.0
H1302 H 0.47487 1.0071 0.80881 0.0
H1303 H 0.41874 0.03369 0.90948 0.0
H1304 H 0.40213 0.99128 0.71827 0.0
H1305 H 0.39931 0.98281 0.60079 0.0
H1306 H 0.36621 0.03885 0.56582 0.0
H1307 H 0.36842 0.04748 0.68301 0.0
C1308 C 0.32431 0.01819 1.00587 0.0
C1309 C 0.31047 0.03449 0.99521 0.0
C1310 C 0.34188 0.01589 0.96638 0.0
C1311 C 0.3461 0.02989 0.9153 0.0
C1312 C 0.33151 0.04533 0.90178 0.0
C1313 C 0.31403 0.04776 0.94177 0.0
C1314 C 0.36663 0.02971 0.881 0.0
C1315 C 0.36743 0.02638 0.8133 0.0
C1316 C 0.38549 0.03251 0.91555 0.0
C1317 C 0.3856 0.03722 0.98653 0.0
C1318 C 0.37472 0.05429 0.01059 0.0
C1319 C 0.37335 0.05768 0.07785 0.0
C1320 C 0.38304 0.04425 0.12158 0.0
C1321 C 0.39446 0.02766 0.0981 0.0
C1322 C 0.3958 0.02414 0.03082 0.0
C1323 C 0.4504 0.03588 0.69318 0.0
C1324 C 0.46672 0.02535 0.72397 0.0
C1325 C 0.43068 0.03673 0.72213 0.0
C1326 C 0.42647 0.02648 0.7817 0.0
C1327 C 0.44287 0.01576 0.81179 0.0
C1328 C 0.46268 1.01538 0.78376 0.0
C1329 C 0.40549 0.02747 0.81432 0.0
C1330 C 0.40452 0.03122 0.8822 0.0
C1331 C 0.38645 0.02503 0.77975 0.0
C1332 C 0.38566 0.02012 0.70916 0.0
C1333 C 0.3944 1.00186 0.68537 0.0
C1334 C 0.39286 0.99702 0.61891 0.0
C1335 C 0.38283 1.01041 0.57581 0.0
C1336 C 0.37409 0.02857 0.59915 0.0
C1337 C 0.37536 0.03338 0.66559 0.0
H1338 H 0.38172 1.00665 0.52439 0.0
H1339 H 0.3817 0.04673 0.17367 0.0
H1340 H 0.4684 0.31394 0.9766 0.0
H1341 H 0.47421 0.34401 0.9102 0.0
H1342 H 0.53718 0.32519 0.8771 0.0
H1343 H 0.53224 0.29645 0.95381 0.0
H1344 H 0.54069 0.36139 0.88082 0.0
H1345 H 0.49116 0.32716 0.74926 0.0
H1346 H 0.45936 0.30805 0.71936 0.0
H1347 H 0.42238 0.35826 0.78741 0.0
H1348 H 0.45396 0.37765 0.8179 0.0
H1349 H 0.54874 0.44757 0.6561 0.0
H1350 H 0.54514 0.41208 0.69689 0.0
H1351 H 0.48996 0.42909 0.80042 0.0
H1352 H 0.49316 0.46415 0.75816 0.0
H1353 H 0.48476 0.39165 0.74573 0.0
H1354 H 0.54225 0.42546 0.86291 0.0
H1355 H 0.57639 0.44209 0.8569 0.0
H1356 H 0.60282 0.38589 0.78593 0.0
H1357 H 0.56831 0.36945 0.78593 0.0
C1358 C 0.4837 0.31617 0.95641 0.0
C1359 C 0.5 0.30276 0.97336 0.0
C1360 C 0.48686 0.33337 0.91593 0.0
C1361 C 0.50607 0.33726 0.886 0.0
C1362 C 0.52212 0.32306 0.89919 0.0
C1363 C 0.51921 0.30623 0.94257 0.0
C1364 C 0.50954 0.35669 0.84518 0.0
C1365 C 0.52844 0.36759 0.85043 0.0
C1366 C 0.49399 0.36537 0.80405 0.0
C1367 C 0.47492 0.35379 0.78619 0.0
C1368 C 0.47624 0.33407 0.75815 0.0
C1369 C 0.45826 0.32321 0.74101 0.0
C1370 C 0.43886 0.33191 0.7516 0.0
C1371 C 0.43741 0.35152 0.7793 0.0
C1372 C 0.45534 0.36249 0.79632 0.0
C1373 C 0.53585 0.4438 0.68769 0.0
C1374 C 0.52132 0.45905 0.70403 0.0
C1375 C 0.53377 0.42337 0.7111 0.0
C1376 C 0.51741 0.41764 0.75308 0.0
C1377 C 0.50277 0.43281 0.76844 0.0
C1378 C 0.50467 0.45308 0.74427 0.0
C1379 C 0.51559 0.39625 0.7829 0.0
C1380 C 0.49695 0.38513 0.77576 0.0
C1381 C 0.53181 0.3868 0.81898 0.0
C1382 C 0.55265 0.39631 0.82378 0.0
C1383 C 0.55531 0.41667 0.84575 0.0
C1384 C 0.57477 0.42609 0.84311 0.0
C1385 C 0.59191 0.41498 0.82186 0.0
C1386 C 0.58955 0.39448 0.80247 0.0
C1387 C 0.56999 0.38517 0.80306 0.0
H1388 H 0.60703 0.42219 0.82009 0.0
H1389 H 0.42496 0.32348 0.73825 0.0
H1390 H 0.22345 0.47191 0.99599 0.0
H1391 H 0.19312 0.47758 0.92887 0.0
H1392 H 0.21018 0.5416 0.90611 0.0
H1393 H 0.23999 0.53633 0.97992 0.0
H1394 H 0.16913 0.53835 0.92409 0.0
H1395 H 0.21533 0.50378 0.77233 0.0
H1396 H 0.24056 0.47609 0.75319 0.0
H1397 H 0.19419 0.43045 0.79795 0.0
H1398 H 0.16869 0.45789 0.81709 0.0
H1399 H 0.09017 0.55152 0.6818 0.0
H1400 H 0.12448 0.54953 0.73389 0.0
H1401 H 0.1139 0.48504 0.7753 0.0
H1402 H 0.08008 0.48699 0.7211 0.0
H1403 H 0.15328 0.49057 0.74104 0.0
H1404 H 0.10757 0.52199 0.89323 0.0
H1405 H 0.08199 0.54733 0.93049 0.0
H1406 H 0.12581 0.59646 0.89926 0.0
H1407 H 0.15161 0.57142 0.86098 0.0
C1408 C 0.22096 0.48727 0.97672 0.0
C1409 C 0.23436 0.50366 0.9941 0.0
C1410 C 0.20355 0.49046 0.93724 0.0
C1411 C 0.1993 0.50994 0.91032 0.0
C1412 C 0.213 0.52634 0.9256 0.0
C1413 C 0.23031 0.52325 0.96703 0.0
C1414 C 0.1804 0.51288 0.86752 0.0
C1415 C 0.16596 0.52822 0.88306 0.0
C1416 C 0.17561 0.4993 0.81505 0.0
C1417 C 0.19013 0.48285 0.79595 0.0
C1418 C 0.21048 0.48782 0.77731 0.0
C1419 C 0.22485 0.47218 0.76688 0.0
C1420 C 0.21903 0.45153 0.77489 0.0
C1421 C 0.19871 0.44645 0.79215 0.0
C1422 C 0.18425 0.46203 0.80225 0.0
C1423 C 0.09531 0.53689 0.70145 0.0
C1424 C 0.08222 0.51948 0.69858 0.0
C1425 C 0.11489 0.53577 0.73171 0.0
C1426 C 0.12186 0.5172 0.76004 0.0
C1427 C 0.10904 0.49962 0.75458 0.0
C1428 C 0.08951 0.50078 0.7243 0.0
C1429 C 0.14205 0.51618 0.79728 0.0
C1430 C 0.15664 0.50106 0.78098 0.0
C1431 C 0.14681 0.52979 0.84966 0.0
C1432 C 0.13146 0.54486 0.87355 0.0
C1433 C 0.11172 0.53822 0.89389 0.0
C1434 C 0.09718 0.55252 0.91523 0.0
C1435 C 0.10224 0.5735 0.917 0.0
C1436 C 0.1219 0.5802 0.89772 0.0
C1437 C 0.1365 0.56597 0.87625 0.0
H1438 H 0.09095 0.58454 0.93347 0.0
H1439 H 0.2302 0.43945 0.76715 0.0
H1440 H 0.03005 0.8035 0.32012 0.0
H1441 H 0.03371 0.83419 0.39026 0.0
H1442 H 0.97576 0.85718 0.31638 0.0
H1443 H 0.9719 0.82671 0.24783 0.0
H1444 H 1.00456 0.88655 0.30792 0.0
H1445 H 0.98169 0.83942 0.47308 0.0
H1446 H 0.98206 0.80849 0.54335 0.0
H1447 H 0.04122 0.8266 0.62128 0.0
H1448 H 0.04142 0.85748 0.55054 0.0
H1449 H 0.98687 0.97152 0.52292 0.0
H1450 H 0.98439 0.93864 0.465 0.0
H1451 H 0.04495 0.92222 0.53561 0.0
H1452 H 0.04779 0.95541 0.59204 0.0
H1453 H 0.01625 0.88941 0.54716 0.0
H1454 H 0.0401 0.93545 0.37984 0.0
H1455 H 0.04045 0.96594 0.30757 0.0
H1456 H 0.97992 0.94988 0.23576 0.0
H1457 H 0.97918 0.9193 0.30789 0.0
C1458 C 0.01786 0.81486 0.31999 0.0
C1459 C 1.00079 0.81257 0.27735 0.0
C1460 C 0.02001 0.83253 0.36003 0.0
C1461 C 1.00511 0.84835 0.35859 0.0
C1462 C 0.98766 0.84552 0.31826 0.0
C1463 C 0.98548 0.82796 0.27884 0.0
C1464 C 1.00796 0.86836 0.39548 0.0
C1465 C 1.00692 0.88706 0.36043 0.0
C1466 C 1.0116 0.86937 0.46395 0.0
C1467 C 1.01175 0.85058 0.50548 0.0
C1468 C 0.99494 0.83666 0.50442 0.0
C1469 C 0.99501 0.81918 0.54452 0.0
C1470 C 1.01172 0.81552 0.58637 0.0
C1471 C 0.02836 0.82939 0.58847 0.0
C1472 C 0.02839 0.84688 0.54834 0.0
C1473 C 0.99985 0.96115 0.52546 0.0
C1474 C 0.0177 0.96656 0.56164 0.0
C1475 C 0.99834 0.94215 0.49247 0.0
C1476 C 1.0145 0.92774 0.49536 0.0
C1477 C 0.03217 0.93287 0.53257 0.0
C1478 C 0.03378 0.95199 0.56491 0.0
C1479 C 1.01294 0.90746 0.45953 0.0
C1480 C 1.01413 0.8888 0.49469 0.0
C1481 C 1.0095 0.90641 0.39113 0.0
C1482 C 1.00951 0.92519 0.34967 0.0
C1483 C 0.02677 0.93853 0.34914 0.0
C1484 C 0.0271 0.95575 0.30791 0.0
C1485 C 1.01026 0.95979 0.26692 0.0
C1486 C 0.993 0.94667 0.26732 0.0
C1487 C 0.99262 0.92939 0.30832 0.0
H1488 H 1.01053 0.97316 0.23512 0.0
H1489 H 1.01173 0.80195 0.61722 0.0
H1490 H 0.74319 0.97774 0.35059 0.0
H1491 H 0.71274 0.98004 0.42146 0.0
H1492 H 0.70679 0.04439 0.37212 0.0
H1493 H 0.73727 0.04202 0.30133 0.0
H1494 H 0.69518 0.03749 0.49987 0.0
H1495 H 0.68013 1.00884 0.28871 0.0
H1496 H 0.68439 0.98442 0.19762 0.0
H1497 H 0.66787 0.934 0.32403 0.0
H1498 H 0.66389 0.95809 0.41623 0.0
H1499 H 0.57491 0.01822 0.48028 0.0
H1500 H 0.60953 0.01682 0.43436 0.0
H1501 H 0.63564 1.01485 0.62864 0.0
H1502 H 0.6008 0.01701 0.6752 0.0
H1503 H 0.63813 0.99054 0.43159 0.0
H1504 H 0.6849 0.0336 0.62973 0.0
H1505 H 0.67988 0.06046 0.71326 0.0
H1506 H 0.63072 0.08659 0.59898 0.0
H1507 H 0.63553 0.05998 0.51459 0.0
C1508 C 0.73593 0.99258 0.35719 0.0
C1509 C 0.743 1.00983 0.32167 0.0
C1510 C 0.7183 0.99384 0.39704 0.0
C1511 C 0.70715 1.01235 0.40188 0.0
C1512 C 0.71503 0.02994 0.36973 0.0
C1513 C 0.73261 0.02864 0.32961 0.0
C1514 C 0.68636 1.01289 0.43478 0.0
C1515 C 0.68276 0.0271 0.48523 0.0
C1516 C 0.66983 0.99972 0.41517 0.0
C1517 C 0.67195 0.98524 0.35957 0.0
C1518 C 0.67756 0.99253 0.29721 0.0
C1519 C 0.6799 0.97875 0.24536 0.0
C1520 C 0.67646 0.95767 0.25511 0.0
C1521 C 0.67058 0.95033 0.31662 0.0
C1522 C 0.66828 0.96404 0.36869 0.0
C1523 C 0.58795 0.01752 0.51363 0.0
C1524 C 0.58485 0.01778 0.5818 0.0
C1525 C 0.6079 0.01666 0.48703 0.0
C1526 C 0.62554 0.0159 0.52747 0.0
C1527 C 0.62251 0.01585 0.59578 0.0
C1528 C 0.60247 0.01697 0.62255 0.0
C1529 C 0.64685 1.01504 0.49745 0.0
C1530 C 0.65055 1.00078 0.44709 0.0
C1531 C 0.66331 0.02846 0.51629 0.0
C1532 C 0.66046 0.04469 0.56622 0.0
C1533 C 0.67306 0.04511 0.62238 0.0
C1534 C 0.67023 0.06027 0.66992 0.0
C1535 C 0.65492 0.07516 0.66158 0.0
C1536 C 0.64248 0.07498 0.60556 0.0
C1537 C 0.64524 0.05985 0.5579 0.0
H1538 H 0.65275 0.08687 0.69845 0.0
H1539 H 0.67834 0.947 0.21505 0.0
H1540 H 0.56632 0.72803 0.26857 0.0
H1541 H 0.56727 0.6947 0.32644 0.0
H1542 H 0.51238 0.71103 0.43203 0.0
H1543 H 0.51176 0.74449 0.37591 0.0
H1544 H 0.54226 0.68812 0.50584 0.0
H1545 H 0.50894 0.69222 0.29427 0.0
H1546 H 0.50583 0.69954 0.16396 0.0
H1547 H 0.55622 0.62924 0.1471 0.0
H1548 H 0.55319 0.63262 0.27748 0.0
H1549 H 0.51337 0.58832 0.6194 0.0
H1550 H 0.51255 0.62278 0.57042 0.0
H1551 H 0.55395 0.60268 0.419 0.0
H1552 H 0.5537 0.56804 0.46598 0.0
H1553 H 0.52875 0.62752 0.36438 0.0
H1554 H 0.56918 0.63332 0.56244 0.0
H1555 H 0.5751 0.62903 0.6809 0.0
H1556 H 0.52355 0.6682 0.72121 0.0
H1557 H 0.51707 0.67247 0.60293 0.0
C1558 C 0.55507 0.72493 0.30651 0.0
C1559 C 0.53924 0.73921 0.31865 0.0
C1560 C 0.55525 0.70559 0.33813 0.0
C1561 C 0.53932 0.69984 0.38132 0.0
C1562 C 0.52467 0.71484 0.39816 0.0
C1563 C 0.52451 0.73417 0.36677 0.0
C1564 C 0.53723 0.67812 0.40683 0.0
C1565 C 0.53921 0.67494 0.47462 0.0
C1566 C 0.5335 0.66063 0.36591 0.0
C1567 C 0.53151 0.66225 0.29297 0.0
C1568 C 0.51729 0.6822 0.26186 0.0
C1569 C 0.5151 0.68648 0.17951 0.0
C1570 C 0.53552 0.65866 0.11439 0.0
C1571 C 0.54712 0.64166 0.16681 0.0
C1572 C 0.54478 0.64396 0.24932 0.0
C1573 C 0.52222 0.59119 0.57551 0.0
C1574 C 0.53345 0.57513 0.54648 0.0
C1575 C 0.52188 0.61108 0.54747 0.0
C1576 C 0.53348 0.61584 0.49091 0.0
C1577 C 0.54471 0.59974 0.46212 0.0
C1578 C 0.54461 0.57976 0.48925 0.0
C1579 C 0.53456 0.63754 0.46297 0.0
C1580 C 0.5321 0.64075 0.39501 0.0
C1581 C 0.53837 0.65507 0.50283 0.0
C1582 C 0.54256 0.65308 0.57389 0.0
C1583 C 0.55907 0.64097 0.5966 0.0
C1584 C 0.56249 0.63851 0.66369 0.0
C1585 C 0.54962 0.64826 0.70854 0.0
C1586 C 0.5334 0.66059 0.68638 0.0
C1587 C 0.52988 0.66307 0.61933 0.0
H1588 H 0.55225 0.64631 0.76047 0.0
H1589 H 0.53772 0.65615 0.062 0.0
H1590 H 0.80915 0.58142 0.35089 0.0
H1591 H 0.84081 0.57501 0.41341 0.0
H1592 H 0.83996 0.51167 0.35004 0.0
H1593 H 0.80795 0.5181 0.28761 0.0
H1594 H 0.85572 0.51615 0.47915 0.0
H1595 H 0.86516 0.5468 0.26875 0.0
H1596 H 0.85809 0.57313 0.1849 0.0
H1597 H 0.88649 0.61952 0.30547 0.0
H1598 H 0.89224 0.59381 0.39253 0.0
H1599 H 0.96412 0.49923 0.52765 0.0
H1600 H 0.92951 0.50219 0.4793 0.0
H1601 H 0.92885 0.56688 0.52708 0.0
H1602 H 0.96326 0.56382 0.57694 0.0
H1603 H 0.91389 0.56057 0.40405 0.0
H1604 H 0.90134 0.53202 0.61651 0.0
H1605 H 0.90616 0.50713 0.70647 0.0
H1606 H 0.88478 0.45793 0.58286 0.0
H1607 H 0.88012 0.48248 0.49165 0.0
C1608 C 0.81527 0.56593 0.35219 0.0
C1609 C 0.80588 0.55024 0.31463 0.0
C1610 C 0.83353 0.5623 0.38757 0.0
C1611 C 0.84316 0.54294 0.38573 0.0
C1612 C 0.83296 0.52677 0.35236 0.0
C1613 C 0.81454 0.5304 0.31696 0.0
C1614 C 0.86472 0.54037 0.41272 0.0
C1615 C 0.86847 0.52569 0.46205 0.0
C1616 C 0.88148 0.55302 0.39142 0.0
C1617 C 0.8789 0.56835 0.33776 0.0
C1618 C 0.86971 0.56265 0.27787 0.0
C1619 C 0.8659 0.57748 0.22971 0.0
C1620 C 0.87203 0.59794 0.2395 0.0
C1621 C 0.88177 0.60365 0.29788 0.0
C1622 C 0.88514 0.58898 0.34696 0.0
C1623 C 0.95659 0.5141 0.52813 0.0
C1624 C 0.9667 0.53138 0.55557 0.0
C1625 C 0.93673 0.51577 0.50035 0.0
C1626 C 0.92631 0.53476 0.49947 0.0
C1627 C 0.93645 0.55206 0.52655 0.0
C1628 C 0.95625 0.55033 0.55479 0.0
C1629 C 0.90485 0.53654 0.47105 0.0
C1630 C 0.90115 0.55102 0.42111 0.0
C1631 C 0.88814 0.52381 0.49197 0.0
C1632 C 0.89057 0.50906 0.54701 0.0
C1633 C 0.89779 0.51587 0.60833 0.0
C1634 C 0.90048 0.50183 0.65959 0.0
C1635 C 0.89584 0.48096 0.65037 0.0
C1636 C 0.8884 0.4741 0.5899 0.0
C1637 C 0.88572 0.48807 0.5384 0.0
H1638 H 0.89796 0.47013 0.69013 0.0
H1639 H 0.86918 0.60936 0.20192 0.0
loop_
_geom_bond_atom_site_label_1
_geom_bond_atom_site_label_2
_geom_bond_distance
_geom_bond_site_symmetry_2
_ccdc_geom_bond_type
H0 C7 0.929 . S
H1 C10 0.930 . S
H2 C12 0.929 . S
H3 C4 0.969 . S
C4 H3 0.969 . S
C4 O5 1.550 . S
C4 H6 0.973 . S
O5 C4 1.550 . S
O5 C11 1.412 . S
H6 C4 0.973 . S
C7 H0 0.929 . S
C7 C8 1.400 . S
C7 C9 1.364 . S
C8 C7 1.400 . S
C8 C12 1.377 . S
C9 C7 1.364 . S
C9 C10 1.374 . S
C10 H1 0.930 . S
C10 C9 1.374 . S
C10 C11 1.383 . S
C11 O5 1.412 . S
C11 C10 1.383 . S
C11 C12 1.394 . S
C12 H2 0.929 . S
C12 C8 1.377 . S
C12 C11 1.394 . S
H13 C20 0.929 . S
H14 C23 0.930 . S
H15 C25 0.929 . S
H16 C17 0.969 . S
C17 H16 0.969 . S
C17 O18 1.550 . S
C17 H19 0.973 . S
O18 C17 1.550 . S
O18 C24 1.412 . S
H19 C17 0.973 . S
C20 H13 0.929 . S
C20 C21 1.400 . S
C20 C22 1.364 . S
C21 C20 1.400 . S
C21 C25 1.377 . S
C22 C20 1.364 . S
C22 C23 1.374 . S
C23 H14 0.930 . S
C23 C22 1.374 . S
C23 C24 1.383 . S
C24 O18 1.412 . S
C24 C23 1.383 . S
C24 C25 1.394 . S
C25 H15 0.929 . S
C25 C21 1.377 . S
C25 C24 1.394 . S
H26 C33 0.929 . S
H27 C36 0.930 . S
H28 C38 0.929 . S
H29 C30 0.969 . S
C30 H29 0.969 . S
C30 O31 1.550 . S
C30 H32 0.973 . S
O31 C30 1.550 . S
O31 C37 1.412 . S
H32 C30 0.973 . S
C33 H26 0.929 . S
C33 C34 1.400 . S
C33 C35 1.364 . S
C34 C33 1.400 . S
C34 C38 1.377 . S
C35 C33 1.364 . S
C35 C36 1.374 . S
C36 H27 0.930 . S
C36 C35 1.374 . S
C36 C37 1.383 . S
C37 O31 1.412 . S
C37 C36 1.383 . S
C37 C38 1.394 . S
C38 H28 0.929 . S
C38 C34 1.377 . S
C38 C37 1.394 . S
H39 C46 0.929 . S
H40 C49 0.930 . S
H41 C51 0.929 . S
H42 C43 0.969 . S
C43 H42 0.969 . S
C43 O44 1.550 . S
C43 H45 0.973 . S
O44 C43 1.550 . S
O44 C50 1.412 . S
H45 C43 0.973 . S
C46 H39 0.929 . S
C46 C47 1.400 . S
C46 C48 1.364 . S
C47 C46 1.400 . S
C47 C51 1.377 . S
C48 C46 1.364 . S
C48 C49 1.374 . S
C49 H40 0.930 . S
C49 C48 1.374 . S
C49 C50 1.383 . S
C50 O44 1.412 . S
C50 C49 1.383 . S
C50 C51 1.394 . S
C51 H41 0.929 . S
C51 C47 1.377 . S
C51 C50 1.394 . S
H52 C59 0.929 . S
H53 C62 0.930 . S
H54 C64 0.929 . S
H55 C56 0.969 . S
C56 H55 0.969 . S
C56 O57 1.550 . S
C56 H58 0.973 . S
O57 C56 1.550 . S
O57 C63 1.412 . S
H58 C56 0.973 . S
C59 H52 0.929 . S
C59 C60 1.400 1_554 S
C59 C61 1.364 . S
C60 C59 1.400 1_556 S
C60 C64 1.377 . S
C61 C59 1.364 . S
C61 C62 1.374 . S
C62 H53 0.930 . S
C62 C61 1.374 . S
C62 C63 1.383 . S
C63 O57 1.412 . S
C63 C62 1.383 . S
C63 C64 1.394 1_554 S
C64 H54 0.929 . S
C64 C60 1.377 . S
C64 C63 1.394 1_556 S
H65 C72 0.929 . S
H66 C75 0.930 . S
H67 C77 0.929 . S
H68 C69 0.969 . S
C69 H68 0.969 . S
C69 O70 1.550 . S
C69 H71 0.973 . S
O70 C69 1.550 . S
O70 C76 1.412 . S
H71 C69 0.973 . S
C72 H65 0.929 . S
C72 C73 1.400 1_554 S
C72 C74 1.364 . S
C73 C72 1.400 1_556 S
C73 C77 1.377 . S
C74 C72 1.364 . S
C74 C75 1.374 . S
C75 H66 0.930 . S
C75 C74 1.374 . S
C75 C76 1.383 . S
C76 O70 1.412 . S
C76 C75 1.383 . S
C76 C77 1.394 1_554 S
C77 H67 0.929 . S
C77 C73 1.377 . S
C77 C76 1.394 1_556 S
H78 C85 0.929 . S
H79 C88 0.930 . S
H80 C90 0.929 . S
H81 C82 0.969 . S
C82 H81 0.969 . S
C82 O83 1.550 . S
C82 H84 0.973 . S
O83 C82 1.550 . S
O83 C89 1.412 . S
H84 C82 0.973 . S
C85 H78 0.929 . S
C85 C86 1.400 1_554 S
C85 C87 1.364 . S
C86 C85 1.400 1_556 S
C86 C90 1.377 . S
C87 C85 1.364 . S
C87 C88 1.374 . S
C88 H79 0.930 . S
C88 C87 1.374 . S
C88 C89 1.383 . S
C89 O83 1.412 . S
C89 C88 1.383 . S
C89 C90 1.394 1_554 S
C90 H80 0.929 . S
C90 C86 1.377 . S
C90 C89 1.394 1_556 S
H91 C98 0.929 . S
H92 C101 0.930 . S
H93 C103 0.929 . S
H94 C95 0.969 . S
C95 H94 0.969 . S
C95 O96 1.550 . S
C95 H97 0.973 . S
O96 C95 1.550 . S
O96 C102 1.412 . S
H97 C95 0.973 . S
C98 H91 0.929 . S
C98 C99 1.400 1_554 S
C98 C100 1.364 . S
C99 C98 1.400 1_556 S
C99 C103 1.377 . S
C100 C98 1.364 . S
C100 C101 1.374 . S
C101 H92 0.930 . S
C101 C100 1.374 . S
C101 C102 1.383 . S
C102 O96 1.412 . S
C102 C101 1.383 . S
C102 C103 1.394 1_554 S
C103 H93 0.929 . S
C103 C99 1.377 . S
C103 C102 1.394 1_556 S
C104 C106 1.422 . S
C104 C108 1.415 . S
C104 N110 1.369 . S
C105 C106 1.421 . S
C105 C107 1.417 . S
C105 C117 1.422 . S
C106 C104 1.422 . S
C106 C105 1.421 . S
C106 N116 1.359 . S
C107 C105 1.417 . S
C107 C109 1.329 . S
C107 H126 0.930 . S
C108 C104 1.415 . S
C108 C109 1.437 . S
C108 C112 1.413 . S
C109 C107 1.329 . S
C109 C108 1.437 . S
C109 H131 0.929 . S
N110 C104 1.369 . S
N110 C111 1.343 . S
N110 Gd115 2.622 1_545 S
C111 N110 1.343 . S
C111 C113 1.395 . S
C111 H123 0.908 1_545 S
C112 C108 1.413 . S
C112 C113 1.348 . S
C112 H128 0.931 . S
C113 C111 1.395 . S
C113 C112 1.348 . S
C113 H129 0.930 . S
Gd114 N134 2.622 . S
Gd114 N141 2.570 . S
Gd114 O148 2.353 1_655 S
Gd114 O149 2.468 1_655 S
Gd114 O150 2.427 . S
Gd114 O152 2.388 . S
Gd114 O153 2.386 1_545 S
Gd114 O157 2.307 1_655 S
Gd114 C167 2.805 . S
Gd115 N110 2.622 1_565 S
Gd115 N116 2.570 1_565 S
Gd115 O147 2.386 1_565 S
Gd115 O151 2.307 1_465 S
Gd115 O154 2.353 . S
Gd115 O155 2.468 . S
Gd115 O156 2.427 . S
Gd115 O158 2.388 . S
Gd115 C179 2.805 . S
N116 C106 1.359 . S
N116 Gd115 2.570 1_545 S
N116 C118 1.343 . S
C117 C105 1.422 . S
C117 C119 1.321 . S
C117 H125 0.931 . S
C118 N116 1.343 . S
C118 C119 1.390 . S
C118 H120 0.931 1_455 S
C119 C117 1.321 . S
C119 C118 1.390 . S
C119 H121 0.930 1_455 S
H120 C118 0.931 1_655 S
H121 C119 0.930 1_655 S
H122 C145 0.931 . S
H123 C111 0.908 1_565 S
H124 C146 0.934 . S
H125 C117 0.931 . S
H126 C107 0.930 . S
H127 C136 0.929 . S
H128 C112 0.931 . S
H129 C113 0.930 . S
H130 C168 0.930 . S
H131 C109 0.929 . S
H132 C137 0.938 . S
H133 C138 0.930 . S
N134 Gd114 2.622 . S
N134 C135 1.369 . S
N134 C136 1.338 . S
C135 N134 1.369 . S
C135 C139 1.415 1_545 S
C135 C142 1.422 . S
C136 H127 0.929 . S
C136 N134 1.338 . S
C136 C138 1.378 . S
C137 H132 0.938 . S
C137 C138 1.339 1_565 S
C137 C139 1.415 . S
C138 H133 0.930 . S
C138 C136 1.378 . S
C138 C137 1.339 1_545 S
C139 C135 1.415 1_565 S
C139 C137 1.415 . S
C139 C169 1.437 . S
H140 C169 0.929 . S
N141 Gd114 2.570 . S
N141 C142 1.359 . S
N141 C145 1.343 1_655 S
C142 C135 1.422 . S
C142 N141 1.359 . S
C142 C144 1.421 1_545 S
C143 C144 1.422 . S
C143 C146 1.337 1_655 S
C143 H170 0.931 . S
C144 C142 1.421 1_565 S
C144 C143 1.422 . S
C144 C168 1.417 . S
C145 H122 0.931 . S
C145 N141 1.343 1_455 S
C145 C146 1.372 1_545 S
C146 H124 0.934 . S
C146 C143 1.337 1_455 S
C146 C145 1.372 1_565 S
O147 Gd115 2.386 1_545 S
O147 C159 1.265 . S
O148 Gd114 2.353 1_455 S
O148 C159 1.242 . S
O149 Gd114 2.468 1_455 S
O149 C167 1.263 1_455 S
O150 Gd114 2.427 . S
O150 C167 1.252 . S
O151 Gd115 2.307 1_645 S
O151 C160 1.261 . S
O152 Gd114 2.388 . S
O152 C160 1.252 . S
O153 Gd114 2.386 1_565 S
O153 C171 1.265 . S
O154 Gd115 2.353 . S
O154 C171 1.242 1_455 S
O155 Gd115 2.468 . S
O155 C179 1.263 . S
O156 Gd115 2.427 . S
O156 C179 1.252 . S
O157 Gd114 2.307 1_455 S
O157 C172 1.261 . S
O158 Gd115 2.388 . S
O158 C172 1.252 1_565 S
C159 O147 1.265 . S
C159 O148 1.242 . S
C160 O151 1.261 . S
C160 O152 1.252 . S
C161 C164 1.394 . S
C161 C166 1.345 1_655 S
C161 C167 1.500 . S
C162 C165 1.383 . S
C162 C166 1.392 1_655 S
C163 C164 1.396 . S
C163 C165 1.365 . S
C163 H180 0.929 . S
C164 C161 1.394 . S
C164 C163 1.396 . S
C164 H181 0.930 . S
C165 C162 1.383 . S
C165 C163 1.365 . S
C165 H182 0.931 . S
C166 C161 1.345 1_455 S
C166 C162 1.392 1_455 S
C166 H183 0.960 . S
C167 Gd114 2.805 . S
C167 O149 1.263 1_655 S
C167 O150 1.252 . S
C167 C161 1.500 . S
C168 H130 0.930 . S
C168 C144 1.417 . S
C168 C169 1.329 . S
C169 C139 1.437 . S
C169 H140 0.929 . S
C169 C168 1.329 . S
H170 C143 0.931 . S
C171 O153 1.265 . S
C171 O154 1.242 1_655 S
C172 O157 1.261 . S
C172 O158 1.252 1_545 S
C173 C176 1.394 . S
C173 C178 1.370 . S
C173 C179 1.500 . S
C174 C177 1.383 . S
C174 C178 1.395 . S
C175 C176 1.396 . S
C175 C177 1.365 . S
C175 H184 0.929 . S
C176 C173 1.394 . S
C176 C175 1.396 . S
C176 H185 0.930 . S
C177 C174 1.383 . S
C177 C175 1.365 . S
C177 H186 0.931 . S
C178 C173 1.370 . S
C178 C174 1.395 . S
C178 H187 0.892 1_455 S
C179 Gd115 2.805 . S
C179 O155 1.263 . S
C179 O156 1.252 . S
C179 C173 1.500 . S
H180 C163 0.929 . S
H181 C164 0.930 . S
H182 C165 0.931 . S
H183 C166 0.960 . S
H184 C175 0.929 . S
H185 C176 0.930 . S
H186 C177 0.931 . S
H187 C178 0.892 1_655 S
C188 C190 1.422 . S
C188 C192 1.415 . S
C188 N194 1.369 . S
C189 C190 1.421 . S
C189 C191 1.417 . S
C189 C201 1.422 . S
C190 C188 1.422 . S
C190 C189 1.421 . S
C190 N200 1.359 . S
C191 C189 1.417 . S
C191 C193 1.329 . S
C191 H210 0.930 . S
C192 C188 1.415 . S
C192 C193 1.437 . S
C192 C196 1.413 . S
C193 C191 1.329 . S
C193 C192 1.437 . S
C193 H215 0.929 . S
N194 C188 1.369 . S
N194 C195 1.338 . S
N194 Gd199 2.622 . S
C195 N194 1.338 . S
C195 C197 1.378 . S
C195 H207 0.929 . S
C196 C192 1.413 . S
C196 C197 1.348 . S
C196 H212 0.931 . S
C197 C195 1.378 . S
C197 C196 1.348 . S
C197 H213 0.930 . S
Gd198 N218 2.622 . S
Gd198 N225 2.570 . S
Gd198 O232 2.353 1_545 S
Gd198 O233 2.468 . S
Gd198 O234 2.427 . S
Gd198 O236 2.388 . S
Gd198 O237 2.386 . S
Gd198 O241 2.307 . S
Gd198 C251 2.805 . S
Gd199 N194 2.622 . S
Gd199 N200 2.570 . S
Gd199 O231 2.386 . S
Gd199 O235 2.307 1_565 S
Gd199 O238 2.353 1_565 S
Gd199 O239 2.476 . S
Gd199 O240 2.427 . S
Gd199 O242 2.388 . S
Gd199 C263 2.805 . S
N200 C190 1.359 . S
N200 Gd199 2.570 . S
N200 C202 1.343 . S
C201 C189 1.422 . S
C201 C203 1.321 . S
C201 H209 0.931 . S
C202 N200 1.343 . S
C202 C203 1.390 . S
C202 H204 0.931 . S
C203 C201 1.321 . S
C203 C202 1.390 . S
C203 H205 0.930 . S
H204 C202 0.931 . S
H205 C203 0.930 . S
H206 C229 0.931 . S
H207 C195 0.929 . S
H208 C230 0.930 . S
H209 C201 0.931 . S
H210 C191 0.930 . S
H211 C220 0.929 . S
H212 C196 0.931 . S
H213 C197 0.930 . S
H214 C252 0.930 . S
H215 C193 0.929 . S
H216 C221 0.931 . S
H217 C222 0.930 . S
N218 Gd198 2.622 . S
N218 C219 1.369 . S
N218 C220 1.338 . S
C219 N218 1.369 . S
C219 C223 1.415 . S
C219 C226 1.422 . S
C220 H211 0.929 . S
C220 N218 1.338 . S
C220 C222 1.378 . S
C221 H216 0.931 . S
C221 C222 1.348 . S
C221 C223 1.413 . S
C222 H217 0.930 . S
C222 C220 1.378 . S
C222 C221 1.348 . S
C223 C219 1.415 . S
C223 C221 1.413 . S
C223 C253 1.437 . S
H224 C253 0.929 . S
N225 Gd198 2.570 . S
N225 C226 1.359 . S
N225 C229 1.343 . S
C226 C219 1.422 . S
C226 N225 1.359 . S
C226 C228 1.421 . S
C227 C228 1.422 . S
C227 C230 1.321 . S
C227 H254 0.931 . S
C228 C226 1.421 . S
C228 C227 1.422 . S
C228 C252 1.417 . S
C229 H206 0.931 . S
C229 N225 1.343 . S
C229 C230 1.390 . S
C230 H208 0.930 . S
C230 C227 1.321 . S
C230 C229 1.390 . S
O231 Gd199 2.386 . S
O231 C243 1.265 . S
O232 Gd198 2.353 1_565 S
O232 C243 1.242 . S
O233 Gd198 2.468 . S
O233 C251 1.263 . S
O234 Gd198 2.427 . S
O234 C251 1.252 . S
O235 Gd199 2.307 1_545 S
O235 C244 1.261 . S
O236 Gd198 2.388 . S
O236 C244 1.252 . S
O237 Gd198 2.386 . S
O237 C255 1.265 . S
O238 Gd199 2.353 1_545 S
O238 C255 1.242 . S
O239 Gd199 2.476 . S
O239 C263 1.268 . S
O240 Gd199 2.427 . S
O240 C263 1.252 . S
O241 Gd198 2.307 . S
O241 C256 1.261 . S
O242 Gd199 2.388 . S
O242 C256 1.252 1_565 S
C243 O231 1.265 . S
C243 O232 1.242 . S
C244 O235 1.261 . S
C244 O236 1.252 . S
C245 C248 1.394 . S
C245 C250 1.370 . S
C245 C251 1.500 . S
C246 C249 1.383 . S
C246 C250 1.395 . S
C247 C248 1.396 . S
C247 C249 1.365 . S
C247 H264 0.929 1_556 S
C248 C245 1.394 . S
C248 C247 1.396 . S
C248 H265 0.930 . S
C249 C246 1.383 . S
C249 C247 1.365 . S
C249 H266 0.931 . S
C250 C245 1.370 . S
C250 C246 1.395 . S
C250 H267 0.930 . S
C251 Gd198 2.805 . S
C251 O233 1.263 . S
C251 O234 1.252 . S
C251 C245 1.500 . S
C252 H214 0.930 . S
C252 C228 1.417 . S
C252 C253 1.329 . S
C253 C223 1.437 . S
C253 H224 0.929 . S
C253 C252 1.329 . S
H254 C227 0.931 . S
C255 O237 1.265 . S
C255 O238 1.242 . S
C256 O241 1.261 . S
C256 O242 1.252 1_545 S
C257 C260 1.399 . S
C257 C262 1.363 1_565 S
C257 C263 1.503 . S
C258 C261 1.383 . S
C258 C262 1.395 . S
C259 C260 1.396 . S
C259 C261 1.365 1_565 S
C259 H268 0.929 . S
C260 C257 1.399 . S
C260 C259 1.396 . S
C260 H269 0.930 . S
C261 C258 1.383 . S
C261 C259 1.365 1_545 S
C261 H270 0.931 . S
C262 C257 1.363 1_545 S
C262 C258 1.395 . S
C262 H271 0.930 . S
C263 Gd199 2.805 . S
C263 O239 1.268 . S
C263 O240 1.252 . S
C263 C257 1.503 . S
H264 C247 0.929 1_554 S
H265 C248 0.930 . S
H266 C249 0.931 . S
H267 C250 0.930 . S
H268 C259 0.929 . S
H269 C260 0.930 . S
H270 C261 0.931 . S
H271 C262 0.930 . S
C272 C274 1.422 . S
C272 C276 1.415 . S
C272 N278 1.369 . S
C273 C274 1.421 . S
C273 C275 1.417 . S
C273 C285 1.422 . S
C274 C272 1.422 . S
C274 C273 1.421 . S
C274 N284 1.359 . S
C275 C273 1.417 . S
C275 C277 1.329 . S
C275 H294 0.930 . S
C276 C272 1.415 . S
C276 C277 1.437 . S
C276 C280 1.413 . S
C277 C275 1.329 . S
C277 C276 1.437 . S
C277 H299 0.929 . S
N278 C272 1.369 . S
N278 C279 1.338 . S
N278 Gd283 2.622 . S
C279 N278 1.338 . S
C279 C281 1.378 . S
C279 H291 0.929 . S
C280 C276 1.413 . S
C280 C281 1.348 . S
C280 H296 0.931 . S
C281 C279 1.378 . S
C281 C280 1.348 . S
C281 H297 0.930 . S
Gd282 N302 2.622 . S
Gd282 N309 2.570 . S
Gd282 O316 2.353 . S
Gd282 O317 2.468 . S
Gd282 O318 2.427 . S
Gd282 O320 2.388 . S
Gd282 O321 2.386 . S
Gd282 O325 2.307 . S
Gd282 C335 2.805 . S
Gd283 N278 2.622 . S
Gd283 N284 2.570 . S
Gd283 O315 2.386 . S
Gd283 O319 2.307 . S
Gd283 O322 2.353 . S
Gd283 O323 2.468 . S
Gd283 O324 2.427 . S
Gd283 O326 2.388 . S
Gd283 C347 2.805 . S
N284 C274 1.359 . S
N284 Gd283 2.570 . S
N284 C286 1.343 . S
C285 C273 1.422 . S
C285 C287 1.321 . S
C285 H293 0.931 . S
C286 N284 1.343 . S
C286 C287 1.390 . S
C286 H288 0.931 . S
C287 C285 1.321 . S
C287 C286 1.390 . S
C287 H289 0.930 . S
H288 C286 0.931 . S
H289 C287 0.930 . S
H290 C313 0.931 . S
H291 C279 0.929 . S
H292 C314 0.930 . S
H293 C285 0.931 . S
H294 C275 0.930 . S
H295 C304 0.929 . S
H296 C280 0.931 . S
H297 C281 0.930 . S
H298 C336 0.930 . S
H299 C277 0.929 . S
H300 C305 0.931 . S
H301 C306 0.930 . S
N302 Gd282 2.622 . S
N302 C303 1.369 . S
N302 C304 1.338 . S
C303 N302 1.369 . S
C303 C307 1.415 . S
C303 C310 1.422 . S
C304 H295 0.929 . S
C304 N302 1.338 . S
C304 C306 1.378 . S
C305 H300 0.931 . S
C305 C306 1.348 . S
C305 C307 1.413 . S
C306 H301 0.930 . S
C306 C304 1.378 . S
C306 C305 1.348 . S
C307 C303 1.415 . S
C307 C305 1.413 . S
C307 C337 1.437 . S
H308 C337 0.929 . S
N309 Gd282 2.570 . S
N309 C310 1.359 . S
N309 C313 1.343 . S
C310 C303 1.422 . S
C310 N309 1.359 . S
C310 C312 1.421 . S
C311 C312 1.422 . S
C311 C314 1.321 . S
C311 H338 0.931 . S
C312 C310 1.421 . S
C312 C311 1.422 . S
C312 C336 1.417 . S
C313 H290 0.931 . S
C313 N309 1.343 . S
C313 C314 1.390 . S
C314 H292 0.930 . S
C314 C311 1.321 . S
C314 C313 1.390 . S
O315 Gd283 2.386 . S
O315 C327 1.265 . S
O316 Gd282 2.353 . S
O316 C327 1.242 . S
O317 Gd282 2.468 . S
O317 C335 1.263 . S
O318 Gd282 2.427 . S
O318 C335 1.252 . S
O319 Gd283 2.307 . S
O319 C328 1.261 . S
O320 Gd282 2.388 . S
O320 C328 1.252 . S
O321 Gd282 2.386 . S
O321 C339 1.265 . S
O322 Gd283 2.353 . S
O322 C339 1.242 . S
O323 Gd283 2.468 . S
O323 C347 1.263 . S
O324 Gd283 2.427 . S
O324 C347 1.252 . S
O325 Gd282 2.307 . S
O325 C340 1.261 . S
O326 Gd283 2.388 . S
O326 C340 1.252 . S
C327 O315 1.265 . S
C327 O316 1.242 . S
C328 O319 1.261 . S
C328 O320 1.252 . S
C329 C332 1.394 . S
C329 C334 1.370 . S
C329 C335 1.500 . S
C330 C333 1.383 . S
C330 C334 1.395 . S
C331 C332 1.396 . S
C331 C333 1.365 . S
C331 H348 0.929 . S
C332 C329 1.394 . S
C332 C331 1.396 . S
C332 H349 0.930 . S
C333 C330 1.383 . S
C333 C331 1.365 . S
C333 H350 0.931 . S
C334 C329 1.370 . S
C334 C330 1.395 . S
C334 H351 0.930 . S
C335 Gd282 2.805 . S
C335 O317 1.263 . S
C335 O318 1.252 . S
C335 C329 1.500 . S
C336 H298 0.930 . S
C336 C312 1.417 . S
C336 C337 1.329 . S
C337 C307 1.437 . S
C337 H308 0.929 . S
C337 C336 1.329 . S
H338 C311 0.931 . S
C339 O321 1.265 . S
C339 O322 1.242 . S
C340 O325 1.261 . S
C340 O326 1.252 . S
C341 C344 1.394 . S
C341 C346 1.370 . S
C341 C347 1.500 . S
C342 C345 1.383 . S
C342 C346 1.395 . S
C343 C344 1.396 . S
C343 C345 1.365 . S
C343 H352 0.929 . S
C344 C341 1.394 . S
C344 C343 1.396 . S
C344 H353 0.930 . S
C345 C342 1.383 . S
C345 C343 1.365 . S
C345 H354 0.931 . S
C346 C341 1.370 . S
C346 C342 1.395 . S
C346 H355 0.930 . S
C347 Gd283 2.805 . S
C347 O323 1.263 . S
C347 O324 1.252 . S
C347 C341 1.500 . S
H348 C331 0.929 . S
H349 C332 0.930 . S
H350 C333 0.931 . S
H351 C334 0.930 . S
H352 C343 0.929 . S
H353 C344 0.930 . S
H354 C345 0.931 . S
H355 C346 0.930 . S
C356 C358 1.422 . S
C356 C360 1.415 . S
C356 N362 1.353 1_455 S
C357 C358 1.421 . S
C357 C359 1.417 . S
C357 C369 1.422 . S
C358 C356 1.422 . S
C358 C357 1.421 . S
C358 N368 1.359 . S
C359 C357 1.417 . S
C359 C361 1.329 . S
C359 H378 0.930 . S
C360 C356 1.415 . S
C360 C361 1.437 . S
C360 C364 1.413 . S
C361 C359 1.329 . S
C361 C360 1.437 . S
C361 H383 0.929 . S
N362 C356 1.353 1_655 S
N362 C363 1.342 . S
N362 Gd367 2.631 . S
C363 N362 1.342 . S
C363 C365 1.378 1_655 S
C363 H375 0.929 . S
C364 C360 1.413 . S
C364 C365 1.348 . S
C364 H380 0.931 . S
C365 C363 1.378 1_455 S
C365 C364 1.348 . S
C365 H381 0.930 . S
Gd366 N386 2.622 . S
Gd366 N393 2.570 . S
Gd366 O400 2.353 . S
Gd366 O401 2.468 . S
Gd366 O402 2.427 . S
Gd366 O404 2.388 . S
Gd366 O405 2.386 1_455 S
Gd366 O409 2.307 . S
Gd366 C419 2.805 . S
Gd367 N362 2.631 . S
Gd367 N368 2.570 1_655 S
Gd367 O399 2.386 1_655 S
Gd367 O403 2.292 1_655 S
Gd367 O406 2.353 . S
Gd367 O407 2.468 . S
Gd367 O408 2.427 . S
Gd367 O410 2.388 . S
Gd367 C431 2.805 . S
N368 C358 1.359 . S
N368 Gd367 2.570 1_455 S
N368 C370 1.343 . S
C369 C357 1.422 . S
C369 C371 1.321 . S
C369 H377 0.931 . S
C370 N368 1.343 . S
C370 C371 1.390 . S
C370 H372 0.939 . S
C371 C369 1.321 . S
C371 C370 1.390 . S
C371 H373 0.930 . S
H372 C370 0.939 . S
H373 C371 0.930 . S
H374 C397 0.931 . S
H375 C363 0.929 . S
H376 C398 0.930 . S
H377 C369 0.931 . S
H378 C359 0.930 . S
H379 C388 0.929 . S
H380 C364 0.931 . S
H381 C365 0.930 . S
H382 C420 0.930 . S
H383 C361 0.929 . S
H384 C389 0.931 . S
H385 C390 0.930 . S
N386 Gd366 2.622 . S
N386 C387 1.369 . S
N386 C388 1.338 . S
C387 N386 1.369 . S
C387 C391 1.415 1_455 S
C387 C394 1.422 . S
C388 H379 0.929 . S
C388 N386 1.338 . S
C388 C390 1.378 . S
C389 H384 0.931 . S
C389 C390 1.348 1_655 S
C389 C391 1.413 . S
C390 H385 0.930 . S
C390 C388 1.378 . S
C390 C389 1.348 1_455 S
C391 C387 1.415 1_655 S
C391 C389 1.413 . S
C391 C421 1.437 . S
H392 C421 0.929 . S
N393 Gd366 2.570 . S
N393 C394 1.359 . S
N393 C397 1.343 . S
C394 C387 1.422 . S
C394 N393 1.359 . S
C394 C396 1.421 1_455 S
C395 C396 1.422 . S
C395 C398 1.321 . S
C395 H422 0.931 . S
C396 C394 1.421 1_655 S
C396 C395 1.422 . S
C396 C420 1.417 . S
C397 H374 0.931 . S
C397 N393 1.343 . S
C397 C398 1.390 1_455 S
C398 H376 0.930 . S
C398 C395 1.321 . S
C398 C397 1.390 1_655 S
O399 Gd367 2.386 1_455 S
O399 C411 1.265 . S
O400 Gd366 2.353 . S
O400 C411 1.242 . S
O401 Gd366 2.468 . S
O401 C419 1.263 . S
O402 Gd366 2.427 . S
O402 C419 1.252 . S
O403 Gd367 2.292 1_455 S
O403 C412 1.274 . S
O404 Gd366 2.388 . S
O404 C412 1.252 . S
O405 Gd366 2.386 1_655 S
O405 C423 1.265 . S
O406 Gd367 2.353 . S
O406 C423 1.242 . S
O407 Gd367 2.468 . S
O407 C431 1.263 . S
O408 Gd367 2.427 . S
O408 C431 1.252 . S
O409 Gd366 2.307 . S
O409 C424 1.261 . S
O410 Gd367 2.388 . S
O410 C424 1.252 1_655 S
C411 O399 1.265 . S
C411 O400 1.242 . S
C412 O403 1.274 . S
C412 O404 1.252 . S
C413 C416 1.394 . S
C413 C418 1.370 . S
C413 C419 1.500 . S
C414 C417 1.383 . S
C414 C418 1.395 . S
C415 C416 1.396 . S
C415 C417 1.365 . S
C415 H432 0.929 . S
C416 C413 1.394 . S
C416 C415 1.396 . S
C416 H433 0.930 . S
C417 C414 1.383 . S
C417 C415 1.365 . S
C417 H434 0.931 . S
C418 C413 1.370 . S
C418 C414 1.395 . S
C418 H435 0.930 . S
C419 Gd366 2.805 . S
C419 O401 1.263 . S
C419 O402 1.252 . S
C419 C413 1.500 . S
C420 H382 0.930 . S
C420 C396 1.417 . S
C420 C421 1.329 . S
C421 C391 1.437 . S
C421 H392 0.929 . S
C421 C420 1.329 . S
H422 C395 0.931 . S
C423 O405 1.265 . S
C423 O406 1.242 . S
C424 O409 1.261 . S
C424 O410 1.252 1_455 S
C425 C428 1.394 . S
C425 C430 1.370 . S
C425 C431 1.500 . S
C426 C429 1.383 . S
C426 C430 1.395 . S
C427 C428 1.396 . S
C427 C429 1.365 . S
C427 H436 0.929 . S
C428 C425 1.394 . S
C428 C427 1.396 . S
C428 H437 0.930 . S
C429 C426 1.383 . S
C429 C427 1.365 . S
C429 H438 0.931 . S
C430 C425 1.370 . S
C430 C426 1.395 . S
C430 H439 0.930 . S
C431 Gd367 2.805 . S
C431 O407 1.263 . S
C431 O408 1.252 . S
C431 C425 1.500 . S
H432 C415 0.929 . S
H433 C416 0.930 . S
H434 C417 0.931 . S
H435 C418 0.930 . S
H436 C427 0.929 . S
H437 C428 0.930 . S
H438 C429 0.931 . S
H439 C430 0.930 . S
H440 C458 0.951 . S
H441 C460 0.951 . S
H442 C462 0.950 . S
H443 C463 0.950 . S
H444 C465 0.950 . S
H445 C468 0.950 . S
H446 C469 0.950 . S
H447 C471 0.950 . S
H448 C472 0.950 . S
H449 C473 0.951 . S
H450 C475 0.951 . S
H451 C477 0.950 . S
H452 C478 0.950 . S
H453 C480 0.950 1_565 S
H454 C483 0.950 . S
H455 C484 0.950 . S
H456 C486 0.950 . S
H457 C487 0.950 . S
C458 H440 0.951 . S
C458 C459 1.366 . S
C458 C460 1.388 . S
C459 C458 1.366 . S
C459 C463 1.385 . S
C460 H441 0.951 . S
C460 C458 1.388 . S
C460 C461 1.366 . S
C461 C460 1.366 . S
C461 C462 1.414 . S
C461 C464 1.499 . S
C462 H442 0.950 . S
C462 C461 1.414 . S
C462 C463 1.374 . S
C463 H443 0.950 . S
C463 C459 1.385 . S
C463 C462 1.374 . S
C464 C461 1.499 . S
C464 C465 1.373 . S
C464 C466 1.389 . S
C465 H444 0.950 . S
C465 C464 1.373 . S
C465 C481 1.377 . S
C466 C464 1.389 . S
C466 C467 1.524 1_545 S
C466 C480 1.377 . S
C467 C466 1.524 1_565 S
C467 C468 1.397 . S
C467 C472 1.363 . S
C468 H445 0.950 . S
C468 C467 1.397 . S
C468 C469 1.334 . S
C469 H446 0.950 . S
C469 C468 1.334 . S
C469 C470 1.287 . S
C470 C469 1.287 . S
C470 C471 1.524 . S
C470 H489 0.913 . S
C471 H447 0.950 . S
C471 C470 1.524 . S
C471 C472 1.415 . S
C472 H448 0.950 . S
C472 C467 1.363 . S
C472 C471 1.415 . S
C473 H449 0.951 . S
C473 C474 1.366 . S
C473 C475 1.388 . S
C474 C473 1.366 . S
C474 C478 1.385 . S
C475 H450 0.951 . S
C475 C473 1.388 . S
C475 C476 1.366 . S
C476 C475 1.366 . S
C476 C477 1.414 . S
C476 C479 1.499 . S
C477 H451 0.950 . S
C477 C476 1.414 . S
C477 C478 1.374 . S
C478 H452 0.950 . S
C478 C474 1.385 . S
C478 C477 1.374 . S
C479 C476 1.499 . S
C479 C480 1.373 . S
C479 C481 1.389 . S
C480 H453 0.950 1_545 S
C480 C466 1.377 . S
C480 C479 1.373 . S
C481 C465 1.377 . S
C481 C479 1.389 . S
C481 C482 1.524 . S
C482 C481 1.524 . S
C482 C483 1.397 . S
C482 C487 1.363 . S
C483 H454 0.950 . S
C483 C482 1.397 . S
C483 C484 1.334 . S
C484 H455 0.950 . S
C484 C483 1.334 . S
C484 C485 1.287 . S
C485 C484 1.287 . S
C485 C486 1.524 . S
C485 H488 0.999 . S
C486 H456 0.950 . S
C486 C485 1.524 . S
C486 C487 1.415 . S
C487 H457 0.950 . S
C487 C482 1.363 . S
C487 C486 1.415 . S
H488 C485 0.999 . S
H489 C470 0.913 . S
H490 C508 0.951 . S
H491 C510 0.951 . S
H492 C512 0.950 . S
H493 C513 0.950 . S
H494 C515 0.950 . S
H495 C518 0.950 . S
H496 C519 0.950 . S
H497 C521 0.950 . S
H498 C522 0.950 . S
H499 C523 0.951 . S
H500 C525 0.951 . S
H501 C527 0.950 . S
H502 C528 0.950 . S
H503 C530 0.950 . S
H504 C533 0.950 . S
H505 C534 0.950 . S
H506 C536 0.950 . S
H507 C537 0.950 . S
C508 H490 0.951 . S
C508 C509 1.366 . S
C508 C510 1.388 . S
C509 C508 1.366 . S
C509 C513 1.385 . S
C510 H491 0.951 . S
C510 C508 1.388 . S
C510 C511 1.366 . S
C511 C510 1.366 . S
C511 C512 1.414 . S
C511 C514 1.499 . S
C512 H492 0.950 . S
C512 C511 1.414 . S
C512 C513 1.374 . S
C513 H493 0.950 . S
C513 C509 1.385 . S
C513 C512 1.374 . S
C514 C511 1.499 . S
C514 C515 1.373 . S
C514 C516 1.389 . S
C515 H494 0.950 . S
C515 C514 1.373 . S
C515 C531 1.377 . S
C516 C514 1.389 . S
C516 C517 1.524 . S
C516 C530 1.377 . S
C517 C516 1.524 . S
C517 C518 1.397 . S
C517 C522 1.363 . S
C518 H495 0.950 . S
C518 C517 1.397 . S
C518 C519 1.334 . S
C519 H496 0.950 . S
C519 C518 1.334 . S
C519 C520 1.287 . S
C520 C519 1.287 . S
C520 C521 1.524 . S
C520 H539 0.913 . S
C521 H497 0.950 . S
C521 C520 1.524 . S
C521 C522 1.415 . S
C522 H498 0.950 . S
C522 C517 1.363 . S
C522 C521 1.415 . S
C523 H499 0.951 . S
C523 C524 1.366 . S
C523 C525 1.388 . S
C524 C523 1.366 . S
C524 C528 1.385 . S
C525 H500 0.951 . S
C525 C523 1.388 . S
C525 C526 1.366 . S
C526 C525 1.366 . S
C526 C527 1.414 . S
C526 C529 1.499 . S
C527 H501 0.950 . S
C527 C526 1.414 . S
C527 C528 1.374 . S
C528 H502 0.950 . S
C528 C524 1.385 . S
C528 C527 1.374 . S
C529 C526 1.499 . S
C529 C530 1.373 . S
C529 C531 1.389 . S
C530 H503 0.950 . S
C530 C516 1.377 . S
C530 C529 1.373 . S
C531 C515 1.377 . S
C531 C529 1.389 . S
C531 C532 1.524 . S
C532 C531 1.524 . S
C532 C533 1.397 . S
C532 C537 1.363 . S
C533 H504 0.950 . S
C533 C532 1.397 . S
C533 C534 1.334 . S
C534 H505 0.950 . S
C534 C533 1.334 . S
C534 C535 1.287 . S
C535 C534 1.287 . S
C535 C536 1.524 . S
C535 H538 0.999 . S
C536 H506 0.950 . S
C536 C535 1.524 . S
C536 C537 1.415 . S
C537 H507 0.950 . S
C537 C532 1.363 . S
C537 C536 1.415 . S
H538 C535 0.999 . S
H539 C520 0.913 . S
H540 C558 0.951 . S
H541 C560 0.951 . S
H542 C562 0.950 . S
H543 C563 0.950 . S
H544 C565 0.950 . S
H545 C568 0.950 . S
H546 C569 0.950 . S
H547 C571 0.950 . S
H548 C572 0.950 . S
H549 C573 0.951 . S
H550 C575 0.951 . S
H551 C577 0.950 . S
H552 C578 0.950 . S
H553 C580 0.950 . S
H554 C583 0.950 . S
H555 C584 0.950 . S
H556 C586 0.950 . S
H557 C587 0.950 . S
C558 H540 0.951 . S
C558 C559 1.366 . S
C558 C560 1.388 . S
C559 C558 1.366 . S
C559 C563 1.385 . S
C560 H541 0.951 . S
C560 C558 1.388 . S
C560 C561 1.366 . S
C561 C560 1.366 . S
C561 C562 1.414 . S
C561 C564 1.499 . S
C562 H542 0.950 . S
C562 C561 1.414 . S
C562 C563 1.374 . S
C563 H543 0.950 . S
C563 C559 1.385 . S
C563 C562 1.374 . S
C564 C561 1.499 . S
C564 C565 1.373 . S
C564 C566 1.389 . S
C565 H544 0.950 . S
C565 C564 1.373 . S
C565 C581 1.377 . S
C566 C564 1.389 . S
C566 C567 1.524 . S
C566 C580 1.377 . S
C567 C566 1.524 . S
C567 C568 1.397 . S
C567 C572 1.363 . S
C568 H545 0.950 . S
C568 C567 1.397 . S
C568 C569 1.334 . S
C569 H546 0.950 . S
C569 C568 1.334 . S
C569 C570 1.287 . S
C570 C569 1.287 . S
C570 C571 1.524 . S
C570 H589 0.913 . S
C571 H547 0.950 . S
C571 C570 1.524 . S
C571 C572 1.415 . S
C572 H548 0.950 . S
C572 C567 1.363 . S
C572 C571 1.415 . S
C573 H549 0.951 . S
C573 C574 1.366 . S
C573 C575 1.388 . S
C574 C573 1.366 . S
C574 C578 1.385 . S
C575 H550 0.951 . S
C575 C573 1.388 . S
C575 C576 1.366 . S
C576 C575 1.366 . S
C576 C577 1.414 . S
C576 C579 1.499 . S
C577 H551 0.950 . S
C577 C576 1.414 . S
C577 C578 1.374 . S
C578 H552 0.950 . S
C578 C574 1.385 . S
C578 C577 1.374 . S
C579 C576 1.499 . S
C579 C580 1.373 . S
C579 C581 1.389 . S
C580 H553 0.950 . S
C580 C566 1.377 . S
C580 C579 1.373 . S
C581 C565 1.377 . S
C581 C579 1.389 . S
C581 C582 1.524 . S
C582 C581 1.524 . S
C582 C583 1.397 . S
C582 C587 1.363 . S
C583 H554 0.950 . S
C583 C582 1.397 . S
C583 C584 1.334 . S
C584 H555 0.950 . S
C584 C583 1.334 . S
C584 C585 1.287 . S
C585 C584 1.287 . S
C585 C586 1.524 . S
C585 H588 0.999 . S
C586 H556 0.950 . S
C586 C585 1.524 . S
C586 C587 1.415 . S
C587 H557 0.950 . S
C587 C582 1.363 . S
C587 C586 1.415 . S
H588 C585 0.999 . S
H589 C570 0.913 . S
H590 C608 0.951 . S
H591 C610 0.951 . S
H592 C612 0.950 . S
H593 C613 0.950 . S
H594 C615 0.950 . S
H595 C618 0.950 . S
H596 C619 0.950 . S
H597 C621 0.950 . S
H598 C622 0.950 . S
H599 C623 0.951 . S
H600 C625 0.951 1_655 S
H601 C627 0.950 . S
H602 C628 0.950 . S
H603 C630 0.950 . S
H604 C633 0.950 . S
H605 C634 0.950 . S
H606 C636 0.950 . S
H607 C637 0.950 . S
C608 H590 0.951 . S
C608 C609 1.366 . S
C608 C610 1.388 . S
C609 C608 1.366 . S
C609 C613 1.385 . S
C610 H591 0.951 . S
C610 C608 1.388 . S
C610 C611 1.366 . S
C611 C610 1.366 . S
C611 C612 1.414 . S
C611 C614 1.499 . S
C612 H592 0.950 . S
C612 C611 1.414 . S
C612 C613 1.374 . S
C613 H593 0.950 . S
C613 C609 1.385 . S
C613 C612 1.374 . S
C614 C611 1.499 . S
C614 C615 1.373 . S
C614 C616 1.389 . S
C615 H594 0.950 . S
C615 C614 1.373 . S
C615 C631 1.377 . S
C616 C614 1.389 . S
C616 C617 1.524 . S
C616 C630 1.377 . S
C617 C616 1.524 . S
C617 C618 1.397 . S
C617 C622 1.363 . S
C618 H595 0.950 . S
C618 C617 1.397 . S
C618 C619 1.334 . S
C619 H596 0.950 . S
C619 C618 1.334 . S
C619 C620 1.287 . S
C620 C619 1.287 . S
C620 C621 1.524 . S
C620 H639 0.913 . S
C621 H597 0.950 . S
C621 C620 1.524 . S
C621 C622 1.415 . S
C622 H598 0.950 . S
C622 C617 1.363 . S
C622 C621 1.415 . S
C623 H599 0.951 . S
C623 C624 1.366 1_655 S
C623 C625 1.388 1_655 S
C624 C623 1.366 1_455 S
C624 C628 1.385 . S
C625 H600 0.951 1_455 S
C625 C623 1.388 1_455 S
C625 C626 1.366 . S
C626 C625 1.366 . S
C626 C627 1.414 . S
C626 C629 1.499 . S
C627 H601 0.950 . S
C627 C626 1.414 . S
C627 C628 1.374 . S
C628 H602 0.950 . S
C628 C624 1.385 . S
C628 C627 1.374 . S
C629 C626 1.499 . S
C629 C630 1.373 . S
C629 C631 1.389 . S
C630 H603 0.950 . S
C630 C616 1.377 . S
C630 C629 1.373 . S
C631 C615 1.377 . S
C631 C629 1.389 . S
C631 C632 1.524 . S
C632 C631 1.524 . S
C632 C633 1.397 . S
C632 C637 1.363 1_455 S
C633 H604 0.950 . S
C633 C632 1.397 . S
C633 C634 1.334 . S
C634 H605 0.950 . S
C634 C633 1.334 . S
C634 C635 1.287 1_455 S
C635 C634 1.287 1_655 S
C635 C636 1.524 . S
C635 H638 0.999 . S
C636 H606 0.950 . S
C636 C635 1.524 . S
C636 C637 1.415 . S
C637 H607 0.950 . S
C637 C632 1.363 1_655 S
C637 C636 1.415 . S
H638 C635 0.999 . S
H639 C620 0.913 . S
H640 C658 0.951 . S
H641 C660 0.951 . S
H642 C662 0.950 1_545 S
H643 C663 0.950 1_545 S
H644 C665 0.950 1_545 S
H645 C668 0.950 . S
H646 C669 0.950 . S
H647 C671 0.950 . S
H648 C672 0.950 . S
H649 C673 0.951 . S
H650 C675 0.951 . S
H651 C677 0.950 . S
H652 C678 0.950 . S
H653 C680 0.950 . S
H654 C683 0.950 . S
H655 C684 0.950 1_565 S
H656 C686 0.950 . S
H657 C687 0.950 . S
C658 H640 0.951 . S
C658 C659 1.366 . S
C658 C660 1.388 . S
C659 C658 1.366 . S
C659 C663 1.385 . S
C660 H641 0.951 . S
C660 C658 1.388 . S
C660 C661 1.366 . S
C661 C660 1.366 . S
C661 C662 1.414 . S
C661 C664 1.498 . S
C662 H642 0.950 1_565 S
C662 C661 1.414 . S
C662 C663 1.374 . S
C663 H643 0.950 1_565 S
C663 C659 1.385 . S
C663 C662 1.374 . S
C664 C661 1.498 . S
C664 C665 1.374 1_554 S
C664 C666 1.389 . S
C665 H644 0.950 1_565 S
C665 C664 1.374 1_556 S
C665 C681 1.377 . S
C666 C664 1.389 . S
C666 C667 1.524 . S
C666 C680 1.377 1_554 S
C667 C666 1.524 . S
C667 C668 1.397 . S
C667 C672 1.363 . S
C668 H645 0.950 . S
C668 C667 1.397 . S
C668 C669 1.334 . S
C669 H646 0.950 . S
C669 C668 1.334 . S
C669 C670 1.287 . S
C670 C669 1.287 . S
C670 C671 1.524 . S
C670 H689 0.913 . S
C671 H647 0.950 . S
C671 C670 1.524 . S
C671 C672 1.415 . S
C672 H648 0.950 . S
C672 C667 1.363 . S
C672 C671 1.415 . S
C673 H649 0.951 . S
C673 C674 1.362 . S
C673 C675 1.388 . S
C674 C673 1.362 . S
C674 C678 1.389 1_545 S
C675 H650 0.951 . S
C675 C673 1.388 . S
C675 C676 1.366 1_545 S
C676 C675 1.366 1_565 S
C676 C677 1.414 . S
C676 C679 1.499 . S
C677 H651 0.950 . S
C677 C676 1.414 . S
C677 C678 1.374 . S
C678 H652 0.950 . S
C678 C674 1.389 1_565 S
C678 C677 1.374 . S
C679 C676 1.499 . S
C679 C680 1.373 . S
C679 C681 1.389 . S
C680 H653 0.950 . S
C680 C666 1.377 1_556 S
C680 C679 1.373 . S
C681 C665 1.377 . S
C681 C679 1.389 . S
C681 C682 1.524 1_565 S
C682 C681 1.524 1_545 S
C682 C683 1.397 1_545 S
C682 C687 1.363 . S
C683 H654 0.950 . S
C683 C682 1.397 1_565 S
C683 C684 1.334 1_565 S
C684 H655 0.950 1_545 S
C684 C683 1.334 1_545 S
C684 C685 1.287 . S
C685 C684 1.287 . S
C685 C686 1.524 . S
C685 H688 0.999 . S
C686 H656 0.950 . S
C686 C685 1.524 . S
C686 C687 1.415 . S
C687 H657 0.950 . S
C687 C682 1.363 . S
C687 C686 1.415 . S
H688 C685 0.999 . S
H689 C670 0.913 . S
H690 C708 0.951 . S
H691 C710 0.951 . S
H692 C712 0.950 1_556 S
H693 C713 0.950 . S
H694 C715 0.950 . S
H695 C718 0.950 1_556 S
H696 C719 0.950 . S
H697 C721 0.950 . S
H698 C722 0.950 . S
H699 C723 0.951 . S
H700 C725 0.951 . S
H701 C727 0.950 . S
H702 C728 0.950 . S
H703 C730 0.950 . S
H704 C733 0.950 . S
H705 C734 0.950 . S
H706 C736 0.950 . S
H707 C737 0.950 . S
C708 H690 0.951 . S
C708 C709 1.366 . S
C708 C710 1.388 . S
C709 C708 1.366 . S
C709 C713 1.385 . S
C710 H691 0.951 . S
C710 C708 1.388 . S
C710 C711 1.366 . S
C711 C710 1.366 . S
C711 C712 1.414 . S
C711 C714 1.486 1_554 S
C712 H692 0.950 1_554 S
C712 C711 1.414 . S
C712 C713 1.374 . S
C713 H693 0.950 . S
C713 C709 1.385 . S
C713 C712 1.374 . S
C714 C711 1.486 1_556 S
C714 C715 1.382 . S
C714 C716 1.393 . S
C715 H694 0.950 . S
C715 C714 1.382 . S
C715 C731 1.377 . S
C716 C714 1.393 . S
C716 C717 1.524 1_556 S
C716 C730 1.377 . S
C717 C716 1.524 1_554 S
C717 C718 1.397 . S
C717 C722 1.363 . S
C718 H695 0.950 1_554 S
C718 C717 1.397 . S
C718 C719 1.334 . S
C719 H696 0.950 . S
C719 C718 1.334 . S
C719 C720 1.287 . S
C720 C719 1.287 . S
C720 C721 1.524 . S
C720 H739 0.913 . S
C721 H697 0.950 . S
C721 C720 1.524 . S
C721 C722 1.415 . S
C722 H698 0.950 . S
C722 C717 1.363 . S
C722 C721 1.415 . S
C723 H699 0.951 . S
C723 C724 1.366 . S
C723 C725 1.388 . S
C724 C723 1.366 . S
C724 C728 1.385 . S
C725 H700 0.951 . S
C725 C723 1.388 . S
C725 C726 1.366 . S
C726 C725 1.366 . S
C726 C727 1.414 . S
C726 C729 1.499 . S
C727 H701 0.950 . S
C727 C726 1.414 . S
C727 C728 1.374 . S
C728 H702 0.950 . S
C728 C724 1.385 . S
C728 C727 1.374 . S
C729 C726 1.499 . S
C729 C730 1.373 . S
C729 C731 1.389 . S
C730 H703 0.950 . S
C730 C716 1.377 . S
C730 C729 1.373 . S
C731 C715 1.377 . S
C731 C729 1.389 . S
C731 C732 1.524 . S
C732 C731 1.524 . S
C732 C733 1.397 . S
C732 C737 1.363 . S
C733 H704 0.950 . S
C733 C732 1.397 . S
C733 C734 1.334 . S
C734 H705 0.950 . S
C734 C733 1.334 . S
C734 C735 1.287 . S
C735 C734 1.287 . S
C735 C736 1.524 . S
C735 H738 0.999 . S
C736 H706 0.950 . S
C736 C735 1.524 . S
C736 C737 1.415 . S
C737 H707 0.950 . S
C737 C732 1.363 . S
C737 C736 1.415 . S
H738 C735 0.999 . S
H739 C720 0.913 . S
H740 C758 0.951 . S
H741 C760 0.951 1_556 S
H742 C762 0.950 . S
H743 C763 0.950 . S
H744 C765 0.950 1_554 S
H745 C768 0.950 . S
H746 C769 0.950 . S
H747 C771 0.950 . S
H748 C772 0.950 . S
H749 C773 0.951 . S
H750 C775 0.951 . S
H751 C777 0.950 . S
H752 C778 0.950 . S
H753 C780 0.950 . S
H754 C783 0.950 . S
H755 C784 0.950 . S
H756 C786 0.950 1_554 S
H757 C787 0.950 1_554 S
C758 H740 0.951 . S
C758 C759 1.366 . S
C758 C760 1.388 . S
C759 C758 1.366 . S
C759 C763 1.385 . S
C760 H741 0.951 1_554 S
C760 C758 1.388 . S
C760 C761 1.366 . S
C761 C760 1.366 . S
C761 C762 1.414 . S
C761 C764 1.499 . S
C762 H742 0.950 . S
C762 C761 1.414 . S
C762 C763 1.374 . S
C763 H743 0.950 . S
C763 C759 1.385 . S
C763 C762 1.374 . S
C764 C761 1.499 . S
C764 C765 1.373 1_554 S
C764 C766 1.389 1_554 S
C765 H744 0.950 1_556 S
C765 C764 1.373 1_556 S
C765 C781 1.377 . S
C766 C764 1.389 1_556 S
C766 C767 1.524 . S
C766 C780 1.377 . S
C767 C766 1.524 . S
C767 C768 1.397 1_556 S
C767 C772 1.363 . S
C768 H745 0.950 . S
C768 C767 1.397 1_554 S
C768 C769 1.334 . S
C769 H746 0.950 . S
C769 C768 1.334 . S
C769 C770 1.287 1_554 S
C770 C769 1.287 1_556 S
C770 C771 1.524 . S
C770 H789 0.915 . S
C771 H747 0.950 . S
C771 C770 1.524 . S
C771 C772 1.415 . S
C772 H748 0.950 . S
C772 C767 1.363 . S
C772 C771 1.415 . S
C773 H749 0.951 . S
C773 C774 1.366 . S
C773 C775 1.388 . S
C774 C773 1.366 . S
C774 C778 1.385 . S
C775 H750 0.951 . S
C775 C773 1.388 . S
C775 C776 1.366 . S
C776 C775 1.366 . S
C776 C777 1.414 . S
C776 C779 1.499 . S
C777 H751 0.950 . S
C777 C776 1.414 . S
C777 C778 1.374 . S
C778 H752 0.950 . S
C778 C774 1.385 . S
C778 C777 1.374 . S
C779 C776 1.499 . S
C779 C780 1.373 . S
C779 C781 1.389 . S
C780 H753 0.950 . S
C780 C766 1.377 . S
C780 C779 1.373 . S
C781 C765 1.377 . S
C781 C779 1.389 . S
C781 C782 1.524 . S
C782 C781 1.524 . S
C782 C783 1.397 . S
C782 C787 1.363 . S
C783 H754 0.950 . S
C783 C782 1.397 . S
C783 C784 1.334 . S
C784 H755 0.950 . S
C784 C783 1.334 . S
C784 C785 1.287 . S
C785 C784 1.287 . S
C785 C786 1.524 . S
C785 H788 0.999 . S
C786 H756 0.950 1_556 S
C786 C785 1.524 . S
C786 C787 1.415 . S
C787 H757 0.950 1_556 S
C787 C782 1.363 . S
C787 C786 1.415 . S
H788 C785 0.999 . S
H789 C770 0.915 . S
H790 C808 0.951 1_455 S
H791 C810 0.951 1_455 S
H792 C812 0.950 . S
H793 C813 0.950 . S
H794 C815 0.950 . S
H795 C818 0.950 . S
H796 C819 0.950 . S
H797 C821 0.950 . S
H798 C822 0.950 . S
H799 C823 0.951 . S
H800 C825 0.951 . S
H801 C827 0.950 . S
H802 C828 0.950 . S
H803 C830 0.950 . S
H804 C833 0.950 . S
H805 C834 0.950 1_556 S
H806 C836 0.950 . S
H807 C837 0.950 . S
C808 H790 0.951 1_655 S
C808 C809 1.366 . S
C808 C810 1.388 . S
C809 C808 1.366 . S
C809 C813 1.385 . S
C810 H791 0.951 1_655 S
C810 C808 1.388 . S
C810 C811 1.366 . S
C811 C810 1.366 . S
C811 C812 1.414 . S
C811 C814 1.499 1_554 S
C812 H792 0.950 . S
C812 C811 1.414 . S
C812 C813 1.374 . S
C813 H793 0.950 . S
C813 C809 1.385 . S
C813 C812 1.374 . S
C814 C811 1.499 1_556 S
C814 C815 1.373 1_556 S
C814 C816 1.389 . S
C815 H794 0.950 . S
C815 C814 1.373 1_554 S
C815 C831 1.377 1_554 S
C816 C814 1.389 . S
C816 C817 1.524 . S
C816 C830 1.377 . S
C817 C816 1.524 . S
C817 C818 1.397 . S
C817 C822 1.363 1_655 S
C818 H795 0.950 . S
C818 C817 1.397 . S
C818 C819 1.334 . S
C819 H796 0.950 . S
C819 C818 1.334 . S
C819 C820 1.287 . S
C820 C819 1.287 . S
C820 C821 1.524 1_655 S
C820 H839 0.913 . S
C821 H797 0.950 . S
C821 C820 1.524 1_455 S
C821 C822 1.415 . S
C822 H798 0.950 . S
C822 C817 1.363 1_455 S
C822 C821 1.415 . S
C823 H799 0.951 . S
C823 C824 1.366 . S
C823 C825 1.388 . S
C824 C823 1.366 . S
C824 C828 1.385 1_655 S
C825 H800 0.951 . S
C825 C823 1.388 . S
C825 C826 1.366 . S
C826 C825 1.366 . S
C826 C827 1.414 1_655 S
C826 C829 1.499 . S
C827 H801 0.950 . S
C827 C826 1.414 1_455 S
C827 C828 1.374 . S
C828 H802 0.950 . S
C828 C824 1.385 1_455 S
C828 C827 1.374 . S
C829 C826 1.499 . S
C829 C830 1.373 . S
C829 C831 1.389 . S
C830 H803 0.950 . S
C830 C816 1.377 . S
C830 C829 1.373 . S
C831 C815 1.377 1_556 S
C831 C829 1.389 . S
C831 C832 1.524 . S
C832 C831 1.524 . S
C832 C833 1.397 1_655 S
C832 C837 1.363 1_556 S
C833 H804 0.950 . S
C833 C832 1.397 1_455 S
C833 C834 1.334 1_556 S
C834 H805 0.950 1_554 S
C834 C833 1.334 1_554 S
C834 C835 1.287 1_455 S
C835 C834 1.287 1_655 S
C835 C836 1.524 . S
C835 H838 0.999 . S
C836 H806 0.950 . S
C836 C835 1.524 . S
C836 C837 1.415 . S
C837 H807 0.950 . S
C837 C832 1.363 1_554 S
C837 C836 1.415 . S
H838 C835 0.999 . S
H839 C820 0.913 . S
H840 C858 0.951 . S
H841 C860 0.951 . S
H842 C862 0.950 . S
H843 C863 0.950 . S
H844 C865 0.950 . S
H845 C868 0.950 . S
H846 C869 0.950 . S
H847 C871 0.950 . S
H848 C872 0.950 . S
H849 C873 0.951 . S
H850 C875 0.951 . S
H851 C877 0.950 . S
H852 C878 0.950 . S
H853 C880 0.968 . S
H854 C883 0.950 . S
H855 C884 0.950 . S
H856 C886 0.950 . S
H857 C887 0.950 . S
C858 H840 0.951 . S
C858 C859 1.366 . S
C858 C860 1.388 . S
C859 C858 1.366 . S
C859 C863 1.385 . S
C860 H841 0.951 . S
C860 C858 1.388 . S
C860 C861 1.366 . S
C861 C860 1.366 . S
C861 C862 1.414 . S
C861 C864 1.499 . S
C862 H842 0.950 . S
C862 C861 1.414 . S
C862 C863 1.374 . S
C863 H843 0.950 . S
C863 C859 1.385 . S
C863 C862 1.374 . S
C864 C861 1.499 . S
C864 C865 1.373 . S
C864 C866 1.389 . S
C865 H844 0.950 . S
C865 C864 1.373 . S
C865 C881 1.377 . S
C866 C864 1.389 . S
C866 C867 1.524 . S
C866 C880 1.377 . S
C867 C866 1.524 . S
C867 C868 1.397 . S
C867 C872 1.363 1_455 S
C868 H845 0.950 . S
C868 C867 1.397 . S
C868 C869 1.334 . S
C869 H846 0.950 . S
C869 C868 1.334 . S
C869 C870 1.287 1_455 S
C870 C869 1.287 1_655 S
C870 C871 1.524 . S
C870 H889 0.913 . S
C871 H847 0.950 . S
C871 C870 1.524 . S
C871 C872 1.415 . S
C872 H848 0.950 . S
C872 C867 1.363 1_655 S
C872 C871 1.415 . S
C873 H849 0.951 . S
C873 C874 1.366 . S
C873 C875 1.388 . S
C874 C873 1.366 . S
C874 C878 1.385 1_455 S
C875 H850 0.951 . S
C875 C873 1.388 . S
C875 C876 1.366 . S
C876 C875 1.366 . S
C876 C877 1.414 1_455 S
C876 C879 1.499 . S
C877 H851 0.950 . S
C877 C876 1.414 1_655 S
C877 C878 1.374 . S
C878 H852 0.950 . S
C878 C874 1.385 1_655 S
C878 C877 1.374 . S
C879 C876 1.499 . S
C879 C880 1.373 . S
C879 C881 1.389 . S
C880 H853 0.968 . S
C880 C866 1.377 . S
C880 C879 1.373 . S
C881 C865 1.377 . S
C881 C879 1.389 . S
C881 C882 1.524 . S
C882 C881 1.524 . S
C882 C883 1.397 . S
C882 C887 1.363 . S
C883 H854 0.950 . S
C883 C882 1.397 . S
C883 C884 1.334 . S
C884 H855 0.950 . S
C884 C883 1.334 . S
C884 C885 1.287 . S
C885 C884 1.287 . S
C885 C886 1.524 . S
C885 H888 0.999 . S
C886 H856 0.950 . S
C886 C885 1.524 . S
C886 C887 1.415 . S
C887 H857 0.950 . S
C887 C882 1.363 . S
C887 C886 1.415 . S
H888 C885 0.999 . S
H889 C870 0.913 . S
H890 C908 0.951 . S
H891 C910 0.951 . S
H892 C912 0.950 . S
H893 C913 0.950 . S
H894 C915 0.950 . S
H895 C918 0.950 . S
H896 C919 0.950 . S
H897 C921 0.950 . S
H898 C922 0.932 1_565 S
H899 C923 0.951 . S
H900 C925 0.951 . S
H901 C927 0.939 1_565 S
H902 C928 0.950 . S
H903 C930 0.950 . S
H904 C933 0.950 1_565 S
H905 C934 0.950 1_565 S
H906 C936 0.950 . S
H907 C937 0.950 . S
C908 H890 0.951 . S
C908 C909 1.366 . S
C908 C910 1.388 . S
C909 C908 1.366 . S
C909 C913 1.385 . S
C910 H891 0.951 . S
C910 C908 1.388 . S
C910 C911 1.366 . S
C911 C910 1.366 . S
C911 C912 1.414 . S
C911 C914 1.499 . S
C912 H892 0.950 . S
C912 C911 1.414 . S
C912 C913 1.374 . S
C913 H893 0.950 . S
C913 C909 1.385 . S
C913 C912 1.374 . S
C914 C911 1.499 . S
C914 C915 1.373 . S
C914 C916 1.389 . S
C915 H894 0.950 . S
C915 C914 1.373 . S
C915 C931 1.377 . S
C916 C914 1.389 . S
C916 C917 1.524 . S
C916 C930 1.377 . S
C917 C916 1.524 . S
C917 C918 1.397 . S
C917 C922 1.363 . S
C918 H895 0.950 . S
C918 C917 1.397 . S
C918 C919 1.334 . S
C919 H896 0.950 . S
C919 C918 1.334 . S
C919 C920 1.287 . S
C920 C919 1.287 . S
C920 C921 1.524 . S
C920 H939 0.913 . S
C921 H897 0.950 . S
C921 C920 1.524 . S
C921 C922 1.415 . S
C922 H898 0.932 1_545 S
C922 C917 1.363 . S
C922 C921 1.415 . S
C923 H899 0.951 . S
C923 C924 1.366 . S
C923 C925 1.388 . S
C924 C923 1.366 . S
C924 C928 1.385 1_545 S
C925 H900 0.951 . S
C925 C923 1.388 . S
C925 C926 1.366 . S
C926 C925 1.366 . S
C926 C927 1.429 . S
C926 C929 1.499 . S
C927 H901 0.939 1_545 S
C927 C926 1.429 . S
C927 C928 1.370 1_545 S
C928 H902 0.950 . S
C928 C924 1.385 1_565 S
C928 C927 1.370 1_565 S
C929 C926 1.499 . S
C929 C930 1.373 . S
C929 C931 1.389 . S
C930 H903 0.950 . S
C930 C916 1.377 . S
C930 C929 1.373 . S
C931 C915 1.377 . S
C931 C929 1.389 . S
C931 C932 1.524 . S
C932 C931 1.524 . S
C932 C933 1.397 . S
C932 C937 1.363 . S
C933 H904 0.950 1_545 S
C933 C932 1.397 . S
C933 C934 1.334 . S
C934 H905 0.950 1_545 S
C934 C933 1.334 . S
C934 C935 1.287 . S
C935 C934 1.287 . S
C935 C936 1.524 . S
C935 H938 0.999 . S
C936 H906 0.950 . S
C936 C935 1.524 . S
C936 C937 1.415 . S
C937 H907 0.950 . S
C937 C932 1.363 . S
C937 C936 1.415 . S
H938 C935 0.999 . S
H939 C920 0.913 . S
H940 C958 0.951 . S
H941 C960 0.951 . S
H942 C962 0.950 . S
H943 C963 0.950 . S
H944 C965 0.950 . S
H945 C968 0.950 . S
H946 C969 0.950 1_556 S
H947 C971 0.950 . S
H948 C972 0.950 . S
H949 C973 0.951 . S
H950 C975 0.951 . S
H951 C977 0.950 . S
H952 C978 0.950 . S
H953 C980 0.950 . S
H954 C983 0.950 . S
H955 C984 0.950 . S
H956 C986 0.950 . S
H957 C987 0.950 . S
C958 H940 0.951 . S
C958 C959 1.366 . S
C958 C960 1.388 . S
C959 C958 1.366 . S
C959 C963 1.385 . S
C960 H941 0.951 . S
C960 C958 1.388 . S
C960 C961 1.366 . S
C961 C960 1.366 . S
C961 C962 1.414 . S
C961 C964 1.499 . S
C962 H942 0.950 . S
C962 C961 1.414 . S
C962 C963 1.374 . S
C963 H943 0.950 . S
C963 C959 1.385 . S
C963 C962 1.374 . S
C964 C961 1.499 . S
C964 C965 1.373 . S
C964 C966 1.389 . S
C965 H944 0.950 . S
C965 C964 1.373 . S
C965 C981 1.377 . S
C966 C964 1.389 . S
C966 C967 1.524 . S
C966 C980 1.377 . S
C967 C966 1.524 . S
C967 C968 1.397 . S
C967 C972 1.363 . S
C968 H945 0.950 . S
C968 C967 1.397 . S
C968 C969 1.334 . S
C969 H946 0.950 1_554 S
C969 C968 1.334 . S
C969 C970 1.287 1_554 S
C970 C969 1.287 1_556 S
C970 C971 1.524 1_556 S
C970 H989 0.913 . S
C971 H947 0.950 . S
C971 C970 1.524 1_554 S
C971 C972 1.415 . S
C972 H948 0.950 . S
C972 C967 1.363 . S
C972 C971 1.415 . S
C973 H949 0.951 . S
C973 C974 1.366 . S
C973 C975 1.388 . S
C974 C973 1.366 . S
C974 C978 1.385 . S
C975 H950 0.951 . S
C975 C973 1.388 . S
C975 C976 1.366 . S
C976 C975 1.366 . S
C976 C977 1.414 . S
C976 C979 1.499 . S
C977 H951 0.950 . S
C977 C976 1.414 . S
C977 C978 1.374 . S
C978 H952 0.950 . S
C978 C974 1.385 . S
C978 C977 1.374 . S
C979 C976 1.499 . S
C979 C980 1.373 . S
C979 C981 1.389 . S
C980 H953 0.950 . S
C980 C966 1.377 . S
C980 C979 1.373 . S
C981 C965 1.377 . S
C981 C979 1.389 . S
C981 C982 1.524 . S
C982 C981 1.524 . S
C982 C983 1.397 . S
C982 C987 1.363 . S
C983 H954 0.950 . S
C983 C982 1.397 . S
C983 C984 1.334 . S
C984 H955 0.950 . S
C984 C983 1.334 . S
C984 C985 1.287 . S
C985 C984 1.287 . S
C985 C986 1.524 . S
C985 H988 0.999 . S
C986 H956 0.950 . S
C986 C985 1.524 . S
C986 C987 1.415 . S
C987 H957 0.950 . S
C987 C982 1.363 . S
C987 C986 1.415 . S
H988 C985 0.999 . S
H989 C970 0.913 . S
H990 C1008 0.951 . S
H991 C1010 0.951 . S
H992 C1012 0.950 . S
H993 C1013 0.950 . S
H994 C1015 0.950 . S
H995 C1018 0.950 . S
H996 C1019 0.950 . S
H997 C1021 0.945 1_556 S
H998 C1022 0.950 . S
H999 C1023 0.951 . S
H1000 C1025 0.951 . S
H1001 C1027 0.950 . S
H1002 C1028 0.950 . S
H1003 C1030 0.950 . S
H1004 C1033 0.950 . S
H1005 C1034 0.950 . S
H1006 C1036 0.950 . S
H1007 C1037 0.950 . S
C1008 H990 0.951 . S
C1008 C1009 1.366 . S
C1008 C1010 1.388 . S
C1009 C1008 1.366 . S
C1009 C1013 1.385 . S
C1010 H991 0.951 . S
C1010 C1008 1.388 . S
C1010 C1011 1.366 . S
C1011 C1010 1.366 . S
C1011 C1012 1.414 . S
C1011 C1014 1.499 . S
C1012 H992 0.950 . S
C1012 C1011 1.414 . S
C1012 C1013 1.374 . S
C1013 H993 0.950 . S
C1013 C1009 1.385 . S
C1013 C1012 1.374 . S
C1014 C1011 1.499 . S
C1014 C1015 1.373 . S
C1014 C1016 1.389 . S
C1015 H994 0.950 . S
C1015 C1014 1.373 . S
C1015 C1031 1.377 . S
C1016 C1014 1.389 . S
C1016 C1017 1.524 . S
C1016 C1030 1.377 . S
C1017 C1016 1.524 . S
C1017 C1018 1.397 . S
C1017 C1022 1.363 . S
C1018 H995 0.950 . S
C1018 C1017 1.397 . S
C1018 C1019 1.334 . S
C1019 H996 0.950 . S
C1019 C1018 1.334 . S
C1019 C1020 1.287 . S
C1020 C1019 1.287 . S
C1020 C1021 1.524 . S
C1020 H1039 0.913 . S
C1021 H997 0.945 1_554 S
C1021 C1020 1.524 . S
C1021 C1022 1.415 . S
C1022 H998 0.950 . S
C1022 C1017 1.363 . S
C1022 C1021 1.415 . S
C1023 H999 0.951 . S
C1023 C1024 1.366 . S
C1023 C1025 1.388 . S
C1024 C1023 1.366 . S
C1024 C1028 1.385 . S
C1025 H1000 0.951 . S
C1025 C1023 1.388 . S
C1025 C1026 1.366 . S
C1026 C1025 1.366 . S
C1026 C1027 1.414 . S
C1026 C1029 1.499 . S
C1027 H1001 0.950 . S
C1027 C1026 1.414 . S
C1027 C1028 1.374 . S
C1028 H1002 0.950 . S
C1028 C1024 1.385 . S
C1028 C1027 1.374 . S
C1029 C1026 1.499 . S
C1029 C1030 1.373 . S
C1029 C1031 1.389 . S
C1030 H1003 0.950 . S
C1030 C1016 1.377 . S
C1030 C1029 1.373 . S
C1031 C1015 1.377 . S
C1031 C1029 1.389 . S
C1031 C1032 1.524 . S
C1032 C1031 1.524 . S
C1032 C1033 1.397 . S
C1032 C1037 1.363 . S
C1033 H1004 0.950 . S
C1033 C1032 1.397 . S
C1033 C1034 1.334 . S
C1034 H1005 0.950 . S
C1034 C1033 1.334 . S
C1034 C1035 1.287 . S
C1035 C1034 1.287 . S
C1035 C1036 1.524 . S
C1035 H1038 0.999 . S
C1036 H1006 0.950 . S
C1036 C1035 1.524 . S
C1036 C1037 1.415 . S
C1037 H1007 0.950 . S
C1037 C1032 1.363 . S
C1037 C1036 1.415 . S
H1038 C1035 0.999 . S
H1039 C1020 0.913 . S
H1040 C1058 0.951 . S
H1041 C1060 0.951 . S
H1042 C1062 0.950 . S
H1043 C1063 0.950 . S
H1044 C1065 0.950 . S
H1045 C1068 0.950 . S
H1046 C1069 0.950 1_554 S
H1047 C1071 0.950 . S
H1048 C1072 0.950 . S
H1049 C1073 0.951 . S
H1050 C1075 0.951 1_554 S
H1051 C1077 0.950 . S
H1052 C1078 0.950 . S
H1053 C1080 0.950 1_455 S
H1054 C1083 0.950 1_556 S
H1055 C1084 0.950 . S
H1056 C1086 0.950 . S
H1057 C1087 0.950 . S
C1058 H1040 0.951 . S
C1058 C1059 1.366 . S
C1058 C1060 1.388 . S
C1059 C1058 1.366 . S
C1059 C1063 1.385 . S
C1060 H1041 0.951 . S
C1060 C1058 1.388 . S
C1060 C1061 1.366 . S
C1061 C1060 1.366 . S
C1061 C1062 1.414 . S
C1061 C1064 1.499 . S
C1062 H1042 0.950 . S
C1062 C1061 1.414 . S
C1062 C1063 1.374 . S
C1063 H1043 0.950 . S
C1063 C1059 1.385 . S
C1063 C1062 1.374 . S
C1064 C1061 1.499 . S
C1064 C1065 1.373 . S
C1064 C1066 1.389 1_554 S
C1065 H1044 0.950 . S
C1065 C1064 1.373 . S
C1065 C1081 1.377 . S
C1066 C1064 1.389 1_556 S
C1066 C1067 1.524 1_655 S
C1066 C1080 1.377 . S
C1067 C1066 1.524 1_455 S
C1067 C1068 1.397 1_556 S
C1067 C1072 1.363 1_455 S
C1068 H1045 0.950 . S
C1068 C1067 1.397 1_554 S
C1068 C1069 1.334 1_554 S
C1069 H1046 0.950 1_556 S
C1069 C1068 1.334 1_556 S
C1069 C1070 1.287 . S
C1070 C1069 1.287 . S
C1070 C1071 1.524 . S
C1070 H1089 0.913 . S
C1071 H1047 0.950 . S
C1071 C1070 1.524 . S
C1071 C1072 1.415 1_455 S
C1072 H1048 0.950 . S
C1072 C1067 1.363 1_655 S
C1072 C1071 1.415 1_655 S
C1073 H1049 0.951 . S
C1073 C1074 1.366 . S
C1073 C1075 1.388 . S
C1074 C1073 1.366 . S
C1074 C1078 1.385 1_455 S
C1075 H1050 0.951 1_556 S
C1075 C1073 1.388 . S
C1075 C1076 1.366 1_455 S
C1076 C1075 1.366 1_655 S
C1076 C1077 1.414 . S
C1076 C1079 1.499 . S
C1077 H1051 0.950 . S
C1077 C1076 1.414 . S
C1077 C1078 1.374 . S
C1078 H1052 0.950 . S
C1078 C1074 1.385 1_655 S
C1078 C1077 1.374 . S
C1079 C1076 1.499 . S
C1079 C1080 1.373 . S
C1079 C1081 1.389 1_556 S
C1080 H1053 0.950 1_655 S
C1080 C1066 1.377 . S
C1080 C1079 1.373 . S
C1081 C1065 1.377 . S
C1081 C1079 1.389 1_554 S
C1081 C1082 1.524 . S
C1082 C1081 1.524 . S
C1082 C1083 1.397 . S
C1082 C1087 1.363 . S
C1083 H1054 0.950 1_554 S
C1083 C1082 1.397 . S
C1083 C1084 1.334 . S
C1084 H1055 0.950 . S
C1084 C1083 1.334 . S
C1084 C1085 1.287 . S
C1085 C1084 1.287 . S
C1085 C1086 1.524 . S
C1085 H1088 0.999 . S
C1086 H1056 0.950 . S
C1086 C1085 1.524 . S
C1086 C1087 1.415 . S
C1087 H1057 0.950 . S
C1087 C1082 1.363 . S
C1087 C1086 1.415 . S
H1088 C1085 0.999 . S
H1089 C1070 0.913 . S
H1090 C1108 0.951 . S
H1091 C1110 0.951 . S
H1092 C1112 0.950 . S
H1093 C1113 0.950 . S
H1094 C1115 0.950 . S
H1095 C1118 0.950 . S
H1096 C1119 0.950 1_554 S
H1097 C1121 0.950 . S
H1098 C1122 0.931 1_565 S
H1099 C1123 0.951 . S
H1100 C1125 0.951 1_554 S
H1101 C1127 0.950 . S
H1102 C1128 0.950 . S
H1103 C1130 0.950 1_545 S
H1104 C1133 0.950 1_556 S
H1105 C1134 0.950 . S
H1106 C1136 0.950 . S
H1107 C1137 0.950 . S
C1108 H1090 0.951 . S
C1108 C1109 1.366 . S
C1108 C1110 1.388 . S
C1109 C1108 1.366 . S
C1109 C1113 1.385 . S
C1110 H1091 0.951 . S
C1110 C1108 1.388 . S
C1110 C1111 1.366 . S
C1111 C1110 1.366 . S
C1111 C1112 1.414 . S
C1111 C1114 1.499 . S
C1112 H1092 0.950 . S
C1112 C1111 1.414 . S
C1112 C1113 1.374 . S
C1113 H1093 0.950 . S
C1113 C1109 1.385 . S
C1113 C1112 1.374 . S
C1114 C1111 1.499 . S
C1114 C1115 1.373 . S
C1114 C1116 1.397 . S
C1115 H1094 0.950 . S
C1115 C1114 1.373 . S
C1115 C1131 1.377 . S
C1116 C1114 1.397 . S
C1116 C1117 1.521 1_564 S
C1116 C1130 1.372 1_554 S
C1117 C1116 1.521 1_546 S
C1117 C1118 1.397 1_556 S
C1117 C1122 1.369 . S
C1118 H1095 0.950 . S
C1118 C1117 1.397 1_554 S
C1118 C1119 1.334 1_554 S
C1119 H1096 0.950 1_556 S
C1119 C1118 1.334 1_556 S
C1119 C1120 1.287 . S
C1120 C1119 1.287 . S
C1120 C1121 1.524 . S
C1120 H1139 0.913 . S
C1121 H1097 0.950 . S
C1121 C1120 1.524 . S
C1121 C1122 1.428 . S
C1122 H1098 0.931 1_545 S
C1122 C1117 1.369 . S
C1122 C1121 1.428 . S
C1123 H1099 0.951 . S
C1123 C1124 1.366 . S
C1123 C1125 1.388 . S
C1124 C1123 1.366 . S
C1124 C1128 1.385 1_545 S
C1125 H1100 0.951 1_556 S
C1125 C1123 1.388 . S
C1125 C1126 1.366 1_545 S
C1126 C1125 1.366 1_565 S
C1126 C1127 1.414 . S
C1126 C1129 1.499 . S
C1127 H1101 0.950 . S
C1127 C1126 1.414 . S
C1127 C1128 1.374 . S
C1128 H1102 0.950 . S
C1128 C1124 1.385 1_565 S
C1128 C1127 1.374 . S
C1129 C1126 1.499 . S
C1129 C1130 1.373 . S
C1129 C1131 1.389 1_556 S
C1130 H1103 0.950 1_565 S
C1130 C1116 1.372 1_556 S
C1130 C1129 1.373 . S
C1131 C1115 1.377 . S
C1131 C1129 1.389 1_554 S
C1131 C1132 1.524 . S
C1132 C1131 1.524 . S
C1132 C1133 1.397 . S
C1132 C1137 1.363 . S
C1133 H1104 0.950 1_554 S
C1133 C1132 1.397 . S
C1133 C1134 1.334 . S
C1134 H1105 0.950 . S
C1134 C1133 1.334 . S
C1134 C1135 1.287 . S
C1135 C1134 1.287 . S
C1135 C1136 1.524 . S
C1135 H1138 0.999 . S
C1136 H1106 0.950 . S
C1136 C1135 1.524 . S
C1136 C1137 1.415 . S
C1137 H1107 0.950 . S
C1137 C1132 1.363 . S
C1137 C1136 1.415 . S
H1138 C1135 0.999 . S
H1139 C1120 0.913 . S
H1140 C1158 0.951 . S
H1141 C1160 0.951 . S
H1142 C1162 0.950 . S
H1143 C1163 0.950 . S
H1144 C1165 0.950 . S
H1145 C1168 0.950 . S
H1146 C1169 0.950 . S
H1147 C1171 0.950 . S
H1148 C1172 0.950 . S
H1149 C1173 0.951 . S
H1150 C1175 0.951 . S
H1151 C1177 0.950 . S
H1152 C1178 0.950 . S
H1153 C1180 0.950 . S
H1154 C1183 0.950 . S
H1155 C1184 0.950 . S
H1156 C1186 0.950 . S
H1157 C1187 0.950 . S
C1158 H1140 0.951 . S
C1158 C1159 1.366 . S
C1158 C1160 1.388 . S
C1159 C1158 1.366 . S
C1159 C1163 1.385 . S
C1160 H1141 0.951 . S
C1160 C1158 1.388 . S
C1160 C1161 1.366 . S
C1161 C1160 1.366 . S
C1161 C1162 1.414 . S
C1161 C1164 1.499 . S
C1162 H1142 0.950 . S
C1162 C1161 1.414 . S
C1162 C1163 1.374 . S
C1163 H1143 0.950 . S
C1163 C1159 1.385 . S
C1163 C1162 1.374 . S
C1164 C1161 1.499 . S
C1164 C1165 1.373 1_554 S
C1164 C1166 1.389 . S
C1165 H1144 0.950 . S
C1165 C1164 1.373 1_556 S
C1165 C1181 1.377 . S
C1166 C1164 1.389 . S
C1166 C1167 1.524 . S
C1166 C1180 1.377 . S
C1167 C1166 1.524 . S
C1167 C1168 1.397 . S
C1167 C1172 1.363 . S
C1168 H1145 0.950 . S
C1168 C1167 1.397 . S
C1168 C1169 1.334 . S
C1169 H1146 0.950 . S
C1169 C1168 1.334 . S
C1169 C1170 1.287 . S
C1170 C1169 1.287 . S
C1170 C1171 1.524 . S
C1170 H1189 0.913 . S
C1171 H1147 0.950 . S
C1171 C1170 1.524 . S
C1171 C1172 1.415 . S
C1172 H1148 0.950 . S
C1172 C1167 1.363 . S
C1172 C1171 1.415 . S
C1173 H1149 0.951 . S
C1173 C1174 1.366 . S
C1173 C1175 1.388 . S
C1174 C1173 1.366 . S
C1174 C1178 1.385 . S
C1175 H1150 0.951 . S
C1175 C1173 1.388 . S
C1175 C1176 1.366 . S
C1176 C1175 1.366 . S
C1176 C1177 1.414 . S
C1176 C1179 1.499 . S
C1177 H1151 0.950 . S
C1177 C1176 1.414 . S
C1177 C1178 1.374 . S
C1178 H1152 0.950 . S
C1178 C1174 1.385 . S
C1178 C1177 1.374 . S
C1179 C1176 1.499 . S
C1179 C1180 1.373 1_556 S
C1179 C1181 1.389 . S
C1180 H1153 0.950 . S
C1180 C1166 1.377 . S
C1180 C1179 1.373 1_554 S
C1181 C1165 1.377 . S
C1181 C1179 1.389 . S
C1181 C1182 1.524 . S
C1182 C1181 1.524 . S
C1182 C1183 1.397 . S
C1182 C1187 1.363 . S
C1183 H1154 0.950 . S
C1183 C1182 1.397 . S
C1183 C1184 1.334 . S
C1184 H1155 0.950 . S
C1184 C1183 1.334 . S
C1184 C1185 1.287 . S
C1185 C1184 1.287 . S
C1185 C1186 1.524 . S
C1185 H1188 0.999 . S
C1186 H1156 0.950 . S
C1186 C1185 1.524 . S
C1186 C1187 1.415 . S
C1187 H1157 0.950 . S
C1187 C1182 1.363 . S
C1187 C1186 1.415 . S
H1188 C1185 0.999 . S
H1189 C1170 0.913 . S
H1190 C1208 0.951 . S
H1191 C1210 0.951 . S
H1192 C1212 0.950 . S
H1193 C1213 0.950 . S
H1194 C1215 0.950 . S
H1195 C1218 0.950 . S
H1196 C1219 0.950 . S
H1197 C1221 0.950 . S
H1198 C1222 0.950 . S
H1199 C1223 0.951 . S
H1200 C1225 0.951 1_554 S
H1201 C1227 0.950 . S
H1202 C1228 0.950 . S
H1203 C1230 0.950 . S
H1204 C1233 0.950 1_556 S
H1205 C1234 0.950 1_556 S
H1206 C1236 0.950 . S
H1207 C1237 0.950 . S
C1208 H1190 0.951 . S
C1208 C1209 1.366 . S
C1208 C1210 1.388 . S
C1209 C1208 1.366 . S
C1209 C1213 1.385 . S
C1210 H1191 0.951 . S
C1210 C1208 1.388 . S
C1210 C1211 1.366 . S
C1211 C1210 1.366 . S
C1211 C1212 1.414 . S
C1211 C1214 1.499 . S
C1212 H1192 0.950 . S
C1212 C1211 1.414 . S
C1212 C1213 1.374 . S
C1213 H1193 0.950 . S
C1213 C1209 1.385 . S
C1213 C1212 1.374 . S
C1214 C1211 1.499 . S
C1214 C1215 1.373 . S
C1214 C1216 1.389 . S
C1215 H1194 0.950 . S
C1215 C1214 1.373 . S
C1215 C1231 1.377 . S
C1216 C1214 1.389 . S
C1216 C1217 1.524 1_554 S
C1216 C1230 1.377 1_554 S
C1217 C1216 1.524 1_556 S
C1217 C1218 1.397 1_556 S
C1217 C1222 1.363 . S
C1218 H1195 0.950 . S
C1218 C1217 1.397 1_554 S
C1218 C1219 1.334 . S
C1219 H1196 0.950 . S
C1219 C1218 1.334 . S
C1219 C1220 1.287 1_554 S
C1220 C1219 1.287 1_556 S
C1220 C1221 1.524 . S
C1220 H1239 0.913 . S
C1221 H1197 0.950 . S
C1221 C1220 1.524 . S
C1221 C1222 1.415 . S
C1222 H1198 0.950 . S
C1222 C1217 1.363 . S
C1222 C1221 1.415 . S
C1223 H1199 0.951 . S
C1223 C1224 1.366 . S
C1223 C1225 1.388 . S
C1224 C1223 1.366 . S
C1224 C1228 1.385 . S
C1225 H1200 0.951 1_556 S
C1225 C1223 1.388 . S
C1225 C1226 1.366 . S
C1226 C1225 1.366 . S
C1226 C1227 1.414 . S
C1226 C1229 1.499 . S
C1227 H1201 0.950 . S
C1227 C1226 1.414 . S
C1227 C1228 1.374 . S
C1228 H1202 0.950 . S
C1228 C1224 1.385 . S
C1228 C1227 1.374 . S
C1229 C1226 1.499 . S
C1229 C1230 1.373 . S
C1229 C1231 1.389 1_556 S
C1230 H1203 0.950 . S
C1230 C1216 1.377 1_556 S
C1230 C1229 1.373 . S
C1231 C1215 1.377 . S
C1231 C1229 1.389 1_554 S
C1231 C1232 1.524 . S
C1232 C1231 1.524 . S
C1232 C1233 1.397 . S
C1232 C1237 1.363 . S
C1233 H1204 0.950 1_554 S
C1233 C1232 1.397 . S
C1233 C1234 1.334 . S
C1234 H1205 0.950 1_554 S
C1234 C1233 1.334 . S
C1234 C1235 1.287 . S
C1235 C1234 1.287 . S
C1235 C1236 1.524 . S
C1235 H1238 0.999 . S
C1236 H1206 0.950 . S
C1236 C1235 1.524 . S
C1236 C1237 1.415 . S
C1237 H1207 0.950 . S
C1237 C1232 1.363 . S
C1237 C1236 1.415 . S
H1238 C1235 0.999 . S
H1239 C1220 0.913 . S
H1240 C1258 0.951 . S
H1241 C1260 0.951 . S
H1242 C1262 0.950 . S
H1243 C1263 0.950 . S
H1244 C1265 0.950 . S
H1245 C1268 0.950 . S
H1246 C1269 0.950 1_455 S
H1247 C1271 0.950 . S
H1248 C1272 0.950 . S
H1249 C1273 0.951 . S
H1250 C1275 0.951 . S
H1251 C1277 0.950 1_655 S
H1252 C1278 0.950 1_655 S
H1253 C1280 0.947 . S
H1254 C1283 0.950 . S
H1255 C1284 0.950 . S
H1256 C1286 0.950 . S
H1257 C1287 0.950 . S
C1258 H1240 0.951 . S
C1258 C1259 1.366 . S
C1258 C1260 1.388 . S
C1259 C1258 1.366 . S
C1259 C1263 1.385 . S
C1260 H1241 0.951 . S
C1260 C1258 1.388 . S
C1260 C1261 1.366 . S
C1261 C1260 1.366 . S
C1261 C1262 1.414 . S
C1261 C1264 1.499 . S
C1262 H1242 0.950 . S
C1262 C1261 1.414 . S
C1262 C1263 1.374 . S
C1263 H1243 0.950 . S
C1263 C1259 1.385 . S
C1263 C1262 1.374 . S
C1264 C1261 1.499 . S
C1264 C1265 1.373 . S
C1264 C1266 1.389 . S
C1265 H1244 0.950 . S
C1265 C1264 1.373 . S
C1265 C1281 1.377 . S
C1266 C1264 1.389 . S
C1266 C1267 1.493 1_455 S
C1266 C1280 1.377 . S
C1267 C1266 1.493 1_655 S
C1267 C1268 1.378 1_655 S
C1267 C1272 1.411 . S
C1268 H1245 0.950 . S
C1268 C1267 1.378 1_455 S
C1268 C1269 1.334 1_456 S
C1269 H1246 0.950 1_655 S
C1269 C1268 1.334 1_654 S
C1269 C1270 1.287 . S
C1270 C1269 1.287 . S
C1270 C1271 1.524 1_554 S
C1270 H1289 0.913 . S
C1271 H1247 0.950 . S
C1271 C1270 1.524 1_556 S
C1271 C1272 1.415 . S
C1272 H1248 0.950 . S
C1272 C1267 1.411 . S
C1272 C1271 1.415 . S
C1273 H1249 0.951 . S
C1273 C1274 1.366 . S
C1273 C1275 1.388 . S
C1274 C1273 1.366 . S
C1274 C1278 1.385 . S
C1275 H1250 0.951 . S
C1275 C1273 1.388 . S
C1275 C1276 1.366 . S
C1276 C1275 1.366 . S
C1276 C1277 1.414 . S
C1276 C1279 1.499 . S
C1277 H1251 0.950 1_455 S
C1277 C1276 1.414 . S
C1277 C1278 1.374 . S
C1278 H1252 0.950 1_455 S
C1278 C1274 1.385 . S
C1278 C1277 1.374 . S
C1279 C1276 1.499 . S
C1279 C1280 1.373 . S
C1279 C1281 1.389 . S
C1280 H1253 0.947 . S
C1280 C1266 1.377 . S
C1280 C1279 1.373 . S
C1281 C1265 1.377 . S
C1281 C1279 1.389 . S
C1281 C1282 1.524 . S
C1282 C1281 1.524 . S
C1282 C1283 1.397 . S
C1282 C1287 1.363 . S
C1283 H1254 0.950 . S
C1283 C1282 1.397 . S
C1283 C1284 1.334 . S
C1284 H1255 0.950 . S
C1284 C1283 1.334 . S
C1284 C1285 1.287 . S
C1285 C1284 1.287 . S
C1285 C1286 1.524 . S
C1285 H1288 0.999 . S
C1286 H1256 0.950 . S
C1286 C1285 1.524 . S
C1286 C1287 1.415 . S
C1287 H1257 0.950 . S
C1287 C1282 1.363 . S
C1287 C1286 1.415 . S
H1288 C1285 0.999 . S
H1289 C1270 0.913 . S
H1290 C1308 0.951 . S
H1291 C1310 0.951 . S
H1292 C1312 0.950 . S
H1293 C1313 0.950 . S
H1294 C1315 0.950 . S
H1295 C1318 0.950 . S
H1296 C1319 0.950 . S
H1297 C1321 0.950 . S
H1298 C1322 0.950 . S
H1299 C1323 0.951 . S
H1300 C1325 0.951 . S
H1301 C1327 0.950 . S
H1302 C1328 0.950 . S
H1303 C1330 0.950 . S
H1304 C1333 0.950 . S
H1305 C1334 0.950 . S
H1306 C1336 0.950 . S
H1307 C1337 0.950 . S
C1308 H1290 0.951 . S
C1308 C1309 1.366 . S
C1308 C1310 1.388 . S
C1309 C1308 1.366 . S
C1309 C1313 1.385 . S
C1310 H1291 0.951 . S
C1310 C1308 1.388 . S
C1310 C1311 1.366 . S
C1311 C1310 1.366 . S
C1311 C1312 1.414 . S
C1311 C1314 1.499 . S
C1312 H1292 0.950 . S
C1312 C1311 1.414 . S
C1312 C1313 1.374 . S
C1313 H1293 0.950 . S
C1313 C1309 1.385 . S
C1313 C1312 1.374 . S
C1314 C1311 1.499 . S
C1314 C1315 1.373 . S
C1314 C1316 1.389 . S
C1315 H1294 0.950 . S
C1315 C1314 1.373 . S
C1315 C1331 1.377 . S
C1316 C1314 1.389 . S
C1316 C1317 1.524 . S
C1316 C1330 1.377 . S
C1317 C1316 1.524 . S
C1317 C1318 1.397 . S
C1317 C1322 1.363 . S
C1318 H1295 0.950 . S
C1318 C1317 1.397 . S
C1318 C1319 1.334 . S
C1319 H1296 0.950 . S
C1319 C1318 1.334 . S
C1319 C1320 1.287 1_556 S
C1320 C1319 1.287 1_554 S
C1320 C1321 1.524 . S
C1320 H1339 0.913 . S
C1321 H1297 0.950 . S
C1321 C1320 1.524 . S
C1321 C1322 1.415 1_554 S
C1322 H1298 0.950 . S
C1322 C1317 1.363 . S
C1322 C1321 1.415 1_556 S
C1323 H1299 0.951 . S
C1323 C1324 1.366 . S
C1323 C1325 1.388 . S
C1324 C1323 1.366 . S
C1324 C1328 1.385 . S
C1325 H1300 0.951 . S
C1325 C1323 1.388 . S
C1325 C1326 1.366 . S
C1326 C1325 1.366 . S
C1326 C1327 1.414 . S
C1326 C1329 1.499 . S
C1327 H1301 0.950 . S
C1327 C1326 1.414 . S
C1327 C1328 1.374 . S
C1328 H1302 0.950 . S
C1328 C1324 1.385 . S
C1328 C1327 1.374 . S
C1329 C1326 1.499 . S
C1329 C1330 1.373 . S
C1329 C1331 1.389 . S
C1330 H1303 0.950 . S
C1330 C1316 1.377 . S
C1330 C1329 1.373 . S
C1331 C1315 1.377 . S
C1331 C1329 1.389 . S
C1331 C1332 1.524 . S
C1332 C1331 1.524 . S
C1332 C1333 1.397 1_545 S
C1332 C1337 1.363 . S
C1333 H1304 0.950 . S
C1333 C1332 1.397 1_565 S
C1333 C1334 1.334 . S
C1334 H1305 0.950 . S
C1334 C1333 1.334 . S
C1334 C1335 1.287 . S
C1335 C1334 1.287 . S
C1335 C1336 1.524 1_565 S
C1335 H1338 0.999 . S
C1336 H1306 0.950 . S
C1336 C1335 1.524 1_545 S
C1336 C1337 1.415 . S
C1337 H1307 0.950 . S
C1337 C1332 1.363 . S
C1337 C1336 1.415 . S
H1338 C1335 0.999 . S
H1339 C1320 0.913 . S
H1340 C1358 0.951 . S
H1341 C1360 0.951 . S
H1342 C1362 0.950 . S
H1343 C1363 0.950 . S
H1344 C1365 0.950 . S
H1345 C1368 0.950 . S
H1346 C1369 0.950 . S
H1347 C1371 0.950 . S
H1348 C1372 0.950 . S
H1349 C1373 0.951 . S
H1350 C1375 0.951 . S
H1351 C1377 0.950 . S
H1352 C1378 0.950 . S
H1353 C1380 0.950 . S
H1354 C1383 0.950 . S
H1355 C1384 0.950 . S
H1356 C1386 0.950 . S
H1357 C1387 0.950 . S
C1358 H1340 0.951 . S
C1358 C1359 1.366 . S
C1358 C1360 1.388 . S
C1359 C1358 1.366 . S
C1359 C1363 1.385 . S
C1360 H1341 0.951 . S
C1360 C1358 1.388 . S
C1360 C1361 1.366 . S
C1361 C1360 1.366 . S
C1361 C1362 1.414 . S
C1361 C1364 1.499 . S
C1362 H1342 0.950 . S
C1362 C1361 1.414 . S
C1362 C1363 1.374 . S
C1363 H1343 0.950 . S
C1363 C1359 1.385 . S
C1363 C1362 1.374 . S
C1364 C1361 1.499 . S
C1364 C1365 1.373 . S
C1364 C1366 1.389 . S
C1365 H1344 0.950 . S
C1365 C1364 1.373 . S
C1365 C1381 1.377 . S
C1366 C1364 1.389 . S
C1366 C1367 1.524 . S
C1366 C1380 1.377 . S
C1367 C1366 1.524 . S
C1367 C1368 1.397 . S
C1367 C1372 1.363 . S
C1368 H1345 0.950 . S
C1368 C1367 1.397 . S
C1368 C1369 1.334 . S
C1369 H1346 0.950 . S
C1369 C1368 1.334 . S
C1369 C1370 1.287 . S
C1370 C1369 1.287 . S
C1370 C1371 1.524 . S
C1370 H1389 0.913 . S
C1371 H1347 0.950 . S
C1371 C1370 1.524 . S
C1371 C1372 1.415 . S
C1372 H1348 0.950 . S
C1372 C1367 1.363 . S
C1372 C1371 1.415 . S
C1373 H1349 0.951 . S
C1373 C1374 1.366 . S
C1373 C1375 1.388 . S
C1374 C1373 1.366 . S
C1374 C1378 1.385 . S
C1375 H1350 0.951 . S
C1375 C1373 1.388 . S
C1375 C1376 1.366 . S
C1376 C1375 1.366 . S
C1376 C1377 1.414 . S
C1376 C1379 1.499 . S
C1377 H1351 0.950 . S
C1377 C1376 1.414 . S
C1377 C1378 1.374 . S
C1378 H1352 0.950 . S
C1378 C1374 1.385 . S
C1378 C1377 1.374 . S
C1379 C1376 1.499 . S
C1379 C1380 1.373 . S
C1379 C1381 1.389 . S
C1380 H1353 0.950 . S
C1380 C1366 1.377 . S
C1380 C1379 1.373 . S
C1381 C1365 1.377 . S
C1381 C1379 1.389 . S
C1381 C1382 1.524 . S
C1382 C1381 1.524 . S
C1382 C1383 1.397 . S
C1382 C1387 1.363 . S
C1383 H1354 0.950 . S
C1383 C1382 1.397 . S
C1383 C1384 1.334 . S
C1384 H1355 0.950 . S
C1384 C1383 1.334 . S
C1384 C1385 1.287 . S
C1385 C1384 1.287 . S
C1385 C1386 1.524 . S
C1385 H1388 0.999 . S
C1386 H1356 0.950 . S
C1386 C1385 1.524 . S
C1386 C1387 1.415 . S
C1387 H1357 0.950 . S
C1387 C1382 1.363 . S
C1387 C1386 1.415 . S
H1388 C1385 0.999 . S
H1389 C1370 0.913 . S
H1390 C1408 0.951 . S
H1391 C1410 0.951 . S
H1392 C1412 0.950 . S
H1393 C1413 0.950 . S
H1394 C1415 0.950 . S
H1395 C1418 0.950 . S
H1396 C1419 0.950 . S
H1397 C1421 0.950 . S
H1398 C1422 0.950 . S
H1399 C1423 0.951 . S
H1400 C1425 0.951 . S
H1401 C1427 0.950 . S
H1402 C1428 0.950 . S
H1403 C1430 0.950 . S
H1404 C1433 0.950 . S
H1405 C1434 0.950 . S
H1406 C1436 0.950 . S
H1407 C1437 0.950 . S
C1408 H1390 0.951 . S
C1408 C1409 1.366 . S
C1408 C1410 1.388 . S
C1409 C1408 1.366 . S
C1409 C1413 1.385 . S
C1410 H1391 0.951 . S
C1410 C1408 1.388 . S
C1410 C1411 1.366 . S
C1411 C1410 1.366 . S
C1411 C1412 1.414 . S
C1411 C1414 1.499 . S
C1412 H1392 0.950 . S
C1412 C1411 1.414 . S
C1412 C1413 1.374 . S
C1413 H1393 0.950 . S
C1413 C1409 1.385 . S
C1413 C1412 1.374 . S
C1414 C1411 1.499 . S
C1414 C1415 1.373 . S
C1414 C1416 1.389 . S
C1415 H1394 0.950 . S
C1415 C1414 1.373 . S
C1415 C1431 1.377 . S
C1416 C1414 1.389 . S
C1416 C1417 1.524 . S
C1416 C1430 1.377 . S
C1417 C1416 1.524 . S
C1417 C1418 1.397 . S
C1417 C1422 1.363 . S
C1418 H1395 0.950 . S
C1418 C1417 1.397 . S
C1418 C1419 1.334 . S
C1419 H1396 0.950 . S
C1419 C1418 1.334 . S
C1419 C1420 1.287 . S
C1420 C1419 1.287 . S
C1420 C1421 1.524 . S
C1420 H1439 0.913 . S
C1421 H1397 0.950 . S
C1421 C1420 1.524 . S
C1421 C1422 1.415 . S
C1422 H1398 0.950 . S
C1422 C1417 1.363 . S
C1422 C1421 1.415 . S
C1423 H1399 0.951 . S
C1423 C1424 1.366 . S
C1423 C1425 1.388 . S
C1424 C1423 1.366 . S
C1424 C1428 1.385 . S
C1425 H1400 0.951 . S
C1425 C1423 1.388 . S
C1425 C1426 1.366 . S
C1426 C1425 1.366 . S
C1426 C1427 1.414 . S
C1426 C1429 1.499 . S
C1427 H1401 0.950 . S
C1427 C1426 1.414 . S
C1427 C1428 1.374 . S
C1428 H1402 0.950 . S
C1428 C1424 1.385 . S
C1428 C1427 1.374 . S
C1429 C1426 1.499 . S
C1429 C1430 1.373 . S
C1429 C1431 1.389 . S
C1430 H1403 0.950 . S
C1430 C1416 1.377 . S
C1430 C1429 1.373 . S
C1431 C1415 1.377 . S
C1431 C1429 1.389 . S
C1431 C1432 1.524 . S
C1432 C1431 1.524 . S
C1432 C1433 1.397 . S
C1432 C1437 1.363 . S
C1433 H1404 0.950 . S
C1433 C1432 1.397 . S
C1433 C1434 1.334 . S
C1434 H1405 0.950 . S
C1434 C1433 1.334 . S
C1434 C1435 1.287 . S
C1435 C1434 1.287 . S
C1435 C1436 1.524 . S
C1435 H1438 0.999 . S
C1436 H1406 0.950 . S
C1436 C1435 1.524 . S
C1436 C1437 1.415 . S
C1437 H1407 0.950 . S
C1437 C1432 1.363 . S
C1437 C1436 1.415 . S
H1438 C1435 0.999 . S
H1439 C1420 0.913 . S
H1440 C1458 0.951 1_455 S
H1441 C1460 0.951 1_455 S
H1442 C1462 0.950 . S
H1443 C1463 0.950 . S
H1444 C1465 0.950 . S
H1445 C1468 0.950 . S
H1446 C1469 0.950 . S
H1447 C1471 0.950 . S
H1448 C1472 0.950 . S
H1449 C1473 0.951 . S
H1450 C1475 0.951 . S
H1451 C1477 0.950 . S
H1452 C1478 0.950 . S
H1453 C1480 0.950 1_455 S
H1454 C1483 0.950 . S
H1455 C1484 0.950 . S
H1456 C1486 0.950 . S
H1457 C1487 0.950 . S
C1458 H1440 0.951 1_655 S
C1458 C1459 1.366 . S
C1458 C1460 1.388 . S
C1459 C1458 1.366 . S
C1459 C1463 1.385 . S
C1460 H1441 0.951 1_655 S
C1460 C1458 1.388 . S
C1460 C1461 1.366 . S
C1461 C1460 1.366 . S
C1461 C1462 1.414 . S
C1461 C1464 1.499 . S
C1462 H1442 0.950 . S
C1462 C1461 1.414 . S
C1462 C1463 1.374 . S
C1463 H1443 0.950 . S
C1463 C1459 1.385 . S
C1463 C1462 1.374 . S
C1464 C1461 1.499 . S
C1464 C1465 1.373 . S
C1464 C1466 1.389 . S
C1465 H1444 0.950 . S
C1465 C1464 1.373 . S
C1465 C1481 1.377 . S
C1466 C1464 1.389 . S
C1466 C1467 1.524 1_655 S
C1466 C1480 1.377 . S
C1467 C1466 1.524 1_455 S
C1467 C1468 1.397 1_455 S
C1467 C1472 1.363 . S
C1468 H1445 0.950 . S
C1468 C1467 1.397 1_655 S
C1468 C1469 1.334 . S
C1469 H1446 0.950 . S
C1469 C1468 1.334 . S
C1469 C1470 1.287 1_655 S
C1470 C1469 1.287 1_455 S
C1470 C1471 1.524 . S
C1470 H1489 0.913 . S
C1471 H1447 0.950 . S
C1471 C1470 1.524 . S
C1471 C1472 1.415 . S
C1472 H1448 0.950 . S
C1472 C1467 1.363 . S
C1472 C1471 1.415 . S
C1473 H1449 0.951 . S
C1473 C1474 1.366 . S
C1473 C1475 1.388 . S
C1474 C1473 1.366 . S
C1474 C1478 1.385 1_655 S
C1475 H1450 0.951 . S
C1475 C1473 1.388 . S
C1475 C1476 1.366 . S
C1476 C1475 1.366 . S
C1476 C1477 1.414 1_655 S
C1476 C1479 1.499 . S
C1477 H1451 0.950 . S
C1477 C1476 1.414 1_455 S
C1477 C1478 1.374 . S
C1478 H1452 0.950 . S
C1478 C1474 1.385 1_455 S
C1478 C1477 1.374 . S
C1479 C1476 1.499 . S
C1479 C1480 1.373 . S
C1479 C1481 1.389 . S
C1480 H1453 0.950 1_655 S
C1480 C1466 1.377 . S
C1480 C1479 1.373 . S
C1481 C1465 1.377 . S
C1481 C1479 1.389 . S
C1481 C1482 1.524 . S
C1482 C1481 1.524 . S
C1482 C1483 1.397 . S
C1482 C1487 1.363 . S
C1483 H1454 0.950 . S
C1483 C1482 1.397 . S
C1483 C1484 1.334 . S
C1484 H1455 0.950 . S
C1484 C1483 1.334 . S
C1484 C1485 1.287 . S
C1485 C1484 1.287 . S
C1485 C1486 1.524 . S
C1485 H1488 0.999 . S
C1486 H1456 0.950 . S
C1486 C1485 1.524 . S
C1486 C1487 1.415 . S
C1487 H1457 0.950 . S
C1487 C1482 1.363 . S
C1487 C1486 1.415 . S
H1488 C1485 0.999 . S
H1489 C1470 0.913 . S
H1490 C1508 0.951 . S
H1491 C1510 0.951 . S
H1492 C1512 0.950 1_545 S
H1493 C1513 0.950 1_545 S
H1494 C1515 0.950 1_545 S
H1495 C1518 0.950 . S
H1496 C1519 0.950 . S
H1497 C1521 0.950 . S
H1498 C1522 0.950 . S
H1499 C1523 0.951 . S
H1500 C1525 0.951 . S
H1501 C1527 0.950 . S
H1502 C1528 0.950 . S
H1503 C1530 0.950 . S
H1504 C1533 0.950 1_565 S
H1505 C1534 0.950 . S
H1506 C1536 0.950 . S
H1507 C1537 0.950 . S
C1508 H1490 0.951 . S
C1508 C1509 1.366 . S
C1508 C1510 1.388 . S
C1509 C1508 1.366 . S
C1509 C1513 1.385 . S
C1510 H1491 0.951 . S
C1510 C1508 1.388 . S
C1510 C1511 1.366 . S
C1511 C1510 1.366 . S
C1511 C1512 1.414 . S
C1511 C1514 1.499 . S
C1512 H1492 0.950 1_565 S
C1512 C1511 1.414 . S
C1512 C1513 1.374 . S
C1513 H1493 0.950 1_565 S
C1513 C1509 1.385 . S
C1513 C1512 1.374 . S
C1514 C1511 1.499 . S
C1514 C1515 1.373 . S
C1514 C1516 1.389 . S
C1515 H1494 0.950 1_565 S
C1515 C1514 1.373 . S
C1515 C1531 1.381 . S
C1516 C1514 1.389 . S
C1516 C1517 1.524 . S
C1516 C1530 1.377 . S
C1517 C1516 1.524 . S
C1517 C1518 1.397 . S
C1517 C1522 1.363 . S
C1518 H1495 0.950 . S
C1518 C1517 1.397 . S
C1518 C1519 1.334 . S
C1519 H1496 0.950 . S
C1519 C1518 1.334 . S
C1519 C1520 1.287 . S
C1520 C1519 1.287 . S
C1520 C1521 1.524 . S
C1520 H1539 0.913 . S
C1521 H1497 0.950 . S
C1521 C1520 1.524 . S
C1521 C1522 1.415 . S
C1522 H1498 0.950 . S
C1522 C1517 1.363 . S
C1522 C1521 1.415 . S
C1523 H1499 0.951 . S
C1523 C1524 1.366 1_545 S
C1523 C1525 1.388 . S
C1524 C1523 1.366 1_565 S
C1524 C1528 1.385 . S
C1525 H1500 0.951 . S
C1525 C1523 1.388 . S
C1525 C1526 1.366 1_545 S
C1526 C1525 1.366 1_565 S
C1526 C1527 1.414 . S
C1526 C1529 1.499 . S
C1527 H1501 0.950 . S
C1527 C1526 1.414 . S
C1527 C1528 1.374 . S
C1528 H1502 0.950 . S
C1528 C1524 1.385 . S
C1528 C1527 1.374 . S
C1529 C1526 1.499 . S
C1529 C1530 1.373 . S
C1529 C1531 1.411 . S
C1530 H1503 0.950 . S
C1530 C1516 1.377 . S
C1530 C1529 1.373 . S
C1531 C1515 1.381 . S
C1531 C1529 1.411 . S
C1531 C1532 1.501 1_565 S
C1532 C1531 1.501 1_545 S
C1532 C1533 1.397 . S
C1532 C1537 1.363 . S
C1533 H1504 0.950 1_545 S
C1533 C1532 1.397 . S
C1533 C1534 1.334 . S
C1534 H1505 0.950 . S
C1534 C1533 1.334 . S
C1534 C1535 1.287 . S
C1535 C1534 1.287 . S
C1535 C1536 1.524 . S
C1535 H1538 0.999 . S
C1536 H1506 0.950 . S
C1536 C1535 1.524 . S
C1536 C1537 1.415 . S
C1537 H1507 0.950 . S
C1537 C1532 1.363 . S
C1537 C1536 1.415 . S
H1538 C1535 0.999 . S
H1539 C1520 0.913 . S
H1540 C1558 0.951 . S
H1541 C1560 0.951 . S
H1542 C1562 0.950 . S
H1543 C1563 0.950 . S
H1544 C1565 0.950 . S
H1545 C1568 0.950 . S
H1546 C1569 0.950 . S
H1547 C1571 0.950 . S
H1548 C1572 0.950 . S
H1549 C1573 0.951 . S
H1550 C1575 0.951 . S
H1551 C1577 0.950 . S
H1552 C1578 0.950 . S
H1553 C1580 0.950 . S
H1554 C1583 0.950 . S
H1555 C1584 0.950 . S
H1556 C1586 0.950 . S
H1557 C1587 0.950 . S
C1558 H1540 0.951 . S
C1558 C1559 1.366 . S
C1558 C1560 1.388 . S
C1559 C1558 1.366 . S
C1559 C1563 1.385 . S
C1560 H1541 0.951 . S
C1560 C1558 1.388 . S
C1560 C1561 1.366 . S
C1561 C1560 1.366 . S
C1561 C1562 1.414 . S
C1561 C1564 1.499 . S
C1562 H1542 0.950 . S
C1562 C1561 1.414 . S
C1562 C1563 1.374 . S
C1563 H1543 0.950 . S
C1563 C1559 1.385 . S
C1563 C1562 1.374 . S
C1564 C1561 1.499 . S
C1564 C1565 1.373 . S
C1564 C1566 1.389 . S
C1565 H1544 0.950 . S
C1565 C1564 1.373 . S
C1565 C1581 1.377 . S
C1566 C1564 1.389 . S
C1566 C1567 1.524 . S
C1566 C1580 1.377 . S
C1567 C1566 1.524 . S
C1567 C1568 1.397 . S
C1567 C1572 1.363 . S
C1568 H1545 0.950 . S
C1568 C1567 1.397 . S
C1568 C1569 1.334 . S
C1569 H1546 0.950 . S
C1569 C1568 1.334 . S
C1569 C1570 1.287 . S
C1570 C1569 1.287 . S
C1570 C1571 1.524 . S
C1570 H1589 0.913 . S
C1571 H1547 0.950 . S
C1571 C1570 1.524 . S
C1571 C1572 1.415 . S
C1572 H1548 0.950 . S
C1572 C1567 1.363 . S
C1572 C1571 1.415 . S
C1573 H1549 0.951 . S
C1573 C1574 1.366 . S
C1573 C1575 1.388 . S
C1574 C1573 1.366 . S
C1574 C1578 1.385 . S
C1575 H1550 0.951 . S
C1575 C1573 1.388 . S
C1575 C1576 1.366 . S
C1576 C1575 1.366 . S
C1576 C1577 1.414 . S
C1576 C1579 1.499 . S
C1577 H1551 0.950 . S
C1577 C1576 1.414 . S
C1577 C1578 1.374 . S
C1578 H1552 0.950 . S
C1578 C1574 1.385 . S
C1578 C1577 1.374 . S
C1579 C1576 1.499 . S
C1579 C1580 1.373 . S
C1579 C1581 1.389 . S
C1580 H1553 0.950 . S
C1580 C1566 1.377 . S
C1580 C1579 1.373 . S
C1581 C1565 1.377 . S
C1581 C1579 1.389 . S
C1581 C1582 1.524 . S
C1582 C1581 1.524 . S
C1582 C1583 1.397 . S
C1582 C1587 1.363 . S
C1583 H1554 0.950 . S
C1583 C1582 1.397 . S
C1583 C1584 1.334 . S
C1584 H1555 0.950 . S
C1584 C1583 1.334 . S
C1584 C1585 1.287 . S
C1585 C1584 1.287 . S
C1585 C1586 1.524 . S
C1585 H1588 0.999 . S
C1586 H1556 0.950 . S
C1586 C1585 1.524 . S
C1586 C1587 1.415 . S
C1587 H1557 0.950 . S
C1587 C1582 1.363 . S
C1587 C1586 1.415 . S
H1588 C1585 0.999 . S
H1589 C1570 0.913 . S
H1590 C1608 0.951 . S
H1591 C1610 0.951 . S
H1592 C1612 0.950 . S
H1593 C1613 0.950 . S
H1594 C1615 0.950 . S
H1595 C1618 0.950 . S
H1596 C1619 0.950 . S
H1597 C1621 0.950 . S
H1598 C1622 0.950 . S
H1599 C1623 0.951 . S
H1600 C1625 0.951 . S
H1601 C1627 0.950 . S
H1602 C1628 0.950 . S
H1603 C1630 0.950 . S
H1604 C1633 0.950 . S
H1605 C1634 0.950 . S
H1606 C1636 0.950 . S
H1607 C1637 0.950 . S
C1608 H1590 0.951 . S
C1608 C1609 1.366 . S
C1608 C1610 1.388 . S
C1609 C1608 1.366 . S
C1609 C1613 1.385 . S
C1610 H1591 0.951 . S
C1610 C1608 1.388 . S
C1610 C1611 1.366 . S
C1611 C1610 1.366 . S
C1611 C1612 1.414 . S
C1611 C1614 1.499 . S
C1612 H1592 0.950 . S
C1612 C1611 1.414 . S
C1612 C1613 1.374 . S
C1613 H1593 0.950 . S
C1613 C1609 1.385 . S
C1613 C1612 1.374 . S
C1614 C1611 1.499 . S
C1614 C1615 1.373 . S
C1614 C1616 1.389 . S
C1615 H1594 0.950 . S
C1615 C1614 1.373 . S
C1615 C1631 1.377 . S
C1616 C1614 1.389 . S
C1616 C1617 1.524 . S
C1616 C1630 1.377 . S
C1617 C1616 1.524 . S
C1617 C1618 1.397 . S
C1617 C1622 1.363 . S
C1618 H1595 0.950 . S
C1618 C1617 1.397 . S
C1618 C1619 1.334 . S
C1619 H1596 0.950 . S
C1619 C1618 1.334 . S
C1619 C1620 1.287 . S
C1620 C1619 1.287 . S
C1620 C1621 1.524 . S
C1620 H1639 0.913 . S
C1621 H1597 0.950 . S
C1621 C1620 1.524 . S
C1621 C1622 1.415 . S
C1622 H1598 0.950 . S
C1622 C1617 1.363 . S
C1622 C1621 1.415 . S
C1623 H1599 0.951 . S
C1623 C1624 1.366 . S
C1623 C1625 1.388 . S
C1624 C1623 1.366 . S
C1624 C1628 1.385 . S
C1625 H1600 0.951 . S
C1625 C1623 1.388 . S
C1625 C1626 1.366 . S
C1626 C1625 1.366 . S
C1626 C1627 1.414 . S
C1626 C1629 1.499 . S
C1627 H1601 0.950 . S
C1627 C1626 1.414 . S
C1627 C1628 1.374 . S
C1628 H1602 0.950 . S
C1628 C1624 1.385 . S
C1628 C1627 1.374 . S
C1629 C1626 1.499 . S
C1629 C1630 1.373 . S
C1629 C1631 1.389 . S
C1630 H1603 0.950 . S
C1630 C1616 1.377 . S
C1630 C1629 1.373 . S
C1631 C1615 1.377 . S
C1631 C1629 1.389 . S
C1631 C1632 1.524 . S
C1632 C1631 1.524 . S
C1632 C1633 1.397 . S
C1632 C1637 1.363 . S
C1633 H1604 0.950 . S
C1633 C1632 1.397 . S
C1633 C1634 1.334 . S
C1634 H1605 0.950 . S
C1634 C1633 1.334 . S
C1634 C1635 1.287 . S
C1635 C1634 1.287 . S
C1635 C1636 1.524 . S
C1635 H1638 0.999 . S
C1636 H1606 0.950 . S
C1636 C1635 1.524 . S
C1636 C1637 1.415 . S
C1637 H1607 0.950 . S
C1637 C1632 1.363 . S
C1637 C1636 1.415 . S
H1638 C1635 0.999 . S
H1639 C1620 0.913 . S
C459 C82 1.729 . S
C474 C172 1.925 . S
C524 C255 1.946 . S
C509 C95 1.736 . S
C574 C340 1.912 . S
C559 C56 1.714 . S
C624 C424 1.901 . S
C609 C69 1.706 . S
C674 C160 1.924 . S
C659 C30 1.689 . S
C709 C43 1.696 . S
C724 C243 1.947 . S
C759 C4 1.676 . S
C774 C328 1.912 . S
C809 C17 1.669 . S
C824 C412 1.901 1_655 S
C874 C162 0.556 1_455 S
C859 C74 0.478 . S
C924 C258 0.555 . S
C909 C87 0.447 . S
C974 C330 0.557 . S
C959 C100 0.483 . S
C1009 C61 0.462 . S
C1024 C414 0.545 . S
C1059 C22 0.481 . S
C1074 C174 0.555 . S
C1124 C246 0.554 . S
C1109 C35 0.452 . S
C1174 C342 0.557 . S
C1159 C48 0.486 . S
C1209 C9 0.464 . S
C1224 C426 0.544 . S
C1259 C73 1.852 . S
C1274 C159 1.998 . S
C1309 C86 1.846 . S
C1324 C244 1.990 . S
C1374 C327 2.020 . S
C1359 C99 1.870 . S
C1424 C411 2.025 . S
C1409 C60 1.877 . S
C1459 C21 1.848 . S
C1474 C171 1.998 . S
C1524 C256 1.990 1_565 S
C1509 C34 1.842 . S
C1574 C339 2.020 . S
C1559 C47 1.868 . S
C1609 C8 1.875 . S
C1624 C423 2.026 . S
