# Generated by pormake.
# Topology zzz, (3,6)-cn, num edge types: 1
# Building blocks:
#     Node 0, Type 0, BuildingBlock: PAMTOO_clean_linker_0, # of connection points: 3
#     Node 1, Type 0, BuildingBlock: PAMTOO_clean_linker_0, # of connection points: 3
#     Node 2, Type 0, BuildingBlock: PAMTOO_clean_linker_0, # of connection points: 3
#     Node 3, Type 0, BuildingBlock: PAMTOO_clean_linker_0, # of connection points: 3
#     Node 4, Type 0, BuildingBlock: PAMTOO_clean_linker_0, # of connection points: 3
#     Node 5, Type 0, BuildingBlock: PAMTOO_clean_linker_0, # of connection points: 3
#     Node 6, Type 0, BuildingBlock: PAMTOO_clean_linker_0, # of connection points: 3
#     Node 7, Type 0, BuildingBlock: PAMTOO_clean_linker_0, # of connection points: 3
#     Node 8, Type 1, BuildingBlock: BETDEL_clean_sbu_0, # of connection points: 6
#     Node 9, Type 1, BuildingBlock: BETDEL_clean_sbu_0, # of connection points: 6
#     Node 10, Type 1, BuildingBlock: BETDEL_clean_sbu_0, # of connection points: 6
#     Node 11, Type 1, BuildingBlock: BETDEL_clean_sbu_0, # of connection points: 6
#     Edge 12, Type (0, 1), BuildingBlock: XUDNAN_clean_linker_2, # of connection points: 2
#     Edge 13, Type (0, 1), BuildingBlock: XUDNAN_clean_linker_2, # of connection points: 2
#     Edge 14, Type (0, 1), BuildingBlock: XUDNAN_clean_linker_2, # of connection points: 2
#     Edge 15, Type (0, 1), BuildingBlock: XUDNAN_clean_linker_2, # of connection points: 2
#     Edge 16, Type (0, 1), BuildingBlock: XUDNAN_clean_linker_2, # of connection points: 2
#     Edge 17, Type (0, 1), BuildingBlock: XUDNAN_clean_linker_2, # of connection points: 2
#     Edge 18, Type (0, 1), BuildingBlock: XUDNAN_clean_linker_2, # of connection points: 2
#     Edge 19, Type (0, 1), BuildingBlock: XUDNAN_clean_linker_2, # of connection points: 2
#     Edge 20, Type (0, 1), BuildingBlock: XUDNAN_clean_linker_2, # of connection points: 2
#     Edge 21, Type (0, 1), BuildingBlock: XUDNAN_clean_linker_2, # of connection points: 2
#     Edge 22, Type (0, 1), BuildingBlock: XUDNAN_clean_linker_2, # of connection points: 2
#     Edge 23, Type (0, 1), BuildingBlock: XUDNAN_clean_linker_2, # of connection points: 2
#     Edge 24, Type (0, 1), BuildingBlock: XUDNAN_clean_linker_2, # of connection points: 2
#     Edge 25, Type (0, 1), BuildingBlock: XUDNAN_clean_linker_2, # of connection points: 2
#     Edge 26, Type (0, 1), BuildingBlock: XUDNAN_clean_linker_2, # of connection points: 2
#     Edge 27, Type (0, 1), BuildingBlock: XUDNAN_clean_linker_2, # of connection points: 2
#     Edge 28, Type (0, 1), BuildingBlock: XUDNAN_clean_linker_2, # of connection points: 2
#     Edge 29, Type (0, 1), BuildingBlock: XUDNAN_clean_linker_2, # of connection points: 2
#     Edge 30, Type (0, 1), BuildingBlock: XUDNAN_clean_linker_2, # of connection points: 2
#     Edge 31, Type (0, 1), BuildingBlock: XUDNAN_clean_linker_2, # of connection points: 2
#     Edge 32, Type (0, 1), BuildingBlock: XUDNAN_clean_linker_2, # of connection points: 2
#     Edge 33, Type (0, 1), BuildingBlock: XUDNAN_clean_linker_2, # of connection points: 2
#     Edge 34, Type (0, 1), BuildingBlock: XUDNAN_clean_linker_2, # of connection points: 2
#     Edge 35, Type (0, 1), BuildingBlock: XUDNAN_clean_linker_2, # of connection points: 2
# Relax obj value: 0.155
# Max RMSD: 0.176
# Mean RMSD: 0.114
data_MOF--net-zzz--node1-BETDEL_clean_sbu_0--node2-PAMTOO_clean_linker_0--edge1-XUDNAN_clean_linker_2
_symmetry_space_group_name_H-M    P1
_symmetry_Int_Tables_number       1
_symmetry_cell_setting            triclinic
loop_
_symmetry_equiv_pos_as_xyz
'x, y, z'
_cell_length_a     49.539129
_cell_length_b     50.728394
_cell_length_c     14.862517
_cell_angle_alpha  91.62886
_cell_angle_beta   88.633582
_cell_angle_gamma 95.111435
loop_
_atom_site_label
_atom_site_type_symbol
_atom_site_fract_x
_atom_site_fract_y
_atom_site_fract_z
_atom_type_partial_charge
H0 H 0.81398 0.47385 0.12133 0.0
H1 H 0.74818 0.48506 0.9485 0.0
H2 H 0.75674 0.5299 0.19831 0.0
H3 H 0.68937 0.51563 0.12116 0.0
C4 C 0.69923 0.50744 0.05987 0.0
O5 O 0.72571 0.51915 0.05358 0.0
H6 H 0.69911 0.48566 0.06758 0.0
C7 C 0.79517 0.48267 0.11028 0.0
C8 C 0.78766 0.50285 0.16912 0.0
C9 C 0.78153 0.47654 0.03023 0.0
C10 C 0.75804 0.48874 0.01252 0.0
C11 C 0.74798 0.50685 0.07517 0.0
C12 C 0.76311 0.51431 0.15357 0.0
H13 H 0.02503 0.82208 0.10107 0.0
H14 H 0.02473 0.74837 0.95057 0.0
H15 H 0.98484 0.75137 0.2109 0.0
H16 H 0.01327 0.6973 0.16508 0.0
C17 C 0.01495 0.70085 0.09159 0.0
O18 O 0.99791 0.72003 0.07186 0.0
H19 H 0.03643 0.70789 0.07582 0.0
C20 C 0.02069 0.80072 0.09711 0.0
C21 C 1.00511 0.78852 0.16624 0.0
C22 C 0.02751 0.78672 0.0184 0.0
C23 C 0.02005 0.75941 0.01162 0.0
C24 C 1.0055 0.74634 0.08195 0.0
C25 C 0.99747 0.76106 0.15895 0.0
H26 H 0.68758 0.02501 0.03275 0.0
H27 H 0.76963 0.03406 0.93522 0.0
H28 H 0.75121 1.00014 0.19478 0.0
H29 H 0.78981 0.98093 0.98045 0.0
C30 C 0.80369 0.99267 0.0274 0.0
O31 O 0.79045 0.01256 0.07164 0.0
H32 H 0.80975 0.97894 0.07867 0.0
C33 C 0.70886 0.02346 0.04471 0.0
C34 C 0.71662 0.01306 0.1256 0.0
C35 C 0.72776 0.03206 0.97796 0.0
C36 C 0.75501 0.02781 0.98732 0.0
C37 C 0.76353 0.01559 0.0639 0.0
C38 C 0.74436 0.00843 0.13393 0.0
H39 H 0.5316 0.69242 0.0727 0.0
H40 H 0.53169 0.76683 0.94403 0.0
H41 H 0.50617 0.76002 0.2233 0.0
H42 H 0.4809 0.80981 0.11123 0.0
C43 C 0.49452 0.80493 0.0539 0.0
O44 O 0.51655 0.79338 0.08704 0.0
H45 H 0.48269 0.79071 0.00814 0.0
C46 C 0.52766 0.71314 0.077 0.0
C47 C 0.51739 0.72366 0.15725 0.0
C48 C 0.53233 0.72824 0.00035 0.0
C49 C 0.52812 0.75509 0.00364 0.0
C50 C 0.51899 0.76684 0.08421 0.0
C51 C 0.51346 0.75106 0.16144 0.0
H52 H 0.19778 0.52456 0.08485 0.0
H53 H 0.27529 0.52615 0.20766 0.0
H54 H 0.26553 0.49718 0.93333 0.0
H55 H 0.32552 0.47993 0.03525 0.0
C56 C 0.31309 0.48706 0.09259 0.0
O57 O 0.30106 0.50919 0.06567 0.0
H58 H 0.29744 0.47049 0.10732 0.0
C59 C 0.21899 0.52081 0.07951 0.0
C60 C 0.22892 0.50935 0.00014 0.0
C61 C 0.23534 0.52665 0.15411 0.0
C62 C 0.26268 0.52192 0.14952 0.0
C63 C 0.27389 0.51169 0.06985 0.0
C64 C 0.25697 0.50533 0.9946 0.0
H65 H 0.99909 0.19185 0.09287 0.0
H66 H 1.00037 0.26977 0.21261 0.0
H67 H 1.00793 0.2597 0.92394 0.0
H68 H 0.0378 0.31696 0.01084 0.0
C69 C 0.02822 0.31126 0.07666 0.0
O70 O 1.00489 0.29473 0.0611 0.0
H71 H 0.04333 0.30081 0.11318 0.0
C72 C 0.99931 0.21307 0.08454 0.0
C73 C 1.00252 0.22328 -0.00172 0.0
C74 C 0.9986 0.22951 0.16146 0.0
C75 C 1.00057 0.25695 0.15305 0.0
C76 C 1.00366 0.26798 0.0675 0.0
C77 C 1.0051 0.25115 0.9898 0.0
H78 H 0.32669 0.97099 0.01171 0.0
H79 H 0.25526 0.97653 0.17738 0.0
H80 H 0.27046 0.0279 0.95305 0.0
H81 H 0.20941 0.98292 0.06413 0.0
C82 C 0.21035 1.00467 0.07788 0.0
O83 O 0.23699 0.01493 0.09133 0.0
H84 H 0.20268 0.01399 0.01792 0.0
C85 C 0.30726 0.97895 0.02307 0.0
C86 C 0.30046 0.99978 0.97028 0.0
C87 C 0.29125 0.97041 0.09749 0.0
C88 C 0.26728 0.98228 0.11808 0.0
C89 C 0.2592 1.00243 0.06485 0.0
C90 C 0.27596 0.0114 0.99123 0.0
H91 H 0.53292 0.3259 0.0452 0.0
H92 H 0.53206 0.25161 0.17641 0.0
H93 H 0.49345 0.25562 0.92076 0.0
H94 H 0.46612 0.2123 0.06175 0.0
C95 C 0.48484 0.21264 0.10171 0.0
O96 O 0.50659 0.22351 0.05029 0.0
H97 H 0.48159 0.22525 0.16293 0.0
C98 C 0.52769 0.30467 0.04459 0.0
C99 C 0.51216 0.29302 0.97428 0.0
C100 C 0.53428 0.29025 0.1186 0.0
C101 C 0.52755 0.26286 0.11855 0.0
C102 C 0.51327 0.25011 0.04685 0.0
C103 C 0.50531 0.26526 0.97455 0.0
Dy104 Dy 0.02087 0.99292 0.65035 0.0
C105 C 0.01403 0.06105 0.36467 0.0
C106 C 0.02099 0.95189 0.76444 0.0
Dy107 Dy 1.00393 0.02263 0.48728 0.0
O108 O 0.04193 0.9683 0.74605 0.0
O109 O 0.99979 0.95967 0.72708 0.0
O110 O 0.06372 0.00954 0.62601 0.0
O111 O 0.03857 1.00032 0.51539 0.0
C112 C 0.06194 0.00996 0.53885 0.0
C113 C 0.96168 0.01876 0.60705 0.0
O114 O 0.99632 0.98204 0.42374 0.0
O115 O 1.00877 0.95996 0.54971 0.0
O116 O 0.99104 0.04658 0.37356 0.0
O117 O 0.03178 0.05251 0.41675 0.0
O118 O 0.96104 0.03006 0.52987 0.0
O119 O 0.98459 0.00994 0.61349 0.0
O120 O 0.01637 0.0325 0.71914 0.0
O121 O 0.0213 0.05421 0.58405 0.0
C122 C 0.99971 0.95991 0.4663 0.0
C123 C 0.02031 0.05461 0.67303 0.0
Dy124 Dy 0.48649 0.98728 0.49614 0.0
C125 C 0.57929 0.04828 0.63881 0.0
C126 C 0.43931 0.96013 0.44469 0.0
Dy127 Dy 0.52875 0.02509 0.60942 0.0
O128 O 0.46334 0.95278 0.42476 0.0
O129 O 0.44131 0.98213 0.4918 0.0
O130 O 0.51827 0.98636 0.38415 0.0
O131 O 0.52995 0.9907 0.51893 0.0
C132 C 0.53859 0.9907 0.4384 0.0
C133 C 0.47718 0.03122 0.66432 0.0
O134 O 0.52045 0.05103 0.49361 0.0
O135 O 0.48405 0.02587 0.42702 0.0
O136 O 0.5605 0.04439 0.70129 0.0
O137 O 0.5703 0.03974 0.56106 0.0
O138 O 0.49809 0.04504 0.69917 0.0
O139 O 0.48593 0.01637 0.60308 0.0
O140 O 0.49293 0.96174 0.61476 0.0
O141 O 0.52838 0.98723 0.68656 0.0
C142 C 0.50091 0.04776 0.43334 0.0
C143 C 0.51134 0.96535 0.67908 0.0
Dy144 Dy 0.50027 0.51903 0.65525 0.0
C145 C 0.51799 0.45972 0.34555 0.0
C146 C 0.50622 0.55427 0.79687 0.0
Dy147 Dy 0.51759 0.4969 0.48186 0.0
O148 O 0.48412 0.54904 0.75179 0.0
O149 O 0.52372 0.5381 0.76993 0.0
O150 O 0.45713 0.50301 0.63622 0.0
O151 O 0.48093 0.51539 0.52315 0.0
C152 C 0.45806 0.50453 0.54865 0.0
C153 C 0.55916 0.51141 0.59205 0.0
O154 O 0.51427 0.53772 0.43075 0.0
O155 O 0.51503 0.55523 0.57549 0.0
O156 O 0.53923 0.4741 0.37441 0.0
O157 O 0.4966 0.46821 0.38447 0.0
O158 O 0.56047 0.51408 0.50516 0.0
O159 O 0.53633 0.49998 0.61403 0.0
O160 O 0.49847 0.47743 0.70517 0.0
O161 O 0.50434 0.46039 0.56117 0.0
C162 C 0.51599 0.55848 0.48721 0.0
C163 C 0.49959 0.45688 0.64837 0.0
Dy164 Dy 0.99555 0.49071 0.65583 0.0
C165 C 0.05967 0.52961 0.3719 0.0
C166 C 0.9581 0.47673 0.78706 0.0
Dy167 Dy 0.02101 0.52129 0.50449 0.0
O168 O 0.97229 0.46026 0.74221 0.0
O169 O 0.96596 0.50071 0.76422 0.0
O170 O 0.0103 0.45313 0.59715 0.0
O171 O 0.99903 0.48222 0.5114 0.0
C172 C 1.00893 0.46011 0.51404 0.0
C173 C 1.00749 0.55219 0.64488 0.0
O174 O 0.97891 0.52087 0.45116 0.0
O175 O 0.95954 0.50492 0.58438 0.0
O176 O 0.05147 0.5478 0.4268 0.0
O177 O 0.04402 0.50803 0.38322 0.0
O178 O 1.00716 0.55943 0.56143 0.0
O179 O 0.01712 0.52993 0.64881 0.0
O180 O 0.03765 0.49423 0.71263 0.0
O181 O 0.05676 0.507 0.57597 0.0
C182 C 0.9572 0.5146 0.50288 0.0
C183 C 0.05938 0.49951 0.65993 0.0
H184 H 0.1555 0.99126 0.09368 0.0
H185 H 0.2227 0.02891 0.24587 0.0
H186 H 0.1916 0.03582 0.37482 0.0
H187 H 0.10432 0.03346 0.17941 0.0
H188 H 0.07766 0.00689 0.18392 0.0
H189 H 0.10495 1.00548 0.10203 0.0
H190 H 0.11542 0.96004 0.16107 0.0
H191 H 0.08813 0.96128 0.24294 0.0
H192 H 0.12189 0.9569 0.27897 0.0
H193 H 0.15339 0.03773 0.48967 0.0
H194 H 0.11135 0.03362 0.58263 0.0
H195 H 0.06801 0.99493 0.35818 0.0
C196 C 0.1636 1.00111 0.15408 0.0
C197 C 0.19163 0.00968 0.15874 0.0
C198 C 0.20144 0.02226 0.2395 0.0
C199 C 0.18385 0.0263 0.31346 0.0
C200 C 0.15639 0.01766 0.30638 0.0
C201 C 0.14628 1.00527 0.22877 0.0
C202 C 0.116 0.99731 0.23967 0.0
C203 C 0.09978 0.01164 0.17224 0.0
C204 C 0.11002 0.96709 0.2301 0.0
C205 C 0.11067 0.00702 0.33572 0.0
C206 C 0.1343 0.01876 0.37269 0.0
C207 C 0.1348 0.02867 0.46114 0.0
C208 C 0.11075 0.02625 0.51352 0.0
C209 C 0.08629 0.01406 0.47794 0.0
C210 C 0.08627 1.0046 0.3872 0.0
H211 H 0.50995 0.19711 0.25447 0.0
H212 H 0.46849 0.16535 0.01637 0.0
H213 H 0.46952 0.11997 0.07251 0.0
H214 H 0.55367 0.142 0.27662 0.0
H215 H 0.55142 0.14315 0.39787 0.0
H216 H 0.54919 0.17287 0.33583 0.0
H217 H 0.5032 0.17965 0.41561 0.0
H218 H 0.50517 0.14985 0.47721 0.0
H219 H 0.47605 0.15356 0.40978 0.0
H220 H 0.47098 0.07843 0.16163 0.0
H221 H 0.47632 0.04338 0.26993 0.0
H222 H 0.51846 0.10124 0.44965 0.0
C223 C 0.50158 0.18051 0.21352 0.0
C224 C 0.48902 0.18477 0.131 0.0
C225 C 0.47817 0.16257 0.07957 0.0
C226 C 0.4786 0.13672 0.11117 0.0
C227 C 0.49029 0.13323 0.19408 0.0
C228 C 0.50197 0.15447 0.24402 0.0
C229 C 0.51264 0.14523 0.33198 0.0
C230 C 0.54357 0.15117 0.33577 0.0
C231 C 0.49841 0.15783 0.41344 0.0
C232 C 0.50472 0.11558 0.32445 0.0
C233 C 0.49177 0.10913 0.2444 0.0
C234 C 0.4814 0.08324 0.22395 0.0
C235 C 0.48442 0.06343 0.28634 0.0
C236 C 0.49793 0.06934 0.36851 0.0
C237 C 0.50831 0.09589 0.38718 0.0
H238 H 0.36877 0.50141 0.09884 0.0
H239 H 0.29782 0.48502 0.27115 0.0
H240 H 0.32692 0.48853 0.40485 0.0
H241 H 0.41318 0.46448 0.2174 0.0
H242 H 0.44282 0.48745 0.20375 0.0
H243 H 0.41651 0.48565 0.12163 0.0
H244 H 0.41184 0.53582 0.14473 0.0
H245 H 0.43834 0.53784 0.22631 0.0
H246 H 0.40575 0.54908 0.25646 0.0
H247 H 0.36402 0.48998 0.51879 0.0
H248 H 0.40584 0.49315 0.60674 0.0
H249 H 0.45369 0.50989 0.36347 0.0
C250 C 0.35937 0.49906 0.16497 0.0
C251 C 0.33091 0.49291 0.17453 0.0
C252 C 0.31945 0.48981 0.26217 0.0
C253 C 0.33588 0.49166 0.33847 0.0
C254 C 0.36389 0.49692 0.32666 0.0
C255 C 0.37557 0.50098 0.24224 0.0
C256 C 0.40631 0.5059 0.24853 0.0
C257 C 0.42054 0.4846 0.19462 0.0
C258 C 0.41614 0.53382 0.21714 0.0
C259 C 0.41011 0.5035 0.3493 0.0
C260 C 0.38531 0.49828 0.39285 0.0
C261 C 0.38349 0.49437 0.48538 0.0
C262 C 0.40746 0.49613 0.53488 0.0
C263 C 0.43317 0.50192 0.49259 0.0
C264 C 0.4344 0.50559 0.39814 0.0
H265 H 0.03395 0.32228 0.25936 0.0
H266 H 1.00807 0.3559 0.01446 0.0
H267 H 1.00046 0.39762 0.09851 0.0
H268 H 0.98627 0.35276 0.41168 0.0
H269 H 0.0102 0.35812 0.50126 0.0
H270 H 0.01268 0.33084 0.42211 0.0
H271 H 0.06244 0.34782 0.38476 0.0
H272 H 0.06003 0.37527 0.46325 0.0
H273 H 0.07002 0.38125 0.3477 0.0
H274 H 0.99743 0.43651 0.20928 0.0
H275 H 0.99679 0.46831 0.33861 0.0
H276 H 0.02462 0.40939 0.51188 0.0
C277 C 0.0265 0.3384 0.22373 0.0
C278 C 0.02178 0.33598 0.13013 0.0
C279 C 0.01191 0.35743 0.08594 0.0
C280 C 1.00761 0.38119 0.13316 0.0
C281 C 0.01308 0.3832 0.22495 0.0
C282 C 0.02212 0.36228 0.26994 0.0
C283 C 0.02666 0.36961 0.36859 0.0
C284 C 1.00783 0.35177 0.4295 0.0
C285 C 0.05657 0.36842 0.39244 0.0
C286 C 0.0189 0.39792 0.37214 0.0
C287 C 0.01117 0.40542 0.28853 0.0
C288 C 1.00335 0.43076 0.27503 0.0
C289 C 1.00313 0.44875 0.34888 0.0
C290 C 0.01063 0.4414 0.43545 0.0
C291 C 0.01875 0.41564 0.44663 0.0
H292 H 0.84707 0.96581 0.96859 0.0
H293 H 0.8166 0.04322 0.9596 0.0
H294 H 0.85499 0.05828 0.85967 0.0
H295 H 0.91988 0.98982 0.96682 0.0
H296 H 0.92962 0.96252 0.89673 0.0
H297 H 0.90053 0.95805 0.97172 0.0
H298 H 0.87065 0.94149 0.83752 0.0
H299 H 0.89961 0.94594 0.76221 0.0
H300 H 0.86946 0.962 0.74083 0.0
H301 H 0.89463 0.06411 0.75119 0.0
H302 H 0.93327 0.06069 0.64492 0.0
H303 H 0.94072 0.98043 0.72732 0.0
C304 C 0.8488 0.9861 0.94693 0.0
C305 C 0.82879 1.00336 0.97338 0.0
C306 C 0.8315 0.02956 0.94148 0.0
C307 C 0.85339 0.03835 0.88458 0.0
C308 C 0.87264 0.02083 0.85981 0.0
C309 C 0.87073 0.99529 0.89048 0.0
C310 C 0.89379 0.98024 0.85121 0.0
C311 C 0.91204 0.97218 0.9261 0.0
C312 C 0.88271 0.95599 0.79458 0.0
C313 C 0.90869 1.00115 0.7923 0.0
C314 C 0.89603 0.02441 0.79855 0.0
C315 C 0.90485 0.04611 0.74678 0.0
C316 C 0.92682 0.04396 0.6864 0.0
C317 C 0.94022 0.02045 0.67845 0.0
C318 C 0.93125 0.99885 0.7333 0.0
H319 H 0.47256 0.82356 0.90129 0.0
H320 H 0.53462 0.84454 0.09769 0.0
H321 H 0.54609 0.88729 0.02298 0.0
H322 H 0.50861 0.8535 0.70784 0.0
H323 H 0.47849 0.86477 0.66155 0.0
H324 H 0.47608 0.83555 0.72845 0.0
H325 H 0.44104 0.85622 0.83476 0.0
H326 H 0.44346 0.88554 0.76849 0.0
H327 H 0.44969 0.8882 0.88753 0.0
H328 H 0.55004 0.92857 0.92716 0.0
H329 H 0.5463 0.96436 0.82017 0.0
H330 H 0.48108 0.91671 0.68679 0.0
C331 C 0.48888 0.83697 0.92766 0.0
C332 C 0.50323 0.8303 0.00405 0.0
C333 C 0.52384 0.84884 0.03806 0.0
C334 C 0.53038 0.87325 0.99619 0.0
C335 C 0.51594 0.87911 0.92072 0.0
C336 C 0.4956 0.86146 0.88678 0.0
C337 C 0.48265 0.8728 0.80636 0.0
C338 C 0.48671 0.85563 0.721 0.0
C339 C 0.45242 0.87587 0.82547 0.0
C340 C 0.49882 0.89961 0.80019 0.0
C341 C 0.51795 0.90288 0.86672 0.0
C342 C 0.53515 0.92612 0.8748 0.0
C343 C 0.53283 0.94642 0.81345 0.0
C344 C 0.51341 0.9436 0.74435 0.0
C345 C 0.4962 0.91972 0.73834 0.0
H346 H 0.644 0.49877 0.04314 0.0
H347 H 0.71629 0.52528 0.88907 0.0
H348 H 0.68821 0.53057 0.75654 0.0
H349 H 0.61098 0.46065 0.86467 0.0
H350 H 0.57736 0.46894 0.89639 0.0
H351 H 0.60285 0.46862 0.98061 0.0
H352 H 0.59538 0.51704 0.02744 0.0
H353 H 0.56985 0.51751 0.94324 0.0
H354 H 0.59835 0.54219 0.94357 0.0
H355 H 0.6519 0.53253 0.63878 0.0
H356 H 0.61112 0.52924 0.54504 0.0
H357 H 0.56218 0.50004 0.773 0.0
C358 C 0.65386 0.50603 0.98174 0.0
C359 C 0.68239 0.51219 0.97774 0.0
C360 C 0.69454 0.52095 0.89519 0.0
C361 C 0.67868 0.52396 0.81919 0.0
C362 C 0.65063 0.51789 0.82582 0.0
C363 C 0.63832 0.50901 0.90504 0.0
C364 C 0.6079 0.50293 0.89347 0.0
C365 C 0.59927 0.47354 0.90974 0.0
C366 C 0.59194 0.52099 0.95564 0.0
C367 C 0.60501 0.50955 0.79518 0.0
C368 C 0.62989 0.51836 0.75764 0.0
C369 C 0.63238 0.52564 0.66776 0.0
C370 C 0.60903 0.52371 0.61488 0.0
C371 C 0.58334 0.5144 0.65122 0.0
C372 C 0.58144 0.50734 0.74301 0.0
H373 H 0.01024 0.69334 0.90637 0.0
H374 H 1.00672 0.65047 0.1551 0.0
H375 H 1.00213 0.60808 0.06858 0.0
H376 H 0.9614 0.64652 0.78287 0.0
H377 H 0.97996 0.65035 0.67757 0.0
H378 H 0.98091 0.67736 0.75921 0.0
H379 H 0.03333 0.67952 0.75754 0.0
H380 H 0.03254 0.65242 0.67647 0.0
H381 H 0.04971 0.65021 0.7812 0.0
H382 H 1.00237 0.57024 0.95503 0.0
H383 H 1.00465 0.53979 0.82268 0.0
H384 H 1.00585 0.60646 0.64591 0.0
C385 C 1.00778 0.67499 0.94241 0.0
C386 C 1.00828 0.67525 0.03774 0.0
C387 C 1.00587 0.65081 0.0824 0.0
C388 C 1.00336 0.6266 0.03372 0.0
C389 C 1.00322 0.62698 0.93996 0.0
C390 C 1.00505 0.65053 0.89462 0.0
C391 C 1.00534 0.6453 0.79333 0.0
C392 C 0.98041 0.65549 0.75074 0.0
C393 C 0.0318 0.65759 0.74959 0.0
C394 C 1.00388 0.61521 0.78893 0.0
C395 C 1.00272 0.60507 0.87438 0.0
C396 C 1.00282 0.57795 0.88782 0.0
C397 C 1.00412 0.56077 0.8122 0.0
C398 C 1.00503 0.57062 0.72389 0.0
C399 C 1.00472 0.59824 0.71248 0.0
H400 H 0.9599 0.19615 0.23721 0.0
H401 H 0.04183 0.23146 0.26921 0.0
H402 H 0.05389 0.19138 0.34266 0.0
H403 H 0.95787 0.1488 0.44431 0.0
H404 H 0.93862 0.1239 0.37753 0.0
H405 H 0.93384 0.15842 0.36494 0.0
H406 H 0.9434 0.15226 0.1943 0.0
H407 H 0.95061 0.11847 0.20556 0.0
H408 H 0.9758 0.14198 0.15648 0.0
H409 H 0.06087 0.14417 0.36068 0.0
H410 H 0.0593 0.09547 0.36442 0.0
H411 H 0.97308 0.08975 0.31338 0.0
C412 C 0.97963 0.19619 0.26718 0.0
C413 C 0.99995 0.21665 0.24832 0.0
C414 C 0.02596 0.21604 0.28463 0.0
C415 C 0.03307 0.19311 0.32505 0.0
C416 C 0.01363 0.17154 0.33027 0.0
C417 C 0.98703 0.17321 0.30598 0.0
C418 C 0.97137 0.14613 0.30294 0.0
C419 C 0.94911 0.14419 0.37687 0.0
C420 C 0.95959 0.13933 0.20926 0.0
C421 C 0.99372 0.12889 0.32253 0.0
C422 C 0.01784 0.1439 0.33915 0.0
C423 C 0.04189 0.13226 0.35083 0.0
C424 C 0.04091 0.10459 0.35095 0.0
C425 C 0.01607 0.08892 0.33898 0.0
C426 C 0.99236 0.10125 0.32231 0.0
H427 H 0.29779 0.98025 0.27546 0.0
H428 H 0.31373 0.92372 0.06175 0.0
H429 H 0.34814 0.9058 0.15417 0.0
H430 H 0.35835 1.00041 0.31743 0.0
H431 H 0.35657 1.00408 0.43845 0.0
H432 H 0.32656 1.00518 0.37476 0.0
H433 H 0.3022 0.96664 0.46484 0.0
H434 H 0.33202 0.9661 0.53136 0.0
H435 H 0.31812 0.93628 0.47477 0.0
H436 H 0.38939 0.90442 0.24357 0.0
H437 H 0.43151 0.91811 0.32502 0.0
H438 H 0.38949 0.97598 0.4799 0.0
C439 C 0.30723 0.96292 0.25091 0.0
C440 C 0.30307 0.95322 0.16214 0.0
C441 C 0.31653 0.93122 0.13018 0.0
C442 C 0.3361 0.92091 0.18236 0.0
C443 C 0.34162 0.93255 0.26686 0.0
C444 C 0.32701 0.95267 0.302 0.0
C445 C 0.33992 0.96519 0.38594 0.0
C446 C 0.34571 0.99547 0.37849 0.0
C447 C 0.32202 0.95812 0.46916 0.0
C448 C 0.36576 0.95137 0.38589 0.0
C449 C 0.36587 0.93176 0.31927 0.0
C450 C 0.38918 0.91902 0.29802 0.0
C451 C 0.41307 0.92701 0.34412 0.0
C452 C 0.41351 0.94787 0.40924 0.0
C453 C 0.38938 0.95946 0.43221 0.0
H454 H 0.57498 0.32958 0.1435 0.0
H455 H 0.50614 0.28731 0.27599 0.0
H456 H 0.49797 0.3273 0.36514 0.0
H457 H 0.59228 0.381 0.34716 0.0
H458 H 0.60133 0.40617 0.26591 0.0
H459 H 0.60857 0.37243 0.24193 0.0
H460 H 0.58291 0.37412 0.09388 0.0
H461 H 0.57318 0.40683 0.11906 0.0
H462 H 0.54756 0.38001 0.09761 0.0
H463 H 0.48578 0.37256 0.38623 0.0
H464 H 0.48024 0.42013 0.38969 0.0
H465 H 0.55822 0.43537 0.25275 0.0
C466 C 0.55967 0.3283 0.19683 0.0
C467 C 0.54094 0.30563 0.20221 0.0
C468 C 0.52074 0.30446 0.27105 0.0
C469 C 0.51569 0.3273 0.32112 0.0
C470 C 0.53176 0.35062 0.30367 0.0
C471 C 0.55438 0.35111 0.24708 0.0
C472 C 0.56586 0.3794 0.23041 0.0
C473 C 0.59366 0.38509 0.274 0.0
C474 C 0.56745 0.38543 0.12927 0.0
C475 C 0.54465 0.39455 0.27896 0.0
C476 C 0.52523 0.37748 0.32062 0.0
C477 C 0.5015 0.38624 0.3578 0.0
C478 C 0.49828 0.4133 0.35753 0.0
C479 C 0.51896 0.43145 0.32214 0.0
C480 C 0.54227 0.4219 0.2811 0.0
H481 H 0.20786 0.56972 0.18989 0.0
H482 H 0.22906 0.49663 0.30077 0.0
H483 H 0.18649 0.49324 0.3896 0.0
H484 H 0.16247 0.5913 0.3997 0.0
H485 H 0.13981 0.60428 0.32243 0.0
H486 H 0.17577 0.60666 0.29809 0.0
H487 H 0.16575 0.58351 0.14377 0.0
H488 H 0.13005 0.57933 0.16891 0.0
H489 H 0.14807 0.55084 0.1398 0.0
H490 H 0.13748 0.48776 0.40897 0.0
H491 H 0.0881 0.48862 0.40938 0.0
H492 H 0.09687 0.5671 0.29758 0.0
C493 C 0.20444 0.55433 0.23898 0.0
C494 C 0.22147 0.53343 0.23907 0.0
C495 C 0.21635 0.51295 0.30108 0.0
C496 C 0.19198 0.51071 0.35077 0.0
C497 C 0.17367 0.52963 0.3394 0.0
C498 C 0.18009 0.5519 0.28885 0.0
C499 C 0.15535 0.56703 0.27665 0.0
C500 C 0.15854 0.59391 0.32727 0.0
C501 C 0.14949 0.57034 0.17636 0.0
C502 C 0.13367 0.54849 0.32067 0.0
C503 C 0.14477 0.52705 0.35607 0.0
C504 C 0.12866 0.50503 0.38569 0.0
C505 C 0.10057 0.5055 0.38363 0.0
C506 C 0.08876 0.52806 0.35394 0.0
C507 C 0.1055 0.54982 0.32173 0.0
H508 H 0.06647 0.82828 0.01082 0.0
H509 H 1.00678 0.7818 0.85034 0.0
H510 H 1.0054 0.81881 0.74842 0.0
H511 H 0.0348 0.88021 0.02645 0.0
H512 H 0.06226 0.90593 0.01914 0.0
H513 H 0.06854 0.87389 0.05757 0.0
H514 H 0.10519 0.86873 0.93309 0.0
H515 H 0.10019 0.90149 0.89634 0.0
H516 H 0.09744 0.87381 0.8173 0.0
H517 H 0.99754 0.86302 0.70138 0.0
H518 H 0.99167 0.9103 0.68741 0.0
H519 H 0.05588 0.93038 0.87739 0.0
C520 C 0.05445 0.82544 0.95085 0.0
C521 C 0.03659 0.80233 0.93878 0.0
C522 C 0.02083 0.79919 0.86051 0.0
C523 C 0.01971 0.8203 0.80259 0.0
C524 C 0.03481 0.84412 0.82331 0.0
C525 C 0.05271 0.84662 0.89371 0.0
C526 C 0.06284 0.8754 0.91156 0.0
C527 C 0.05672 0.88435 0.00942 0.0
C528 C 0.09322 0.88014 0.88813 0.0
C529 C 0.04603 0.88879 0.84574 0.0
C530 C 0.03033 0.87031 0.79473 0.0
C531 C 0.01041 0.87766 0.73847 0.0
C532 C 1.00686 0.90455 0.73245 0.0
C533 C 0.02325 0.92385 0.78196 0.0
C534 C 0.04326 0.91591 0.83863 0.0
H535 H 0.69364 0.07063 0.98092 0.0
H536 H 0.7382 0.02157 0.79863 0.0
H537 H 0.71002 0.03321 0.67324 0.0
H538 H 0.63548 0.04458 0.92229 0.0
H539 H 0.61638 0.0732 0.93253 0.0
H540 H 0.64642 0.07209 0.99613 0.0
H541 H 0.66715 0.11585 0.92759 0.0
H542 H 0.63674 0.11755 0.86437 0.0
H543 H 0.6693 0.11897 0.80706 0.0
H544 H 0.67023 0.03934 0.58071 0.0
H545 H 0.62254 0.03634 0.5345 0.0
H546 H 0.60029 0.07596 0.78369 0.0
C547 C 0.69822 0.06339 0.91349 0.0
C548 C 0.7179 0.04521 0.89901 0.0
C549 C 0.72339 0.03582 0.8107 0.0
C550 C 0.70742 0.04235 0.73918 0.0
C551 C 0.6862 0.05826 0.75755 0.0
C552 C 0.68174 0.06885 0.84296 0.0
C553 C 0.65417 0.07945 0.85213 0.0
C554 C 0.63714 0.06653 0.93023 0.0
C555 C 0.65702 0.10976 0.86341 0.0
C556 C 0.64273 0.07097 0.76153 0.0
C557 C 0.66198 0.06014 0.70605 0.0
C558 C 0.65526 0.04837 0.62266 0.0
C559 C 0.62811 0.04669 0.59705 0.0
C560 C 0.608 0.05595 0.65609 0.0
C561 C 0.61552 0.06905 0.73746 0.0
H562 H 0.49639 0.70737 0.8813 0.0
H563 H 0.58127 0.71293 0.94601 0.0
H564 H 0.5844 0.66726 0.88876 0.0
H565 H 0.4805 0.65172 0.96857 0.0
H566 H 0.45645 0.63636 0.8897 0.0
H567 H 0.46184 0.67179 0.89833 0.0
H568 H 0.47482 0.67536 0.72903 0.0
H569 H 0.4675 0.63999 0.71737 0.0
H570 H 0.5 0.65527 0.68081 0.0
H571 H 0.57473 0.6184 0.87462 0.0
H572 H 0.55618 0.57176 0.85813 0.0
H573 H 0.4768 0.59739 0.80738 0.0
C574 C 0.51611 0.69971 0.8755 0.0
C575 C 0.53862 0.71349 0.91726 0.0
C576 C 0.564 0.70274 0.91251 0.0
C577 C 0.56576 0.67657 0.88189 0.0
C578 C 0.54211 0.66199 0.8539 0.0
C579 C 0.51796 0.67348 0.84636 0.0
C580 C 0.49468 0.65273 0.82744 0.0
C581 C 0.47207 0.65321 0.90038 0.0
C582 C 0.4836 0.65603 0.73304 0.0
C583 C 0.50912 0.62782 0.83168 0.0
C584 C 0.53647 0.63356 0.84641 0.0
C585 C 0.55352 0.6137 0.86005 0.0
C586 C 0.54268 0.58728 0.8524 0.0
C587 C 0.51506 0.58102 0.83144 0.0
C588 C 0.49796 0.60159 0.82371 0.0
H589 H 0.80701 0.50313 0.89852 0.0
H590 H 0.79542 0.42549 0.01286 0.0
H591 H 0.83958 0.41461 0.94714 0.0
H592 H 0.85342 0.4886 0.69725 0.0
H593 H 0.87285 0.51974 0.72054 0.0
H594 H 0.8369 0.51632 0.74399 0.0
H595 H 0.84741 0.53297 0.90747 0.0
H596 H 0.8833 0.53423 0.88605 0.0
H597 H 0.86815 0.51444 0.97584 0.0
H598 H 0.88911 0.41604 0.89485 0.0
H599 H 0.93733 0.42871 0.85288 0.0
H600 H 0.91713 0.50816 0.8 0.0
C601 C 0.81284 0.48313 0.90337 0.0
C602 C 0.79762 0.46481 0.95776 0.0
C603 C 0.8065 0.43935 0.96835 0.0
C604 C 0.83176 0.43324 0.93249 0.0
C605 C 0.84778 0.45297 0.8876 0.0
C606 C 0.83844 0.47736 0.87225 0.0
C607 C 0.86098 0.49712 0.84037 0.0
C608 C 0.85573 0.50594 0.74481 0.0
C609 C 0.86518 0.52107 0.90639 0.0
C610 C 0.88454 0.48031 0.84149 0.0
C611 C 0.87665 0.45476 0.86705 0.0
C612 C 0.89541 0.43596 0.87406 0.0
C613 C 0.92273 0.44336 0.85138 0.0
C614 C 0.9309 0.46948 0.82503 0.0
C615 C 0.91157 0.48815 0.8216 0.0
H616 H 0.97115 0.1768 0.96564 0.0
H617 H 0.0418 0.22427 0.86381 0.0
H618 H 0.05381 0.18613 0.76762 0.0
H619 H 1.00188 0.12047 0.99337 0.0
H620 H 0.97474 0.09664 0.95801 0.0
H621 H 0.9671 0.1283 0.00429 0.0
H622 H 0.94123 0.1392 0.86502 0.0
H623 H 0.94661 0.10684 0.81848 0.0
H624 H 0.95674 0.13592 0.7548 0.0
H625 H 0.06029 0.14113 0.69341 0.0
H626 H 0.05908 0.09443 0.63972 0.0
H627 H 0.9863 0.07534 0.80065 0.0
C628 C 0.98871 0.17947 0.92092 0.0
C629 C 1.00547 0.20372 0.92197 0.0
C630 C 0.02838 0.20621 0.8631 0.0
C631 C 0.03551 0.18448 0.80907 0.0
C632 C 0.01948 0.1604 0.81439 0.0
C633 C 0.99626 0.15794 0.86778 0.0
C634 C 0.98344 0.12954 0.86636 0.0
C635 C 0.98175 0.11807 0.96119 0.0
C636 C 0.95534 0.12778 0.8236 0.0
C637 C 1.00358 0.1161 0.80645 0.0
C638 C 0.02396 0.13434 0.77584 0.0
C639 C 0.04448 0.12677 0.71741 0.0
C640 C 0.04378 0.10015 0.68793 0.0
C641 C 0.0231 0.08114 0.71821 0.0
C642 C 1.00289 0.08924 0.77901 0.0
H643 H 0.33211 0.97247 0.8513 0.0
H644 H 0.31804 0.05207 0.9432 0.0
H645 H 0.3599 0.06932 0.86241 0.0
H646 H 0.4013 0.9789 0.88747 0.0
H647 H 0.41062 0.95886 0.79157 0.0
H648 H 0.37744 0.95317 0.84304 0.0
H649 H 0.35469 0.96006 0.69018 0.0
H650 H 0.38815 0.9642 0.6396 0.0
H651 H 0.3651 0.98946 0.62816 0.0
H652 H 0.40733 0.07685 0.79261 0.0
H653 H 0.45359 0.07458 0.72771 0.0
H654 H 0.43684 0.99021 0.67873 0.0
C655 C 0.33738 0.99366 0.85243 0.0
C656 C 0.32147 0.01091 0.90355 0.0
C657 C 0.32938 0.03845 0.90345 0.0
C658 C 0.35337 0.0484 0.85837 0.0
C659 C 0.36925 0.03064 0.81275 0.0
C660 C 0.36131 1.00385 0.80831 0.0
C661 C 0.38292 0.98863 0.7611 0.0
C662 C 0.3937 0.96872 0.82459 0.0
C663 C 0.37204 0.97476 0.67456 0.0
C664 C 0.40443 0.01095 0.74005 0.0
C665 C 0.39621 0.03504 0.77088 0.0
C666 C 0.4136 0.05819 0.76634 0.0
C667 C 0.43989 0.05671 0.7295 0.0
C668 C 0.44857 0.03238 0.69606 0.0
C669 C 0.43044 0.00925 0.70082 0.0
H670 H 0.49065 0.34051 0.00548 0.0
H671 H 0.51438 0.28789 0.78847 0.0
H672 H 0.50926 0.32321 0.67946 0.0
H673 H 0.44322 0.3778 0.8776 0.0
H674 H 0.45423 0.40854 0.9349 0.0
H675 H 0.45465 0.37768 0.99182 0.0
H676 H 0.50514 0.38917 0.02484 0.0
H677 H 0.50563 0.41963 0.9657 0.0
H678 H 0.52908 0.39571 0.93306 0.0
H679 H 0.50707 0.36629 0.5975 0.0
H680 H 0.50743 0.41209 0.54837 0.0
H681 H 0.48796 0.438 0.82123 0.0
C682 C 0.49418 0.33612 0.93465 0.0
C683 C 0.50295 0.31125 0.9056 0.0
C684 C 0.5073 0.30648 0.81237 0.0
C685 C 0.50464 0.32658 0.75016 0.0
C686 C 0.49751 0.35133 0.78214 0.0
C687 C 0.49209 0.35604 0.87233 0.0
C688 C 0.48727 0.38492 0.89115 0.0
C689 C 0.4581 0.38737 0.92591 0.0
C690 C 0.50804 0.39812 0.95756 0.0
C691 C 0.49161 0.3961 0.79775 0.0
C692 C 0.49703 0.37626 0.73568 0.0
C693 C 0.50254 0.38179 0.64559 0.0
C694 C 0.50265 0.40808 0.61828 0.0
C695 C 0.49751 0.42898 0.68045 0.0
C696 C 0.49177 0.42267 0.7716 0.0
H697 H 0.17681 0.48585 0.01713 0.0
H698 H 0.23465 0.51867 0.81755 0.0
H699 H 0.19797 0.5164 0.70592 0.0
H700 H 0.1329 0.44295 0.86517 0.0
H701 H 0.10248 0.45043 0.92598 0.0
H702 H 0.13399 0.45061 0.98431 0.0
H703 H 0.12881 0.49857 0.04187 0.0
H704 H 0.09749 0.49872 0.98298 0.0
H705 H 0.12475 0.52391 0.96194 0.0
H706 H 0.15358 0.51541 0.62184 0.0
H707 H 0.10681 0.51455 0.57045 0.0
H708 H 0.0768 0.48419 0.82745 0.0
C709 C 0.182 0.49214 0.94939 0.0
C710 C 0.20889 0.50251 0.92647 0.0
C711 C 0.21454 0.51033 0.83682 0.0
C712 C 0.19367 0.50932 0.77321 0.0
C713 C 0.16719 0.50038 0.79997 0.0
C714 C 0.16139 0.4917 0.88594 0.0
C715 C 0.13103 0.48501 0.90054 0.0
C716 C 0.12473 0.45549 0.92015 0.0
C717 C 0.11987 0.5026 0.9763 0.0
C718 C 0.12038 0.49159 0.80954 0.0
C719 C 0.14165 0.5002 0.75237 0.0
C720 C 0.13694 0.50833 0.6659 0.0
C721 C 0.11007 0.50764 0.63709 0.0
C722 C 0.08772 0.49887 0.69382 0.0
C723 C 0.09319 0.49072 0.7816 0.0
H724 H 0.0314 0.81395 0.30811 0.0
H725 H 0.95557 0.80702 0.16742 0.0
H726 H 0.94442 0.84998 0.2346 0.0
H727 H 1.00469 0.84952 0.5188 0.0
H728 H 0.0365 0.86937 0.53014 0.0
H729 H 0.03589 0.83606 0.48409 0.0
H730 H 0.06209 0.85403 0.34256 0.0
H731 H 0.06206 0.88745 0.3863 0.0
H732 H 0.04805 0.87878 0.27747 0.0
H733 H 0.94663 0.89808 0.29017 0.0
H734 H 0.95725 0.94313 0.35699 0.0
H735 H 0.02977 0.91743 0.47183 0.0
C736 C 0.01168 0.82069 0.29634 0.0
C737 C 0.99391 0.8067 0.23488 0.0
C738 C 0.96895 0.81688 0.21692 0.0
C739 C 0.96268 0.84152 0.25371 0.0
C740 C 0.98134 0.85557 0.30999 0.0
C741 C 1.00489 0.84505 0.33408 0.0
C742 C 0.02228 0.86478 0.39165 0.0
C743 C 0.025 0.85431 0.48681 0.0
C744 C 0.05026 0.87165 0.34677 0.0
C745 C 1.0054 0.88832 0.39324 0.0
C746 C 0.98197 0.88277 0.34508 0.0
C747 C 0.96454 0.90236 0.33015 0.0
C748 C 0.97085 0.92797 0.36742 0.0
C749 C 0.99415 0.93368 0.42016 0.0
C750 C 0.01156 0.91351 0.43293 0.0
H751 H 0.67261 0.04152 0.16415 0.0
H752 H 0.71037 0.97285 0.25133 0.0
H753 H 0.67047 0.96169 0.35198 0.0
H754 H 0.63551 0.05719 0.37013 0.0
H755 H 0.60631 0.06529 0.31 0.0
H756 H 0.63963 0.07031 0.25868 0.0
H757 H 0.6235 0.04112 0.12114 0.0
H758 H 0.59016 0.036 0.17164 0.0
H759 H 0.60837 0.00796 0.13835 0.0
H760 H 0.62389 0.95737 0.43926 0.0
H761 H 0.57588 0.95798 0.4912 0.0
H762 H 0.56703 0.02506 0.32426 0.0
C763 C 0.67277 0.02397 0.20378 0.0
C764 C 0.69489 0.00786 0.19785 0.0
C765 C 0.69406 0.98571 0.2543 0.0
C766 C 0.67128 0.97913 0.31142 0.0
C767 C 0.6493 0.99473 0.31113 0.0
C768 C 0.64997 0.01664 0.25797 0.0
C769 C 0.62304 0.02883 0.26152 0.0
C770 C 0.62633 0.05708 0.30253 0.0
C771 C 0.61054 0.02844 0.1676 0.0
C772 C 0.60666 0.01014 0.32386 0.0
C773 C 0.62231 0.99103 0.3542 0.0
C774 C 0.61157 0.97214 0.41498 0.0
C775 C 0.58429 0.97261 0.44417 0.0
C776 C 0.5677 0.99128 0.41057 0.0
C777 C 0.57916 0.0103 0.34989 0.0
H778 H 0.49202 0.67351 0.14709 0.0
H779 H 0.53192 0.72993 0.33612 0.0
H780 H 0.53359 0.694 0.44553 0.0
H781 H 0.45466 0.62875 0.30862 0.0
H782 H 0.46136 0.59977 0.24167 0.0
H783 H 0.45837 0.63075 0.18796 0.0
H784 H 0.50558 0.62764 0.11219 0.0
H785 H 0.50905 0.59697 0.16688 0.0
H786 H 0.53447 0.62439 0.18121 0.0
H787 H 0.53469 0.65021 0.52819 0.0
H788 H 0.53477 0.60406 0.5768 0.0
H789 H 0.49917 0.57582 0.32419 0.0
C790 C 0.50053 0.67856 0.21248 0.0
C791 C 0.51182 0.70475 0.23288 0.0
C792 C 0.52275 0.7103 0.3192 0.0
C793 C 0.52404 0.68986 0.38131 0.0
C794 C 0.51447 0.66394 0.35595 0.0
C795 C 0.50276 0.65836 0.27348 0.0
C796 C 0.49657 0.62872 0.25756 0.0
C797 C 0.46592 0.62158 0.24845 0.0
C798 C 0.51236 0.61887 0.17456 0.0
C799 C 0.50685 0.61824 0.34374 0.0
C800 C 0.5167 0.63887 0.40031 0.0
C801 C 0.52704 0.63404 0.48413 0.0
C802 C 0.52709 0.60765 0.51103 0.0
C803 C 0.51733 0.58614 0.45395 0.0
C804 C 0.50721 0.59169 0.36887 0.0
H805 H 0.84091 0.51905 0.13778 0.0
H806 H 0.78153 0.50688 0.35464 0.0
H807 H 0.81862 0.51252 0.46526 0.0
H808 H 0.88805 0.48084 0.2244 0.0
H809 H 0.91763 0.50107 0.18619 0.0
H810 H 0.88645 0.50073 0.12644 0.0
H811 H 0.88738 0.55165 0.14605 0.0
H812 H 0.91878 0.55224 0.20524 0.0
H813 H 0.89014 0.56672 0.25718 0.0
H814 H 0.86307 0.51351 0.5494 0.0
H815 H 0.90977 0.51195 0.60201 0.0
H816 H 0.94059 0.52246 0.32845 0.0
C817 C 0.83559 0.51845 0.20888 0.0
C818 C 0.80815 0.51285 0.23765 0.0
C819 C 0.80218 0.51169 0.33105 0.0
C820 C 0.82323 0.51463 0.39416 0.0
C821 C 0.85016 0.51882 0.36286 0.0
C822 C 0.8563 0.52104 0.2722 0.0
C823 C 0.88682 0.52332 0.25466 0.0
C824 C 0.89521 0.50012 0.19438 0.0
C825 C 0.89634 0.55008 0.21335 0.0
C826 C 0.89712 0.52164 0.34961 0.0
C827 C 0.87564 0.51916 0.41102 0.0
C828 C 0.87997 0.5158 0.5021 0.0
C829 C 0.9067 0.51487 0.53122 0.0
C830 C 0.92917 0.51729 0.46982 0.0
C831 C 0.92409 0.52095 0.37766 0.0
loop_
_geom_bond_atom_site_label_1
_geom_bond_atom_site_label_2
_geom_bond_distance
_geom_bond_site_symmetry_2
_ccdc_geom_bond_type
H0 C7 0.929 . S
H1 C10 0.930 1_556 S
H2 C12 0.929 . S
H3 C4 0.969 . S
C4 H3 0.969 . S
C4 O5 1.549 1_556 S
C4 H6 0.975 . S
O5 C4 1.549 1_554 S
O5 C11 1.412 . S
H6 C4 0.975 . S
C7 H0 0.929 . S
C7 C8 1.400 . S
C7 C9 1.364 . S
C8 C7 1.400 . S
C8 C12 1.377 . S
C9 C7 1.364 . S
C9 C10 1.374 . S
C10 H1 0.930 1_554 S
C10 C9 1.374 . S
C10 C11 1.383 . S
C11 O5 1.412 . S
C11 C10 1.383 . S
C11 C12 1.394 . S
C12 H2 0.929 . S
C12 C8 1.377 . S
C12 C11 1.394 . S
H13 C20 0.928 1_655 S
H14 C23 0.931 . S
H15 C25 0.930 1_655 S
H16 C17 0.969 . S
C17 H16 0.969 . S
C17 O18 1.550 1_456 S
C17 H19 0.973 1_455 S
O18 C17 1.550 1_654 S
O18 C24 1.407 1_655 S
H19 C17 0.973 1_655 S
C20 H13 0.928 1_455 S
C20 C21 1.398 . S
C20 C22 1.364 1_554 S
C21 C20 1.398 . S
C21 C25 1.378 . S
C22 C20 1.364 1_556 S
C22 C23 1.375 1_455 S
C23 H14 0.931 . S
C23 C22 1.375 1_655 S
C23 C24 1.379 1_656 S
C24 O18 1.407 1_455 S
C24 C23 1.379 1_454 S
C24 C25 1.394 . S
C25 H15 0.930 1_455 S
C25 C21 1.378 . S
C25 C24 1.394 . S
H26 C33 0.929 . S
H27 C36 0.930 . S
H28 C38 0.929 . S
H29 C30 0.969 . S
C30 H29 0.969 . S
C30 O31 1.550 1_556 S
C30 H32 0.973 . S
O31 C30 1.550 1_554 S
O31 C37 1.412 . S
H32 C30 0.973 . S
C33 H26 0.929 . S
C33 C34 1.400 . S
C33 C35 1.364 1_554 S
C34 C33 1.400 . S
C34 C38 1.377 . S
C35 C33 1.364 1_556 S
C35 C36 1.374 . S
C36 H27 0.930 . S
C36 C35 1.374 . S
C36 C37 1.383 1_556 S
C37 O31 1.412 . S
C37 C36 1.383 1_554 S
C37 C38 1.394 . S
C38 H28 0.929 . S
C38 C34 1.377 . S
C38 C37 1.394 . S
H39 C46 0.929 . S
H40 C49 0.930 1_556 S
H41 C51 0.929 . S
H42 C43 0.969 . S
C43 H42 0.969 . S
C43 O44 1.550 . S
C43 H45 0.973 1_554 S
O44 C43 1.550 . S
O44 C50 1.412 . S
H45 C43 0.973 1_556 S
C46 H39 0.929 . S
C46 C47 1.400 . S
C46 C48 1.364 . S
C47 C46 1.400 . S
C47 C51 1.377 . S
C48 C46 1.364 . S
C48 C49 1.374 . S
C49 H40 0.930 1_554 S
C49 C48 1.374 . S
C49 C50 1.383 . S
C50 O44 1.412 . S
C50 C49 1.383 . S
C50 C51 1.394 . S
C51 H41 0.929 . S
C51 C47 1.377 . S
C51 C50 1.394 . S
H52 C59 0.929 . S
H53 C62 0.930 . S
H54 C64 0.929 . S
H55 C56 0.969 . S
C56 H55 0.969 . S
C56 O57 1.550 . S
C56 H58 0.973 . S
O57 C56 1.550 . S
O57 C63 1.412 . S
H58 C56 0.973 . S
C59 H52 0.929 . S
C59 C60 1.400 1_554 S
C59 C61 1.364 . S
C60 C59 1.400 1_556 S
C60 C64 1.377 . S
C61 C59 1.364 . S
C61 C62 1.374 . S
C62 H53 0.930 . S
C62 C61 1.374 . S
C62 C63 1.383 . S
C63 O57 1.412 . S
C63 C62 1.383 . S
C63 C64 1.394 1_554 S
C64 H54 0.929 . S
C64 C60 1.377 . S
C64 C63 1.394 1_556 S
H65 C72 0.929 1_655 S
H66 C75 0.929 . S
H67 C77 0.921 1_656 S
H68 C69 0.969 . S
C69 H68 0.969 . S
C69 O70 1.550 1_455 S
C69 H71 0.973 1_455 S
O70 C69 1.550 1_655 S
O70 C76 1.399 1_655 S
H71 C69 0.973 1_655 S
C72 H65 0.929 1_455 S
C72 C73 1.401 1_554 S
C72 C74 1.364 . S
C73 C72 1.401 1_556 S
C73 C77 1.375 1_556 S
C74 C72 1.364 . S
C74 C75 1.374 1_455 S
C75 H66 0.929 . S
C75 C74 1.374 1_655 S
C75 C76 1.385 1_655 S
C76 O70 1.399 1_455 S
C76 C75 1.385 1_455 S
C76 C77 1.400 . S
C77 H67 0.921 1_454 S
C77 C73 1.375 1_554 S
C77 C76 1.400 . S
H78 C85 0.929 . S
H79 C88 0.930 . S
H80 C90 0.929 1_556 S
H81 C82 0.969 . S
C82 H81 0.969 . S
C82 O83 1.550 . S
C82 H84 0.973 . S
O83 C82 1.550 . S
O83 C89 1.412 . S
H84 C82 0.973 . S
C85 H78 0.929 . S
C85 C86 1.400 . S
C85 C87 1.364 . S
C86 C85 1.400 . S
C86 C90 1.377 . S
C87 C85 1.364 . S
C87 C88 1.374 . S
C88 H79 0.930 . S
C88 C87 1.374 . S
C88 C89 1.383 . S
C89 O83 1.412 . S
C89 C88 1.383 . S
C89 C90 1.394 . S
C90 H80 0.929 1_554 S
C90 C86 1.377 . S
C90 C89 1.394 . S
H91 C98 0.929 . S
H92 C101 0.930 . S
H93 C103 0.929 . S
H94 C95 0.969 . S
C95 H94 0.969 . S
C95 O96 1.550 . S
C95 H97 0.973 . S
O96 C95 1.550 . S
O96 C102 1.412 . S
H97 C95 0.973 . S
C98 H91 0.929 . S
C98 C99 1.400 1_554 S
C98 C100 1.364 . S
C99 C98 1.400 1_556 S
C99 C103 1.377 . S
C100 C98 1.364 . S
C100 C101 1.374 . S
C101 H92 0.930 . S
C101 C100 1.374 . S
C101 C102 1.383 . S
C102 O96 1.412 . S
C102 C101 1.383 . S
C102 C103 1.394 1_554 S
C103 H93 0.929 . S
C103 C99 1.377 . S
C103 C102 1.394 1_556 S
Dy104 O108 2.398 . S
Dy104 O109 2.491 1_455 S
Dy104 O110 2.403 . S
Dy104 O111 2.664 1_565 S
Dy104 O115 2.326 . S
Dy104 O119 2.310 1_455 S
Dy104 O120 2.351 1_565 S
C105 O116 1.185 . S
C105 O117 1.355 1_655 S
C106 O108 1.185 . S
C106 O109 1.355 1_455 S
Dy107 O111 2.310 1_655 S
Dy107 O114 2.351 1_545 S
Dy107 O116 2.398 . S
Dy107 O117 2.491 1_655 S
Dy107 O118 2.403 . S
Dy107 O119 2.664 1_545 S
Dy107 O121 2.326 . S
O108 Dy104 2.398 . S
O108 C106 1.185 . S
O109 Dy104 2.491 1_655 S
O109 C106 1.355 1_655 S
O110 Dy104 2.403 . S
O110 C112 1.254 1_565 S
O111 Dy104 2.664 1_545 S
O111 Dy107 2.310 1_455 S
O111 C112 1.268 . S
C112 O110 1.254 1_545 S
C112 O111 1.268 . S
C113 O118 1.254 1_565 S
C113 O119 1.268 . S
O114 Dy107 2.351 1_565 S
O114 C122 1.249 . S
O115 Dy104 2.326 . S
O115 C122 1.267 1_455 S
O116 C105 1.185 . S
O116 Dy107 2.398 . S
O117 C105 1.355 1_455 S
O117 Dy107 2.491 1_455 S
O118 Dy107 2.403 . S
O118 C113 1.254 1_545 S
O119 Dy104 2.310 1_655 S
O119 Dy107 2.664 1_565 S
O119 C113 1.268 . S
O120 Dy104 2.351 1_545 S
O120 C123 1.249 . S
O121 Dy107 2.326 . S
O121 C123 1.267 1_655 S
C122 O114 1.249 . S
C122 O115 1.267 1_655 S
C123 O120 1.249 . S
C123 O121 1.267 1_455 S
Dy124 O128 2.398 . S
Dy124 O129 2.491 1_565 S
Dy124 O130 2.403 . S
Dy124 O131 2.664 . S
Dy124 O135 2.326 1_565 S
Dy124 O139 2.310 1_565 S
Dy124 O140 2.351 . S
C125 O136 1.182 . S
C125 O137 1.357 1_545 S
C126 O128 1.167 1_545 S
C126 O129 1.362 . S
Dy127 O131 2.310 1_545 S
Dy127 O134 2.351 . S
Dy127 O136 2.398 . S
Dy127 O137 2.491 1_545 S
Dy127 O138 2.403 . S
Dy127 O139 2.664 . S
Dy127 O141 2.326 1_545 S
O128 Dy124 2.398 . S
O128 C126 1.167 1_565 S
O129 Dy124 2.491 1_545 S
O129 C126 1.362 . S
O130 Dy124 2.403 . S
O130 C132 1.254 . S
O131 Dy124 2.664 . S
O131 Dy127 2.310 1_565 S
O131 C132 1.268 . S
C132 O130 1.254 . S
C132 O131 1.268 . S
C133 O138 1.254 . S
C133 O139 1.268 . S
O134 Dy127 2.351 . S
O134 C142 1.249 . S
O135 Dy124 2.326 1_545 S
O135 C142 1.267 . S
O136 C125 1.182 . S
O136 Dy127 2.398 . S
O137 C125 1.357 1_565 S
O137 Dy127 2.491 1_565 S
O138 Dy127 2.403 . S
O138 C133 1.254 . S
O139 Dy124 2.310 1_545 S
O139 Dy127 2.664 . S
O139 C133 1.268 . S
O140 Dy124 2.351 . S
O140 C143 1.249 . S
O141 Dy127 2.326 1_565 S
O141 C143 1.267 . S
C142 O134 1.249 . S
C142 O135 1.267 . S
C143 O140 1.249 . S
C143 O141 1.267 . S
Dy144 O148 2.398 . S
Dy144 O149 2.491 . S
Dy144 O150 2.403 . S
Dy144 O151 2.664 . S
Dy144 O155 2.326 . S
Dy144 O159 2.310 . S
Dy144 O160 2.351 . S
C145 O156 1.185 . S
C145 O157 1.355 . S
C146 O148 1.185 . S
C146 O149 1.355 . S
Dy147 O151 2.310 . S
Dy147 O154 2.351 . S
Dy147 O156 2.398 . S
Dy147 O157 2.491 . S
Dy147 O158 2.403 . S
Dy147 O159 2.664 . S
Dy147 O161 2.326 . S
O148 Dy144 2.398 . S
O148 C146 1.185 . S
O149 Dy144 2.491 . S
O149 C146 1.355 . S
O150 Dy144 2.403 . S
O150 C152 1.254 . S
O151 Dy144 2.664 . S
O151 Dy147 2.310 . S
O151 C152 1.268 . S
C152 O150 1.254 . S
C152 O151 1.268 . S
C153 O158 1.254 . S
C153 O159 1.268 . S
O154 Dy147 2.351 . S
O154 C162 1.249 . S
O155 Dy144 2.326 . S
O155 C162 1.267 . S
O156 C145 1.185 . S
O156 Dy147 2.398 . S
O157 C145 1.355 . S
O157 Dy147 2.491 . S
O158 Dy147 2.403 . S
O158 C153 1.254 . S
O159 Dy144 2.310 . S
O159 Dy147 2.664 . S
O159 C153 1.268 . S
O160 Dy144 2.351 . S
O160 C163 1.249 . S
O161 Dy147 2.326 . S
O161 C163 1.267 . S
C162 O154 1.249 . S
C162 O155 1.267 . S
C163 O160 1.249 . S
C163 O161 1.267 . S
Dy164 O168 2.398 . S
Dy164 O169 2.491 . S
Dy164 O170 2.403 . S
Dy164 O171 2.664 1_655 S
Dy164 O175 2.326 . S
Dy164 O179 2.310 . S
Dy164 O180 2.351 1_655 S
C165 O176 1.185 . S
C165 O177 1.355 . S
C166 O168 1.185 . S
C166 O169 1.355 . S
Dy167 O171 2.310 . S
Dy167 O174 2.351 1_455 S
Dy167 O176 2.398 . S
Dy167 O177 2.491 . S
Dy167 O178 2.403 . S
Dy167 O179 2.664 1_455 S
Dy167 O181 2.326 . S
O168 Dy164 2.398 . S
O168 C166 1.185 . S
O169 Dy164 2.491 . S
O169 C166 1.355 . S
O170 Dy164 2.403 . S
O170 C172 1.254 . S
O171 Dy164 2.664 1_455 S
O171 Dy167 2.310 . S
O171 C172 1.268 1_455 S
C172 O170 1.254 . S
C172 O171 1.268 1_655 S
C173 O178 1.254 . S
C173 O179 1.268 1_455 S
O174 Dy167 2.351 1_655 S
O174 C182 1.249 . S
O175 Dy164 2.326 . S
O175 C182 1.267 . S
O176 C165 1.185 . S
O176 Dy167 2.398 . S
O177 C165 1.355 . S
O177 Dy167 2.491 . S
O178 Dy167 2.403 . S
O178 C173 1.254 . S
O179 Dy164 2.310 . S
O179 Dy167 2.664 1_655 S
O179 C173 1.268 1_655 S
O180 Dy164 2.351 1_455 S
O180 C183 1.249 . S
O181 Dy167 2.326 . S
O181 C183 1.267 . S
C182 O174 1.249 . S
C182 O175 1.267 . S
C183 O180 1.249 . S
C183 O181 1.267 . S
H184 C196 0.930 . S
H185 C198 0.930 . S
H186 C199 0.930 . S
H187 C203 0.959 1_545 S
H188 C203 0.959 . S
H189 C203 0.961 . S
H190 C204 0.960 . S
H191 C204 0.961 . S
H192 C204 0.959 . S
H193 C207 0.929 . S
H194 C208 0.931 . S
H195 C210 0.930 1_565 S
C196 H184 0.930 . S
C196 C197 1.399 . S
C196 C201 1.399 . S
C197 C196 1.399 . S
C197 C198 1.376 . S
C198 H185 0.930 . S
C198 C197 1.376 . S
C198 C199 1.388 . S
C199 H186 0.930 . S
C199 C198 1.388 . S
C199 C200 1.390 . S
C200 C199 1.390 . S
C200 C201 1.394 . S
C200 C206 1.465 . S
C201 C196 1.399 . S
C201 C200 1.394 . S
C201 C202 1.516 . S
C202 C201 1.516 . S
C202 C203 1.502 1_545 S
C202 C204 1.561 1_545 S
C202 C205 1.526 . S
C203 H187 0.959 1_565 S
C203 H188 0.959 . S
C203 H189 0.961 . S
C203 C202 1.502 1_565 S
C204 H190 0.960 . S
C204 H191 0.961 . S
C204 H192 0.959 . S
C204 C202 1.561 1_565 S
C205 C202 1.526 . S
C205 C206 1.396 . S
C205 C210 1.390 . S
C206 C200 1.465 . S
C206 C205 1.396 . S
C206 C207 1.399 . S
C207 H193 0.929 . S
C207 C206 1.399 . S
C207 C208 1.385 . S
C208 H194 0.931 . S
C208 C207 1.385 . S
C208 C209 1.389 . S
C209 C208 1.389 . S
C209 C210 1.387 . S
C210 H195 0.930 1_545 S
C210 C205 1.390 . S
C210 C209 1.387 . S
H211 C223 0.930 . S
H212 C225 0.930 . S
H213 C226 0.930 . S
H214 C230 0.959 . S
H215 C230 0.959 . S
H216 C230 0.961 . S
H217 C231 0.960 . S
H218 C231 0.961 . S
H219 C231 0.959 . S
H220 C234 0.929 . S
H221 C235 0.931 . S
H222 C237 0.930 . S
C223 H211 0.930 . S
C223 C224 1.399 . S
C223 C228 1.399 . S
C224 C223 1.399 . S
C224 C225 1.376 . S
C225 H212 0.930 . S
C225 C224 1.376 . S
C225 C226 1.388 . S
C226 H213 0.930 . S
C226 C225 1.388 . S
C226 C227 1.390 . S
C227 C226 1.390 . S
C227 C228 1.394 . S
C227 C233 1.465 . S
C228 C223 1.399 . S
C228 C227 1.394 . S
C228 C229 1.516 . S
C229 C228 1.516 . S
C229 C230 1.502 . S
C229 C231 1.561 . S
C229 C232 1.526 . S
C230 H214 0.959 . S
C230 H215 0.959 . S
C230 H216 0.961 . S
C230 C229 1.502 . S
C231 H217 0.960 . S
C231 H218 0.961 . S
C231 H219 0.959 . S
C231 C229 1.561 . S
C232 C229 1.526 . S
C232 C233 1.396 . S
C232 C237 1.390 . S
C233 C227 1.465 . S
C233 C232 1.396 . S
C233 C234 1.399 . S
C234 H220 0.929 . S
C234 C233 1.399 . S
C234 C235 1.385 . S
C235 H221 0.931 . S
C235 C234 1.385 . S
C235 C236 1.389 . S
C236 C235 1.389 . S
C236 C237 1.387 . S
C237 H222 0.930 . S
C237 C232 1.390 . S
C237 C236 1.387 . S
H238 C250 0.930 . S
H239 C252 0.930 . S
H240 C253 0.930 . S
H241 C257 0.959 . S
H242 C257 0.959 . S
H243 C257 0.961 . S
H244 C258 0.960 . S
H245 C258 0.961 . S
H246 C258 0.959 . S
H247 C261 0.929 . S
H248 C262 0.931 . S
H249 C264 0.930 . S
C250 H238 0.930 . S
C250 C251 1.399 . S
C250 C255 1.399 . S
C251 C250 1.399 . S
C251 C252 1.376 . S
C252 H239 0.930 . S
C252 C251 1.376 . S
C252 C253 1.388 . S
C253 H240 0.930 . S
C253 C252 1.388 . S
C253 C254 1.390 . S
C254 C253 1.390 . S
C254 C255 1.394 . S
C254 C260 1.465 . S
C255 C250 1.399 . S
C255 C254 1.394 . S
C255 C256 1.516 . S
C256 C255 1.516 . S
C256 C257 1.502 . S
C256 C258 1.561 . S
C256 C259 1.526 . S
C257 H241 0.959 . S
C257 H242 0.959 . S
C257 H243 0.961 . S
C257 C256 1.502 . S
C258 H244 0.960 . S
C258 H245 0.961 . S
C258 H246 0.959 . S
C258 C256 1.561 . S
C259 C256 1.526 . S
C259 C260 1.396 . S
C259 C264 1.390 . S
C260 C254 1.465 . S
C260 C259 1.396 . S
C260 C261 1.399 . S
C261 H247 0.929 . S
C261 C260 1.399 . S
C261 C262 1.385 . S
C262 H248 0.931 . S
C262 C261 1.385 . S
C262 C263 1.389 . S
C263 C262 1.389 . S
C263 C264 1.387 . S
C264 H249 0.930 . S
C264 C259 1.390 . S
C264 C263 1.387 . S
H265 C277 0.930 . S
H266 C279 0.930 . S
H267 C280 0.930 . S
H268 C284 0.985 . S
H269 C284 0.959 . S
H270 C284 0.961 . S
H271 C285 0.960 . S
H272 C285 0.961 . S
H273 C285 0.959 . S
H274 C288 0.929 . S
H275 C289 0.931 . S
H276 C291 0.930 . S
C277 H265 0.930 . S
C277 C278 1.384 1_455 S
C277 C282 1.399 . S
C278 C277 1.384 1_655 S
C278 C279 1.397 . S
C279 H266 0.930 . S
C279 C278 1.397 . S
C279 C280 1.388 . S
C280 H267 0.930 . S
C280 C279 1.388 . S
C280 C281 1.390 . S
C281 C280 1.390 . S
C281 C282 1.394 1_655 S
C281 C287 1.465 . S
C282 C277 1.399 . S
C282 C281 1.394 1_455 S
C282 C283 1.516 . S
C283 C282 1.516 . S
C283 C284 1.502 . S
C283 C285 1.561 . S
C283 C286 1.526 . S
C284 H268 0.985 . S
C284 H269 0.959 . S
C284 H270 0.961 . S
C284 C283 1.502 . S
C285 H271 0.960 . S
C285 H272 0.961 . S
C285 H273 0.959 . S
C285 C283 1.561 . S
C286 C283 1.526 . S
C286 C287 1.396 1_455 S
C286 C291 1.390 . S
C287 C281 1.465 . S
C287 C286 1.396 1_655 S
C287 C288 1.399 . S
C288 H274 0.929 . S
C288 C287 1.399 . S
C288 C289 1.385 . S
C289 H275 0.931 . S
C289 C288 1.385 . S
C289 C290 1.389 . S
C290 C289 1.389 . S
C290 C291 1.387 1_655 S
C291 H276 0.930 . S
C291 C286 1.390 . S
C291 C290 1.387 1_455 S
H292 C304 0.930 . S
H293 C306 0.930 . S
H294 C307 0.930 1_545 S
H295 C311 0.959 . S
H296 C311 0.959 . S
H297 C311 0.961 . S
H298 C312 0.960 . S
H299 C312 0.961 . S
H300 C312 0.959 . S
H301 C315 0.929 . S
H302 C316 0.931 . S
H303 C318 0.930 . S
C304 H292 0.930 . S
C304 C305 1.399 . S
C304 C309 1.399 . S
C305 C304 1.399 . S
C305 C306 1.376 . S
C306 H293 0.930 . S
C306 C305 1.376 . S
C306 C307 1.388 . S
C307 H294 0.930 1_565 S
C307 C306 1.388 . S
C307 C308 1.390 . S
C308 C307 1.390 . S
C308 C309 1.394 . S
C308 C314 1.465 . S
C309 C304 1.399 . S
C309 C308 1.394 . S
C309 C310 1.516 . S
C310 C309 1.516 . S
C310 C311 1.502 . S
C310 C312 1.561 . S
C310 C313 1.526 . S
C311 H295 0.959 . S
C311 H296 0.959 . S
C311 H297 0.961 . S
C311 C310 1.502 . S
C312 H298 0.960 . S
C312 H299 0.961 . S
C312 H300 0.959 . S
C312 C310 1.561 . S
C313 C310 1.526 . S
C313 C314 1.396 . S
C313 C318 1.390 . S
C314 C308 1.465 . S
C314 C313 1.396 . S
C314 C315 1.399 1_565 S
C315 H301 0.929 . S
C315 C314 1.399 1_545 S
C315 C316 1.385 . S
C316 H302 0.931 . S
C316 C315 1.385 . S
C316 C317 1.389 1_545 S
C317 C316 1.389 1_565 S
C317 C318 1.387 . S
C318 H303 0.930 . S
C318 C313 1.390 . S
C318 C317 1.387 . S
H319 C331 0.930 . S
H320 C333 0.930 . S
H321 C334 0.930 . S
H322 C338 0.959 . S
H323 C338 0.959 . S
H324 C338 0.961 . S
H325 C339 0.960 . S
H326 C339 0.961 . S
H327 C339 0.959 . S
H328 C342 0.929 . S
H329 C343 0.931 . S
H330 C345 0.930 . S
C331 H319 0.930 . S
C331 C332 1.399 1_556 S
C331 C336 1.399 . S
C332 C331 1.399 1_554 S
C332 C333 1.376 . S
C333 H320 0.930 . S
C333 C332 1.376 . S
C333 C334 1.388 . S
C334 H321 0.930 . S
C334 C333 1.388 . S
C334 C335 1.390 1_554 S
C335 C334 1.390 1_556 S
C335 C336 1.394 . S
C335 C341 1.465 . S
C336 C331 1.399 . S
C336 C335 1.394 . S
C336 C337 1.516 . S
C337 C336 1.516 . S
C337 C338 1.502 . S
C337 C339 1.561 . S
C337 C340 1.526 . S
C338 H322 0.959 . S
C338 H323 0.959 . S
C338 H324 0.961 . S
C338 C337 1.502 . S
C339 H325 0.960 . S
C339 H326 0.961 . S
C339 H327 0.959 . S
C339 C337 1.561 . S
C340 C337 1.526 . S
C340 C341 1.396 . S
C340 C345 1.390 . S
C341 C335 1.465 . S
C341 C340 1.396 . S
C341 C342 1.399 . S
C342 H328 0.929 . S
C342 C341 1.399 . S
C342 C343 1.385 . S
C343 H329 0.931 . S
C343 C342 1.385 . S
C343 C344 1.389 . S
C344 C343 1.389 . S
C344 C345 1.387 . S
C345 H330 0.930 . S
C345 C340 1.390 . S
C345 C344 1.387 . S
H346 C358 0.930 . S
H347 C360 0.930 . S
H348 C361 0.930 . S
H349 C365 0.959 . S
H350 C365 0.959 . S
H351 C365 0.961 . S
H352 C366 0.960 . S
H353 C366 0.961 . S
H354 C366 0.959 . S
H355 C369 0.929 . S
H356 C370 0.931 . S
H357 C372 0.930 . S
C358 H346 0.930 . S
C358 C359 1.399 . S
C358 C363 1.399 . S
C359 C358 1.399 . S
C359 C360 1.376 . S
C360 H347 0.930 . S
C360 C359 1.376 . S
C360 C361 1.388 . S
C361 H348 0.930 . S
C361 C360 1.388 . S
C361 C362 1.390 . S
C362 C361 1.390 . S
C362 C363 1.394 . S
C362 C368 1.465 . S
C363 C358 1.399 . S
C363 C362 1.394 . S
C363 C364 1.516 . S
C364 C363 1.516 . S
C364 C365 1.502 . S
C364 C366 1.561 . S
C364 C367 1.526 . S
C365 H349 0.959 . S
C365 H350 0.959 . S
C365 H351 0.961 . S
C365 C364 1.502 . S
C366 H352 0.960 . S
C366 H353 0.961 . S
C366 H354 0.959 . S
C366 C364 1.561 . S
C367 C364 1.526 . S
C367 C368 1.396 . S
C367 C372 1.390 . S
C368 C362 1.465 . S
C368 C367 1.396 . S
C368 C369 1.399 . S
C369 H355 0.929 . S
C369 C368 1.399 . S
C369 C370 1.385 . S
C370 H356 0.931 . S
C370 C369 1.385 . S
C370 C371 1.389 . S
C371 C370 1.389 . S
C371 C372 1.387 . S
C372 H357 0.930 . S
C372 C367 1.390 . S
C372 C371 1.387 . S
H373 C385 0.940 . S
H374 C387 0.930 . S
H375 C388 0.930 1_554 S
H376 C392 0.959 . S
H377 C392 0.959 . S
H378 C392 0.961 . S
H379 C393 0.960 . S
H380 C393 0.961 . S
H381 C393 0.959 . S
H382 C396 0.929 . S
H383 C397 0.931 . S
H384 C399 0.930 1_655 S
C385 H373 0.940 . S
C385 C386 1.395 1_655 S
C385 C390 1.394 1_655 S
C386 C385 1.395 1_455 S
C386 C387 1.376 1_556 S
C387 H374 0.930 . S
C387 C386 1.376 1_554 S
C387 C388 1.388 1_554 S
C388 H375 0.930 1_556 S
C388 C387 1.388 1_556 S
C388 C389 1.390 . S
C389 C388 1.390 . S
C389 C390 1.394 . S
C389 C395 1.465 . S
C390 C385 1.394 1_455 S
C390 C389 1.394 . S
C390 C391 1.517 . S
C391 C390 1.517 . S
C391 C392 1.483 1_455 S
C391 C393 1.579 . S
C391 C394 1.529 . S
C392 H376 0.959 . S
C392 H377 0.959 . S
C392 H378 0.961 . S
C392 C391 1.483 1_655 S
C393 H379 0.960 . S
C393 H380 0.961 . S
C393 H381 0.959 . S
C393 C391 1.579 . S
C394 C391 1.529 . S
C394 C395 1.396 . S
C394 C399 1.390 . S
C395 C389 1.465 . S
C395 C394 1.396 . S
C395 C396 1.399 . S
C396 H382 0.929 . S
C396 C395 1.399 . S
C396 C397 1.385 . S
C397 H383 0.931 . S
C397 C396 1.385 . S
C397 C398 1.389 . S
C398 C397 1.389 . S
C398 C399 1.387 . S
C399 H384 0.930 1_455 S
C399 C394 1.390 . S
C399 C398 1.387 . S
H400 C412 0.930 . S
H401 C414 0.930 . S
H402 C415 0.930 . S
H403 C419 0.959 . S
H404 C419 0.959 . S
H405 C419 0.961 . S
H406 C420 0.960 . S
H407 C420 0.961 . S
H408 C420 0.959 1_455 S
H409 C423 0.929 . S
H410 C424 0.931 . S
H411 C426 0.930 . S
C412 H400 0.930 . S
C412 C413 1.399 1_655 S
C412 C417 1.399 . S
C413 C412 1.399 1_455 S
C413 C414 1.376 . S
C414 H401 0.930 . S
C414 C413 1.376 . S
C414 C415 1.388 . S
C415 H402 0.930 . S
C415 C414 1.388 . S
C415 C416 1.390 . S
C416 C415 1.390 . S
C416 C417 1.394 1_455 S
C416 C422 1.465 . S
C417 C412 1.399 . S
C417 C416 1.394 1_655 S
C417 C418 1.516 . S
C418 C417 1.516 . S
C418 C419 1.502 . S
C418 C420 1.561 . S
C418 C421 1.526 . S
C419 H403 0.959 . S
C419 H404 0.959 . S
C419 H405 0.961 . S
C419 C418 1.502 . S
C420 H406 0.960 . S
C420 H407 0.961 . S
C420 H408 0.959 1_655 S
C420 C418 1.561 . S
C421 C418 1.526 . S
C421 C422 1.396 1_655 S
C421 C426 1.390 . S
C422 C416 1.465 . S
C422 C421 1.396 1_455 S
C422 C423 1.399 . S
C423 H409 0.929 . S
C423 C422 1.399 . S
C423 C424 1.385 . S
C424 H410 0.931 . S
C424 C423 1.385 . S
C424 C425 1.389 1_455 S
C425 C424 1.389 1_655 S
C425 C426 1.387 . S
C426 H411 0.930 . S
C426 C421 1.390 . S
C426 C425 1.387 . S
H427 C439 0.930 . S
H428 C441 0.930 . S
H429 C442 0.930 1_565 S
H430 C446 0.959 . S
H431 C446 0.959 . S
H432 C446 0.961 . S
H433 C447 0.960 . S
H434 C447 0.961 . S
H435 C447 0.959 . S
H436 C450 0.929 . S
H437 C451 0.931 . S
H438 C453 0.930 . S
C439 H427 0.930 . S
C439 C440 1.399 . S
C439 C444 1.399 . S
C440 C439 1.399 . S
C440 C441 1.376 . S
C441 H428 0.930 . S
C441 C440 1.376 . S
C441 C442 1.388 . S
C442 H429 0.930 1_545 S
C442 C441 1.388 . S
C442 C443 1.390 . S
C443 C442 1.390 . S
C443 C444 1.394 . S
C443 C449 1.465 . S
C444 C439 1.399 . S
C444 C443 1.394 . S
C444 C445 1.516 . S
C445 C444 1.516 . S
C445 C446 1.502 . S
C445 C447 1.561 . S
C445 C448 1.526 . S
C446 H430 0.959 . S
C446 H431 0.959 . S
C446 H432 0.961 . S
C446 C445 1.502 . S
C447 H433 0.960 . S
C447 H434 0.961 . S
C447 H435 0.959 . S
C447 C445 1.561 . S
C448 C445 1.526 . S
C448 C449 1.396 . S
C448 C453 1.390 . S
C449 C443 1.465 . S
C449 C448 1.396 . S
C449 C450 1.399 1_545 S
C450 H436 0.929 . S
C450 C449 1.399 1_565 S
C450 C451 1.385 . S
C451 H437 0.931 . S
C451 C450 1.385 . S
C451 C452 1.389 1_565 S
C452 C451 1.389 1_545 S
C452 C453 1.387 . S
C453 H438 0.930 . S
C453 C448 1.390 . S
C453 C452 1.387 . S
H454 C466 0.930 . S
H455 C468 0.930 . S
H456 C469 0.930 . S
H457 C473 0.959 . S
H458 C473 0.959 . S
H459 C473 0.961 . S
H460 C474 0.960 . S
H461 C474 0.961 . S
H462 C474 0.959 . S
H463 C477 0.929 . S
H464 C478 0.931 . S
H465 C480 0.930 . S
C466 H454 0.930 . S
C466 C467 1.399 . S
C466 C471 1.399 . S
C467 C466 1.399 . S
C467 C468 1.376 . S
C468 H455 0.930 . S
C468 C467 1.376 . S
C468 C469 1.388 . S
C469 H456 0.930 . S
C469 C468 1.388 . S
C469 C470 1.390 . S
C470 C469 1.390 . S
C470 C471 1.394 . S
C470 C476 1.465 . S
C471 C466 1.399 . S
C471 C470 1.394 . S
C471 C472 1.516 . S
C472 C471 1.516 . S
C472 C473 1.502 . S
C472 C474 1.561 . S
C472 C475 1.526 . S
C473 H457 0.959 . S
C473 H458 0.959 . S
C473 H459 0.961 . S
C473 C472 1.502 . S
C474 H460 0.960 . S
C474 H461 0.961 . S
C474 H462 0.959 . S
C474 C472 1.561 . S
C475 C472 1.526 . S
C475 C476 1.396 . S
C475 C480 1.390 . S
C476 C470 1.465 . S
C476 C475 1.396 . S
C476 C477 1.399 . S
C477 H463 0.929 . S
C477 C476 1.399 . S
C477 C478 1.385 . S
C478 H464 0.931 . S
C478 C477 1.385 . S
C478 C479 1.389 . S
C479 C478 1.389 . S
C479 C480 1.387 . S
C480 H465 0.930 . S
C480 C475 1.390 . S
C480 C479 1.387 . S
H481 C493 0.930 . S
H482 C495 0.930 . S
H483 C496 0.930 . S
H484 C500 0.959 . S
H485 C500 0.959 . S
H486 C500 0.961 . S
H487 C501 0.960 . S
H488 C501 0.961 . S
H489 C501 0.959 . S
H490 C504 0.929 . S
H491 C505 0.931 . S
H492 C507 0.930 . S
C493 H481 0.930 . S
C493 C494 1.399 . S
C493 C498 1.399 . S
C494 C493 1.399 . S
C494 C495 1.376 . S
C495 H482 0.930 . S
C495 C494 1.376 . S
C495 C496 1.388 . S
C496 H483 0.930 . S
C496 C495 1.388 . S
C496 C497 1.390 . S
C497 C496 1.390 . S
C497 C498 1.394 . S
C497 C503 1.465 . S
C498 C493 1.399 . S
C498 C497 1.394 . S
C498 C499 1.516 . S
C499 C498 1.516 . S
C499 C500 1.502 . S
C499 C501 1.561 . S
C499 C502 1.526 . S
C500 H484 0.959 . S
C500 H485 0.959 . S
C500 H486 0.961 . S
C500 C499 1.502 . S
C501 H487 0.960 . S
C501 H488 0.961 . S
C501 H489 0.959 . S
C501 C499 1.561 . S
C502 C499 1.526 . S
C502 C503 1.396 . S
C502 C507 1.390 . S
C503 C497 1.465 . S
C503 C502 1.396 . S
C503 C504 1.399 . S
C504 H490 0.929 . S
C504 C503 1.399 . S
C504 C505 1.385 . S
C505 H491 0.931 . S
C505 C504 1.385 . S
C505 C506 1.389 . S
C506 C505 1.389 . S
C506 C507 1.387 . S
C507 H492 0.930 . S
C507 C502 1.390 . S
C507 C506 1.387 . S
H508 C520 0.931 1_554 S
H509 C522 0.930 . S
H510 C523 0.930 . S
H511 C527 0.958 1_556 S
H512 C527 0.960 . S
H513 C527 0.964 . S
H514 C528 0.960 1_554 S
H515 C528 0.960 1_554 S
H516 C528 0.959 . S
H517 C531 0.929 . S
H518 C532 0.931 . S
H519 C534 0.930 . S
C520 H508 0.931 1_556 S
C520 C521 1.399 . S
C520 C525 1.399 . S
C521 C520 1.399 . S
C521 C522 1.376 . S
C522 H509 0.930 . S
C522 C521 1.376 . S
C522 C523 1.388 . S
C523 H510 0.930 . S
C523 C522 1.388 . S
C523 C524 1.390 . S
C524 C523 1.390 . S
C524 C525 1.394 . S
C524 C530 1.465 . S
C525 C520 1.399 . S
C525 C524 1.394 . S
C525 C526 1.516 . S
C526 C525 1.516 . S
C526 C527 1.500 1_456 S
C526 C528 1.561 . S
C526 C529 1.526 . S
C527 H511 0.958 1_554 S
C527 H512 0.960 . S
C527 H513 0.964 . S
C527 C526 1.500 1_654 S
C528 H514 0.960 1_556 S
C528 H515 0.960 1_556 S
C528 H516 0.959 . S
C528 C526 1.561 . S
C529 C526 1.526 . S
C529 C530 1.396 . S
C529 C534 1.390 . S
C530 C524 1.465 . S
C530 C529 1.396 . S
C530 C531 1.399 . S
C531 H517 0.929 . S
C531 C530 1.399 . S
C531 C532 1.385 . S
C532 H518 0.931 . S
C532 C531 1.385 . S
C532 C533 1.389 . S
C533 C532 1.389 . S
C533 C534 1.387 . S
C534 H519 0.930 . S
C534 C529 1.390 . S
C534 C533 1.387 . S
H535 C547 0.938 . S
H536 C549 0.930 . S
H537 C550 0.930 . S
H538 C554 0.959 1_565 S
H539 C554 0.959 . S
H540 C554 0.961 . S
H541 C555 0.960 . S
H542 C555 0.961 . S
H543 C555 0.959 . S
H544 C558 0.929 . S
H545 C559 0.931 . S
H546 C561 0.930 . S
C547 H535 0.938 . S
C547 C548 1.399 . S
C547 C552 1.399 . S
C548 C547 1.399 . S
C548 C549 1.376 . S
C549 H536 0.930 . S
C549 C548 1.376 . S
C549 C550 1.388 . S
C550 H537 0.930 . S
C550 C549 1.388 . S
C550 C551 1.390 . S
C551 C550 1.390 . S
C551 C552 1.394 . S
C551 C557 1.465 . S
C552 C547 1.399 . S
C552 C551 1.394 . S
C552 C553 1.516 1_565 S
C553 C552 1.516 1_545 S
C553 C554 1.502 1_556 S
C553 C555 1.561 . S
C553 C556 1.526 1_545 S
C554 H538 0.959 1_545 S
C554 H539 0.959 . S
C554 H540 0.961 . S
C554 C553 1.502 1_554 S
C555 H541 0.960 . S
C555 H542 0.961 . S
C555 H543 0.959 . S
C555 C553 1.561 . S
C556 C553 1.526 1_565 S
C556 C557 1.396 . S
C556 C561 1.390 1_565 S
C557 C551 1.465 . S
C557 C556 1.396 . S
C557 C558 1.399 . S
C558 H544 0.929 . S
C558 C557 1.399 . S
C558 C559 1.385 . S
C559 H545 0.931 . S
C559 C558 1.385 . S
C559 C560 1.389 . S
C560 C559 1.389 . S
C560 C561 1.387 1_565 S
C561 H546 0.930 . S
C561 C556 1.390 1_545 S
C561 C560 1.387 1_545 S
H562 C574 0.930 . S
H563 C576 0.930 . S
H564 C577 0.930 . S
H565 C581 0.959 . S
H566 C581 0.959 . S
H567 C581 0.961 . S
H568 C582 0.960 . S
H569 C582 0.961 . S
H570 C582 0.959 . S
H571 C585 0.929 . S
H572 C586 0.931 . S
H573 C588 0.930 . S
C574 H562 0.930 . S
C574 C575 1.399 1_556 S
C574 C579 1.399 . S
C575 C574 1.399 1_554 S
C575 C576 1.376 . S
C576 H563 0.930 . S
C576 C575 1.376 . S
C576 C577 1.388 . S
C577 H564 0.930 . S
C577 C576 1.388 . S
C577 C578 1.390 1_554 S
C578 C577 1.390 1_556 S
C578 C579 1.394 . S
C578 C584 1.465 . S
C579 C574 1.399 . S
C579 C578 1.394 . S
C579 C580 1.516 . S
C580 C579 1.516 . S
C580 C581 1.502 . S
C580 C582 1.561 . S
C580 C583 1.526 . S
C581 H565 0.959 . S
C581 H566 0.959 . S
C581 H567 0.961 . S
C581 C580 1.502 . S
C582 H568 0.960 . S
C582 H569 0.961 . S
C582 H570 0.959 . S
C582 C580 1.561 . S
C583 C580 1.526 . S
C583 C584 1.396 . S
C583 C588 1.390 . S
C584 C578 1.465 . S
C584 C583 1.396 . S
C584 C585 1.399 . S
C585 H571 0.929 . S
C585 C584 1.399 . S
C585 C586 1.385 . S
C586 H572 0.931 . S
C586 C585 1.385 . S
C586 C587 1.389 . S
C587 C586 1.389 . S
C587 C588 1.387 . S
C588 H573 0.930 . S
C588 C583 1.390 . S
C588 C587 1.387 . S
H589 C601 0.930 1_554 S
H590 C603 0.930 . S
H591 C604 0.930 . S
H592 C608 0.959 . S
H593 C608 0.959 . S
H594 C608 0.961 . S
H595 C609 0.960 . S
H596 C609 0.961 . S
H597 C609 0.959 . S
H598 C612 0.929 . S
H599 C613 0.931 . S
H600 C615 0.930 . S
C601 H589 0.930 1_556 S
C601 C602 1.399 . S
C601 C606 1.399 . S
C602 C601 1.399 . S
C602 C603 1.376 . S
C603 H590 0.930 . S
C603 C602 1.376 . S
C603 C604 1.388 . S
C604 H591 0.930 . S
C604 C603 1.388 . S
C604 C605 1.390 . S
C605 C604 1.390 . S
C605 C606 1.394 . S
C605 C611 1.465 . S
C606 C601 1.399 . S
C606 C605 1.394 . S
C606 C607 1.516 . S
C607 C606 1.516 . S
C607 C608 1.502 . S
C607 C609 1.561 1_556 S
C607 C610 1.526 . S
C608 H592 0.959 . S
C608 H593 0.959 . S
C608 H594 0.961 . S
C608 C607 1.502 . S
C609 H595 0.960 . S
C609 H596 0.961 . S
C609 H597 0.959 . S
C609 C607 1.561 1_554 S
C610 C607 1.526 . S
C610 C611 1.396 . S
C610 C615 1.390 . S
C611 C605 1.465 . S
C611 C610 1.396 . S
C611 C612 1.399 . S
C612 H598 0.929 . S
C612 C611 1.399 . S
C612 C613 1.385 . S
C613 H599 0.931 . S
C613 C612 1.385 . S
C613 C614 1.389 . S
C614 C613 1.389 . S
C614 C615 1.387 . S
C615 H600 0.930 . S
C615 C610 1.390 . S
C615 C614 1.387 . S
H616 C628 0.930 1_554 S
H617 C630 0.930 . S
H618 C631 0.930 . S
H619 C635 0.959 . S
H620 C635 0.959 1_655 S
H621 C635 0.961 1_654 S
H622 C636 0.960 . S
H623 C636 0.961 . S
H624 C636 0.959 . S
H625 C639 0.929 . S
H626 C640 0.931 . S
H627 C642 0.939 . S
C628 H616 0.930 1_556 S
C628 C629 1.394 1_655 S
C628 C633 1.399 . S
C629 C628 1.394 1_455 S
C629 C630 1.387 . S
C630 H617 0.930 . S
C630 C629 1.387 . S
C630 C631 1.388 . S
C631 H618 0.930 . S
C631 C630 1.388 . S
C631 C632 1.390 . S
C632 C631 1.390 . S
C632 C633 1.394 1_455 S
C632 C638 1.465 . S
C633 C628 1.399 . S
C633 C632 1.394 1_655 S
C633 C634 1.516 . S
C634 C633 1.516 . S
C634 C635 1.502 1_655 S
C634 C636 1.561 . S
C634 C637 1.526 . S
C635 H619 0.959 . S
C635 H620 0.959 1_455 S
C635 H621 0.961 1_456 S
C635 C634 1.502 1_455 S
C636 H622 0.960 . S
C636 H623 0.961 . S
C636 H624 0.959 . S
C636 C634 1.561 . S
C637 C634 1.526 . S
C637 C638 1.396 1_655 S
C637 C642 1.393 . S
C638 C632 1.465 . S
C638 C637 1.396 1_455 S
C638 C639 1.399 . S
C639 H625 0.929 . S
C639 C638 1.399 . S
C639 C640 1.385 . S
C640 H626 0.931 . S
C640 C639 1.385 . S
C640 C641 1.389 . S
C641 C640 1.389 . S
C641 C642 1.375 1_455 S
C642 H627 0.939 . S
C642 C637 1.393 . S
C642 C641 1.375 1_655 S
H643 C655 0.930 1_554 S
H644 C657 0.930 . S
H645 C658 0.930 . S
H646 C662 0.959 . S
H647 C662 0.959 . S
H648 C662 0.961 . S
H649 C663 0.960 . S
H650 C663 0.961 . S
H651 C663 0.959 . S
H652 C666 0.929 . S
H653 C667 0.931 . S
H654 C669 0.930 . S
C655 H643 0.930 1_556 S
C655 C656 1.399 . S
C655 C660 1.399 . S
C656 C655 1.399 . S
C656 C657 1.376 . S
C657 H644 0.930 . S
C657 C656 1.376 . S
C657 C658 1.388 . S
C658 H645 0.930 . S
C658 C657 1.388 . S
C658 C659 1.390 . S
C659 C658 1.390 . S
C659 C660 1.394 . S
C659 C665 1.465 . S
C660 C655 1.399 . S
C660 C659 1.394 . S
C660 C661 1.516 . S
C661 C660 1.516 . S
C661 C662 1.502 1_556 S
C661 C663 1.561 1_545 S
C661 C664 1.526 . S
C662 H646 0.959 . S
C662 H647 0.959 . S
C662 H648 0.961 . S
C662 C661 1.502 1_554 S
C663 H649 0.960 . S
C663 H650 0.961 . S
C663 H651 0.959 . S
C663 C661 1.561 1_565 S
C664 C661 1.526 . S
C664 C665 1.396 . S
C664 C669 1.390 . S
C665 C659 1.465 . S
C665 C664 1.396 . S
C665 C666 1.399 . S
C666 H652 0.929 . S
C666 C665 1.399 . S
C666 C667 1.385 . S
C667 H653 0.931 . S
C667 C666 1.385 . S
C667 C668 1.389 . S
C668 C667 1.389 . S
C668 C669 1.387 . S
C669 H654 0.930 . S
C669 C664 1.390 . S
C669 C668 1.387 . S
H670 C682 0.930 . S
H671 C684 0.930 . S
H672 C685 0.930 . S
H673 C689 0.959 . S
H674 C689 0.959 . S
H675 C689 0.961 . S
H676 C690 0.960 1_554 S
H677 C690 0.961 . S
H678 C690 0.959 . S
H679 C693 0.929 . S
H680 C694 0.931 . S
H681 C696 0.930 . S
C682 H670 0.930 . S
C682 C683 1.399 . S
C682 C687 1.399 . S
C683 C682 1.399 . S
C683 C684 1.376 . S
C684 H671 0.930 . S
C684 C683 1.376 . S
C684 C685 1.388 . S
C685 H672 0.930 . S
C685 C684 1.388 . S
C685 C686 1.390 . S
C686 C685 1.390 . S
C686 C687 1.394 . S
C686 C692 1.465 . S
C687 C682 1.399 . S
C687 C686 1.394 . S
C687 C688 1.516 . S
C688 C687 1.516 . S
C688 C689 1.502 . S
C688 C690 1.561 . S
C688 C691 1.526 . S
C689 H673 0.959 . S
C689 H674 0.959 . S
C689 H675 0.961 . S
C689 C688 1.502 . S
C690 H676 0.960 1_556 S
C690 H677 0.961 . S
C690 H678 0.959 . S
C690 C688 1.561 . S
C691 C688 1.526 . S
C691 C692 1.396 . S
C691 C696 1.390 . S
C692 C686 1.465 . S
C692 C691 1.396 . S
C692 C693 1.399 . S
C693 H679 0.929 . S
C693 C692 1.399 . S
C693 C694 1.385 . S
C694 H680 0.931 . S
C694 C693 1.385 . S
C694 C695 1.389 . S
C695 C694 1.389 . S
C695 C696 1.387 . S
C696 H681 0.930 . S
C696 C691 1.390 . S
C696 C695 1.387 . S
H697 C709 0.930 . S
H698 C711 0.930 . S
H699 C712 0.930 . S
H700 C716 0.959 . S
H701 C716 0.959 . S
H702 C716 0.961 . S
H703 C717 0.960 . S
H704 C717 0.961 . S
H705 C717 0.959 . S
H706 C720 0.929 . S
H707 C721 0.931 . S
H708 C723 0.930 . S
C709 H697 0.930 . S
C709 C710 1.399 . S
C709 C714 1.399 . S
C710 C709 1.399 . S
C710 C711 1.376 . S
C711 H698 0.930 . S
C711 C710 1.376 . S
C711 C712 1.388 . S
C712 H699 0.930 . S
C712 C711 1.388 . S
C712 C713 1.390 . S
C713 C712 1.390 . S
C713 C714 1.394 . S
C713 C719 1.465 . S
C714 C709 1.399 . S
C714 C713 1.394 . S
C714 C715 1.516 . S
C715 C714 1.516 . S
C715 C716 1.502 . S
C715 C717 1.561 . S
C715 C718 1.526 . S
C716 H700 0.959 . S
C716 H701 0.959 . S
C716 H702 0.961 . S
C716 C715 1.502 . S
C717 H703 0.960 . S
C717 H704 0.961 . S
C717 H705 0.959 . S
C717 C715 1.561 . S
C718 C715 1.526 . S
C718 C719 1.396 . S
C718 C723 1.390 . S
C719 C713 1.465 . S
C719 C718 1.396 . S
C719 C720 1.399 . S
C720 H706 0.929 . S
C720 C719 1.399 . S
C720 C721 1.385 . S
C721 H707 0.931 . S
C721 C720 1.385 . S
C721 C722 1.389 . S
C722 C721 1.389 . S
C722 C723 1.387 . S
C723 H708 0.930 . S
C723 C718 1.390 . S
C723 C722 1.387 . S
H724 C736 0.930 . S
H725 C738 0.930 . S
H726 C739 0.930 . S
H727 C743 0.959 . S
H728 C743 0.959 . S
H729 C743 0.961 . S
H730 C744 0.960 . S
H731 C744 0.961 . S
H732 C744 0.959 1_655 S
H733 C747 0.929 . S
H734 C748 0.931 . S
H735 C750 0.930 . S
C736 H724 0.930 . S
C736 C737 1.399 1_455 S
C736 C741 1.399 . S
C737 C736 1.399 1_655 S
C737 C738 1.376 . S
C738 H725 0.930 . S
C738 C737 1.376 . S
C738 C739 1.388 . S
C739 H726 0.930 . S
C739 C738 1.388 . S
C739 C740 1.390 . S
C740 C739 1.390 . S
C740 C741 1.394 1_655 S
C740 C746 1.465 . S
C741 C736 1.399 . S
C741 C740 1.394 1_455 S
C741 C742 1.516 . S
C742 C741 1.516 . S
C742 C743 1.502 . S
C742 C744 1.561 . S
C742 C745 1.526 . S
C743 H727 0.959 . S
C743 H728 0.959 . S
C743 H729 0.961 . S
C743 C742 1.502 . S
C744 H730 0.960 . S
C744 H731 0.961 . S
C744 H732 0.959 1_455 S
C744 C742 1.561 . S
C745 C742 1.526 . S
C745 C746 1.396 1_455 S
C745 C750 1.390 . S
C746 C740 1.465 . S
C746 C745 1.396 1_655 S
C746 C747 1.399 . S
C747 H733 0.929 . S
C747 C746 1.399 . S
C747 C748 1.385 . S
C748 H734 0.931 . S
C748 C747 1.385 . S
C748 C749 1.389 . S
C749 C748 1.389 . S
C749 C750 1.387 1_655 S
C750 H735 0.930 . S
C750 C745 1.390 . S
C750 C749 1.387 1_455 S
H751 C763 0.930 . S
H752 C765 0.930 . S
H753 C766 0.930 . S
H754 C770 0.959 . S
H755 C770 0.959 . S
H756 C770 0.961 . S
H757 C771 0.960 . S
H758 C771 0.961 . S
H759 C771 0.959 1_565 S
H760 C774 0.929 . S
H761 C775 0.931 . S
H762 C777 0.930 1_545 S
C763 H751 0.930 . S
C763 C764 1.399 . S
C763 C768 1.399 . S
C764 C763 1.399 . S
C764 C765 1.376 . S
C765 H752 0.930 . S
C765 C764 1.376 . S
C765 C766 1.388 . S
C766 H753 0.930 . S
C766 C765 1.388 . S
C766 C767 1.390 . S
C767 C766 1.390 . S
C767 C768 1.394 . S
C767 C773 1.465 . S
C768 C763 1.399 . S
C768 C767 1.394 . S
C768 C769 1.519 1_565 S
C769 C768 1.519 1_545 S
C769 C770 1.500 . S
C769 C771 1.560 . S
C769 C772 1.527 1_545 S
C770 H754 0.959 . S
C770 H755 0.959 . S
C770 H756 0.961 . S
C770 C769 1.500 . S
C771 H757 0.960 . S
C771 H758 0.961 . S
C771 H759 0.959 1_545 S
C771 C769 1.560 . S
C772 C769 1.527 1_565 S
C772 C773 1.396 . S
C772 C777 1.390 . S
C773 C767 1.465 . S
C773 C772 1.396 . S
C773 C774 1.399 . S
C774 H760 0.929 . S
C774 C773 1.399 . S
C774 C775 1.385 . S
C775 H761 0.931 . S
C775 C774 1.385 . S
C775 C776 1.389 . S
C776 C775 1.389 . S
C776 C777 1.387 . S
C777 H762 0.930 1_565 S
C777 C772 1.390 . S
C777 C776 1.387 . S
H778 C790 0.930 . S
H779 C792 0.930 . S
H780 C793 0.930 . S
H781 C797 0.959 . S
H782 C797 0.959 . S
H783 C797 0.961 . S
H784 C798 0.960 . S
H785 C798 0.961 . S
H786 C798 0.959 . S
H787 C801 0.929 . S
H788 C802 0.931 . S
H789 C804 0.930 . S
C790 H778 0.930 . S
C790 C791 1.399 . S
C790 C795 1.399 . S
C791 C790 1.399 . S
C791 C792 1.376 . S
C792 H779 0.930 . S
C792 C791 1.376 . S
C792 C793 1.388 . S
C793 H780 0.930 . S
C793 C792 1.388 . S
C793 C794 1.390 . S
C794 C793 1.390 . S
C794 C795 1.394 . S
C794 C800 1.465 . S
C795 C790 1.399 . S
C795 C794 1.394 . S
C795 C796 1.516 . S
C796 C795 1.516 . S
C796 C797 1.502 . S
C796 C798 1.561 . S
C796 C799 1.526 . S
C797 H781 0.959 . S
C797 H782 0.959 . S
C797 H783 0.961 . S
C797 C796 1.502 . S
C798 H784 0.960 . S
C798 H785 0.961 . S
C798 H786 0.959 . S
C798 C796 1.561 . S
C799 C796 1.526 . S
C799 C800 1.396 . S
C799 C804 1.390 . S
C800 C794 1.465 . S
C800 C799 1.396 . S
C800 C801 1.399 . S
C801 H787 0.929 . S
C801 C800 1.399 . S
C801 C802 1.385 . S
C802 H788 0.931 . S
C802 C801 1.385 . S
C802 C803 1.389 . S
C803 C802 1.389 . S
C803 C804 1.387 . S
C804 H789 0.930 . S
C804 C799 1.390 . S
C804 C803 1.387 . S
H805 C817 0.930 . S
H806 C819 0.930 . S
H807 C820 0.930 . S
H808 C824 0.959 . S
H809 C824 0.959 . S
H810 C824 0.961 . S
H811 C825 0.960 . S
H812 C825 0.961 . S
H813 C825 0.959 . S
H814 C828 0.929 . S
H815 C829 0.931 . S
H816 C831 0.930 . S
C817 H805 0.930 . S
C817 C818 1.399 . S
C817 C822 1.399 . S
C818 C817 1.399 . S
C818 C819 1.376 . S
C819 H806 0.930 . S
C819 C818 1.376 . S
C819 C820 1.388 . S
C820 H807 0.930 . S
C820 C819 1.388 . S
C820 C821 1.390 . S
C821 C820 1.390 . S
C821 C822 1.394 . S
C821 C827 1.465 . S
C822 C817 1.399 . S
C822 C821 1.394 . S
C822 C823 1.516 . S
C823 C822 1.516 . S
C823 C824 1.502 . S
C823 C825 1.561 . S
C823 C826 1.526 . S
C824 H808 0.959 . S
C824 H809 0.959 . S
C824 H810 0.961 . S
C824 C823 1.502 . S
C825 H811 0.960 . S
C825 H812 0.961 . S
C825 H813 0.959 . S
C825 C823 1.561 . S
C826 C823 1.526 . S
C826 C827 1.396 . S
C826 C831 1.390 . S
C827 C821 1.465 . S
C827 C826 1.396 . S
C827 C828 1.399 . S
C828 H814 0.929 . S
C828 C827 1.399 . S
C828 C829 1.385 . S
C829 H815 0.931 . S
C829 C828 1.385 . S
C829 C830 1.389 . S
C830 C829 1.389 . S
C830 C831 1.387 . S
C831 H816 0.930 . S
C831 C826 1.390 . S
C831 C830 1.387 . S
C197 C82 1.533 . S
C209 C112 1.690 . S
C236 C142 1.782 . S
C224 C95 1.653 . S
C263 C152 1.528 . S
C251 C56 1.303 . S
C290 C172 1.385 . S
C278 C69 1.318 1_655 S
C317 C113 1.686 . S
C305 C30 1.482 . S
C332 C43 1.637 . S
C344 C143 1.767 . S
C359 C4 1.384 . S
C371 C153 1.530 . S
C386 C17 1.299 . S
C398 C173 1.391 . S
C425 C105 0.877 . S
C413 C74 0.890 . S
C452 C126 0.615 . S
C440 C87 0.541 . S
C479 C145 1.028 . S
C467 C100 1.049 . S
C494 C61 0.754 . S
C506 C165 0.735 . S
C521 C22 0.897 . S
C533 C106 0.893 . S
C560 C125 0.554 1_565 S
C548 C35 0.722 . S
C587 C146 0.984 . S
C575 C48 0.981 . S
C602 C9 0.764 1_556 S
C614 C166 0.799 . S
C629 C73 1.555 . S
C641 C123 1.594 . S
C656 C86 1.441 1_556 S
C668 C133 1.478 . S
C695 C163 1.774 . S
C683 C99 1.707 . S
C722 C183 1.759 . S
C710 C60 1.677 . S
C737 C21 1.519 1_655 S
C749 C122 1.608 . S
C776 C132 1.466 . S
C764 C34 1.382 . S
C803 C162 1.802 . S
C791 C47 1.705 . S
C818 C8 1.709 . S
C830 C182 1.764 . S
