# Generated by pormake.
# Topology ssa, (4,4)-cn, num edge types: 1
# Building blocks:
#     Node 0, Type 0, BuildingBlock: ESEHIV_clean_sbu_0, # of connection points: 4
#     Node 1, Type 0, BuildingBlock: ESEHIV_clean_sbu_0, # of connection points: 4
#     Node 2, Type 0, BuildingBlock: ESEHIV_clean_sbu_0, # of connection points: 4
#     Node 3, Type 0, BuildingBlock: ESEHIV_clean_sbu_0, # of connection points: 4
#     Node 4, Type 0, BuildingBlock: ESEHIV_clean_sbu_0, # of connection points: 4
#     Node 5, Type 0, BuildingBlock: ESEHIV_clean_sbu_0, # of connection points: 4
#     Node 6, Type 1, BuildingBlock: MUDLON_clean_linker_0, # of connection points: 4
#     Node 7, Type 1, BuildingBlock: MUDLON_clean_linker_0, # of connection points: 4
#     Node 8, Type 1, BuildingBlock: MUDLON_clean_linker_0, # of connection points: 4
#     Node 9, Type 1, BuildingBlock: MUDLON_clean_linker_0, # of connection points: 4
#     Node 10, Type 1, BuildingBlock: MUDLON_clean_linker_0, # of connection points: 4
#     Node 11, Type 1, BuildingBlock: MUDLON_clean_linker_0, # of connection points: 4
#     Edge 12, Type (0, 1), BuildingBlock: AJUNOK_clean_linker_0, # of connection points: 2
#     Edge 13, Type (0, 1), BuildingBlock: AJUNOK_clean_linker_0, # of connection points: 2
#     Edge 14, Type (0, 1), BuildingBlock: AJUNOK_clean_linker_0, # of connection points: 2
#     Edge 15, Type (0, 1), BuildingBlock: AJUNOK_clean_linker_0, # of connection points: 2
#     Edge 16, Type (0, 1), BuildingBlock: AJUNOK_clean_linker_0, # of connection points: 2
#     Edge 17, Type (0, 1), BuildingBlock: AJUNOK_clean_linker_0, # of connection points: 2
#     Edge 18, Type (0, 1), BuildingBlock: AJUNOK_clean_linker_0, # of connection points: 2
#     Edge 19, Type (0, 1), BuildingBlock: AJUNOK_clean_linker_0, # of connection points: 2
#     Edge 20, Type (0, 1), BuildingBlock: AJUNOK_clean_linker_0, # of connection points: 2
#     Edge 21, Type (0, 1), BuildingBlock: AJUNOK_clean_linker_0, # of connection points: 2
#     Edge 22, Type (0, 1), BuildingBlock: AJUNOK_clean_linker_0, # of connection points: 2
#     Edge 23, Type (0, 1), BuildingBlock: AJUNOK_clean_linker_0, # of connection points: 2
#     Edge 24, Type (0, 1), BuildingBlock: AJUNOK_clean_linker_0, # of connection points: 2
#     Edge 25, Type (0, 1), BuildingBlock: AJUNOK_clean_linker_0, # of connection points: 2
#     Edge 26, Type (0, 1), BuildingBlock: AJUNOK_clean_linker_0, # of connection points: 2
#     Edge 27, Type (0, 1), BuildingBlock: AJUNOK_clean_linker_0, # of connection points: 2
#     Edge 28, Type (0, 1), BuildingBlock: AJUNOK_clean_linker_0, # of connection points: 2
#     Edge 29, Type (0, 1), BuildingBlock: AJUNOK_clean_linker_0, # of connection points: 2
#     Edge 30, Type (0, 1), BuildingBlock: AJUNOK_clean_linker_0, # of connection points: 2
#     Edge 31, Type (0, 1), BuildingBlock: AJUNOK_clean_linker_0, # of connection points: 2
#     Edge 32, Type (0, 1), BuildingBlock: AJUNOK_clean_linker_0, # of connection points: 2
#     Edge 33, Type (0, 1), BuildingBlock: AJUNOK_clean_linker_0, # of connection points: 2
#     Edge 34, Type (0, 1), BuildingBlock: AJUNOK_clean_linker_0, # of connection points: 2
#     Edge 35, Type (0, 1), BuildingBlock: AJUNOK_clean_linker_0, # of connection points: 2
# Relax obj value: 0.008
# Max RMSD: 0.106
# Mean RMSD: 0.067
data_MOF--net-ssa--node1-ESEHIV_clean_sbu_0--node2-MUDLON_clean_linker_0--edge1-AJUNOK_clean_linker_0
_symmetry_space_group_name_H-M    P1
_symmetry_Int_Tables_number       1
_symmetry_cell_setting            triclinic
loop_
_symmetry_equiv_pos_as_xyz
'x, y, z'
_cell_length_a     56.276496
_cell_length_b     59.824301
_cell_length_c     32.5579
_cell_angle_alpha  88.156475
_cell_angle_beta   90.794451
_cell_angle_gamma 122.25223
loop_
_atom_site_label
_atom_site_type_symbol
_atom_site_fract_x
_atom_site_fract_y
_atom_site_fract_z
_atom_type_partial_charge
Cu0 Cu 0.02884 0.52412 0.02044 0.0
N1 N 1.0009 0.48844 0.02266 0.0
N2 N 0.96938 0.44852 0.99954 0.0
C3 C 0.98876 0.47392 0.98938 0.0
C4 C 0.96963 0.4469 0.04098 0.0
C5 C 0.98906 0.47171 0.05524 0.0
O6 O 0.01949 0.53868 0.9731 0.0
C7 C 0.08827 0.5476 0.02324 0.0
O8 O 0.08959 0.57012 0.02551 0.0
H9 H 0.99473 0.48177 0.95824 0.0
H10 H 0.99439 0.47711 0.08696 0.0
N11 N 0.02826 0.54005 0.06851 0.0
N12 N 0.04472 0.56434 0.12449 0.0
C13 C 0.04799 0.54932 0.09802 0.0
C14 C 0.01136 0.5488 0.0774 0.0
C15 C 0.02168 0.56409 0.11172 0.0
C16 C 0.02313 0.56158 0.97064 0.0
O17 O 0.0382 0.57878 0.99876 0.0
H18 H 0.06554 0.54666 0.09853 0.0
H19 H 0.99393 0.54579 0.05861 0.0
O20 O 0.06464 0.52654 0.01693 0.0
H21 H 0.95676 0.42909 0.05953 0.0
H22 H 0.01368 0.57513 0.12514 0.0
Cu23 Cu 0.56514 0.02353 0.49712 0.0
N24 N 0.58413 0.0198 0.45388 0.0
N25 N 0.59581 0.99939 0.40944 0.0
C26 C 0.57785 0.99643 0.43935 0.0
C27 C 0.61383 0.02579 0.40465 0.0
C28 C 0.60661 0.03831 0.43212 0.0
O29 O 0.52734 0.99217 0.49785 0.0
C30 C 0.60879 0.05111 0.54982 0.0
O31 O 0.61762 0.06655 0.51669 0.0
H32 H 0.56011 0.97769 0.45027 0.0
H33 H 0.61713 0.05939 0.43607 0.0
N34 N 0.5629 0.05357 0.49132 0.0
N35 N 0.55904 0.08665 0.51251 0.0
C36 C 0.55735 0.06389 0.52312 0.0
C37 C 0.56807 0.07026 0.45908 0.0
C38 C 0.56539 0.09063 0.47205 0.0
C39 C 0.51109 0.99148 0.46963 0.0
O40 O 0.52033 0.012 0.44426 0.0
H41 H 0.55218 0.05475 0.5536 0.0
H42 H 0.57373 0.06797 0.42859 0.0
O43 O 0.58572 0.02878 0.5481 0.0
H44 H 0.63128 0.03539 0.38324 0.0
H45 H 0.5684 0.10729 0.45348 0.0
Cu46 Cu 0.57961 0.52703 0.01898 0.0
N47 N 0.57564 0.49394 0.02262 0.0
N48 N 0.56344 0.45378 0.00257 0.0
C49 C 0.56257 0.47553 0.9939 0.0
C50 C 0.57785 0.45873 0.03804 0.0
C51 C 0.58519 0.4835 0.05055 0.0
O52 O 0.59854 0.54304 0.96691 0.0
C53 C 0.53069 0.5117 0.05773 0.0
O54 O 0.54381 0.50548 0.08502 0.0
H55 H 0.55324 0.47839 0.96653 0.0
H56 H 0.59675 0.49315 0.07792 0.0
N57 N 0.60025 0.54921 0.06232 0.0
N58 N 0.61256 0.57953 0.11023 0.0
C59 C 0.59538 0.56688 0.07842 0.0
C60 C 0.6215 0.55091 0.0845 0.0
C61 C 0.62921 0.56967 0.11394 0.0
C62 C 0.62427 0.55021 0.96472 0.0
O63 O 0.6364 0.5476 0.99763 0.0
H64 H 0.57905 0.56998 0.06752 0.0
H65 H 0.63089 0.53948 0.0796 0.0
O66 O 0.54232 0.5213 0.02291 0.0
H67 H 0.58257 0.44535 0.05383 0.0
H68 H 0.64606 0.57581 0.13588 0.0
Cu69 Cu 0.05632 0.50122 0.53707 0.0
N70 N 0.06121 0.49754 0.48181 0.0
N71 N 0.08154 0.49752 0.42356 0.0
C72 C 0.0814 0.49512 0.4649 0.0
C73 C 0.06018 0.50082 0.41405 0.0
C74 C 0.04763 0.50075 0.45007 0.0
O75 O 0.09083 0.51202 0.56752 0.0
C76 C 0.03072 0.45179 0.58022 0.0
O77 O 0.05651 0.45692 0.58088 0.0
H78 H 0.09647 0.49289 0.48257 0.0
H79 H 0.03054 0.50392 0.45304 0.0
N80 N 0.04573 0.52575 0.54108 0.0
N81 N 0.02188 0.54377 0.56081 0.0
C82 C 0.0275 0.52474 0.56852 0.0
C83 C 0.05183 0.54608 0.51505 0.0
C84 C 0.03741 0.55744 0.5274 0.0
C85 C 0.11607 0.53097 0.56054 0.0
O86 O 0.13618 0.53288 0.58406 0.0
H87 H 0.0178 0.50972 0.59279 0.0
H88 H 0.0654 0.55192 0.48844 0.0
O89 O 0.02591 0.46787 0.56109 0.0
H90 H 0.05446 0.50362 0.38331 0.0
H91 H 0.03842 0.57446 0.51295 0.0
Cu92 Cu 0.49574 0.98536 0.00639 0.0
N93 N 0.47422 0.98893 0.9655 0.0
N94 N 0.46215 0.00974 0.9195 0.0
C95 C 0.47895 0.01237 0.95138 0.0
C96 C 0.44615 0.98346 0.91339 0.0
C97 C 0.45363 0.97067 0.94184 0.0
O98 O 0.5326 0.01818 0.00444 0.0
C99 C 0.45335 0.95316 0.06054 0.0
O100 O 0.44495 0.93946 0.02688 0.0
H101 H 0.49569 0.03105 0.96282 0.0
H102 H 0.44533 0.94968 0.94415 0.0
N103 N 0.50115 0.95779 0.99733 0.0
N104 N 0.50936 0.92619 0.01507 0.0
C105 C 0.50701 0.94605 0.02812 0.0
C106 C 0.50006 0.94519 0.96315 0.0
C107 C 0.50542 0.92571 0.97404 0.0
C108 C 0.54359 0.02415 0.96865 0.0
O109 O 0.53036 0.00772 0.93879 0.0
H110 H 0.50994 0.95234 0.05958 0.0
H111 H 0.49572 0.94981 0.93265 0.0
O112 O 0.47582 0.97609 0.05889 0.0
H113 H 0.43058 0.97416 0.88949 0.0
H114 H 0.50618 0.91219 0.95359 0.0
Cu115 Cu 0.50766 0.49568 0.51707 0.0
N116 N 0.51536 0.52951 0.52605 0.0
N117 N 0.53266 0.57206 0.51019 0.0
C118 C 0.53159 0.54989 0.50012 0.0
C119 C 0.51613 0.56533 0.54375 0.0
C120 C 0.50561 0.53897 0.55375 0.0
O121 O 0.4879 0.48543 0.46466 0.0
C122 C 0.55545 0.50436 0.554 0.0
O123 O 0.5421 0.5069 0.58449 0.0
H124 H 0.5413 0.54803 0.47304 0.0
H125 H 0.49124 0.52743 0.57855 0.0
N126 N 0.48526 0.47069 0.55802 0.0
N127 N 0.47077 0.4369 0.6031 0.0
C128 C 0.4896 0.45204 0.57361 0.0
C129 C 0.46273 0.46712 0.57832 0.0
C130 C 0.45372 0.4462 0.60622 0.0
C131 C 0.46615 0.48695 0.46248 0.0
O132 O 0.45865 0.49395 0.4953 0.0
H133 H 0.50648 0.44977 0.5638 0.0
H134 H 0.45374 0.47908 0.57377 0.0
O135 O 0.54412 0.49905 0.51855 0.0
H136 H 0.51161 0.57836 0.55937 0.0
H137 H 0.43661 0.43901 0.62801 0.0
H138 H 0.37849 0.50931 0.25955 0.0
N139 N 0.36004 0.47142 0.20148 0.0
H140 H 0.40424 0.51182 0.32232 0.0
H141 H 0.36979 0.43532 0.23201 0.0
H142 H 0.39538 0.4376 0.29499 0.0
H143 H 0.36147 0.44565 0.13746 0.0
H144 H 0.40202 0.45951 0.09266 0.0
H145 H 0.4059 0.52186 0.19323 0.0
H146 H 0.44612 0.53583 0.14845 0.0
H147 H 0.36233 0.51806 0.18396 0.0
H148 H 0.30654 0.43564 0.21723 0.0
H149 H 0.32261 0.52378 0.18042 0.0
H150 H 0.26675 0.4414 0.21582 0.0
H151 H 0.21233 0.53493 0.2419 0.0
H152 H 0.18953 0.53786 0.30301 0.0
H153 H 0.12697 0.4543 0.29758 0.0
H154 H 0.15101 0.45134 0.23785 0.0
H155 H 0.14827 0.46337 0.15081 0.0
H156 H 0.1281 0.48054 0.10197 0.0
H157 H 0.20091 0.55936 0.11544 0.0
H158 H 0.22046 0.54187 0.1656 0.0
H159 H 0.24734 0.52981 0.21688 0.0
H160 H 0.28839 0.52588 0.21861 0.0
H161 H 0.23796 0.4474 0.17023 0.0
N162 N 0.19367 0.49111 0.19628 0.0
H163 H 0.19684 0.45116 0.17086 0.0
C164 C 0.37197 0.47193 0.24125 0.0
C165 C 0.3817 0.49339 0.26734 0.0
C166 C 0.39653 0.49486 0.30309 0.0
C167 C 0.40217 0.47508 0.3132 0.0
C168 C 0.39184 0.45337 0.28757 0.0
C169 C 0.37692 0.45186 0.25198 0.0
C170 C 0.38055 0.48258 0.16871 0.0
C171 C 0.37945 0.46573 0.13877 0.0
C172 C 0.40257 0.4737 0.11315 0.0
C173 C 0.4272 0.49872 0.11722 0.0
C174 C 0.42736 0.51643 0.14473 0.0
C175 C 0.40428 0.50847 0.17025 0.0
C176 C 0.33739 0.47615 0.20023 0.0
C177 C 0.3416 0.50114 0.19064 0.0
C178 C 0.31873 0.50447 0.18899 0.0
C179 C 0.29124 0.48301 0.19739 0.0
C180 C 0.28738 0.45827 0.20804 0.0
C181 C 0.31014 0.45494 0.20923 0.0
C182 C 0.18349 0.49277 0.23563 0.0
C183 C 0.19431 0.51709 0.25465 0.0
C184 C 0.18089 0.51883 0.28918 0.0
C185 C 0.15603 0.49642 0.30462 0.0
C186 C 0.14611 0.47192 0.2866 0.0
C187 C 0.15977 0.47015 0.2525 0.0
C188 C 0.18574 0.50128 0.16172 0.0
C189 C 0.16014 0.48424 0.14242 0.0
C190 C 0.14869 0.49414 0.11452 0.0
C191 C 0.16268 0.52141 0.10519 0.0
C192 C 0.18929 0.53834 0.12267 0.0
C193 C 0.20067 0.52836 0.15095 0.0
C194 C 0.21888 0.49054 0.19429 0.0
C195 C 0.24511 0.51176 0.20681 0.0
C196 C 0.2687 0.50953 0.20742 0.0
C197 C 0.26659 0.48616 0.19505 0.0
C198 C 0.2404 0.46543 0.18106 0.0
C199 C 0.21688 0.46759 0.18094 0.0
H200 H 0.69854 0.09709 0.85934 0.0
N201 N 0.71213 0.13796 0.80927 0.0
H202 H 0.6601 0.0763 0.90928 0.0
H203 H 0.68479 0.16077 0.83853 0.0
H204 H 0.64629 0.14023 0.88913 0.0
H205 H 0.67162 0.14256 0.76978 0.0
H206 H 0.64572 0.11943 0.70841 0.0
H207 H 0.71822 0.10425 0.76603 0.0
H208 H 0.69186 0.08061 0.70458 0.0
H209 H 0.75883 0.15842 0.85334 0.0
H210 H 0.71926 0.17913 0.75819 0.0
H211 H 0.80142 0.20221 0.84595 0.0
H212 H 0.7622 0.22197 0.74839 0.0
H213 H 0.93447 0.32932 0.8284 0.0
H214 H 0.95047 0.35993 0.8854 0.0
H215 H 0.87875 0.3674 0.86801 0.0
H216 H 0.86356 0.33768 0.81039 0.0
H217 H 0.88763 0.35527 0.74146 0.0
H218 H 0.91995 0.38617 0.68841 0.0
H219 H 0.95538 0.33796 0.67697 0.0
H220 H 0.92418 0.30815 0.73188 0.0
H221 H 0.88371 0.26877 0.79629 0.0
H222 H 0.83951 0.22617 0.80297 0.0
H223 H 0.79418 0.26416 0.77065 0.0
N224 N 0.89097 0.31559 0.77916 0.0
H225 H 0.83894 0.30628 0.76084 0.0
C226 C 0.69426 0.1302 0.84497 0.0
C227 C 0.68776 0.10701 0.86667 0.0
C228 C 0.66583 0.09521 0.89525 0.0
C229 C 0.64982 0.10638 0.90265 0.0
C230 C 0.65791 0.1309 0.88346 0.0
C231 C 0.67996 0.14272 0.85473 0.0
C232 C 0.69728 0.12546 0.77211 0.0
C233 C 0.67638 0.12926 0.75572 0.0
C234 C 0.66148 0.11595 0.72079 0.0
C235 C 0.66673 0.09816 0.70212 0.0
C236 C 0.68727 0.09403 0.71878 0.0
C237 C 0.70248 0.10767 0.75344 0.0
C238 C 0.73579 0.16502 0.80618 0.0
C239 C 0.75932 0.17239 0.83082 0.0
C240 C 0.78386 0.19739 0.82602 0.0
C241 C 0.78577 0.21568 0.79575 0.0
C242 C 0.76173 0.20864 0.77211 0.0
C243 C 0.73695 0.18377 0.77754 0.0
C244 C 0.8979 0.33119 0.81523 0.0
C245 C 0.9221 0.33737 0.83731 0.0
C246 C 0.93112 0.35476 0.86983 0.0
C247 C 0.91604 0.36631 0.88079 0.0
C248 C 0.89111 0.35922 0.8597 0.0
C249 C 0.88222 0.34197 0.827 0.0
C250 C 0.90394 0.32967 0.74116 0.0
C251 C 0.90203 0.35113 0.72706 0.0
C252 C 0.92052 0.36877 0.69663 0.0
C253 C 0.94093 0.36503 0.67942 0.0
C254 C 0.94066 0.34199 0.69068 0.0
C255 C 0.92257 0.32468 0.72155 0.0
C256 C 0.86457 0.29063 0.77869 0.0
C257 C 0.86418 0.2677 0.79008 0.0
C258 C 0.83876 0.24343 0.79453 0.0
C259 C 0.81292 0.24156 0.78846 0.0
C260 C 0.81347 0.2646 0.77561 0.0
C261 C 0.83908 0.28886 0.77036 0.0
H262 H 0.5504 0.85844 0.27522 0.0
N263 N 0.59376 0.86755 0.2256 0.0
H264 H 0.55147 0.88942 0.32367 0.0
H265 H 0.63848 0.9125 0.24958 0.0
H266 H 0.63962 0.9438 0.29773 0.0
H267 H 0.61747 0.90185 0.1631 0.0
H268 H 0.5937 0.91055 0.1072 0.0
H269 H 0.53774 0.83673 0.20747 0.0
H270 H 0.51386 0.84463 0.15085 0.0
H271 H 0.55264 0.82145 0.26381 0.0
H272 H 0.63442 0.85982 0.20711 0.0
H273 H 0.55356 0.78143 0.2762 0.0
H274 H 0.63607 0.82024 0.22052 0.0
H275 H 0.55668 0.67331 0.30463 0.0
H276 H 0.53868 0.64243 0.36396 0.0
H277 H 0.62075 0.68548 0.4199 0.0
H278 H 0.63887 0.71558 0.35951 0.0
H279 H 0.65414 0.70585 0.27709 0.0
H280 H 0.65505 0.67442 0.23166 0.0
H281 H 0.57213 0.65029 0.18814 0.0
H282 H 0.57146 0.68201 0.23349 0.0
H283 H 0.58303 0.72893 0.3355 0.0
H284 H 0.57677 0.765 0.31816 0.0
H285 H 0.61665 0.77591 0.20059 0.0
N286 N 0.61167 0.71221 0.29028 0.0
H287 H 0.62393 0.74028 0.21827 0.0
C288 C 0.59458 0.88301 0.25923 0.0
C289 C 0.57017 0.87657 0.28092 0.0
C290 C 0.57076 0.89436 0.30849 0.0
C291 C 0.59564 0.91898 0.31442 0.0
C292 C 0.62017 0.92498 0.29366 0.0
C293 C 0.61962 0.90709 0.26649 0.0
C294 C 0.57947 0.86878 0.18943 0.0
C295 C 0.5949 0.88898 0.16003 0.0
C296 C 0.58129 0.89386 0.12812 0.0
C297 C 0.55185 0.87853 0.12499 0.0
C298 C 0.53651 0.85716 0.15301 0.0
C299 C 0.55018 0.85244 0.1852 0.0
C300 C 0.59355 0.84369 0.23437 0.0
C301 C 0.57084 0.82134 0.25407 0.0
C302 C 0.57147 0.79843 0.26134 0.0
C303 C 0.59482 0.79744 0.24918 0.0
C304 C 0.61747 0.81996 0.22958 0.0
C305 C 0.61674 0.84273 0.22222 0.0
C306 C 0.59931 0.69646 0.32746 0.0
C307 C 0.57073 0.67616 0.32974 0.0
C308 C 0.56043 0.65868 0.36382 0.0
C309 C 0.57846 0.66123 0.39618 0.0
C310 C 0.60654 0.68262 0.39496 0.0
C311 C 0.61686 0.69994 0.36076 0.0
C312 C 0.61285 0.69631 0.25875 0.0
C313 C 0.63639 0.69411 0.25721 0.0
C314 C 0.63675 0.676 0.2316 0.0
C315 C 0.61346 0.65964 0.20693 0.0
C316 C 0.59032 0.66263 0.20696 0.0
C317 C 0.5899 0.6807 0.23285 0.0
C318 C 0.60309 0.73051 0.27765 0.0
C319 C 0.5898 0.73826 0.30533 0.0
C320 C 0.5862 0.75921 0.29545 0.0
C321 C 0.59615 0.77346 0.25795 0.0
C322 C 0.60892 0.76558 0.22996 0.0
C323 C 0.61266 0.74472 0.23987 0.0
H324 H 0.9607 0.62178 0.77708 0.0
N325 N 0.91208 0.58383 0.74761 0.0
H326 H 0.98731 0.6178 0.83369 0.0
H327 H 0.89079 0.54298 0.80458 0.0
H328 H 0.91717 0.53887 0.86192 0.0
H329 H 0.90267 0.53462 0.7366 0.0
H330 H 0.92645 0.52344 0.68669 0.0
H331 H 0.94294 0.61363 0.68386 0.0
H332 H 0.96687 0.6025 0.63359 0.0
H333 H 0.89946 0.62036 0.75326 0.0
H334 H 0.86169 0.53679 0.73809 0.0
H335 H 0.85377 0.61532 0.74324 0.0
H336 H 0.816 0.5316 0.72621 0.0
H337 H 0.73578 0.61056 0.74671 0.0
H338 H 0.71027 0.60899 0.80853 0.0
H339 H 0.66237 0.52371 0.80735 0.0
H340 H 0.6878 0.52536 0.74601 0.0
H341 H 0.70069 0.51871 0.67943 0.0
H342 H 0.66149 0.49892 0.63066 0.0
H343 H 0.67579 0.57615 0.60203 0.0
H344 H 0.7146 0.59561 0.65093 0.0
H345 H 0.77894 0.60615 0.67654 0.0
H346 H 0.82287 0.6079 0.68803 0.0
H347 H 0.77734 0.53273 0.75445 0.0
N348 N 0.72821 0.56997 0.7043 0.0
H349 H 0.73336 0.53075 0.74117 0.0
C350 C 0.92379 0.58284 0.78676 0.0
C351 C 0.95074 0.60398 0.7964 0.0
C352 C 0.96592 0.60164 0.82872 0.0
C353 C 0.95434 0.57803 0.85237 0.0
C354 C 0.92669 0.55726 0.84407 0.0
C355 C 0.91148 0.55965 0.81159 0.0
C356 C 0.92107 0.57507 0.71387 0.0
C357 C 0.916 0.54937 0.7136 0.0
C358 C 0.92974 0.54302 0.68524 0.0
C359 C 0.94851 0.56214 0.65644 0.0
C360 C 0.95224 0.58731 0.65516 0.0
C361 C 0.93863 0.59369 0.68374 0.0
C362 C 0.88415 0.57915 0.74606 0.0
C363 C 0.88121 0.60088 0.74796 0.0
C364 C 0.85509 0.59796 0.74167 0.0
C365 C 0.83116 0.57312 0.73292 0.0
C366 C 0.83389 0.55103 0.73282 0.0
C367 C 0.86012 0.55399 0.73947 0.0
C368 C 0.71387 0.56821 0.74179 0.0
C369 C 0.71992 0.59157 0.76006 0.0
C370 C 0.70535 0.59064 0.7952 0.0
C371 C 0.68435 0.56621 0.81259 0.0
C372 C 0.67828 0.54279 0.79429 0.0
C373 C 0.69298 0.54374 0.75935 0.0
C374 C 0.71036 0.55867 0.66905 0.0
C375 C 0.69592 0.53145 0.66174 0.0
C376 C 0.67356 0.52017 0.63383 0.0
C377 C 0.66559 0.53598 0.61242 0.0
C378 C 0.68168 0.56348 0.61735 0.0
C379 C 0.7038 0.57464 0.64542 0.0
C380 C 0.75294 0.56855 0.70813 0.0
C381 C 0.77846 0.5899 0.69304 0.0
C382 C 0.80358 0.59098 0.70017 0.0
C383 C 0.80386 0.57072 0.723 0.0
C384 C 0.77801 0.54869 0.73674 0.0
C385 C 0.75276 0.54757 0.72928 0.0
H386 H 0.2078 0.65947 0.37685 0.0
N387 N 0.17448 0.67664 0.34625 0.0
H388 H 0.1945 0.62477 0.42977 0.0
H389 H 0.12747 0.65129 0.39001 0.0
H390 H 0.11292 0.61503 0.44008 0.0
H391 H 0.13147 0.67733 0.31379 0.0
H392 H 0.10115 0.65039 0.25808 0.0
H393 H 0.18526 0.64764 0.29558 0.0
H394 H 0.1564 0.62216 0.23753 0.0
H395 H 0.22455 0.68886 0.31218 0.0
H396 H 0.18368 0.72126 0.37614 0.0
H397 H 0.26723 0.73299 0.30522 0.0
H398 H 0.22639 0.7653 0.37054 0.0
H399 H 0.39329 0.85843 0.33574 0.0
H400 H 0.43041 0.88623 0.38398 0.0
H401 H 0.37789 0.91149 0.43334 0.0
H402 H 0.34127 0.88438 0.38364 0.0
H403 H 0.35396 0.90427 0.28813 0.0
H404 H 0.38066 0.92804 0.22577 0.0
H405 H 0.39544 0.86558 0.20439 0.0
H406 H 0.36857 0.84188 0.26674 0.0
H407 H 0.3473 0.81474 0.33441 0.0
H408 H 0.30635 0.76937 0.34164 0.0
H409 H 0.25155 0.79841 0.31803 0.0
N410 N 0.34608 0.85962 0.3211 0.0
H411 H 0.29249 0.8435 0.31204 0.0
C412 C 0.16872 0.65824 0.37997 0.0
C413 C 0.18734 0.65027 0.39122 0.0
C414 C 0.1794 0.62995 0.4209 0.0
C415 C 0.15231 0.61655 0.43867 0.0
C416 C 0.13398 0.62493 0.42746 0.0
C417 C 0.14223 0.64565 0.39881 0.0
C418 C 0.1607 0.66475 0.3084 0.0
C419 C 0.13722 0.66566 0.29669 0.0
C420 C 0.11994 0.65021 0.26487 0.0
C421 C 0.12601 0.63369 0.24368 0.0
C422 C 0.15058 0.634 0.25397 0.0
C423 C 0.16755 0.64908 0.28649 0.0
C424 C 0.20078 0.70183 0.34443 0.0
C425 C 0.22481 0.70541 0.32506 0.0
C426 C 0.24931 0.7307 0.32131 0.0
C427 C 0.25024 0.75287 0.33685 0.0
C428 C 0.22634 0.74889 0.35734 0.0
C429 C 0.20196 0.7237 0.36095 0.0
C430 C 0.36466 0.86968 0.35583 0.0
C431 C 0.38941 0.86929 0.35778 0.0
C432 C 0.41057 0.88507 0.38567 0.0
C433 C 0.40714 0.90119 0.41239 0.0
C434 C 0.38122 0.89946 0.41293 0.0
C435 C 0.36024 0.88391 0.38478 0.0
C436 C 0.359 0.87124 0.2818 0.0
C437 C 0.36267 0.89559 0.26962 0.0
C438 C 0.37823 0.90929 0.23441 0.0
C439 C 0.3905 0.89886 0.21061 0.0
C440 C 0.38624 0.8741 0.22224 0.0
C441 C 0.37077 0.86046 0.25768 0.0
C442 C 0.32282 0.83251 0.32304 0.0
C443 C 0.32646 0.81126 0.33073 0.0
C444 C 0.303 0.7853 0.33467 0.0
C445 C 0.27553 0.78017 0.33096 0.0
C446 C 0.27225 0.80156 0.32208 0.0
C447 C 0.2956 0.82735 0.31827 0.0
H448 H 0.46264 0.12516 0.65614 0.0
N449 N 0.48777 0.15283 0.7222 0.0
H450 H 0.48395 0.11422 0.6017 0.0
H451 H 0.54413 0.17624 0.70929 0.0
H452 H 0.56591 0.16609 0.65414 0.0
H453 H 0.5257 0.15593 0.77861 0.0
H454 H 0.51788 0.12157 0.82951 0.0
H455 H 0.43975 0.10769 0.73898 0.0
H456 H 0.43192 0.0729 0.78941 0.0
H457 H 0.44991 0.16484 0.70315 0.0
H458 H 0.53036 0.19588 0.76119 0.0
H459 H 0.45018 0.20436 0.72084 0.0
H460 H 0.53042 0.23505 0.7807 0.0
H461 H 0.4423 0.32104 0.79477 0.0
H462 H 0.43782 0.35003 0.74499 0.0
H463 H 0.51037 0.36247 0.67945 0.0
H464 H 0.51553 0.3346 0.73066 0.0
H465 H 0.53742 0.35315 0.80216 0.0
H466 H 0.55784 0.3856 0.85658 0.0
H467 H 0.48223 0.33844 0.92872 0.0
H468 H 0.46189 0.3061 0.87408 0.0
H469 H 0.44188 0.26094 0.7987 0.0
H470 H 0.44435 0.22308 0.77968 0.0
H471 H 0.53354 0.27511 0.75731 0.0
N472 N 0.48302 0.31127 0.79956 0.0
H473 H 0.53088 0.31271 0.77805 0.0
C474 C 0.50173 0.15142 0.68665 0.0
C475 C 0.48526 0.13462 0.65525 0.0
C476 C 0.4975 0.12841 0.62422 0.0
C477 C 0.52658 0.13892 0.62397 0.0
C478 C 0.54336 0.15717 0.65405 0.0
C479 C 0.531 0.16325 0.68533 0.0
C480 C 0.48307 0.13451 0.75552 0.0
C481 C 0.50497 0.13827 0.78152 0.0
C482 C 0.50053 0.11857 0.81046 0.0
C483 C 0.47427 0.0947 0.8134 0.0
C484 C 0.45233 0.09116 0.78773 0.0
C485 C 0.45669 0.11098 0.75922 0.0
C486 C 0.48987 0.17725 0.73109 0.0
C487 C 0.46764 0.18025 0.71975 0.0
C488 C 0.46776 0.20277 0.7303 0.0
C489 C 0.49012 0.22283 0.75287 0.0
C490 C 0.51289 0.22012 0.7632 0.0
C491 C 0.51281 0.19756 0.75231 0.0
C492 C 0.47892 0.32532 0.76625 0.0
C493 C 0.45687 0.32964 0.76916 0.0
C494 C 0.45426 0.34608 0.74051 0.0
C495 C 0.4735 0.35831 0.70782 0.0
C496 C 0.49522 0.35339 0.7043 0.0
C497 C 0.49804 0.33722 0.73338 0.0
C498 C 0.49808 0.32713 0.83421 0.0
C499 C 0.52562 0.34931 0.83024 0.0
C500 C 0.53722 0.36791 0.86127 0.0
C501 C 0.52139 0.3647 0.89648 0.0
C502 C 0.4947 0.34156 0.9016 0.0
C503 C 0.48319 0.32298 0.8707 0.0
C504 C 0.48603 0.28959 0.78964 0.0
C505 C 0.46196 0.26408 0.78991 0.0
C506 C 0.46343 0.24252 0.77862 0.0
C507 C 0.4891 0.24597 0.76632 0.0
C508 C 0.51344 0.27162 0.76678 0.0
C509 C 0.51194 0.29323 0.77841 0.0
C510 C 0.11478 0.52482 0.02505 0.0
C511 C 0.11161 0.54507 0.03905 0.0
C512 C 0.13283 0.51849 0.04493 0.0
C513 C 0.14807 0.53186 0.08011 0.0
H514 H 0.10242 0.5131 0.9994 0.0
H515 H 0.13398 0.50226 0.03363 0.0
S516 S 0.14723 0.58667 0.12909 0.0
N517 N 0.12597 0.57916 0.08939 0.0
N518 N 0.15899 0.56664 0.12766 0.0
C519 C 0.14591 0.55288 0.09347 0.0
C520 C 0.12789 0.55961 0.07276 0.0
C521 C 0.63981 0.08956 0.59312 0.0
C522 C 0.6234 0.06191 0.58919 0.0
C523 C 0.65353 0.10096 0.62981 0.0
C524 C 0.65181 0.08521 0.66391 0.0
H525 H 0.64176 0.10266 0.56782 0.0
H526 H 0.66579 0.12233 0.63143 0.0
S527 S 0.61166 0.01195 0.67014 0.0
N528 N 0.606 0.01904 0.62294 0.0
N529 N 0.63243 0.04064 0.69198 0.0
C530 C 0.63568 0.05757 0.66059 0.0
C531 C 0.62125 0.04587 0.62326 0.0
C532 C 0.60683 0.61753 0.11691 0.0
C533 C 0.61274 0.59928 0.13489 0.0
C534 C 0.6069 0.6369 0.14032 0.0
C535 C 0.61298 0.63879 0.18257 0.0
H536 H 0.60251 0.61708 0.08434 0.0
H537 H 0.60258 0.65074 0.12515 0.0
S538 S 0.62666 0.59401 0.24541 0.0
N539 N 0.62258 0.58314 0.19827 0.0
N540 N 0.62302 0.61962 0.24205 0.0
C541 C 0.61831 0.62034 0.2011 0.0
C542 C 0.61814 0.60059 0.17734 0.0
C543 C 1.00017 0.54319 0.62642 0.0
C544 C 1.00302 0.54814 0.58368 0.0
C545 C 0.98212 0.54734 0.64948 0.0
C546 C 0.96624 0.55666 0.63071 0.0
H547 H 0.0124 0.53651 0.64231 0.0
H548 H 0.98104 0.54377 0.68244 0.0
S549 S 0.964 0.57041 0.51942 0.0
N550 N 0.98687 0.56116 0.52314 0.0
N551 N 0.95328 0.5694 0.5668 0.0
C552 C 0.96848 0.5613 0.58798 0.0
C553 C 0.98677 0.55694 0.56439 0.0
C554 C 0.41569 0.91365 0.0998 0.0
C555 C 0.43779 0.94048 0.0996 0.0
C556 C 0.4008 0.90043 0.13578 0.0
C557 C 0.40713 0.91345 0.17318 0.0
H558 H 0.40979 0.90252 0.07191 0.0
H559 H 0.38392 0.87986 0.13417 0.0
S560 S 0.46347 0.98327 0.19026 0.0
N561 N 0.4656 0.97941 0.14071 0.0
N562 N 0.43745 0.95447 0.20844 0.0
C563 C 0.42917 0.94022 0.17371 0.0
C564 C 0.44455 0.95372 0.13698 0.0
C565 C 0.49633 0.42106 0.6441 0.0
C566 C 0.47087 0.41677 0.62839 0.0
C567 C 0.49697 0.40195 0.66926 0.0
C568 C 0.47219 0.37762 0.67931 0.0
H569 H 0.51583 0.43962 0.63757 0.0
H570 H 0.517 0.40654 0.68165 0.0
S571 S 0.4005 0.35582 0.64214 0.0
N572 N 0.42058 0.38609 0.62249 0.0
N573 N 0.42168 0.34969 0.66885 0.0
C574 C 0.44666 0.37285 0.66278 0.0
C575 C 0.44602 0.39253 0.63757 0.0
C576 C 0.60532 0.984 0.34568 0.0
C577 C 0.59566 0.97893 0.38663 0.0
C578 C 0.60541 0.96458 0.3228 0.0
C579 C 0.59567 0.9392 0.3398 0.0
H580 H 0.61253 1.00305 0.3309 0.0
H581 H 0.61278 0.96935 0.29127 0.0
S582 S 0.57005 0.91607 0.44635 0.0
N583 N 0.57763 0.94682 0.4439 0.0
N584 N 0.57714 0.91021 0.40034 0.0
C585 C 0.58612 0.9338 0.38068 0.0
C586 C 0.58627 0.95367 0.40422 0.0
C587 C 0.62502 0.54648 0.88839 0.0
C588 C 0.63951 0.55773 0.92502 0.0
C589 C 0.63965 0.54983 0.8518 0.0
C590 C 0.66923 0.56492 0.85044 0.0
H591 H 0.6023 0.53395 0.88841 0.0
H592 H 0.62777 0.54013 0.82454 0.0
S593 S 0.71688 0.60017 0.93713 0.0
N594 N 0.68501 0.58579 0.95706 0.0
N595 N 0.71238 0.5922 0.88832 0.0
C596 C 0.68387 0.57726 0.88636 0.0
C597 C 0.66904 0.57362 0.92364 0.0
C598 C 0.11736 0.57068 0.5323 0.0
C599 C 0.12349 0.55108 0.52757 0.0
C600 C 0.12682 0.59172 0.50352 0.0
C601 C 0.14285 0.59398 0.46888 0.0
H602 H 0.10571 0.57008 0.55897 0.0
H603 H 0.1219 0.60658 0.50897 0.0
S604 S 0.16555 0.5479 0.44405 0.0
N605 N 0.14799 0.53586 0.48768 0.0
N606 N 0.1642 0.57421 0.43187 0.0
C607 C 0.1492 0.57437 0.46409 0.0
C608 C 0.14003 0.5533 0.49395 0.0
C609 C 0.45802 0.02732 0.85172 0.0
C610 C 0.46374 0.03078 0.89409 0.0
C611 C 0.46105 0.04797 0.82601 0.0
C612 C 0.47016 0.07294 0.84158 0.0
H613 H 0.45185 0.00874 0.83803 0.0
H614 H 0.45689 0.04455 0.79348 0.0
S615 S 0.48531 0.0918 0.95048 0.0
N616 N 0.47676 0.06075 0.95079 0.0
N617 N 0.48332 0.0997 0.90204 0.0
C618 C 0.47543 0.07661 0.88384 0.0
C619 C 0.47201 0.05552 0.91018 0.0
C620 C 0.42628 0.48491 0.42421 0.0
C621 C 0.44993 0.48257 0.42384 0.0
C622 C 0.41101 0.48232 0.38846 0.0
C623 C 0.41854 0.4771 0.3507 0.0
H624 H 0.41947 0.48903 0.45237 0.0
H625 H 0.39305 0.48435 0.39045 0.0
S626 S 0.47869 0.46938 0.33228 0.0
N627 N 0.48012 0.47474 0.38197 0.0
N628 N 0.45132 0.46988 0.31463 0.0
C629 C 0.44192 0.47442 0.34968 0.0
C630 C 0.45763 0.47717 0.38622 0.0
C631 C 0.94971 0.40242 0.97939 0.0
C632 C 0.95355 0.4274 0.97149 0.0
C633 C 0.93695 0.38251 0.95033 0.0
C634 C 0.92731 0.38679 0.91255 0.0
H635 H 0.95755 0.39858 0.00756 0.0
H636 H 0.93495 0.36374 0.95725 0.0
S637 S 0.93072 0.44825 0.87835 0.0
N638 N 0.94511 0.45477 0.92443 0.0
N639 N 0.92179 0.4177 0.86943 0.0
C640 C 0.93021 0.41142 0.90492 0.0
C641 C 0.94319 0.43163 0.93446 0.0
C642 C 0.99054 0.54808 0.91027 0.0
C643 C 1.00704 0.56712 0.93961 0.0
C644 C 0.97335 0.55163 0.88272 0.0
C645 C 0.9719 0.57438 0.88321 0.0
H646 H 0.99065 0.53008 0.90867 0.0
H647 H 0.96133 0.53653 0.86049 0.0
S648 S 0.01006 0.62995 0.95435 0.0
N649 N 0.02041 0.60958 0.96753 0.0
N650 N 0.9879 0.616 0.91599 0.0
C651 C 0.98824 0.59361 0.91223 0.0
C652 C 1.00583 0.59005 0.94031 0.0
C653 C 0.46266 0.97068 0.44228 0.0
C654 C 0.4831 0.96761 0.46221 0.0
C655 C 0.43754 0.94887 0.4285 0.0
C656 C 0.43184 0.92301 0.43373 0.0
H657 H 0.46648 0.99024 0.43597 0.0
H658 H 0.42314 0.95251 0.41162 0.0
S659 S 0.47752 0.90402 0.48691 0.0
N660 N 0.49534 0.93661 0.48889 0.0
N661 N 0.4479 0.89539 0.46283 0.0
C662 C 0.45153 0.91949 0.45529 0.0
C663 C 0.47715 0.94183 0.46972 0.0
C664 C 0.56809 0.41942 0.97021 0.0
C665 C 0.55214 0.43064 0.97803 0.0
C666 C 0.55803 0.39794 0.94404 0.0
C667 C 0.53143 0.38661 0.92556 0.0
H668 H 0.58879 0.42782 0.98351 0.0
H669 H 0.57115 0.39017 0.93813 0.0
S670 S 0.48115 0.40815 0.9375 0.0
N671 N 0.50823 0.42838 0.96621 0.0
N672 N 0.4893 0.38812 0.91724 0.0
C673 C 0.5151 0.39736 0.93387 0.0
C674 C 0.52546 0.41934 0.96003 0.0
C675 C 0.1091 0.47964 0.39845 0.0
C676 C 0.10169 0.49863 0.39557 0.0
C677 C 0.12735 0.4795 0.36964 0.0
C678 C 0.13916 0.49861 0.33729 0.0
H679 H 0.10004 0.46435 0.42241 0.0
H680 H 0.132 0.46413 0.37241 0.0
S681 S 0.12878 0.55452 0.31982 0.0
N682 N 0.10933 0.53837 0.3606 0.0
N683 N 0.14323 0.53807 0.30597 0.0
C684 C 0.13276 0.51841 0.33533 0.0
C685 C 0.11409 0.5184 0.36453 0.0
C686 C 0.59503 0.05644 0.97873 0.0
C687 C 0.56984 0.04944 0.95865 0.0
C688 C 0.62107 0.07647 0.96214 0.0
C689 C 0.62266 0.09028 0.92526 0.0
H690 H 0.59475 0.04512 0.00558 0.0
H691 H 0.64014 0.0802 0.97704 0.0
S692 S 0.562 0.08125 0.8643 0.0
N693 N 0.54766 0.05938 0.90273 0.0
N694 N 0.59627 0.09685 0.87151 0.0
C695 C 0.59734 0.08474 0.90691 0.0
C696 C 0.571 0.0643 0.92361 0.0
C697 C 0.53159 0.60934 0.47737 0.0
C698 C 0.54598 0.59647 0.48633 0.0
C699 C 0.54258 0.63083 0.44909 0.0
C700 C 0.56849 0.64037 0.42921 0.0
H701 H 0.51113 0.60196 0.49084 0.0
H702 H 0.53046 0.63971 0.44208 0.0
S703 S 0.61518 0.61454 0.44458 0.0
N704 N 0.58818 0.59581 0.4754 0.0
N705 N 0.60862 0.63573 0.42178 0.0
C706 C 0.58355 0.62828 0.43929 0.0
C707 C 0.57235 0.60645 0.46794 0.0
C708 C 0.53824 0.11316 0.52561 0.0
C709 C 0.55428 0.1027 0.53913 0.0
C710 C 0.53039 0.12591 0.55279 0.0
C711 C 0.53854 0.1289 0.5944 0.0
H712 H 0.53066 0.11042 0.49429 0.0
H713 H 0.51722 0.13288 0.54139 0.0
S714 S 0.58329 0.10735 0.64373 0.0
N715 N 0.58027 0.09828 0.59563 0.0
N716 N 0.56504 0.12155 0.64698 0.0
C717 C 0.55581 0.11966 0.60768 0.0
C718 C 0.56375 0.1067 0.58001 0.0
C719 C 0.50129 0.51363 0.11173 0.0
C720 C 0.5047 0.51021 0.07016 0.0
C721 C 0.47657 0.51093 0.12595 0.0
C722 C 0.45402 0.50436 0.09933 0.0
H723 H 0.51782 0.51825 0.13371 0.0
H724 H 0.47473 0.5131 0.15847 0.0
S725 S 0.45252 0.49411 0.9874 0.0
N726 N 0.48387 0.50085 0.00208 0.0
N727 N 0.43685 0.49521 0.02917 0.0
C728 C 0.45722 0.50132 0.0575 0.0
C729 C 0.48275 0.50449 0.04279 0.0
C730 C 0.97956 0.41993 0.59737 0.0
C731 C 1.008 0.42873 0.60422 0.0
C732 C 0.95793 0.39905 0.62112 0.0
C733 C 0.96387 0.38616 0.6528 0.0
H734 H 0.9739 0.42932 0.57355 0.0
H735 H 0.9364 0.393 0.6147 0.0
S736 S 0.03492 0.40276 0.68527 0.0
N737 N 0.04084 0.42328 0.64606 0.0
N738 N 1.00048 0.38473 0.69107 0.0
C739 C 0.99223 0.39488 0.6601 0.0
C740 C 0.01418 0.41594 0.63577 0.0
C741 C 0.53689 0.90546 0.02724 0.0
C742 C 0.5164 0.91033 0.04026 0.0
C743 C 0.54734 0.89394 0.05422 0.0
C744 C 0.53746 0.88667 0.09502 0.0
H745 H 0.54593 0.91188 0.99675 0.0
H746 H 0.56392 0.89148 0.0435 0.0
S747 S 0.4816 0.89281 0.14237 0.0
N748 N 0.48464 0.90476 0.095 0.0
N749 N 0.50468 0.88383 0.14608 0.0
C750 C 0.51581 0.89013 0.10754 0.0
C751 C 0.50521 0.9018 0.08008 0.0
C752 C 0.58681 0.49748 0.59941 0.0
C753 C 0.58314 0.508 0.56237 0.0
C754 C 0.61362 0.50503 0.61352 0.0
C755 C 0.63789 0.52379 0.5915 0.0
H756 H 0.56882 0.48424 0.61867 0.0
H757 H 0.61538 0.49751 0.64339 0.0
S758 S 0.63947 0.55531 0.49067 0.0
N759 N 0.60568 0.53635 0.50212 0.0
N760 N 0.65637 0.55095 0.5289 0.0
C761 C 0.63443 0.53326 0.55312 0.0
C762 C 0.60696 0.52522 0.53843 0.0
C763 C 0.07278 0.60767 0.15666 0.0
C764 C 0.0648 0.58113 0.1546 0.0
C765 C 0.09309 0.62463 0.18472 0.0
C766 C 0.10598 0.61563 0.21224 0.0
H767 H 0.06359 0.6155 0.13589 0.0
H768 H 0.09878 0.64502 0.18475 0.0
S769 S 0.09123 0.54721 0.21992 0.0
N770 N 0.07088 0.54639 0.18224 0.0
N771 N 0.10833 0.57783 0.23615 0.0
C772 C 0.09802 0.58897 0.21044 0.0
C773 C 0.0776 0.57185 0.1814 0.0
loop_
_geom_bond_atom_site_label_1
_geom_bond_atom_site_label_2
_geom_bond_distance
_geom_bond_site_symmetry_2
_ccdc_geom_bond_type
Cu0 N1 1.999 . S
Cu0 O6 1.974 . S
Cu0 N11 1.985 1_655 S
Cu0 O20 1.959 1_655 S
N1 Cu0 1.999 . S
N1 C3 1.263 . S
N1 C5 1.389 . S
N2 C3 1.358 . S
N2 C4 1.400 . S
C3 N1 1.263 . S
C3 N2 1.358 . S
C3 H9 0.930 1_554 S
C4 N2 1.400 . S
C4 C5 1.351 . S
C4 H21 0.930 . S
C5 N1 1.389 . S
C5 C4 1.351 . S
C5 H10 0.930 . S
O6 Cu0 1.974 . S
O6 C16 1.282 1_554 S
C7 O8 1.261 . S
C7 O20 1.251 . S
O8 C7 1.261 . S
H9 C3 0.930 1_556 S
H10 C5 0.930 . S
N11 Cu0 1.985 1_455 S
N11 C13 1.335 . S
N11 C14 1.390 . S
N12 C13 1.345 . S
N12 C15 1.336 . S
C13 N11 1.335 . S
C13 N12 1.345 . S
C13 H18 0.930 . S
C14 N11 1.390 . S
C14 C15 1.346 . S
C14 H19 0.930 . S
C15 N12 1.336 . S
C15 C14 1.346 . S
C15 H22 0.929 . S
C16 O6 1.282 1_556 S
C16 O17 1.216 . S
O17 C16 1.216 . S
H18 C13 0.930 . S
H19 C14 0.930 . S
O20 Cu0 1.959 1_455 S
O20 C7 1.251 . S
H21 C4 0.930 . S
H22 C15 0.929 . S
Cu23 N24 1.999 . S
Cu23 O29 1.974 . S
Cu23 N34 1.985 1_565 S
Cu23 O43 1.959 1_565 S
N24 Cu23 1.999 . S
N24 C26 1.263 . S
N24 C28 1.389 . S
N25 C26 1.358 . S
N25 C27 1.400 . S
C26 N24 1.263 . S
C26 N25 1.358 . S
C26 H32 0.930 . S
C27 N25 1.400 . S
C27 C28 1.351 . S
C27 H44 0.930 . S
C28 N24 1.389 . S
C28 C27 1.351 . S
C28 H33 0.930 . S
O29 Cu23 1.974 . S
O29 C39 1.282 . S
C30 O31 1.261 . S
C30 O43 1.251 . S
O31 C30 1.261 . S
H32 C26 0.930 . S
H33 C28 0.930 . S
N34 Cu23 1.985 1_545 S
N34 C36 1.335 . S
N34 C37 1.390 . S
N35 C36 1.345 . S
N35 C38 1.336 . S
C36 N34 1.335 . S
C36 N35 1.345 . S
C36 H41 0.930 . S
C37 N34 1.390 . S
C37 C38 1.346 . S
C37 H42 0.930 . S
C38 N35 1.336 . S
C38 C37 1.346 . S
C38 H45 0.929 . S
C39 O29 1.282 . S
C39 O40 1.216 . S
O40 C39 1.216 . S
H41 C36 0.930 . S
H42 C37 0.930 . S
O43 Cu23 1.959 1_545 S
O43 C30 1.251 . S
H44 C27 0.930 . S
H45 C38 0.929 . S
Cu46 N47 1.999 . S
Cu46 O52 1.974 . S
Cu46 N57 1.985 1_556 S
Cu46 O66 1.959 1_556 S
N47 Cu46 1.999 . S
N47 C49 1.263 . S
N47 C51 1.389 . S
N48 C49 1.358 . S
N48 C50 1.400 . S
C49 N47 1.263 . S
C49 N48 1.358 . S
C49 H55 0.930 . S
C50 N48 1.400 . S
C50 C51 1.351 . S
C50 H67 0.930 . S
C51 N47 1.389 . S
C51 C50 1.351 . S
C51 H56 0.930 . S
O52 Cu46 1.974 . S
O52 C62 1.282 . S
C53 O54 1.261 . S
C53 O66 1.251 . S
O54 C53 1.261 . S
H55 C49 0.930 . S
H56 C51 0.930 . S
N57 Cu46 1.985 1_554 S
N57 C59 1.335 . S
N57 C60 1.390 . S
N58 C59 1.345 . S
N58 C61 1.336 . S
C59 N57 1.335 . S
C59 N58 1.345 . S
C59 H64 0.930 . S
C60 N57 1.390 . S
C60 C61 1.346 . S
C60 H65 0.930 . S
C61 N58 1.336 . S
C61 C60 1.346 . S
C61 H68 0.929 . S
C62 O52 1.282 . S
C62 O63 1.216 1_556 S
O63 C62 1.216 1_554 S
H64 C59 0.930 . S
H65 C60 0.930 . S
O66 Cu46 1.959 1_554 S
O66 C53 1.251 . S
H67 C50 0.930 . S
H68 C61 0.929 . S
Cu69 N70 1.999 . S
Cu69 O75 1.974 . S
Cu69 N80 1.985 . S
Cu69 O89 1.959 . S
N70 Cu69 1.999 . S
N70 C72 1.263 . S
N70 C74 1.389 . S
N71 C72 1.358 . S
N71 C73 1.400 . S
C72 N70 1.263 . S
C72 N71 1.358 . S
C72 H78 0.930 . S
C73 N71 1.400 . S
C73 C74 1.351 . S
C73 H90 0.930 . S
C74 N70 1.389 . S
C74 C73 1.351 . S
C74 H79 0.930 . S
O75 Cu69 1.974 . S
O75 C85 1.282 . S
C76 O77 1.261 . S
C76 O89 1.251 . S
O77 C76 1.261 . S
H78 C72 0.930 . S
H79 C74 0.930 . S
N80 Cu69 1.985 . S
N80 C82 1.335 . S
N80 C83 1.390 . S
N81 C82 1.345 . S
N81 C84 1.336 . S
C82 N80 1.335 . S
C82 N81 1.345 . S
C82 H87 0.930 1_455 S
C83 N80 1.390 . S
C83 C84 1.346 . S
C83 H88 0.930 . S
C84 N81 1.336 . S
C84 C83 1.346 . S
C84 H91 0.929 . S
C85 O75 1.282 . S
C85 O86 1.216 . S
O86 C85 1.216 . S
H87 C82 0.930 1_655 S
H88 C83 0.930 . S
O89 Cu69 1.959 . S
O89 C76 1.251 . S
H90 C73 0.930 . S
H91 C84 0.929 . S
Cu92 N93 1.999 . S
Cu92 O98 1.974 1_554 S
Cu92 N103 1.985 1_545 S
Cu92 O112 1.959 1_545 S
N93 Cu92 1.999 . S
N93 C95 1.263 1_554 S
N93 C97 1.389 . S
N94 C95 1.358 . S
N94 C96 1.379 1_556 S
C95 N93 1.263 1_556 S
C95 N94 1.358 . S
C95 H101 0.930 . S
C96 N94 1.379 1_554 S
C96 C97 1.364 . S
C96 H113 0.938 . S
C97 N93 1.389 . S
C97 C96 1.364 . S
C97 H102 0.930 . S
O98 Cu92 1.974 1_556 S
O98 C108 1.282 . S
C99 O100 1.268 . S
C99 O112 1.251 . S
O100 C99 1.268 . S
H101 C95 0.930 . S
H102 C97 0.930 . S
N103 Cu92 1.985 1_565 S
N103 C105 1.335 . S
N103 C106 1.390 . S
N104 C105 1.345 . S
N104 C107 1.336 . S
C105 N103 1.335 . S
C105 N104 1.345 . S
C105 H110 0.930 . S
C106 N103 1.390 . S
C106 C107 1.346 . S
C106 H111 0.930 1_564 S
C107 N104 1.336 . S
C107 C106 1.346 . S
C107 H114 0.929 . S
C108 O98 1.282 . S
C108 O109 1.216 . S
O109 C108 1.216 . S
H110 C105 0.930 . S
H111 C106 0.930 1_546 S
O112 Cu92 1.959 1_565 S
O112 C99 1.251 . S
H113 C96 0.938 . S
H114 C107 0.929 . S
Cu115 N116 1.999 . S
Cu115 O121 1.974 . S
Cu115 N126 1.985 . S
Cu115 O135 1.959 . S
N116 Cu115 1.999 . S
N116 C118 1.263 . S
N116 C120 1.389 . S
N117 C118 1.358 . S
N117 C119 1.400 . S
C118 N116 1.263 . S
C118 N117 1.358 . S
C118 H124 0.930 . S
C119 N117 1.400 . S
C119 C120 1.351 . S
C119 H136 0.930 . S
C120 N116 1.389 . S
C120 C119 1.351 . S
C120 H125 0.930 . S
O121 Cu115 1.974 . S
O121 C131 1.282 . S
C122 O123 1.261 . S
C122 O135 1.251 . S
O123 C122 1.261 . S
H124 C118 0.930 . S
H125 C120 0.930 . S
N126 Cu115 1.985 . S
N126 C128 1.335 . S
N126 C129 1.390 . S
N127 C128 1.345 . S
N127 C130 1.336 . S
C128 N126 1.335 . S
C128 N127 1.345 . S
C128 H133 0.930 . S
C129 N126 1.390 . S
C129 C130 1.346 . S
C129 H134 0.930 . S
C130 N127 1.336 . S
C130 C129 1.346 . S
C130 H137 0.929 . S
C131 O121 1.282 . S
C131 O132 1.216 . S
O132 C131 1.216 . S
H133 C128 0.930 . S
H134 C129 0.930 . S
O135 Cu115 1.959 . S
O135 C122 1.251 . S
H136 C119 0.930 . S
H137 C130 0.929 . S
H138 C165 0.929 . S
N139 C164 1.433 . S
N139 C170 1.435 . S
N139 C176 1.423 . S
H140 C166 0.930 . S
H141 C169 0.931 . S
H142 C168 0.929 . S
H143 C171 0.930 . S
H144 C172 0.932 . S
H145 C175 0.929 . S
H146 C174 0.931 . S
H147 C177 0.929 . S
H148 C181 0.932 . S
H149 C178 0.931 . S
H150 C180 0.929 . S
H151 C183 0.929 . S
H152 C184 0.930 . S
H153 C186 0.929 . S
H154 C187 0.931 . S
H155 C189 0.930 . S
H156 C190 0.932 . S
H157 C192 0.931 . S
H158 C193 0.929 . S
H159 C195 0.929 . S
H160 C196 0.931 . S
H161 C198 0.929 . S
N162 C182 1.433 . S
N162 C188 1.435 . S
N162 C194 1.423 . S
H163 C199 0.932 . S
C164 N139 1.433 . S
C164 C165 1.363 . S
C164 C169 1.370 . S
C165 H138 0.929 . S
C165 C164 1.363 . S
C165 C166 1.385 . S
C166 H140 0.930 . S
C166 C165 1.385 . S
C166 C167 1.357 . S
C167 C166 1.357 . S
C167 C168 1.406 . S
C168 H142 0.929 . S
C168 C167 1.406 . S
C168 C169 1.391 . S
C169 H141 0.931 . S
C169 C164 1.370 . S
C169 C168 1.391 . S
C170 N139 1.435 . S
C170 C171 1.358 . S
C170 C175 1.371 . S
C171 H143 0.930 . S
C171 C170 1.358 . S
C171 C172 1.405 . S
C172 H144 0.932 . S
C172 C171 1.405 . S
C172 C173 1.383 . S
C173 C172 1.383 . S
C173 C174 1.393 . S
C174 H146 0.931 . S
C174 C173 1.393 . S
C174 C175 1.382 . S
C175 H145 0.929 . S
C175 C170 1.371 . S
C175 C174 1.382 . S
C176 N139 1.423 . S
C176 C177 1.362 . S
C176 C181 1.388 . S
C177 H147 0.929 . S
C177 C176 1.362 . S
C177 C178 1.376 . S
C178 H149 0.931 . S
C178 C177 1.376 . S
C178 C179 1.396 . S
C179 C178 1.396 . S
C179 C180 1.348 . S
C179 C197 1.472 . S
C180 H150 0.929 . S
C180 C179 1.348 . S
C180 C181 1.443 . S
C181 H148 0.932 . S
C181 C176 1.388 . S
C181 C180 1.443 . S
C182 N162 1.433 . S
C182 C183 1.363 . S
C182 C187 1.370 . S
C183 H151 0.929 . S
C183 C182 1.363 . S
C183 C184 1.385 . S
C184 H152 0.930 . S
C184 C183 1.385 . S
C184 C185 1.357 . S
C185 C184 1.357 . S
C185 C186 1.406 . S
C186 H153 0.929 . S
C186 C185 1.406 . S
C186 C187 1.391 . S
C187 H154 0.931 . S
C187 C182 1.370 . S
C187 C186 1.391 . S
C188 N162 1.435 . S
C188 C189 1.358 . S
C188 C193 1.371 . S
C189 H155 0.930 . S
C189 C188 1.358 . S
C189 C190 1.405 . S
C190 H156 0.932 . S
C190 C189 1.405 . S
C190 C191 1.383 . S
C191 C190 1.383 . S
C191 C192 1.393 . S
C192 H157 0.931 . S
C192 C191 1.393 . S
C192 C193 1.382 . S
C193 H158 0.929 . S
C193 C188 1.371 . S
C193 C192 1.382 . S
C194 N162 1.423 . S
C194 C195 1.362 . S
C194 C199 1.388 . S
C195 H159 0.929 . S
C195 C194 1.362 . S
C195 C196 1.376 . S
C196 H160 0.931 . S
C196 C195 1.376 . S
C196 C197 1.396 . S
C197 C179 1.472 . S
C197 C196 1.396 . S
C197 C198 1.348 . S
C198 H161 0.929 . S
C198 C197 1.348 . S
C198 C199 1.443 . S
C199 H163 0.932 . S
C199 C194 1.388 . S
C199 C198 1.443 . S
H200 C227 0.929 . S
N201 C226 1.433 . S
N201 C232 1.435 . S
N201 C238 1.423 . S
H202 C228 0.930 . S
H203 C231 0.931 . S
H204 C230 0.929 . S
H205 C233 0.930 . S
H206 C234 0.932 . S
H207 C237 0.929 . S
H208 C236 0.931 . S
H209 C239 0.929 . S
H210 C243 0.932 . S
H211 C240 0.931 . S
H212 C242 0.929 . S
H213 C245 0.929 . S
H214 C246 0.930 . S
H215 C248 0.929 . S
H216 C249 0.931 . S
H217 C251 0.930 . S
H218 C252 0.932 . S
H219 C254 0.931 . S
H220 C255 0.929 . S
H221 C257 0.929 . S
H222 C258 0.931 . S
H223 C260 0.929 . S
N224 C244 1.433 . S
N224 C250 1.435 . S
N224 C256 1.423 . S
H225 C261 0.932 . S
C226 N201 1.433 . S
C226 C227 1.363 . S
C226 C231 1.370 . S
C227 H200 0.929 . S
C227 C226 1.363 . S
C227 C228 1.385 . S
C228 H202 0.930 . S
C228 C227 1.385 . S
C228 C229 1.357 . S
C229 C228 1.357 . S
C229 C230 1.406 . S
C230 H204 0.929 . S
C230 C229 1.406 . S
C230 C231 1.391 . S
C231 H203 0.931 . S
C231 C226 1.370 . S
C231 C230 1.391 . S
C232 N201 1.435 . S
C232 C233 1.358 . S
C232 C237 1.371 . S
C233 H205 0.930 . S
C233 C232 1.358 . S
C233 C234 1.405 . S
C234 H206 0.932 . S
C234 C233 1.405 . S
C234 C235 1.383 . S
C235 C234 1.383 . S
C235 C236 1.393 . S
C236 H208 0.931 . S
C236 C235 1.393 . S
C236 C237 1.382 . S
C237 H207 0.929 . S
C237 C232 1.371 . S
C237 C236 1.382 . S
C238 N201 1.423 . S
C238 C239 1.362 . S
C238 C243 1.388 . S
C239 H209 0.929 . S
C239 C238 1.362 . S
C239 C240 1.376 . S
C240 H211 0.931 . S
C240 C239 1.376 . S
C240 C241 1.396 . S
C241 C240 1.396 . S
C241 C242 1.348 . S
C241 C259 1.472 . S
C242 H212 0.929 . S
C242 C241 1.348 . S
C242 C243 1.443 . S
C243 H210 0.932 . S
C243 C238 1.388 . S
C243 C242 1.443 . S
C244 N224 1.433 . S
C244 C245 1.363 . S
C244 C249 1.370 . S
C245 H213 0.929 . S
C245 C244 1.363 . S
C245 C246 1.385 . S
C246 H214 0.930 . S
C246 C245 1.385 . S
C246 C247 1.357 . S
C247 C246 1.357 . S
C247 C248 1.406 . S
C248 H215 0.929 . S
C248 C247 1.406 . S
C248 C249 1.391 . S
C249 H216 0.931 . S
C249 C244 1.370 . S
C249 C248 1.391 . S
C250 N224 1.435 . S
C250 C251 1.358 . S
C250 C255 1.371 . S
C251 H217 0.930 . S
C251 C250 1.358 . S
C251 C252 1.405 . S
C252 H218 0.932 . S
C252 C251 1.405 . S
C252 C253 1.383 . S
C253 C252 1.383 . S
C253 C254 1.393 . S
C254 H219 0.931 . S
C254 C253 1.393 . S
C254 C255 1.382 . S
C255 H220 0.929 . S
C255 C250 1.371 . S
C255 C254 1.382 . S
C256 N224 1.423 . S
C256 C257 1.362 . S
C256 C261 1.388 . S
C257 H221 0.929 . S
C257 C256 1.362 . S
C257 C258 1.376 . S
C258 H222 0.931 . S
C258 C257 1.376 . S
C258 C259 1.396 . S
C259 C241 1.472 . S
C259 C258 1.396 . S
C259 C260 1.348 . S
C260 H223 0.929 . S
C260 C259 1.348 . S
C260 C261 1.443 . S
C261 H225 0.932 . S
C261 C256 1.388 . S
C261 C260 1.443 . S
H262 C289 0.929 . S
N263 C288 1.433 . S
N263 C294 1.435 . S
N263 C300 1.423 . S
H264 C290 0.930 . S
H265 C293 0.931 . S
H266 C292 0.929 . S
H267 C295 0.930 . S
H268 C296 0.932 . S
H269 C299 0.929 . S
H270 C298 0.931 . S
H271 C301 0.929 . S
H272 C305 0.932 . S
H273 C302 0.931 . S
H274 C304 0.929 . S
H275 C307 0.929 . S
H276 C308 0.930 . S
H277 C310 0.929 . S
H278 C311 0.931 . S
H279 C313 0.930 . S
H280 C314 0.932 . S
H281 C316 0.931 . S
H282 C317 0.929 . S
H283 C319 0.929 . S
H284 C320 0.931 . S
H285 C322 0.929 . S
N286 C306 1.433 . S
N286 C312 1.435 . S
N286 C318 1.423 . S
H287 C323 0.932 . S
C288 N263 1.433 . S
C288 C289 1.363 . S
C288 C293 1.370 . S
C289 H262 0.929 . S
C289 C288 1.363 . S
C289 C290 1.385 . S
C290 H264 0.930 . S
C290 C289 1.385 . S
C290 C291 1.357 . S
C291 C290 1.357 . S
C291 C292 1.406 . S
C292 H266 0.929 . S
C292 C291 1.406 . S
C292 C293 1.391 . S
C293 H265 0.931 . S
C293 C288 1.370 . S
C293 C292 1.391 . S
C294 N263 1.435 . S
C294 C295 1.358 . S
C294 C299 1.371 . S
C295 H267 0.930 . S
C295 C294 1.358 . S
C295 C296 1.405 . S
C296 H268 0.932 . S
C296 C295 1.405 . S
C296 C297 1.383 . S
C297 C296 1.383 . S
C297 C298 1.393 . S
C298 H270 0.931 . S
C298 C297 1.393 . S
C298 C299 1.382 . S
C299 H269 0.929 . S
C299 C294 1.371 . S
C299 C298 1.382 . S
C300 N263 1.423 . S
C300 C301 1.362 . S
C300 C305 1.388 . S
C301 H271 0.929 . S
C301 C300 1.362 . S
C301 C302 1.376 . S
C302 H273 0.931 . S
C302 C301 1.376 . S
C302 C303 1.396 . S
C303 C302 1.396 . S
C303 C304 1.348 . S
C303 C321 1.472 . S
C304 H274 0.929 . S
C304 C303 1.348 . S
C304 C305 1.443 . S
C305 H272 0.932 . S
C305 C300 1.388 . S
C305 C304 1.443 . S
C306 N286 1.433 . S
C306 C307 1.363 . S
C306 C311 1.370 . S
C307 H275 0.929 . S
C307 C306 1.363 . S
C307 C308 1.385 . S
C308 H276 0.930 . S
C308 C307 1.385 . S
C308 C309 1.357 . S
C309 C308 1.357 . S
C309 C310 1.406 . S
C310 H277 0.929 . S
C310 C309 1.406 . S
C310 C311 1.391 . S
C311 H278 0.931 . S
C311 C306 1.370 . S
C311 C310 1.391 . S
C312 N286 1.435 . S
C312 C313 1.358 . S
C312 C317 1.371 . S
C313 H279 0.930 . S
C313 C312 1.358 . S
C313 C314 1.405 . S
C314 H280 0.932 . S
C314 C313 1.405 . S
C314 C315 1.383 . S
C315 C314 1.383 . S
C315 C316 1.393 . S
C316 H281 0.931 . S
C316 C315 1.393 . S
C316 C317 1.382 . S
C317 H282 0.929 . S
C317 C312 1.371 . S
C317 C316 1.382 . S
C318 N286 1.423 . S
C318 C319 1.362 . S
C318 C323 1.388 . S
C319 H283 0.929 . S
C319 C318 1.362 . S
C319 C320 1.376 . S
C320 H284 0.931 . S
C320 C319 1.376 . S
C320 C321 1.396 . S
C321 C303 1.472 . S
C321 C320 1.396 . S
C321 C322 1.348 . S
C322 H285 0.929 . S
C322 C321 1.348 . S
C322 C323 1.443 . S
C323 H287 0.932 . S
C323 C318 1.388 . S
C323 C322 1.443 . S
H324 C351 0.929 . S
N325 C350 1.433 . S
N325 C356 1.435 . S
N325 C362 1.423 . S
H326 C352 0.930 . S
H327 C355 0.931 . S
H328 C354 0.929 . S
H329 C357 0.930 . S
H330 C358 0.932 . S
H331 C361 0.929 . S
H332 C360 0.931 . S
H333 C363 0.929 . S
H334 C367 0.932 . S
H335 C364 0.931 . S
H336 C366 0.929 . S
H337 C369 0.929 . S
H338 C370 0.930 . S
H339 C372 0.929 . S
H340 C373 0.931 . S
H341 C375 0.930 . S
H342 C376 0.932 . S
H343 C378 0.931 . S
H344 C379 0.929 . S
H345 C381 0.929 . S
H346 C382 0.931 . S
H347 C384 0.929 . S
N348 C368 1.433 . S
N348 C374 1.435 . S
N348 C380 1.423 . S
H349 C385 0.932 . S
C350 N325 1.433 . S
C350 C351 1.363 . S
C350 C355 1.370 . S
C351 H324 0.929 . S
C351 C350 1.363 . S
C351 C352 1.385 . S
C352 H326 0.930 . S
C352 C351 1.385 . S
C352 C353 1.357 . S
C353 C352 1.357 . S
C353 C354 1.406 . S
C354 H328 0.929 . S
C354 C353 1.406 . S
C354 C355 1.391 . S
C355 H327 0.931 . S
C355 C350 1.370 . S
C355 C354 1.391 . S
C356 N325 1.435 . S
C356 C357 1.358 . S
C356 C361 1.371 . S
C357 H329 0.930 . S
C357 C356 1.358 . S
C357 C358 1.405 . S
C358 H330 0.932 . S
C358 C357 1.405 . S
C358 C359 1.383 . S
C359 C358 1.383 . S
C359 C360 1.393 . S
C360 H332 0.931 . S
C360 C359 1.393 . S
C360 C361 1.382 . S
C361 H331 0.929 . S
C361 C356 1.371 . S
C361 C360 1.382 . S
C362 N325 1.423 . S
C362 C363 1.362 . S
C362 C367 1.388 . S
C363 H333 0.929 . S
C363 C362 1.362 . S
C363 C364 1.376 . S
C364 H335 0.931 . S
C364 C363 1.376 . S
C364 C365 1.396 . S
C365 C364 1.396 . S
C365 C366 1.348 . S
C365 C383 1.472 . S
C366 H336 0.929 . S
C366 C365 1.348 . S
C366 C367 1.443 . S
C367 H334 0.932 . S
C367 C362 1.388 . S
C367 C366 1.443 . S
C368 N348 1.433 . S
C368 C369 1.363 . S
C368 C373 1.370 . S
C369 H337 0.929 . S
C369 C368 1.363 . S
C369 C370 1.385 . S
C370 H338 0.930 . S
C370 C369 1.385 . S
C370 C371 1.357 . S
C371 C370 1.357 . S
C371 C372 1.406 . S
C372 H339 0.929 . S
C372 C371 1.406 . S
C372 C373 1.391 . S
C373 H340 0.931 . S
C373 C368 1.370 . S
C373 C372 1.391 . S
C374 N348 1.435 . S
C374 C375 1.358 . S
C374 C379 1.371 . S
C375 H341 0.930 . S
C375 C374 1.358 . S
C375 C376 1.405 . S
C376 H342 0.932 . S
C376 C375 1.405 . S
C376 C377 1.383 . S
C377 C376 1.383 . S
C377 C378 1.393 . S
C378 H343 0.931 . S
C378 C377 1.393 . S
C378 C379 1.382 . S
C379 H344 0.929 . S
C379 C374 1.371 . S
C379 C378 1.382 . S
C380 N348 1.423 . S
C380 C381 1.362 . S
C380 C385 1.388 . S
C381 H345 0.929 . S
C381 C380 1.362 . S
C381 C382 1.376 . S
C382 H346 0.931 . S
C382 C381 1.376 . S
C382 C383 1.396 . S
C383 C365 1.472 . S
C383 C382 1.396 . S
C383 C384 1.348 . S
C384 H347 0.929 . S
C384 C383 1.348 . S
C384 C385 1.443 . S
C385 H349 0.932 . S
C385 C380 1.388 . S
C385 C384 1.443 . S
H386 C413 0.929 . S
N387 C412 1.433 . S
N387 C418 1.435 . S
N387 C424 1.423 . S
H388 C414 0.930 . S
H389 C417 0.931 . S
H390 C416 0.929 . S
H391 C419 0.930 . S
H392 C420 0.932 . S
H393 C423 0.929 . S
H394 C422 0.931 . S
H395 C425 0.929 . S
H396 C429 0.932 . S
H397 C426 0.931 . S
H398 C428 0.929 . S
H399 C431 0.929 . S
H400 C432 0.930 . S
H401 C434 0.929 . S
H402 C435 0.931 . S
H403 C437 0.930 . S
H404 C438 0.932 . S
H405 C440 0.931 . S
H406 C441 0.929 . S
H407 C443 0.929 . S
H408 C444 0.931 . S
H409 C446 0.929 . S
N410 C430 1.433 . S
N410 C436 1.435 . S
N410 C442 1.423 . S
H411 C447 0.932 . S
C412 N387 1.433 . S
C412 C413 1.363 . S
C412 C417 1.370 . S
C413 H386 0.929 . S
C413 C412 1.363 . S
C413 C414 1.385 . S
C414 H388 0.930 . S
C414 C413 1.385 . S
C414 C415 1.357 . S
C415 C414 1.357 . S
C415 C416 1.406 . S
C416 H390 0.929 . S
C416 C415 1.406 . S
C416 C417 1.391 . S
C417 H389 0.931 . S
C417 C412 1.370 . S
C417 C416 1.391 . S
C418 N387 1.435 . S
C418 C419 1.358 . S
C418 C423 1.371 . S
C419 H391 0.930 . S
C419 C418 1.358 . S
C419 C420 1.405 . S
C420 H392 0.932 . S
C420 C419 1.405 . S
C420 C421 1.383 . S
C421 C420 1.383 . S
C421 C422 1.393 . S
C422 H394 0.931 . S
C422 C421 1.393 . S
C422 C423 1.382 . S
C423 H393 0.929 . S
C423 C418 1.371 . S
C423 C422 1.382 . S
C424 N387 1.423 . S
C424 C425 1.362 . S
C424 C429 1.388 . S
C425 H395 0.929 . S
C425 C424 1.362 . S
C425 C426 1.376 . S
C426 H397 0.931 . S
C426 C425 1.376 . S
C426 C427 1.396 . S
C427 C426 1.396 . S
C427 C428 1.348 . S
C427 C445 1.472 . S
C428 H398 0.929 . S
C428 C427 1.348 . S
C428 C429 1.443 . S
C429 H396 0.932 . S
C429 C424 1.388 . S
C429 C428 1.443 . S
C430 N410 1.433 . S
C430 C431 1.363 . S
C430 C435 1.370 . S
C431 H399 0.929 . S
C431 C430 1.363 . S
C431 C432 1.385 . S
C432 H400 0.930 . S
C432 C431 1.385 . S
C432 C433 1.357 . S
C433 C432 1.357 . S
C433 C434 1.406 . S
C434 H401 0.929 . S
C434 C433 1.406 . S
C434 C435 1.391 . S
C435 H402 0.931 . S
C435 C430 1.370 . S
C435 C434 1.391 . S
C436 N410 1.435 . S
C436 C437 1.358 . S
C436 C441 1.371 . S
C437 H403 0.930 . S
C437 C436 1.358 . S
C437 C438 1.405 . S
C438 H404 0.932 . S
C438 C437 1.405 . S
C438 C439 1.383 . S
C439 C438 1.383 . S
C439 C440 1.393 . S
C440 H405 0.931 . S
C440 C439 1.393 . S
C440 C441 1.382 . S
C441 H406 0.929 . S
C441 C436 1.371 . S
C441 C440 1.382 . S
C442 N410 1.423 . S
C442 C443 1.362 . S
C442 C447 1.388 . S
C443 H407 0.929 . S
C443 C442 1.362 . S
C443 C444 1.376 . S
C444 H408 0.931 . S
C444 C443 1.376 . S
C444 C445 1.396 . S
C445 C427 1.472 . S
C445 C444 1.396 . S
C445 C446 1.348 . S
C446 H409 0.929 . S
C446 C445 1.348 . S
C446 C447 1.443 . S
C447 H411 0.932 . S
C447 C442 1.388 . S
C447 C446 1.443 . S
H448 C475 0.929 . S
N449 C474 1.433 . S
N449 C480 1.435 . S
N449 C486 1.423 . S
H450 C476 0.930 . S
H451 C479 0.931 . S
H452 C478 0.929 . S
H453 C481 0.930 . S
H454 C482 0.932 . S
H455 C485 0.929 . S
H456 C484 0.931 . S
H457 C487 0.929 . S
H458 C491 0.932 . S
H459 C488 0.931 . S
H460 C490 0.929 . S
H461 C493 0.929 . S
H462 C494 0.930 . S
H463 C496 0.929 . S
H464 C497 0.931 . S
H465 C499 0.930 . S
H466 C500 0.932 . S
H467 C502 0.931 . S
H468 C503 0.929 . S
H469 C505 0.929 . S
H470 C506 0.931 . S
H471 C508 0.929 . S
N472 C492 1.433 . S
N472 C498 1.435 . S
N472 C504 1.423 . S
H473 C509 0.932 . S
C474 N449 1.433 . S
C474 C475 1.363 . S
C474 C479 1.370 . S
C475 H448 0.929 . S
C475 C474 1.363 . S
C475 C476 1.385 . S
C476 H450 0.930 . S
C476 C475 1.385 . S
C476 C477 1.357 . S
C477 C476 1.357 . S
C477 C478 1.406 . S
C478 H452 0.929 . S
C478 C477 1.406 . S
C478 C479 1.391 . S
C479 H451 0.931 . S
C479 C474 1.370 . S
C479 C478 1.391 . S
C480 N449 1.435 . S
C480 C481 1.358 . S
C480 C485 1.371 . S
C481 H453 0.930 . S
C481 C480 1.358 . S
C481 C482 1.405 . S
C482 H454 0.932 . S
C482 C481 1.405 . S
C482 C483 1.383 . S
C483 C482 1.383 . S
C483 C484 1.393 . S
C484 H456 0.931 . S
C484 C483 1.393 . S
C484 C485 1.382 . S
C485 H455 0.929 . S
C485 C480 1.371 . S
C485 C484 1.382 . S
C486 N449 1.423 . S
C486 C487 1.362 . S
C486 C491 1.388 . S
C487 H457 0.929 . S
C487 C486 1.362 . S
C487 C488 1.376 . S
C488 H459 0.931 . S
C488 C487 1.376 . S
C488 C489 1.396 . S
C489 C488 1.396 . S
C489 C490 1.348 . S
C489 C507 1.472 . S
C490 H460 0.929 . S
C490 C489 1.348 . S
C490 C491 1.443 . S
C491 H458 0.932 . S
C491 C486 1.388 . S
C491 C490 1.443 . S
C492 N472 1.433 . S
C492 C493 1.363 . S
C492 C497 1.370 . S
C493 H461 0.929 . S
C493 C492 1.363 . S
C493 C494 1.385 . S
C494 H462 0.930 . S
C494 C493 1.385 . S
C494 C495 1.357 . S
C495 C494 1.357 . S
C495 C496 1.406 . S
C496 H463 0.929 . S
C496 C495 1.406 . S
C496 C497 1.391 . S
C497 H464 0.931 . S
C497 C492 1.370 . S
C497 C496 1.391 . S
C498 N472 1.435 . S
C498 C499 1.358 . S
C498 C503 1.371 . S
C499 H465 0.930 . S
C499 C498 1.358 . S
C499 C500 1.405 . S
C500 H466 0.932 . S
C500 C499 1.405 . S
C500 C501 1.383 . S
C501 C500 1.383 . S
C501 C502 1.393 . S
C502 H467 0.931 . S
C502 C501 1.393 . S
C502 C503 1.382 . S
C503 H468 0.929 . S
C503 C498 1.371 . S
C503 C502 1.382 . S
C504 N472 1.423 . S
C504 C505 1.362 . S
C504 C509 1.388 . S
C505 H469 0.929 . S
C505 C504 1.362 . S
C505 C506 1.376 . S
C506 H470 0.931 . S
C506 C505 1.376 . S
C506 C507 1.396 . S
C507 C489 1.472 . S
C507 C506 1.396 . S
C507 C508 1.348 . S
C508 H471 0.929 . S
C508 C507 1.348 . S
C508 C509 1.443 . S
C509 H473 0.932 . S
C509 C504 1.388 . S
C509 C508 1.443 . S
C510 C511 1.369 . S
C510 C512 1.419 . S
C510 H514 0.930 . S
C511 C510 1.369 . S
C511 C520 1.429 . S
C512 C510 1.419 . S
C512 C513 1.363 . S
C512 H515 0.929 . S
C513 C512 1.363 . S
C513 C519 1.428 . S
H514 C510 0.930 . S
H515 C512 0.929 . S
S516 N517 1.613 . S
S516 N518 1.610 . S
N517 S516 1.613 . S
N517 C520 1.350 . S
N518 S516 1.610 . S
N518 C519 1.351 . S
C519 C513 1.428 . S
C519 N518 1.351 . S
C519 C520 1.434 . S
C520 C511 1.429 . S
C520 N517 1.350 . S
C520 C519 1.434 . S
C521 C522 1.369 . S
C521 C523 1.419 . S
C521 H525 0.930 . S
C522 C521 1.369 . S
C522 C531 1.429 . S
C523 C521 1.419 . S
C523 C524 1.363 . S
C523 H526 0.929 . S
C524 C523 1.363 . S
C524 C530 1.428 . S
H525 C521 0.930 . S
H526 C523 0.929 . S
S527 N528 1.613 . S
S527 N529 1.610 . S
N528 S527 1.613 . S
N528 C531 1.350 . S
N529 S527 1.610 . S
N529 C530 1.351 . S
C530 C524 1.428 . S
C530 N529 1.351 . S
C530 C531 1.434 . S
C531 C522 1.429 . S
C531 N528 1.350 . S
C531 C530 1.434 . S
C532 C533 1.369 . S
C532 C534 1.419 . S
C532 H536 0.930 . S
C533 C532 1.369 . S
C533 C542 1.429 . S
C534 C532 1.419 . S
C534 C535 1.363 . S
C534 H537 0.929 . S
C535 C534 1.363 . S
C535 C541 1.428 . S
H536 C532 0.930 . S
H537 C534 0.929 . S
S538 N539 1.613 . S
S538 N540 1.610 . S
N539 S538 1.613 . S
N539 C542 1.350 . S
N540 S538 1.610 . S
N540 C541 1.351 . S
C541 C535 1.428 . S
C541 N540 1.351 . S
C541 C542 1.434 . S
C542 C533 1.429 . S
C542 N539 1.350 . S
C542 C541 1.434 . S
C543 C544 1.369 . S
C543 C545 1.419 . S
C543 H547 0.901 1_655 S
C544 C543 1.369 . S
C544 C553 1.429 . S
C545 C543 1.419 . S
C545 C546 1.363 . S
C545 H548 0.929 . S
C546 C545 1.363 . S
C546 C552 1.428 . S
H547 C543 0.901 1_455 S
H548 C545 0.929 . S
S549 N550 1.613 . S
S549 N551 1.610 . S
N550 S549 1.613 . S
N550 C553 1.350 . S
N551 S549 1.610 . S
N551 C552 1.351 . S
C552 C546 1.428 . S
C552 N551 1.351 . S
C552 C553 1.434 . S
C553 C544 1.429 . S
C553 N550 1.350 . S
C553 C552 1.434 . S
C554 C555 1.369 . S
C554 C556 1.419 . S
C554 H558 0.930 . S
C555 C554 1.369 . S
C555 C564 1.429 . S
C556 C554 1.419 . S
C556 C557 1.363 . S
C556 H559 0.929 . S
C557 C556 1.363 . S
C557 C563 1.428 . S
H558 C554 0.930 . S
H559 C556 0.929 . S
S560 N561 1.613 . S
S560 N562 1.610 . S
N561 S560 1.613 . S
N561 C564 1.350 . S
N562 S560 1.610 . S
N562 C563 1.351 . S
C563 C557 1.428 . S
C563 N562 1.351 . S
C563 C564 1.434 . S
C564 C555 1.429 . S
C564 N561 1.350 . S
C564 C563 1.434 . S
C565 C566 1.369 . S
C565 C567 1.419 . S
C565 H569 0.930 . S
C566 C565 1.369 . S
C566 C575 1.429 . S
C567 C565 1.419 . S
C567 C568 1.363 . S
C567 H570 0.929 . S
C568 C567 1.363 . S
C568 C574 1.428 . S
H569 C565 0.930 . S
H570 C567 0.929 . S
S571 N572 1.613 . S
S571 N573 1.610 . S
N572 S571 1.613 . S
N572 C575 1.350 . S
N573 S571 1.610 . S
N573 C574 1.351 . S
C574 C568 1.428 . S
C574 N573 1.351 . S
C574 C575 1.434 . S
C575 C566 1.429 . S
C575 N572 1.350 . S
C575 C574 1.434 . S
C576 C577 1.369 . S
C576 C578 1.419 . S
C576 H580 0.930 . S
C577 C576 1.369 . S
C577 C586 1.429 . S
C578 C576 1.419 . S
C578 C579 1.363 . S
C578 H581 0.929 . S
C579 C578 1.363 . S
C579 C585 1.428 . S
H580 C576 0.930 . S
H581 C578 0.929 . S
S582 N583 1.613 . S
S582 N584 1.610 . S
N583 S582 1.613 . S
N583 C586 1.350 . S
N584 S582 1.610 . S
N584 C585 1.351 . S
C585 C579 1.428 . S
C585 N584 1.351 . S
C585 C586 1.434 . S
C586 C577 1.429 . S
C586 N583 1.350 . S
C586 C585 1.434 . S
C587 C588 1.369 . S
C587 C589 1.419 . S
C587 H591 0.930 . S
C588 C587 1.369 . S
C588 C597 1.429 . S
C589 C587 1.419 . S
C589 C590 1.363 . S
C589 H592 0.929 . S
C590 C589 1.363 . S
C590 C596 1.428 . S
H591 C587 0.930 . S
H592 C589 0.929 . S
S593 N594 1.613 . S
S593 N595 1.610 . S
N594 S593 1.613 . S
N594 C597 1.350 . S
N595 S593 1.610 . S
N595 C596 1.351 . S
C596 C590 1.428 . S
C596 N595 1.351 . S
C596 C597 1.434 . S
C597 C588 1.429 . S
C597 N594 1.350 . S
C597 C596 1.434 . S
C598 C599 1.369 . S
C598 C600 1.419 . S
C598 H602 0.930 . S
C599 C598 1.369 . S
C599 C608 1.429 . S
C600 C598 1.419 . S
C600 C601 1.363 . S
C600 H603 0.929 . S
C601 C600 1.363 . S
C601 C607 1.428 . S
H602 C598 0.930 . S
H603 C600 0.929 . S
S604 N605 1.613 . S
S604 N606 1.610 . S
N605 S604 1.613 . S
N605 C608 1.350 . S
N606 S604 1.610 . S
N606 C607 1.351 . S
C607 C601 1.428 . S
C607 N606 1.351 . S
C607 C608 1.434 . S
C608 C599 1.429 . S
C608 N605 1.350 . S
C608 C607 1.434 . S
C609 C610 1.369 . S
C609 C611 1.419 . S
C609 H613 0.930 . S
C610 C609 1.369 . S
C610 C619 1.429 . S
C611 C609 1.419 . S
C611 C612 1.363 . S
C611 H614 0.929 . S
C612 C611 1.363 . S
C612 C618 1.428 . S
H613 C609 0.930 . S
H614 C611 0.929 . S
S615 N616 1.613 . S
S615 N617 1.610 . S
N616 S615 1.613 . S
N616 C619 1.350 . S
N617 S615 1.610 . S
N617 C618 1.351 . S
C618 C612 1.428 . S
C618 N617 1.351 . S
C618 C619 1.434 . S
C619 C610 1.429 . S
C619 N616 1.350 . S
C619 C618 1.434 . S
C620 C621 1.369 . S
C620 C622 1.419 . S
C620 H624 0.930 . S
C621 C620 1.369 . S
C621 C630 1.429 . S
C622 C620 1.419 . S
C622 C623 1.363 . S
C622 H625 0.929 . S
C623 C622 1.363 . S
C623 C629 1.428 . S
H624 C620 0.930 . S
H625 C622 0.929 . S
S626 N627 1.613 . S
S626 N628 1.610 . S
N627 S626 1.613 . S
N627 C630 1.350 . S
N628 S626 1.610 . S
N628 C629 1.351 . S
C629 C623 1.428 . S
C629 N628 1.351 . S
C629 C630 1.434 . S
C630 C621 1.429 . S
C630 N627 1.350 . S
C630 C629 1.434 . S
C631 C632 1.369 . S
C631 C633 1.419 . S
C631 H635 0.930 . S
C632 C631 1.369 . S
C632 C641 1.429 . S
C633 C631 1.419 . S
C633 C634 1.363 . S
C633 H636 0.929 . S
C634 C633 1.363 . S
C634 C640 1.428 . S
H635 C631 0.930 . S
H636 C633 0.929 . S
S637 N638 1.613 . S
S637 N639 1.610 . S
N638 S637 1.613 . S
N638 C641 1.350 . S
N639 S637 1.610 . S
N639 C640 1.351 . S
C640 C634 1.428 . S
C640 N639 1.351 . S
C640 C641 1.434 . S
C641 C632 1.429 . S
C641 N638 1.350 . S
C641 C640 1.434 . S
C642 C643 1.369 . S
C642 C644 1.419 . S
C642 H646 0.930 . S
C643 C642 1.369 . S
C643 C652 1.429 . S
C644 C642 1.419 . S
C644 C645 1.363 . S
C644 H647 0.929 . S
C645 C644 1.363 . S
C645 C651 1.428 . S
H646 C642 0.930 . S
H647 C644 0.929 . S
S648 N649 1.613 1_455 S
S648 N650 1.610 1_455 S
N649 S648 1.613 1_655 S
N649 C652 1.350 . S
N650 S648 1.610 1_655 S
N650 C651 1.351 . S
C651 C645 1.428 . S
C651 N650 1.351 . S
C651 C652 1.434 . S
C652 C643 1.429 . S
C652 N649 1.350 . S
C652 C651 1.434 . S
C653 C654 1.369 . S
C653 C655 1.419 . S
C653 H657 0.930 . S
C654 C653 1.369 . S
C654 C663 1.429 . S
C655 C653 1.419 . S
C655 C656 1.363 . S
C655 H658 0.929 . S
C656 C655 1.363 . S
C656 C662 1.428 . S
H657 C653 0.930 . S
H658 C655 0.929 . S
S659 N660 1.613 . S
S659 N661 1.610 . S
N660 S659 1.613 . S
N660 C663 1.350 . S
N661 S659 1.610 . S
N661 C662 1.351 . S
C662 C656 1.428 . S
C662 N661 1.351 . S
C662 C663 1.434 . S
C663 C654 1.429 . S
C663 N660 1.350 . S
C663 C662 1.434 . S
C664 C665 1.369 . S
C664 C666 1.419 . S
C664 H668 0.930 . S
C665 C664 1.369 . S
C665 C674 1.429 . S
C666 C664 1.419 . S
C666 C667 1.363 . S
C666 H669 0.929 . S
C667 C666 1.363 . S
C667 C673 1.428 . S
H668 C664 0.930 . S
H669 C666 0.929 . S
S670 N671 1.613 . S
S670 N672 1.610 . S
N671 S670 1.613 . S
N671 C674 1.350 . S
N672 S670 1.610 . S
N672 C673 1.351 . S
C673 C667 1.428 . S
C673 N672 1.351 . S
C673 C674 1.434 . S
C674 C665 1.429 . S
C674 N671 1.350 . S
C674 C673 1.434 . S
C675 C676 1.369 . S
C675 C677 1.419 . S
C675 H679 0.930 . S
C676 C675 1.369 . S
C676 C685 1.429 . S
C677 C675 1.419 . S
C677 C678 1.363 . S
C677 H680 0.929 . S
C678 C677 1.363 . S
C678 C684 1.428 . S
H679 C675 0.930 . S
H680 C677 0.929 . S
S681 N682 1.613 . S
S681 N683 1.610 . S
N682 S681 1.613 . S
N682 C685 1.350 . S
N683 S681 1.610 . S
N683 C684 1.351 . S
C684 C678 1.428 . S
C684 N683 1.351 . S
C684 C685 1.434 . S
C685 C676 1.429 . S
C685 N682 1.350 . S
C685 C684 1.434 . S
C686 C687 1.369 . S
C686 C688 1.419 . S
C686 H690 0.930 . S
C687 C686 1.369 . S
C687 C696 1.429 . S
C688 C686 1.419 . S
C688 C689 1.363 . S
C688 H691 0.929 . S
C689 C688 1.363 . S
C689 C695 1.428 . S
H690 C686 0.930 . S
H691 C688 0.929 . S
S692 N693 1.613 . S
S692 N694 1.610 . S
N693 S692 1.613 . S
N693 C696 1.350 . S
N694 S692 1.610 . S
N694 C695 1.351 . S
C695 C689 1.428 . S
C695 N694 1.351 . S
C695 C696 1.434 . S
C696 C687 1.429 . S
C696 N693 1.350 . S
C696 C695 1.434 . S
C697 C698 1.369 . S
C697 C699 1.419 . S
C697 H701 0.930 . S
C698 C697 1.369 . S
C698 C707 1.429 . S
C699 C697 1.419 . S
C699 C700 1.363 . S
C699 H702 0.929 . S
C700 C699 1.363 . S
C700 C706 1.428 . S
H701 C697 0.930 . S
H702 C699 0.929 . S
S703 N704 1.613 . S
S703 N705 1.610 . S
N704 S703 1.613 . S
N704 C707 1.350 . S
N705 S703 1.610 . S
N705 C706 1.351 . S
C706 C700 1.428 . S
C706 N705 1.351 . S
C706 C707 1.434 . S
C707 C698 1.429 . S
C707 N704 1.350 . S
C707 C706 1.434 . S
C708 C709 1.369 . S
C708 C710 1.419 . S
C708 H712 0.930 . S
C709 C708 1.369 . S
C709 C718 1.429 . S
C710 C708 1.419 . S
C710 C711 1.363 . S
C710 H713 0.929 . S
C711 C710 1.363 . S
C711 C717 1.428 . S
H712 C708 0.930 . S
H713 C710 0.929 . S
S714 N715 1.613 . S
S714 N716 1.610 . S
N715 S714 1.613 . S
N715 C718 1.350 . S
N716 S714 1.610 . S
N716 C717 1.351 . S
C717 C711 1.428 . S
C717 N716 1.351 . S
C717 C718 1.434 . S
C718 C709 1.429 . S
C718 N715 1.350 . S
C718 C717 1.434 . S
C719 C720 1.369 . S
C719 C721 1.419 . S
C719 H723 0.930 . S
C720 C719 1.369 . S
C720 C729 1.429 . S
C721 C719 1.419 . S
C721 C722 1.363 . S
C721 H724 0.929 . S
C722 C721 1.363 . S
C722 C728 1.428 . S
H723 C719 0.930 . S
H724 C721 0.929 . S
S725 N726 1.613 . S
S725 N727 1.610 . S
N726 S725 1.613 . S
N726 C729 1.350 . S
N727 S725 1.610 . S
N727 C728 1.351 . S
C728 C722 1.428 . S
C728 N727 1.351 . S
C728 C729 1.434 . S
C729 C720 1.429 . S
C729 N726 1.350 . S
C729 C728 1.434 . S
C730 C731 1.369 1_655 S
C730 C732 1.419 . S
C730 H734 0.930 . S
C731 C730 1.369 1_455 S
C731 C740 1.429 . S
C732 C730 1.419 . S
C732 C733 1.363 . S
C732 H735 0.929 . S
C733 C732 1.363 . S
C733 C739 1.428 . S
H734 C730 0.930 . S
H735 C732 0.929 . S
S736 N737 1.613 . S
S736 N738 1.610 . S
N737 S736 1.613 . S
N737 C740 1.350 . S
N738 S736 1.610 . S
N738 C739 1.351 1_455 S
C739 C733 1.428 . S
C739 N738 1.351 1_655 S
C739 C740 1.434 1_655 S
C740 C731 1.429 . S
C740 N737 1.350 . S
C740 C739 1.434 1_455 S
C741 C742 1.369 . S
C741 C743 1.419 . S
C741 H745 0.930 . S
C742 C741 1.369 . S
C742 C751 1.429 . S
C743 C741 1.419 . S
C743 C744 1.363 . S
C743 H746 0.929 . S
C744 C743 1.363 . S
C744 C750 1.428 . S
H745 C741 0.930 . S
H746 C743 0.929 . S
S747 N748 1.613 . S
S747 N749 1.610 . S
N748 S747 1.613 . S
N748 C751 1.350 . S
N749 S747 1.610 . S
N749 C750 1.351 . S
C750 C744 1.428 . S
C750 N749 1.351 . S
C750 C751 1.434 . S
C751 C742 1.429 . S
C751 N748 1.350 . S
C751 C750 1.434 . S
C752 C753 1.369 . S
C752 C754 1.419 . S
C752 H756 0.930 . S
C753 C752 1.369 . S
C753 C762 1.429 . S
C754 C752 1.419 . S
C754 C755 1.363 . S
C754 H757 0.929 . S
C755 C754 1.363 . S
C755 C761 1.428 . S
H756 C752 0.930 . S
H757 C754 0.929 . S
S758 N759 1.613 . S
S758 N760 1.610 . S
N759 S758 1.613 . S
N759 C762 1.350 . S
N760 S758 1.610 . S
N760 C761 1.351 . S
C761 C755 1.428 . S
C761 N760 1.351 . S
C761 C762 1.434 . S
C762 C753 1.429 . S
C762 N759 1.350 . S
C762 C761 1.434 . S
C763 C764 1.369 . S
C763 C765 1.419 . S
C763 H767 0.930 . S
C764 C763 1.369 . S
C764 C773 1.429 . S
C765 C763 1.419 . S
C765 C766 1.363 . S
C765 H768 0.929 . S
C766 C765 1.363 . S
C766 C772 1.428 . S
H767 C763 0.930 . S
H768 C765 0.929 . S
S769 N770 1.613 . S
S769 N771 1.610 . S
N770 S769 1.613 . S
N770 C773 1.350 . S
N771 S769 1.610 . S
N771 C772 1.351 . S
C772 C766 1.428 . S
C772 N771 1.351 . S
C772 C773 1.434 . S
C773 C764 1.429 . S
C773 N770 1.350 . S
C773 C772 1.434 . S
C511 C7 1.805 . S
C513 C191 1.706 . S
C522 C30 1.762 . S
C524 C235 1.718 . S
C535 C315 1.684 . S
C533 N58 1.667 . S
C546 C359 1.422 . S
C544 N81 1.388 1_655 S
C557 C439 1.789 . S
C555 C99 1.863 . S
C568 C495 1.644 . S
C566 N127 1.701 . S
C577 N25 1.944 . S
C579 C291 1.775 . S
C588 C62 1.591 . S
C590 C371 1.515 . S
C601 C415 1.843 . S
C599 C85 2.034 . S
C612 C483 1.614 . S
C610 N94 1.594 . S
C621 C131 1.806 . S
C623 C167 1.694 . S
C634 C247 1.718 . S
C632 N2 1.706 1_556 S
C645 C353 1.838 . S
C643 C16 1.943 . S
C654 C39 1.621 . S
C656 C433 1.441 . S
C667 C501 1.686 . S
C665 N48 1.640 . S
C676 N71 1.536 . S
C678 C185 1.507 . S
C687 C108 1.734 . S
C689 C229 1.657 . S
C698 N117 1.777 . S
C700 C309 1.569 . S
C709 N35 1.914 . S
C711 C477 1.800 . S
C722 C173 1.586 . S
C720 C53 1.700 . S
C731 C76 1.824 . S
C733 C253 1.746 . S
C742 N104 1.440 . S
C744 C297 1.405 . S
C753 C122 1.834 . S
C755 C377 1.792 . S
C764 N12 1.411 . S
C766 C421 1.393 . S
