# Generated by pormake.
# Topology pyr, (3,6)-cn, num edge types: 1
# Building blocks:
#     Node 0, Type 0, BuildingBlock: BELTOD_clean_linker_0, # of connection points: 3
#     Node 1, Type 0, BuildingBlock: BELTOD_clean_linker_0, # of connection points: 3
#     Node 2, Type 0, BuildingBlock: BELTOD_clean_linker_0, # of connection points: 3
#     Node 3, Type 0, BuildingBlock: BELTOD_clean_linker_0, # of connection points: 3
#     Node 4, Type 0, BuildingBlock: BELTOD_clean_linker_0, # of connection points: 3
#     Node 5, Type 0, BuildingBlock: BELTOD_clean_linker_0, # of connection points: 3
#     Node 6, Type 0, BuildingBlock: BELTOD_clean_linker_0, # of connection points: 3
#     Node 7, Type 0, BuildingBlock: BELTOD_clean_linker_0, # of connection points: 3
#     Node 8, Type 1, BuildingBlock: BETDEL_clean_sbu_0, # of connection points: 6
#     Node 9, Type 1, BuildingBlock: BETDEL_clean_sbu_0, # of connection points: 6
#     Node 10, Type 1, BuildingBlock: BETDEL_clean_sbu_0, # of connection points: 6
#     Node 11, Type 1, BuildingBlock: BETDEL_clean_sbu_0, # of connection points: 6
#     Edge 12, Type (0, 1), BuildingBlock: CIFDUS_clean_linker_0, # of connection points: 2
#     Edge 13, Type (0, 1), BuildingBlock: CIFDUS_clean_linker_0, # of connection points: 2
#     Edge 14, Type (0, 1), BuildingBlock: CIFDUS_clean_linker_0, # of connection points: 2
#     Edge 15, Type (0, 1), BuildingBlock: CIFDUS_clean_linker_0, # of connection points: 2
#     Edge 16, Type (0, 1), BuildingBlock: CIFDUS_clean_linker_0, # of connection points: 2
#     Edge 17, Type (0, 1), BuildingBlock: CIFDUS_clean_linker_0, # of connection points: 2
#     Edge 18, Type (0, 1), BuildingBlock: CIFDUS_clean_linker_0, # of connection points: 2
#     Edge 19, Type (0, 1), BuildingBlock: CIFDUS_clean_linker_0, # of connection points: 2
#     Edge 20, Type (0, 1), BuildingBlock: CIFDUS_clean_linker_0, # of connection points: 2
#     Edge 21, Type (0, 1), BuildingBlock: CIFDUS_clean_linker_0, # of connection points: 2
#     Edge 22, Type (0, 1), BuildingBlock: CIFDUS_clean_linker_0, # of connection points: 2
#     Edge 23, Type (0, 1), BuildingBlock: CIFDUS_clean_linker_0, # of connection points: 2
#     Edge 24, Type (0, 1), BuildingBlock: CIFDUS_clean_linker_0, # of connection points: 2
#     Edge 25, Type (0, 1), BuildingBlock: CIFDUS_clean_linker_0, # of connection points: 2
#     Edge 26, Type (0, 1), BuildingBlock: CIFDUS_clean_linker_0, # of connection points: 2
#     Edge 27, Type (0, 1), BuildingBlock: CIFDUS_clean_linker_0, # of connection points: 2
#     Edge 28, Type (0, 1), BuildingBlock: CIFDUS_clean_linker_0, # of connection points: 2
#     Edge 29, Type (0, 1), BuildingBlock: CIFDUS_clean_linker_0, # of connection points: 2
#     Edge 30, Type (0, 1), BuildingBlock: CIFDUS_clean_linker_0, # of connection points: 2
#     Edge 31, Type (0, 1), BuildingBlock: CIFDUS_clean_linker_0, # of connection points: 2
#     Edge 32, Type (0, 1), BuildingBlock: CIFDUS_clean_linker_0, # of connection points: 2
#     Edge 33, Type (0, 1), BuildingBlock: CIFDUS_clean_linker_0, # of connection points: 2
#     Edge 34, Type (0, 1), BuildingBlock: CIFDUS_clean_linker_0, # of connection points: 2
#     Edge 35, Type (0, 1), BuildingBlock: CIFDUS_clean_linker_0, # of connection points: 2
# Relax obj value: 0.030
# Max RMSD: 0.093
# Mean RMSD: 0.040
data_MOF--net-pyr--node1-BETDEL_clean_sbu_0--node2-BELTOD_clean_linker_0--edge1-CIFDUS_clean_linker_0
_symmetry_space_group_name_H-M    P1
_symmetry_Int_Tables_number       1
_symmetry_cell_setting            triclinic
loop_
_symmetry_equiv_pos_as_xyz
'x, y, z'
_cell_length_a     37.215893
_cell_length_b     39.25623
_cell_length_c     35.602777
_cell_angle_alpha  91.694735
_cell_angle_beta   89.218474
_cell_angle_gamma 95.34339
loop_
_atom_site_label
_atom_site_type_symbol
_atom_site_fract_x
_atom_site_fract_y
_atom_site_fract_z
_atom_type_partial_charge
P0 P 0.25638 0.25651 0.23117 0.0
H1 H 0.3329 0.25999 0.21103 0.0
H2 H 0.3704 0.2184 0.18184 0.0
H3 H 0.27682 0.14478 0.17253 0.0
H4 H 0.2394 0.18684 0.20078 0.0
H5 H 0.23048 0.324 0.23469 0.0
H6 H 0.19377 0.35353 0.19187 0.0
H7 H 0.19971 0.27139 0.10936 0.0
H8 H 0.23588 0.24161 0.15243 0.0
H9 H 0.25893 0.20271 0.28509 0.0
H10 H 0.17764 0.26081 0.23932 0.0
O11 O 0.28208 0.28293 0.25945 0.0
H12 H 0.21212 0.16888 0.32042 0.0
H13 H 0.13105 0.22733 0.27486 0.0
C14 C 0.28366 0.22615 0.20886 0.0
C15 C 0.32053 0.23488 0.20274 0.0
C16 C 0.3419 0.21104 0.18619 0.0
C17 C 0.32664 0.17813 0.17532 0.0
C18 C 0.28937 0.16991 0.18048 0.0
C19 C 0.26803 0.19381 0.19697 0.0
C20 C 0.23627 0.28088 0.19657 0.0
C21 C 0.22462 0.31274 0.20706 0.0
C22 C 0.20349 0.32942 0.18276 0.0
C23 C 0.19398 0.31456 0.1475 0.0
C24 C 0.20701 0.28339 0.13632 0.0
C25 C 0.22771 0.26644 0.16092 0.0
C26 C 0.22182 0.2339 0.25912 0.0
C27 C 0.2311 0.20828 0.28275 0.0
C28 C 0.20438 0.18893 0.30278 0.0
C29 C 0.168 0.19535 0.29998 0.0
C30 C 0.15891 0.22194 0.27747 0.0
C31 C 0.18563 0.24102 0.25706 0.0
P32 P 0.33315 0.86745 0.62111 0.0
H33 H 0.3584 0.93206 0.65888 0.0
H34 H 0.36225 0.9502 0.72494 0.0
H35 H 0.31869 0.84928 0.75718 0.0
H36 H 0.31479 0.83124 0.69082 0.0
H37 H 0.40378 0.84942 0.59666 0.0
H38 H 0.43087 0.79549 0.59092 0.0
H39 H 0.33032 0.74166 0.62723 0.0
H40 H 0.30286 0.79609 0.63146 0.0
H41 H 0.27938 0.91336 0.64277 0.0
H42 H 0.2868 0.8271 0.56616 0.0
O43 O 0.35797 0.89613 0.59566 0.0
H44 H 0.22146 0.92309 0.61708 0.0
H45 H 0.22745 0.83563 0.54119 0.0
C46 C 0.33709 0.88009 0.66996 0.0
C47 C 0.34988 0.91373 0.6801 0.0
C48 C 0.35169 0.92419 0.71787 0.0
C49 C 0.34069 0.90115 0.7462 0.0
C50 C 0.32764 0.86746 0.73594 0.0
C51 C 0.32554 0.85712 0.69804 0.0
C52 C 0.35114 0.82671 0.61387 0.0
C53 C 0.38732 0.826 0.60284 0.0
C54 C 0.40297 0.79509 0.60008 0.0
C55 C 0.38292 0.76416 0.60896 0.0
C56 C 0.34645 0.76492 0.61983 0.0
C57 C 0.33072 0.796 0.62233 0.0
C58 C 0.2871 0.86898 0.60707 0.0
C59 C 0.26791 0.89566 0.62129 0.0
C60 C 0.23449 0.90114 0.60657 0.0
C61 C 0.2194 0.88004 0.57711 0.0
C62 C 0.23829 0.85257 0.56365 0.0
C63 C 0.27207 0.84736 0.57823 0.0
P64 P 0.6695 0.29732 0.81055 0.0
H65 H 0.7445 0.28788 0.82743 0.0
H66 H 0.79115 0.32248 0.86217 0.0
H67 H 0.71444 0.39497 0.89296 0.0
H68 H 0.66783 0.36035 0.85687 0.0
H69 H 0.59184 0.27502 0.80265 0.0
H70 H 0.55276 0.23122 0.83382 0.0
H71 H 0.63998 0.2137 0.90788 0.0
H72 H 0.67768 0.25966 0.87853 0.0
H73 H 0.69725 0.32132 0.73909 0.0
H74 H 0.60509 0.33761 0.80969 0.0
O75 O 0.69072 0.26886 0.78495 0.0
H76 H 0.6751 0.35683 0.69145 0.0
H77 H 0.58159 0.3725 0.76085 0.0
C78 C 0.70279 0.32177 0.83918 0.0
C79 C 0.73757 0.31115 0.8417 0.0
C80 C 0.76426 0.33088 0.86195 0.0
C81 C 0.75669 0.36162 0.88043 0.0
C82 C 0.72139 0.37172 0.87865 0.0
C83 C 0.69465 0.35189 0.85823 0.0
C84 C 0.63742 0.27162 0.83896 0.0
C85 C 0.60203 0.26297 0.82674 0.0
C86 C 0.5799 0.23711 0.84418 0.0
C87 C 0.59315 0.21812 0.8732 0.0
C88 C 0.62832 0.22778 0.88616 0.0
C89 C 0.65009 0.25423 0.86927 0.0
C90 C 0.65202 0.32541 0.77723 0.0
C91 C 0.67187 0.3322 0.74416 0.0
C92 C 0.65908 0.35255 0.71679 0.0
C93 C 0.62596 0.36678 0.72168 0.0
C94 C 0.60702 0.36169 0.75596 0.0
C95 C 0.62017 0.34138 0.7837 0.0
P96 P 0.8081 0.68891 0.29809 0.0
H97 H 0.87365 0.73381 0.28177 0.0
H98 H 0.90729 0.77992 0.3181 0.0
H99 H 0.83325 0.7618 0.41141 0.0
H100 H 0.80014 0.71594 0.37532 0.0
H101 H 0.78857 0.65032 0.22951 0.0
H102 H 0.82268 0.61809 0.18383 0.0
H103 H 0.91797 0.6381 0.25177 0.0
H104 H 0.88342 0.66992 0.29783 0.0
H105 H 0.73058 0.66843 0.29509 0.0
H106 H 0.81996 0.64865 0.36446 0.0
O107 O 0.78285 0.71136 0.27147 0.0
H108 H 0.68883 0.63681 0.33767 0.0
H109 H 0.77801 0.61685 0.40764 0.0
C110 C 0.83537 0.72016 0.32634 0.0
C111 C 0.86524 0.73918 0.3104 0.0
C112 C 0.88417 0.76585 0.33103 0.0
C113 C 0.87322 0.77431 0.36786 0.0
C114 C 0.84302 0.75541 0.38352 0.0
C115 C 0.8241 0.72892 0.36285 0.0
C116 C 0.83365 0.66326 0.26657 0.0
C117 C 0.81678 0.64769 0.23467 0.0
C118 C 0.83627 0.62916 0.20863 0.0
C119 C 0.87313 0.62588 0.21396 0.0
C120 C 0.88977 0.64072 0.24657 0.0
C121 C 0.87004 0.6589 0.27292 0.0
C122 C 0.7783 0.66149 0.32702 0.0
C123 C 0.74131 0.657 0.31933 0.0
C124 C 0.71742 0.6387 0.34365 0.0
C125 C 0.73006 0.62453 0.37623 0.0
C126 C 0.76741 0.62784 0.38303 0.0
C127 C 0.79139 0.64584 0.35834 0.0
P128 P 0.81903 0.84759 0.89826 0.0
H129 H 0.78472 0.87814 0.96318 0.0
H130 H 0.72347 0.89394 0.97436 0.0
H131 H 0.68974 0.84479 0.86895 0.0
H132 H 0.75156 0.82915 0.85757 0.0
H133 H 0.8868 0.82282 0.91814 0.0
H134 H 0.90451 0.76598 0.93056 0.0
H135 H 0.79455 0.72301 0.91393 0.0
H136 H 0.77688 0.78024 0.90142 0.0
H137 H 0.8002 0.90248 0.85169 0.0
H138 H 0.85907 0.81314 0.83837 0.0
O139 O 0.8451 0.87628 0.92364 0.0
H140 H 0.81712 0.91876 0.78772 0.0
H141 H 0.87595 0.82926 0.77439 0.0
C142 C 0.77271 0.85323 0.90919 0.0
C143 C 0.76414 0.87035 0.94266 0.0
C144 C 0.7292 0.87931 0.94905 0.0
C145 C 0.70225 0.87089 0.92223 0.0
C146 C 0.71019 0.85152 0.88994 0.0
C147 C 0.74538 0.84277 0.88341 0.0
C148 C 0.83048 0.80575 0.90951 0.0
C149 C 0.86641 0.80124 0.91751 0.0
C150 C 0.87656 0.76874 0.92425 0.0
C151 C 0.85088 0.74016 0.92306 0.0
C152 C 0.81476 0.74472 0.91526 0.0
C153 C 0.80468 0.77735 0.90815 0.0
C154 C 0.82807 0.8565 0.84969 0.0
C155 C 0.8162 0.88604 0.83476 0.0
C156 C 0.82578 0.89525 0.79817 0.0
C157 C 0.84782 0.87523 0.77608 0.0
C158 C 0.85913 0.84525 0.7909 0.0
C159 C 0.84935 0.83597 0.82747 0.0
P160 P 0.77721 0.23376 0.31377 0.0
H161 H 0.7826 0.3018 0.35023 0.0
H162 H 0.7384 0.33384 0.384 0.0
H163 H 0.66051 0.24511 0.37697 0.0
H164 H 0.70514 0.21303 0.34431 0.0
H165 H 0.84591 0.20731 0.29595 0.0
H166 H 0.88164 0.16761 0.32725 0.0
H167 H 0.80119 0.15707 0.41592 0.0
H168 H 0.76611 0.19749 0.38483 0.0
H169 H 0.74732 0.25349 0.24338 0.0
H170 H 0.74564 0.16254 0.30861 0.0
O171 O 0.80516 0.263 0.29239 0.0
H172 H 0.70484 0.22349 0.19914 0.0
H173 H 0.70245 0.1327 0.26534 0.0
C174 C 0.7469 0.25531 0.34404 0.0
C175 C 0.75618 0.28913 0.35641 0.0
C176 C 0.73079 0.30747 0.3755 0.0
C177 C 0.69567 0.29223 0.38254 0.0
C178 C 0.68727 0.25762 0.37207 0.0
C179 C 0.71274 0.2393 0.3531 0.0
C180 C 0.8038 0.20587 0.33848 0.0
C181 C 0.83622 0.19675 0.32237 0.0
C182 C 0.85643 0.17377 0.34011 0.0
C183 C 0.84435 0.1592 0.37417 0.0
C184 C 0.81161 0.16829 0.39008 0.0
C185 C 0.79145 0.19136 0.3723 0.0
C186 C 0.75026 0.20999 0.27871 0.0
C187 C 0.73824 0.22688 0.24781 0.0
C188 C 0.71361 0.20983 0.22284 0.0
C189 C 0.70021 0.17567 0.22868 0.0
C190 C 0.71271 0.15877 0.25957 0.0
C191 C 0.73746 0.17581 0.28438 0.0
P192 P 0.35957 0.65725 0.1517 0.0
H193 H 0.31948 0.65945 0.08221 0.0
H194 H 0.25853 0.63613 0.06439 0.0
H195 H 0.23452 0.61207 0.18013 0.0
H196 H 0.29513 0.63574 0.19782 0.0
H197 H 0.43254 0.68652 0.13776 0.0
H198 H 0.45917 0.74385 0.12418 0.0
H199 H 0.35408 0.78187 0.13525 0.0
H200 H 0.32735 0.72357 0.1479 0.0
H201 H 0.35169 0.59023 0.18458 0.0
H202 H 0.38984 0.69287 0.2206 0.0
O203 O 0.3808 0.63251 0.12145 0.0
H204 H 0.36738 0.56894 0.24529 0.0
H205 H 0.40712 0.67161 0.2811 0.0
C206 C 0.31212 0.64892 0.14121 0.0
C207 C 0.30076 0.64999 0.1039 0.0
C208 C 0.2659 0.63664 0.09374 0.0
C209 C 0.2419 0.62173 0.12077 0.0
C210 C 0.25263 0.62281 0.15856 0.0
C211 C 0.28734 0.63647 0.16872 0.0
C212 C 0.37797 0.7007 0.14355 0.0
C213 C 0.41516 0.70715 0.13726 0.0
C214 C 0.43041 0.74013 0.12972 0.0
C215 C 0.40888 0.76773 0.12873 0.0
C216 C 0.37145 0.76122 0.13536 0.0
C217 C 0.35614 0.72796 0.14286 0.0
C218 C 0.36967 0.64308 0.19795 0.0
C219 C 0.36352 0.6082 0.20563 0.0
C220 C 0.37282 0.59602 0.24035 0.0
C221 C 0.38899 0.61842 0.26817 0.0
C222 C 0.39447 0.6536 0.26058 0.0
C223 C 0.38481 0.66582 0.22582 0.0
P224 P 0.20038 0.31829 0.7025 0.0
H225 H 0.22184 0.2533 0.67337 0.0
H226 H 0.18992 0.20506 0.63887 0.0
H227 H 0.09101 0.25396 0.64875 0.0
H228 H 0.1234 0.30307 0.68235 0.0
H229 H 0.23407 0.38892 0.70483 0.0
H230 H 0.27415 0.42147 0.66123 0.0
H231 H 0.26403 0.3357 0.58178 0.0
H232 H 0.22261 0.30459 0.62416 0.0
H233 H 0.1826 0.3138 0.78238 0.0
H234 H 0.15682 0.37599 0.69052 0.0
O235 O 0.23178 0.30337 0.72894 0.0
H236 H 0.15016 0.34936 0.82598 0.0
H237 H 0.12352 0.41151 0.73395 0.0
C238 C 0.17498 0.28169 0.68065 0.0
C239 C 0.19321 0.25359 0.66847 0.0
C240 C 0.17505 0.22612 0.64866 0.0
C241 C 0.1381 0.2259 0.64129 0.0
C242 C 0.1195 0.25357 0.65435 0.0
C243 C 0.13796 0.28154 0.67352 0.0
C244 C 0.22461 0.34446 0.66771 0.0
C245 C 0.23964 0.37757 0.67752 0.0
C246 C 0.26307 0.39599 0.65268 0.0
C247 C 0.27272 0.38132 0.61779 0.0
C248 C 0.2569 0.34835 0.60789 0.0
C249 C 0.23315 0.33023 0.63249 0.0
C250 C 0.17282 0.34272 0.73335 0.0
C251 C 0.16968 0.335 0.77152 0.0
C252 C 0.15084 0.35527 0.79644 0.0
C253 C 0.13446 0.38359 0.78364 0.0
C254 C 0.13641 0.39034 0.74495 0.0
C255 C 0.15528 0.36997 0.72002 0.0
Dy256 Dy 0.01772 0.01691 0.46889 0.0
C257 C 0.9527 0.95231 0.59745 0.0
C258 C 0.04616 0.05428 0.41047 0.0
Dy259 Dy 0.97951 0.98981 0.5385 0.0
O260 O 0.05178 0.02286 0.41667 0.0
O261 O 0.0244 0.06528 0.43593 0.0
O262 O 0.05334 0.97398 0.46809 0.0
O263 O 0.03553 0.99345 0.51965 0.0
C264 C 0.05229 0.97028 0.50414 0.0
C265 C 0.94687 0.03812 0.50452 0.0
O266 O 0.01261 0.03354 0.5664 0.0
O267 O 0.03367 0.05925 0.51137 0.0
O268 O 0.93348 0.96779 0.57437 0.0
O269 O 0.98664 0.95734 0.5884 0.0
O270 O 0.94645 0.03463 0.54069 0.0
O271 O 0.96202 0.01422 0.48826 0.0
O272 O 0.9782 0.97749 0.44232 0.0
O273 O 0.96936 0.94623 0.49616 0.0
C274 C 0.02996 0.0594 0.54854 0.0
C275 C 0.96676 0.94884 0.45926 0.0
Dy276 Dy 0.51565 0.01937 0.05463 0.0
C277 C 0.41139 0.95283 0.94914 0.0
C278 C 0.5651 0.05365 0.10113 0.0
Dy279 Dy 0.45908 0.99259 0.99271 0.0
O280 O 0.5646 0.02163 0.09094 0.0
O281 O 0.53826 0.06711 0.08617 0.0
O282 O 0.51481 0.96601 0.07614 0.0
O283 O 0.46864 0.98093 0.05113 0.0
C284 C 0.48279 0.95584 0.06403 0.0
C285 C 0.49738 0.05077 0.97046 0.0
O286 O 0.42382 0.02006 0.03314 0.0
O287 O 0.46802 0.04568 0.07387 0.0
O288 O 0.40958 0.98515 0.95716 0.0
O289 O 0.43875 0.94195 0.96601 0.0
O290 O 0.47235 0.03413 0.95032 0.0
O291 O 0.49991 0.03478 1.00023 0.0
O292 O 0.54998 0.00659 0.0058 0.0
O293 O 0.5087 0.96577 0.97843 0.0
C294 C 0.43431 0.04126 0.06166 0.0
C295 C 0.54223 0.97986 0.98293 0.0
Dy296 Dy 0.51619 0.47182 0.48253 0.0
C297 C 0.45701 0.58386 0.56086 0.0
C298 C 0.55828 0.42808 0.44565 0.0
Dy299 Dy 0.49566 0.53501 0.52799 0.0
O300 O 0.53121 0.41856 0.46763 0.0
O301 O 0.5617 0.46111 0.44347 0.0
O302 O 0.45867 0.44862 0.48461 0.0
O303 O 0.47953 0.48039 0.52934 0.0
C304 C 0.45131 0.46429 0.51623 0.0
C305 C 0.5598 0.54278 0.49208 0.0
O306 O 0.51633 0.50526 0.57489 0.0
O307 O 0.54804 0.47017 0.53576 0.0
O308 O 0.49199 0.58429 0.56121 0.0
O309 O 0.44321 0.55637 0.54326 0.0
O310 O 0.55324 0.55893 0.52349 0.0
O311 O 0.53118 0.52641 0.4808 0.0
O312 O 0.48932 0.49628 0.43627 0.0
O313 O 0.46701 0.54005 0.47263 0.0
C314 C 0.54007 0.48222 0.56982 0.0
C315 C 0.46987 0.52284 0.44005 0.0
Dy316 Dy 0.00642 0.46346 0.0268 0.0
C317 C 0.95239 0.57485 0.95634 0.0
C318 C 0.04153 0.41297 0.05683 0.0
Dy319 Dy 0.98618 0.52238 0.98391 0.0
O320 O 0.01346 0.42566 0.07158 0.0
O321 O 0.05011 0.42745 0.02524 0.0
O322 O 0.95955 0.46835 0.06566 0.0
O323 O 0.98723 0.51292 0.04401 0.0
C324 C 0.9606 0.50138 0.06379 0.0
C325 C 0.03015 0.48265 0.94565 0.0
O326 O 0.03148 0.55023 0.01612 0.0
O327 O 0.05523 0.50143 0.0355 0.0
O328 O 0.98244 0.56467 0.94341 0.0
O329 O 0.94073 0.55638 0.98438 0.0
O330 O 0.03081 0.51547 0.94189 0.0
O331 O 0.00435 0.47264 0.96708 0.0
O332 O 0.96102 0.4357 0.9946 0.0
O333 O 0.93709 0.48465 0.97551 0.0
C334 C 0.05772 0.53503 0.03145 0.0
C335 C 0.93457 0.451 0.97961 0.0
H336 H 0.15931 0.12637 0.29966 0.0
H337 H 0.11311 0.216 0.34426 0.0
H338 H 0.06847 0.17984 0.38001 0.0
H339 H 0.04575 0.12275 0.40207 0.0
H340 H 0.09295 0.03349 0.35756 0.0
H341 H 0.13384 0.06942 0.31793 0.0
C342 C 0.13943 0.13791 0.31724 0.0
C343 C 0.13967 0.17367 0.31984 0.0
C344 C 0.11405 0.11704 0.33759 0.0
C345 C 0.11337 0.18845 0.34197 0.0
C346 C 0.08797 0.16782 0.36243 0.0
C347 C 0.06463 0.11122 0.38323 0.0
C348 C 0.0666 0.07565 0.38281 0.0
C349 C 0.08843 0.13209 0.36091 0.0
C350 C 0.09109 0.06088 0.35838 0.0
C351 C 0.11457 0.08139 0.33585 0.0
H352 H 0.36861 0.86734 0.80288 0.0
H353 H 0.32051 0.96007 0.77908 0.0
H354 H 0.33336 0.98215 0.84281 0.0
H355 H 0.36465 0.97795 0.90229 0.0
H356 H 0.41575 0.88671 0.92519 0.0
H357 H 0.39436 0.86066 0.8653 0.0
C358 C 0.36025 0.89205 0.81196 0.0
C359 C 0.34405 0.91225 0.78624 0.0
C360 C 0.3683 0.90482 0.84845 0.0
C361 C 0.33359 0.94433 0.79823 0.0
C362 C 0.34081 0.95691 0.83467 0.0
C363 C 0.37038 0.95206 0.89455 0.0
C364 C 0.39192 0.93432 0.91785 0.0
C365 C 0.35911 0.93781 0.85961 0.0
C366 C 0.39924 0.90084 0.90756 0.0
C367 C 0.38725 0.88606 0.87323 0.0
H368 H 0.59061 0.42573 0.72429 0.0
H369 H 0.62704 0.34865 0.64743 0.0
H370 H 0.60581 0.37849 0.59448 0.0
H371 H 0.5767 0.42569 0.56945 0.0
H372 H 0.53701 0.5022 0.64465 0.0
H373 H 0.5596 0.47339 0.69854 0.0
C374 C 0.59365 0.41537 0.69598 0.0
C375 C 0.61101 0.38514 0.69004 0.0
C376 C 0.58092 0.43262 0.66522 0.0
C377 C 0.61469 0.37222 0.65301 0.0
C378 C 0.60233 0.38918 0.62258 0.0
C379 C 0.57314 0.43639 0.59754 0.0
C380 C 0.55535 0.46632 0.6028 0.0
C381 C 0.5856 0.41943 0.6283 0.0
C382 C 0.55072 0.47932 0.63963 0.0
C383 C 0.56356 0.46276 0.67051 0.0
H384 H 0.85386 0.56408 0.18002 0.0
H385 H 0.93933 0.6461 0.18358 0.0
H386 H 0.97314 0.61615 0.13545 0.0
H387 H 0.97879 0.56584 0.09282 0.0
H388 H 0.89446 0.48273 0.09242 0.0
H389 H 0.85954 0.51406 0.13812 0.0
C390 C 0.87979 0.57548 0.17008 0.0
C391 C 0.89403 0.60728 0.18533 0.0
C392 C 0.89919 0.55796 0.14272 0.0
C393 C 0.92793 0.62149 0.17256 0.0
C394 C 0.94717 0.60447 0.14486 0.0
C395 C 0.9526 0.55486 0.10252 0.0
C396 C 0.93905 0.52214 0.08919 0.0
C397 C 0.93311 0.57264 0.12975 0.0
C398 C 0.90536 0.5079 0.10232 0.0
C399 C 0.88544 0.52576 0.12851 0.0
H400 H 0.31214 0.13327 0.11616 0.0
H401 H 0.39293 0.16484 0.1992 0.0
H402 H 0.43225 0.12397 0.17242 0.0
H403 H 0.44453 0.08098 0.12473 0.0
H404 H 0.36457 0.04867 0.04105 0.0
H405 H 0.32358 0.08759 0.06957 0.0
C406 C 0.33818 0.13091 0.12862 0.0
C407 C 0.34974 0.15235 0.1594 0.0
C408 C 0.36068 0.10719 0.11316 0.0
C409 C 0.38369 0.14917 0.17505 0.0
C410 C 0.40609 0.12564 0.15994 0.0
C411 C 0.41809 0.08219 0.11267 0.0
C412 C 0.40779 0.06204 0.08058 0.0
C413 C 0.395 0.10481 0.12882 0.0
C414 C 0.37324 0.06386 0.06573 0.0
C415 C 0.34985 0.08623 0.08192 0.0
H416 H 0.16023 0.9057 0.60981 0.0
H417 H 0.20351 0.8751 0.50208 0.0
H418 H 0.15306 0.8968 0.47056 0.0
H419 H 0.10044 0.93007 0.47285 0.0
H420 H 0.06036 0.96562 0.57984 0.0
H421 H 0.10595 0.93678 0.6123 0.0
C422 C 0.15872 0.90376 0.57943 0.0
C423 C 0.186 0.88895 0.55849 0.0
C424 C 0.13035 0.91755 0.56126 0.0
C425 C 0.18288 0.88592 0.51915 0.0
C426 C 0.15417 0.89871 0.50096 0.0
C427 C 0.10146 0.9312 0.5033 0.0
C428 C 0.07722 0.95004 0.52395 0.0
C429 C 0.12833 0.91538 0.52165 0.0
C430 C 0.07874 0.95124 0.56336 0.0
C431 C 0.10488 0.93486 0.5819 0.0
H432 H 0.81056 0.34109 0.92337 0.0
H433 H 0.76908 0.43157 0.88135 0.0
H434 H 0.81935 0.46721 0.9097 0.0
H435 H 0.87679 0.47251 0.94358 0.0
H436 H 0.91932 0.38168 0.98355 0.0
H437 H 0.86726 0.34647 0.95831 0.0
C438 C 0.81255 0.36859 0.92022 0.0
C439 C 0.78601 0.3835 0.90004 0.0
C440 C 0.84193 0.38893 0.93598 0.0
C441 C 0.78876 0.41931 0.89704 0.0
C442 C 0.81772 0.43975 0.91298 0.0
C443 C 0.87469 0.44503 0.94692 0.0
C444 C 0.90218 0.42985 0.96532 0.0
C445 C 0.84471 0.4248 0.93212 0.0
C446 C 0.89877 0.39416 0.96941 0.0
C447 C 0.86894 0.37393 0.95498 0.0
H448 H 0.672 0.57886 0.3617 0.0
H449 H 0.72923 0.63375 0.45268 0.0
H450 H 0.68274 0.61175 0.49726 0.0
H451 H 0.62326 0.58012 0.50966 0.0
H452 H 0.56625 0.52606 0.41792 0.0
H453 H 0.61501 0.54439 0.37461 0.0
C454 C 0.67436 0.58589 0.39132 0.0
C455 C 0.70392 0.6081 0.40377 0.0
C456 C 0.6474 0.57338 0.41672 0.0
C457 C 0.70689 0.61651 0.44235 0.0
C458 C 0.68016 0.60413 0.46785 0.0
C459 C 0.62176 0.57215 0.48025 0.0
C460 C 0.59116 0.55178 0.46707 0.0
C461 C 0.64993 0.58303 0.45526 0.0
C462 C 0.58958 0.54153 0.4289 0.0
C463 C 0.6174 0.55216 0.40401 0.0
H464 H 0.12828 0.33183 0.16827 0.0
H465 H 0.20197 0.3317 0.07388 0.0
H466 H 0.15968 0.36016 0.03594 0.0
H467 H 0.10322 0.38809 0.03133 0.0
H468 H 0.02964 0.38717 0.1261 0.0
H469 H 0.07023 0.35569 0.16221 0.0
C470 C 0.13499 0.33812 0.13938 0.0
C471 C 0.16821 0.33035 0.12389 0.0
C472 C 0.11057 0.3541 0.1179 0.0
C473 C 0.1765 0.33775 0.08626 0.0
C474 C 0.1524 0.35398 0.06468 0.0
C475 C 0.09594 0.38055 0.05971 0.0
C476 C 0.06372 0.39003 0.07622 0.0
C477 C 0.11954 0.36266 0.0804 0.0
C478 C 0.0544 0.38014 0.1129 0.0
C479 C 0.07763 0.36231 0.13361 0.0
H480 H 0.59199 0.191 0.94424 0.0
H481 H 0.54656 0.17284 0.83346 0.0
H482 H 0.51279 0.12101 0.85442 0.0
H483 H 0.4969 0.07961 0.90305 0.0
H484 H 0.5447 0.09388 0.01259 0.0
H485 H 0.57748 0.14782 0.99294 0.0
C486 C 0.57497 0.17568 0.9245 0.0
C487 C 0.57172 0.18664 0.88727 0.0
C488 C 0.55622 0.14486 0.9364 0.0
C489 C 0.54904 0.16617 0.86252 0.0
C490 C 0.52992 0.13605 0.87433 0.0
C491 C 0.51451 0.09451 0.92268 0.0
C492 C 0.51831 0.08288 0.95925 0.0
C493 C 0.53339 0.12509 0.91106 0.0
C494 C 0.54136 0.10233 0.98428 0.0
C495 C 0.56002 0.13318 0.97303 0.0
H496 H 0.89767 0.83744 0.3428 0.0
H497 H 0.89129 0.77661 0.44208 0.0
H498 H 0.91941 0.82508 0.47897 0.0
H499 H 0.94495 0.88491 0.48337 0.0
H500 H 0.95197 0.9458 0.38404 0.0
H501 H 0.92482 0.89704 0.34688 0.0
C502 C 0.90287 0.83464 0.37239 0.0
C503 C 0.89226 0.8034 0.38962 0.0
C504 C 0.91907 0.86267 0.39351 0.0
C505 C 0.89874 0.80045 0.42817 0.0
C506 C 0.91495 0.82813 0.44929 0.0
C507 C 0.94056 0.88761 0.4536 0.0
C508 C 0.95042 0.91912 0.43665 0.0
C509 C 0.92497 0.85944 0.43233 0.0
C510 C 0.94464 0.92193 0.39794 0.0
C511 C 0.9291 0.89402 0.3766 0.0
H512 H 0.35404 0.70135 0.58321 0.0
H513 H 0.45118 0.75343 0.6303 0.0
H514 H 0.48204 0.70164 0.6216 0.0
H515 H 0.48273 0.64258 0.59703 0.0
H516 H 0.3855 0.58993 0.55126 0.0
H517 H 0.35317 0.64058 0.56392 0.0
C518 C 0.38175 0.70124 0.5922 0.0
C519 C 0.40035 0.7315 0.60681 0.0
C520 C 0.39937 0.67121 0.58738 0.0
C521 C 0.4364 0.73082 0.61806 0.0
C522 C 0.45406 0.70112 0.61335 0.0
C523 C 0.45434 0.6421 0.59031 0.0
C524 C 0.43655 0.61273 0.57308 0.0
C525 C 0.43602 0.67136 0.59742 0.0
C526 C 0.39977 0.61231 0.56456 0.0
C527 C 0.38131 0.6413 0.57163 0.0
H528 H 0.91618 0.87706 0.74859 0.0
H529 H 0.80898 0.90048 0.72043 0.0
H530 H 0.83189 0.92504 0.66148 0.0
H531 H 0.88295 0.94262 0.61979 0.0
H532 H 0.99026 0.92005 0.6485 0.0
H533 H 0.96669 0.89189 0.7053 0.0
C534 C 0.89774 0.88697 0.72922 0.0
C535 C 0.86097 0.88703 0.73881 0.0
C536 C 0.91115 0.90132 0.69567 0.0
C537 C 0.83746 0.90047 0.71376 0.0
C538 C 0.85052 0.91444 0.68008 0.0
C539 C 0.90108 0.93129 0.63838 0.0
C540 C 0.93823 0.93347 0.63026 0.0
C541 C 0.8874 0.9155 0.67106 0.0
C542 C 0.96153 0.91872 0.65438 0.0
C543 C 0.94809 0.90267 0.68682 0.0
H544 H 0.69595 0.10963 0.20254 0.0
H545 H 0.64193 0.20207 0.19829 0.0
H546 H 0.59558 0.17272 0.15799 0.0
H547 H 0.56965 0.1203 0.12485 0.0
H548 H 0.62294 0.02766 0.131 0.0
H549 H 0.66991 0.0574 0.17023 0.0
C550 C 0.67388 0.12331 0.19308 0.0
C551 C 0.6725 0.15801 0.20343 0.0
C552 C 0.64704 0.10618 0.17041 0.0
C553 C 0.64401 0.17548 0.19032 0.0
C554 C 0.6173 0.15865 0.1675 0.0
C555 C 0.59155 0.10671 0.13487 0.0
C556 C 0.59289 0.07191 0.12519 0.0
C557 C 0.61847 0.12396 0.15749 0.0
C558 C 0.62135 0.05449 0.13821 0.0
C559 C 0.64824 0.07147 0.16058 0.0
H560 H 0.41937 0.55884 0.27855 0.0
H561 H 0.38596 0.64743 0.33944 0.0
H562 H 0.40689 0.62548 0.39805 0.0
H563 H 0.43568 0.5813 0.43201 0.0
H564 H 0.46754 0.49244 0.37015 0.0
H565 H 0.44534 0.514 0.31238 0.0
C566 C 0.41604 0.5732 0.30465 0.0
C567 C 0.40098 0.60482 0.30431 0.0
C568 C 0.42778 0.56028 0.33831 0.0
C569 C 0.39784 0.62327 0.33855 0.0
C570 C 0.40959 0.61059 0.37221 0.0
C571 C 0.43749 0.56648 0.40598 0.0
C572 C 0.45344 0.53525 0.40569 0.0
C573 C 0.42477 0.57915 0.37244 0.0
C574 C 0.45557 0.51656 0.37149 0.0
C575 C 0.44291 0.5289 0.33826 0.0
H576 H 0.0917 0.36587 0.84454 0.0
H577 H 0.1377 0.45353 0.78416 0.0
H578 H 0.11033 0.49173 0.82917 0.0
H579 H 0.07353 0.50051 0.886 0.0
H580 H 0.02746 0.41305 0.94644 0.0
H581 H 0.0553 0.37465 0.9017 0.0
C582 C 0.09597 0.39333 0.84133 0.0
C583 C 0.11672 0.40667 0.81078 0.0
C584 C 0.08034 0.41527 0.86756 0.0
C585 C 0.12143 0.4424 0.80692 0.0
C586 C 0.10602 0.46434 0.83288 0.0
C587 C 0.06974 0.47304 0.88946 0.0
C588 C 0.04851 0.45964 0.91953 0.0
C589 C 0.08547 0.4511 0.86334 0.0
C590 C 0.04372 0.42401 0.92356 0.0
C591 C 0.05956 0.40203 0.89792 0.0
H592 H 0.69283 0.93729 0.93001 0.0
H593 H 0.63415 0.83749 0.92366 0.0
H594 H 0.57741 0.86306 0.93774 0.0
H595 H 0.54612 0.9137 0.9583 0.0
H596 H 0.6069 0.01286 0.96531 0.0
H597 H 0.6612 0.98776 0.94405 0.0
C598 C 0.66751 0.92123 0.9315 0.0
C599 C 0.66741 0.88569 0.92658 0.0
C600 C 0.63551 0.93602 0.93975 0.0
C601 C 0.6346 0.86498 0.92769 0.0
C602 C 0.60233 0.87958 0.93581 0.0
C603 C 0.57111 0.9298 0.95439 0.0
C604 C 0.57267 0.96496 0.96381 0.0
C605 C 0.60261 0.91505 0.94277 0.0
C606 C 0.60518 0.98563 0.95874 0.0
C607 C 0.63626 0.97133 0.94663 0.0
H608 H 0.85737 0.15512 0.44887 0.0
H609 H 0.8794 0.10751 0.34124 0.0
H610 H 0.91431 0.06672 0.37177 0.0
H611 H 0.93741 0.04355 0.42937 0.0
H612 H 0.91372 0.09033 0.53693 0.0
H613 H 0.8804 0.1322 0.50616 0.0
C614 C 0.86951 0.13563 0.4321 0.0
C615 C 0.86568 0.13442 0.39282 0.0
C616 C 0.88924 0.11203 0.44984 0.0
C617 C 0.88223 0.10935 0.37148 0.0
C618 C 0.90205 0.08585 0.38893 0.0
C619 C 0.92499 0.06298 0.44598 0.0
C620 C 0.92782 0.06381 0.48532 0.0
C621 C 0.90563 0.08686 0.42811 0.0
C622 C 0.91173 0.08912 0.50659 0.0
C623 C 0.89268 0.11306 0.48903 0.0
H624 H 0.19132 0.64108 0.07255 0.0
H625 H 0.21524 0.55838 0.14248 0.0
H626 H 0.16067 0.52439 0.12122 0.0
H627 H 0.10691 0.51735 0.08156 0.0
H628 H 0.08154 0.60044 0.01287 0.0
H629 H 0.13579 0.63488 0.03466 0.0
C630 C 0.18449 0.61564 0.08314 0.0
C631 C 0.20732 0.60236 0.10915 0.0
C632 C 0.15286 0.59619 0.07088 0.0
C633 C 0.19794 0.56944 0.12286 0.0
C634 C 0.16684 0.54985 0.1105 0.0
C635 C 0.11323 0.54299 0.0713 0.0
C636 C 0.09026 0.55616 0.0454 0.0
C637 C 0.14422 0.56285 0.08434 0.0
C638 C 0.0987 0.58962 0.03282 0.0
C639 C 0.12978 0.60935 0.04523 0.0
H640 H 0.3331 0.42249 0.6386 0.0
H641 H 0.27621 0.38009 0.54046 0.0
H642 H 0.32586 0.40265 0.50032 0.0
H643 H 0.38732 0.43157 0.49325 0.0
H644 H 0.44203 0.47694 0.59109 0.0
H645 H 0.39094 0.45689 0.63089 0.0
C646 C 0.33095 0.41878 0.60841 0.0
C647 C 0.3009 0.39899 0.5929 0.0
C648 C 0.35939 0.43234 0.58528 0.0
C649 C 0.29927 0.39433 0.55353 0.0
C650 C 0.32762 0.40745 0.53041 0.0
C651 C 0.38783 0.4373 0.52324 0.0
C652 C 0.41858 0.4553 0.53925 0.0
C653 C 0.35815 0.42591 0.54602 0.0
C654 C 0.41877 0.46295 0.57807 0.0
C655 C 0.38957 0.45142 0.6009 0.0
H656 H 0.90797 0.71184 0.89185 0.0
H657 H 0.81917 0.69177 0.96957 0.0
H658 H 0.8417 0.63733 0.98529 0.0
H659 H 0.88922 0.59765 0.98011 0.0
H660 H 0.97812 0.61845 0.90257 0.0
H661 H 0.95306 0.67057 0.8836 0.0
C662 C 0.89355 0.69546 0.91217 0.0
C663 C 0.86227 0.70583 0.92989 0.0
C664 C 0.90679 0.66453 0.92121 0.0
C665 C 0.84332 0.68418 0.95557 0.0
C666 C 0.85629 0.65322 0.9647 0.0
C667 C 0.90287 0.61351 0.95886 0.0
C668 C 0.93554 0.60455 0.94293 0.0
C669 C 0.88836 0.64346 0.94819 0.0
C670 C 0.95297 0.62503 0.91528 0.0
C671 C 0.93871 0.65481 0.90447 0.0
H672 H 0.38327 0.81745 0.08594 0.0
H673 H 0.47317 0.79766 0.15496 0.0
H674 H 0.50393 0.85305 0.13994 0.0
H675 H 0.50617 0.90692 0.10686 0.0
H676 H 0.41577 0.92928 0.04043 0.0
H677 H 0.38439 0.87331 0.05482 0.0
C678 C 0.40939 0.8254 0.09805 0.0
C679 C 0.42597 0.80294 0.12119 0.0
C680 C 0.427 0.85776 0.08959 0.0
C681 C 0.45999 0.81384 0.13639 0.0
C682 C 0.47761 0.84569 0.12799 0.0
C683 C 0.47959 0.89957 0.09548 0.0
C684 C 0.46345 0.9221 0.07235 0.0
C685 C 0.46156 0.86772 0.1044 0.0
C686 C 0.42888 0.91228 0.0581 0.0
C687 C 0.41091 0.88032 0.06643 0.0
H688 H 0.08273 0.18017 0.66277 0.0
H689 H 0.15329 0.20753 0.56937 0.0
H690 H 0.12547 0.15904 0.5319 0.0
H691 H 0.08213 0.1081 0.52625 0.0
H692 H 0.01385 0.07838 0.62091 0.0
H693 H 0.03974 0.12824 0.65735 0.0
C694 C 0.09169 0.17551 0.63411 0.0
C695 C 0.11976 0.19734 0.61862 0.0
C696 C 0.07618 0.14704 0.6131 0.0
C697 C 0.13164 0.19097 0.5817 0.0
C698 C 0.11579 0.16327 0.56035 0.0
C699 C 0.07281 0.11255 0.55482 0.0
C700 C 0.04603 0.08949 0.57075 0.0
C701 C 0.08821 0.14099 0.57583 0.0
C702 C 0.03456 0.09557 0.60796 0.0
C703 C 0.04927 0.12417 0.62882 0.0
H704 H 0.68379 0.35688 0.36488 0.0
H705 H 0.64326 0.27385 0.43513 0.0
H706 H 0.59548 0.30766 0.45917 0.0
H707 H 0.56604 0.36166 0.46122 0.0
H708 H 0.60878 0.44496 0.39248 0.0
H709 H 0.65494 0.41026 0.36697 0.0
C710 C 0.66485 0.3463 0.38586 0.0
C711 C 0.66732 0.31297 0.39838 0.0
C712 C 0.63768 0.3659 0.39967 0.0
C713 C 0.6419 0.29938 0.42486 0.0
C714 C 0.61461 0.31873 0.43868 0.0
C715 C 0.58528 0.37197 0.44038 0.0
C716 C 0.58399 0.40567 0.42856 0.0
C717 C 0.61225 0.35205 0.4263 0.0
C718 C 0.60924 0.419 0.40189 0.0
C719 C 0.6357 0.39924 0.38739 0.0
loop_
_geom_bond_atom_site_label_1
_geom_bond_atom_site_label_2
_geom_bond_distance
_geom_bond_site_symmetry_2
_ccdc_geom_bond_type
P0 O11 1.490 . S
P0 C14 1.812 . S
P0 C20 1.803 . S
P0 C26 1.819 . S
H1 C15 0.941 . S
H2 C16 0.939 . S
H3 C18 0.940 . S
H4 C19 0.940 . S
H5 C21 0.939 . S
H6 C22 0.942 . S
H7 C24 0.940 . S
H8 C25 0.939 . S
H9 C27 0.941 . S
H10 C31 0.939 . S
O11 P0 1.490 . S
H12 C28 0.939 . S
H13 C30 0.940 . S
C14 P0 1.812 . S
C14 C15 1.389 . S
C14 C19 1.391 . S
C15 H1 0.941 . S
C15 C14 1.389 . S
C15 C16 1.397 . S
C16 H2 0.939 . S
C16 C15 1.397 . S
C16 C17 1.378 . S
C17 C16 1.378 . S
C17 C18 1.378 . S
C18 H3 0.940 . S
C18 C17 1.378 . S
C18 C19 1.396 . S
C19 H4 0.940 . S
C19 C14 1.391 . S
C19 C18 1.396 . S
C20 P0 1.803 . S
C20 C21 1.378 . S
C20 C25 1.400 . S
C21 H5 0.939 . S
C21 C20 1.378 . S
C21 C22 1.361 . S
C22 H6 0.942 . S
C22 C21 1.361 . S
C22 C23 1.369 . S
C23 C22 1.369 . S
C23 C24 1.404 . S
C24 H7 0.940 . S
C24 C23 1.404 . S
C24 C25 1.389 . S
C25 H8 0.939 . S
C25 C20 1.400 . S
C25 C24 1.389 . S
C26 P0 1.819 . S
C26 C27 1.391 . S
C26 C31 1.391 . S
C27 H9 0.941 . S
C27 C26 1.391 . S
C27 C28 1.396 . S
C28 H12 0.939 . S
C28 C27 1.396 . S
C28 C29 1.397 . S
C29 C28 1.397 . S
C29 C30 1.385 . S
C30 H13 0.940 . S
C30 C29 1.385 . S
C30 C31 1.388 . S
C31 H10 0.939 . S
C31 C26 1.391 . S
C31 C30 1.388 . S
P32 O43 1.490 . S
P32 C46 1.812 . S
P32 C52 1.803 . S
P32 C58 1.819 . S
H33 C47 0.941 . S
H34 C48 0.939 . S
H35 C50 0.940 . S
H36 C51 0.940 . S
H37 C53 0.939 . S
H38 C54 0.942 . S
H39 C56 0.940 . S
H40 C57 0.939 . S
H41 C59 0.941 . S
H42 C63 0.939 . S
O43 P32 1.490 . S
H44 C60 0.939 . S
H45 C62 0.940 . S
C46 P32 1.812 . S
C46 C47 1.389 . S
C46 C51 1.391 . S
C47 H33 0.941 . S
C47 C46 1.389 . S
C47 C48 1.397 . S
C48 H34 0.939 . S
C48 C47 1.397 . S
C48 C49 1.378 . S
C49 C48 1.378 . S
C49 C50 1.378 . S
C50 H35 0.940 . S
C50 C49 1.378 . S
C50 C51 1.396 . S
C51 H36 0.940 . S
C51 C46 1.391 . S
C51 C50 1.396 . S
C52 P32 1.803 . S
C52 C53 1.378 . S
C52 C57 1.400 . S
C53 H37 0.939 . S
C53 C52 1.378 . S
C53 C54 1.361 . S
C54 H38 0.942 . S
C54 C53 1.361 . S
C54 C55 1.369 . S
C55 C54 1.369 . S
C55 C56 1.404 . S
C56 H39 0.940 . S
C56 C55 1.404 . S
C56 C57 1.389 . S
C57 H40 0.939 . S
C57 C52 1.400 . S
C57 C56 1.389 . S
C58 P32 1.819 . S
C58 C59 1.391 . S
C58 C63 1.391 . S
C59 H41 0.941 . S
C59 C58 1.391 . S
C59 C60 1.396 . S
C60 H44 0.939 . S
C60 C59 1.396 . S
C60 C61 1.397 . S
C61 C60 1.397 . S
C61 C62 1.385 . S
C62 H45 0.940 . S
C62 C61 1.385 . S
C62 C63 1.388 . S
C63 H42 0.939 . S
C63 C58 1.391 . S
C63 C62 1.388 . S
P64 O75 1.490 . S
P64 C78 1.812 . S
P64 C84 1.803 . S
P64 C90 1.819 . S
H65 C79 0.941 . S
H66 C80 0.939 . S
H67 C82 0.940 . S
H68 C83 0.940 . S
H69 C85 0.939 . S
H70 C86 0.942 . S
H71 C88 0.940 . S
H72 C89 0.939 . S
H73 C91 0.941 . S
H74 C95 0.939 . S
O75 P64 1.490 . S
H76 C92 0.939 . S
H77 C94 0.940 . S
C78 P64 1.812 . S
C78 C79 1.389 . S
C78 C83 1.391 . S
C79 H65 0.941 . S
C79 C78 1.389 . S
C79 C80 1.397 . S
C80 H66 0.939 . S
C80 C79 1.397 . S
C80 C81 1.378 . S
C81 C80 1.378 . S
C81 C82 1.378 . S
C82 H67 0.940 . S
C82 C81 1.378 . S
C82 C83 1.396 . S
C83 H68 0.940 . S
C83 C78 1.391 . S
C83 C82 1.396 . S
C84 P64 1.803 . S
C84 C85 1.378 . S
C84 C89 1.400 . S
C85 H69 0.939 . S
C85 C84 1.378 . S
C85 C86 1.361 . S
C86 H70 0.942 . S
C86 C85 1.361 . S
C86 C87 1.369 . S
C87 C86 1.369 . S
C87 C88 1.404 . S
C88 H71 0.940 . S
C88 C87 1.404 . S
C88 C89 1.389 . S
C89 H72 0.939 . S
C89 C84 1.400 . S
C89 C88 1.389 . S
C90 P64 1.819 . S
C90 C91 1.391 . S
C90 C95 1.391 . S
C91 H73 0.941 . S
C91 C90 1.391 . S
C91 C92 1.396 . S
C92 H76 0.939 . S
C92 C91 1.396 . S
C92 C93 1.397 . S
C93 C92 1.397 . S
C93 C94 1.385 . S
C94 H77 0.940 . S
C94 C93 1.385 . S
C94 C95 1.388 . S
C95 H74 0.939 . S
C95 C90 1.391 . S
C95 C94 1.388 . S
P96 O107 1.490 . S
P96 C110 1.812 . S
P96 C116 1.803 . S
P96 C122 1.819 . S
H97 C111 0.941 . S
H98 C112 0.939 . S
H99 C114 0.940 . S
H100 C115 0.940 . S
H101 C117 0.939 . S
H102 C118 0.942 . S
H103 C120 0.940 . S
H104 C121 0.939 . S
H105 C123 0.941 . S
H106 C127 0.939 . S
O107 P96 1.490 . S
H108 C124 0.939 . S
H109 C126 0.940 . S
C110 P96 1.812 . S
C110 C111 1.389 . S
C110 C115 1.391 . S
C111 H97 0.941 . S
C111 C110 1.389 . S
C111 C112 1.397 . S
C112 H98 0.939 . S
C112 C111 1.397 . S
C112 C113 1.378 . S
C113 C112 1.378 . S
C113 C114 1.378 . S
C114 H99 0.940 . S
C114 C113 1.378 . S
C114 C115 1.396 . S
C115 H100 0.940 . S
C115 C110 1.391 . S
C115 C114 1.396 . S
C116 P96 1.803 . S
C116 C117 1.378 . S
C116 C121 1.400 . S
C117 H101 0.939 . S
C117 C116 1.378 . S
C117 C118 1.361 . S
C118 H102 0.942 . S
C118 C117 1.361 . S
C118 C119 1.369 . S
C119 C118 1.369 . S
C119 C120 1.404 . S
C120 H103 0.940 . S
C120 C119 1.404 . S
C120 C121 1.389 . S
C121 H104 0.939 . S
C121 C116 1.400 . S
C121 C120 1.389 . S
C122 P96 1.819 . S
C122 C123 1.391 . S
C122 C127 1.391 . S
C123 H105 0.941 . S
C123 C122 1.391 . S
C123 C124 1.396 . S
C124 H108 0.939 . S
C124 C123 1.396 . S
C124 C125 1.397 . S
C125 C124 1.397 . S
C125 C126 1.385 . S
C126 H109 0.940 . S
C126 C125 1.385 . S
C126 C127 1.388 . S
C127 H106 0.939 . S
C127 C122 1.391 . S
C127 C126 1.388 . S
P128 O139 1.490 . S
P128 C142 1.812 . S
P128 C148 1.803 . S
P128 C154 1.819 . S
H129 C143 0.941 . S
H130 C144 0.939 . S
H131 C146 0.940 . S
H132 C147 0.940 . S
H133 C149 0.939 . S
H134 C150 0.942 . S
H135 C152 0.940 . S
H136 C153 0.939 . S
H137 C155 0.941 . S
H138 C159 0.939 . S
O139 P128 1.490 . S
H140 C156 0.939 . S
H141 C158 0.940 . S
C142 P128 1.812 . S
C142 C143 1.389 . S
C142 C147 1.391 . S
C143 H129 0.941 . S
C143 C142 1.389 . S
C143 C144 1.397 . S
C144 H130 0.939 . S
C144 C143 1.397 . S
C144 C145 1.378 . S
C145 C144 1.378 . S
C145 C146 1.378 . S
C146 H131 0.940 . S
C146 C145 1.378 . S
C146 C147 1.396 . S
C147 H132 0.940 . S
C147 C142 1.391 . S
C147 C146 1.396 . S
C148 P128 1.803 . S
C148 C149 1.378 . S
C148 C153 1.400 . S
C149 H133 0.939 . S
C149 C148 1.378 . S
C149 C150 1.361 . S
C150 H134 0.942 . S
C150 C149 1.361 . S
C150 C151 1.369 . S
C151 C150 1.369 . S
C151 C152 1.404 . S
C152 H135 0.940 . S
C152 C151 1.404 . S
C152 C153 1.389 . S
C153 H136 0.939 . S
C153 C148 1.400 . S
C153 C152 1.389 . S
C154 P128 1.819 . S
C154 C155 1.391 . S
C154 C159 1.391 . S
C155 H137 0.941 . S
C155 C154 1.391 . S
C155 C156 1.396 . S
C156 H140 0.939 . S
C156 C155 1.396 . S
C156 C157 1.397 . S
C157 C156 1.397 . S
C157 C158 1.385 . S
C158 H141 0.940 . S
C158 C157 1.385 . S
C158 C159 1.388 . S
C159 H138 0.939 . S
C159 C154 1.391 . S
C159 C158 1.388 . S
P160 O171 1.490 . S
P160 C174 1.812 . S
P160 C180 1.803 . S
P160 C186 1.819 . S
H161 C175 0.941 . S
H162 C176 0.939 . S
H163 C178 0.940 . S
H164 C179 0.940 . S
H165 C181 0.939 . S
H166 C182 0.942 . S
H167 C184 0.940 . S
H168 C185 0.939 . S
H169 C187 0.941 . S
H170 C191 0.939 . S
O171 P160 1.490 . S
H172 C188 0.939 . S
H173 C190 0.940 . S
C174 P160 1.812 . S
C174 C175 1.389 . S
C174 C179 1.391 . S
C175 H161 0.941 . S
C175 C174 1.389 . S
C175 C176 1.397 . S
C176 H162 0.939 . S
C176 C175 1.397 . S
C176 C177 1.378 . S
C177 C176 1.378 . S
C177 C178 1.378 . S
C178 H163 0.940 . S
C178 C177 1.378 . S
C178 C179 1.396 . S
C179 H164 0.940 . S
C179 C174 1.391 . S
C179 C178 1.396 . S
C180 P160 1.803 . S
C180 C181 1.378 . S
C180 C185 1.400 . S
C181 H165 0.939 . S
C181 C180 1.378 . S
C181 C182 1.361 . S
C182 H166 0.942 . S
C182 C181 1.361 . S
C182 C183 1.369 . S
C183 C182 1.369 . S
C183 C184 1.404 . S
C184 H167 0.940 . S
C184 C183 1.404 . S
C184 C185 1.389 . S
C185 H168 0.939 . S
C185 C180 1.400 . S
C185 C184 1.389 . S
C186 P160 1.819 . S
C186 C187 1.391 . S
C186 C191 1.391 . S
C187 H169 0.941 . S
C187 C186 1.391 . S
C187 C188 1.396 . S
C188 H172 0.939 . S
C188 C187 1.396 . S
C188 C189 1.397 . S
C189 C188 1.397 . S
C189 C190 1.385 . S
C190 H173 0.940 . S
C190 C189 1.385 . S
C190 C191 1.388 . S
C191 H170 0.939 . S
C191 C186 1.391 . S
C191 C190 1.388 . S
P192 O203 1.490 . S
P192 C206 1.812 . S
P192 C212 1.803 . S
P192 C218 1.819 . S
H193 C207 0.941 . S
H194 C208 0.939 . S
H195 C210 0.940 . S
H196 C211 0.940 . S
H197 C213 0.939 . S
H198 C214 0.942 . S
H199 C216 0.940 . S
H200 C217 0.939 . S
H201 C219 0.941 . S
H202 C223 0.939 . S
O203 P192 1.490 . S
H204 C220 0.939 . S
H205 C222 0.940 . S
C206 P192 1.812 . S
C206 C207 1.389 . S
C206 C211 1.391 . S
C207 H193 0.941 . S
C207 C206 1.389 . S
C207 C208 1.397 . S
C208 H194 0.939 . S
C208 C207 1.397 . S
C208 C209 1.378 . S
C209 C208 1.378 . S
C209 C210 1.378 . S
C210 H195 0.940 . S
C210 C209 1.378 . S
C210 C211 1.396 . S
C211 H196 0.940 . S
C211 C206 1.391 . S
C211 C210 1.396 . S
C212 P192 1.803 . S
C212 C213 1.378 . S
C212 C217 1.400 . S
C213 H197 0.939 . S
C213 C212 1.378 . S
C213 C214 1.361 . S
C214 H198 0.942 . S
C214 C213 1.361 . S
C214 C215 1.369 . S
C215 C214 1.369 . S
C215 C216 1.404 . S
C216 H199 0.940 . S
C216 C215 1.404 . S
C216 C217 1.389 . S
C217 H200 0.939 . S
C217 C212 1.400 . S
C217 C216 1.389 . S
C218 P192 1.819 . S
C218 C219 1.391 . S
C218 C223 1.391 . S
C219 H201 0.941 . S
C219 C218 1.391 . S
C219 C220 1.396 . S
C220 H204 0.939 . S
C220 C219 1.396 . S
C220 C221 1.397 . S
C221 C220 1.397 . S
C221 C222 1.385 . S
C222 H205 0.940 . S
C222 C221 1.385 . S
C222 C223 1.388 . S
C223 H202 0.939 . S
C223 C218 1.391 . S
C223 C222 1.388 . S
P224 O235 1.490 . S
P224 C238 1.812 . S
P224 C244 1.803 . S
P224 C250 1.819 . S
H225 C239 0.941 . S
H226 C240 0.939 . S
H227 C242 0.940 . S
H228 C243 0.940 . S
H229 C245 0.939 . S
H230 C246 0.942 . S
H231 C248 0.940 . S
H232 C249 0.939 . S
H233 C251 0.941 . S
H234 C255 0.939 . S
O235 P224 1.490 . S
H236 C252 0.939 . S
H237 C254 0.940 . S
C238 P224 1.812 . S
C238 C239 1.389 . S
C238 C243 1.391 . S
C239 H225 0.941 . S
C239 C238 1.389 . S
C239 C240 1.397 . S
C240 H226 0.939 . S
C240 C239 1.397 . S
C240 C241 1.378 . S
C241 C240 1.378 . S
C241 C242 1.378 . S
C242 H227 0.940 . S
C242 C241 1.378 . S
C242 C243 1.396 . S
C243 H228 0.940 . S
C243 C238 1.391 . S
C243 C242 1.396 . S
C244 P224 1.803 . S
C244 C245 1.378 . S
C244 C249 1.400 . S
C245 H229 0.939 . S
C245 C244 1.378 . S
C245 C246 1.361 . S
C246 H230 0.942 . S
C246 C245 1.361 . S
C246 C247 1.369 . S
C247 C246 1.369 . S
C247 C248 1.404 . S
C248 H231 0.940 . S
C248 C247 1.404 . S
C248 C249 1.389 . S
C249 H232 0.939 . S
C249 C244 1.400 . S
C249 C248 1.389 . S
C250 P224 1.819 . S
C250 C251 1.391 . S
C250 C255 1.391 . S
C251 H233 0.941 . S
C251 C250 1.391 . S
C251 C252 1.396 . S
C252 H236 0.939 . S
C252 C251 1.396 . S
C252 C253 1.397 . S
C253 C252 1.397 . S
C253 C254 1.385 . S
C254 H237 0.940 . S
C254 C253 1.385 . S
C254 C255 1.388 . S
C255 H234 0.939 . S
C255 C250 1.391 . S
C255 C254 1.388 . S
Dy256 O260 2.398 . S
Dy256 O261 2.491 . S
Dy256 O262 2.403 1_545 S
Dy256 O263 2.664 1_545 S
Dy256 O267 2.326 . S
Dy256 O271 2.310 1_455 S
Dy256 O272 2.351 1_445 S
C257 O268 1.185 . S
C257 O269 1.355 . S
C258 O260 1.185 . S
C258 O261 1.355 . S
Dy259 O263 2.310 1_655 S
Dy259 O266 2.351 1_665 S
Dy259 O268 2.398 . S
Dy259 O269 2.491 . S
Dy259 O270 2.403 1_565 S
Dy259 O271 2.664 1_565 S
Dy259 O273 2.326 . S
O260 Dy256 2.398 . S
O260 C258 1.185 . S
O261 Dy256 2.491 . S
O261 C258 1.355 . S
O262 Dy256 2.403 1_565 S
O262 C264 1.254 . S
O263 Dy256 2.664 1_565 S
O263 Dy259 2.310 1_455 S
O263 C264 1.268 . S
C264 O262 1.254 . S
C264 O263 1.268 . S
C265 O270 1.254 . S
C265 O271 1.268 . S
O266 Dy259 2.351 1_445 S
O266 C274 1.249 . S
O267 Dy256 2.326 . S
O267 C274 1.267 . S
O268 C257 1.185 . S
O268 Dy259 2.398 . S
O269 C257 1.355 . S
O269 Dy259 2.491 . S
O270 Dy259 2.403 1_545 S
O270 C265 1.254 . S
O271 Dy256 2.310 1_655 S
O271 Dy259 2.664 1_545 S
O271 C265 1.268 . S
O272 Dy256 2.351 1_665 S
O272 C275 1.249 . S
O273 Dy259 2.326 . S
O273 C275 1.267 . S
C274 O266 1.249 . S
C274 O267 1.267 . S
C275 O272 1.249 . S
C275 O273 1.267 . S
Dy276 O280 2.398 . S
Dy276 O281 2.491 . S
Dy276 O282 2.403 1_545 S
Dy276 O283 2.664 1_545 S
Dy276 O287 2.326 . S
Dy276 O291 2.331 . S
Dy276 O292 2.351 1_544 S
C277 O288 1.185 . S
C277 O289 1.355 . S
C278 O280 1.185 . S
C278 O281 1.355 . S
Dy279 O283 2.310 1_546 S
Dy279 O286 2.351 1_556 S
Dy279 O288 2.398 1_545 S
Dy279 O289 2.491 1_545 S
Dy279 O290 2.403 . S
Dy279 O291 2.651 1_556 S
Dy279 O293 2.326 1_545 S
O280 Dy276 2.398 . S
O280 C278 1.185 . S
O281 Dy276 2.491 . S
O281 C278 1.355 . S
O282 Dy276 2.403 1_565 S
O282 C284 1.254 . S
O283 Dy276 2.664 1_565 S
O283 Dy279 2.310 1_564 S
O283 C284 1.268 . S
C284 O282 1.254 . S
C284 O283 1.268 . S
C285 O290 1.254 . S
C285 O291 1.245 1_556 S
O286 Dy279 2.351 1_554 S
O286 C294 1.249 . S
O287 Dy276 2.326 . S
O287 C294 1.267 . S
O288 C277 1.185 . S
O288 Dy279 2.398 1_565 S
O289 C277 1.355 . S
O289 Dy279 2.491 1_565 S
O290 Dy279 2.403 . S
O290 C285 1.254 . S
O291 Dy276 2.331 . S
O291 Dy279 2.651 1_554 S
O291 C285 1.245 1_554 S
O292 Dy276 2.351 1_566 S
O292 C295 1.249 . S
O293 Dy279 2.326 1_565 S
O293 C295 1.267 . S
C294 O286 1.249 . S
C294 O287 1.267 . S
C295 O292 1.249 . S
C295 O293 1.267 . S
Dy296 O300 2.398 . S
Dy296 O301 2.491 . S
Dy296 O302 2.403 . S
Dy296 O303 2.664 . S
Dy296 O307 2.326 . S
Dy296 O311 2.310 . S
Dy296 O312 2.351 . S
C297 O308 1.185 . S
C297 O309 1.355 . S
C298 O300 1.185 . S
C298 O301 1.355 . S
Dy299 O303 2.310 . S
Dy299 O306 2.351 . S
Dy299 O308 2.398 . S
Dy299 O309 2.491 . S
Dy299 O310 2.403 . S
Dy299 O311 2.664 . S
Dy299 O313 2.326 . S
O300 Dy296 2.398 . S
O300 C298 1.185 . S
O301 Dy296 2.491 . S
O301 C298 1.355 . S
O302 Dy296 2.403 . S
O302 C304 1.254 . S
O303 Dy296 2.664 . S
O303 Dy299 2.310 . S
O303 C304 1.268 . S
C304 O302 1.254 . S
C304 O303 1.268 . S
C305 O310 1.254 . S
C305 O311 1.268 . S
O306 Dy299 2.351 . S
O306 C314 1.249 . S
O307 Dy296 2.326 . S
O307 C314 1.267 . S
O308 C297 1.185 . S
O308 Dy299 2.398 . S
O309 C297 1.355 . S
O309 Dy299 2.491 . S
O310 Dy299 2.403 . S
O310 C305 1.254 . S
O311 Dy296 2.310 . S
O311 Dy299 2.664 . S
O311 C305 1.268 . S
O312 Dy296 2.351 . S
O312 C315 1.249 . S
O313 Dy299 2.326 . S
O313 C315 1.267 . S
C314 O306 1.249 . S
C314 O307 1.267 . S
C315 O312 1.249 . S
C315 O313 1.267 . S
Dy316 O320 2.398 . S
Dy316 O321 2.491 . S
Dy316 O322 2.403 1_455 S
Dy316 O323 2.664 1_455 S
Dy316 O327 2.326 . S
Dy316 O331 2.310 1_554 S
Dy316 O332 2.351 1_454 S
C317 O328 1.185 . S
C317 O329 1.355 . S
C318 O320 1.185 . S
C318 O321 1.355 . S
Dy319 O323 2.310 1_556 S
Dy319 O326 2.351 1_656 S
Dy319 O328 2.398 . S
Dy319 O329 2.491 . S
Dy319 O330 2.403 1_655 S
Dy319 O331 2.664 1_655 S
Dy319 O333 2.326 . S
O320 Dy316 2.398 . S
O320 C318 1.185 . S
O321 Dy316 2.491 . S
O321 C318 1.355 . S
O322 Dy316 2.403 1_655 S
O322 C324 1.254 . S
O323 Dy316 2.664 1_655 S
O323 Dy319 2.310 1_554 S
O323 C324 1.268 . S
C324 O322 1.254 . S
C324 O323 1.268 . S
C325 O330 1.254 . S
C325 O331 1.268 . S
O326 Dy319 2.351 1_454 S
O326 C334 1.249 . S
O327 Dy316 2.326 . S
O327 C334 1.267 . S
O328 C317 1.185 . S
O328 Dy319 2.398 . S
O329 C317 1.355 . S
O329 Dy319 2.491 . S
O330 Dy319 2.403 1_455 S
O330 C325 1.254 . S
O331 Dy316 2.310 1_556 S
O331 Dy319 2.664 1_455 S
O331 C325 1.268 . S
O332 Dy316 2.351 1_656 S
O332 C335 1.249 . S
O333 Dy319 2.326 . S
O333 C335 1.267 . S
C334 O326 1.249 . S
C334 O327 1.267 . S
C335 O332 1.249 . S
C335 O333 1.267 . S
H336 C342 0.930 . S
H337 C345 0.930 . S
H338 C346 0.930 . S
H339 C347 0.930 . S
H340 C350 0.930 . S
H341 C351 0.930 . S
C342 H336 0.930 . S
C342 C343 1.355 . S
C342 C344 1.415 . S
C343 C342 1.355 . S
C343 C345 1.419 . S
C344 C342 1.415 . S
C344 C349 1.425 . S
C344 C351 1.409 . S
C345 H337 0.930 . S
C345 C343 1.419 . S
C345 C346 1.362 . S
C346 H338 0.930 . S
C346 C345 1.362 . S
C346 C349 1.409 . S
C347 H339 0.930 . S
C347 C348 1.355 . S
C347 C349 1.415 . S
C348 C347 1.355 . S
C348 C350 1.419 . S
C349 C344 1.425 . S
C349 C346 1.409 . S
C349 C347 1.415 . S
C350 H340 0.930 . S
C350 C348 1.419 . S
C350 C351 1.362 . S
C351 H341 0.930 . S
C351 C344 1.409 . S
C351 C350 1.362 . S
H352 C358 0.930 . S
H353 C361 0.930 . S
H354 C362 0.930 . S
H355 C363 0.930 . S
H356 C366 0.930 . S
H357 C367 0.930 . S
C358 H352 0.930 . S
C358 C359 1.355 . S
C358 C360 1.415 . S
C359 C358 1.355 . S
C359 C361 1.419 . S
C360 C358 1.415 . S
C360 C365 1.425 . S
C360 C367 1.409 . S
C361 H353 0.930 . S
C361 C359 1.419 . S
C361 C362 1.362 . S
C362 H354 0.930 . S
C362 C361 1.362 . S
C362 C365 1.409 . S
C363 H355 0.930 . S
C363 C364 1.355 . S
C363 C365 1.415 . S
C364 C363 1.355 . S
C364 C366 1.419 . S
C365 C360 1.425 . S
C365 C362 1.409 . S
C365 C363 1.415 . S
C366 H356 0.930 . S
C366 C364 1.419 . S
C366 C367 1.362 . S
C367 H357 0.930 . S
C367 C360 1.409 . S
C367 C366 1.362 . S
H368 C374 0.930 . S
H369 C377 0.930 . S
H370 C378 0.930 . S
H371 C379 0.930 . S
H372 C382 0.930 . S
H373 C383 0.930 . S
C374 H368 0.930 . S
C374 C375 1.355 . S
C374 C376 1.415 . S
C375 C374 1.355 . S
C375 C377 1.419 . S
C376 C374 1.415 . S
C376 C381 1.425 . S
C376 C383 1.409 . S
C377 H369 0.930 . S
C377 C375 1.419 . S
C377 C378 1.362 . S
C378 H370 0.930 . S
C378 C377 1.362 . S
C378 C381 1.409 . S
C379 H371 0.930 . S
C379 C380 1.355 . S
C379 C381 1.415 . S
C380 C379 1.355 . S
C380 C382 1.419 . S
C381 C376 1.425 . S
C381 C378 1.409 . S
C381 C379 1.415 . S
C382 H372 0.930 . S
C382 C380 1.419 . S
C382 C383 1.362 . S
C383 H373 0.930 . S
C383 C376 1.409 . S
C383 C382 1.362 . S
H384 C390 0.930 . S
H385 C393 0.930 . S
H386 C394 0.930 . S
H387 C395 0.930 . S
H388 C398 0.930 . S
H389 C399 0.930 . S
C390 H384 0.930 . S
C390 C391 1.355 . S
C390 C392 1.415 . S
C391 C390 1.355 . S
C391 C393 1.419 . S
C392 C390 1.415 . S
C392 C397 1.425 . S
C392 C399 1.409 . S
C393 H385 0.930 . S
C393 C391 1.419 . S
C393 C394 1.362 . S
C394 H386 0.930 . S
C394 C393 1.362 . S
C394 C397 1.409 . S
C395 H387 0.930 . S
C395 C396 1.355 . S
C395 C397 1.415 . S
C396 C395 1.355 . S
C396 C398 1.419 . S
C397 C392 1.425 . S
C397 C394 1.409 . S
C397 C395 1.415 . S
C398 H388 0.930 . S
C398 C396 1.419 . S
C398 C399 1.362 . S
C399 H389 0.930 . S
C399 C392 1.409 . S
C399 C398 1.362 . S
H400 C406 0.930 . S
H401 C409 0.930 . S
H402 C410 0.930 . S
H403 C411 0.930 . S
H404 C414 0.930 . S
H405 C415 0.930 . S
C406 H400 0.930 . S
C406 C407 1.355 . S
C406 C408 1.415 . S
C407 C406 1.355 . S
C407 C409 1.419 . S
C408 C406 1.415 . S
C408 C413 1.425 . S
C408 C415 1.409 . S
C409 H401 0.930 . S
C409 C407 1.419 . S
C409 C410 1.362 . S
C410 H402 0.930 . S
C410 C409 1.362 . S
C410 C413 1.409 . S
C411 H403 0.930 . S
C411 C412 1.355 . S
C411 C413 1.415 . S
C412 C411 1.355 . S
C412 C414 1.419 . S
C413 C408 1.425 . S
C413 C410 1.409 . S
C413 C411 1.415 . S
C414 H404 0.930 . S
C414 C412 1.419 . S
C414 C415 1.362 . S
C415 H405 0.930 . S
C415 C408 1.409 . S
C415 C414 1.362 . S
H416 C422 0.930 . S
H417 C425 0.930 . S
H418 C426 0.930 . S
H419 C427 0.930 . S
H420 C430 0.930 . S
H421 C431 0.930 . S
C422 H416 0.930 . S
C422 C423 1.355 . S
C422 C424 1.415 . S
C423 C422 1.355 . S
C423 C425 1.419 . S
C424 C422 1.415 . S
C424 C429 1.425 . S
C424 C431 1.409 . S
C425 H417 0.930 . S
C425 C423 1.419 . S
C425 C426 1.362 . S
C426 H418 0.930 . S
C426 C425 1.362 . S
C426 C429 1.409 . S
C427 H419 0.930 . S
C427 C428 1.355 . S
C427 C429 1.415 . S
C428 C427 1.355 . S
C428 C430 1.419 . S
C429 C424 1.425 . S
C429 C426 1.409 . S
C429 C427 1.415 . S
C430 H420 0.930 . S
C430 C428 1.419 . S
C430 C431 1.362 . S
C431 H421 0.930 . S
C431 C424 1.409 . S
C431 C430 1.362 . S
H432 C438 0.930 . S
H433 C441 0.930 . S
H434 C442 0.930 . S
H435 C443 0.930 . S
H436 C446 0.930 . S
H437 C447 0.930 . S
C438 H432 0.930 . S
C438 C439 1.355 . S
C438 C440 1.415 . S
C439 C438 1.355 . S
C439 C441 1.419 . S
C440 C438 1.415 . S
C440 C445 1.425 . S
C440 C447 1.409 . S
C441 H433 0.930 . S
C441 C439 1.419 . S
C441 C442 1.362 . S
C442 H434 0.930 . S
C442 C441 1.362 . S
C442 C445 1.409 . S
C443 H435 0.930 . S
C443 C444 1.355 . S
C443 C445 1.415 . S
C444 C443 1.355 . S
C444 C446 1.419 . S
C445 C440 1.425 . S
C445 C442 1.409 . S
C445 C443 1.415 . S
C446 H436 0.930 . S
C446 C444 1.419 . S
C446 C447 1.362 . S
C447 H437 0.930 . S
C447 C440 1.409 . S
C447 C446 1.362 . S
H448 C454 0.930 . S
H449 C457 0.930 . S
H450 C458 0.930 . S
H451 C459 0.930 . S
H452 C462 0.930 . S
H453 C463 0.930 . S
C454 H448 0.930 . S
C454 C455 1.355 . S
C454 C456 1.415 . S
C455 C454 1.355 . S
C455 C457 1.419 . S
C456 C454 1.415 . S
C456 C461 1.425 . S
C456 C463 1.409 . S
C457 H449 0.930 . S
C457 C455 1.419 . S
C457 C458 1.362 . S
C458 H450 0.930 . S
C458 C457 1.362 . S
C458 C461 1.409 . S
C459 H451 0.930 . S
C459 C460 1.355 . S
C459 C461 1.415 . S
C460 C459 1.355 . S
C460 C462 1.419 . S
C461 C456 1.425 . S
C461 C458 1.409 . S
C461 C459 1.415 . S
C462 H452 0.930 . S
C462 C460 1.419 . S
C462 C463 1.362 . S
C463 H453 0.930 . S
C463 C456 1.409 . S
C463 C462 1.362 . S
H464 C470 0.930 . S
H465 C473 0.930 . S
H466 C474 0.930 . S
H467 C475 0.930 . S
H468 C478 0.930 . S
H469 C479 0.930 . S
C470 H464 0.930 . S
C470 C471 1.355 . S
C470 C472 1.415 . S
C471 C470 1.355 . S
C471 C473 1.419 . S
C472 C470 1.415 . S
C472 C477 1.425 . S
C472 C479 1.409 . S
C473 H465 0.930 . S
C473 C471 1.419 . S
C473 C474 1.362 . S
C474 H466 0.930 . S
C474 C473 1.362 . S
C474 C477 1.409 . S
C475 H467 0.930 . S
C475 C476 1.355 . S
C475 C477 1.415 . S
C476 C475 1.355 . S
C476 C478 1.419 . S
C477 C472 1.425 . S
C477 C474 1.409 . S
C477 C475 1.415 . S
C478 H468 0.930 . S
C478 C476 1.419 . S
C478 C479 1.362 . S
C479 H469 0.930 . S
C479 C472 1.409 . S
C479 C478 1.362 . S
H480 C486 0.930 . S
H481 C489 0.930 . S
H482 C490 0.930 . S
H483 C491 0.930 . S
H484 C494 0.930 1_554 S
H485 C495 0.930 . S
C486 H480 0.930 . S
C486 C487 1.355 . S
C486 C488 1.415 . S
C487 C486 1.355 . S
C487 C489 1.419 . S
C488 C486 1.415 . S
C488 C493 1.425 . S
C488 C495 1.409 . S
C489 H481 0.930 . S
C489 C487 1.419 . S
C489 C490 1.362 . S
C490 H482 0.930 . S
C490 C489 1.362 . S
C490 C493 1.409 . S
C491 H483 0.930 . S
C491 C492 1.355 . S
C491 C493 1.415 . S
C492 C491 1.355 . S
C492 C494 1.419 . S
C493 C488 1.425 . S
C493 C490 1.409 . S
C493 C491 1.415 . S
C494 H484 0.930 1_556 S
C494 C492 1.419 . S
C494 C495 1.362 . S
C495 H485 0.930 . S
C495 C488 1.409 . S
C495 C494 1.362 . S
H496 C502 0.930 . S
H497 C505 0.930 . S
H498 C506 0.930 . S
H499 C507 0.930 . S
H500 C510 0.930 . S
H501 C511 0.930 . S
C502 H496 0.930 . S
C502 C503 1.355 . S
C502 C504 1.415 . S
C503 C502 1.355 . S
C503 C505 1.419 . S
C504 C502 1.415 . S
C504 C509 1.425 . S
C504 C511 1.409 . S
C505 H497 0.930 . S
C505 C503 1.419 . S
C505 C506 1.362 . S
C506 H498 0.930 . S
C506 C505 1.362 . S
C506 C509 1.409 . S
C507 H499 0.930 . S
C507 C508 1.355 . S
C507 C509 1.415 . S
C508 C507 1.355 . S
C508 C510 1.419 . S
C509 C504 1.425 . S
C509 C506 1.409 . S
C509 C507 1.415 . S
C510 H500 0.930 . S
C510 C508 1.419 . S
C510 C511 1.362 . S
C511 H501 0.930 . S
C511 C504 1.409 . S
C511 C510 1.362 . S
H512 C518 0.930 . S
H513 C521 0.930 . S
H514 C522 0.930 . S
H515 C523 0.930 . S
H516 C526 0.930 . S
H517 C527 0.930 . S
C518 H512 0.930 . S
C518 C519 1.355 . S
C518 C520 1.415 . S
C519 C518 1.355 . S
C519 C521 1.419 . S
C520 C518 1.415 . S
C520 C525 1.425 . S
C520 C527 1.409 . S
C521 H513 0.930 . S
C521 C519 1.419 . S
C521 C522 1.362 . S
C522 H514 0.930 . S
C522 C521 1.362 . S
C522 C525 1.409 . S
C523 H515 0.930 . S
C523 C524 1.355 . S
C523 C525 1.415 . S
C524 C523 1.355 . S
C524 C526 1.419 . S
C525 C520 1.425 . S
C525 C522 1.409 . S
C525 C523 1.415 . S
C526 H516 0.930 . S
C526 C524 1.419 . S
C526 C527 1.362 . S
C527 H517 0.930 . S
C527 C520 1.409 . S
C527 C526 1.362 . S
H528 C534 0.930 . S
H529 C537 0.930 . S
H530 C538 0.930 . S
H531 C539 0.930 . S
H532 C542 0.930 . S
H533 C543 0.930 . S
C534 H528 0.930 . S
C534 C535 1.355 . S
C534 C536 1.415 . S
C535 C534 1.355 . S
C535 C537 1.419 . S
C536 C534 1.415 . S
C536 C541 1.425 . S
C536 C543 1.409 . S
C537 H529 0.930 . S
C537 C535 1.419 . S
C537 C538 1.362 . S
C538 H530 0.930 . S
C538 C537 1.362 . S
C538 C541 1.409 . S
C539 H531 0.930 . S
C539 C540 1.355 . S
C539 C541 1.415 . S
C540 C539 1.355 . S
C540 C542 1.419 . S
C541 C536 1.425 . S
C541 C538 1.409 . S
C541 C539 1.415 . S
C542 H532 0.930 . S
C542 C540 1.419 . S
C542 C543 1.362 . S
C543 H533 0.930 . S
C543 C536 1.409 . S
C543 C542 1.362 . S
H544 C550 0.930 . S
H545 C553 0.930 . S
H546 C554 0.930 . S
H547 C555 0.930 . S
H548 C558 0.930 . S
H549 C559 0.930 . S
C550 H544 0.930 . S
C550 C551 1.355 . S
C550 C552 1.415 . S
C551 C550 1.355 . S
C551 C553 1.419 . S
C552 C550 1.415 . S
C552 C557 1.425 . S
C552 C559 1.409 . S
C553 H545 0.930 . S
C553 C551 1.419 . S
C553 C554 1.362 . S
C554 H546 0.930 . S
C554 C553 1.362 . S
C554 C557 1.409 . S
C555 H547 0.930 . S
C555 C556 1.355 . S
C555 C557 1.415 . S
C556 C555 1.355 . S
C556 C558 1.419 . S
C557 C552 1.425 . S
C557 C554 1.409 . S
C557 C555 1.415 . S
C558 H548 0.930 . S
C558 C556 1.419 . S
C558 C559 1.362 . S
C559 H549 0.930 . S
C559 C552 1.409 . S
C559 C558 1.362 . S
H560 C566 0.930 . S
H561 C569 0.930 . S
H562 C570 0.930 . S
H563 C571 0.930 . S
H564 C574 0.930 . S
H565 C575 0.930 . S
C566 H560 0.930 . S
C566 C567 1.355 . S
C566 C568 1.415 . S
C567 C566 1.355 . S
C567 C569 1.419 . S
C568 C566 1.415 . S
C568 C573 1.425 . S
C568 C575 1.409 . S
C569 H561 0.930 . S
C569 C567 1.419 . S
C569 C570 1.362 . S
C570 H562 0.930 . S
C570 C569 1.362 . S
C570 C573 1.409 . S
C571 H563 0.930 . S
C571 C572 1.355 . S
C571 C573 1.415 . S
C572 C571 1.355 . S
C572 C574 1.419 . S
C573 C568 1.425 . S
C573 C570 1.409 . S
C573 C571 1.415 . S
C574 H564 0.930 . S
C574 C572 1.419 . S
C574 C575 1.362 . S
C575 H565 0.930 . S
C575 C568 1.409 . S
C575 C574 1.362 . S
H576 C582 0.930 . S
H577 C585 0.930 . S
H578 C586 0.930 . S
H579 C587 0.930 . S
H580 C590 0.930 1_655 S
H581 C591 0.955 . S
C582 H576 0.930 . S
C582 C583 1.355 . S
C582 C584 1.415 . S
C583 C582 1.355 . S
C583 C585 1.419 . S
C584 C582 1.415 . S
C584 C589 1.425 . S
C584 C591 1.409 . S
C585 H577 0.930 . S
C585 C583 1.419 . S
C585 C586 1.362 . S
C586 H578 0.930 . S
C586 C585 1.362 . S
C586 C589 1.409 . S
C587 H579 0.930 . S
C587 C588 1.355 . S
C587 C589 1.415 . S
C588 C587 1.355 . S
C588 C590 1.419 . S
C589 C584 1.425 . S
C589 C586 1.409 . S
C589 C587 1.415 . S
C590 H580 0.930 1_455 S
C590 C588 1.419 . S
C590 C591 1.362 . S
C591 H581 0.955 . S
C591 C584 1.409 . S
C591 C590 1.362 . S
H592 C598 0.930 . S
H593 C601 0.930 . S
H594 C602 0.930 . S
H595 C603 0.930 . S
H596 C606 0.930 . S
H597 C607 0.930 . S
C598 H592 0.930 . S
C598 C599 1.355 . S
C598 C600 1.415 . S
C599 C598 1.355 . S
C599 C601 1.419 . S
C600 C598 1.415 . S
C600 C605 1.425 . S
C600 C607 1.409 . S
C601 H593 0.930 . S
C601 C599 1.419 . S
C601 C602 1.362 . S
C602 H594 0.930 . S
C602 C601 1.362 . S
C602 C605 1.409 . S
C603 H595 0.930 . S
C603 C604 1.355 . S
C603 C605 1.415 . S
C604 C603 1.355 . S
C604 C606 1.419 . S
C605 C600 1.425 . S
C605 C602 1.409 . S
C605 C603 1.415 . S
C606 H596 0.930 . S
C606 C604 1.419 . S
C606 C607 1.362 . S
C607 H597 0.930 . S
C607 C600 1.409 . S
C607 C606 1.362 . S
H608 C614 0.930 . S
H609 C617 0.930 . S
H610 C618 0.930 . S
H611 C619 0.930 . S
H612 C622 0.930 . S
H613 C623 0.930 . S
C614 H608 0.930 . S
C614 C615 1.355 . S
C614 C616 1.415 . S
C615 C614 1.355 . S
C615 C617 1.419 . S
C616 C614 1.415 . S
C616 C621 1.425 . S
C616 C623 1.409 . S
C617 H609 0.930 . S
C617 C615 1.419 . S
C617 C618 1.362 . S
C618 H610 0.930 . S
C618 C617 1.362 . S
C618 C621 1.409 . S
C619 H611 0.930 . S
C619 C620 1.355 . S
C619 C621 1.415 . S
C620 C619 1.355 . S
C620 C622 1.419 . S
C621 C616 1.425 . S
C621 C618 1.409 . S
C621 C619 1.415 . S
C622 H612 0.930 . S
C622 C620 1.419 . S
C622 C623 1.362 . S
C623 H613 0.930 . S
C623 C616 1.409 . S
C623 C622 1.362 . S
H624 C630 0.930 . S
H625 C633 0.930 . S
H626 C634 0.930 . S
H627 C635 0.930 . S
H628 C638 0.930 1_556 S
H629 C639 0.930 . S
C630 H624 0.930 . S
C630 C631 1.355 . S
C630 C632 1.415 . S
C631 C630 1.355 . S
C631 C633 1.419 . S
C632 C630 1.415 . S
C632 C637 1.425 . S
C632 C639 1.409 . S
C633 H625 0.930 . S
C633 C631 1.419 . S
C633 C634 1.362 . S
C634 H626 0.930 . S
C634 C633 1.362 . S
C634 C637 1.409 . S
C635 H627 0.930 . S
C635 C636 1.355 . S
C635 C637 1.415 . S
C636 C635 1.355 . S
C636 C638 1.419 . S
C637 C632 1.425 . S
C637 C634 1.409 . S
C637 C635 1.415 . S
C638 H628 0.930 1_554 S
C638 C636 1.419 . S
C638 C639 1.362 . S
C639 H629 0.930 . S
C639 C632 1.409 . S
C639 C638 1.362 . S
H640 C646 0.930 . S
H641 C649 0.930 . S
H642 C650 0.930 . S
H643 C651 0.930 . S
H644 C654 0.930 . S
H645 C655 0.930 . S
C646 H640 0.930 . S
C646 C647 1.355 . S
C646 C648 1.415 . S
C647 C646 1.355 . S
C647 C649 1.419 . S
C648 C646 1.415 . S
C648 C653 1.425 . S
C648 C655 1.409 . S
C649 H641 0.930 . S
C649 C647 1.419 . S
C649 C650 1.362 . S
C650 H642 0.930 . S
C650 C649 1.362 . S
C650 C653 1.409 . S
C651 H643 0.930 . S
C651 C652 1.355 . S
C651 C653 1.415 . S
C652 C651 1.355 . S
C652 C654 1.419 . S
C653 C648 1.425 . S
C653 C650 1.409 . S
C653 C651 1.415 . S
C654 H644 0.930 . S
C654 C652 1.419 . S
C654 C655 1.362 . S
C655 H645 0.930 . S
C655 C648 1.409 . S
C655 C654 1.362 . S
H656 C662 0.930 . S
H657 C665 0.930 . S
H658 C666 0.930 . S
H659 C667 0.930 . S
H660 C670 0.930 . S
H661 C671 0.930 . S
C662 H656 0.930 . S
C662 C663 1.355 . S
C662 C664 1.415 . S
C663 C662 1.355 . S
C663 C665 1.419 . S
C664 C662 1.415 . S
C664 C669 1.425 . S
C664 C671 1.409 . S
C665 H657 0.930 . S
C665 C663 1.419 . S
C665 C666 1.362 . S
C666 H658 0.930 . S
C666 C665 1.362 . S
C666 C669 1.409 . S
C667 H659 0.930 . S
C667 C668 1.355 . S
C667 C669 1.415 . S
C668 C667 1.355 . S
C668 C670 1.419 . S
C669 C664 1.425 . S
C669 C666 1.409 . S
C669 C667 1.415 . S
C670 H660 0.930 . S
C670 C668 1.419 . S
C670 C671 1.362 . S
C671 H661 0.930 . S
C671 C664 1.409 . S
C671 C670 1.362 . S
H672 C678 0.930 . S
H673 C681 0.930 . S
H674 C682 0.930 . S
H675 C683 0.930 . S
H676 C686 0.930 . S
H677 C687 0.930 . S
C678 H672 0.930 . S
C678 C679 1.355 . S
C678 C680 1.415 . S
C679 C678 1.355 . S
C679 C681 1.419 . S
C680 C678 1.415 . S
C680 C685 1.425 . S
C680 C687 1.409 . S
C681 H673 0.930 . S
C681 C679 1.419 . S
C681 C682 1.362 . S
C682 H674 0.930 . S
C682 C681 1.362 . S
C682 C685 1.409 . S
C683 H675 0.930 . S
C683 C684 1.355 . S
C683 C685 1.415 . S
C684 C683 1.355 . S
C684 C686 1.419 . S
C685 C680 1.425 . S
C685 C682 1.409 . S
C685 C683 1.415 . S
C686 H676 0.930 . S
C686 C684 1.419 . S
C686 C687 1.362 . S
C687 H677 0.930 . S
C687 C680 1.409 . S
C687 C686 1.362 . S
H688 C694 0.930 . S
H689 C697 0.930 . S
H690 C698 0.930 . S
H691 C699 0.930 . S
H692 C702 0.930 1_655 S
H693 C703 0.930 1_655 S
C694 H688 0.930 . S
C694 C695 1.355 . S
C694 C696 1.415 . S
C695 C694 1.355 . S
C695 C697 1.419 . S
C696 C694 1.415 . S
C696 C701 1.425 . S
C696 C703 1.409 . S
C697 H689 0.930 . S
C697 C695 1.419 . S
C697 C698 1.362 . S
C698 H690 0.930 . S
C698 C697 1.362 . S
C698 C701 1.409 . S
C699 H691 0.930 . S
C699 C700 1.355 . S
C699 C701 1.415 . S
C700 C699 1.355 . S
C700 C702 1.419 . S
C701 C696 1.425 . S
C701 C698 1.409 . S
C701 C699 1.415 . S
C702 H692 0.930 1_455 S
C702 C700 1.419 . S
C702 C703 1.362 . S
C703 H693 0.930 1_455 S
C703 C696 1.409 . S
C703 C702 1.362 . S
H704 C710 0.930 . S
H705 C713 0.930 . S
H706 C714 0.930 . S
H707 C715 0.930 . S
H708 C718 0.930 . S
H709 C719 0.930 . S
C710 H704 0.930 . S
C710 C711 1.355 . S
C710 C712 1.415 . S
C711 C710 1.355 . S
C711 C713 1.419 . S
C712 C710 1.415 . S
C712 C717 1.425 . S
C712 C719 1.409 . S
C713 H705 0.930 . S
C713 C711 1.419 . S
C713 C714 1.362 . S
C714 H706 0.930 . S
C714 C713 1.362 . S
C714 C717 1.409 . S
C715 H707 0.930 . S
C715 C716 1.355 . S
C715 C717 1.415 . S
C716 C715 1.355 . S
C716 C718 1.419 . S
C717 C712 1.425 . S
C717 C714 1.409 . S
C717 C715 1.415 . S
C718 H708 0.930 . S
C718 C716 1.419 . S
C718 C719 1.362 . S
C719 H709 0.930 . S
C719 C712 1.409 . S
C719 C718 1.362 . S
C343 C29 1.525 . S
C348 C258 1.501 . S
C359 C49 1.317 . S
C364 C277 1.317 . S
C380 C314 1.777 . S
C375 C93 1.742 . S
C391 C119 1.649 . S
C396 C324 1.648 . S
C412 C294 1.883 . S
C407 C17 1.885 . S
C428 C264 1.429 . S
C423 C61 1.498 . S
C444 C335 1.477 . S
C439 C81 1.528 . S
C460 C305 1.452 . S
C455 C125 1.471 . S
C471 C23 1.665 . S
C476 C318 1.663 . S
C492 C285 1.671 . S
C487 C87 1.670 . S
C503 C113 1.739 . S
C508 C275 1.750 . S
C519 C55 1.195 . S
C524 C297 1.260 . S
C540 C257 1.505 . S
C535 C157 1.336 . S
C551 C189 1.271 . S
C556 C278 1.290 . S
C567 C221 1.744 . S
C572 C315 1.735 . S
C583 C253 1.660 . S
C588 C325 1.695 . S
C599 C145 1.832 . S
C604 C295 1.939 . S
C620 C265 1.331 . S
C615 C183 1.363 . S
C636 C334 1.562 . S
C631 C209 1.561 . S
C652 C304 1.415 . S
C647 C247 1.436 . S
C663 C151 1.596 . S
C668 C317 1.660 . S
C684 C284 1.690 . S
C679 C215 1.690 . S
C700 C274 1.737 . S
C695 C241 1.651 . S
C711 C177 1.254 . S
C716 C298 1.233 . S
