# Generated by pormake.
# Topology anh, (6,3)-cn, num edge types: 1
# Building blocks:
#     Node 0, Type 0, BuildingBlock: GEDQOX_clean_sbu_0, # of connection points: 6
#     Node 1, Type 0, BuildingBlock: GEDQOX_clean_sbu_0, # of connection points: 6
#     Node 2, Type 0, BuildingBlock: GEDQOX_clean_sbu_0, # of connection points: 6
#     Node 3, Type 1, BuildingBlock: KAKCAD_clean_linker_0, # of connection points: 3
#     Node 4, Type 1, BuildingBlock: KAKCAD_clean_linker_0, # of connection points: 3
#     Node 5, Type 1, BuildingBlock: KAKCAD_clean_linker_0, # of connection points: 3
#     Node 6, Type 1, BuildingBlock: KAKCAD_clean_linker_0, # of connection points: 3
#     Node 7, Type 1, BuildingBlock: KAKCAD_clean_linker_0, # of connection points: 3
#     Node 8, Type 1, BuildingBlock: KAKCAD_clean_linker_0, # of connection points: 3
#     Edge 9, Type (0, 1), BuildingBlock: OJICUG_clean_linker_0, # of connection points: 2
#     Edge 10, Type (0, 1), BuildingBlock: OJICUG_clean_linker_0, # of connection points: 2
#     Edge 11, Type (0, 1), BuildingBlock: OJICUG_clean_linker_0, # of connection points: 2
#     Edge 12, Type (0, 1), BuildingBlock: OJICUG_clean_linker_0, # of connection points: 2
#     Edge 13, Type (0, 1), BuildingBlock: OJICUG_clean_linker_0, # of connection points: 2
#     Edge 14, Type (0, 1), BuildingBlock: OJICUG_clean_linker_0, # of connection points: 2
#     Edge 15, Type (0, 1), BuildingBlock: OJICUG_clean_linker_0, # of connection points: 2
#     Edge 16, Type (0, 1), BuildingBlock: OJICUG_clean_linker_0, # of connection points: 2
#     Edge 17, Type (0, 1), BuildingBlock: OJICUG_clean_linker_0, # of connection points: 2
#     Edge 18, Type (0, 1), BuildingBlock: OJICUG_clean_linker_0, # of connection points: 2
#     Edge 19, Type (0, 1), BuildingBlock: OJICUG_clean_linker_0, # of connection points: 2
#     Edge 20, Type (0, 1), BuildingBlock: OJICUG_clean_linker_0, # of connection points: 2
#     Edge 21, Type (0, 1), BuildingBlock: OJICUG_clean_linker_0, # of connection points: 2
#     Edge 22, Type (0, 1), BuildingBlock: OJICUG_clean_linker_0, # of connection points: 2
#     Edge 23, Type (0, 1), BuildingBlock: OJICUG_clean_linker_0, # of connection points: 2
#     Edge 24, Type (0, 1), BuildingBlock: OJICUG_clean_linker_0, # of connection points: 2
#     Edge 25, Type (0, 1), BuildingBlock: OJICUG_clean_linker_0, # of connection points: 2
#     Edge 26, Type (0, 1), BuildingBlock: OJICUG_clean_linker_0, # of connection points: 2
# Relax obj value: 0.208
# Max RMSD: 0.226
# Mean RMSD: 0.165
data_MOF--net-anh--node1-GEDQOX_clean_sbu_0--node2-KAKCAD_clean_linker_0--edge1-OJICUG_clean_linker_0
_symmetry_space_group_name_H-M    P1
_symmetry_Int_Tables_number       1
_symmetry_cell_setting            triclinic
loop_
_symmetry_equiv_pos_as_xyz
'x, y, z'
_cell_length_a     30.090378
_cell_length_b     28.095736
_cell_length_c     52.328631
_cell_angle_alpha  92.922521
_cell_angle_beta   90.889757
_cell_angle_gamma 103.61364
loop_
_atom_site_label
_atom_site_type_symbol
_atom_site_fract_x
_atom_site_fract_y
_atom_site_fract_z
_atom_type_partial_charge
Nd0 Nd 0.09116 0.55474 0.15601 0.0
Nd1 Nd 0.06495 0.44024 0.15666 0.0
C2 C 0.12463 0.64416 0.14137 0.0
C3 C 0.16624 0.68127 0.14972 0.0
C4 C 0.18393 0.72079 0.13463 0.0
C5 C 0.22503 0.75437 0.14194 0.0
C6 C 0.24926 0.74869 0.16438 0.0
C7 C 0.2312 0.70897 0.17945 0.0
C8 C 0.19019 0.67558 0.17216 0.0
C9 C 0.09387 0.52928 0.20621 0.0
C10 C 0.17824 0.49244 0.15512 0.0
C11 C 1.02646 0.34894 0.16688 0.0
C12 C 0.97953 0.3213 0.17205 0.0
C13 C 0.95272 0.33878 0.19041 0.0
C14 C 0.90817 0.3122 0.19469 0.0
C15 C 0.88935 0.26774 0.18063 0.0
C16 C 0.91607 0.25094 0.16194 0.0
C17 C 0.96066 0.27737 0.15777 0.0
C18 C 0.08351 0.47879 0.11045 0.0
C19 C 0.97698 0.50081 0.1531 0.0
O20 O 0.13203 0.60489 0.12925 0.0
O21 O 0.09247 0.63405 0.15829 0.0
O22 O 0.10298 0.57412 0.19943 0.0
O23 O 0.08401 0.50058 0.18664 0.0
O24 O 0.16418 0.53382 0.15178 0.0
O25 O 0.14657 0.45147 0.15978 0.0
O26 O 1.04728 0.38212 0.18441 0.0
O27 O 1.03325 0.36329 0.14357 0.0
O28 O 0.09593 0.43956 0.11684 0.0
O29 O 0.06053 0.49401 0.1276 0.0
O30 O 0.99044 0.45872 0.15533 0.0
O31 O 1.00939 0.54286 0.15228 0.0
H32 H 0.16627 0.72532 0.11705 0.0
H33 H 0.2383 0.78424 0.12978 0.0
H34 H 0.24865 0.70386 0.19699 0.0
H35 H 0.17737 0.64498 0.18394 0.0
H36 H 0.96617 0.37288 0.20153 0.0
H37 H 0.88884 0.32603 0.20942 0.0
H38 H 0.90248 0.21737 0.15043 0.0
H39 H 0.98045 0.26351 0.14328 0.0
Nd40 Nd 0.50063 0.01034 0.52483 0.0
Nd41 Nd 0.60785 0.03681 0.51977 0.0
C42 C 0.41834 0.97517 0.54178 0.0
C43 C 0.38228 0.93183 0.53296 0.0
C44 C 0.36379 0.89637 0.55029 0.0
C45 C 0.33299 0.85275 0.54171 0.0
C46 C 0.31986 0.84415 0.51569 0.0
C47 C 0.33812 0.87982 0.4984 0.0
C48 C 0.36925 0.92308 0.50691 0.0
C49 C 0.52162 1.00832 0.47347 0.0
C50 C 0.55773 0.92185 0.51963 0.0
C51 C 0.69382 0.07503 0.50928 0.0
C52 C 0.72148 0.1241 0.50434 0.0
C53 C 0.70571 0.15456 0.48767 0.0
C54 C 0.7329 0.20088 0.48322 0.0
C55 C 0.77605 0.21766 0.49554 0.0
C56 C 0.79094 0.18771 0.51288 0.0
C57 C 0.7639 0.1413 0.51718 0.0
C58 C 0.57584 0.01578 0.56747 0.0
C59 C 0.55154 0.1265 0.52493 0.0
O60 O 0.4551 0.96534 0.55183 0.0
O61 O 0.42748 0.01179 0.52656 0.0
O62 O 0.48019 0.99797 0.48159 0.0
O63 O 0.54893 0.01771 0.49242 0.0
O64 O 0.52151 0.93666 0.52783 0.0
O65 O 0.59413 0.95304 0.51132 0.0
O66 O 0.66304 0.05334 0.49175 0.0
O67 O 0.67935 0.06958 0.53262 0.0
O68 O 0.61061 1.00167 0.55804 0.0
O69 O 0.56007 0.0415 0.55215 0.0
O70 O 0.59009 0.11307 0.51984 0.0
O71 O 0.51299 0.09428 0.52939 0.0
H72 H 0.37384 0.90205 0.57039 0.0
H73 H 0.31922 0.82589 0.55542 0.0
H74 H 0.32902 0.87377 0.47819 0.0
H75 H 0.38368 0.94919 0.49297 0.0
H76 H 0.67262 0.14249 0.47793 0.0
H77 H 0.72034 0.22345 0.46999 0.0
H78 H 0.82418 0.19941 0.52248 0.0
H79 H 0.77636 0.11856 0.53036 0.0
Nd80 Nd 0.51321 0.49941 0.84246 0.0
Nd81 Nd 0.61262 0.5302 0.84365 0.0
C82 C 0.42737 0.46978 0.82822 0.0
C83 C 0.40171 0.49975 0.81494 0.0
C84 C 0.37824 0.48241 0.79173 0.0
C85 C 0.35451 0.51182 0.77906 0.0
C86 C 0.35347 0.55855 0.78975 0.0
C87 C 0.38133 0.57745 0.81152 0.0
C88 C 0.40507 0.54836 0.82396 0.0
C89 C 0.54806 0.52524 0.89164 0.0
C90 C 0.55799 0.61504 0.84032 0.0
C91 C 0.69985 0.54903 0.85415 0.0
C92 C 0.7328 0.52973 0.83891 0.0
C93 C 0.72428 0.4794 0.83164 0.0
C94 C 0.75688 0.46064 0.81854 0.0
C95 C 0.79875 0.49193 0.8129 0.0
C96 C 0.80421 0.54309 0.81699 0.0
C97 C 0.7716 0.56175 0.83012 0.0
C98 C 0.5879 0.52561 0.79244 0.0
C99 C 0.56783 0.41175 0.8389 0.0
O100 O 0.45984 0.45799 0.81487 0.0
O101 O 0.44006 0.48427 0.85196 0.0
O102 O 0.5127 0.5379 0.88212 0.0
O103 O 0.56439 0.50011 0.87502 0.0
O104 O 0.52462 0.57923 0.83048 0.0
O105 O 0.59283 0.60414 0.85243 0.0
O106 O 0.67042 0.5167 0.86635 0.0
O107 O 0.68138 0.58041 0.84286 0.0
O108 O 0.62961 0.53739 0.80099 0.0
O109 O 0.56078 0.5161 0.81054 0.0
O110 O 0.60542 0.44664 0.83685 0.0
O111 O 0.52828 0.42288 0.84297 0.0
H112 H 0.37733 0.4458 0.7838 0.0
H113 H 0.3341 0.49663 0.76204 0.0
H114 H 0.38165 0.61308 0.82055 0.0
H115 H 0.42488 0.56366 0.84118 0.0
H116 H 0.69359 0.45403 0.83725 0.0
H117 H 0.75154 0.42125 0.81541 0.0
H118 H 0.83594 0.56856 0.81279 0.0
H119 H 0.77778 0.6009 0.83454 0.0
C120 C 0.57466 0.06488 0.35445 0.0
C121 C 0.55911 0.01959 0.36552 0.0
C122 C 0.5769 0.06719 0.32775 0.0
C123 C 0.56394 0.02418 0.31167 0.0
C124 C 0.55065 0.97882 0.32299 0.0
C125 C 0.548 0.9766 0.34951 0.0
C126 C 0.5627 0.02602 0.28322 0.0
C127 C 0.59713 0.05798 0.27046 0.0
C128 C 0.59672 0.05797 0.2435 0.0
C129 C 0.56141 0.02472 0.22931 0.0
C130 C 0.52662 0.99232 0.24178 0.0
C131 C 0.52717 0.99435 0.26868 0.0
C132 C 0.48995 0.95539 0.22717 0.0
C133 C 0.4697 0.96676 0.20457 0.0
C134 C 0.47376 0.90849 0.23645 0.0
C135 C 0.43707 0.87477 0.22427 0.0
C136 C 0.41582 0.88645 0.2021 0.0
C137 C 0.6345 0.09129 0.23043 0.0
C138 C 0.65265 0.13947 0.24051 0.0
C139 C 0.6544 0.07451 0.20866 0.0
C140 C 0.69273 0.10439 0.19797 0.0
C141 C 0.71218 0.15176 0.20882 0.0
C142 C 0.69101 0.16927 0.22989 0.0
C143 C 0.43314 0.93266 0.19216 0.0
H144 H 0.58322 0.09863 0.36636 0.0
H145 H 0.58719 0.10275 0.3197 0.0
H146 H 0.54174 0.94481 0.31131 0.0
H147 H 0.53661 0.94112 0.35754 0.0
H148 H 0.62525 0.08167 0.2815 0.0
H149 H 0.49945 0.97117 0.27846 0.0
H150 H 0.56129 0.02373 0.2086 0.0
H151 H 0.48118 1.00247 0.19684 0.0
H152 H 0.48912 0.89781 0.25343 0.0
H153 H 0.42462 0.83998 0.23279 0.0
H154 H 0.6377 0.15392 0.25699 0.0
H155 H 0.64149 0.03759 0.20041 0.0
H156 H 0.41822 0.94272 0.17488 0.0
H157 H 0.7051 0.20538 0.23887 0.0
H158 H 0.70768 0.08999 0.18148 0.0
C159 C 0.53718 0.56017 0.67088 0.0
C160 C 0.55941 0.52863 0.68326 0.0
C161 C 0.53593 0.56065 0.64407 0.0
C162 C 0.55761 0.5302 0.62902 0.0
C163 C 0.58056 0.49941 0.64165 0.0
C164 C 0.58101 0.49828 0.66833 0.0
C165 C 0.5561 0.52974 0.60034 0.0
C166 C 0.55694 0.57264 0.58737 0.0
C167 C 0.55655 0.57215 0.56042 0.0
C168 C 0.55592 0.52776 0.54617 0.0
C169 C 0.55419 0.48421 0.55894 0.0
C170 C 0.55392 0.48578 0.58577 0.0
C171 C 0.55158 0.43561 0.54538 0.0
C172 C 0.51118 0.39862 0.54625 0.0
C173 C 0.59143 0.42252 0.53702 0.0
C174 C 0.59127 0.37315 0.53074 0.0
C175 C 0.55133 0.3354 0.53296 0.0
C176 C 0.55493 0.61843 0.54798 0.0
C177 C 0.51524 0.63637 0.54952 0.0
C178 C 0.59433 0.64837 0.53807 0.0
C179 C 0.59458 0.69623 0.53105 0.0
C180 C 0.55532 0.71529 0.5337 0.0
C181 C 0.51522 0.68369 0.54221 0.0
C182 C 0.51097 0.34937 0.54012 0.0
H183 H 0.52019 0.58395 0.68195 0.0
H184 H 0.51737 0.58439 0.63518 0.0
H185 H 0.59881 0.4764 0.63097 0.0
H186 H 0.5992 0.47431 0.67736 0.0
H187 H 0.55853 0.60696 0.59819 0.0
H188 H 0.5516 0.45196 0.59531 0.0
H189 H 0.5555 0.52684 0.52544 0.0
H190 H 0.4802 0.40753 0.55318 0.0
H191 H 0.62331 0.45011 0.5367 0.0
H192 H 0.62294 0.36459 0.52482 0.0
H193 H 0.48442 0.61418 0.55719 0.0
H194 H 0.62559 0.63568 0.53697 0.0
H195 H 0.47952 0.32211 0.54249 0.0
H196 H 0.48372 0.69575 0.54382 0.0
H197 H 0.62626 0.71897 0.52473 0.0
C198 C 0.1549 0.60217 0.00619 0.0
C199 C 0.11966 0.56403 0.01413 0.0
C200 C 0.15324 0.6187 0.98143 0.0
C201 C 0.11626 0.59715 0.96462 0.0
C202 C 0.08269 0.55702 0.97241 0.0
C203 C 0.08413 0.54106 0.99699 0.0
C204 C 0.11021 0.61746 0.93958 0.0
C205 C 0.14545 0.62574 0.92169 0.0
C206 C 0.13598 0.6377 0.89667 0.0
C207 C 0.09253 0.6443 0.89046 0.0
C208 C 1.05635 0.62809 0.90652 0.0
C209 C 0.06591 0.62014 0.93188 0.0
C210 C 1.01381 0.59903 0.89386 0.0
C211 C 0.99347 0.61799 0.87369 0.0
C212 C 1.0022 0.54812 0.89688 0.0
C213 C 0.97354 0.51652 0.87903 0.0
C214 C 0.95536 0.53516 0.85795 0.0
C215 C 0.16541 0.63117 0.87502 0.0
C216 C 0.21204 0.65412 0.87515 0.0
C217 C 0.14513 0.60251 0.85314 0.0
C218 C 0.17006 0.59898 0.83137 0.0
C219 C 0.21667 0.62203 0.83119 0.0
C220 C 0.23758 0.64943 0.8534 0.0
C221 C 0.96435 0.58637 0.85597 0.0
H222 H 0.18271 0.61997 0.01933 0.0
H223 H 0.17969 0.64934 0.97578 0.0
H224 H 1.05454 0.53852 0.95965 0.0
H225 H 1.05691 0.51128 0.00284 0.0
H226 H 0.17836 0.61854 0.92643 0.0
H227 H 1.0375 0.60944 0.94452 0.0
H228 H 0.08505 0.65179 0.87092 0.0
H229 H 1.00229 0.65697 0.87081 0.0
H230 H 1.01824 0.53219 0.91186 0.0
H231 H 0.96697 0.47741 0.88129 0.0
H232 H 0.22851 0.67585 0.89187 0.0
H233 H 0.10945 0.58295 0.85272 0.0
H234 H 0.94926 0.60215 0.84056 0.0
H235 H 0.27389 0.66623 0.85427 0.0
H236 H 0.15273 0.57754 0.81479 0.0
C237 C 1.04102 0.48542 0.32464 0.0
C238 C 0.08438 0.49348 0.31384 0.0
C239 C 1.03677 0.48737 0.35125 0.0
C240 C 0.07579 0.49679 0.36768 0.0
C241 C 0.11902 0.50254 0.35673 0.0
C242 C 0.12326 0.50124 0.33014 0.0
C243 C 0.0715 0.50267 0.396 0.0
C244 C 1.0339 0.4744 0.40828 0.0
C245 C 1.02818 0.48166 0.43467 0.0
C246 C 0.06079 0.51719 0.44905 0.0
C247 C 0.09872 0.54565 0.43722 0.0
C248 C 0.10396 0.53811 0.41078 0.0
C249 C 0.13135 0.58552 0.45207 0.0
C250 C 0.11515 0.62053 0.46697 0.0
C251 C 0.17876 0.59035 0.45042 0.0
C252 C 0.20944 0.63022 0.46296 0.0
C253 C 0.19314 0.66632 0.47692 0.0
C254 C 0.9878 0.45197 0.44701 0.0
C255 C 0.94406 0.44563 0.4357 0.0
C256 C 0.99293 0.4278 0.46931 0.0
C257 C 0.95536 0.3954 0.47918 0.0
C258 C 0.91194 0.38695 0.46702 0.0
C259 C 0.90648 0.41369 0.44568 0.0
C260 C 0.14578 0.66078 0.47911 0.0
H261 H 1.01051 0.48004 0.31254 0.0
H262 H 1.00293 0.48344 0.35887 0.0
H263 H 0.14975 0.50871 0.36869 0.0
H264 H 0.15711 0.50719 0.32229 0.0
H265 H 1.00915 0.44612 0.39736 0.0
H266 H 0.13234 0.56152 0.40159 0.0
H267 H 1.05633 0.5232 0.46939 0.0
H268 H 0.07877 0.61775 0.46844 0.0
H269 H 0.19202 0.56362 0.43916 0.0
H270 H 0.24585 0.63388 0.46093 0.0
H271 H 0.93907 0.46472 0.4188 0.0
H272 H 1.02636 0.43211 0.47838 0.0
H273 H 0.13247 0.68808 0.48988 0.0
H274 H 0.87332 0.40894 0.43624 0.0
H275 H 0.96087 0.37516 0.49553 0.0
C276 C 0.51905 0.96432 0.68789 0.0
C277 C 0.54475 1.00387 0.6751 0.0
C278 C 0.52051 0.96508 0.71469 0.0
C279 C 0.54847 1.00501 0.72913 0.0
C280 C 0.57437 0.04431 0.716 0.0
C281 C 0.57214 0.04392 0.68934 0.0
C282 C 0.55126 1.00603 0.75769 0.0
C283 C 0.55006 0.96322 0.77068 0.0
C284 C 0.55496 0.96458 0.79754 0.0
C285 C 0.56173 0.01045 0.81164 0.0
C286 C 0.56283 0.05394 0.79873 0.0
C287 C 0.55667 0.05064 0.77201 0.0
C288 C 0.57082 0.10413 0.81174 0.0
C289 C 0.5399 0.11638 0.82932 0.0
C290 C 0.60473 0.14243 0.80253 0.0
C291 C 0.60614 0.19163 0.8094 0.0
C292 C 0.57378 0.20448 0.8259 0.0
C293 C 0.55315 0.91703 0.80973 0.0
C294 C 0.51429 0.87811 0.80562 0.0
C295 C 0.59203 0.90732 0.82166 0.0
C296 C 0.59263 0.85931 0.82818 0.0
C297 C 0.55418 0.81965 0.82314 0.0
C298 C 0.51458 0.83051 0.81245 0.0
C299 C 0.54137 0.16591 0.83632 0.0
H300 H 0.49794 0.93291 0.67713 0.0
H301 H 0.49965 0.93447 0.72406 0.0
H302 H 0.59728 0.07511 0.72625 0.0
H303 H 0.59293 0.07432 0.67975 0.0
H304 H 0.54656 0.92856 0.75984 0.0
H305 H 0.55591 0.08359 0.76226 0.0
H306 H 0.56618 0.01225 0.83227 0.0
H307 H 0.51299 0.08787 0.8365 0.0
H308 H 0.62881 0.13432 0.78875 0.0
H309 H 0.63131 0.21958 0.80058 0.0
H310 H 0.48385 0.88428 0.79634 0.0
H311 H 0.6228 0.93631 0.82467 0.0
H312 H 0.51629 0.17392 0.84944 0.0
H313 H 0.48361 0.80207 0.80889 0.0
H314 H 0.62406 0.85315 0.83615 0.0
C315 C 0.59145 0.48152 0.0134 0.0
C316 C 0.57242 0.51767 0.00271 0.0
C317 C 0.59372 0.47753 0.04008 0.0
C318 C 0.57646 0.50907 0.05691 0.0
C319 C 0.55811 0.54558 0.04635 0.0
C320 C 0.55651 0.55011 0.01979 0.0
C321 C 0.57681 0.50379 0.08532 0.0
C322 C 0.61709 0.50012 0.09834 0.0
C323 C 0.6201 0.49687 0.12511 0.0
C324 C 0.57734 0.49626 0.13895 0.0
C325 C 0.53426 0.49925 0.12571 0.0
C326 C 0.53675 0.50327 0.09899 0.0
C327 C 0.48549 0.5004 0.13682 0.0
C328 C 0.45462 0.45962 0.14701 0.0
C329 C 0.46425 0.53912 0.13111 0.0
C330 C 0.41665 0.53756 0.13501 0.0
C331 C 0.38516 0.49675 0.14482 0.0
C332 C 0.66919 0.49366 0.13561 0.0
C333 C 0.69018 0.45619 0.1258 0.0
C334 C 0.70048 0.53264 0.14963 0.0
C335 C 0.7487 0.53389 0.15335 0.0
C336 C 0.76969 0.49634 0.14327 0.0
C337 C 0.73795 0.45717 0.12964 0.0
C338 C 0.40655 0.45797 0.15097 0.0
H339 H 0.60362 0.4553 0.0012 0.0
H340 H 0.60789 0.44882 0.04753 0.0
H341 H 0.54523 0.57107 0.05873 0.0
H342 H 0.54284 0.57945 0.01275 0.0
H343 H 0.64743 0.50111 0.08726 0.0
H344 H 0.50619 0.50539 0.08828 0.0
H345 H 0.57763 0.49363 0.1595 0.0
H346 H 0.46711 0.42759 0.15104 0.0
H347 H 0.48458 0.571 0.12248 0.0
H348 H 0.40463 0.56886 0.12934 0.0
H349 H 0.66949 0.42599 0.11403 0.0
H350 H 0.68814 0.56373 0.15698 0.0
H351 H 0.38601 0.42516 0.1586 0.0
H352 H 0.75019 0.42722 0.12082 0.0
H353 H 0.76972 0.56525 0.16411 0.0
C354 C 0.24959 0.45097 0.15604 0.0
C355 C 0.23107 0.49276 0.153 0.0
H356 H 0.30813 0.41821 0.15613 0.0
C357 C 0.26475 0.5356 0.14749 0.0
H358 H 0.22658 0.41661 0.16025 0.0
C359 C 0.31273 0.53673 0.14511 0.0
C360 C 0.33172 0.49504 0.14798 0.0
H361 H 0.25403 0.56925 0.14489 0.0
H362 H 0.33494 0.57154 0.14108 0.0
C363 C 0.2978 0.45206 0.15366 0.0
C364 C 0.83386 0.29629 0.50771 0.0
C365 C 0.80713 0.26431 0.48881 0.0
H366 H 0.88734 0.36099 0.51576 0.0
C367 C 0.81281 0.27512 0.46301 0.0
H368 H 0.8298 0.28912 0.52779 0.0
C369 C 0.84576 0.31586 0.45613 0.0
C370 C 0.87371 0.34701 0.4749 0.0
H371 H 0.79328 0.25077 0.44798 0.0
H372 H 0.85069 0.32157 0.43596 0.0
C373 C 0.86681 0.33732 0.50083 0.0
C374 C 0.52925 0.67871 0.81695 0.0
C375 C 0.55709 0.66741 0.83649 0.0
H376 H 0.5079 0.73395 0.79673 0.0
C377 C 0.58444 0.70666 0.85163 0.0
H378 H 0.50826 0.64972 0.80457 0.0
C379 C 0.58339 0.75567 0.84757 0.0
C380 C 0.55547 0.76715 0.82795 0.0
H381 H 0.60635 0.69949 0.86686 0.0
H382 H 0.60418 0.78445 0.86011 0.0
C383 C 0.52881 0.72753 0.81259 0.0
C384 C 0.88927 0.45617 0.14608 0.0
C385 C 0.92397 0.50015 0.15092 0.0
H386 H 0.81775 0.41968 0.14 0.0
C387 C 0.90629 0.54301 0.15352 0.0
H388 H 0.89936 0.42168 0.14385 0.0
C389 C 0.85795 0.54189 0.1515 0.0
C390 C 0.82314 0.49788 0.1463 0.0
H391 H 0.93008 0.5782 0.15731 0.0
H392 H 0.8481 0.57646 0.15369 0.0
C393 C 0.84112 0.4551 0.14368 0.0
C394 C 0.29294 0.7523 0.51313 0.0
C395 C 0.28699 0.7983 0.50644 0.0
H396 H 0.26792 0.67404 0.5087 0.0
C397 C 0.24976 0.80041 0.49039 0.0
H398 H 0.3216 0.74973 0.52533 0.0
C399 C 0.21899 0.75744 0.48122 0.0
C400 C 0.22521 0.71146 0.48759 0.0
H401 H 0.24431 0.83538 0.48504 0.0
H402 H 0.19072 0.7601 0.46873 0.0
C403 C 0.26251 0.70915 0.50355 0.0
C404 C 0.61156 0.34505 0.83407 0.0
C405 C 0.5697 0.35879 0.83651 0.0
H406 H 0.64605 0.2867 0.82977 0.0
C407 C 0.52935 0.32118 0.83643 0.0
H408 H 0.64342 0.37265 0.83418 0.0
C409 C 0.53072 0.27151 0.83356 0.0
C410 C 0.57255 0.25762 0.83081 0.0
H411 H 0.49635 0.33004 0.83817 0.0
H412 H 0.49867 0.24408 0.83279 0.0
C413 C 0.61299 0.29538 0.83138 0.0
C414 C 0.5858 0.84494 0.50781 0.0
C415 C 0.55796 0.86913 0.5224 0.0
H416 H 0.60598 0.77753 0.49911 0.0
C417 C 0.52984 0.84247 0.54055 0.0
H418 H 0.60787 0.86429 0.49363 0.0
C419 C 0.52943 0.79336 0.54413 0.0
C420 C 0.55646 0.76836 0.52933 0.0
H421 H 0.50855 0.8599 0.55256 0.0
H422 H 0.50829 0.77538 0.55901 0.0
C423 C 0.58481 0.79511 0.51109 0.0
C424 C 0.87875 0.49924 0.80023 0.0
C425 C 0.84049 0.4729 0.81269 0.0
H426 H 0.94752 0.54161 0.80584 0.0
C427 C 0.84793 0.44833 0.83454 0.0
H428 H 0.87435 0.51627 0.78255 0.0
C429 C 0.88894 0.46433 0.84846 0.0
C430 C 0.92327 0.5022 0.83945 0.0
H431 H 0.8196 0.42534 0.84397 0.0
H432 H 0.8906 0.45226 0.8677 0.0
C433 C 0.92025 0.51474 0.8139 0.0
C434 C 0.29779 0.83476 0.17098 0.0
C435 C 0.29309 0.78397 0.17223 0.0
H436 H 0.33953 0.90682 0.17971 0.0
C437 C 0.33016 0.7671 0.1818 0.0
H438 H 0.26974 0.84896 0.16387 0.0
C439 C 0.37047 0.80021 0.19056 0.0
C440 C 0.37465 0.85117 0.19028 0.0
H441 H 0.328 0.72816 0.18256 0.0
H442 H 0.39825 0.7857 0.19772 0.0
C443 C 0.33798 0.86796 0.17998 0.0
C444 C 0.51247 0.19578 0.51968 0.0
C445 C 0.55194 0.17986 0.52609 0.0
H446 H 0.48173 0.25637 0.51538 0.0
C447 C 0.59174 0.21548 0.53378 0.0
H448 H 0.48139 0.16942 0.51332 0.0
C449 C 0.59172 0.26557 0.53573 0.0
C450 C 0.55213 0.28184 0.52946 0.0
H451 H 0.62271 0.20453 0.53903 0.0
H452 H 0.62261 0.2913 0.54284 0.0
C453 C 0.5127 0.24594 0.52103 0.0
C454 C 0.31871 0.63066 0.78993 0.0
C455 C 0.31428 0.58023 0.78431 0.0
H456 H 0.29052 0.68406 0.8104 0.0
C457 C 0.2706 0.54865 0.78487 0.0
H458 H 0.35147 0.65639 0.78836 0.0
C459 C 0.23616 0.56404 0.79789 0.0
C460 C 0.24457 0.61177 0.80941 0.0
H461 H 0.26515 0.50983 0.77975 0.0
H462 H 0.20567 0.53643 0.80173 0.0
C463 C 0.28416 0.64629 0.803 0.0
C464 C 0.83437 0.18667 0.18626 0.0
C465 C 0.84281 0.23807 0.18609 0.0
H466 H 0.78711 0.11948 0.19369 0.0
C467 C 0.80691 0.2607 0.19201 0.0
H468 H 0.86129 0.16797 0.18218 0.0
C469 C 0.7641 0.23272 0.19863 0.0
C470 C 0.75613 0.18142 0.19948 0.0
H471 H 0.8119 0.3001 0.19161 0.0
H472 H 0.73732 0.25134 0.20322 0.0
C473 C 0.79165 0.15876 0.19285 0.0
C474 C 0.12872 0.48993 0.07076 0.0
C475 C 0.09683 0.50421 0.08696 0.0
H476 H 0.16196 0.4992 0.03472 0.0
C477 C 0.07689 0.54242 0.08028 0.0
H478 H 0.14479 0.4608 0.07567 0.0
C479 C 0.08698 0.5644 0.05712 0.0
C480 C 0.11746 0.54878 0.04052 0.0
H481 H 1.05231 0.55417 0.09253 0.0
H482 H 0.0695 0.59207 0.05164 0.0
C483 C 0.13898 0.51215 0.04761 0.0
C484 C 0.57579 0.0369 0.43808 0.0
C485 C 0.53321 0.01029 0.44614 0.0
H486 H 0.61734 0.06149 0.40599 0.0
C487 C 0.49981 0.98707 0.42765 0.0
H488 H 0.60189 0.05569 0.45198 0.0
C489 C 0.50867 0.98999 0.40163 0.0
C490 C 0.55095 0.01684 0.39339 0.0
H491 H 0.46659 0.96657 0.43331 0.0
H492 H 0.48201 0.97184 0.38786 0.0
C493 C 0.58445 0.04055 0.41185 0.0
C494 C 0.58499 0.57123 0.75311 0.0
C495 C 0.57475 0.52667 0.76524 0.0
H496 H 0.58701 0.60688 0.71766 0.0
C497 C 0.55662 0.483 0.7506 0.0
H498 H 0.59933 0.60531 0.76408 0.0
C499 C 0.55061 0.48371 0.72399 0.0
C500 C 0.56169 0.52824 0.71169 0.0
H501 H 0.54901 0.44819 0.75956 0.0
H502 H 0.53797 0.44936 0.71294 0.0
C503 C 0.5779 0.57212 0.72663 0.0
C504 C 0.57803 0.97437 0.60819 0.0
C505 C 0.5621 0.00869 0.5942 0.0
H506 H 0.58402 0.94549 0.64491 0.0
C507 C 0.53627 0.0382 0.60654 0.0
H508 H 0.59787 0.95104 0.59909 0.0
C509 C 0.52893 0.0354 0.63286 0.0
C510 C 0.54636 1.00224 0.64693 0.0
H511 H 0.52357 0.06488 0.59615 0.0
H512 H 0.51077 0.05996 0.64237 0.0
C513 C 0.56996 0.97096 0.63431 0.0
C514 C 0.59333 0.50896 0.93027 0.0
C515 C 0.55647 0.52524 0.91989 0.0
H516 H 0.62822 0.49495 0.96415 0.0
C517 C 0.52577 0.53978 0.93688 0.0
H518 H 0.61771 0.49758 0.91775 0.0
C519 C 0.53101 0.53721 0.96339 0.0
C520 C 0.56772 0.52084 0.97406 0.0
H521 H 0.49675 0.55218 0.92965 0.0
H522 H 0.50532 0.54709 0.97544 0.0
C523 C 0.59904 0.50704 0.95697 0.0
C524 C 0.12122 0.54965 0.25124 0.0
C525 C 0.09424 0.51606 0.23315 0.0
H526 H 0.13961 0.56834 0.29074 0.0
C527 C 0.06563 0.47298 0.24152 0.0
H528 H 0.1435 0.58322 0.24529 0.0
C529 C 0.06278 0.46482 0.26778 0.0
C530 C 0.08936 0.49906 0.28588 0.0
H531 H 1.04414 0.44679 0.22794 0.0
H532 H 1.03949 0.43215 0.27397 0.0
C533 C 0.11916 0.54105 0.27725 0.0
loop_
_geom_bond_atom_site_label_1
_geom_bond_atom_site_label_2
_geom_bond_distance
_geom_bond_site_symmetry_2
_ccdc_geom_bond_type
Nd0 C2 2.836 . S
Nd0 O20 2.500 . S
Nd0 O21 2.492 . S
Nd0 O22 2.487 . S
Nd0 O23 2.682 . S
Nd0 O24 2.410 . S
Nd0 O29 2.414 . S
Nd0 O31 2.424 1_455 S
Nd1 C11 2.836 . S
Nd1 O23 2.414 1_655 S
Nd1 O25 2.424 1_655 S
Nd1 O26 2.500 . S
Nd1 O27 2.492 . S
Nd1 O28 2.487 . S
Nd1 O29 2.682 1_655 S
Nd1 O30 2.410 . S
C2 Nd0 2.836 . S
C2 C3 1.498 . S
C2 O20 1.258 . S
C2 O21 1.239 . S
C3 C2 1.498 . S
C3 C4 1.366 . S
C3 C8 1.407 . S
C4 C3 1.366 . S
C4 C5 1.392 . S
C4 H32 0.930 . S
C5 C4 1.392 . S
C5 C6 1.398 . S
C5 H33 0.929 . S
C6 C5 1.398 . S
C6 C7 1.352 . S
C7 C6 1.352 . S
C7 C8 1.384 . S
C7 H34 0.930 . S
C8 C3 1.407 . S
C8 C7 1.384 . S
C8 H35 0.929 . S
C9 O22 1.241 . S
C9 O23 1.273 . S
C10 O24 1.251 . S
C10 O25 1.268 . S
C11 Nd1 2.836 . S
C11 C12 1.498 . S
C11 O26 1.258 . S
C11 O27 1.239 . S
C12 C11 1.498 . S
C12 C13 1.366 . S
C12 C17 1.407 . S
C13 C12 1.366 . S
C13 C14 1.392 . S
C13 H36 0.930 . S
C14 C13 1.392 . S
C14 C15 1.398 . S
C14 H37 0.929 . S
C15 C14 1.398 . S
C15 C16 1.352 . S
C16 C15 1.352 . S
C16 C17 1.384 . S
C16 H38 0.930 . S
C17 C12 1.407 . S
C17 C16 1.384 . S
C17 H39 0.929 . S
C18 O28 1.241 1_455 S
C18 O29 1.273 . S
C19 O30 1.251 . S
C19 O31 1.268 . S
O20 Nd0 2.500 . S
O20 C2 1.258 . S
O21 Nd0 2.492 . S
O21 C2 1.239 . S
O22 Nd0 2.487 . S
O22 C9 1.241 . S
O23 Nd0 2.682 . S
O23 Nd1 2.414 1_455 S
O23 C9 1.273 . S
O24 Nd0 2.410 . S
O24 C10 1.251 . S
O25 Nd1 2.424 1_455 S
O25 C10 1.268 . S
O26 Nd1 2.500 . S
O26 C11 1.258 . S
O27 Nd1 2.492 . S
O27 C11 1.239 . S
O28 Nd1 2.487 . S
O28 C18 1.241 1_655 S
O29 Nd0 2.414 . S
O29 Nd1 2.682 1_455 S
O29 C18 1.273 . S
O30 Nd1 2.410 . S
O30 C19 1.251 . S
O31 Nd0 2.424 1_655 S
O31 C19 1.268 . S
H32 C4 0.930 . S
H33 C5 0.929 . S
H34 C7 0.930 . S
H35 C8 0.929 . S
H36 C13 0.930 . S
H37 C14 0.929 . S
H38 C16 0.930 . S
H39 C17 0.929 . S
Nd40 C42 2.823 1_545 S
Nd40 O60 2.488 1_545 S
Nd40 O61 2.482 1_545 S
Nd40 O62 2.487 1_545 S
Nd40 O63 2.683 . S
Nd40 O64 2.392 1_545 S
Nd40 O69 2.411 . S
Nd40 O71 2.442 . S
Nd41 C51 2.836 . S
Nd41 O63 2.414 . S
Nd41 O65 2.424 1_545 S
Nd41 O66 2.500 . S
Nd41 O67 2.492 . S
Nd41 O68 2.487 . S
Nd41 O69 2.682 . S
Nd41 O70 2.410 . S
C42 Nd40 2.823 1_565 S
C42 C43 1.498 . S
C42 O60 1.258 . S
C42 O61 1.239 . S
C43 C42 1.498 . S
C43 C44 1.366 . S
C43 C48 1.407 . S
C44 C43 1.366 . S
C44 C45 1.392 . S
C44 H72 0.930 . S
C45 C44 1.392 . S
C45 C46 1.398 . S
C45 H73 0.929 . S
C46 C45 1.398 . S
C46 C47 1.352 . S
C47 C46 1.352 . S
C47 C48 1.384 . S
C47 H74 0.930 . S
C48 C43 1.407 . S
C48 C47 1.384 . S
C48 H75 0.929 . S
C49 O62 1.238 1_545 S
C49 O63 1.273 . S
C50 O64 1.251 . S
C50 O65 1.268 . S
C51 Nd41 2.836 . S
C51 C52 1.498 . S
C51 O66 1.258 . S
C51 O67 1.239 . S
C52 C51 1.498 . S
C52 C53 1.366 . S
C52 C57 1.407 . S
C53 C52 1.366 . S
C53 C54 1.392 . S
C53 H76 0.930 . S
C54 C53 1.392 . S
C54 C55 1.398 . S
C54 H77 0.929 . S
C55 C54 1.398 . S
C55 C56 1.352 . S
C56 C55 1.352 . S
C56 C57 1.384 . S
C56 H78 0.930 . S
C57 C52 1.407 . S
C57 C56 1.384 . S
C57 H79 0.929 . S
C58 O68 1.241 . S
C58 O69 1.273 . S
C59 O70 1.251 . S
C59 O71 1.268 . S
O60 Nd40 2.488 1_565 S
O60 C42 1.258 . S
O61 Nd40 2.482 1_565 S
O61 C42 1.239 . S
O62 Nd40 2.487 1_565 S
O62 C49 1.238 1_565 S
O63 Nd40 2.683 . S
O63 Nd41 2.414 . S
O63 C49 1.273 . S
O64 Nd40 2.392 1_565 S
O64 C50 1.251 . S
O65 Nd41 2.424 1_565 S
O65 C50 1.268 . S
O66 Nd41 2.500 . S
O66 C51 1.258 . S
O67 Nd41 2.492 . S
O67 C51 1.239 . S
O68 Nd41 2.487 . S
O68 C58 1.241 . S
O69 Nd40 2.411 . S
O69 Nd41 2.682 . S
O69 C58 1.273 . S
O70 Nd41 2.410 . S
O70 C59 1.251 . S
O71 Nd40 2.442 . S
O71 C59 1.268 . S
H72 C44 0.930 . S
H73 C45 0.929 . S
H74 C47 0.930 . S
H75 C48 0.929 . S
H76 C53 0.930 . S
H77 C54 0.929 . S
H78 C56 0.930 . S
H79 C57 0.929 . S
Nd80 C82 2.836 . S
Nd80 O100 2.500 . S
Nd80 O101 2.492 . S
Nd80 O102 2.487 . S
Nd80 O103 2.682 . S
Nd80 O104 2.410 . S
Nd80 O109 2.414 . S
Nd80 O111 2.424 . S
Nd81 C91 2.836 . S
Nd81 O103 2.414 . S
Nd81 O105 2.424 . S
Nd81 O106 2.500 . S
Nd81 O107 2.492 . S
Nd81 O108 2.487 . S
Nd81 O109 2.682 . S
Nd81 O110 2.410 . S
C82 Nd80 2.836 . S
C82 C83 1.498 . S
C82 O100 1.258 . S
C82 O101 1.239 . S
C83 C82 1.498 . S
C83 C84 1.366 . S
C83 C88 1.407 . S
C84 C83 1.366 . S
C84 C85 1.392 . S
C84 H112 0.930 . S
C85 C84 1.392 . S
C85 C86 1.398 . S
C85 H113 0.929 . S
C86 C85 1.398 . S
C86 C87 1.352 . S
C87 C86 1.352 . S
C87 C88 1.384 . S
C87 H114 0.930 . S
C88 C83 1.407 . S
C88 C87 1.384 . S
C88 H115 0.929 . S
C89 O102 1.241 . S
C89 O103 1.273 . S
C90 O104 1.251 . S
C90 O105 1.268 . S
C91 Nd81 2.836 . S
C91 C92 1.498 . S
C91 O106 1.258 . S
C91 O107 1.239 . S
C92 C91 1.498 . S
C92 C93 1.366 . S
C92 C97 1.407 . S
C93 C92 1.366 . S
C93 C94 1.392 . S
C93 H116 0.930 . S
C94 C93 1.392 . S
C94 C95 1.398 . S
C94 H117 0.929 . S
C95 C94 1.398 . S
C95 C96 1.352 . S
C96 C95 1.352 . S
C96 C97 1.384 . S
C96 H118 0.930 . S
C97 C92 1.407 . S
C97 C96 1.384 . S
C97 H119 0.929 . S
C98 O108 1.241 . S
C98 O109 1.273 . S
C99 O110 1.251 . S
C99 O111 1.268 . S
O100 Nd80 2.500 . S
O100 C82 1.258 . S
O101 Nd80 2.492 . S
O101 C82 1.239 . S
O102 Nd80 2.487 . S
O102 C89 1.241 . S
O103 Nd80 2.682 . S
O103 Nd81 2.414 . S
O103 C89 1.273 . S
O104 Nd80 2.410 . S
O104 C90 1.251 . S
O105 Nd81 2.424 . S
O105 C90 1.268 . S
O106 Nd81 2.500 . S
O106 C91 1.258 . S
O107 Nd81 2.492 . S
O107 C91 1.239 . S
O108 Nd81 2.487 . S
O108 C98 1.241 . S
O109 Nd80 2.414 . S
O109 Nd81 2.682 . S
O109 C98 1.273 . S
O110 Nd81 2.410 . S
O110 C99 1.251 . S
O111 Nd80 2.424 . S
O111 C99 1.268 . S
H112 C84 0.930 . S
H113 C85 0.929 . S
H114 C87 0.930 . S
H115 C88 0.929 . S
H116 C93 0.930 . S
H117 C94 0.929 . S
H118 C96 0.930 . S
H119 C97 0.929 . S
C120 C121 1.386 . S
C120 C122 1.397 . S
C120 H144 0.931 . S
C121 C120 1.386 . S
C121 C125 1.397 1_545 S
C122 C120 1.397 . S
C122 C123 1.384 . S
C122 H145 0.930 . S
C123 C122 1.384 . S
C123 C124 1.377 1_545 S
C123 C126 1.481 . S
C124 C123 1.377 1_565 S
C124 C125 1.389 . S
C124 H146 0.929 . S
C125 C121 1.397 1_565 S
C125 C124 1.389 . S
C125 H147 0.931 . S
C126 C123 1.481 . S
C126 C127 1.387 . S
C126 C131 1.389 1_545 S
C127 C126 1.387 . S
C127 C128 1.401 . S
C127 H148 0.930 . S
C128 C127 1.401 . S
C128 C129 1.376 . S
C128 C137 1.511 . S
C129 C128 1.376 . S
C129 C130 1.392 1_545 S
C129 H150 0.931 . S
C130 C129 1.392 1_565 S
C130 C131 1.361 . S
C130 C132 1.500 . S
C131 C126 1.389 1_565 S
C131 C130 1.361 . S
C131 H149 0.933 . S
C132 C130 1.500 . S
C132 C133 1.371 . S
C132 C134 1.365 . S
C133 C132 1.371 . S
C133 C143 1.386 . S
C133 H151 0.931 . S
C134 C132 1.365 . S
C134 C135 1.409 . S
C134 H152 0.929 . S
C135 C134 1.409 . S
C135 C136 1.380 . S
C135 H153 0.930 . S
C136 C135 1.380 . S
C136 C143 1.357 . S
C137 C128 1.511 . S
C137 C138 1.341 . S
C137 C139 1.371 . S
C138 C137 1.341 . S
C138 C142 1.394 . S
C138 H154 0.930 . S
C139 C137 1.371 . S
C139 C140 1.392 . S
C139 H155 0.931 . S
C140 C139 1.392 . S
C140 C141 1.331 . S
C140 H158 0.932 . S
C141 C140 1.331 . S
C141 C142 1.336 . S
C142 C138 1.394 . S
C142 C141 1.336 . S
C142 H157 0.929 . S
C143 C133 1.386 . S
C143 C136 1.357 . S
C143 H156 0.928 . S
H144 C120 0.931 . S
H145 C122 0.930 . S
H146 C124 0.929 . S
H147 C125 0.931 . S
H148 C127 0.930 . S
H149 C131 0.933 . S
H150 C129 0.931 . S
H151 C133 0.931 . S
H152 C134 0.929 . S
H153 C135 0.930 . S
H154 C138 0.930 . S
H155 C139 0.931 . S
H156 C143 0.928 . S
H157 C142 0.929 . S
H158 C140 0.932 . S
C159 C160 1.386 . S
C159 C161 1.397 . S
C159 H183 0.931 . S
C160 C159 1.386 . S
C160 C164 1.397 . S
C161 C159 1.397 . S
C161 C162 1.384 . S
C161 H184 0.930 . S
C162 C161 1.384 . S
C162 C163 1.377 . S
C162 C165 1.481 . S
C163 C162 1.377 . S
C163 C164 1.389 . S
C163 H185 0.929 . S
C164 C160 1.397 . S
C164 C163 1.389 . S
C164 H186 0.931 . S
C165 C162 1.481 . S
C165 C166 1.387 . S
C165 C170 1.390 . S
C166 C165 1.387 . S
C166 C167 1.401 . S
C166 H187 0.930 . S
C167 C166 1.401 . S
C167 C168 1.376 . S
C167 C176 1.511 . S
C168 C167 1.376 . S
C168 C169 1.392 . S
C168 H189 0.931 . S
C169 C168 1.392 . S
C169 C170 1.361 . S
C169 C171 1.500 . S
C170 C165 1.390 . S
C170 C169 1.361 . S
C170 H188 0.931 . S
C171 C169 1.500 . S
C171 C172 1.371 . S
C171 C173 1.365 . S
C172 C171 1.371 . S
C172 C182 1.386 . S
C172 H190 0.931 . S
C173 C171 1.365 . S
C173 C174 1.409 . S
C173 H191 0.929 . S
C174 C173 1.409 . S
C174 C175 1.380 . S
C174 H192 0.930 . S
C175 C174 1.380 . S
C175 C182 1.357 . S
C176 C167 1.511 . S
C176 C177 1.341 . S
C176 C178 1.371 . S
C177 C176 1.341 . S
C177 C181 1.394 . S
C177 H193 0.930 . S
C178 C176 1.371 . S
C178 C179 1.392 . S
C178 H194 0.931 . S
C179 C178 1.392 . S
C179 C180 1.331 . S
C179 H197 0.932 . S
C180 C179 1.331 . S
C180 C181 1.336 . S
C181 C177 1.394 . S
C181 C180 1.336 . S
C181 H196 0.929 . S
C182 C172 1.386 . S
C182 C175 1.357 . S
C182 H195 0.928 . S
H183 C159 0.931 . S
H184 C161 0.930 . S
H185 C163 0.929 . S
H186 C164 0.931 . S
H187 C166 0.930 . S
H188 C170 0.931 . S
H189 C168 0.931 . S
H190 C172 0.931 . S
H191 C173 0.929 . S
H192 C174 0.930 . S
H193 C177 0.930 . S
H194 C178 0.931 . S
H195 C182 0.928 . S
H196 C181 0.929 . S
H197 C179 0.932 . S
C198 C199 1.386 . S
C198 C200 1.397 1_554 S
C198 H222 0.931 . S
C199 C198 1.386 . S
C199 C203 1.397 1_455 S
C200 C198 1.397 1_556 S
C200 C201 1.384 . S
C200 H223 0.930 . S
C201 C200 1.384 . S
C201 C202 1.377 1_455 S
C201 C204 1.481 . S
C202 C201 1.377 1_655 S
C202 C203 1.389 1_556 S
C202 H224 0.929 . S
C203 C199 1.397 1_655 S
C203 C202 1.389 1_554 S
C203 H225 0.931 . S
C204 C201 1.481 . S
C204 C205 1.387 . S
C204 C209 1.390 1_455 S
C205 C204 1.387 . S
C205 C206 1.401 . S
C205 H226 0.930 . S
C206 C205 1.401 . S
C206 C207 1.376 . S
C206 C215 1.511 . S
C207 C206 1.376 . S
C207 C208 1.392 1_455 S
C207 H228 0.931 . S
C208 C207 1.392 1_655 S
C208 C209 1.361 . S
C208 C210 1.500 . S
C209 C204 1.390 1_655 S
C209 C208 1.361 . S
C209 H227 0.931 . S
C210 C208 1.500 . S
C210 C211 1.371 . S
C210 C212 1.365 . S
C211 C210 1.371 . S
C211 C221 1.386 . S
C211 H229 0.931 . S
C212 C210 1.365 . S
C212 C213 1.409 . S
C212 H230 0.929 . S
C213 C212 1.409 . S
C213 C214 1.380 . S
C213 H231 0.930 . S
C214 C213 1.380 . S
C214 C221 1.357 . S
C215 C206 1.511 . S
C215 C216 1.341 . S
C215 C217 1.371 . S
C216 C215 1.341 . S
C216 C220 1.394 . S
C216 H232 0.930 . S
C217 C215 1.371 . S
C217 C218 1.392 . S
C217 H233 0.931 . S
C218 C217 1.392 . S
C218 C219 1.331 . S
C218 H236 0.932 . S
C219 C218 1.331 . S
C219 C220 1.336 . S
C220 C216 1.394 . S
C220 C219 1.336 . S
C220 H235 0.929 . S
C221 C211 1.386 . S
C221 C214 1.357 . S
C221 H234 0.928 . S
H222 C198 0.931 . S
H223 C200 0.930 . S
H224 C202 0.929 . S
H225 C203 0.931 . S
H226 C205 0.930 . S
H227 C209 0.931 . S
H228 C207 0.931 . S
H229 C211 0.931 . S
H230 C212 0.929 . S
H231 C213 0.930 . S
H232 C216 0.930 . S
H233 C217 0.931 . S
H234 C221 0.928 . S
H235 C220 0.929 . S
H236 C218 0.932 . S
C237 C238 1.386 1_655 S
C237 C239 1.397 . S
C237 H261 0.931 . S
C238 C237 1.386 1_455 S
C238 C242 1.397 . S
C239 C237 1.397 . S
C239 C240 1.394 . S
C239 H262 0.930 . S
C240 C239 1.394 . S
C240 C241 1.367 1_655 S
C240 C243 1.481 . S
C241 C240 1.367 1_455 S
C241 C242 1.389 . S
C241 H263 0.929 . S
C242 C238 1.397 . S
C242 C241 1.389 . S
C242 H264 0.931 . S
C243 C240 1.481 . S
C243 C244 1.387 . S
C243 C248 1.390 1_655 S
C244 C243 1.387 . S
C244 C245 1.401 . S
C244 H265 0.930 . S
C245 C244 1.401 . S
C245 C246 1.376 . S
C245 C254 1.511 . S
C246 C245 1.376 . S
C246 C247 1.392 1_655 S
C246 H267 0.931 . S
C247 C246 1.392 1_455 S
C247 C248 1.361 . S
C247 C249 1.500 . S
C248 C243 1.390 1_455 S
C248 C247 1.361 . S
C248 H266 0.931 . S
C249 C247 1.500 . S
C249 C250 1.371 . S
C249 C251 1.365 . S
C250 C249 1.371 . S
C250 C260 1.386 . S
C250 H268 0.931 . S
C251 C249 1.365 . S
C251 C252 1.409 . S
C251 H269 0.929 . S
C252 C251 1.409 . S
C252 C253 1.380 . S
C252 H270 0.930 . S
C253 C252 1.380 . S
C253 C260 1.357 . S
C254 C245 1.511 . S
C254 C255 1.341 . S
C254 C256 1.371 . S
C255 C254 1.341 . S
C255 C259 1.394 . S
C255 H271 0.930 . S
C256 C254 1.371 . S
C256 C257 1.392 . S
C256 H272 0.931 . S
C257 C256 1.392 . S
C257 C258 1.331 . S
C257 H275 0.932 . S
C258 C257 1.331 . S
C258 C259 1.336 . S
C259 C255 1.394 . S
C259 C258 1.336 . S
C259 H274 0.929 . S
C260 C250 1.386 . S
C260 C253 1.357 . S
C260 H273 0.928 . S
H261 C237 0.931 . S
H262 C239 0.930 . S
H263 C241 0.929 . S
H264 C242 0.931 . S
H265 C244 0.930 . S
H266 C248 0.931 . S
H267 C246 0.931 . S
H268 C250 0.931 . S
H269 C251 0.929 . S
H270 C252 0.930 . S
H271 C255 0.930 . S
H272 C256 0.931 . S
H273 C260 0.928 . S
H274 C259 0.929 . S
H275 C257 0.932 . S
C276 C277 1.381 1_565 S
C276 C278 1.397 . S
C276 H300 0.931 . S
C277 C276 1.381 1_545 S
C277 C281 1.402 . S
C278 C276 1.397 . S
C278 C279 1.384 1_565 S
C278 H301 0.930 . S
C279 C278 1.384 1_545 S
C279 C280 1.377 . S
C279 C282 1.481 . S
C280 C279 1.377 . S
C280 C281 1.389 . S
C280 H302 0.929 . S
C281 C277 1.402 . S
C281 C280 1.389 . S
C281 H303 0.931 . S
C282 C279 1.481 . S
C282 C283 1.387 1_545 S
C282 C287 1.390 . S
C283 C282 1.387 1_565 S
C283 C284 1.401 . S
C283 H304 0.930 . S
C284 C283 1.401 . S
C284 C285 1.376 1_565 S
C284 C293 1.511 . S
C285 C284 1.376 1_545 S
C285 C286 1.392 . S
C285 H306 0.931 . S
C286 C285 1.392 . S
C286 C287 1.361 . S
C286 C288 1.500 . S
C287 C282 1.390 . S
C287 C286 1.361 . S
C287 H305 0.931 . S
C288 C286 1.500 . S
C288 C289 1.371 . S
C288 C290 1.365 . S
C289 C288 1.371 . S
C289 C299 1.386 . S
C289 H307 0.931 . S
C290 C288 1.365 . S
C290 C291 1.409 . S
C290 H308 0.929 . S
C291 C290 1.409 . S
C291 C292 1.380 . S
C291 H309 0.930 . S
C292 C291 1.380 . S
C292 C299 1.357 . S
C293 C284 1.511 . S
C293 C294 1.341 . S
C293 C295 1.371 . S
C294 C293 1.341 . S
C294 C298 1.394 . S
C294 H310 0.930 . S
C295 C293 1.371 . S
C295 C296 1.392 . S
C295 H311 0.931 . S
C296 C295 1.392 . S
C296 C297 1.331 . S
C296 H314 0.932 . S
C297 C296 1.331 . S
C297 C298 1.336 . S
C298 C294 1.394 . S
C298 C297 1.336 . S
C298 H313 0.929 . S
C299 C289 1.386 . S
C299 C292 1.357 . S
C299 H312 0.928 . S
H300 C276 0.931 . S
H301 C278 0.930 . S
H302 C280 0.929 . S
H303 C281 0.931 . S
H304 C283 0.930 . S
H305 C287 0.931 . S
H306 C285 0.931 . S
H307 C289 0.931 . S
H308 C290 0.929 . S
H309 C291 0.930 . S
H310 C294 0.930 . S
H311 C295 0.931 . S
H312 C299 0.928 . S
H313 C298 0.929 . S
H314 C296 0.932 . S
C315 C316 1.386 1_554 S
C315 C317 1.397 . S
C315 H339 0.931 1_554 S
C316 C315 1.386 1_556 S
C316 C320 1.397 1_556 S
C317 C315 1.397 . S
C317 C318 1.384 . S
C317 H340 0.930 . S
C318 C317 1.384 . S
C318 C319 1.377 . S
C318 C321 1.481 . S
C319 C318 1.377 . S
C319 C320 1.389 . S
C319 H341 0.929 . S
C320 C316 1.397 1_554 S
C320 C319 1.389 . S
C320 H342 0.931 . S
C321 C318 1.481 . S
C321 C322 1.387 . S
C321 C326 1.390 . S
C322 C321 1.387 . S
C322 C323 1.401 . S
C322 H343 0.930 . S
C323 C322 1.401 . S
C323 C324 1.376 . S
C323 C332 1.511 . S
C324 C323 1.376 . S
C324 C325 1.392 . S
C324 H345 0.931 . S
C325 C324 1.392 . S
C325 C326 1.361 . S
C325 C327 1.500 . S
C326 C321 1.390 . S
C326 C325 1.361 . S
C326 H344 0.931 . S
C327 C325 1.500 . S
C327 C328 1.371 . S
C327 C329 1.365 . S
C328 C327 1.371 . S
C328 C338 1.386 . S
C328 H346 0.931 . S
C329 C327 1.365 . S
C329 C330 1.409 . S
C329 H347 0.929 . S
C330 C329 1.409 . S
C330 C331 1.380 . S
C330 H348 0.930 . S
C331 C330 1.380 . S
C331 C338 1.357 . S
C332 C323 1.511 . S
C332 C333 1.341 . S
C332 C334 1.371 . S
C333 C332 1.341 . S
C333 C337 1.394 . S
C333 H349 0.930 . S
C334 C332 1.371 . S
C334 C335 1.392 . S
C334 H350 0.931 . S
C335 C334 1.392 . S
C335 C336 1.331 . S
C335 H353 0.932 . S
C336 C335 1.331 . S
C336 C337 1.336 . S
C337 C333 1.394 . S
C337 C336 1.336 . S
C337 H352 0.929 . S
C338 C328 1.386 . S
C338 C331 1.357 . S
C338 H351 0.928 . S
H339 C315 0.931 1_556 S
H340 C317 0.930 . S
H341 C319 0.929 . S
H342 C320 0.931 . S
H343 C322 0.930 . S
H344 C326 0.931 . S
H345 C324 0.931 . S
H346 C328 0.931 . S
H347 C329 0.929 . S
H348 C330 0.930 . S
H349 C333 0.930 . S
H350 C334 0.931 . S
H351 C338 0.928 . S
H352 C337 0.929 . S
H353 C335 0.932 . S
C354 C355 1.387 . S
C354 H358 0.950 . S
C354 C363 1.390 . S
C355 C354 1.387 . S
C355 C357 1.387 . S
H356 C363 0.950 . S
C357 C355 1.387 . S
C357 C359 1.390 . S
C357 H361 0.950 . S
H358 C354 0.950 . S
C359 C357 1.390 . S
C359 C360 1.387 . S
C359 H362 0.950 . S
C360 C359 1.387 . S
C360 C363 1.387 . S
H361 C357 0.950 . S
H362 C359 0.950 . S
C363 C354 1.390 . S
C363 H356 0.950 . S
C363 C360 1.387 . S
C364 C365 1.387 . S
C364 H368 0.950 . S
C364 C373 1.390 . S
C365 C364 1.387 . S
C365 C367 1.387 . S
H366 C373 0.950 . S
C367 C365 1.387 . S
C367 C369 1.390 . S
C367 H371 0.950 . S
H368 C364 0.950 . S
C369 C367 1.390 . S
C369 C370 1.387 . S
C369 H372 0.950 . S
C370 C369 1.387 . S
C370 C373 1.387 . S
H371 C367 0.950 . S
H372 C369 0.950 . S
C373 C364 1.390 . S
C373 H366 0.950 . S
C373 C370 1.387 . S
C374 C375 1.387 . S
C374 H378 0.950 . S
C374 C383 1.390 . S
C375 C374 1.387 . S
C375 C377 1.387 . S
H376 C383 0.950 . S
C377 C375 1.387 . S
C377 C379 1.390 . S
C377 H381 0.950 . S
H378 C374 0.950 . S
C379 C377 1.390 . S
C379 C380 1.387 . S
C379 H382 0.950 . S
C380 C379 1.387 . S
C380 C383 1.387 . S
H381 C377 0.950 . S
H382 C379 0.950 . S
C383 C374 1.390 . S
C383 H376 0.950 . S
C383 C380 1.387 . S
C384 C385 1.387 . S
C384 H388 0.950 . S
C384 C393 1.390 . S
C385 C384 1.387 . S
C385 C387 1.387 . S
H386 C393 0.950 . S
C387 C385 1.387 . S
C387 C389 1.390 . S
C387 H391 0.950 . S
H388 C384 0.950 . S
C389 C387 1.390 . S
C389 C390 1.387 . S
C389 H392 0.950 . S
C390 C389 1.387 . S
C390 C393 1.387 . S
H391 C387 0.950 . S
H392 C389 0.950 . S
C393 C384 1.390 . S
C393 H386 0.950 . S
C393 C390 1.387 . S
C394 C395 1.387 . S
C394 H398 0.950 . S
C394 C403 1.390 . S
C395 C394 1.387 . S
C395 C397 1.387 . S
H396 C403 0.950 . S
C397 C395 1.387 . S
C397 C399 1.390 . S
C397 H401 0.950 . S
H398 C394 0.950 . S
C399 C397 1.390 . S
C399 C400 1.387 . S
C399 H402 0.950 . S
C400 C399 1.387 . S
C400 C403 1.387 . S
H401 C397 0.950 . S
H402 C399 0.950 . S
C403 C394 1.390 . S
C403 H396 0.950 . S
C403 C400 1.387 . S
C404 C405 1.387 . S
C404 H408 0.950 . S
C404 C413 1.390 . S
C405 C404 1.387 . S
C405 C407 1.387 . S
H406 C413 0.950 . S
C407 C405 1.387 . S
C407 C409 1.390 . S
C407 H411 0.950 . S
H408 C404 0.950 . S
C409 C407 1.390 . S
C409 C410 1.387 . S
C409 H412 0.950 . S
C410 C409 1.387 . S
C410 C413 1.387 . S
H411 C407 0.950 . S
H412 C409 0.950 . S
C413 C404 1.390 . S
C413 H406 0.950 . S
C413 C410 1.387 . S
C414 C415 1.387 . S
C414 H418 0.950 . S
C414 C423 1.390 . S
C415 C414 1.387 . S
C415 C417 1.387 . S
H416 C423 0.950 . S
C417 C415 1.387 . S
C417 C419 1.390 . S
C417 H421 0.950 . S
H418 C414 0.950 . S
C419 C417 1.390 . S
C419 C420 1.387 . S
C419 H422 0.950 . S
C420 C419 1.387 . S
C420 C423 1.387 . S
H421 C417 0.950 . S
H422 C419 0.950 . S
C423 C414 1.390 . S
C423 H416 0.950 . S
C423 C420 1.387 . S
C424 C425 1.387 . S
C424 H428 0.950 . S
C424 C433 1.390 . S
C425 C424 1.387 . S
C425 C427 1.387 . S
H426 C433 0.950 . S
C427 C425 1.387 . S
C427 C429 1.390 . S
C427 H431 0.950 . S
H428 C424 0.950 . S
C429 C427 1.390 . S
C429 C430 1.387 . S
C429 H432 0.950 . S
C430 C429 1.387 . S
C430 C433 1.387 . S
H431 C427 0.950 . S
H432 C429 0.950 . S
C433 C424 1.390 . S
C433 H426 0.950 . S
C433 C430 1.387 . S
C434 C435 1.387 . S
C434 H438 0.950 . S
C434 C443 1.390 . S
C435 C434 1.387 . S
C435 C437 1.387 . S
H436 C443 0.950 . S
C437 C435 1.387 . S
C437 C439 1.390 . S
C437 H441 0.950 . S
H438 C434 0.950 . S
C439 C437 1.390 . S
C439 C440 1.387 . S
C439 H442 0.950 . S
C440 C439 1.387 . S
C440 C443 1.387 . S
H441 C437 0.950 . S
H442 C439 0.950 . S
C443 C434 1.390 . S
C443 H436 0.950 . S
C443 C440 1.387 . S
C444 C445 1.387 . S
C444 H448 0.950 . S
C444 C453 1.390 . S
C445 C444 1.387 . S
C445 C447 1.387 . S
H446 C453 0.950 . S
C447 C445 1.387 . S
C447 C449 1.390 . S
C447 H451 0.950 . S
H448 C444 0.950 . S
C449 C447 1.390 . S
C449 C450 1.387 . S
C449 H452 0.950 . S
C450 C449 1.387 . S
C450 C453 1.387 . S
H451 C447 0.950 . S
H452 C449 0.950 . S
C453 C444 1.390 . S
C453 H446 0.950 . S
C453 C450 1.387 . S
C454 C455 1.387 . S
C454 H458 0.950 . S
C454 C463 1.390 . S
C455 C454 1.387 . S
C455 C457 1.387 . S
H456 C463 0.950 . S
C457 C455 1.387 . S
C457 C459 1.390 . S
C457 H461 0.950 . S
H458 C454 0.950 . S
C459 C457 1.390 . S
C459 C460 1.387 . S
C459 H462 0.950 . S
C460 C459 1.387 . S
C460 C463 1.387 . S
H461 C457 0.950 . S
H462 C459 0.950 . S
C463 C454 1.390 . S
C463 H456 0.950 . S
C463 C460 1.387 . S
C464 C465 1.387 . S
C464 H468 0.950 . S
C464 C473 1.390 . S
C465 C464 1.387 . S
C465 C467 1.387 . S
H466 C473 0.950 . S
C467 C465 1.387 . S
C467 C469 1.390 . S
C467 H471 0.950 . S
H468 C464 0.950 . S
C469 C467 1.390 . S
C469 C470 1.387 . S
C469 H472 0.950 . S
C470 C469 1.387 . S
C470 C473 1.387 . S
H471 C467 0.950 . S
H472 C469 0.950 . S
C473 C464 1.390 . S
C473 H466 0.950 . S
C473 C470 1.387 . S
C474 C475 1.387 . S
C474 H478 0.950 . S
C474 C483 1.390 . S
C475 C474 1.387 . S
C475 C477 1.387 1_455 S
H476 C483 0.950 . S
C477 C475 1.387 1_655 S
C477 C479 1.390 . S
C477 H481 0.950 . S
H478 C474 0.950 . S
C479 C477 1.390 . S
C479 C480 1.387 1_655 S
C479 H482 0.950 . S
C480 C479 1.387 1_455 S
C480 C483 1.387 . S
H481 C477 0.950 . S
H482 C479 0.950 . S
C483 C474 1.390 . S
C483 H476 0.950 . S
C483 C480 1.387 . S
C484 C485 1.387 . S
C484 H488 0.950 . S
C484 C493 1.390 . S
C485 C484 1.387 . S
C485 C487 1.387 . S
H486 C493 0.950 . S
C487 C485 1.387 . S
C487 C489 1.390 . S
C487 H491 0.954 . S
H488 C484 0.950 . S
C489 C487 1.390 . S
C489 C490 1.387 . S
C489 H492 0.950 . S
C490 C489 1.387 . S
C490 C493 1.387 . S
H491 C487 0.954 . S
H492 C489 0.950 . S
C493 C484 1.390 . S
C493 H486 0.950 . S
C493 C490 1.387 . S
C494 C495 1.387 . S
C494 H498 0.950 . S
C494 C503 1.390 . S
C495 C494 1.387 . S
C495 C497 1.387 . S
H496 C503 0.950 . S
C497 C495 1.387 . S
C497 C499 1.390 . S
C497 H501 0.950 . S
H498 C494 0.950 . S
C499 C497 1.390 . S
C499 C500 1.387 . S
C499 H502 0.950 . S
C500 C499 1.387 . S
C500 C503 1.387 . S
H501 C497 0.950 . S
H502 C499 0.950 . S
C503 C494 1.390 . S
C503 H496 0.950 . S
C503 C500 1.387 . S
C504 C505 1.387 . S
C504 H508 0.950 . S
C504 C513 1.387 1_545 S
C505 C504 1.387 . S
C505 C507 1.387 . S
H506 C513 0.958 . S
C507 C505 1.387 . S
C507 C509 1.390 . S
C507 H511 0.950 . S
H508 C504 0.950 . S
C509 C507 1.390 . S
C509 C510 1.387 . S
C509 H512 0.950 . S
C510 C509 1.387 . S
C510 C513 1.382 1_545 S
H511 C507 0.950 . S
H512 C509 0.950 . S
C513 C504 1.387 1_565 S
C513 H506 0.958 . S
C513 C510 1.382 1_565 S
C514 C515 1.387 . S
C514 H518 0.950 . S
C514 C523 1.390 . S
C515 C514 1.387 . S
C515 C517 1.387 . S
H516 C523 0.950 . S
C517 C515 1.387 . S
C517 C519 1.390 . S
C517 H521 0.950 . S
H518 C514 0.950 . S
C519 C517 1.390 . S
C519 C520 1.387 . S
C519 H522 0.950 . S
C520 C519 1.387 . S
C520 C523 1.387 . S
H521 C517 0.950 . S
H522 C519 0.950 . S
C523 C514 1.390 . S
C523 H516 0.950 . S
C523 C520 1.387 . S
C524 C525 1.387 . S
C524 H528 0.950 . S
C524 C533 1.390 . S
C525 C524 1.387 . S
C525 C527 1.387 1_455 S
H526 C533 0.950 . S
C527 C525 1.387 1_655 S
C527 C529 1.390 . S
C527 H531 0.950 . S
H528 C524 0.950 . S
C529 C527 1.390 . S
C529 C530 1.387 1_655 S
C529 H532 0.950 . S
C530 C529 1.387 1_455 S
C530 C533 1.387 . S
H531 C527 0.950 . S
H532 C529 0.950 . S
C533 C524 1.390 . S
C533 H526 0.950 . S
C533 C530 1.387 . S
C355 C10 3.201 . S
C360 C331 3.136 . S
C365 C55 1.297 . S
C370 C258 1.329 . S
C375 C90 2.019 . S
C380 C297 1.982 . S
C385 C19 3.109 . S
C390 C336 3.050 . S
C400 C253 1.387 . S
C395 C46 1.346 . S
C410 C292 2.122 . S
C405 C99 2.205 . S
C415 C50 2.023 . S
C420 C180 1.969 . S
C425 C95 0.936 . S
C430 C214 1.002 . S
C435 C6 1.365 . S
C440 C136 1.385 . S
C450 C175 2.067 . S
C445 C59 2.173 . S
C460 C219 0.562 . S
C455 C86 0.646 . S
C465 C15 1.409 . S
C470 C141 1.450 . S
C480 C199 1.106 . S
C475 C18 1.111 . S
C485 C49 1.457 . S
C490 C121 1.497 . S
C495 C98 1.329 . S
C500 C160 1.361 . S
C510 C277 1.375 . S
C505 C58 1.332 . S
C520 C316 1.794 . S
C515 C89 1.718 . S
C525 C9 1.451 . S
C530 C238 1.508 . S
