# Generated by pormake.
# Topology cml, (3,6)-cn, num edge types: 1
# Building blocks:
#     Node 0, Type 0, BuildingBlock: CUQRIR_clean_linker_1, # of connection points: 3
#     Node 1, Type 0, BuildingBlock: CUQRIR_clean_linker_1, # of connection points: 3
#     Node 2, Type 0, BuildingBlock: CUQRIR_clean_linker_1, # of connection points: 3
#     Node 3, Type 0, BuildingBlock: CUQRIR_clean_linker_1, # of connection points: 3
#     Node 4, Type 0, BuildingBlock: CUQRIR_clean_linker_1, # of connection points: 3
#     Node 5, Type 0, BuildingBlock: CUQRIR_clean_linker_1, # of connection points: 3
#     Node 6, Type 0, BuildingBlock: CUQRIR_clean_linker_1, # of connection points: 3
#     Node 7, Type 0, BuildingBlock: CUQRIR_clean_linker_1, # of connection points: 3
#     Node 8, Type 1, BuildingBlock: IZENUY_clean_sbu_0, # of connection points: 6
#     Node 9, Type 1, BuildingBlock: IZENUY_clean_sbu_0, # of connection points: 6
#     Node 10, Type 1, BuildingBlock: IZENUY_clean_sbu_0, # of connection points: 6
#     Node 11, Type 1, BuildingBlock: IZENUY_clean_sbu_0, # of connection points: 6
#     Edge 12, Type (0, 1), BuildingBlock: OJICUG_clean_linker_0, # of connection points: 2
#     Edge 13, Type (0, 1), BuildingBlock: OJICUG_clean_linker_0, # of connection points: 2
#     Edge 14, Type (0, 1), BuildingBlock: OJICUG_clean_linker_0, # of connection points: 2
#     Edge 15, Type (0, 1), BuildingBlock: OJICUG_clean_linker_0, # of connection points: 2
#     Edge 16, Type (0, 1), BuildingBlock: OJICUG_clean_linker_0, # of connection points: 2
#     Edge 17, Type (0, 1), BuildingBlock: OJICUG_clean_linker_0, # of connection points: 2
#     Edge 18, Type (0, 1), BuildingBlock: OJICUG_clean_linker_0, # of connection points: 2
#     Edge 19, Type (0, 1), BuildingBlock: OJICUG_clean_linker_0, # of connection points: 2
#     Edge 20, Type (0, 1), BuildingBlock: OJICUG_clean_linker_0, # of connection points: 2
#     Edge 21, Type (0, 1), BuildingBlock: OJICUG_clean_linker_0, # of connection points: 2
#     Edge 22, Type (0, 1), BuildingBlock: OJICUG_clean_linker_0, # of connection points: 2
#     Edge 23, Type (0, 1), BuildingBlock: OJICUG_clean_linker_0, # of connection points: 2
#     Edge 24, Type (0, 1), BuildingBlock: OJICUG_clean_linker_0, # of connection points: 2
#     Edge 25, Type (0, 1), BuildingBlock: OJICUG_clean_linker_0, # of connection points: 2
#     Edge 26, Type (0, 1), BuildingBlock: OJICUG_clean_linker_0, # of connection points: 2
#     Edge 27, Type (0, 1), BuildingBlock: OJICUG_clean_linker_0, # of connection points: 2
#     Edge 28, Type (0, 1), BuildingBlock: OJICUG_clean_linker_0, # of connection points: 2
#     Edge 29, Type (0, 1), BuildingBlock: OJICUG_clean_linker_0, # of connection points: 2
#     Edge 30, Type (0, 1), BuildingBlock: OJICUG_clean_linker_0, # of connection points: 2
#     Edge 31, Type (0, 1), BuildingBlock: OJICUG_clean_linker_0, # of connection points: 2
#     Edge 32, Type (0, 1), BuildingBlock: OJICUG_clean_linker_0, # of connection points: 2
#     Edge 33, Type (0, 1), BuildingBlock: OJICUG_clean_linker_0, # of connection points: 2
#     Edge 34, Type (0, 1), BuildingBlock: OJICUG_clean_linker_0, # of connection points: 2
#     Edge 35, Type (0, 1), BuildingBlock: OJICUG_clean_linker_0, # of connection points: 2
# Relax obj value: 0.001
# Max RMSD: 0.074
# Mean RMSD: 0.055
data_MOF--net-cml--node1-IZENUY_clean_sbu_0--node2-CUQRIR_clean_linker_1--edge1-OJICUG_clean_linker_0
_symmetry_space_group_name_H-M    P1
_symmetry_Int_Tables_number       1
_symmetry_cell_setting            triclinic
loop_
_symmetry_equiv_pos_as_xyz
'x, y, z'
_cell_length_a     25.560265
_cell_length_b     26.413744
_cell_length_c     22.346173
_cell_angle_alpha  89.968076
_cell_angle_beta   90.005152
_cell_angle_gamma 90.439692
loop_
_atom_site_label
_atom_site_type_symbol
_atom_site_fract_x
_atom_site_fract_y
_atom_site_fract_z
_atom_type_partial_charge
C0 C 0.23999 0.35932 0.07163 0.0
N1 N 0.27906 0.39423 0.07429 0.0
N2 N 0.21615 0.36027 1.01749 0.0
C3 C 0.22259 0.32676 0.12335 0.0
C4 C 0.24174 0.3976 0.98747 0.0
N5 N 0.27955 0.41857 1.02218 0.0
C6 C 0.23213 0.41127 0.92302 0.0
H7 H 0.24358 0.29019 0.12189 0.0
H8 H 0.17996 0.31878 0.12073 0.0
H9 H 0.23152 0.34552 0.16663 0.0
H10 H 0.19963 0.4388 0.92086 0.0
H11 H 0.22067 0.37726 0.89686 0.0
H12 H 0.26712 0.42901 0.90222 0.0
C13 C 0.75559 0.69383 0.57136 0.0
N14 N 0.71568 0.65996 0.57584 0.0
N15 N 0.77636 0.6936 0.51547 0.0
C16 C 0.77686 0.72436 0.62289 0.0
C17 C 0.74799 0.65774 0.48629 0.0
N18 N 0.71166 0.63699 0.52311 0.0
C19 C 0.75306 0.64561 0.42069 0.0
H20 H 0.75686 0.76144 0.62468 0.0
H21 H 0.81945 0.73135 0.61734 0.0
H22 H 0.76984 0.70445 0.66593 0.0
H23 H 0.78486 0.61773 0.4147 0.0
H24 H 0.76317 0.68015 0.39475 0.0
H25 H 0.71656 0.62886 0.40232 0.0
C26 C 0.74862 0.36821 0.07124 0.0
N27 N 0.71208 0.40508 0.07218 0.0
N28 N 0.77368 0.36756 1.01777 0.0
C29 C 0.75663 0.33008 0.1204 0.0
C30 C 0.75096 0.40534 0.98638 0.0
N31 N 0.71277 0.42747 1.0189 0.0
C32 C 0.76865 0.4229 0.92548 0.0
H33 H 0.79092 0.34187 0.14759 0.0
H34 H 0.76474 0.29216 0.10133 0.0
H35 H 0.72214 0.32742 0.15038 0.0
H36 H 0.74698 0.4017 0.89044 0.0
H37 H 0.81106 0.41586 0.91934 0.0
H38 H 0.7609 0.46388 0.91948 0.0
C39 C 0.2459 0.69657 0.56951 0.0
N40 N 0.28159 0.65893 0.56925 0.0
N41 N 0.2191 0.69758 0.5171 0.0
C42 C 0.24045 0.73494 0.61886 0.0
C43 C 0.24011 0.6591 0.48509 0.0
N44 N 0.27882 0.63623 0.51625 0.0
C45 C 0.21975 0.641 0.42554 0.0
H46 H 0.20813 0.72292 0.64892 0.0
H47 H 0.23092 0.77273 0.60029 0.0
H48 H 0.2767 0.73804 0.64593 0.0
H49 H 0.24075 0.66101 0.38899 0.0
H50 H 0.17735 0.64896 0.42117 0.0
H51 H 0.22618 0.59974 0.42022 0.0
C52 C 0.73903 0.86263 0.0756 0.0
N53 N 0.77488 0.90066 0.07743 0.0
N54 N 0.71092 0.86458 1.02412 0.0
C55 C 0.73385 0.82157 0.12206 0.0
C56 C 0.73141 0.90517 0.99485 0.0
N57 N 0.77047 0.92685 1.02697 0.0
C58 C 0.7124 0.92486 0.93559 0.0
H59 H 0.72636 0.78443 0.10039 0.0
H60 H 0.70012 0.83023 0.15145 0.0
H61 H 0.76914 0.81881 0.15062 0.0
H62 H 0.67042 0.91548 0.92885 0.0
H63 H 0.7354 0.90738 0.89904 0.0
H64 H 0.71804 0.96651 0.93295 0.0
C65 C 0.24415 0.20114 0.57124 0.0
N66 N 0.20466 0.16664 0.57186 0.0
N67 N 0.26897 0.20111 0.5177 0.0
C68 C 0.26019 0.23304 0.62401 0.0
C69 C 0.24326 0.16517 0.48568 0.0
N70 N 0.20438 0.14405 0.51866 0.0
C71 C 0.25503 0.15216 0.42147 0.0
H72 H 0.23867 0.26933 0.62274 0.0
H73 H 0.30275 0.24156 0.62266 0.0
H74 H 0.25057 0.2135 0.66665 0.0
H75 H 0.28826 0.12543 0.42031 0.0
H76 H 0.26651 0.18666 0.39617 0.0
H77 H 0.22132 0.1338 0.39888 0.0
C78 C 0.24152 0.85911 0.05955 0.0
N79 N 0.20423 0.89521 0.06196 0.0
N80 N 0.26659 0.86044 1.00609 0.0
C81 C 0.25196 0.82111 0.1083 0.0
C82 C 0.24303 0.89856 0.97612 0.0
N83 N 0.20474 0.91941 1.00973 0.0
C84 C 0.25968 0.91764 0.9155 0.0
H85 H 0.28506 0.83498 0.13607 0.0
H86 H 0.26291 0.78403 0.08886 0.0
H87 H 0.21767 0.81576 0.13802 0.0
H88 H 0.23753 0.89699 0.88036 0.0
H89 H 0.30205 0.91121 0.90822 0.0
H90 H 0.25141 0.95865 0.91088 0.0
C91 C 0.73595 0.18768 0.56822 0.0
N92 N 0.77229 0.15063 0.57063 0.0
N93 N 0.71193 0.18813 0.51408 0.0
C94 C 0.7268 0.22601 0.61691 0.0
C95 C 0.73534 0.15011 0.48368 0.0
N96 N 0.77231 0.12763 0.51778 0.0
C97 C 0.72115 0.1338 0.42124 0.0
H98 H 0.69093 0.21522 0.64193 0.0
H99 H 0.72071 0.26412 0.5973 0.0
H100 H 0.75968 0.22781 0.64919 0.0
H101 H 0.74603 0.15462 0.38868 0.0
H102 H 0.67954 0.14218 0.41144 0.0
H103 H 0.72811 0.09268 0.41532 0.0
Fe104 Fe 2e-05 0.85494 0.33136 0.0
Fe105 Fe -0.00452 0.91347 0.45106 0.0
O106 O -0.00246 0.91329 0.37129 0.0
Fe107 Fe -0.00349 0.97159 0.33113 0.0
O108 O 0.93649 0.95389 0.29248 0.0
O109 O 0.96108 0.87711 0.26768 0.0
O110 O 0.9396 0.83225 0.36462 0.0
C111 C 0.92979 0.83048 0.41983 0.0
C112 C 0.06681 0.91146 0.26287 0.0
O113 O 0.95646 0.85533 0.45747 0.0
C114 C 0.06277 0.99651 0.4229 0.0
O115 O 0.03966 0.82209 0.38733 0.0
O116 O 0.05634 0.87897 0.45702 0.0
O117 O 0.03723 0.94935 0.26862 0.0
O118 O 0.06052 0.87241 0.29447 0.0
C119 C 0.92664 0.99004 0.42772 0.0
O120 O 0.03427 0.9718 0.45907 0.0
O121 O 0.05595 0.99391 0.36703 0.0
C122 C 0.06641 0.83777 0.43123 0.0
O123 O 0.93418 0.94783 0.45242 0.0
O124 O 0.95596 1.00514 0.38566 0.0
C125 C 0.9309 0.91448 0.26113 0.0
Fe126 Fe -0.00883 0.14529 0.95191 0.0
Fe127 Fe 0.98823 0.08782 0.83183 0.0
O128 O 0.98904 0.14556 0.87241 0.0
Fe129 Fe 0.98757 0.20424 0.83377 0.0
O130 O 0.02631 0.23914 0.88974 0.0
O131 O 0.05257 0.18045 0.95218 0.0
O132 O 0.02981 0.0875 0.95834 0.0
C133 C 0.05742 0.06376 0.92101 0.0
C134 C 0.92106 0.22481 0.92555 0.0
O135 O 0.04889 0.06702 0.86559 0.0
C136 C 0.92061 0.14242 0.76277 0.0
O137 O 0.93018 0.10973 0.95703 0.0
O138 O 0.94893 0.05346 0.8876 0.0
O139 O 0.92644 0.22121 0.86958 0.0
O140 O 0.95272 0.20331 0.96074 0.0
C141 C 0.05601 0.15196 0.76358 0.0
O142 O 0.92712 0.10336 0.79427 0.0
O143 O 0.94932 0.18104 0.77011 0.0
C144 C 0.92143 0.06777 0.93162 0.0
O145 O 0.02791 0.11241 0.76924 0.0
O146 O 0.04815 0.19077 0.79524 0.0
C147 C 0.05831 0.22358 0.92872 0.0
Fe148 Fe 0.49757 0.35568 0.33459 0.0
Fe149 Fe 0.49631 0.41427 0.45295 0.0
O150 O 0.49676 0.41414 0.37354 0.0
Fe151 Fe 0.49635 0.47204 0.33324 0.0
O152 O 0.45677 0.44734 0.27074 0.0
O153 O 0.43623 0.36939 0.29767 0.0
O154 O 0.45987 0.32053 0.39124 0.0
C155 C 0.42887 0.33599 0.43128 0.0
C156 C 0.56377 0.41802 0.26348 0.0
O157 O 0.43525 0.37888 0.45496 0.0
C158 C 0.56372 0.49294 0.43197 0.0
O159 O 0.55936 0.33826 0.36875 0.0
O160 O 0.53536 0.35632 0.46068 0.0
O161 O 0.55752 0.45707 0.29519 0.0
O162 O 0.53478 0.37952 0.27042 0.0
C163 C 0.42777 0.49457 0.42348 0.0
O164 O 0.55717 0.45017 0.45622 0.0
O165 O 0.5351 0.50712 0.3889 0.0
C166 C 0.56582 0.33425 0.42453 0.0
O167 O 0.45703 0.47181 0.46021 0.0
O168 O 0.43552 0.4915 0.36784 0.0
C169 C 0.42816 0.40811 0.26589 0.0
Fe170 Fe 0.49111 0.64442 0.95208 0.0
Fe171 Fe 0.49456 0.5866 0.83228 0.0
O172 O 0.49376 0.64459 0.8725 0.0
Fe173 Fe 0.49526 0.70284 0.83291 0.0
O174 O 0.53234 0.73753 0.89022 0.0
O175 O 0.55158 0.68038 0.95829 0.0
O176 O 0.53051 0.58714 0.96075 0.0
C177 C 0.56063 0.56441 0.92493 0.0
C178 C 0.42369 0.72479 0.91988 0.0
O179 O 0.55421 0.56704 0.86901 0.0
C180 C 0.42943 0.64125 0.76042 0.0
O181 O 0.43021 0.60824 0.95254 0.0
O182 O 0.45444 0.5514 0.88654 0.0
O183 O 0.43292 0.72169 0.86454 0.0
O184 O 0.45182 0.702 0.95773 0.0
C185 C 0.5655 0.64917 0.76696 0.0
O186 O 0.43444 0.60214 0.79243 0.0
O187 O 0.45914 0.67923 0.7677 0.0
C188 C 0.42463 0.56528 0.92856 0.0
O189 O 0.53578 0.61067 0.77076 0.0
O190 O 0.55737 0.68795 0.79844 0.0
C191 C 0.5603 0.72232 0.9332 0.0
C192 C 0.18218 0.27342 1.00194 0.0
C193 C 0.17651 0.32601 0.99522 0.0
H194 H 0.14904 0.19972 0.98673 0.0
C195 C 0.13192 0.34461 0.96629 0.0
H196 H 0.21676 0.25814 1.02301 0.0
C197 C 0.09381 0.31128 0.9442 0.0
C198 C 0.09912 0.25864 0.95153 0.0
H199 H 0.1264 0.38497 0.96127 0.0
H200 H 0.05976 0.32683 0.92217 0.0
C201 C 0.14363 0.24006 0.98087 0.0
C202 C 0.85575 0.70989 0.45473 0.0
C203 C 0.8149 0.72793 0.4908 0.0
H204 H 0.92364 0.72883 0.40236 0.0
C205 C 0.81154 0.78022 0.50173 0.0
H206 H 0.85971 0.66976 0.44638 0.0
C207 C 0.84902 0.81359 0.47852 0.0
C208 C 0.88936 0.79548 0.44208 0.0
H209 H 0.7797 0.79533 0.52793 0.0
H210 H 0.84617 0.85364 0.48839 0.0
C211 C 0.89226 0.74352 0.42977 0.0
C212 C 0.85493 0.31844 1.0285 0.0
C213 C 0.81003 0.33062 0.99566 0.0
H214 H 0.92515 0.27489 0.03227 0.0
C215 C 0.80097 0.30655 0.94052 0.0
H216 H 0.86286 0.33683 0.07085 0.0
C217 C 0.83699 0.27211 0.91764 0.0
C218 C 0.88214 0.26014 0.95025 0.0
H219 H 0.76587 0.31434 0.91517 0.0
H220 H 0.8293 0.25454 0.87469 0.0
C221 C 0.89047 0.28316 1.00627 0.0
C222 C 0.13948 0.74886 0.53339 0.0
C223 C 0.18166 0.73456 0.4969 0.0
H224 H 0.07028 0.79415 0.54145 0.0
C225 C 0.18679 0.7567 0.43994 0.0
H226 H 0.13424 0.73197 0.57713 0.0
C227 C 0.14946 0.79073 0.41889 0.0
C228 C 0.10738 0.80474 0.45529 0.0
H229 H 0.21967 0.74756 0.41157 0.0
H230 H 0.15352 0.80627 0.37423 0.0
C231 C 0.10296 0.78422 0.51302 0.0
C232 C 0.63187 0.81098 0.03813 0.0
C233 C 0.67342 0.82796 1.00193 0.0
H234 H 0.56389 0.76287 0.04495 0.0
C235 C 0.67826 0.80831 0.94373 0.0
H236 H 0.62679 0.82599 0.08277 0.0
C237 C 0.64141 0.77379 0.92149 0.0
C238 C 0.60019 0.75681 0.95783 0.0
H239 H 0.71066 0.81957 0.91545 0.0
H240 H 0.64534 0.75996 0.87607 0.0
C241 C 0.59592 0.77512 1.01653 0.0
C242 C 0.30454 0.28748 0.50417 0.0
C243 C 0.30976 0.2349 0.49745 0.0
H244 H 0.33846 0.36084 0.48894 0.0
C245 C 0.35459 0.21578 0.46955 0.0
H246 H 0.26984 0.30307 0.52462 0.0
C247 C 0.39316 0.24868 0.44775 0.0
C248 C 0.38805 0.30134 0.45454 0.0
H249 H 0.35977 0.17537 0.46476 0.0
H250 H 0.42727 0.23283 0.42619 0.0
C251 C 0.34358 0.32042 0.48345 0.0
C252 C 0.30046 0.80305 0.92817 0.0
C253 C 0.30616 0.82659 0.98421 0.0
H254 H 0.33363 0.75271 0.86335 0.0
C255 C 0.35069 0.81647 1.0187 0.0
H256 H 0.26594 0.80955 0.90128 0.0
C257 C 0.38854 0.78293 0.99796 0.0
C258 C 0.38313 0.75973 0.94164 0.0
H259 H 0.35634 0.83483 0.06152 0.0
H260 H 0.42253 0.77583 1.0256 0.0
C261 C 0.33893 0.77037 0.9067 0.0
C262 C 0.63041 0.23705 0.52447 0.0
C263 C 0.67529 0.22483 0.49153 0.0
H264 H 0.56103 0.28175 0.52955 0.0
C265 C 0.68448 0.24955 0.43674 0.0
H266 H 0.62211 0.21807 0.56636 0.0
C267 C 0.64895 0.28508 0.41478 0.0
C268 C 0.60419 0.29752 0.44795 0.0
H269 H 0.71943 0.24172 0.41117 0.0
H270 H 0.65681 0.30328 0.37222 0.0
C271 C 0.5955 0.2734 0.50325 0.0
C272 C 0.36229 0.43985 0.97202 0.0
C273 C 0.31774 0.45543 1.00314 0.0
H274 H 0.43067 0.46242 0.9234 0.0
C275 C 0.30826 0.50731 1.01034 0.0
H276 H 0.36959 0.3999 0.9655 0.0
C277 C 0.3433 0.54333 0.987 0.0
C278 C 0.38754 0.52785 0.9546 0.0
H279 H 0.27343 0.51974 0.03346 0.0
H280 H 0.33517 0.58319 0.99307 0.0
C281 C 0.39671 0.47566 0.9476 0.0
C282 C 0.62677 0.61723 0.47727 0.0
C283 C 0.67221 0.60085 0.50602 0.0
H284 H 0.55701 0.59573 0.43054 0.0
C285 C 0.68164 0.54886 0.51177 0.0
H286 H 0.61956 0.65732 0.47186 0.0
C287 C 0.64583 0.51344 0.48898 0.0
C288 C 0.60091 0.52974 0.4585 0.0
H289 H 0.71719 0.5359 0.53301 0.0
H290 H 0.65403 0.47344 0.49357 0.0
C291 C 0.59156 0.58201 0.45327 0.0
C292 C 0.66107 0.50586 1.02795 0.0
C293 C 0.67389 0.46178 0.99642 0.0
H294 H 0.61459 0.57316 1.02991 0.0
C295 C 0.64878 0.45149 0.94181 0.0
H296 H 0.6803 0.51475 0.06981 0.0
C297 C 0.61284 0.48541 0.918 0.0
C298 C 0.60002 0.52959 0.94933 0.0
H299 H 0.65689 0.41696 0.91761 0.0
H300 H 0.59424 0.47651 0.87568 0.0
C301 C 0.62393 0.5393 1.00488 0.0
C302 C 0.32859 0.55648 0.52575 0.0
C303 C 0.31574 0.60005 0.49312 0.0
H304 H 0.37442 0.48882 0.52927 0.0
C305 C 0.33953 0.60827 0.43722 0.0
H306 H 0.31023 0.5489 0.56847 0.0
C307 C 0.37474 0.57329 0.41383 0.0
C308 C 0.3881 0.52997 0.44668 0.0
H309 H 0.33134 0.64222 0.41188 0.0
H310 H 0.39261 0.5809 0.37076 0.0
C311 C 0.36489 0.522 0.50304 0.0
C312 C 0.83781 0.95014 0.95347 0.0
C313 C 0.80856 0.96244 1.00435 0.0
H314 H 0.89581 0.97359 0.89044 0.0
C315 C 0.81613 1.00972 1.03164 0.0
H316 H 0.83267 0.91363 0.93215 0.0
C317 C 0.85248 0.04441 1.008 0.0
C318 C 0.88181 0.03218 0.95667 0.0
H319 H 0.79343 1.01997 0.07061 0.0
H320 H 0.85757 0.08068 1.02989 0.0
C321 C 0.87393 0.98455 0.92979 0.0
C322 C 0.17164 0.05631 0.5133 0.0
C323 C 0.16665 0.10749 0.49787 0.0
H324 H 0.14144 0.98075 0.50225 0.0
C325 C 0.12793 0.1219 0.45691 0.0
H326 H 0.20255 0.0444 0.54313 0.0
C327 C 0.09494 0.08547 0.43119 0.0
C328 C 0.09943 0.03433 0.44734 0.0
H329 H 0.12429 0.16122 0.4439 0.0
H330 H 0.06541 0.09729 0.39942 0.0
C331 C 0.13745 1.02006 0.48925 0.0
C332 C 0.139 0.94578 0.93576 0.0
C333 C 0.1665 0.95519 0.98907 0.0
H334 H 0.08385 0.97335 0.87156 0.0
C335 C 0.15837 1.00082 1.01955 0.0
H336 H 0.14442 0.9106 0.9118 0.0
C337 C 0.1228 0.03622 0.99744 0.0
C338 C 0.09598 1.02712 0.94352 0.0
H339 H 0.18038 1.00969 0.05951 0.0
H340 H 0.11697 0.07115 1.02187 0.0
C341 C 0.10458 0.98166 0.91273 0.0
C342 C 0.81776 0.04542 0.52333 0.0
C343 C 0.81162 0.09315 0.49684 0.0
H344 H 0.85865 0.97476 0.52196 0.0
C345 C 0.84331 0.10676 0.44819 0.0
H346 H 0.79328 0.03422 0.56065 0.0
C347 C 0.88018 0.07309 0.4257 0.0
C348 C 0.8864 1.02492 0.45157 0.0
H349 H 0.83944 0.14368 0.42763 0.0
H350 H 0.9039 0.08503 0.38802 0.0
C351 C 0.85482 1.01147 0.50085 0.0
C352 C 0.34299 0.3552 0.14226 0.0
C353 C 0.3178 0.39869 0.12096 0.0
H354 H 0.3966 0.3239 0.20551 0.0
C355 C 0.32945 0.44567 0.14726 0.0
H356 H 0.33545 0.31873 0.12182 0.0
C357 C 0.36556 0.44896 0.19433 0.0
C358 C 0.38962 0.4051 0.21666 0.0
H359 H 0.30986 0.47954 0.13234 0.0
H360 H 0.3739 0.48561 0.21402 0.0
C361 C 0.37796 0.35822 0.19008 0.0
C362 C 0.65536 0.70076 0.64669 0.0
C363 C 0.67825 0.65655 0.62408 0.0
H364 H 0.60281 0.73322 0.71022 0.0
C365 C 0.66426 0.60967 0.64922 0.0
H366 H 0.66457 0.73724 0.62715 0.0
C367 C 0.62767 0.60708 0.69587 0.0
C368 C 0.60537 0.65151 0.71899 0.0
H369 H 0.68205 0.57518 0.63335 0.0
H370 H 0.61726 0.57043 0.7143 0.0
C371 C 0.61988 0.69838 0.6941 0.0
C372 C 0.68388 0.44321 0.16748 0.0
C373 C 0.67329 0.41226 0.11784 0.0
H374 H 0.65677 0.47034 0.25268 0.0
C375 C 0.62616 0.38519 0.11515 0.0
H376 H 0.7205 0.46396 0.1701 0.0
C377 C 0.59048 0.38784 0.1623 0.0
C378 C 0.601 0.41824 0.21272 0.0
H379 H 0.6178 0.36096 0.0772 0.0
H380 H 0.55467 0.36575 0.15941 0.0
C381 C 0.64761 0.44677 0.21438 0.0
C382 C 0.30835 0.62033 0.66484 0.0
C383 C 0.32039 0.65003 0.61452 0.0
H384 H 0.33418 0.5931 0.75054 0.0
C385 C 0.36892 0.67462 0.61111 0.0
H386 H 0.27064 0.60158 0.66808 0.0
C387 C 0.40454 0.67086 0.65827 0.0
C388 C 0.39253 0.64175 0.70936 0.0
H389 H 0.3784 0.69796 0.57269 0.0
H390 H 0.44142 0.69118 0.65497 0.0
C391 C 0.34451 0.61557 0.71168 0.0
C392 C 0.81158 0.94358 0.16598 0.0
C393 C 0.81576 0.90689 0.12099 0.0
H394 H 0.84507 0.97517 0.24589 0.0
C395 C 0.85844 0.87404 0.12095 0.0
H396 H 0.77845 0.96886 0.16668 0.0
C397 C 0.89589 0.87682 0.16633 0.0
C398 C 0.89164 0.913 0.21232 0.0
H399 H 0.86193 0.84551 0.08643 0.0
H400 H 0.92812 0.85044 0.16545 0.0
C401 C 0.84947 0.94693 0.21117 0.0
C402 C 0.13787 0.20453 0.63678 0.0
C403 C 0.16529 0.16163 0.6177 0.0
H404 H 0.08267 0.23532 0.69862 0.0
C405 C 0.15643 0.11524 0.64673 0.0
H406 H 0.14397 0.24063 0.61478 0.0
C407 C 0.12042 0.11179 0.69385 0.0
C408 C 0.09396 0.15507 0.71382 0.0
H409 H 0.17842 0.08211 0.63433 0.0
H410 H 0.11427 0.0756 0.71569 0.0
C411 C 0.10304 0.20147 0.68478 0.0
C412 C 0.17539 0.9403 0.1526 0.0
C413 C 0.16726 0.90226 0.10969 0.0
H414 H 0.14872 0.97392 0.23471 0.0
C415 C 0.12596 0.86766 0.11732 0.0
H416 H 0.2081 0.96631 0.14821 0.0
C417 C 0.09373 0.87047 0.16772 0.0
C418 C 0.10161 0.9087 0.21053 0.0
H419 H 0.11981 0.83765 0.08503 0.0
H420 H 0.06241 0.84297 0.17316 0.0
C421 C 0.14204 0.94421 0.20213 0.0
C422 C 0.80573 0.10877 0.66154 0.0
C423 C 0.81157 0.14504 0.61611 0.0
H424 H 0.83607 0.079 0.74399 0.0
C425 C 0.85383 0.17892 0.61797 0.0
H426 H 0.77284 0.0827 0.66077 0.0
C427 C 0.88915 0.17767 0.66553 0.0
C428 C 0.88323 0.14202 0.712 0.0
H429 H 0.8585 0.20723 0.58326 0.0
H430 H 0.92105 0.2049 0.66593 0.0
C431 C 0.84162 0.10692 0.709 0.0
loop_
_geom_bond_atom_site_label_1
_geom_bond_atom_site_label_2
_geom_bond_distance
_geom_bond_site_symmetry_2
_ccdc_geom_bond_type
C0 N1 1.317 . S
C0 N2 1.348 1_554 S
C0 C3 1.485 . S
N1 C0 1.317 . S
N1 N5 1.370 1_554 S
N2 C0 1.348 1_556 S
N2 C4 1.346 . S
C3 C0 1.485 . S
C3 H7 0.960 . S
C3 H8 0.961 . S
C3 H9 0.960 . S
C4 N2 1.346 . S
C4 N5 1.307 . S
C4 C6 1.486 . S
N5 N1 1.370 1_556 S
N5 C4 1.307 . S
C6 C4 1.486 . S
C6 H10 0.960 . S
C6 H11 0.960 . S
C6 H12 0.959 . S
H7 C3 0.960 . S
H8 C3 0.961 . S
H9 C3 0.960 . S
H10 C6 0.960 . S
H11 C6 0.960 . S
H12 C6 0.959 . S
C13 N14 1.317 . S
C13 N15 1.348 . S
C13 C16 1.485 . S
N14 C13 1.317 . S
N14 N18 1.370 . S
N15 C13 1.348 . S
N15 C17 1.346 . S
C16 C13 1.485 . S
C16 H20 0.960 . S
C16 H21 0.961 . S
C16 H22 0.960 . S
C17 N15 1.346 . S
C17 N18 1.307 . S
C17 C19 1.486 . S
N18 N14 1.370 . S
N18 C17 1.307 . S
C19 C17 1.486 . S
C19 H23 0.960 . S
C19 H24 0.960 . S
C19 H25 0.959 . S
H20 C16 0.960 . S
H21 C16 0.961 . S
H22 C16 0.960 . S
H23 C19 0.960 . S
H24 C19 0.960 . S
H25 C19 0.959 . S
C26 N27 1.317 . S
C26 N28 1.348 1_554 S
C26 C29 1.485 . S
N27 C26 1.317 . S
N27 N31 1.370 1_554 S
N28 C26 1.348 1_556 S
N28 C30 1.346 . S
C29 C26 1.485 . S
C29 H33 0.960 . S
C29 H34 0.961 . S
C29 H35 0.960 . S
C30 N28 1.346 . S
C30 N31 1.307 . S
C30 C32 1.486 . S
N31 N27 1.370 1_556 S
N31 C30 1.307 . S
C32 C30 1.486 . S
C32 H36 0.960 . S
C32 H37 0.960 . S
C32 H38 0.959 . S
H33 C29 0.960 . S
H34 C29 0.961 . S
H35 C29 0.960 . S
H36 C32 0.960 . S
H37 C32 0.960 . S
H38 C32 0.959 . S
C39 N40 1.317 . S
C39 N41 1.348 . S
C39 C42 1.485 . S
N40 C39 1.317 . S
N40 N44 1.370 . S
N41 C39 1.348 . S
N41 C43 1.346 . S
C42 C39 1.485 . S
C42 H46 0.960 . S
C42 H47 0.961 . S
C42 H48 0.960 . S
C43 N41 1.346 . S
C43 N44 1.307 . S
C43 C45 1.486 . S
N44 N40 1.370 . S
N44 C43 1.307 . S
C45 C43 1.486 . S
C45 H49 0.960 . S
C45 H50 0.960 . S
C45 H51 0.959 . S
H46 C42 0.960 . S
H47 C42 0.961 . S
H48 C42 0.960 . S
H49 C45 0.960 . S
H50 C45 0.960 . S
H51 C45 0.959 . S
C52 N53 1.317 . S
C52 N54 1.348 1_554 S
C52 C55 1.485 . S
N53 C52 1.317 . S
N53 N57 1.370 1_554 S
N54 C52 1.348 1_556 S
N54 C56 1.346 . S
C55 C52 1.485 . S
C55 H59 0.960 . S
C55 H60 0.961 . S
C55 H61 0.960 . S
C56 N54 1.346 . S
C56 N57 1.307 . S
C56 C58 1.486 . S
N57 N53 1.370 1_556 S
N57 C56 1.307 . S
C58 C56 1.486 . S
C58 H62 0.960 . S
C58 H63 0.960 . S
C58 H64 0.959 . S
H59 C55 0.960 . S
H60 C55 0.961 . S
H61 C55 0.960 . S
H62 C58 0.960 . S
H63 C58 0.960 . S
H64 C58 0.959 . S
C65 N66 1.317 . S
C65 N67 1.348 . S
C65 C68 1.485 . S
N66 C65 1.317 . S
N66 N70 1.370 . S
N67 C65 1.348 . S
N67 C69 1.346 . S
C68 C65 1.485 . S
C68 H72 0.960 . S
C68 H73 0.961 . S
C68 H74 0.960 . S
C69 N67 1.346 . S
C69 N70 1.307 . S
C69 C71 1.486 . S
N70 N66 1.370 . S
N70 C69 1.307 . S
C71 C69 1.486 . S
C71 H75 0.960 . S
C71 H76 0.960 . S
C71 H77 0.959 . S
H72 C68 0.960 . S
H73 C68 0.961 . S
H74 C68 0.960 . S
H75 C71 0.960 . S
H76 C71 0.960 . S
H77 C71 0.959 . S
C78 N79 1.317 . S
C78 N80 1.348 1_554 S
C78 C81 1.485 . S
N79 C78 1.317 . S
N79 N83 1.370 1_554 S
N80 C78 1.348 1_556 S
N80 C82 1.346 . S
C81 C78 1.485 . S
C81 H85 0.960 . S
C81 H86 0.961 . S
C81 H87 0.960 . S
C82 N80 1.346 . S
C82 N83 1.307 . S
C82 C84 1.486 . S
N83 N79 1.370 1_556 S
N83 C82 1.307 . S
C84 C82 1.486 . S
C84 H88 0.960 . S
C84 H89 0.960 . S
C84 H90 0.959 . S
H85 C81 0.960 . S
H86 C81 0.961 . S
H87 C81 0.960 . S
H88 C84 0.960 . S
H89 C84 0.960 . S
H90 C84 0.959 . S
C91 N92 1.317 . S
C91 N93 1.348 . S
C91 C94 1.485 . S
N92 C91 1.317 . S
N92 N96 1.370 . S
N93 C91 1.348 . S
N93 C95 1.346 . S
C94 C91 1.485 . S
C94 H98 0.960 . S
C94 H99 0.961 . S
C94 H100 0.960 . S
C95 N93 1.346 . S
C95 N96 1.307 . S
C95 C97 1.486 . S
N96 N92 1.370 . S
N96 C95 1.307 . S
C97 C95 1.486 . S
C97 H101 0.960 . S
C97 H102 0.960 . S
C97 H103 0.959 . S
H98 C94 0.960 . S
H99 C94 0.961 . S
H100 C94 0.960 . S
H101 C97 0.960 . S
H102 C97 0.960 . S
H103 C97 0.959 . S
Fe104 O106 1.918 . S
Fe104 O109 1.997 1_455 S
Fe104 O110 2.002 1_455 S
Fe104 O115 1.976 . S
Fe104 O118 1.996 . S
Fe105 O106 1.918 . S
Fe105 O113 1.997 1_455 S
Fe105 O116 1.996 . S
Fe105 O120 1.976 . S
Fe105 O123 2.002 1_455 S
O106 Fe104 1.918 . S
O106 Fe105 1.918 . S
O106 Fe107 1.918 . S
Fe107 O106 1.918 . S
Fe107 O108 2.002 1_455 S
Fe107 O117 1.976 . S
Fe107 O121 1.996 . S
Fe107 O124 1.997 1_455 S
O108 Fe107 2.002 1_655 S
O108 C125 1.295 . S
O109 Fe104 1.997 1_655 S
O109 C125 1.235 . S
O110 Fe104 2.002 1_655 S
O110 C111 1.295 . S
C111 O110 1.295 . S
C111 O113 1.235 . S
C112 O117 1.287 . S
C112 O118 1.255 . S
O113 Fe105 1.997 1_655 S
O113 C111 1.235 . S
C114 O120 1.287 . S
C114 O121 1.255 . S
O115 Fe104 1.976 . S
O115 C122 1.287 . S
O116 Fe105 1.996 . S
O116 C122 1.255 . S
O117 Fe107 1.976 . S
O117 C112 1.287 . S
O118 Fe104 1.996 . S
O118 C112 1.255 . S
C119 O123 1.295 . S
C119 O124 1.235 . S
O120 Fe105 1.976 . S
O120 C114 1.287 . S
O121 Fe107 1.996 . S
O121 C114 1.255 . S
C122 O115 1.287 . S
C122 O116 1.255 . S
O123 Fe105 2.002 1_655 S
O123 C119 1.295 . S
O124 Fe107 1.997 1_655 S
O124 C119 1.235 . S
C125 O108 1.295 . S
C125 O109 1.235 . S
Fe126 O128 1.918 . S
Fe126 O131 1.997 . S
Fe126 O132 2.002 . S
Fe126 O137 1.976 1_455 S
Fe126 O140 1.996 1_455 S
Fe127 O128 1.918 . S
Fe127 O135 1.997 . S
Fe127 O138 1.996 1_455 S
Fe127 O142 1.976 1_455 S
Fe127 O145 2.002 . S
O128 Fe126 1.918 . S
O128 Fe127 1.918 . S
O128 Fe129 1.918 . S
Fe129 O128 1.918 . S
Fe129 O130 2.002 . S
Fe129 O139 1.976 1_455 S
Fe129 O143 1.996 1_455 S
Fe129 O146 1.997 . S
O130 Fe129 2.002 . S
O130 C147 1.295 . S
O131 Fe126 1.997 . S
O131 C147 1.235 . S
O132 Fe126 2.002 . S
O132 C133 1.295 . S
C133 O132 1.295 . S
C133 O135 1.235 . S
C134 O139 1.287 . S
C134 O140 1.255 . S
O135 Fe127 1.997 . S
O135 C133 1.235 . S
C136 O142 1.287 . S
C136 O143 1.255 . S
O137 Fe126 1.976 1_655 S
O137 C144 1.287 . S
O138 Fe127 1.996 1_655 S
O138 C144 1.255 . S
O139 Fe129 1.976 1_655 S
O139 C134 1.287 . S
O140 Fe126 1.996 1_655 S
O140 C134 1.255 . S
C141 O145 1.295 . S
C141 O146 1.235 . S
O142 Fe127 1.976 1_655 S
O142 C136 1.287 . S
O143 Fe129 1.996 1_655 S
O143 C136 1.255 . S
C144 O137 1.287 . S
C144 O138 1.255 . S
O145 Fe127 2.002 . S
O145 C141 1.295 . S
O146 Fe129 1.997 . S
O146 C141 1.235 . S
C147 O130 1.295 . S
C147 O131 1.235 . S
Fe148 O150 1.918 . S
Fe148 O153 1.997 . S
Fe148 O154 2.002 . S
Fe148 O159 1.976 . S
Fe148 O162 1.996 . S
Fe149 O150 1.918 . S
Fe149 O157 1.997 . S
Fe149 O160 1.996 . S
Fe149 O164 1.976 . S
Fe149 O167 2.002 . S
O150 Fe148 1.918 . S
O150 Fe149 1.918 . S
O150 Fe151 1.918 . S
Fe151 O150 1.918 . S
Fe151 O152 2.002 . S
Fe151 O161 1.976 . S
Fe151 O165 1.996 . S
Fe151 O168 1.997 . S
O152 Fe151 2.002 . S
O152 C169 1.295 . S
O153 Fe148 1.997 . S
O153 C169 1.235 . S
O154 Fe148 2.002 . S
O154 C155 1.295 . S
C155 O154 1.295 . S
C155 O157 1.235 . S
C156 O161 1.287 . S
C156 O162 1.255 . S
O157 Fe149 1.997 . S
O157 C155 1.235 . S
C158 O164 1.287 . S
C158 O165 1.255 . S
O159 Fe148 1.976 . S
O159 C166 1.287 . S
O160 Fe149 1.996 . S
O160 C166 1.255 . S
O161 Fe151 1.976 . S
O161 C156 1.287 . S
O162 Fe148 1.996 . S
O162 C156 1.255 . S
C163 O167 1.295 . S
C163 O168 1.235 . S
O164 Fe149 1.976 . S
O164 C158 1.287 . S
O165 Fe151 1.996 . S
O165 C158 1.255 . S
C166 O159 1.287 . S
C166 O160 1.255 . S
O167 Fe149 2.002 . S
O167 C163 1.295 . S
O168 Fe151 1.997 . S
O168 C163 1.235 . S
C169 O152 1.295 . S
C169 O153 1.235 . S
Fe170 O172 1.918 . S
Fe170 O175 1.997 . S
Fe170 O176 2.002 . S
Fe170 O181 1.976 . S
Fe170 O184 1.996 . S
Fe171 O172 1.918 . S
Fe171 O179 1.997 . S
Fe171 O182 1.996 . S
Fe171 O186 1.976 . S
Fe171 O189 2.002 . S
O172 Fe170 1.918 . S
O172 Fe171 1.918 . S
O172 Fe173 1.918 . S
Fe173 O172 1.918 . S
Fe173 O174 2.002 . S
Fe173 O183 1.976 . S
Fe173 O187 1.996 . S
Fe173 O190 1.997 . S
O174 Fe173 2.002 . S
O174 C191 1.295 . S
O175 Fe170 1.997 . S
O175 C191 1.235 . S
O176 Fe170 2.002 . S
O176 C177 1.295 . S
C177 O176 1.295 . S
C177 O179 1.235 . S
C178 O183 1.287 . S
C178 O184 1.255 . S
O179 Fe171 1.997 . S
O179 C177 1.235 . S
C180 O186 1.287 . S
C180 O187 1.255 . S
O181 Fe170 1.976 . S
O181 C188 1.287 . S
O182 Fe171 1.996 . S
O182 C188 1.255 . S
O183 Fe173 1.976 . S
O183 C178 1.287 . S
O184 Fe170 1.996 . S
O184 C178 1.255 . S
C185 O189 1.295 . S
C185 O190 1.235 . S
O186 Fe171 1.976 . S
O186 C180 1.287 . S
O187 Fe173 1.996 . S
O187 C180 1.255 . S
C188 O181 1.287 . S
C188 O182 1.255 . S
O189 Fe171 2.002 . S
O189 C185 1.295 . S
O190 Fe173 1.997 . S
O190 C185 1.235 . S
C191 O174 1.295 . S
C191 O175 1.235 . S
C192 C193 1.387 . S
C192 H196 0.950 1_556 S
C192 C201 1.390 . S
C193 C192 1.387 . S
C193 C195 1.387 . S
H194 C201 0.950 . S
C195 C193 1.387 . S
C195 C197 1.390 . S
C195 H199 0.950 . S
H196 C192 0.950 1_554 S
C197 C195 1.390 . S
C197 C198 1.387 . S
C197 H200 0.950 . S
C198 C197 1.387 . S
C198 C201 1.387 . S
H199 C195 0.950 . S
H200 C197 0.950 . S
C201 C192 1.390 . S
C201 H194 0.950 . S
C201 C198 1.387 . S
C202 C203 1.387 . S
C202 H206 0.950 . S
C202 C211 1.390 . S
C203 C202 1.387 . S
C203 C205 1.387 . S
H204 C211 0.950 . S
C205 C203 1.387 . S
C205 C207 1.390 . S
C205 H209 0.950 . S
H206 C202 0.950 . S
C207 C205 1.390 . S
C207 C208 1.387 . S
C207 H210 0.950 . S
C208 C207 1.387 . S
C208 C211 1.387 . S
H209 C205 0.950 . S
H210 C207 0.950 . S
C211 C202 1.390 . S
C211 H204 0.950 . S
C211 C208 1.387 . S
C212 C213 1.387 . S
C212 H216 0.950 1_556 S
C212 C221 1.390 . S
C213 C212 1.387 . S
C213 C215 1.387 . S
H214 C221 0.950 . S
C215 C213 1.387 . S
C215 C217 1.390 . S
C215 H219 0.950 . S
H216 C212 0.950 1_554 S
C217 C215 1.390 . S
C217 C218 1.387 . S
C217 H220 0.950 . S
C218 C217 1.387 . S
C218 C221 1.387 . S
H219 C215 0.950 . S
H220 C217 0.950 . S
C221 C212 1.390 . S
C221 H214 0.950 . S
C221 C218 1.387 . S
C222 C223 1.387 . S
C222 H226 0.950 . S
C222 C231 1.390 . S
C223 C222 1.387 . S
C223 C225 1.387 . S
H224 C231 0.950 . S
C225 C223 1.387 . S
C225 C227 1.390 . S
C225 H229 0.950 . S
H226 C222 0.950 . S
C227 C225 1.390 . S
C227 C228 1.387 . S
C227 H230 0.950 . S
C228 C227 1.387 . S
C228 C231 1.387 . S
H229 C225 0.950 . S
H230 C227 0.950 . S
C231 C222 1.390 . S
C231 H224 0.950 . S
C231 C228 1.387 . S
C232 C233 1.387 . S
C232 H236 0.950 1_556 S
C232 C241 1.390 . S
C233 C232 1.387 . S
C233 C235 1.387 . S
H234 C241 0.950 . S
C235 C233 1.387 . S
C235 C237 1.390 . S
C235 H239 0.950 . S
H236 C232 0.950 1_554 S
C237 C235 1.390 . S
C237 C238 1.387 . S
C237 H240 0.950 . S
C238 C237 1.387 . S
C238 C241 1.387 . S
H239 C235 0.950 . S
H240 C237 0.950 . S
C241 C232 1.390 . S
C241 H234 0.950 . S
C241 C238 1.387 . S
C242 C243 1.387 . S
C242 H246 0.950 . S
C242 C251 1.390 . S
C243 C242 1.387 . S
C243 C245 1.387 . S
H244 C251 0.950 . S
C245 C243 1.387 . S
C245 C247 1.390 . S
C245 H249 0.950 . S
H246 C242 0.950 . S
C247 C245 1.390 . S
C247 C248 1.387 . S
C247 H250 0.950 . S
C248 C247 1.387 . S
C248 C251 1.387 . S
H249 C245 0.950 . S
H250 C247 0.950 . S
C251 C242 1.390 . S
C251 H244 0.950 . S
C251 C248 1.387 . S
C252 C253 1.387 . S
C252 H256 0.950 . S
C252 C261 1.390 . S
C253 C252 1.387 . S
C253 C255 1.387 . S
H254 C261 0.950 . S
C255 C253 1.387 . S
C255 C257 1.390 . S
C255 H259 0.950 1_556 S
H256 C252 0.950 . S
C257 C255 1.390 . S
C257 C258 1.387 . S
C257 H260 0.950 . S
C258 C257 1.387 . S
C258 C261 1.387 . S
H259 C255 0.950 1_554 S
H260 C257 0.950 . S
C261 C252 1.390 . S
C261 H254 0.950 . S
C261 C258 1.387 . S
C262 C263 1.387 . S
C262 H266 0.950 . S
C262 C271 1.390 . S
C263 C262 1.387 . S
C263 C265 1.387 . S
H264 C271 0.950 . S
C265 C263 1.387 . S
C265 C267 1.390 . S
C265 H269 0.950 . S
H266 C262 0.950 . S
C267 C265 1.390 . S
C267 C268 1.387 . S
C267 H270 0.950 . S
C268 C267 1.387 . S
C268 C271 1.387 . S
H269 C265 0.950 . S
H270 C267 0.950 . S
C271 C262 1.390 . S
C271 H264 0.950 . S
C271 C268 1.387 . S
C272 C273 1.387 . S
C272 H276 0.950 . S
C272 C281 1.390 . S
C273 C272 1.387 . S
C273 C275 1.387 . S
H274 C281 0.950 . S
C275 C273 1.387 . S
C275 C277 1.390 . S
C275 H279 0.950 . S
H276 C272 0.950 . S
C277 C275 1.390 . S
C277 C278 1.387 . S
C277 H280 0.950 . S
C278 C277 1.387 . S
C278 C281 1.387 . S
H279 C275 0.950 . S
H280 C277 0.950 . S
C281 C272 1.390 . S
C281 H274 0.950 . S
C281 C278 1.387 . S
C282 C283 1.387 . S
C282 H286 0.950 . S
C282 C291 1.390 . S
C283 C282 1.387 . S
C283 C285 1.387 . S
H284 C291 0.950 . S
C285 C283 1.387 . S
C285 C287 1.390 . S
C285 H289 0.950 . S
H286 C282 0.950 . S
C287 C285 1.390 . S
C287 C288 1.387 . S
C287 H290 0.950 . S
C288 C287 1.387 . S
C288 C291 1.387 . S
H289 C285 0.950 . S
H290 C287 0.950 . S
C291 C282 1.390 . S
C291 H284 0.950 . S
C291 C288 1.387 . S
C292 C293 1.387 . S
C292 H296 0.950 1_556 S
C292 C301 1.390 . S
C293 C292 1.387 . S
C293 C295 1.387 . S
H294 C301 0.950 . S
C295 C293 1.387 . S
C295 C297 1.390 . S
C295 H299 0.950 . S
H296 C292 0.950 1_554 S
C297 C295 1.390 . S
C297 C298 1.387 . S
C297 H300 0.950 . S
C298 C297 1.387 . S
C298 C301 1.387 . S
H299 C295 0.950 . S
H300 C297 0.950 . S
C301 C292 1.390 . S
C301 H294 0.950 . S
C301 C298 1.387 . S
C302 C303 1.387 . S
C302 H306 0.950 . S
C302 C311 1.390 . S
C303 C302 1.387 . S
C303 C305 1.387 . S
H304 C311 0.950 . S
C305 C303 1.387 . S
C305 C307 1.390 . S
C305 H309 0.950 . S
H306 C302 0.950 . S
C307 C305 1.390 . S
C307 C308 1.387 . S
C307 H310 0.950 . S
C308 C307 1.387 . S
C308 C311 1.387 . S
H309 C305 0.950 . S
H310 C307 0.950 . S
C311 C302 1.390 . S
C311 H304 0.950 . S
C311 C308 1.387 . S
C312 C313 1.387 . S
C312 H316 0.950 . S
C312 C321 1.390 . S
C313 C312 1.387 . S
C313 C315 1.387 . S
H314 C321 0.950 . S
C315 C313 1.387 . S
C315 C317 1.390 1_565 S
C315 H319 0.950 1_556 S
H316 C312 0.950 . S
C317 C315 1.390 1_545 S
C317 C318 1.387 . S
C317 H320 0.950 . S
C318 C317 1.387 . S
C318 C321 1.387 1_545 S
H319 C315 0.950 1_554 S
H320 C317 0.950 . S
C321 C312 1.390 . S
C321 H314 0.950 . S
C321 C318 1.387 1_565 S
C322 C323 1.387 . S
C322 H326 0.950 . S
C322 C331 1.390 . S
C323 C322 1.387 . S
C323 C325 1.387 . S
H324 C331 0.950 1_565 S
C325 C323 1.387 . S
C325 C327 1.390 . S
C325 H329 0.950 . S
H326 C322 0.950 . S
C327 C325 1.390 . S
C327 C328 1.387 1_545 S
C327 H330 0.950 . S
C328 C327 1.387 1_565 S
C328 C331 1.387 1_565 S
H329 C325 0.950 . S
H330 C327 0.950 . S
C331 C322 1.390 . S
C331 H324 0.950 1_545 S
C331 C328 1.387 1_545 S
C332 C333 1.387 . S
C332 H336 0.950 1_556 S
C332 C341 1.390 . S
C333 C332 1.387 . S
C333 C335 1.387 . S
H334 C341 0.950 . S
C335 C333 1.387 . S
C335 C337 1.390 1_565 S
C335 H339 0.950 . S
H336 C332 0.950 1_554 S
C337 C335 1.390 1_545 S
C337 C338 1.387 . S
C337 H340 0.950 . S
C338 C337 1.387 . S
C338 C341 1.387 1_545 S
H339 C335 0.950 . S
H340 C337 0.950 . S
C341 C332 1.390 . S
C341 H334 0.950 . S
C341 C338 1.387 1_565 S
C342 C343 1.387 . S
C342 H346 0.950 1_545 S
C342 C351 1.390 1_545 S
C343 C342 1.387 . S
C343 C345 1.387 . S
H344 C351 0.950 . S
C345 C343 1.387 . S
C345 C347 1.390 . S
C345 H349 0.950 . S
H346 C342 0.950 1_565 S
C347 C345 1.390 . S
C347 C348 1.387 1_545 S
C347 H350 0.950 . S
C348 C347 1.387 1_565 S
C348 C351 1.387 . S
H349 C345 0.950 . S
H350 C347 0.950 . S
C351 C342 1.390 1_565 S
C351 H344 0.950 . S
C351 C348 1.387 . S
C352 C353 1.387 . S
C352 H356 0.950 . S
C352 C361 1.390 . S
C353 C352 1.387 . S
C353 C355 1.387 . S
H354 C361 0.950 . S
C355 C353 1.387 . S
C355 C357 1.390 . S
C355 H359 0.950 . S
H356 C352 0.950 . S
C357 C355 1.390 . S
C357 C358 1.387 . S
C357 H360 0.950 . S
C358 C357 1.387 . S
C358 C361 1.387 . S
H359 C355 0.950 . S
H360 C357 0.950 . S
C361 C352 1.390 . S
C361 H354 0.950 . S
C361 C358 1.387 . S
C362 C363 1.387 . S
C362 H366 0.950 . S
C362 C371 1.390 . S
C363 C362 1.387 . S
C363 C365 1.387 . S
H364 C371 0.950 . S
C365 C363 1.387 . S
C365 C367 1.390 . S
C365 H369 0.950 . S
H366 C362 0.950 . S
C367 C365 1.390 . S
C367 C368 1.387 . S
C367 H370 0.950 . S
C368 C367 1.387 . S
C368 C371 1.387 . S
H369 C365 0.950 . S
H370 C367 0.950 . S
C371 C362 1.390 . S
C371 H364 0.950 . S
C371 C368 1.387 . S
C372 C373 1.387 . S
C372 H376 0.950 . S
C372 C381 1.390 . S
C373 C372 1.387 . S
C373 C375 1.387 . S
H374 C381 0.950 . S
C375 C373 1.387 . S
C375 C377 1.390 . S
C375 H379 0.950 . S
H376 C372 0.950 . S
C377 C375 1.390 . S
C377 C378 1.387 . S
C377 H380 0.950 . S
C378 C377 1.387 . S
C378 C381 1.387 . S
H379 C375 0.950 . S
H380 C377 0.950 . S
C381 C372 1.390 . S
C381 H374 0.950 . S
C381 C378 1.387 . S
C382 C383 1.387 . S
C382 H386 0.950 . S
C382 C391 1.390 . S
C383 C382 1.387 . S
C383 C385 1.387 . S
H384 C391 0.950 . S
C385 C383 1.387 . S
C385 C387 1.390 . S
C385 H389 0.950 . S
H386 C382 0.950 . S
C387 C385 1.390 . S
C387 C388 1.387 . S
C387 H390 0.950 . S
C388 C387 1.387 . S
C388 C391 1.387 . S
H389 C385 0.950 . S
H390 C387 0.950 . S
C391 C382 1.390 . S
C391 H384 0.950 . S
C391 C388 1.387 . S
C392 C393 1.387 . S
C392 H396 0.950 . S
C392 C401 1.390 . S
C393 C392 1.387 . S
C393 C395 1.387 . S
H394 C401 0.950 . S
C395 C393 1.387 . S
C395 C397 1.390 . S
C395 H399 0.950 . S
H396 C392 0.950 . S
C397 C395 1.390 . S
C397 C398 1.387 . S
C397 H400 0.950 . S
C398 C397 1.387 . S
C398 C401 1.387 . S
H399 C395 0.950 . S
H400 C397 0.950 . S
C401 C392 1.390 . S
C401 H394 0.950 . S
C401 C398 1.387 . S
C402 C403 1.387 . S
C402 H406 0.950 . S
C402 C411 1.390 . S
C403 C402 1.387 . S
C403 C405 1.387 . S
H404 C411 0.950 . S
C405 C403 1.387 . S
C405 C407 1.390 . S
C405 H409 0.950 . S
H406 C402 0.950 . S
C407 C405 1.390 . S
C407 C408 1.387 . S
C407 H410 0.950 . S
C408 C407 1.387 . S
C408 C411 1.387 . S
H409 C405 0.950 . S
H410 C407 0.950 . S
C411 C402 1.390 . S
C411 H404 0.950 . S
C411 C408 1.387 . S
C412 C413 1.387 . S
C412 H416 0.950 . S
C412 C421 1.390 . S
C413 C412 1.387 . S
C413 C415 1.387 . S
H414 C421 0.950 . S
C415 C413 1.387 . S
C415 C417 1.390 . S
C415 H419 0.950 . S
H416 C412 0.950 . S
C417 C415 1.390 . S
C417 C418 1.387 . S
C417 H420 0.950 . S
C418 C417 1.387 . S
C418 C421 1.387 . S
H419 C415 0.950 . S
H420 C417 0.950 . S
C421 C412 1.390 . S
C421 H414 0.950 . S
C421 C418 1.387 . S
C422 C423 1.387 . S
C422 H426 0.950 . S
C422 C431 1.390 . S
C423 C422 1.387 . S
C423 C425 1.387 . S
H424 C431 0.950 . S
C425 C423 1.387 . S
C425 C427 1.390 . S
C425 H429 0.950 . S
H426 C422 0.950 . S
C427 C425 1.390 . S
C427 C428 1.387 . S
C427 H430 0.950 . S
C428 C427 1.387 . S
C428 C431 1.387 . S
H429 C425 0.950 . S
H430 C427 0.950 . S
C431 C422 1.390 . S
C431 H424 0.950 . S
C431 C428 1.387 . S
C193 N2 1.536 . S
C198 C147 1.521 . S
C208 C111 1.523 . S
C203 N15 1.536 . S
C218 C134 1.526 . S
C213 N28 1.518 . S
C228 C122 1.526 . S
C223 N41 1.518 . S
C238 C191 1.521 . S
C233 N54 1.536 . S
C248 C155 1.521 . S
C243 N67 1.536 . S
C253 N80 1.516 . S
C258 C178 1.525 . S
C268 C166 1.526 . S
C263 N93 1.518 . S
C273 N5 1.504 . S
C278 C188 1.513 . S
C288 C158 1.513 . S
C283 N18 1.503 . S
C293 N31 1.520 . S
C298 C177 1.523 . S
C303 N44 1.520 . S
C308 C163 1.523 . S
C318 C144 1.513 . S
C313 N57 1.504 . S
C323 N70 1.504 . S
C328 C114 1.513 . S
C338 C133 1.523 . S
C333 N83 1.519 . S
C348 C119 1.523 . S
C343 N96 1.520 . S
C358 C169 1.524 . S
C353 N1 1.530 . S
C368 C185 1.524 . S
C363 N14 1.530 . S
C373 N27 1.487 . S
C378 C156 1.509 . S
C388 C180 1.509 . S
C383 N40 1.487 . S
C398 C125 1.525 . S
C393 N53 1.530 . S
C403 N66 1.530 . S
C408 C141 1.524 . S
C413 N79 1.487 . S
C418 C112 1.509 . S
C423 N92 1.487 . S
C428 C136 1.509 . S
