# Generated by pormake.
# Topology zzz, (3,6)-cn, num edge types: 1
# Building blocks:
#     Node 0, Type 0, BuildingBlock: ESEHIV_clean_linker_0, # of connection points: 3
#     Node 1, Type 0, BuildingBlock: ESEHIV_clean_linker_0, # of connection points: 3
#     Node 2, Type 0, BuildingBlock: ESEHIV_clean_linker_0, # of connection points: 3
#     Node 3, Type 0, BuildingBlock: ESEHIV_clean_linker_0, # of connection points: 3
#     Node 4, Type 0, BuildingBlock: ESEHIV_clean_linker_0, # of connection points: 3
#     Node 5, Type 0, BuildingBlock: ESEHIV_clean_linker_0, # of connection points: 3
#     Node 6, Type 0, BuildingBlock: ESEHIV_clean_linker_0, # of connection points: 3
#     Node 7, Type 0, BuildingBlock: ESEHIV_clean_linker_0, # of connection points: 3
#     Node 8, Type 1, BuildingBlock: JUFBIX_clean_sbu_0, # of connection points: 6
#     Node 9, Type 1, BuildingBlock: JUFBIX_clean_sbu_0, # of connection points: 6
#     Node 10, Type 1, BuildingBlock: JUFBIX_clean_sbu_0, # of connection points: 6
#     Node 11, Type 1, BuildingBlock: JUFBIX_clean_sbu_0, # of connection points: 6
#     Edge 12, Type (0, 1), BuildingBlock: XIVTED_clean_linker_0, # of connection points: 2
#     Edge 13, Type (0, 1), BuildingBlock: XIVTED_clean_linker_0, # of connection points: 2
#     Edge 14, Type (0, 1), BuildingBlock: XIVTED_clean_linker_0, # of connection points: 2
#     Edge 15, Type (0, 1), BuildingBlock: XIVTED_clean_linker_0, # of connection points: 2
#     Edge 16, Type (0, 1), BuildingBlock: XIVTED_clean_linker_0, # of connection points: 2
#     Edge 17, Type (0, 1), BuildingBlock: XIVTED_clean_linker_0, # of connection points: 2
#     Edge 18, Type (0, 1), BuildingBlock: XIVTED_clean_linker_0, # of connection points: 2
#     Edge 19, Type (0, 1), BuildingBlock: XIVTED_clean_linker_0, # of connection points: 2
#     Edge 20, Type (0, 1), BuildingBlock: XIVTED_clean_linker_0, # of connection points: 2
#     Edge 21, Type (0, 1), BuildingBlock: XIVTED_clean_linker_0, # of connection points: 2
#     Edge 22, Type (0, 1), BuildingBlock: XIVTED_clean_linker_0, # of connection points: 2
#     Edge 23, Type (0, 1), BuildingBlock: XIVTED_clean_linker_0, # of connection points: 2
#     Edge 24, Type (0, 1), BuildingBlock: XIVTED_clean_linker_0, # of connection points: 2
#     Edge 25, Type (0, 1), BuildingBlock: XIVTED_clean_linker_0, # of connection points: 2
#     Edge 26, Type (0, 1), BuildingBlock: XIVTED_clean_linker_0, # of connection points: 2
#     Edge 27, Type (0, 1), BuildingBlock: XIVTED_clean_linker_0, # of connection points: 2
#     Edge 28, Type (0, 1), BuildingBlock: XIVTED_clean_linker_0, # of connection points: 2
#     Edge 29, Type (0, 1), BuildingBlock: XIVTED_clean_linker_0, # of connection points: 2
#     Edge 30, Type (0, 1), BuildingBlock: XIVTED_clean_linker_0, # of connection points: 2
#     Edge 31, Type (0, 1), BuildingBlock: XIVTED_clean_linker_0, # of connection points: 2
#     Edge 32, Type (0, 1), BuildingBlock: XIVTED_clean_linker_0, # of connection points: 2
#     Edge 33, Type (0, 1), BuildingBlock: XIVTED_clean_linker_0, # of connection points: 2
#     Edge 34, Type (0, 1), BuildingBlock: XIVTED_clean_linker_0, # of connection points: 2
#     Edge 35, Type (0, 1), BuildingBlock: XIVTED_clean_linker_0, # of connection points: 2
# Relax obj value: 0.282
# Max RMSD: 0.229
# Mean RMSD: 0.186
data_MOF--net-zzz--node1-JUFBIX_clean_sbu_0--node2-ESEHIV_clean_linker_0--edge1-XIVTED_clean_linker_0
_symmetry_space_group_name_H-M    P1
_symmetry_Int_Tables_number       1
_symmetry_cell_setting            triclinic
loop_
_symmetry_equiv_pos_as_xyz
'x, y, z'
_cell_length_a     45.026862
_cell_length_b     46.269718
_cell_length_c     17.920615
_cell_angle_alpha  81.351938
_cell_angle_beta   90.058281
_cell_angle_gamma 85.954713
loop_
_atom_site_label
_atom_site_type_symbol
_atom_site_fract_x
_atom_site_fract_y
_atom_site_fract_z
_atom_type_partial_charge
H0 H 0.83688 0.51915 0.37495 0.0
H1 H 0.78644 0.50294 0.18491 0.0
H2 H 0.74112 0.5254 0.38299 0.0
C3 C 0.81552 0.51793 0.34788 0.0
C4 C 0.78931 0.52358 0.38672 0.0
C5 C 0.81469 0.51035 0.27559 0.0
C6 C 0.78711 0.50798 0.24203 0.0
C7 C 0.76034 0.5132 0.27994 0.0
C8 C 0.76146 0.52129 0.35288 0.0
H9 H 0.01758 0.83469 0.33118 0.0
H10 H 0.03415 0.79727 0.12932 0.0
H11 H 0.98895 0.74929 0.31646 0.0
C12 C 0.01596 0.81678 0.29895 0.0
C13 C 0.00112 0.79244 0.33036 0.0
C14 C 0.02757 0.81902 0.22633 0.0
C15 C 0.02611 0.79518 0.18666 0.0
C16 C 0.013 0.76932 0.21875 0.0
C17 C -0.00012 0.76839 0.29097 0.0
H18 H 0.69919 0.00841 0.27944 0.0
H19 H 0.75044 1.00136 0.08142 0.0
H20 H 0.79312 0.98576 0.30164 0.0
C21 C 0.72042 1.00417 0.25312 0.0
C22 C 0.74564 0.99593 0.29894 0.0
C23 C 0.72194 0.00628 0.17482 0.0
C24 C 0.7496 1.00105 0.14189 0.0
C25 C 0.77592 0.99477 0.18603 0.0
C26 C 0.77358 0.99137 0.26573 0.0
H27 H 0.46818 0.68964 0.25022 0.0
H28 H 0.48998 0.77481 0.29241 0.0
H29 H 0.47669 0.75838 0.06424 0.0
C30 C 0.47142 0.71244 0.22922 0.0
C31 C 0.4712 0.72195 0.15152 0.0
C32 C 0.47832 0.73117 0.28024 0.0
C33 C 0.48412 0.76039 0.25321 0.0
C34 C 0.48327 0.77046 0.17478 0.0
C35 C 0.47691 0.751 0.12463 0.0
H36 H 0.16253 0.52394 0.19229 0.0
H37 H 0.2144 0.53859 0.38154 0.0
H38 H 0.2582 0.51429 0.18334 0.0
C39 C 0.18409 0.52454 0.21901 0.0
C40 C 0.20999 0.51794 0.18 0.0
C41 C 0.18548 0.53212 0.29124 0.0
C42 C 0.21334 0.53358 0.32444 0.0
C43 C 0.23983 0.52736 0.28634 0.0
C44 C 0.2381 0.51924 0.21354 0.0
H45 H 0.98251 0.20205 0.2493 0.0
H46 H 0.96679 0.24231 0.44727 0.0
H47 H 0.0116 0.28785 0.25588 0.0
C48 C 0.98438 0.22036 0.27993 0.0
C49 C 0.99925 0.24436 0.24622 0.0
C50 C 0.9729 0.21913 0.35257 0.0
C51 C 0.97466 0.24359 0.38989 0.0
C52 C 0.98781 0.26907 0.35539 0.0
C53 C 0.00069 0.26903 0.2832 0.0
H54 H 0.29395 0.02737 0.2874 0.0
H55 H 0.24208 0.03942 0.48252 0.0
H56 H 0.20383 0.06437 0.25904 0.0
C57 C 0.27326 0.03445 0.31232 0.0
C58 C 0.24944 0.04628 0.26466 0.0
C59 C 0.27126 0.03262 0.39068 0.0
C60 C 0.24406 0.04123 0.42179 0.0
C61 C 0.2193 0.05212 0.37513 0.0
C62 C 0.22231 0.05516 0.29589 0.0
H63 H 0.53572 0.34273 0.31138 0.0
H64 H 0.51045 0.25856 0.27012 0.0
H65 H 0.52677 0.27428 0.4977 0.0
C66 C 0.53196 0.32006 0.33246 0.0
C67 C 0.53262 0.31049 0.41015 0.0
C68 C 0.52382 0.30167 0.28177 0.0
C69 C 0.51726 0.2727 0.30907 0.0
C70 C 0.51864 0.2625 0.38743 0.0
C71 C 0.5262 0.28167 0.43731 0.0
Co72 Co 0.0021 0.03782 0.81561 0.0
C73 C 0.95848 0.99978 0.87405 0.0
Co74 Co 0.99827 0.99833 0.75961 0.0
C75 C 0.01671 0.09175 0.87699 0.0
C76 C 0.97033 0.08673 0.86126 0.0
N77 N 0.99757 0.0732 0.85485 0.0
N78 N 0.00218 0.11639 0.89527 0.0
C79 C 0.97307 0.11304 0.88557 0.0
H80 H 0.04068 0.08763 0.87805 0.0
H81 H 0.94955 0.07813 0.84804 0.0
C82 C 0.04174 0.03631 0.70047 0.0
N83 N 0.00275 0.96288 0.72063 0.0
C84 C 0.98356 0.94441 0.69827 0.0
C85 C 0.02995 0.94916 0.7149 0.0
N86 N 0.99802 0.91965 0.6805 0.0
C87 C 0.02713 0.92283 0.69074 0.0
C88 C 0.96304 0.04179 0.68697 0.0
O89 O 0.03354 0.0519 0.75068 0.0
O90 O 0.02951 0.0126 0.69726 0.0
O91 O 0.97087 0.01516 0.68259 0.0
O92 O 0.97385 0.05384 0.73908 0.0
O93 O 0.96639 0.98475 0.82254 0.0
H94 H 0.05074 0.95763 0.72852 0.0
H95 H 0.9596 0.94868 0.69675 0.0
O96 O 0.97115 0.02306 0.87967 0.0
O97 O 0.03011 0.0212 0.89144 0.0
O98 O 0.02595 0.98214 0.83715 0.0
C99 C 0.03737 0.99436 0.88814 0.0
H100 H 0.95492 0.12844 0.89641 0.0
H101 H 0.04522 0.90729 0.68044 0.0
Co102 Co 0.48146 0.02718 0.81797 0.0
C103 C 0.49527 0.96898 0.87098 0.0
Co104 Co 0.51252 0.00657 0.74229 0.0
C105 C 0.4259 0.03835 0.89296 0.0
C106 C 0.45608 0.07155 0.90013 0.0
N107 N 0.45375 0.04583 0.87472 0.0
N108 N 0.41059 0.05852 0.92809 0.0
C109 C 0.4297 0.07936 0.93304 0.0
H110 H 0.41678 0.01889 0.87841 0.0
H111 H 0.47548 0.08418 0.89353 0.0
C112 C 0.49873 0.06483 0.68957 0.0
N113 N 0.54049 0.98825 0.68541 0.0
C114 C 0.5679 0.99682 0.6663 0.0
C115 C 0.5392 0.96228 0.66061 0.0
N116 N 0.584 0.97714 0.63125 0.0
C117 C 0.56582 0.95543 0.62725 0.0
C118 C 0.45435 1.00286 0.70415 0.0
O119 O 0.48329 0.06284 0.74934 0.0
O120 O 0.51393 0.04225 0.67451 0.0
O121 O 0.48073 0.99601 0.68451 0.0
O122 O 0.45025 0.01645 0.76011 0.0
O123 O 0.51085 0.9709 0.81135 0.0
H124 H 0.52038 0.94888 0.6679 0.0
H125 H 0.57618 0.01676 0.68022 0.0
O126 O 0.47988 0.99153 0.88553 0.0
O127 O 0.5132 0.0375 0.87604 0.0
O128 O 0.54369 0.01745 0.79994 0.0
C129 C 0.53955 0.03081 0.85625 0.0
H130 H 0.42509 0.09892 0.95858 0.0
H131 H 0.57123 0.9359 0.60212 0.0
Co132 Co 0.52593 0.51765 0.78766 0.0
C133 C 0.50124 0.47106 0.8806 0.0
Co134 Co 0.47752 0.51499 0.77305 0.0
C135 C 0.57781 0.51897 0.87959 0.0
C136 C 0.58949 0.51916 0.76373 0.0
N137 N 0.56595 0.51927 0.81013 0.0
N138 N 0.60777 0.51844 0.87861 0.0
C139 C 0.61528 0.51846 0.8058 0.0
H140 H 0.56475 0.51804 0.93048 0.0
H141 H 0.58803 0.519 0.70354 0.0
C142 C 0.50235 0.5616 0.6801 0.0
N143 N 0.43749 0.51339 0.75098 0.0
C144 C 0.42526 0.51444 0.68161 0.0
C145 C 0.4142 0.51291 0.79827 0.0
N146 N 0.39531 0.51494 0.68356 0.0
C147 C 0.3882 0.51406 0.75686 0.0
C148 C 0.48962 0.55088 0.87481 0.0
O149 O 0.52695 0.55109 0.71145 0.0
O150 O 0.47882 0.5486 0.69775 0.0
O151 O 0.46807 0.54026 0.84507 0.0
O152 O 0.5161 0.54309 0.8584 0.0
O153 O 0.47661 0.48126 0.84891 0.0
H154 H 0.41598 0.51244 0.85864 0.0
H155 H 0.43805 0.51599 0.6302 0.0
O156 O 0.5246 0.48436 0.86326 0.0
O157 O 0.53536 0.49203 0.7161 0.0
O158 O 0.48726 0.48988 0.70177 0.0
C159 C 0.5137 0.48173 0.68586 0.0
H160 H 0.63778 0.51785 0.78462 0.0
H161 H 0.36581 0.51447 0.77882 0.0
Co162 Co 0.99861 0.54426 0.78905 0.0
C163 C 0.05216 0.51334 0.83885 0.0
Co164 Co 0.00074 0.49701 0.77625 0.0
C165 C -6e-05 0.59384 0.87135 0.0
C166 C 0.99354 0.60757 0.7526 0.0
N167 N 0.99701 0.58341 0.80516 0.0
N168 N 0.99867 0.62344 0.86193 0.0
C169 C 0.99477 0.63214 0.78719 0.0
H170 H 0.00368 0.58001 0.92532 0.0
H171 H 0.99051 0.60739 0.6928 0.0
C172 C 0.94716 0.52792 0.72652 0.0
N173 N 0.00239 0.45783 0.7606 0.0
C174 C 0.99904 0.44702 0.69508 0.0
C175 C 0.00636 0.43391 0.81378 0.0
N176 N 0.00047 0.4174 0.70566 0.0
C177 C 0.00496 0.40911 0.78034 0.0
C178 C 0.97732 0.50736 0.9115 0.0
O179 O 0.95931 0.5498 0.74572 0.0
O180 O 0.96174 0.50304 0.7342 0.0
O181 O 0.98406 0.48702 0.8729 0.0
O182 O 0.98216 0.5336 0.88501 0.0
O183 O 0.04005 0.4915 0.81935 0.0
H184 H 0.00983 0.43442 0.87328 0.0
H185 H 0.99485 0.46058 0.6409 0.0
O186 O 0.03757 0.5382 0.83134 0.0
O187 O 0.0154 0.55424 0.69251 0.0
O188 O 0.01708 0.50766 0.6801 0.0
C189 C 0.02203 0.5339 0.65378 0.0
H190 H 0.99276 0.65468 0.75961 0.0
H191 H 0.00721 0.38667 0.80866 0.0
H192 H 0.20823 0.08213 0.49449 0.0
H193 H 0.04967 0.01842 0.56417 0.0
H194 H 0.16441 0.03633 0.33813 0.0
H195 H 0.08617 0.07409 0.7085 0.0
H196 H 0.08972 0.02884 0.47558 0.0
H197 H 0.16232 0.08397 0.56719 0.0
C198 C 0.18879 0.07282 0.47488 0.0
C199 C 0.19027 0.05865 0.41071 0.0
C200 C 0.08897 0.03904 0.52617 0.0
C201 C 0.13771 0.06056 0.49391 0.0
C202 C 0.06612 0.03299 0.57713 0.0
C203 C 0.06481 0.04509 0.64446 0.0
C204 C 0.11111 0.05705 0.54274 0.0
C205 C 0.08647 0.06417 0.65748 0.0
C206 C 0.16258 0.07393 0.51636 0.0
C207 C 0.1643 0.04744 0.38716 0.0
N208 N 0.10903 0.06926 0.60753 0.0
N209 N 0.13926 0.04825 0.42935 0.0
H210 H 0.5406 0.21013 0.34701 0.0
H211 H 0.46715 0.11633 0.70352 0.0
H212 H 0.48054 0.24644 0.5016 0.0
H213 H 0.53072 0.07818 0.55954 0.0
H214 H 0.46857 0.16331 0.622 0.0
H215 H 0.53353 0.16075 0.41452 0.0
C216 C 0.52555 0.20763 0.3943 0.0
C217 C 0.51137 0.23235 0.41932 0.0
C218 C 0.48217 0.14469 0.60788 0.0
C219 C 0.5034 0.17625 0.49706 0.0
C220 C 0.48139 0.11779 0.65461 0.0
C221 C 0.49898 0.09324 0.63873 0.0
C222 C 0.50074 0.14729 0.54459 0.0
C223 C 0.51687 0.09654 0.57416 0.0
C224 C 0.52169 0.17953 0.43314 0.0
C225 C 0.49224 0.22798 0.48114 0.0
N226 N 0.51741 0.1231 0.52964 0.0
N227 N 0.48899 0.20057 0.51806 0.0
H228 H 0.28793 0.48648 0.30517 0.0
H229 H 0.34279 0.54721 0.66614 0.0
H230 H 0.25657 0.5708 0.3607 0.0
H231 H 0.40197 0.49006 0.5561 0.0
H232 H 0.30862 0.55264 0.55802 0.0
H233 H 0.32925 0.48472 0.39641 0.0
C234 C 0.29017 0.50491 0.33504 0.0
C235 C 0.26856 0.52862 0.32625 0.0
C236 C 0.32915 0.53901 0.5572 0.0
C237 C 0.31496 0.52637 0.43155 0.0
C238 C 0.34847 0.53571 0.6192 0.0
C239 C 0.37511 0.51811 0.62 0.0
C240 C 0.33617 0.52413 0.49596 0.0
C241 C 0.38165 0.50394 0.55724 0.0
C242 C 0.31357 0.50379 0.38742 0.0
C243 C 0.2724 0.55183 0.36682 0.0
N244 N 0.36213 0.50697 0.49792 0.0
N245 N 0.29474 0.54989 0.41854 0.0
H246 H 0.03175 0.30828 0.35769 0.0
H247 H 0.96961 0.36903 0.72065 0.0
H248 H 0.94532 0.28917 0.44886 0.0
H249 H 0.02365 0.42202 0.56459 0.0
H250 H 0.96534 0.33538 0.62852 0.0
H251 H 0.03362 0.34705 0.43712 0.0
C252 C 0.01304 0.31231 0.3935 0.0
C253 C 0.98857 0.29481 0.39717 0.0
C254 C 0.97802 0.35444 0.61415 0.0
C255 C 0.99105 0.33873 0.48954 0.0
C256 C 0.98057 0.37352 0.66683 0.0
C257 C 0.99697 0.39829 0.65009 0.0
C258 C 0.99259 0.35967 0.54465 0.0
C259 C 0.01063 0.40324 0.57926 0.0
C260 C 0.01423 0.33439 0.43909 0.0
C261 C 0.96514 0.30121 0.44549 0.0
N262 N 0.00847 0.38389 0.52934 0.0
N263 N 0.96718 0.32222 0.4903 0.0
H264 H 0.82774 0.96027 0.23363 0.0
H265 H 0.90627 0.97736 0.84152 0.0
H266 H 0.79177 0.02427 0.04885 0.0
H267 H 0.95502 1.0043 0.02349 0.0
H268 H 0.86265 0.97199 0.9241 0.0
H269 H 0.87441 0.95621 0.16303 0.0
C270 C 0.8294 0.97341 0.17869 0.0
C271 C 0.8052 0.99223 0.14701 0.0
C272 C 0.88324 0.97835 0.9461 0.0
C273 C 0.85787 0.98652 0.06552 0.0
C274 C 0.90802 0.98133 0.89937 0.0
C275 C 0.93404 0.99148 0.92583 0.0
C276 C 0.88495 0.98471 0.02007 0.0
C277 C 0.93516 0.99665 0.00105 0.0
C278 C 0.85593 0.9708 0.1384 0.0
C279 C 0.809 0.00852 0.07499 0.0
N280 N 0.91087 0.99328 0.04576 0.0
N281 N 0.83457 0.00498 0.0365 0.0
H282 H 0.52345 0.78702 0.06642 0.0
H283 H 0.46324 0.95606 0.00099 0.0
H284 H 0.45765 0.82257 0.20871 0.0
H285 H 0.52757 0.91753 0.85957 0.0
H286 H 0.46341 0.90884 0.08411 0.0
H287 H 0.52858 0.83614 0.99838 0.0
C288 C 0.51033 0.80534 0.08387 0.0
C289 C 0.48993 0.80076 0.14283 0.0
C290 C 0.47757 0.91079 0.03507 0.0
C291 C 0.49533 0.8572 0.06436 0.0
C292 C 0.47746 0.93773 0.98747 0.0
C293 C 0.49531 0.94077 0.92284 0.0
C294 C 0.49568 0.88671 0.01801 0.0
C295 C 0.51332 0.91625 0.90841 0.0
C296 C 0.51319 0.83339 0.04486 0.0
C297 C 0.47367 0.82524 0.16363 0.0
N298 N 0.51297 0.89034 0.95538 0.0
N299 N 0.47645 0.85243 0.12381 0.0
H300 H 0.71111 0.55264 0.25826 0.0
H301 H 0.66073 0.487 0.89998 0.0
H302 H 0.74559 0.46854 0.20754 0.0
H303 H 0.59981 0.54474 0.00347 0.0
H304 H 0.69416 0.48325 0.00914 0.0
H305 H 0.67054 0.5526 0.16582 0.0
C306 C 0.70969 0.53386 0.22923 0.0
C307 C 0.73194 0.51074 0.23975 0.0
C308 C 0.67341 0.49664 0.0083 0.0
C309 C 0.68642 0.51094 0.13304 0.0
C310 C 0.6545 0.49899 0.94568 0.0
C311 C 0.62758 0.51626 0.94272 0.0
C312 C 0.66568 0.51214 0.068 0.0
C313 C 0.62035 0.53108 0.00398 0.0
C314 C 0.68673 0.53395 0.17613 0.0
C315 C 0.72919 0.48705 0.20017 0.0
N316 N 0.63946 0.52896 0.06392 0.0
N317 N 0.70725 0.48801 0.14775 0.0
H318 H 0.05584 0.75082 0.12388 0.0
H319 H 0.97527 0.61703 0.00275 0.0
H320 H 0.96945 0.72994 0.21236 0.0
H321 H 0.02867 0.67242 0.85076 0.0
H322 H 0.97919 0.65058 0.09668 0.0
H323 H 0.05273 0.71411 0.0406 0.0
C324 C 0.03611 0.73865 0.12594 0.0
C325 C 0.01252 0.74426 0.17446 0.0
C326 C 0.99007 0.65526 0.04277 0.0
C327 C 0.00944 0.70114 0.08007 0.0
C328 C 0.98799 0.6361 0.98954 0.0
C329 C 0.00159 0.64208 0.91889 0.0
C330 C 0.00654 0.68006 0.02585 0.0
C331 C 0.01766 0.66718 0.90422 0.0
C332 C 0.0345 0.71752 0.07845 0.0
C333 C 0.98821 0.7266 0.17619 0.0
N334 N 0.01987 0.68509 0.95732 0.0
N335 N 0.98725 0.70589 0.12952 0.0
H336 H 0.92637 0.21164 0.45297 0.0
H337 H 0.96634 0.03939 0.53612 0.0
H338 H 0.99303 0.16279 0.33946 0.0
H339 H 0.92517 0.08928 0.69787 0.0
H340 H 0.95808 0.08224 0.4384 0.0
H341 H 0.91086 0.16514 0.52086 0.0
C342 C 0.93757 0.19129 0.44165 0.0
C343 C 0.96121 0.19136 0.39048 0.0
C344 C 0.94996 0.08349 0.49478 0.0
C345 C 0.94288 0.13821 0.46602 0.0
C346 C 0.95428 0.0589 0.55025 0.0
C347 C 0.94698 0.06114 0.62518 0.0
C348 C 0.9383 0.11023 0.51493 0.0
C349 C 0.93158 0.08698 0.6407 0.0
C350 C 0.92844 0.16479 0.47972 0.0
C351 C 0.9744 0.16414 0.37714 0.0
N352 N 0.92837 0.11084 0.58638 0.0
N353 N 0.96518 0.13881 0.41491 0.0
H354 H 0.27505 0.99939 0.5326 0.0
H355 H 0.45225 0.99771 0.55443 0.0
H356 H 0.3291 0.04403 0.35862 0.0
H357 H 0.39745 0.99729 0.75201 0.0
H358 H 0.40708 0.99915 0.477 0.0
H359 H 0.3202 0.98504 0.60994 0.0
C360 C 0.29626 0.00611 0.51044 0.0
C361 C 0.29814 0.02289 0.43863 0.0
C362 C 0.40509 0.99822 0.53753 0.0
C363 C 0.34968 0.00564 0.52555 0.0
C364 C 0.43078 0.9972 0.58164 0.0
C365 C 0.42841 0.99781 0.6593 0.0
C366 C 0.37707 0.99942 0.57175 0.0
C367 C 0.40009 0.99723 0.69197 0.0
C368 C 0.32196 0.99766 0.5543 0.0
C369 C 0.32643 0.03051 0.4126 0.0
N370 N 0.37541 0.99829 0.64788 0.0
N371 N 0.35102 0.02177 0.45591 0.0
H372 H 0.57495 0.35037 0.41014 0.0
H373 H 0.4717 0.44925 0.63764 0.0
H374 H 0.49597 0.32073 0.52483 0.0
H375 H 0.56654 0.45847 0.63423 0.0
H376 H 0.47963 0.40551 0.57846 0.0
H377 H 0.57272 0.39244 0.47963 0.0
C378 C 0.55754 0.35244 0.45108 0.0
C379 C 0.53557 0.33217 0.46191 0.0
C380 C 0.49872 0.41709 0.59062 0.0
C381 C 0.53249 0.38023 0.53923 0.0
C382 C 0.49423 0.44229 0.6237 0.0
C383 C 0.51855 0.45754 0.64117 0.0
C384 C 0.52768 0.40718 0.5736 0.0
C385 C 0.5472 0.44732 0.62174 0.0
C386 C 0.55628 0.37637 0.49041 0.0
C387 C 0.51344 0.33574 0.5153 0.0
N388 N 0.55103 0.42271 0.58857 0.0
N389 N 0.51218 0.35961 0.55107 0.0
H390 H 0.17133 0.57531 0.37742 0.0
H391 H 0.02739 0.50004 0.54234 0.0
H392 H 0.13655 0.5003 0.29999 0.0
H393 H 0.05545 0.58021 0.60664 0.0
H394 H 0.06337 0.50401 0.44069 0.0
H395 H 0.12628 0.58102 0.45184 0.0
C396 C 0.15415 0.56015 0.3759 0.0
C397 C 0.15774 0.53717 0.33302 0.0
C398 C 0.06141 0.52102 0.47617 0.0
C399 C 0.10622 0.54367 0.41715 0.0
C400 C 0.04081 0.51878 0.53412 0.0
C401 C 0.03882 0.53961 0.58346 0.0
C402 C 0.08052 0.54398 0.46837 0.0
C403 C 0.05646 0.56361 0.56994 0.0
C404 C 0.12837 0.56355 0.41777 0.0
C405 C 0.13464 0.51843 0.3319 0.0
N406 N 0.07705 0.56486 0.51439 0.0
N407 N 0.11001 0.52194 0.37389 0.0
H408 H 0.00555 0.87443 0.24178 0.0
H409 H 0.03986 1.00034 0.03775 0.0
H410 H 0.07452 0.82861 0.12813 0.0
H411 H 0.07108 0.94405 0.8788 0.0
H412 H 0.04874 0.9592 0.14005 0.0
H413 H 0.02128 0.92045 0.17902 0.0
C414 C 0.02468 0.87397 0.20531 0.0
C415 C 0.03879 0.84733 0.19081 0.0
C416 C 0.05401 0.95593 0.08287 0.0
C417 C 0.05702 0.90081 0.11725 0.0
C418 C 0.04955 0.97961 0.02471 0.0
C419 C 0.05377 0.97519 0.94974 0.0
C420 C 0.06222 0.92785 0.06503 0.0
C421 C 0.06668 0.94801 0.93595 0.0
C422 C 0.03384 0.90055 0.16951 0.0
C423 C 0.06269 0.84851 0.14037 0.0
N424 N 0.06971 0.92508 0.99286 0.0
N425 N 0.0707 0.87481 0.10434 0.0
H426 H 0.66594 0.98853 0.20765 0.0
H427 H 0.59593 0.03873 0.80757 0.0
H428 H 0.71495 0.04034 0.03527 0.0
H429 H 0.54199 0.03281 0.00746 0.0
H430 H 0.64048 0.03751 0.88655 0.0
H431 H 0.62071 1.00157 0.13224 0.0
C432 C 0.66722 1.00295 0.15442 0.0
C433 C 0.6944 0.01352 0.12816 0.0
C434 C 0.61885 0.03705 0.91289 0.0
C435 C 0.64265 0.0278 0.04076 0.0
C436 C 0.59349 0.0377 0.86804 0.0
C437 C 0.5654 0.03567 0.90142 0.0
C438 C 0.61604 0.03358 0.99154 0.0
C439 C 0.5633 0.03445 0.97977 0.0
C440 C 0.64133 0.01032 0.11142 0.0
C441 C 0.69465 0.03134 0.0574 0.0
N442 N 0.58844 0.03282 0.02256 0.0
N443 N 0.66916 0.03771 0.01572 0.0
H444 H 0.50808 0.71334 0.0358 0.0
H445 H 0.43684 0.5716 0.93193 0.0
H446 H 0.43047 0.68055 0.15136 0.0
H447 H 0.53058 0.58586 0.91673 0.0
H448 H 0.429 0.61566 0.99325 0.0
H449 H 0.51036 0.67185 0.96587 0.0
C450 C 0.4911 0.69776 0.04508 0.0
C451 C 0.46913 0.70023 0.0995 0.0
C452 C 0.45122 0.60889 0.9766 0.0
C453 C 0.47193 0.65255 0.02095 0.0
C454 C 0.45574 0.58379 0.94206 0.0
C455 C 0.48441 0.57503 0.9194 0.0
C456 C 0.47543 0.62548 0.98673 0.0
C457 C 0.50811 0.59167 0.93345 0.0
C458 C 0.49263 0.67393 0.00595 0.0
C459 C 0.44789 0.67919 0.11016 0.0
N460 N 0.50304 0.61622 0.96553 0.0
N461 N 0.44987 0.65604 0.07141 0.0
H462 H 0.86291 0.54319 0.26861 0.0
H463 H 0.94623 0.45963 0.96216 0.0
H464 H 0.8303 0.46756 0.18927 0.0
H465 H 0.96977 0.54245 0.01987 0.0
H466 H 0.91018 0.45602 0.06478 0.0
H467 H 0.9081 0.53719 0.1965 0.0
C468 C 0.86542 0.52508 0.23667 0.0
C469 C 0.84272 0.50596 0.23444 0.0
C470 C 0.92361 0.47473 0.05565 0.0
C471 C 0.89429 0.49922 0.15082 0.0
C472 C 0.9443 0.4767 0.99752 0.0
C473 C 0.96057 0.50162 0.9819 0.0
C474 C 0.91939 0.49778 0.09823 0.0
C475 C 0.95728 0.52309 0.02932 0.0
C476 C 0.8912 0.52174 0.19526 0.0
C477 C 0.84705 0.48309 0.19139 0.0
N478 N 0.9368 0.52084 0.08482 0.0
N479 N 0.87228 0.48047 0.15073 0.0
H480 H 0.97734 0.2639 0.10461 0.0
H481 H 0.04766 0.11603 0.99563 0.0
H482 H 0.05147 0.21413 0.22507 0.0
H483 H 0.98224 0.17314 0.85972 0.0
H484 H 0.05784 0.15662 0.06389 0.0
H485 H 0.98762 0.23785 0.99737 0.0
C486 C 0.9968 0.24862 0.10675 0.0
C487 C 0.01365 0.24122 0.17348 0.0
C488 C 0.04175 0.1605 0.01792 0.0
C489 C 0.02453 0.20989 0.05315 0.0
C490 C 0.03609 0.13733 0.9788 0.0
C491 C 0.01367 0.14112 0.92314 0.0
C492 C 0.02473 0.18749 0.00128 0.0
C493 C 0.99922 0.16916 0.90357 0.0
C494 C 0.0024 0.23327 0.04607 0.0
C495 C 0.03813 0.22059 0.17419 0.0
N496 N 0.00459 0.19106 0.94334 0.0
N497 N 0.04233 0.20503 0.11595 0.0
H498 H 0.25763 0.09822 0.17744 0.0
H499 H 0.37733 0.01122 0.95888 0.0
H500 H 0.25909 0.00551 0.17126 0.0
H501 H 0.37381 0.10483 0.95703 0.0
H502 H 0.32775 0.01045 0.01301 0.0
H503 H 0.2917 0.10322 0.07074 0.0
C504 C 0.26386 0.07918 0.15084 0.0
C505 C 0.25571 0.05141 0.18311 0.0
C506 C 0.33766 0.03124 -7e-05 0.0
C507 C 0.29581 0.05657 0.06389 0.0
C508 C 0.3661 0.03171 0.96884 0.0
C509 C 0.38026 0.05806 0.95453 0.0
C510 C 0.32322 0.05725 0.01755 0.0
C511 C 0.36432 0.08384 0.96904 0.0
C512 C 0.2838 0.08189 0.09083 0.0
C513 C 0.2649 0.0273 0.14767 0.0
N514 N 0.33689 0.08272 0.00057 0.0
N515 N 0.28509 0.03028 0.09124 0.0
H516 H 0.47137 0.318 0.20659 0.0
H517 H 0.55206 0.44062 0.93892 0.0
H518 H 0.56636 0.31903 0.18137 0.0
H519 H 0.45657 0.43644 0.93839 0.0
H520 H 0.55704 0.39347 0.01981 0.0
H521 H 0.46465 0.35697 0.09741 0.0
C522 C 0.49074 0.32551 0.17571 0.0
C523 C 0.51945 0.3152 0.2022 0.0
C524 C 0.53494 0.40269 0.00197 0.0
C525 C 0.5121 0.3605 0.08001 0.0
C526 C 0.53204 0.42985 0.9561 0.0
C527 C 0.50379 0.44276 0.93232 0.0
C528 C 0.50943 0.38819 0.02539 0.0
C529 C 0.47877 0.42743 0.95589 0.0
C530 C 0.48695 0.34808 0.11426 0.0
C531 C 0.54389 0.32622 0.16195 0.0
N532 N 0.48215 0.40104 0.00168 0.0
N533 N 0.53968 0.34858 0.10368 0.0
H534 H 0.20983 0.55509 0.04801 0.0
H535 H 0.0857 0.46297 0.89773 0.0
H536 H 0.19599 0.46592 0.14174 0.0
H537 H 0.08895 0.55691 0.84937 0.0
H538 H 0.13507 0.45971 0.95823 0.0
H539 H 0.17686 0.55101 0.9421 0.0
C540 C 0.20121 0.5341 0.04391 0.0
C541 C 0.20557 0.51082 0.10346 0.0
C542 C 0.12511 0.48096 0.93332 0.0
C543 C 0.16664 0.50637 0.98499 0.0
C544 C 0.09692 0.48285 0.89901 0.0
C545 C 0.08294 0.51031 0.8698 0.0
C546 C 0.13948 0.50669 0.93759 0.0
C547 C 0.09861 0.53532 0.87245 0.0
C548 C 0.18185 0.53193 0.98434 0.0
C549 C 0.19326 0.48429 0.0965 0.0
N550 N 0.12587 0.53292 0.9062 0.0
N551 N 0.17369 0.48299 0.03941 0.0
H552 H 0.02293 0.77232 0.47171 0.0
H553 H 0.95263 0.92004 0.57981 0.0
H554 H 0.94828 0.82145 0.35207 0.0
H555 H 0.01765 0.86284 0.7168 0.0
H556 H 0.94229 0.87935 0.51208 0.0
H557 H 0.01251 0.7982 0.57912 0.0
C558 C 0.0033 0.78738 0.46982 0.0
C559 C 0.9864 0.79472 0.40316 0.0
C560 C 0.95833 0.87547 0.55818 0.0
C561 C 0.97537 0.82592 0.52367 0.0
C562 C 0.96408 0.8987 0.59699 0.0
C563 C 0.98645 0.89492 0.65279 0.0
C564 C 0.9752 0.84841 0.57527 0.0
C565 C 0.00074 0.86683 0.67281 0.0
C566 C 0.99764 0.80267 0.53059 0.0
C567 C 0.96168 0.81505 0.40285 0.0
N568 N 0.99528 0.84487 0.63334 0.0
N569 N 0.95745 0.83061 0.4611 0.0
H570 H 0.74046 0.94356 0.38665 0.0
H571 H 0.61534 0.02585 0.60095 0.0
H572 H 0.73465 0.0364 0.39254 0.0
H573 H 0.62259 0.93228 0.60099 0.0
H574 H 0.66504 0.0286 0.54821 0.0
H575 H 0.70571 0.93717 0.49167 0.0
C576 C 0.7332 0.96239 0.41307 0.0
C577 C 0.74033 0.99054 0.38095 0.0
C578 C 0.65591 0.00739 0.56056 0.0
C579 C 0.69934 0.98375 0.49815 0.0
C580 C 0.62739 0.00577 0.59087 0.0
C581 C 0.61426 0.97883 0.60452 0.0
C582 C 0.67153 0.98194 0.54305 0.0
C583 C 0.63126 0.95367 0.58968 0.0
C584 C 0.71281 0.95886 0.472 0.0
C585 C 0.72975 0.01432 0.41607 0.0
N586 N 0.65879 0.9559 0.559 0.0
N587 N 0.70913 0.01052 0.47139 0.0
H588 H 0.43515 0.71493 0.3799 0.0
H589 H 0.5476 0.59569 0.62477 0.0
H590 H 0.53033 0.71387 0.35635 0.0
H591 H 0.45203 0.59257 0.61931 0.0
H592 H 0.54247 0.64336 0.54269 0.0
H593 H 0.44169 0.67623 0.48883 0.0
C594 C 0.45748 0.70738 0.39999 0.0
C595 C 0.48225 0.71776 0.36001 0.0
C596 C 0.52267 0.63223 0.55982 0.0
C597 C 0.49001 0.67239 0.48185 0.0
C598 C 0.52558 0.60496 0.60626 0.0
C599 C 0.50024 0.5899 0.62834 0.0
C600 C 0.4942 0.64463 0.53582 0.0
C601 C 0.47225 0.60314 0.60322 0.0
C602 C 0.46125 0.68491 0.46126 0.0
C603 C 0.51073 0.7067 0.3867 0.0
N604 N 0.47002 0.62962 0.55839 0.0
N605 N 0.51387 0.68421 0.44525 0.0
H606 H 0.78955 0.48592 0.51788 0.0
H607 H 0.91334 0.57825 0.66854 0.0
H608 H 0.80221 0.57562 0.4269 0.0
H609 H 0.91049 0.48425 0.71589 0.0
H610 H 0.86381 0.58144 0.6089 0.0
H611 H 0.82259 0.48982 0.62375 0.0
C612 C 0.7979 0.50697 0.52263 0.0
C613 C 0.79325 0.53046 0.46371 0.0
C614 C 0.8739 0.56018 0.6334 0.0
C615 C 0.83228 0.53472 0.58213 0.0
C616 C 0.90217 0.55834 0.6672 0.0
C617 C 0.91632 0.5309 0.69589 0.0
C618 C 0.85958 0.53442 0.62907 0.0
C619 C 0.90071 0.50584 0.6932 0.0
C620 C 0.81732 0.50904 0.58216 0.0
C621 C 0.8052 0.55707 0.47159 0.0
N622 N 0.87336 0.50819 0.65992 0.0
N623 N 0.82486 0.55829 0.52854 0.0
loop_
_geom_bond_atom_site_label_1
_geom_bond_atom_site_label_2
_geom_bond_distance
_geom_bond_site_symmetry_2
_ccdc_geom_bond_type
H0 C3 0.931 . S
H1 C6 0.928 . S
H2 C8 0.930 . S
C3 H0 0.931 . S
C3 C4 1.413 . S
C3 C5 1.360 . S
C4 C3 1.413 . S
C4 C8 1.429 . S
C5 C3 1.360 . S
C5 C6 1.372 . S
C6 H1 0.928 . S
C6 C5 1.372 . S
C6 C7 1.404 . S
C7 C6 1.404 . S
C7 C8 1.391 . S
C8 H2 0.930 . S
C8 C4 1.429 . S
C8 C7 1.391 . S
H9 C12 0.931 . S
H10 C15 0.928 1_556 S
H11 C17 0.931 . S
C12 H9 0.931 . S
C12 C13 1.414 . S
C12 C14 1.360 . S
C13 C12 1.414 . S
C13 C17 1.430 1_655 S
C14 C12 1.360 . S
C14 C15 1.374 . S
C15 H10 0.928 1_554 S
C15 C14 1.374 . S
C15 C16 1.403 . S
C16 C15 1.403 . S
C16 C17 1.390 1_655 S
C17 H11 0.931 . S
C17 C13 1.430 1_455 S
C17 C16 1.390 1_455 S
H18 C21 0.931 . S
H19 C24 0.928 1_556 S
H20 C26 0.930 . S
C21 H18 0.931 . S
C21 C22 1.413 . S
C21 C23 1.360 . S
C22 C21 1.413 . S
C22 C26 1.429 . S
C23 C21 1.360 . S
C23 C24 1.372 . S
C24 H19 0.928 1_554 S
C24 C23 1.372 . S
C24 C25 1.404 . S
C25 C24 1.404 . S
C25 C26 1.391 . S
C26 H20 0.930 . S
C26 C22 1.429 . S
C26 C25 1.391 . S
H27 C30 0.931 . S
H28 C33 0.928 . S
H29 C35 0.930 . S
C30 H27 0.931 . S
C30 C31 1.413 . S
C30 C32 1.360 . S
C31 C30 1.413 . S
C31 C35 1.429 . S
C32 C30 1.360 . S
C32 C33 1.372 . S
C33 H28 0.928 . S
C33 C32 1.372 . S
C33 C34 1.404 . S
C34 C33 1.404 . S
C34 C35 1.391 . S
C35 H29 0.930 . S
C35 C31 1.429 . S
C35 C34 1.391 . S
H36 C39 0.931 . S
H37 C42 0.928 . S
H38 C44 0.930 . S
C39 H36 0.931 . S
C39 C40 1.413 . S
C39 C41 1.360 . S
C40 C39 1.413 . S
C40 C44 1.429 . S
C41 C39 1.360 . S
C41 C42 1.372 . S
C42 H37 0.928 . S
C42 C41 1.372 . S
C42 C43 1.404 . S
C43 C42 1.404 . S
C43 C44 1.391 . S
C44 H38 0.930 . S
C44 C40 1.429 . S
C44 C43 1.391 . S
H45 C48 0.930 . S
H46 C51 0.928 . S
H47 C53 0.928 . S
C48 H45 0.930 . S
C48 C49 1.413 . S
C48 C50 1.360 . S
C49 C48 1.413 . S
C49 C53 1.428 1_655 S
C50 C48 1.360 . S
C50 C51 1.371 . S
C51 H46 0.928 . S
C51 C50 1.371 . S
C51 C52 1.404 . S
C52 C51 1.404 . S
C52 C53 1.391 1_655 S
C53 H47 0.928 . S
C53 C49 1.428 1_455 S
C53 C52 1.391 1_455 S
H54 C57 0.931 . S
H55 C60 0.928 . S
H56 C62 0.930 . S
C57 H54 0.931 . S
C57 C58 1.413 . S
C57 C59 1.360 . S
C58 C57 1.413 . S
C58 C62 1.429 . S
C59 C57 1.360 . S
C59 C60 1.372 . S
C60 H55 0.928 . S
C60 C59 1.372 . S
C60 C61 1.404 . S
C61 C60 1.404 . S
C61 C62 1.391 . S
C62 H56 0.930 . S
C62 C58 1.429 . S
C62 C61 1.391 . S
H63 C66 0.931 . S
H64 C69 0.928 . S
H65 C71 0.930 . S
C66 H63 0.931 . S
C66 C67 1.413 . S
C66 C68 1.360 . S
C67 C66 1.413 . S
C67 C71 1.429 . S
C68 C66 1.360 . S
C68 C69 1.372 . S
C69 H64 0.928 . S
C69 C68 1.372 . S
C69 C70 1.404 . S
C70 C69 1.404 . S
C70 C71 1.391 . S
C71 H65 0.930 . S
C71 C67 1.429 . S
C71 C70 1.391 . S
Co72 N77 2.057 . S
Co72 O89 2.021 . S
Co72 O92 2.062 1_455 S
Co72 O96 2.117 1_455 S
Co72 O97 2.020 1_545 S
C73 O93 1.259 1_545 S
C73 O96 1.258 . S
Co74 N83 2.047 1_545 S
Co74 O90 2.122 1_655 S
Co74 O91 2.040 . S
Co74 O93 2.018 1_545 S
Co74 O98 2.046 1_645 S
C75 N77 1.316 . S
C75 N78 1.347 1_556 S
C75 H80 0.931 . S
C76 N77 1.375 1_655 S
C76 C79 1.350 1_556 S
C76 H81 0.930 . S
N77 Co72 2.057 . S
N77 C75 1.316 . S
N77 C76 1.375 1_455 S
N78 C75 1.347 1_554 S
N78 C79 1.373 1_455 S
C79 C76 1.350 1_554 S
C79 N78 1.373 1_655 S
C79 H100 0.931 . S
H80 C75 0.931 . S
H81 C76 0.930 . S
C82 O89 1.259 . S
C82 O90 1.258 . S
N83 Co74 2.047 1_565 S
N83 C84 1.344 . S
N83 C85 1.342 1_655 S
C84 N83 1.344 . S
C84 N86 1.347 . S
C84 H95 0.931 . S
C85 N83 1.342 1_455 S
C85 C87 1.350 . S
C85 H94 0.930 . S
N86 C84 1.347 . S
N86 C87 1.373 1_655 S
C87 C85 1.350 . S
C87 N86 1.373 1_455 S
C87 H101 0.931 . S
C88 O91 1.256 . S
C88 O92 1.255 . S
O89 Co72 2.021 . S
O89 C82 1.259 . S
O90 Co74 2.122 1_455 S
O90 C82 1.258 . S
O91 Co74 2.040 . S
O91 C88 1.256 . S
O92 Co72 2.062 1_655 S
O92 C88 1.255 . S
O93 C73 1.259 1_565 S
O93 Co74 2.018 1_565 S
H94 C85 0.930 . S
H95 C84 0.931 . S
O96 Co72 2.117 1_655 S
O96 C73 1.258 . S
O97 Co72 2.020 1_565 S
O97 C99 1.256 . S
O98 Co74 2.046 1_465 S
O98 C99 1.255 . S
C99 O97 1.256 . S
C99 O98 1.255 . S
H100 C79 0.931 . S
H101 C87 0.931 . S
Co102 N107 2.057 . S
Co102 O119 2.021 . S
Co102 O122 2.062 . S
Co102 O126 2.117 1_545 S
Co102 O127 2.020 . S
C103 O123 1.259 . S
C103 O126 1.258 . S
Co104 N113 2.057 . S
Co104 O120 2.117 . S
Co104 O121 2.020 . S
Co104 O123 2.021 1_545 S
Co104 O128 2.062 1_545 S
C105 N107 1.316 . S
C105 N108 1.347 1_556 S
C105 H110 0.931 . S
C106 N107 1.375 . S
C106 C109 1.350 1_556 S
C106 H111 0.930 1_545 S
N107 Co102 2.057 . S
N107 C105 1.316 . S
N107 C106 1.375 . S
N108 C105 1.347 1_554 S
N108 C109 1.373 . S
C109 C106 1.350 1_554 S
C109 N108 1.373 . S
C109 H130 0.931 . S
H110 C105 0.931 . S
H111 C106 0.930 1_565 S
C112 O119 1.259 . S
C112 O120 1.258 . S
N113 Co104 2.057 . S
N113 C114 1.316 1_545 S
N113 C115 1.375 . S
C114 N113 1.316 1_565 S
C114 N116 1.347 . S
C114 H125 0.931 . S
C115 N113 1.375 . S
C115 C117 1.350 . S
C115 H124 0.930 . S
N116 C114 1.347 . S
N116 C117 1.373 1_565 S
C117 C115 1.350 . S
C117 N116 1.373 1_545 S
C117 H131 0.931 . S
C118 O121 1.256 . S
C118 O122 1.255 . S
O119 Co102 2.021 . S
O119 C112 1.259 . S
O120 Co104 2.117 . S
O120 C112 1.258 . S
O121 Co104 2.020 . S
O121 C118 1.256 . S
O122 Co102 2.062 . S
O122 C118 1.255 . S
O123 C103 1.259 . S
O123 Co104 2.021 1_565 S
H124 C115 0.930 . S
H125 C114 0.931 . S
O126 Co102 2.117 1_565 S
O126 C103 1.258 . S
O127 Co102 2.020 . S
O127 C129 1.256 . S
O128 Co104 2.062 1_565 S
O128 C129 1.255 1_565 S
C129 O127 1.256 . S
C129 O128 1.255 1_545 S
H130 C109 0.931 . S
H131 C117 0.931 . S
Co132 N137 2.057 . S
Co132 O149 2.021 . S
Co132 O152 2.062 . S
Co132 O156 2.117 . S
Co132 O157 2.020 . S
C133 O153 1.259 . S
C133 O156 1.258 . S
Co134 N143 2.057 . S
Co134 O150 2.117 . S
Co134 O151 2.020 . S
Co134 O153 2.021 . S
Co134 O158 2.062 . S
C135 N137 1.316 . S
C135 N138 1.347 . S
C135 H140 0.931 . S
C136 N137 1.375 . S
C136 C139 1.350 . S
C136 H141 0.930 . S
N137 Co132 2.057 . S
N137 C135 1.316 . S
N137 C136 1.375 . S
N138 C135 1.347 . S
N138 C139 1.373 . S
C139 C136 1.350 . S
C139 N138 1.373 . S
C139 H160 0.931 . S
H140 C135 0.931 . S
H141 C136 0.930 . S
C142 O149 1.259 . S
C142 O150 1.258 . S
N143 Co134 2.057 . S
N143 C144 1.316 . S
N143 C145 1.375 . S
C144 N143 1.316 . S
C144 N146 1.347 . S
C144 H155 0.931 . S
C145 N143 1.375 . S
C145 C147 1.350 . S
C145 H154 0.930 . S
N146 C144 1.347 . S
N146 C147 1.373 . S
C147 C145 1.350 . S
C147 N146 1.373 . S
C147 H161 0.931 . S
C148 O151 1.256 . S
C148 O152 1.255 . S
O149 Co132 2.021 . S
O149 C142 1.259 . S
O150 Co134 2.117 . S
O150 C142 1.258 . S
O151 Co134 2.020 . S
O151 C148 1.256 . S
O152 Co132 2.062 . S
O152 C148 1.255 . S
O153 C133 1.259 . S
O153 Co134 2.021 . S
H154 C145 0.930 . S
H155 C144 0.931 . S
O156 Co132 2.117 . S
O156 C133 1.258 . S
O157 Co132 2.020 . S
O157 C159 1.256 . S
O158 Co134 2.062 . S
O158 C159 1.255 . S
C159 O157 1.256 . S
C159 O158 1.255 . S
H160 C139 0.931 . S
H161 C147 0.931 . S
Co162 N167 2.057 . S
Co162 O179 2.021 1_455 S
Co162 O182 2.062 1_455 S
Co162 O186 2.117 . S
Co162 O187 2.020 . S
C163 O183 1.259 . S
C163 O186 1.258 . S
Co164 N173 2.057 . S
Co164 O180 2.117 . S
Co164 O181 2.020 . S
Co164 O183 2.021 1_655 S
Co164 O188 2.062 1_655 S
C165 N167 1.316 . S
C165 N168 1.347 . S
C165 H170 0.931 1_455 S
C166 N167 1.375 . S
C166 C169 1.350 . S
C166 H171 0.930 . S
N167 Co162 2.057 . S
N167 C165 1.316 . S
N167 C166 1.375 . S
N168 C165 1.347 . S
N168 C169 1.373 . S
C169 C166 1.350 . S
C169 N168 1.373 . S
C169 H190 0.931 . S
H170 C165 0.931 1_655 S
H171 C166 0.930 . S
C172 O179 1.259 . S
C172 O180 1.258 . S
N173 Co164 2.057 . S
N173 C174 1.316 . S
N173 C175 1.375 . S
C174 N173 1.316 . S
C174 N176 1.347 . S
C174 H185 0.931 1_655 S
C175 N173 1.375 . S
C175 C177 1.350 . S
C175 H184 0.930 . S
N176 C174 1.347 . S
N176 C177 1.373 . S
C177 C175 1.350 . S
C177 N176 1.373 . S
C177 H191 0.931 . S
C178 O181 1.256 . S
C178 O182 1.255 . S
O179 Co162 2.021 1_655 S
O179 C172 1.259 . S
O180 Co164 2.117 . S
O180 C172 1.258 . S
O181 Co164 2.020 . S
O181 C178 1.256 . S
O182 Co162 2.062 1_655 S
O182 C178 1.255 . S
O183 C163 1.259 . S
O183 Co164 2.021 1_455 S
H184 C175 0.930 . S
H185 C174 0.931 1_455 S
O186 Co162 2.117 . S
O186 C163 1.258 . S
O187 Co162 2.020 . S
O187 C189 1.256 . S
O188 Co164 2.062 1_455 S
O188 C189 1.255 . S
C189 O187 1.256 . S
C189 O188 1.255 . S
H190 C169 0.931 . S
H191 C177 0.931 . S
H192 C198 0.930 . S
H193 C202 0.930 . S
H194 C207 0.929 . S
H195 C205 0.929 . S
H196 C200 0.929 . S
H197 C206 0.929 . S
C198 H192 0.930 . S
C198 C199 1.367 . S
C198 C206 1.378 . S
C199 C198 1.367 . S
C199 C207 1.433 . S
C200 H196 0.929 . S
C200 C202 1.378 . S
C200 C204 1.350 . S
C201 C204 1.463 . S
C201 C206 1.350 . S
C201 N209 1.427 . S
C202 H193 0.930 . S
C202 C200 1.378 . S
C202 C203 1.367 . S
C203 C202 1.367 . S
C203 C205 1.433 . S
C204 C200 1.350 . S
C204 C201 1.463 . S
C204 N208 1.427 . S
C205 H195 0.929 . S
C205 C203 1.433 . S
C205 N208 1.384 . S
C206 H197 0.929 . S
C206 C198 1.378 . S
C206 C201 1.350 . S
C207 H194 0.929 . S
C207 C199 1.433 . S
C207 N209 1.384 . S
N208 C204 1.427 . S
N208 C205 1.384 . S
N209 C201 1.427 . S
N209 C207 1.384 . S
H210 C216 0.930 . S
H211 C220 0.930 . S
H212 C225 0.929 . S
H213 C223 0.929 . S
H214 C218 0.929 . S
H215 C224 0.929 . S
C216 H210 0.930 . S
C216 C217 1.367 . S
C216 C224 1.378 . S
C217 C216 1.367 . S
C217 C225 1.433 . S
C218 H214 0.929 . S
C218 C220 1.378 . S
C218 C222 1.350 . S
C219 C222 1.463 . S
C219 C224 1.350 . S
C219 N227 1.427 . S
C220 H211 0.930 . S
C220 C218 1.378 . S
C220 C221 1.367 . S
C221 C220 1.367 . S
C221 C223 1.433 . S
C222 C218 1.350 . S
C222 C219 1.463 . S
C222 N226 1.427 . S
C223 H213 0.929 . S
C223 C221 1.433 . S
C223 N226 1.384 . S
C224 H215 0.929 . S
C224 C216 1.378 . S
C224 C219 1.350 . S
C225 H212 0.929 . S
C225 C217 1.433 . S
C225 N227 1.384 . S
N226 C222 1.427 . S
N226 C223 1.384 . S
N227 C219 1.427 . S
N227 C225 1.384 . S
H228 C234 0.930 . S
H229 C238 0.930 . S
H230 C243 0.929 . S
H231 C241 0.929 . S
H232 C236 0.929 . S
H233 C242 0.929 . S
C234 H228 0.930 . S
C234 C235 1.367 . S
C234 C242 1.378 . S
C235 C234 1.367 . S
C235 C243 1.433 . S
C236 H232 0.929 . S
C236 C238 1.378 . S
C236 C240 1.350 . S
C237 C240 1.463 . S
C237 C242 1.350 . S
C237 N245 1.427 . S
C238 H229 0.930 . S
C238 C236 1.378 . S
C238 C239 1.367 . S
C239 C238 1.367 . S
C239 C241 1.433 . S
C240 C236 1.350 . S
C240 C237 1.463 . S
C240 N244 1.427 . S
C241 H231 0.929 . S
C241 C239 1.433 . S
C241 N244 1.384 . S
C242 H233 0.929 . S
C242 C234 1.378 . S
C242 C237 1.350 . S
C243 H230 0.929 . S
C243 C235 1.433 . S
C243 N245 1.384 . S
N244 C240 1.427 . S
N244 C241 1.384 . S
N245 C237 1.427 . S
N245 C243 1.384 . S
H246 C252 0.930 . S
H247 C256 0.930 . S
H248 C261 0.929 . S
H249 C259 0.929 . S
H250 C254 0.929 . S
H251 C260 0.929 . S
C252 H246 0.930 . S
C252 C253 1.353 1_455 S
C252 C260 1.378 . S
C253 C252 1.353 1_655 S
C253 C261 1.449 . S
C254 H250 0.929 . S
C254 C256 1.378 . S
C254 C258 1.350 . S
C255 C258 1.463 . S
C255 C260 1.350 1_655 S
C255 N263 1.427 . S
C256 H247 0.930 . S
C256 C254 1.378 . S
C256 C257 1.367 . S
C257 C256 1.367 . S
C257 C259 1.433 1_655 S
C258 C254 1.350 . S
C258 C255 1.463 . S
C258 N262 1.427 1_655 S
C259 H249 0.929 . S
C259 C257 1.433 1_455 S
C259 N262 1.384 . S
C260 H251 0.929 . S
C260 C252 1.378 . S
C260 C255 1.350 1_455 S
C261 H248 0.929 . S
C261 C253 1.449 . S
C261 N263 1.384 . S
N262 C258 1.427 1_455 S
N262 C259 1.384 . S
N263 C255 1.427 . S
N263 C261 1.384 . S
H264 C270 0.930 . S
H265 C274 0.930 . S
H266 C279 0.929 . S
H267 C277 0.929 . S
H268 C272 0.929 . S
H269 C278 0.929 . S
C270 H264 0.930 . S
C270 C271 1.367 . S
C270 C278 1.378 . S
C271 C270 1.367 . S
C271 C279 1.433 1_554 S
C272 H268 0.929 . S
C272 C274 1.378 1_565 S
C272 C276 1.350 . S
C273 C276 1.463 . S
C273 C278 1.350 1_556 S
C273 N281 1.427 . S
C274 H265 0.930 . S
C274 C272 1.378 1_545 S
C274 C275 1.367 1_545 S
C275 C274 1.367 1_565 S
C275 C277 1.433 . S
C276 C272 1.350 . S
C276 C273 1.463 . S
C276 N280 1.427 . S
C277 H267 0.929 . S
C277 C275 1.433 . S
C277 N280 1.384 . S
C278 H269 0.929 . S
C278 C270 1.378 . S
C278 C273 1.350 1_554 S
C279 H266 0.929 . S
C279 C271 1.433 1_556 S
C279 N281 1.384 . S
N280 C276 1.427 . S
N280 C277 1.384 . S
N281 C273 1.427 . S
N281 C279 1.384 . S
H282 C288 0.930 . S
H283 C292 0.930 . S
H284 C297 0.929 . S
H285 C295 0.929 . S
H286 C290 0.929 . S
H287 C296 0.929 . S
C288 H282 0.930 . S
C288 C289 1.367 . S
C288 C296 1.378 . S
C289 C288 1.367 . S
C289 C297 1.433 . S
C290 H286 0.929 . S
C290 C292 1.378 . S
C290 C294 1.350 . S
C291 C294 1.463 . S
C291 C296 1.350 1_556 S
C291 N299 1.427 . S
C292 H283 0.930 . S
C292 C290 1.378 . S
C292 C293 1.367 . S
C293 C292 1.367 . S
C293 C295 1.433 . S
C294 C290 1.350 . S
C294 C291 1.463 . S
C294 N298 1.427 . S
C295 H285 0.929 . S
C295 C293 1.433 . S
C295 N298 1.384 . S
C296 H287 0.929 . S
C296 C288 1.378 . S
C296 C291 1.350 1_554 S
C297 H284 0.929 . S
C297 C289 1.433 . S
C297 N299 1.384 1_554 S
N298 C294 1.427 . S
N298 C295 1.384 . S
N299 C291 1.427 . S
N299 C297 1.384 1_556 S
H300 C306 0.930 1_556 S
H301 C310 0.930 . S
H302 C315 0.929 . S
H303 C313 0.929 . S
H304 C308 0.929 . S
H305 C314 0.929 . S
C306 H300 0.930 1_554 S
C306 C307 1.367 . S
C306 C314 1.378 1_554 S
C307 C306 1.367 . S
C307 C315 1.433 . S
C308 H304 0.929 . S
C308 C310 1.378 1_554 S
C308 C312 1.350 1_554 S
C309 C312 1.463 1_554 S
C309 C314 1.350 1_554 S
C309 N317 1.427 . S
C310 H301 0.930 . S
C310 C308 1.378 1_556 S
C310 C311 1.367 . S
C311 C310 1.367 . S
C311 C313 1.433 . S
C312 C308 1.350 1_556 S
C312 C309 1.463 1_556 S
C312 N316 1.427 . S
C313 H303 0.929 . S
C313 C311 1.433 . S
C313 N316 1.384 . S
C314 H305 0.929 . S
C314 C306 1.378 1_556 S
C314 C309 1.350 1_556 S
C315 H302 0.929 . S
C315 C307 1.433 . S
C315 N317 1.384 . S
N316 C312 1.427 . S
N316 C313 1.384 . S
N317 C309 1.427 . S
N317 C315 1.384 . S
H318 C324 0.930 1_556 S
H319 C328 0.930 . S
H320 C333 0.926 1_655 S
H321 C331 0.929 . S
H322 C326 0.929 1_554 S
H323 C332 0.929 . S
C324 H318 0.930 1_554 S
C324 C325 1.367 . S
C324 C332 1.378 1_554 S
C325 C324 1.367 . S
C325 C333 1.436 . S
C326 H322 0.929 1_556 S
C326 C328 1.378 . S
C326 C330 1.350 . S
C327 C330 1.463 . S
C327 C332 1.350 . S
C327 N335 1.427 1_556 S
C328 H319 0.930 . S
C328 C326 1.378 . S
C328 C329 1.367 . S
C329 C328 1.367 . S
C329 C331 1.433 . S
C330 C326 1.350 . S
C330 C327 1.463 . S
C330 N334 1.427 . S
C331 H321 0.929 . S
C331 C329 1.433 . S
C331 N334 1.384 . S
C332 H323 0.929 . S
C332 C324 1.378 1_556 S
C332 C327 1.350 . S
C333 H320 0.926 1_455 S
C333 C325 1.436 . S
C333 N335 1.386 . S
N334 C330 1.427 . S
N334 C331 1.384 . S
N335 C327 1.427 1_554 S
N335 C333 1.386 . S
H336 C342 0.930 . S
H337 C346 0.930 . S
H338 C351 0.929 . S
H339 C349 0.929 . S
H340 C344 0.929 . S
H341 C350 0.929 . S
C342 H336 0.930 . S
C342 C343 1.367 1_655 S
C342 C350 1.378 . S
C343 C342 1.367 1_455 S
C343 C351 1.433 . S
C344 H340 0.929 . S
C344 C346 1.378 . S
C344 C348 1.350 1_455 S
C345 C348 1.463 . S
C345 C350 1.350 . S
C345 N353 1.427 1_655 S
C346 H337 0.930 . S
C346 C344 1.378 . S
C346 C347 1.367 1_455 S
C347 C346 1.367 1_655 S
C347 C349 1.433 . S
C348 C344 1.350 1_655 S
C348 C345 1.463 . S
C348 N352 1.427 . S
C349 H339 0.929 . S
C349 C347 1.433 . S
C349 N352 1.384 . S
C350 H341 0.929 . S
C350 C342 1.378 . S
C350 C345 1.350 . S
C351 H338 0.929 . S
C351 C343 1.433 . S
C351 N353 1.384 . S
N352 C348 1.427 . S
N352 C349 1.384 . S
N353 C345 1.427 1_455 S
N353 C351 1.384 . S
H354 C360 0.930 . S
H355 C364 0.930 . S
H356 C369 0.929 . S
H357 C367 0.929 . S
H358 C362 0.929 . S
H359 C368 0.929 . S
C360 H354 0.930 . S
C360 C361 1.367 . S
C360 C368 1.378 . S
C361 C360 1.367 . S
C361 C369 1.433 . S
C362 H358 0.929 . S
C362 C364 1.378 . S
C362 C366 1.350 . S
C363 C366 1.463 . S
C363 C368 1.350 . S
C363 N371 1.427 . S
C364 H355 0.930 . S
C364 C362 1.378 . S
C364 C365 1.367 . S
C365 C364 1.367 . S
C365 C367 1.433 . S
C366 C362 1.350 . S
C366 C363 1.463 . S
C366 N370 1.427 . S
C367 H357 0.929 . S
C367 C365 1.433 . S
C367 N370 1.384 . S
C368 H359 0.929 . S
C368 C360 1.378 . S
C368 C363 1.350 . S
C369 H356 0.929 . S
C369 C361 1.433 . S
C369 N371 1.384 . S
N370 C366 1.427 . S
N370 C367 1.384 . S
N371 C363 1.427 . S
N371 C369 1.384 . S
H372 C378 0.930 . S
H373 C382 0.930 . S
H374 C387 0.929 . S
H375 C385 0.929 . S
H376 C380 0.929 . S
H377 C386 0.929 . S
C378 H372 0.930 . S
C378 C379 1.367 . S
C378 C386 1.378 . S
C379 C378 1.367 . S
C379 C387 1.433 . S
C380 H376 0.929 . S
C380 C382 1.378 . S
C380 C384 1.350 . S
C381 C384 1.463 . S
C381 C386 1.350 . S
C381 N389 1.427 . S
C382 H373 0.930 . S
C382 C380 1.378 . S
C382 C383 1.367 . S
C383 C382 1.367 . S
C383 C385 1.433 . S
C384 C380 1.350 . S
C384 C381 1.463 . S
C384 N388 1.427 . S
C385 H375 0.929 . S
C385 C383 1.433 . S
C385 N388 1.384 . S
C386 H377 0.929 . S
C386 C378 1.378 . S
C386 C381 1.350 . S
C387 H374 0.929 . S
C387 C379 1.433 . S
C387 N389 1.384 . S
N388 C384 1.427 . S
N388 C385 1.384 . S
N389 C381 1.427 . S
N389 C387 1.384 . S
H390 C396 0.930 . S
H391 C400 0.930 . S
H392 C405 0.929 . S
H393 C403 0.929 . S
H394 C398 0.929 . S
H395 C404 0.929 . S
C396 H390 0.930 . S
C396 C397 1.367 . S
C396 C404 1.378 . S
C397 C396 1.367 . S
C397 C405 1.433 . S
C398 H394 0.929 . S
C398 C400 1.378 . S
C398 C402 1.350 . S
C399 C402 1.463 . S
C399 C404 1.350 . S
C399 N407 1.427 . S
C400 H391 0.930 . S
C400 C398 1.378 . S
C400 C401 1.367 . S
C401 C400 1.367 . S
C401 C403 1.433 . S
C402 C398 1.350 . S
C402 C399 1.463 . S
C402 N406 1.427 . S
C403 H393 0.929 . S
C403 C401 1.433 . S
C403 N406 1.384 . S
C404 H395 0.929 . S
C404 C396 1.378 . S
C404 C399 1.350 . S
C405 H392 0.929 . S
C405 C397 1.433 . S
C405 N407 1.384 . S
N406 C402 1.427 . S
N406 C403 1.384 . S
N407 C399 1.427 . S
N407 C405 1.384 . S
H408 C414 0.930 . S
H409 C418 0.930 . S
H410 C423 0.929 . S
H411 C421 0.929 1_655 S
H412 C416 0.929 1_554 S
H413 C422 0.929 . S
C414 H408 0.930 . S
C414 C415 1.367 1_556 S
C414 C422 1.378 . S
C415 C414 1.367 1_554 S
C415 C423 1.433 1_655 S
C416 H412 0.929 1_556 S
C416 C418 1.378 . S
C416 C420 1.350 . S
C417 C420 1.463 . S
C417 C422 1.350 1_455 S
C417 N425 1.427 1_556 S
C418 H409 0.930 . S
C418 C416 1.378 . S
C418 C419 1.367 . S
C419 C418 1.367 . S
C419 C421 1.433 . S
C420 C416 1.350 . S
C420 C417 1.463 . S
C420 N424 1.416 1_455 S
C421 H411 0.929 1_455 S
C421 C419 1.433 . S
C421 N424 1.377 1_455 S
C422 H413 0.929 . S
C422 C414 1.378 . S
C422 C417 1.350 1_655 S
C423 H410 0.929 . S
C423 C415 1.433 1_455 S
C423 N425 1.384 . S
N424 C420 1.416 1_655 S
N424 C421 1.377 1_655 S
N425 C417 1.427 1_554 S
N425 C423 1.384 . S
H426 C432 0.930 . S
H427 C436 0.930 . S
H428 C441 0.929 . S
H429 C439 0.929 . S
H430 C434 0.929 . S
H431 C440 0.929 . S
C432 H426 0.930 . S
C432 C433 1.367 . S
C432 C440 1.378 1_554 S
C433 C432 1.367 . S
C433 C441 1.433 . S
C434 H430 0.929 . S
C434 C436 1.378 . S
C434 C438 1.350 1_545 S
C435 C438 1.463 . S
C435 C440 1.350 . S
C435 N443 1.427 . S
C436 H427 0.930 . S
C436 C434 1.378 . S
C436 C437 1.367 . S
C437 C436 1.367 . S
C437 C439 1.433 1_545 S
C438 C434 1.350 1_565 S
C438 C435 1.463 . S
C438 N442 1.427 . S
C439 H429 0.929 . S
C439 C437 1.433 1_565 S
C439 N442 1.384 . S
C440 H431 0.929 . S
C440 C432 1.378 1_556 S
C440 C435 1.350 . S
C441 H428 0.929 . S
C441 C433 1.433 . S
C441 N443 1.384 1_554 S
N442 C438 1.427 . S
N442 C439 1.384 . S
N443 C435 1.427 . S
N443 C441 1.384 1_556 S
H444 C450 0.930 . S
H445 C454 0.930 . S
H446 C459 0.929 . S
H447 C457 0.929 . S
H448 C452 0.929 1_554 S
H449 C458 0.929 . S
C450 H444 0.930 . S
C450 C451 1.367 1_556 S
C450 C458 1.378 . S
C451 C450 1.367 1_554 S
C451 C459 1.433 . S
C452 H448 0.929 1_556 S
C452 C454 1.378 . S
C452 C456 1.350 . S
C453 C456 1.463 . S
C453 C458 1.350 . S
C453 N461 1.427 1_556 S
C454 H445 0.930 . S
C454 C452 1.378 . S
C454 C455 1.367 . S
C455 C454 1.367 . S
C455 C457 1.433 . S
C456 C452 1.350 . S
C456 C453 1.463 . S
C456 N460 1.427 . S
C457 H447 0.929 . S
C457 C455 1.433 . S
C457 N460 1.384 . S
C458 H449 0.929 . S
C458 C450 1.378 . S
C458 C453 1.350 . S
C459 H446 0.929 . S
C459 C451 1.433 . S
C459 N461 1.384 . S
N460 C456 1.427 . S
N460 C457 1.384 . S
N461 C453 1.427 1_554 S
N461 C459 1.384 . S
H462 C468 0.930 1_556 S
H463 C472 0.930 . S
H464 C477 0.929 . S
H465 C475 0.929 . S
H466 C470 0.929 1_554 S
H467 C476 0.929 . S
C468 H462 0.930 1_554 S
C468 C469 1.367 . S
C468 C476 1.378 1_554 S
C469 C468 1.367 . S
C469 C477 1.433 . S
C470 H466 0.929 1_556 S
C470 C472 1.378 . S
C470 C474 1.350 . S
C471 C474 1.463 . S
C471 C476 1.350 . S
C471 N479 1.427 1_556 S
C472 H463 0.930 . S
C472 C470 1.378 . S
C472 C473 1.367 . S
C473 C472 1.367 . S
C473 C475 1.433 . S
C474 C470 1.350 . S
C474 C471 1.463 . S
C474 N478 1.427 . S
C475 H465 0.929 . S
C475 C473 1.433 . S
C475 N478 1.384 . S
C476 H467 0.929 . S
C476 C468 1.378 1_556 S
C476 C471 1.350 . S
C477 H464 0.929 . S
C477 C469 1.433 . S
C477 N479 1.384 . S
N478 C474 1.427 . S
N478 C475 1.384 . S
N479 C471 1.427 1_554 S
N479 C477 1.384 . S
H480 C486 0.930 . S
H481 C490 0.930 . S
H482 C495 0.929 . S
H483 C493 0.929 1_556 S
H484 C488 0.929 . S
H485 C494 0.929 . S
C486 H480 0.930 . S
C486 C487 1.349 1_655 S
C486 C494 1.378 . S
C487 C486 1.349 1_455 S
C487 C495 1.453 . S
C488 H484 0.929 . S
C488 C490 1.378 . S
C488 C492 1.350 . S
C489 C492 1.463 . S
C489 C494 1.350 1_455 S
C489 N497 1.427 . S
C490 H481 0.930 . S
C490 C488 1.378 . S
C490 C491 1.367 . S
C491 C490 1.367 . S
C491 C493 1.433 1_455 S
C492 C488 1.350 . S
C492 C489 1.463 . S
C492 N496 1.427 1_455 S
C493 H483 0.929 1_554 S
C493 C491 1.433 1_655 S
C493 N496 1.384 . S
C494 H485 0.929 . S
C494 C486 1.378 . S
C494 C489 1.350 1_655 S
C495 H482 0.929 . S
C495 C487 1.453 . S
C495 N497 1.384 . S
N496 C492 1.427 1_655 S
N496 C493 1.384 . S
N497 C489 1.427 . S
N497 C495 1.384 . S
H498 C504 0.930 . S
H499 C508 0.930 . S
H500 C513 0.929 . S
H501 C511 0.929 . S
H502 C506 0.929 . S
H503 C512 0.929 . S
C504 H498 0.930 . S
C504 C505 1.367 . S
C504 C512 1.378 . S
C505 C504 1.367 . S
C505 C513 1.433 . S
C506 H502 0.929 . S
C506 C508 1.378 . S
C506 C510 1.350 . S
C507 C510 1.463 . S
C507 C512 1.350 . S
C507 N515 1.427 . S
C508 H499 0.930 . S
C508 C506 1.378 . S
C508 C509 1.367 . S
C509 C508 1.367 . S
C509 C511 1.433 . S
C510 C506 1.350 . S
C510 C507 1.463 . S
C510 N514 1.427 . S
C511 H501 0.929 . S
C511 C509 1.433 . S
C511 N514 1.384 . S
C512 H503 0.929 . S
C512 C504 1.378 . S
C512 C507 1.350 . S
C513 H500 0.929 . S
C513 C505 1.433 . S
C513 N515 1.384 . S
N514 C510 1.427 . S
N514 C511 1.384 . S
N515 C507 1.427 . S
N515 C513 1.384 . S
H516 C522 0.930 . S
H517 C526 0.930 . S
H518 C531 0.929 . S
H519 C529 0.929 . S
H520 C524 0.929 . S
H521 C530 0.929 . S
C522 H516 0.930 . S
C522 C523 1.367 . S
C522 C530 1.378 . S
C523 C522 1.367 . S
C523 C531 1.433 . S
C524 H520 0.929 . S
C524 C526 1.378 1_554 S
C524 C528 1.350 . S
C525 C528 1.463 . S
C525 C530 1.350 . S
C525 N533 1.427 . S
C526 H517 0.930 . S
C526 C524 1.378 1_556 S
C526 C527 1.367 . S
C527 C526 1.367 . S
C527 C529 1.433 1_556 S
C528 C524 1.350 . S
C528 C525 1.463 . S
C528 N532 1.427 . S
C529 H519 0.929 . S
C529 C527 1.433 1_554 S
C529 N532 1.384 . S
C530 H521 0.929 . S
C530 C522 1.378 . S
C530 C525 1.350 . S
C531 H518 0.929 . S
C531 C523 1.433 . S
C531 N533 1.384 . S
N532 C528 1.427 . S
N532 C529 1.384 . S
N533 C525 1.427 . S
N533 C531 1.384 . S
H534 C540 0.930 . S
H535 C544 0.930 . S
H536 C549 0.929 . S
H537 C547 0.929 . S
H538 C542 0.929 . S
H539 C548 0.929 . S
C540 H534 0.930 . S
C540 C541 1.367 . S
C540 C548 1.378 . S
C541 C540 1.367 . S
C541 C549 1.433 . S
C542 H538 0.929 . S
C542 C544 1.378 . S
C542 C546 1.350 . S
C543 C546 1.463 . S
C543 C548 1.350 . S
C543 N551 1.427 . S
C544 H535 0.930 . S
C544 C542 1.378 . S
C544 C545 1.367 1_554 S
C545 C544 1.367 1_556 S
C545 C547 1.433 . S
C546 C542 1.350 . S
C546 C543 1.463 . S
C546 N550 1.427 . S
C547 H537 0.929 . S
C547 C545 1.433 . S
C547 N550 1.384 1_556 S
C548 H539 0.929 . S
C548 C540 1.378 . S
C548 C543 1.350 . S
C549 H536 0.929 . S
C549 C541 1.433 . S
C549 N551 1.384 . S
N550 C546 1.427 . S
N550 C547 1.384 1_554 S
N551 C543 1.427 . S
N551 C549 1.384 . S
H552 C558 0.930 . S
H553 C562 0.930 . S
H554 C567 0.929 . S
H555 C565 0.929 . S
H556 C560 0.929 . S
H557 C566 0.929 . S
C558 H552 0.930 . S
C558 C559 1.352 1_455 S
C558 C566 1.378 . S
C559 C558 1.352 1_655 S
C559 C567 1.450 . S
C560 H556 0.929 . S
C560 C562 1.378 . S
C560 C564 1.350 . S
C561 C564 1.463 . S
C561 C566 1.350 1_655 S
C561 N569 1.427 . S
C562 H553 0.930 . S
C562 C560 1.378 . S
C562 C563 1.367 . S
C563 C562 1.367 . S
C563 C565 1.433 1_655 S
C564 C560 1.350 . S
C564 C561 1.463 . S
C564 N568 1.427 1_655 S
C565 H555 0.929 . S
C565 C563 1.433 1_455 S
C565 N568 1.384 . S
C566 H557 0.929 . S
C566 C558 1.378 . S
C566 C561 1.350 1_455 S
C567 H554 0.929 . S
C567 C559 1.450 . S
C567 N569 1.384 . S
N568 C564 1.427 1_455 S
N568 C565 1.384 . S
N569 C561 1.427 . S
N569 C567 1.384 . S
H570 C576 0.930 . S
H571 C580 0.930 . S
H572 C585 0.929 . S
H573 C583 0.929 . S
H574 C578 0.929 . S
H575 C584 0.929 . S
C576 H570 0.930 . S
C576 C577 1.367 . S
C576 C584 1.378 . S
C577 C576 1.367 . S
C577 C585 1.433 . S
C578 H574 0.929 . S
C578 C580 1.378 . S
C578 C582 1.350 . S
C579 C582 1.463 . S
C579 C584 1.350 . S
C579 N587 1.427 . S
C580 H571 0.930 . S
C580 C578 1.378 . S
C580 C581 1.367 . S
C581 C580 1.367 . S
C581 C583 1.433 . S
C582 C578 1.350 . S
C582 C579 1.463 . S
C582 N586 1.427 . S
C583 H573 0.929 . S
C583 C581 1.433 . S
C583 N586 1.384 . S
C584 H575 0.929 . S
C584 C576 1.378 . S
C584 C579 1.350 . S
C585 H572 0.929 . S
C585 C577 1.433 . S
C585 N587 1.384 . S
N586 C582 1.427 . S
N586 C583 1.384 . S
N587 C579 1.427 . S
N587 C585 1.384 . S
H588 C594 0.930 . S
H589 C598 0.930 . S
H590 C603 0.929 . S
H591 C601 0.929 . S
H592 C596 0.929 . S
H593 C602 0.929 . S
C594 H588 0.930 . S
C594 C595 1.367 . S
C594 C602 1.378 . S
C595 C594 1.367 . S
C595 C603 1.433 . S
C596 H592 0.929 . S
C596 C598 1.378 . S
C596 C600 1.350 . S
C597 C600 1.463 . S
C597 C602 1.350 . S
C597 N605 1.427 . S
C598 H589 0.930 . S
C598 C596 1.378 . S
C598 C599 1.367 . S
C599 C598 1.367 . S
C599 C601 1.433 . S
C600 C596 1.350 . S
C600 C597 1.463 . S
C600 N604 1.427 . S
C601 H591 0.929 . S
C601 C599 1.433 . S
C601 N604 1.384 . S
C602 H593 0.929 . S
C602 C594 1.378 . S
C602 C597 1.350 . S
C603 H590 0.929 . S
C603 C595 1.433 . S
C603 N605 1.384 . S
N604 C600 1.427 . S
N604 C601 1.384 . S
N605 C597 1.427 . S
N605 C603 1.384 . S
H606 C612 0.930 . S
H607 C616 0.930 . S
H608 C621 0.929 . S
H609 C619 0.929 . S
H610 C614 0.929 . S
H611 C620 0.929 . S
C612 H606 0.930 . S
C612 C613 1.367 . S
C612 C620 1.378 . S
C613 C612 1.367 . S
C613 C621 1.433 . S
C614 H610 0.929 . S
C614 C616 1.378 . S
C614 C618 1.350 . S
C615 C618 1.463 . S
C615 C620 1.350 . S
C615 N623 1.427 . S
C616 H607 0.930 . S
C616 C614 1.378 . S
C616 C617 1.367 . S
C617 C616 1.367 . S
C617 C619 1.433 . S
C618 C614 1.350 . S
C618 C615 1.463 . S
C618 N622 1.427 . S
C619 H609 0.929 . S
C619 C617 1.433 . S
C619 N622 1.384 . S
C620 H611 0.929 . S
C620 C612 1.378 . S
C620 C615 1.350 . S
C621 H608 0.929 . S
C621 C613 1.433 . S
C621 N623 1.384 . S
N622 C618 1.427 . S
N622 C619 1.384 . S
N623 C615 1.427 . S
N623 C621 1.384 . S
C199 C61 1.676 . S
C203 C82 1.701 . S
C221 C112 1.710 . S
C217 C70 1.703 . S
C239 N146 1.476 . S
C235 C43 1.489 . S
C257 N176 1.235 . S
C253 C52 1.274 . S
C275 C73 1.708 1_565 S
C271 C25 1.692 . S
C289 C34 1.702 . S
C293 C103 1.711 . S
C307 C7 1.485 . S
C311 N138 1.470 . S
C325 C16 1.271 1_455 S
C329 N168 1.236 . S
C347 C88 0.295 . S
C343 C50 0.317 1_455 S
C365 C118 0.567 . S
C361 C59 0.609 . S
C383 C159 0.774 . S
C379 C67 0.781 . S
C397 C41 0.559 . S
C401 C189 0.536 . S
C415 C14 0.333 . S
C419 C99 0.320 . S
C437 C129 0.582 . S
C433 C23 0.614 . S
C455 C148 0.783 . S
C451 C31 0.782 . S
C469 C5 0.591 . S
C473 C178 0.575 . S
C487 C49 1.355 1_455 S
C491 N78 1.345 . S
C505 C58 1.457 . S
C509 N108 1.461 . S
C527 C133 1.656 . S
C523 C68 1.611 . S
C545 C163 1.768 . S
C541 C40 1.706 . S
C559 C13 1.355 . S
C563 N86 1.345 . S
C581 N116 1.461 . S
C577 C22 1.469 . S
C599 C142 1.656 . S
C595 C32 1.618 . S
C613 C4 1.710 . S
C617 C172 1.771 . S
