# Generated by pormake.
# Topology pth, (4,4)-cn, num edge types: 1
# Building blocks:
#     Node 0, Type 0, BuildingBlock: AZAVOO_clean_sbu_0, # of connection points: 4
#     Node 1, Type 0, BuildingBlock: AZAVOO_clean_sbu_0, # of connection points: 4
#     Node 2, Type 0, BuildingBlock: AZAVOO_clean_sbu_0, # of connection points: 4
#     Node 3, Type 1, BuildingBlock: AZAVOO_clean_linker_0, # of connection points: 4
#     Node 4, Type 1, BuildingBlock: AZAVOO_clean_linker_0, # of connection points: 4
#     Node 5, Type 1, BuildingBlock: AZAVOO_clean_linker_0, # of connection points: 4
#     Edge 6, Type (0, 1), BuildingBlock: XIVTED_clean_linker_0, # of connection points: 2
#     Edge 7, Type (0, 1), BuildingBlock: XIVTED_clean_linker_0, # of connection points: 2
#     Edge 8, Type (0, 1), BuildingBlock: XIVTED_clean_linker_0, # of connection points: 2
#     Edge 9, Type (0, 1), BuildingBlock: XIVTED_clean_linker_0, # of connection points: 2
#     Edge 10, Type (0, 1), BuildingBlock: XIVTED_clean_linker_0, # of connection points: 2
#     Edge 11, Type (0, 1), BuildingBlock: XIVTED_clean_linker_0, # of connection points: 2
#     Edge 12, Type (0, 1), BuildingBlock: XIVTED_clean_linker_0, # of connection points: 2
#     Edge 13, Type (0, 1), BuildingBlock: XIVTED_clean_linker_0, # of connection points: 2
#     Edge 14, Type (0, 1), BuildingBlock: XIVTED_clean_linker_0, # of connection points: 2
#     Edge 15, Type (0, 1), BuildingBlock: XIVTED_clean_linker_0, # of connection points: 2
#     Edge 16, Type (0, 1), BuildingBlock: XIVTED_clean_linker_0, # of connection points: 2
#     Edge 17, Type (0, 1), BuildingBlock: XIVTED_clean_linker_0, # of connection points: 2
# Relax obj value: 0.174
# Max RMSD: 0.231
# Mean RMSD: 0.224
data_MOF--net-pth--node1-AZAVOO_clean_sbu_0--node2-AZAVOO_clean_linker_0--edge1-XIVTED_clean_linker_0
_symmetry_space_group_name_H-M    P1
_symmetry_Int_Tables_number       1
_symmetry_cell_setting            triclinic
loop_
_symmetry_equiv_pos_as_xyz
'x, y, z'
_cell_length_a     26.090663
_cell_length_b     26.881298
_cell_length_c     70.507502
_cell_angle_alpha  92.367453
_cell_angle_beta   92.052361
_cell_angle_gamma 122.1073
loop_
_atom_site_label
_atom_site_type_symbol
_atom_site_fract_x
_atom_site_fract_y
_atom_site_fract_z
_atom_type_partial_charge
Mg0 Mg 0.1825 0.13249 0.08454 0.0
O1 O 0.10473 0.08121 0.06148 0.0
O2 O 0.10065 0.14628 0.04366 0.0
Mg3 Mg 0.17197 0.23822 0.0565 0.0
C4 C 0.08181 0.09344 0.04749 0.0
C5 C 0.12918 0.00055 0.09321 0.0
O6 O 0.13371 0.9939 0.07491 0.0
O7 O 0.12394 0.15482 0.10061 0.0
O8 O 0.11818 0.21965 0.0834 0.0
O9 O 0.24621 0.1309 0.06505 0.0
O10 O 0.22416 0.20012 0.06669 0.0
C11 C 0.10454 0.1886 0.09779 0.0
C12 C 0.24976 0.17641 0.0581 0.0
O13 O 0.14682 0.05124 0.10079 0.0
Mg14 Mg 0.92329 0.98298 0.39651 0.0
O15 O 0.01012 0.02769 0.41597 0.0
O16 O 0.02222 0.10735 0.43177 0.0
Mg17 Mg 0.94469 0.11656 0.42088 0.0
C18 C 0.0396 0.07197 0.42802 0.0
C19 C 0.95948 0.88936 0.39143 0.0
O20 O 0.94492 0.88134 0.40917 0.0
O21 O 0.97098 0.0527 0.37523 0.0
O22 O 0.98332 0.13177 0.39169 0.0
O23 O 0.87127 0.93495 0.42121 0.0
O24 O 0.88846 0.02114 0.41343 0.0
C25 C 0.99053 0.10755 0.37694 0.0
C26 C 0.86784 0.98053 0.42518 0.0
O27 O 0.95406 0.92663 0.38252 0.0
Mg28 Mg 0.06213 0.09324 0.74818 0.0
O29 O 0.13203 0.1868 0.75966 0.0
O30 O 0.08742 0.22414 0.77621 0.0
Mg31 Mg 0.987 0.15082 0.77593 0.0
C32 C 0.13444 0.22897 0.76943 0.0
C33 C 0.13515 0.05418 0.72481 0.0
O34 O 0.09509 0.00329 0.73113 0.0
O35 O 0.0238 0.12574 0.72613 0.0
O36 O 0.97498 0.15681 0.7437 0.0
O37 O 0.07739 0.05878 0.77421 0.0
O38 O 0.00792 0.08178 0.77056 0.0
C39 C 0.99054 0.14714 0.72765 0.0
C40 C 0.0346 0.06318 0.78122 0.0
O41 O 0.13194 0.09887 0.72883 0.0
H42 H 0.86319 0.40672 0.11694 0.0
H43 H 0.1444 0.90531 0.27817 0.0
H44 H 0.88096 0.38305 0.21594 0.0
H45 H 0.86712 0.29892 0.19621 0.0
H46 H 0.05358 0.35562 0.21065 0.0
H47 H 0.06764 0.44028 0.22969 0.0
H48 H 0.88774 0.49024 0.19669 0.0
H49 H 0.86175 0.45528 0.16305 0.0
H50 H 0.03016 0.46108 0.16026 0.0
H51 H 0.05605 0.49702 0.19379 0.0
H52 H 0.92786 0.6121 0.21919 0.0
H53 H 0.93418 0.67826 0.1951 0.0
H54 H 0.09432 0.68861 0.17534 0.0
H55 H 0.0877 0.62291 0.19938 0.0
H56 H 0.94662 0.61534 0.26504 0.0
H57 H 0.97315 0.71181 0.27884 0.0
H58 H 0.14516 0.79231 0.25308 0.0
H59 H 0.11846 0.69538 0.23965 0.0
H60 H 0.93931 0.51179 0.28506 0.0
H61 H 0.95201 0.56495 0.31552 0.0
H62 H 0.14005 0.68882 0.30587 0.0
H63 H 0.12664 0.63537 0.2753 0.0
H64 H 0.91793 0.38896 0.26227 0.0
H65 H 0.93306 0.32173 0.28051 0.0
H66 H 0.12612 0.44998 0.28601 0.0
H67 H 0.11038 0.51704 0.26791 0.0
O68 O 0.87478 0.42145 0.13016 0.0
O69 O 0.96135 0.42407 0.1296 0.0
O70 O 0.04392 0.82298 0.28592 0.0
O71 O 0.13232 0.86678 0.27261 0.0
C72 C 0.98845 0.47629 0.23136 0.0
C73 C 0.98794 0.51461 0.21834 0.0
C74 C 0.00276 0.5713 0.22485 0.0
C75 C 0.01649 0.58924 0.24439 0.0
C76 C 0.0183 0.5513 0.25737 0.0
C77 C 0.00522 0.49526 0.2508 0.0
C78 C 0.97545 0.41793 0.22407 0.0
C79 C 0.91818 0.37613 0.21529 0.0
C80 C 0.91033 0.32829 0.20406 0.0
C81 C 0.95935 0.32113 0.20188 0.0
C82 C 0.01485 0.35977 0.21227 0.0
C83 C 0.02299 0.40815 0.22318 0.0
C84 C 0.97358 0.49586 0.19768 0.0
C85 C 0.91913 0.48438 0.18874 0.0
C86 C 0.90434 0.46421 0.16954 0.0
C87 C 0.94377 0.45514 0.15899 0.0
C88 C -0.00129 0.46745 0.16798 0.0
C89 C 0.01357 0.4879 0.18713 0.0
C90 C 0.00727 0.61284 0.21093 0.0
C91 C 0.96437 0.62903 0.20969 0.0
C92 C 0.968 0.66659 0.19596 0.0
C93 C 0.01437 0.68797 0.18325 0.0
C94 C 0.05743 0.67185 0.18469 0.0
C95 C 0.05401 0.63477 0.19846 0.0
C96 C 0.03059 0.64845 0.25134 0.0
C97 C 0.98984 0.65393 0.26231 0.0
C98 C 0.00515 0.70906 0.27019 0.0
C99 C 0.06137 0.75979 0.26709 0.0
C100 C 0.10155 0.75417 0.25576 0.0
C101 C 0.0863 0.69894 0.24797 0.0
C102 C 0.03176 0.57042 0.2779 0.0
C103 C 0.9839 0.54881 0.28993 0.0
C104 C 0.99132 0.57932 0.30734 0.0
C105 C 0.04675 0.63178 0.31288 0.0
C106 C 0.09657 0.6491 0.30179 0.0
C107 C 0.08913 0.61847 0.28441 0.0
C108 C 0.01302 0.45782 0.26389 0.0
C109 C 0.96332 0.40267 0.26764 0.0
C110 C 0.97218 0.36416 0.27782 0.0
C111 C 0.0309 0.38034 0.28445 0.0
C112 C 0.08037 0.43642 0.28115 0.0
C113 C 0.07145 0.47485 0.27093 0.0
C114 C 0.92743 0.43268 0.1387 0.0
C115 C 0.07841 0.81829 0.27578 0.0
H116 H 0.57861 0.03994 0.44518 0.0
H117 H 0.24228 0.17145 0.59021 0.0
H118 H 0.5671 -0.00071 0.54888 0.0
H119 H 0.6382 0.98016 0.53397 0.0
H120 H 0.78357 0.15996 0.54942 0.0
H121 H 0.71098 0.17898 0.56398 0.0
H122 H 0.48634 0.0152 0.52085 0.0
H123 H 0.50978 0.00924 0.48785 0.0
H124 H 0.67052 0.18423 0.49677 0.0
H125 H 0.64606 0.18986 0.52967 0.0
H126 H 0.38957 0.0192 0.5405 0.0
H127 H 0.31953 0.01662 0.51589 0.0
H128 H 0.45258 0.19659 0.50502 0.0
H129 H 0.52242 0.19878 0.52984 0.0
H130 H 0.38546 0.02694 0.58545 0.0
H131 H 0.2965 0.02967 0.59352 0.0
H132 H 0.38204 0.20679 0.57533 0.0
H133 H 0.47108 0.20375 0.56759 0.0
H134 H 0.4918 0.0258 0.60987 0.0
H135 H 0.44344 0.01578 0.63972 0.0
H136 H 0.47519 0.19024 0.6362 0.0
H137 H 0.52633 0.20085 0.60703 0.0
H138 H 0.60482 0.02774 0.59035 0.0
H139 H 0.68349 0.04003 0.61307 0.0
H140 H 0.71963 0.21169 0.63227 0.0
H141 H 0.64586 0.20145 0.60781 0.0
O142 O 0.56989 0.04343 0.45821 0.0
O143 O 0.65223 0.13333 0.46359 0.0
O144 O 0.23512 0.07825 0.59646 0.0
O145 O 0.27689 0.16918 0.58714 0.0
C146 C 0.58783 0.10383 0.56246 0.0
C147 C 0.55105 0.10614 0.54777 0.0
C148 C 0.50163 0.11082 0.55229 0.0
C149 C 0.48911 0.11374 0.57145 0.0
C150 C 0.52754 0.11399 0.5862 0.0
C151 C 0.57752 0.10979 0.58172 0.0
C152 C 0.63395 0.09065 0.55722 0.0
C153 C 0.61463 0.03409 0.54946 0.0
C154 C 0.65552 0.02313 0.54112 0.0
C155 C 0.71651 0.06869 0.54039 0.0
C156 C 0.73668 0.1242 0.54959 0.0
C157 C 0.69552 0.13515 0.55794 0.0
C158 C 0.56429 0.1031 0.52758 0.0
C159 C 0.52624 0.05239 0.51558 0.0
C160 C 0.53991 0.04902 0.49677 0.0
C161 C 0.59204 0.09627 0.48966 0.0
C162 C 0.63 0.14707 0.50177 0.0
C163 C 0.61616 0.15043 0.52056 0.0
C164 C 0.46069 0.10921 0.53691 0.0
C165 C 0.40358 0.05789 0.53272 0.0
C166 C 0.36395 0.05641 0.5186 0.0
C167 C 0.3808 0.10639 0.50853 0.0
C168 C 0.43842 0.15763 0.51266 0.0
C169 C 0.47828 0.15891 0.52672 0.0
C170 C 0.4347 0.11519 0.57599 0.0
C171 C 0.38491 0.06631 0.58327 0.0
C172 C 0.33415 0.06797 0.58783 0.0
C173 C 0.33217 0.11849 0.58507 0.0
C174 C 0.38207 0.16722 0.57764 0.0
C175 C 0.43291 0.16558 0.57316 0.0
C176 C 0.51175 0.11373 0.60619 0.0
C177 C 0.49021 0.0626 0.61596 0.0
C178 C 0.4619 0.05669 0.63287 0.0
C179 C 0.45417 0.10165 0.64016 0.0
C180 C 0.48052 0.15479 0.63112 0.0
C181 C 0.5095 0.1609 0.61436 0.0
C182 C 0.62041 0.11417 0.5971 0.0
C183 C 0.63049 0.06838 0.59926 0.0
C184 C 0.67502 0.07523 0.61258 0.0
C185 C 0.70882 0.12718 0.62462 0.0
C186 C 0.69627 0.17179 0.62297 0.0
C187 C 0.65319 0.16565 0.60918 0.0
C188 C 0.60672 0.09236 0.46973 0.0
C189 C 0.27839 0.12052 0.58992 0.0
H190 H 0.5906 0.54201 0.03088 0.0
H191 H 0.33547 0.29121 0.82037 0.0
H192 H 0.63269 0.70211 0.93695 0.0
H193 H 0.70645 0.78309 0.95967 0.0
H194 H 0.8373 0.735 0.94956 0.0
H195 H 0.76246 0.65237 0.92754 0.0
H196 H 0.54124 0.57883 0.95284 0.0
H197 H 0.54879 0.56665 0.98684 0.0
H198 H 0.68983 0.53137 0.97745 0.0
H199 H 0.68144 0.54336 0.94344 0.0
H200 H 0.44869 0.48968 0.92601 0.0
H201 H 0.38564 0.40598 0.94454 0.0
H202 H 0.50945 0.34666 0.93783 0.0
H203 H 0.57314 0.43193 0.91961 0.0
H204 H 0.43496 0.50486 0.88973 0.0
H205 H 0.35328 0.4318 0.8671 0.0
H206 H 0.47116 0.37557 0.84763 0.0
H207 H 0.55237 0.44878 0.87039 0.0
H208 H 0.51554 0.61548 0.87358 0.0
H209 H 0.46117 0.58426 0.84264 0.0
H210 H 0.58683 0.53794 0.82291 0.0
H211 H 0.6385 0.56601 0.8547 0.0
H212 H 0.63188 0.71719 0.88335 0.0
H213 H 0.71017 0.803 0.86824 0.0
H214 H 0.83678 0.7489 0.88031 0.0
H215 H 0.75662 0.66077 0.89341 0.0
O216 O 0.58839 0.54665 0.01739 0.0
O217 O 0.66089 0.52903 0.01184 0.0
O218 O 0.30892 0.35223 0.83959 0.0
O219 O 0.36627 0.31905 0.82989 0.0
C220 C 0.64703 0.62219 0.91748 0.0
C221 C 0.60548 0.56875 0.92516 0.0
C222 C 0.55797 0.52232 0.91334 0.0
C223 C 0.55047 0.53001 0.89407 0.0
C224 C 0.59182 0.5839 0.8864 0.0
C225 C 0.64127 0.62934 0.89794 0.0
C226 C 0.69289 0.67238 0.93038 0.0
C227 C 0.67737 0.70928 0.93961 0.0
C228 C 0.71915 0.75507 0.95257 0.0
C229 C 0.77719 0.76496 0.95613 0.0
C230 C 0.7928 0.72818 0.94681 0.0
C231 C 0.75047 0.68149 0.93421 0.0
C232 C 0.61076 0.56189 0.94576 0.0
C233 C 0.57365 0.5684 0.95818 0.0
C234 C 0.57811 0.56146 0.97758 0.0
C235 C 0.61991 0.54801 0.98487 0.0
C236 C 0.65717 0.54171 0.97231 0.0
C237 C 0.65257 0.54859 0.95291 0.0
C238 C 0.51509 0.46644 0.92151 0.0
C239 C 0.46119 0.45768 0.92813 0.0
C240 C 0.42518 0.40966 0.93864 0.0
C241 C 0.4426 0.36963 0.94268 0.0
C242 C 0.4952 0.37705 0.93512 0.0
C243 C 0.53133 0.42532 0.92463 0.0
C244 C 0.49928 0.48169 0.88176 0.0
C245 C 0.44264 0.47602 0.88078 0.0
C246 C 0.39626 0.43455 0.86775 0.0
C247 C 0.40574 0.39789 0.85552 0.0
C248 C 0.4623 0.403 0.85685 0.0
C249 C 0.50866 0.44455 0.86988 0.0
C250 C 0.57999 0.5918 0.86643 0.0
C251 C 0.53306 0.60123 0.8623 0.0
C252 C 0.50188 0.58315 0.84444 0.0
C253 C 0.51798 0.55623 0.83031 0.0
C254 C 0.57158 0.5562 0.83366 0.0
C255 C 0.60202 0.57325 0.85172 0.0
C256 C 0.68868 0.6829 0.88949 0.0
C257 C 0.67648 0.72388 0.88253 0.0
C258 C 0.72167 0.77338 0.87416 0.0
C259 C 0.78016 0.7832 0.87297 0.0
C260 C 0.79221 0.74251 0.88052 0.0
C261 C 0.74665 0.69241 0.88833 0.0
C262 C 0.62448 0.54062 0.00549 0.0
C263 C 0.35723 0.35504 0.84125 0.0
H264 H 0.07624 0.13833 0.13189 0.0
H265 H 0.91987 0.31088 0.16491 0.0
H266 H 0.04633 0.24869 0.09622 0.0
H267 H -0.00364 0.24323 0.20361 0.0
H268 H 0.93915 0.26363 0.13818 0.0
H269 H 0.02196 0.15365 0.15658 0.0
C270 C 0.05783 0.16538 0.12915 0.0
C271 C 0.0669 0.19323 0.11206 0.0
C272 C 0.9505 0.25806 0.15253 0.0
C273 C 0.00438 0.21047 0.14027 0.0
C274 C 0.9389 0.28441 0.1678 0.0
C275 C 0.95693 0.28106 0.18645 0.0
C276 C 0.98025 0.22823 0.15599 0.0
C277 C 0.98237 0.24716 0.1894 0.0
C278 C 0.02677 0.17398 0.14326 0.0
C279 C 0.0413 0.22715 0.10927 0.0
N280 N -0.00604 0.22255 0.17429 0.0
N281 N 0.01163 0.23525 0.12333 0.0
H282 H 0.84673 0.9194 0.45751 0.0
H283 H 0.79209 0.14629 0.51586 0.0
H284 H 0.84398 0.06454 0.4346 0.0
H285 H 0.72679 0.97235 0.53434 0.0
H286 H 0.83669 0.1255 0.48948 0.0
H287 H 0.82097 0.94388 0.48839 0.0
C288 C 0.84072 0.95623 0.45895 0.0
C289 C 0.8483 0.9905 0.44355 0.0
C290 C 0.81326 0.09206 0.49944 0.0
C291 C 0.82054 0.01921 0.4786 0.0
C292 C 0.78853 0.10424 0.51471 0.0
C293 C 0.7551 0.06078 0.52725 0.0
C294 C 0.80432 0.03593 0.49655 0.0
C295 C 0.75131 0.0067 0.52477 0.0
C296 C 0.82647 0.97032 0.47654 0.0
C297 C 0.83999 0.03768 0.44615 0.0
N298 N 0.77497 -0.0046 0.50951 0.0
N299 N 0.82692 0.05075 0.46332 0.0
H300 H 0.94658 0.06672 0.80026 0.0
H301 H 0.8681 0.78684 0.85172 0.0
H302 H 0.06827 0.00406 0.80383 0.0
H303 H 0.80028 0.89478 0.87101 0.0
H304 H 0.94187 0.86716 0.83424 0.0
H305 H 0.89334 0.00758 0.8266 0.0
C306 C 0.96298 0.04163 0.80685 0.0
C307 C 0.01127 0.03948 0.79963 0.0
C308 C 0.91143 0.87362 0.84252 0.0
C309 C 0.95001 0.97117 0.82941 0.0
C310 C 0.86921 0.82769 0.85265 0.0
C311 C 0.82749 0.83363 0.863 0.0
C312 C 0.9113 0.92564 0.84225 0.0
C313 C 0.83053 0.88749 0.86297 0.0
C314 C 0.93255 0.00791 0.82187 0.0
C315 C 0.0308 0.00647 0.80878 0.0
N316 N 0.87116 0.93117 0.85252 0.0
N317 N -0.00072 0.97262 0.82294 0.0
H318 H 0.1017 0.88851 0.08374 0.0
H319 H 0.00328 0.7831 0.18804 0.0
H320 H 0.09786 -0.00269 0.12978 0.0
H321 H 0.03739 0.68512 0.14582 0.0
H322 H 0.02173 0.8551 0.16491 0.0
H323 H 0.06342 0.80702 0.10459 0.0
C324 C 0.09255 0.89516 0.09818 0.0
C325 C 0.10365 0.94991 0.10512 0.0
C326 C 0.02478 0.81763 0.16065 0.0
C327 C 0.05969 0.85718 0.12891 0.0
C328 C 0.01383 0.77636 0.17381 0.0
C329 C 0.01945 0.72853 0.16886 0.0
C330 C 0.04138 0.81092 0.14243 0.0
C331 C 0.0337 0.72206 0.15028 0.0
C332 C 0.07074 0.84871 0.11005 0.0
C333 C 0.09068 0.95607 0.1239 0.0
N334 N 0.04457 0.76305 0.13775 0.0
N335 N 0.0696 0.91034 0.13515 0.0
H336 H 0.11896 0.16408 0.45331 0.0
H337 H 0.30928 0.02019 0.48072 0.0
H338 H 0.0866 0.00202 0.42603 0.0
H339 H 0.35262 0.18992 0.5043 0.0
H340 H 0.23041 0.01506 0.45943 0.0
H341 H 0.20752 0.17664 0.47109 0.0
C342 C 0.13054 0.13123 0.451 0.0
C343 C 0.09495 0.08168 0.43825 0.0
C344 C 0.25747 0.05368 0.46914 0.0
C345 C 0.1963 0.09583 0.45858 0.0
C346 C 0.30229 0.05649 0.48133 0.0
C347 C 0.33711 0.10535 0.49435 0.0
C348 C 0.24705 0.09985 0.47011 0.0
C349 C 0.32693 0.15161 0.49439 0.0
C350 C 0.18124 0.13853 0.46113 0.0
C351 C 0.11247 0.04079 0.43576 0.0
N352 N 0.28239 0.14748 0.48257 0.0
N353 N 0.16167 0.04861 0.44593 0.0
H354 H 0.15902 0.33627 0.78418 0.0
H355 H 0.49664 0.45182 0.81391 0.0
H356 H 0.24637 0.24694 0.76449 0.0
H357 H 0.43333 0.57104 0.81082 0.0
H358 H 0.40791 0.37863 0.79429 0.0
H359 H 0.25895 0.42369 0.79358 0.0
C360 C 0.19913 0.33517 0.78168 0.0
C361 C 0.19424 0.28395 0.77373 0.0
C362 C 0.41395 0.42121 0.79761 0.0
C363 C 0.30843 0.38358 0.78449 0.0
C364 C 0.46533 0.46372 0.8087 0.0
C365 C 0.47264 0.518 0.81445 0.0
C366 C 0.36852 0.43213 0.7926 0.0
C367 C 0.42896 0.52931 0.80736 0.0
C368 C 0.25613 0.38519 0.78693 0.0
C369 C 0.24784 0.28525 0.77067 0.0
N370 N 0.37801 0.48621 0.7972 0.0
N371 N 0.30263 0.33393 0.77632 0.0
H372 H 0.95726 0.08009 0.69423 0.0
H373 H 0.81433 0.23019 0.63831 0.0
H374 H 0.95727 0.22651 0.72178 0.0
H375 H 0.7144 0.04185 0.6434 0.0
H376 H 0.89055 0.24112 0.66219 0.0
H377 H 0.89364 0.07891 0.66756 0.0
C378 C 0.94519 0.11293 0.69444 0.0
C379 C 0.96212 0.1533 0.71023 0.0
C380 C 0.85192 0.19759 0.65784 0.0
C381 C 0.89043 0.15237 0.67985 0.0
C382 C 0.80788 0.19108 0.64438 0.0
C383 C 0.75695 0.13485 0.63874 0.0
C384 C 0.84612 0.14753 0.66526 0.0
C385 C 0.75297 0.08599 0.64681 0.0
C386 C 0.90865 0.11186 0.67933 0.0
C387 C 0.94471 0.1945 0.70988 0.0
N388 N 0.79715 0.09347 0.65956 0.0
N389 N 0.90964 0.19304 0.69487 0.0
H390 H 0.00098 0.97975 0.05564 0.0
H391 H 0.88555 0.86028 0.94852 0.0
H392 H 0.05479 0.09659 0.01005 0.0
H393 H 0.76868 0.77933 -0.00593 0.0
H394 H 0.95881 0.94167 0.97117 0.0
H395 H 0.92455 0.89908 0.03343 0.0
C396 C -0.00342 0.9884 0.04099 0.0
C397 C 0.03399 0.04485 0.03465 0.0
C398 C 0.91705 0.9061 0.97617 0.0
C399 C 0.94807 0.95309 0.0093 0.0
C400 C 0.87565 0.85982 0.96333 0.0
C401 C 0.82147 0.81366 0.96959 0.0
C402 C 0.90453 0.90521 -0.00461 0.0
C403 C 0.81012 0.8146 0.98883 0.0
C404 C 0.95299 0.94255 0.0284 0.0
C405 C 0.02651 0.05381 0.01554 0.0
N406 N 0.8517 0.85957 0.00117 0.0
N407 N 0.98479 0.0082 0.00347 0.0
H408 H 0.01577 0.91147 0.35821 0.0
H409 H -0.00095 0.60797 0.34799 0.0
H410 H 0.95467 0.79048 0.40268 0.0
H411 H 0.09661 0.74963 0.31135 0.0
H412 H 0.9864 0.67462 0.36928 0.0
H413 H 0.04866 0.85312 0.34156 0.0
C414 C 0.00938 0.87262 0.3645 0.0
C415 C 0.98189 0.85547 0.38176 0.0
C416 C 0.01156 0.6913 0.35676 0.0
C417 C 0.01942 0.7882 0.36272 0.0
C418 C 0.01875 0.65332 0.34463 0.0
C419 C 0.04884 0.67323 0.32787 0.0
C420 C 0.03383 0.74921 0.35192 0.0
C421 C 0.07371 0.73247 0.32421 0.0
C422 C 0.02852 0.83946 0.35504 0.0
C423 C 0.97543 0.80509 0.38935 0.0
N424 N 0.06493 0.76806 0.33599 0.0
N425 N 0.99345 0.77277 0.37966 0.0
H426 H 0.2381 0.15584 0.71665 0.0
H427 H 0.34726 -0.00039 0.64589 0.0
H428 H 0.1463 0.9667 0.70823 0.0
H429 H 0.46522 0.17921 0.6692 0.0
H430 H 0.27289 0.98613 0.66835 0.0
H431 H 0.32035 0.16556 0.69843 0.0
C432 C 0.2352 0.11631 0.71094 0.0
C433 C 0.18509 0.06033 0.71385 0.0
C434 C 0.31539 0.02824 0.66871 0.0
C435 C 0.27914 0.07123 0.693 0.0
C436 C 0.35828 0.03592 0.65599 0.0
C437 C 0.41276 0.09081 0.65556 0.0
C438 C 0.32652 0.07596 0.68092 0.0
C439 C 0.42348 0.13648 0.66875 0.0
C440 C 0.2824 0.12192 0.70066 0.0
C441 C 0.18404 0.01068 0.70628 0.0
N442 N 0.38043 0.12823 0.68074 0.0
N443 N 0.23018 0.01729 0.69605 0.0
H444 H 0.34681 0.17754 0.04444 0.0
H445 H 0.31989 0.30178 0.94612 0.0
H446 H 0.21079 0.21675 0.02971 0.0
H447 H 0.49049 0.33643 0.97102 0.0
H448 H 0.26917 0.24399 0.97291 0.0
H449 H 0.39063 0.21168 0.01377 0.0
C450 C 0.32621 0.19326 0.03475 0.0
C451 C 0.27613 0.19587 0.03976 0.0
C452 C 0.31759 0.26361 0.97231 0.0
C453 C 0.32445 0.23298 0.00477 0.0
C454 C 0.34655 0.2966 0.95707 0.0
C455 C 0.40968 0.32489 0.9565 0.0
C456 C 0.35191 0.25855 0.987 0.0
C457 C 0.44174 0.31537 0.97084 0.0
C458 C 0.35104 0.21251 0.01732 0.0
C459 C 0.25049 0.2158 0.0267 0.0
N460 N 0.41256 0.28349 0.98566 0.0
N461 N 0.27493 0.2336 0.00978 0.0
H462 H 0.08044 0.2228 0.3789 0.0
H463 H 0.97783 0.26158 0.27667 0.0
H464 H 0.96068 0.07651 0.33884 0.0
H465 H 0.10534 0.40537 0.31642 0.0
H466 H 0.98508 0.19292 0.29657 0.0
H467 H 0.10672 0.28943 0.35352 0.0
C468 C 0.06067 0.20466 0.36461 0.0
C469 C 0.01757 0.14442 0.36095 0.0
C470 C 0.01218 0.23957 0.30079 0.0
C471 C 0.04596 0.22042 0.33194 0.0
C472 C 0.00764 0.2787 0.28953 0.0
C473 C 0.04012 0.33911 0.29512 0.0
C474 C 0.04907 0.26102 0.31782 0.0
C475 C 0.07933 0.35915 0.3116 0.0
C476 C 0.07554 0.24269 0.35011 0.0
C477 C -0.00617 0.12287 0.34221 0.0
N478 N 0.08204 0.3201 0.3225 0.0
N479 N 0.00727 0.16113 0.32842 0.0
loop_
_geom_bond_atom_site_label_1
_geom_bond_atom_site_label_2
_geom_bond_distance
_geom_bond_site_symmetry_2
_ccdc_geom_bond_type
Mg0 O1 2.028 . S
Mg0 O7 1.986 . S
Mg0 O9 2.114 . S
Mg0 O10 2.251 . S
Mg0 O13 2.010 . S
O1 Mg0 2.028 . S
O1 C4 1.250 . S
O2 Mg3 2.028 . S
O2 C4 1.248 . S
Mg3 O2 2.028 . S
Mg3 O8 2.032 . S
Mg3 O10 2.079 . S
C4 O1 1.250 . S
C4 O2 1.248 . S
C5 O6 1.264 . S
C5 O13 1.249 . S
O6 C5 1.264 . S
O7 Mg0 1.986 . S
O7 C11 1.246 . S
O8 Mg3 2.032 . S
O8 C11 1.259 . S
O9 Mg0 2.114 . S
O9 C12 1.252 . S
O10 Mg0 2.251 . S
O10 Mg3 2.079 . S
O10 C12 1.273 . S
C11 O7 1.246 . S
C11 O8 1.259 . S
C12 O9 1.252 . S
C12 O10 1.273 . S
O13 Mg0 2.010 . S
O13 C5 1.249 . S
Mg14 O15 2.028 1_655 S
Mg14 O21 1.986 1_655 S
Mg14 O23 2.114 1_545 S
Mg14 O24 2.251 . S
Mg14 O27 2.010 1_545 S
O15 Mg14 2.028 1_455 S
O15 C18 1.250 . S
O16 Mg17 2.028 . S
O16 C18 1.248 . S
Mg17 O16 2.028 . S
Mg17 O22 2.032 . S
Mg17 O24 2.079 1_455 S
C18 O15 1.250 . S
C18 O16 1.248 . S
C19 O20 1.264 . S
C19 O27 1.249 . S
O20 C19 1.264 . S
O21 Mg14 1.986 1_455 S
O21 C25 1.246 . S
O22 Mg17 2.032 . S
O22 C25 1.259 . S
O23 Mg14 2.114 1_565 S
O23 C26 1.252 . S
O24 Mg14 2.251 . S
O24 Mg17 2.079 1_655 S
O24 C26 1.273 1_545 S
C25 O21 1.246 . S
C25 O22 1.259 . S
C26 O23 1.252 . S
C26 O24 1.273 1_565 S
O27 Mg14 2.010 1_565 S
O27 C19 1.249 . S
Mg28 O29 2.028 . S
Mg28 O35 1.986 . S
Mg28 O37 2.114 . S
Mg28 O38 2.251 . S
Mg28 O41 2.010 . S
O29 Mg28 2.028 . S
O29 C32 1.250 . S
O30 Mg31 2.028 . S
O30 C32 1.248 . S
Mg31 O30 2.028 . S
Mg31 O36 2.032 . S
Mg31 O38 2.079 . S
C32 O29 1.250 . S
C32 O30 1.248 . S
C33 O34 1.264 . S
C33 O41 1.249 . S
O34 C33 1.264 . S
O35 Mg28 1.986 . S
O35 C39 1.246 . S
O36 Mg31 2.032 . S
O36 C39 1.259 . S
O37 Mg28 2.114 . S
O37 C40 1.252 . S
O38 Mg28 2.251 . S
O38 Mg31 2.079 . S
O38 C40 1.273 . S
C39 O35 1.246 . S
C39 O36 1.259 . S
C40 O37 1.252 . S
C40 O38 1.273 . S
O41 Mg28 2.010 . S
O41 C33 1.249 . S
H42 O68 0.856 . S
H43 O71 0.854 . S
H44 C79 0.930 . S
H45 C80 0.930 . S
H46 C82 0.930 . S
H47 C83 0.930 . S
H48 C85 0.931 1_655 S
H49 C86 0.930 . S
H50 C88 0.930 . S
H51 C89 0.929 . S
H52 C91 0.930 1_655 S
H53 C92 0.931 . S
H54 C94 0.930 . S
H55 C95 0.929 . S
H56 C97 0.931 1_655 S
H57 C98 0.930 1_655 S
H58 C100 0.930 . S
H59 C101 0.932 . S
H60 C103 0.930 . S
H61 C104 0.929 . S
H62 C106 0.931 . S
H63 C107 0.930 . S
H64 C109 0.929 . S
H65 C110 0.933 . S
H66 C112 0.930 . S
H67 C113 0.929 . S
O68 H42 0.856 . S
O68 C114 1.300 . S
O69 C114 1.209 . S
O70 C115 1.199 . S
O71 H43 0.854 . S
O71 C115 1.297 . S
C72 C73 1.404 . S
C72 C77 1.397 . S
C72 C78 1.492 . S
C73 C72 1.404 . S
C73 C74 1.396 . S
C73 C84 1.492 . S
C74 C73 1.396 . S
C74 C75 1.397 . S
C74 C90 1.509 . S
C75 C74 1.397 . S
C75 C76 1.412 . S
C75 C96 1.485 . S
C76 C75 1.412 . S
C76 C77 1.388 . S
C76 C102 1.490 . S
C77 C72 1.397 . S
C77 C76 1.388 . S
C77 C108 1.519 . S
C78 C72 1.492 . S
C78 C79 1.363 1_455 S
C78 C83 1.390 . S
C79 H44 0.930 . S
C79 C78 1.363 1_655 S
C79 C80 1.372 . S
C80 H45 0.930 . S
C80 C79 1.372 . S
C80 C81 1.383 1_655 S
C81 C80 1.383 1_455 S
C81 C82 1.395 . S
C82 H46 0.930 . S
C82 C81 1.395 . S
C82 C83 1.362 . S
C83 H47 0.930 . S
C83 C78 1.390 . S
C83 C82 1.362 . S
C84 C73 1.492 . S
C84 C85 1.377 . S
C84 C89 1.397 . S
C85 H48 0.931 1_455 S
C85 C84 1.377 . S
C85 C86 1.376 . S
C86 H49 0.930 . S
C86 C85 1.376 . S
C86 C87 1.376 . S
C87 C86 1.376 . S
C87 C88 1.378 . S
C87 C114 1.486 . S
C88 H50 0.930 . S
C88 C87 1.378 . S
C88 C89 1.376 . S
C89 H51 0.929 . S
C89 C84 1.397 . S
C89 C88 1.376 . S
C90 C74 1.509 . S
C90 C91 1.391 . S
C90 C95 1.386 . S
C91 H52 0.930 1_455 S
C91 C90 1.391 . S
C91 C92 1.375 . S
C92 H53 0.931 . S
C92 C91 1.375 . S
C92 C93 1.375 . S
C93 C92 1.375 . S
C93 C94 1.361 . S
C94 H54 0.930 . S
C94 C93 1.361 . S
C94 C95 1.399 . S
C95 H55 0.929 . S
C95 C90 1.386 . S
C95 C94 1.399 . S
C96 C75 1.485 . S
C96 C97 1.394 . S
C96 C101 1.360 . S
C97 H56 0.931 1_455 S
C97 C96 1.394 . S
C97 C98 1.372 . S
C98 H57 0.930 1_455 S
C98 C97 1.372 . S
C98 C99 1.397 . S
C99 C98 1.397 . S
C99 C100 1.390 . S
C99 C115 1.476 . S
C100 H58 0.930 . S
C100 C99 1.390 . S
C100 C101 1.366 . S
C101 H59 0.932 . S
C101 C96 1.360 . S
C101 C100 1.366 . S
C102 C76 1.490 . S
C102 C103 1.380 1_455 S
C102 C107 1.386 . S
C103 H60 0.930 . S
C103 C102 1.380 1_655 S
C103 C104 1.381 . S
C104 H61 0.929 . S
C104 C103 1.381 . S
C104 C105 1.371 1_655 S
C105 C104 1.371 1_455 S
C105 C106 1.380 . S
C106 H62 0.931 . S
C106 C105 1.380 . S
C106 C107 1.387 . S
C107 H63 0.930 . S
C107 C102 1.386 . S
C107 C106 1.387 . S
C108 C77 1.519 . S
C108 C109 1.377 1_455 S
C108 C113 1.361 . S
C109 H64 0.929 . S
C109 C108 1.377 1_655 S
C109 C110 1.388 . S
C110 H65 0.933 . S
C110 C109 1.388 . S
C110 C111 1.359 1_655 S
C111 C110 1.359 1_455 S
C111 C112 1.385 . S
C112 H66 0.930 . S
C112 C111 1.385 . S
C112 C113 1.396 . S
C113 H67 0.929 . S
C113 C108 1.361 . S
C113 C112 1.396 . S
C114 O68 1.300 . S
C114 O69 1.209 . S
C114 C87 1.486 . S
C115 O70 1.199 . S
C115 O71 1.297 . S
C115 C99 1.476 . S
H116 O142 0.856 . S
H117 O145 0.854 . S
H118 C153 0.930 . S
H119 C154 0.930 1_565 S
H120 C156 0.930 . S
H121 C157 0.930 . S
H122 C159 0.931 . S
H123 C160 0.930 . S
H124 C162 0.930 . S
H125 C163 0.929 . S
H126 C165 0.930 . S
H127 C166 0.931 . S
H128 C168 0.930 . S
H129 C169 0.929 . S
H130 C171 0.931 . S
H131 C172 0.930 . S
H132 C174 0.930 . S
H133 C175 0.932 . S
H134 C177 0.930 . S
H135 C178 0.929 . S
H136 C180 0.931 . S
H137 C181 0.930 . S
H138 C183 0.929 . S
H139 C184 0.931 . S
H140 C186 0.930 . S
H141 C187 0.929 . S
O142 H116 0.856 . S
O142 C188 1.300 . S
O143 C188 1.209 . S
O144 C189 1.199 . S
O145 H117 0.854 . S
O145 C189 1.297 . S
C146 C147 1.404 . S
C146 C151 1.397 . S
C146 C152 1.492 . S
C147 C146 1.404 . S
C147 C148 1.396 . S
C147 C158 1.492 . S
C148 C147 1.396 . S
C148 C149 1.397 . S
C148 C164 1.509 . S
C149 C148 1.397 . S
C149 C150 1.412 . S
C149 C170 1.485 . S
C150 C149 1.412 . S
C150 C151 1.388 . S
C150 C176 1.490 . S
C151 C146 1.397 . S
C151 C150 1.388 . S
C151 C182 1.519 . S
C152 C146 1.492 . S
C152 C153 1.363 . S
C152 C157 1.390 . S
C153 H118 0.930 . S
C153 C152 1.363 . S
C153 C154 1.372 . S
C154 H119 0.930 1_545 S
C154 C153 1.372 . S
C154 C155 1.383 . S
C155 C154 1.383 . S
C155 C156 1.395 . S
C156 H120 0.930 . S
C156 C155 1.395 . S
C156 C157 1.362 . S
C157 H121 0.930 . S
C157 C152 1.390 . S
C157 C156 1.362 . S
C158 C147 1.492 . S
C158 C159 1.377 . S
C158 C163 1.397 . S
C159 H122 0.931 . S
C159 C158 1.377 . S
C159 C160 1.376 . S
C160 H123 0.930 . S
C160 C159 1.376 . S
C160 C161 1.376 . S
C161 C160 1.376 . S
C161 C162 1.378 . S
C161 C188 1.486 . S
C162 H124 0.930 . S
C162 C161 1.378 . S
C162 C163 1.376 . S
C163 H125 0.929 . S
C163 C158 1.397 . S
C163 C162 1.376 . S
C164 C148 1.509 . S
C164 C165 1.391 . S
C164 C169 1.386 . S
C165 H126 0.930 . S
C165 C164 1.391 . S
C165 C166 1.375 . S
C166 H127 0.931 . S
C166 C165 1.375 . S
C166 C167 1.375 . S
C167 C166 1.375 . S
C167 C168 1.361 . S
C168 H128 0.930 . S
C168 C167 1.361 . S
C168 C169 1.399 . S
C169 H129 0.929 . S
C169 C164 1.386 . S
C169 C168 1.399 . S
C170 C149 1.485 . S
C170 C171 1.394 . S
C170 C175 1.360 . S
C171 H130 0.931 . S
C171 C170 1.394 . S
C171 C172 1.372 . S
C172 H131 0.930 . S
C172 C171 1.372 . S
C172 C173 1.397 . S
C173 C172 1.397 . S
C173 C174 1.390 . S
C173 C189 1.476 . S
C174 H132 0.930 . S
C174 C173 1.390 . S
C174 C175 1.366 . S
C175 H133 0.932 . S
C175 C170 1.360 . S
C175 C174 1.366 . S
C176 C150 1.490 . S
C176 C177 1.380 . S
C176 C181 1.386 . S
C177 H134 0.930 . S
C177 C176 1.380 . S
C177 C178 1.381 . S
C178 H135 0.929 . S
C178 C177 1.381 . S
C178 C179 1.371 . S
C179 C178 1.371 . S
C179 C180 1.380 . S
C180 H136 0.931 . S
C180 C179 1.380 . S
C180 C181 1.387 . S
C181 H137 0.930 . S
C181 C176 1.386 . S
C181 C180 1.387 . S
C182 C151 1.519 . S
C182 C183 1.377 . S
C182 C187 1.361 . S
C183 H138 0.929 . S
C183 C182 1.377 . S
C183 C184 1.386 . S
C184 H139 0.931 . S
C184 C183 1.386 . S
C184 C185 1.363 . S
C185 C184 1.363 . S
C185 C186 1.385 . S
C186 H140 0.930 . S
C186 C185 1.385 . S
C186 C187 1.396 . S
C187 H141 0.929 . S
C187 C182 1.361 . S
C187 C186 1.396 . S
C188 O142 1.300 . S
C188 O143 1.209 . S
C188 C161 1.486 . S
C189 O144 1.199 . S
C189 O145 1.297 . S
C189 C173 1.476 . S
H190 O216 0.856 . S
H191 O219 0.854 . S
H192 C227 0.930 . S
H193 C228 0.930 . S
H194 C230 0.930 . S
H195 C231 0.930 . S
H196 C233 0.931 . S
H197 C234 0.948 . S
H198 C236 0.944 . S
H199 C237 0.929 . S
H200 C239 0.930 . S
H201 C240 0.931 . S
H202 C242 0.930 . S
H203 C243 0.929 . S
H204 C245 0.931 . S
H205 C246 0.930 . S
H206 C248 0.930 . S
H207 C249 0.932 . S
H208 C251 0.930 . S
H209 C252 0.929 . S
H210 C254 0.931 . S
H211 C255 0.930 . S
H212 C257 0.929 . S
H213 C258 0.931 . S
H214 C260 0.930 . S
H215 C261 0.929 . S
O216 H190 0.856 . S
O216 C262 1.300 . S
O217 C262 1.209 . S
O218 C263 1.199 . S
O219 H191 0.854 . S
O219 C263 1.297 . S
C220 C221 1.404 . S
C220 C225 1.397 . S
C220 C226 1.492 . S
C221 C220 1.404 . S
C221 C222 1.396 . S
C221 C232 1.492 . S
C222 C221 1.396 . S
C222 C223 1.397 . S
C222 C238 1.509 . S
C223 C222 1.397 . S
C223 C224 1.412 . S
C223 C244 1.485 . S
C224 C223 1.412 . S
C224 C225 1.388 . S
C224 C250 1.490 . S
C225 C220 1.397 . S
C225 C224 1.388 . S
C225 C256 1.519 . S
C226 C220 1.492 . S
C226 C227 1.363 . S
C226 C231 1.390 . S
C227 H192 0.930 . S
C227 C226 1.363 . S
C227 C228 1.372 . S
C228 H193 0.930 . S
C228 C227 1.372 . S
C228 C229 1.383 . S
C229 C228 1.383 . S
C229 C230 1.395 . S
C230 H194 0.930 . S
C230 C229 1.395 . S
C230 C231 1.362 . S
C231 H195 0.930 . S
C231 C226 1.390 . S
C231 C230 1.362 . S
C232 C221 1.492 . S
C232 C233 1.377 . S
C232 C237 1.397 . S
C233 H196 0.931 . S
C233 C232 1.377 . S
C233 C234 1.348 1_556 S
C234 H197 0.948 . S
C234 C233 1.348 1_554 S
C234 C235 1.385 . S
C235 C234 1.385 . S
C235 C236 1.378 1_554 S
C235 C262 1.486 . S
C236 H198 0.944 . S
C236 C235 1.378 1_556 S
C236 C237 1.376 . S
C237 H199 0.929 . S
C237 C232 1.397 . S
C237 C236 1.376 . S
C238 C222 1.509 . S
C238 C239 1.391 . S
C238 C243 1.386 . S
C239 H200 0.930 . S
C239 C238 1.391 . S
C239 C240 1.375 . S
C240 H201 0.931 . S
C240 C239 1.375 . S
C240 C241 1.375 . S
C241 C240 1.375 . S
C241 C242 1.361 . S
C242 H202 0.930 . S
C242 C241 1.361 . S
C242 C243 1.399 . S
C243 H203 0.929 . S
C243 C238 1.386 . S
C243 C242 1.399 . S
C244 C223 1.485 . S
C244 C245 1.394 . S
C244 C249 1.360 . S
C245 H204 0.931 . S
C245 C244 1.394 . S
C245 C246 1.372 . S
C246 H205 0.930 . S
C246 C245 1.372 . S
C246 C247 1.397 . S
C247 C246 1.397 . S
C247 C248 1.390 . S
C247 C263 1.476 . S
C248 H206 0.930 . S
C248 C247 1.390 . S
C248 C249 1.366 . S
C249 H207 0.932 . S
C249 C244 1.360 . S
C249 C248 1.366 . S
C250 C224 1.490 . S
C250 C251 1.380 . S
C250 C255 1.386 . S
C251 H208 0.930 . S
C251 C250 1.380 . S
C251 C252 1.381 . S
C252 H209 0.929 . S
C252 C251 1.381 . S
C252 C253 1.371 . S
C253 C252 1.371 . S
C253 C254 1.380 . S
C254 H210 0.931 . S
C254 C253 1.380 . S
C254 C255 1.387 . S
C255 H211 0.930 . S
C255 C250 1.386 . S
C255 C254 1.387 . S
C256 C225 1.519 . S
C256 C257 1.377 . S
C256 C261 1.361 . S
C257 H212 0.929 . S
C257 C256 1.377 . S
C257 C258 1.386 . S
C258 H213 0.931 . S
C258 C257 1.386 . S
C258 C259 1.363 . S
C259 C258 1.363 . S
C259 C260 1.385 . S
C260 H214 0.930 . S
C260 C259 1.385 . S
C260 C261 1.396 . S
C261 H215 0.929 . S
C261 C256 1.361 . S
C261 C260 1.396 . S
C262 O216 1.300 . S
C262 O217 1.209 . S
C262 C235 1.486 . S
C263 O218 1.199 . S
C263 O219 1.297 . S
C263 C247 1.476 . S
H264 C270 0.930 . S
H265 C274 0.930 . S
H266 C279 0.929 . S
H267 C277 0.929 1_655 S
H268 C272 0.929 . S
H269 C278 0.929 . S
C270 H264 0.930 . S
C270 C271 1.367 . S
C270 C278 1.378 . S
C271 C270 1.367 . S
C271 C279 1.433 . S
C272 H268 0.929 . S
C272 C274 1.378 . S
C272 C276 1.350 . S
C273 C276 1.463 . S
C273 C278 1.350 . S
C273 N281 1.427 . S
C274 H265 0.930 . S
C274 C272 1.378 . S
C274 C275 1.367 . S
C275 C274 1.367 . S
C275 C277 1.433 . S
C276 C272 1.350 . S
C276 C273 1.463 . S
C276 N280 1.427 . S
C277 H267 0.929 1_455 S
C277 C275 1.433 . S
C277 N280 1.384 . S
C278 H269 0.929 . S
C278 C270 1.378 . S
C278 C273 1.350 . S
C279 H266 0.929 . S
C279 C271 1.433 . S
C279 N281 1.384 . S
N280 C276 1.427 . S
N280 C277 1.384 . S
N281 C273 1.427 . S
N281 C279 1.384 . S
H282 C288 0.930 . S
H283 C292 0.930 . S
H284 C297 0.929 . S
H285 C295 0.929 1_565 S
H286 C290 0.929 . S
H287 C296 0.929 . S
C288 H282 0.930 . S
C288 C289 1.367 . S
C288 C296 1.378 . S
C289 C288 1.367 . S
C289 C297 1.433 1_565 S
C290 H286 0.929 . S
C290 C292 1.378 . S
C290 C294 1.350 . S
C291 C294 1.463 . S
C291 C296 1.350 1_545 S
C291 N299 1.427 . S
C292 H283 0.930 . S
C292 C290 1.378 . S
C292 C293 1.367 . S
C293 C292 1.367 . S
C293 C295 1.433 . S
C294 C290 1.350 . S
C294 C291 1.463 . S
C294 N298 1.427 1_545 S
C295 H285 0.929 1_545 S
C295 C293 1.433 . S
C295 N298 1.384 1_545 S
C296 H287 0.929 . S
C296 C288 1.378 . S
C296 C291 1.350 1_565 S
C297 H284 0.929 . S
C297 C289 1.433 1_545 S
C297 N299 1.384 . S
N298 C294 1.427 1_565 S
N298 C295 1.384 1_565 S
N299 C291 1.427 . S
N299 C297 1.384 . S
H300 C306 0.930 1_445 S
H301 C310 0.930 . S
H302 C315 0.929 . S
H303 C313 0.929 . S
H304 C308 0.929 . S
H305 C314 0.929 . S
C306 H300 0.930 1_665 S
C306 C307 1.367 . S
C306 C314 1.378 . S
C307 C306 1.367 . S
C307 C315 1.433 . S
C308 H304 0.929 . S
C308 C310 1.378 . S
C308 C312 1.350 . S
C309 C312 1.463 . S
C309 C314 1.350 . S
C309 N317 1.427 . S
C310 H301 0.930 . S
C310 C308 1.378 . S
C310 C311 1.367 . S
C311 C310 1.367 . S
C311 C313 1.433 . S
C312 C308 1.350 . S
C312 C309 1.463 . S
C312 N316 1.427 . S
C313 H303 0.929 . S
C313 C311 1.433 . S
C313 N316 1.384 . S
C314 H305 0.929 . S
C314 C306 1.378 . S
C314 C309 1.350 . S
C315 H302 0.929 . S
C315 C307 1.433 . S
C315 N317 1.384 . S
N316 C312 1.427 . S
N316 C313 1.384 . S
N317 C309 1.427 . S
N317 C315 1.384 . S
H318 C324 0.930 . S
H319 C328 0.930 . S
H320 C333 0.929 . S
H321 C331 0.929 . S
H322 C326 0.929 . S
H323 C332 0.929 . S
C324 H318 0.930 . S
C324 C325 1.367 . S
C324 C332 1.378 . S
C325 C324 1.367 . S
C325 C333 1.433 . S
C326 H322 0.929 . S
C326 C328 1.378 . S
C326 C330 1.350 . S
C327 C330 1.463 . S
C327 C332 1.350 . S
C327 N335 1.427 . S
C328 H319 0.930 . S
C328 C326 1.378 . S
C328 C329 1.367 . S
C329 C328 1.367 . S
C329 C331 1.433 . S
C330 C326 1.350 . S
C330 C327 1.463 . S
C330 N334 1.427 . S
C331 H321 0.929 . S
C331 C329 1.433 . S
C331 N334 1.384 . S
C332 H323 0.929 . S
C332 C324 1.378 . S
C332 C327 1.350 . S
C333 H320 0.929 . S
C333 C325 1.433 . S
C333 N335 1.384 . S
N334 C330 1.427 . S
N334 C331 1.384 . S
N335 C327 1.427 . S
N335 C333 1.384 . S
H336 C342 0.930 . S
H337 C346 0.930 . S
H338 C351 0.929 1_565 S
H339 C349 0.929 . S
H340 C344 0.929 . S
H341 C350 0.929 . S
C342 H336 0.930 . S
C342 C343 1.367 . S
C342 C350 1.378 . S
C343 C342 1.367 . S
C343 C351 1.433 . S
C344 H340 0.929 . S
C344 C346 1.378 . S
C344 C348 1.350 . S
C345 C348 1.463 . S
C345 C350 1.350 . S
C345 N353 1.427 . S
C346 H337 0.930 . S
C346 C344 1.378 . S
C346 C347 1.367 . S
C347 C346 1.367 . S
C347 C349 1.433 . S
C348 C344 1.350 . S
C348 C345 1.463 . S
C348 N352 1.427 . S
C349 H339 0.929 . S
C349 C347 1.433 . S
C349 N352 1.384 . S
C350 H341 0.929 . S
C350 C342 1.378 . S
C350 C345 1.350 . S
C351 H338 0.929 1_545 S
C351 C343 1.433 . S
C351 N353 1.384 . S
N352 C348 1.427 . S
N352 C349 1.384 . S
N353 C345 1.427 . S
N353 C351 1.384 . S
H354 C360 0.930 . S
H355 C364 0.930 . S
H356 C369 0.929 . S
H357 C367 0.929 . S
H358 C362 0.929 . S
H359 C368 0.929 . S
C360 H354 0.930 . S
C360 C361 1.367 . S
C360 C368 1.378 . S
C361 C360 1.367 . S
C361 C369 1.433 . S
C362 H358 0.929 . S
C362 C364 1.378 . S
C362 C366 1.350 . S
C363 C366 1.463 . S
C363 C368 1.350 . S
C363 N371 1.427 . S
C364 H355 0.930 . S
C364 C362 1.378 . S
C364 C365 1.367 . S
C365 C364 1.367 . S
C365 C367 1.433 . S
C366 C362 1.350 . S
C366 C363 1.463 . S
C366 N370 1.427 . S
C367 H357 0.929 . S
C367 C365 1.433 . S
C367 N370 1.384 . S
C368 H359 0.929 . S
C368 C360 1.378 . S
C368 C363 1.350 . S
C369 H356 0.929 . S
C369 C361 1.433 . S
C369 N371 1.384 . S
N370 C366 1.427 . S
N370 C367 1.384 . S
N371 C363 1.427 . S
N371 C369 1.384 . S
H372 C378 0.930 . S
H373 C382 0.930 . S
H374 C387 0.929 1_455 S
H375 C385 0.929 . S
H376 C380 0.929 . S
H377 C386 0.929 . S
C378 H372 0.930 . S
C378 C379 1.367 . S
C378 C386 1.378 . S
C379 C378 1.367 . S
C379 C387 1.433 . S
C380 H376 0.929 . S
C380 C382 1.378 . S
C380 C384 1.350 . S
C381 C384 1.463 . S
C381 C386 1.350 . S
C381 N389 1.427 . S
C382 H373 0.930 . S
C382 C380 1.378 . S
C382 C383 1.367 . S
C383 C382 1.367 . S
C383 C385 1.433 . S
C384 C380 1.350 . S
C384 C381 1.463 . S
C384 N388 1.427 . S
C385 H375 0.929 . S
C385 C383 1.433 . S
C385 N388 1.384 . S
C386 H377 0.929 . S
C386 C378 1.378 . S
C386 C381 1.350 . S
C387 H374 0.929 1_655 S
C387 C379 1.433 . S
C387 N389 1.384 . S
N388 C384 1.427 . S
N388 C385 1.384 . S
N389 C381 1.427 . S
N389 C387 1.384 . S
H390 C396 0.930 . S
H391 C400 0.930 . S
H392 C405 0.929 . S
H393 C403 0.929 . S
H394 C398 0.929 . S
H395 C404 0.929 . S
C396 H390 0.930 . S
C396 C397 1.367 . S
C396 C404 1.378 . S
C397 C396 1.367 . S
C397 C405 1.433 1_665 S
C398 H394 0.929 . S
C398 C400 1.378 . S
C398 C402 1.350 . S
C399 C402 1.463 1_554 S
C399 C404 1.350 . S
C399 N407 1.427 . S
C400 H391 0.930 . S
C400 C398 1.378 . S
C400 C401 1.367 . S
C401 C400 1.367 . S
C401 C403 1.433 . S
C402 C398 1.350 . S
C402 C399 1.463 1_556 S
C402 N406 1.427 . S
C403 H393 0.929 . S
C403 C401 1.433 . S
C403 N406 1.384 . S
C404 H395 0.929 . S
C404 C396 1.378 . S
C404 C399 1.350 . S
C405 H392 0.929 . S
C405 C397 1.433 1_445 S
C405 N407 1.384 1_445 S
N406 C402 1.427 . S
N406 C403 1.384 . S
N407 C399 1.427 . S
N407 C405 1.384 1_665 S
H408 C414 0.926 . S
H409 C418 0.930 . S
H410 C423 0.929 . S
H411 C421 0.929 . S
H412 C416 0.929 . S
H413 C422 0.929 1_455 S
C414 H408 0.926 . S
C414 C415 1.367 . S
C414 C422 1.378 . S
C415 C414 1.367 . S
C415 C423 1.433 . S
C416 H412 0.929 . S
C416 C418 1.378 . S
C416 C420 1.350 . S
C417 C420 1.463 . S
C417 C422 1.350 . S
C417 N425 1.427 . S
C418 H409 0.930 . S
C418 C416 1.378 . S
C418 C419 1.367 . S
C419 C418 1.367 . S
C419 C421 1.433 1_655 S
C420 C416 1.350 . S
C420 C417 1.463 . S
C420 N424 1.427 1_655 S
C421 H411 0.929 . S
C421 C419 1.433 1_455 S
C421 N424 1.384 . S
C422 H413 0.929 1_655 S
C422 C414 1.378 . S
C422 C417 1.350 . S
C423 H410 0.929 . S
C423 C415 1.433 . S
C423 N425 1.384 . S
N424 C420 1.427 1_455 S
N424 C421 1.384 . S
N425 C417 1.427 . S
N425 C423 1.384 . S
H426 C432 0.930 . S
H427 C436 0.930 . S
H428 C441 0.929 1_565 S
H429 C439 0.929 . S
H430 C434 0.929 . S
H431 C440 0.929 . S
C432 H426 0.930 . S
C432 C433 1.367 . S
C432 C440 1.378 . S
C433 C432 1.367 . S
C433 C441 1.433 . S
C434 H430 0.929 . S
C434 C436 1.378 . S
C434 C438 1.350 . S
C435 C438 1.463 . S
C435 C440 1.350 . S
C435 N443 1.427 . S
C436 H427 0.930 . S
C436 C434 1.378 . S
C436 C437 1.367 . S
C437 C436 1.367 . S
C437 C439 1.433 . S
C438 C434 1.350 . S
C438 C435 1.463 . S
C438 N442 1.427 . S
C439 H429 0.929 . S
C439 C437 1.433 . S
C439 N442 1.384 . S
C440 H431 0.929 . S
C440 C432 1.378 . S
C440 C435 1.350 . S
C441 H428 0.929 1_545 S
C441 C433 1.433 . S
C441 N443 1.384 . S
N442 C438 1.427 . S
N442 C439 1.384 . S
N443 C435 1.427 . S
N443 C441 1.384 . S
H444 C450 0.930 . S
H445 C454 0.930 . S
H446 C459 0.929 . S
H447 C457 0.929 . S
H448 C452 0.929 . S
H449 C458 0.929 . S
C450 H444 0.930 . S
C450 C451 1.367 . S
C450 C458 1.378 . S
C451 C450 1.367 . S
C451 C459 1.433 . S
C452 H448 0.929 . S
C452 C454 1.378 1_554 S
C452 C456 1.350 . S
C453 C456 1.463 . S
C453 C458 1.350 . S
C453 N461 1.427 . S
C454 H445 0.930 . S
C454 C452 1.378 1_556 S
C454 C455 1.367 . S
C455 C454 1.367 . S
C455 C457 1.433 1_556 S
C456 C452 1.350 . S
C456 C453 1.463 . S
C456 N460 1.427 . S
C457 H447 0.929 . S
C457 C455 1.433 1_554 S
C457 N460 1.384 . S
C458 H449 0.929 . S
C458 C450 1.378 . S
C458 C453 1.350 . S
C459 H446 0.929 . S
C459 C451 1.433 . S
C459 N461 1.384 . S
N460 C456 1.427 . S
N460 C457 1.384 . S
N461 C453 1.427 . S
N461 C459 1.384 . S
H462 C468 0.930 . S
H463 C472 0.930 1_655 S
H464 C477 0.929 1_655 S
H465 C475 0.929 . S
H466 C470 0.929 1_655 S
H467 C476 0.929 . S
C468 H462 0.930 . S
C468 C469 1.367 . S
C468 C476 1.378 . S
C469 C468 1.367 . S
C469 C477 1.433 . S
C470 H466 0.929 1_455 S
C470 C472 1.378 . S
C470 C474 1.350 . S
C471 C474 1.463 . S
C471 C476 1.350 . S
C471 N479 1.427 . S
C472 H463 0.930 1_455 S
C472 C470 1.378 . S
C472 C473 1.367 . S
C473 C472 1.367 . S
C473 C475 1.433 . S
C474 C470 1.350 . S
C474 C471 1.463 . S
C474 N478 1.427 . S
C475 H465 0.929 . S
C475 C473 1.433 . S
C475 N478 1.384 . S
C476 H467 0.929 . S
C476 C468 1.378 . S
C476 C471 1.350 . S
C477 H464 0.929 1_455 S
C477 C469 1.433 . S
C477 N479 1.384 . S
N478 C474 1.427 . S
N478 C475 1.384 . S
N479 C471 1.427 . S
N479 C477 1.384 . S
C275 C81 1.291 . S
C271 C11 1.384 . S
C289 C26 1.459 . S
C293 C155 1.408 . S
C307 C40 2.016 1_665 S
C311 C259 2.028 . S
C325 C5 0.733 1_565 S
C329 C93 0.700 . S
C347 C167 0.881 . S
C343 C18 0.874 . S
C361 C32 1.470 . S
C365 C253 1.363 . S
C383 C185 1.955 . S
C379 C39 1.948 1_655 S
C397 C4 1.386 1_665 S
C401 C229 1.358 . S
C419 C105 1.379 1_655 S
C415 C19 1.312 . S
C437 C179 1.251 . S
C433 C33 1.194 . S
C455 C241 0.750 . S
C451 C12 0.759 . S
C469 C25 2.084 . S
C473 C111 2.102 . S
