# Generated by pormake.
# Topology rtl, (3,6)-cn, num edge types: 1
# Building blocks:
#     Node 0, Type 0, BuildingBlock: KAKCAD_clean_linker_0, # of connection points: 3
#     Node 1, Type 0, BuildingBlock: KAKCAD_clean_linker_0, # of connection points: 3
#     Node 2, Type 0, BuildingBlock: KAKCAD_clean_linker_0, # of connection points: 3
#     Node 3, Type 0, BuildingBlock: KAKCAD_clean_linker_0, # of connection points: 3
#     Node 4, Type 1, BuildingBlock: LEVNOQ01_clean_sbu_1, # of connection points: 6
#     Node 5, Type 1, BuildingBlock: LEVNOQ01_clean_sbu_1, # of connection points: 6
#     Edge 6, Type (0, 1), BuildingBlock: EZIPEK_clean_linker_0, # of connection points: 2
#     Edge 7, Type (0, 1), BuildingBlock: EZIPEK_clean_linker_0, # of connection points: 2
#     Edge 8, Type (0, 1), BuildingBlock: EZIPEK_clean_linker_0, # of connection points: 2
#     Edge 9, Type (0, 1), BuildingBlock: EZIPEK_clean_linker_0, # of connection points: 2
#     Edge 10, Type (0, 1), BuildingBlock: EZIPEK_clean_linker_0, # of connection points: 2
#     Edge 11, Type (0, 1), BuildingBlock: EZIPEK_clean_linker_0, # of connection points: 2
#     Edge 12, Type (0, 1), BuildingBlock: EZIPEK_clean_linker_0, # of connection points: 2
#     Edge 13, Type (0, 1), BuildingBlock: EZIPEK_clean_linker_0, # of connection points: 2
#     Edge 14, Type (0, 1), BuildingBlock: EZIPEK_clean_linker_0, # of connection points: 2
#     Edge 15, Type (0, 1), BuildingBlock: EZIPEK_clean_linker_0, # of connection points: 2
#     Edge 16, Type (0, 1), BuildingBlock: EZIPEK_clean_linker_0, # of connection points: 2
#     Edge 17, Type (0, 1), BuildingBlock: EZIPEK_clean_linker_0, # of connection points: 2
# Relax obj value: 0.026
# Max RMSD: 0.060
# Mean RMSD: 0.045
data_MOF--net-rtl--node1-LEVNOQ01_clean_sbu_1--node2-KAKCAD_clean_linker_0--edge1-EZIPEK_clean_linker_0
_symmetry_space_group_name_H-M    P1
_symmetry_Int_Tables_number       1
_symmetry_cell_setting            triclinic
loop_
_symmetry_equiv_pos_as_xyz
'x, y, z'
_cell_length_a     29.46267
_cell_length_b     33.306827
_cell_length_c     23.135854
_cell_angle_alpha  89.62399
_cell_angle_beta   98.213467
_cell_angle_gamma 89.984943
loop_
_atom_site_label
_atom_site_type_symbol
_atom_site_fract_x
_atom_site_fract_y
_atom_site_fract_z
_atom_type_partial_charge
C0 C 0.19153 0.89626 0.90116 0.0
C1 C 0.19436 0.93436 0.87584 0.0
C2 C 0.21741 0.88738 0.95517 0.0
C3 C 0.24578 0.91671 0.98499 0.0
C4 C 0.24897 0.9547 0.95942 0.0
C5 C 0.22366 0.96338 0.90488 0.0
C6 C 0.27086 0.90754 0.04351 0.0
C7 C 0.30466 0.87792 0.04954 0.0
C8 C 0.32374 0.86369 0.10497 0.0
C9 C 0.31079 0.88231 0.1547 0.0
C10 C 0.27709 0.91307 0.15027 0.0
C11 C 0.25728 0.92497 0.09328 0.0
C12 C 0.25944 0.92956 0.20408 0.0
C13 C 0.27269 0.91266 0.26043 0.0
C14 C 0.22683 0.96113 0.19979 0.0
C15 C 0.2046 0.97146 0.24712 0.0
C16 C 0.21571 0.95211 0.3012 0.0
C17 C 0.35261 0.82641 0.11057 0.0
C18 C 0.3447 0.79635 0.06773 0.0
C19 C 0.38553 0.81878 0.16011 0.0
C20 C 0.40813 0.78162 0.16752 0.0
C21 C 0.39973 0.75208 0.12438 0.0
C22 C 0.36841 0.76012 0.07417 0.0
C23 C 0.25183 0.92439 0.30823 0.0
H24 H 0.16856 0.87379 0.87971 0.0
H25 H 0.21435 0.85796 0.97451 0.0
H26 H 0.27071 0.97765 0.98184 0.0
H27 H 0.22576 0.99309 0.88613 0.0
H28 H 0.31474 0.86513 0.01037 0.0
H29 H 0.22947 0.94626 0.08598 0.0
H30 H 0.32579 0.87094 0.19657 0.0
H31 H 0.29788 0.88918 0.26899 0.0
H32 H 0.2168 0.97775 0.1599 0.0
H33 H 0.17758 0.99381 0.24091 0.0
H34 H 0.31886 0.7998 0.02982 0.0
H35 H 0.39355 0.84116 0.19369 0.0
H36 H 0.2617 0.90962 0.35002 0.0
H37 H 0.36112 0.73761 0.0405 0.0
H38 H 0.43196 0.77587 0.20686 0.0
C39 C 0.69053 0.61764 0.783 0.0
C40 C 0.68583 0.57595 0.789 0.0
C41 C 0.7121 0.63354 0.73806 0.0
C42 C 0.72872 0.60804 0.69775 0.0
C43 C 0.72573 0.56626 0.70508 0.0
C44 C 0.70511 0.55029 0.75106 0.0
C45 C 0.74589 0.62547 0.64599 0.0
C46 C 0.77967 0.6554 0.65286 0.0
C47 C 0.79244 0.67564 0.60413 0.0
C48 C 0.7711 0.66473 0.54794 0.0
C49 C 0.73748 0.63447 0.54009 0.0
C50 C 0.7253 0.61489 0.58969 0.0
C51 C 0.71392 0.6244 0.48041 0.0
C52 C 0.70377 0.6545 0.4373 0.0
C53 C 0.70103 0.58458 0.46609 0.0
C54 C 0.67827 0.57524 0.41061 0.0
C55 C 0.66835 0.60535 0.36804 0.0
C56 C 0.82599 0.70957 0.61165 0.0
C57 C 0.82859 0.73531 0.66026 0.0
C58 C 0.85411 0.71789 0.56868 0.0
C59 C 0.88128 0.75234 0.57197 0.0
C60 C 0.88202 0.7788 0.61901 0.0
C61 C 0.85701 0.76914 0.6644 0.0
C62 C 0.68166 0.64498 0.38149 0.0
H63 H 0.67599 0.63792 0.8119 0.0
H64 H 0.71385 0.66585 0.73312 0.0
H65 H 0.73854 0.54607 0.67461 0.0
H66 H 0.70204 0.51803 0.75526 0.0
H67 H 0.7957 0.66289 0.69653 0.0
H68 H 0.69809 0.59275 0.58489 0.0
H69 H 0.78004 0.68032 0.51001 0.0
H70 H 0.71224 0.68561 0.44678 0.0
H71 H 0.70888 0.56047 0.49754 0.0
H72 H 0.66859 0.54439 0.40068 0.0
H73 H 0.80738 0.73042 0.69416 0.0
H74 H 0.85466 0.69823 0.53173 0.0
H75 H 0.67429 0.66856 0.34904 0.0
H76 H 0.85767 0.78893 0.70149 0.0
H77 H 0.90109 0.75883 0.537 0.0
C78 C 0.78717 0.11687 0.21455 0.0
C79 C 0.83154 0.10057 0.22376 0.0
C80 C 0.76635 0.12671 0.15804 0.0
C81 C 0.7901 0.12177 0.10976 0.0
C82 C 0.83534 0.10691 0.1199 0.0
C83 C 0.85553 0.096 0.17605 0.0
C84 C 0.76816 0.1323 0.04925 0.0
C85 C 0.73686 0.1643 0.03941 0.0
C86 C 0.71678 0.1748 0.98264 0.0
C87 C 0.72872 0.15375 0.93473 0.0
C88 C 0.76125 0.1226 0.9434 0.0
C89 C 0.77961 0.11135 1.00067 0.0
C90 C 0.77976 0.1045 0.89309 0.0
C91 C 0.75072 0.0924 0.8426 0.0
C92 C 0.82748 0.1009 0.89473 0.0
C93 C 0.84584 0.08644 0.84661 0.0
C94 C 0.81697 0.07511 0.7959 0.0
C95 C 0.68557 0.20966 0.97429 0.0
C96 C 0.63844 0.20443 0.95599 0.0
C97 C 0.70237 0.24794 0.99067 0.0
C98 C 0.67225 0.28017 0.99181 0.0
C99 C 0.62485 0.27454 0.97705 0.0
C100 C 0.60817 0.23678 0.95721 0.0
C101 C 0.76921 0.07741 0.79446 0.0
H102 H 0.76818 0.12082 0.25091 0.0
H103 H 0.73134 0.13751 0.15231 0.0
H104 H 0.85552 0.10382 0.08459 0.0
H105 H 0.89002 0.08385 0.18232 0.0
H106 H 0.72853 0.18187 0.07573 0.0
H107 H 0.80327 0.08629 0.007 0.0
H108 H 0.71466 0.16311 0.89085 0.0
H109 H 0.71383 0.09465 0.84035 0.0
H110 H 0.85076 0.11043 0.93267 0.0
H111 H 0.88276 0.08486 0.84848 0.0
H112 H 0.62488 0.17499 0.94368 0.0
H113 H 0.73867 0.25251 0.00472 0.0
H114 H 0.74646 0.06857 0.75567 0.0
H115 H 0.57165 0.23189 0.94588 0.0
H116 H 0.68575 0.30909 0.00701 0.0
C117 C 0.25133 0.44082 0.28767 0.0
C118 C 0.29856 0.4486 0.29428 0.0
C119 C 0.23059 0.42952 0.33615 0.0
C120 C 0.25689 0.42551 0.39177 0.0
C121 C 0.30409 0.43421 0.3979 0.0
C122 C 0.32458 0.44579 0.34972 0.0
C123 C 0.2361 0.41039 0.4428 0.0
C124 C 0.20437 0.37857 0.43632 0.0
C125 C 0.18775 0.36145 0.48514 0.0
C126 C 0.20277 0.37755 0.54086 0.0
C127 C 0.23623 0.40759 0.54825 0.0
C128 C 0.25164 0.42469 0.49913 0.0
C129 C 0.26053 0.41658 0.60717 0.0
C130 C 0.23706 0.43019 0.65206 0.0
C131 C 0.30814 0.41054 0.61869 0.0
C132 C 0.33219 0.41904 0.67354 0.0
C133 C 0.30923 0.43445 0.71764 0.0
C134 C 0.15976 0.3238 0.47902 0.0
C135 C 0.13031 0.31484 0.42701 0.0
C136 C 0.16491 0.29489 0.52421 0.0
C137 C 0.14164 0.25849 0.51778 0.0
C138 C 0.11349 0.24925 0.46554 0.0
C139 C 0.10803 0.2776 0.41996 0.0
C140 C 0.2614 0.43952 0.70691 0.0
H141 H 0.23087 0.44264 0.24495 0.0
H142 H 0.19412 0.42343 0.32997 0.0
H143 H 0.32576 0.43064 0.43952 0.0
H144 H 0.36121 0.45124 0.35533 0.0
H145 H 0.19521 0.36541 0.39361 0.0
H146 H 0.27702 0.44841 0.50535 0.0
H147 H 0.19078 0.36515 0.57932 0.0
H148 H 0.20028 0.43471 0.64413 0.0
H149 H 0.32682 0.39942 0.58499 0.0
H150 H 0.36909 0.41516 0.68094 0.0
H151 H 0.12477 0.33632 0.3914 0.0
H152 H 0.18818 0.29941 0.5642 0.0
H153 H 0.24322 0.45175 0.74035 0.0
H154 H 0.08669 0.27088 0.37908 0.0
H155 H 0.14666 0.23686 0.55334 0.0
O156 O 0.9718 0.07673 0.65924 0.0
Mg157 Mg 0.03896 0.07904 0.63865 0.0
O158 O 0.95249 0.02443 0.60191 0.0
Mg159 Mg 0.01137 0.01089 0.54628 0.0
O160 O 0.03924 0.07583 0.55095 0.0
O161 O 0.06198 0.13013 0.60361 0.0
O162 O 0.07141 0.99643 0.49097 0.0
O163 O 0.96119 0.03617 0.46574 0.0
Mg164 Mg 0.98109 0.94812 0.45218 0.0
O165 O 0.98211 0.94589 0.54089 0.0
O166 O 0.0459 0.94974 0.42669 0.0
O167 O 0.93253 0.98703 0.40806 0.0
O168 O 0.95913 0.89492 0.48081 0.0
C169 C 0.08547 0.00199 0.67416 0.0
C170 C 0.94345 0.04975 0.63995 0.0
C171 C 0.05489 0.11231 0.5538 0.0
C172 C 0.07745 0.97298 0.44906 0.0
C173 C 0.93449 0.02386 0.421 0.0
C174 C 0.96589 0.9097 0.53274 0.0
O175 O 0.0861 0.03928 0.68436 0.0
O176 O 0.0601 0.98728 0.6298 0.0
O177 O 0.58137 0.49281 0.17852 0.0
Mg178 Mg 0.52859 0.45845 0.13494 0.0
O179 O 0.54333 0.53932 0.12446 0.0
Mg180 Mg 0.4947 0.51091 0.04472 0.0
O181 O 0.52407 0.44381 0.04757 0.0
O182 O 0.5527 0.4038 0.12265 0.0
O183 O 0.44537 0.48765 0.96064 0.0
O184 O 0.55212 0.52491 0.98747 0.0
Mg185 Mg 0.46037 0.57734 0.95502 0.0
O186 O 0.46796 0.5764 0.04305 0.0
O187 O 0.40654 0.54028 0.92102 0.0
O188 O 0.52361 0.57122 0.92285 0.0
O189 O 0.44332 0.63031 0.98916 0.0
C190 C 0.4328 0.4751 0.14555 0.0
C191 C 0.57365 0.52932 0.16708 0.0
C192 C 0.5421 0.40962 0.0672 0.0
C193 C 0.41341 0.50282 0.92346 0.0
C194 C 0.55578 0.54779 0.9439 0.0
C195 C 0.45284 0.61311 0.03956 0.0
O196 O 0.46725 0.45596 0.17044 0.0
O197 O 0.43545 0.49609 0.09979 0.0
C198 C 0.0453 0.20321 0.46442 0.0
C199 C 0.09246 0.2086 0.45982 0.0
C200 C 0.10877 0.13903 0.49019 0.0
C201 C 0.06321 0.13553 0.50196 0.0
N202 N 0.98486 0.15631 0.48049 0.0
N203 N 0.16438 0.17859 0.44641 0.0
C204 C 0.03022 0.16486 0.48114 0.0
C205 C 0.12242 0.17505 0.46444 0.0
N206 N 0.01601 0.23522 0.45781 0.0
N207 N 0.13957 0.10931 0.50821 0.0
H208 H 0.17461 0.20507 0.42759 0.0
H209 H 0.18693 0.15464 0.4452 0.0
H210 H 0.12955 0.08235 0.52592 0.0
H211 H 0.17468 0.11175 0.50723 0.0
H212 H 0.98251 0.23408 0.46718 0.0
H213 H 0.02585 0.26362 0.44519 0.0
H214 H 0.95842 0.17515 0.46203 0.0
H215 H 0.97408 0.12823 0.49364 0.0
C216 C 0.39054 0.67809 0.13077 0.0
C217 C 0.42063 0.71134 0.1311 0.0
C218 C 0.48104 0.66621 0.10846 0.0
C219 C 0.44721 0.63704 0.09129 0.0
N220 N 0.37094 0.61193 0.0914 0.0
N221 N 0.49666 0.73687 0.12562 0.0
C222 C 0.40259 0.64143 0.10597 0.0
C223 C 0.46711 0.70518 0.12351 0.0
N224 N 0.34985 0.6825 0.15183 0.0
N225 N 0.52597 0.65684 0.10721 0.0
H226 H 0.48769 0.76579 0.13662 0.0
H227 H 0.52941 0.73489 0.11391 0.0
H228 H 0.5358 0.62823 0.09545 0.0
H229 H 0.55307 0.67568 0.12296 0.0
H230 H 0.32746 0.65884 0.15611 0.0
H231 H 0.34077 0.70945 0.17 0.0
H232 H 0.3362 0.61502 0.09447 0.0
H233 H 0.37979 0.58456 0.07425 0.0
C234 C 0.95603 0.81551 0.61789 0.0
C235 C 0.90794 0.81714 0.61828 0.0
C236 C 0.90886 0.88912 0.59552 0.0
C237 C 0.95333 0.8845 0.58065 0.0
N238 N 0.02218 0.84574 0.58289 0.0
N239 N 0.83769 0.85606 0.60716 0.0
C240 C 0.97822 0.84861 0.59482 0.0
C241 C 0.88421 0.8544 0.60882 0.0
N242 N 0.97994 0.78205 0.63872 0.0
N243 N 0.88972 0.92649 0.5943 0.0
H244 H 0.81776 0.83135 0.61496 0.0
H245 H 0.81819 0.88141 0.59383 0.0
H246 H 0.90736 0.952 0.58358 0.0
H247 H 0.85887 0.93257 0.6096 0.0
H248 H 0.01552 0.77986 0.64335 0.0
H249 H 0.96418 0.75767 0.65629 0.0
H250 H 0.04075 0.81904 0.58526 0.0
H251 H 0.0395 0.87047 0.56867 0.0
C252 C 0.56809 0.30365 0.03669 0.0
C253 C 0.59318 0.30728 0.98901 0.0
C254 C 0.57402 0.37909 0.98018 0.0
C255 C 0.54963 0.37522 0.02873 0.0
N256 N 0.50756 0.33115 0.08477 0.0
N257 N 0.60809 0.34469 0.90445 0.0
C258 C 0.5411 0.33641 0.05031 0.0
C259 C 0.59197 0.34383 0.95692 0.0
N260 N 0.57253 0.27033 0.07187 0.0
N261 N 0.58259 0.41609 0.95844 0.0
H262 H 0.62121 0.31918 0.88669 0.0
H263 H 0.6043 0.36937 0.87628 0.0
H264 H 0.5692 0.44254 0.97262 0.0
H265 H 0.60489 0.42076 0.92794 0.0
H266 H 0.55897 0.26864 0.11104 0.0
H267 H 0.59316 0.24588 0.06512 0.0
H268 H 0.49776 0.30296 0.09844 0.0
H269 H 0.48623 0.35465 0.09388 0.0
C270 C 0.16394 0.92483 0.37004 0.0
C271 C 0.18668 0.95812 0.34836 0.0
C272 C 0.14263 0.00371 0.40238 0.0
C273 C 0.1219 0.97001 0.42597 0.0
N274 N 0.1266 0.89935 0.4491 0.0
N275 N 0.20738 0.0281 0.35824 0.0
C276 C 0.1377 0.93089 0.4158 0.0
C277 C 0.17931 0.99727 0.36941 0.0
N278 N 0.16391 0.88806 0.34412 0.0
N279 N 0.12565 0.04142 0.40776 0.0
H280 H 0.2351 0.02404 0.33539 0.0
H281 H 0.20595 0.05643 0.37676 0.0
H282 H 0.09833 0.04742 0.4304 0.0
H283 H 0.13655 0.06633 0.38599 0.0
H284 H 0.14403 0.86416 0.35547 0.0
H285 H 0.17909 0.88257 0.30695 0.0
H286 H 0.14011 0.87062 0.44606 0.0
H287 H 0.10814 0.90317 0.484 0.0
C288 C 0.61451 0.54139 0.81229 0.0
C289 C 0.65729 0.55997 0.83209 0.0
C290 C 0.63782 0.56214 0.93181 0.0
C291 C 0.59518 0.54401 0.9113 0.0
N292 N 0.55062 0.50322 0.83903 0.0
N293 N 0.71483 0.57787 0.91259 0.0
C294 C 0.58632 0.52906 0.8538 0.0
C295 C 0.67071 0.56692 0.89271 0.0
N296 N 0.59897 0.53826 0.75392 0.0
N297 N 0.64595 0.57635 0.98756 0.0
H298 H 0.73962 0.58103 0.88485 0.0
H299 H 0.72781 0.58019 0.95671 0.0
H300 H 0.62303 0.57196 0.0175 0.0
H301 H 0.67418 0.59397 1.0032 0.0
H302 H 0.56583 0.52899 0.73774 0.0
H303 H 0.61728 0.54842 0.72139 0.0
H304 H 0.54457 0.48871 0.7989 0.0
H305 H 0.53034 0.49295 0.86957 0.0
C306 C 0.8348 0.0546 0.3115 0.0
C307 C 0.85329 0.0873 0.28285 0.0
C308 C 0.92356 0.08448 0.35378 0.0
C309 C 0.90479 0.05186 0.38237 0.0
N310 N 0.83717 0.01645 0.40131 0.0
N311 N 0.9081 0.14132 0.28785 0.0
C312 C 0.85841 0.04069 0.36557 0.0
C313 C 0.8953 0.10498 0.30794 0.0
N314 N 0.79671 0.03482 0.28549 0.0
N315 N 0.9689 0.09419 0.36708 0.0
H316 H 0.8877 0.15723 0.25481 0.0
H317 H 0.9363 0.15738 0.30795 0.0
H318 H 0.99121 0.08003 0.39988 0.0
H319 H 0.98524 0.1146 0.34268 0.0
H320 H 0.78505 0.00817 0.30205 0.0
H321 H 0.77913 0.04268 0.24469 0.0
H322 H 0.80221 0.01002 0.3936 0.0
H323 H 0.85359 0.00655 0.4419 0.0
C324 C 0.3652 0.48363 0.76742 0.0
C325 C 0.33653 0.44996 0.77187 0.0
C326 C 0.36082 0.44767 0.87812 0.0
C327 C 0.39157 0.47972 0.8724 0.0
N328 N 0.43282 0.51953 0.80945 0.0
N329 N 0.31251 0.3953 0.82924 0.0
C330 C 0.39688 0.49482 0.81625 0.0
C331 C 0.33595 0.43048 0.82666 0.0
N332 N 0.36077 0.50621 0.71731 0.0
N333 N 0.35415 0.43477 0.93241 0.0
H334 H 0.29386 0.38218 0.79246 0.0
H335 H 0.31436 0.37763 0.8668 0.0
H336 H 0.37261 0.44622 0.97058 0.0
H337 H 0.32859 0.41454 0.93968 0.0
H338 H 0.37756 0.53351 0.7142 0.0
H339 H 0.33676 0.50003 0.6808 0.0
H340 H 0.44087 0.52813 0.76872 0.0
H341 H 0.4575 0.5279 0.84415 0.0
C342 C 0.59629 0.59985 0.29593 0.0
C343 C 0.64449 0.59469 0.30913 0.0
C344 C 0.64554 0.56078 0.21557 0.0
C345 C 0.59703 0.55946 0.2077 0.0
N346 N 0.52513 0.57821 0.2387 0.0
N347 N 0.71605 0.5721 0.28156 0.0
C348 C 0.572 0.58003 0.24657 0.0
C349 C 0.66953 0.57617 0.26848 0.0
N350 N 0.57375 0.62317 0.33112 0.0
N351 N 0.66833 0.54751 0.17187 0.0
H352 H 0.73494 0.58489 0.31845 0.0
H353 H 0.7358 0.55469 0.25745 0.0
H354 H 0.65111 0.53678 0.13241 0.0
H355 H 0.70353 0.55047 0.17222 0.0
H356 H 0.5396 0.63179 0.32067 0.0
H357 H 0.59012 0.63661 0.36903 0.0
H358 H 0.50501 0.58794 0.26936 0.0
H359 H 0.50592 0.5651 0.20242 0.0
C360 C 0.84072 0.08968 0.69763 0.0
C361 C 0.83801 0.06226 0.74429 0.0
C362 C 0.89533 0.01877 0.70922 0.0
C363 C 0.90014 0.0476 0.66515 0.0
N364 N 0.86853 0.10271 0.60531 0.0
N365 N 0.85209 0.99611 0.78526 0.0
C366 C 0.86946 0.08037 0.6552 0.0
C367 C 0.86168 0.02505 0.74668 0.0
N368 N 0.81846 0.12577 0.69614 0.0
N369 N 0.9248 0.98689 0.71753 0.0
H370 H 0.82748 0.0002 0.81299 0.0
H371 H 0.86532 0.96709 0.78632 0.0
H372 H 0.94843 0.98057 0.6893 0.0
H373 H 0.92718 0.96761 0.75342 0.0
H374 H 0.82349 0.14893 0.6673 0.0
H375 H 0.79677 0.13367 0.72607 0.0
H376 H 0.84436 0.12504 0.59258 0.0
H377 H 0.88941 0.096 0.57377 0.0
C378 C 0.3324 0.49612 0.22775 0.0
C379 C 0.3226 0.45613 0.24316 0.0
C380 C 0.37229 0.43088 0.17537 0.0
C381 C 0.38904 0.47037 0.16932 0.0
N382 N 0.38622 0.54111 0.1904 0.0
N383 N 0.33276 0.38486 0.2325 0.0
C384 C 0.3687 0.50338 0.19451 0.0
C385 C 0.34182 0.42328 0.21642 0.0
N386 N 0.30734 0.52696 0.24568 0.0
N387 N 0.38561 0.40077 0.14154 0.0
H388 H 0.30917 0.37805 0.26072 0.0
H389 H 0.35039 0.35987 0.22048 0.0
H390 H 0.40732 0.40578 0.1103 0.0
H391 H 0.37179 0.37197 0.14026 0.0
H392 H 0.30981 0.55652 0.23151 0.0
H393 H 0.28093 0.52223 0.27059 0.0
H394 H 0.37617 0.56569 0.21312 0.0
H395 H 0.41308 0.54751 0.16698 0.0
C396 C 0.17471 0.93678 0.76613 0.0
C397 C 0.1629 0.94552 0.82217 0.0
C398 C 0.0924 0.97847 0.77672 0.0
C399 C 0.108 0.97578 0.72166 0.0
N400 N 0.16275 0.95207 0.662 0.0
N401 N 0.11126 0.97526 0.88195 0.0
C402 C 0.14845 0.95418 0.71553 0.0
C403 C 0.12168 0.96618 0.82776 0.0
N404 N 0.21104 0.91206 0.76156 0.0
N405 N 0.0491 0.99234 0.77976 0.0
H406 H 0.13049 0.96504 0.92061 0.0
H407 H 0.08509 0.99489 0.88887 0.0
H408 H 0.02658 0.00107 0.74283 0.0
H409 H 0.03383 0.9916 0.81765 0.0
H410 H 0.21892 0.90131 0.72205 0.0
H411 H 0.23162 0.8999 0.7979 0.0
H412 H 0.19444 0.94065 0.65523 0.0
H413 H 0.1434 0.96348 0.62417 0.0
loop_
_geom_bond_atom_site_label_1
_geom_bond_atom_site_label_2
_geom_bond_distance
_geom_bond_site_symmetry_2
_ccdc_geom_bond_type
C0 C1 1.386 . S
C0 C2 1.397 . S
C0 H24 0.931 . S
C1 C0 1.386 . S
C1 C5 1.397 . S
C2 C0 1.397 . S
C2 C3 1.384 . S
C2 H25 0.930 . S
C3 C2 1.384 . S
C3 C4 1.377 . S
C3 C6 1.481 1_556 S
C4 C3 1.377 . S
C4 C5 1.389 . S
C4 H26 0.929 1_556 S
C5 C1 1.397 . S
C5 C4 1.389 . S
C5 H27 0.931 1_565 S
C6 C3 1.481 1_554 S
C6 C7 1.387 . S
C6 C11 1.390 . S
C7 C6 1.387 . S
C7 C8 1.401 . S
C7 H28 0.930 . S
C8 C7 1.401 . S
C8 C9 1.376 . S
C8 C17 1.511 . S
C9 C8 1.376 . S
C9 C10 1.392 . S
C9 H30 0.931 . S
C10 C9 1.392 . S
C10 C11 1.361 . S
C10 C12 1.500 . S
C11 C6 1.390 . S
C11 C10 1.361 . S
C11 H29 0.931 . S
C12 C10 1.500 . S
C12 C13 1.371 . S
C12 C14 1.365 . S
C13 C12 1.371 . S
C13 C23 1.386 . S
C13 H31 0.931 . S
C14 C12 1.365 . S
C14 C15 1.409 . S
C14 H32 0.929 . S
C15 C14 1.409 . S
C15 C16 1.380 . S
C15 H33 0.930 1_565 S
C16 C15 1.380 . S
C16 C23 1.357 . S
C17 C8 1.511 . S
C17 C18 1.341 . S
C17 C19 1.371 . S
C18 C17 1.341 . S
C18 C22 1.394 . S
C18 H34 0.930 . S
C19 C17 1.371 . S
C19 C20 1.392 . S
C19 H35 0.931 . S
C20 C19 1.392 . S
C20 C21 1.331 . S
C20 H38 0.932 . S
C21 C20 1.331 . S
C21 C22 1.336 . S
C22 C18 1.394 . S
C22 C21 1.336 . S
C22 H37 0.929 . S
C23 C13 1.386 . S
C23 C16 1.357 . S
C23 H36 0.928 . S
H24 C0 0.931 . S
H25 C2 0.930 . S
H26 C4 0.929 1_554 S
H27 C5 0.931 1_545 S
H28 C7 0.930 . S
H29 C11 0.931 . S
H30 C9 0.931 . S
H31 C13 0.931 . S
H32 C14 0.929 . S
H33 C15 0.930 1_545 S
H34 C18 0.930 . S
H35 C19 0.931 . S
H36 C23 0.928 . S
H37 C22 0.929 . S
H38 C20 0.932 . S
C39 C40 1.386 . S
C39 C41 1.397 . S
C39 H63 0.931 . S
C40 C39 1.386 . S
C40 C44 1.397 . S
C41 C39 1.397 . S
C41 C42 1.384 . S
C41 H64 0.930 . S
C42 C41 1.384 . S
C42 C43 1.377 . S
C42 C45 1.481 . S
C43 C42 1.377 . S
C43 C44 1.389 . S
C43 H65 0.929 . S
C44 C40 1.397 . S
C44 C43 1.389 . S
C44 H66 0.931 . S
C45 C42 1.481 . S
C45 C46 1.387 . S
C45 C50 1.390 . S
C46 C45 1.387 . S
C46 C47 1.401 . S
C46 H67 0.930 . S
C47 C46 1.401 . S
C47 C48 1.376 . S
C47 C56 1.511 . S
C48 C47 1.376 . S
C48 C49 1.392 . S
C48 H69 0.931 . S
C49 C48 1.392 . S
C49 C50 1.361 . S
C49 C51 1.500 . S
C50 C45 1.390 . S
C50 C49 1.361 . S
C50 H68 0.931 . S
C51 C49 1.500 . S
C51 C52 1.371 . S
C51 C53 1.365 . S
C52 C51 1.371 . S
C52 C62 1.386 . S
C52 H70 0.931 . S
C53 C51 1.365 . S
C53 C54 1.409 . S
C53 H71 0.929 . S
C54 C53 1.409 . S
C54 C55 1.380 . S
C54 H72 0.930 . S
C55 C54 1.380 . S
C55 C62 1.357 . S
C56 C47 1.511 . S
C56 C57 1.341 . S
C56 C58 1.371 . S
C57 C56 1.341 . S
C57 C61 1.394 . S
C57 H73 0.930 . S
C58 C56 1.371 . S
C58 C59 1.392 . S
C58 H74 0.931 . S
C59 C58 1.392 . S
C59 C60 1.331 . S
C59 H77 0.932 . S
C60 C59 1.331 . S
C60 C61 1.336 . S
C61 C57 1.394 . S
C61 C60 1.336 . S
C61 H76 0.929 . S
C62 C52 1.386 . S
C62 C55 1.357 . S
C62 H75 0.928 . S
H63 C39 0.931 . S
H64 C41 0.930 . S
H65 C43 0.929 . S
H66 C44 0.931 . S
H67 C46 0.930 . S
H68 C50 0.931 . S
H69 C48 0.931 . S
H70 C52 0.931 . S
H71 C53 0.929 . S
H72 C54 0.930 . S
H73 C57 0.930 . S
H74 C58 0.931 . S
H75 C62 0.928 . S
H76 C61 0.929 . S
H77 C59 0.932 . S
C78 C79 1.386 . S
C78 C80 1.397 . S
C78 H102 0.931 . S
C79 C78 1.386 . S
C79 C83 1.397 . S
C80 C78 1.397 . S
C80 C81 1.384 . S
C80 H103 0.930 . S
C81 C80 1.384 . S
C81 C82 1.377 . S
C81 C84 1.481 . S
C82 C81 1.377 . S
C82 C83 1.389 . S
C82 H104 0.929 . S
C83 C79 1.397 . S
C83 C82 1.389 . S
C83 H105 0.931 . S
C84 C81 1.481 . S
C84 C85 1.387 . S
C84 C89 1.390 . S
C85 C84 1.387 . S
C85 C86 1.401 1_554 S
C85 H106 0.930 . S
C86 C85 1.401 1_556 S
C86 C87 1.376 . S
C86 C95 1.511 . S
C87 C86 1.376 . S
C87 C88 1.392 . S
C87 H108 0.931 . S
C88 C87 1.392 . S
C88 C89 1.361 1_556 S
C88 C90 1.500 . S
C89 C84 1.390 . S
C89 C88 1.361 1_554 S
C89 H107 0.931 . S
C90 C88 1.500 . S
C90 C91 1.371 . S
C90 C92 1.365 . S
C91 C90 1.371 . S
C91 C101 1.386 . S
C91 H109 0.931 . S
C92 C90 1.365 . S
C92 C93 1.409 . S
C92 H110 0.929 . S
C93 C92 1.409 . S
C93 C94 1.380 . S
C93 H111 0.930 . S
C94 C93 1.380 . S
C94 C101 1.357 . S
C95 C86 1.511 . S
C95 C96 1.341 1_556 S
C95 C97 1.371 . S
C96 C95 1.341 1_554 S
C96 C100 1.394 . S
C96 H112 0.930 . S
C97 C95 1.371 . S
C97 C98 1.392 . S
C97 H113 0.931 . S
C98 C97 1.392 . S
C98 C99 1.331 . S
C98 H116 0.932 . S
C99 C98 1.331 . S
C99 C100 1.336 1_556 S
C100 C96 1.394 . S
C100 C99 1.336 1_554 S
C100 H115 0.929 . S
C101 C91 1.386 . S
C101 C94 1.357 . S
C101 H114 0.928 . S
H102 C78 0.931 . S
H103 C80 0.930 . S
H104 C82 0.929 . S
H105 C83 0.931 . S
H106 C85 0.930 . S
H107 C89 0.931 . S
H108 C87 0.931 . S
H109 C91 0.931 . S
H110 C92 0.929 . S
H111 C93 0.930 . S
H112 C96 0.930 . S
H113 C97 0.931 . S
H114 C101 0.928 . S
H115 C100 0.929 . S
H116 C98 0.932 . S
C117 C118 1.386 . S
C117 C119 1.397 . S
C117 H141 0.931 . S
C118 C117 1.386 . S
C118 C122 1.397 . S
C119 C117 1.397 . S
C119 C120 1.384 . S
C119 H142 0.930 . S
C120 C119 1.384 . S
C120 C121 1.377 . S
C120 C123 1.481 . S
C121 C120 1.377 . S
C121 C122 1.389 . S
C121 H143 0.929 . S
C122 C118 1.397 . S
C122 C121 1.389 . S
C122 H144 0.931 . S
C123 C120 1.481 . S
C123 C124 1.387 . S
C123 C128 1.390 . S
C124 C123 1.387 . S
C124 C125 1.401 . S
C124 H145 0.930 . S
C125 C124 1.401 . S
C125 C126 1.376 . S
C125 C134 1.511 . S
C126 C125 1.376 . S
C126 C127 1.392 . S
C126 H147 0.931 . S
C127 C126 1.392 . S
C127 C128 1.361 . S
C127 C129 1.500 . S
C128 C123 1.390 . S
C128 C127 1.361 . S
C128 H146 0.931 . S
C129 C127 1.500 . S
C129 C130 1.371 . S
C129 C131 1.365 . S
C130 C129 1.371 . S
C130 C140 1.386 . S
C130 H148 0.931 . S
C131 C129 1.365 . S
C131 C132 1.409 . S
C131 H149 0.929 . S
C132 C131 1.409 . S
C132 C133 1.380 . S
C132 H150 0.930 . S
C133 C132 1.380 . S
C133 C140 1.357 . S
C134 C125 1.511 . S
C134 C135 1.341 . S
C134 C136 1.371 . S
C135 C134 1.341 . S
C135 C139 1.394 . S
C135 H151 0.930 . S
C136 C134 1.371 . S
C136 C137 1.392 . S
C136 H152 0.931 . S
C137 C136 1.392 . S
C137 C138 1.331 . S
C137 H155 0.932 . S
C138 C137 1.331 . S
C138 C139 1.336 . S
C139 C135 1.394 . S
C139 C138 1.336 . S
C139 H154 0.929 . S
C140 C130 1.386 . S
C140 C133 1.357 . S
C140 H153 0.928 . S
H141 C117 0.931 . S
H142 C119 0.930 . S
H143 C121 0.929 . S
H144 C122 0.931 . S
H145 C124 0.930 . S
H146 C128 0.931 . S
H147 C126 0.931 . S
H148 C130 0.931 . S
H149 C131 0.929 . S
H150 C132 0.930 . S
H151 C135 0.930 . S
H152 C136 0.931 . S
H153 C140 0.928 . S
H154 C139 0.929 . S
H155 C137 0.932 . S
O156 Mg157 1.990 1_655 S
O156 C170 1.253 . S
Mg157 O156 1.990 1_455 S
Mg157 O160 2.180 . S
Mg157 O161 2.117 . S
Mg157 O175 2.030 . S
O158 Mg159 2.072 1_655 S
O158 C170 1.260 . S
Mg159 O158 2.072 1_455 S
Mg159 O160 2.099 . S
Mg159 O162 2.079 1_545 S
Mg159 O163 2.072 1_455 S
Mg159 O165 2.099 1_445 S
Mg159 O176 2.079 1_545 S
O160 Mg157 2.180 . S
O160 Mg159 2.099 . S
O160 C171 1.279 . S
O161 Mg157 2.117 . S
O161 C171 1.250 . S
O162 Mg159 2.079 1_565 S
O162 C172 1.264 . S
O163 Mg159 2.072 1_655 S
O163 C173 1.260 . S
Mg164 O165 2.180 . S
Mg164 O166 2.030 1_655 S
Mg164 O167 2.004 . S
Mg164 O168 2.117 . S
O165 Mg159 2.099 1_665 S
O165 Mg164 2.180 . S
O165 C174 1.279 . S
O166 Mg164 2.030 1_455 S
O166 C172 1.248 . S
O167 Mg164 2.004 . S
O167 C173 1.239 1_565 S
O168 Mg164 2.117 . S
O168 C174 1.250 . S
C169 O175 1.248 1_565 S
C169 O176 1.264 . S
C170 O156 1.253 . S
C170 O158 1.260 . S
C171 O160 1.279 . S
C171 O161 1.250 . S
C172 O162 1.264 . S
C172 O166 1.248 . S
C173 O163 1.260 . S
C173 O167 1.239 1_545 S
C174 O165 1.279 . S
C174 O168 1.250 . S
O175 Mg157 2.030 . S
O175 C169 1.248 1_545 S
O176 Mg159 2.079 1_565 S
O176 C169 1.264 . S
O177 Mg178 1.990 . S
O177 C191 1.253 . S
Mg178 O177 1.990 . S
Mg178 O181 2.180 . S
Mg178 O182 2.117 . S
Mg178 O196 2.030 . S
O179 Mg180 2.072 . S
O179 C191 1.260 . S
Mg180 O179 2.072 . S
Mg180 O181 2.099 . S
Mg180 O183 2.079 1_554 S
Mg180 O184 2.072 1_554 S
Mg180 O186 2.099 . S
Mg180 O197 2.079 . S
O181 Mg178 2.180 . S
O181 Mg180 2.099 . S
O181 C192 1.279 . S
O182 Mg178 2.117 . S
O182 C192 1.250 . S
O183 Mg180 2.079 1_556 S
O183 C193 1.264 . S
O184 Mg180 2.072 1_556 S
O184 C194 1.260 . S
Mg185 O186 2.180 1_556 S
Mg185 O187 2.030 . S
Mg185 O188 1.990 . S
Mg185 O189 2.117 . S
O186 Mg180 2.099 . S
O186 Mg185 2.180 1_554 S
O186 C195 1.279 . S
O187 Mg185 2.030 . S
O187 C193 1.248 . S
O188 Mg185 1.990 . S
O188 C194 1.253 . S
O189 Mg185 2.117 . S
O189 C195 1.250 1_556 S
C190 O196 1.248 . S
C190 O197 1.264 . S
C191 O177 1.253 . S
C191 O179 1.260 . S
C192 O181 1.279 . S
C192 O182 1.250 . S
C193 O183 1.264 . S
C193 O187 1.248 . S
C194 O184 1.260 . S
C194 O188 1.253 . S
C195 O186 1.279 . S
C195 O189 1.250 1_554 S
O196 Mg178 2.030 . S
O196 C190 1.248 . S
O197 Mg180 2.079 . S
O197 C190 1.264 . S
C198 C199 1.363 . S
C198 C204 1.379 . S
C198 N206 1.356 . S
C199 C198 1.363 . S
C199 C205 1.363 . S
C200 C201 1.363 . S
C200 C205 1.379 . S
C200 N207 1.356 . S
C201 C200 1.363 . S
C201 C204 1.363 . S
N202 C204 1.357 . S
N202 H214 0.983 1_455 S
N202 H215 0.985 . S
N203 C205 1.356 . S
N203 H208 0.984 . S
N203 H209 0.985 . S
C204 C198 1.379 . S
C204 C201 1.363 . S
C204 N202 1.357 . S
C205 C199 1.363 . S
C205 C200 1.379 . S
C205 N203 1.356 . S
N206 C198 1.356 . S
N206 H212 0.984 1_455 S
N206 H213 0.984 . S
N207 C200 1.356 . S
N207 H210 0.984 . S
N207 H211 0.985 . S
H208 N203 0.984 . S
H209 N203 0.985 . S
H210 N207 0.984 . S
H211 N207 0.985 . S
H212 N206 0.984 1_655 S
H213 N206 0.984 . S
H214 N202 0.983 1_655 S
H215 N202 0.985 . S
C216 C217 1.363 . S
C216 C222 1.379 . S
C216 N224 1.356 . S
C217 C216 1.363 . S
C217 C223 1.363 . S
C218 C219 1.363 . S
C218 C223 1.379 . S
C218 N225 1.356 . S
C219 C218 1.363 . S
C219 C222 1.363 . S
N220 C222 1.356 . S
N220 H232 0.984 . S
N220 H233 0.985 . S
N221 C223 1.356 . S
N221 H226 0.984 . S
N221 H227 0.985 . S
C222 C216 1.379 . S
C222 C219 1.363 . S
C222 N220 1.356 . S
C223 C217 1.363 . S
C223 C218 1.379 . S
C223 N221 1.356 . S
N224 C216 1.356 . S
N224 H230 0.984 . S
N224 H231 0.984 . S
N225 C218 1.356 . S
N225 H228 0.984 . S
N225 H229 0.985 . S
H226 N221 0.984 . S
H227 N221 0.985 . S
H228 N225 0.984 . S
H229 N225 0.985 . S
H230 N224 0.984 . S
H231 N224 0.984 . S
H232 N220 0.984 . S
H233 N220 0.985 . S
C234 C235 1.363 . S
C234 C240 1.379 . S
C234 N242 1.356 . S
C235 C234 1.363 . S
C235 C241 1.363 . S
C236 C237 1.363 . S
C236 C241 1.379 . S
C236 N243 1.356 . S
C237 C236 1.363 . S
C237 C240 1.363 . S
N238 C240 1.356 . S
N238 H250 0.984 1_655 S
N238 H251 0.985 . S
N239 C241 1.356 . S
N239 H244 0.984 . S
N239 H245 0.985 . S
C240 C234 1.379 . S
C240 C237 1.363 . S
C240 N238 1.356 . S
C241 C235 1.363 . S
C241 C236 1.379 . S
C241 N239 1.356 . S
N242 C234 1.356 . S
N242 H248 0.984 . S
N242 H249 0.984 . S
N243 C236 1.356 . S
N243 H246 0.984 . S
N243 H247 0.985 . S
H244 N239 0.984 . S
H245 N239 0.985 . S
H246 N243 0.984 . S
H247 N243 0.985 . S
H248 N242 0.984 . S
H249 N242 0.984 . S
H250 N238 0.984 1_455 S
H251 N238 0.985 . S
C252 C253 1.363 1_554 S
C252 C258 1.379 . S
C252 N260 1.356 . S
C253 C252 1.363 1_556 S
C253 C259 1.363 . S
C254 C255 1.363 1_556 S
C254 C259 1.379 . S
C254 N261 1.356 . S
C255 C254 1.363 1_554 S
C255 C258 1.363 . S
N256 C258 1.356 . S
N256 H268 0.984 . S
N256 H269 0.985 . S
N257 C259 1.356 . S
N257 H262 0.984 . S
N257 H263 0.985 . S
C258 C252 1.379 . S
C258 C255 1.363 . S
C258 N256 1.356 . S
C259 C253 1.363 . S
C259 C254 1.379 . S
C259 N257 1.356 . S
N260 C252 1.356 . S
N260 H266 0.984 . S
N260 H267 0.984 . S
N261 C254 1.356 . S
N261 H264 0.984 . S
N261 H265 0.985 . S
H262 N257 0.984 . S
H263 N257 0.985 . S
H264 N261 0.984 . S
H265 N261 0.985 . S
H266 N260 0.984 . S
H267 N260 0.984 . S
H268 N256 0.984 . S
H269 N256 0.985 . S
C270 C271 1.363 . S
C270 C276 1.379 . S
C270 N278 1.356 . S
C271 C270 1.363 . S
C271 C277 1.375 . S
C272 C273 1.363 1_545 S
C272 C277 1.377 1_545 S
C272 N279 1.356 . S
C273 C272 1.363 1_565 S
C273 C276 1.363 . S
N274 C276 1.356 . S
N274 H286 0.984 . S
N274 H287 0.985 . S
N275 C277 1.349 1_545 S
N275 H280 0.984 . S
N275 H281 0.985 . S
C276 C270 1.379 . S
C276 C273 1.363 . S
C276 N274 1.356 . S
C277 C271 1.375 . S
C277 C272 1.377 1_565 S
C277 N275 1.349 1_565 S
N278 C270 1.356 . S
N278 H284 0.984 . S
N278 H285 0.984 . S
N279 C272 1.356 . S
N279 H282 0.984 . S
N279 H283 0.985 . S
H280 N275 0.984 . S
H281 N275 0.985 . S
H282 N279 0.984 . S
H283 N279 0.985 . S
H284 N278 0.984 . S
H285 N278 0.984 . S
H286 N274 0.984 . S
H287 N274 0.985 . S
C288 C289 1.363 . S
C288 C294 1.379 . S
C288 N296 1.356 . S
C289 C288 1.363 . S
C289 C295 1.363 . S
C290 C291 1.363 . S
C290 C295 1.379 . S
C290 N297 1.356 . S
C291 C290 1.363 . S
C291 C294 1.363 . S
N292 C294 1.356 . S
N292 H304 0.984 . S
N292 H305 0.985 . S
N293 C295 1.356 . S
N293 H298 0.984 . S
N293 H299 0.985 . S
C294 C288 1.379 . S
C294 C291 1.363 . S
C294 N292 1.356 . S
C295 C289 1.363 . S
C295 C290 1.379 . S
C295 N293 1.356 . S
N296 C288 1.356 . S
N296 H302 0.984 . S
N296 H303 0.984 . S
N297 C290 1.356 . S
N297 H300 0.986 . S
N297 H301 0.985 1_556 S
H298 N293 0.984 . S
H299 N293 0.985 . S
H300 N297 0.986 . S
H301 N297 0.985 1_554 S
H302 N296 0.984 . S
H303 N296 0.984 . S
H304 N292 0.984 . S
H305 N292 0.985 . S
C306 C307 1.363 . S
C306 C312 1.379 . S
C306 N314 1.356 . S
C307 C306 1.363 . S
C307 C313 1.363 . S
C308 C309 1.363 . S
C308 C313 1.379 . S
C308 N315 1.356 . S
C309 C308 1.363 . S
C309 C312 1.363 . S
N310 C312 1.356 . S
N310 H322 0.984 1_545 S
N310 H323 0.985 . S
N311 C313 1.356 . S
N311 H316 0.984 . S
N311 H317 0.985 . S
C312 C306 1.379 . S
C312 C309 1.363 . S
C312 N310 1.356 . S
C313 C307 1.363 . S
C313 C308 1.379 . S
C313 N311 1.356 . S
N314 C306 1.356 . S
N314 H320 0.984 1_545 S
N314 H321 0.984 . S
N315 C308 1.356 . S
N315 H318 0.984 . S
N315 H319 0.985 . S
H316 N311 0.984 . S
H317 N311 0.985 . S
H318 N315 0.984 . S
H319 N315 0.985 . S
H320 N314 0.984 1_565 S
H321 N314 0.984 . S
H322 N310 0.984 1_565 S
H323 N310 0.985 . S
C324 C325 1.363 . S
C324 C330 1.379 . S
C324 N332 1.356 . S
C325 C324 1.363 . S
C325 C331 1.363 . S
C326 C327 1.363 . S
C326 C331 1.379 . S
C326 N333 1.356 . S
C327 C326 1.363 . S
C327 C330 1.363 . S
N328 C330 1.356 . S
N328 H340 0.984 . S
N328 H341 0.985 . S
N329 C331 1.356 . S
N329 H334 0.984 . S
N329 H335 0.985 . S
C330 C324 1.379 . S
C330 C327 1.363 . S
C330 N328 1.356 . S
C331 C325 1.363 . S
C331 C326 1.379 . S
C331 N329 1.356 . S
N332 C324 1.356 . S
N332 H338 0.984 . S
N332 H339 0.984 . S
N333 C326 1.356 . S
N333 H336 0.984 . S
N333 H337 0.985 . S
H334 N329 0.984 . S
H335 N329 0.985 . S
H336 N333 0.984 . S
H337 N333 0.985 . S
H338 N332 0.984 . S
H339 N332 0.984 . S
H340 N328 0.984 . S
H341 N328 0.985 . S
C342 C343 1.363 . S
C342 C348 1.379 . S
C342 N350 1.356 . S
C343 C342 1.363 . S
C343 C349 1.363 . S
C344 C345 1.363 . S
C344 C349 1.379 . S
C344 N351 1.356 . S
C345 C344 1.363 . S
C345 C348 1.363 . S
N346 C348 1.356 . S
N346 H358 0.984 . S
N346 H359 0.985 . S
N347 C349 1.356 . S
N347 H352 0.984 . S
N347 H353 0.985 . S
C348 C342 1.379 . S
C348 C345 1.363 . S
C348 N346 1.356 . S
C349 C343 1.363 . S
C349 C344 1.379 . S
C349 N347 1.356 . S
N350 C342 1.356 . S
N350 H356 0.984 . S
N350 H357 0.984 . S
N351 C344 1.356 . S
N351 H354 0.984 . S
N351 H355 0.985 . S
H352 N347 0.984 . S
H353 N347 0.985 . S
H354 N351 0.984 . S
H355 N351 0.985 . S
H356 N350 0.984 . S
H357 N350 0.984 . S
H358 N346 0.984 . S
H359 N346 0.985 . S
C360 C361 1.363 . S
C360 C366 1.379 . S
C360 N368 1.356 . S
C361 C360 1.363 . S
C361 C367 1.363 . S
C362 C363 1.363 . S
C362 C367 1.379 . S
C362 N369 1.356 . S
C363 C362 1.363 . S
C363 C366 1.363 . S
N364 C366 1.356 . S
N364 H376 0.984 . S
N364 H377 0.985 . S
N365 C367 1.356 . S
N365 H370 0.984 . S
N365 H371 0.985 . S
C366 C360 1.379 . S
C366 C363 1.363 . S
C366 N364 1.356 . S
C367 C361 1.363 . S
C367 C362 1.379 . S
C367 N365 1.356 . S
N368 C360 1.356 . S
N368 H374 0.984 . S
N368 H375 0.984 . S
N369 C362 1.356 . S
N369 H372 0.984 . S
N369 H373 0.985 1_545 S
H370 N365 0.984 . S
H371 N365 0.985 . S
H372 N369 0.984 . S
H373 N369 0.985 1_565 S
H374 N368 0.984 . S
H375 N368 0.984 . S
H376 N364 0.984 . S
H377 N364 0.985 . S
C378 C379 1.363 . S
C378 C384 1.379 . S
C378 N386 1.356 . S
C379 C378 1.363 . S
C379 C385 1.363 . S
C380 C381 1.363 . S
C380 C385 1.379 . S
C380 N387 1.356 . S
C381 C380 1.363 . S
C381 C384 1.363 . S
N382 C384 1.356 . S
N382 H394 0.984 . S
N382 H395 0.985 . S
N383 C385 1.356 . S
N383 H388 0.984 . S
N383 H389 0.985 . S
C384 C378 1.379 . S
C384 C381 1.363 . S
C384 N382 1.356 . S
C385 C379 1.363 . S
C385 C380 1.379 . S
C385 N383 1.356 . S
N386 C378 1.356 . S
N386 H392 0.984 . S
N386 H393 0.984 . S
N387 C380 1.356 . S
N387 H390 0.984 . S
N387 H391 0.985 . S
H388 N383 0.984 . S
H389 N383 0.985 . S
H390 N387 0.984 . S
H391 N387 0.985 . S
H392 N386 0.984 . S
H393 N386 0.984 . S
H394 N382 0.984 . S
H395 N382 0.985 . S
C396 C397 1.363 . S
C396 C402 1.379 . S
C396 N404 1.356 . S
C397 C396 1.363 . S
C397 C403 1.354 1_565 S
C398 C399 1.363 1_545 S
C398 C403 1.379 . S
C398 N405 1.356 . S
C399 C398 1.363 1_565 S
C399 C402 1.363 . S
N400 C402 1.356 . S
N400 H412 0.984 . S
N400 H413 0.985 . S
N401 C403 1.363 . S
N401 H406 0.984 . S
N401 H407 0.985 . S
C402 C396 1.379 . S
C402 C399 1.363 . S
C402 N400 1.356 . S
C403 C397 1.354 1_545 S
C403 C398 1.379 . S
C403 N401 1.363 . S
N404 C396 1.356 . S
N404 H410 0.984 . S
N404 H411 0.984 . S
N405 C398 1.356 . S
N405 H408 0.984 . S
N405 H409 0.985 . S
H406 N401 0.984 . S
H407 N401 0.985 . S
H408 N405 0.984 . S
H409 N405 0.985 . S
H410 N404 0.984 . S
H411 N404 0.984 . S
H412 N400 0.984 . S
H413 N400 0.985 . S
C201 C171 1.433 . S
C199 C138 1.575 . S
C217 C21 1.562 . S
C219 C195 1.430 . S
C235 C60 1.661 . S
C237 C174 1.507 . S
C253 C99 1.679 . S
C255 C192 1.504 . S
C273 C172 1.686 . S
C271 C16 1.633 . S
C291 C194 1.624 . S
C289 C40 1.622 . S
C307 C79 1.610 . S
C309 C173 1.521 . S
C325 C133 1.614 . S
C327 C193 1.544 . S
C345 C191 1.521 . S
C343 C55 1.609 . S
C363 C170 1.623 . S
C361 C94 1.622 . S
C381 C190 1.687 . S
C379 C118 1.637 . S
C397 C1 1.613 . S
C399 C169 1.545 . S
