# Generated by pormake.
# Topology dag, (6,3)-cn, num edge types: 1
# Building blocks:
#     Node 0, Type 0, BuildingBlock: OJICUG_clean_sbu_0, # of connection points: 6
#     Node 1, Type 0, BuildingBlock: OJICUG_clean_sbu_0, # of connection points: 6
#     Node 2, Type 0, BuildingBlock: OJICUG_clean_sbu_0, # of connection points: 6
#     Node 3, Type 0, BuildingBlock: OJICUG_clean_sbu_0, # of connection points: 6
#     Node 4, Type 1, BuildingBlock: BETDIP_clean_linker_0, # of connection points: 3
#     Node 5, Type 1, BuildingBlock: BETDIP_clean_linker_0, # of connection points: 3
#     Node 6, Type 1, BuildingBlock: BETDIP_clean_linker_0, # of connection points: 3
#     Node 7, Type 1, BuildingBlock: BETDIP_clean_linker_0, # of connection points: 3
#     Node 8, Type 1, BuildingBlock: BETDIP_clean_linker_0, # of connection points: 3
#     Node 9, Type 1, BuildingBlock: BETDIP_clean_linker_0, # of connection points: 3
#     Node 10, Type 1, BuildingBlock: BETDIP_clean_linker_0, # of connection points: 3
#     Node 11, Type 1, BuildingBlock: BETDIP_clean_linker_0, # of connection points: 3
#     Edge 12, Type (0, 1), BuildingBlock: OJICUG_clean_linker_0, # of connection points: 2
#     Edge 13, Type (0, 1), BuildingBlock: OJICUG_clean_linker_0, # of connection points: 2
#     Edge 14, Type (0, 1), BuildingBlock: OJICUG_clean_linker_0, # of connection points: 2
#     Edge 15, Type (0, 1), BuildingBlock: OJICUG_clean_linker_0, # of connection points: 2
#     Edge 16, Type (0, 1), BuildingBlock: OJICUG_clean_linker_0, # of connection points: 2
#     Edge 17, Type (0, 1), BuildingBlock: OJICUG_clean_linker_0, # of connection points: 2
#     Edge 18, Type (0, 1), BuildingBlock: OJICUG_clean_linker_0, # of connection points: 2
#     Edge 19, Type (0, 1), BuildingBlock: OJICUG_clean_linker_0, # of connection points: 2
#     Edge 20, Type (0, 1), BuildingBlock: OJICUG_clean_linker_0, # of connection points: 2
#     Edge 21, Type (0, 1), BuildingBlock: OJICUG_clean_linker_0, # of connection points: 2
#     Edge 22, Type (0, 1), BuildingBlock: OJICUG_clean_linker_0, # of connection points: 2
#     Edge 23, Type (0, 1), BuildingBlock: OJICUG_clean_linker_0, # of connection points: 2
#     Edge 24, Type (0, 1), BuildingBlock: OJICUG_clean_linker_0, # of connection points: 2
#     Edge 25, Type (0, 1), BuildingBlock: OJICUG_clean_linker_0, # of connection points: 2
#     Edge 26, Type (0, 1), BuildingBlock: OJICUG_clean_linker_0, # of connection points: 2
#     Edge 27, Type (0, 1), BuildingBlock: OJICUG_clean_linker_0, # of connection points: 2
#     Edge 28, Type (0, 1), BuildingBlock: OJICUG_clean_linker_0, # of connection points: 2
#     Edge 29, Type (0, 1), BuildingBlock: OJICUG_clean_linker_0, # of connection points: 2
#     Edge 30, Type (0, 1), BuildingBlock: OJICUG_clean_linker_0, # of connection points: 2
#     Edge 31, Type (0, 1), BuildingBlock: OJICUG_clean_linker_0, # of connection points: 2
#     Edge 32, Type (0, 1), BuildingBlock: OJICUG_clean_linker_0, # of connection points: 2
#     Edge 33, Type (0, 1), BuildingBlock: OJICUG_clean_linker_0, # of connection points: 2
#     Edge 34, Type (0, 1), BuildingBlock: OJICUG_clean_linker_0, # of connection points: 2
#     Edge 35, Type (0, 1), BuildingBlock: OJICUG_clean_linker_0, # of connection points: 2
# Relax obj value: 0.091
# Max RMSD: 0.116
# Mean RMSD: 0.097
data_MOF--net-dag--node1-OJICUG_clean_sbu_0--node2-BETDIP_clean_linker_0--edge1-OJICUG_clean_linker_0
_symmetry_space_group_name_H-M    P1
_symmetry_Int_Tables_number       1
_symmetry_cell_setting            triclinic
loop_
_symmetry_equiv_pos_as_xyz
'x, y, z'
_cell_length_a     28.293938
_cell_length_b     27.760412
_cell_length_c     28.962254
_cell_angle_alpha  85.292488
_cell_angle_beta   90.024899
_cell_angle_gamma 90.075453
loop_
_atom_site_label
_atom_site_type_symbol
_atom_site_fract_x
_atom_site_fract_y
_atom_site_fract_z
_atom_type_partial_charge
Sc0 Sc 0.10286 0.88977 0.02098 0.0
Sc1 Sc 0.13088 0.77224 0.9942 0.0
Sc2 Sc 0.21509 0.86816 0.97724 0.0
O3 O 0.14967 0.8432 0.9973 0.0
C4 C 0.14775 0.95118 0.93347 0.0
C5 C 0.03715 0.82622 0.95906 0.0
C6 C 0.19431 0.79162 0.90325 0.0
C7 C 0.08307 0.79701 0.08947 0.0
C8 C 0.19743 0.92893 0.06383 0.0
C9 C 0.23583 0.76798 0.03645 0.0
O10 O 0.1162 0.94186 0.96409 0.0
O11 O 0.06394 0.78935 0.95991 0.0
O12 O 0.216 0.82718 0.91811 0.0
O13 O 0.08496 0.84227 0.07976 0.0
O14 O 0.22436 0.91387 0.03319 0.0
O15 O 0.19571 0.74922 0.02868 0.0
O16 O 0.15321 0.92156 0.06445 0.0
O17 O 0.09601 0.76649 0.06153 0.0
O18 O 0.24781 0.81043 0.02045 0.0
O19 O 0.04682 0.86337 0.98012 0.0
O20 O 0.18655 0.928 0.9326 0.0
O21 O 0.16239 0.7682 0.92649 0.0
Sc22 Sc 0.71659 0.62394 0.56213 0.0
Sc23 Sc 0.63215 0.71902 0.54243 0.0
Sc24 Sc 0.60552 0.60092 0.51614 0.0
O25 O 0.65151 0.64814 0.54035 0.0
C26 C 0.70125 0.56039 0.47692 0.0
C27 C 0.73794 0.72368 0.50227 0.0
C28 C 0.58668 0.69275 0.44636 0.0
C29 C 0.69377 0.70136 0.63473 0.0
C30 C 0.64826 0.54147 0.6058 0.0
C31 C 0.53785 0.66515 0.57552 0.0
O32 O 0.7274 0.57691 0.50748 0.0
O33 O 0.69749 0.74208 0.50906 0.0
O34 O 0.5894 0.64751 0.45612 0.0
O35 O 0.71605 0.66584 0.62065 0.0
O36 O 0.61731 0.55012 0.57444 0.0
O37 O 0.5648 0.70187 0.57561 0.0
O38 O 0.68711 0.56468 0.60697 0.0
O39 O 0.66221 0.72427 0.61063 0.0
O40 O 0.54806 0.62804 0.55463 0.0
O41 O 0.74996 0.68142 0.5188 0.0
O42 O 0.65706 0.56772 0.47495 0.0
O43 O 0.59831 0.72357 0.47457 0.0
Sc44 Sc 0.86396 0.23096 0.04134 0.0
Sc45 Sc 0.77983 0.13812 0.07047 0.0
Sc46 Sc 0.88688 0.11096 0.02027 0.0
O47 O 0.84351 0.16033 0.0441 0.0
C48 C 0.90827 0.20187 0.94794 0.0
C49 C 0.75561 0.23523 0.00877 0.0
C50 C 0.79077 0.07539 0.98298 0.0
C51 C 0.81077 0.21802 0.13812 0.0
C52 C 0.95639 0.17349 0.07687 0.0
C53 C 0.84117 0.05034 0.1084 0.0
O54 O 0.8897 0.23389 0.97093 0.0
O55 O 0.74499 0.19281 0.02577 0.0
O56 O 0.83357 0.08715 0.9753 0.0
O57 O 0.84232 0.23723 0.11147 0.0
O58 O 0.94249 0.13296 0.06423 0.0
O59 O 0.81002 0.0813 0.11694 0.0
O60 O 0.93388 0.21291 0.06803 0.0
O61 O 0.78382 0.18437 0.12658 0.0
O62 O 0.86794 0.05523 0.07313 0.0
O63 O 0.79595 0.25459 0.01407 0.0
O64 O 0.91145 0.15789 0.96306 0.0
O65 O 0.76813 0.08706 0.01841 0.0
Sc66 Sc 0.38901 0.38053 0.52193 0.0
Sc67 Sc 0.28135 0.35358 0.47064 0.0
Sc68 Sc 0.36396 0.25978 0.50405 0.0
O69 O 0.34466 0.33113 0.49885 0.0
C70 C 0.45964 0.31174 0.47204 0.0
C71 C 0.35035 0.43574 0.428 0.0
C72 C 0.31239 0.27128 0.40584 0.0
C73 C 0.29059 0.42136 0.5536 0.0
C74 C 0.40359 0.29334 0.59923 0.0
C75 C 0.25509 0.25761 0.53417 0.0
O76 O 0.44781 0.35171 0.48703 0.0
O77 O 0.31264 0.41107 0.42524 0.0
O78 O 0.34113 0.25034 0.43456 0.0
O79 O 0.33461 0.41435 0.55879 0.0
O80 O 0.39106 0.26005 0.57415 0.0
O81 O 0.24464 0.29873 0.51397 0.0
O82 O 0.40388 0.3377 0.58484 0.0
O83 O 0.26655 0.40385 0.52193 0.0
O84 O 0.296 0.23874 0.53253 0.0
O85 O 0.37944 0.42904 0.46129 0.0
O86 O 0.43382 0.27415 0.47606 0.0
O87 O 0.28792 0.30763 0.41492 0.0
H88 H 0.16091 0.22357 0.17378 0.0
H89 H 0.27396 0.11857 0.17817 0.0
H90 H 0.13803 0.08286 0.12631 0.0
H91 H 0.31377 0.16966 0.21685 0.0
C92 C 0.29071 0.19845 0.22622 0.0
C93 C 0.17408 0.18821 0.16693 0.0
C94 C 0.14356 0.15444 0.14927 0.0
C95 C 0.22099 0.17564 0.17839 0.0
C96 C 0.23798 0.12927 0.17023 0.0
C97 C 0.20764 0.09582 0.15206 0.0
C98 C 0.16093 0.10871 0.1415 0.0
N99 N 0.24827 0.20927 0.2014 0.0
H100 H 0.21836 0.60839 0.67569 0.0
H101 H 0.33756 0.70465 0.68439 0.0
H102 H 0.34681 0.58225 0.60353 0.0
H103 H 0.28192 0.75642 0.70678 0.0
C104 C 0.25757 0.73293 0.72701 0.0
C105 C 0.25381 0.61952 0.66534 0.0
C106 C 0.28027 0.59132 0.63716 0.0
C107 C 0.27353 0.6613 0.68157 0.0
C108 C 0.32078 0.67417 0.67007 0.0
C109 C 0.34765 0.64533 0.64232 0.0
C110 C 0.32652 0.60478 0.62515 0.0
N111 N 0.24634 0.68661 0.71284 0.0
H112 H 0.95119 0.76579 0.2874 0.0
H113 H 0.84728 0.88004 0.27998 0.0
H114 H 0.94188 0.86487 0.16625 0.0
H115 H 0.84789 0.86737 0.35723 0.0
C116 C 0.85342 0.82876 0.36414 0.0
C117 C 0.9346 0.79675 0.26878 0.0
C118 C 0.94973 0.81213 0.22402 0.0
C119 C 0.89815 0.82141 0.28975 0.0
C120 C 0.87654 0.86166 0.26513 0.0
C121 C 0.89172 0.87737 0.22018 0.0
C122 C 0.92856 0.85238 0.20027 0.0
N123 N 0.88278 0.80337 0.33462 0.0
H124 H 0.53646 0.26614 0.79828 0.0
H125 H 0.63841 0.38269 0.78689 0.0
H126 H 0.53962 0.36592 0.67707 0.0
H127 H 0.63788 0.37181 0.86424 0.0
C128 C 0.63435 0.33301 0.87172 0.0
C129 C 0.55199 0.29732 0.77898 0.0
C130 C 0.53416 0.31315 0.7353 0.0
C131 C 0.58927 0.32247 0.79833 0.0
C132 C 0.60924 0.36321 0.773 0.0
C133 C 0.5909 0.37952 0.72954 0.0
C134 C 0.55386 0.35382 0.71086 0.0
N135 N 0.60625 0.30544 0.84285 0.0
H136 H 0.66388 0.26018 0.37781 0.0
H137 H 0.77731 0.36511 0.36817 0.0
H138 H 0.64538 0.39971 0.42916 0.0
H139 H 0.81664 0.31152 0.33147 0.0
C140 C 0.79177 0.28489 0.32064 0.0
C141 C 0.67799 0.29512 0.385 0.0
C142 C 0.64891 0.32862 0.40477 0.0
C143 C 0.72428 0.3077 0.37126 0.0
C144 C 0.74211 0.35399 0.37887 0.0
C145 C 0.7133 0.38703 0.39955 0.0
C146 C 0.66732 0.37391 0.41284 0.0
N147 N 0.7495 0.27454 0.34585 0.0
H148 H 0.03906 0.23202 0.74822 0.0
H149 H 0.13833 0.11334 0.75447 0.0
H150 H 0.04584 0.13163 0.86886 0.0
H151 H 0.13265 0.12417 0.67706 0.0
C152 C 0.13077 0.16315 0.67008 0.0
C153 C 0.0549 0.20059 0.76677 0.0
C154 C 0.03908 0.18505 0.81128 0.0
C155 C 0.09045 0.17478 0.74562 0.0
C156 C 0.11058 0.1335 0.76984 0.0
C157 C 0.09402 0.11739 0.81403 0.0
C158 C 0.05888 0.14387 0.83463 0.0
N159 N 0.10548 0.19155 0.70035 0.0
H160 H 0.44766 0.72793 0.25244 0.0
H161 H 0.35409 0.60449 0.25495 0.0
H162 H 0.4533 0.61781 0.36518 0.0
H163 H 0.34794 0.62441 0.1797 0.0
C164 C 0.3515 0.66341 0.17474 0.0
C165 C 0.43472 0.69409 0.26914 0.0
C166 C 0.45428 0.67563 0.3113 0.0
C167 C 0.39886 0.66853 0.24804 0.0
C168 C 0.38221 0.62438 0.27007 0.0
C169 C 0.40233 0.60539 0.31199 0.0
C170 C 0.43791 0.63167 0.33242 0.0
N171 N 0.37985 0.68875 0.2053 0.0
H172 H 0.71889 0.88888 0.86042 0.0
H173 H 0.83525 0.78957 0.85069 0.0
H174 H 0.85095 0.91504 0.9266 0.0
H175 H 0.77663 0.73807 0.8328 0.0
C176 C 0.7533 0.76177 0.8116 0.0
C177 C 0.75458 0.87754 0.86953 0.0
C178 C 0.78287 0.90625 0.89571 0.0
C179 C 0.77266 0.83481 0.85384 0.0
C180 C 0.81991 0.82116 0.86428 0.0
C181 C 0.84857 0.85035 0.89014 0.0
C182 C 0.82932 0.89231 0.90628 0.0
N183 N 0.7438 0.80906 0.8242 0.0
C184 C 0.19392 0.96544 0.139 0.0
C185 C 0.21597 0.96278 0.09591 0.0
H186 H 0.17605 0.01085 0.19248 0.0
C187 C 0.2474 -0.00041 0.07963 0.0
H188 H 0.16996 0.93721 0.15247 0.0
C189 C 0.25067 0.04194 0.10252 0.0
C190 C 0.22299 0.0472 0.14194 0.0
H191 H 0.26482 -0.00171 0.04646 0.0
H192 H 0.27009 0.07247 0.08632 0.0
C193 C 0.19768 0.00735 0.16207 0.0
C194 C 0.46233 0.70458 0.59893 0.0
C195 C 0.49228 0.66408 0.60039 0.0
H196 H 0.39204 0.73043 0.61107 0.0
C197 C 0.4762 0.61985 0.62161 0.0
H198 H 0.474 0.73908 0.58268 0.0
C199 C 0.43016 0.61511 0.63812 0.0
C200 C 0.39867 0.65427 0.63316 0.0
H201 H 0.4988 0.58826 0.62389 0.0
H202 H 0.41847 0.57999 0.65295 0.0
C203 C 0.4156 0.69964 0.61513 0.0
C204 C 0.84859 0.00553 0.18719 0.0
C205 C 0.84611 0.00535 0.13878 0.0
H206 H 0.86575 0.96491 0.25135 0.0
C207 C 0.85269 0.96176 0.11837 0.0
H208 H 0.84363 0.03883 0.20363 0.0
C209 C 0.86418 0.91962 0.14539 0.0
C210 C 0.8706 0.9202 0.19349 0.0
H211 H 0.85012 0.96055 0.08113 0.0
H212 H 0.86979 0.88684 0.12827 0.0
C213 C 0.86108 0.96323 0.21441 0.0
C214 C 0.46641 0.25179 0.64709 0.0
C215 C 0.426 0.28121 0.64452 0.0
H216 H 0.53376 0.23873 0.67988 0.0
C217 C 0.41626 0.31025 0.68082 0.0
H218 H 0.47495 0.2297 0.6191 0.0
C219 C 0.44945 0.31477 0.71584 0.0
C220 C 0.49292 0.29072 0.71464 0.0
H221 H 0.38545 0.33349 0.67931 0.0
H222 H 0.44365 0.34157 0.74042 0.0
C223 C 0.50004 0.2569 0.68185 0.0
C224 C 0.75147 0.48848 0.46652 0.0
C225 C 0.72048 0.52435 0.44741 0.0
H226 H 0.7742 0.41489 0.46492 0.0
C227 C 0.6993 0.51864 0.40438 0.0
H228 H 0.76816 0.49201 0.49975 0.0
C229 C 0.70358 0.47502 0.38415 0.0
C230 C 0.72857 0.43647 0.40702 0.0
H231 H 0.67558 0.54597 0.38878 0.0
H232 H 0.68257 0.46938 0.35375 0.0
C233 C 0.7552 0.44442 0.44652 0.0
C234 C 0.97388 0.2425 0.90362 0.0
C235 C 0.93195 0.21544 0.90372 0.0
H236 H 0.04205 0.25436 0.87221 0.0
C237 C 0.92119 0.18943 0.86552 0.0
H238 H 0.98319 0.26199 0.93325 0.0
C239 C 0.95435 0.18584 0.83033 0.0
C240 C -0.00112 0.20755 0.83343 0.0
H241 H 0.8893 0.16777 0.86535 0.0
H242 H 0.94746 0.1613 0.80387 0.0
C243 C 0.00749 0.2382 0.86874 0.0
C244 C 0.40965 0.48496 0.38204 0.0
C245 C 0.36194 0.47454 0.39177 0.0
H246 H 0.4595 0.53344 0.34799 0.0
C247 C 0.32687 0.5043 0.37014 0.0
H248 H 0.43744 0.46217 0.39754 0.0
C249 C 0.33964 0.54591 0.34201 0.0
C250 C 0.3876 0.55792 0.33498 0.0
H251 H 0.28982 0.49701 0.37711 0.0
H252 H 0.31216 0.56993 0.32788 0.0
C253 C 0.42229 0.52589 0.35377 0.0
C254 C 0.9607 0.78825 0.9361 0.0
C255 C 0.99234 0.82748 0.93291 0.0
H256 H 0.88933 0.76477 0.92495 0.0
C257 C 0.97828 0.8713 0.90936 0.0
H258 H 0.97077 0.75415 0.95426 0.0
C259 C 0.93247 0.87716 0.8924 0.0
C260 C 0.89929 0.83958 0.89918 0.0
H261 H 0.00222 0.90189 0.90587 0.0
H262 H 0.92224 0.91209 0.876 0.0
C263 C 0.91424 0.79433 0.91939 0.0
C264 C 0.74753 -0.00164 0.9756 0.0
C265 C 0.77104 0.03891 0.95425 0.0
H266 H 0.73262 0.92282 0.97269 0.0
C267 C 0.78654 0.03797 0.90827 0.0
H268 H 0.73566 -0.00195 0.01119 0.0
C269 C 0.78434 0.99521 0.88628 0.0
C270 C 0.76668 0.95299 0.91004 0.0
H271 H 0.80471 0.06882 0.89108 0.0
H272 H 0.80106 0.99383 0.85275 0.0
C273 C 0.74577 0.95533 0.95367 0.0
C274 C 0.53734 0.27223 0.45771 0.0
C275 C 0.50537 0.31045 0.44828 0.0
H276 H 0.60909 0.24814 0.45135 0.0
C277 C 0.51912 0.35087 0.41921 0.0
H278 H 0.52725 0.24071 0.48009 0.0
C279 C 0.56502 0.35473 0.4024 0.0
C280 C 0.59847 0.31872 0.41507 0.0
H281 H 0.49475 0.3804 0.41083 0.0
H282 H 0.57499 0.38712 0.38118 0.0
C283 C 0.58391 0.27645 0.4413 0.0
C284 C 0.17138 0.0208 0.8764 0.0
C285 C 0.13657 0.98991 0.89707 0.0
H286 H 0.18509 0.0864 0.83342 0.0
C287 C 0.08893 -0.00173 0.88539 0.0
H288 H 0.20837 0.01497 0.88471 0.0
C289 C 0.07588 0.03827 0.85628 0.0
C290 C 0.11004 0.07126 0.83826 0.0
H291 H 0.06134 0.97453 0.89992 0.0
H292 H 0.03866 0.04438 0.84914 0.0
C293 C 0.15812 0.06146 0.84713 0.0
C294 C 0.57321 0.68496 0.36301 0.0
C295 C 0.56191 0.708 0.40296 0.0
H296 H 0.54702 0.65817 0.30064 0.0
C297 C 0.51861 0.73238 0.40497 0.0
H298 H 0.60624 0.6655 0.36099 0.0
C299 C 0.48444 0.72762 0.37061 0.0
C300 C 0.4938 0.69928 0.33369 0.0
H301 H 0.50883 0.74963 0.43581 0.0
H302 H 0.44915 0.74136 0.37565 0.0
C303 C 0.5394 0.68081 0.32846 0.0
C304 C 0.2466 0.49795 0.5583 0.0
C305 C 0.26947 0.45788 0.58109 0.0
H306 H 0.23177 0.57366 0.55933 0.0
C307 C 0.28336 0.45957 0.62744 0.0
H308 H 0.23615 0.49754 0.52233 0.0
C309 C 0.27999 0.50265 0.64873 0.0
C310 C 0.26329 0.54452 0.62366 0.0
H311 H 0.30121 0.42907 0.64554 0.0
H312 H 0.29559 0.50466 0.68271 0.0
C313 C 0.24402 0.54142 0.57939 0.0
C314 C 0.01479 0.75695 0.12994 0.0
C315 C 0.0581 0.78124 0.13258 0.0
H316 H 0.94513 0.74768 0.15858 0.0
C317 C 0.06912 0.80391 0.17287 0.0
H318 H 0.00524 0.74004 0.09882 0.0
C319 C 0.03504 0.80771 0.20723 0.0
C320 C 0.9895 0.7893 0.20139 0.0
H321 H 0.10215 0.82336 0.17532 0.0
H322 H 0.04247 0.83 0.23539 0.0
C323 C 0.98039 0.7614 0.16404 0.0
C324 C 0.58837 0.49671 0.65459 0.0
C325 C 0.63618 0.50379 0.64292 0.0
H326 H 0.5371 0.45284 0.69205 0.0
C327 C 0.67029 0.47275 0.66446 0.0
H328 H 0.56134 0.52065 0.63936 0.0
C329 C 0.65614 0.43316 0.6947 0.0
C330 C 0.60784 0.4246 0.70377 0.0
H331 H 0.7074 0.47761 0.65615 0.0
H332 H 0.68259 0.40806 0.70911 0.0
C333 C 0.57443 0.45783 0.68476 0.0
C334 C 0.01361 0.13418 0.13255 0.0
C335 C 0.00144 0.17411 0.10214 0.0
H336 H 0.0678 0.09795 0.17307 0.0
C337 C 0.03429 0.21173 0.09313 0.0
H338 H 0.98854 0.10517 0.14074 0.0
C339 C 0.08022 0.20722 0.11111 0.0
C340 C 0.09335 0.16531 0.13861 0.0
H341 H 0.0255 0.24296 0.06982 0.0
H342 H 0.10613 0.23488 0.1011 0.0
C343 C 0.05892 0.13008 0.151 0.0
C344 C 0.30491 0.76421 0.09085 0.0
C345 C 0.26863 0.74037 0.06848 0.0
H346 H 0.35944 0.75883 0.14229 0.0
C347 C 0.26189 0.69056 0.07962 0.0
H348 H 0.31096 0.80258 0.08326 0.0
C349 C 0.28994 0.66548 0.11324 0.0
C350 C 0.32481 0.68977 0.13681 0.0
H351 H 0.23441 0.67106 0.06292 0.0
H352 H 0.28347 0.6273 0.12175 0.0
C353 C 0.33255 0.73921 0.1249 0.0
C354 C 0.73495 0.68634 0.71091 0.0
C355 C 0.70603 0.71625 0.68119 0.0
H356 H 0.77199 0.67745 0.77551 0.0
C357 C 0.69041 0.76048 0.69599 0.0
H358 H 0.74729 0.65176 0.70093 0.0
C359 C 0.70476 0.77512 0.73893 0.0
C360 C 0.73469 0.74559 0.76785 0.0
H361 H 0.66804 0.78427 0.67404 0.0
H362 H 0.69301 0.80985 0.74901 0.0
C363 C 0.74902 0.70085 0.75377 0.0
C364 C 0.83844 0.26825 0.20105 0.0
C365 C 0.80623 0.23459 0.18519 0.0
H366 H 0.85923 0.30994 0.25681 0.0
C367 C 0.77034 0.21609 0.21517 0.0
H368 H 0.86678 0.28297 0.17904 0.0
C369 C 0.76626 0.23146 0.25965 0.0
C370 C 0.79807 0.26558 0.27512 0.0
H371 H 0.74511 0.18992 0.20427 0.0
H372 H 0.73784 0.21691 0.28164 0.0
C373 C 0.83441 0.28349 0.24565 0.0
C374 C 0.18253 0.25817 0.58342 0.0
C375 C 0.21933 0.2322 0.56435 0.0
H376 H 0.12566 0.25683 0.63223 0.0
C377 C 0.22406 0.18259 0.57767 0.0
H378 H 0.17805 0.29646 0.57398 0.0
C379 C 0.19375 0.15986 0.6107 0.0
C380 C 0.15874 0.18645 0.63152 0.0
H381 H 0.25189 0.16156 0.56337 0.0
H382 H 0.19887 0.12187 0.62128 0.0
C383 C 0.1527 0.23556 0.61699 0.0
C384 C 0.76344 0.80115 0.45876 0.0
C385 C 0.77108 0.75163 0.47077 0.0
H386 H 0.78413 0.86425 0.41587 0.0
C387 C 0.80848 0.72839 0.44961 0.0
H388 H 0.73514 0.82026 0.47457 0.0
C389 C 0.83617 0.75357 0.41568 0.0
C390 C 0.82732 0.8026 0.40264 0.0
H391 H 0.8153 0.69028 0.45796 0.0
H392 H 0.86384 0.73433 0.39908 0.0
C393 C 0.79148 0.8264 0.42521 0.0
C394 C 0.72723 0.3111 0.96445 0.0
C395 C 0.72099 0.26167 0.97793 0.0
H396 H 0.70398 0.37238 0.92047 0.0
C397 C 0.68352 0.23672 0.95856 0.0
H398 H 0.75558 0.33142 0.97887 0.0
C399 C 0.65445 0.26008 0.9248 0.0
C400 C 0.66193 0.30896 0.9102 0.0
H401 H 0.67774 0.19862 0.96806 0.0
H402 H 0.6268 0.23952 0.90955 0.0
C403 C 0.69774 0.33457 0.9311 0.0
C404 C 0.3374 0.21637 0.34564 0.0
C405 C 0.30788 0.25341 0.35931 0.0
H406 H 0.35533 0.1705 0.29219 0.0
C407 C 0.27437 0.27393 0.3277 0.0
H408 H 0.36389 0.20006 0.36895 0.0
C409 C 0.26971 0.2571 0.2839 0.0
C410 C 0.29853 0.21947 0.2707 0.0
H411 H 0.25128 0.30274 0.33685 0.0
H412 H 0.24304 0.27325 0.2607 0.0
C413 C 0.33281 0.19966 0.30164 0.0
C414 C 0.19169 0.73362 0.84098 0.0
C415 C 0.20781 0.77717 0.85697 0.0
H416 H 0.19467 0.68521 0.78719 0.0
C417 C 0.2384 0.80677 0.82866 0.0
H418 H 0.16808 0.71006 0.86183 0.0
C419 C 0.25345 0.79264 0.786 0.0
C420 C 0.23842 0.74863 0.77069 0.0
H421 H 0.25127 0.8408 0.8396 0.0
H422 H 0.27761 0.81579 0.76534 0.0
C423 C 0.20697 0.7194 0.79823 0.0
loop_
_geom_bond_atom_site_label_1
_geom_bond_atom_site_label_2
_geom_bond_distance
_geom_bond_site_symmetry_2
_ccdc_geom_bond_type
Sc0 O3 2.025 . S
Sc0 O10 2.105 1_554 S
Sc0 O13 2.105 . S
Sc0 O16 2.105 . S
Sc0 O19 2.105 1_554 S
Sc1 O3 2.025 . S
Sc1 O11 2.105 1_554 S
Sc1 O15 2.105 . S
Sc1 O17 2.105 . S
Sc1 O21 2.105 1_554 S
Sc2 O3 2.025 1_556 S
Sc2 O12 2.105 . S
Sc2 O14 2.105 1_556 S
Sc2 O18 2.105 1_556 S
Sc2 O20 2.105 . S
O3 Sc0 2.025 . S
O3 Sc1 2.025 . S
O3 Sc2 2.025 1_554 S
C4 O10 1.268 . S
C4 O20 1.268 . S
C5 O11 1.268 . S
C5 O19 1.268 . S
C6 O12 1.268 . S
C6 O21 1.268 . S
C7 O13 1.268 . S
C7 O17 1.268 . S
C8 O14 1.268 . S
C8 O16 1.268 . S
C9 O15 1.268 . S
C9 O18 1.268 . S
O10 Sc0 2.105 1_556 S
O10 C4 1.268 . S
O11 Sc1 2.105 1_556 S
O11 C5 1.268 . S
O12 Sc2 2.105 . S
O12 C6 1.268 . S
O13 Sc0 2.105 . S
O13 C7 1.268 . S
O14 Sc2 2.105 1_554 S
O14 C8 1.268 . S
O15 Sc1 2.105 . S
O15 C9 1.268 . S
O16 Sc0 2.105 . S
O16 C8 1.268 . S
O17 Sc1 2.105 . S
O17 C7 1.268 . S
O18 Sc2 2.105 1_554 S
O18 C9 1.268 . S
O19 Sc0 2.105 1_556 S
O19 C5 1.268 . S
O20 Sc2 2.105 . S
O20 C4 1.268 . S
O21 Sc1 2.105 1_556 S
O21 C6 1.268 . S
Sc22 O25 2.025 . S
Sc22 O32 2.105 . S
Sc22 O35 2.105 . S
Sc22 O38 2.105 . S
Sc22 O41 2.105 . S
Sc23 O25 2.025 . S
Sc23 O33 2.105 . S
Sc23 O37 2.105 . S
Sc23 O39 2.105 . S
Sc23 O43 2.105 . S
Sc24 O25 2.025 . S
Sc24 O34 2.105 . S
Sc24 O36 2.105 . S
Sc24 O40 2.105 . S
Sc24 O42 2.105 . S
O25 Sc22 2.025 . S
O25 Sc23 2.025 . S
O25 Sc24 2.025 . S
C26 O32 1.268 . S
C26 O42 1.268 . S
C27 O33 1.268 . S
C27 O41 1.268 . S
C28 O34 1.268 . S
C28 O43 1.268 . S
C29 O35 1.268 . S
C29 O39 1.268 . S
C30 O36 1.268 . S
C30 O38 1.268 . S
C31 O37 1.268 . S
C31 O40 1.268 . S
O32 Sc22 2.105 . S
O32 C26 1.268 . S
O33 Sc23 2.105 . S
O33 C27 1.268 . S
O34 Sc24 2.105 . S
O34 C28 1.268 . S
O35 Sc22 2.105 . S
O35 C29 1.268 . S
O36 Sc24 2.105 . S
O36 C30 1.268 . S
O37 Sc23 2.105 . S
O37 C31 1.268 . S
O38 Sc22 2.105 . S
O38 C30 1.268 . S
O39 Sc23 2.105 . S
O39 C29 1.268 . S
O40 Sc24 2.105 . S
O40 C31 1.268 . S
O41 Sc22 2.105 . S
O41 C27 1.268 . S
O42 Sc24 2.105 . S
O42 C26 1.268 . S
O43 Sc23 2.105 . S
O43 C28 1.268 . S
Sc44 O47 2.025 . S
Sc44 O54 2.105 1_554 S
Sc44 O57 2.105 . S
Sc44 O60 2.105 . S
Sc44 O63 2.105 1_554 S
Sc45 O47 2.025 . S
Sc45 O55 2.105 . S
Sc45 O59 2.105 . S
Sc45 O61 2.105 . S
Sc45 O65 2.105 . S
Sc46 O47 2.025 . S
Sc46 O56 2.105 1_554 S
Sc46 O58 2.105 . S
Sc46 O62 2.105 . S
Sc46 O64 2.105 1_554 S
O47 Sc44 2.025 . S
O47 Sc45 2.025 . S
O47 Sc46 2.025 . S
C48 O54 1.268 . S
C48 O64 1.268 . S
C49 O55 1.268 1_556 S
C49 O63 1.268 . S
C50 O56 1.268 . S
C50 O65 1.268 1_556 S
C51 O57 1.268 . S
C51 O61 1.268 . S
C52 O58 1.268 . S
C52 O60 1.268 . S
C53 O59 1.268 . S
C53 O62 1.268 . S
O54 Sc44 2.105 1_556 S
O54 C48 1.268 . S
O55 Sc45 2.105 . S
O55 C49 1.268 1_554 S
O56 Sc46 2.105 1_556 S
O56 C50 1.268 . S
O57 Sc44 2.105 . S
O57 C51 1.268 . S
O58 Sc46 2.105 . S
O58 C52 1.268 . S
O59 Sc45 2.105 . S
O59 C53 1.268 . S
O60 Sc44 2.105 . S
O60 C52 1.268 . S
O61 Sc45 2.105 . S
O61 C51 1.268 . S
O62 Sc46 2.105 . S
O62 C53 1.268 . S
O63 Sc44 2.105 1_556 S
O63 C49 1.268 . S
O64 Sc46 2.105 1_556 S
O64 C48 1.268 . S
O65 Sc45 2.105 . S
O65 C50 1.268 1_554 S
Sc66 O69 2.025 . S
Sc66 O76 2.105 . S
Sc66 O79 2.105 . S
Sc66 O82 2.105 . S
Sc66 O85 2.105 . S
Sc67 O69 2.025 . S
Sc67 O77 2.105 . S
Sc67 O81 2.105 . S
Sc67 O83 2.105 . S
Sc67 O87 2.105 . S
Sc68 O69 2.025 . S
Sc68 O78 2.105 . S
Sc68 O80 2.105 . S
Sc68 O84 2.105 . S
Sc68 O86 2.105 . S
O69 Sc66 2.025 . S
O69 Sc67 2.025 . S
O69 Sc68 2.025 . S
C70 O76 1.268 . S
C70 O86 1.268 . S
C71 O77 1.268 . S
C71 O85 1.268 . S
C72 O78 1.268 . S
C72 O87 1.268 . S
C73 O79 1.268 . S
C73 O83 1.268 . S
C74 O80 1.268 . S
C74 O82 1.268 . S
C75 O81 1.268 . S
C75 O84 1.268 . S
O76 Sc66 2.105 . S
O76 C70 1.268 . S
O77 Sc67 2.105 . S
O77 C71 1.268 . S
O78 Sc68 2.105 . S
O78 C72 1.268 . S
O79 Sc66 2.105 . S
O79 C73 1.268 . S
O80 Sc68 2.105 . S
O80 C74 1.268 . S
O81 Sc67 2.105 . S
O81 C75 1.268 . S
O82 Sc66 2.105 . S
O82 C74 1.268 . S
O83 Sc67 2.105 . S
O83 C73 1.268 . S
O84 Sc68 2.105 . S
O84 C75 1.268 . S
O85 Sc66 2.105 . S
O85 C71 1.268 . S
O86 Sc68 2.105 . S
O86 C70 1.268 . S
O87 Sc67 2.105 . S
O87 C72 1.268 . S
H88 C93 0.930 . S
H89 C96 0.930 . S
H90 C98 0.930 . S
H91 C92 1.016 . S
C92 H91 1.016 . S
C92 N99 1.286 . S
C93 H88 0.930 . S
C93 C94 1.397 . S
C93 C95 1.361 . S
C94 C93 1.397 . S
C94 C98 1.390 . S
C95 C93 1.361 . S
C95 C96 1.393 . S
C95 N99 1.413 . S
C96 H89 0.930 . S
C96 C95 1.393 . S
C96 C97 1.399 . S
C97 C96 1.399 . S
C97 C98 1.381 . S
C98 H90 0.930 . S
C98 C94 1.390 . S
C98 C97 1.381 . S
N99 C92 1.286 . S
N99 C95 1.413 . S
H100 C105 0.930 . S
H101 C108 0.930 . S
H102 C110 0.930 . S
H103 C104 1.016 . S
C104 H103 1.016 . S
C104 N111 1.286 . S
C105 H100 0.930 . S
C105 C106 1.397 . S
C105 C107 1.361 . S
C106 C105 1.397 . S
C106 C110 1.390 . S
C107 C105 1.361 . S
C107 C108 1.393 . S
C107 N111 1.413 . S
C108 H101 0.930 . S
C108 C107 1.393 . S
C108 C109 1.399 . S
C109 C108 1.399 . S
C109 C110 1.381 . S
C110 H102 0.930 . S
C110 C106 1.390 . S
C110 C109 1.381 . S
N111 C104 1.286 . S
N111 C107 1.413 . S
H112 C117 0.930 . S
H113 C120 0.930 . S
H114 C122 0.930 . S
H115 C116 1.016 . S
C116 H115 1.016 . S
C116 N123 1.286 . S
C117 H112 0.930 . S
C117 C118 1.397 . S
C117 C119 1.361 . S
C118 C117 1.397 . S
C118 C122 1.390 . S
C119 C117 1.361 . S
C119 C120 1.393 . S
C119 N123 1.413 . S
C120 H113 0.930 . S
C120 C119 1.393 . S
C120 C121 1.399 . S
C121 C120 1.399 . S
C121 C122 1.381 . S
C122 H114 0.930 . S
C122 C118 1.390 . S
C122 C121 1.381 . S
N123 C116 1.286 . S
N123 C119 1.413 . S
H124 C129 0.930 . S
H125 C132 0.930 . S
H126 C134 0.930 . S
H127 C128 1.016 . S
C128 H127 1.016 . S
C128 N135 1.286 . S
C129 H124 0.930 . S
C129 C130 1.397 . S
C129 C131 1.361 . S
C130 C129 1.397 . S
C130 C134 1.390 . S
C131 C129 1.361 . S
C131 C132 1.393 . S
C131 N135 1.413 . S
C132 H125 0.930 . S
C132 C131 1.393 . S
C132 C133 1.399 . S
C133 C132 1.399 . S
C133 C134 1.381 . S
C134 H126 0.930 . S
C134 C130 1.390 . S
C134 C133 1.381 . S
N135 C128 1.286 . S
N135 C131 1.413 . S
H136 C141 0.930 . S
H137 C144 0.930 . S
H138 C146 0.930 . S
H139 C140 1.016 . S
C140 H139 1.016 . S
C140 N147 1.286 . S
C141 H136 0.930 . S
C141 C142 1.397 . S
C141 C143 1.361 . S
C142 C141 1.397 . S
C142 C146 1.390 . S
C143 C141 1.361 . S
C143 C144 1.393 . S
C143 N147 1.413 . S
C144 H137 0.930 . S
C144 C143 1.393 . S
C144 C145 1.399 . S
C145 C144 1.399 . S
C145 C146 1.381 . S
C146 H138 0.930 . S
C146 C142 1.390 . S
C146 C145 1.381 . S
N147 C140 1.286 . S
N147 C143 1.413 . S
H148 C153 0.930 . S
H149 C156 0.930 . S
H150 C158 0.930 . S
H151 C152 1.016 . S
C152 H151 1.016 . S
C152 N159 1.286 . S
C153 H148 0.930 . S
C153 C154 1.397 . S
C153 C155 1.361 . S
C154 C153 1.397 . S
C154 C158 1.390 . S
C155 C153 1.361 . S
C155 C156 1.393 . S
C155 N159 1.413 . S
C156 H149 0.930 . S
C156 C155 1.393 . S
C156 C157 1.399 . S
C157 C156 1.399 . S
C157 C158 1.381 . S
C158 H150 0.930 . S
C158 C154 1.390 . S
C158 C157 1.381 . S
N159 C152 1.286 . S
N159 C155 1.413 . S
H160 C165 0.930 . S
H161 C168 0.930 . S
H162 C170 0.930 . S
H163 C164 1.016 . S
C164 H163 1.016 . S
C164 N171 1.286 . S
C165 H160 0.930 . S
C165 C166 1.397 . S
C165 C167 1.361 . S
C166 C165 1.397 . S
C166 C170 1.390 . S
C167 C165 1.361 . S
C167 C168 1.393 . S
C167 N171 1.413 . S
C168 H161 0.930 . S
C168 C167 1.393 . S
C168 C169 1.399 . S
C169 C168 1.399 . S
C169 C170 1.381 . S
C170 H162 0.930 . S
C170 C166 1.390 . S
C170 C169 1.381 . S
N171 C164 1.286 . S
N171 C167 1.413 . S
H172 C177 0.930 . S
H173 C180 0.930 . S
H174 C182 0.930 . S
H175 C176 1.016 . S
C176 H175 1.016 . S
C176 N183 1.286 . S
C177 H172 0.930 . S
C177 C178 1.397 . S
C177 C179 1.361 . S
C178 C177 1.397 . S
C178 C182 1.390 . S
C179 C177 1.361 . S
C179 C180 1.393 . S
C179 N183 1.413 . S
C180 H173 0.930 . S
C180 C179 1.393 . S
C180 C181 1.399 . S
C181 C180 1.399 . S
C181 C182 1.381 . S
C182 H174 0.930 . S
C182 C178 1.390 . S
C182 C181 1.381 . S
N183 C176 1.286 . S
N183 C179 1.413 . S
C184 C185 1.395 . S
C184 H188 0.950 . S
C184 C193 1.390 . S
C185 C184 1.395 . S
C185 C187 1.396 . S
H186 C193 0.950 . S
C187 C185 1.396 . S
C187 C189 1.390 . S
C187 H191 0.950 . S
H188 C184 0.950 . S
C189 C187 1.390 . S
C189 C190 1.387 . S
C189 H192 0.950 . S
C190 C189 1.387 . S
C190 C193 1.387 . S
H191 C187 0.950 . S
H192 C189 0.950 . S
C193 C184 1.390 . S
C193 H186 0.950 . S
C193 C190 1.387 . S
C194 C195 1.387 . S
C194 H198 0.950 . S
C194 C203 1.390 . S
C195 C194 1.387 . S
C195 C197 1.387 . S
H196 C203 0.950 . S
C197 C195 1.387 . S
C197 C199 1.390 . S
C197 H201 0.950 . S
H198 C194 0.950 . S
C199 C197 1.390 . S
C199 C200 1.387 . S
C199 H202 0.950 . S
C200 C199 1.387 . S
C200 C203 1.387 . S
H201 C197 0.950 . S
H202 C199 0.950 . S
C203 C194 1.390 . S
C203 H196 0.950 . S
C203 C200 1.387 . S
C204 C205 1.387 . S
C204 H208 0.950 . S
C204 C213 1.390 1_545 S
C205 C204 1.387 . S
C205 C207 1.387 1_545 S
H206 C213 0.950 . S
C207 C205 1.387 1_565 S
C207 C209 1.390 . S
C207 H211 0.950 . S
H208 C204 0.950 . S
C209 C207 1.390 . S
C209 C210 1.387 . S
C209 H212 0.950 . S
C210 C209 1.387 . S
C210 C213 1.387 . S
H211 C207 0.950 . S
H212 C209 0.950 . S
C213 C204 1.390 1_565 S
C213 H206 0.950 . S
C213 C210 1.387 . S
C214 C215 1.387 . S
C214 H218 0.950 . S
C214 C223 1.390 . S
C215 C214 1.387 . S
C215 C217 1.387 . S
H216 C223 0.950 . S
C217 C215 1.387 . S
C217 C219 1.390 . S
C217 H221 0.950 . S
H218 C214 0.950 . S
C219 C217 1.390 . S
C219 C220 1.387 . S
C219 H222 0.950 . S
C220 C219 1.387 . S
C220 C223 1.387 . S
H221 C217 0.950 . S
H222 C219 0.950 . S
C223 C214 1.390 . S
C223 H216 0.950 . S
C223 C220 1.387 . S
C224 C225 1.387 . S
C224 H228 0.950 . S
C224 C233 1.390 . S
C225 C224 1.387 . S
C225 C227 1.387 . S
H226 C233 0.950 . S
C227 C225 1.387 . S
C227 C229 1.390 . S
C227 H231 0.950 . S
H228 C224 0.950 . S
C229 C227 1.390 . S
C229 C230 1.387 . S
C229 H232 0.950 . S
C230 C229 1.387 . S
C230 C233 1.387 . S
H231 C227 0.950 . S
H232 C229 0.950 . S
C233 C224 1.390 . S
C233 H226 0.950 . S
C233 C230 1.387 . S
C234 C235 1.387 . S
C234 H238 0.950 . S
C234 C243 1.390 . S
C235 C234 1.387 . S
C235 C237 1.387 . S
H236 C243 0.950 . S
C237 C235 1.387 . S
C237 C239 1.390 . S
C237 H241 0.950 . S
H238 C234 0.950 . S
C239 C237 1.390 . S
C239 C240 1.387 1_655 S
C239 H242 0.950 . S
C240 C239 1.387 1_455 S
C240 C243 1.387 1_455 S
H241 C237 0.950 . S
H242 C239 0.950 . S
C243 C234 1.390 . S
C243 H236 0.950 . S
C243 C240 1.387 1_655 S
C244 C245 1.387 . S
C244 H248 0.950 . S
C244 C253 1.390 . S
C245 C244 1.387 . S
C245 C247 1.387 . S
H246 C253 0.950 . S
C247 C245 1.387 . S
C247 C249 1.390 . S
C247 H251 0.950 . S
H248 C244 0.950 . S
C249 C247 1.390 . S
C249 C250 1.387 . S
C249 H252 0.950 . S
C250 C249 1.387 . S
C250 C253 1.387 . S
H251 C247 0.950 . S
H252 C249 0.950 . S
C253 C244 1.390 . S
C253 H246 0.950 . S
C253 C250 1.387 . S
C254 C255 1.387 . S
C254 H258 0.950 . S
C254 C263 1.390 . S
C255 C254 1.387 . S
C255 C257 1.387 . S
H256 C263 0.950 . S
C257 C255 1.387 . S
C257 C259 1.390 . S
C257 H261 0.950 . S
H258 C254 0.950 . S
C259 C257 1.390 . S
C259 C260 1.387 . S
C259 H262 0.950 . S
C260 C259 1.387 . S
C260 C263 1.387 . S
H261 C257 0.950 . S
H262 C259 0.950 . S
C263 C254 1.390 . S
C263 H256 0.950 . S
C263 C260 1.387 . S
C264 C265 1.387 1_565 S
C264 H268 0.950 1_565 S
C264 C273 1.390 . S
C265 C264 1.387 1_545 S
C265 C267 1.387 1_545 S
H266 C273 0.950 . S
C267 C265 1.387 1_565 S
C267 C269 1.390 . S
C267 H271 0.950 . S
H268 C264 0.950 1_545 S
C269 C267 1.390 . S
C269 C270 1.387 . S
C269 H272 0.950 . S
C270 C269 1.387 . S
C270 C273 1.387 . S
H271 C267 0.950 . S
H272 C269 0.950 . S
C273 C264 1.390 . S
C273 H266 0.950 . S
C273 C270 1.387 . S
C274 C275 1.387 . S
C274 H278 0.950 . S
C274 C283 1.390 . S
C275 C274 1.387 . S
C275 C277 1.387 . S
H276 C283 0.950 . S
C277 C275 1.387 . S
C277 C279 1.390 . S
C277 H281 0.950 . S
H278 C274 0.950 . S
C279 C277 1.390 . S
C279 C280 1.387 . S
C279 H282 0.950 . S
C280 C279 1.387 . S
C280 C283 1.387 . S
H281 C277 0.950 . S
H282 C279 0.950 . S
C283 C274 1.390 . S
C283 H276 0.950 . S
C283 C280 1.387 . S
C284 C285 1.387 1_545 S
C284 H288 0.950 1_545 S
C284 C293 1.390 . S
C285 C284 1.387 1_565 S
C285 C287 1.387 1_565 S
H286 C293 0.950 . S
C287 C285 1.387 1_545 S
C287 C289 1.390 . S
C287 H291 0.950 . S
H288 C284 0.950 1_565 S
C289 C287 1.390 . S
C289 C290 1.387 . S
C289 H292 0.950 . S
C290 C289 1.387 . S
C290 C293 1.387 . S
H291 C287 0.950 . S
H292 C289 0.950 . S
C293 C284 1.390 . S
C293 H286 0.950 . S
C293 C290 1.387 . S
C294 C295 1.387 . S
C294 H298 0.950 . S
C294 C303 1.390 . S
C295 C294 1.387 . S
C295 C297 1.387 . S
H296 C303 0.950 . S
C297 C295 1.387 . S
C297 C299 1.390 . S
C297 H301 0.950 . S
H298 C294 0.950 . S
C299 C297 1.390 . S
C299 C300 1.387 . S
C299 H302 0.950 . S
C300 C299 1.387 . S
C300 C303 1.387 . S
H301 C297 0.950 . S
H302 C299 0.950 . S
C303 C294 1.390 . S
C303 H296 0.950 . S
C303 C300 1.387 . S
C304 C305 1.387 . S
C304 H308 0.950 . S
C304 C313 1.390 . S
C305 C304 1.387 . S
C305 C307 1.387 . S
H306 C313 0.950 . S
C307 C305 1.387 . S
C307 C309 1.390 . S
C307 H311 0.950 . S
H308 C304 0.950 . S
C309 C307 1.390 . S
C309 C310 1.387 . S
C309 H312 0.950 . S
C310 C309 1.387 . S
C310 C313 1.387 . S
H311 C307 0.950 . S
H312 C309 0.950 . S
C313 C304 1.390 . S
C313 H306 0.950 . S
C313 C310 1.387 . S
C314 C315 1.387 . S
C314 H318 0.950 . S
C314 C323 1.390 . S
C315 C314 1.387 . S
C315 C317 1.387 . S
H316 C323 0.951 . S
C317 C315 1.387 . S
C317 C319 1.390 . S
C317 H321 0.950 . S
H318 C314 0.950 . S
C319 C317 1.390 . S
C319 C320 1.387 1_455 S
C319 H322 0.955 . S
C320 C319 1.387 1_655 S
C320 C323 1.387 1_655 S
H321 C317 0.950 . S
H322 C319 0.955 . S
C323 C314 1.390 . S
C323 H316 0.951 . S
C323 C320 1.387 1_455 S
C324 C325 1.387 . S
C324 H328 0.950 . S
C324 C333 1.390 . S
C325 C324 1.387 . S
C325 C327 1.387 . S
H326 C333 0.950 . S
C327 C325 1.387 . S
C327 C329 1.390 . S
C327 H331 0.950 . S
H328 C324 0.950 . S
C329 C327 1.390 . S
C329 C330 1.387 . S
C329 H332 0.950 . S
C330 C329 1.387 . S
C330 C333 1.387 . S
H331 C327 0.950 . S
H332 C329 0.950 . S
C333 C324 1.390 . S
C333 H326 0.950 . S
C333 C330 1.387 . S
C334 C335 1.387 . S
C334 H338 0.950 . S
C334 C343 1.390 . S
C335 C334 1.387 . S
C335 C337 1.387 . S
H336 C343 0.950 . S
C337 C335 1.387 . S
C337 C339 1.390 . S
C337 H341 0.950 . S
H338 C334 0.950 . S
C339 C337 1.390 . S
C339 C340 1.387 . S
C339 H342 0.950 . S
C340 C339 1.387 . S
C340 C343 1.387 . S
H341 C337 0.950 . S
H342 C339 0.950 . S
C343 C334 1.390 . S
C343 H336 0.950 . S
C343 C340 1.387 . S
C344 C345 1.387 . S
C344 H348 0.950 . S
C344 C353 1.390 . S
C345 C344 1.387 . S
C345 C347 1.387 . S
H346 C353 0.950 . S
C347 C345 1.387 . S
C347 C349 1.390 . S
C347 H351 0.950 . S
H348 C344 0.950 . S
C349 C347 1.390 . S
C349 C350 1.387 . S
C349 H352 0.950 . S
C350 C349 1.387 . S
C350 C353 1.387 . S
H351 C347 0.950 . S
H352 C349 0.950 . S
C353 C344 1.390 . S
C353 H346 0.950 . S
C353 C350 1.387 . S
C354 C355 1.387 . S
C354 H358 0.950 . S
C354 C363 1.390 . S
C355 C354 1.387 . S
C355 C357 1.387 . S
H356 C363 0.950 . S
C357 C355 1.387 . S
C357 C359 1.390 . S
C357 H361 0.950 . S
H358 C354 0.950 . S
C359 C357 1.390 . S
C359 C360 1.387 . S
C359 H362 0.950 . S
C360 C359 1.387 . S
C360 C363 1.387 . S
H361 C357 0.950 . S
H362 C359 0.950 . S
C363 C354 1.390 . S
C363 H356 0.950 . S
C363 C360 1.387 . S
C364 C365 1.387 . S
C364 H368 0.950 . S
C364 C373 1.390 . S
C365 C364 1.387 . S
C365 C367 1.387 . S
H366 C373 0.950 . S
C367 C365 1.387 . S
C367 C369 1.390 . S
C367 H371 0.950 . S
H368 C364 0.950 . S
C369 C367 1.390 . S
C369 C370 1.387 . S
C369 H372 0.950 . S
C370 C369 1.387 . S
C370 C373 1.387 . S
H371 C367 0.950 . S
H372 C369 0.950 . S
C373 C364 1.390 . S
C373 H366 0.950 . S
C373 C370 1.387 . S
C374 C375 1.387 . S
C374 H378 0.950 . S
C374 C383 1.390 . S
C375 C374 1.387 . S
C375 C377 1.387 . S
H376 C383 0.950 . S
C377 C375 1.387 . S
C377 C379 1.390 . S
C377 H381 0.950 . S
H378 C374 0.950 . S
C379 C377 1.390 . S
C379 C380 1.387 . S
C379 H382 0.950 . S
C380 C379 1.387 . S
C380 C383 1.387 . S
H381 C377 0.950 . S
H382 C379 0.950 . S
C383 C374 1.390 . S
C383 H376 0.950 . S
C383 C380 1.387 . S
C384 C385 1.387 . S
C384 H388 0.950 . S
C384 C393 1.390 . S
C385 C384 1.387 . S
C385 C387 1.387 . S
H386 C393 0.950 . S
C387 C385 1.387 . S
C387 C389 1.390 . S
C387 H391 0.950 . S
H388 C384 0.950 . S
C389 C387 1.390 . S
C389 C390 1.387 . S
C389 H392 0.950 . S
C390 C389 1.387 . S
C390 C393 1.387 . S
H391 C387 0.950 . S
H392 C389 0.950 . S
C393 C384 1.390 . S
C393 H386 0.950 . S
C393 C390 1.387 . S
C394 C395 1.387 . S
C394 H398 0.950 . S
C394 C403 1.390 . S
C395 C394 1.387 . S
C395 C397 1.387 . S
H396 C403 0.950 . S
C397 C395 1.387 . S
C397 C399 1.390 . S
C397 H401 0.950 . S
H398 C394 0.950 . S
C399 C397 1.390 . S
C399 C400 1.387 . S
C399 H402 0.950 . S
C400 C399 1.387 . S
C400 C403 1.387 . S
H401 C397 0.950 . S
H402 C399 0.950 . S
C403 C394 1.390 . S
C403 H396 0.950 . S
C403 C400 1.387 . S
C404 C405 1.387 . S
C404 H408 0.950 . S
C404 C413 1.390 . S
C405 C404 1.387 . S
C405 C407 1.387 . S
H406 C413 0.950 . S
C407 C405 1.387 . S
C407 C409 1.390 . S
C407 H411 0.950 . S
H408 C404 0.950 . S
C409 C407 1.390 . S
C409 C410 1.387 . S
C409 H412 0.950 . S
C410 C409 1.387 . S
C410 C413 1.387 . S
H411 C407 0.950 . S
H412 C409 0.950 . S
C413 C404 1.390 . S
C413 H406 0.950 . S
C413 C410 1.387 . S
C414 C415 1.387 . S
C414 H418 0.950 . S
C414 C423 1.390 . S
C415 C414 1.387 . S
C415 C417 1.387 . S
H416 C423 0.950 . S
C417 C415 1.387 . S
C417 C419 1.390 . S
C417 H421 0.950 . S
H418 C414 0.950 . S
C419 C417 1.390 . S
C419 C420 1.387 . S
C419 H422 0.950 . S
C420 C419 1.387 . S
C420 C423 1.387 . S
H421 C417 0.950 . S
H422 C419 0.950 . S
C423 C414 1.390 . S
C423 H416 0.950 . S
C423 C420 1.387 . S
C185 C8 1.428 1_545 S
C190 C97 1.380 . S
C195 C31 1.461 . S
C200 C109 1.443 . S
C205 C53 1.432 . S
C210 C121 1.396 . S
C220 C130 1.333 . S
C215 C74 1.381 . S
C230 C145 1.379 . S
C225 C26 1.445 . S
C235 C48 1.380 . S
C240 C154 1.332 . S
C245 C71 1.433 . S
C250 C169 1.396 . S
C255 C5 1.460 1_655 S
C260 C181 1.443 . S
C265 C50 1.323 . S
C270 C178 1.312 . S
C280 C142 1.341 . S
C275 C70 1.315 . S
C290 C157 1.398 . S
C285 C4 1.423 . S
C295 C28 1.389 . S
C300 C166 1.324 . S
C310 C106 1.314 . S
C305 C73 1.324 . S
C315 C7 1.387 . S
C320 C118 1.327 . S
C330 C133 1.396 . S
C325 C30 1.425 . S
C340 C94 1.340 . S
C335 C52 1.318 1_455 S
C350 C164 1.421 . S
C345 C9 1.424 . S
C360 C176 1.417 . S
C355 C29 1.445 . S
C365 C51 1.449 . S
C370 C140 1.427 . S
C380 C152 1.390 . S
C375 C75 1.407 . S
C390 C116 1.422 . S
C385 C27 1.424 . S
C395 C49 1.406 . S
C400 C128 1.390 . S
C410 C92 1.426 . S
C405 C72 1.448 . S
C420 C104 1.419 . S
C415 C6 1.447 . S
