# Generated by pormake.
# Topology nom, (4,4)-cn, num edge types: 1
# Building blocks:
#     Node 0, Type 0, BuildingBlock: NAHDIM_clean_linker_0, # of connection points: 4
#     Node 1, Type 0, BuildingBlock: NAHDIM_clean_linker_0, # of connection points: 4
#     Node 2, Type 0, BuildingBlock: NAHDIM_clean_linker_0, # of connection points: 4
#     Node 3, Type 0, BuildingBlock: NAHDIM_clean_linker_0, # of connection points: 4
#     Node 4, Type 0, BuildingBlock: NAHDIM_clean_linker_0, # of connection points: 4
#     Node 5, Type 0, BuildingBlock: NAHDIM_clean_linker_0, # of connection points: 4
#     Node 6, Type 1, BuildingBlock: NAHDIM_clean_sbu_0, # of connection points: 4
#     Node 7, Type 1, BuildingBlock: NAHDIM_clean_sbu_0, # of connection points: 4
#     Node 8, Type 1, BuildingBlock: NAHDIM_clean_sbu_0, # of connection points: 4
#     Node 9, Type 1, BuildingBlock: NAHDIM_clean_sbu_0, # of connection points: 4
#     Node 10, Type 1, BuildingBlock: NAHDIM_clean_sbu_0, # of connection points: 4
#     Node 11, Type 1, BuildingBlock: NAHDIM_clean_sbu_0, # of connection points: 4
#     Edge 12, Type (0, 1), BuildingBlock: XUDNAN_clean_linker_2, # of connection points: 2
#     Edge 13, Type (0, 1), BuildingBlock: XUDNAN_clean_linker_2, # of connection points: 2
#     Edge 14, Type (0, 1), BuildingBlock: XUDNAN_clean_linker_2, # of connection points: 2
#     Edge 15, Type (0, 1), BuildingBlock: XUDNAN_clean_linker_2, # of connection points: 2
#     Edge 16, Type (0, 1), BuildingBlock: XUDNAN_clean_linker_2, # of connection points: 2
#     Edge 17, Type (0, 1), BuildingBlock: XUDNAN_clean_linker_2, # of connection points: 2
#     Edge 18, Type (0, 1), BuildingBlock: XUDNAN_clean_linker_2, # of connection points: 2
#     Edge 19, Type (0, 1), BuildingBlock: XUDNAN_clean_linker_2, # of connection points: 2
#     Edge 20, Type (0, 1), BuildingBlock: XUDNAN_clean_linker_2, # of connection points: 2
#     Edge 21, Type (0, 1), BuildingBlock: XUDNAN_clean_linker_2, # of connection points: 2
#     Edge 22, Type (0, 1), BuildingBlock: XUDNAN_clean_linker_2, # of connection points: 2
#     Edge 23, Type (0, 1), BuildingBlock: XUDNAN_clean_linker_2, # of connection points: 2
#     Edge 24, Type (0, 1), BuildingBlock: XUDNAN_clean_linker_2, # of connection points: 2
#     Edge 25, Type (0, 1), BuildingBlock: XUDNAN_clean_linker_2, # of connection points: 2
#     Edge 26, Type (0, 1), BuildingBlock: XUDNAN_clean_linker_2, # of connection points: 2
#     Edge 27, Type (0, 1), BuildingBlock: XUDNAN_clean_linker_2, # of connection points: 2
#     Edge 28, Type (0, 1), BuildingBlock: XUDNAN_clean_linker_2, # of connection points: 2
#     Edge 29, Type (0, 1), BuildingBlock: XUDNAN_clean_linker_2, # of connection points: 2
#     Edge 30, Type (0, 1), BuildingBlock: XUDNAN_clean_linker_2, # of connection points: 2
#     Edge 31, Type (0, 1), BuildingBlock: XUDNAN_clean_linker_2, # of connection points: 2
#     Edge 32, Type (0, 1), BuildingBlock: XUDNAN_clean_linker_2, # of connection points: 2
#     Edge 33, Type (0, 1), BuildingBlock: XUDNAN_clean_linker_2, # of connection points: 2
#     Edge 34, Type (0, 1), BuildingBlock: XUDNAN_clean_linker_2, # of connection points: 2
#     Edge 35, Type (0, 1), BuildingBlock: XUDNAN_clean_linker_2, # of connection points: 2
# Relax obj value: 0.064
# Max RMSD: 0.130
# Mean RMSD: 0.124
data_MOF--net-nom--node1-NAHDIM_clean_sbu_0--node2-NAHDIM_clean_linker_0--edge1-XUDNAN_clean_linker_2
_symmetry_space_group_name_H-M    P1
_symmetry_Int_Tables_number       1
_symmetry_cell_setting            triclinic
loop_
_symmetry_equiv_pos_as_xyz
'x, y, z'
_cell_length_a     56.806754
_cell_length_b     58.621753
_cell_length_c     70.001115
_cell_angle_alpha  90.110416
_cell_angle_beta   90.645406
_cell_angle_gamma 121.02459
loop_
_atom_site_label
_atom_site_type_symbol
_atom_site_fract_x
_atom_site_fract_y
_atom_site_fract_z
_atom_type_partial_charge
C0 C 0.15432 0.6242 0.22765 0.0
C1 C 0.16937 0.62434 0.24599 0.0
C2 C 0.13114 0.60445 0.26809 0.0
C3 C 0.12689 0.5788 0.27017 0.0
C4 C 0.10151 0.55768 0.2763 0.0
C5 C 0.0799 0.5623 0.28018 0.0
C6 C 0.08435 0.5883 0.27838 0.0
C7 C 0.11017 0.60915 0.27274 0.0
C8 C 0.09773 0.53038 0.27849 0.0
C9 C 0.06169 0.59398 0.28197 0.0
C10 C 0.98215 0.4377 0.17727 0.0
C11 C 0.97172 0.45314 0.18844 0.0
C12 C 0.97089 0.45494 0.22295 0.0
C13 C 0.97209 0.47924 0.22553 0.0
C14 C 0.98303 0.4941 0.24245 0.0
C15 C 0.99346 0.48466 0.25688 0.0
C16 C 0.99136 0.45964 0.25453 0.0
C17 C 0.97951 0.44483 0.2377 0.0
C18 C 0.98418 0.52027 0.24462 0.0
C19 C 0.00273 0.44908 0.26936 0.0
C20 C 0.88241 0.42476 0.35853 0.0
C21 C 0.88881 0.45018 0.35261 0.0
C22 C 0.9162 0.47034 0.34965 0.0
C23 C 0.93751 0.46487 0.35255 0.0
C24 C 0.93114 0.43951 0.35908 0.0
C25 C 0.90363 0.41987 0.36217 0.0
C26 C 0.92237 0.49742 0.34323 0.0
C27 C 0.95333 0.43302 0.36242 0.0
C28 C 0.12263 0.62419 0.41906 0.0
C29 C 0.10822 0.59417 0.42272 0.0
C30 C 0.06322 0.56801 0.40713 0.0
C31 C 0.04345 0.57304 0.39969 0.0
C32 C 0.02605 0.5577 0.38452 0.0
C33 C 0.02804 0.5363 0.37706 0.0
C34 C 0.04706 0.53024 0.38527 0.0
C35 C 0.06462 0.5463 0.40016 0.0
C36 C 0.00593 0.56467 0.37623 0.0
C37 C 0.04897 0.50691 0.37821 0.0
C38 C 0.05224 0.53974 0.28509 0.0
C39 C 0.03572 0.52303 0.27023 0.0
C40 C 0.00898 0.50206 0.27345 0.0
C41 C 0.99803 0.4979 0.29203 0.0
C42 C 0.97079 0.47789 0.29566 0.0
C43 C 0.96035 0.47375 0.31405 0.0
C44 C 0.97677 0.48949 0.32953 0.0
C45 C 0.96639 0.48542 0.34828 0.0
C46 C 0.98353 0.5009 0.36342 0.0
C47 C 0.01082 0.5208 0.36032 0.0
C48 C 0.02132 0.52572 0.34157 0.0
C49 C 0.0484 0.54615 0.33784 0.0
C50 C 0.05862 0.55072 0.31938 0.0
C51 C 0.04213 0.53511 0.30393 0.0
C52 C 0.01483 0.51428 0.30736 0.0
C53 C 0.0043 0.50983 0.32617 0.0
C54 C 0.8147 0.37208 0.34592 0.0
C55 C 0.83282 0.40128 0.35194 0.0
O56 O 0.15524 0.62509 0.26179 0.0
O57 O 0.08012 0.58402 0.42136 0.0
O58 O 0.85618 0.40451 0.36102 0.0
O59 O 0.9625 0.44143 0.2061 0.0
H60 H 0.17065 0.60605 0.24619 0.0
H61 H 0.13336 0.60624 0.22714 0.0
H62 H 0.1525 0.64218 0.22707 0.0
H63 H 0.16551 0.62374 0.21487 0.0
H64 H 0.14341 0.57525 0.26726 0.0
H65 H 0.11383 0.62913 0.27126 0.0
H66 H 0.08373 0.51703 0.26702 0.0
H67 H 0.11749 0.53084 0.27759 0.0
H68 H 0.08811 0.5217 0.29241 0.0
H69 H 0.06759 0.61453 0.27786 0.0
H70 H 0.04283 0.57966 0.27384 0.0
H71 H 0.0566 0.59144 0.29736 0.0
H72 H 0.98985 0.47369 0.19026 0.0
H73 H 0.98881 0.44629 0.16281 0.0
H74 H 1.00007 0.43904 0.18492 0.0
H75 H 0.96602 0.41633 0.17582 0.0
H76 H 0.96475 0.4867 0.21424 0.0
H77 H 0.97825 0.42592 0.23555 0.0
H78 H 0.00564 0.53687 0.24272 0.0
H79 H 0.97089 0.52243 0.23391 0.0
H80 H 0.97773 0.52219 0.25917 0.0
H81 H 0.00192 0.43064 0.26449 0.0
H82 H 0.02439 0.46432 0.27293 0.0
H83 H 0.99074 0.4446 0.28266 0.0
H84 H 0.83837 0.4132 0.33859 0.0
H85 H 0.87253 0.45439 0.35043 0.0
H86 H 0.89848 0.40029 0.367 0.0
H87 H 0.93064 0.50112 0.32853 0.0
H88 H 0.90384 0.49922 0.34324 0.0
H89 H 0.93834 0.51313 0.3527 0.0
H90 H 0.94487 0.41203 0.36679 0.0
H91 H 0.96534 0.43665 0.34919 0.0
H92 H 0.96774 0.44633 0.37375 0.0
H93 H 0.1151 0.58542 0.41155 0.0
H94 H 0.14499 0.63297 0.41695 0.0
H95 H 0.11417 0.62783 0.40579 0.0
H96 H 0.11932 0.63453 0.43112 0.0
H97 H 0.04225 0.58958 0.40545 0.0
H98 H 0.07919 0.54174 0.4065 0.0
H99 H 0.00888 0.56766 0.36058 0.0
H100 H 0.98463 0.54793 0.37849 0.0
H101 H 0.00817 0.58295 0.38283 0.0
H102 H 0.06222 0.50282 0.38763 0.0
H103 H 0.02819 0.48876 0.37727 0.0
H104 H 0.05767 0.51111 0.36364 0.0
H105 H 0.04382 0.52641 0.25587 0.0
H106 H 0.95722 0.46522 0.28429 0.0
H107 H 0.93926 0.45797 0.31599 0.0
H108 H 0.97552 0.49741 0.3778 0.0
H109 H 0.06204 0.55889 0.34915 0.0
H110 H 0.07965 0.56663 0.31738 0.0
H111 H 0.80826 0.35897 0.35863 0.0
H112 H 0.79608 0.36886 0.33808 0.0
H113 H 0.82628 0.36638 0.33631 0.0
C114 C 0.36894 0.87857 0.55598 0.0
C115 C 0.39037 0.87048 0.55302 0.0
C116 C 0.42158 0.90119 0.5299 0.0
C117 C 0.44855 0.90655 0.52965 0.0
C118 C 0.47039 0.93203 0.52505 0.0
C119 C 0.46493 0.9525 0.52084 0.0
C120 C 0.4375 0.94692 0.52091 0.0
C121 C 0.41608 0.92111 0.52505 0.0
C122 C 0.49925 0.93709 0.52479 0.0
C123 C 0.43076 0.96823 0.51687 0.0
C124 C 0.58243 0.04991 0.6251 0.0
C125 C 0.57248 0.06701 0.61565 0.0
C126 C 0.56888 0.06262 0.58098 0.0
C127 C 0.54293 0.05934 0.57758 0.0
C128 C 0.5282 0.04715 0.56066 0.0
C129 C 0.53966 0.03794 0.54699 0.0
C130 C 0.56621 0.04196 0.55019 0.0
C131 C 0.58068 0.05472 0.56705 0.0
C132 C 0.50029 0.04384 0.55748 0.0
C133 C 0.57901 0.03219 0.53607 0.0
C134 C 0.59021 0.15286 0.45127 0.0
C135 C 0.56297 0.14137 0.4573 0.0
C136 C 0.54574 0.11362 0.45814 0.0
C137 C 0.55616 0.09708 0.45315 0.0
C138 C 0.58323 0.10864 0.44621 0.0
C139 C 0.5998 0.13647 0.44511 0.0
C140 C 0.51659 0.10202 0.46479 0.0
C141 C 0.59493 0.09164 0.44059 0.0
C142 C 0.41365 0.90349 0.39422 0.0
C143 C 0.44381 0.92071 0.38862 0.0
C144 C 0.46585 0.96731 0.39751 0.0
C145 C 0.45602 0.98347 0.40376 0.0
C146 C 0.47032 0.00311 0.41785 0.0
C147 C 0.49532 0.00692 0.42542 0.0
C148 C 0.50645 0.99208 0.41792 0.0
C149 C 0.49149 0.97229 0.40408 0.0
C150 C 0.45805 0.01878 0.42538 0.0
C151 C 0.53353 0.99627 0.42516 0.0
C152 C 0.48779 0.97994 0.51686 0.0
C153 C 0.50321 0.99594 0.53235 0.0
C154 C 0.52331 0.02272 0.52991 0.0
C155 C 0.52763 0.0342 0.51157 0.0
C156 C 0.54633 0.06146 0.50876 0.0
C157 C 0.55022 0.07255 0.49065 0.0
C158 C 0.53573 0.05676 0.47463 0.0
C159 C 0.53917 0.06789 0.45619 0.0
C160 C 0.52567 0.05132 0.44042 0.0
C161 C 0.50812 0.02389 0.44265 0.0
C162 C 0.50313 0.01269 0.46112 0.0
C163 C 0.48434 0.98542 0.46397 0.0
C164 C 0.47936 0.97463 0.48219 0.0
C165 C 0.49317 0.9906 0.49824 0.0
C166 C 0.51274 0.01797 0.49565 0.0
C167 C 0.51725 0.02914 0.47711 0.0
C168 C 0.63884 0.21362 0.47305 0.0
C169 C 0.60911 0.19664 0.46588 0.0
O170 O 0.40085 0.8767 0.53473 0.0
O171 O 0.44995 0.94658 0.38558 0.0
O172 O 0.60776 0.17963 0.45155 0.0
O173 O 0.58318 0.07364 0.59743 0.0
H174 H 0.4074 0.88152 0.56365 0.0
H175 H 0.37896 0.90057 0.5561 0.0
H176 H 0.35309 0.87017 0.5444 0.0
H177 H 0.35873 0.87133 0.56996 0.0
H178 H 0.45244 0.89078 0.5332 0.0
H179 H 0.39501 0.91651 0.52475 0.0
H180 H 0.51128 0.95043 0.53692 0.0
H181 H 0.49966 0.91841 0.52601 0.0
H182 H 0.50956 0.94729 0.51139 0.0
H183 H 0.40912 0.96164 0.52028 0.0
H184 H 0.44456 0.98655 0.52527 0.0
H185 H 0.43399 0.97346 0.50151 0.0
H186 H 0.54962 0.05495 0.6151 0.0
H187 H 0.5739 0.04407 0.63968 0.0
H188 H 0.57541 0.0315 0.6165 0.0
H189 H 0.60524 0.06096 0.62609 0.0
H190 H 0.53428 0.06645 0.58808 0.0
H191 H 0.60093 0.05776 0.56974 0.0
H192 H 0.48424 0.02244 0.55848 0.0
H193 H 0.49587 0.05513 0.56817 0.0
H194 H 0.49883 0.05061 0.54294 0.0
H195 H 0.59885 0.03502 0.5414 0.0
H196 H 0.56476 0.01071 0.5329 0.0
H197 H 0.58272 0.04311 0.52245 0.0
H198 H 0.59703 0.18506 0.47846 0.0
H199 H 0.55523 0.15409 0.46144 0.0
H200 H 0.62075 0.14559 0.44019 0.0
H201 H 0.51472 0.09404 0.47941 0.0
H202 H 0.51033 0.11712 0.46512 0.0
H203 H 0.50213 0.08527 0.4553 0.0
H204 H 0.61682 0.10377 0.43643 0.0
H205 H 0.59322 0.07861 0.45265 0.0
H206 H 0.58289 0.07854 0.42837 0.0
H207 H 0.45618 0.91992 0.4008 0.0
H208 H 0.40826 0.88261 0.39659 0.0
H209 H 0.41011 0.91126 0.40769 0.0
H210 H 0.3999 0.90374 0.38291 0.0
H211 H 0.43638 0.97969 0.3983 0.0
H212 H 0.49949 0.96033 0.39865 0.0
H213 H 0.45355 0.01457 0.4408 0.0
H214 H 0.47304 0.04042 0.42403 0.0
H215 H 0.43877 0.0139 0.41767 0.0
H216 H 0.54131 0.98619 0.41594 0.0
H217 H 0.54917 0.01786 0.42594 0.0
H218 H 0.53093 0.98818 0.43982 0.0
H219 H 0.49935 0.9875 0.54656 0.0
H220 H 0.55798 0.07456 0.52057 0.0
H221 H 0.56483 0.09366 0.48937 0.0
H222 H 0.5288 0.05986 0.42627 0.0
H223 H 0.47299 0.97211 0.4522 0.0
H224 H 0.46461 0.95355 0.48353 0.0
H225 H 0.65279 0.22508 0.46121 0.0
H226 H 0.64047 0.22771 0.48436 0.0
H227 H 0.64574 0.20055 0.47921 0.0
C228 C 0.54898 0.41328 0.731 0.0
C229 C 0.55909 0.41016 0.7115 0.0
C230 C 0.54179 0.43305 0.69176 0.0
C231 C 0.56521 0.45874 0.69164 0.0
C232 C 0.56331 0.48075 0.68606 0.0
C233 C 0.53738 0.47704 0.68089 0.0
C234 C 0.51375 0.45114 0.68109 0.0
C235 C 0.51645 0.42943 0.68609 0.0
C236 C 0.58902 0.50797 0.6857 0.0
C237 C 0.48554 0.44633 0.67632 0.0
C238 C 0.56037 0.59259 0.78581 0.0
C239 C 0.53481 0.58051 0.7728 0.0
C240 C 0.53759 0.58127 0.73825 0.0
C241 C 0.51304 0.55756 0.73376 0.0
C242 C 0.51013 0.54383 0.71663 0.0
C243 C 0.53238 0.55391 0.70386 0.0
C244 C 0.55674 0.57846 0.708 0.0
C245 C 0.55882 0.59208 0.72506 0.0
C246 C 0.48356 0.51813 0.71246 0.0
C247 C 0.58099 0.58972 0.69482 0.0
C248 C 0.48251 0.61186 0.5998 0.0
C249 C 0.46328 0.58667 0.60687 0.0
C250 C 0.47076 0.56767 0.61052 0.0
C251 C 0.49809 0.57416 0.60724 0.0
C252 C 0.51728 0.59932 0.59969 0.0
C253 C 0.50909 0.61772 0.59585 0.0
C254 C 0.44948 0.54069 0.61793 0.0
C255 C 0.54652 0.60687 0.59592 0.0
C256 C 0.51363 0.41535 0.54343 0.0
C257 C 0.53062 0.44489 0.5383 0.0
C258 C 0.51446 0.4716 0.55376 0.0
C259 C 0.48963 0.46665 0.5613 0.0
C260 C 0.48912 0.48226 0.57632 0.0
C261 C 0.51414 0.50387 0.58351 0.0
C262 C 0.53931 0.50979 0.57524 0.0
C263 C 0.53921 0.49344 0.56051 0.0
C264 C 0.4619 0.47539 0.58471 0.0
C265 C 0.56628 0.53327 0.58206 0.0
C266 C 0.53475 0.50025 0.67581 0.0
C267 C 0.53545 0.51656 0.69065 0.0
C268 C 0.53108 0.53758 0.68718 0.0
C269 C 0.52528 0.54226 0.66838 0.0
C270 C 0.51942 0.56235 0.66447 0.0
C271 C 0.51344 0.56657 0.64593 0.0
C272 C 0.51313 0.55087 0.63058 0.0
C273 C 0.50656 0.55463 0.61173 0.0
C274 C 0.50737 0.53926 0.59673 0.0
C275 C 0.514 0.51971 0.60005 0.0
C276 C 0.51969 0.51503 0.61889 0.0
C277 C 0.52545 0.49486 0.62283 0.0
C278 C 0.53072 0.4902 0.64142 0.0
C279 C 0.5303 0.50542 0.6568 0.0
C280 C 0.52511 0.52623 0.65312 0.0
C281 C 0.51941 0.53078 0.63417 0.0
C282 C 0.46891 0.66363 0.61028 0.0
C283 C 0.4567 0.63403 0.60592 0.0
O284 O 0.54275 0.41127 0.69709 0.0
O285 O 0.51376 0.45548 0.53958 0.0
O286 O 0.47617 0.6309 0.59645 0.0
O287 O 0.5416 0.59359 0.75544 0.0
H288 H 0.5808 0.42634 0.70975 0.0
H289 H 0.55028 0.43281 0.73195 0.0
H290 H 0.52729 0.39721 0.73309 0.0
H291 H 0.5619 0.4125 0.74272 0.0
H292 H 0.58509 0.46174 0.69553 0.0
H293 H 0.49854 0.4095 0.68615 0.0
H294 H 0.5884 0.52041 0.69742 0.0
H295 H 0.60794 0.50702 0.68751 0.0
H296 H 0.59015 0.51801 0.672 0.0
H297 H 0.46898 0.42598 0.68025 0.0
H298 H 0.4821 0.46104 0.68384 0.0
H299 H 0.4839 0.44878 0.66074 0.0
H300 H 0.52869 0.55925 0.7708 0.0
H301 H 0.55502 0.58339 0.80018 0.0
H302 H 0.5759 0.58873 0.77956 0.0
H303 H 0.56985 0.61447 0.78731 0.0
H304 H 0.49627 0.54965 0.74373 0.0
H305 H 0.57758 0.61057 0.72861 0.0
H306 H 0.47673 0.5178 0.69748 0.0
H307 H 0.48689 0.50116 0.71415 0.0
H308 H 0.46694 0.51515 0.72222 0.0
H309 H 0.59886 0.60844 0.70052 0.0
H310 H 0.58737 0.57492 0.69256 0.0
H311 H 0.57504 0.59386 0.68068 0.0
H312 H 0.45189 0.62371 0.61995 0.0
H313 H 0.44238 0.58169 0.60934 0.0
H314 H 0.52365 0.63711 0.59015 0.0
H315 H 0.4549 0.5385 0.63282 0.0
H316 H 0.42854 0.53777 0.61779 0.0
H317 H 0.4492 0.52472 0.60918 0.0
H318 H 0.55943 0.62788 0.59131 0.0
H319 H 0.55584 0.60394 0.60901 0.0
H320 H 0.54671 0.59371 0.58458 0.0
H321 H 0.54813 0.45471 0.54866 0.0
H322 H 0.52659 0.40624 0.54366 0.0
H323 H 0.50482 0.41316 0.55787 0.0
H324 H 0.49648 0.40437 0.53296 0.0
H325 H 0.47062 0.45001 0.5557 0.0
H326 H 0.55838 0.49793 0.55409 0.0
H327 H 0.46237 0.47294 0.60041 0.0
H328 H 0.45814 0.49194 0.58214 0.0
H329 H 0.4445 0.45683 0.57842 0.0
H330 H 0.58354 0.53713 0.57263 0.0
H331 H 0.56483 0.55144 0.58274 0.0
H332 H 0.57103 0.52942 0.5967 0.0
H333 H 0.53911 0.51261 0.70519 0.0
H334 H 0.51922 0.57493 0.67574 0.0
H335 H 0.50904 0.58229 0.64377 0.0
H336 H 0.5025 0.54239 0.5823 0.0
H337 H 0.5258 0.48231 0.61161 0.0
H338 H 0.53507 0.47444 0.64358 0.0
H339 H 0.47424 0.67523 0.59684 0.0
H340 H 0.45408 0.66682 0.61833 0.0
H341 H 0.48788 0.67121 0.61915 0.0
C342 C 0.16542 0.56919 0.90882 0.0
C343 C 0.17195 0.56015 0.89005 0.0
C344 C 0.12599 0.52737 0.87728 0.0
C345 C 0.11823 0.54584 0.87222 0.0
C346 C 0.09194 0.53728 0.8647 0.0
C347 C 0.07304 0.50975 0.86207 0.0
C348 C 0.08085 0.49113 0.86687 0.0
C349 C 0.10727 0.50023 0.87441 0.0
C350 C 0.0842 0.55765 0.85972 0.0
C351 C 0.06121 0.46164 0.86415 0.0
C352 C 0.90023 0.44952 0.95121 0.0
C353 C 0.91432 0.46596 0.93427 0.0
C354 C 0.93667 0.46098 0.90603 0.0
C355 C 0.93926 0.44255 0.89502 0.0
C356 C 0.95906 0.45082 0.88075 0.0
C357 C 0.97645 0.47833 0.87723 0.0
C358 C 0.97368 0.49717 0.88812 0.0
C359 C 0.9538 0.48831 0.90246 0.0
C360 C 0.96156 0.43012 0.86959 0.0
C361 C 0.99176 0.52661 0.88459 0.0
C362 C 0.89277 0.46761 0.76733 0.0
C363 C 0.89513 0.44611 0.7735 0.0
C364 C 0.921 0.44954 0.77769 0.0
C365 C 0.94481 0.47521 0.7763 0.0
C366 C 0.94247 0.49663 0.76932 0.0
C367 C 0.91644 0.49236 0.76459 0.0
C368 C 0.92276 0.42588 0.78408 0.0
C369 C 0.96733 0.52421 0.76738 0.0
C370 C 0.14572 0.51314 0.73433 0.0
C371 C 0.12762 0.52356 0.72678 0.0
C372 C 0.0796 0.49981 0.73622 0.0
C373 C 0.06015 0.47439 0.74248 0.0
C374 C 0.03927 0.47059 0.75496 0.0
C375 C 0.03766 0.4928 0.76099 0.0
C376 C 0.05626 0.51835 0.75372 0.0
C377 C 0.07701 0.52158 0.74134 0.0
C378 C 0.01951 0.44302 0.76221 0.0
C379 C 0.05462 0.5423 0.75946 0.0
C380 C 0.04487 0.50054 0.8548 0.0
C381 C 0.02445 0.49466 0.86816 0.0
C382 C 0.99779 0.48716 0.86236 0.0
C383 C 0.99143 0.4863 0.8427 0.0
C384 C 0.96539 0.48073 0.83642 0.0
C385 C 0.95914 0.47934 0.81703 0.0
C386 C 0.97837 0.48263 0.80315 0.0
C387 C 0.97184 0.48019 0.78338 0.0
C388 C 0.99144 0.4834 0.77002 0.0
C389 C 0.01773 0.48957 0.77584 0.0
C390 C 0.02479 0.49257 0.79551 0.0
C391 C 0.05124 0.49932 0.80185 0.0
C392 C 0.05798 0.50224 0.82124 0.0
C393 C 0.0384 0.49804 0.83505 0.0
C394 C 0.01161 0.49109 0.82899 0.0
C395 C 0.00491 0.48874 0.8092 0.0
C396 C 0.83002 0.46535 0.77729 0.0
C397 C 0.84442 0.44966 0.77429 0.0
O398 O 0.15098 0.53467 0.88512 0.0
O399 O 0.10062 0.50266 0.72538 0.0
O400 O 0.86804 0.46521 0.76393 0.0
O401 O 0.91766 0.45143 0.92003 0.0
H402 H 0.17447 0.57424 0.87852 0.0
H403 H 0.14646 0.57008 0.90724 0.0
H404 H 0.1623 0.55513 0.92051 0.0
H405 H 0.18253 0.58938 0.91292 0.0
H406 H 0.13235 0.56695 0.87421 0.0
H407 H 0.11339 0.48611 0.87827 0.0
H408 H 0.06605 0.55386 0.86809 0.0
H409 H 0.1012 0.57836 0.86263 0.0
H410 H 0.07835 0.55577 0.84436 0.0
H411 H 0.07072 0.44975 0.86796 0.0
H412 H 0.04288 0.45514 0.87315 0.0
H413 H 0.05399 0.45733 0.84903 0.0
H414 H 0.90662 0.47884 0.92888 0.0
H415 H 0.93077 0.46603 0.97346 0.0
H416 H 0.88033 0.44938 0.95189 0.0
H417 H 0.89 0.42802 0.94654 0.0
H418 H 0.92591 0.42153 0.89789 0.0
H419 H 0.95172 0.50273 0.91079 0.0
H420 H 0.95587 0.43037 0.8544 0.0
H421 H 0.98316 0.4348 0.87001 0.0
H422 H 0.94809 0.40972 0.87518 0.0
H423 H 0.98569 0.53862 0.89324 0.0
H424 H 0.01341 0.53304 0.88818 0.0
H425 H 0.99088 0.53084 0.86922 0.0
H426 H 0.84985 0.44558 0.78873 0.0
H427 H 0.8768 0.42667 0.77502 0.0
H428 H 0.91433 0.50867 0.75948 0.0
H429 H 0.92585 0.42685 0.79981 0.0
H430 H 0.90371 0.40676 0.78045 0.0
H431 H 0.9405 0.42606 0.77742 0.0
H432 H 0.96171 0.53915 0.76338 0.0
H433 H 0.97927 0.53059 0.78101 0.0
H434 H 0.98091 0.52396 0.75621 0.0
H435 H 0.12989 0.53864 0.73751 0.0
H436 H 0.16766 0.52933 0.73462 0.0
H437 H 0.13967 0.50578 0.74913 0.0
H438 H 0.14336 0.49638 0.7254 0.0
H439 H 0.06202 0.45764 0.73813 0.0
H440 H 0.09125 0.54112 0.73575 0.0
H441 H 0.02194 0.44262 0.77794 0.0
H442 H 0.99805 0.4378 0.7592 0.0
H443 H 0.02282 0.42768 0.75559 0.0
H444 H 0.06958 0.56053 0.75172 0.0
H445 H 0.03358 0.5384 0.7566 0.0
H446 H 0.05874 0.54601 0.77504 0.0
H447 H 0.02933 0.49571 0.8833 0.0
H448 H 0.94964 0.47759 0.84644 0.0
H449 H 0.93885 0.4753 0.8131 0.0
H450 H 0.98627 0.48135 0.7549 0.0
H451 H 0.06709 0.50253 0.7919 0.0
H452 H 0.07866 0.50752 0.82527 0.0
H453 H 0.8239 0.46993 0.76333 0.0
H454 H 0.81142 0.45384 0.78612 0.0
H455 H 0.84413 0.48439 0.78485 0.0
C456 C 0.42356 0.8596 0.90112 0.0
C457 C 0.43754 0.85853 0.91974 0.0
C458 C 0.46861 0.90555 0.92894 0.0
C459 C 0.44807 0.91066 0.93468 0.0
C460 C 0.45493 0.93593 0.94148 0.0
C461 C 0.48281 0.95655 0.94248 0.0
C462 C 0.50353 0.95146 0.93688 0.0
C463 C 0.49612 0.92599 0.93023 0.0
C464 C 0.43235 0.94074 0.94738 0.0
C465 C 0.53347 0.97306 0.93769 0.0
C466 C 0.46195 0.06005 0.84431 0.0
C467 C 0.48861 0.06804 0.85529 0.0
C468 C 0.49169 0.06797 0.88971 0.0
C469 C 0.51472 0.06546 0.89245 0.0
C470 C 0.51747 0.05333 0.90888 0.0
C471 C 0.49642 0.043 0.92265 0.0
C472 C 0.47353 0.04625 0.92014 0.0
C473 C 0.47178 0.05926 0.90383 0.0
C474 C 0.54248 0.05082 0.91122 0.0
C475 C 0.45034 0.03501 0.93423 0.0
C476 C 0.5496 0.14541 0.02834 0.0
C477 C 0.56862 0.13999 0.02009 0.0
C478 C 0.56163 0.1137 0.01628 0.0
C479 C 0.53484 0.0925 0.02039 0.0
C480 C 0.51598 0.0979 0.02934 0.0
C481 C 0.52383 0.12435 0.03349 0.0
C482 C 0.58276 0.10866 0.00761 0.0
C483 C 0.48734 0.07581 0.03412 0.0
C484 C 0.50108 0.91192 0.07561 0.0
C485 C 0.49456 0.92928 0.0882 0.0
C486 C 0.5142 0.97129 0.07086 0.0
C487 C 0.53931 0.98916 0.06257 0.0
C488 C 0.5408 0.00545 0.0474 0.0
C489 C 0.51658 0.00424 0.04073 0.0
C490 C 0.4912 0.98683 0.04952 0.0
C491 C 0.49024 0.97045 0.06446 0.0
C492 C 0.56821 0.02385 0.03842 0.0
C493 C 0.46513 0.98573 0.04321 0.0
C494 C 0.49019 0.98381 0.9484 0.0
C495 C 0.49011 0.0006 0.93432 0.0
C496 C 0.49716 0.02668 0.93861 0.0
C497 C 0.50459 0.03644 0.95756 0.0
C498 C 0.51221 0.06267 0.96238 0.0
C499 C 0.51907 0.07193 0.98113 0.0
C500 C 0.51905 0.05547 0.99575 0.0
C501 C 0.52631 0.0648 0.01482 0.0
C502 C 0.52551 0.04771 0.02903 0.0
C503 C 0.5178 0.02143 0.02476 0.0
C504 C 0.51106 0.01191 0.00571 0.0
C505 C 0.50386 0.98578 0.00082 0.0
C506 C 0.49704 0.97652 0.98207 0.0
C507 C 0.49716 0.99303 0.96748 0.0
C508 C 0.50442 0.01947 0.97207 0.0
C509 C 0.51155 0.02896 0.99118 0.0
C510 C 0.55654 0.20789 0.01681 0.0
C511 C 0.57067 0.19179 0.01915 0.0
O512 O 0.46301 0.88157 0.92187 0.0
O513 O 0.51405 0.95591 0.0854 0.0
O514 O 0.55539 0.1707 0.03129 0.0
O515 O 0.48775 0.07768 0.8732 0.0
H516 H 0.42396 0.85655 0.93174 0.0
H517 H 0.41862 0.87558 0.90205 0.0
H518 H 0.43734 0.86402 0.88878 0.0
H519 H 0.40401 0.84044 0.8986 0.0
H520 H 0.42662 0.89528 0.93374 0.0
H521 H 0.51184 0.92194 0.92579 0.0
H522 H 0.43205 0.95564 0.93776 0.0
H523 H 0.41178 0.92227 0.94685 0.0
H524 H 0.4364 0.94907 0.96212 0.0
H525 H 0.54713 0.96588 0.93289 0.0
H526 H 0.53686 0.98991 0.92852 0.0
H527 H 0.53937 0.98084 0.95253 0.0
H528 H 0.48918 0.04936 0.85665 0.0
H529 H 0.46266 0.05315 0.82965 0.0
H530 H 0.44429 0.04348 0.85181 0.0
H531 H 0.45837 0.07694 0.84338 0.0
H532 H 0.53035 0.07274 0.8816 0.0
H533 H 0.45415 0.06145 0.90155 0.0
H534 H 0.55068 0.05593 0.92609 0.0
H535 H 0.53662 0.02989 0.90837 0.0
H536 H 0.55902 0.06386 0.90121 0.0
H537 H 0.43289 0.03707 0.92928 0.0
H538 H 0.44271 0.0136 0.93666 0.0
H539 H 0.45792 0.04552 0.94816 0.0
H540 H 0.57094 0.18416 0.00459 0.0
H541 H 0.58893 0.15625 0.01664 0.0
H542 H 0.50946 0.12879 0.04011 0.0
H543 H 0.57724 0.10261 0.99242 0.0
H544 H 0.60371 0.12664 0.00821 0.0
H545 H 0.58313 0.09217 0.01512 0.0
H546 H 0.47444 0.08352 0.03958 0.0
H547 H 0.47713 0.06326 0.02127 0.0
H548 H 0.4885 0.06286 0.04518 0.0
H549 H 0.47369 0.92507 0.08427 0.0
H550 H 0.48566 0.8905 0.07769 0.0
H551 H 0.50047 0.91667 0.06032 0.0
H552 H 0.52187 0.91553 0.0791 0.0
H553 H 0.55774 0.98995 0.06782 0.0
H554 H 0.47089 0.95761 0.07137 0.0
H555 H 0.56676 0.02032 0.02274 0.0
H556 H 0.57392 0.04483 0.04081 0.0
H557 H 0.58481 0.02115 0.0444 0.0
H558 H 0.44743 0.97253 0.05236 0.0
H559 H 0.46818 0.00603 0.04353 0.0
H560 H 0.45998 0.97828 0.02825 0.0
H561 H 0.4845 0.99324 0.91974 0.0
H562 H 0.51282 0.0763 0.95171 0.0
H563 H 0.52443 0.09222 0.98401 0.0
H564 H 0.53086 0.05493 0.04365 0.0
H565 H 0.50344 0.97219 0.01145 0.0
H566 H 0.49161 0.95622 0.97914 0.0
H567 H 0.55418 0.21533 0.03084 0.0
H568 H 0.56862 0.2251 0.00726 0.0
H569 H 0.53578 0.19511 0.01032 0.0
C570 C 0.59225 0.4409 0.06357 0.0
C571 C 0.60049 0.4461 0.08481 0.0
C572 C 0.59168 0.48111 0.09537 0.0
C573 C 0.56284 0.46499 0.09562 0.0
C574 C 0.54665 0.47524 0.10174 0.0
C575 C 0.55942 0.50228 0.10734 0.0
C576 C 0.58836 0.51867 0.10689 0.0
C577 C 0.60411 0.50779 0.101 0.0
C578 C 0.51582 0.45716 0.10207 0.0
C579 C 0.60262 0.54768 0.11257 0.0
C580 C 0.4652 0.56483 0.00625 0.0
C581 C 0.46346 0.54833 0.02283 0.0
C582 C 0.48364 0.55478 0.05481 0.0
C583 C 0.50389 0.57396 0.06693 0.0
C584 C 0.514 0.56661 0.08264 0.0
C585 C 0.50267 0.53928 0.08674 0.0
C586 C 0.48148 0.51974 0.07485 0.0
C587 C 0.47244 0.52768 0.05886 0.0
C588 C 0.53714 0.58809 0.09461 0.0
C589 C 0.46862 0.49041 0.07879 0.0
C590 C 0.43665 0.56921 0.19123 0.0
C591 C 0.46427 0.5868 0.1868 0.0
C592 C 0.48234 0.57744 0.18428 0.0
C593 C 0.4723 0.54982 0.18572 0.0
C594 C 0.44474 0.53226 0.19111 0.0
C595 C 0.42737 0.54234 0.19411 0.0
C596 C 0.5119 0.59701 0.17948 0.0
C597 C 0.43334 0.50276 0.19302 0.0
C598 C 0.58834 0.46638 0.22917 0.0
C599 C 0.56414 0.45996 0.24211 0.0
C600 C 0.55087 0.49192 0.23314 0.0
C601 C 0.56491 0.51898 0.22874 0.0
C602 C 0.55416 0.52907 0.21527 0.0
C603 C 0.52853 0.51161 0.20631 0.0
C604 C 0.51346 0.48451 0.21161 0.0
C605 C 0.52475 0.47496 0.22504 0.0
C606 C 0.57055 0.55813 0.21011 0.0
C607 C 0.48572 0.46552 0.20271 0.0
C608 C 0.54232 0.51347 0.11314 0.0
C609 C 0.53123 0.5217 0.09871 0.0
C610 C 0.5137 0.53109 0.10295 0.0
C611 C 0.50707 0.53249 0.12217 0.0
C612 C 0.48879 0.54095 0.12693 0.0
C613 C 0.48298 0.54293 0.14591 0.0
C614 C 0.49521 0.53648 0.16089 0.0
C615 C 0.49002 0.53911 0.18027 0.0
C616 C 0.5016 0.53141 0.19476 0.0
C617 C 0.51831 0.5211 0.19042 0.0
C618 C 0.52437 0.51906 0.17116 0.0
C619 C 0.54148 0.50919 0.16633 0.0
C620 C 0.54731 0.50724 0.14735 0.0
C621 C 0.53637 0.51519 0.13247 0.0
C622 C 0.51883 0.52492 0.13699 0.0
C623 C 0.51285 0.52689 0.15637 0.0
C624 C 0.38724 0.58213 0.17205 0.0
C625 C 0.41686 0.59462 0.1794 0.0
O626 O 0.60827 0.47198 0.08975 0.0
O627 O 0.56301 0.48276 0.24519 0.0
O628 O 0.41842 0.57755 0.19233 0.0
O629 O 0.47575 0.56318 0.03928 0.0
H630 H 0.58231 0.43161 0.09311 0.0
H631 H 0.57275 0.44059 0.06111 0.0
H632 H 0.60815 0.45683 0.05454 0.0
H633 H 0.58901 0.42131 0.059 0.0
H634 H 0.55262 0.44445 0.09097 0.0
H635 H 0.62631 0.52015 0.1007 0.0
H636 H 0.50635 0.46369 0.0911 0.0
H637 H 0.50921 0.43603 0.09916 0.0
H638 H 0.50784 0.45849 0.11618 0.0
H639 H 0.6252 0.55805 0.11063 0.0
H640 H 0.59431 0.5579 0.10394 0.0
H641 H 0.59849 0.54946 0.12779 0.0
H642 H 0.44286 0.53032 0.02516 0.0
H643 H 0.49155 0.56061 0.98685 0.0
H644 H 0.4432 0.5582 0.00258 0.0
H645 H 0.47007 0.58473 0.01217 0.0
H646 H 0.51238 0.59482 0.06367 0.0
H647 H 0.45655 0.51265 0.04966 0.0
H648 H 0.52927 0.58914 0.10882 0.0
H649 H 0.55355 0.58338 0.09693 0.0
H650 H 0.54629 0.60798 0.0879 0.0
H651 H 0.44891 0.47824 0.07083 0.0
H652 H 0.48294 0.48392 0.07429 0.0
H653 H 0.46483 0.48638 0.09429 0.0
H654 H 0.42941 0.59702 0.16658 0.0
H655 H 0.47164 0.60779 0.18517 0.0
H656 H 0.40607 0.52904 0.19783 0.0
H657 H 0.51502 0.59548 0.16402 0.0
H658 H 0.51772 0.61785 0.1827 0.0
H659 H 0.52589 0.59241 0.18755 0.0
H660 H 0.41092 0.49155 0.19577 0.0
H661 H 0.4372 0.49474 0.17981 0.0
H662 H 0.44398 0.49923 0.20502 0.0
H663 H 0.54522 0.44439 0.23467 0.0
H664 H 0.58991 0.44842 0.22704 0.0
H665 H 0.58517 0.4729 0.21497 0.0
H666 H 0.60796 0.48261 0.23544 0.0
H667 H 0.58483 0.53201 0.23537 0.0
H668 H 0.51311 0.45426 0.22915 0.0
H669 H 0.57635 0.56007 0.19485 0.0
H670 H 0.55779 0.56729 0.21193 0.0
H671 H 0.58954 0.56936 0.21899 0.0
H672 H 0.47586 0.44543 0.20918 0.0
H673 H 0.47189 0.47353 0.20436 0.0
H674 H 0.48803 0.46355 0.18717 0.0
H675 H 0.53608 0.5205 0.08393 0.0
H676 H 0.47881 0.54625 0.11603 0.0
H677 H 0.46878 0.54962 0.14865 0.0
H678 H 0.49729 0.53316 0.20957 0.0
H679 H 0.55065 0.5029 0.17716 0.0
H680 H 0.56062 0.49952 0.1445 0.0
H681 H 0.38546 0.59574 0.1619 0.0
H682 H 0.38102 0.56317 0.16442 0.0
H683 H 0.37286 0.57772 0.18401 0.0
C684 C 0.59418 0.34549 0.41822 0.0
O685 O 0.58121 0.35675 0.42521 0.0
O686 O 0.66834 0.41275 0.39553 0.0
Zn687 Zn 0.6277 0.39646 0.39924 0.0
O688 O 0.6192 0.41467 0.4205 0.0
C689 C 0.62123 0.41834 0.3642 0.0
O690 O 0.64419 0.43929 0.37031 0.0
O691 O 0.61368 0.35839 0.40665 0.0
C692 C 0.60494 0.42542 0.41752 0.0
O693 O 0.59662 0.42597 0.40005 0.0
C694 C 0.68297 0.41154 0.4089 0.0
O695 O 0.67167 0.40202 0.42551 0.0
O696 O 0.61017 0.39737 0.37424 0.0
C697 C 0.2753 0.6749 0.55614 0.0
O698 O 0.26693 0.66489 0.53889 0.0
O699 O 0.26884 0.6057 0.57032 0.0
Zn700 Zn 0.243 0.61959 0.56916 0.0
O701 O 0.21951 0.6085 0.545 0.0
C702 C 0.21064 0.58632 0.60092 0.0
O703 O 0.21558 0.56868 0.5934 0.0
O704 O 0.26718 0.65948 0.57043 0.0
C705 C 0.19436 0.59002 0.54482 0.0
O706 O 0.18341 0.57691 0.5606 0.0
C707 C 0.28393 0.60812 0.55627 0.0
O708 O 0.28043 0.6173 0.54005 0.0
O709 O 0.2198 0.60866 0.59281 0.0
C710 C 0.5887 0.25931 0.72417 0.0
O711 O 0.57771 0.23635 0.71512 0.0
O712 O 0.66676 0.2716 0.7463 0.0
Zn713 Zn 0.62686 0.2448 0.74095 0.0
O714 O 0.6242 0.22303 0.71777 0.0
C715 C 0.61858 0.20533 0.76813 0.0
O716 O 0.63911 0.20679 0.75859 0.0
O717 O 0.60869 0.26602 0.73573 0.0
C718 C 0.60401 0.19965 0.71463 0.0
O719 O 0.58361 0.18911 0.72672 0.0
C720 C 0.68172 0.28352 0.73204 0.0
O721 O 0.67084 0.27689 0.71479 0.0
O722 O 0.60966 0.22048 0.76343 0.0
C723 C 0.43525 0.68988 0.91018 0.0
O724 O 0.43 0.67294 0.92407 0.0
O725 O 0.37876 0.62309 0.89007 0.0
Zn726 Zn 0.42032 0.64302 0.88917 0.0
O727 O 0.43677 0.63194 0.9103 0.0
C728 C 0.41783 0.61392 0.85552 0.0
O729 O 0.39358 0.59705 0.86248 0.0
O730 O 0.43323 0.68192 0.89299 0.0
C731 C 0.43434 0.60918 0.91133 0.0
O732 O 0.41985 0.591 0.89826 0.0
C733 C 0.36384 0.60449 0.90153 0.0
O734 O 0.37543 0.59661 0.9141 0.0
O735 O 0.43292 0.63605 0.86411 0.0
C736 C 0.75092 0.40943 0.09385 0.0
O737 O 0.7588 0.40013 0.10802 0.0
O738 O 0.75911 0.35493 0.06695 0.0
Zn739 Zn 0.78373 0.39408 0.07311 0.0
O740 O 0.80827 0.40123 0.09613 0.0
C741 C 0.82101 0.39857 0.04569 0.0
O742 O 0.81637 0.37741 0.05526 0.0
O743 O 0.75975 0.40979 0.07717 0.0
C744 C 0.82395 0.4258 0.10011 0.0
O745 O 0.82206 0.44339 0.08965 0.0
C746 C 0.73728 0.33898 0.07575 0.0
O747 O 0.73063 0.3474 0.091 0.0
O748 O 0.80867 0.41056 0.05062 0.0
C749 C 0.42689 0.75076 0.23809 0.0
O750 O 0.4088 0.74363 0.25176 0.0
O751 O 0.38143 0.77793 0.23844 0.0
Zn752 Zn 0.42268 0.79834 0.23609 0.0
O753 O 0.43425 0.82449 0.21452 0.0
C754 C 0.43246 0.83518 0.26555 0.0
O755 O 0.41713 0.83964 0.25376 0.0
O756 O 0.43593 0.7732 0.23015 0.0
C757 C 0.45912 0.84342 0.21379 0.0
O758 O 0.4763 0.84585 0.22748 0.0
C759 C 0.36563 0.75677 0.22901 0.0
O760 O 0.3762 0.7479 0.21654 0.0
O761 O 0.4386 0.8179 0.26094 0.0
H762 H 0.2145 0.62853 0.22887 0.0
H763 H 0.18919 0.67442 0.26233 0.0
H764 H 0.23647 0.71323 0.26144 0.0
H765 H 0.28192 0.65542 0.24955 0.0
H766 H 0.29771 0.65598 0.22723 0.0
H767 H 0.26202 0.63169 0.23093 0.0
H768 H 0.24883 0.64775 0.20038 0.0
H769 H 0.28449 0.67216 0.19662 0.0
H770 H 0.25961 0.68242 0.19816 0.0
H771 H 0.28684 0.74673 0.25749 0.0
H772 H 0.33615 0.77294 0.24977 0.0
H773 H 0.32794 0.70577 0.21757 0.0
C774 C 0.21903 0.6467 0.23617 0.0
C775 C 0.19838 0.64819 0.24614 0.0
C776 C 0.20482 0.67254 0.25503 0.0
C777 C 0.23158 0.69475 0.25452 0.0
C778 C 0.25151 0.69245 0.24474 0.0
C779 C 0.24551 0.66911 0.2356 0.0
C780 C 0.27044 0.67205 0.22565 0.0
C781 C 0.2785 0.65264 0.23384 0.0
C782 C 0.26554 0.66838 0.20391 0.0
C783 C 0.29154 0.70061 0.23083 0.0
C784 C 0.28022 0.71202 0.24187 0.0
C785 C 0.29588 0.73806 0.24876 0.0
C786 C 0.32387 0.75277 0.24431 0.0
C787 C 0.33587 0.74146 0.23298 0.0
C788 C 0.31934 0.71508 0.22609 0.0
H789 H 0.62664 0.23021 0.43481 0.0
H790 H 0.56843 0.20297 0.48109 0.0
H791 H 0.55446 0.23492 0.47157 0.0
H792 H 0.65013 0.29746 0.44076 0.0
H793 H 0.65436 0.30549 0.41572 0.0
H794 H 0.65676 0.27783 0.42426 0.0
H795 H 0.61856 0.24636 0.40024 0.0
H796 H 0.6161 0.274 0.39156 0.0
H797 H 0.58595 0.24464 0.40018 0.0
H798 H 0.55025 0.2728 0.45914 0.0
H799 H 0.55674 0.31427 0.44516 0.0
H800 H 0.61863 0.31761 0.40749 0.0
C801 C 0.61056 0.23064 0.44267 0.0
C802 C 0.5985 0.21406 0.45863 0.0
C803 C 0.57779 0.21539 0.46875 0.0
C804 C 0.5697 0.23343 0.46343 0.0
C805 C 0.5825 0.24999 0.44793 0.0
C806 C 0.60244 0.2487 0.43765 0.0
C807 C 0.61472 0.27026 0.42269 0.0
C808 C 0.64583 0.28886 0.42607 0.0
C809 C 0.60845 0.25808 0.40247 0.0
C810 C 0.59919 0.28438 0.42656 0.0
C811 C 0.58039 0.27213 0.44096 0.0
C812 C 0.56466 0.28238 0.44769 0.0
C813 C 0.56852 0.30597 0.43966 0.0
C814 C 0.58815 0.31919 0.4252 0.0
C815 C 0.6033 0.30791 0.41841 0.0
H816 H 0.40478 0.61564 0.61878 0.0
H817 H 0.45049 0.63143 0.56642 0.0
H818 H 0.4087 0.62007 0.54764 0.0
H819 H 0.33705 0.56095 0.60006 0.0
H820 H 0.31852 0.57264 0.61367 0.0
H821 H 0.35066 0.57755 0.62272 0.0
H822 H 0.36982 0.62825 0.62571 0.0
H823 H 0.33786 0.62352 0.61665 0.0
H824 H 0.36954 0.64636 0.60501 0.0
H825 H 0.36365 0.6124 0.53488 0.0
H826 H 0.31967 0.61048 0.52925 0.0
H827 H 0.30351 0.60025 0.59004 0.0
C828 C 0.40568 0.61579 0.60333 0.0
C829 C 0.43063 0.6236 0.59405 0.0
C830 C 0.43142 0.62476 0.57382 0.0
C831 C 0.40778 0.61837 0.56304 0.0
C832 C 0.38357 0.61103 0.57269 0.0
C833 C 0.38236 0.60968 0.5924 0.0
C834 C 0.35481 0.60419 0.59942 0.0
C835 C 0.33935 0.57722 0.60956 0.0
C836 C 0.35823 0.62693 0.61246 0.0
C837 C 0.34097 0.60342 0.58063 0.0
C838 C 0.35772 0.60704 0.56535 0.0
C839 C 0.35018 0.60912 0.5467 0.0
C840 C 0.32516 0.60804 0.54365 0.0
C841 C 0.30804 0.60507 0.55917 0.0
C842 C 0.31587 0.6021 0.57781 0.0
H843 H 0.80386 0.40381 0.7901 0.0
H844 H 0.84021 0.43762 0.73547 0.0
H845 H 0.80529 0.39626 0.71918 0.0
H846 H 0.78152 0.33359 0.77894 0.0
H847 H 0.74986 0.32108 0.79169 0.0
H848 H 0.78005 0.35171 0.79927 0.0
H849 H 0.75297 0.37614 0.79653 0.0
H850 H 0.72279 0.34567 0.78891 0.0
H851 H 0.73612 0.37489 0.77424 0.0
H852 H 0.76417 0.3531 0.70862 0.0
H853 H 0.71888 0.31217 0.70438 0.0
H854 H 0.70836 0.30696 0.76588 0.0
C855 C 0.80487 0.40215 0.77476 0.0
C856 C 0.82518 0.4236 0.76412 0.0
C857 C 0.82529 0.4212 0.74398 0.0
C858 C 0.80552 0.39779 0.7346 0.0
C859 C 0.78564 0.3771 0.74553 0.0
C860 C 0.78513 0.37907 0.76518 0.0
C861 C 0.76005 0.35513 0.77342 0.0
C862 C 0.76838 0.33945 0.78661 0.0
C863 C 0.74192 0.36347 0.78389 0.0
C864 C 0.74619 0.33962 0.7553 0.0
C865 C 0.76147 0.35246 0.7394 0.0
C866 C 0.75217 0.34271 0.72098 0.0
C867 C 0.72637 0.31946 0.71872 0.0
C868 C 0.71007 0.30632 0.73479 0.0
C869 C 0.72042 0.31637 0.75332 0.0
H870 H 0.43664 0.82417 0.89064 0.0
H871 H 0.4478 0.83929 0.95185 0.0
H872 H 0.45268 0.80005 0.95579 0.0
H873 H 0.3949 0.75463 0.8936 0.0
H874 H 0.40892 0.74784 0.87287 0.0
H875 H 0.40907 0.77855 0.8746 0.0
H876 H 0.46175 0.80519 0.86976 0.0
H877 H 0.46178 0.77452 0.86805 0.0
H878 H 0.4836 0.79951 0.88543 0.0
H879 H 0.45267 0.75753 0.95347 0.0
H880 H 0.44735 0.71422 0.94516 0.0
H881 H 0.43559 0.72652 0.88549 0.0
C882 C 0.44016 0.8195 0.90492 0.0
C883 C 0.44128 0.8347 0.92108 0.0
C884 C 0.44646 0.82772 0.93935 0.0
C885 C 0.44938 0.80557 0.94171 0.0
C886 C 0.44734 0.79065 0.9256 0.0
C887 C 0.4429 0.79732 0.90757 0.0
C888 C 0.43995 0.77706 0.89277 0.0
C889 C 0.41152 0.76373 0.88289 0.0
C890 C 0.46316 0.78984 0.87814 0.0
C891 C 0.44285 0.75766 0.90539 0.0
C892 C 0.44739 0.76605 0.92425 0.0
C893 C 0.4494 0.75087 0.93872 0.0
C894 C 0.44628 0.72626 0.93385 0.0
C895 C 0.44113 0.71701 0.91467 0.0
C896 C 0.43985 0.73319 0.90024 0.0
H897 H 0.64692 0.45658 0.06381 0.0
H898 H 0.60714 0.42621 0.11824 0.0
H899 H 0.64344 0.41695 0.1275 0.0
H900 H 0.66429 0.40768 0.05594 0.0
H901 H 0.69685 0.42999 0.0451 0.0
H902 H 0.6694 0.43677 0.04351 0.0
H903 H 0.70113 0.48345 0.05861 0.0
H904 H 0.72871 0.47679 0.06028 0.0
H905 H 0.71772 0.48629 0.08133 0.0
H906 H 0.68223 0.40864 0.13017 0.0
H907 H 0.72017 0.40036 0.12572 0.0
H908 H 0.7336 0.43426 0.06894 0.0
C909 C 0.64565 0.44789 0.07764 0.0
C910 C 0.6236 0.44137 0.0901 0.0
C911 C 0.62348 0.4308 0.10831 0.0
C912 C 0.64406 0.42562 0.11374 0.0
C913 C 0.66488 0.43138 0.10087 0.0
C914 C 0.66586 0.44227 0.08321 0.0
C915 C 0.68967 0.44521 0.07165 0.0
C916 C 0.67943 0.42893 0.05295 0.0
C917 C 0.71054 0.47469 0.06774 0.0
C918 C 0.70142 0.43357 0.08539 0.0
C919 C 0.6871 0.42618 0.10229 0.0
C920 C 0.69372 0.41449 0.11705 0.0
C921 C 0.71534 0.40989 0.11438 0.0
C922 C 0.72986 0.41665 0.09698 0.0
C923 C 0.72292 0.42891 0.08241 0.0
H924 H 0.36001 0.8286 0.5277 0.0
H925 H 0.38979 0.84595 0.58637 0.0
H926 H 0.36476 0.79779 0.59329 0.0
H927 H 0.29348 0.77565 0.53739 0.0
H928 H 0.29083 0.75575 0.5169 0.0
H929 H 0.31253 0.79142 0.51613 0.0
H930 H 0.35419 0.78695 0.5074 0.0
H931 H 0.33255 0.75122 0.50797 0.0
H932 H 0.36337 0.76779 0.52252 0.0
H933 H 0.33434 0.74831 0.59435 0.0
H934 H 0.3019 0.70032 0.58928 0.0
H935 H 0.29252 0.71483 0.52964 0.0
C936 C 0.36176 0.8222 0.54187 0.0
C937 C 0.37736 0.84094 0.55642 0.0
C938 C 0.37843 0.83185 0.57496 0.0
C939 C 0.36423 0.80459 0.57902 0.0
C940 C 0.34904 0.78667 0.56438 0.0
C941 C 0.34787 0.79504 0.54614 0.0
C942 C 0.3294 0.77165 0.53316 0.0
C943 C 0.30512 0.77375 0.52545 0.0
C944 C 0.34587 0.76926 0.5168 0.0
C945 C 0.31992 0.74888 0.54706 0.0
C946 C 0.33155 0.75801 0.56497 0.0
C947 C 0.32529 0.74088 0.58035 0.0
C948 C 0.30675 0.71365 0.57732 0.0
C949 C 0.29469 0.70377 0.55905 0.0
C950 C 0.30149 0.72172 0.54374 0.0
H951 H 0.59482 0.39821 0.72864 0.0
H952 H 0.52104 0.36254 0.69309 0.0
H953 H 0.52068 0.32029 0.69243 0.0
H954 H 0.62713 0.36592 0.70749 0.0
H955 H 0.63992 0.36114 0.72989 0.0
H956 H 0.63468 0.38874 0.72713 0.0
H957 H 0.60303 0.37311 0.7566 0.0
H958 H 0.60816 0.34543 0.75944 0.0
H959 H 0.57386 0.33962 0.7571 0.0
H960 H 0.52902 0.282 0.69515 0.0
H961 H 0.54438 0.25033 0.70217 0.0
H962 H 0.61121 0.31056 0.73728 0.0
C963 C 0.57869 0.38153 0.72063 0.0
C964 C 0.55838 0.38394 0.71059 0.0
C965 C 0.5372 0.36147 0.7006 0.0
C966 C 0.53673 0.33731 0.7002 0.0
C967 C 0.55722 0.33573 0.71016 0.0
C968 C 0.57764 0.35718 0.72034 0.0
C969 C 0.59676 0.35011 0.73034 0.0
C970 C 0.62637 0.36751 0.72328 0.0
C971 C 0.59536 0.35219 0.75216 0.0
C972 C 0.58422 0.32146 0.7239 0.0
C973 C 0.56143 0.3135 0.71227 0.0
C974 C 0.54674 0.28797 0.70435 0.0
C975 C 0.55562 0.27012 0.70841 0.0
C976 C 0.5789 0.27789 0.72034 0.0
C977 C 0.59322 0.3039 0.7282 0.0
H978 H 0.22298 0.59759 0.87699 0.0
H979 H 0.18117 0.52417 0.909 0.0
H980 H 0.22551 0.52657 0.91456 0.0
H981 H 0.27281 0.58515 0.85426 0.0
H982 H 0.30005 0.61952 0.85598 0.0
H983 H 0.26486 0.61121 0.85386 0.0
H984 H 0.27073 0.63803 0.88486 0.0
H985 H 0.30588 0.64632 0.88711 0.0
H986 H 0.2825 0.63014 0.90648 0.0
H987 H 0.27485 0.5385 0.91808 0.0
H988 H 0.32522 0.55828 0.9185 0.0
H989 H 0.33431 0.62334 0.8835 0.0
C990 C 0.22312 0.5818 0.88491 0.0
C991 C 0.19863 0.56046 0.89231 0.0
C992 C 0.19969 0.54046 0.90297 0.0
C993 C 0.22474 0.5417 0.90622 0.0
C994 C 0.24852 0.56306 0.89873 0.0
C995 C 0.24789 0.58267 0.8882 0.0
C996 C 0.27639 0.60389 0.88215 0.0
C997 C 0.27865 0.60499 0.86026 0.0
C998 C 0.28433 0.6312 0.89067 0.0
C999 C 0.29322 0.59329 0.89105 0.0
C1000 C 0.2768 0.56975 0.90058 0.0
C1001 C 0.28788 0.5568 0.91052 0.0
C1002 C 0.31651 0.56822 0.91073 0.0
C1003 C 0.33367 0.59227 0.90096 0.0
C1004 C 0.32174 0.60479 0.89093 0.0
H1005 H 0.58765 0.21635 0.05453 0.0
H1006 H 0.61889 0.20722 0.00063 0.0
H1007 H 0.66625 0.23941 0.01156 0.0
H1008 H 0.62992 0.28444 0.05775 0.0
H1009 H 0.6351 0.28614 0.08329 0.0
H1010 H 0.60437 0.25893 0.07277 0.0
H1011 H 0.61473 0.22531 0.08904 0.0
H1012 H 0.64559 0.25251 0.09965 0.0
H1013 H 0.64737 0.22791 0.08527 0.0
H1014 H 0.70915 0.27622 0.02652 0.0
H1015 H 0.74433 0.31636 0.04375 0.0
H1016 H 0.68525 0.30275 0.08772 0.0
C1017 C 0.60457 0.22071 0.04525 0.0
C1018 C 0.5997 0.2092 0.0268 0.0
C1019 C 0.62224 0.21568 0.01488 0.0
C1020 C 0.64918 0.23385 0.02099 0.0
C1021 C 0.65325 0.24536 0.03908 0.0
C1022 C 0.63158 0.23903 0.05107 0.0
C1023 C 0.64121 0.25635 0.06891 0.0
C1024 C 0.6268 0.27242 0.07077 0.0
C1025 C 0.63698 0.23951 0.08677 0.0
C1026 C 0.67147 0.27418 0.06468 0.0
C1027 C 0.67809 0.2671 0.04761 0.0
C1028 C 0.70433 0.28172 0.04004 0.0
C1029 C 0.72417 0.30454 0.04993 0.0
C1030 C 0.71759 0.31272 0.06711 0.0
C1031 C 0.69105 0.29688 0.07476 0.0
H1032 H 0.39729 0.60622 0.21174 0.0
H1033 H 0.45795 0.64354 0.16736 0.0
H1034 H 0.47103 0.68787 0.1802 0.0
H1035 H 0.37364 0.65029 0.2094 0.0
H1036 H 0.36794 0.65069 0.23465 0.0
H1037 H 0.36627 0.62201 0.22387 0.0
H1038 H 0.4032 0.62577 0.2479 0.0
H1039 H 0.40495 0.65451 0.25879 0.0
H1040 H 0.43569 0.65662 0.24995 0.0
H1041 H 0.47399 0.72776 0.19548 0.0
H1042 H 0.46611 0.76055 0.21172 0.0
H1043 H 0.40279 0.69747 0.2459 0.0
C1044 C 0.41368 0.62375 0.20498 0.0
C1045 C 0.42669 0.62151 0.18859 0.0
C1046 C 0.44783 0.64485 0.17998 0.0
C1047 C 0.45544 0.67009 0.1872 0.0
C1048 C 0.44173 0.67164 0.20307 0.0
C1049 C 0.42133 0.64911 0.2119 0.0
C1050 C 0.4081 0.65628 0.22763 0.0
C1051 C 0.37716 0.6441 0.22364 0.0
C1052 C 0.41331 0.64779 0.24723 0.0
C1053 C 0.42366 0.68631 0.22587 0.0
C1054 C 0.44324 0.69477 0.2118 0.0
C1055 C 0.459 0.72144 0.20671 0.0
C1056 C 0.45432 0.73991 0.216 0.0
C1057 C 0.43392 0.73162 0.23015 0.0
C1058 C 0.41881 0.70451 0.23536 0.0
H1059 H 0.79656 0.41654 0.34135 0.0
H1060 H 0.83141 0.40124 0.39163 0.0
H1061 H 0.80075 0.40857 0.41208 0.0
H1062 H 0.78292 0.46669 0.36313 0.0
H1063 H 0.75079 0.45358 0.35025 0.0
H1064 H 0.77861 0.45164 0.33987 0.0
H1065 H 0.74669 0.40058 0.33578 0.0
H1066 H 0.71887 0.40236 0.34616 0.0
H1067 H 0.72936 0.38069 0.35632 0.0
H1068 H 0.76287 0.41245 0.42671 0.0
H1069 H 0.71965 0.41074 0.43422 0.0
H1070 H 0.70869 0.4225 0.37431 0.0
C1071 C 0.79832 0.41562 0.35671 0.0
C1072 C 0.81694 0.40914 0.36491 0.0
C1073 C 0.81788 0.40693 0.38504 0.0
C1074 C 0.80051 0.41104 0.39677 0.0
C1075 C 0.78216 0.41711 0.38819 0.0
C1076 C 0.78095 0.41939 0.3686 0.0
C1077 C 0.75739 0.4231 0.36276 0.0
C1078 C 0.76807 0.45038 0.35346 0.0
C1079 C 0.73688 0.40033 0.34948 0.0
C1080 C 0.74506 0.42182 0.38208 0.0
C1081 C 0.75987 0.41876 0.39659 0.0
C1082 C 0.75133 0.41524 0.4155 0.0
C1083 C 0.72672 0.41426 0.41962 0.0
C1084 C 0.71081 0.4166 0.40488 0.0
C1085 C 0.72054 0.42104 0.38595 0.0
H1086 H 0.16022 0.6151 0.43893 0.0
H1087 H 0.07429 0.55809 0.45022 0.0
H1088 H 0.08742 0.54905 0.48166 0.0
H1089 H 0.18891 0.58031 0.46292 0.0
H1090 H 0.21813 0.61035 0.47235 0.0
H1091 H 0.20222 0.61114 0.45014 0.0
H1092 H 0.1952 0.64834 0.46373 0.0
H1093 H 0.21118 0.64775 0.48593 0.0
H1094 H 0.17719 0.64298 0.48585 0.0
H1095 H 0.10966 0.54752 0.51256 0.0
H1096 H 0.13919 0.55442 0.54072 0.0
H1097 H 0.21027 0.61366 0.50967 0.0
C1098 C 0.144 0.60095 0.44801 0.0
C1099 C 0.11605 0.58814 0.44217 0.0
C1100 C 0.09578 0.56888 0.45439 0.0
C1101 C 0.10304 0.56344 0.47231 0.0
C1102 C 0.13065 0.57719 0.4778 0.0
C1103 C 0.1508 0.59556 0.46602 0.0
C1104 C 0.17887 0.60845 0.4756 0.0
C1105 C 0.19816 0.60217 0.4646 0.0
C1106 C 0.19133 0.63867 0.47792 0.0
C1107 C 0.17132 0.59462 0.49472 0.0
C1108 C 0.14344 0.57645 0.49563 0.0
C1109 C 0.13153 0.56162 0.51199 0.0
C1110 C 0.1485 0.5657 0.52792 0.0
C1111 C 0.17706 0.5846 0.52744 0.0
C1112 C 0.18855 0.59901 0.5105 0.0
H1113 H 0.54456 0.0737 0.64466 0.0
H1114 H 0.6215 0.11541 0.61431 0.0
H1115 H 0.63703 0.1546 0.63543 0.0
H1116 H 0.53733 0.13109 0.65397 0.0
H1117 H 0.52369 0.11993 0.67749 0.0
H1118 H 0.51795 0.09599 0.65909 0.0
H1119 H 0.53936 0.07566 0.68103 0.0
H1120 H 0.54528 0.09959 0.69945 0.0
H1121 H 0.57349 0.09684 0.69078 0.0
H1122 H 0.64471 0.18861 0.66052 0.0
H1123 H 0.64456 0.21459 0.68826 0.0
H1124 H 0.56298 0.15007 0.70276 0.0
C1125 C 0.56444 0.09131 0.64226 0.0
C1126 C 0.58148 0.09184 0.62751 0.0
C1127 C 0.60781 0.11485 0.62519 0.0
C1128 C 0.61683 0.13715 0.63715 0.0
C1129 C 0.59944 0.13598 0.65149 0.0
C1130 C 0.57383 0.11363 0.65413 0.0
C1131 C 0.5597 0.11695 0.6712 0.0
C1132 C 0.53309 0.11594 0.66506 0.0
C1133 C 0.55414 0.09602 0.68652 0.0
C1134 C 0.58144 0.1446 0.67786 0.0
C1135 C 0.60414 0.1553 0.66623 0.0
C1136 C 0.62701 0.18047 0.66969 0.0
C1137 C 0.62672 0.19507 0.68548 0.0
C1138 C 0.60376 0.18438 0.6977 0.0
C1139 C 0.58083 0.15883 0.69371 0.0
H1140 H 0.53503 0.62437 0.78831 0.0
H1141 H 0.48182 0.53959 0.77776 0.0
H1142 H 0.44416 0.54045 0.79429 0.0
H1143 H 0.51428 0.62251 0.83538 0.0
H1144 H 0.5165 0.6543 0.83478 0.0
H1145 H 0.53779 0.64806 0.81943 0.0
H1146 H 0.51856 0.66012 0.7899 0.0
H1147 H 0.49714 0.66637 0.80519 0.0
H1148 H 0.48197 0.64289 0.78566 0.0
H1149 H 0.41372 0.54946 0.81424 0.0
H1150 H 0.39339 0.56524 0.83788 0.0
H1151 H 0.46732 0.64363 0.83746 0.0
C1152 C 0.5154 0.60604 0.78932 0.0
C1153 C 0.51142 0.58184 0.78184 0.0
C1154 C 0.48533 0.55833 0.78338 0.0
C1155 C 0.4638 0.55864 0.7927 0.0
C1156 C 0.46867 0.58262 0.80045 0.0
C1157 C 0.49385 0.60588 0.79895 0.0
C1158 C 0.49457 0.62832 0.81024 0.0
C1159 C 0.51711 0.6389 0.82589 0.0
C1160 C 0.49827 0.65075 0.79695 0.0
C1161 C 0.46613 0.61384 0.81874 0.0
C1162 C 0.45134 0.58765 0.81257 0.0
C1163 C 0.42499 0.56999 0.81905 0.0
C1164 C 0.41362 0.57917 0.83249 0.0
C1165 C 0.42875 0.60568 0.83955 0.0
C1166 C 0.45516 0.62331 0.83227 0.0
H1167 H 0.92046 0.50935 0.96156 0.0
H1168 H 0.95139 0.44283 0.94469 0.0
H1169 H 0.91613 0.40914 0.9749 0.0
H1170 H 0.91279 0.49031 0.01777 0.0
H1171 H 0.88279 0.49279 0.02117 0.0
H1172 H 0.90662 0.51156 0.00258 0.0
H1173 H 0.86675 0.49013 0.97755 0.0
H1174 H 0.84312 0.4715 0.99628 0.0
H1175 H 0.84584 0.45435 0.97582 0.0
H1176 H 0.87687 0.38818 0.00274 0.0
H1177 H 0.84391 0.37276 0.02901 0.0
H1178 H 0.84203 0.44569 0.02631 0.0
C1179 C 0.92115 0.49162 0.96459 0.0
C1180 C 0.93602 0.47779 0.94758 0.0
C1181 C 0.94056 0.44922 0.9538 0.0
C1182 C 0.91757 0.42789 0.97183 0.0
C1183 C 0.89709 0.43755 0.98469 0.0
C1184 C 0.89925 0.46808 0.98199 0.0
C1185 C 0.88025 0.46899 0.99622 0.0
C1186 C 0.89658 0.49229 0.01026 0.0
C1187 C 0.85766 0.47139 0.98585 0.0
C1188 C 0.86838 0.44186 0.00629 0.0
C1189 C 0.87789 0.42528 0.99987 0.0
C1190 C 0.86925 0.40058 0.00788 0.0
C1191 C 0.85053 0.39202 0.02281 0.0
C1192 C 0.84045 0.40806 0.02963 0.0
C1193 C 0.84941 0.43308 0.02121 0.0
H1194 H 0.45124 0.89089 0.10843 0.0
H1195 H 0.53795 0.95017 0.11434 0.0
H1196 H 0.53753 0.93643 0.14774 0.0
H1197 H 0.43111 0.89604 0.15676 0.0
H1198 H 0.40737 0.86071 0.1586 0.0
H1199 H 0.41409 0.87653 0.13563 0.0
H1200 H 0.42786 0.84369 0.12252 0.0
H1201 H 0.42118 0.82779 0.14544 0.0
H1202 H 0.45434 0.8408 0.13469 0.0
H1203 H 0.52801 0.9151 0.1801 0.0
H1204 H 0.51058 0.88667 0.2086 0.0
H1205 H 0.43023 0.84068 0.18127 0.0
C1206 C 0.46999 0.90128 0.1169 0.0
C1207 C 0.4944 0.92214 0.10899 0.0
C1208 C 0.51883 0.93465 0.12026 0.0
C1209 C 0.51881 0.92693 0.13923 0.0
C1210 C 0.49431 0.90645 0.14661 0.0
C1211 C 0.47038 0.89371 0.13577 0.0
C1212 C 0.4472 0.87128 0.14673 0.0
C1213 C 0.42355 0.87646 0.1496 0.0
C1214 C 0.43706 0.8443 0.13675 0.0
C1215 C 0.46184 0.87332 0.16542 0.0
C1216 C 0.48896 0.8938 0.1651 0.0
C1217 C 0.50678 0.89907 0.18054 0.0
C1218 C 0.49668 0.88279 0.19666 0.0
C1219 C 0.46904 0.86146 0.19719 0.0
C1220 C 0.45141 0.85692 0.18138 0.0
H1221 H 0.60272 0.4862 0.2709 0.0
H1222 H 0.5325 0.40901 0.25558 0.0
H1223 H 0.53857 0.39029 0.28554 0.0
H1224 H 0.6435 0.46183 0.29046 0.0
H1225 H 0.65829 0.48633 0.3094 0.0
H1226 H 0.64736 0.49412 0.28739 0.0
H1227 H 0.61604 0.50605 0.30617 0.0
H1228 H 0.62696 0.4984 0.32826 0.0
H1229 H 0.59091 0.48201 0.32219 0.0
H1230 H 0.55313 0.37965 0.31659 0.0
H1231 H 0.57535 0.37771 0.34656 0.0
H1232 H 0.63685 0.46163 0.34125 0.0
C1233 C 0.58849 0.46543 0.27398 0.0
C1234 C 0.56703 0.44907 0.261 0.0
C1235 C 0.54896 0.42192 0.26539 0.0
C1236 C 0.55225 0.41112 0.28235 0.0
C1237 C 0.57379 0.42771 0.29473 0.0
C1238 C 0.5916 0.45428 0.29077 0.0
C1239 C 0.61366 0.46754 0.30614 0.0
C1240 C 0.6424 0.47807 0.29785 0.0
C1241 C 0.61177 0.48982 0.31629 0.0
C1242 C 0.60561 0.4442 0.31926 0.0
C1243 C 0.58246 0.42146 0.31248 0.0
C1244 C 0.57124 0.39734 0.32208 0.0
C1245 C 0.58403 0.39644 0.33908 0.0
C1246 C 0.60787 0.41949 0.34625 0.0
C1247 C 0.6187 0.44364 0.33614 0.0
H1248 H 0.42703 0.92121 0.35159 0.0
H1249 H 0.47184 0.89417 0.3859 0.0
H1250 H 0.47717 0.87225 0.35745 0.0
H1251 H 0.38908 0.86261 0.32483 0.0
H1252 H 0.38975 0.87875 0.30278 0.0
H1253 H 0.39222 0.89482 0.32526 0.0
H1254 H 0.43784 0.93632 0.31483 0.0
H1255 H 0.43546 0.9204 0.29224 0.0
H1256 H 0.46578 0.93247 0.30709 0.0
H1257 H 0.47435 0.85034 0.32588 0.0
H1258 H 0.46333 0.82984 0.29366 0.0
H1259 H 0.41996 0.87096 0.28014 0.0
C1260 C 0.43847 0.91115 0.35297 0.0
C1261 C 0.44937 0.90966 0.37084 0.0
C1262 C 0.46366 0.89581 0.37226 0.0
C1263 C 0.46678 0.88332 0.3562 0.0
C1264 C 0.45547 0.88487 0.33884 0.0
C1265 C 0.44167 0.89851 0.33711 0.0
C1266 C 0.42987 0.89569 0.31717 0.0
C1267 C 0.39837 0.88216 0.31755 0.0
C1268 C 0.44303 0.92284 0.30725 0.0
C1269 C 0.43863 0.87785 0.30806 0.0
C1270 C 0.45361 0.87203 0.32072 0.0
C1271 C 0.46289 0.85498 0.31578 0.0
C1272 C 0.4565 0.8434 0.29745 0.0
C1273 C 0.44084 0.84883 0.28436 0.0
C1274 C 0.43213 0.86653 0.28975 0.0
H1275 H 0.56919 0.43354 0.52619 0.0
H1276 H 0.51765 0.46305 0.50514 0.0
H1277 H 0.53498 0.46543 0.47272 0.0
H1278 H 0.62725 0.47087 0.4941 0.0
H1279 H 0.63251 0.4433 0.49084 0.0
H1280 H 0.61868 0.44696 0.5129 0.0
H1281 H 0.57648 0.39931 0.50869 0.0
H1282 H 0.59017 0.39549 0.48667 0.0
H1283 H 0.55616 0.39064 0.48699 0.0
H1284 H 0.55533 0.46181 0.4422 0.0
H1285 H 0.57543 0.45028 0.41556 0.0
H1286 H 0.61216 0.42112 0.45601 0.0
C1287 C 0.56182 0.44082 0.51479 0.0
C1288 C 0.54219 0.44824 0.51835 0.0
C1289 C 0.53281 0.4574 0.50297 0.0
C1290 C 0.54258 0.45889 0.48444 0.0
C1291 C 0.56154 0.45097 0.48142 0.0
C1292 C 0.57097 0.44198 0.49615 0.0
C1293 C 0.58947 0.43245 0.48881 0.0
C1294 C 0.61872 0.44942 0.49716 0.0
C1295 C 0.57734 0.40271 0.49304 0.0
C1296 C 0.58872 0.4372 0.46761 0.0
C1297 C 0.57275 0.44819 0.4637 0.0
C1298 C 0.56803 0.45337 0.44509 0.0
C1299 C 0.57952 0.44671 0.43005 0.0
C1300 C 0.5954 0.43481 0.43367 0.0
C1301 C 0.60035 0.43041 0.45276 0.0
H1302 H 0.13461 0.50233 0.69337 0.0
H1303 H 0.1418 0.5743 0.71674 0.0
H1304 H 0.16026 0.59706 0.68607 0.0
H1305 H 0.19749 0.53435 0.66932 0.0
H1306 H 0.18541 0.51204 0.64901 0.0
H1307 H 0.16967 0.50044 0.67189 0.0
H1308 H 0.12201 0.486 0.6569 0.0
H1309 H 0.13762 0.49752 0.63392 0.0
H1310 H 0.11728 0.50996 0.64399 0.0
H1311 H 0.18082 0.61285 0.65378 0.0
H1312 H 0.20312 0.62102 0.62246 0.0
H1313 H 0.18455 0.5393 0.62066 0.0
C1314 C 0.13994 0.52283 0.692 0.0
C1315 C 0.13714 0.53669 0.70753 0.0
C1316 C 0.14401 0.5634 0.70508 0.0
C1317 C 0.15442 0.57645 0.68771 0.0
C1318 C 0.15776 0.56248 0.67291 0.0
C1319 C 0.15072 0.53626 0.67486 0.0
C1320 C 0.1581 0.52635 0.65724 0.0
C1321 C 0.17891 0.5178 0.66216 0.0
C1322 C 0.13221 0.50361 0.64744 0.0
C1323 C 0.17096 0.55128 0.64524 0.0
C1324 C 0.17016 0.57176 0.65442 0.0
C1325 C 0.18141 0.59692 0.6464 0.0
C1326 C 0.19405 0.60136 0.62859 0.0
C1327 C 0.19564 0.58082 0.6191 0.0
C1328 C 0.18366 0.5554 0.62752 0.0
H1329 H 0.50104 0.11789 0.84268 0.0
H1330 H 0.53242 0.06429 0.84354 0.0
H1331 H 0.57146 0.09572 0.82377 0.0
H1332 H 0.51472 0.13475 0.79435 0.0
H1333 H 0.52406 0.16897 0.7974 0.0
H1334 H 0.50067 0.14412 0.81372 0.0
H1335 H 0.53222 0.17142 0.84225 0.0
H1336 H 0.55573 0.19644 0.82601 0.0
H1337 H 0.56787 0.18088 0.84235 0.0
H1338 H 0.60488 0.13097 0.80193 0.0
H1339 H 0.6299 0.16713 0.77887 0.0
H1340 H 0.57571 0.197 0.7909 0.0
C1341 C 0.51628 0.11291 0.83886 0.0
C1342 C 0.5136 0.08855 0.84452 0.0
C1343 C 0.53403 0.0828 0.8393 0.0
C1344 C 0.5563 0.10055 0.82812 0.0
C1345 C 0.55787 0.12399 0.82227 0.0
C1346 C 0.53843 0.13023 0.82745 0.0
C1347 C 0.54374 0.15569 0.81802 0.0
C1348 C 0.51935 0.15056 0.8051 0.0
C1349 C 0.55028 0.17739 0.83306 0.0
C1350 C 0.56884 0.16244 0.8064 0.0
C1351 C 0.57687 0.1441 0.8093 0.0
C1352 C 0.59893 0.14559 0.79966 0.0
C1353 C 0.613 0.16621 0.78657 0.0
C1354 C 0.6048 0.18494 0.78307 0.0
C1355 C 0.58258 0.1831 0.79332 0.0
H1356 H 0.442 0.50596 0.99158 0.0
H1357 H 0.52639 0.58943 0.02114 0.0
H1358 H 0.5213 0.62005 0.99052 0.0
H1359 H 0.46255 0.53461 0.93739 0.0
H1360 H 0.42752 0.5213 0.92949 0.0
H1361 H 0.43512 0.50548 0.94863 0.0
H1362 H 0.40141 0.51047 0.97056 0.0
H1363 H 0.39378 0.526 0.95124 0.0
H1364 H 0.40574 0.54293 0.97394 0.0
H1365 H 0.49857 0.6346 0.96101 0.0
H1366 H 0.47763 0.64449 0.93364 0.0
H1367 H 0.41926 0.56027 0.9255 0.0
C1368 C 0.4579 0.52676 0.99092 0.0
C1369 C 0.48157 0.54483 0.01155 0.0
C1370 C 0.51134 0.57984 0.00974 0.0
C1371 C 0.50716 0.59881 0.99129 0.0
C1372 C 0.47945 0.58265 0.97438 0.0
C1373 C 0.45657 0.54839 0.97354 0.0
C1374 C 0.43773 0.5428 0.9568 0.0
C1375 C 0.44093 0.525 0.94222 0.0
C1376 C 0.40791 0.52979 0.96354 0.0
C1377 C 0.44822 0.57093 0.94883 0.0
C1378 C 0.47075 0.59219 0.95854 0.0
C1379 C 0.48146 0.61854 0.95322 0.0
C1380 C 0.46939 0.62395 0.93772 0.0
C1381 C 0.44703 0.60307 0.9275 0.0
C1382 C 0.4366 0.57646 0.93306 0.0
H1383 H 0.92149 0.41119 0.17563 0.0
H1384 H 0.97118 0.49745 0.17661 0.0
H1385 H 0.93624 0.49965 0.15673 0.0
H1386 H 0.90248 0.40556 0.12728 0.0
H1387 H 0.86816 0.37753 0.13015 0.0
H1388 H 0.89504 0.38265 0.14662 0.0
H1389 H 0.86602 0.38253 0.17497 0.0
H1390 H 0.83899 0.37736 0.15855 0.0
H1391 H 0.85348 0.40521 0.17496 0.0
H1392 H 0.8983 0.49263 0.13471 0.0
H1393 H 0.86037 0.47699 0.11123 0.0
H1394 H 0.83597 0.39508 0.12325 0.0
C1395 C 0.92483 0.43053 0.17182 0.0
C1396 C 0.9491 0.45418 0.17757 0.0
C1397 C 0.95275 0.47911 0.17233 0.0
C1398 C 0.933 0.48055 0.1611 0.0
C1399 C 0.90971 0.45687 0.15521 0.0
C1400 C 0.9055 0.43231 0.16037 0.0
C1401 C 0.87985 0.40992 0.15081 0.0
C1402 C 0.88681 0.39293 0.13795 0.0
C1403 C 0.85831 0.39274 0.16571 0.0
C1404 C 0.87068 0.42576 0.13911 0.0
C1405 C 0.88798 0.45279 0.14211 0.0
C1406 C 0.88445 0.47151 0.13237 0.0
C1407 C 0.86286 0.4624 0.11901 0.0
C1408 C 0.84518 0.4348 0.11538 0.0
C1409 C 0.84901 0.41628 0.12579 0.0
loop_
_geom_bond_atom_site_label_1
_geom_bond_atom_site_label_2
_geom_bond_distance
_geom_bond_site_symmetry_2
_ccdc_geom_bond_type
C0 C1 1.560 . S
C0 H61 0.959 . S
C0 H62 0.959 . S
C0 H63 0.960 . S
C1 C0 1.560 . S
C1 O56 1.426 . S
C1 H60 0.980 . S
C2 C3 1.407 . S
C2 C7 1.418 . S
C2 O56 1.334 . S
C3 C2 1.407 . S
C3 C4 1.360 . S
C3 H64 0.929 . S
C4 C3 1.360 . S
C4 C5 1.401 . S
C4 C8 1.527 . S
C5 C4 1.401 . S
C5 C6 1.405 . S
C5 C38 1.587 . S
C6 C5 1.405 . S
C6 C7 1.332 . S
C6 C9 1.496 . S
C7 C2 1.418 . S
C7 C6 1.332 . S
C7 H65 0.929 . S
C8 C4 1.527 . S
C8 H66 0.959 . S
C8 H67 0.961 . S
C8 H68 0.961 . S
C9 C6 1.496 . S
C9 H69 0.960 . S
C9 H70 0.960 . S
C9 H71 0.961 . S
C10 C11 1.517 . S
C10 H73 0.961 . S
C10 H74 0.960 . S
C10 H75 0.959 . S
C11 C10 1.517 . S
C11 O59 1.468 . S
C11 H72 0.980 . S
C12 C13 1.349 . S
C12 C17 1.367 . S
C12 O59 1.408 . S
C13 C12 1.349 . S
C13 C14 1.407 . S
C13 H76 0.930 . S
C14 C13 1.407 . S
C14 C15 1.449 . S
C14 C18 1.535 . S
C15 C14 1.449 . S
C15 C16 1.384 . S
C15 C40 1.553 1_655 S
C16 C15 1.384 . S
C16 C17 1.364 . S
C16 C19 1.450 . S
C17 C12 1.367 . S
C17 C16 1.364 . S
C17 H77 0.931 . S
C18 C14 1.535 . S
C18 H78 0.959 1_655 S
C18 H79 0.961 1_655 S
C18 H80 0.959 . S
C19 C16 1.450 . S
C19 H81 0.960 . S
C19 H82 0.960 1_655 S
C19 H83 0.960 . S
C20 C21 1.309 . S
C20 C25 1.304 . S
C20 O58 1.435 . S
C21 C20 1.309 . S
C21 C22 1.476 . S
C21 H85 0.930 . S
C22 C21 1.476 . S
C22 C23 1.400 . S
C22 C26 1.567 . S
C23 C22 1.400 . S
C23 C24 1.373 . S
C23 C45 1.432 . S
C24 C23 1.373 . S
C24 C25 1.339 . S
C24 C27 1.530 . S
C25 C20 1.304 . S
C25 C24 1.339 . S
C25 H86 0.930 . S
C26 C22 1.567 . S
C26 H87 0.961 . S
C26 H88 0.960 . S
C26 H89 0.958 . S
C27 C24 1.530 . S
C27 H90 0.961 . S
C27 H91 0.960 . S
C27 H92 0.960 . S
C28 C29 1.530 . S
C28 H94 0.961 . S
C28 H95 0.961 . S
C28 H96 0.959 . S
C29 C28 1.530 . S
C29 O57 1.412 . S
C29 H93 0.980 . S
C30 C31 1.288 . S
C30 C35 1.377 . S
C30 O57 1.393 . S
C31 C30 1.288 . S
C31 C32 1.369 . S
C31 H97 0.932 . S
C32 C31 1.369 . S
C32 C33 1.398 . S
C32 C36 1.527 . S
C33 C32 1.398 . S
C33 C34 1.380 . S
C33 C47 1.497 . S
C34 C33 1.380 . S
C34 C35 1.383 . S
C34 C37 1.603 . S
C35 C30 1.377 . S
C35 C34 1.383 . S
C35 H98 0.929 . S
C36 C32 1.527 . S
C36 H99 0.961 . S
C36 H100 0.959 . S
C36 H101 0.959 . S
C37 C34 1.603 . S
C37 H102 0.960 . S
C37 H103 0.962 . S
C37 H104 0.961 . S
C38 C5 1.587 . S
C38 C39 1.360 . S
C38 C51 1.412 . S
C39 C38 1.360 . S
C39 C40 1.365 . S
C39 H105 0.929 . S
C40 C15 1.553 1_455 S
C40 C39 1.365 . S
C40 C41 1.404 . S
C41 C40 1.404 . S
C41 C42 1.395 1_455 S
C41 C52 1.451 . S
C42 C41 1.395 1_655 S
C42 C43 1.322 . S
C42 H106 0.930 . S
C43 C42 1.322 . S
C43 C44 1.459 . S
C43 H107 0.929 . S
C44 C43 1.459 . S
C44 C45 1.445 . S
C44 C53 1.395 1_655 S
C45 C23 1.432 . S
C45 C44 1.445 . S
C45 C46 1.370 . S
C46 C45 1.370 . S
C46 C47 1.438 1_655 S
C46 H108 0.930 . S
C47 C33 1.497 . S
C47 C46 1.438 1_455 S
C47 C48 1.360 . S
C48 C47 1.360 . S
C48 C49 1.401 . S
C48 C53 1.446 . S
C49 C48 1.401 . S
C49 C50 1.347 . S
C49 H109 0.929 . S
C50 C49 1.347 . S
C50 C51 1.455 . S
C50 H110 0.930 . S
C51 C38 1.412 . S
C51 C50 1.455 . S
C51 C52 1.331 . S
C52 C41 1.451 . S
C52 C51 1.331 . S
C52 C53 1.497 . S
C53 C44 1.395 1_455 S
C53 C48 1.446 . S
C53 C52 1.497 . S
C54 C55 1.582 . S
C54 H111 0.962 . S
C54 H112 0.959 . S
C54 H113 0.958 . S
C55 C54 1.582 . S
C55 O58 1.458 . S
C55 H84 0.980 . S
O56 C1 1.426 . S
O56 C2 1.334 . S
O57 C29 1.412 . S
O57 C30 1.393 . S
O58 C20 1.435 . S
O58 C55 1.458 . S
O59 C11 1.468 . S
O59 C12 1.408 . S
H60 C1 0.980 . S
H61 C0 0.959 . S
H62 C0 0.959 . S
H63 C0 0.960 . S
H64 C3 0.929 . S
H65 C7 0.929 . S
H66 C8 0.959 . S
H67 C8 0.961 . S
H68 C8 0.961 . S
H69 C9 0.960 . S
H70 C9 0.960 . S
H71 C9 0.961 . S
H72 C11 0.980 . S
H73 C10 0.961 . S
H74 C10 0.960 . S
H75 C10 0.959 . S
H76 C13 0.930 . S
H77 C17 0.931 . S
H78 C18 0.959 1_455 S
H79 C18 0.961 1_455 S
H80 C18 0.959 . S
H81 C19 0.960 . S
H82 C19 0.960 1_455 S
H83 C19 0.960 . S
H84 C55 0.980 . S
H85 C21 0.930 . S
H86 C25 0.930 . S
H87 C26 0.961 . S
H88 C26 0.960 . S
H89 C26 0.958 . S
H90 C27 0.961 . S
H91 C27 0.960 . S
H92 C27 0.960 . S
H93 C29 0.980 . S
H94 C28 0.961 . S
H95 C28 0.961 . S
H96 C28 0.959 . S
H97 C31 0.932 . S
H98 C35 0.929 . S
H99 C36 0.961 . S
H100 C36 0.959 . S
H101 C36 0.959 . S
H102 C37 0.960 . S
H103 C37 0.962 . S
H104 C37 0.961 . S
H105 C39 0.929 . S
H106 C42 0.930 . S
H107 C43 0.929 . S
H108 C46 0.930 . S
H109 C49 0.929 . S
H110 C50 0.930 . S
H111 C54 0.962 . S
H112 C54 0.959 . S
H113 C54 0.958 . S
C114 C115 1.560 . S
C114 H175 0.959 . S
C114 H176 0.959 . S
C114 H177 0.960 . S
C115 C114 1.560 . S
C115 O170 1.426 . S
C115 H174 0.980 . S
C116 C117 1.407 . S
C116 C121 1.418 . S
C116 O170 1.334 . S
C117 C116 1.407 . S
C117 C118 1.360 . S
C117 H178 0.929 . S
C118 C117 1.360 . S
C118 C119 1.401 . S
C118 C122 1.527 . S
C119 C118 1.401 . S
C119 C120 1.405 . S
C119 C152 1.587 . S
C120 C119 1.405 . S
C120 C121 1.332 . S
C120 C123 1.496 . S
C121 C116 1.418 . S
C121 C120 1.332 . S
C121 H179 0.929 . S
C122 C118 1.527 . S
C122 H180 0.959 . S
C122 H181 0.961 . S
C122 H182 0.961 . S
C123 C120 1.496 . S
C123 H183 0.960 . S
C123 H184 0.960 . S
C123 H185 0.961 . S
C124 C125 1.517 . S
C124 H187 0.961 . S
C124 H188 0.960 . S
C124 H189 0.959 . S
C125 C124 1.517 . S
C125 O173 1.468 . S
C125 H186 0.980 . S
C126 C127 1.349 . S
C126 C131 1.367 . S
C126 O173 1.408 . S
C127 C126 1.349 . S
C127 C128 1.407 . S
C127 H190 0.930 . S
C128 C127 1.407 . S
C128 C129 1.449 . S
C128 C132 1.535 . S
C129 C128 1.449 . S
C129 C130 1.384 . S
C129 C154 1.553 . S
C130 C129 1.384 . S
C130 C131 1.364 . S
C130 C133 1.450 . S
C131 C126 1.367 . S
C131 C130 1.364 . S
C131 H191 0.931 . S
C132 C128 1.535 . S
C132 H192 0.959 . S
C132 H193 0.961 . S
C132 H194 0.959 . S
C133 C130 1.450 . S
C133 H195 0.960 . S
C133 H196 0.960 . S
C133 H197 0.960 . S
C134 C135 1.309 . S
C134 C139 1.304 . S
C134 O172 1.435 . S
C135 C134 1.309 . S
C135 C136 1.476 . S
C135 H199 0.930 . S
C136 C135 1.476 . S
C136 C137 1.400 . S
C136 C140 1.567 . S
C137 C136 1.400 . S
C137 C138 1.373 . S
C137 C159 1.432 . S
C138 C137 1.373 . S
C138 C139 1.339 . S
C138 C141 1.530 . S
C139 C134 1.304 . S
C139 C138 1.339 . S
C139 H200 0.930 . S
C140 C136 1.567 . S
C140 H201 0.961 . S
C140 H202 0.960 . S
C140 H203 0.958 . S
C141 C138 1.530 . S
C141 H204 0.961 . S
C141 H205 0.960 . S
C141 H206 0.960 . S
C142 C143 1.530 . S
C142 H208 0.961 . S
C142 H209 0.961 . S
C142 H210 0.959 . S
C143 C142 1.530 . S
C143 O171 1.412 . S
C143 H207 0.980 . S
C144 C145 1.288 . S
C144 C149 1.377 . S
C144 O171 1.393 . S
C145 C144 1.288 . S
C145 C146 1.369 . S
C145 H211 0.932 . S
C146 C145 1.369 . S
C146 C147 1.398 . S
C146 C150 1.527 1_565 S
C147 C146 1.398 . S
C147 C148 1.380 . S
C147 C161 1.497 1_565 S
C148 C147 1.380 . S
C148 C149 1.383 . S
C148 C151 1.603 . S
C149 C144 1.377 . S
C149 C148 1.383 . S
C149 H212 0.929 . S
C150 C146 1.527 1_545 S
C150 H213 0.961 . S
C150 H214 0.959 . S
C150 H215 0.960 1_545 S
C151 C148 1.603 . S
C151 H216 0.960 . S
C151 H217 0.962 1_565 S
C151 H218 0.961 . S
C152 C119 1.587 . S
C152 C153 1.360 . S
C152 C165 1.412 . S
C153 C152 1.360 . S
C153 C154 1.365 1_565 S
C153 H219 0.929 . S
C154 C129 1.553 . S
C154 C153 1.365 1_545 S
C154 C155 1.404 . S
C155 C154 1.404 . S
C155 C156 1.395 . S
C155 C166 1.451 . S
C156 C155 1.395 . S
C156 C157 1.322 . S
C156 H220 0.930 . S
C157 C156 1.322 . S
C157 C158 1.459 . S
C157 H221 0.929 . S
C158 C157 1.459 . S
C158 C159 1.445 . S
C158 C167 1.395 . S
C159 C137 1.432 . S
C159 C158 1.445 . S
C159 C160 1.370 . S
C160 C159 1.370 . S
C160 C161 1.438 . S
C160 H222 0.930 . S
C161 C147 1.497 1_545 S
C161 C160 1.438 . S
C161 C162 1.360 . S
C162 C161 1.360 . S
C162 C163 1.401 1_545 S
C162 C167 1.446 . S
C163 C162 1.401 1_565 S
C163 C164 1.347 . S
C163 H223 0.929 . S
C164 C163 1.347 . S
C164 C165 1.455 . S
C164 H224 0.930 . S
C165 C152 1.412 . S
C165 C164 1.455 . S
C165 C166 1.331 1_565 S
C166 C155 1.451 . S
C166 C165 1.331 1_545 S
C166 C167 1.497 . S
C167 C158 1.395 . S
C167 C162 1.446 . S
C167 C166 1.497 . S
C168 C169 1.582 . S
C168 H225 0.962 . S
C168 H226 0.959 . S
C168 H227 0.958 . S
C169 C168 1.582 . S
C169 O172 1.458 . S
C169 H198 0.980 . S
O170 C115 1.426 . S
O170 C116 1.334 . S
O171 C143 1.412 . S
O171 C144 1.393 . S
O172 C134 1.435 . S
O172 C169 1.458 . S
O173 C125 1.468 . S
O173 C126 1.408 . S
H174 C115 0.980 . S
H175 C114 0.959 . S
H176 C114 0.959 . S
H177 C114 0.960 . S
H178 C117 0.929 . S
H179 C121 0.929 . S
H180 C122 0.959 . S
H181 C122 0.961 . S
H182 C122 0.961 . S
H183 C123 0.960 . S
H184 C123 0.960 . S
H185 C123 0.961 . S
H186 C125 0.980 . S
H187 C124 0.961 . S
H188 C124 0.960 . S
H189 C124 0.959 . S
H190 C127 0.930 . S
H191 C131 0.931 . S
H192 C132 0.959 . S
H193 C132 0.961 . S
H194 C132 0.959 . S
H195 C133 0.960 . S
H196 C133 0.960 . S
H197 C133 0.960 . S
H198 C169 0.980 . S
H199 C135 0.930 . S
H200 C139 0.930 . S
H201 C140 0.961 . S
H202 C140 0.960 . S
H203 C140 0.958 . S
H204 C141 0.961 . S
H205 C141 0.960 . S
H206 C141 0.960 . S
H207 C143 0.980 . S
H208 C142 0.961 . S
H209 C142 0.961 . S
H210 C142 0.959 . S
H211 C145 0.932 . S
H212 C149 0.929 . S
H213 C150 0.961 . S
H214 C150 0.959 . S
H215 C150 0.960 1_565 S
H216 C151 0.960 . S
H217 C151 0.962 1_545 S
H218 C151 0.961 . S
H219 C153 0.929 . S
H220 C156 0.930 . S
H221 C157 0.929 . S
H222 C160 0.930 . S
H223 C163 0.929 . S
H224 C164 0.930 . S
H225 C168 0.962 . S
H226 C168 0.959 . S
H227 C168 0.958 . S
C228 C229 1.560 . S
C228 H289 0.959 . S
C228 H290 0.959 . S
C228 H291 0.960 . S
C229 C228 1.560 . S
C229 O284 1.426 . S
C229 H288 0.980 . S
C230 C231 1.407 . S
C230 C235 1.418 . S
C230 O284 1.334 . S
C231 C230 1.407 . S
C231 C232 1.360 . S
C231 H292 0.929 . S
C232 C231 1.360 . S
C232 C233 1.401 . S
C232 C236 1.527 . S
C233 C232 1.401 . S
C233 C234 1.405 . S
C233 C266 1.587 . S
C234 C233 1.405 . S
C234 C235 1.332 . S
C234 C237 1.496 . S
C235 C230 1.418 . S
C235 C234 1.332 . S
C235 H293 0.929 . S
C236 C232 1.527 . S
C236 H294 0.959 . S
C236 H295 0.961 . S
C236 H296 0.961 . S
C237 C234 1.496 . S
C237 H297 0.960 . S
C237 H298 0.960 . S
C237 H299 0.961 . S
C238 C239 1.517 . S
C238 H301 0.961 . S
C238 H302 0.960 . S
C238 H303 0.959 . S
C239 C238 1.517 . S
C239 O287 1.468 . S
C239 H300 0.980 . S
C240 C241 1.349 . S
C240 C245 1.367 . S
C240 O287 1.408 . S
C241 C240 1.349 . S
C241 C242 1.407 . S
C241 H304 0.930 . S
C242 C241 1.407 . S
C242 C243 1.449 . S
C242 C246 1.535 . S
C243 C242 1.449 . S
C243 C244 1.384 . S
C243 C268 1.553 . S
C244 C243 1.384 . S
C244 C245 1.364 . S
C244 C247 1.450 . S
C245 C240 1.367 . S
C245 C244 1.364 . S
C245 H305 0.931 . S
C246 C242 1.535 . S
C246 H306 0.959 . S
C246 H307 0.961 . S
C246 H308 0.959 . S
C247 C244 1.450 . S
C247 H309 0.960 . S
C247 H310 0.960 . S
C247 H311 0.960 . S
C248 C249 1.309 . S
C248 C253 1.304 . S
C248 O286 1.435 . S
C249 C248 1.309 . S
C249 C250 1.476 . S
C249 H313 0.930 . S
C250 C249 1.476 . S
C250 C251 1.400 . S
C250 C254 1.567 . S
C251 C250 1.400 . S
C251 C252 1.373 . S
C251 C273 1.432 . S
C252 C251 1.373 . S
C252 C253 1.339 . S
C252 C255 1.530 . S
C253 C248 1.304 . S
C253 C252 1.339 . S
C253 H314 0.930 . S
C254 C250 1.567 . S
C254 H315 0.961 . S
C254 H316 0.960 . S
C254 H317 0.958 . S
C255 C252 1.530 . S
C255 H318 0.961 . S
C255 H319 0.960 . S
C255 H320 0.960 . S
C256 C257 1.530 . S
C256 H322 0.961 . S
C256 H323 0.961 . S
C256 H324 0.959 . S
C257 C256 1.530 . S
C257 O285 1.412 . S
C257 H321 0.980 . S
C258 C259 1.288 . S
C258 C263 1.377 . S
C258 O285 1.393 . S
C259 C258 1.288 . S
C259 C260 1.369 . S
C259 H325 0.932 . S
C260 C259 1.369 . S
C260 C261 1.398 . S
C260 C264 1.527 . S
C261 C260 1.398 . S
C261 C262 1.380 . S
C261 C275 1.497 . S
C262 C261 1.380 . S
C262 C263 1.383 . S
C262 C265 1.603 . S
C263 C258 1.377 . S
C263 C262 1.383 . S
C263 H326 0.929 . S
C264 C260 1.527 . S
C264 H327 0.961 . S
C264 H328 0.959 . S
C264 H329 0.959 . S
C265 C262 1.603 . S
C265 H330 0.960 . S
C265 H331 0.962 . S
C265 H332 0.961 . S
C266 C233 1.587 . S
C266 C267 1.360 . S
C266 C279 1.412 . S
C267 C266 1.360 . S
C267 C268 1.365 . S
C267 H333 0.929 . S
C268 C243 1.553 . S
C268 C267 1.365 . S
C268 C269 1.404 . S
C269 C268 1.404 . S
C269 C270 1.395 . S
C269 C280 1.451 . S
C270 C269 1.395 . S
C270 C271 1.322 . S
C270 H334 0.930 . S
C271 C270 1.322 . S
C271 C272 1.459 . S
C271 H335 0.929 . S
C272 C271 1.459 . S
C272 C273 1.445 . S
C272 C281 1.395 . S
C273 C251 1.432 . S
C273 C272 1.445 . S
C273 C274 1.370 . S
C274 C273 1.370 . S
C274 C275 1.438 . S
C274 H336 0.930 . S
C275 C261 1.497 . S
C275 C274 1.438 . S
C275 C276 1.360 . S
C276 C275 1.360 . S
C276 C277 1.401 . S
C276 C281 1.446 . S
C277 C276 1.401 . S
C277 C278 1.347 . S
C277 H337 0.929 . S
C278 C277 1.347 . S
C278 C279 1.455 . S
C278 H338 0.930 . S
C279 C266 1.412 . S
C279 C278 1.455 . S
C279 C280 1.331 . S
C280 C269 1.451 . S
C280 C279 1.331 . S
C280 C281 1.497 . S
C281 C272 1.395 . S
C281 C276 1.446 . S
C281 C280 1.497 . S
C282 C283 1.582 . S
C282 H339 0.962 . S
C282 H340 0.959 . S
C282 H341 0.958 . S
C283 C282 1.582 . S
C283 O286 1.458 . S
C283 H312 0.980 . S
O284 C229 1.426 . S
O284 C230 1.334 . S
O285 C257 1.412 . S
O285 C258 1.393 . S
O286 C248 1.435 . S
O286 C283 1.458 . S
O287 C239 1.468 . S
O287 C240 1.408 . S
H288 C229 0.980 . S
H289 C228 0.959 . S
H290 C228 0.959 . S
H291 C228 0.960 . S
H292 C231 0.929 . S
H293 C235 0.929 . S
H294 C236 0.959 . S
H295 C236 0.961 . S
H296 C236 0.961 . S
H297 C237 0.960 . S
H298 C237 0.960 . S
H299 C237 0.961 . S
H300 C239 0.980 . S
H301 C238 0.961 . S
H302 C238 0.960 . S
H303 C238 0.959 . S
H304 C241 0.930 . S
H305 C245 0.931 . S
H306 C246 0.959 . S
H307 C246 0.961 . S
H308 C246 0.959 . S
H309 C247 0.960 . S
H310 C247 0.960 . S
H311 C247 0.960 . S
H312 C283 0.980 . S
H313 C249 0.930 . S
H314 C253 0.930 . S
H315 C254 0.961 . S
H316 C254 0.960 . S
H317 C254 0.958 . S
H318 C255 0.961 . S
H319 C255 0.960 . S
H320 C255 0.960 . S
H321 C257 0.980 . S
H322 C256 0.961 . S
H323 C256 0.961 . S
H324 C256 0.959 . S
H325 C259 0.932 . S
H326 C263 0.929 . S
H327 C264 0.961 . S
H328 C264 0.959 . S
H329 C264 0.959 . S
H330 C265 0.960 . S
H331 C265 0.962 . S
H332 C265 0.961 . S
H333 C267 0.929 . S
H334 C270 0.930 . S
H335 C271 0.929 . S
H336 C274 0.930 . S
H337 C277 0.929 . S
H338 C278 0.930 . S
H339 C282 0.962 . S
H340 C282 0.959 . S
H341 C282 0.958 . S
C342 C343 1.560 . S
C342 H403 0.959 . S
C342 H404 0.959 . S
C342 H405 0.960 . S
C343 C342 1.560 . S
C343 O398 1.426 . S
C343 H402 0.980 . S
C344 C345 1.407 . S
C344 C349 1.418 . S
C344 O398 1.334 . S
C345 C344 1.407 . S
C345 C346 1.360 . S
C345 H406 0.929 . S
C346 C345 1.360 . S
C346 C347 1.401 . S
C346 C350 1.527 . S
C347 C346 1.401 . S
C347 C348 1.405 . S
C347 C380 1.587 . S
C348 C347 1.405 . S
C348 C349 1.332 . S
C348 C351 1.496 . S
C349 C344 1.418 . S
C349 C348 1.332 . S
C349 H407 0.929 . S
C350 C346 1.527 . S
C350 H408 0.959 . S
C350 H409 0.961 . S
C350 H410 0.961 . S
C351 C348 1.496 . S
C351 H411 0.960 . S
C351 H412 0.960 . S
C351 H413 0.961 . S
C352 C353 1.517 . S
C352 H415 0.961 . S
C352 H416 0.960 . S
C352 H417 0.959 . S
C353 C352 1.517 . S
C353 O401 1.468 . S
C353 H414 0.980 . S
C354 C355 1.349 . S
C354 C359 1.367 . S
C354 O401 1.408 . S
C355 C354 1.349 . S
C355 C356 1.407 . S
C355 H418 0.930 . S
C356 C355 1.407 . S
C356 C357 1.449 . S
C356 C360 1.541 . S
C357 C356 1.449 . S
C357 C358 1.384 . S
C357 C382 1.553 1_655 S
C358 C357 1.384 . S
C358 C359 1.364 . S
C358 C361 1.450 . S
C359 C354 1.367 . S
C359 C358 1.364 . S
C359 H419 0.931 . S
C360 C356 1.541 . S
C360 H420 0.954 1_655 S
C360 H421 0.956 1_655 S
C360 H422 0.962 . S
C361 C358 1.450 . S
C361 H423 0.960 . S
C361 H424 0.960 1_655 S
C361 H425 0.960 . S
C362 C363 1.309 . S
C362 C367 1.304 . S
C362 O400 1.435 . S
C363 C362 1.309 . S
C363 C364 1.476 . S
C363 H427 0.930 . S
C364 C363 1.476 . S
C364 C365 1.400 . S
C364 C368 1.567 . S
C365 C364 1.400 . S
C365 C366 1.373 . S
C365 C387 1.432 . S
C366 C365 1.373 . S
C366 C367 1.339 . S
C366 C369 1.530 . S
C367 C362 1.304 . S
C367 C366 1.339 . S
C367 H428 0.930 . S
C368 C364 1.567 . S
C368 H429 0.961 . S
C368 H430 0.960 . S
C368 H431 0.958 . S
C369 C366 1.530 . S
C369 H432 0.961 . S
C369 H433 0.960 . S
C369 H434 0.960 . S
C370 C371 1.530 . S
C370 H436 0.961 . S
C370 H437 0.961 . S
C370 H438 0.959 . S
C371 C370 1.530 . S
C371 O399 1.412 . S
C371 H435 0.980 . S
C372 C373 1.288 . S
C372 C377 1.377 . S
C372 O399 1.393 . S
C373 C372 1.288 . S
C373 C374 1.369 . S
C373 H439 0.932 . S
C374 C373 1.369 . S
C374 C375 1.398 . S
C374 C378 1.527 . S
C375 C374 1.398 . S
C375 C376 1.380 . S
C375 C389 1.497 . S
C376 C375 1.380 . S
C376 C377 1.383 . S
C376 C379 1.603 . S
C377 C372 1.377 . S
C377 C376 1.383 . S
C377 H440 0.929 . S
C378 C374 1.527 . S
C378 H441 0.961 . S
C378 H442 0.986 . S
C378 H443 0.959 . S
C379 C376 1.603 . S
C379 H444 0.960 . S
C379 H445 0.962 . S
C379 H446 0.961 . S
C380 C347 1.587 . S
C380 C381 1.360 . S
C380 C393 1.412 . S
C381 C380 1.360 . S
C381 C382 1.365 . S
C381 H447 0.929 . S
C382 C357 1.553 1_455 S
C382 C381 1.365 . S
C382 C383 1.404 . S
C383 C382 1.404 . S
C383 C384 1.395 1_455 S
C383 C394 1.451 . S
C384 C383 1.395 1_655 S
C384 C385 1.322 . S
C384 H448 0.930 . S
C385 C384 1.322 . S
C385 C386 1.459 . S
C385 H449 0.929 . S
C386 C385 1.459 . S
C386 C387 1.445 . S
C386 C395 1.395 1_655 S
C387 C365 1.432 . S
C387 C386 1.445 . S
C387 C388 1.370 . S
C388 C387 1.370 . S
C388 C389 1.438 1_655 S
C388 H450 0.930 . S
C389 C375 1.497 . S
C389 C388 1.438 1_455 S
C389 C390 1.360 . S
C390 C389 1.360 . S
C390 C391 1.401 . S
C390 C395 1.446 . S
C391 C390 1.401 . S
C391 C392 1.347 . S
C391 H451 0.929 . S
C392 C391 1.347 . S
C392 C393 1.455 . S
C392 H452 0.930 . S
C393 C380 1.412 . S
C393 C392 1.455 . S
C393 C394 1.331 . S
C394 C383 1.451 . S
C394 C393 1.331 . S
C394 C395 1.497 . S
C395 C386 1.395 1_455 S
C395 C390 1.446 . S
C395 C394 1.497 . S
C396 C397 1.582 . S
C396 H453 0.962 . S
C396 H454 0.959 . S
C396 H455 0.958 . S
C397 C396 1.582 . S
C397 O400 1.458 . S
C397 H426 0.980 . S
O398 C343 1.426 . S
O398 C344 1.334 . S
O399 C371 1.412 . S
O399 C372 1.393 . S
O400 C362 1.435 . S
O400 C397 1.458 . S
O401 C353 1.468 . S
O401 C354 1.408 . S
H402 C343 0.980 . S
H403 C342 0.959 . S
H404 C342 0.959 . S
H405 C342 0.960 . S
H406 C345 0.929 . S
H407 C349 0.929 . S
H408 C350 0.959 . S
H409 C350 0.961 . S
H410 C350 0.961 . S
H411 C351 0.960 . S
H412 C351 0.960 . S
H413 C351 0.961 . S
H414 C353 0.980 . S
H415 C352 0.961 . S
H416 C352 0.960 . S
H417 C352 0.959 . S
H418 C355 0.930 . S
H419 C359 0.931 . S
H420 C360 0.954 1_455 S
H421 C360 0.956 1_455 S
H422 C360 0.962 . S
H423 C361 0.960 . S
H424 C361 0.960 1_455 S
H425 C361 0.960 . S
H426 C397 0.980 . S
H427 C363 0.930 . S
H428 C367 0.930 . S
H429 C368 0.961 . S
H430 C368 0.960 . S
H431 C368 0.958 . S
H432 C369 0.961 . S
H433 C369 0.960 . S
H434 C369 0.960 . S
H435 C371 0.980 . S
H436 C370 0.961 . S
H437 C370 0.961 . S
H438 C370 0.959 . S
H439 C373 0.932 . S
H440 C377 0.929 . S
H441 C378 0.961 . S
H442 C378 0.986 . S
H443 C378 0.959 . S
H444 C379 0.960 . S
H445 C379 0.962 . S
H446 C379 0.961 . S
H447 C381 0.929 . S
H448 C384 0.930 . S
H449 C385 0.929 . S
H450 C388 0.930 . S
H451 C391 0.929 . S
H452 C392 0.930 . S
H453 C396 0.962 . S
H454 C396 0.959 . S
H455 C396 0.958 . S
C456 C457 1.560 . S
C456 H517 0.959 . S
C456 H518 0.959 . S
C456 H519 0.960 . S
C457 C456 1.560 . S
C457 O512 1.426 . S
C457 H516 0.980 . S
C458 C459 1.407 . S
C458 C463 1.418 . S
C458 O512 1.334 . S
C459 C458 1.407 . S
C459 C460 1.360 . S
C459 H520 0.929 . S
C460 C459 1.360 . S
C460 C461 1.401 . S
C460 C464 1.527 . S
C461 C460 1.401 . S
C461 C462 1.405 . S
C461 C494 1.587 . S
C462 C461 1.405 . S
C462 C463 1.332 . S
C462 C465 1.496 . S
C463 C458 1.418 . S
C463 C462 1.332 . S
C463 H521 0.929 . S
C464 C460 1.527 . S
C464 H522 0.959 . S
C464 H523 0.961 . S
C464 H524 0.961 . S
C465 C462 1.496 . S
C465 H525 0.960 . S
C465 H526 0.960 . S
C465 H527 0.961 . S
C466 C467 1.517 . S
C466 H529 0.961 . S
C466 H530 0.960 . S
C466 H531 0.959 . S
C467 C466 1.517 . S
C467 O515 1.468 . S
C467 H528 0.980 . S
C468 C469 1.349 . S
C468 C473 1.367 . S
C468 O515 1.408 . S
C469 C468 1.349 . S
C469 C470 1.407 . S
C469 H532 0.930 . S
C470 C469 1.407 . S
C470 C471 1.449 . S
C470 C474 1.535 . S
C471 C470 1.449 . S
C471 C472 1.384 . S
C471 C496 1.553 . S
C472 C471 1.384 . S
C472 C473 1.364 . S
C472 C475 1.450 . S
C473 C468 1.367 . S
C473 C472 1.364 . S
C473 H533 0.931 . S
C474 C470 1.535 . S
C474 H534 0.959 . S
C474 H535 0.961 . S
C474 H536 0.959 . S
C475 C472 1.450 . S
C475 H537 0.960 . S
C475 H538 0.960 . S
C475 H539 0.960 . S
C476 C477 1.309 . S
C476 C481 1.304 . S
C476 O514 1.435 . S
C477 C476 1.309 . S
C477 C478 1.476 . S
C477 H541 0.930 . S
C478 C477 1.476 . S
C478 C479 1.400 . S
C478 C482 1.567 . S
C479 C478 1.400 . S
C479 C480 1.373 . S
C479 C501 1.432 . S
C480 C479 1.373 . S
C480 C481 1.339 . S
C480 C483 1.530 . S
C481 C476 1.304 . S
C481 C480 1.339 . S
C481 H542 0.930 . S
C482 C478 1.567 . S
C482 H543 0.961 . S
C482 H544 0.960 . S
C482 H545 0.958 . S
C483 C480 1.530 . S
C483 H546 0.961 . S
C483 H547 0.960 . S
C483 H548 0.960 . S
C484 C485 1.530 . S
C484 H550 0.961 . S
C484 H551 0.961 . S
C484 H552 0.959 . S
C485 C484 1.530 . S
C485 O513 1.412 . S
C485 H549 0.980 . S
C486 C487 1.288 . S
C486 C491 1.377 . S
C486 O513 1.393 . S
C487 C486 1.288 . S
C487 C488 1.369 . S
C487 H553 0.932 . S
C488 C487 1.369 . S
C488 C489 1.398 . S
C488 C492 1.527 1_565 S
C489 C488 1.398 . S
C489 C490 1.380 . S
C489 C503 1.497 1_565 S
C490 C489 1.380 . S
C490 C491 1.383 . S
C490 C493 1.603 . S
C491 C486 1.377 . S
C491 C490 1.383 . S
C491 H554 0.929 . S
C492 C488 1.527 1_545 S
C492 H555 0.961 . S
C492 H556 0.959 . S
C492 H557 0.959 . S
C493 C490 1.603 . S
C493 H558 0.960 . S
C493 H559 0.962 . S
C493 H560 0.961 . S
C494 C461 1.587 . S
C494 C495 1.360 . S
C494 C507 1.412 . S
C495 C494 1.360 . S
C495 C496 1.365 1_565 S
C495 H561 0.929 . S
C496 C471 1.553 . S
C496 C495 1.365 1_545 S
C496 C497 1.404 . S
C497 C496 1.404 . S
C497 C498 1.395 . S
C497 C508 1.451 . S
C498 C497 1.395 . S
C498 C499 1.322 . S
C498 H562 0.930 . S
C499 C498 1.322 . S
C499 C500 1.459 . S
C499 H563 0.929 . S
C500 C499 1.459 . S
C500 C501 1.445 1_556 S
C500 C509 1.395 . S
C501 C479 1.432 . S
C501 C500 1.445 1_554 S
C501 C502 1.370 . S
C502 C501 1.370 . S
C502 C503 1.438 . S
C502 H564 0.930 . S
C503 C489 1.497 1_545 S
C503 C502 1.438 . S
C503 C504 1.360 . S
C504 C503 1.360 . S
C504 C505 1.401 1_545 S
C504 C509 1.446 1_554 S
C505 C504 1.401 1_565 S
C505 C506 1.347 1_554 S
C505 H565 0.929 . S
C506 C505 1.347 1_556 S
C506 C507 1.455 . S
C506 H566 0.930 . S
C507 C494 1.412 . S
C507 C506 1.455 . S
C507 C508 1.331 1_565 S
C508 C497 1.451 . S
C508 C507 1.331 1_545 S
C508 C509 1.497 . S
C509 C500 1.395 . S
C509 C504 1.446 1_556 S
C509 C508 1.497 . S
C510 C511 1.582 . S
C510 H567 0.962 . S
C510 H568 0.959 . S
C510 H569 0.958 . S
C511 C510 1.582 . S
C511 O514 1.458 . S
C511 H540 0.980 . S
O512 C457 1.426 . S
O512 C458 1.334 . S
O513 C485 1.412 . S
O513 C486 1.393 . S
O514 C476 1.435 . S
O514 C511 1.458 . S
O515 C467 1.468 . S
O515 C468 1.408 . S
H516 C457 0.980 . S
H517 C456 0.959 . S
H518 C456 0.959 . S
H519 C456 0.960 . S
H520 C459 0.929 . S
H521 C463 0.929 . S
H522 C464 0.959 . S
H523 C464 0.961 . S
H524 C464 0.961 . S
H525 C465 0.960 . S
H526 C465 0.960 . S
H527 C465 0.961 . S
H528 C467 0.980 . S
H529 C466 0.961 . S
H530 C466 0.960 . S
H531 C466 0.959 . S
H532 C469 0.930 . S
H533 C473 0.931 . S
H534 C474 0.959 . S
H535 C474 0.961 . S
H536 C474 0.959 . S
H537 C475 0.960 . S
H538 C475 0.960 . S
H539 C475 0.960 . S
H540 C511 0.980 . S
H541 C477 0.930 . S
H542 C481 0.930 . S
H543 C482 0.961 . S
H544 C482 0.960 . S
H545 C482 0.958 . S
H546 C483 0.961 . S
H547 C483 0.960 . S
H548 C483 0.960 . S
H549 C485 0.980 . S
H550 C484 0.961 . S
H551 C484 0.961 . S
H552 C484 0.959 . S
H553 C487 0.932 . S
H554 C491 0.929 . S
H555 C492 0.961 . S
H556 C492 0.959 . S
H557 C492 0.959 . S
H558 C493 0.960 . S
H559 C493 0.962 . S
H560 C493 0.961 . S
H561 C495 0.929 . S
H562 C498 0.930 . S
H563 C499 0.929 . S
H564 C502 0.930 . S
H565 C505 0.929 . S
H566 C506 0.930 . S
H567 C510 0.962 . S
H568 C510 0.959 . S
H569 C510 0.958 . S
C570 C571 1.560 . S
C570 H631 0.959 . S
C570 H632 0.959 . S
C570 H633 0.960 . S
C571 C570 1.560 . S
C571 O626 1.426 . S
C571 H630 0.980 . S
C572 C573 1.407 . S
C572 C577 1.418 . S
C572 O626 1.334 . S
C573 C572 1.407 . S
C573 C574 1.360 . S
C573 H634 0.929 . S
C574 C573 1.360 . S
C574 C575 1.401 . S
C574 C578 1.527 . S
C575 C574 1.401 . S
C575 C576 1.405 . S
C575 C608 1.587 . S
C576 C575 1.405 . S
C576 C577 1.332 . S
C576 C579 1.496 . S
C577 C572 1.418 . S
C577 C576 1.332 . S
C577 H635 0.929 . S
C578 C574 1.527 . S
C578 H636 0.959 . S
C578 H637 0.961 . S
C578 H638 0.961 . S
C579 C576 1.496 . S
C579 H639 0.960 . S
C579 H640 0.960 . S
C579 H641 0.961 . S
C580 C581 1.517 . S
C580 H643 0.961 . S
C580 H644 0.960 . S
C580 H645 0.959 . S
C581 C580 1.517 . S
C581 O629 1.468 . S
C581 H642 0.980 . S
C582 C583 1.349 . S
C582 C587 1.367 . S
C582 O629 1.408 . S
C583 C582 1.349 . S
C583 C584 1.407 . S
C583 H646 0.930 . S
C584 C583 1.407 . S
C584 C585 1.449 . S
C584 C588 1.535 . S
C585 C584 1.449 . S
C585 C586 1.384 . S
C585 C610 1.553 . S
C586 C585 1.384 . S
C586 C587 1.364 . S
C586 C589 1.450 . S
C587 C582 1.367 . S
C587 C586 1.364 . S
C587 H647 0.931 . S
C588 C584 1.535 . S
C588 H648 0.959 . S
C588 H649 0.961 . S
C588 H650 0.959 . S
C589 C586 1.450 . S
C589 H651 0.960 . S
C589 H652 0.960 . S
C589 H653 0.960 . S
C590 C591 1.309 . S
C590 C595 1.304 . S
C590 O628 1.435 . S
C591 C590 1.309 . S
C591 C592 1.476 . S
C591 H655 0.930 . S
C592 C591 1.476 . S
C592 C593 1.400 . S
C592 C596 1.567 . S
C593 C592 1.400 . S
C593 C594 1.373 . S
C593 C615 1.432 . S
C594 C593 1.373 . S
C594 C595 1.339 . S
C594 C597 1.530 . S
C595 C590 1.304 . S
C595 C594 1.339 . S
C595 H656 0.930 . S
C596 C592 1.567 . S
C596 H657 0.961 . S
C596 H658 0.960 . S
C596 H659 0.958 . S
C597 C594 1.530 . S
C597 H660 0.961 . S
C597 H661 0.960 . S
C597 H662 0.960 . S
C598 C599 1.530 . S
C598 H664 0.961 . S
C598 H665 0.961 . S
C598 H666 0.959 . S
C599 C598 1.530 . S
C599 O627 1.412 . S
C599 H663 0.980 . S
C600 C601 1.288 . S
C600 C605 1.377 . S
C600 O627 1.393 . S
C601 C600 1.288 . S
C601 C602 1.369 . S
C601 H667 0.932 . S
C602 C601 1.369 . S
C602 C603 1.398 . S
C602 C606 1.527 . S
C603 C602 1.398 . S
C603 C604 1.380 . S
C603 C617 1.497 . S
C604 C603 1.380 . S
C604 C605 1.383 . S
C604 C607 1.603 . S
C605 C600 1.377 . S
C605 C604 1.383 . S
C605 H668 0.929 . S
C606 C602 1.527 . S
C606 H669 0.961 . S
C606 H670 0.959 . S
C606 H671 0.959 . S
C607 C604 1.603 . S
C607 H672 0.960 . S
C607 H673 0.962 . S
C607 H674 0.961 . S
C608 C575 1.587 . S
C608 C609 1.360 . S
C608 C621 1.412 . S
C609 C608 1.360 . S
C609 C610 1.365 . S
C609 H675 0.929 . S
C610 C585 1.553 . S
C610 C609 1.365 . S
C610 C611 1.404 . S
C611 C610 1.404 . S
C611 C612 1.395 . S
C611 C622 1.451 . S
C612 C611 1.395 . S
C612 C613 1.322 . S
C612 H676 0.930 . S
C613 C612 1.322 . S
C613 C614 1.459 . S
C613 H677 0.929 . S
C614 C613 1.459 . S
C614 C615 1.445 . S
C614 C623 1.395 . S
C615 C593 1.432 . S
C615 C614 1.445 . S
C615 C616 1.370 . S
C616 C615 1.370 . S
C616 C617 1.438 . S
C616 H678 0.930 . S
C617 C603 1.497 . S
C617 C616 1.438 . S
C617 C618 1.360 . S
C618 C617 1.360 . S
C618 C619 1.401 . S
C618 C623 1.446 . S
C619 C618 1.401 . S
C619 C620 1.347 . S
C619 H679 0.929 . S
C620 C619 1.347 . S
C620 C621 1.455 . S
C620 H680 0.930 . S
C621 C608 1.412 . S
C621 C620 1.455 . S
C621 C622 1.331 . S
C622 C611 1.451 . S
C622 C621 1.331 . S
C622 C623 1.497 . S
C623 C614 1.395 . S
C623 C618 1.446 . S
C623 C622 1.497 . S
C624 C625 1.582 . S
C624 H681 0.962 . S
C624 H682 0.959 . S
C624 H683 0.958 . S
C625 C624 1.582 . S
C625 O628 1.458 . S
C625 H654 0.980 . S
O626 C571 1.426 . S
O626 C572 1.334 . S
O627 C599 1.412 . S
O627 C600 1.393 . S
O628 C590 1.435 . S
O628 C625 1.458 . S
O629 C581 1.468 . S
O629 C582 1.408 . S
H630 C571 0.980 . S
H631 C570 0.959 . S
H632 C570 0.959 . S
H633 C570 0.960 . S
H634 C573 0.929 . S
H635 C577 0.929 . S
H636 C578 0.959 . S
H637 C578 0.961 . S
H638 C578 0.961 . S
H639 C579 0.960 . S
H640 C579 0.960 . S
H641 C579 0.961 . S
H642 C581 0.980 . S
H643 C580 0.961 . S
H644 C580 0.960 . S
H645 C580 0.959 . S
H646 C583 0.930 . S
H647 C587 0.931 . S
H648 C588 0.959 . S
H649 C588 0.961 . S
H650 C588 0.959 . S
H651 C589 0.960 . S
H652 C589 0.960 . S
H653 C589 0.960 . S
H654 C625 0.980 . S
H655 C591 0.930 . S
H656 C595 0.930 . S
H657 C596 0.961 . S
H658 C596 0.960 . S
H659 C596 0.958 . S
H660 C597 0.961 . S
H661 C597 0.960 . S
H662 C597 0.960 . S
H663 C599 0.980 . S
H664 C598 0.961 . S
H665 C598 0.961 . S
H666 C598 0.959 . S
H667 C601 0.932 . S
H668 C605 0.929 . S
H669 C606 0.961 . S
H670 C606 0.959 . S
H671 C606 0.959 . S
H672 C607 0.960 . S
H673 C607 0.962 . S
H674 C607 0.961 . S
H675 C609 0.929 . S
H676 C612 0.930 . S
H677 C613 0.929 . S
H678 C616 0.930 . S
H679 C619 0.929 . S
H680 C620 0.930 . S
H681 C624 0.962 . S
H682 C624 0.959 . S
H683 C624 0.958 . S
C684 O685 1.160 . S
C684 O691 1.185 . S
O685 C684 1.160 . S
O686 Zn687 1.899 . S
O686 C694 1.284 . S
Zn687 O686 1.899 . S
Zn687 O688 2.032 . S
Zn687 O691 2.086 . S
Zn687 O696 1.977 . S
O688 Zn687 2.032 . S
O688 C692 1.278 . S
C689 O690 1.203 . S
C689 O696 1.267 . S
O690 C689 1.203 . S
O691 C684 1.185 . S
O691 Zn687 2.086 . S
C692 O688 1.278 . S
C692 O693 1.211 . S
O693 C692 1.211 . S
C694 O686 1.284 . S
C694 O695 1.273 . S
O695 C694 1.273 . S
O696 Zn687 1.977 . S
O696 C689 1.267 . S
C697 O698 1.160 . S
C697 O704 1.185 . S
O698 C697 1.160 . S
O699 Zn700 1.899 . S
O699 C707 1.284 . S
Zn700 O699 1.899 . S
Zn700 O701 2.032 . S
Zn700 O704 2.086 . S
Zn700 O709 1.977 . S
O701 Zn700 2.032 . S
O701 C705 1.278 . S
C702 O703 1.203 . S
C702 O709 1.267 . S
O703 C702 1.203 . S
O704 C697 1.185 . S
O704 Zn700 2.086 . S
C705 O701 1.278 . S
C705 O706 1.211 . S
O706 C705 1.211 . S
C707 O699 1.284 . S
C707 O708 1.273 . S
O708 C707 1.273 . S
O709 Zn700 1.977 . S
O709 C702 1.267 . S
C710 O711 1.160 . S
C710 O717 1.185 . S
O711 C710 1.160 . S
O712 Zn713 1.899 . S
O712 C720 1.284 . S
Zn713 O712 1.899 . S
Zn713 O714 2.032 . S
Zn713 O717 2.086 . S
Zn713 O722 1.977 . S
O714 Zn713 2.032 . S
O714 C718 1.278 . S
C715 O716 1.203 . S
C715 O722 1.267 . S
O716 C715 1.203 . S
O717 C710 1.185 . S
O717 Zn713 2.086 . S
C718 O714 1.278 . S
C718 O719 1.211 . S
O719 C718 1.211 . S
C720 O712 1.284 . S
C720 O721 1.273 . S
O721 C720 1.273 . S
O722 Zn713 1.977 . S
O722 C715 1.267 . S
C723 O724 1.160 . S
C723 O730 1.185 . S
O724 C723 1.160 . S
O725 Zn726 1.899 . S
O725 C733 1.284 . S
Zn726 O725 1.899 . S
Zn726 O727 2.032 . S
Zn726 O730 2.086 . S
Zn726 O735 1.977 . S
O727 Zn726 2.032 . S
O727 C731 1.278 . S
C728 O729 1.203 . S
C728 O735 1.267 . S
O729 C728 1.203 . S
O730 C723 1.185 . S
O730 Zn726 2.086 . S
C731 O727 1.278 . S
C731 O732 1.211 . S
O732 C731 1.211 . S
C733 O725 1.284 . S
C733 O734 1.273 . S
O734 C733 1.273 . S
O735 Zn726 1.977 . S
O735 C728 1.267 . S
C736 O737 1.160 . S
C736 O743 1.185 . S
O737 C736 1.160 . S
O738 Zn739 1.899 . S
O738 C746 1.284 . S
Zn739 O738 1.899 . S
Zn739 O740 2.032 . S
Zn739 O743 2.086 . S
Zn739 O748 1.977 . S
O740 Zn739 2.032 . S
O740 C744 1.278 . S
C741 O742 1.203 . S
C741 O748 1.267 . S
O742 C741 1.203 . S
O743 C736 1.185 . S
O743 Zn739 2.086 . S
C744 O740 1.278 . S
C744 O745 1.211 . S
O745 C744 1.211 . S
C746 O738 1.284 . S
C746 O747 1.273 . S
O747 C746 1.273 . S
O748 Zn739 1.977 . S
O748 C741 1.267 . S
C749 O750 1.160 . S
C749 O756 1.185 . S
O750 C749 1.160 . S
O751 Zn752 1.899 . S
O751 C759 1.284 . S
Zn752 O751 1.899 . S
Zn752 O753 2.032 . S
Zn752 O756 2.086 . S
Zn752 O761 1.977 . S
O753 Zn752 2.032 . S
O753 C757 1.278 . S
C754 O755 1.203 . S
C754 O761 1.267 . S
O755 C754 1.203 . S
O756 C749 1.185 . S
O756 Zn752 2.086 . S
C757 O753 1.278 . S
C757 O758 1.211 . S
O758 C757 1.211 . S
C759 O751 1.284 . S
C759 O760 1.273 . S
O760 C759 1.273 . S
O761 Zn752 1.977 . S
O761 C754 1.267 . S
H762 C774 0.930 . S
H763 C776 0.930 . S
H764 C777 0.930 . S
H765 C781 0.959 . S
H766 C781 0.959 . S
H767 C781 0.961 . S
H768 C782 0.960 . S
H769 C782 0.961 . S
H770 C782 0.959 . S
H771 C785 0.929 . S
H772 C786 0.931 . S
H773 C788 0.930 . S
C774 H762 0.930 . S
C774 C775 1.399 . S
C774 C779 1.399 . S
C775 C774 1.399 . S
C775 C776 1.376 . S
C776 H763 0.930 . S
C776 C775 1.376 . S
C776 C777 1.388 . S
C777 H764 0.930 . S
C777 C776 1.388 . S
C777 C778 1.390 . S
C778 C777 1.390 . S
C778 C779 1.394 . S
C778 C784 1.465 . S
C779 C774 1.399 . S
C779 C778 1.394 . S
C779 C780 1.516 . S
C780 C779 1.516 . S
C780 C781 1.502 . S
C780 C782 1.561 . S
C780 C783 1.526 . S
C781 H765 0.959 . S
C781 H766 0.959 . S
C781 H767 0.961 . S
C781 C780 1.502 . S
C782 H768 0.960 . S
C782 H769 0.961 . S
C782 H770 0.959 . S
C782 C780 1.561 . S
C783 C780 1.526 . S
C783 C784 1.396 . S
C783 C788 1.390 . S
C784 C778 1.465 . S
C784 C783 1.396 . S
C784 C785 1.399 . S
C785 H771 0.929 . S
C785 C784 1.399 . S
C785 C786 1.385 . S
C786 H772 0.931 . S
C786 C785 1.385 . S
C786 C787 1.389 . S
C787 C786 1.389 . S
C787 C788 1.387 . S
C788 H773 0.930 . S
C788 C783 1.390 . S
C788 C787 1.387 . S
H789 C801 0.930 . S
H790 C803 0.930 . S
H791 C804 0.930 . S
H792 C808 0.959 . S
H793 C808 0.959 . S
H794 C808 0.961 . S
H795 C809 0.960 . S
H796 C809 0.961 . S
H797 C809 0.959 . S
H798 C812 0.929 . S
H799 C813 0.931 . S
H800 C815 0.930 . S
C801 H789 0.930 . S
C801 C802 1.399 . S
C801 C806 1.399 . S
C802 C801 1.399 . S
C802 C803 1.376 . S
C803 H790 0.930 . S
C803 C802 1.376 . S
C803 C804 1.388 . S
C804 H791 0.930 . S
C804 C803 1.388 . S
C804 C805 1.390 . S
C805 C804 1.390 . S
C805 C806 1.394 . S
C805 C811 1.465 . S
C806 C801 1.399 . S
C806 C805 1.394 . S
C806 C807 1.516 . S
C807 C806 1.516 . S
C807 C808 1.502 . S
C807 C809 1.561 . S
C807 C810 1.526 . S
C808 H792 0.959 . S
C808 H793 0.959 . S
C808 H794 0.961 . S
C808 C807 1.502 . S
C809 H795 0.960 . S
C809 H796 0.961 . S
C809 H797 0.959 . S
C809 C807 1.561 . S
C810 C807 1.526 . S
C810 C811 1.396 . S
C810 C815 1.390 . S
C811 C805 1.465 . S
C811 C810 1.396 . S
C811 C812 1.399 . S
C812 H798 0.929 . S
C812 C811 1.399 . S
C812 C813 1.385 . S
C813 H799 0.931 . S
C813 C812 1.385 . S
C813 C814 1.389 . S
C814 C813 1.389 . S
C814 C815 1.387 . S
C815 H800 0.930 . S
C815 C810 1.390 . S
C815 C814 1.387 . S
H816 C828 0.930 . S
H817 C830 0.930 . S
H818 C831 0.930 . S
H819 C835 0.959 . S
H820 C835 0.959 . S
H821 C835 0.961 . S
H822 C836 0.960 . S
H823 C836 0.961 . S
H824 C836 0.959 . S
H825 C839 0.929 . S
H826 C840 0.931 . S
H827 C842 0.930 . S
C828 H816 0.930 . S
C828 C829 1.399 . S
C828 C833 1.399 . S
C829 C828 1.399 . S
C829 C830 1.376 . S
C830 H817 0.930 . S
C830 C829 1.376 . S
C830 C831 1.388 . S
C831 H818 0.930 . S
C831 C830 1.388 . S
C831 C832 1.390 . S
C832 C831 1.390 . S
C832 C833 1.394 . S
C832 C838 1.465 . S
C833 C828 1.399 . S
C833 C832 1.394 . S
C833 C834 1.516 . S
C834 C833 1.516 . S
C834 C835 1.502 . S
C834 C836 1.561 . S
C834 C837 1.526 . S
C835 H819 0.959 . S
C835 H820 0.959 . S
C835 H821 0.961 . S
C835 C834 1.502 . S
C836 H822 0.960 . S
C836 H823 0.961 . S
C836 H824 0.959 . S
C836 C834 1.561 . S
C837 C834 1.526 . S
C837 C838 1.396 . S
C837 C842 1.390 . S
C838 C832 1.465 . S
C838 C837 1.396 . S
C838 C839 1.399 . S
C839 H825 0.929 . S
C839 C838 1.399 . S
C839 C840 1.385 . S
C840 H826 0.931 . S
C840 C839 1.385 . S
C840 C841 1.389 . S
C841 C840 1.389 . S
C841 C842 1.387 . S
C842 H827 0.930 . S
C842 C837 1.390 . S
C842 C841 1.387 . S
H843 C855 0.930 . S
H844 C857 0.930 . S
H845 C858 0.930 . S
H846 C862 0.959 . S
H847 C862 0.959 . S
H848 C862 0.961 . S
H849 C863 0.960 . S
H850 C863 0.961 . S
H851 C863 0.959 . S
H852 C866 0.929 . S
H853 C867 0.931 . S
H854 C869 0.930 . S
C855 H843 0.930 . S
C855 C856 1.399 . S
C855 C860 1.399 . S
C856 C855 1.399 . S
C856 C857 1.376 . S
C857 H844 0.930 . S
C857 C856 1.376 . S
C857 C858 1.388 . S
C858 H845 0.930 . S
C858 C857 1.388 . S
C858 C859 1.390 . S
C859 C858 1.390 . S
C859 C860 1.394 . S
C859 C865 1.465 . S
C860 C855 1.399 . S
C860 C859 1.394 . S
C860 C861 1.516 . S
C861 C860 1.516 . S
C861 C862 1.502 . S
C861 C863 1.561 . S
C861 C864 1.526 . S
C862 H846 0.959 . S
C862 H847 0.959 . S
C862 H848 0.961 . S
C862 C861 1.502 . S
C863 H849 0.960 . S
C863 H850 0.961 . S
C863 H851 0.959 . S
C863 C861 1.561 . S
C864 C861 1.526 . S
C864 C865 1.396 . S
C864 C869 1.390 . S
C865 C859 1.465 . S
C865 C864 1.396 . S
C865 C866 1.399 . S
C866 H852 0.929 . S
C866 C865 1.399 . S
C866 C867 1.385 . S
C867 H853 0.931 . S
C867 C866 1.385 . S
C867 C868 1.389 . S
C868 C867 1.389 . S
C868 C869 1.387 . S
C869 H854 0.930 . S
C869 C864 1.390 . S
C869 C868 1.387 . S
H870 C882 0.930 . S
H871 C884 0.930 . S
H872 C885 0.930 . S
H873 C889 0.959 . S
H874 C889 0.959 . S
H875 C889 0.961 . S
H876 C890 0.960 . S
H877 C890 0.961 . S
H878 C890 0.959 . S
H879 C893 0.929 . S
H880 C894 0.931 . S
H881 C896 0.930 . S
C882 H870 0.930 . S
C882 C883 1.399 . S
C882 C887 1.399 . S
C883 C882 1.399 . S
C883 C884 1.376 . S
C884 H871 0.930 . S
C884 C883 1.376 . S
C884 C885 1.388 . S
C885 H872 0.930 . S
C885 C884 1.388 . S
C885 C886 1.390 . S
C886 C885 1.390 . S
C886 C887 1.394 . S
C886 C892 1.465 . S
C887 C882 1.399 . S
C887 C886 1.394 . S
C887 C888 1.516 . S
C888 C887 1.516 . S
C888 C889 1.502 . S
C888 C890 1.561 . S
C888 C891 1.526 . S
C889 H873 0.959 . S
C889 H874 0.959 . S
C889 H875 0.961 . S
C889 C888 1.502 . S
C890 H876 0.960 . S
C890 H877 0.961 . S
C890 H878 0.959 . S
C890 C888 1.561 . S
C891 C888 1.526 . S
C891 C892 1.396 . S
C891 C896 1.390 . S
C892 C886 1.465 . S
C892 C891 1.396 . S
C892 C893 1.399 . S
C893 H879 0.929 . S
C893 C892 1.399 . S
C893 C894 1.385 . S
C894 H880 0.931 . S
C894 C893 1.385 . S
C894 C895 1.389 . S
C895 C894 1.389 . S
C895 C896 1.387 . S
C896 H881 0.930 . S
C896 C891 1.390 . S
C896 C895 1.387 . S
H897 C909 0.930 . S
H898 C911 0.930 . S
H899 C912 0.930 . S
H900 C916 0.959 . S
H901 C916 0.959 . S
H902 C916 0.961 . S
H903 C917 0.960 . S
H904 C917 0.961 . S
H905 C917 0.959 . S
H906 C920 0.929 . S
H907 C921 0.931 . S
H908 C923 0.930 . S
C909 H897 0.930 . S
C909 C910 1.399 . S
C909 C914 1.399 . S
C910 C909 1.399 . S
C910 C911 1.376 . S
C911 H898 0.930 . S
C911 C910 1.376 . S
C911 C912 1.388 . S
C912 H899 0.930 . S
C912 C911 1.388 . S
C912 C913 1.390 . S
C913 C912 1.390 . S
C913 C914 1.394 . S
C913 C919 1.465 . S
C914 C909 1.399 . S
C914 C913 1.394 . S
C914 C915 1.516 . S
C915 C914 1.516 . S
C915 C916 1.502 . S
C915 C917 1.561 . S
C915 C918 1.526 . S
C916 H900 0.959 . S
C916 H901 0.959 . S
C916 H902 0.961 . S
C916 C915 1.502 . S
C917 H903 0.960 . S
C917 H904 0.961 . S
C917 H905 0.959 . S
C917 C915 1.561 . S
C918 C915 1.526 . S
C918 C919 1.396 . S
C918 C923 1.390 . S
C919 C913 1.465 . S
C919 C918 1.396 . S
C919 C920 1.399 . S
C920 H906 0.929 . S
C920 C919 1.399 . S
C920 C921 1.385 . S
C921 H907 0.931 . S
C921 C920 1.385 . S
C921 C922 1.389 . S
C922 C921 1.389 . S
C922 C923 1.387 . S
C923 H908 0.930 . S
C923 C918 1.390 . S
C923 C922 1.387 . S
H924 C936 0.930 . S
H925 C938 0.930 . S
H926 C939 0.930 . S
H927 C943 0.959 . S
H928 C943 0.959 . S
H929 C943 0.961 . S
H930 C944 0.960 . S
H931 C944 0.961 . S
H932 C944 0.959 . S
H933 C947 0.929 . S
H934 C948 0.931 . S
H935 C950 0.930 . S
C936 H924 0.930 . S
C936 C937 1.399 . S
C936 C941 1.399 . S
C937 C936 1.399 . S
C937 C938 1.376 . S
C938 H925 0.930 . S
C938 C937 1.376 . S
C938 C939 1.388 . S
C939 H926 0.930 . S
C939 C938 1.388 . S
C939 C940 1.390 . S
C940 C939 1.390 . S
C940 C941 1.394 . S
C940 C946 1.465 . S
C941 C936 1.399 . S
C941 C940 1.394 . S
C941 C942 1.516 . S
C942 C941 1.516 . S
C942 C943 1.502 . S
C942 C944 1.561 . S
C942 C945 1.526 . S
C943 H927 0.959 . S
C943 H928 0.959 . S
C943 H929 0.961 . S
C943 C942 1.502 . S
C944 H930 0.960 . S
C944 H931 0.961 . S
C944 H932 0.959 . S
C944 C942 1.561 . S
C945 C942 1.526 . S
C945 C946 1.396 . S
C945 C950 1.390 . S
C946 C940 1.465 . S
C946 C945 1.396 . S
C946 C947 1.399 . S
C947 H933 0.929 . S
C947 C946 1.399 . S
C947 C948 1.385 . S
C948 H934 0.931 . S
C948 C947 1.385 . S
C948 C949 1.389 . S
C949 C948 1.389 . S
C949 C950 1.387 . S
C950 H935 0.930 . S
C950 C945 1.390 . S
C950 C949 1.387 . S
H951 C963 0.930 . S
H952 C965 0.930 . S
H953 C966 0.930 . S
H954 C970 0.959 . S
H955 C970 0.959 . S
H956 C970 0.961 . S
H957 C971 0.960 . S
H958 C971 0.961 . S
H959 C971 0.959 . S
H960 C974 0.929 . S
H961 C975 0.931 . S
H962 C977 0.930 . S
C963 H951 0.930 . S
C963 C964 1.399 . S
C963 C968 1.399 . S
C964 C963 1.399 . S
C964 C965 1.376 . S
C965 H952 0.930 . S
C965 C964 1.376 . S
C965 C966 1.388 . S
C966 H953 0.930 . S
C966 C965 1.388 . S
C966 C967 1.390 . S
C967 C966 1.390 . S
C967 C968 1.394 . S
C967 C973 1.465 . S
C968 C963 1.399 . S
C968 C967 1.394 . S
C968 C969 1.516 . S
C969 C968 1.516 . S
C969 C970 1.502 . S
C969 C971 1.561 . S
C969 C972 1.526 . S
C970 H954 0.959 . S
C970 H955 0.959 . S
C970 H956 0.961 . S
C970 C969 1.502 . S
C971 H957 0.960 . S
C971 H958 0.961 . S
C971 H959 0.959 . S
C971 C969 1.561 . S
C972 C969 1.526 . S
C972 C973 1.396 . S
C972 C977 1.390 . S
C973 C967 1.465 . S
C973 C972 1.396 . S
C973 C974 1.399 . S
C974 H960 0.929 . S
C974 C973 1.399 . S
C974 C975 1.385 . S
C975 H961 0.931 . S
C975 C974 1.385 . S
C975 C976 1.389 . S
C976 C975 1.389 . S
C976 C977 1.387 . S
C977 H962 0.930 . S
C977 C972 1.390 . S
C977 C976 1.387 . S
H978 C990 0.930 . S
H979 C992 0.930 . S
H980 C993 0.930 . S
H981 C997 0.959 . S
H982 C997 0.959 . S
H983 C997 0.961 . S
H984 C998 0.960 . S
H985 C998 0.961 . S
H986 C998 0.959 . S
H987 C1001 0.929 . S
H988 C1002 0.931 . S
H989 C1004 0.930 . S
C990 H978 0.930 . S
C990 C991 1.399 . S
C990 C995 1.399 . S
C991 C990 1.399 . S
C991 C992 1.376 . S
C992 H979 0.930 . S
C992 C991 1.376 . S
C992 C993 1.388 . S
C993 H980 0.930 . S
C993 C992 1.388 . S
C993 C994 1.390 . S
C994 C993 1.390 . S
C994 C995 1.394 . S
C994 C1000 1.465 . S
C995 C990 1.399 . S
C995 C994 1.394 . S
C995 C996 1.516 . S
C996 C995 1.516 . S
C996 C997 1.502 . S
C996 C998 1.561 . S
C996 C999 1.526 . S
C997 H981 0.959 . S
C997 H982 0.959 . S
C997 H983 0.961 . S
C997 C996 1.502 . S
C998 H984 0.960 . S
C998 H985 0.961 . S
C998 H986 0.959 . S
C998 C996 1.561 . S
C999 C996 1.526 . S
C999 C1000 1.396 . S
C999 C1004 1.390 . S
C1000 C994 1.465 . S
C1000 C999 1.396 . S
C1000 C1001 1.399 . S
C1001 H987 0.929 . S
C1001 C1000 1.399 . S
C1001 C1002 1.385 . S
C1002 H988 0.931 . S
C1002 C1001 1.385 . S
C1002 C1003 1.389 . S
C1003 C1002 1.389 . S
C1003 C1004 1.387 . S
C1004 H989 0.930 . S
C1004 C999 1.390 . S
C1004 C1003 1.387 . S
H1005 C1017 0.930 . S
H1006 C1019 0.930 . S
H1007 C1020 0.930 . S
H1008 C1024 0.959 . S
H1009 C1024 0.959 . S
H1010 C1024 0.961 . S
H1011 C1025 0.960 . S
H1012 C1025 0.961 . S
H1013 C1025 0.959 . S
H1014 C1028 0.929 . S
H1015 C1029 0.931 . S
H1016 C1031 0.930 . S
C1017 H1005 0.930 . S
C1017 C1018 1.399 . S
C1017 C1022 1.399 . S
C1018 C1017 1.399 . S
C1018 C1019 1.376 . S
C1019 H1006 0.930 . S
C1019 C1018 1.376 . S
C1019 C1020 1.388 . S
C1020 H1007 0.930 . S
C1020 C1019 1.388 . S
C1020 C1021 1.390 . S
C1021 C1020 1.390 . S
C1021 C1022 1.394 . S
C1021 C1027 1.465 . S
C1022 C1017 1.399 . S
C1022 C1021 1.394 . S
C1022 C1023 1.516 . S
C1023 C1022 1.516 . S
C1023 C1024 1.502 . S
C1023 C1025 1.561 . S
C1023 C1026 1.526 . S
C1024 H1008 0.959 . S
C1024 H1009 0.959 . S
C1024 H1010 0.961 . S
C1024 C1023 1.502 . S
C1025 H1011 0.960 . S
C1025 H1012 0.961 . S
C1025 H1013 0.959 . S
C1025 C1023 1.561 . S
C1026 C1023 1.526 . S
C1026 C1027 1.396 . S
C1026 C1031 1.390 . S
C1027 C1021 1.465 . S
C1027 C1026 1.396 . S
C1027 C1028 1.399 . S
C1028 H1014 0.929 . S
C1028 C1027 1.399 . S
C1028 C1029 1.385 . S
C1029 H1015 0.931 . S
C1029 C1028 1.385 . S
C1029 C1030 1.389 . S
C1030 C1029 1.389 . S
C1030 C1031 1.387 . S
C1031 H1016 0.930 . S
C1031 C1026 1.390 . S
C1031 C1030 1.387 . S
H1032 C1044 0.930 . S
H1033 C1046 0.930 . S
H1034 C1047 0.930 . S
H1035 C1051 0.959 . S
H1036 C1051 0.959 . S
H1037 C1051 0.961 . S
H1038 C1052 0.960 . S
H1039 C1052 0.961 . S
H1040 C1052 0.959 . S
H1041 C1055 0.929 . S
H1042 C1056 0.931 . S
H1043 C1058 0.930 . S
C1044 H1032 0.930 . S
C1044 C1045 1.399 . S
C1044 C1049 1.399 . S
C1045 C1044 1.399 . S
C1045 C1046 1.376 . S
C1046 H1033 0.930 . S
C1046 C1045 1.376 . S
C1046 C1047 1.388 . S
C1047 H1034 0.930 . S
C1047 C1046 1.388 . S
C1047 C1048 1.390 . S
C1048 C1047 1.390 . S
C1048 C1049 1.394 . S
C1048 C1054 1.465 . S
C1049 C1044 1.399 . S
C1049 C1048 1.394 . S
C1049 C1050 1.516 . S
C1050 C1049 1.516 . S
C1050 C1051 1.502 . S
C1050 C1052 1.561 . S
C1050 C1053 1.526 . S
C1051 H1035 0.959 . S
C1051 H1036 0.959 . S
C1051 H1037 0.961 . S
C1051 C1050 1.502 . S
C1052 H1038 0.960 . S
C1052 H1039 0.961 . S
C1052 H1040 0.959 . S
C1052 C1050 1.561 . S
C1053 C1050 1.526 . S
C1053 C1054 1.396 . S
C1053 C1058 1.390 . S
C1054 C1048 1.465 . S
C1054 C1053 1.396 . S
C1054 C1055 1.399 . S
C1055 H1041 0.929 . S
C1055 C1054 1.399 . S
C1055 C1056 1.385 . S
C1056 H1042 0.931 . S
C1056 C1055 1.385 . S
C1056 C1057 1.389 . S
C1057 C1056 1.389 . S
C1057 C1058 1.387 . S
C1058 H1043 0.930 . S
C1058 C1053 1.390 . S
C1058 C1057 1.387 . S
H1059 C1071 0.930 . S
H1060 C1073 0.930 . S
H1061 C1074 0.930 . S
H1062 C1078 0.959 . S
H1063 C1078 0.959 . S
H1064 C1078 0.961 . S
H1065 C1079 0.960 . S
H1066 C1079 0.961 . S
H1067 C1079 0.959 . S
H1068 C1082 0.929 . S
H1069 C1083 0.931 . S
H1070 C1085 0.930 . S
C1071 H1059 0.930 . S
C1071 C1072 1.399 . S
C1071 C1076 1.399 . S
C1072 C1071 1.399 . S
C1072 C1073 1.376 . S
C1073 H1060 0.930 . S
C1073 C1072 1.376 . S
C1073 C1074 1.388 . S
C1074 H1061 0.930 . S
C1074 C1073 1.388 . S
C1074 C1075 1.390 . S
C1075 C1074 1.390 . S
C1075 C1076 1.394 . S
C1075 C1081 1.465 . S
C1076 C1071 1.399 . S
C1076 C1075 1.394 . S
C1076 C1077 1.516 . S
C1077 C1076 1.516 . S
C1077 C1078 1.502 . S
C1077 C1079 1.561 . S
C1077 C1080 1.526 . S
C1078 H1062 0.959 . S
C1078 H1063 0.959 . S
C1078 H1064 0.961 . S
C1078 C1077 1.502 . S
C1079 H1065 0.960 . S
C1079 H1066 0.961 . S
C1079 H1067 0.959 . S
C1079 C1077 1.561 . S
C1080 C1077 1.526 . S
C1080 C1081 1.396 . S
C1080 C1085 1.390 . S
C1081 C1075 1.465 . S
C1081 C1080 1.396 . S
C1081 C1082 1.399 . S
C1082 H1068 0.929 . S
C1082 C1081 1.399 . S
C1082 C1083 1.385 . S
C1083 H1069 0.931 . S
C1083 C1082 1.385 . S
C1083 C1084 1.389 . S
C1084 C1083 1.389 . S
C1084 C1085 1.387 . S
C1085 H1070 0.930 . S
C1085 C1080 1.390 . S
C1085 C1084 1.387 . S
H1086 C1098 0.930 . S
H1087 C1100 0.930 . S
H1088 C1101 0.930 . S
H1089 C1105 0.959 . S
H1090 C1105 0.959 . S
H1091 C1105 0.961 . S
H1092 C1106 0.960 . S
H1093 C1106 0.961 . S
H1094 C1106 0.959 . S
H1095 C1109 0.929 . S
H1096 C1110 0.931 . S
H1097 C1112 0.930 . S
C1098 H1086 0.930 . S
C1098 C1099 1.399 . S
C1098 C1103 1.399 . S
C1099 C1098 1.399 . S
C1099 C1100 1.376 . S
C1100 H1087 0.930 . S
C1100 C1099 1.376 . S
C1100 C1101 1.388 . S
C1101 H1088 0.930 . S
C1101 C1100 1.388 . S
C1101 C1102 1.390 . S
C1102 C1101 1.390 . S
C1102 C1103 1.394 . S
C1102 C1108 1.465 . S
C1103 C1098 1.399 . S
C1103 C1102 1.394 . S
C1103 C1104 1.516 . S
C1104 C1103 1.516 . S
C1104 C1105 1.502 . S
C1104 C1106 1.561 . S
C1104 C1107 1.526 . S
C1105 H1089 0.959 . S
C1105 H1090 0.959 . S
C1105 H1091 0.961 . S
C1105 C1104 1.502 . S
C1106 H1092 0.960 . S
C1106 H1093 0.961 . S
C1106 H1094 0.959 . S
C1106 C1104 1.561 . S
C1107 C1104 1.526 . S
C1107 C1108 1.396 . S
C1107 C1112 1.390 . S
C1108 C1102 1.465 . S
C1108 C1107 1.396 . S
C1108 C1109 1.399 . S
C1109 H1095 0.929 . S
C1109 C1108 1.399 . S
C1109 C1110 1.385 . S
C1110 H1096 0.931 . S
C1110 C1109 1.385 . S
C1110 C1111 1.389 . S
C1111 C1110 1.389 . S
C1111 C1112 1.387 . S
C1112 H1097 0.930 . S
C1112 C1107 1.390 . S
C1112 C1111 1.387 . S
H1113 C1125 0.930 . S
H1114 C1127 0.930 . S
H1115 C1128 0.930 . S
H1116 C1132 0.959 . S
H1117 C1132 0.959 . S
H1118 C1132 0.961 . S
H1119 C1133 0.960 . S
H1120 C1133 0.961 . S
H1121 C1133 0.959 . S
H1122 C1136 0.929 . S
H1123 C1137 0.931 . S
H1124 C1139 0.930 . S
C1125 H1113 0.930 . S
C1125 C1126 1.399 . S
C1125 C1130 1.399 . S
C1126 C1125 1.399 . S
C1126 C1127 1.376 . S
C1127 H1114 0.930 . S
C1127 C1126 1.376 . S
C1127 C1128 1.388 . S
C1128 H1115 0.930 . S
C1128 C1127 1.388 . S
C1128 C1129 1.390 . S
C1129 C1128 1.390 . S
C1129 C1130 1.394 . S
C1129 C1135 1.465 . S
C1130 C1125 1.399 . S
C1130 C1129 1.394 . S
C1130 C1131 1.516 . S
C1131 C1130 1.516 . S
C1131 C1132 1.502 . S
C1131 C1133 1.561 . S
C1131 C1134 1.526 . S
C1132 H1116 0.959 . S
C1132 H1117 0.959 . S
C1132 H1118 0.961 . S
C1132 C1131 1.502 . S
C1133 H1119 0.960 . S
C1133 H1120 0.961 . S
C1133 H1121 0.959 . S
C1133 C1131 1.561 . S
C1134 C1131 1.526 . S
C1134 C1135 1.396 . S
C1134 C1139 1.390 . S
C1135 C1129 1.465 . S
C1135 C1134 1.396 . S
C1135 C1136 1.399 . S
C1136 H1122 0.929 . S
C1136 C1135 1.399 . S
C1136 C1137 1.385 . S
C1137 H1123 0.931 . S
C1137 C1136 1.385 . S
C1137 C1138 1.389 . S
C1138 C1137 1.389 . S
C1138 C1139 1.387 . S
C1139 H1124 0.930 . S
C1139 C1134 1.390 . S
C1139 C1138 1.387 . S
H1140 C1152 0.930 . S
H1141 C1154 0.930 . S
H1142 C1155 0.930 . S
H1143 C1159 0.959 . S
H1144 C1159 0.959 . S
H1145 C1159 0.961 . S
H1146 C1160 0.960 . S
H1147 C1160 0.961 . S
H1148 C1160 0.959 . S
H1149 C1163 0.929 . S
H1150 C1164 0.931 . S
H1151 C1166 0.930 . S
C1152 H1140 0.930 . S
C1152 C1153 1.399 . S
C1152 C1157 1.399 . S
C1153 C1152 1.399 . S
C1153 C1154 1.376 . S
C1154 H1141 0.930 . S
C1154 C1153 1.376 . S
C1154 C1155 1.388 . S
C1155 H1142 0.930 . S
C1155 C1154 1.388 . S
C1155 C1156 1.390 . S
C1156 C1155 1.390 . S
C1156 C1157 1.394 . S
C1156 C1162 1.465 . S
C1157 C1152 1.399 . S
C1157 C1156 1.394 . S
C1157 C1158 1.516 . S
C1158 C1157 1.516 . S
C1158 C1159 1.502 . S
C1158 C1160 1.561 . S
C1158 C1161 1.526 . S
C1159 H1143 0.959 . S
C1159 H1144 0.959 . S
C1159 H1145 0.961 . S
C1159 C1158 1.502 . S
C1160 H1146 0.960 . S
C1160 H1147 0.961 . S
C1160 H1148 0.959 . S
C1160 C1158 1.561 . S
C1161 C1158 1.526 . S
C1161 C1162 1.396 . S
C1161 C1166 1.390 . S
C1162 C1156 1.465 . S
C1162 C1161 1.396 . S
C1162 C1163 1.399 . S
C1163 H1149 0.929 . S
C1163 C1162 1.399 . S
C1163 C1164 1.385 . S
C1164 H1150 0.931 . S
C1164 C1163 1.385 . S
C1164 C1165 1.389 . S
C1165 C1164 1.389 . S
C1165 C1166 1.387 . S
C1166 H1151 0.930 . S
C1166 C1161 1.390 . S
C1166 C1165 1.387 . S
H1167 C1179 0.930 . S
H1168 C1181 0.930 . S
H1169 C1182 0.930 . S
H1170 C1186 0.962 . S
H1171 C1186 0.959 1_554 S
H1172 C1186 0.961 . S
H1173 C1187 0.960 . S
H1174 C1187 0.961 . S
H1175 C1187 0.959 . S
H1176 C1190 0.929 . S
H1177 C1191 0.931 . S
H1178 C1193 0.930 . S
C1179 H1167 0.930 . S
C1179 C1180 1.399 . S
C1179 C1184 1.399 . S
C1180 C1179 1.399 . S
C1180 C1181 1.376 . S
C1181 H1168 0.930 . S
C1181 C1180 1.376 . S
C1181 C1182 1.388 . S
C1182 H1169 0.930 . S
C1182 C1181 1.388 . S
C1182 C1183 1.390 . S
C1183 C1182 1.390 . S
C1183 C1184 1.394 . S
C1183 C1189 1.465 . S
C1184 C1179 1.399 . S
C1184 C1183 1.394 . S
C1184 C1185 1.516 . S
C1185 C1184 1.516 . S
C1185 C1186 1.502 . S
C1185 C1187 1.561 . S
C1185 C1188 1.526 . S
C1186 H1170 0.962 . S
C1186 H1171 0.959 1_556 S
C1186 H1172 0.961 . S
C1186 C1185 1.502 . S
C1187 H1173 0.960 . S
C1187 H1174 0.961 . S
C1187 H1175 0.959 . S
C1187 C1185 1.561 . S
C1188 C1185 1.526 . S
C1188 C1189 1.396 . S
C1188 C1193 1.390 1_556 S
C1189 C1183 1.465 . S
C1189 C1188 1.396 . S
C1189 C1190 1.399 . S
C1190 H1176 0.929 . S
C1190 C1189 1.399 . S
C1190 C1191 1.385 1_556 S
C1191 H1177 0.931 . S
C1191 C1190 1.385 1_554 S
C1191 C1192 1.389 . S
C1192 C1191 1.389 . S
C1192 C1193 1.387 . S
C1193 H1178 0.930 . S
C1193 C1188 1.390 1_554 S
C1193 C1192 1.387 . S
H1194 C1206 0.930 . S
H1195 C1208 0.930 . S
H1196 C1209 0.930 . S
H1197 C1213 0.959 . S
H1198 C1213 0.959 . S
H1199 C1213 0.961 . S
H1200 C1214 0.960 . S
H1201 C1214 0.961 . S
H1202 C1214 0.959 . S
H1203 C1217 0.929 . S
H1204 C1218 0.931 . S
H1205 C1220 0.930 . S
C1206 H1194 0.930 . S
C1206 C1207 1.399 . S
C1206 C1211 1.399 . S
C1207 C1206 1.399 . S
C1207 C1208 1.376 . S
C1208 H1195 0.930 . S
C1208 C1207 1.376 . S
C1208 C1209 1.388 . S
C1209 H1196 0.930 . S
C1209 C1208 1.388 . S
C1209 C1210 1.390 . S
C1210 C1209 1.390 . S
C1210 C1211 1.394 . S
C1210 C1216 1.465 . S
C1211 C1206 1.399 . S
C1211 C1210 1.394 . S
C1211 C1212 1.516 . S
C1212 C1211 1.516 . S
C1212 C1213 1.502 . S
C1212 C1214 1.561 . S
C1212 C1215 1.526 . S
C1213 H1197 0.959 . S
C1213 H1198 0.959 . S
C1213 H1199 0.961 . S
C1213 C1212 1.502 . S
C1214 H1200 0.960 . S
C1214 H1201 0.961 . S
C1214 H1202 0.959 . S
C1214 C1212 1.561 . S
C1215 C1212 1.526 . S
C1215 C1216 1.396 . S
C1215 C1220 1.390 . S
C1216 C1210 1.465 . S
C1216 C1215 1.396 . S
C1216 C1217 1.399 . S
C1217 H1203 0.929 . S
C1217 C1216 1.399 . S
C1217 C1218 1.385 . S
C1218 H1204 0.931 . S
C1218 C1217 1.385 . S
C1218 C1219 1.389 . S
C1219 C1218 1.389 . S
C1219 C1220 1.387 . S
C1220 H1205 0.930 . S
C1220 C1215 1.390 . S
C1220 C1219 1.387 . S
H1221 C1233 0.930 . S
H1222 C1235 0.930 . S
H1223 C1236 0.930 . S
H1224 C1240 0.959 . S
H1225 C1240 0.959 . S
H1226 C1240 0.961 . S
H1227 C1241 0.960 . S
H1228 C1241 0.961 . S
H1229 C1241 0.959 . S
H1230 C1244 0.929 . S
H1231 C1245 0.931 . S
H1232 C1247 0.930 . S
C1233 H1221 0.930 . S
C1233 C1234 1.399 . S
C1233 C1238 1.399 . S
C1234 C1233 1.399 . S
C1234 C1235 1.376 . S
C1235 H1222 0.930 . S
C1235 C1234 1.376 . S
C1235 C1236 1.388 . S
C1236 H1223 0.930 . S
C1236 C1235 1.388 . S
C1236 C1237 1.390 . S
C1237 C1236 1.390 . S
C1237 C1238 1.394 . S
C1237 C1243 1.465 . S
C1238 C1233 1.399 . S
C1238 C1237 1.394 . S
C1238 C1239 1.516 . S
C1239 C1238 1.516 . S
C1239 C1240 1.502 . S
C1239 C1241 1.561 . S
C1239 C1242 1.526 . S
C1240 H1224 0.959 . S
C1240 H1225 0.959 . S
C1240 H1226 0.961 . S
C1240 C1239 1.502 . S
C1241 H1227 0.960 . S
C1241 H1228 0.961 . S
C1241 H1229 0.959 . S
C1241 C1239 1.561 . S
C1242 C1239 1.526 . S
C1242 C1243 1.396 . S
C1242 C1247 1.390 . S
C1243 C1237 1.465 . S
C1243 C1242 1.396 . S
C1243 C1244 1.399 . S
C1244 H1230 0.929 . S
C1244 C1243 1.399 . S
C1244 C1245 1.385 . S
C1245 H1231 0.931 . S
C1245 C1244 1.385 . S
C1245 C1246 1.389 . S
C1246 C1245 1.389 . S
C1246 C1247 1.387 . S
C1247 H1232 0.930 . S
C1247 C1242 1.390 . S
C1247 C1246 1.387 . S
H1248 C1260 0.930 . S
H1249 C1262 0.930 . S
H1250 C1263 0.930 . S
H1251 C1267 0.959 . S
H1252 C1267 0.959 . S
H1253 C1267 0.961 . S
H1254 C1268 0.960 . S
H1255 C1268 0.961 . S
H1256 C1268 0.959 . S
H1257 C1271 0.929 . S
H1258 C1272 0.931 . S
H1259 C1274 0.930 . S
C1260 H1248 0.930 . S
C1260 C1261 1.399 . S
C1260 C1265 1.399 . S
C1261 C1260 1.399 . S
C1261 C1262 1.376 . S
C1262 H1249 0.930 . S
C1262 C1261 1.376 . S
C1262 C1263 1.388 . S
C1263 H1250 0.930 . S
C1263 C1262 1.388 . S
C1263 C1264 1.390 . S
C1264 C1263 1.390 . S
C1264 C1265 1.394 . S
C1264 C1270 1.465 . S
C1265 C1260 1.399 . S
C1265 C1264 1.394 . S
C1265 C1266 1.516 . S
C1266 C1265 1.516 . S
C1266 C1267 1.502 . S
C1266 C1268 1.561 . S
C1266 C1269 1.526 . S
C1267 H1251 0.959 . S
C1267 H1252 0.959 . S
C1267 H1253 0.961 . S
C1267 C1266 1.502 . S
C1268 H1254 0.960 . S
C1268 H1255 0.961 . S
C1268 H1256 0.959 . S
C1268 C1266 1.561 . S
C1269 C1266 1.526 . S
C1269 C1270 1.396 . S
C1269 C1274 1.390 . S
C1270 C1264 1.465 . S
C1270 C1269 1.396 . S
C1270 C1271 1.399 . S
C1271 H1257 0.929 . S
C1271 C1270 1.399 . S
C1271 C1272 1.385 . S
C1272 H1258 0.931 . S
C1272 C1271 1.385 . S
C1272 C1273 1.389 . S
C1273 C1272 1.389 . S
C1273 C1274 1.387 . S
C1274 H1259 0.930 . S
C1274 C1269 1.390 . S
C1274 C1273 1.387 . S
H1275 C1287 0.930 . S
H1276 C1289 0.930 . S
H1277 C1290 0.930 . S
H1278 C1294 0.959 . S
H1279 C1294 0.959 . S
H1280 C1294 0.961 . S
H1281 C1295 0.960 . S
H1282 C1295 0.961 . S
H1283 C1295 0.959 . S
H1284 C1298 0.929 . S
H1285 C1299 0.931 . S
H1286 C1301 0.930 . S
C1287 H1275 0.930 . S
C1287 C1288 1.399 . S
C1287 C1292 1.399 . S
C1288 C1287 1.399 . S
C1288 C1289 1.376 . S
C1289 H1276 0.930 . S
C1289 C1288 1.376 . S
C1289 C1290 1.388 . S
C1290 H1277 0.930 . S
C1290 C1289 1.388 . S
C1290 C1291 1.390 . S
C1291 C1290 1.390 . S
C1291 C1292 1.394 . S
C1291 C1297 1.465 . S
C1292 C1287 1.399 . S
C1292 C1291 1.394 . S
C1292 C1293 1.516 . S
C1293 C1292 1.516 . S
C1293 C1294 1.502 . S
C1293 C1295 1.561 . S
C1293 C1296 1.526 . S
C1294 H1278 0.959 . S
C1294 H1279 0.959 . S
C1294 H1280 0.961 . S
C1294 C1293 1.502 . S
C1295 H1281 0.960 . S
C1295 H1282 0.961 . S
C1295 H1283 0.959 . S
C1295 C1293 1.561 . S
C1296 C1293 1.526 . S
C1296 C1297 1.396 . S
C1296 C1301 1.390 . S
C1297 C1291 1.465 . S
C1297 C1296 1.396 . S
C1297 C1298 1.399 . S
C1298 H1284 0.929 . S
C1298 C1297 1.399 . S
C1298 C1299 1.385 . S
C1299 H1285 0.931 . S
C1299 C1298 1.385 . S
C1299 C1300 1.389 . S
C1300 C1299 1.389 . S
C1300 C1301 1.387 . S
C1301 H1286 0.930 . S
C1301 C1296 1.390 . S
C1301 C1300 1.387 . S
H1302 C1314 0.930 . S
H1303 C1316 0.930 . S
H1304 C1317 0.930 . S
H1305 C1321 0.959 . S
H1306 C1321 0.959 . S
H1307 C1321 0.961 . S
H1308 C1322 0.960 . S
H1309 C1322 0.961 . S
H1310 C1322 0.959 . S
H1311 C1325 0.929 . S
H1312 C1326 0.931 . S
H1313 C1328 0.930 . S
C1314 H1302 0.930 . S
C1314 C1315 1.399 . S
C1314 C1319 1.399 . S
C1315 C1314 1.399 . S
C1315 C1316 1.376 . S
C1316 H1303 0.930 . S
C1316 C1315 1.376 . S
C1316 C1317 1.388 . S
C1317 H1304 0.930 . S
C1317 C1316 1.388 . S
C1317 C1318 1.390 . S
C1318 C1317 1.390 . S
C1318 C1319 1.394 . S
C1318 C1324 1.465 . S
C1319 C1314 1.399 . S
C1319 C1318 1.394 . S
C1319 C1320 1.516 . S
C1320 C1319 1.516 . S
C1320 C1321 1.502 . S
C1320 C1322 1.561 . S
C1320 C1323 1.526 . S
C1321 H1305 0.959 . S
C1321 H1306 0.959 . S
C1321 H1307 0.961 . S
C1321 C1320 1.502 . S
C1322 H1308 0.960 . S
C1322 H1309 0.961 . S
C1322 H1310 0.959 . S
C1322 C1320 1.561 . S
C1323 C1320 1.526 . S
C1323 C1324 1.396 . S
C1323 C1328 1.390 . S
C1324 C1318 1.465 . S
C1324 C1323 1.396 . S
C1324 C1325 1.399 . S
C1325 H1311 0.929 . S
C1325 C1324 1.399 . S
C1325 C1326 1.385 . S
C1326 H1312 0.931 . S
C1326 C1325 1.385 . S
C1326 C1327 1.389 . S
C1327 C1326 1.389 . S
C1327 C1328 1.387 . S
C1328 H1313 0.930 . S
C1328 C1323 1.390 . S
C1328 C1327 1.387 . S
H1329 C1341 0.930 . S
H1330 C1343 0.930 . S
H1331 C1344 0.930 . S
H1332 C1348 0.959 . S
H1333 C1348 0.959 . S
H1334 C1348 0.961 . S
H1335 C1349 0.960 . S
H1336 C1349 0.961 . S
H1337 C1349 0.959 . S
H1338 C1352 0.929 . S
H1339 C1353 0.931 . S
H1340 C1355 0.930 . S
C1341 H1329 0.930 . S
C1341 C1342 1.399 . S
C1341 C1346 1.399 . S
C1342 C1341 1.399 . S
C1342 C1343 1.376 . S
C1343 H1330 0.930 . S
C1343 C1342 1.376 . S
C1343 C1344 1.388 . S
C1344 H1331 0.930 . S
C1344 C1343 1.388 . S
C1344 C1345 1.390 . S
C1345 C1344 1.390 . S
C1345 C1346 1.394 . S
C1345 C1351 1.465 . S
C1346 C1341 1.399 . S
C1346 C1345 1.394 . S
C1346 C1347 1.516 . S
C1347 C1346 1.516 . S
C1347 C1348 1.502 . S
C1347 C1349 1.561 . S
C1347 C1350 1.526 . S
C1348 H1332 0.959 . S
C1348 H1333 0.959 . S
C1348 H1334 0.961 . S
C1348 C1347 1.502 . S
C1349 H1335 0.960 . S
C1349 H1336 0.961 . S
C1349 H1337 0.959 . S
C1349 C1347 1.561 . S
C1350 C1347 1.526 . S
C1350 C1351 1.396 . S
C1350 C1355 1.390 . S
C1351 C1345 1.465 . S
C1351 C1350 1.396 . S
C1351 C1352 1.399 . S
C1352 H1338 0.929 . S
C1352 C1351 1.399 . S
C1352 C1353 1.385 . S
C1353 H1339 0.931 . S
C1353 C1352 1.385 . S
C1353 C1354 1.389 . S
C1354 C1353 1.389 . S
C1354 C1355 1.387 . S
C1355 H1340 0.930 . S
C1355 C1350 1.390 . S
C1355 C1354 1.387 . S
H1356 C1368 0.930 . S
H1357 C1370 0.930 . S
H1358 C1371 0.930 . S
H1359 C1375 0.959 . S
H1360 C1375 0.959 . S
H1361 C1375 0.961 . S
H1362 C1376 0.960 . S
H1363 C1376 0.961 . S
H1364 C1376 0.959 . S
H1365 C1379 0.929 . S
H1366 C1380 0.931 . S
H1367 C1382 0.930 . S
C1368 H1356 0.930 . S
C1368 C1369 1.399 . S
C1368 C1373 1.399 1_554 S
C1369 C1368 1.399 . S
C1369 C1370 1.376 . S
C1370 H1357 0.930 . S
C1370 C1369 1.376 . S
C1370 C1371 1.388 . S
C1371 H1358 0.930 . S
C1371 C1370 1.388 . S
C1371 C1372 1.390 1_554 S
C1372 C1371 1.390 1_556 S
C1372 C1373 1.394 . S
C1372 C1378 1.465 . S
C1373 C1368 1.399 1_556 S
C1373 C1372 1.394 . S
C1373 C1374 1.516 . S
C1374 C1373 1.516 . S
C1374 C1375 1.502 . S
C1374 C1376 1.561 . S
C1374 C1377 1.526 . S
C1375 H1359 0.959 . S
C1375 H1360 0.959 . S
C1375 H1361 0.961 . S
C1375 C1374 1.502 . S
C1376 H1362 0.960 . S
C1376 H1363 0.961 . S
C1376 H1364 0.959 . S
C1376 C1374 1.561 . S
C1377 C1374 1.526 . S
C1377 C1378 1.396 . S
C1377 C1382 1.390 . S
C1378 C1372 1.465 . S
C1378 C1377 1.396 . S
C1378 C1379 1.399 . S
C1379 H1365 0.929 . S
C1379 C1378 1.399 . S
C1379 C1380 1.385 . S
C1380 H1366 0.931 . S
C1380 C1379 1.385 . S
C1380 C1381 1.389 . S
C1381 C1380 1.389 . S
C1381 C1382 1.387 . S
C1382 H1367 0.930 . S
C1382 C1377 1.390 . S
C1382 C1381 1.387 . S
H1383 C1395 0.930 . S
H1384 C1397 0.930 . S
H1385 C1398 0.930 . S
H1386 C1402 0.959 . S
H1387 C1402 0.959 . S
H1388 C1402 0.961 . S
H1389 C1403 0.960 . S
H1390 C1403 0.961 . S
H1391 C1403 0.959 . S
H1392 C1406 0.929 . S
H1393 C1407 0.931 . S
H1394 C1409 0.930 . S
C1395 H1383 0.930 . S
C1395 C1396 1.399 . S
C1395 C1400 1.399 . S
C1396 C1395 1.399 . S
C1396 C1397 1.376 . S
C1397 H1384 0.930 . S
C1397 C1396 1.376 . S
C1397 C1398 1.388 . S
C1398 H1385 0.930 . S
C1398 C1397 1.388 . S
C1398 C1399 1.390 . S
C1399 C1398 1.390 . S
C1399 C1400 1.394 . S
C1399 C1405 1.465 . S
C1400 C1395 1.399 . S
C1400 C1399 1.394 . S
C1400 C1401 1.516 . S
C1401 C1400 1.516 . S
C1401 C1402 1.502 . S
C1401 C1403 1.561 . S
C1401 C1404 1.526 . S
C1402 H1386 0.959 . S
C1402 H1387 0.959 . S
C1402 H1388 0.961 . S
C1402 C1401 1.502 . S
C1403 H1389 0.960 . S
C1403 H1390 0.961 . S
C1403 H1391 0.959 . S
C1403 C1401 1.561 . S
C1404 C1401 1.526 . S
C1404 C1405 1.396 . S
C1404 C1409 1.390 . S
C1405 C1399 1.465 . S
C1405 C1404 1.396 . S
C1405 C1406 1.399 . S
C1406 H1392 0.929 . S
C1406 C1405 1.399 . S
C1406 C1407 1.385 . S
C1407 H1393 0.931 . S
C1407 C1406 1.385 . S
C1407 C1408 1.389 . S
C1408 C1407 1.389 . S
C1408 C1409 1.387 . S
C1409 H1394 0.930 . S
C1409 C1404 1.390 . S
C1409 C1408 1.387 . S
C787 C759 1.740 . S
C775 C1 1.289 . S
C802 C169 1.508 . S
C814 C684 1.665 . S
C829 C283 1.667 . S
C841 C707 1.880 . S
C856 C397 1.218 . S
C868 C720 1.408 . S
C895 C723 1.528 . S
C883 C457 1.151 . S
C910 C571 1.141 . S
C922 C736 1.287 . S
C937 C115 1.066 . S
C949 C697 1.450 . S
C964 C229 1.180 . S
C976 C710 1.546 . S
C991 C343 0.882 . S
C1003 C733 1.288 . S
C1030 C746 1.765 . S
C1018 C511 1.498 . S
C1057 C749 1.643 . S
C1045 C625 1.497 . S
C1084 C694 1.861 . S
C1072 C55 1.645 . S
C1099 C29 1.193 . S
C1111 C705 1.346 . S
C1126 C125 0.942 . S
C1138 C718 1.470 . S
C1165 C728 1.375 . S
C1153 C239 0.997 . S
C1180 C353 0.958 . S
C1192 C741 1.329 . S
C1219 C757 1.332 . S
C1207 C485 1.079 . S
C1246 C689 1.391 . S
C1234 C599 1.196 . S
C1273 C754 1.370 . S
C1261 C143 1.123 . S
C1288 C257 1.193 . S
C1300 C692 1.390 . S
C1327 C702 1.333 . S
C1315 C371 1.194 . S
C1342 C467 0.958 . S
C1354 C715 1.384 . S
C1369 C581 0.986 . S
C1381 C731 1.399 . S
C1396 C11 0.956 . S
C1408 C744 1.434 . S
