# Generated by pormake.
# Topology ssb, (4,4)-cn, num edge types: 1
# Building blocks:
#     Node 0, Type 0, BuildingBlock: MUDLON_clean_linker_0, # of connection points: 4
#     Node 1, Type 0, BuildingBlock: MUDLON_clean_linker_0, # of connection points: 4
#     Node 2, Type 0, BuildingBlock: MUDLON_clean_linker_0, # of connection points: 4
#     Node 3, Type 0, BuildingBlock: MUDLON_clean_linker_0, # of connection points: 4
#     Node 4, Type 0, BuildingBlock: MUDLON_clean_linker_0, # of connection points: 4
#     Node 5, Type 0, BuildingBlock: MUDLON_clean_linker_0, # of connection points: 4
#     Node 6, Type 0, BuildingBlock: MUDLON_clean_linker_0, # of connection points: 4
#     Node 7, Type 0, BuildingBlock: MUDLON_clean_linker_0, # of connection points: 4
#     Node 8, Type 1, BuildingBlock: KOZSID_clean_sbu_0, # of connection points: 4
#     Node 9, Type 1, BuildingBlock: KOZSID_clean_sbu_0, # of connection points: 4
#     Node 10, Type 1, BuildingBlock: KOZSID_clean_sbu_0, # of connection points: 4
#     Node 11, Type 1, BuildingBlock: KOZSID_clean_sbu_0, # of connection points: 4
#     Node 12, Type 1, BuildingBlock: KOZSID_clean_sbu_0, # of connection points: 4
#     Node 13, Type 1, BuildingBlock: KOZSID_clean_sbu_0, # of connection points: 4
#     Node 14, Type 1, BuildingBlock: KOZSID_clean_sbu_0, # of connection points: 4
#     Node 15, Type 1, BuildingBlock: KOZSID_clean_sbu_0, # of connection points: 4
#     Edge 16, Type (0, 1), BuildingBlock: XUDNAN_clean_linker_2, # of connection points: 2
#     Edge 17, Type (0, 1), BuildingBlock: XUDNAN_clean_linker_2, # of connection points: 2
#     Edge 18, Type (0, 1), BuildingBlock: XUDNAN_clean_linker_2, # of connection points: 2
#     Edge 19, Type (0, 1), BuildingBlock: XUDNAN_clean_linker_2, # of connection points: 2
#     Edge 20, Type (0, 1), BuildingBlock: XUDNAN_clean_linker_2, # of connection points: 2
#     Edge 21, Type (0, 1), BuildingBlock: XUDNAN_clean_linker_2, # of connection points: 2
#     Edge 22, Type (0, 1), BuildingBlock: XUDNAN_clean_linker_2, # of connection points: 2
#     Edge 23, Type (0, 1), BuildingBlock: XUDNAN_clean_linker_2, # of connection points: 2
#     Edge 24, Type (0, 1), BuildingBlock: XUDNAN_clean_linker_2, # of connection points: 2
#     Edge 25, Type (0, 1), BuildingBlock: XUDNAN_clean_linker_2, # of connection points: 2
#     Edge 26, Type (0, 1), BuildingBlock: XUDNAN_clean_linker_2, # of connection points: 2
#     Edge 27, Type (0, 1), BuildingBlock: XUDNAN_clean_linker_2, # of connection points: 2
#     Edge 28, Type (0, 1), BuildingBlock: XUDNAN_clean_linker_2, # of connection points: 2
#     Edge 29, Type (0, 1), BuildingBlock: XUDNAN_clean_linker_2, # of connection points: 2
#     Edge 30, Type (0, 1), BuildingBlock: XUDNAN_clean_linker_2, # of connection points: 2
#     Edge 31, Type (0, 1), BuildingBlock: XUDNAN_clean_linker_2, # of connection points: 2
#     Edge 32, Type (0, 1), BuildingBlock: XUDNAN_clean_linker_2, # of connection points: 2
#     Edge 33, Type (0, 1), BuildingBlock: XUDNAN_clean_linker_2, # of connection points: 2
#     Edge 34, Type (0, 1), BuildingBlock: XUDNAN_clean_linker_2, # of connection points: 2
#     Edge 35, Type (0, 1), BuildingBlock: XUDNAN_clean_linker_2, # of connection points: 2
#     Edge 36, Type (0, 1), BuildingBlock: XUDNAN_clean_linker_2, # of connection points: 2
#     Edge 37, Type (0, 1), BuildingBlock: XUDNAN_clean_linker_2, # of connection points: 2
#     Edge 38, Type (0, 1), BuildingBlock: XUDNAN_clean_linker_2, # of connection points: 2
#     Edge 39, Type (0, 1), BuildingBlock: XUDNAN_clean_linker_2, # of connection points: 2
#     Edge 40, Type (0, 1), BuildingBlock: XUDNAN_clean_linker_2, # of connection points: 2
#     Edge 41, Type (0, 1), BuildingBlock: XUDNAN_clean_linker_2, # of connection points: 2
#     Edge 42, Type (0, 1), BuildingBlock: XUDNAN_clean_linker_2, # of connection points: 2
#     Edge 43, Type (0, 1), BuildingBlock: XUDNAN_clean_linker_2, # of connection points: 2
#     Edge 44, Type (0, 1), BuildingBlock: XUDNAN_clean_linker_2, # of connection points: 2
#     Edge 45, Type (0, 1), BuildingBlock: XUDNAN_clean_linker_2, # of connection points: 2
#     Edge 46, Type (0, 1), BuildingBlock: XUDNAN_clean_linker_2, # of connection points: 2
#     Edge 47, Type (0, 1), BuildingBlock: XUDNAN_clean_linker_2, # of connection points: 2
# Relax obj value: 0.003
# Max RMSD: 0.058
# Mean RMSD: 0.024
data_MOF--net-ssb--node1-KOZSID_clean_sbu_0--node2-MUDLON_clean_linker_0--edge1-XUDNAN_clean_linker_2
_symmetry_space_group_name_H-M    P1
_symmetry_Int_Tables_number       1
_symmetry_cell_setting            triclinic
loop_
_symmetry_equiv_pos_as_xyz
'x, y, z'
_cell_length_a     70.045932
_cell_length_b     69.938661
_cell_length_c     51.614263
_cell_angle_alpha  92.142304
_cell_angle_beta   94.251355
_cell_angle_gamma 89.983016
loop_
_atom_site_label
_atom_site_type_symbol
_atom_site_fract_x
_atom_site_fract_y
_atom_site_fract_z
_atom_type_partial_charge
H0 H 0.2774 0.2994 0.15656 0.0
N1 N 0.29732 0.2975 0.20212 0.0
H2 H 0.2669 0.3282 0.13419 0.0
H3 H 0.29784 0.33403 0.22366 0.0
H4 H 0.28727 0.3629 0.2016 0.0
H5 H 0.32773 0.31821 0.22421 0.0
H6 H 0.35969 0.31901 0.20803 0.0
H7 H 0.31169 0.27214 0.16919 0.0
H8 H 0.34392 0.27244 0.15343 0.0
H9 H 0.27707 0.26549 0.20215 0.0
H10 H 0.3025 0.3101 0.25311 0.0
H11 H 0.26568 0.24956 0.23941 0.0
H12 H 0.29023 0.29503 0.29044 0.0
H13 H 0.21647 0.21529 0.3398 0.0
H14 H 0.18383 0.2201 0.35167 0.0
H15 H 0.20157 0.27161 0.39593 0.0
H16 H 0.23458 0.26606 0.3848 0.0
H17 H 0.25635 0.22488 0.4056 0.0
H18 H 0.26058 0.19222 0.41969 0.0
H19 H 0.25728 0.17187 0.33928 0.0
H20 H 0.25181 0.20452 0.32558 0.0
H21 H 0.23146 0.23515 0.30756 0.0
H22 H 0.24333 0.25052 0.27043 0.0
H23 H 0.29369 0.26938 0.31811 0.0
N24 N 0.24795 0.23639 0.35772 0.0
H25 H 0.281 0.25481 0.35563 0.0
C26 C 0.28827 0.31442 0.1918 0.0
C27 C 0.27914 0.3132 0.16672 0.0
C28 C 0.2732 0.32971 0.15396 0.0
C29 C 0.27632 0.34794 0.16602 0.0
C30 C 0.28487 0.34913 0.1916 0.0
C31 C 0.29075 0.33254 0.20439 0.0
C32 C 0.31724 0.29526 0.19759 0.0
C33 C 0.33122 0.30792 0.20917 0.0
C34 C 0.34949 0.30836 0.19992 0.0
C35 C 0.35418 0.29588 0.17937 0.0
C36 C 0.34071 0.28213 0.16939 0.0
C37 C 0.32234 0.28194 0.17834 0.0
C38 C 0.29036 0.28909 0.22471 0.0
C39 C 0.27992 0.27198 0.22142 0.0
C40 C 0.27331 0.26297 0.24282 0.0
C41 C 0.27683 0.27098 0.26818 0.0
C42 C 0.28738 0.28822 0.27138 0.0
C43 C 0.2942 0.29709 0.24991 0.0
C44 C 0.22807 0.2403 0.36159 0.0
C45 C 0.21335 0.22772 0.35186 0.0
C46 C 0.19457 0.23059 0.35858 0.0
C47 C 0.18995 0.24623 0.37492 0.0
C48 C 0.2046 0.25922 0.38373 0.0
C49 C 0.22344 0.25622 0.37717 0.0
C50 C 0.25388 0.21729 0.36462 0.0
C51 C 0.2569 0.21337 0.39105 0.0
C52 C 0.2594 0.1946 0.39904 0.0
C53 C 0.2592 0.17915 0.38071 0.0
C54 C 0.25712 0.18323 0.35408 0.0
C55 C 0.25428 0.20204 0.34612 0.0
C56 C 0.25524 0.24402 0.33467 0.0
C57 C 0.245 0.24264 0.31015 0.0
C58 C 0.25197 0.25136 0.28872 0.0
C59 C 0.26952 0.2614 0.29105 0.0
C60 C 0.27994 0.26223 0.3155 0.0
C61 C 0.27283 0.25371 0.33698 0.0
H62 H 0.69952 0.36297 0.23619 0.0
N63 N 0.71067 0.32788 0.24806 0.0
H64 H 0.71369 0.38449 0.20686 0.0
H65 H 0.74369 0.32148 0.22326 0.0
H66 H 0.75891 0.34343 0.19581 0.0
H67 H 0.70549 0.31326 0.19792 0.0
H68 H 0.67526 0.30339 0.17538 0.0
H69 H 0.67777 0.32203 0.26919 0.0
H70 H 0.6476 0.31048 0.24739 0.0
H71 H 0.72822 0.33807 0.29372 0.0
H72 H 0.72104 0.29059 0.2382 0.0
H73 H 0.75023 0.31916 0.32121 0.0
H74 H 0.74211 0.27111 0.26621 0.0
H75 H 0.81653 0.25529 0.40963 0.0
H76 H 0.85063 0.25988 0.42046 0.0
H77 H 0.85971 0.26131 0.3385 0.0
H78 H 0.82575 0.25527 0.32805 0.0
H79 H 0.80923 0.2208 0.32954 0.0
H80 H 0.80606 0.18632 0.33575 0.0
H81 H 0.77835 0.19851 0.40645 0.0
H82 H 0.78104 0.2329 0.39972 0.0
H83 H 0.77381 0.27541 0.3773 0.0
H84 H 0.75153 0.29379 0.34943 0.0
H85 H 0.77417 0.26661 0.28157 0.0
N86 N 0.7988 0.24946 0.36302 0.0
H87 H 0.79545 0.24753 0.30969 0.0
C88 C 0.72055 0.34074 0.23227 0.0
C89 C 0.71255 0.35872 0.22748 0.0
C90 C 0.72082 0.37107 0.21084 0.0
C91 C 0.7376 0.36585 0.19891 0.0
C92 C 0.74583 0.3479 0.20418 0.0
C93 C 0.73726 0.33536 0.22031 0.0
C94 C 0.69374 0.31899 0.23516 0.0
C95 C 0.69292 0.31273 0.20886 0.0
C96 C 0.67554 0.3068 0.19602 0.0
C97 C 0.6587 0.30641 0.20934 0.0
C98 C 0.66002 0.31121 0.23617 0.0
C99 C 0.6773 0.31761 0.24882 0.0
C100 C 0.72276 0.31573 0.2642 0.0
C101 C 0.73117 0.32342 0.28774 0.0
C102 C 0.74366 0.31251 0.30346 0.0
C103 C 0.74788 0.29348 0.29611 0.0
C104 C 0.7394 0.28575 0.27241 0.0
C105 C 0.7271 0.2968 0.25649 0.0
C106 C 0.8185 0.25511 0.36815 0.0
C107 C 0.8259 0.25689 0.39407 0.0
C108 C 0.84545 0.25965 0.40017 0.0
C109 C 0.85813 0.26104 0.38038 0.0
C110 C 0.85052 0.26 0.3543 0.0
C111 C 0.83095 0.2568 0.34823 0.0
C112 C 0.7951 0.22933 0.36409 0.0
C113 C 0.80193 0.21604 0.34588 0.0
C114 C 0.80022 0.19639 0.34951 0.0
C115 C 0.79206 0.18989 0.37162 0.0
C116 C 0.78477 0.20323 0.38932 0.0
C117 C 0.7862 0.22278 0.38547 0.0
C118 C 0.78646 0.26037 0.34567 0.0
C119 C 0.77392 0.27351 0.35639 0.0
C120 C 0.7613 0.28407 0.34038 0.0
C121 C 0.76111 0.28187 0.31313 0.0
C122 C 0.77372 0.26857 0.30241 0.0
C123 C 0.78615 0.2578 0.31853 0.0
H124 H 0.81097 0.79632 0.39793 0.0
N125 N 0.79408 0.79963 0.35049 0.0
H126 H 0.84483 0.7925 0.41046 0.0
H127 H 0.82296 0.79377 0.31707 0.0
H128 H 0.85641 0.78818 0.32923 0.0
H129 H 0.81058 0.83432 0.34347 0.0
H130 H 0.80422 0.86424 0.36741 0.0
H131 H 0.76427 0.80697 0.37824 0.0
H132 H 0.75704 0.83699 0.4012 0.0
H133 H 0.7728 0.76813 0.344 0.0
H134 H 0.79483 0.81441 0.30233 0.0
H135 H 0.75788 0.75399 0.30351 0.0
H136 H 0.78134 0.79979 0.26133 0.0
H137 H 0.72383 0.70533 0.18916 0.0
H138 H 0.73229 0.67545 0.16697 0.0
H139 H 0.77694 0.70504 0.13081 0.0
H140 H 0.76749 0.73507 0.15196 0.0
H141 H 0.72359 0.75557 0.13653 0.0
H142 H 0.6899 0.76068 0.12245 0.0
H143 H 0.67341 0.73847 0.19461 0.0
H144 H 0.70725 0.73383 0.20867 0.0
H145 H 0.74923 0.7223 0.22524 0.0
H146 H 0.7628 0.73695 0.266 0.0
H147 H 0.75505 0.79297 0.23391 0.0
N148 N 0.73787 0.74097 0.18061 0.0
H149 H 0.74299 0.77796 0.19259 0.0
C150 C 0.81413 0.79537 0.35663 0.0
C151 C 0.82085 0.7945 0.38284 0.0
C152 C 0.84031 0.79211 0.38995 0.0
C153 C 0.85366 0.78995 0.37094 0.0
C154 C 0.84681 0.79022 0.34458 0.0
C155 C 0.82738 0.7932 0.3375 0.0
C156 C 0.78802 0.81833 0.35942 0.0
C157 C 0.79866 0.83494 0.35567 0.0
C158 C 0.79495 0.85208 0.36939 0.0
C159 C 0.78036 0.85301 0.38681 0.0
C160 C 0.76877 0.83673 0.38866 0.0
C161 C 0.77267 0.81959 0.37526 0.0
C162 C 0.78502 0.79217 0.32615 0.0
C163 C 0.7745 0.77514 0.32596 0.0
C164 C 0.76617 0.76697 0.30264 0.0
C165 C 0.76847 0.77549 0.27874 0.0
C166 C 0.77888 0.79282 0.27915 0.0
C167 C 0.7868 0.8012 0.30261 0.0
C168 C 0.74484 0.72257 0.17181 0.0
C169 C 0.73552 0.70536 0.17661 0.0
C170 C 0.74051 0.68818 0.16399 0.0
C171 C 0.7551 0.68777 0.14659 0.0
C172 C 0.76525 0.70482 0.1434 0.0
C173 C 0.76007 0.72199 0.15573 0.0
C174 C 0.71788 0.74442 0.17357 0.0
C175 C 0.71266 0.75194 0.14931 0.0
C176 C 0.69341 0.75468 0.14124 0.0
C177 C 0.67891 0.74989 0.15733 0.0
C178 C 0.6842 0.74249 0.18184 0.0
C179 C 0.70352 0.73976 0.18989 0.0
C180 C 0.74534 0.74903 0.20555 0.0
C181 C 0.75064 0.73771 0.22684 0.0
C182 C 0.75822 0.74623 0.25043 0.0
C183 C 0.76021 0.7663 0.25359 0.0
C184 C 0.75434 0.77751 0.23234 0.0
C185 C 0.74721 0.76896 0.20866 0.0
H186 H 0.29331 0.76127 0.14459 0.0
N187 N 0.29051 0.73645 0.18166 0.0
H188 H 0.32246 0.77327 0.1276 0.0
H189 H 0.32727 0.72956 0.20118 0.0
H190 H 0.35643 0.74232 0.18553 0.0
H191 H 0.30282 0.70772 0.21354 0.0
H192 H 0.30161 0.67339 0.2025 0.0
H193 H 0.27435 0.7194 0.13894 0.0
H194 H 0.27273 0.68509 0.12787 0.0
H195 H 0.25541 0.75038 0.18321 0.0
H196 H 0.30702 0.74044 0.23158 0.0
H197 H 0.24019 0.7639 0.22097 0.0
H198 H 0.29224 0.75434 0.26907 0.0
H199 H 0.2099 0.82396 0.32266 0.0
H200 H 0.21473 0.85754 0.33501 0.0
H201 H 0.26964 0.84405 0.37396 0.0
H202 H 0.26401 0.81011 0.36279 0.0
H203 H 0.22408 0.78619 0.38575 0.0
H204 H 0.19226 0.78001 0.40035 0.0
H205 H 0.16794 0.78305 0.32123 0.0
H206 H 0.19973 0.78919 0.30681 0.0
H207 H 0.22752 0.80596 0.28817 0.0
H208 H 0.24157 0.79165 0.25019 0.0
H209 H 0.26783 0.74798 0.29802 0.0
N210 N 0.23293 0.79417 0.33832 0.0
H211 H 0.25412 0.76283 0.33612 0.0
C212 C 0.30803 0.74475 0.17426 0.0
C213 C 0.30709 0.75731 0.15374 0.0
C214 C 0.3238 0.76422 0.14419 0.0
C215 C 0.34192 0.75882 0.15519 0.0
C216 C 0.34279 0.74659 0.17631 0.0
C217 C 0.32604 0.73949 0.1856 0.0
C218 C 0.28866 0.71611 0.17693 0.0
C219 C 0.29612 0.7029 0.1949 0.0
C220 C 0.29535 0.68326 0.18861 0.0
C221 C 0.28722 0.67653 0.16422 0.0
C222 C 0.27938 0.68981 0.14663 0.0
C223 C 0.28014 0.70937 0.15296 0.0
C224 C 0.28232 0.74449 0.20442 0.0
C225 C 0.26347 0.75124 0.20196 0.0
C226 C 0.25486 0.75904 0.22351 0.0
C227 C 0.26499 0.76025 0.24808 0.0
C228 C 0.28392 0.7534 0.25053 0.0
C229 C 0.29249 0.74556 0.22895 0.0
C230 C 0.23648 0.81443 0.34233 0.0
C231 C 0.223 0.82818 0.33381 0.0
C232 C 0.2259 0.84752 0.34068 0.0
C233 C 0.2425 0.8536 0.35579 0.0
C234 C 0.25646 0.83988 0.36291 0.0
C235 C 0.25339 0.82051 0.35636 0.0
C236 C 0.21439 0.78802 0.34528 0.0
C237 C 0.21191 0.78517 0.37154 0.0
C238 C 0.19373 0.78184 0.37984 0.0
C239 C 0.1776 0.78121 0.36195 0.0
C240 C 0.18013 0.78333 0.33544 0.0
C241 C 0.19835 0.78681 0.32716 0.0
C242 C 0.23993 0.78549 0.3151 0.0
C243 C 0.23627 0.79331 0.29051 0.0
C244 C 0.24423 0.78501 0.26873 0.0
C245 C 0.25594 0.76871 0.27105 0.0
C246 C 0.25918 0.76072 0.29559 0.0
C247 C 0.25126 0.76906 0.31734 0.0
H248 H 0.23042 0.84001 0.68107 0.0
N249 N 0.24497 0.80475 0.66886 0.0
H250 H 0.23833 0.87005 0.66149 0.0
H251 H 0.27507 0.8113 0.64188 0.0
H252 H 0.2838 0.84141 0.62322 0.0
H253 H 0.22854 0.80042 0.62088 0.0
H254 H 0.19459 0.79794 0.60744 0.0
H255 H 0.21566 0.80311 0.70128 0.0
H256 H 0.18186 0.79863 0.68833 0.0
H257 H 0.25443 0.82261 0.71649 0.0
H258 H 0.25235 0.76791 0.67518 0.0
H259 H 0.26725 0.80745 0.75582 0.0
H260 H 0.2638 0.7523 0.7148 0.0
H261 H 0.31084 0.74837 0.88227 0.0
H262 H 0.34389 0.75395 0.89901 0.0
H263 H 0.36017 0.75934 0.82038 0.0
H264 H 0.32766 0.75233 0.8039 0.0
H265 H 0.31873 0.71302 0.81807 0.0
H266 H 0.31575 0.68032 0.83188 0.0
H267 H 0.26466 0.69607 0.86973 0.0
H268 H 0.26845 0.7291 0.85682 0.0
H269 H 0.27431 0.77385 0.82923 0.0
H270 H 0.26087 0.78867 0.78984 0.0
H271 H 0.28955 0.74637 0.74332 0.0
N272 N 0.29729 0.74367 0.83297 0.0
H273 H 0.3017 0.73106 0.78278 0.0
C274 C 0.25202 0.82332 0.66257 0.0
C275 C 0.2423 0.84031 0.66882 0.0
C276 C 0.2469 0.85753 0.65763 0.0
C277 C 0.26145 0.85815 0.64023 0.0
C278 C 0.27214 0.84141 0.63586 0.0
C279 C 0.26737 0.82421 0.64679 0.0
C280 C 0.22476 0.80177 0.66199 0.0
C281 C 0.21835 0.80001 0.63564 0.0
C282 C 0.19884 0.79839 0.62803 0.0
C283 C 0.18515 0.79796 0.64669 0.0
C284 C 0.19172 0.79931 0.67322 0.0
C285 C 0.21122 0.80157 0.68078 0.0
C286 C 0.25277 0.79642 0.69262 0.0
C287 C 0.25673 0.80732 0.71585 0.0
C288 C 0.26384 0.79849 0.73855 0.0
C289 C 0.26671 0.7785 0.73879 0.0
C290 C 0.26235 0.76771 0.71551 0.0
C291 C 0.25564 0.77659 0.69277 0.0
C292 C 0.31648 0.74991 0.84188 0.0
C293 C 0.32154 0.75098 0.8687 0.0
C294 C 0.34051 0.75429 0.87823 0.0
C295 C 0.35494 0.757 0.86111 0.0
C296 C 0.34966 0.75684 0.83423 0.0
C297 C 0.33078 0.75306 0.8247 0.0
C298 C 0.29382 0.72359 0.83656 0.0
C299 C 0.30671 0.70937 0.82895 0.0
C300 C 0.30492 0.69057 0.83688 0.0
C301 C 0.29006 0.68542 0.85227 0.0
C302 C 0.27656 0.6995 0.85848 0.0
C303 C 0.27851 0.71835 0.8508 0.0
C304 C 0.28903 0.75141 0.80907 0.0
C305 C 0.27747 0.76771 0.81045 0.0
C306 C 0.27 0.7763 0.78782 0.0
C307 C 0.27418 0.76895 0.76307 0.0
C308 C 0.28565 0.75239 0.7618 0.0
C309 C 0.29278 0.7436 0.78448 0.0
H310 H 0.29551 0.28369 0.94137 0.0
N311 N 0.28469 0.28931 0.89203 0.0
H312 H 0.32765 0.27859 0.96082 0.0
H313 H 0.31718 0.28236 0.8652 0.0
H314 H 0.349 0.27582 0.88422 0.0
H315 H 0.3054 0.3218 0.88635 0.0
H316 H 0.29849 0.35377 0.90381 0.0
H317 H 0.25347 0.30042 0.91467 0.0
H318 H 0.24608 0.33254 0.93168 0.0
H319 H 0.26003 0.26123 0.87864 0.0
H320 H 0.29374 0.3047 0.84645 0.0
H321 H 0.24623 0.25196 0.83509 0.0
H322 H 0.28114 0.29486 0.80283 0.0
H323 H 0.21776 0.21567 0.70622 0.0
H324 H 0.23027 0.18778 0.68401 0.0
H325 H 0.28138 0.21962 0.67065 0.0
H326 H 0.26784 0.24807 0.69118 0.0
H327 H 0.22054 0.26887 0.66796 0.0
H328 H 0.18711 0.27262 0.65158 0.0
H329 H 0.16887 0.24485 0.71901 0.0
H330 H 0.20234 0.2415 0.7354 0.0
H331 H 0.23852 0.22787 0.75166 0.0
H332 H 0.25148 0.23676 0.79554 0.0
H333 H 0.25427 0.29588 0.7741 0.0
N334 N 0.23383 0.25164 0.7105 0.0
H335 H 0.24259 0.28649 0.72973 0.0
C336 C 0.30363 0.28349 0.90186 0.0
C337 C 0.30712 0.2818 0.92877 0.0
C338 C 0.32559 0.27874 0.93985 0.0
C339 C 0.34116 0.27678 0.9242 0.0
C340 C 0.33755 0.27769 0.89706 0.0
C341 C 0.31908 0.28124 0.88602 0.0
C342 C 0.27993 0.30873 0.8994 0.0
C343 C 0.29229 0.3241 0.89587 0.0
C344 C 0.28828 0.3424 0.90581 0.0
C345 C 0.27179 0.3457 0.91934 0.0
C346 C 0.25907 0.33042 0.92179 0.0
C347 C 0.26315 0.31213 0.91193 0.0
C348 C 0.27803 0.28344 0.86582 0.0
C349 C 0.2647 0.26851 0.86206 0.0
C350 C 0.25691 0.2632 0.8371 0.0
C351 C 0.26251 0.27261 0.81522 0.0
C352 C 0.27611 0.28748 0.8191 0.0
C353 C 0.28358 0.29302 0.84411 0.0
C354 C 0.24166 0.23423 0.6997 0.0
C355 C 0.23157 0.21678 0.69833 0.0
C356 C 0.23895 0.20063 0.68589 0.0
C357 C 0.25683 0.20135 0.67516 0.0
C358 C 0.26733 0.21858 0.67793 0.0
C359 C 0.25973 0.23484 0.68987 0.0
C360 C 0.21393 0.25502 0.70284 0.0
C361 C 0.20927 0.26384 0.67931 0.0
C362 C 0.1902 0.2658 0.66991 0.0
C363 C 0.17532 0.25889 0.68389 0.0
C364 C 0.17997 0.25049 0.70789 0.0
C365 C 0.19911 0.24854 0.71729 0.0
C366 C 0.23997 0.25653 0.73722 0.0
C367 C 0.24205 0.24271 0.75635 0.0
C368 C 0.24931 0.2479 0.78162 0.0
C369 C 0.2542 0.26707 0.7885 0.0
C370 C 0.25126 0.28091 0.76949 0.0
C371 C 0.24438 0.27564 0.74415 0.0
H372 H 0.80166 0.24267 0.6683 0.0
N373 N 0.80711 0.22465 0.71423 0.0
H374 H 0.82662 0.25446 0.64234 0.0
H375 H 0.84441 0.22659 0.72768 0.0
H376 H 0.86954 0.23935 0.70271 0.0
H377 H 0.81738 0.19127 0.73377 0.0
H378 H 0.80947 0.15923 0.7154 0.0
H379 H 0.78169 0.21618 0.67243 0.0
H380 H 0.77351 0.18426 0.65403 0.0
H381 H 0.77442 0.24347 0.6978 0.0
H382 H 0.81339 0.23391 0.76445 0.0
H383 H 0.75517 0.2645 0.72433 0.0
H384 H 0.79486 0.25559 0.79103 0.0
H385 H 0.71253 0.34681 0.82431 0.0
H386 H 0.7233 0.37385 0.85292 0.0
H387 H 0.77316 0.34152 0.87945 0.0
H388 H 0.76172 0.3143 0.85167 0.0
H389 H 0.73196 0.29869 0.87124 0.0
H390 H 0.70694 0.28637 0.89633 0.0
H391 H 0.66596 0.29156 0.8301 0.0
H392 H 0.69121 0.30455 0.80528 0.0
H393 H 0.73493 0.31568 0.77254 0.0
H394 H 0.75432 0.29481 0.74591 0.0
H395 H 0.7663 0.25893 0.81156 0.0
N396 N 0.72748 0.31199 0.82191 0.0
H397 H 0.74775 0.28031 0.83813 0.0
C398 C 0.82127 0.23352 0.69977 0.0
C399 C 0.81644 0.24187 0.67587 0.0
C400 C 0.83079 0.24879 0.66115 0.0
C401 C 0.85024 0.24775 0.67022 0.0
C402 C 0.85484 0.24001 0.6947 0.0
C403 C 0.84051 0.23289 0.70919 0.0
C404 C 0.80012 0.20612 0.70465 0.0
C405 C 0.80753 0.18978 0.71662 0.0
C406 C 0.80296 0.17149 0.70607 0.0
C407 C 0.79088 0.16912 0.68314 0.0
C408 C 0.78305 0.18555 0.67151 0.0
C409 C 0.78759 0.20387 0.68217 0.0
C410 C 0.79521 0.23688 0.7293 0.0
C411 C 0.77881 0.24585 0.71818 0.0
C412 C 0.76793 0.2581 0.73341 0.0
C413 C 0.77334 0.26183 0.76001 0.0
C414 C 0.78992 0.25286 0.77086 0.0
C415 C 0.80063 0.24052 0.75568 0.0
C416 C 0.73626 0.32854 0.83562 0.0
C417 C 0.72598 0.34574 0.83595 0.0
C418 C 0.73223 0.36122 0.85233 0.0
C419 C 0.7491 0.35995 0.86877 0.0
C420 C 0.75992 0.34297 0.86749 0.0
C421 C 0.75351 0.32739 0.85127 0.0
C422 C 0.71345 0.30259 0.83626 0.0
C423 C 0.71767 0.297 0.86195 0.0
C424 C 0.70329 0.28984 0.8763 0.0
C425 C 0.68434 0.28797 0.86531 0.0
C426 C 0.6803 0.29305 0.83934 0.0
C427 C 0.69472 0.30029 0.82502 0.0
C428 C 0.7397 0.29962 0.80727 0.0
C429 C 0.74189 0.30337 0.78116 0.0
C430 C 0.75284 0.29127 0.7659 0.0
C431 C 0.76186 0.27498 0.77639 0.0
C432 C 0.75982 0.2714 0.80275 0.0
C433 C 0.74901 0.28361 0.81804 0.0
H434 H 0.77977 0.79636 0.63675 0.0
N435 N 0.79258 0.7916 0.68575 0.0
H436 H 0.76943 0.82614 0.61666 0.0
H437 H 0.78942 0.82646 0.71093 0.0
H438 H 0.77895 0.85638 0.69106 0.0
H439 H 0.82216 0.81639 0.70043 0.0
H440 H 0.85557 0.81238 0.69064 0.0
H441 H 0.80876 0.76039 0.66604 0.0
H442 H 0.84256 0.756 0.65727 0.0
H443 H 0.75616 0.78351 0.69179 0.0
H444 H 0.81149 0.7879 0.73436 0.0
H445 H 0.74197 0.77385 0.73086 0.0
H446 H 0.79786 0.77653 0.77269 0.0
H447 H 0.70866 0.71933 0.82837 0.0
H448 H 0.67558 0.72243 0.83893 0.0
H449 H 0.68899 0.77692 0.87856 0.0
H450 H 0.72253 0.77299 0.8692 0.0
H451 H 0.74605 0.73122 0.89356 0.0
H452 H 0.75173 0.6984 0.90685 0.0
H453 H 0.75194 0.6796 0.82616 0.0
H454 H 0.74557 0.71192 0.81307 0.0
H455 H 0.72523 0.73641 0.79481 0.0
H456 H 0.7387 0.74876 0.75684 0.0
H457 H 0.77951 0.78212 0.80695 0.0
N458 N 0.73841 0.74315 0.84569 0.0
H459 H 0.76683 0.76816 0.84483 0.0
C460 C 0.7853 0.8092 0.67519 0.0
C461 C 0.7794 0.8094 0.64871 0.0
C462 C 0.77345 0.82639 0.63734 0.0
C463 C 0.77335 0.84361 0.6523 0.0
C464 C 0.77903 0.84337 0.67901 0.0
C465 C 0.7849 0.8263 0.6904 0.0
C466 C 0.81281 0.78879 0.68334 0.0
C467 C 0.82638 0.80318 0.69096 0.0
C468 C 0.84549 0.80086 0.68553 0.0
C469 C 0.85148 0.78395 0.67313 0.0
C470 C 0.83821 0.76914 0.66693 0.0
C471 C 0.81899 0.77163 0.67185 0.0
C472 C 0.78488 0.78636 0.70978 0.0
C473 C 0.76528 0.78224 0.70953 0.0
C474 C 0.75724 0.77646 0.73191 0.0
C475 C 0.76872 0.77406 0.75512 0.0
C476 C 0.78839 0.77842 0.75545 0.0
C477 C 0.79633 0.78476 0.7332 0.0
C478 C 0.71821 0.74583 0.84847 0.0
C479 C 0.70452 0.732 0.83922 0.0
C480 C 0.68545 0.7339 0.84511 0.0
C481 C 0.67952 0.74985 0.8599 0.0
C482 C 0.69307 0.7642 0.86774 0.0
C483 C 0.71221 0.76211 0.86219 0.0
C484 C 0.74529 0.72431 0.85241 0.0
C485 C 0.74772 0.72005 0.87879 0.0
C486 C 0.75101 0.70128 0.88633 0.0
C487 C 0.75207 0.6863 0.86754 0.0
C488 C 0.75079 0.69072 0.84113 0.0
C489 C 0.74731 0.70944 0.8336 0.0
C490 C 0.74531 0.7511 0.82273 0.0
C491 C 0.73717 0.74626 0.79763 0.0
C492 C 0.74481 0.75361 0.77582 0.0
C493 C 0.76033 0.76653 0.77854 0.0
C494 C 0.76793 0.77186 0.80382 0.0
C495 C 0.7606 0.76406 0.82559 0.0
C496 C 0.04613 0.27951 0.56776 0.0
C497 C 0.05246 0.29719 0.57818 0.0
C498 C 0.04405 0.31068 0.56274 0.0
C499 C 0.0331 0.30053 0.54389 0.0
N500 N 0.03396 0.28135 0.54634 0.0
Co501 Co 0.02013 0.26131 0.52318 0.0
N502 N 0.0085 0.28116 0.49986 0.0
C503 C 0.01208 0.30018 0.50143 0.0
C504 C 0.00233 0.31017 0.48233 0.0
C505 C 0.99177 0.29674 0.46775 0.0
C506 C 0.99562 0.2793 0.47899 0.0
N507 N 0.00565 0.24133 0.50064 0.0
C508 C 0.99236 0.24331 0.48044 0.0
C509 C 0.98462 0.22575 0.47161 0.0
C510 C 0.99339 0.21222 0.48661 0.0
C511 C 0.00577 0.22221 0.50386 0.0
N512 N 0.03232 0.24141 0.54599 0.0
C513 C 0.03023 0.22221 0.54293 0.0
C514 C 0.04096 0.21215 0.56102 0.0
C515 C 0.05068 0.22571 0.57645 0.0
C516 C 0.04527 0.24332 0.5668 0.0
N517 N 0.99798 0.26331 0.54509 0.0
C518 C 0.9644 0.26576 0.57228 0.0
C519 C 0.97314 0.24814 0.56733 0.0
C520 C 0.98984 0.24728 0.55409 0.0
C521 C 0.97322 0.2822 0.56403 0.0
C522 C 0.9898 0.28067 0.55055 0.0
N523 N 0.04222 0.25928 0.50099 0.0
C524 C 0.06139 0.24051 0.47231 0.0
C525 C 0.07236 0.25648 0.46769 0.0
C526 C 0.06837 0.2738 0.48042 0.0
C527 C 0.05323 0.27493 0.49666 0.0
C528 C 0.04672 0.24214 0.48916 0.0
H529 H 0.05064 0.28867 0.50526 0.0
H530 H 0.03919 0.22931 0.49215 0.0
H531 H 0.9957 0.23341 0.55095 0.0
H532 H 0.99563 0.29369 0.54445 0.0
C533 C 0.02322 0.30846 0.52241 0.0
C534 C 0.05294 0.26141 0.57804 0.0
C535 C 0.98621 0.2615 0.4696 0.0
C536 C 0.01765 0.21409 0.52337 0.0
H537 H 0.0625 0.30004 0.59483 0.0
H538 H 0.04611 0.32602 0.56459 0.0
H539 H 0.00246 0.32545 0.47975 0.0
H540 H 0.98206 0.29952 0.45101 0.0
H541 H 0.97356 0.22293 0.4562 0.0
H542 H 0.99082 0.19694 0.48536 0.0
H543 H 0.04161 0.19679 0.56282 0.0
H544 H 0.06064 0.22295 0.59293 0.0
H545 H 0.96693 0.2349 0.57301 0.0
H546 H 0.9674 0.29628 0.56788 0.0
H547 H 0.06422 0.22673 0.46307 0.0
H548 H 0.07657 0.28654 0.47731 0.0
C549 C 0.76195 0.04798 0.55532 0.0
C550 C 0.74502 0.05802 0.5577 0.0
C551 C 0.73326 0.05335 0.53596 0.0
C552 C 0.74357 0.04073 0.52156 0.0
N553 N 0.76099 0.03695 0.53309 0.0
Co554 Co 0.78064 0.02023 0.51817 0.0
N555 N 0.76139 0.00784 0.4929 0.0
C556 C 0.74404 0.01476 0.48537 0.0
C557 C 0.73384 0.00259 0.46794 0.0
C558 C 0.74557 0.98709 0.4644 0.0
C559 C 0.76227 0.99074 0.47993 0.0
N560 N 0.80017 0.00358 0.50297 0.0
C561 C 0.79775 0.98688 0.48904 0.0
C562 C 0.81519 0.97948 0.48247 0.0
C563 C 0.82898 0.99214 0.49277 0.0
C564 C 0.81919 0.00648 0.50499 0.0
N565 N 0.80005 0.03259 0.54334 0.0
C566 C 0.81914 0.03225 0.54148 0.0
C567 C 0.82904 0.04259 0.56122 0.0
C568 C 0.81533 0.05012 0.57622 0.0
C569 C 0.79773 0.04395 0.56473 0.0
N570 N 0.77598 1.00069 0.54296 0.0
C571 C 0.76891 0.9682 0.57078 0.0
C572 C 0.7877 0.97441 0.56826 0.0
C573 C 0.79091 0.99078 0.55449 0.0
C574 C 0.75378 0.97946 0.56065 0.0
C575 C 0.75761 0.99557 0.54679 0.0
N576 N 0.78519 0.03967 0.49309 0.0
C577 C 0.788 0.07278 0.48312 0.0
C578 C 0.78957 0.06785 0.45678 0.0
C579 C 0.78922 0.04839 0.44914 0.0
C580 C 0.78693 0.03456 0.46754 0.0
C581 C 0.78605 0.05855 0.50089 0.0
H582 H 0.78635 0.01973 0.46101 0.0
H583 H 0.78486 0.06294 0.5209 0.0
H584 H 0.80549 0.99487 0.55207 0.0
H585 H 0.74566 0.00337 0.53816 0.0
C586 C 0.73661 0.03046 0.49894 0.0
C587 C 0.77925 0.05099 0.57291 0.0
C588 C 0.77907 0.97827 0.48117 0.0
C589 C 0.82726 0.02037 0.52277 0.0
H590 H 0.74169 0.06804 0.57321 0.0
H591 H 0.71881 0.05834 0.53144 0.0
H592 H 0.71927 0.00428 0.45983 0.0
H593 H 0.74223 0.97455 0.45197 0.0
H594 H 0.81767 0.96629 0.47162 0.0
H595 H 0.84433 0.99051 0.49256 0.0
H596 H 0.8444 0.04423 0.56455 0.0
H597 H 0.81796 0.05948 0.59329 0.0
H598 H 0.79989 0.96621 0.5757 0.0
H599 H 0.73903 0.97557 0.56272 0.0
H600 H 0.78778 0.08757 0.49007 0.0
H601 H 0.79065 0.04381 0.42911 0.0
C602 C 0.04593 0.80626 0.5504 0.0
C603 C 0.05182 0.82449 0.55925 0.0
C604 C 0.03771 0.83684 0.55093 0.0
C605 C 0.02415 0.8256 0.53723 0.0
N606 N 0.02891 0.80695 0.53618 0.0
Co607 Co 0.01382 0.78605 0.51727 0.0
N608 N 0.99847 0.80455 0.4961 0.0
C609 C 0.9969 0.82343 0.50171 0.0
C610 C 0.98472 0.83261 0.4843 0.0
C611 C 0.978 0.81863 0.46674 0.0
C612 C 0.98656 0.80158 0.4744 0.0
N613 N 0.99857 0.76513 0.49859 0.0
C614 C 0.98686 0.7654 0.47648 0.0
C615 C 0.97928 0.74733 0.47009 0.0
C616 C 0.98599 0.73556 0.48931 0.0
C617 C 0.99743 0.74696 0.50619 0.0
N618 N 0.02926 0.76763 0.53844 0.0
C619 C 0.02458 0.7493 0.54203 0.0
C620 C 0.03788 0.74011 0.55797 0.0
C621 C 0.05174 0.75353 0.565 0.0
C622 C 0.04611 0.77021 0.55283 0.0
N623 N 0.99514 0.78751 0.54363 0.0
C624 C 0.96826 0.78672 0.58101 0.0
C625 C 0.98787 0.7873 0.58849 0.0
C626 C 0.00107 0.78794 0.56952 0.0
C627 C 0.96236 0.78702 0.55455 0.0
C628 C 0.97598 0.78728 0.53622 0.0
N629 N 0.03247 0.78442 0.49098 0.0
C630 C 0.05229 0.76524 0.46419 0.0
C631 C 0.06004 0.78171 0.45448 0.0
C632 C 0.05359 0.7996 0.46324 0.0
C633 C 0.03967 0.80064 0.48132 0.0
C634 C 0.03866 0.7669 0.48249 0.0
H635 H 0.03485 0.81457 0.48762 0.0
H636 H 0.03329 0.75396 0.48998 0.0
H637 H 0.01609 0.78843 0.5758 0.0
H638 H 0.97092 0.78687 0.51601 0.0
C639 C 0.00878 0.83236 0.52144 0.0
C640 C 0.05611 0.7886 0.55738 0.0
C641 C 0.98109 0.78272 0.46262 0.0
C642 C 0.00936 0.74056 0.52701 0.0
H643 H 0.06492 0.82852 0.57054 0.0
H644 H 0.03776 0.85227 0.55357 0.0
H645 H 0.98134 0.84771 0.48414 0.0
H646 H 0.96756 0.82076 0.45061 0.0
H647 H 0.96966 0.74313 0.45349 0.0
H648 H 0.98329 0.72039 0.49043 0.0
H649 H 0.03783 0.72527 0.56322 0.0
H650 H 0.06441 0.75135 0.57785 0.0
H651 H 0.99295 0.78724 0.60883 0.0
H652 H 0.9473 0.78643 0.548 0.0
H653 H 0.05707 0.75114 0.45816 0.0
H654 H 0.05916 0.81268 0.45605 0.0
C655 C 0.28692 0.99378 0.5568 0.0
C656 C 0.30485 0.98669 0.56455 0.0
C657 C 0.31785 0.99727 0.55272 0.0
C658 C 0.30715 0.01022 0.5386 0.0
N659 N 0.28813 0.00877 0.54108 0.0
Co660 Co 0.26731 0.02434 0.52342 0.0
N661 N 0.28587 0.03709 0.50171 0.0
C662 C 0.30487 0.0336 0.50163 0.0
C663 C 0.31386 0.04405 0.48416 0.0
C664 C 0.29978 0.05488 0.47235 0.0
C665 C 0.28295 0.05052 0.48352 0.0
N666 N 0.24655 0.04045 0.50653 0.0
C667 C 0.24745 0.0542 0.48877 0.0
C668 C 0.22979 0.0629 0.48378 0.0
C669 C 0.21729 0.05426 0.49869 0.0
C670 C 0.22798 0.04096 0.51209 0.0
N671 N 0.24865 0.01086 0.54425 0.0
C672 C 0.22958 0.01392 0.54403 0.0
C673 C 0.22022 0.00135 0.55844 0.0
C674 C 0.23405 0.9892 0.56794 0.0
C675 C 0.25114 0.99518 0.55886 0.0
N676 N 0.2716 0.04484 0.55105 0.0
C677 C 0.27607 0.07864 0.58232 0.0
C678 C 0.25868 0.06876 0.57996 0.0
C679 C 0.25681 0.05194 0.56448 0.0
C680 C 0.2916 0.07043 0.57068 0.0
C681 C 0.28913 0.05356 0.55551 0.0
N682 N 0.26302 0.00412 0.49572 0.0
C683 C 0.24166 0.98583 0.46532 0.0
C684 C 0.25691 0.97489 0.4572 0.0
C685 C 0.27526 0.97884 0.46844 0.0
C686 C 0.27802 0.99358 0.48731 0.0
C687 C 0.24497 1.00016 0.48471 0.0
H688 H 0.2924 0.99614 0.49487 0.0
H689 H 0.23272 0.00775 0.49064 0.0
H690 H 0.24306 0.04538 0.56301 0.0
H691 H 0.3015 0.04827 0.54695 0.0
C692 C 0.31407 0.02147 0.5195 0.0
C693 C 0.26914 0.98487 0.5632 0.0
C694 C 0.26466 0.05973 0.47644 0.0
C695 C 0.22082 0.02817 0.52914 0.0
H696 H 0.30808 0.97459 0.57659 0.0
H697 H 0.33315 0.995 0.55309 0.0
H698 H 0.32892 0.04405 0.48073 0.0
H699 H 0.30174 0.06499 0.4574 0.0
H700 H 0.22627 0.07439 0.47081 0.0
H701 H 0.2022 0.05729 0.49963 0.0
H702 H 0.20503 1.0007 0.56101 0.0
H703 H 0.23169 0.97701 0.57962 0.0
H704 H 0.24626 0.07446 0.5889 0.0
H705 H 0.30555 0.07726 0.5727 0.0
H706 H 0.22718 0.98305 0.45716 0.0
H707 H 0.28747 0.97072 0.46249 0.0
C708 C 0.54514 0.78067 0.05476 0.0
C709 C 0.55333 0.79806 0.06337 0.0
C710 C 0.54393 0.81185 0.04947 0.0
C711 C 0.53065 0.80214 0.03316 0.0
N712 N 0.53084 0.78296 0.03593 0.0
Co713 Co 0.51454 0.76336 0.01512 0.0
N714 N 0.50153 0.78357 0.99358 0.0
C715 C 0.50469 0.80266 0.99584 0.0
C716 C 0.49347 0.81297 0.97855 0.0
C717 C 0.48237 0.79971 0.96447 0.0
C718 C 0.48743 0.782 0.97409 0.0
N719 N 0.49841 0.74372 0.99417 0.0
C720 C 0.48469 0.7459 0.97456 0.0
C721 C 0.47656 0.72845 0.96595 0.0
C722 C 0.48554 0.71477 0.98046 0.0
C723 C 0.4985 0.72456 0.99713 0.0
N724 N 0.52746 0.74317 0.03676 0.0
C725 C 0.52379 0.72416 0.03522 0.0
C726 C 0.53511 0.71384 0.05238 0.0
C727 C 0.54685 0.727 0.06558 0.0
C728 C 0.54203 0.74466 0.05558 0.0
N729 N 0.49431 0.76616 0.04012 0.0
C730 C 0.46232 0.77078 0.07011 0.0
C731 C 0.46803 0.75264 0.06134 0.0
C732 C 0.48408 0.75066 0.04693 0.0
C733 C 0.47365 0.78642 0.06479 0.0
C734 C 0.4893 0.78383 0.04977 0.0
N735 N 0.53458 0.76061 0.98998 0.0
C736 C 0.55363 0.74068 0.96259 0.0
C737 C 0.56282 0.75673 0.95416 0.0
C738 C 0.55777 0.77473 0.96389 0.0
C739 C 0.54354 0.77635 0.98141 0.0
C740 C 0.53981 0.74291 0.98065 0.0
H741 H 0.54001 0.79049 0.98767 0.0
H742 H 0.53362 0.73011 0.98682 0.0
H743 H 0.48762 0.73646 0.04102 0.0
H744 H 0.49688 0.79644 0.04588 0.0
C745 C 0.51827 0.81051 0.01439 0.0
C746 C 0.55192 0.76234 0.06438 0.0
C747 C 0.47846 0.76414 0.964 0.0
C748 C 0.5104 0.71627 0.01649 0.0
H749 H 0.56512 0.80053 0.07788 0.0
H750 H 0.54671 0.82709 0.05072 0.0
H751 H 0.49336 0.82832 0.97648 0.0
H752 H 0.47172 0.80275 0.9489 0.0
H753 H 0.4651 0.72585 0.95101 0.0
H754 H 0.48272 0.69953 0.97932 0.0
H755 H 0.53508 0.69851 0.05466 0.0
H756 H 0.55788 0.72393 0.08065 0.0
H757 H 0.45989 0.73995 0.06476 0.0
H758 H 0.47041 0.80073 0.07185 0.0
H759 H 0.55732 0.72645 0.95562 0.0
H760 H 0.56455 0.78753 0.95768 0.0
C761 C 0.26423 0.54865 0.05936 0.0
C762 C 0.24808 0.55911 0.06503 0.0
C763 C 0.23439 0.55526 0.04514 0.0
C764 C 0.24285 0.5427 0.02847 0.0
N765 N 0.26094 0.53822 0.03687 0.0
Co766 Co 0.27838 0.52136 0.01806 0.0
N767 N 0.25675 0.5098 0.99616 0.0
C768 C 0.23917 0.5172 0.99171 0.0
C769 C 0.22717 0.50517 0.97636 0.0
C770 C 0.23798 0.48927 0.971 0.0
C771 C 0.25594 0.49258 0.98347 0.0
N772 N 0.29566 0.50462 0.99881 0.0
C773 C 0.29153 0.48794 0.98558 0.0
C774 C 0.30782 0.48003 0.97586 0.0
C775 C 0.32262 0.49242 0.98333 0.0
C776 C 0.31455 0.50708 0.99724 0.0
N777 N 0.30015 0.53279 0.03997 0.0
C778 C 0.3187 0.53206 0.03465 0.0
C779 C 0.33058 0.54154 0.05319 0.0
C780 C 0.31874 0.54891 0.07105 0.0
C781 C 0.3002 0.54356 0.06231 0.0
N782 N 0.27587 0.50139 0.04326 0.0
C783 C 0.27113 0.46876 0.07232 0.0
C784 C 0.28939 0.47458 0.06622 0.0
C785 C 0.29145 0.49097 0.05186 0.0
C786 C 0.2555 0.4804 0.06488 0.0
C787 C 0.25816 0.49655 0.05041 0.0
N788 N 0.28082 0.5412 0.99256 0.0
C789 C 0.28594 0.57413 0.98251 0.0
C790 C 0.28399 0.56953 0.95571 0.0
C791 C 0.28038 0.55032 0.94795 0.0
C792 C 0.27905 0.53644 0.96656 0.0
C793 C 0.28415 0.55986 1.00049 0.0
H794 H 0.27648 0.52181 0.95985 0.0
H795 H 0.28553 0.564 0.02085 0.0
H796 H 0.30558 0.49473 0.04675 0.0
H797 H 0.24572 0.5047 0.04411 0.0
C798 C 0.23355 0.53297 0.00682 0.0
C799 C 0.28299 0.55093 0.07393 0.0
C800 C 0.27226 0.47969 0.98219 0.0
C801 C 0.32457 0.52044 0.01398 0.0
H802 H 0.24649 0.56891 0.08146 0.0
H803 H 0.21991 0.5607 0.04334 0.0
H804 H 0.21209 0.50717 0.97098 0.0
H805 H 0.23322 0.47667 0.9595 0.0
H806 H 0.30905 0.4666 0.96503 0.0
H807 H 0.33764 0.49028 0.98049 0.0
H808 H 0.34602 0.54268 0.05392 0.0
H809 H 0.3232 0.55763 0.0882 0.0
H810 H 0.30194 0.46612 0.07146 0.0
H811 H 0.24117 0.47686 0.06969 0.0
H812 H 0.28906 0.5886 0.98973 0.0
H813 H 0.27835 0.54592 0.92761 0.0
C814 C 0.48891 0.29648 0.98457 0.0
C815 C 0.48206 0.31352 0.97459 0.0
C816 C 0.49477 0.32745 0.98364 0.0
C817 C 0.50848 0.31822 0.99879 0.0
N818 N 0.50564 0.29912 0.99932 0.0
Co819 Co 0.51976 0.28076 0.02272 0.0
N820 N 0.53562 0.30181 0.04064 0.0
C821 C 0.53634 0.32022 0.03359 0.0
C822 C 0.54924 0.3312 0.04886 0.0
C823 C 0.55721 0.31909 0.06675 0.0
C824 C 0.54852 0.30137 0.06149 0.0
N825 N 0.53284 0.26247 0.04716 0.0
C826 C 0.54511 0.26591 0.0684 0.0
C827 C 0.54962 0.24922 0.08124 0.0
C828 C 0.53995 0.23472 0.06753 0.0
C829 C 0.52996 0.24335 0.04735 0.0
N830 N 0.50461 0.25965 0.0039 0.0
C831 C 0.50682 0.24065 0.0068 0.0
C832 C 0.49401 0.22978 0.99113 0.0
C833 C 0.48269 0.24269 0.97799 0.0
C834 C 0.48923 0.2607 0.98661 0.0
N835 N 0.54018 0.27697 0.99789 0.0
C836 C 0.5721 0.27278 0.96741 0.0
C837 C 0.56492 0.25729 0.98011 0.0
C838 C 0.54923 0.2597 0.99514 0.0
C839 C 0.5623 0.29014 0.96918 0.0
C840 C 0.54641 0.29181 0.98401 0.0
N841 N 0.49958 0.28463 0.04736 0.0
C842 C 0.47258 0.27288 0.06882 0.0
C843 C 0.46854 0.29133 0.07852 0.0
C844 C 0.48107 0.30608 0.07328 0.0
C845 C 0.49608 0.30254 0.05749 0.0
C846 C 0.48825 0.26981 0.0538 0.0
H847 H 0.50449 0.31464 0.05338 0.0
H848 H 0.4907 0.25543 0.04703 0.0
H849 H 0.54493 0.24735 0.00459 0.0
H850 H 0.53971 0.30541 0.98422 0.0
C851 C 0.52312 0.32721 0.01465 0.0
C852 C 0.47872 0.27822 0.98109 0.0
C853 C 0.55264 0.28471 0.07719 0.0
C854 C 0.51817 0.23387 0.02789 0.0
H855 H 0.46895 0.31591 0.96279 0.0
H856 H 0.49359 0.34266 0.98065 0.0
H857 H 0.55209 0.34634 0.04764 0.0
H858 H 0.56798 0.32295 0.08218 0.0
H859 H 0.55888 0.24765 0.09875 0.0
H860 H 0.54011 0.21969 0.07184 0.0
H861 H 0.49213 0.21441 0.99084 0.0
H862 H 0.47022 0.23933 0.96495 0.0
H863 H 0.57144 0.24329 0.97873 0.0
H864 H 0.56709 0.30269 0.95985 0.0
H865 H 0.46348 0.26084 0.07208 0.0
H866 H 0.47935 0.3205 0.08106 0.0
C867 C 0.74746 0.5496 0.05596 0.0
C868 C 0.72998 0.55671 0.06286 0.0
C869 C 0.71624 0.5447 0.05136 0.0
C870 C 0.72608 0.53107 0.03802 0.0
N871 N 0.74531 0.53334 0.0408 0.0
Co872 Co 0.76487 0.51796 0.02253 0.0
N873 N 0.74458 0.50144 0.00346 0.0
C874 C 0.72554 0.50215 0.00629 0.0
C875 C 0.71525 0.48823 0.99205 0.0
C876 C 0.72853 0.47774 0.9797 0.0
C877 C 0.74623 0.48599 0.98705 0.0
N878 N 0.78439 0.50328 0.00334 0.0
C879 C 0.7822 0.48813 0.98619 0.0
C880 C 0.79957 0.48237 0.97721 0.0
C881 C 0.81327 0.49405 0.98953 0.0
C882 C 0.80352 0.50631 0.00513 0.0
N883 N 0.78518 0.53391 0.0424 0.0
C884 C 0.80434 0.53171 0.04208 0.0
C885 C 0.81465 0.54504 0.05745 0.0
C886 C 0.80128 0.55662 0.0679 0.0
C887 C 0.78354 0.54969 0.05814 0.0
N888 N 0.76669 0.49914 0.05055 0.0
C889 C 0.76799 0.46888 0.08508 0.0
C890 C 0.78434 0.47438 0.07342 0.0
C891 C 0.78346 0.48963 0.05666 0.0
C892 C 0.75125 0.47938 0.08035 0.0
C893 C 0.7509 0.4943 0.0631 0.0
N894 N 0.76305 0.53666 0.99456 0.0
C895 C 0.77777 0.56038 0.96953 0.0
C896 C 0.76003 0.56507 0.9573 0.0
C897 C 0.74389 0.55502 0.96361 0.0
C898 C 0.7457 0.54101 0.98217 0.0
C899 C 0.77897 0.54614 0.98781 0.0
H900 H 0.73282 0.53411 0.98649 0.0
H901 H 0.7929 0.54318 0.99645 0.0
H902 H 0.79646 0.49313 0.04849 0.0
H903 H 0.73752 0.50131 0.05978 0.0
C904 C 0.71774 0.51624 0.02221 0.0
C905 C 0.76562 0.55935 0.06292 0.0
C906 C 0.76424 0.47807 0.97895 0.0
C907 C 0.81205 0.51915 0.02394 0.0
H908 H 0.72736 0.56951 0.07448 0.0
H909 H 0.70089 0.54604 0.05204 0.0
H910 H 0.69994 0.48583 0.99102 0.0
H911 H 0.72552 0.46524 0.96708 0.0
H912 H 0.80211 0.47058 0.96372 0.0
H913 H 0.82858 0.4932 0.98808 0.0
H914 H 0.83005 0.54681 0.05962 0.0
H915 H 0.80422 0.56919 0.08044 0.0
H916 H 0.79773 0.46682 0.07699 0.0
H917 H 0.73822 0.47559 0.08904 0.0
H918 H 0.79069 0.56764 0.96496 0.0
H919 H 0.72981 0.55828 0.95478 0.0
H920 H 0.17899 0.25909 0.42285 0.0
H921 H 0.15585 0.2383 0.34655 0.0
H922 H 0.12334 0.23934 0.36179 0.0
H923 H 0.14797 0.23392 0.46003 0.0
H924 H 0.14536 0.25304 0.4839 0.0
H925 H 0.16686 0.25128 0.46689 0.0
H926 H 0.16192 0.28589 0.45147 0.0
H927 H 0.14046 0.2878 0.46859 0.0
H928 H 0.13959 0.29225 0.43435 0.0
H929 H 0.09361 0.24035 0.38615 0.0
H930 H 0.06842 0.24354 0.41722 0.0
H931 H 0.11038 0.26584 0.47665 0.0
C932 C 0.1671 0.25513 0.4091 0.0
C933 C 0.17014 0.24846 0.38347 0.0
C934 C 0.15406 0.2431 0.3664 0.0
C935 C 0.13548 0.24377 0.37482 0.0
C936 C 0.13309 0.25009 0.40028 0.0
C937 C 0.14842 0.25593 0.41708 0.0
C938 C 0.14193 0.26194 0.44357 0.0
C939 C 0.15107 0.24929 0.46484 0.0
C940 C 0.14623 0.28324 0.44985 0.0
C941 C 0.12059 0.25831 0.43913 0.0
C942 C 0.11581 0.25139 0.41405 0.0
C943 C 0.09713 0.246 0.40572 0.0
C944 C 0.08296 0.24778 0.42348 0.0
C945 C 0.0875 0.25507 0.44915 0.0
C946 C 0.10653 0.26051 0.45698 0.0
H947 H 0.80758 0.17403 0.41538 0.0
H948 H 0.77691 0.15987 0.34116 0.0
H949 H 0.77522 0.12588 0.35316 0.0
H950 H 0.83539 0.12924 0.41956 0.0
H951 H 0.83407 0.12861 0.45427 0.0
H952 H 0.83409 0.15124 0.43868 0.0
H953 H 0.80238 0.16042 0.45887 0.0
H954 H 0.80222 0.13783 0.4744 0.0
H955 H 0.78193 0.14475 0.4533 0.0
H956 H 0.77377 0.09438 0.37589 0.0
H957 H 0.77386 0.06789 0.40615 0.0
H958 H 0.80788 0.10261 0.46392 0.0
C959 C 0.80071 0.16368 0.40157 0.0
C960 C 0.79227 0.1694 0.37746 0.0
C961 C 0.78349 0.15561 0.3597 0.0
C962 C 0.78247 0.13635 0.36637 0.0
C963 C 0.79067 0.13121 0.39059 0.0
C964 C 0.79986 0.14447 0.40773 0.0
C965 C 0.80695 0.13557 0.43287 0.0
C966 C 0.82893 0.1362 0.43655 0.0
C967 C 0.79782 0.14522 0.45622 0.0
C968 C 0.79974 0.11534 0.42765 0.0
C969 C 0.79045 0.11303 0.40317 0.0
C970 C 0.78137 0.09591 0.39489 0.0
C971 C 0.7816 0.08088 0.41221 0.0
C972 C 0.79091 0.08305 0.43752 0.0
C973 C 0.80044 0.10043 0.44491 0.0
H974 H 0.87092 0.77365 0.41485 0.0
H975 H 0.88435 0.80231 0.34508 0.0
H976 H 0.91865 0.8001 0.35861 0.0
H977 H 0.90481 0.79978 0.45623 0.0
H978 H 0.91051 0.78011 0.477 0.0
H979 H 0.8872 0.78149 0.46004 0.0
H980 H 0.89182 0.74758 0.43941 0.0
H981 H 0.91526 0.74618 0.45616 0.0
H982 H 0.91245 0.74276 0.42131 0.0
H983 H 0.95181 0.79629 0.38099 0.0
H984 H 0.98035 0.79359 0.41217 0.0
H985 H 0.94465 0.77096 0.46886 0.0
C986 C 0.88092 0.77957 0.40229 0.0
C987 C 0.87461 0.78799 0.37863 0.0
C988 C 0.88855 0.79526 0.3629 0.0
C989 C 0.90818 0.7942 0.37052 0.0
C990 C 0.91377 0.78605 0.39408 0.0
C991 C 0.9005 0.77905 0.40986 0.0
C992 C 0.91003 0.77259 0.43533 0.0
C993 C 0.90271 0.78419 0.45851 0.0
C994 C 0.90722 0.75099 0.43821 0.0
C995 C 0.9307 0.77728 0.43158 0.0
C996 C 0.93266 0.78468 0.40746 0.0
C997 C 0.95044 0.79039 0.39985 0.0
C998 C 0.96655 0.78877 0.41756 0.0
C999 C 0.96465 0.78178 0.44259 0.0
C1000 C 0.94651 0.77591 0.44956 0.0
H1001 H 0.25853 0.86708 0.4032 0.0
H1002 H 0.23105 0.88622 0.33049 0.0
H1003 H 0.23196 0.91945 0.34834 0.0
H1004 H 0.23551 0.89823 0.44538 0.0
H1005 H 0.25627 0.90257 0.46759 0.0
H1006 H 0.25395 0.88034 0.4489 0.0
H1007 H 0.28673 0.88618 0.43027 0.0
H1008 H 0.28925 0.90836 0.44912 0.0
H1009 H 0.2908 0.90819 0.41441 0.0
H1010 H 0.23379 0.95033 0.37546 0.0
H1011 H 0.239 0.97682 0.40854 0.0
H1012 H 0.26736 0.9376 0.46182 0.0
C1013 C 0.2531 0.87823 0.39068 0.0
C1014 C 0.24463 0.87389 0.36541 0.0
C1015 C 0.23731 0.88904 0.35007 0.0
C1016 C 0.23787 0.908 0.35997 0.0
C1017 C 0.24604 0.91166 0.38509 0.0
C1018 C 0.25378 0.89722 0.40008 0.0
C1019 C 0.26166 0.90488 0.42654 0.0
C1020 C 0.25122 0.89598 0.44838 0.0
C1021 C 0.2834 0.90172 0.43029 0.0
C1022 C 0.25691 0.92586 0.42424 0.0
C1023 C 0.24779 0.9295 0.40026 0.0
C1024 C 0.24115 0.94771 0.39416 0.0
C1025 C 0.24407 0.9626 0.41302 0.0
C1026 C 0.25372 0.95917 0.43746 0.0
C1027 C 0.26022 0.94059 0.44306 0.0
H1028 H 0.16737 0.78062 0.60188 0.0
H1029 H 0.15494 0.81301 0.67227 0.0
H1030 H 0.12066 0.81143 0.65862 0.0
H1031 H 0.13381 0.80593 0.56071 0.0
H1032 H 0.12735 0.78539 0.53976 0.0
H1033 H 0.15085 0.78696 0.55639 0.0
H1034 H 0.14554 0.75424 0.57675 0.0
H1035 H 0.12196 0.75262 0.56027 0.0
H1036 H 0.12494 0.75088 0.59509 0.0
H1037 H 0.08764 0.80689 0.63729 0.0
H1038 H 0.05852 0.80261 0.60743 0.0
H1039 H 0.0925 0.77671 0.54877 0.0
C1040 C 0.15759 0.78752 0.61451 0.0
C1041 C 0.16419 0.7967 0.6385 0.0
C1042 C 0.15053 0.8053 0.65427 0.0
C1043 C 0.13091 0.80464 0.64658 0.0
C1044 C 0.12505 0.79562 0.62283 0.0
C1045 C 0.13799 0.78743 0.60685 0.0
C1046 C 0.12804 0.77994 0.58136 0.0
C1047 C 0.13545 0.79017 0.55819 0.0
C1048 C 0.13026 0.75812 0.57819 0.0
C1049 C 0.10751 0.78538 0.58545 0.0
C1050 C 0.10609 0.79409 0.60972 0.0
C1051 C 0.0886 0.80026 0.61815 0.0
C1052 C 0.0722 0.79782 0.60112 0.0
C1053 C 0.07349 0.78977 0.57574 0.0
C1054 C 0.09128 0.78313 0.56799 0.0
H1055 H 0.25162 0.16281 0.6831 0.0
H1056 H 0.27774 0.20168 0.63213 0.0
H1057 H 0.28807 0.17421 0.60564 0.0
H1058 H 0.28588 0.12366 0.67858 0.0
H1059 H 0.26761 0.10545 0.6777 0.0
H1060 H 0.26427 0.12801 0.69478 0.0
H1061 H 0.23225 0.13289 0.66734 0.0
H1062 H 0.23549 0.11037 0.65021 0.0
H1063 H 0.23199 0.13191 0.63236 0.0
H1064 H 0.2938 0.14292 0.58288 0.0
H1065 H 0.29325 0.10993 0.56428 0.0
H1066 H 0.2618 0.09134 0.62824 0.0
C1067 C 0.25954 0.16565 0.66643 0.0
C1068 C 0.264 0.18458 0.66005 0.0
C1069 C 0.27454 0.18742 0.63805 0.0
C1070 C 0.28039 0.17187 0.62269 0.0
C1071 C 0.27549 0.15351 0.62936 0.0
C1072 C 0.26523 0.15031 0.65062 0.0
C1073 C 0.26056 0.12925 0.65236 0.0
C1074 C 0.27016 0.12112 0.67734 0.0
C1075 C 0.23878 0.12592 0.65045 0.0
C1076 C 0.26952 0.12119 0.62848 0.0
C1077 C 0.2783 0.13541 0.61573 0.0
C1078 C 0.28715 0.13162 0.59282 0.0
C1079 C 0.28685 0.11282 0.58249 0.0
C1080 C 0.27761 0.09805 0.59492 0.0
C1081 C 0.26897 0.10233 0.61833 0.0
H1082 H 0.88593 0.23183 0.66578 0.0
H1083 H 0.8497 0.27822 0.63768 0.0
H1084 H 0.87488 0.28801 0.60988 0.0
H1085 H 0.93047 0.25869 0.66898 0.0
H1086 H 0.94425 0.23828 0.65906 0.0
H1087 H 0.92327 0.23491 0.67657 0.0
H1088 H 0.9092 0.21182 0.63958 0.0
H1089 H 0.93008 0.21519 0.62189 0.0
H1090 H 0.90661 0.21987 0.60673 0.0
H1091 H 0.90383 0.29207 0.58394 0.0
H1092 H 0.93434 0.29064 0.56304 0.0
H1093 H 0.9525 0.24319 0.61093 0.0
C1094 C 0.88332 0.24425 0.65416 0.0
C1095 C 0.86568 0.25418 0.65401 0.0
C1096 C 0.86288 0.27012 0.63793 0.0
C1097 C 0.87718 0.2759 0.62218 0.0
C1098 C 0.89432 0.26574 0.62282 0.0
C1099 C 0.89748 0.25034 0.63856 0.0
C1100 C 0.91715 0.24184 0.63575 0.0
C1101 C 0.92952 0.24354 0.66163 0.0
C1102 C 0.91566 0.22094 0.62537 0.0
C1103 C 0.92452 0.25475 0.61578 0.0
C1104 C 0.91113 0.26842 0.60851 0.0
C1105 C 0.91451 0.28158 0.58975 0.0
C1106 C 0.93201 0.28073 0.57811 0.0
C1107 C 0.94606 0.2669 0.58535 0.0
C1108 C 0.94213 0.25385 0.60462 0.0
H1109 H 0.79131 0.87849 0.65945 0.0
H1110 H 0.74343 0.8496 0.61635 0.0
H1111 H 0.73603 0.87902 0.59264 0.0
H1112 H 0.76842 0.92586 0.66469 0.0
H1113 H 0.79041 0.93844 0.66071 0.0
H1114 H 0.79105 0.91555 0.67567 0.0
H1115 H 0.81386 0.90269 0.64179 0.0
H1116 H 0.81319 0.92546 0.62662 0.0
H1117 H 0.8067 0.90399 0.60762 0.0
H1118 H 0.73538 0.91046 0.57131 0.0
H1119 H 0.74103 0.94217 0.55422 0.0
H1120 H 0.78855 0.95135 0.61238 0.0
C1121 C 0.779 0.8785 0.64545 0.0
C1122 C 0.76792 0.86176 0.63975 0.0
C1123 C 0.7522 0.86221 0.62086 0.0
C1124 C 0.74782 0.87887 0.60741 0.0
C1125 C 0.75923 0.895 0.61317 0.0
C1126 C 0.77442 0.89502 0.63184 0.0
C1127 C 0.78495 0.914 0.63341 0.0
C1128 C 0.78362 0.92406 0.66021 0.0
C1129 C 0.80591 0.91137 0.62697 0.0
C1130 C 0.77351 0.92452 0.61235 0.0
C1131 C 0.75869 0.91332 0.60104 0.0
C1132 C 0.74671 0.91952 0.58033 0.0
C1133 C 0.74997 0.93765 0.57088 0.0
C1134 C 0.76506 0.94947 0.58216 0.0
C1135 C 0.77689 0.94274 0.6033 0.0
H1136 H 0.86843 0.80713 0.64062 0.0
H1137 H 0.87828 0.75681 0.68615 0.0
H1138 H 0.9108 0.75362 0.67037 0.0
H1139 H 0.89022 0.78877 0.58557 0.0
H1140 H 0.90004 0.81138 0.57732 0.0
H1141 H 0.87861 0.81082 0.59447 0.0
H1142 H 0.89466 0.83306 0.63109 0.0
H1143 H 0.91618 0.83368 0.61403 0.0
H1144 H 0.91724 0.82625 0.64717 0.0
H1145 H 0.94184 0.75561 0.64842 0.0
H1146 H 0.96765 0.76068 0.61905 0.0
H1147 H 0.93635 0.80857 0.58608 0.0
C1148 C 0.87762 0.79567 0.6476 0.0
C1149 C 0.87115 0.78237 0.66486 0.0
C1150 C 0.8832 0.76719 0.67307 0.0
C1151 C 0.90164 0.76535 0.6643 0.0
C1152 C 0.90761 0.77868 0.64712 0.0
C1153 C 0.89586 0.79344 0.63867 0.0
C1154 C 0.90494 0.80488 0.6185 0.0
C1155 C 0.89273 0.80389 0.59243 0.0
C1156 C 0.90847 0.8257 0.62829 0.0
C1157 C 0.92357 0.79415 0.61667 0.0
C1158 C 0.92502 0.7793 0.63365 0.0
C1159 C 0.94088 0.76724 0.63513 0.0
C1160 C 0.95548 0.77026 0.6185 0.0
C1161 C 0.95391 0.785 0.60041 0.0
C1162 C 0.93785 0.79718 0.59975 0.0
H1163 H 0.2593 0.89647 0.65613 0.0
H1164 H 0.26968 0.85938 0.58923 0.0
H1165 H 0.27361 0.88759 0.56313 0.0
H1166 H 0.23129 0.93105 0.62033 0.0
H1167 H 0.24062 0.95136 0.63977 0.0
H1168 H 0.23951 0.92826 0.65391 0.0
H1169 H 0.27585 0.93005 0.66746 0.0
H1170 H 0.27706 0.95318 0.65341 0.0
H1171 H 0.29246 0.93413 0.64317 0.0
H1172 H 0.27558 0.91966 0.54354 0.0
H1173 H 0.27542 0.95377 0.53213 0.0
H1174 H 0.26317 0.97038 0.61087 0.0
C1175 C 0.2624 0.89425 0.636 0.0
C1176 C 0.26444 0.87555 0.62498 0.0
C1177 C 0.26855 0.87343 0.5985 0.0
C1178 C 0.27065 0.88941 0.58335 0.0
C1179 C 0.26852 0.90755 0.59479 0.0
C1180 C 0.26449 0.9101 0.62049 0.0
C1181 C 0.26253 0.93121 0.62779 0.0
C1182 C 0.24229 0.93573 0.63593 0.0
C1183 C 0.27789 0.93751 0.64923 0.0
C1184 C 0.26601 0.94007 0.60214 0.0
C1185 C 0.26947 0.92613 0.58338 0.0
C1186 C 0.27292 0.9307 0.55808 0.0
C1187 C 0.2728 0.95004 0.55175 0.0
C1188 C 0.26919 0.96451 0.5706 0.0
C1189 C 0.26586 0.95948 0.59614 0.0
H1190 H 0.16149 0.25175 0.63337 0.0
H1191 H 0.14344 0.26825 0.70967 0.0
H1192 H 0.1099 0.26993 0.6912 0.0
H1193 H 0.12964 0.28267 0.59715 0.0
H1194 H 0.1253 0.26572 0.57018 0.0
H1195 H 0.14771 0.26537 0.58965 0.0
H1196 H 0.14232 0.22963 0.59869 0.0
H1197 H 0.11986 0.2299 0.57931 0.0
H1198 H 0.12062 0.22252 0.61246 0.0
H1199 H 0.07831 0.27046 0.66396 0.0
H1200 H 0.05129 0.26969 0.62991 0.0
H1201 H 0.09029 0.2532 0.57181 0.0
C1202 C 0.15053 0.25587 0.6462 0.0
C1203 C 0.15511 0.25992 0.67298 0.0
C1204 C 0.14025 0.26491 0.68915 0.0
C1205 C 0.12118 0.26598 0.67882 0.0
C1206 C 0.11721 0.26196 0.6523 0.0
C1207 C 0.13148 0.25699 0.63623 0.0
C1208 C 0.12351 0.25348 0.60839 0.0
C1209 C 0.13205 0.26766 0.59028 0.0
C1210 C 0.12677 0.23264 0.59919 0.0
C1211 C 0.10252 0.25739 0.61123 0.0
C1212 C 0.09913 0.26222 0.63671 0.0
C1213 C 0.0808 0.26665 0.64398 0.0
C1214 C 0.06559 0.26619 0.62465 0.0
C1215 C 0.06891 0.26137 0.59853 0.0
C1216 C 0.08754 0.25685 0.59177 0.0
H1217 H 0.78944 0.1582 0.63116 0.0
H1218 H 0.78409 0.13579 0.70758 0.0
H1219 H 0.77979 0.10323 0.68776 0.0
H1220 H 0.75397 0.12663 0.59629 0.0
H1221 H 0.76739 0.12418 0.56788 0.0
H1222 H 0.76936 0.14579 0.58804 0.0
H1223 H 0.80617 0.14152 0.59364 0.0
H1224 H 0.80429 0.11988 0.5736 0.0
H1225 H 0.81594 0.11949 0.60591 0.0
H1226 H 0.77719 0.07271 0.65955 0.0
H1227 H 0.77618 0.04698 0.62491 0.0
H1228 H 0.78276 0.08937 0.56722 0.0
C1229 C 0.78703 0.14652 0.64373 0.0
C1230 C 0.7871 0.14963 0.671 0.0
C1231 C 0.7843 0.1338 0.6867 0.0
C1232 C 0.78174 0.11524 0.6756 0.0
C1233 C 0.78196 0.11267 0.64871 0.0
C1234 C 0.78446 0.1279 0.63297 0.0
C1235 C 0.78461 0.12124 0.60469 0.0
C1236 C 0.76783 0.12998 0.58826 0.0
C1237 C 0.8039 0.1258 0.59383 0.0
C1238 C 0.78195 0.09989 0.60699 0.0
C1239 C 0.7804 0.0952 0.63253 0.0
C1240 C 0.77826 0.07625 0.63948 0.0
C1241 C 0.7777 0.06175 0.6198 0.0
C1242 C 0.77926 0.06634 0.59363 0.0
C1243 C 0.78139 0.08562 0.58717 0.0
H1244 H 0.87719 0.27909 0.42328 0.0
H1245 H 0.88705 0.24521 0.35321 0.0
H1246 H 0.92153 0.24478 0.36628 0.0
H1247 H 0.92235 0.30603 0.4291 0.0
H1248 H 0.92485 0.3045 0.46397 0.0
H1249 H 0.90136 0.30485 0.44719 0.0
H1250 H 0.89291 0.2731 0.46811 0.0
H1251 H 0.91634 0.27265 0.48491 0.0
H1252 H 0.90812 0.25254 0.46419 0.0
H1253 H 0.95471 0.24574 0.3886 0.0
H1254 H 0.98355 0.24687 0.41959 0.0
H1255 H 0.95141 0.27741 0.47647 0.0
C1256 C 0.88652 0.27163 0.41051 0.0
C1257 C 0.87921 0.26231 0.38704 0.0
C1258 C 0.89216 0.25291 0.37095 0.0
C1259 C 0.91184 0.25246 0.37829 0.0
C1260 C 0.9184 0.26136 0.40186 0.0
C1261 C 0.90611 0.27073 0.41776 0.0
C1262 C 0.91645 0.27759 0.44322 0.0
C1263 C 0.91624 0.29955 0.44602 0.0
C1264 C 0.90795 0.26842 0.46647 0.0
C1265 C 0.93638 0.27022 0.4394 0.0
C1266 C 0.93732 0.26121 0.41522 0.0
C1267 C 0.95416 0.25283 0.40753 0.0
C1268 C 0.9704 0.25347 0.42518 0.0
C1269 C 0.96947 0.26208 0.45027 0.0
C1270 C 0.95236 0.27078 0.4573 0.0
H1271 H 0.78486 0.8914 0.37653 0.0
H1272 H 0.77155 0.85366 0.43774 0.0
H1273 H 0.76873 0.88152 0.46769 0.0
H1274 H 0.8143 0.92373 0.41775 0.0
H1275 H 0.80642 0.94481 0.401 0.0
H1276 H 0.80642 0.92196 0.38369 0.0
H1277 H 0.77039 0.92589 0.3696 0.0
H1278 H 0.77029 0.94875 0.38687 0.0
H1279 H 0.75365 0.93036 0.39403 0.0
H1280 H 0.7681 0.91338 0.49172 0.0
H1281 H 0.77012 0.94725 0.50784 0.0
H1282 H 0.78476 0.96435 0.432 0.0
C1283 C 0.78136 0.88895 0.39621 0.0
C1284 C 0.77816 0.8702 0.40449 0.0
C1285 C 0.77356 0.8678 0.43052 0.0
C1286 C 0.77208 0.88356 0.44784 0.0
C1287 C 0.77534 0.90176 0.43905 0.0
C1288 C 0.77991 0.90456 0.41388 0.0
C1289 C 0.78319 0.92563 0.40963 0.0
C1290 C 0.80381 0.92924 0.40261 0.0
C1291 C 0.7685 0.9331 0.3888 0.0
C1292 C 0.77983 0.93417 0.43635 0.0
C1293 C 0.77525 0.92014 0.45303 0.0
C1294 C 0.77165 0.92449 0.47883 0.0
C1295 C 0.77281 0.94368 0.48783 0.0
C1296 C 0.7776 0.95817 0.4711 0.0
C1297 C 0.78108 0.95339 0.44505 0.0
H1298 H 0.16293 0.79986 0.40355 0.0
H1299 H 0.14837 0.75803 0.34103 0.0
H1300 H 0.11609 0.75449 0.35684 0.0
H1301 H 0.13879 0.77708 0.45252 0.0
H1302 H 0.13092 0.79916 0.46738 0.0
H1303 H 0.15257 0.79869 0.45063 0.0
H1304 H 0.13929 0.82566 0.4213 0.0
H1305 H 0.11755 0.82617 0.43791 0.0
H1306 H 0.11647 0.82247 0.40308 0.0
H1307 H 0.08599 0.75445 0.38088 0.0
H1308 H 0.06003 0.75854 0.41061 0.0
H1309 H 0.09421 0.80087 0.45678 0.0
C1310 C 0.15298 0.78988 0.39325 0.0
C1311 C 0.15816 0.77913 0.37114 0.0
C1312 C 0.14463 0.76647 0.35792 0.0
C1313 C 0.12631 0.76434 0.3668 0.0
C1314 C 0.12171 0.77511 0.38875 0.0
C1315 C 0.13463 0.7877 0.40172 0.0
C1316 C 0.12622 0.79751 0.4249 0.0
C1317 C 0.13781 0.79282 0.45036 0.0
C1318 C 0.12479 0.81924 0.42159 0.0
C1319 C 0.10661 0.78829 0.42318 0.0
C1320 C 0.10428 0.7754 0.40221 0.0
C1321 C 0.0876 0.76461 0.39724 0.0
C1322 C 0.07299 0.76697 0.41424 0.0
C1323 C 0.07511 0.78009 0.43584 0.0
C1324 C 0.09209 0.79098 0.44016 0.0
H1325 H 0.27846 0.16478 0.42475 0.0
H1326 H 0.24089 0.14749 0.35711 0.0
H1327 H 0.24027 0.1147 0.37266 0.0
H1328 H 0.30497 0.1202 0.43131 0.0
H1329 H 0.3057 0.12133 0.46631 0.0
H1330 H 0.30491 0.14308 0.44861 0.0
H1331 H 0.27468 0.15381 0.47127 0.0
H1332 H 0.2754 0.13212 0.48903 0.0
H1333 H 0.25406 0.13825 0.46943 0.0
H1334 H 0.24222 0.08397 0.39664 0.0
H1335 H 0.24601 0.05806 0.42811 0.0
H1336 H 0.28041 0.09569 0.48132 0.0
C1337 C 0.27008 0.15418 0.41308 0.0
C1338 C 0.25988 0.15893 0.38943 0.0
C1339 C 0.24929 0.14434 0.37488 0.0
C1340 C 0.2487 0.12561 0.38368 0.0
C1341 C 0.25867 0.12157 0.40719 0.0
C1342 C 0.26912 0.13545 0.42174 0.0
C1343 C 0.27761 0.12766 0.44711 0.0
C1344 C 0.29961 0.12809 0.4484 0.0
C1345 C 0.26998 0.13861 0.47059 0.0
C1346 C 0.27009 0.1073 0.44469 0.0
C1347 C 0.25936 0.10402 0.42137 0.0
C1348 C 0.25065 0.08637 0.4149 0.0
C1349 C 0.25285 0.07177 0.43281 0.0
C1350 C 0.26349 0.07497 0.45696 0.0
C1351 C 0.27231 0.09291 0.46286 0.0
H1352 H 0.66781 0.76443 0.90642 0.0
H1353 H 0.64603 0.73743 0.83293 0.0
H1354 H 0.61374 0.73648 0.84889 0.0
H1355 H 0.63987 0.73929 0.9473 0.0
H1356 H 0.63575 0.75948 0.9689 0.0
H1357 H 0.65711 0.7585 0.95154 0.0
H1358 H 0.64882 0.79131 0.93191 0.0
H1359 H 0.62751 0.7925 0.94941 0.0
H1360 H 0.62581 0.79464 0.91463 0.0
H1361 H 0.58427 0.73628 0.87423 0.0
H1362 H 0.55928 0.7396 0.90571 0.0
H1363 H 0.59984 0.76906 0.96083 0.0
C1364 C 0.65625 0.75871 0.89332 0.0
C1365 C 0.65964 0.7509 0.8684 0.0
C1366 C 0.644 0.74318 0.85229 0.0
C1367 C 0.62554 0.74269 0.86111 0.0
C1368 C 0.62284 0.75023 0.88592 0.0
C1369 C 0.63771 0.75837 0.90163 0.0
C1370 C 0.63106 0.76545 0.92754 0.0
C1371 C 0.64157 0.75505 0.95014 0.0
C1372 C 0.63344 0.78727 0.93107 0.0
C1373 C 0.61016 0.75978 0.9241 0.0
C1374 C 0.60571 0.75088 0.90003 0.0
C1375 C 0.58751 0.74347 0.89297 0.0
C1376 C 0.57347 0.74533 0.91093 0.0
C1377 C 0.5777 0.75473 0.93543 0.0
C1378 C 0.59624 0.76208 0.94201 0.0
H1379 H 0.27861 0.67506 0.89997 0.0
H1380 H 0.29975 0.65106 0.82871 0.0
H1381 H 0.30062 0.61911 0.84737 0.0
H1382 H 0.30557 0.64631 0.94411 0.0
H1383 H 0.28665 0.64344 0.9655 0.0
H1384 H 0.28749 0.6645 0.94658 0.0
H1385 H 0.25303 0.65768 0.9266 0.0
H1386 H 0.25201 0.63669 0.94566 0.0
H1387 H 0.24747 0.63471 0.91082 0.0
H1388 H 0.30085 0.58997 0.87477 0.0
H1389 H 0.29837 0.56555 0.90742 0.0
H1390 H 0.27415 0.60796 0.95924 0.0
C1391 C 0.28308 0.6631 0.88798 0.0
C1392 C 0.28923 0.66579 0.86279 0.0
C1393 C 0.29532 0.64961 0.84819 0.0
C1394 C 0.29575 0.63132 0.85857 0.0
C1395 C 0.28983 0.62929 0.88351 0.0
C1396 C 0.28338 0.6447 0.8979 0.0
C1397 C 0.27772 0.63863 0.92419 0.0
C1398 C 0.2901 0.64883 0.9464 0.0
C1399 C 0.25628 0.64213 0.92697 0.0
C1400 C 0.28218 0.61742 0.92243 0.0
C1401 C 0.28924 0.61236 0.89887 0.0
C1402 C 0.29502 0.59372 0.89312 0.0
C1403 C 0.29339 0.57986 0.91183 0.0
C1404 C 0.28582 0.58455 0.93604 0.0
C1405 C 0.28016 0.60371 0.94119 0.0
H1406 H 0.37521 0.28976 0.9069 0.0
H1407 H 0.35258 0.25826 0.96901 0.0
H1408 H 0.38491 0.25666 0.9908 0.0
H1409 H 0.41868 0.26136 0.90478 0.0
H1410 H 0.4331 0.28146 0.89723 0.0
H1411 H 0.40797 0.28078 0.88692 0.0
H1412 H 0.40353 0.31365 0.91056 0.0
H1413 H 0.4286 0.31429 0.92129 0.0
H1414 H 0.41082 0.31657 0.94472 0.0
H1415 H 0.41938 0.25969 0.00703 0.0
H1416 H 0.45444 0.26382 0.01395 0.0
H1417 H 0.45534 0.28955 0.93892 0.0
C1418 C 0.37695 0.28221 0.92484 0.0
C1419 C 0.36104 0.27444 0.93631 0.0
C1420 C 0.36426 0.26491 0.96005 0.0
C1421 C 0.38265 0.26377 0.97257 0.0
C1422 C 0.39784 0.27186 0.96091 0.0
C1423 C 0.39529 0.28055 0.93733 0.0
C1424 C 0.4142 0.28743 0.9285 0.0
C1425 C 0.41876 0.27714 0.90284 0.0
C1426 C 0.41428 0.30928 0.92613 0.0
C1427 C 0.42775 0.28137 0.95094 0.0
C1428 C 0.41795 0.27266 0.96959 0.0
C1429 C 0.42723 0.26634 0.99248 0.0
C1430 C 0.44709 0.26879 0.99627 0.0
C1431 C 0.45749 0.27727 0.97717 0.0
C1432 C 0.44768 0.28351 0.95414 0.0
H1433 H 0.74482 0.39909 0.86377 0.0
H1434 H 0.76537 0.3567 0.91857 0.0
H1435 H 0.77284 0.38236 0.95171 0.0
H1436 H 0.77883 0.4367 0.88503 0.0
H1437 H 0.76142 0.45555 0.88104 0.0
H1438 H 0.75898 0.43398 0.86087 0.0
H1439 H 0.7248 0.42897 0.87554 0.0
H1440 H 0.72716 0.4505 0.89578 0.0
H1441 H 0.72131 0.4282 0.90975 0.0
H1442 H 0.77675 0.4125 0.97983 0.0
H1443 H 0.77663 0.44506 1.00059 0.0
H1444 H 0.75256 0.46774 0.92839 0.0
C1445 C 0.7509 0.39513 0.8827 0.0
C1446 C 0.75463 0.37573 0.88829 0.0
C1447 C 0.76276 0.37138 0.91339 0.0
C1448 C 0.76692 0.38588 0.93251 0.0
C1449 C 0.76284 0.40475 0.9264 0.0
C1450 C 0.75502 0.40942 0.90211 0.0
C1451 C 0.75133 0.43076 0.90087 0.0
C1452 C 0.76336 0.43978 0.88076 0.0
C1453 C 0.72988 0.43484 0.89515 0.0
C1454 C 0.75815 0.43733 0.92833 0.0
C1455 C 0.76483 0.4221 0.94271 0.0
C1456 C 0.77162 0.42453 0.96872 0.0
C1457 C 0.77151 0.443 0.98035 0.0
C1458 C 0.76458 0.45871 0.96601 0.0
C1459 C 0.75792 0.45586 0.93966 0.0
H1460 H 0.65043 0.28247 0.16588 0.0
H1461 H 0.62378 0.32199 0.2193 0.0
H1462 H 0.593 0.31757 0.19387 0.0
H1463 H 0.62729 0.30096 0.10969 0.0
H1464 H 0.6248 0.27826 0.09202 0.0
H1465 H 0.64416 0.28201 0.1166 0.0
H1466 H 0.63329 0.25231 0.1403 0.0
H1467 H 0.61384 0.24849 0.11577 0.0
H1468 H 0.60903 0.25094 0.14955 0.0
H1469 H 0.56563 0.31129 0.1608 0.0
H1470 H 0.54412 0.30434 0.12127 0.0
H1471 H 0.5889 0.27109 0.08766 0.0
C1472 C 0.63817 0.29016 0.17244 0.0
C1473 C 0.63972 0.30242 0.19498 0.0
C1474 C 0.62308 0.31205 0.20268 0.0
C1475 C 0.60546 0.30976 0.18821 0.0
C1476 C 0.6046 0.29791 0.1659 0.0
C1477 C 0.62052 0.28831 0.15797 0.0
C1478 C 0.61615 0.27784 0.13196 0.0
C1479 C 0.62885 0.28522 0.11136 0.0
C1480 C 0.6182 0.2561 0.13456 0.0
C1481 C 0.59541 0.28343 0.12626 0.0
C1482 C 0.58893 0.29475 0.14631 0.0
C1483 C 0.57047 0.30227 0.14511 0.0
C1484 C 0.55838 0.29829 0.12269 0.0
C1485 C 0.5649 0.28707 0.10179 0.0
C1486 C 0.58357 0.27944 0.10367 0.0
H1487 H 0.75351 0.64978 0.16026 0.0
H1488 H 0.76452 0.68551 0.09587 0.0
H1489 H 0.76968 0.65672 0.06851 0.0
H1490 H 0.78752 0.61231 0.14662 0.0
H1491 H 0.77208 0.59329 0.15516 0.0
H1492 H 0.77031 0.61675 0.17043 0.0
H1493 H 0.73418 0.61775 0.15556 0.0
H1494 H 0.73585 0.59431 0.14024 0.0
H1495 H 0.7267 0.61402 0.12156 0.0
H1496 H 0.77272 0.62413 0.04735 0.0
H1497 H 0.77291 0.58971 0.03401 0.0
H1498 H 0.75887 0.57491 0.1111 0.0
C1499 C 0.75699 0.65161 0.14042 0.0
C1500 C 0.75884 0.6701 0.1305 0.0
C1501 C 0.76351 0.67166 0.10435 0.0
C1502 C 0.76632 0.65534 0.08849 0.0
C1503 C 0.76432 0.63743 0.09886 0.0
C1504 C 0.75973 0.63543 0.1242 0.0
C1505 C 0.75783 0.61446 0.13024 0.0
C1506 C 0.77283 0.60888 0.1519 0.0
C1507 C 0.73743 0.60987 0.13731 0.0
C1508 C 0.76197 0.60504 0.1043 0.0
C1509 C 0.76576 0.61857 0.08651 0.0
C1510 C 0.76981 0.61341 0.06113 0.0
C1511 C 0.7699 0.59391 0.05371 0.0
C1512 C 0.76587 0.57987 0.07155 0.0
C1513 C 0.76196 0.58548 0.09718 0.0
H1514 H 0.37519 0.73845 0.14988 0.0
H1515 H 0.34905 0.79362 0.13448 0.0
H1516 H 0.37744 0.80309 0.11247 0.0
H1517 H 0.42422 0.75704 0.16323 0.0
H1518 H 0.43471 0.73622 0.14836 0.0
H1519 H 0.41257 0.73409 0.16372 0.0
H1520 H 0.39644 0.71899 0.12097 0.0
H1521 H 0.41845 0.72123 0.10541 0.0
H1522 H 0.3968 0.73178 0.09132 0.0
H1523 H 0.40743 0.80546 0.08896 0.0
H1524 H 0.43757 0.80141 0.0679 0.0
H1525 H 0.44567 0.74601 0.10262 0.0
C1526 C 0.37553 0.75271 0.14247 0.0
C1527 C 0.35971 0.76521 0.14386 0.0
C1528 C 0.36075 0.78359 0.1333 0.0
C1529 C 0.37691 0.78918 0.12092 0.0
C1530 C 0.39206 0.77638 0.11958 0.0
C1531 C 0.39163 0.75863 0.13038 0.0
C1532 C 0.40969 0.74743 0.12591 0.0
C1533 C 0.42096 0.74347 0.15185 0.0
C1534 C 0.40506 0.72876 0.10995 0.0
C1535 C 0.42016 0.76151 0.11043 0.0
C1536 C 0.40973 0.7781 0.10697 0.0
C1537 C 0.41593 0.79271 0.09202 0.0
C1538 C 0.43323 0.7903 0.08028 0.0
C1539 C 0.44436 0.77348 0.08373 0.0
C1540 C 0.43765 0.75902 0.0993 0.0
H1541 H 0.29717 0.38141 0.16531 0.0
H1542 H 0.24439 0.35429 0.13339 0.0
H1543 H 0.23722 0.38234 0.10676 0.0
H1544 H 0.27832 0.43022 0.16849 0.0
H1545 H 0.30025 0.44079 0.15957 0.0
H1546 H 0.30094 0.41884 0.17681 0.0
H1547 H 0.31944 0.4025 0.14044 0.0
H1548 H 0.31869 0.42435 0.123 0.0
H1549 H 0.30937 0.40251 0.10726 0.0
H1550 H 0.23647 0.41254 0.08201 0.0
H1551 H 0.2416 0.44327 0.06182 0.0
H1552 H 0.29423 0.45173 0.11094 0.0
C1553 C 0.28393 0.3815 0.15308 0.0
C1554 C 0.27136 0.36555 0.15146 0.0
C1555 C 0.25437 0.36617 0.13478 0.0
C1556 C 0.25012 0.3821 0.11966 0.0
C1557 C 0.26293 0.39741 0.12144 0.0
C1558 C 0.27944 0.39732 0.13784 0.0
C1559 C 0.29097 0.4155 0.13565 0.0
C1560 C 0.29272 0.42702 0.16168 0.0
C1561 C 0.31079 0.41093 0.12601 0.0
C1562 C 0.27844 0.42573 0.11531 0.0
C1563 C 0.26234 0.41502 0.10741 0.0
C1564 C 0.24889 0.42118 0.08832 0.0
C1565 C 0.25187 0.43878 0.07709 0.0
C1566 C 0.26817 0.45021 0.08499 0.0
C1567 C 0.28163 0.44344 0.10438 0.0
H1568 H 0.38186 0.2695 0.16744 0.0
H1569 H 0.3659 0.32911 0.16033 0.0
H1570 H 0.39343 0.33433 0.13421 0.0
H1571 H 0.43385 0.27831 0.17346 0.0
H1572 H 0.4392 0.25672 0.15526 0.0
H1573 H 0.41844 0.2577 0.1739 0.0
H1574 H 0.39699 0.24773 0.13255 0.0
H1575 H 0.41766 0.2469 0.11374 0.0
H1576 H 0.39752 0.2617 0.10395 0.0
H1577 H 0.42033 0.33237 0.10549 0.0
H1578 H 0.44772 0.32476 0.08024 0.0
H1579 H 0.44915 0.2672 0.10965 0.0
C1580 C 0.38436 0.28367 0.16059 0.0
C1581 C 0.37186 0.29896 0.16596 0.0
C1582 C 0.37548 0.3173 0.15669 0.0
C1583 C 0.39098 0.32036 0.14171 0.0
C1584 C 0.40292 0.305 0.13649 0.0
C1585 C 0.40007 0.28709 0.14601 0.0
C1586 C 0.41532 0.27318 0.13773 0.0
C1587 C 0.42742 0.26606 0.1615 0.0
C1588 C 0.40633 0.25639 0.121 0.0
C1589 C 0.42694 0.28601 0.12172 0.0
C1590 C 0.41935 0.30422 0.1211 0.0
C1591 C 0.42676 0.31832 0.10641 0.0
C1592 C 0.44257 0.31383 0.09228 0.0
C1593 C 0.45127 0.29548 0.0933 0.0
C1594 C 0.44311 0.28139 0.10824 0.0
H1595 H 0.73776 0.4054 0.20009 0.0
H1596 H 0.75618 0.35582 0.15513 0.0
H1597 H 0.76898 0.37715 0.1238 0.0
H1598 H 0.7202 0.43062 0.1454 0.0
H1599 H 0.72706 0.45387 0.15926 0.0
H1600 H 0.7217 0.43487 0.18016 0.0
H1601 H 0.755 0.43922 0.20512 0.0
H1602 H 0.7605 0.45823 0.18422 0.0
H1603 H 0.77625 0.43793 0.18745 0.0
H1604 H 0.77829 0.40371 0.09591 0.0
H1605 H 0.78115 0.43343 0.07197 0.0
H1606 H 0.75425 0.46533 0.13303 0.0
C1607 C 0.74445 0.39891 0.1837 0.0
C1608 C 0.74606 0.37879 0.18044 0.0
C1609 C 0.75516 0.37112 0.15868 0.0
C1610 C 0.7624 0.38314 0.14059 0.0
C1611 C 0.76031 0.40282 0.14429 0.0
C1612 C 0.75141 0.41065 0.16519 0.0
C1613 C 0.74953 0.43215 0.16353 0.0
C1614 C 0.72837 0.43823 0.16199 0.0
C1615 C 0.76101 0.44249 0.18644 0.0
C1616 C 0.75845 0.43514 0.13817 0.0
C1617 C 0.76492 0.41808 0.12763 0.0
C1618 C 0.77339 0.41717 0.10403 0.0
C1619 C 0.77503 0.4341 0.09065 0.0
C1620 C 0.76796 0.4516 0.10075 0.0
C1621 C 0.75975 0.45211 0.12492 0.0
H1622 H 0.66147 0.74241 0.10849 0.0
H1623 H 0.64989 0.76349 0.18593 0.0
H1624 H 0.61599 0.76843 0.17086 0.0
H1625 H 0.6313 0.7756 0.07363 0.0
H1626 H 0.62354 0.75846 0.04807 0.0
H1627 H 0.64672 0.75605 0.06519 0.0
H1628 H 0.63804 0.72159 0.07705 0.0
H1629 H 0.61483 0.72391 0.05998 0.0
H1630 H 0.6167 0.71759 0.09361 0.0
H1631 H 0.58339 0.77177 0.14696 0.0
H1632 H 0.5546 0.77287 0.11594 0.0
H1633 H 0.58767 0.75007 0.05429 0.0
C1634 C 0.65186 0.74817 0.12229 0.0
C1635 C 0.65839 0.75257 0.14844 0.0
C1636 C 0.64521 0.75979 0.1659 0.0
C1637 C 0.62594 0.76275 0.15749 0.0
C1638 C 0.62005 0.75838 0.13155 0.0
C1639 C 0.63261 0.75121 0.11423 0.0
C1640 C 0.62272 0.74778 0.08734 0.0
C1641 C 0.6316 0.76022 0.06739 0.0
C1642 C 0.6231 0.72645 0.07902 0.0
C1643 C 0.60263 0.75427 0.09219 0.0
C1644 C 0.60136 0.76031 0.11783 0.0
C1645 C 0.58423 0.76706 0.12687 0.0
C1646 C 0.56801 0.76766 0.10922 0.0
C1647 C 0.56912 0.7616 0.08295 0.0
C1648 C 0.58659 0.75478 0.07437 0.0
H1649 H 0.2956 0.66028 0.11746 0.0
H1650 H 0.27914 0.64603 0.19381 0.0
H1651 H 0.27834 0.61169 0.18019 0.0
H1652 H 0.26536 0.62685 0.08158 0.0
H1653 H 0.2822 0.62139 0.05761 0.0
H1654 H 0.28267 0.64452 0.07414 0.0
H1655 H 0.31847 0.63971 0.08908 0.0
H1656 H 0.31807 0.61651 0.07266 0.0
H1657 H 0.3256 0.61882 0.10679 0.0
H1658 H 0.27724 0.57892 0.15676 0.0
H1659 H 0.27635 0.55084 0.12561 0.0
H1660 H 0.2935 0.58717 0.06531 0.0
C1661 C 0.2918 0.64997 0.13135 0.0
C1662 C 0.28736 0.65583 0.15667 0.0
C1663 C 0.28275 0.64183 0.17438 0.0
C1664 C 0.28221 0.62232 0.16679 0.0
C1665 C 0.28646 0.61707 0.14152 0.0
C1666 C 0.29124 0.63053 0.12414 0.0
C1667 C 0.29461 0.62139 0.09787 0.0
C1668 C 0.28036 0.62899 0.07655 0.0
C1669 C 0.31542 0.62428 0.09122 0.0
C1670 C 0.29066 0.6007 0.10298 0.0
C1671 C 0.28607 0.59839 0.12828 0.0
C1672 C 0.28106 0.58053 0.13702 0.0
C1673 C 0.28062 0.56472 0.11935 0.0
C1674 C 0.28521 0.56699 0.09345 0.0
C1675 C 0.29035 0.58514 0.08526 0.0
H1676 H 0.37 0.77382 0.90771 0.0
H1677 H 0.3867 0.74373 0.8377 0.0
H1678 H 0.42037 0.74541 0.85471 0.0
H1679 H 0.41229 0.8043 0.9197 0.0
H1680 H 0.41327 0.8018 0.95441 0.0
H1681 H 0.39058 0.80044 0.93552 0.0
H1682 H 0.38414 0.76724 0.95385 0.0
H1683 H 0.40674 0.76855 0.97284 0.0
H1684 H 0.4015 0.74842 0.95062 0.0
H1685 H 0.45213 0.74848 0.88019 0.0
H1686 H 0.47935 0.75124 0.91368 0.0
H1687 H 0.44195 0.7771 0.96816 0.0
C1688 C 0.38066 0.76759 0.89582 0.0
C1689 C 0.37548 0.75888 0.87107 0.0
C1690 C 0.39012 0.75103 0.85632 0.0
C1691 C 0.40937 0.75177 0.86591 0.0
C1692 C 0.41387 0.76026 0.89041 0.0
C1693 C 0.39994 0.76793 0.90526 0.0
C1694 C 0.40843 0.77491 0.93181 0.0
C1695 C 0.406 0.79666 0.93557 0.0
C1696 C 0.39968 0.76413 0.95356 0.0
C1697 C 0.42925 0.76964 0.92971 0.0
C1698 C 0.43213 0.76147 0.9055 0.0
C1699 C 0.45008 0.75496 0.89915 0.0
C1700 C 0.46541 0.75657 0.91817 0.0
C1701 C 0.4626 0.7644 0.94324 0.0
C1702 C 0.44438 0.77123 0.94897 0.0
H1703 H 0.27791 0.3813 0.90044 0.0
H1704 H 0.25868 0.35309 0.96741 0.0
H1705 H 0.25489 0.3845 0.98975 0.0
H1706 H 0.30599 0.41668 0.93624 0.0
H1707 H 0.30027 0.43542 0.91393 0.0
H1708 H 0.3 0.41082 0.90229 0.0
H1709 H 0.26493 0.41458 0.88333 0.0
H1710 H 0.26512 0.43922 0.89485 0.0
H1711 H 0.24701 0.42311 0.90425 0.0
H1712 H 0.25504 0.41887 0.00594 0.0
H1713 H 0.25912 0.45383 0.01438 0.0
H1714 H 0.27843 0.45948 0.93723 0.0
C1715 C 0.27283 0.38171 0.91976 0.0
C1716 C 0.26847 0.3647 0.93207 0.0
C1717 C 0.26176 0.36591 0.95734 0.0
C1718 C 0.25966 0.38369 0.97027 0.0
C1719 C 0.2643 0.40013 0.95768 0.0
C1720 C 0.27069 0.39931 0.93296 0.0
C1721 C 0.27541 0.41905 0.92415 0.0
C1722 C 0.29668 0.42057 0.91885 0.0
C1723 C 0.26233 0.42429 0.90023 0.0
C1724 C 0.27097 0.43106 0.94793 0.0
C1725 C 0.26448 0.4199 0.96703 0.0
C1726 C 0.26 0.42775 0.99107 0.0
C1727 C 0.26234 0.44753 0.99571 0.0
C1728 C 0.26923 0.45904 0.9765 0.0
C1729 C 0.27331 0.45079 0.95223 0.0
H1730 H 0.64722 0.30116 0.86553 0.0
H1731 H 0.68636 0.26009 0.90156 0.0
H1732 H 0.66161 0.25104 0.93043 0.0
H1733 H 0.62595 0.31688 0.92217 0.0
H1734 H 0.60212 0.31895 0.90681 0.0
H1735 H 0.62255 0.32168 0.88806 0.0
H1736 H 0.60961 0.29481 0.85551 0.0
H1737 H 0.58904 0.29211 0.87406 0.0
H1738 H 0.60391 0.27174 0.86739 0.0
H1739 H 0.6335 0.24811 0.95747 0.0
H1740 H 0.60364 0.25041 0.97954 0.0
H1741 H 0.5817 0.29157 0.92372 0.0
C1742 C 0.6505 0.28997 0.87908 0.0
C1743 C 0.66886 0.28142 0.88127 0.0
C1744 C 0.67257 0.2671 0.89972 0.0
C1745 C 0.65854 0.26176 0.91612 0.0
C1746 C 0.64076 0.27069 0.9137 0.0
C1747 C 0.63662 0.28435 0.89549 0.0
C1748 C 0.61649 0.29204 0.8973 0.0
C1749 C 0.61681 0.31367 0.90399 0.0
C1750 C 0.60403 0.28739 0.87206 0.0
C1751 C 0.61009 0.28078 0.91965 0.0
C1752 C 0.62431 0.26856 0.92882 0.0
C1753 C 0.62212 0.25736 0.95015 0.0
C1754 C 0.60495 0.25868 0.96245 0.0
C1755 C 0.58999 0.271 0.95335 0.0
C1756 C 0.59272 0.28207 0.93146 0.0
H1757 H 0.77253 0.67121 0.90973 0.0
H1758 H 0.73299 0.65558 0.8435 0.0
H1759 H 0.73261 0.62237 0.85762 0.0
H1760 H 0.79919 0.62621 0.91168 0.0
H1761 H 0.80142 0.62638 0.9467 0.0
H1762 H 0.80001 0.64863 0.93015 0.0
H1763 H 0.771 0.65884 0.95582 0.0
H1764 H 0.77232 0.63664 0.97241 0.0
H1765 H 0.75033 0.64341 0.9548 0.0
H1766 H 0.73451 0.59148 0.88046 0.0
H1767 H 0.73902 0.56484 0.91043 0.0
H1768 H 0.77664 0.6006 0.96232 0.0
C1769 C 0.76389 0.66079 0.89809 0.0
C1770 C 0.75296 0.66603 0.87532 0.0
C1771 C 0.74186 0.65189 0.86066 0.0
C1772 C 0.74143 0.63298 0.86861 0.0
C1773 C 0.75218 0.62838 0.89127 0.0
C1774 C 0.76325 0.64184 0.90578 0.0
C1775 C 0.77272 0.63334 0.93006 0.0
C1776 C 0.79463 0.63366 0.92961 0.0
C1777 C 0.7662 0.64367 0.95472 0.0
C1778 C 0.76497 0.6131 0.92711 0.0
C1779 C 0.75323 0.61052 0.90453 0.0
C1780 C 0.7438 0.59327 0.8981 0.0
C1781 C 0.74635 0.57827 0.91528 0.0
C1782 C 0.75823 0.58065 0.9386 0.0
C1783 C 0.76776 0.59827 0.9444 0.0
loop_
_geom_bond_atom_site_label_1
_geom_bond_atom_site_label_2
_geom_bond_distance
_geom_bond_site_symmetry_2
_ccdc_geom_bond_type
H0 C27 0.929 . S
N1 C26 1.433 . S
N1 C32 1.435 . S
N1 C38 1.423 . S
H2 C28 0.930 . S
H3 C31 0.931 . S
H4 C30 0.929 . S
H5 C33 0.930 . S
H6 C34 0.932 . S
H7 C37 0.929 . S
H8 C36 0.931 . S
H9 C39 0.929 . S
H10 C43 0.932 . S
H11 C40 0.931 . S
H12 C42 0.929 . S
H13 C45 0.929 . S
H14 C46 0.930 . S
H15 C48 0.929 . S
H16 C49 0.931 . S
H17 C51 0.930 . S
H18 C52 0.932 . S
H19 C54 0.931 . S
H20 C55 0.929 . S
H21 C57 0.929 . S
H22 C58 0.931 . S
H23 C60 0.929 . S
N24 C44 1.433 . S
N24 C50 1.435 . S
N24 C56 1.423 . S
H25 C61 0.932 . S
C26 N1 1.433 . S
C26 C27 1.363 . S
C26 C31 1.370 . S
C27 H0 0.929 . S
C27 C26 1.363 . S
C27 C28 1.385 . S
C28 H2 0.930 . S
C28 C27 1.385 . S
C28 C29 1.357 . S
C29 C28 1.357 . S
C29 C30 1.406 . S
C30 H4 0.929 . S
C30 C29 1.406 . S
C30 C31 1.391 . S
C31 H3 0.931 . S
C31 C26 1.370 . S
C31 C30 1.391 . S
C32 N1 1.435 . S
C32 C33 1.358 . S
C32 C37 1.371 . S
C33 H5 0.930 . S
C33 C32 1.358 . S
C33 C34 1.405 . S
C34 H6 0.932 . S
C34 C33 1.405 . S
C34 C35 1.383 . S
C35 C34 1.383 . S
C35 C36 1.393 . S
C36 H8 0.931 . S
C36 C35 1.393 . S
C36 C37 1.382 . S
C37 H7 0.929 . S
C37 C32 1.371 . S
C37 C36 1.382 . S
C38 N1 1.423 . S
C38 C39 1.362 . S
C38 C43 1.388 . S
C39 H9 0.929 . S
C39 C38 1.362 . S
C39 C40 1.376 . S
C40 H11 0.931 . S
C40 C39 1.376 . S
C40 C41 1.396 . S
C41 C40 1.396 . S
C41 C42 1.348 . S
C41 C59 1.472 . S
C42 H12 0.929 . S
C42 C41 1.348 . S
C42 C43 1.443 . S
C43 H10 0.932 . S
C43 C38 1.388 . S
C43 C42 1.443 . S
C44 N24 1.433 . S
C44 C45 1.363 . S
C44 C49 1.370 . S
C45 H13 0.929 . S
C45 C44 1.363 . S
C45 C46 1.385 . S
C46 H14 0.930 . S
C46 C45 1.385 . S
C46 C47 1.357 . S
C47 C46 1.357 . S
C47 C48 1.406 . S
C48 H15 0.929 . S
C48 C47 1.406 . S
C48 C49 1.391 . S
C49 H16 0.931 . S
C49 C44 1.370 . S
C49 C48 1.391 . S
C50 N24 1.435 . S
C50 C51 1.358 . S
C50 C55 1.371 . S
C51 H17 0.930 . S
C51 C50 1.358 . S
C51 C52 1.405 . S
C52 H18 0.932 . S
C52 C51 1.405 . S
C52 C53 1.383 . S
C53 C52 1.383 . S
C53 C54 1.393 . S
C54 H19 0.931 . S
C54 C53 1.393 . S
C54 C55 1.382 . S
C55 H20 0.929 . S
C55 C50 1.371 . S
C55 C54 1.382 . S
C56 N24 1.423 . S
C56 C57 1.362 . S
C56 C61 1.388 . S
C57 H21 0.929 . S
C57 C56 1.362 . S
C57 C58 1.376 . S
C58 H22 0.931 . S
C58 C57 1.376 . S
C58 C59 1.396 . S
C59 C41 1.472 . S
C59 C58 1.396 . S
C59 C60 1.348 . S
C60 H23 0.929 . S
C60 C59 1.348 . S
C60 C61 1.443 . S
C61 H25 0.932 . S
C61 C56 1.388 . S
C61 C60 1.443 . S
H62 C89 0.929 . S
N63 C88 1.433 . S
N63 C94 1.435 . S
N63 C100 1.423 . S
H64 C90 0.930 . S
H65 C93 0.931 . S
H66 C92 0.929 . S
H67 C95 0.930 . S
H68 C96 0.932 . S
H69 C99 0.929 . S
H70 C98 0.931 . S
H71 C101 0.929 . S
H72 C105 0.932 . S
H73 C102 0.931 . S
H74 C104 0.929 . S
H75 C107 0.929 . S
H76 C108 0.930 . S
H77 C110 0.929 . S
H78 C111 0.931 . S
H79 C113 0.930 . S
H80 C114 0.932 . S
H81 C116 0.931 . S
H82 C117 0.929 . S
H83 C119 0.929 . S
H84 C120 0.931 . S
H85 C122 0.929 . S
N86 C106 1.433 . S
N86 C112 1.435 . S
N86 C118 1.423 . S
H87 C123 0.932 . S
C88 N63 1.433 . S
C88 C89 1.363 . S
C88 C93 1.370 . S
C89 H62 0.929 . S
C89 C88 1.363 . S
C89 C90 1.385 . S
C90 H64 0.930 . S
C90 C89 1.385 . S
C90 C91 1.357 . S
C91 C90 1.357 . S
C91 C92 1.406 . S
C92 H66 0.929 . S
C92 C91 1.406 . S
C92 C93 1.391 . S
C93 H65 0.931 . S
C93 C88 1.370 . S
C93 C92 1.391 . S
C94 N63 1.435 . S
C94 C95 1.358 . S
C94 C99 1.371 . S
C95 H67 0.930 . S
C95 C94 1.358 . S
C95 C96 1.405 . S
C96 H68 0.932 . S
C96 C95 1.405 . S
C96 C97 1.383 . S
C97 C96 1.383 . S
C97 C98 1.393 . S
C98 H70 0.931 . S
C98 C97 1.393 . S
C98 C99 1.382 . S
C99 H69 0.929 . S
C99 C94 1.371 . S
C99 C98 1.382 . S
C100 N63 1.423 . S
C100 C101 1.362 . S
C100 C105 1.388 . S
C101 H71 0.929 . S
C101 C100 1.362 . S
C101 C102 1.376 . S
C102 H73 0.931 . S
C102 C101 1.376 . S
C102 C103 1.396 . S
C103 C102 1.396 . S
C103 C104 1.348 . S
C103 C121 1.472 . S
C104 H74 0.929 . S
C104 C103 1.348 . S
C104 C105 1.443 . S
C105 H72 0.932 . S
C105 C100 1.388 . S
C105 C104 1.443 . S
C106 N86 1.433 . S
C106 C107 1.363 . S
C106 C111 1.370 . S
C107 H75 0.929 . S
C107 C106 1.363 . S
C107 C108 1.385 . S
C108 H76 0.930 . S
C108 C107 1.385 . S
C108 C109 1.357 . S
C109 C108 1.357 . S
C109 C110 1.406 . S
C110 H77 0.929 . S
C110 C109 1.406 . S
C110 C111 1.391 . S
C111 H78 0.931 . S
C111 C106 1.370 . S
C111 C110 1.391 . S
C112 N86 1.435 . S
C112 C113 1.358 . S
C112 C117 1.371 . S
C113 H79 0.930 . S
C113 C112 1.358 . S
C113 C114 1.405 . S
C114 H80 0.932 . S
C114 C113 1.405 . S
C114 C115 1.383 . S
C115 C114 1.383 . S
C115 C116 1.393 . S
C116 H81 0.931 . S
C116 C115 1.393 . S
C116 C117 1.382 . S
C117 H82 0.929 . S
C117 C112 1.371 . S
C117 C116 1.382 . S
C118 N86 1.423 . S
C118 C119 1.362 . S
C118 C123 1.388 . S
C119 H83 0.929 . S
C119 C118 1.362 . S
C119 C120 1.376 . S
C120 H84 0.931 . S
C120 C119 1.376 . S
C120 C121 1.396 . S
C121 C103 1.472 . S
C121 C120 1.396 . S
C121 C122 1.348 . S
C122 H85 0.929 . S
C122 C121 1.348 . S
C122 C123 1.443 . S
C123 H87 0.932 . S
C123 C118 1.388 . S
C123 C122 1.443 . S
H124 C151 0.929 . S
N125 C150 1.433 . S
N125 C156 1.435 . S
N125 C162 1.423 . S
H126 C152 0.930 . S
H127 C155 0.931 . S
H128 C154 0.929 . S
H129 C157 0.930 . S
H130 C158 0.932 . S
H131 C161 0.929 . S
H132 C160 0.931 . S
H133 C163 0.929 . S
H134 C167 0.932 . S
H135 C164 0.931 . S
H136 C166 0.929 . S
H137 C169 0.929 . S
H138 C170 0.930 . S
H139 C172 0.929 . S
H140 C173 0.931 . S
H141 C175 0.930 . S
H142 C176 0.932 . S
H143 C178 0.931 . S
H144 C179 0.929 . S
H145 C181 0.929 . S
H146 C182 0.931 . S
H147 C184 0.929 . S
N148 C168 1.433 . S
N148 C174 1.435 . S
N148 C180 1.423 . S
H149 C185 0.932 . S
C150 N125 1.433 . S
C150 C151 1.363 . S
C150 C155 1.370 . S
C151 H124 0.929 . S
C151 C150 1.363 . S
C151 C152 1.385 . S
C152 H126 0.930 . S
C152 C151 1.385 . S
C152 C153 1.357 . S
C153 C152 1.357 . S
C153 C154 1.406 . S
C154 H128 0.929 . S
C154 C153 1.406 . S
C154 C155 1.391 . S
C155 H127 0.931 . S
C155 C150 1.370 . S
C155 C154 1.391 . S
C156 N125 1.435 . S
C156 C157 1.358 . S
C156 C161 1.371 . S
C157 H129 0.930 . S
C157 C156 1.358 . S
C157 C158 1.405 . S
C158 H130 0.932 . S
C158 C157 1.405 . S
C158 C159 1.383 . S
C159 C158 1.383 . S
C159 C160 1.393 . S
C160 H132 0.931 . S
C160 C159 1.393 . S
C160 C161 1.382 . S
C161 H131 0.929 . S
C161 C156 1.371 . S
C161 C160 1.382 . S
C162 N125 1.423 . S
C162 C163 1.362 . S
C162 C167 1.388 . S
C163 H133 0.929 . S
C163 C162 1.362 . S
C163 C164 1.376 . S
C164 H135 0.931 . S
C164 C163 1.376 . S
C164 C165 1.396 . S
C165 C164 1.396 . S
C165 C166 1.348 . S
C165 C183 1.472 . S
C166 H136 0.929 . S
C166 C165 1.348 . S
C166 C167 1.443 . S
C167 H134 0.932 . S
C167 C162 1.388 . S
C167 C166 1.443 . S
C168 N148 1.433 . S
C168 C169 1.363 . S
C168 C173 1.370 . S
C169 H137 0.929 . S
C169 C168 1.363 . S
C169 C170 1.385 . S
C170 H138 0.930 . S
C170 C169 1.385 . S
C170 C171 1.357 . S
C171 C170 1.357 . S
C171 C172 1.406 . S
C172 H139 0.929 . S
C172 C171 1.406 . S
C172 C173 1.391 . S
C173 H140 0.931 . S
C173 C168 1.370 . S
C173 C172 1.391 . S
C174 N148 1.435 . S
C174 C175 1.358 . S
C174 C179 1.371 . S
C175 H141 0.930 . S
C175 C174 1.358 . S
C175 C176 1.405 . S
C176 H142 0.932 . S
C176 C175 1.405 . S
C176 C177 1.383 . S
C177 C176 1.383 . S
C177 C178 1.393 . S
C178 H143 0.931 . S
C178 C177 1.393 . S
C178 C179 1.382 . S
C179 H144 0.929 . S
C179 C174 1.371 . S
C179 C178 1.382 . S
C180 N148 1.423 . S
C180 C181 1.362 . S
C180 C185 1.388 . S
C181 H145 0.929 . S
C181 C180 1.362 . S
C181 C182 1.376 . S
C182 H146 0.931 . S
C182 C181 1.376 . S
C182 C183 1.396 . S
C183 C165 1.472 . S
C183 C182 1.396 . S
C183 C184 1.348 . S
C184 H147 0.929 . S
C184 C183 1.348 . S
C184 C185 1.443 . S
C185 H149 0.932 . S
C185 C180 1.388 . S
C185 C184 1.443 . S
H186 C213 0.929 . S
N187 C212 1.433 . S
N187 C218 1.435 . S
N187 C224 1.423 . S
H188 C214 0.930 . S
H189 C217 0.931 . S
H190 C216 0.929 . S
H191 C219 0.930 . S
H192 C220 0.932 . S
H193 C223 0.929 . S
H194 C222 0.931 . S
H195 C225 0.929 . S
H196 C229 0.932 . S
H197 C226 0.931 . S
H198 C228 0.929 . S
H199 C231 0.929 . S
H200 C232 0.930 . S
H201 C234 0.929 . S
H202 C235 0.931 . S
H203 C237 0.930 . S
H204 C238 0.932 . S
H205 C240 0.931 . S
H206 C241 0.929 . S
H207 C243 0.929 . S
H208 C244 0.931 . S
H209 C246 0.929 . S
N210 C230 1.433 . S
N210 C236 1.435 . S
N210 C242 1.423 . S
H211 C247 0.932 . S
C212 N187 1.433 . S
C212 C213 1.363 . S
C212 C217 1.370 . S
C213 H186 0.929 . S
C213 C212 1.363 . S
C213 C214 1.385 . S
C214 H188 0.930 . S
C214 C213 1.385 . S
C214 C215 1.357 . S
C215 C214 1.357 . S
C215 C216 1.406 . S
C216 H190 0.929 . S
C216 C215 1.406 . S
C216 C217 1.391 . S
C217 H189 0.931 . S
C217 C212 1.370 . S
C217 C216 1.391 . S
C218 N187 1.435 . S
C218 C219 1.358 . S
C218 C223 1.371 . S
C219 H191 0.930 . S
C219 C218 1.358 . S
C219 C220 1.405 . S
C220 H192 0.932 . S
C220 C219 1.405 . S
C220 C221 1.383 . S
C221 C220 1.383 . S
C221 C222 1.393 . S
C222 H194 0.931 . S
C222 C221 1.393 . S
C222 C223 1.382 . S
C223 H193 0.929 . S
C223 C218 1.371 . S
C223 C222 1.382 . S
C224 N187 1.423 . S
C224 C225 1.362 . S
C224 C229 1.388 . S
C225 H195 0.929 . S
C225 C224 1.362 . S
C225 C226 1.376 . S
C226 H197 0.931 . S
C226 C225 1.376 . S
C226 C227 1.396 . S
C227 C226 1.396 . S
C227 C228 1.348 . S
C227 C245 1.472 . S
C228 H198 0.929 . S
C228 C227 1.348 . S
C228 C229 1.443 . S
C229 H196 0.932 . S
C229 C224 1.388 . S
C229 C228 1.443 . S
C230 N210 1.433 . S
C230 C231 1.363 . S
C230 C235 1.370 . S
C231 H199 0.929 . S
C231 C230 1.363 . S
C231 C232 1.385 . S
C232 H200 0.930 . S
C232 C231 1.385 . S
C232 C233 1.357 . S
C233 C232 1.357 . S
C233 C234 1.406 . S
C234 H201 0.929 . S
C234 C233 1.406 . S
C234 C235 1.391 . S
C235 H202 0.931 . S
C235 C230 1.370 . S
C235 C234 1.391 . S
C236 N210 1.435 . S
C236 C237 1.358 . S
C236 C241 1.371 . S
C237 H203 0.930 . S
C237 C236 1.358 . S
C237 C238 1.405 . S
C238 H204 0.932 . S
C238 C237 1.405 . S
C238 C239 1.383 . S
C239 C238 1.383 . S
C239 C240 1.393 . S
C240 H205 0.931 . S
C240 C239 1.393 . S
C240 C241 1.382 . S
C241 H206 0.929 . S
C241 C236 1.371 . S
C241 C240 1.382 . S
C242 N210 1.423 . S
C242 C243 1.362 . S
C242 C247 1.388 . S
C243 H207 0.929 . S
C243 C242 1.362 . S
C243 C244 1.376 . S
C244 H208 0.931 . S
C244 C243 1.376 . S
C244 C245 1.396 . S
C245 C227 1.472 . S
C245 C244 1.396 . S
C245 C246 1.348 . S
C246 H209 0.929 . S
C246 C245 1.348 . S
C246 C247 1.443 . S
C247 H211 0.932 . S
C247 C242 1.388 . S
C247 C246 1.443 . S
H248 C275 0.929 . S
N249 C274 1.433 . S
N249 C280 1.435 . S
N249 C286 1.423 . S
H250 C276 0.930 . S
H251 C279 0.931 . S
H252 C278 0.929 . S
H253 C281 0.930 . S
H254 C282 0.932 . S
H255 C285 0.929 . S
H256 C284 0.931 . S
H257 C287 0.929 . S
H258 C291 0.932 . S
H259 C288 0.931 . S
H260 C290 0.929 . S
H261 C293 0.929 . S
H262 C294 0.930 . S
H263 C296 0.929 . S
H264 C297 0.931 . S
H265 C299 0.930 . S
H266 C300 0.932 . S
H267 C302 0.931 . S
H268 C303 0.929 . S
H269 C305 0.929 . S
H270 C306 0.931 . S
H271 C308 0.929 . S
N272 C292 1.433 . S
N272 C298 1.435 . S
N272 C304 1.423 . S
H273 C309 0.932 . S
C274 N249 1.433 . S
C274 C275 1.363 . S
C274 C279 1.370 . S
C275 H248 0.929 . S
C275 C274 1.363 . S
C275 C276 1.385 . S
C276 H250 0.930 . S
C276 C275 1.385 . S
C276 C277 1.357 . S
C277 C276 1.357 . S
C277 C278 1.406 . S
C278 H252 0.929 . S
C278 C277 1.406 . S
C278 C279 1.391 . S
C279 H251 0.931 . S
C279 C274 1.370 . S
C279 C278 1.391 . S
C280 N249 1.435 . S
C280 C281 1.358 . S
C280 C285 1.371 . S
C281 H253 0.930 . S
C281 C280 1.358 . S
C281 C282 1.405 . S
C282 H254 0.932 . S
C282 C281 1.405 . S
C282 C283 1.383 . S
C283 C282 1.383 . S
C283 C284 1.393 . S
C284 H256 0.931 . S
C284 C283 1.393 . S
C284 C285 1.382 . S
C285 H255 0.929 . S
C285 C280 1.371 . S
C285 C284 1.382 . S
C286 N249 1.423 . S
C286 C287 1.362 . S
C286 C291 1.388 . S
C287 H257 0.929 . S
C287 C286 1.362 . S
C287 C288 1.376 . S
C288 H259 0.931 . S
C288 C287 1.376 . S
C288 C289 1.396 . S
C289 C288 1.396 . S
C289 C290 1.348 . S
C289 C307 1.472 . S
C290 H260 0.929 . S
C290 C289 1.348 . S
C290 C291 1.443 . S
C291 H258 0.932 . S
C291 C286 1.388 . S
C291 C290 1.443 . S
C292 N272 1.433 . S
C292 C293 1.363 . S
C292 C297 1.370 . S
C293 H261 0.929 . S
C293 C292 1.363 . S
C293 C294 1.385 . S
C294 H262 0.930 . S
C294 C293 1.385 . S
C294 C295 1.357 . S
C295 C294 1.357 . S
C295 C296 1.406 . S
C296 H263 0.929 . S
C296 C295 1.406 . S
C296 C297 1.391 . S
C297 H264 0.931 . S
C297 C292 1.370 . S
C297 C296 1.391 . S
C298 N272 1.435 . S
C298 C299 1.358 . S
C298 C303 1.371 . S
C299 H265 0.930 . S
C299 C298 1.358 . S
C299 C300 1.405 . S
C300 H266 0.932 . S
C300 C299 1.405 . S
C300 C301 1.383 . S
C301 C300 1.383 . S
C301 C302 1.393 . S
C302 H267 0.931 . S
C302 C301 1.393 . S
C302 C303 1.382 . S
C303 H268 0.929 . S
C303 C298 1.371 . S
C303 C302 1.382 . S
C304 N272 1.423 . S
C304 C305 1.362 . S
C304 C309 1.388 . S
C305 H269 0.929 . S
C305 C304 1.362 . S
C305 C306 1.376 . S
C306 H270 0.931 . S
C306 C305 1.376 . S
C306 C307 1.396 . S
C307 C289 1.472 . S
C307 C306 1.396 . S
C307 C308 1.348 . S
C308 H271 0.929 . S
C308 C307 1.348 . S
C308 C309 1.443 . S
C309 H273 0.932 . S
C309 C304 1.388 . S
C309 C308 1.443 . S
H310 C337 0.929 . S
N311 C336 1.433 . S
N311 C342 1.435 . S
N311 C348 1.423 . S
H312 C338 0.930 . S
H313 C341 0.931 . S
H314 C340 0.929 . S
H315 C343 0.930 . S
H316 C344 0.932 . S
H317 C347 0.929 . S
H318 C346 0.931 . S
H319 C349 0.929 . S
H320 C353 0.932 . S
H321 C350 0.931 . S
H322 C352 0.929 . S
H323 C355 0.929 . S
H324 C356 0.930 . S
H325 C358 0.929 . S
H326 C359 0.931 . S
H327 C361 0.930 . S
H328 C362 0.932 . S
H329 C364 0.931 . S
H330 C365 0.929 . S
H331 C367 0.929 . S
H332 C368 0.931 . S
H333 C370 0.929 . S
N334 C354 1.433 . S
N334 C360 1.435 . S
N334 C366 1.423 . S
H335 C371 0.932 . S
C336 N311 1.433 . S
C336 C337 1.363 . S
C336 C341 1.370 . S
C337 H310 0.929 . S
C337 C336 1.363 . S
C337 C338 1.385 . S
C338 H312 0.930 . S
C338 C337 1.385 . S
C338 C339 1.357 . S
C339 C338 1.357 . S
C339 C340 1.406 . S
C340 H314 0.929 . S
C340 C339 1.406 . S
C340 C341 1.391 . S
C341 H313 0.931 . S
C341 C336 1.370 . S
C341 C340 1.391 . S
C342 N311 1.435 . S
C342 C343 1.358 . S
C342 C347 1.371 . S
C343 H315 0.930 . S
C343 C342 1.358 . S
C343 C344 1.405 . S
C344 H316 0.932 . S
C344 C343 1.405 . S
C344 C345 1.383 . S
C345 C344 1.383 . S
C345 C346 1.393 . S
C346 H318 0.931 . S
C346 C345 1.393 . S
C346 C347 1.382 . S
C347 H317 0.929 . S
C347 C342 1.371 . S
C347 C346 1.382 . S
C348 N311 1.423 . S
C348 C349 1.362 . S
C348 C353 1.388 . S
C349 H319 0.929 . S
C349 C348 1.362 . S
C349 C350 1.376 . S
C350 H321 0.931 . S
C350 C349 1.376 . S
C350 C351 1.396 . S
C351 C350 1.396 . S
C351 C352 1.348 . S
C351 C369 1.472 . S
C352 H322 0.929 . S
C352 C351 1.348 . S
C352 C353 1.443 . S
C353 H320 0.932 . S
C353 C348 1.388 . S
C353 C352 1.443 . S
C354 N334 1.433 . S
C354 C355 1.363 . S
C354 C359 1.370 . S
C355 H323 0.929 . S
C355 C354 1.363 . S
C355 C356 1.385 . S
C356 H324 0.930 . S
C356 C355 1.385 . S
C356 C357 1.357 . S
C357 C356 1.357 . S
C357 C358 1.406 . S
C358 H325 0.929 . S
C358 C357 1.406 . S
C358 C359 1.391 . S
C359 H326 0.931 . S
C359 C354 1.370 . S
C359 C358 1.391 . S
C360 N334 1.435 . S
C360 C361 1.358 . S
C360 C365 1.371 . S
C361 H327 0.930 . S
C361 C360 1.358 . S
C361 C362 1.405 . S
C362 H328 0.932 . S
C362 C361 1.405 . S
C362 C363 1.383 . S
C363 C362 1.383 . S
C363 C364 1.393 . S
C364 H329 0.931 . S
C364 C363 1.393 . S
C364 C365 1.382 . S
C365 H330 0.929 . S
C365 C360 1.371 . S
C365 C364 1.382 . S
C366 N334 1.423 . S
C366 C367 1.362 . S
C366 C371 1.388 . S
C367 H331 0.929 . S
C367 C366 1.362 . S
C367 C368 1.376 . S
C368 H332 0.931 . S
C368 C367 1.376 . S
C368 C369 1.396 . S
C369 C351 1.472 . S
C369 C368 1.396 . S
C369 C370 1.348 . S
C370 H333 0.929 . S
C370 C369 1.348 . S
C370 C371 1.443 . S
C371 H335 0.932 . S
C371 C366 1.388 . S
C371 C370 1.443 . S
H372 C399 0.929 . S
N373 C398 1.433 . S
N373 C404 1.435 . S
N373 C410 1.423 . S
H374 C400 0.930 . S
H375 C403 0.931 . S
H376 C402 0.929 . S
H377 C405 0.930 . S
H378 C406 0.932 . S
H379 C409 0.929 . S
H380 C408 0.931 . S
H381 C411 0.929 . S
H382 C415 0.932 . S
H383 C412 0.931 . S
H384 C414 0.929 . S
H385 C417 0.929 . S
H386 C418 0.930 . S
H387 C420 0.929 . S
H388 C421 0.931 . S
H389 C423 0.930 . S
H390 C424 0.932 . S
H391 C426 0.931 . S
H392 C427 0.929 . S
H393 C429 0.929 . S
H394 C430 0.931 . S
H395 C432 0.929 . S
N396 C416 1.433 . S
N396 C422 1.435 . S
N396 C428 1.423 . S
H397 C433 0.932 . S
C398 N373 1.433 . S
C398 C399 1.363 . S
C398 C403 1.370 . S
C399 H372 0.929 . S
C399 C398 1.363 . S
C399 C400 1.385 . S
C400 H374 0.930 . S
C400 C399 1.385 . S
C400 C401 1.357 . S
C401 C400 1.357 . S
C401 C402 1.406 . S
C402 H376 0.929 . S
C402 C401 1.406 . S
C402 C403 1.391 . S
C403 H375 0.931 . S
C403 C398 1.370 . S
C403 C402 1.391 . S
C404 N373 1.435 . S
C404 C405 1.358 . S
C404 C409 1.371 . S
C405 H377 0.930 . S
C405 C404 1.358 . S
C405 C406 1.405 . S
C406 H378 0.932 . S
C406 C405 1.405 . S
C406 C407 1.383 . S
C407 C406 1.383 . S
C407 C408 1.393 . S
C408 H380 0.931 . S
C408 C407 1.393 . S
C408 C409 1.382 . S
C409 H379 0.929 . S
C409 C404 1.371 . S
C409 C408 1.382 . S
C410 N373 1.423 . S
C410 C411 1.362 . S
C410 C415 1.388 . S
C411 H381 0.929 . S
C411 C410 1.362 . S
C411 C412 1.376 . S
C412 H383 0.931 . S
C412 C411 1.376 . S
C412 C413 1.396 . S
C413 C412 1.396 . S
C413 C414 1.348 . S
C413 C431 1.472 . S
C414 H384 0.929 . S
C414 C413 1.348 . S
C414 C415 1.443 . S
C415 H382 0.932 . S
C415 C410 1.388 . S
C415 C414 1.443 . S
C416 N396 1.433 . S
C416 C417 1.363 . S
C416 C421 1.370 . S
C417 H385 0.929 . S
C417 C416 1.363 . S
C417 C418 1.385 . S
C418 H386 0.930 . S
C418 C417 1.385 . S
C418 C419 1.357 . S
C419 C418 1.357 . S
C419 C420 1.406 . S
C420 H387 0.929 . S
C420 C419 1.406 . S
C420 C421 1.391 . S
C421 H388 0.931 . S
C421 C416 1.370 . S
C421 C420 1.391 . S
C422 N396 1.435 . S
C422 C423 1.358 . S
C422 C427 1.371 . S
C423 H389 0.930 . S
C423 C422 1.358 . S
C423 C424 1.405 . S
C424 H390 0.932 . S
C424 C423 1.405 . S
C424 C425 1.383 . S
C425 C424 1.383 . S
C425 C426 1.393 . S
C426 H391 0.931 . S
C426 C425 1.393 . S
C426 C427 1.382 . S
C427 H392 0.929 . S
C427 C422 1.371 . S
C427 C426 1.382 . S
C428 N396 1.423 . S
C428 C429 1.362 . S
C428 C433 1.388 . S
C429 H393 0.929 . S
C429 C428 1.362 . S
C429 C430 1.376 . S
C430 H394 0.931 . S
C430 C429 1.376 . S
C430 C431 1.396 . S
C431 C413 1.472 . S
C431 C430 1.396 . S
C431 C432 1.348 . S
C432 H395 0.929 . S
C432 C431 1.348 . S
C432 C433 1.443 . S
C433 H397 0.932 . S
C433 C428 1.388 . S
C433 C432 1.443 . S
H434 C461 0.929 . S
N435 C460 1.433 . S
N435 C466 1.435 . S
N435 C472 1.423 . S
H436 C462 0.930 . S
H437 C465 0.931 . S
H438 C464 0.929 . S
H439 C467 0.930 . S
H440 C468 0.932 . S
H441 C471 0.929 . S
H442 C470 0.931 . S
H443 C473 0.929 . S
H444 C477 0.932 . S
H445 C474 0.931 . S
H446 C476 0.929 . S
H447 C479 0.929 . S
H448 C480 0.930 . S
H449 C482 0.929 . S
H450 C483 0.931 . S
H451 C485 0.930 . S
H452 C486 0.932 . S
H453 C488 0.931 . S
H454 C489 0.929 . S
H455 C491 0.929 . S
H456 C492 0.931 . S
H457 C494 0.929 . S
N458 C478 1.433 . S
N458 C484 1.435 . S
N458 C490 1.423 . S
H459 C495 0.932 . S
C460 N435 1.433 . S
C460 C461 1.363 . S
C460 C465 1.370 . S
C461 H434 0.929 . S
C461 C460 1.363 . S
C461 C462 1.385 . S
C462 H436 0.930 . S
C462 C461 1.385 . S
C462 C463 1.357 . S
C463 C462 1.357 . S
C463 C464 1.406 . S
C464 H438 0.929 . S
C464 C463 1.406 . S
C464 C465 1.391 . S
C465 H437 0.931 . S
C465 C460 1.370 . S
C465 C464 1.391 . S
C466 N435 1.435 . S
C466 C467 1.358 . S
C466 C471 1.371 . S
C467 H439 0.930 . S
C467 C466 1.358 . S
C467 C468 1.405 . S
C468 H440 0.932 . S
C468 C467 1.405 . S
C468 C469 1.383 . S
C469 C468 1.383 . S
C469 C470 1.393 . S
C470 H442 0.931 . S
C470 C469 1.393 . S
C470 C471 1.382 . S
C471 H441 0.929 . S
C471 C466 1.371 . S
C471 C470 1.382 . S
C472 N435 1.423 . S
C472 C473 1.362 . S
C472 C477 1.388 . S
C473 H443 0.929 . S
C473 C472 1.362 . S
C473 C474 1.376 . S
C474 H445 0.931 . S
C474 C473 1.376 . S
C474 C475 1.396 . S
C475 C474 1.396 . S
C475 C476 1.348 . S
C475 C493 1.472 . S
C476 H446 0.929 . S
C476 C475 1.348 . S
C476 C477 1.443 . S
C477 H444 0.932 . S
C477 C472 1.388 . S
C477 C476 1.443 . S
C478 N458 1.433 . S
C478 C479 1.363 . S
C478 C483 1.370 . S
C479 H447 0.929 . S
C479 C478 1.363 . S
C479 C480 1.385 . S
C480 H448 0.930 . S
C480 C479 1.385 . S
C480 C481 1.357 . S
C481 C480 1.357 . S
C481 C482 1.406 . S
C482 H449 0.929 . S
C482 C481 1.406 . S
C482 C483 1.391 . S
C483 H450 0.931 . S
C483 C478 1.370 . S
C483 C482 1.391 . S
C484 N458 1.435 . S
C484 C485 1.358 . S
C484 C489 1.371 . S
C485 H451 0.930 . S
C485 C484 1.358 . S
C485 C486 1.405 . S
C486 H452 0.932 . S
C486 C485 1.405 . S
C486 C487 1.383 . S
C487 C486 1.383 . S
C487 C488 1.393 . S
C488 H453 0.931 . S
C488 C487 1.393 . S
C488 C489 1.382 . S
C489 H454 0.929 . S
C489 C484 1.371 . S
C489 C488 1.382 . S
C490 N458 1.423 . S
C490 C491 1.362 . S
C490 C495 1.388 . S
C491 H455 0.929 . S
C491 C490 1.362 . S
C491 C492 1.376 . S
C492 H456 0.931 . S
C492 C491 1.376 . S
C492 C493 1.396 . S
C493 C475 1.472 . S
C493 C492 1.396 . S
C493 C494 1.348 . S
C494 H457 0.929 . S
C494 C493 1.348 . S
C494 C495 1.443 . S
C495 H459 0.932 . S
C495 C490 1.388 . S
C495 C494 1.443 . S
C496 C497 1.443 . S
C496 N500 1.376 . S
C496 C534 1.389 . S
C497 C496 1.443 . S
C497 C498 1.340 . S
C497 H537 0.951 . S
C498 C497 1.340 . S
C498 C499 1.439 . S
C498 H538 0.950 . S
C499 C498 1.439 . S
C499 N500 1.374 . S
C499 C533 1.395 . S
N500 C496 1.376 . S
N500 C499 1.374 . S
N500 Co501 2.008 . S
Co501 N500 2.008 . S
Co501 N502 1.995 1_455 S
Co501 N507 2.008 1_455 S
Co501 N512 1.995 . S
Co501 N517 2.282 1_455 S
Co501 N523 2.282 . S
N502 Co501 1.995 1_655 S
N502 C503 1.376 1_655 S
N502 C506 1.383 . S
C503 N502 1.376 1_455 S
C503 C504 1.446 1_455 S
C503 C533 1.391 . S
C504 C503 1.446 1_655 S
C504 C505 1.339 . S
C504 H539 0.949 . S
C505 C504 1.339 . S
C505 C506 1.439 . S
C505 H540 0.950 . S
C506 N502 1.383 . S
C506 C505 1.439 . S
C506 C535 1.392 . S
N507 Co501 2.008 1_655 S
N507 C508 1.376 . S
N507 C511 1.374 . S
C508 N507 1.376 . S
C508 C509 1.443 . S
C508 C535 1.389 . S
C509 C508 1.443 . S
C509 C510 1.340 . S
C509 H541 0.951 . S
C510 C509 1.340 . S
C510 C511 1.439 . S
C510 H542 0.950 . S
C511 N507 1.374 . S
C511 C510 1.439 . S
C511 C536 1.395 1_655 S
N512 Co501 1.995 . S
N512 C513 1.376 . S
N512 C516 1.383 . S
C513 N512 1.376 . S
C513 C514 1.446 . S
C513 C536 1.391 . S
C514 C513 1.446 . S
C514 C515 1.339 . S
C514 H543 0.949 . S
C515 C514 1.339 . S
C515 C516 1.439 . S
C515 H544 0.950 . S
C516 N512 1.383 . S
C516 C515 1.439 . S
C516 C534 1.392 . S
N517 Co501 2.282 1_655 S
N517 C520 1.332 . S
N517 C522 1.332 . S
C518 C519 1.386 . S
C518 C521 1.388 . S
C519 C518 1.386 . S
C519 C520 1.382 . S
C519 H545 0.950 . S
C520 N517 1.332 . S
C520 C519 1.382 . S
C520 H531 0.952 . S
C521 C518 1.388 . S
C521 C522 1.382 . S
C521 H546 0.950 . S
C522 N517 1.332 . S
C522 C521 1.382 . S
C522 H532 0.948 . S
N523 Co501 2.282 . S
N523 C527 1.332 . S
N523 C528 1.332 . S
C524 C525 1.388 . S
C524 C528 1.382 . S
C524 H547 0.950 . S
C525 C524 1.388 . S
C525 C526 1.386 . S
C526 C525 1.386 . S
C526 C527 1.382 . S
C526 H548 0.950 . S
C527 N523 1.332 . S
C527 C526 1.382 . S
C527 H529 0.952 . S
C528 N523 1.332 . S
C528 C524 1.382 . S
C528 H530 0.948 . S
H529 C527 0.952 . S
H530 C528 0.948 . S
H531 C520 0.952 . S
H532 C522 0.948 . S
C533 C499 1.395 . S
C533 C503 1.391 . S
C534 C496 1.389 . S
C534 C516 1.392 . S
C535 C506 1.392 . S
C535 C508 1.389 . S
C536 C511 1.395 1_455 S
C536 C513 1.391 . S
H537 C497 0.951 . S
H538 C498 0.950 . S
H539 C504 0.949 . S
H540 C505 0.950 . S
H541 C509 0.951 . S
H542 C510 0.950 . S
H543 C514 0.949 . S
H544 C515 0.950 . S
H545 C519 0.950 . S
H546 C521 0.950 . S
H547 C524 0.950 . S
H548 C526 0.950 . S
C549 C550 1.443 . S
C549 N553 1.376 . S
C549 C587 1.389 . S
C550 C549 1.443 . S
C550 C551 1.340 . S
C550 H590 0.951 . S
C551 C550 1.340 . S
C551 C552 1.439 . S
C551 H591 0.950 . S
C552 C551 1.439 . S
C552 N553 1.374 . S
C552 C586 1.395 . S
N553 C549 1.376 . S
N553 C552 1.374 . S
N553 Co554 2.008 . S
Co554 N553 2.008 . S
Co554 N555 1.992 . S
Co554 N560 2.008 1_545 S
Co554 N565 1.995 . S
Co554 N570 2.282 1_545 S
Co554 N576 2.282 . S
N555 Co554 1.992 . S
N555 C556 1.375 . S
N555 C559 1.387 1_545 S
C556 N555 1.375 . S
C556 C557 1.446 1_545 S
C556 C586 1.391 . S
C557 C556 1.446 1_565 S
C557 C558 1.339 . S
C557 H592 0.949 . S
C558 C557 1.339 . S
C558 C559 1.439 . S
C558 H593 0.950 . S
C559 N555 1.387 1_565 S
C559 C558 1.439 . S
C559 C588 1.392 . S
N560 Co554 2.008 1_565 S
N560 C561 1.376 . S
N560 C564 1.374 . S
C561 N560 1.376 . S
C561 C562 1.443 . S
C561 C588 1.389 . S
C562 C561 1.443 . S
C562 C563 1.340 . S
C562 H594 0.951 . S
C563 C562 1.340 . S
C563 C564 1.439 . S
C563 H595 0.950 . S
C564 N560 1.374 . S
C564 C563 1.439 . S
C564 C589 1.395 1_565 S
N565 Co554 1.995 . S
N565 C566 1.376 . S
N565 C569 1.383 . S
C566 N565 1.376 . S
C566 C567 1.446 . S
C566 C589 1.391 . S
C567 C566 1.446 . S
C567 C568 1.339 . S
C567 H596 0.949 . S
C568 C567 1.339 . S
C568 C569 1.439 . S
C568 H597 0.950 . S
C569 N565 1.383 . S
C569 C568 1.439 . S
C569 C587 1.392 . S
N570 Co554 2.282 1_565 S
N570 C573 1.332 . S
N570 C575 1.332 . S
C571 C572 1.386 . S
C571 C574 1.388 . S
C572 C571 1.386 . S
C572 C573 1.382 . S
C572 H598 0.950 . S
C573 N570 1.332 . S
C573 C572 1.382 . S
C573 H584 0.952 . S
C574 C571 1.388 . S
C574 C575 1.382 . S
C574 H599 0.950 . S
C575 N570 1.332 . S
C575 C574 1.382 . S
C575 H585 0.948 . S
N576 Co554 2.282 . S
N576 C580 1.332 . S
N576 C581 1.332 . S
C577 C578 1.388 . S
C577 C581 1.382 . S
C577 H600 0.950 . S
C578 C577 1.388 . S
C578 C579 1.386 . S
C579 C578 1.386 . S
C579 C580 1.382 . S
C579 H601 0.950 . S
C580 N576 1.332 . S
C580 C579 1.382 . S
C580 H582 0.952 . S
C581 N576 1.332 . S
C581 C577 1.382 . S
C581 H583 0.948 . S
H582 C580 0.952 . S
H583 C581 0.948 . S
H584 C573 0.952 . S
H585 C575 0.948 . S
C586 C552 1.395 . S
C586 C556 1.391 . S
C587 C549 1.389 . S
C587 C569 1.392 . S
C588 C559 1.392 . S
C588 C561 1.389 . S
C589 C564 1.395 1_545 S
C589 C566 1.391 . S
H590 C550 0.951 . S
H591 C551 0.950 . S
H592 C557 0.949 . S
H593 C558 0.950 . S
H594 C562 0.951 . S
H595 C563 0.950 . S
H596 C567 0.949 . S
H597 C568 0.950 . S
H598 C572 0.950 . S
H599 C574 0.950 . S
H600 C577 0.950 . S
H601 C579 0.950 . S
C602 C603 1.443 . S
C602 N606 1.376 . S
C602 C640 1.389 . S
C603 C602 1.443 . S
C603 C604 1.340 . S
C603 H643 0.951 . S
C604 C603 1.340 . S
C604 C605 1.439 . S
C604 H644 0.950 . S
C605 C604 1.439 . S
C605 N606 1.374 . S
C605 C639 1.395 . S
N606 C602 1.376 . S
N606 C605 1.374 . S
N606 Co607 2.008 . S
Co607 N606 2.008 . S
Co607 N608 1.995 1_455 S
Co607 N613 2.008 1_455 S
Co607 N618 1.995 . S
Co607 N623 2.282 1_455 S
Co607 N629 2.282 . S
N608 Co607 1.995 1_655 S
N608 C609 1.380 . S
N608 C612 1.383 . S
C609 N608 1.380 . S
C609 C610 1.468 . S
C609 C639 1.369 1_655 S
C610 C609 1.468 . S
C610 C611 1.339 . S
C610 H645 0.949 . S
C611 C610 1.339 . S
C611 C612 1.439 . S
C611 H646 0.950 . S
C612 N608 1.383 . S
C612 C611 1.439 . S
C612 C641 1.392 . S
N613 Co607 2.008 1_655 S
N613 C614 1.376 . S
N613 C617 1.374 . S
C614 N613 1.376 . S
C614 C615 1.443 . S
C614 C641 1.389 . S
C615 C614 1.443 . S
C615 C616 1.340 . S
C615 H647 0.951 . S
C616 C615 1.340 . S
C616 C617 1.439 . S
C616 H648 0.950 . S
C617 N613 1.374 . S
C617 C616 1.439 . S
C617 C642 1.395 1_655 S
N618 Co607 1.995 . S
N618 C619 1.376 . S
N618 C622 1.383 . S
C619 N618 1.376 . S
C619 C620 1.446 . S
C619 C642 1.391 . S
C620 C619 1.446 . S
C620 C621 1.339 . S
C620 H649 0.949 . S
C621 C620 1.339 . S
C621 C622 1.439 . S
C621 H650 0.950 . S
C622 N618 1.383 . S
C622 C621 1.439 . S
C622 C640 1.392 . S
N623 Co607 2.282 1_655 S
N623 C626 1.332 . S
N623 C628 1.332 . S
C624 C625 1.386 . S
C624 C627 1.388 . S
C625 C624 1.386 . S
C625 C626 1.382 . S
C625 H651 0.950 . S
C626 N623 1.332 . S
C626 C625 1.382 . S
C626 H637 0.952 . S
C627 C624 1.388 . S
C627 C628 1.382 . S
C627 H652 0.950 . S
C628 N623 1.332 . S
C628 C627 1.382 . S
C628 H638 0.948 . S
N629 Co607 2.282 . S
N629 C633 1.332 . S
N629 C634 1.332 . S
C630 C631 1.388 . S
C630 C634 1.382 . S
C630 H653 0.950 . S
C631 C630 1.388 . S
C631 C632 1.386 . S
C632 C631 1.386 . S
C632 C633 1.382 . S
C632 H654 0.950 . S
C633 N629 1.332 . S
C633 C632 1.382 . S
C633 H635 0.952 . S
C634 N629 1.332 . S
C634 C630 1.382 . S
C634 H636 0.948 . S
H635 C633 0.952 . S
H636 C634 0.948 . S
H637 C626 0.952 . S
H638 C628 0.948 . S
C639 C605 1.395 . S
C639 C609 1.369 1_455 S
C640 C602 1.389 . S
C640 C622 1.392 . S
C641 C612 1.392 . S
C641 C614 1.389 . S
C642 C617 1.395 1_455 S
C642 C619 1.391 . S
H643 C603 0.951 . S
H644 C604 0.950 . S
H645 C610 0.949 . S
H646 C611 0.950 . S
H647 C615 0.951 . S
H648 C616 0.950 . S
H649 C620 0.949 . S
H650 C621 0.950 . S
H651 C625 0.950 . S
H652 C627 0.950 . S
H653 C630 0.950 . S
H654 C632 0.950 . S
C655 C656 1.443 . S
C655 N659 1.376 . S
C655 C693 1.389 . S
C656 C655 1.443 . S
C656 C657 1.340 . S
C656 H696 0.951 . S
C657 C656 1.340 . S
C657 C658 1.463 . S
C657 H697 0.950 . S
C658 C657 1.463 . S
C658 N659 1.375 . S
C658 C692 1.375 1_565 S
N659 C655 1.376 . S
N659 C658 1.375 . S
N659 Co660 2.008 1_565 S
Co660 N659 2.008 1_545 S
Co660 N661 1.995 . S
Co660 N666 2.008 . S
Co660 N671 2.014 . S
Co660 N676 2.282 . S
Co660 N682 2.282 1_545 S
N661 Co660 1.995 . S
N661 C662 1.376 . S
N661 C665 1.383 . S
C662 N661 1.376 . S
C662 C663 1.446 . S
C662 C692 1.391 . S
C663 C662 1.446 . S
C663 C664 1.339 . S
C663 H698 0.949 . S
C664 C663 1.339 . S
C664 C665 1.439 . S
C664 H699 0.950 . S
C665 N661 1.383 . S
C665 C664 1.439 . S
C665 C694 1.392 . S
N666 Co660 2.008 . S
N666 C667 1.376 . S
N666 C670 1.374 . S
C667 N666 1.376 . S
C667 C668 1.443 . S
C667 C694 1.389 . S
C668 C667 1.443 . S
C668 C669 1.340 . S
C668 H700 0.951 . S
C669 C668 1.340 . S
C669 C670 1.439 . S
C669 H701 0.950 . S
C670 N666 1.374 . S
C670 C669 1.439 . S
C670 C695 1.395 . S
N671 Co660 2.014 . S
N671 C672 1.382 . S
N671 C675 1.352 1_545 S
C672 N671 1.382 . S
C672 C673 1.446 1_545 S
C672 C695 1.391 . S
C673 C672 1.446 1_565 S
C673 C674 1.339 . S
C673 H702 0.949 . S
C674 C673 1.339 . S
C674 C675 1.439 . S
C674 H703 0.950 . S
C675 N671 1.352 1_565 S
C675 C674 1.439 . S
C675 C693 1.392 . S
N676 Co660 2.282 . S
N676 C679 1.332 . S
N676 C681 1.332 . S
C677 C678 1.386 . S
C677 C680 1.388 . S
C678 C677 1.386 . S
C678 C679 1.382 . S
C678 H704 0.950 . S
C679 N676 1.332 . S
C679 C678 1.382 . S
C679 H690 0.952 . S
C680 C677 1.388 . S
C680 C681 1.382 . S
C680 H705 0.950 . S
C681 N676 1.332 . S
C681 C680 1.382 . S
C681 H691 0.948 . S
N682 Co660 2.282 1_565 S
N682 C686 1.332 . S
N682 C687 1.332 . S
C683 C684 1.388 . S
C683 C687 1.382 . S
C683 H706 0.950 . S
C684 C683 1.388 . S
C684 C685 1.386 . S
C685 C684 1.386 . S
C685 C686 1.382 . S
C685 H707 0.950 . S
C686 N682 1.332 . S
C686 C685 1.382 . S
C686 H688 0.952 . S
C687 N682 1.332 . S
C687 C683 1.382 . S
C687 H689 0.948 . S
H688 C686 0.952 . S
H689 C687 0.948 . S
H690 C679 0.952 . S
H691 C681 0.948 . S
C692 C658 1.375 1_545 S
C692 C662 1.391 . S
C693 C655 1.389 . S
C693 C675 1.392 . S
C694 C665 1.392 . S
C694 C667 1.389 . S
C695 C670 1.395 . S
C695 C672 1.391 . S
H696 C656 0.951 . S
H697 C657 0.950 . S
H698 C663 0.949 . S
H699 C664 0.950 . S
H700 C668 0.951 . S
H701 C669 0.950 . S
H702 C673 0.949 . S
H703 C674 0.950 . S
H704 C678 0.950 . S
H705 C680 0.950 . S
H706 C683 0.950 . S
H707 C685 0.950 . S
C708 C709 1.443 . S
C708 N712 1.376 . S
C708 C746 1.389 . S
C709 C708 1.443 . S
C709 C710 1.340 . S
C709 H749 0.951 . S
C710 C709 1.340 . S
C710 C711 1.439 . S
C710 H750 0.950 . S
C711 C710 1.439 . S
C711 N712 1.374 . S
C711 C745 1.395 1_554 S
N712 C708 1.376 . S
N712 C711 1.374 . S
N712 Co713 2.010 . S
Co713 N712 2.010 . S
Co713 N714 1.993 1_554 S
Co713 N719 2.006 1_554 S
Co713 N724 1.997 . S
Co713 N729 2.285 . S
Co713 N735 2.279 1_554 S
N714 Co713 1.993 1_556 S
N714 C715 1.376 . S
N714 C718 1.383 . S
C715 N714 1.376 . S
C715 C716 1.446 . S
C715 C745 1.391 . S
C716 C715 1.446 . S
C716 C717 1.339 . S
C716 H751 0.949 . S
C717 C716 1.339 . S
C717 C718 1.439 . S
C717 H752 0.950 . S
C718 N714 1.383 . S
C718 C717 1.439 . S
C718 C747 1.392 . S
N719 Co713 2.006 1_556 S
N719 C720 1.376 . S
N719 C723 1.374 . S
C720 N719 1.376 . S
C720 C721 1.443 . S
C720 C747 1.389 . S
C721 C720 1.443 . S
C721 C722 1.340 . S
C721 H753 0.951 . S
C722 C721 1.340 . S
C722 C723 1.439 . S
C722 H754 0.950 . S
C723 N719 1.374 . S
C723 C722 1.439 . S
C723 C748 1.395 1_556 S
N724 Co713 1.997 . S
N724 C725 1.376 . S
N724 C728 1.383 . S
C725 N724 1.376 . S
C725 C726 1.446 . S
C725 C748 1.391 . S
C726 C725 1.446 . S
C726 C727 1.339 . S
C726 H755 0.949 . S
C727 C726 1.339 . S
C727 C728 1.439 . S
C727 H756 0.950 . S
C728 N724 1.383 . S
C728 C727 1.439 . S
C728 C746 1.392 . S
N729 Co713 2.285 . S
N729 C732 1.332 . S
N729 C734 1.332 . S
C730 C731 1.386 . S
C730 C733 1.388 . S
C731 C730 1.386 . S
C731 C732 1.382 . S
C731 H757 0.950 . S
C732 N729 1.332 . S
C732 C731 1.382 . S
C732 H743 0.952 . S
C733 C730 1.388 . S
C733 C734 1.382 . S
C733 H758 0.950 . S
C734 N729 1.332 . S
C734 C733 1.382 . S
C734 H744 0.948 . S
N735 Co713 2.279 1_556 S
N735 C739 1.332 . S
N735 C740 1.332 . S
C736 C737 1.388 . S
C736 C740 1.382 . S
C736 H759 0.950 . S
C737 C736 1.388 . S
C737 C738 1.386 . S
C738 C737 1.386 . S
C738 C739 1.382 . S
C738 H760 0.950 . S
C739 N735 1.332 . S
C739 C738 1.382 . S
C739 H741 0.952 . S
C740 N735 1.332 . S
C740 C736 1.382 . S
C740 H742 0.948 . S
H741 C739 0.952 . S
H742 C740 0.948 . S
H743 C732 0.952 . S
H744 C734 0.948 . S
C745 C711 1.395 1_556 S
C745 C715 1.391 . S
C746 C708 1.389 . S
C746 C728 1.392 . S
C747 C718 1.392 . S
C747 C720 1.389 . S
C748 C723 1.395 1_554 S
C748 C725 1.391 . S
H749 C709 0.951 . S
H750 C710 0.950 . S
H751 C716 0.949 . S
H752 C717 0.950 . S
H753 C721 0.951 . S
H754 C722 0.950 . S
H755 C726 0.949 . S
H756 C727 0.950 . S
H757 C731 0.950 . S
H758 C733 0.950 . S
H759 C736 0.950 . S
H760 C738 0.950 . S
C761 C762 1.443 . S
C761 N765 1.376 . S
C761 C799 1.389 . S
C762 C761 1.443 . S
C762 C763 1.340 . S
C762 H802 0.951 . S
C763 C762 1.340 . S
C763 C764 1.439 . S
C763 H803 0.950 . S
C764 C763 1.439 . S
C764 N765 1.374 . S
C764 C798 1.395 . S
N765 C761 1.376 . S
N765 C764 1.374 . S
N765 Co766 2.008 . S
Co766 N765 2.008 . S
Co766 N767 1.995 . S
Co766 N772 2.008 . S
Co766 N777 1.995 . S
Co766 N782 2.282 . S
Co766 N788 2.282 . S
N767 Co766 1.995 . S
N767 C768 1.376 . S
N767 C771 1.383 1_554 S
C768 N767 1.376 . S
C768 C769 1.446 1_554 S
C768 C798 1.391 . S
C769 C768 1.446 1_556 S
C769 C770 1.339 . S
C769 H804 0.949 . S
C770 C769 1.339 . S
C770 C771 1.439 . S
C770 H805 0.950 . S
C771 N767 1.383 1_556 S
C771 C770 1.439 . S
C771 C800 1.392 . S
N772 Co766 2.008 . S
N772 C773 1.376 . S
N772 C776 1.374 . S
C773 N772 1.376 . S
C773 C774 1.443 . S
C773 C800 1.389 1_554 S
C774 C773 1.443 . S
C774 C775 1.340 . S
C774 H806 0.951 1_554 S
C775 C774 1.340 . S
C775 C776 1.439 . S
C775 H807 0.950 . S
C776 N772 1.374 . S
C776 C775 1.439 . S
C776 C801 1.395 . S
N777 Co766 1.995 . S
N777 C778 1.376 . S
N777 C781 1.383 . S
C778 N777 1.376 . S
C778 C779 1.446 . S
C778 C801 1.391 . S
C779 C778 1.446 . S
C779 C780 1.339 . S
C779 H808 0.949 . S
C780 C779 1.339 . S
C780 C781 1.439 . S
C780 H809 0.950 . S
C781 N777 1.383 . S
C781 C780 1.439 . S
C781 C799 1.392 . S
N782 Co766 2.282 . S
N782 C785 1.332 . S
N782 C787 1.332 . S
C783 C784 1.386 . S
C783 C786 1.388 . S
C784 C783 1.386 . S
C784 C785 1.382 . S
C784 H810 0.950 . S
C785 N782 1.332 . S
C785 C784 1.382 . S
C785 H796 0.952 . S
C786 C783 1.388 . S
C786 C787 1.382 . S
C786 H811 0.950 . S
C787 N782 1.332 . S
C787 C786 1.382 . S
C787 H797 0.948 . S
N788 Co766 2.282 . S
N788 C792 1.332 1_554 S
N788 C793 1.332 . S
C789 C790 1.388 . S
C789 C793 1.382 1_556 S
C789 H812 0.950 . S
C790 C789 1.388 . S
C790 C791 1.386 . S
C791 C790 1.386 . S
C791 C792 1.382 . S
C791 H813 0.950 . S
C792 N788 1.332 1_556 S
C792 C791 1.382 . S
C792 H794 0.952 . S
C793 N788 1.332 . S
C793 C789 1.382 1_554 S
C793 H795 0.948 . S
H794 C792 0.952 . S
H795 C793 0.948 . S
H796 C785 0.952 . S
H797 C787 0.948 . S
C798 C764 1.395 . S
C798 C768 1.391 . S
C799 C761 1.389 . S
C799 C781 1.392 . S
C800 C771 1.392 . S
C800 C773 1.389 1_556 S
C801 C776 1.395 . S
C801 C778 1.391 . S
H802 C762 0.951 . S
H803 C763 0.950 . S
H804 C769 0.949 . S
H805 C770 0.950 . S
H806 C774 0.951 1_556 S
H807 C775 0.950 . S
H808 C779 0.949 . S
H809 C780 0.950 . S
H810 C784 0.950 . S
H811 C786 0.950 . S
H812 C789 0.950 . S
H813 C791 0.950 . S
C814 C815 1.443 . S
C814 N818 1.376 1_556 S
C814 C852 1.389 . S
C815 C814 1.443 . S
C815 C816 1.340 1_556 S
C815 H855 0.951 . S
C816 C815 1.340 1_554 S
C816 C817 1.439 . S
C816 H856 0.950 . S
C817 C816 1.439 . S
C817 N818 1.374 . S
C817 C851 1.395 . S
N818 C814 1.376 1_554 S
N818 C817 1.374 . S
N818 Co819 2.008 . S
Co819 N818 2.008 . S
Co819 N820 1.995 . S
Co819 N825 2.008 . S
Co819 N830 1.995 . S
Co819 N835 2.282 1_554 S
Co819 N841 2.282 . S
N820 Co819 1.995 . S
N820 C821 1.376 . S
N820 C824 1.383 . S
C821 N820 1.376 . S
C821 C822 1.446 . S
C821 C851 1.391 . S
C822 C821 1.446 . S
C822 C823 1.339 . S
C822 H857 0.949 . S
C823 C822 1.339 . S
C823 C824 1.439 . S
C823 H858 0.950 . S
C824 N820 1.383 . S
C824 C823 1.439 . S
C824 C853 1.392 . S
N825 Co819 2.008 . S
N825 C826 1.376 . S
N825 C829 1.374 . S
C826 N825 1.376 . S
C826 C827 1.443 . S
C826 C853 1.389 . S
C827 C826 1.443 . S
C827 C828 1.340 . S
C827 H859 0.951 . S
C828 C827 1.340 . S
C828 C829 1.439 . S
C828 H860 0.950 . S
C829 N825 1.374 . S
C829 C828 1.439 . S
C829 C854 1.395 . S
N830 Co819 1.995 . S
N830 C831 1.376 . S
N830 C834 1.383 1_554 S
C831 N830 1.376 . S
C831 C832 1.446 1_554 S
C831 C854 1.391 . S
C832 C831 1.446 1_556 S
C832 C833 1.339 . S
C832 H861 0.949 . S
C833 C832 1.339 . S
C833 C834 1.439 . S
C833 H862 0.950 . S
C834 N830 1.383 1_556 S
C834 C833 1.439 . S
C834 C852 1.392 . S
N835 Co819 2.282 1_556 S
N835 C838 1.332 . S
N835 C840 1.332 . S
C836 C837 1.386 . S
C836 C839 1.388 . S
C837 C836 1.386 . S
C837 C838 1.382 . S
C837 H863 0.950 . S
C838 N835 1.332 . S
C838 C837 1.382 . S
C838 H849 0.952 . S
C839 C836 1.388 . S
C839 C840 1.382 . S
C839 H864 0.950 . S
C840 N835 1.332 . S
C840 C839 1.382 . S
C840 H850 0.948 1_556 S
N841 Co819 2.282 . S
N841 C845 1.332 . S
N841 C846 1.332 . S
C842 C843 1.388 . S
C842 C846 1.382 . S
C842 H865 0.950 . S
C843 C842 1.388 . S
C843 C844 1.386 . S
C844 C843 1.386 . S
C844 C845 1.382 . S
C844 H866 0.950 . S
C845 N841 1.332 . S
C845 C844 1.382 . S
C845 H847 0.952 . S
C846 N841 1.332 . S
C846 C842 1.382 . S
C846 H848 0.948 . S
H847 C845 0.952 . S
H848 C846 0.948 . S
H849 C838 0.952 . S
H850 C840 0.948 1_554 S
C851 C817 1.395 . S
C851 C821 1.391 . S
C852 C814 1.389 . S
C852 C834 1.392 . S
C853 C824 1.392 . S
C853 C826 1.389 . S
C854 C829 1.395 . S
C854 C831 1.391 . S
H855 C815 0.951 . S
H856 C816 0.950 . S
H857 C822 0.949 . S
H858 C823 0.950 . S
H859 C827 0.951 . S
H860 C828 0.950 . S
H861 C832 0.949 . S
H862 C833 0.950 . S
H863 C837 0.950 . S
H864 C839 0.950 . S
H865 C842 0.950 . S
H866 C844 0.950 . S
C867 C868 1.443 . S
C867 N871 1.376 . S
C867 C905 1.389 . S
C868 C867 1.443 . S
C868 C869 1.340 . S
C868 H908 0.951 . S
C869 C868 1.340 . S
C869 C870 1.439 . S
C869 H909 0.950 . S
C870 C869 1.439 . S
C870 N871 1.374 . S
C870 C904 1.395 . S
N871 C867 1.376 . S
N871 C870 1.374 . S
N871 Co872 2.008 . S
Co872 N871 2.008 . S
Co872 N873 1.995 . S
Co872 N878 2.008 . S
Co872 N883 1.995 . S
Co872 N888 2.282 . S
Co872 N894 2.282 1_554 S
N873 Co872 1.995 . S
N873 C874 1.376 . S
N873 C877 1.383 1_554 S
C874 N873 1.376 . S
C874 C875 1.446 1_554 S
C874 C904 1.391 . S
C875 C874 1.446 1_556 S
C875 C876 1.339 . S
C875 H910 0.949 . S
C876 C875 1.339 . S
C876 C877 1.439 . S
C876 H911 0.950 . S
C877 N873 1.383 1_556 S
C877 C876 1.439 . S
C877 C906 1.392 . S
N878 Co872 2.008 . S
N878 C879 1.376 1_554 S
N878 C882 1.374 . S
C879 N878 1.376 1_556 S
C879 C880 1.443 . S
C879 C906 1.389 . S
C880 C879 1.443 . S
C880 C881 1.340 1_556 S
C880 H912 0.951 . S
C881 C880 1.340 1_554 S
C881 C882 1.439 . S
C881 H913 0.950 . S
C882 N878 1.374 . S
C882 C881 1.439 . S
C882 C907 1.395 . S
N883 Co872 1.995 . S
N883 C884 1.376 . S
N883 C887 1.383 . S
C884 N883 1.376 . S
C884 C885 1.446 . S
C884 C907 1.391 . S
C885 C884 1.446 . S
C885 C886 1.339 . S
C885 H914 0.949 . S
C886 C885 1.339 . S
C886 C887 1.439 . S
C886 H915 0.950 . S
C887 N883 1.383 . S
C887 C886 1.439 . S
C887 C905 1.392 . S
N888 Co872 2.282 . S
N888 C891 1.332 . S
N888 C893 1.332 . S
C889 C890 1.386 . S
C889 C892 1.388 . S
C890 C889 1.386 . S
C890 C891 1.382 . S
C890 H916 0.950 . S
C891 N888 1.332 . S
C891 C890 1.382 . S
C891 H902 0.952 . S
C892 C889 1.388 . S
C892 C893 1.382 . S
C892 H917 0.950 . S
C893 N888 1.332 . S
C893 C892 1.382 . S
C893 H903 0.948 . S
N894 Co872 2.282 1_556 S
N894 C898 1.332 . S
N894 C899 1.332 . S
C895 C896 1.388 . S
C895 C899 1.382 . S
C895 H918 0.950 . S
C896 C895 1.388 . S
C896 C897 1.386 . S
C897 C896 1.386 . S
C897 C898 1.382 . S
C897 H919 0.950 . S
C898 N894 1.332 . S
C898 C897 1.382 . S
C898 H900 0.952 . S
C899 N894 1.332 . S
C899 C895 1.382 . S
C899 H901 0.948 1_556 S
H900 C898 0.952 . S
H901 C899 0.948 1_554 S
H902 C891 0.952 . S
H903 C893 0.948 . S
C904 C870 1.395 . S
C904 C874 1.391 . S
C905 C867 1.389 . S
C905 C887 1.392 . S
C906 C877 1.392 . S
C906 C879 1.389 . S
C907 C882 1.395 . S
C907 C884 1.391 . S
H908 C868 0.951 . S
H909 C869 0.950 . S
H910 C875 0.949 . S
H911 C876 0.950 . S
H912 C880 0.951 . S
H913 C881 0.950 . S
H914 C885 0.949 . S
H915 C886 0.950 . S
H916 C890 0.950 . S
H917 C892 0.950 . S
H918 C895 0.950 . S
H919 C897 0.950 . S
H920 C932 0.930 . S
H921 C934 0.930 . S
H922 C935 0.930 . S
H923 C939 0.959 . S
H924 C939 0.959 . S
H925 C939 0.961 . S
H926 C940 0.960 . S
H927 C940 0.961 . S
H928 C940 0.959 . S
H929 C943 0.929 . S
H930 C944 0.931 . S
H931 C946 0.930 . S
C932 H920 0.930 . S
C932 C933 1.399 . S
C932 C937 1.399 . S
C933 C932 1.399 . S
C933 C934 1.376 . S
C934 H921 0.930 . S
C934 C933 1.376 . S
C934 C935 1.388 . S
C935 H922 0.930 . S
C935 C934 1.388 . S
C935 C936 1.390 . S
C936 C935 1.390 . S
C936 C937 1.394 . S
C936 C942 1.465 . S
C937 C932 1.399 . S
C937 C936 1.394 . S
C937 C938 1.516 . S
C938 C937 1.516 . S
C938 C939 1.502 . S
C938 C940 1.561 . S
C938 C941 1.526 . S
C939 H923 0.959 . S
C939 H924 0.959 . S
C939 H925 0.961 . S
C939 C938 1.502 . S
C940 H926 0.960 . S
C940 H927 0.961 . S
C940 H928 0.959 . S
C940 C938 1.561 . S
C941 C938 1.526 . S
C941 C942 1.396 . S
C941 C946 1.390 . S
C942 C936 1.465 . S
C942 C941 1.396 . S
C942 C943 1.399 . S
C943 H929 0.929 . S
C943 C942 1.399 . S
C943 C944 1.385 . S
C944 H930 0.931 . S
C944 C943 1.385 . S
C944 C945 1.389 . S
C945 C944 1.389 . S
C945 C946 1.387 . S
C946 H931 0.930 . S
C946 C941 1.390 . S
C946 C945 1.387 . S
H947 C959 0.930 . S
H948 C961 0.930 . S
H949 C962 0.930 . S
H950 C966 0.959 . S
H951 C966 0.959 . S
H952 C966 0.961 . S
H953 C967 0.960 . S
H954 C967 0.961 . S
H955 C967 0.959 . S
H956 C970 0.929 . S
H957 C971 0.931 . S
H958 C973 0.930 . S
C959 H947 0.930 . S
C959 C960 1.399 . S
C959 C964 1.399 . S
C960 C959 1.399 . S
C960 C961 1.376 . S
C961 H948 0.930 . S
C961 C960 1.376 . S
C961 C962 1.388 . S
C962 H949 0.930 . S
C962 C961 1.388 . S
C962 C963 1.390 . S
C963 C962 1.390 . S
C963 C964 1.394 . S
C963 C969 1.465 . S
C964 C959 1.399 . S
C964 C963 1.394 . S
C964 C965 1.516 . S
C965 C964 1.516 . S
C965 C966 1.502 . S
C965 C967 1.561 . S
C965 C968 1.526 . S
C966 H950 0.959 . S
C966 H951 0.959 . S
C966 H952 0.961 . S
C966 C965 1.502 . S
C967 H953 0.960 . S
C967 H954 0.961 . S
C967 H955 0.959 . S
C967 C965 1.561 . S
C968 C965 1.526 . S
C968 C969 1.396 . S
C968 C973 1.390 . S
C969 C963 1.465 . S
C969 C968 1.396 . S
C969 C970 1.399 . S
C970 H956 0.929 . S
C970 C969 1.399 . S
C970 C971 1.385 . S
C971 H957 0.931 . S
C971 C970 1.385 . S
C971 C972 1.389 . S
C972 C971 1.389 . S
C972 C973 1.387 . S
C973 H958 0.930 . S
C973 C968 1.390 . S
C973 C972 1.387 . S
H974 C986 0.930 . S
H975 C988 0.930 . S
H976 C989 0.930 . S
H977 C993 0.959 . S
H978 C993 0.959 . S
H979 C993 0.961 . S
H980 C994 0.960 . S
H981 C994 0.961 . S
H982 C994 0.959 . S
H983 C997 0.929 . S
H984 C998 0.931 . S
H985 C1000 0.930 . S
C986 H974 0.930 . S
C986 C987 1.399 . S
C986 C991 1.399 . S
C987 C986 1.399 . S
C987 C988 1.376 . S
C988 H975 0.930 . S
C988 C987 1.376 . S
C988 C989 1.388 . S
C989 H976 0.930 . S
C989 C988 1.388 . S
C989 C990 1.390 . S
C990 C989 1.390 . S
C990 C991 1.394 . S
C990 C996 1.465 . S
C991 C986 1.399 . S
C991 C990 1.394 . S
C991 C992 1.516 . S
C992 C991 1.516 . S
C992 C993 1.502 . S
C992 C994 1.561 . S
C992 C995 1.526 . S
C993 H977 0.959 . S
C993 H978 0.959 . S
C993 H979 0.961 . S
C993 C992 1.502 . S
C994 H980 0.960 . S
C994 H981 0.961 . S
C994 H982 0.959 . S
C994 C992 1.561 . S
C995 C992 1.526 . S
C995 C996 1.396 . S
C995 C1000 1.390 . S
C996 C990 1.465 . S
C996 C995 1.396 . S
C996 C997 1.399 . S
C997 H983 0.929 . S
C997 C996 1.399 . S
C997 C998 1.385 . S
C998 H984 0.931 . S
C998 C997 1.385 . S
C998 C999 1.389 . S
C999 C998 1.389 . S
C999 C1000 1.387 . S
C1000 H985 0.930 . S
C1000 C995 1.390 . S
C1000 C999 1.387 . S
H1001 C1013 0.930 . S
H1002 C1015 0.930 . S
H1003 C1016 0.930 . S
H1004 C1020 0.959 . S
H1005 C1020 0.959 . S
H1006 C1020 0.961 . S
H1007 C1021 0.960 . S
H1008 C1021 0.961 . S
H1009 C1021 0.959 . S
H1010 C1024 0.929 . S
H1011 C1025 0.931 . S
H1012 C1027 0.930 . S
C1013 H1001 0.930 . S
C1013 C1014 1.399 . S
C1013 C1018 1.399 . S
C1014 C1013 1.399 . S
C1014 C1015 1.376 . S
C1015 H1002 0.930 . S
C1015 C1014 1.376 . S
C1015 C1016 1.388 . S
C1016 H1003 0.930 . S
C1016 C1015 1.388 . S
C1016 C1017 1.390 . S
C1017 C1016 1.390 . S
C1017 C1018 1.394 . S
C1017 C1023 1.465 . S
C1018 C1013 1.399 . S
C1018 C1017 1.394 . S
C1018 C1019 1.516 . S
C1019 C1018 1.516 . S
C1019 C1020 1.502 . S
C1019 C1021 1.561 . S
C1019 C1022 1.526 . S
C1020 H1004 0.959 . S
C1020 H1005 0.959 . S
C1020 H1006 0.961 . S
C1020 C1019 1.502 . S
C1021 H1007 0.960 . S
C1021 H1008 0.961 . S
C1021 H1009 0.959 . S
C1021 C1019 1.561 . S
C1022 C1019 1.526 . S
C1022 C1023 1.396 . S
C1022 C1027 1.390 . S
C1023 C1017 1.465 . S
C1023 C1022 1.396 . S
C1023 C1024 1.399 . S
C1024 H1010 0.929 . S
C1024 C1023 1.399 . S
C1024 C1025 1.385 . S
C1025 H1011 0.931 . S
C1025 C1024 1.385 . S
C1025 C1026 1.389 . S
C1026 C1025 1.389 . S
C1026 C1027 1.387 . S
C1027 H1012 0.930 . S
C1027 C1022 1.390 . S
C1027 C1026 1.387 . S
H1028 C1040 0.930 . S
H1029 C1042 0.930 . S
H1030 C1043 0.930 . S
H1031 C1047 0.959 . S
H1032 C1047 0.959 . S
H1033 C1047 0.961 . S
H1034 C1048 0.960 . S
H1035 C1048 0.961 . S
H1036 C1048 0.959 . S
H1037 C1051 0.929 . S
H1038 C1052 0.931 . S
H1039 C1054 0.930 . S
C1040 H1028 0.930 . S
C1040 C1041 1.399 . S
C1040 C1045 1.399 . S
C1041 C1040 1.399 . S
C1041 C1042 1.376 . S
C1042 H1029 0.930 . S
C1042 C1041 1.376 . S
C1042 C1043 1.388 . S
C1043 H1030 0.930 . S
C1043 C1042 1.388 . S
C1043 C1044 1.390 . S
C1044 C1043 1.390 . S
C1044 C1045 1.394 . S
C1044 C1050 1.465 . S
C1045 C1040 1.399 . S
C1045 C1044 1.394 . S
C1045 C1046 1.516 . S
C1046 C1045 1.516 . S
C1046 C1047 1.502 . S
C1046 C1048 1.561 . S
C1046 C1049 1.526 . S
C1047 H1031 0.959 . S
C1047 H1032 0.959 . S
C1047 H1033 0.961 . S
C1047 C1046 1.502 . S
C1048 H1034 0.960 . S
C1048 H1035 0.961 . S
C1048 H1036 0.959 . S
C1048 C1046 1.561 . S
C1049 C1046 1.526 . S
C1049 C1050 1.396 . S
C1049 C1054 1.390 . S
C1050 C1044 1.465 . S
C1050 C1049 1.396 . S
C1050 C1051 1.399 . S
C1051 H1037 0.929 . S
C1051 C1050 1.399 . S
C1051 C1052 1.385 . S
C1052 H1038 0.931 . S
C1052 C1051 1.385 . S
C1052 C1053 1.389 . S
C1053 C1052 1.389 . S
C1053 C1054 1.387 . S
C1054 H1039 0.930 . S
C1054 C1049 1.390 . S
C1054 C1053 1.387 . S
H1055 C1067 0.930 . S
H1056 C1069 0.930 . S
H1057 C1070 0.930 . S
H1058 C1074 0.959 . S
H1059 C1074 0.959 . S
H1060 C1074 0.961 . S
H1061 C1075 0.960 . S
H1062 C1075 0.961 . S
H1063 C1075 0.959 . S
H1064 C1078 0.929 . S
H1065 C1079 0.931 . S
H1066 C1081 0.930 . S
C1067 H1055 0.930 . S
C1067 C1068 1.399 . S
C1067 C1072 1.399 . S
C1068 C1067 1.399 . S
C1068 C1069 1.376 . S
C1069 H1056 0.930 . S
C1069 C1068 1.376 . S
C1069 C1070 1.388 . S
C1070 H1057 0.930 . S
C1070 C1069 1.388 . S
C1070 C1071 1.390 . S
C1071 C1070 1.390 . S
C1071 C1072 1.394 . S
C1071 C1077 1.465 . S
C1072 C1067 1.399 . S
C1072 C1071 1.394 . S
C1072 C1073 1.516 . S
C1073 C1072 1.516 . S
C1073 C1074 1.502 . S
C1073 C1075 1.561 . S
C1073 C1076 1.526 . S
C1074 H1058 0.959 . S
C1074 H1059 0.959 . S
C1074 H1060 0.961 . S
C1074 C1073 1.502 . S
C1075 H1061 0.960 . S
C1075 H1062 0.961 . S
C1075 H1063 0.959 . S
C1075 C1073 1.561 . S
C1076 C1073 1.526 . S
C1076 C1077 1.396 . S
C1076 C1081 1.390 . S
C1077 C1071 1.465 . S
C1077 C1076 1.396 . S
C1077 C1078 1.399 . S
C1078 H1064 0.929 . S
C1078 C1077 1.399 . S
C1078 C1079 1.385 . S
C1079 H1065 0.931 . S
C1079 C1078 1.385 . S
C1079 C1080 1.389 . S
C1080 C1079 1.389 . S
C1080 C1081 1.387 . S
C1081 H1066 0.930 . S
C1081 C1076 1.390 . S
C1081 C1080 1.387 . S
H1082 C1094 0.930 . S
H1083 C1096 0.930 . S
H1084 C1097 0.930 . S
H1085 C1101 0.959 . S
H1086 C1101 0.959 . S
H1087 C1101 0.961 . S
H1088 C1102 0.960 . S
H1089 C1102 0.961 . S
H1090 C1102 0.959 . S
H1091 C1105 0.929 . S
H1092 C1106 0.931 . S
H1093 C1108 0.930 . S
C1094 H1082 0.930 . S
C1094 C1095 1.399 . S
C1094 C1099 1.399 . S
C1095 C1094 1.399 . S
C1095 C1096 1.376 . S
C1096 H1083 0.930 . S
C1096 C1095 1.376 . S
C1096 C1097 1.388 . S
C1097 H1084 0.930 . S
C1097 C1096 1.388 . S
C1097 C1098 1.390 . S
C1098 C1097 1.390 . S
C1098 C1099 1.394 . S
C1098 C1104 1.465 . S
C1099 C1094 1.399 . S
C1099 C1098 1.394 . S
C1099 C1100 1.516 . S
C1100 C1099 1.516 . S
C1100 C1101 1.502 . S
C1100 C1102 1.561 . S
C1100 C1103 1.526 . S
C1101 H1085 0.959 . S
C1101 H1086 0.959 . S
C1101 H1087 0.961 . S
C1101 C1100 1.502 . S
C1102 H1088 0.960 . S
C1102 H1089 0.961 . S
C1102 H1090 0.959 . S
C1102 C1100 1.561 . S
C1103 C1100 1.526 . S
C1103 C1104 1.396 . S
C1103 C1108 1.390 . S
C1104 C1098 1.465 . S
C1104 C1103 1.396 . S
C1104 C1105 1.399 . S
C1105 H1091 0.929 . S
C1105 C1104 1.399 . S
C1105 C1106 1.385 . S
C1106 H1092 0.931 . S
C1106 C1105 1.385 . S
C1106 C1107 1.389 . S
C1107 C1106 1.389 . S
C1107 C1108 1.387 . S
C1108 H1093 0.930 . S
C1108 C1103 1.390 . S
C1108 C1107 1.387 . S
H1109 C1121 0.930 . S
H1110 C1123 0.930 . S
H1111 C1124 0.930 . S
H1112 C1128 0.959 . S
H1113 C1128 0.959 . S
H1114 C1128 0.961 . S
H1115 C1129 0.960 . S
H1116 C1129 0.961 . S
H1117 C1129 0.959 . S
H1118 C1132 0.929 . S
H1119 C1133 0.931 . S
H1120 C1135 0.930 . S
C1121 H1109 0.930 . S
C1121 C1122 1.399 . S
C1121 C1126 1.399 . S
C1122 C1121 1.399 . S
C1122 C1123 1.376 . S
C1123 H1110 0.930 . S
C1123 C1122 1.376 . S
C1123 C1124 1.388 . S
C1124 H1111 0.930 . S
C1124 C1123 1.388 . S
C1124 C1125 1.390 . S
C1125 C1124 1.390 . S
C1125 C1126 1.394 . S
C1125 C1131 1.465 . S
C1126 C1121 1.399 . S
C1126 C1125 1.394 . S
C1126 C1127 1.516 . S
C1127 C1126 1.516 . S
C1127 C1128 1.502 . S
C1127 C1129 1.561 . S
C1127 C1130 1.526 . S
C1128 H1112 0.959 . S
C1128 H1113 0.959 . S
C1128 H1114 0.961 . S
C1128 C1127 1.502 . S
C1129 H1115 0.960 . S
C1129 H1116 0.961 . S
C1129 H1117 0.959 . S
C1129 C1127 1.561 . S
C1130 C1127 1.526 . S
C1130 C1131 1.396 . S
C1130 C1135 1.390 . S
C1131 C1125 1.465 . S
C1131 C1130 1.396 . S
C1131 C1132 1.399 . S
C1132 H1118 0.929 . S
C1132 C1131 1.399 . S
C1132 C1133 1.385 . S
C1133 H1119 0.931 . S
C1133 C1132 1.385 . S
C1133 C1134 1.389 . S
C1134 C1133 1.389 . S
C1134 C1135 1.387 . S
C1135 H1120 0.930 . S
C1135 C1130 1.390 . S
C1135 C1134 1.387 . S
H1136 C1148 0.930 . S
H1137 C1150 0.930 . S
H1138 C1151 0.930 . S
H1139 C1155 0.959 . S
H1140 C1155 0.959 . S
H1141 C1155 0.961 . S
H1142 C1156 0.960 . S
H1143 C1156 0.961 . S
H1144 C1156 0.959 . S
H1145 C1159 0.929 . S
H1146 C1160 0.931 . S
H1147 C1162 0.930 . S
C1148 H1136 0.930 . S
C1148 C1149 1.399 . S
C1148 C1153 1.399 . S
C1149 C1148 1.399 . S
C1149 C1150 1.376 . S
C1150 H1137 0.930 . S
C1150 C1149 1.376 . S
C1150 C1151 1.388 . S
C1151 H1138 0.930 . S
C1151 C1150 1.388 . S
C1151 C1152 1.390 . S
C1152 C1151 1.390 . S
C1152 C1153 1.394 . S
C1152 C1158 1.465 . S
C1153 C1148 1.399 . S
C1153 C1152 1.394 . S
C1153 C1154 1.516 . S
C1154 C1153 1.516 . S
C1154 C1155 1.502 . S
C1154 C1156 1.561 . S
C1154 C1157 1.526 . S
C1155 H1139 0.959 . S
C1155 H1140 0.959 . S
C1155 H1141 0.961 . S
C1155 C1154 1.502 . S
C1156 H1142 0.960 . S
C1156 H1143 0.961 . S
C1156 H1144 0.959 . S
C1156 C1154 1.561 . S
C1157 C1154 1.526 . S
C1157 C1158 1.396 . S
C1157 C1162 1.390 . S
C1158 C1152 1.465 . S
C1158 C1157 1.396 . S
C1158 C1159 1.399 . S
C1159 H1145 0.929 . S
C1159 C1158 1.399 . S
C1159 C1160 1.385 . S
C1160 H1146 0.931 . S
C1160 C1159 1.385 . S
C1160 C1161 1.389 . S
C1161 C1160 1.389 . S
C1161 C1162 1.387 . S
C1162 H1147 0.930 . S
C1162 C1157 1.390 . S
C1162 C1161 1.387 . S
H1163 C1175 0.930 . S
H1164 C1177 0.930 . S
H1165 C1178 0.930 . S
H1166 C1182 0.959 . S
H1167 C1182 0.959 . S
H1168 C1182 0.961 . S
H1169 C1183 0.960 . S
H1170 C1183 0.961 . S
H1171 C1183 0.959 . S
H1172 C1186 0.929 . S
H1173 C1187 0.931 . S
H1174 C1189 0.930 . S
C1175 H1163 0.930 . S
C1175 C1176 1.399 . S
C1175 C1180 1.399 . S
C1176 C1175 1.399 . S
C1176 C1177 1.376 . S
C1177 H1164 0.930 . S
C1177 C1176 1.376 . S
C1177 C1178 1.388 . S
C1178 H1165 0.930 . S
C1178 C1177 1.388 . S
C1178 C1179 1.390 . S
C1179 C1178 1.390 . S
C1179 C1180 1.394 . S
C1179 C1185 1.465 . S
C1180 C1175 1.399 . S
C1180 C1179 1.394 . S
C1180 C1181 1.516 . S
C1181 C1180 1.516 . S
C1181 C1182 1.502 . S
C1181 C1183 1.561 . S
C1181 C1184 1.526 . S
C1182 H1166 0.959 . S
C1182 H1167 0.959 . S
C1182 H1168 0.961 . S
C1182 C1181 1.502 . S
C1183 H1169 0.960 . S
C1183 H1170 0.961 . S
C1183 H1171 0.959 . S
C1183 C1181 1.561 . S
C1184 C1181 1.526 . S
C1184 C1185 1.396 . S
C1184 C1189 1.390 . S
C1185 C1179 1.465 . S
C1185 C1184 1.396 . S
C1185 C1186 1.399 . S
C1186 H1172 0.929 . S
C1186 C1185 1.399 . S
C1186 C1187 1.385 . S
C1187 H1173 0.931 . S
C1187 C1186 1.385 . S
C1187 C1188 1.389 . S
C1188 C1187 1.389 . S
C1188 C1189 1.387 . S
C1189 H1174 0.930 . S
C1189 C1184 1.390 . S
C1189 C1188 1.387 . S
H1190 C1202 0.930 . S
H1191 C1204 0.930 . S
H1192 C1205 0.930 . S
H1193 C1209 0.959 . S
H1194 C1209 0.959 . S
H1195 C1209 0.961 . S
H1196 C1210 0.960 . S
H1197 C1210 0.961 . S
H1198 C1210 0.959 . S
H1199 C1213 0.929 . S
H1200 C1214 0.931 . S
H1201 C1216 0.930 . S
C1202 H1190 0.930 . S
C1202 C1203 1.399 . S
C1202 C1207 1.399 . S
C1203 C1202 1.399 . S
C1203 C1204 1.376 . S
C1204 H1191 0.930 . S
C1204 C1203 1.376 . S
C1204 C1205 1.388 . S
C1205 H1192 0.930 . S
C1205 C1204 1.388 . S
C1205 C1206 1.390 . S
C1206 C1205 1.390 . S
C1206 C1207 1.394 . S
C1206 C1212 1.465 . S
C1207 C1202 1.399 . S
C1207 C1206 1.394 . S
C1207 C1208 1.516 . S
C1208 C1207 1.516 . S
C1208 C1209 1.502 . S
C1208 C1210 1.561 . S
C1208 C1211 1.526 . S
C1209 H1193 0.959 . S
C1209 H1194 0.959 . S
C1209 H1195 0.961 . S
C1209 C1208 1.502 . S
C1210 H1196 0.960 . S
C1210 H1197 0.961 . S
C1210 H1198 0.959 . S
C1210 C1208 1.561 . S
C1211 C1208 1.526 . S
C1211 C1212 1.396 . S
C1211 C1216 1.390 . S
C1212 C1206 1.465 . S
C1212 C1211 1.396 . S
C1212 C1213 1.399 . S
C1213 H1199 0.929 . S
C1213 C1212 1.399 . S
C1213 C1214 1.385 . S
C1214 H1200 0.931 . S
C1214 C1213 1.385 . S
C1214 C1215 1.389 . S
C1215 C1214 1.389 . S
C1215 C1216 1.387 . S
C1216 H1201 0.930 . S
C1216 C1211 1.390 . S
C1216 C1215 1.387 . S
H1217 C1229 0.930 . S
H1218 C1231 0.930 . S
H1219 C1232 0.930 . S
H1220 C1236 0.959 . S
H1221 C1236 0.959 . S
H1222 C1236 0.961 . S
H1223 C1237 0.960 . S
H1224 C1237 0.961 . S
H1225 C1237 0.959 . S
H1226 C1240 0.929 . S
H1227 C1241 0.931 . S
H1228 C1243 0.930 . S
C1229 H1217 0.930 . S
C1229 C1230 1.399 . S
C1229 C1234 1.399 . S
C1230 C1229 1.399 . S
C1230 C1231 1.376 . S
C1231 H1218 0.930 . S
C1231 C1230 1.376 . S
C1231 C1232 1.388 . S
C1232 H1219 0.930 . S
C1232 C1231 1.388 . S
C1232 C1233 1.390 . S
C1233 C1232 1.390 . S
C1233 C1234 1.394 . S
C1233 C1239 1.465 . S
C1234 C1229 1.399 . S
C1234 C1233 1.394 . S
C1234 C1235 1.516 . S
C1235 C1234 1.516 . S
C1235 C1236 1.502 . S
C1235 C1237 1.561 . S
C1235 C1238 1.526 . S
C1236 H1220 0.959 . S
C1236 H1221 0.959 . S
C1236 H1222 0.961 . S
C1236 C1235 1.502 . S
C1237 H1223 0.960 . S
C1237 H1224 0.961 . S
C1237 H1225 0.959 . S
C1237 C1235 1.561 . S
C1238 C1235 1.526 . S
C1238 C1239 1.396 . S
C1238 C1243 1.390 . S
C1239 C1233 1.465 . S
C1239 C1238 1.396 . S
C1239 C1240 1.399 . S
C1240 H1226 0.929 . S
C1240 C1239 1.399 . S
C1240 C1241 1.385 . S
C1241 H1227 0.931 . S
C1241 C1240 1.385 . S
C1241 C1242 1.389 . S
C1242 C1241 1.389 . S
C1242 C1243 1.387 . S
C1243 H1228 0.930 . S
C1243 C1238 1.390 . S
C1243 C1242 1.387 . S
H1244 C1256 0.930 . S
H1245 C1258 0.930 . S
H1246 C1259 0.930 . S
H1247 C1263 0.959 . S
H1248 C1263 0.959 . S
H1249 C1263 0.961 . S
H1250 C1264 0.960 . S
H1251 C1264 0.961 . S
H1252 C1264 0.959 . S
H1253 C1267 0.929 . S
H1254 C1268 0.931 . S
H1255 C1270 0.930 . S
C1256 H1244 0.930 . S
C1256 C1257 1.399 . S
C1256 C1261 1.399 . S
C1257 C1256 1.399 . S
C1257 C1258 1.376 . S
C1258 H1245 0.930 . S
C1258 C1257 1.376 . S
C1258 C1259 1.388 . S
C1259 H1246 0.930 . S
C1259 C1258 1.388 . S
C1259 C1260 1.390 . S
C1260 C1259 1.390 . S
C1260 C1261 1.394 . S
C1260 C1266 1.465 . S
C1261 C1256 1.399 . S
C1261 C1260 1.394 . S
C1261 C1262 1.516 . S
C1262 C1261 1.516 . S
C1262 C1263 1.502 . S
C1262 C1264 1.561 . S
C1262 C1265 1.526 . S
C1263 H1247 0.959 . S
C1263 H1248 0.959 . S
C1263 H1249 0.961 . S
C1263 C1262 1.502 . S
C1264 H1250 0.960 . S
C1264 H1251 0.961 . S
C1264 H1252 0.959 . S
C1264 C1262 1.561 . S
C1265 C1262 1.526 . S
C1265 C1266 1.396 . S
C1265 C1270 1.390 . S
C1266 C1260 1.465 . S
C1266 C1265 1.396 . S
C1266 C1267 1.399 . S
C1267 H1253 0.929 . S
C1267 C1266 1.399 . S
C1267 C1268 1.385 . S
C1268 H1254 0.931 . S
C1268 C1267 1.385 . S
C1268 C1269 1.389 . S
C1269 C1268 1.389 . S
C1269 C1270 1.387 . S
C1270 H1255 0.930 . S
C1270 C1265 1.390 . S
C1270 C1269 1.387 . S
H1271 C1283 0.930 . S
H1272 C1285 0.930 . S
H1273 C1286 0.930 . S
H1274 C1290 0.959 . S
H1275 C1290 0.959 . S
H1276 C1290 0.961 . S
H1277 C1291 0.960 . S
H1278 C1291 0.961 . S
H1279 C1291 0.959 . S
H1280 C1294 0.929 . S
H1281 C1295 0.931 . S
H1282 C1297 0.930 . S
C1283 H1271 0.930 . S
C1283 C1284 1.399 . S
C1283 C1288 1.399 . S
C1284 C1283 1.399 . S
C1284 C1285 1.376 . S
C1285 H1272 0.930 . S
C1285 C1284 1.376 . S
C1285 C1286 1.388 . S
C1286 H1273 0.930 . S
C1286 C1285 1.388 . S
C1286 C1287 1.390 . S
C1287 C1286 1.390 . S
C1287 C1288 1.394 . S
C1287 C1293 1.465 . S
C1288 C1283 1.399 . S
C1288 C1287 1.394 . S
C1288 C1289 1.516 . S
C1289 C1288 1.516 . S
C1289 C1290 1.502 . S
C1289 C1291 1.561 . S
C1289 C1292 1.526 . S
C1290 H1274 0.959 . S
C1290 H1275 0.959 . S
C1290 H1276 0.961 . S
C1290 C1289 1.502 . S
C1291 H1277 0.960 . S
C1291 H1278 0.961 . S
C1291 H1279 0.959 . S
C1291 C1289 1.561 . S
C1292 C1289 1.526 . S
C1292 C1293 1.396 . S
C1292 C1297 1.390 . S
C1293 C1287 1.465 . S
C1293 C1292 1.396 . S
C1293 C1294 1.399 . S
C1294 H1280 0.929 . S
C1294 C1293 1.399 . S
C1294 C1295 1.385 . S
C1295 H1281 0.931 . S
C1295 C1294 1.385 . S
C1295 C1296 1.389 . S
C1296 C1295 1.389 . S
C1296 C1297 1.387 . S
C1297 H1282 0.930 . S
C1297 C1292 1.390 . S
C1297 C1296 1.387 . S
H1298 C1310 0.930 . S
H1299 C1312 0.930 . S
H1300 C1313 0.930 . S
H1301 C1317 0.959 . S
H1302 C1317 0.959 . S
H1303 C1317 0.961 . S
H1304 C1318 0.960 . S
H1305 C1318 0.961 . S
H1306 C1318 0.959 . S
H1307 C1321 0.929 . S
H1308 C1322 0.931 . S
H1309 C1324 0.930 . S
C1310 H1298 0.930 . S
C1310 C1311 1.399 . S
C1310 C1315 1.399 . S
C1311 C1310 1.399 . S
C1311 C1312 1.376 . S
C1312 H1299 0.930 . S
C1312 C1311 1.376 . S
C1312 C1313 1.388 . S
C1313 H1300 0.930 . S
C1313 C1312 1.388 . S
C1313 C1314 1.390 . S
C1314 C1313 1.390 . S
C1314 C1315 1.394 . S
C1314 C1320 1.465 . S
C1315 C1310 1.399 . S
C1315 C1314 1.394 . S
C1315 C1316 1.516 . S
C1316 C1315 1.516 . S
C1316 C1317 1.502 . S
C1316 C1318 1.561 . S
C1316 C1319 1.526 . S
C1317 H1301 0.959 . S
C1317 H1302 0.959 . S
C1317 H1303 0.961 . S
C1317 C1316 1.502 . S
C1318 H1304 0.960 . S
C1318 H1305 0.961 . S
C1318 H1306 0.959 . S
C1318 C1316 1.561 . S
C1319 C1316 1.526 . S
C1319 C1320 1.396 . S
C1319 C1324 1.390 . S
C1320 C1314 1.465 . S
C1320 C1319 1.396 . S
C1320 C1321 1.399 . S
C1321 H1307 0.929 . S
C1321 C1320 1.399 . S
C1321 C1322 1.385 . S
C1322 H1308 0.931 . S
C1322 C1321 1.385 . S
C1322 C1323 1.389 . S
C1323 C1322 1.389 . S
C1323 C1324 1.387 . S
C1324 H1309 0.930 . S
C1324 C1319 1.390 . S
C1324 C1323 1.387 . S
H1325 C1337 0.930 . S
H1326 C1339 0.930 . S
H1327 C1340 0.930 . S
H1328 C1344 0.959 . S
H1329 C1344 0.959 . S
H1330 C1344 0.961 . S
H1331 C1345 0.960 . S
H1332 C1345 0.961 . S
H1333 C1345 0.959 . S
H1334 C1348 0.929 . S
H1335 C1349 0.931 . S
H1336 C1351 0.930 . S
C1337 H1325 0.930 . S
C1337 C1338 1.399 . S
C1337 C1342 1.399 . S
C1338 C1337 1.399 . S
C1338 C1339 1.376 . S
C1339 H1326 0.930 . S
C1339 C1338 1.376 . S
C1339 C1340 1.388 . S
C1340 H1327 0.930 . S
C1340 C1339 1.388 . S
C1340 C1341 1.390 . S
C1341 C1340 1.390 . S
C1341 C1342 1.394 . S
C1341 C1347 1.465 . S
C1342 C1337 1.399 . S
C1342 C1341 1.394 . S
C1342 C1343 1.516 . S
C1343 C1342 1.516 . S
C1343 C1344 1.502 . S
C1343 C1345 1.561 . S
C1343 C1346 1.526 . S
C1344 H1328 0.959 . S
C1344 H1329 0.959 . S
C1344 H1330 0.961 . S
C1344 C1343 1.502 . S
C1345 H1331 0.960 . S
C1345 H1332 0.961 . S
C1345 H1333 0.959 . S
C1345 C1343 1.561 . S
C1346 C1343 1.526 . S
C1346 C1347 1.396 . S
C1346 C1351 1.390 . S
C1347 C1341 1.465 . S
C1347 C1346 1.396 . S
C1347 C1348 1.399 . S
C1348 H1334 0.929 . S
C1348 C1347 1.399 . S
C1348 C1349 1.385 . S
C1349 H1335 0.931 . S
C1349 C1348 1.385 . S
C1349 C1350 1.389 . S
C1350 C1349 1.389 . S
C1350 C1351 1.387 . S
C1351 H1336 0.930 . S
C1351 C1346 1.390 . S
C1351 C1350 1.387 . S
H1352 C1364 0.930 . S
H1353 C1366 0.930 . S
H1354 C1367 0.930 . S
H1355 C1371 0.959 . S
H1356 C1371 0.959 . S
H1357 C1371 0.961 . S
H1358 C1372 0.960 . S
H1359 C1372 0.961 . S
H1360 C1372 0.959 . S
H1361 C1375 0.929 . S
H1362 C1376 0.931 . S
H1363 C1378 0.930 . S
C1364 H1352 0.930 . S
C1364 C1365 1.399 . S
C1364 C1369 1.399 . S
C1365 C1364 1.399 . S
C1365 C1366 1.376 . S
C1366 H1353 0.930 . S
C1366 C1365 1.376 . S
C1366 C1367 1.388 . S
C1367 H1354 0.930 . S
C1367 C1366 1.388 . S
C1367 C1368 1.390 . S
C1368 C1367 1.390 . S
C1368 C1369 1.394 . S
C1368 C1374 1.465 . S
C1369 C1364 1.399 . S
C1369 C1368 1.394 . S
C1369 C1370 1.516 . S
C1370 C1369 1.516 . S
C1370 C1371 1.502 . S
C1370 C1372 1.561 . S
C1370 C1373 1.526 . S
C1371 H1355 0.959 . S
C1371 H1356 0.959 . S
C1371 H1357 0.961 . S
C1371 C1370 1.502 . S
C1372 H1358 0.960 . S
C1372 H1359 0.961 . S
C1372 H1360 0.959 . S
C1372 C1370 1.561 . S
C1373 C1370 1.526 . S
C1373 C1374 1.396 . S
C1373 C1378 1.390 . S
C1374 C1368 1.465 . S
C1374 C1373 1.396 . S
C1374 C1375 1.399 . S
C1375 H1361 0.929 . S
C1375 C1374 1.399 . S
C1375 C1376 1.385 . S
C1376 H1362 0.931 . S
C1376 C1375 1.385 . S
C1376 C1377 1.389 . S
C1377 C1376 1.389 . S
C1377 C1378 1.387 . S
C1378 H1363 0.930 . S
C1378 C1373 1.390 . S
C1378 C1377 1.387 . S
H1379 C1391 0.930 . S
H1380 C1393 0.930 . S
H1381 C1394 0.930 . S
H1382 C1398 0.959 . S
H1383 C1398 0.959 . S
H1384 C1398 0.961 . S
H1385 C1399 0.960 . S
H1386 C1399 0.961 . S
H1387 C1399 0.959 . S
H1388 C1402 0.929 . S
H1389 C1403 0.931 . S
H1390 C1405 0.930 . S
C1391 H1379 0.930 . S
C1391 C1392 1.399 . S
C1391 C1396 1.399 . S
C1392 C1391 1.399 . S
C1392 C1393 1.376 . S
C1393 H1380 0.930 . S
C1393 C1392 1.376 . S
C1393 C1394 1.388 . S
C1394 H1381 0.930 . S
C1394 C1393 1.388 . S
C1394 C1395 1.390 . S
C1395 C1394 1.390 . S
C1395 C1396 1.394 . S
C1395 C1401 1.465 . S
C1396 C1391 1.399 . S
C1396 C1395 1.394 . S
C1396 C1397 1.516 . S
C1397 C1396 1.516 . S
C1397 C1398 1.502 . S
C1397 C1399 1.561 . S
C1397 C1400 1.526 . S
C1398 H1382 0.959 . S
C1398 H1383 0.959 . S
C1398 H1384 0.961 . S
C1398 C1397 1.502 . S
C1399 H1385 0.960 . S
C1399 H1386 0.961 . S
C1399 H1387 0.959 . S
C1399 C1397 1.561 . S
C1400 C1397 1.526 . S
C1400 C1401 1.396 . S
C1400 C1405 1.390 . S
C1401 C1395 1.465 . S
C1401 C1400 1.396 . S
C1401 C1402 1.399 . S
C1402 H1388 0.929 . S
C1402 C1401 1.399 . S
C1402 C1403 1.385 . S
C1403 H1389 0.931 . S
C1403 C1402 1.385 . S
C1403 C1404 1.389 . S
C1404 C1403 1.389 . S
C1404 C1405 1.387 . S
C1405 H1390 0.930 . S
C1405 C1400 1.390 . S
C1405 C1404 1.387 . S
H1406 C1418 0.930 . S
H1407 C1420 0.930 . S
H1408 C1421 0.930 . S
H1409 C1425 0.959 . S
H1410 C1425 0.959 . S
H1411 C1425 0.961 . S
H1412 C1426 0.960 . S
H1413 C1426 0.961 . S
H1414 C1426 0.959 . S
H1415 C1429 0.929 . S
H1416 C1430 0.931 . S
H1417 C1432 0.930 . S
C1418 H1406 0.930 . S
C1418 C1419 1.399 . S
C1418 C1423 1.399 . S
C1419 C1418 1.399 . S
C1419 C1420 1.376 . S
C1420 H1407 0.930 . S
C1420 C1419 1.376 . S
C1420 C1421 1.388 . S
C1421 H1408 0.930 . S
C1421 C1420 1.388 . S
C1421 C1422 1.390 . S
C1422 C1421 1.390 . S
C1422 C1423 1.394 . S
C1422 C1428 1.465 . S
C1423 C1418 1.399 . S
C1423 C1422 1.394 . S
C1423 C1424 1.516 . S
C1424 C1423 1.516 . S
C1424 C1425 1.502 . S
C1424 C1426 1.561 . S
C1424 C1427 1.526 . S
C1425 H1409 0.959 . S
C1425 H1410 0.959 . S
C1425 H1411 0.961 . S
C1425 C1424 1.502 . S
C1426 H1412 0.960 . S
C1426 H1413 0.961 . S
C1426 H1414 0.959 . S
C1426 C1424 1.561 . S
C1427 C1424 1.526 . S
C1427 C1428 1.396 . S
C1427 C1432 1.390 . S
C1428 C1422 1.465 . S
C1428 C1427 1.396 . S
C1428 C1429 1.399 . S
C1429 H1415 0.929 . S
C1429 C1428 1.399 . S
C1429 C1430 1.385 . S
C1430 H1416 0.931 . S
C1430 C1429 1.385 . S
C1430 C1431 1.389 . S
C1431 C1430 1.389 . S
C1431 C1432 1.387 . S
C1432 H1417 0.930 . S
C1432 C1427 1.390 . S
C1432 C1431 1.387 . S
H1433 C1445 0.930 . S
H1434 C1447 0.930 . S
H1435 C1448 0.930 . S
H1436 C1452 0.959 . S
H1437 C1452 0.959 . S
H1438 C1452 0.961 . S
H1439 C1453 0.960 . S
H1440 C1453 0.961 . S
H1441 C1453 0.959 . S
H1442 C1456 0.929 . S
H1443 C1457 0.931 . S
H1444 C1459 0.930 . S
C1445 H1433 0.930 . S
C1445 C1446 1.399 . S
C1445 C1450 1.399 . S
C1446 C1445 1.399 . S
C1446 C1447 1.376 . S
C1447 H1434 0.930 . S
C1447 C1446 1.376 . S
C1447 C1448 1.388 . S
C1448 H1435 0.930 . S
C1448 C1447 1.388 . S
C1448 C1449 1.390 . S
C1449 C1448 1.390 . S
C1449 C1450 1.394 . S
C1449 C1455 1.465 . S
C1450 C1445 1.399 . S
C1450 C1449 1.394 . S
C1450 C1451 1.516 . S
C1451 C1450 1.516 . S
C1451 C1452 1.502 . S
C1451 C1453 1.561 . S
C1451 C1454 1.526 . S
C1452 H1436 0.959 . S
C1452 H1437 0.959 . S
C1452 H1438 0.961 . S
C1452 C1451 1.502 . S
C1453 H1439 0.960 . S
C1453 H1440 0.961 . S
C1453 H1441 0.959 . S
C1453 C1451 1.561 . S
C1454 C1451 1.526 . S
C1454 C1455 1.396 . S
C1454 C1459 1.390 . S
C1455 C1449 1.465 . S
C1455 C1454 1.396 . S
C1455 C1456 1.399 . S
C1456 H1442 0.929 . S
C1456 C1455 1.399 . S
C1456 C1457 1.385 . S
C1457 H1443 0.931 . S
C1457 C1456 1.385 . S
C1457 C1458 1.389 . S
C1458 C1457 1.389 . S
C1458 C1459 1.387 . S
C1459 H1444 0.930 . S
C1459 C1454 1.390 . S
C1459 C1458 1.387 . S
H1460 C1472 0.930 . S
H1461 C1474 0.930 . S
H1462 C1475 0.930 . S
H1463 C1479 0.959 . S
H1464 C1479 0.959 . S
H1465 C1479 0.961 . S
H1466 C1480 0.960 . S
H1467 C1480 0.961 . S
H1468 C1480 0.959 . S
H1469 C1483 0.929 . S
H1470 C1484 0.931 . S
H1471 C1486 0.930 . S
C1472 H1460 0.930 . S
C1472 C1473 1.399 . S
C1472 C1477 1.399 . S
C1473 C1472 1.399 . S
C1473 C1474 1.376 . S
C1474 H1461 0.930 . S
C1474 C1473 1.376 . S
C1474 C1475 1.388 . S
C1475 H1462 0.930 . S
C1475 C1474 1.388 . S
C1475 C1476 1.390 . S
C1476 C1475 1.390 . S
C1476 C1477 1.394 . S
C1476 C1482 1.465 . S
C1477 C1472 1.399 . S
C1477 C1476 1.394 . S
C1477 C1478 1.516 . S
C1478 C1477 1.516 . S
C1478 C1479 1.502 . S
C1478 C1480 1.561 . S
C1478 C1481 1.526 . S
C1479 H1463 0.959 . S
C1479 H1464 0.959 . S
C1479 H1465 0.961 . S
C1479 C1478 1.502 . S
C1480 H1466 0.960 . S
C1480 H1467 0.961 . S
C1480 H1468 0.959 . S
C1480 C1478 1.561 . S
C1481 C1478 1.526 . S
C1481 C1482 1.396 . S
C1481 C1486 1.390 . S
C1482 C1476 1.465 . S
C1482 C1481 1.396 . S
C1482 C1483 1.399 . S
C1483 H1469 0.929 . S
C1483 C1482 1.399 . S
C1483 C1484 1.385 . S
C1484 H1470 0.931 . S
C1484 C1483 1.385 . S
C1484 C1485 1.389 . S
C1485 C1484 1.389 . S
C1485 C1486 1.387 . S
C1486 H1471 0.930 . S
C1486 C1481 1.390 . S
C1486 C1485 1.387 . S
H1487 C1499 0.930 . S
H1488 C1501 0.930 . S
H1489 C1502 0.930 . S
H1490 C1506 0.959 . S
H1491 C1506 0.959 . S
H1492 C1506 0.961 . S
H1493 C1507 0.960 . S
H1494 C1507 0.961 . S
H1495 C1507 0.959 . S
H1496 C1510 0.929 . S
H1497 C1511 0.931 . S
H1498 C1513 0.930 . S
C1499 H1487 0.930 . S
C1499 C1500 1.399 . S
C1499 C1504 1.399 . S
C1500 C1499 1.399 . S
C1500 C1501 1.376 . S
C1501 H1488 0.930 . S
C1501 C1500 1.376 . S
C1501 C1502 1.388 . S
C1502 H1489 0.930 . S
C1502 C1501 1.388 . S
C1502 C1503 1.390 . S
C1503 C1502 1.390 . S
C1503 C1504 1.394 . S
C1503 C1509 1.465 . S
C1504 C1499 1.399 . S
C1504 C1503 1.394 . S
C1504 C1505 1.516 . S
C1505 C1504 1.516 . S
C1505 C1506 1.502 . S
C1505 C1507 1.561 . S
C1505 C1508 1.526 . S
C1506 H1490 0.959 . S
C1506 H1491 0.959 . S
C1506 H1492 0.961 . S
C1506 C1505 1.502 . S
C1507 H1493 0.960 . S
C1507 H1494 0.961 . S
C1507 H1495 0.959 . S
C1507 C1505 1.561 . S
C1508 C1505 1.526 . S
C1508 C1509 1.396 . S
C1508 C1513 1.390 . S
C1509 C1503 1.465 . S
C1509 C1508 1.396 . S
C1509 C1510 1.399 . S
C1510 H1496 0.929 . S
C1510 C1509 1.399 . S
C1510 C1511 1.385 . S
C1511 H1497 0.931 . S
C1511 C1510 1.385 . S
C1511 C1512 1.389 . S
C1512 C1511 1.389 . S
C1512 C1513 1.387 . S
C1513 H1498 0.930 . S
C1513 C1508 1.390 . S
C1513 C1512 1.387 . S
H1514 C1526 0.930 . S
H1515 C1528 0.930 . S
H1516 C1529 0.930 . S
H1517 C1533 0.959 . S
H1518 C1533 0.959 . S
H1519 C1533 0.961 . S
H1520 C1534 0.960 . S
H1521 C1534 0.961 . S
H1522 C1534 0.959 . S
H1523 C1537 0.929 . S
H1524 C1538 0.931 . S
H1525 C1540 0.930 . S
C1526 H1514 0.930 . S
C1526 C1527 1.399 . S
C1526 C1531 1.399 . S
C1527 C1526 1.399 . S
C1527 C1528 1.376 . S
C1528 H1515 0.930 . S
C1528 C1527 1.376 . S
C1528 C1529 1.388 . S
C1529 H1516 0.930 . S
C1529 C1528 1.388 . S
C1529 C1530 1.390 . S
C1530 C1529 1.390 . S
C1530 C1531 1.394 . S
C1530 C1536 1.465 . S
C1531 C1526 1.399 . S
C1531 C1530 1.394 . S
C1531 C1532 1.516 . S
C1532 C1531 1.516 . S
C1532 C1533 1.502 . S
C1532 C1534 1.561 . S
C1532 C1535 1.526 . S
C1533 H1517 0.959 . S
C1533 H1518 0.959 . S
C1533 H1519 0.961 . S
C1533 C1532 1.502 . S
C1534 H1520 0.960 . S
C1534 H1521 0.961 . S
C1534 H1522 0.959 . S
C1534 C1532 1.561 . S
C1535 C1532 1.526 . S
C1535 C1536 1.396 . S
C1535 C1540 1.390 . S
C1536 C1530 1.465 . S
C1536 C1535 1.396 . S
C1536 C1537 1.399 . S
C1537 H1523 0.929 . S
C1537 C1536 1.399 . S
C1537 C1538 1.385 . S
C1538 H1524 0.931 . S
C1538 C1537 1.385 . S
C1538 C1539 1.389 . S
C1539 C1538 1.389 . S
C1539 C1540 1.387 . S
C1540 H1525 0.930 . S
C1540 C1535 1.390 . S
C1540 C1539 1.387 . S
H1541 C1553 0.930 . S
H1542 C1555 0.930 . S
H1543 C1556 0.930 . S
H1544 C1560 0.959 . S
H1545 C1560 0.959 . S
H1546 C1560 0.961 . S
H1547 C1561 0.960 . S
H1548 C1561 0.961 . S
H1549 C1561 0.959 . S
H1550 C1564 0.929 . S
H1551 C1565 0.931 . S
H1552 C1567 0.930 . S
C1553 H1541 0.930 . S
C1553 C1554 1.399 . S
C1553 C1558 1.399 . S
C1554 C1553 1.399 . S
C1554 C1555 1.376 . S
C1555 H1542 0.930 . S
C1555 C1554 1.376 . S
C1555 C1556 1.388 . S
C1556 H1543 0.930 . S
C1556 C1555 1.388 . S
C1556 C1557 1.390 . S
C1557 C1556 1.390 . S
C1557 C1558 1.394 . S
C1557 C1563 1.465 . S
C1558 C1553 1.399 . S
C1558 C1557 1.394 . S
C1558 C1559 1.516 . S
C1559 C1558 1.516 . S
C1559 C1560 1.502 . S
C1559 C1561 1.561 . S
C1559 C1562 1.526 . S
C1560 H1544 0.959 . S
C1560 H1545 0.959 . S
C1560 H1546 0.961 . S
C1560 C1559 1.502 . S
C1561 H1547 0.960 . S
C1561 H1548 0.961 . S
C1561 H1549 0.959 . S
C1561 C1559 1.561 . S
C1562 C1559 1.526 . S
C1562 C1563 1.396 . S
C1562 C1567 1.390 . S
C1563 C1557 1.465 . S
C1563 C1562 1.396 . S
C1563 C1564 1.399 . S
C1564 H1550 0.929 . S
C1564 C1563 1.399 . S
C1564 C1565 1.385 . S
C1565 H1551 0.931 . S
C1565 C1564 1.385 . S
C1565 C1566 1.389 . S
C1566 C1565 1.389 . S
C1566 C1567 1.387 . S
C1567 H1552 0.930 . S
C1567 C1562 1.390 . S
C1567 C1566 1.387 . S
H1568 C1580 0.930 . S
H1569 C1582 0.930 . S
H1570 C1583 0.930 . S
H1571 C1587 0.959 . S
H1572 C1587 0.959 . S
H1573 C1587 0.961 . S
H1574 C1588 0.960 . S
H1575 C1588 0.961 . S
H1576 C1588 0.959 . S
H1577 C1591 0.929 . S
H1578 C1592 0.931 . S
H1579 C1594 0.930 . S
C1580 H1568 0.930 . S
C1580 C1581 1.399 . S
C1580 C1585 1.399 . S
C1581 C1580 1.399 . S
C1581 C1582 1.376 . S
C1582 H1569 0.930 . S
C1582 C1581 1.376 . S
C1582 C1583 1.388 . S
C1583 H1570 0.930 . S
C1583 C1582 1.388 . S
C1583 C1584 1.390 . S
C1584 C1583 1.390 . S
C1584 C1585 1.394 . S
C1584 C1590 1.465 . S
C1585 C1580 1.399 . S
C1585 C1584 1.394 . S
C1585 C1586 1.516 . S
C1586 C1585 1.516 . S
C1586 C1587 1.502 . S
C1586 C1588 1.561 . S
C1586 C1589 1.526 . S
C1587 H1571 0.959 . S
C1587 H1572 0.959 . S
C1587 H1573 0.961 . S
C1587 C1586 1.502 . S
C1588 H1574 0.960 . S
C1588 H1575 0.961 . S
C1588 H1576 0.959 . S
C1588 C1586 1.561 . S
C1589 C1586 1.526 . S
C1589 C1590 1.396 . S
C1589 C1594 1.390 . S
C1590 C1584 1.465 . S
C1590 C1589 1.396 . S
C1590 C1591 1.399 . S
C1591 H1577 0.929 . S
C1591 C1590 1.399 . S
C1591 C1592 1.385 . S
C1592 H1578 0.931 . S
C1592 C1591 1.385 . S
C1592 C1593 1.389 . S
C1593 C1592 1.389 . S
C1593 C1594 1.387 . S
C1594 H1579 0.930 . S
C1594 C1589 1.390 . S
C1594 C1593 1.387 . S
H1595 C1607 0.930 . S
H1596 C1609 0.930 . S
H1597 C1610 0.930 . S
H1598 C1614 0.959 . S
H1599 C1614 0.959 . S
H1600 C1614 0.961 . S
H1601 C1615 0.960 . S
H1602 C1615 0.961 . S
H1603 C1615 0.959 . S
H1604 C1618 0.929 . S
H1605 C1619 0.931 . S
H1606 C1621 0.930 . S
C1607 H1595 0.930 . S
C1607 C1608 1.399 . S
C1607 C1612 1.399 . S
C1608 C1607 1.399 . S
C1608 C1609 1.376 . S
C1609 H1596 0.930 . S
C1609 C1608 1.376 . S
C1609 C1610 1.388 . S
C1610 H1597 0.930 . S
C1610 C1609 1.388 . S
C1610 C1611 1.390 . S
C1611 C1610 1.390 . S
C1611 C1612 1.394 . S
C1611 C1617 1.465 . S
C1612 C1607 1.399 . S
C1612 C1611 1.394 . S
C1612 C1613 1.516 . S
C1613 C1612 1.516 . S
C1613 C1614 1.502 . S
C1613 C1615 1.561 . S
C1613 C1616 1.526 . S
C1614 H1598 0.959 . S
C1614 H1599 0.959 . S
C1614 H1600 0.961 . S
C1614 C1613 1.502 . S
C1615 H1601 0.960 . S
C1615 H1602 0.961 . S
C1615 H1603 0.959 . S
C1615 C1613 1.561 . S
C1616 C1613 1.526 . S
C1616 C1617 1.396 . S
C1616 C1621 1.390 . S
C1617 C1611 1.465 . S
C1617 C1616 1.396 . S
C1617 C1618 1.399 . S
C1618 H1604 0.929 . S
C1618 C1617 1.399 . S
C1618 C1619 1.385 . S
C1619 H1605 0.931 . S
C1619 C1618 1.385 . S
C1619 C1620 1.389 . S
C1620 C1619 1.389 . S
C1620 C1621 1.387 . S
C1621 H1606 0.930 . S
C1621 C1616 1.390 . S
C1621 C1620 1.387 . S
H1622 C1634 0.930 . S
H1623 C1636 0.930 . S
H1624 C1637 0.930 . S
H1625 C1641 0.959 . S
H1626 C1641 0.959 . S
H1627 C1641 0.961 . S
H1628 C1642 0.960 . S
H1629 C1642 0.961 . S
H1630 C1642 0.959 . S
H1631 C1645 0.929 . S
H1632 C1646 0.931 . S
H1633 C1648 0.930 . S
C1634 H1622 0.930 . S
C1634 C1635 1.399 . S
C1634 C1639 1.399 . S
C1635 C1634 1.399 . S
C1635 C1636 1.376 . S
C1636 H1623 0.930 . S
C1636 C1635 1.376 . S
C1636 C1637 1.388 . S
C1637 H1624 0.930 . S
C1637 C1636 1.388 . S
C1637 C1638 1.390 . S
C1638 C1637 1.390 . S
C1638 C1639 1.394 . S
C1638 C1644 1.465 . S
C1639 C1634 1.399 . S
C1639 C1638 1.394 . S
C1639 C1640 1.516 . S
C1640 C1639 1.516 . S
C1640 C1641 1.502 . S
C1640 C1642 1.561 . S
C1640 C1643 1.526 . S
C1641 H1625 0.959 . S
C1641 H1626 0.959 . S
C1641 H1627 0.961 . S
C1641 C1640 1.502 . S
C1642 H1628 0.960 . S
C1642 H1629 0.961 . S
C1642 H1630 0.959 . S
C1642 C1640 1.561 . S
C1643 C1640 1.526 . S
C1643 C1644 1.396 . S
C1643 C1648 1.390 . S
C1644 C1638 1.465 . S
C1644 C1643 1.396 . S
C1644 C1645 1.399 . S
C1645 H1631 0.929 . S
C1645 C1644 1.399 . S
C1645 C1646 1.385 . S
C1646 H1632 0.931 . S
C1646 C1645 1.385 . S
C1646 C1647 1.389 . S
C1647 C1646 1.389 . S
C1647 C1648 1.387 . S
C1648 H1633 0.930 . S
C1648 C1643 1.390 . S
C1648 C1647 1.387 . S
H1649 C1661 0.930 . S
H1650 C1663 0.930 . S
H1651 C1664 0.930 . S
H1652 C1668 0.959 . S
H1653 C1668 0.959 . S
H1654 C1668 0.961 . S
H1655 C1669 0.960 . S
H1656 C1669 0.961 . S
H1657 C1669 0.959 . S
H1658 C1672 0.929 . S
H1659 C1673 0.931 . S
H1660 C1675 0.930 . S
C1661 H1649 0.930 . S
C1661 C1662 1.399 . S
C1661 C1666 1.399 . S
C1662 C1661 1.399 . S
C1662 C1663 1.376 . S
C1663 H1650 0.930 . S
C1663 C1662 1.376 . S
C1663 C1664 1.388 . S
C1664 H1651 0.930 . S
C1664 C1663 1.388 . S
C1664 C1665 1.390 . S
C1665 C1664 1.390 . S
C1665 C1666 1.394 . S
C1665 C1671 1.465 . S
C1666 C1661 1.399 . S
C1666 C1665 1.394 . S
C1666 C1667 1.516 . S
C1667 C1666 1.516 . S
C1667 C1668 1.502 . S
C1667 C1669 1.561 . S
C1667 C1670 1.526 . S
C1668 H1652 0.959 . S
C1668 H1653 0.959 . S
C1668 H1654 0.961 . S
C1668 C1667 1.502 . S
C1669 H1655 0.960 . S
C1669 H1656 0.961 . S
C1669 H1657 0.959 . S
C1669 C1667 1.561 . S
C1670 C1667 1.526 . S
C1670 C1671 1.396 . S
C1670 C1675 1.390 . S
C1671 C1665 1.465 . S
C1671 C1670 1.396 . S
C1671 C1672 1.399 . S
C1672 H1658 0.929 . S
C1672 C1671 1.399 . S
C1672 C1673 1.385 . S
C1673 H1659 0.931 . S
C1673 C1672 1.385 . S
C1673 C1674 1.389 . S
C1674 C1673 1.389 . S
C1674 C1675 1.387 . S
C1675 H1660 0.930 . S
C1675 C1670 1.390 . S
C1675 C1674 1.387 . S
H1676 C1688 0.930 . S
H1677 C1690 0.930 . S
H1678 C1691 0.930 . S
H1679 C1695 0.959 . S
H1680 C1695 0.959 . S
H1681 C1695 0.961 . S
H1682 C1696 0.960 . S
H1683 C1696 0.961 . S
H1684 C1696 0.959 . S
H1685 C1699 0.929 . S
H1686 C1700 0.931 . S
H1687 C1702 0.930 . S
C1688 H1676 0.930 . S
C1688 C1689 1.399 . S
C1688 C1693 1.399 . S
C1689 C1688 1.399 . S
C1689 C1690 1.376 . S
C1690 H1677 0.930 . S
C1690 C1689 1.376 . S
C1690 C1691 1.388 . S
C1691 H1678 0.930 . S
C1691 C1690 1.388 . S
C1691 C1692 1.390 . S
C1692 C1691 1.390 . S
C1692 C1693 1.394 . S
C1692 C1698 1.465 . S
C1693 C1688 1.399 . S
C1693 C1692 1.394 . S
C1693 C1694 1.516 . S
C1694 C1693 1.516 . S
C1694 C1695 1.502 . S
C1694 C1696 1.561 . S
C1694 C1697 1.526 . S
C1695 H1679 0.959 . S
C1695 H1680 0.959 . S
C1695 H1681 0.961 . S
C1695 C1694 1.502 . S
C1696 H1682 0.960 . S
C1696 H1683 0.961 . S
C1696 H1684 0.959 . S
C1696 C1694 1.561 . S
C1697 C1694 1.526 . S
C1697 C1698 1.396 . S
C1697 C1702 1.390 . S
C1698 C1692 1.465 . S
C1698 C1697 1.396 . S
C1698 C1699 1.399 . S
C1699 H1685 0.929 . S
C1699 C1698 1.399 . S
C1699 C1700 1.385 . S
C1700 H1686 0.931 . S
C1700 C1699 1.385 . S
C1700 C1701 1.389 . S
C1701 C1700 1.389 . S
C1701 C1702 1.387 . S
C1702 H1687 0.930 . S
C1702 C1697 1.390 . S
C1702 C1701 1.387 . S
H1703 C1715 0.930 . S
H1704 C1717 0.930 . S
H1705 C1718 0.930 . S
H1706 C1722 0.959 . S
H1707 C1722 0.959 . S
H1708 C1722 0.961 . S
H1709 C1723 0.960 . S
H1710 C1723 0.961 . S
H1711 C1723 0.959 . S
H1712 C1726 0.929 . S
H1713 C1727 0.931 1_554 S
H1714 C1729 0.930 . S
C1715 H1703 0.930 . S
C1715 C1716 1.399 . S
C1715 C1720 1.399 . S
C1716 C1715 1.399 . S
C1716 C1717 1.376 . S
C1717 H1704 0.930 . S
C1717 C1716 1.376 . S
C1717 C1718 1.388 . S
C1718 H1705 0.930 . S
C1718 C1717 1.388 . S
C1718 C1719 1.390 . S
C1719 C1718 1.390 . S
C1719 C1720 1.394 . S
C1719 C1725 1.465 . S
C1720 C1715 1.399 . S
C1720 C1719 1.394 . S
C1720 C1721 1.516 . S
C1721 C1720 1.516 . S
C1721 C1722 1.502 . S
C1721 C1723 1.561 . S
C1721 C1724 1.526 . S
C1722 H1706 0.959 . S
C1722 H1707 0.959 . S
C1722 H1708 0.961 . S
C1722 C1721 1.502 . S
C1723 H1709 0.960 . S
C1723 H1710 0.961 . S
C1723 H1711 0.959 . S
C1723 C1721 1.561 . S
C1724 C1721 1.526 . S
C1724 C1725 1.396 . S
C1724 C1729 1.390 . S
C1725 C1719 1.465 . S
C1725 C1724 1.396 . S
C1725 C1726 1.399 . S
C1726 H1712 0.929 . S
C1726 C1725 1.399 . S
C1726 C1727 1.385 . S
C1727 H1713 0.931 1_556 S
C1727 C1726 1.385 . S
C1727 C1728 1.389 . S
C1728 C1727 1.389 . S
C1728 C1729 1.387 . S
C1729 H1714 0.930 . S
C1729 C1724 1.390 . S
C1729 C1728 1.387 . S
H1730 C1742 0.930 . S
H1731 C1744 0.930 . S
H1732 C1745 0.930 . S
H1733 C1749 0.959 . S
H1734 C1749 0.959 . S
H1735 C1749 0.961 . S
H1736 C1750 0.960 . S
H1737 C1750 0.961 . S
H1738 C1750 0.959 . S
H1739 C1753 0.929 . S
H1740 C1754 0.931 . S
H1741 C1756 0.930 . S
C1742 H1730 0.930 . S
C1742 C1743 1.399 . S
C1742 C1747 1.399 . S
C1743 C1742 1.399 . S
C1743 C1744 1.376 . S
C1744 H1731 0.930 . S
C1744 C1743 1.376 . S
C1744 C1745 1.388 . S
C1745 H1732 0.930 . S
C1745 C1744 1.388 . S
C1745 C1746 1.390 . S
C1746 C1745 1.390 . S
C1746 C1747 1.394 . S
C1746 C1752 1.465 . S
C1747 C1742 1.399 . S
C1747 C1746 1.394 . S
C1747 C1748 1.516 . S
C1748 C1747 1.516 . S
C1748 C1749 1.502 . S
C1748 C1750 1.561 . S
C1748 C1751 1.526 . S
C1749 H1733 0.959 . S
C1749 H1734 0.959 . S
C1749 H1735 0.961 . S
C1749 C1748 1.502 . S
C1750 H1736 0.960 . S
C1750 H1737 0.961 . S
C1750 H1738 0.959 . S
C1750 C1748 1.561 . S
C1751 C1748 1.526 . S
C1751 C1752 1.396 . S
C1751 C1756 1.390 . S
C1752 C1746 1.465 . S
C1752 C1751 1.396 . S
C1752 C1753 1.399 . S
C1753 H1739 0.929 . S
C1753 C1752 1.399 . S
C1753 C1754 1.385 . S
C1754 H1740 0.931 . S
C1754 C1753 1.385 . S
C1754 C1755 1.389 . S
C1755 C1754 1.389 . S
C1755 C1756 1.387 . S
C1756 H1741 0.930 . S
C1756 C1751 1.390 . S
C1756 C1755 1.387 . S
H1757 C1769 0.930 . S
H1758 C1771 0.930 . S
H1759 C1772 0.930 . S
H1760 C1776 0.959 . S
H1761 C1776 0.959 . S
H1762 C1776 0.961 . S
H1763 C1777 0.960 . S
H1764 C1777 0.961 . S
H1765 C1777 0.959 . S
H1766 C1780 0.929 . S
H1767 C1781 0.931 . S
H1768 C1783 0.930 . S
C1769 H1757 0.930 . S
C1769 C1770 1.399 . S
C1769 C1774 1.399 . S
C1770 C1769 1.399 . S
C1770 C1771 1.376 . S
C1771 H1758 0.930 . S
C1771 C1770 1.376 . S
C1771 C1772 1.388 . S
C1772 H1759 0.930 . S
C1772 C1771 1.388 . S
C1772 C1773 1.390 . S
C1773 C1772 1.390 . S
C1773 C1774 1.394 . S
C1773 C1779 1.465 . S
C1774 C1769 1.399 . S
C1774 C1773 1.394 . S
C1774 C1775 1.516 . S
C1775 C1774 1.516 . S
C1775 C1776 1.502 . S
C1775 C1777 1.561 . S
C1775 C1778 1.526 . S
C1776 H1760 0.959 . S
C1776 H1761 0.959 . S
C1776 H1762 0.961 . S
C1776 C1775 1.502 . S
C1777 H1763 0.960 . S
C1777 H1764 0.961 . S
C1777 H1765 0.959 . S
C1777 C1775 1.561 . S
C1778 C1775 1.526 . S
C1778 C1779 1.396 . S
C1778 C1783 1.390 . S
C1779 C1773 1.465 . S
C1779 C1778 1.396 . S
C1779 C1780 1.399 . S
C1780 H1766 0.929 . S
C1780 C1779 1.399 . S
C1780 C1781 1.385 . S
C1781 H1767 0.931 . S
C1781 C1780 1.385 . S
C1781 C1782 1.389 . S
C1782 C1781 1.389 . S
C1782 C1783 1.387 . S
C1783 H1768 0.930 . S
C1783 C1778 1.390 . S
C1783 C1782 1.387 . S
C945 C525 1.587 . S
C933 C47 1.466 . S
C972 C578 1.315 . S
C960 C115 1.331 . S
C999 C641 1.584 . S
C987 C153 1.447 . S
C1026 C684 1.430 . S
C1014 C233 1.291 . S
C1041 C283 1.490 . S
C1053 C640 1.554 . S
C1080 C677 1.430 . S
C1068 C357 1.274 . S
C1107 C518 1.624 . S
C1095 C401 1.477 . S
C1134 C571 1.349 . S
C1122 C463 1.141 . S
C1161 C624 1.411 . S
C1149 C469 1.419 . S
C1188 C693 1.801 . S
C1176 C277 1.698 . S
C1215 C534 1.564 . S
C1203 C363 1.569 . S
C1242 C587 1.622 . S
C1230 C407 1.570 . S
C1269 C535 1.568 . S
C1257 C109 1.395 . S
C1296 C588 1.676 . S
C1284 C159 1.657 . S
C1323 C631 1.385 . S
C1311 C239 1.397 . S
C1350 C694 1.721 . S
C1338 C53 1.678 . S
C1377 C737 1.570 . S
C1365 C481 1.423 . S
C1392 C301 1.674 . S
C1404 C790 1.679 . S
C1419 C339 1.498 . S
C1431 C852 1.578 . S
C1446 C419 1.656 . S
C1458 C906 1.841 . S
C1473 C97 1.496 . S
C1485 C853 1.507 . S
C1500 C171 1.701 . S
C1512 C905 1.858 . S
C1527 C215 1.500 . S
C1539 C730 1.636 . S
C1566 C783 1.719 . S
C1554 C29 1.507 . S
C1593 C843 1.414 . S
C1581 C35 1.307 . S
C1608 C91 1.284 . S
C1620 C889 1.353 . S
C1635 C177 1.607 . S
C1647 C746 1.602 . S
C1662 C221 1.224 . S
C1674 C799 1.262 . S
C1701 C747 1.551 . S
C1689 C295 1.377 . S
C1728 C800 1.294 . S
C1716 C345 1.297 . S
C1743 C425 1.417 . S
C1755 C836 1.407 . S
C1782 C896 1.296 . S
C1770 C487 1.261 . S
