# Generated by pormake.
# Topology ant, (3,6)-cn, num edge types: 1
# Building blocks:
#     Node 0, Type 0, BuildingBlock: PAMTOO_clean_linker_0, # of connection points: 3
#     Node 1, Type 0, BuildingBlock: PAMTOO_clean_linker_0, # of connection points: 3
#     Node 2, Type 0, BuildingBlock: PAMTOO_clean_linker_0, # of connection points: 3
#     Node 3, Type 0, BuildingBlock: PAMTOO_clean_linker_0, # of connection points: 3
#     Node 4, Type 0, BuildingBlock: PAMTOO_clean_linker_0, # of connection points: 3
#     Node 5, Type 0, BuildingBlock: PAMTOO_clean_linker_0, # of connection points: 3
#     Node 6, Type 0, BuildingBlock: PAMTOO_clean_linker_0, # of connection points: 3
#     Node 7, Type 0, BuildingBlock: PAMTOO_clean_linker_0, # of connection points: 3
#     Node 8, Type 1, BuildingBlock: MIDCAF_clean_sbu_0, # of connection points: 6
#     Node 9, Type 1, BuildingBlock: MIDCAF_clean_sbu_0, # of connection points: 6
#     Node 10, Type 1, BuildingBlock: MIDCAF_clean_sbu_0, # of connection points: 6
#     Node 11, Type 1, BuildingBlock: MIDCAF_clean_sbu_0, # of connection points: 6
#     Edge 12, Type (0, 1), BuildingBlock: XUDNAN_clean_linker_2, # of connection points: 2
#     Edge 13, Type (0, 1), BuildingBlock: XUDNAN_clean_linker_2, # of connection points: 2
#     Edge 14, Type (0, 1), BuildingBlock: XUDNAN_clean_linker_2, # of connection points: 2
#     Edge 15, Type (0, 1), BuildingBlock: XUDNAN_clean_linker_2, # of connection points: 2
#     Edge 16, Type (0, 1), BuildingBlock: XUDNAN_clean_linker_2, # of connection points: 2
#     Edge 17, Type (0, 1), BuildingBlock: XUDNAN_clean_linker_2, # of connection points: 2
#     Edge 18, Type (0, 1), BuildingBlock: XUDNAN_clean_linker_2, # of connection points: 2
#     Edge 19, Type (0, 1), BuildingBlock: XUDNAN_clean_linker_2, # of connection points: 2
#     Edge 20, Type (0, 1), BuildingBlock: XUDNAN_clean_linker_2, # of connection points: 2
#     Edge 21, Type (0, 1), BuildingBlock: XUDNAN_clean_linker_2, # of connection points: 2
#     Edge 22, Type (0, 1), BuildingBlock: XUDNAN_clean_linker_2, # of connection points: 2
#     Edge 23, Type (0, 1), BuildingBlock: XUDNAN_clean_linker_2, # of connection points: 2
#     Edge 24, Type (0, 1), BuildingBlock: XUDNAN_clean_linker_2, # of connection points: 2
#     Edge 25, Type (0, 1), BuildingBlock: XUDNAN_clean_linker_2, # of connection points: 2
#     Edge 26, Type (0, 1), BuildingBlock: XUDNAN_clean_linker_2, # of connection points: 2
#     Edge 27, Type (0, 1), BuildingBlock: XUDNAN_clean_linker_2, # of connection points: 2
#     Edge 28, Type (0, 1), BuildingBlock: XUDNAN_clean_linker_2, # of connection points: 2
#     Edge 29, Type (0, 1), BuildingBlock: XUDNAN_clean_linker_2, # of connection points: 2
#     Edge 30, Type (0, 1), BuildingBlock: XUDNAN_clean_linker_2, # of connection points: 2
#     Edge 31, Type (0, 1), BuildingBlock: XUDNAN_clean_linker_2, # of connection points: 2
#     Edge 32, Type (0, 1), BuildingBlock: XUDNAN_clean_linker_2, # of connection points: 2
#     Edge 33, Type (0, 1), BuildingBlock: XUDNAN_clean_linker_2, # of connection points: 2
#     Edge 34, Type (0, 1), BuildingBlock: XUDNAN_clean_linker_2, # of connection points: 2
#     Edge 35, Type (0, 1), BuildingBlock: XUDNAN_clean_linker_2, # of connection points: 2
# Relax obj value: 0.057
# Max RMSD: 0.149
# Mean RMSD: 0.093
data_MOF--net-ant--node1-MIDCAF_clean_sbu_0--node2-PAMTOO_clean_linker_0--edge1-XUDNAN_clean_linker_2
_symmetry_space_group_name_H-M    P1
_symmetry_Int_Tables_number       1
_symmetry_cell_setting            triclinic
loop_
_symmetry_equiv_pos_as_xyz
'x, y, z'
_cell_length_a     28.838473
_cell_length_b     28.398126
_cell_length_c     70.433073
_cell_angle_alpha  86.233997
_cell_angle_beta   98.696139
_cell_angle_gamma 90.32353
loop_
_atom_site_label
_atom_site_type_symbol
_atom_site_fract_x
_atom_site_fract_y
_atom_site_fract_z
_atom_type_partial_charge
H0 H 0.22349 0.11567 0.05215 0.0
H1 H 0.17464 0.25931 0.04526 0.0
H2 H 0.25065 0.20559 0.09956 0.0
H3 H 0.17513 0.28535 0.10249 0.0
C4 C 0.17236 0.29735 0.08702 0.0
O5 O 0.21078 0.28108 0.07977 0.0
H6 H 0.13938 0.28268 0.07932 0.0
C7 C 0.22109 0.14982 0.05801 0.0
C8 C 0.24062 0.15618 0.07715 0.0
C9 C 0.1964 0.18638 0.04663 0.0
C10 C 0.19276 0.23044 0.05414 0.0
C11 C 0.21272 0.23763 0.07311 0.0
C12 C 0.2359 0.2002 0.08479 0.0
H13 H 0.17535 0.80395 0.28653 0.0
H14 H 0.02728 0.81558 0.28781 0.0
H15 H 0.1259 0.87365 0.33215 0.0
H16 H 0.04085 0.8403 0.34908 0.0
C17 C 0.02555 0.82654 0.33509 0.0
O18 O 0.03699 0.85683 0.32035 0.0
H19 H 0.04095 0.79071 0.33475 0.0
C20 C 0.14665 0.81696 0.2931 0.0
C21 C 0.15633 0.84071 0.3101 0.0
C22 C 0.10029 0.80862 0.28481 0.0
C23 C 0.06318 0.82355 0.29369 0.0
C24 C 0.07252 0.847 0.31074 0.0
C25 C 0.11899 0.85662 0.31869 0.0
H26 H 0.77633 0.63673 0.54933 0.0
H27 H 0.73676 0.78236 0.54669 0.0
H28 H 0.75232 0.70214 0.60073 0.0
H29 H 0.67646 0.78035 0.59612 0.0
C30 C 0.68921 0.7989 0.58351 0.0
O31 O 0.73514 0.78566 0.58327 0.0
H32 H 0.66602 0.78852 0.57033 0.0
C33 C 0.76752 0.66689 0.55664 0.0
C34 C 0.76592 0.6627 0.57661 0.0
C35 C 0.75422 0.70874 0.54553 0.0
C36 C 0.74588 0.74921 0.5549 0.0
C37 C 0.74618 0.74674 0.57478 0.0
C38 C 0.75526 0.70355 0.58558 0.0
H39 H 0.66164 0.33051 0.78423 0.0
H40 H 0.51939 0.31568 0.79504 0.0
H41 H 0.62887 0.34064 0.84158 0.0
H42 H 0.54234 0.28646 0.85648 0.0
C43 C 0.52704 0.28648 0.84102 0.0
O44 O 0.53874 0.32819 0.8317 0.0
H45 H 0.54204 0.25535 0.83518 0.0
C46 C 0.63632 0.33098 0.79412 0.0
C47 C 0.65174 0.33682 0.81376 0.0
C48 C 0.58889 0.32256 0.78725 0.0
C49 C 0.55606 0.32266 0.80002 0.0
C50 C 0.57055 0.33011 0.81944 0.0
C51 C 0.61816 0.33715 0.82632 0.0
H52 H 0.08958 0.80381 0.95267 0.0
H53 H 0.06916 0.66658 0.93052 0.0
H54 H 0.04908 0.79019 0.89172 0.0
H55 H 0.99171 0.70205 0.87292 0.0
C56 C 1.00184 0.68497 0.8876 0.0
O57 O 0.04731 0.69783 0.89449 0.0
H58 H 0.97656 0.69776 0.89665 0.0
C59 C 0.08027 0.78236 0.9405 0.0
C60 C 0.06943 0.80395 0.92179 0.0
C61 C 0.08021 0.73302 0.94376 0.0
C62 C 0.0696 0.70467 0.92816 0.0
C63 C 0.05824 0.72546 0.90946 0.0
C64 C 0.05842 0.77483 0.90627 0.0
H65 H 0.60358 0.84341 0.19307 0.0
H66 H 0.74884 0.81611 0.19055 0.0
H67 H 0.64805 0.8193 0.1388 0.0
H68 H 0.74035 0.75145 0.13711 0.0
C69 C 0.7522 0.76166 0.15201 0.0
O70 O 0.73745 0.8074 0.15352 0.0
H71 H 0.73621 0.73647 0.16196 0.0
C72 C 0.63132 0.83775 0.18462 0.0
C73 C 0.62018 0.83396 0.1647 0.0
C74 C 0.67744 0.83108 0.19399 0.0
C75 C 0.71322 0.82212 0.18334 0.0
C76 C 0.70268 0.81789 0.16347 0.0
C77 C 0.65612 0.82341 0.15413 0.0
H78 H 0.60089 0.32605 0.45314 0.0
H79 H 0.56922 0.19076 0.43016 0.0
H80 H 0.54738 0.31649 0.39291 0.0
H81 H 0.48125 0.22757 0.3763 0.0
C82 C 0.4967 0.20878 0.39011 0.0
O83 O 0.54243 0.22394 0.39502 0.0
H84 H 0.4748 0.21767 0.40115 0.0
C85 C 0.58851 0.30525 0.44106 0.0
C86 C 0.57487 0.32814 0.42269 0.0
C87 C 0.58623 0.25574 0.44407 0.0
C88 C 0.57049 0.2289 0.42833 0.0
C89 C 0.55653 0.25082 0.41001 0.0
C90 C 0.55867 0.3002 0.40719 0.0
H91 H 0.0949 0.33302 0.69755 0.0
H92 H 0.23799 0.30847 0.69032 0.0
H93 H 0.13004 0.31812 0.64094 0.0
H94 H 0.21559 0.25305 0.63434 0.0
C95 C 0.23232 0.2603 0.64911 0.0
O96 O 0.22023 0.30538 0.65292 0.0
H97 H 0.2192 0.23337 0.65925 0.0
C98 C 0.12096 0.32908 0.68815 0.0
C99 C 0.10679 0.32789 0.66823 0.0
C100 C 0.16811 0.32194 0.69617 0.0
C101 C 0.20163 0.31497 0.68419 0.0
C102 C 0.18788 0.31385 0.66429 0.0
C103 C 0.14051 0.32001 0.65631 0.0
Zn104 Zn 0.23597 0.67454 0.1468 0.0
Zn105 Zn 0.12554 0.79603 0.10556 0.0
Zn106 Zn 0.18098 0.7349 0.12435 0.0
C107 C 0.13574 0.72498 0.08063 0.0
C108 C 0.20711 0.84445 0.11557 0.0
O109 O 0.15177 0.72111 0.15133 0.0
O110 O 0.20365 0.67441 0.16984 0.0
C111 C 0.20121 0.62804 0.11388 0.0
O112 O 0.16018 0.70538 0.09591 0.0
O113 O 0.11827 0.76551 0.08102 0.0
O114 O 0.16477 0.85212 0.10862 0.0
O115 O 0.22135 0.80212 0.12125 0.0
O116 O 0.22514 0.62123 0.13037 0.0
O117 O 0.18276 0.669 0.10845 0.0
O118 O 0.25246 0.76728 0.13045 0.0
O119 O 0.29568 0.70886 0.14621 0.0
C120 C 0.29272 0.75022 0.13838 0.0
O121 O 0.11623 0.74441 0.13855 0.0
O122 O 0.07119 0.79482 0.11889 0.0
C123 C 0.16601 0.69801 0.16752 0.0
C124 C 0.07738 0.76788 0.13398 0.0
Zn125 Zn 0.55737 0.71917 0.34426 0.0
Zn126 Zn 0.64483 0.82915 0.38662 0.0
Zn127 Zn 0.59803 0.77545 0.36701 0.0
C128 C 0.56944 0.8824 0.37276 0.0
C129 C 0.70439 0.808 0.36305 0.0
O130 O 0.59697 0.70253 0.38252 0.0
O131 O 0.57566 0.65815 0.35815 0.0
C132 C 0.48943 0.78342 0.35207 0.0
O133 O 0.55415 0.84025 0.36966 0.0
O134 O 0.61255 0.88878 0.37807 0.0
O135 O 0.70789 0.82349 0.37957 0.0
O136 O 0.66447 0.79242 0.35508 0.0
O137 O 0.49372 0.7436 0.3455 0.0
O138 O 0.52611 0.805 0.35992 0.0
O139 O 0.63127 0.77826 0.34044 0.0
O140 O 0.58435 0.73559 0.32066 0.0
C141 C 0.61912 0.76266 0.32362 0.0
O142 O 0.61834 0.73642 0.39497 0.0
O143 O 0.63431 0.79904 0.41169 0.0
C144 C 0.58957 0.66129 0.37587 0.0
C145 C 0.62815 0.75511 0.41123 0.0
Zn146 Zn 0.62003 0.29552 0.60233 0.0
Zn147 Zn 0.71381 0.17966 0.65042 0.0
Zn148 Zn 0.668 0.2368 0.62431 0.0
C149 C 0.77715 0.24811 0.64076 0.0
C150 C 0.68184 0.12685 0.61906 0.0
O151 O 0.59815 0.24789 0.63397 0.0
O152 O 0.55692 0.28826 0.60934 0.0
C153 C 0.69568 0.34564 0.61684 0.0
O154 O 0.73838 0.26773 0.63256 0.0
O155 O 0.77715 0.2066 0.64837 0.0
O156 O 0.69541 0.12211 0.63698 0.0
O157 O 0.67354 0.16845 0.61074 0.0
O158 O 0.65386 0.35342 0.60915 0.0
O159 O 0.70974 0.30309 0.62215 0.0
O160 O 0.65673 0.20379 0.59635 0.0
O161 O 0.63261 0.26848 0.57851 0.0
C162 C 0.64582 0.22598 0.57975 0.0
O163 O 0.63066 0.23157 0.64939 0.0
O164 O 0.68114 0.19463 0.67229 0.0
C165 C 0.5588 0.26617 0.62556 0.0
C166 C 0.64295 0.21658 0.66709 0.0
Zn167 Zn 0.0528 0.19651 0.84251 0.0
Zn168 Zn 0.14697 0.30188 0.8907 0.0
Zn169 Zn 0.09324 0.25048 0.86753 0.0
C170 C 0.1254 0.22009 0.91191 0.0
C171 C 0.06545 0.35435 0.87793 0.0
O172 O 0.13031 0.25243 0.8419 0.0
O173 O 0.08669 0.21049 0.82069 0.0
C174 C 0.07642 0.13699 0.87459 0.0
O175 O 0.10451 0.20901 0.89535 0.0
O176 O 0.14585 0.25924 0.91385 0.0
O177 O 0.10644 0.35827 0.88688 0.0
O178 O 0.05203 0.31552 0.87028 0.0
O179 O 0.06411 0.13465 0.85673 0.0
O180 O 0.08562 0.17752 0.88162 0.0
O181 O 0.02341 0.28376 0.85878 0.0
O182 O 0.99079 0.22746 0.8411 0.0
C183 C 0.98725 0.26623 0.84862 0.0
O184 O 0.16281 0.2655 0.85742 0.0
O185 O 0.20545 0.30488 0.87983 0.0
C186 C 0.12137 0.23705 0.82489 0.0
C187 C 0.20194 0.28502 0.8642 0.0
H188 H 0.23974 0.35849 0.10193 0.0
H189 H 0.10112 0.35582 0.06832 0.0
H190 H 0.09722 0.44314 0.06735 0.0
H191 H 0.21725 0.44647 0.13113 0.0
H192 H 0.27419 0.47357 0.13229 0.0
H193 H 0.26763 0.41199 0.12812 0.0
H194 H 0.30461 0.42584 0.09686 0.0
H195 H 0.31093 0.48773 0.1009 0.0
H196 H 0.27942 0.46949 0.07852 0.0
H197 H 0.10577 0.53109 0.07328 0.0
H198 H 0.12467 0.60865 0.08684 0.0
H199 H 0.25851 0.55251 0.11539 0.0
C200 C 0.20904 0.37648 0.09403 0.0
C201 C 0.17096 0.35063 0.08506 0.0
C202 C 0.13086 0.37512 0.07516 0.0
C203 C 0.12844 0.42469 0.07447 0.0
C204 C 0.16657 0.44925 0.08362 0.0
C205 C 0.20621 0.42579 0.09313 0.0
C206 C 0.24097 0.4596 0.10307 0.0
C207 C 0.25052 0.44717 0.12494 0.0
C208 C 0.28669 0.46072 0.09431 0.0
C209 C 0.21412 0.50553 0.09831 0.0
C210 C 0.17155 0.49929 0.08684 0.0
C211 C 0.13941 0.53648 0.08198 0.0
C212 C 0.15051 0.58056 0.0896 0.0
C213 C 0.19318 0.58673 0.10202 0.0
C214 C 0.22576 0.54904 0.10579 0.0
H215 H 0.96678 0.87658 0.35348 0.0
H216 H 0.96718 0.76688 0.31361 0.0
H217 H 0.88195 0.75458 0.31374 0.0
H218 H 0.89315 0.82055 0.38226 0.0
H219 H 0.86276 0.87313 0.38663 0.0
H220 H 0.92181 0.87708 0.38138 0.0
H221 H 0.89501 0.93808 0.35285 0.0
H222 H 0.83577 0.93447 0.35808 0.0
H223 H 0.84776 0.9235 0.33437 0.0
H224 H 0.79869 0.7483 0.32148 0.0
H225 H 0.72506 0.75001 0.33555 0.0
H226 H 0.77982 0.86547 0.36953 0.0
C227 C 0.94861 0.85059 0.34453 0.0
C228 C 0.9732 0.82227 0.33369 0.0
C229 C 0.94863 0.78859 0.3221 0.0
C230 C 0.90037 0.78151 0.32206 0.0
C231 C 0.87728 0.80898 0.33346 0.0
C232 C 0.90059 0.8432 0.34432 0.0
C233 C 0.86875 0.86598 0.35628 0.0
C234 C 0.88775 0.85872 0.37791 0.0
C235 C 0.86139 0.91863 0.35001 0.0
C236 C 0.82433 0.83822 0.35099 0.0
C237 C 0.82955 0.80585 0.33765 0.0
C238 C 0.79391 0.77424 0.33162 0.0
C239 C 0.75209 0.77561 0.33958 0.0
C240 C 0.74637 0.80846 0.35332 0.0
C241 C 0.78294 0.84027 0.35889 0.0
H242 H 0.74795 0.57532 0.56183 0.0
H243 H 0.79225 0.63959 0.61602 0.0
H244 H 0.79056 0.56104 0.63305 0.0
H245 H 0.67346 0.49574 0.57559 0.0
H246 H 0.68962 0.44925 0.56159 0.0
H247 H 0.69834 0.50963 0.5539 0.0
H248 H 0.78659 0.4929 0.55377 0.0
H249 H 0.77813 0.43203 0.56141 0.0
H250 H 0.82186 0.46687 0.57516 0.0
H251 H 0.76836 0.47683 0.644 0.0
H252 H 0.73416 0.39675 0.64701 0.0
H253 H 0.72186 0.38782 0.58547 0.0
C254 C 0.75992 0.57381 0.57713 0.0
C255 C 0.77057 0.61492 0.58729 0.0
C256 C 0.78303 0.60945 0.60764 0.0
C257 C 0.7829 0.56465 0.6175 0.0
C258 C 0.77208 0.5253 0.60683 0.0
C259 C 0.76208 0.52964 0.58701 0.0
C260 C 0.74938 0.4829 0.57862 0.0
C261 C 0.69979 0.48452 0.56675 0.0
C262 C 0.7862 0.46779 0.56653 0.0
C263 C 0.75122 0.45163 0.59686 0.0
C264 C 0.76433 0.47641 0.61309 0.0
C265 C 0.76036 0.4565 0.63146 0.0
C266 C 0.7414 0.41087 0.63311 0.0
C267 C 0.72812 0.38548 0.61656 0.0
C268 C 0.73438 0.4057 0.59839 0.0
H269 H 0.72099 0.2857 0.80198 0.0
H270 H 0.69881 0.3881 0.84288 0.0
H271 H 0.78378 0.38528 0.85568 0.0
H272 H 0.80411 0.21606 0.83198 0.0
H273 H 0.83827 0.20469 0.81334 0.0
H274 H 0.77649 0.21673 0.80723 0.0
H275 H 0.7936 0.28568 0.78328 0.0
H276 H 0.85555 0.27376 0.78929 0.0
H277 H 0.83315 0.33189 0.79163 0.0
H278 H 0.87251 0.3666 0.86502 0.0
H279 H 0.95339 0.33387 0.8696 0.0
H280 H 0.91458 0.2492 0.82078 0.0
C281 C 0.7338 0.30867 0.81328 0.0
C282 C 0.70299 0.33759 0.82122 0.0
C283 C 0.72156 0.36547 0.83656 0.0
C284 C 0.76985 0.36434 0.84385 0.0
C285 C 0.79913 0.33544 0.83554 0.0
C286 C 0.78154 0.30838 0.82049 0.0
C287 C 0.81935 0.27911 0.81425 0.0
C288 C 0.80892 0.22603 0.81687 0.0
C289 C 0.82579 0.29349 0.79338 0.0
C290 C 0.86109 0.29316 0.82832 0.0
C291 C 0.84918 0.32575 0.84051 0.0
C292 C 0.8822 0.34168 0.85531 0.0
C293 C 0.92821 0.32333 0.85773 0.0
C294 C 0.94064 0.28966 0.84542 0.0
C295 C 0.9065 0.27512 0.83043 0.0
H296 H 0.04124 0.62969 0.86376 0.0
H297 H 0.95666 0.62155 0.90972 0.0
H298 H 0.95272 0.53466 0.9084 0.0
H299 H 0.98495 0.53185 0.83681 0.0
H300 H 0.03976 0.51139 0.83091 0.0
H301 H 0.03153 0.57315 0.834 0.0
H302 H 0.10572 0.57231 0.85993 0.0
H303 H 0.11449 0.51093 0.85665 0.0
H304 H 0.11014 0.52972 0.88027 0.0
H305 H 0.96449 0.44833 0.90416 0.0
H306 H 0.99655 0.3701 0.89919 0.0
H307 H 0.07226 0.43425 0.85573 0.0
C308 C 0.02134 0.6095 0.87332 0.0
C309 C 0.99871 0.63213 0.88666 0.0
C310 C 0.97377 0.60477 0.89925 0.0
C311 C 0.97116 0.5555 0.89852 0.0
C312 C 0.99364 0.53416 0.8851 0.0
C313 C 0.01849 0.56032 0.87279 0.0
C314 C 0.04298 0.52867 0.8609 0.0
C315 C 0.02363 0.53676 0.83938 0.0
C316 C 0.09648 0.53582 0.86468 0.0
C317 C 0.0292 0.48056 0.86881 0.0
C318 C 1.00005 0.48441 0.88253 0.0
C319 C 0.98626 0.44482 0.89308 0.0
C320 C 0.00413 0.40046 0.89004 0.0
C321 C 0.03497 0.39611 0.87645 0.0
C322 C 0.04682 0.43652 0.86549 0.0
H323 H 0.81845 0.82829 0.14441 0.0
H324 H 0.80484 0.68466 0.16761 0.0
H325 H 0.89092 0.67406 0.17095 0.0
H326 H 0.90006 0.80668 0.11599 0.0
H327 H 0.93297 0.86027 0.11981 0.0
H328 H 0.87203 0.85866 0.12245 0.0
H329 H 0.89281 0.88588 0.15718 0.0
H330 H 0.95407 0.88745 0.15459 0.0
H331 H 0.93514 0.85276 0.17434 0.0
H332 H 0.9773 0.67599 0.16736 0.0
H333 H 0.05337 0.68942 0.15559 0.0
H334 H 0.01021 0.8326 0.1361 0.0
C335 C 0.83374 0.79517 0.15083 0.0
C336 C 0.80511 0.75769 0.15626 0.0
C337 C 0.82631 0.71419 0.16381 0.0
C338 C 0.87517 0.70791 0.16581 0.0
C339 C 0.90248 0.7456 0.16029 0.0
C340 C 0.88241 0.78853 0.15308 0.0
C341 C 0.91851 0.82194 0.14636 0.0
C342 C 0.90509 0.83776 0.12489 0.0
C343 C 0.92553 0.86453 0.15887 0.0
C344 C 0.96139 0.7903 0.14983 0.0
C345 C 0.95198 0.74671 0.15829 0.0
C346 C 0.98533 0.71037 0.16114 0.0
C347 C 0.02861 0.71833 0.15453 0.0
C348 C 0.03784 0.76216 0.14511 0.0
C349 C 0.00433 0.79886 0.14343 0.0
H350 H 0.59866 0.3816 0.39133 0.0
H351 H 0.5574 0.39514 0.44752 0.0
H352 H 0.56476 0.4816 0.44332 0.0
H353 H 0.68138 0.47812 0.39276 0.0
H354 H 0.66438 0.49674 0.36772 0.0
H355 H 0.65919 0.43564 0.37575 0.0
H356 H 0.57095 0.43695 0.36135 0.0
H357 H 0.57607 0.4978 0.35308 0.0
H358 H 0.53301 0.48088 0.3683 0.0
H359 H 0.57465 0.56871 0.43232 0.0
H360 H 0.57864 0.64631 0.41417 0.0
H361 H 0.61032 0.5747 0.36514 0.0
C362 C 0.59087 0.40254 0.40277 0.0
C363 C 0.57794 0.38091 0.41988 0.0
C364 C 0.5685 0.41027 0.43445 0.0
C365 C 0.5724 0.45966 0.43217 0.0
C366 C 0.58557 0.47966 0.4152 0.0
C367 C 0.59423 0.4519 0.40069 0.0
C368 C 0.60534 0.48196 0.3834 0.0
C369 C 0.65556 0.47254 0.3797 0.0
C370 C 0.56918 0.47392 0.36548 0.0
C371 C 0.6008 0.53094 0.39028 0.0
C372 C 0.59011 0.52915 0.40877 0.0
C373 C 0.58322 0.57041 0.41785 0.0
C374 C 0.58595 0.6144 0.40753 0.0
C375 C 0.59496 0.61666 0.38829 0.0
C376 C 0.60343 0.57424 0.37985 0.0
H377 H 0.0541 0.26103 0.64915 0.0
H378 H 0.04555 0.39889 0.67129 0.0
H379 H 0.95903 0.39788 0.66263 0.0
H380 H 0.95163 0.27404 0.60955 0.0
H381 H 0.93389 0.21379 0.61383 0.0
H382 H 0.99507 0.22934 0.61845 0.0
H383 H 0.99999 0.19327 0.65347 0.0
H384 H 0.93892 0.17795 0.64903 0.0
H385 H 0.96031 0.21392 0.66862 0.0
H386 H 0.87326 0.37762 0.65509 0.0
H387 H 0.79589 0.33813 0.65059 0.0
H388 H 0.86037 0.21287 0.63431 0.0
C389 C 0.03398 0.29165 0.65149 0.0
C390 C 0.05621 0.3305 0.66046 0.0
C391 C 0.02891 0.36919 0.66413 0.0
C392 C 0.97989 0.3689 0.65924 0.0
C393 C 0.95877 0.32948 0.65082 0.0
C394 C 0.985 0.29154 0.64698 0.0
C395 C 0.95376 0.25119 0.64003 0.0
C396 C 0.9589 0.24154 0.61923 0.0
C397 C 0.96385 0.20647 0.6536 0.0
C398 C 0.90598 0.27173 0.64111 0.0
C399 C 0.90946 0.3173 0.64697 0.0
C400 C 0.87007 0.34239 0.65005 0.0
C401 C 0.82619 0.32009 0.64725 0.0
C402 C 0.82215 0.27333 0.64156 0.0
C403 C 0.86253 0.24904 0.63837 0.0
H404 H 0.28955 0.31478 0.62918 0.0
H405 H 0.29254 0.19648 0.67146 0.0
H406 H 0.37823 0.1881 0.67202 0.0
H407 H 0.36987 0.26904 0.60233 0.0
H408 H 0.39725 0.32483 0.59744 0.0
H409 H 0.33719 0.32325 0.60155 0.0
H410 H 0.35722 0.37972 0.62908 0.0
H411 H 0.41745 0.38145 0.62504 0.0
H412 H 0.40364 0.3642 0.64863 0.0
H413 H 0.46289 0.1891 0.66577 0.0
H414 H 0.5383 0.19974 0.65328 0.0
H415 H 0.47967 0.3198 0.61645 0.0
C416 C 0.3085 0.28759 0.63875 0.0
C417 C 0.28476 0.25649 0.65037 0.0
C418 C 0.31032 0.22083 0.66253 0.0
C419 C 0.35892 0.21589 0.66297 0.0
C420 C 0.38134 0.2471 0.65124 0.0
C421 C 0.35692 0.28243 0.63944 0.0
C422 C 0.38864 0.31023 0.62766 0.0
C423 C 0.37226 0.30659 0.60597 0.0
C424 C 0.39193 0.36196 0.63293 0.0
C425 C 0.43451 0.28436 0.63429 0.0
C426 C 0.42986 0.24825 0.64798 0.0
C427 C 0.46714 0.21792 0.65535 0.0
C428 C 0.51004 0.2245 0.64835 0.0
C429 C 0.51532 0.26126 0.63429 0.0
C430 C 0.47701 0.29167 0.62738 0.0
H431 H 0.56845 0.7663 0.14555 0.0
H432 H 0.5589 0.90646 0.16542 0.0
H433 H 0.47255 0.90508 0.15636 0.0
H434 H 0.46561 0.77639 0.10538 0.0
H435 H 0.44843 0.71635 0.11055 0.0
H436 H 0.50949 0.73252 0.11482 0.0
H437 H 0.51497 0.69926 0.15025 0.0
H438 H 0.45404 0.68343 0.14617 0.0
H439 H 0.47538 0.72118 0.16516 0.0
H440 H 0.38646 0.88362 0.14945 0.0
H441 H 0.3095 0.84301 0.14607 0.0
H442 H 0.37566 0.7166 0.13145 0.0
C443 C 0.54823 0.79741 0.14719 0.0
C444 C 0.5702 0.83689 0.15576 0.0
C445 C 0.54259 0.87622 0.15855 0.0
C446 C 0.49359 0.87572 0.15345 0.0
C447 C 0.47267 0.83554 0.14561 0.0
C448 C 0.49923 0.79716 0.14241 0.0
C449 C 0.46824 0.7561 0.13612 0.0
C450 C 0.47324 0.74468 0.11549 0.0
C451 C 0.47879 0.71245 0.15027 0.0
C452 C 0.42031 0.77663 0.13697 0.0
C453 C 0.42332 0.82282 0.14208 0.0
C454 C 0.38364 0.84781 0.14502 0.0
C455 C 0.34 0.82471 0.14295 0.0
C456 C 0.33661 0.77718 0.13809 0.0
C457 C 0.37724 0.75326 0.13489 0.0
H458 H 0.46738 0.34227 0.85632 0.0
H459 H 0.46913 0.22151 0.82193 0.0
H460 H 0.38328 0.21253 0.82099 0.0
H461 H 0.38777 0.29761 0.8853 0.0
H462 H 0.35846 0.35299 0.88651 0.0
H463 H 0.41864 0.35246 0.88263 0.0
H464 H 0.39713 0.40665 0.85146 0.0
H465 H 0.33671 0.40726 0.85526 0.0
H466 H 0.35155 0.38894 0.83289 0.0
H467 H 0.2986 0.21192 0.82703 0.0
H468 H 0.22344 0.21994 0.83946 0.0
H469 H 0.27714 0.3435 0.86846 0.0
C470 C 0.44939 0.31446 0.84835 0.0
C471 C 0.47455 0.28249 0.83926 0.0
C472 C 0.45026 0.24626 0.82903 0.0
C473 C 0.40158 0.24104 0.82836 0.0
C474 C 0.37778 0.27277 0.83777 0.0
C475 C 0.40092 0.309 0.84745 0.0
C476 C 0.36804 0.33672 0.85733 0.0
C477 C 0.38419 0.33479 0.87924 0.0
C478 C 0.36307 0.38793 0.84872 0.0
C479 C 0.32313 0.30951 0.8523 0.0
C480 C 0.32912 0.27304 0.84084 0.0
C481 C 0.29322 0.24104 0.83563 0.0
C482 C 0.25047 0.24606 0.84263 0.0
C483 C 0.24401 0.28294 0.85457 0.0
C484 C 0.28071 0.31533 0.85913 0.0
H485 H 0.21531 0.76773 0.32225 0.0
H486 H 0.20747 0.92027 0.31937 0.0
H487 H 0.29222 0.92363 0.33289 0.0
H488 H 0.2989 0.75412 0.36739 0.0
H489 H 0.3278 0.70486 0.35921 0.0
H490 H 0.26627 0.71547 0.351 0.0
H491 H 0.28139 0.7176 0.31557 0.0
H492 H 0.34281 0.70706 0.32365 0.0
H493 H 0.32421 0.75799 0.30775 0.0
H494 H 0.3811 0.90876 0.3432 0.0
H495 H 0.46244 0.87723 0.35013 0.0
H496 H 0.40806 0.73487 0.34805 0.0
C497 C 0.23138 0.8018 0.32474 0.0
C498 C 0.20535 0.84376 0.31977 0.0
C499 C 0.22715 0.88778 0.3232 0.0
C500 C 0.27512 0.88993 0.33085 0.0
C501 C 0.30019 0.84767 0.33529 0.0
C502 C 0.27865 0.80445 0.33257 0.0
C503 C 0.31301 0.76408 0.33764 0.0
C504 C 0.30076 0.7328 0.35484 0.0
C505 C 0.3155 0.73501 0.32011 0.0
C506 C 0.35773 0.79114 0.34307 0.0
C507 C 0.35001 0.8393 0.34178 0.0
C508 C 0.38725 0.87105 0.34473 0.0
C509 C 0.43336 0.85293 0.34888 0.0
C510 C 0.4416 0.80368 0.3501 0.0
C511 C 0.40302 0.77274 0.34744 0.0
H512 H 0.67373 0.84901 0.61405 0.0
H513 H 0.69867 0.86711 0.55491 0.0
H514 H 0.69407 0.95415 0.55625 0.0
H515 H 0.591 0.94603 0.6118 0.0
H516 H 0.61291 0.96188 0.63587 0.0
H517 H 0.61635 0.90153 0.62974 0.0
H518 H 0.70615 0.90109 0.64128 0.0
H519 H 0.70288 0.96124 0.64754 0.0
H520 H 0.74206 0.94556 0.63129 0.0
H521 H 0.6896 0.04044 0.56503 0.0
H522 H 0.68925 0.11605 0.58085 0.0
H523 H 0.66514 0.03895 0.63363 0.0
C524 C 0.67788 0.87134 0.60135 0.0
C525 C 0.68619 0.85166 0.58432 0.0
C526 C 0.692 0.88185 0.56804 0.0
C527 C 0.6893 0.93116 0.56867 0.0
C528 C 0.68068 0.94957 0.5857 0.0
C529 C 0.67511 0.9204 0.60173 0.0
C530 C 0.66776 0.94854 0.6185 0.0
C531 C 0.61911 0.93892 0.62431 0.0
C532 C 0.70706 0.93852 0.63566 0.0
C533 C 0.67082 0.99812 0.60957 0.0
C534 C 0.67789 0.99835 0.59061 0.0
C535 C 0.68354 0.04057 0.57982 0.0
C536 C 0.68285 0.08341 0.58882 0.0
C537 C 0.67666 0.08347 0.60837 0.0
C538 C 0.66982 0.04018 0.61863 0.0
H539 H 0.21132 0.11429 0.10886 0.0
H540 H 0.31405 0.10272 0.07062 0.0
H541 H 0.3329 0.0214 0.08408 0.0
H542 H 0.27141 0.02693 0.15034 0.0
H543 H 0.21464 1.00468 0.15413 0.0
H544 H 0.22139 0.06606 0.14673 0.0
H545 H 0.15604 0.05759 0.1176 0.0
H546 H 0.14933 0.99661 0.12477 0.0
H547 H 0.16198 0.0132 0.10094 0.0
H548 H 0.32487 0.93684 0.09471 0.0
H549 H 0.28916 0.85875 0.10081 0.0
H550 H 0.19129 0.92397 0.13199 0.0
C551 C 0.2398 0.09547 0.10426 0.0
C552 C 0.26201 0.1148 0.08908 0.0
C553 C 0.29741 0.08861 0.08256 0.0
C554 C 0.30834 0.04242 0.09016 0.0
C555 C 0.28368 0.02296 0.10433 0.0
C556 C 0.25051 0.04902 0.11154 0.0
C557 C 0.22244 0.01781 0.12382 0.0
C558 C 0.23313 0.02957 0.14502 0.0
C559 C 0.16937 0.02151 0.11631 0.0
C560 C 0.24201 0.96983 0.121 0.0
C561 C 0.27854 0.97345 0.11034 0.0
C562 C 0.29743 0.93354 0.10363 0.0
C563 C 0.27714 0.88928 0.10717 0.0
C564 C 0.23825 0.88565 0.11716 0.0
C565 C 0.22196 0.92601 0.1248 0.0
H566 H 0.54737 0.15854 0.36814 0.0
H567 H 0.44307 0.14089 0.40627 0.0
H568 H 0.44094 0.05499 0.40193 0.0
H569 H 0.50256 0.06774 0.33522 0.0
H570 H 0.56056 0.04875 0.33245 0.0
H571 H 0.55036 0.1092 0.3371 0.0
H572 H 0.6151 0.10258 0.36704 0.0
H573 H 0.62596 0.04257 0.36224 0.0
H574 H 0.61198 0.05586 0.38541 0.0
H575 H 0.4551 0.96931 0.39519 0.0
H576 H 0.48981 0.89283 0.38918 0.0
H577 H 0.5841 0.96741 0.35549 0.0
C578 C 0.52391 0.13654 0.37546 0.0
C579 C 0.49564 0.15622 0.38764 0.0
C580 C 0.46525 0.12642 0.39697 0.0
C581 C 0.46356 0.07766 0.39447 0.0
C582 C 0.49217 0.05923 0.38244 0.0
C583 C 0.52193 0.08786 0.37317 0.0
C584 C 0.55174 0.05918 0.36221 0.0
C585 C 0.54062 0.07199 0.34045 0.0
C586 C 0.60428 0.0654 0.36968 0.0
C587 C 0.53518 1.00982 0.36719 0.0
C588 C 0.50017 1.01039 0.37857 0.0
C589 C 0.48195 0.96853 0.38602 0.0
C590 C 0.50144 0.9252 0.38239 0.0
C591 C 0.5388 0.92432 0.37153 0.0
C592 C 0.55466 0.96712 0.36341 0.0
H593 H 0.09753 0.85803 0.89154 0.0
H594 H 0.04111 0.86975 0.94483 0.0
H595 H 0.04356 0.95648 0.94022 0.0
H596 H 0.17398 0.95937 0.89538 0.0
H597 H 0.16184 0.97671 0.87004 0.0
H598 H 0.15865 0.91545 0.87817 0.0
H599 H 0.07319 0.91134 0.86053 0.0
H600 H 0.07634 0.97237 0.85218 0.0
H601 H 0.03027 0.95293 0.8655 0.0
H602 H 0.05004 0.0433 0.92914 0.0
H603 H 0.05393 0.12086 0.91105 0.0
H604 H 0.10349 0.05157 0.86492 0.0
C605 C 0.0854 0.87865 0.90223 0.0
C606 C 0.06963 0.8566 0.91868 0.0
C607 C 0.05445 0.88542 0.93232 0.0
C608 C 0.0555 0.93489 0.9298 0.0
C609 C 0.07158 0.95534 0.91351 0.0
C610 C 0.08586 0.92804 0.89988 0.0
C611 C 0.09938 0.95851 0.88315 0.0
C612 C 0.15157 0.95212 0.88161 0.0
C613 C 0.06791 0.94818 0.86423 0.0
C614 C 0.08983 1.00715 0.88934 0.0
C615 C 0.07446 1.00482 0.90702 0.0
C616 C 0.06247 0.0455 0.91536 0.0
C617 C 0.0653 0.08949 0.90515 0.0
C618 C 0.07969 0.09229 0.88679 0.0
C619 C 0.09262 0.05053 0.879 0.0
H620 H 0.24047 0.16465 0.01693 0.0
H621 H 0.10348 0.19167 0.032 0.0
H622 H 0.06715 0.18182 -0.00169 0.0
H623 H 0.22448 0.23394 0.97532 0.0
H624 H 0.25753 0.19774 0.96201 0.0
H625 H 0.27035 0.19548 0.98778 0.0
H626 H 0.25731 0.10489 0.98897 0.0
H627 H 0.24357 0.10726 0.96307 0.0
H628 H 0.20249 0.08157 0.97765 0.0
H629 H 0.04751 0.18084 0.96278 0.0
H630 H 0.04766 0.20176 0.92817 0.0
H631 H 0.1976 0.17897 0.93584 0.0
C632 C 0.2027 0.16709 0.01313 0.0
C633 C 0.17446 0.17827 0.02686 0.0
C634 C 0.12538 0.18281 0.02152 0.0
C635 C 0.10453 0.17671 0.00254 0.0
C636 C 0.13338 0.16625 0.98914 0.0
C637 C 0.18154 0.16196 0.99419 0.0
C638 C 0.20556 0.15889 0.97665 0.0
C639 C 0.24154 0.1989 0.97537 0.0
C640 C 0.22859 0.11025 0.97659 0.0
C641 C 0.16377 0.16502 0.96087 0.0
C642 C 0.12221 0.1672 0.96837 0.0
C643 C 0.07958 0.17795 0.95669 0.0
C644 C 0.07984 0.18941 0.93704 0.0
C645 C 0.12246 0.19048 0.92946 0.0
C646 C 0.16448 0.1764 0.94132 0.0
H647 H 0.08133 0.84153 0.24726 0.0
H648 H 0.10448 0.71379 0.28443 0.0
H649 H 0.10747 0.66747 0.25613 0.0
H650 H 0.01377 0.78206 0.20295 0.0
H651 H 0.04158 0.82095 0.18689 0.0
H652 H 0.0279 0.84165 0.20908 0.0
H653 H 0.11507 0.86531 0.21845 0.0
H654 H 0.12877 0.84418 0.19649 0.0
H655 H 0.1603 0.8213 0.21926 0.0
H656 H 0.12596 0.63893 0.22592 0.0
H657 H 0.15681 0.62955 0.19555 0.0
H658 H 0.12116 0.77517 0.17721 0.0
C659 C 0.08469 0.80349 0.24917 0.0
C660 C 0.09171 0.7807 0.26777 0.0
C661 C 0.0981 0.73132 0.27013 0.0
C662 C 0.09969 0.70486 0.25416 0.0
C663 C 0.0944 0.7284 0.23595 0.0
C664 C 0.08622 0.77657 0.23328 0.0
C665 C 0.08862 0.7942 0.21265 0.0
C666 C 0.04008 0.81068 0.20229 0.0
C667 C 0.1254 0.83352 0.21167 0.0
C668 C 0.1035 0.74937 0.20467 0.0
C669 C 0.1052 0.71154 0.21817 0.0
C670 C 0.12337 0.66784 0.21501 0.0
C671 C 0.14109 0.66289 0.1978 0.0
C672 C 0.14052 0.70142 0.18399 0.0
C673 C 0.12048 0.74477 0.18729 0.0
H674 H 0.67931 0.75198 0.52288 0.0
H675 H 0.79892 0.66179 0.5201 0.0
H676 H 0.7697 0.65149 0.48579 0.0
H677 H 0.59374 0.69249 0.4903 0.0
H678 H 0.56617 0.74658 0.47948 0.0
H679 H 0.59425 0.74365 0.50419 0.0
H680 H 0.64715 0.81487 0.49696 0.0
H681 H 0.61801 0.81893 0.47249 0.0
H682 H 0.68097 0.81311 0.47748 0.0
H683 H 0.72791 0.653 0.45134 0.0
H684 H 0.68706 0.67936 0.41887 0.0
H685 H 0.59812 0.771 0.44459 0.0
C686 C 0.69998 0.7306 0.51509 0.0
C687 C 0.74136 0.70753 0.52431 0.0
C688 C 0.76669 0.67929 0.51348 0.0
C689 C 0.75025 0.673 0.49401 0.0
C690 C 0.70854 0.69528 0.48557 0.0
C691 C 0.6844 0.72431 0.49572 0.0
C692 C 0.64287 0.74771 0.48307 0.0
C693 C 0.59652 0.73163 0.48966 0.0
C694 C 0.64757 0.80184 0.48245 0.0
C695 C 0.64812 0.72847 0.46402 0.0
C696 C 0.68533 0.69717 0.46579 0.0
C697 C 0.69846 0.67711 0.44981 0.0
C698 C 0.67479 0.69178 0.43147 0.0
C699 C 0.63934 0.72669 0.42945 0.0
C700 C 0.62454 0.74352 0.44592 0.0
H701 H 0.61187 0.3647 0.7539 0.0
H702 H 0.53861 0.24482 0.77635 0.0
H703 H 0.5317 0.2099 0.74487 0.0
H704 H 0.54763 0.36524 0.70216 0.0
H705 H 0.60073 0.38162 0.69283 0.0
H706 H 0.59021 0.40206 0.71552 0.0
H707 H 0.66984 0.36618 0.73192 0.0
H708 H 0.68036 0.34524 0.70945 0.0
H709 H 0.68121 0.30436 0.7302 0.0
H710 H 0.55036 0.17946 0.71451 0.0
H711 H 0.58627 0.15993 0.68615 0.0
H712 H 0.64245 0.30117 0.68215 0.0
C713 C 0.59281 0.33199 0.75189 0.0
C714 C 0.57548 0.30756 0.76744 0.0
C715 C 0.55139 0.26447 0.7645 0.0
C716 C 0.54742 0.24432 0.74668 0.0
C717 C 0.56686 0.26822 0.73187 0.0
C718 C 0.58812 0.31171 0.73414 0.0
C719 C 0.61068 0.3277 0.71676 0.0
C720 C 0.58581 0.37177 0.70619 0.0
C721 C 0.66363 0.33633 0.72243 0.0
C722 C 0.60152 0.28509 0.70494 0.0
C723 C 0.57573 0.25131 0.71378 0.0
C724 C 0.56893 0.20626 0.70704 0.0
C725 C 0.58948 0.19536 0.69103 0.0
C726 C 0.61557 0.22967 0.68183 0.0
C727 C 0.6209 0.27519 0.68861 0.0
H728 H 0.02999 0.74664 0.97229 0.0
H729 H 0.15255 0.67417 0.96004 0.0
H730 H 0.17411 0.64998 0.99481 0.0
H731 H 0.08103 0.79593 0.01232 0.0
H732 H 0.03182 0.79012 0.02532 0.0
H733 H 0.02213 0.79301 -0.00049 0.0
H734 H 0.97744 0.71351 9e-05 0.0
H735 H 0.98712 0.71035 0.02604 0.0
H736 H 0.00551 0.66231 0.01338 0.0
H737 H 0.18893 0.64682 0.03167 0.0
H738 H 0.19523 0.6658 0.06589 0.0
H739 H 0.06069 0.73713 0.05306 0.0
C740 C 0.06055 0.72442 0.97693 0.0
C741 C 0.08958 0.71196 0.9637 0.0
C742 C 0.12971 0.68349 0.9701 0.0
C743 C 0.14207 0.66961 0.98976 0.0
C744 C 0.11329 0.68371 0.00265 0.0
C745 C 0.07289 0.70991 -0.00365 0.0
C746 C 0.05027 0.72499 0.01295 0.0
C747 C 0.04613 0.77919 0.01249 0.0
C748 C 1.00224 0.70136 0.01312 0.0
C749 C 0.08559 0.70574 0.02965 0.0
C750 C 0.12136 0.68118 0.02361 0.0
C751 C 0.16049 0.66494 0.03657 0.0
C752 C 0.16378 0.67566 0.056 0.0
C753 C 0.12834 0.70272 0.06205 0.0
C754 C 0.08811 0.716 0.04883 0.0
H755 H 0.65726 0.75525 0.21585 0.0
H756 H 0.71423 0.89621 0.21911 0.0
H757 H 0.71696 0.88972 0.25466 0.0
H758 H 0.58098 0.76568 0.2475 0.0
H759 H 0.58716 0.70619 0.25819 0.0
H760 H 0.5985 0.71877 0.23401 0.0
H761 H 0.68194 0.6827 0.24323 0.0
H762 H 0.67072 0.66967 0.26752 0.0
H763 H 0.72109 0.70429 0.26318 0.0
H764 H 0.70191 0.8713 0.28902 0.0
H765 H 0.66969 0.84369 0.31845 0.0
H766 H 0.62325 0.71466 0.29194 0.0
C767 C 0.67171 0.78404 0.22422 0.0
C768 C 0.6861 0.82592 0.2151 0.0
C769 C 0.70375 0.86364 0.22613 0.0
C770 C 0.70544 0.86014 0.24623 0.0
C771 C 0.68977 0.81853 0.25486 0.0
C772 C 0.67366 0.78099 0.24414 0.0
C773 C 0.65398 0.74225 0.25626 0.0
C774 C 0.6021 0.73272 0.24853 0.0
C775 C 0.68372 0.69706 0.25763 0.0
C776 C 0.65934 0.76461 0.27531 0.0
C777 C 0.68088 0.80817 0.27443 0.0
C778 C 0.68591 0.83683 0.28996 0.0
C779 C 0.66758 0.82089 0.30662 0.0
C780 C 0.64432 0.77694 0.30746 0.0
C781 C 0.6412 0.74826 0.29174 0.0
H782 H 0.65877 0.2779 0.472 0.0
H783 H 0.54195 0.18162 0.46089 0.0
H784 H 0.55823 0.14878 0.49454 0.0
H785 H 0.73488 0.19953 0.50927 0.0
H786 H 0.7535 0.24907 0.52324 0.0
H787 H 0.73984 0.25713 0.49738 0.0
H788 H 0.67953 0.32253 0.50057 0.0
H789 H 0.69358 0.31507 0.52628 0.0
H790 H 0.63364 0.30957 0.51488 0.0
H791 H 0.57783 0.13662 0.53059 0.0
H792 H 0.59476 0.15155 0.56525 0.0
H793 H 0.69731 0.25626 0.55286 0.0
C794 C 0.63707 0.24934 0.47653 0.0
C795 C 0.59916 0.23234 0.46372 0.0
C796 C 0.57175 0.19478 0.47028 0.0
C797 C 0.58077 0.17581 0.48941 0.0
C798 C 0.61762 0.19438 0.50181 0.0
C799 C 0.64541 0.23029 0.49556 0.0
C800 C 0.67843 0.24882 0.51214 0.0
C801 C 0.7297 0.23797 0.5104 0.0
C802 C 0.67079 0.3021 0.51355 0.0
C803 C 0.66291 0.21985 0.52885 0.0
C804 C 0.62882 0.18751 0.52264 0.0
C805 C 0.60539 0.16083 0.53562 0.0
C806 C 0.61539 0.16917 0.55529 0.0
C807 C 0.6481 0.20414 0.56159 0.0
C808 C 0.67337 0.22818 0.54834 0.0
H809 H 0.15893 0.24141 0.71735 0.0
H810 H 0.20128 0.38706 0.72181 0.0
H811 H 0.20909 0.37635 0.75746 0.0
H812 H 0.08591 0.24001 0.75035 0.0
H813 H 0.09819 0.18044 0.76024 0.0
H814 H 0.1067 0.19672 0.73597 0.0
H815 H 0.19323 0.1684 0.74382 0.0
H816 H 0.1849 0.15185 0.76823 0.0
H817 H 0.23138 0.19174 0.76366 0.0
H818 H 0.19889 0.35288 0.79183 0.0
H819 H 0.16839 0.32066 0.82101 0.0
H820 H 0.13281 0.19029 0.79362 0.0
C821 C 0.17157 0.27038 0.72598 0.0
C822 C 0.18038 0.3147 0.71717 0.0
C823 C 0.19528 0.35264 0.72856 0.0
C824 C 0.19989 0.34675 0.74873 0.0
C825 C 0.18972 0.30264 0.75709 0.0
C826 C 0.17617 0.26501 0.746 0.0
C827 C 0.16098 0.2233 0.75798 0.0
C828 C 0.10994 0.20936 0.75071 0.0
C829 C 0.19465 0.18135 0.75845 0.0
C830 C 0.16552 0.24403 0.77737 0.0
C831 C 0.18328 0.28936 0.77678 0.0
C832 C 0.18603 0.31704 0.79258 0.0
C833 C 0.16877 0.29844 0.80911 0.0
C834 C 0.14867 0.25287 0.80956 0.0
C835 C 0.14854 0.22502 0.79372 0.0
loop_
_geom_bond_atom_site_label_1
_geom_bond_atom_site_label_2
_geom_bond_distance
_geom_bond_site_symmetry_2
_ccdc_geom_bond_type
H0 C7 0.929 . S
H1 C10 0.930 . S
H2 C12 0.929 . S
H3 C4 0.969 . S
C4 H3 0.969 . S
C4 O5 1.550 . S
C4 H6 0.973 . S
O5 C4 1.550 . S
O5 C11 1.412 . S
H6 C4 0.973 . S
C7 H0 0.929 . S
C7 C8 1.400 . S
C7 C9 1.364 . S
C8 C7 1.400 . S
C8 C12 1.377 . S
C9 C7 1.364 . S
C9 C10 1.374 . S
C10 H1 0.930 . S
C10 C9 1.374 . S
C10 C11 1.383 . S
C11 O5 1.412 . S
C11 C10 1.383 . S
C11 C12 1.394 . S
C12 H2 0.929 . S
C12 C8 1.377 . S
C12 C11 1.394 . S
H13 C20 0.929 . S
H14 C23 0.930 . S
H15 C25 0.929 . S
H16 C17 0.969 . S
C17 H16 0.969 . S
C17 O18 1.550 . S
C17 H19 0.973 1_455 S
O18 C17 1.550 . S
O18 C24 1.412 . S
H19 C17 0.973 1_655 S
C20 H13 0.929 . S
C20 C21 1.400 . S
C20 C22 1.364 . S
C21 C20 1.400 . S
C21 C25 1.377 . S
C22 C20 1.364 . S
C22 C23 1.374 . S
C23 H14 0.930 . S
C23 C22 1.374 . S
C23 C24 1.383 . S
C24 O18 1.412 . S
C24 C23 1.383 . S
C24 C25 1.394 . S
C25 H15 0.929 . S
C25 C21 1.377 . S
C25 C24 1.394 . S
H26 C33 0.929 . S
H27 C36 0.930 . S
H28 C38 0.929 . S
H29 C30 0.969 . S
C30 H29 0.969 . S
C30 O31 1.550 . S
C30 H32 0.973 . S
O31 C30 1.550 . S
O31 C37 1.412 . S
H32 C30 0.973 . S
C33 H26 0.929 . S
C33 C34 1.400 . S
C33 C35 1.364 . S
C34 C33 1.400 . S
C34 C38 1.377 . S
C35 C33 1.364 . S
C35 C36 1.374 . S
C36 H27 0.930 . S
C36 C35 1.374 . S
C36 C37 1.383 . S
C37 O31 1.412 . S
C37 C36 1.383 . S
C37 C38 1.394 . S
C38 H28 0.929 . S
C38 C34 1.377 . S
C38 C37 1.394 . S
H39 C46 0.929 . S
H40 C49 0.930 . S
H41 C51 0.929 . S
H42 C43 0.969 . S
C43 H42 0.969 . S
C43 O44 1.550 . S
C43 H45 0.973 . S
O44 C43 1.550 . S
O44 C50 1.412 . S
H45 C43 0.973 . S
C46 H39 0.929 . S
C46 C47 1.400 . S
C46 C48 1.364 . S
C47 C46 1.400 . S
C47 C51 1.377 . S
C48 C46 1.364 . S
C48 C49 1.374 . S
C49 H40 0.930 . S
C49 C48 1.374 . S
C49 C50 1.383 . S
C50 O44 1.412 . S
C50 C49 1.383 . S
C50 C51 1.394 . S
C51 H41 0.929 . S
C51 C47 1.377 . S
C51 C50 1.394 . S
H52 C59 0.929 . S
H53 C62 0.930 . S
H54 C64 0.929 . S
H55 C56 0.969 . S
C56 H55 0.969 . S
C56 O57 1.550 . S
C56 H58 0.973 . S
O57 C56 1.550 . S
O57 C63 1.412 . S
H58 C56 0.973 . S
C59 H52 0.929 . S
C59 C60 1.400 . S
C59 C61 1.364 . S
C60 C59 1.400 . S
C60 C64 1.377 . S
C61 C59 1.364 . S
C61 C62 1.374 . S
C62 H53 0.930 . S
C62 C61 1.374 . S
C62 C63 1.383 . S
C63 O57 1.412 . S
C63 C62 1.383 . S
C63 C64 1.394 . S
C64 H54 0.929 . S
C64 C60 1.377 . S
C64 C63 1.394 . S
H65 C72 0.929 . S
H66 C75 0.930 . S
H67 C77 0.929 . S
H68 C69 0.969 . S
C69 H68 0.969 . S
C69 O70 1.550 . S
C69 H71 0.973 . S
O70 C69 1.550 . S
O70 C76 1.412 . S
H71 C69 0.973 . S
C72 H65 0.929 . S
C72 C73 1.400 . S
C72 C74 1.364 . S
C73 C72 1.400 . S
C73 C77 1.377 . S
C74 C72 1.364 . S
C74 C75 1.374 . S
C75 H66 0.930 . S
C75 C74 1.374 . S
C75 C76 1.383 . S
C76 O70 1.412 . S
C76 C75 1.383 . S
C76 C77 1.394 . S
C77 H67 0.929 . S
C77 C73 1.377 . S
C77 C76 1.394 . S
H78 C85 0.929 . S
H79 C88 0.930 . S
H80 C90 0.929 . S
H81 C82 0.969 . S
C82 H81 0.969 . S
C82 O83 1.550 . S
C82 H84 0.973 . S
O83 C82 1.550 . S
O83 C89 1.412 . S
H84 C82 0.973 . S
C85 H78 0.929 . S
C85 C86 1.400 . S
C85 C87 1.364 . S
C86 C85 1.400 . S
C86 C90 1.377 . S
C87 C85 1.364 . S
C87 C88 1.374 . S
C88 H79 0.930 . S
C88 C87 1.374 . S
C88 C89 1.383 . S
C89 O83 1.412 . S
C89 C88 1.383 . S
C89 C90 1.394 . S
C90 H80 0.929 . S
C90 C86 1.377 . S
C90 C89 1.394 . S
H91 C98 0.929 . S
H92 C101 0.930 . S
H93 C103 0.929 . S
H94 C95 0.969 . S
C95 H94 0.969 . S
C95 O96 1.550 . S
C95 H97 0.973 . S
O96 C95 1.550 . S
O96 C102 1.412 . S
H97 C95 0.973 . S
C98 H91 0.929 . S
C98 C99 1.400 . S
C98 C100 1.364 . S
C99 C98 1.400 . S
C99 C103 1.377 . S
C100 C98 1.364 . S
C100 C101 1.374 . S
C101 H92 0.930 . S
C101 C100 1.374 . S
C101 C102 1.383 . S
C102 O96 1.412 . S
C102 C101 1.383 . S
C102 C103 1.394 . S
C103 H93 0.929 . S
C103 C99 1.377 . S
C103 C102 1.394 . S
Zn104 O110 1.920 . S
Zn104 O116 1.898 . S
Zn104 O119 1.905 . S
Zn105 O113 1.905 . S
Zn105 O114 1.898 . S
Zn105 O122 1.920 . S
Zn106 O109 2.080 . S
Zn106 O112 2.114 . S
Zn106 O115 2.120 . S
Zn106 O117 2.120 . S
Zn106 O118 2.114 . S
Zn106 O121 2.080 . S
C107 O112 1.166 . S
C107 O113 1.182 . S
C108 O114 1.167 . S
C108 O115 1.299 . S
O109 Zn106 2.080 . S
O109 C123 1.305 . S
O110 Zn104 1.920 . S
O110 C123 1.234 . S
C111 O116 1.167 . S
C111 O117 1.299 . S
O112 Zn106 2.114 . S
O112 C107 1.166 . S
O113 Zn105 1.905 . S
O113 C107 1.182 . S
O114 Zn105 1.898 . S
O114 C108 1.167 . S
O115 Zn106 2.120 . S
O115 C108 1.299 . S
O116 Zn104 1.898 . S
O116 C111 1.167 . S
O117 Zn106 2.120 . S
O117 C111 1.299 . S
O118 Zn106 2.114 . S
O118 C120 1.166 . S
O119 Zn104 1.905 . S
O119 C120 1.182 . S
C120 O118 1.166 . S
C120 O119 1.182 . S
O121 Zn106 2.080 . S
O121 C124 1.305 . S
O122 Zn105 1.920 . S
O122 C124 1.234 . S
C123 O109 1.305 . S
C123 O110 1.234 . S
C124 O121 1.305 . S
C124 O122 1.234 . S
Zn125 O131 1.920 . S
Zn125 O137 1.898 . S
Zn125 O140 1.905 . S
Zn126 O134 1.905 . S
Zn126 O135 1.898 . S
Zn126 O143 1.920 . S
Zn127 O130 2.080 . S
Zn127 O133 2.114 . S
Zn127 O136 2.120 . S
Zn127 O138 2.120 . S
Zn127 O139 2.114 . S
Zn127 O142 2.080 . S
C128 O133 1.166 . S
C128 O134 1.182 . S
C129 O135 1.167 . S
C129 O136 1.299 . S
O130 Zn127 2.080 . S
O130 C144 1.305 . S
O131 Zn125 1.920 . S
O131 C144 1.234 . S
C132 O137 1.167 . S
C132 O138 1.299 . S
O133 Zn127 2.114 . S
O133 C128 1.166 . S
O134 Zn126 1.905 . S
O134 C128 1.182 . S
O135 Zn126 1.898 . S
O135 C129 1.167 . S
O136 Zn127 2.120 . S
O136 C129 1.299 . S
O137 Zn125 1.898 . S
O137 C132 1.167 . S
O138 Zn127 2.120 . S
O138 C132 1.299 . S
O139 Zn127 2.114 . S
O139 C141 1.166 . S
O140 Zn125 1.905 . S
O140 C141 1.182 . S
C141 O139 1.166 . S
C141 O140 1.182 . S
O142 Zn127 2.080 . S
O142 C145 1.305 . S
O143 Zn126 1.920 . S
O143 C145 1.234 . S
C144 O130 1.305 . S
C144 O131 1.234 . S
C145 O142 1.305 . S
C145 O143 1.234 . S
Zn146 O152 1.920 . S
Zn146 O158 1.898 . S
Zn146 O161 1.905 . S
Zn147 O155 1.905 . S
Zn147 O156 1.898 . S
Zn147 O164 1.920 . S
Zn148 O151 2.080 . S
Zn148 O154 2.114 . S
Zn148 O157 2.120 . S
Zn148 O159 2.120 . S
Zn148 O160 2.114 . S
Zn148 O163 2.080 . S
C149 O154 1.166 . S
C149 O155 1.182 . S
C150 O156 1.167 . S
C150 O157 1.299 . S
O151 Zn148 2.080 . S
O151 C165 1.305 . S
O152 Zn146 1.920 . S
O152 C165 1.234 . S
C153 O158 1.167 . S
C153 O159 1.299 . S
O154 Zn148 2.114 . S
O154 C149 1.166 . S
O155 Zn147 1.905 . S
O155 C149 1.182 . S
O156 Zn147 1.898 . S
O156 C150 1.167 . S
O157 Zn148 2.120 . S
O157 C150 1.299 . S
O158 Zn146 1.898 . S
O158 C153 1.167 . S
O159 Zn148 2.120 . S
O159 C153 1.299 . S
O160 Zn148 2.114 . S
O160 C162 1.166 . S
O161 Zn146 1.905 . S
O161 C162 1.182 . S
C162 O160 1.166 . S
C162 O161 1.182 . S
O163 Zn148 2.080 . S
O163 C166 1.305 . S
O164 Zn147 1.920 . S
O164 C166 1.234 . S
C165 O151 1.305 . S
C165 O152 1.234 . S
C166 O163 1.305 . S
C166 O164 1.234 . S
Zn167 O173 1.920 . S
Zn167 O179 1.898 . S
Zn167 O182 1.905 1_455 S
Zn168 O176 1.905 . S
Zn168 O177 1.898 . S
Zn168 O185 1.920 . S
Zn169 O172 2.080 . S
Zn169 O175 2.114 . S
Zn169 O178 2.120 . S
Zn169 O180 2.120 . S
Zn169 O181 2.114 . S
Zn169 O184 2.080 . S
C170 O175 1.166 . S
C170 O176 1.182 . S
C171 O177 1.167 . S
C171 O178 1.299 . S
O172 Zn169 2.080 . S
O172 C186 1.305 . S
O173 Zn167 1.920 . S
O173 C186 1.234 . S
C174 O179 1.167 . S
C174 O180 1.299 . S
O175 Zn169 2.114 . S
O175 C170 1.166 . S
O176 Zn168 1.905 . S
O176 C170 1.182 . S
O177 Zn168 1.898 . S
O177 C171 1.167 . S
O178 Zn169 2.120 . S
O178 C171 1.299 . S
O179 Zn167 1.898 . S
O179 C174 1.167 . S
O180 Zn169 2.120 . S
O180 C174 1.299 . S
O181 Zn169 2.114 . S
O181 C183 1.182 . S
O182 Zn167 1.905 1_655 S
O182 C183 1.177 1_655 S
C183 O181 1.182 . S
C183 O182 1.177 1_455 S
O184 Zn169 2.080 . S
O184 C187 1.305 . S
O185 Zn168 1.920 . S
O185 C187 1.234 . S
C186 O172 1.305 . S
C186 O173 1.234 . S
C187 O184 1.305 . S
C187 O185 1.234 . S
H188 C200 0.930 . S
H189 C202 0.930 . S
H190 C203 0.930 . S
H191 C207 0.959 . S
H192 C207 0.959 . S
H193 C207 0.961 . S
H194 C208 0.960 . S
H195 C208 0.961 . S
H196 C208 0.959 . S
H197 C211 0.929 . S
H198 C212 0.931 . S
H199 C214 0.930 . S
C200 H188 0.930 . S
C200 C201 1.399 . S
C200 C205 1.399 . S
C201 C200 1.399 . S
C201 C202 1.376 . S
C202 H189 0.930 . S
C202 C201 1.376 . S
C202 C203 1.388 . S
C203 H190 0.930 . S
C203 C202 1.388 . S
C203 C204 1.390 . S
C204 C203 1.390 . S
C204 C205 1.394 . S
C204 C210 1.465 . S
C205 C200 1.399 . S
C205 C204 1.394 . S
C205 C206 1.516 . S
C206 C205 1.516 . S
C206 C207 1.502 . S
C206 C208 1.561 . S
C206 C209 1.526 . S
C207 H191 0.959 . S
C207 H192 0.959 . S
C207 H193 0.961 . S
C207 C206 1.502 . S
C208 H194 0.960 . S
C208 H195 0.961 . S
C208 H196 0.959 . S
C208 C206 1.561 . S
C209 C206 1.526 . S
C209 C210 1.396 . S
C209 C214 1.390 . S
C210 C204 1.465 . S
C210 C209 1.396 . S
C210 C211 1.399 . S
C211 H197 0.929 . S
C211 C210 1.399 . S
C211 C212 1.385 . S
C212 H198 0.931 . S
C212 C211 1.385 . S
C212 C213 1.389 . S
C213 C212 1.389 . S
C213 C214 1.387 . S
C214 H199 0.930 . S
C214 C209 1.390 . S
C214 C213 1.387 . S
H215 C227 0.930 . S
H216 C229 0.930 . S
H217 C230 0.930 . S
H218 C234 0.959 . S
H219 C234 0.959 . S
H220 C234 0.961 . S
H221 C235 0.960 . S
H222 C235 0.961 . S
H223 C235 0.959 . S
H224 C238 0.929 . S
H225 C239 0.931 . S
H226 C241 0.930 . S
C227 H215 0.930 . S
C227 C228 1.399 . S
C227 C232 1.399 . S
C228 C227 1.399 . S
C228 C229 1.376 . S
C229 H216 0.930 . S
C229 C228 1.376 . S
C229 C230 1.388 . S
C230 H217 0.930 . S
C230 C229 1.388 . S
C230 C231 1.390 . S
C231 C230 1.390 . S
C231 C232 1.394 . S
C231 C237 1.465 . S
C232 C227 1.399 . S
C232 C231 1.394 . S
C232 C233 1.516 . S
C233 C232 1.516 . S
C233 C234 1.502 . S
C233 C235 1.561 . S
C233 C236 1.526 . S
C234 H218 0.959 . S
C234 H219 0.959 . S
C234 H220 0.961 . S
C234 C233 1.502 . S
C235 H221 0.960 . S
C235 H222 0.961 . S
C235 H223 0.959 . S
C235 C233 1.561 . S
C236 C233 1.526 . S
C236 C237 1.396 . S
C236 C241 1.390 . S
C237 C231 1.465 . S
C237 C236 1.396 . S
C237 C238 1.399 . S
C238 H224 0.929 . S
C238 C237 1.399 . S
C238 C239 1.385 . S
C239 H225 0.931 . S
C239 C238 1.385 . S
C239 C240 1.389 . S
C240 C239 1.389 . S
C240 C241 1.387 . S
C241 H226 0.930 . S
C241 C236 1.390 . S
C241 C240 1.387 . S
H242 C254 0.930 . S
H243 C256 0.930 . S
H244 C257 0.930 . S
H245 C261 0.959 . S
H246 C261 0.959 . S
H247 C261 0.961 . S
H248 C262 0.960 . S
H249 C262 0.961 . S
H250 C262 0.959 . S
H251 C265 0.929 . S
H252 C266 0.931 . S
H253 C268 0.930 . S
C254 H242 0.930 . S
C254 C255 1.399 . S
C254 C259 1.399 . S
C255 C254 1.399 . S
C255 C256 1.376 . S
C256 H243 0.930 . S
C256 C255 1.376 . S
C256 C257 1.388 . S
C257 H244 0.930 . S
C257 C256 1.388 . S
C257 C258 1.390 . S
C258 C257 1.390 . S
C258 C259 1.394 . S
C258 C264 1.465 . S
C259 C254 1.399 . S
C259 C258 1.394 . S
C259 C260 1.516 . S
C260 C259 1.516 . S
C260 C261 1.502 . S
C260 C262 1.561 . S
C260 C263 1.526 . S
C261 H245 0.959 . S
C261 H246 0.959 . S
C261 H247 0.961 . S
C261 C260 1.502 . S
C262 H248 0.960 . S
C262 H249 0.961 . S
C262 H250 0.959 . S
C262 C260 1.561 . S
C263 C260 1.526 . S
C263 C264 1.396 . S
C263 C268 1.390 . S
C264 C258 1.465 . S
C264 C263 1.396 . S
C264 C265 1.399 . S
C265 H251 0.929 . S
C265 C264 1.399 . S
C265 C266 1.385 . S
C266 H252 0.931 . S
C266 C265 1.385 . S
C266 C267 1.389 . S
C267 C266 1.389 . S
C267 C268 1.387 . S
C268 H253 0.930 . S
C268 C263 1.390 . S
C268 C267 1.387 . S
H269 C281 0.930 . S
H270 C283 0.930 . S
H271 C284 0.930 . S
H272 C288 0.959 . S
H273 C288 0.959 . S
H274 C288 0.961 . S
H275 C289 0.960 . S
H276 C289 0.961 . S
H277 C289 0.959 . S
H278 C292 0.929 . S
H279 C293 0.931 . S
H280 C295 0.930 . S
C281 H269 0.930 . S
C281 C282 1.399 . S
C281 C286 1.399 . S
C282 C281 1.399 . S
C282 C283 1.376 . S
C283 H270 0.930 . S
C283 C282 1.376 . S
C283 C284 1.388 . S
C284 H271 0.930 . S
C284 C283 1.388 . S
C284 C285 1.390 . S
C285 C284 1.390 . S
C285 C286 1.394 . S
C285 C291 1.465 . S
C286 C281 1.399 . S
C286 C285 1.394 . S
C286 C287 1.516 . S
C287 C286 1.516 . S
C287 C288 1.502 . S
C287 C289 1.561 . S
C287 C290 1.526 . S
C288 H272 0.959 . S
C288 H273 0.959 . S
C288 H274 0.961 . S
C288 C287 1.502 . S
C289 H275 0.960 . S
C289 H276 0.961 . S
C289 H277 0.959 . S
C289 C287 1.561 . S
C290 C287 1.526 . S
C290 C291 1.396 . S
C290 C295 1.390 . S
C291 C285 1.465 . S
C291 C290 1.396 . S
C291 C292 1.399 . S
C292 H278 0.929 . S
C292 C291 1.399 . S
C292 C293 1.385 . S
C293 H279 0.931 . S
C293 C292 1.385 . S
C293 C294 1.389 . S
C294 C293 1.389 . S
C294 C295 1.387 . S
C295 H280 0.930 . S
C295 C290 1.390 . S
C295 C294 1.387 . S
H296 C308 0.945 . S
H297 C310 0.930 . S
H298 C311 0.930 . S
H299 C315 0.959 . S
H300 C315 0.959 . S
H301 C315 0.961 . S
H302 C316 0.960 . S
H303 C316 0.961 . S
H304 C316 0.959 . S
H305 C319 0.929 . S
H306 C320 0.931 . S
H307 C322 0.930 . S
C308 H296 0.945 . S
C308 C309 1.399 . S
C308 C313 1.399 . S
C309 C308 1.399 . S
C309 C310 1.376 . S
C310 H297 0.930 . S
C310 C309 1.376 . S
C310 C311 1.388 . S
C311 H298 0.930 . S
C311 C310 1.388 . S
C311 C312 1.390 . S
C312 C311 1.390 . S
C312 C313 1.394 . S
C312 C318 1.465 . S
C313 C308 1.399 . S
C313 C312 1.394 . S
C313 C314 1.516 . S
C314 C313 1.516 . S
C314 C315 1.502 1_455 S
C314 C316 1.561 . S
C314 C317 1.526 . S
C315 H299 0.959 . S
C315 H300 0.959 . S
C315 H301 0.961 . S
C315 C314 1.502 1_655 S
C316 H302 0.960 . S
C316 H303 0.961 . S
C316 H304 0.959 . S
C316 C314 1.561 . S
C317 C314 1.526 . S
C317 C318 1.396 . S
C317 C322 1.390 . S
C318 C312 1.465 . S
C318 C317 1.396 . S
C318 C319 1.399 . S
C319 H305 0.929 . S
C319 C318 1.399 . S
C319 C320 1.385 . S
C320 H306 0.931 . S
C320 C319 1.385 . S
C320 C321 1.389 . S
C321 C320 1.389 . S
C321 C322 1.387 . S
C322 H307 0.930 . S
C322 C317 1.390 . S
C322 C321 1.387 . S
H323 C335 0.930 . S
H324 C337 0.930 . S
H325 C338 0.930 . S
H326 C342 0.959 . S
H327 C342 0.959 . S
H328 C342 0.961 . S
H329 C343 0.960 . S
H330 C343 0.961 . S
H331 C343 0.959 . S
H332 C346 0.929 . S
H333 C347 0.931 . S
H334 C349 0.930 . S
C335 H323 0.930 . S
C335 C336 1.399 . S
C335 C340 1.399 . S
C336 C335 1.399 . S
C336 C337 1.376 . S
C337 H324 0.930 . S
C337 C336 1.376 . S
C337 C338 1.388 . S
C338 H325 0.930 . S
C338 C337 1.388 . S
C338 C339 1.390 . S
C339 C338 1.390 . S
C339 C340 1.394 . S
C339 C345 1.465 . S
C340 C335 1.399 . S
C340 C339 1.394 . S
C340 C341 1.516 . S
C341 C340 1.516 . S
C341 C342 1.502 . S
C341 C343 1.561 . S
C341 C344 1.526 . S
C342 H326 0.959 . S
C342 H327 0.959 . S
C342 H328 0.961 . S
C342 C341 1.502 . S
C343 H329 0.960 . S
C343 H330 0.961 . S
C343 H331 0.959 . S
C343 C341 1.561 . S
C344 C341 1.526 . S
C344 C345 1.396 . S
C344 C349 1.390 . S
C345 C339 1.465 . S
C345 C344 1.396 . S
C345 C346 1.399 . S
C346 H332 0.929 . S
C346 C345 1.399 . S
C346 C347 1.385 1_655 S
C347 H333 0.931 . S
C347 C346 1.385 1_455 S
C347 C348 1.389 . S
C348 C347 1.389 . S
C348 C349 1.387 1_455 S
C349 H334 0.930 . S
C349 C344 1.390 . S
C349 C348 1.387 1_655 S
H350 C362 0.930 . S
H351 C364 0.930 . S
H352 C365 0.930 . S
H353 C369 0.959 . S
H354 C369 0.959 . S
H355 C369 0.961 . S
H356 C370 0.960 . S
H357 C370 0.961 . S
H358 C370 0.959 . S
H359 C373 0.929 . S
H360 C374 0.931 . S
H361 C376 0.930 . S
C362 H350 0.930 . S
C362 C363 1.399 . S
C362 C367 1.399 . S
C363 C362 1.399 . S
C363 C364 1.376 . S
C364 H351 0.930 . S
C364 C363 1.376 . S
C364 C365 1.388 . S
C365 H352 0.930 . S
C365 C364 1.388 . S
C365 C366 1.390 . S
C366 C365 1.390 . S
C366 C367 1.394 . S
C366 C372 1.465 . S
C367 C362 1.399 . S
C367 C366 1.394 . S
C367 C368 1.516 . S
C368 C367 1.516 . S
C368 C369 1.502 . S
C368 C370 1.561 . S
C368 C371 1.526 . S
C369 H353 0.959 . S
C369 H354 0.959 . S
C369 H355 0.961 . S
C369 C368 1.502 . S
C370 H356 0.960 . S
C370 H357 0.961 . S
C370 H358 0.959 . S
C370 C368 1.561 . S
C371 C368 1.526 . S
C371 C372 1.396 . S
C371 C376 1.390 . S
C372 C366 1.465 . S
C372 C371 1.396 . S
C372 C373 1.399 . S
C373 H359 0.929 . S
C373 C372 1.399 . S
C373 C374 1.385 . S
C374 H360 0.931 . S
C374 C373 1.385 . S
C374 C375 1.389 . S
C375 C374 1.389 . S
C375 C376 1.387 . S
C376 H361 0.930 . S
C376 C371 1.390 . S
C376 C375 1.387 . S
H377 C389 0.930 . S
H378 C391 0.930 . S
H379 C392 0.930 . S
H380 C396 0.959 . S
H381 C396 0.959 . S
H382 C396 0.961 . S
H383 C397 0.960 . S
H384 C397 0.961 . S
H385 C397 0.959 . S
H386 C400 0.929 . S
H387 C401 0.931 . S
H388 C403 0.930 . S
C389 H377 0.930 . S
C389 C390 1.399 . S
C389 C394 1.399 1_455 S
C390 C389 1.399 . S
C390 C391 1.376 . S
C391 H378 0.930 . S
C391 C390 1.376 . S
C391 C392 1.388 1_455 S
C392 H379 0.930 . S
C392 C391 1.388 1_655 S
C392 C393 1.390 . S
C393 C392 1.390 . S
C393 C394 1.394 . S
C393 C399 1.465 . S
C394 C389 1.399 1_655 S
C394 C393 1.394 . S
C394 C395 1.516 . S
C395 C394 1.516 . S
C395 C396 1.502 . S
C395 C397 1.561 . S
C395 C398 1.526 . S
C396 H380 0.959 . S
C396 H381 0.959 . S
C396 H382 0.961 . S
C396 C395 1.502 . S
C397 H383 0.960 . S
C397 H384 0.961 . S
C397 H385 0.959 . S
C397 C395 1.561 . S
C398 C395 1.526 . S
C398 C399 1.396 . S
C398 C403 1.390 . S
C399 C393 1.465 . S
C399 C398 1.396 . S
C399 C400 1.399 . S
C400 H386 0.929 . S
C400 C399 1.399 . S
C400 C401 1.385 . S
C401 H387 0.931 . S
C401 C400 1.385 . S
C401 C402 1.389 . S
C402 C401 1.389 . S
C402 C403 1.387 . S
C403 H388 0.930 . S
C403 C398 1.390 . S
C403 C402 1.387 . S
H404 C416 0.930 . S
H405 C418 0.930 . S
H406 C419 0.930 . S
H407 C423 0.959 . S
H408 C423 0.959 . S
H409 C423 0.961 . S
H410 C424 0.960 . S
H411 C424 0.961 . S
H412 C424 0.959 . S
H413 C427 0.929 . S
H414 C428 0.931 . S
H415 C430 0.930 . S
C416 H404 0.930 . S
C416 C417 1.399 . S
C416 C421 1.399 . S
C417 C416 1.399 . S
C417 C418 1.376 . S
C418 H405 0.930 . S
C418 C417 1.376 . S
C418 C419 1.388 . S
C419 H406 0.930 . S
C419 C418 1.388 . S
C419 C420 1.390 . S
C420 C419 1.390 . S
C420 C421 1.394 . S
C420 C426 1.465 . S
C421 C416 1.399 . S
C421 C420 1.394 . S
C421 C422 1.516 . S
C422 C421 1.516 . S
C422 C423 1.502 . S
C422 C424 1.561 . S
C422 C425 1.526 . S
C423 H407 0.959 . S
C423 H408 0.959 . S
C423 H409 0.961 . S
C423 C422 1.502 . S
C424 H410 0.960 . S
C424 H411 0.961 . S
C424 H412 0.959 . S
C424 C422 1.561 . S
C425 C422 1.526 . S
C425 C426 1.396 . S
C425 C430 1.390 . S
C426 C420 1.465 . S
C426 C425 1.396 . S
C426 C427 1.399 . S
C427 H413 0.929 . S
C427 C426 1.399 . S
C427 C428 1.385 . S
C428 H414 0.931 . S
C428 C427 1.385 . S
C428 C429 1.389 . S
C429 C428 1.389 . S
C429 C430 1.387 . S
C430 H415 0.930 . S
C430 C425 1.390 . S
C430 C429 1.387 . S
H431 C443 0.930 . S
H432 C445 0.930 . S
H433 C446 0.930 . S
H434 C450 0.959 . S
H435 C450 0.959 . S
H436 C450 0.961 . S
H437 C451 0.960 . S
H438 C451 0.961 . S
H439 C451 0.959 . S
H440 C454 0.929 . S
H441 C455 0.931 . S
H442 C457 0.930 . S
C443 H431 0.930 . S
C443 C444 1.399 . S
C443 C448 1.399 . S
C444 C443 1.399 . S
C444 C445 1.376 . S
C445 H432 0.930 . S
C445 C444 1.376 . S
C445 C446 1.388 . S
C446 H433 0.930 . S
C446 C445 1.388 . S
C446 C447 1.390 . S
C447 C446 1.390 . S
C447 C448 1.394 . S
C447 C453 1.465 . S
C448 C443 1.399 . S
C448 C447 1.394 . S
C448 C449 1.516 . S
C449 C448 1.516 . S
C449 C450 1.502 . S
C449 C451 1.561 . S
C449 C452 1.526 . S
C450 H434 0.959 . S
C450 H435 0.959 . S
C450 H436 0.961 . S
C450 C449 1.502 . S
C451 H437 0.960 . S
C451 H438 0.961 . S
C451 H439 0.959 . S
C451 C449 1.561 . S
C452 C449 1.526 . S
C452 C453 1.396 . S
C452 C457 1.390 . S
C453 C447 1.465 . S
C453 C452 1.396 . S
C453 C454 1.399 . S
C454 H440 0.929 . S
C454 C453 1.399 . S
C454 C455 1.385 . S
C455 H441 0.931 . S
C455 C454 1.385 . S
C455 C456 1.389 . S
C456 C455 1.389 . S
C456 C457 1.387 . S
C457 H442 0.930 . S
C457 C452 1.390 . S
C457 C456 1.387 . S
H458 C470 0.930 . S
H459 C472 0.930 . S
H460 C473 0.930 . S
H461 C477 0.959 . S
H462 C477 0.959 . S
H463 C477 0.961 . S
H464 C478 0.960 . S
H465 C478 0.961 . S
H466 C478 0.959 . S
H467 C481 0.929 . S
H468 C482 0.931 . S
H469 C484 0.930 . S
C470 H458 0.930 . S
C470 C471 1.399 . S
C470 C475 1.399 . S
C471 C470 1.399 . S
C471 C472 1.376 . S
C472 H459 0.930 . S
C472 C471 1.376 . S
C472 C473 1.388 . S
C473 H460 0.930 . S
C473 C472 1.388 . S
C473 C474 1.390 . S
C474 C473 1.390 . S
C474 C475 1.394 . S
C474 C480 1.465 . S
C475 C470 1.399 . S
C475 C474 1.394 . S
C475 C476 1.516 . S
C476 C475 1.516 . S
C476 C477 1.502 . S
C476 C478 1.561 . S
C476 C479 1.526 . S
C477 H461 0.959 . S
C477 H462 0.959 . S
C477 H463 0.961 . S
C477 C476 1.502 . S
C478 H464 0.960 . S
C478 H465 0.961 . S
C478 H466 0.959 . S
C478 C476 1.561 . S
C479 C476 1.526 . S
C479 C480 1.396 . S
C479 C484 1.390 . S
C480 C474 1.465 . S
C480 C479 1.396 . S
C480 C481 1.399 . S
C481 H467 0.929 . S
C481 C480 1.399 . S
C481 C482 1.385 . S
C482 H468 0.931 . S
C482 C481 1.385 . S
C482 C483 1.389 . S
C483 C482 1.389 . S
C483 C484 1.387 . S
C484 H469 0.930 . S
C484 C479 1.390 . S
C484 C483 1.387 . S
H485 C497 0.930 . S
H486 C499 0.930 . S
H487 C500 0.930 . S
H488 C504 0.959 . S
H489 C504 0.959 . S
H490 C504 0.961 . S
H491 C505 0.960 . S
H492 C505 0.961 . S
H493 C505 0.959 . S
H494 C508 0.929 . S
H495 C509 0.931 . S
H496 C511 0.930 . S
C497 H485 0.930 . S
C497 C498 1.399 . S
C497 C502 1.399 . S
C498 C497 1.399 . S
C498 C499 1.376 . S
C499 H486 0.930 . S
C499 C498 1.376 . S
C499 C500 1.388 . S
C500 H487 0.930 . S
C500 C499 1.388 . S
C500 C501 1.390 . S
C501 C500 1.390 . S
C501 C502 1.394 . S
C501 C507 1.465 . S
C502 C497 1.399 . S
C502 C501 1.394 . S
C502 C503 1.516 . S
C503 C502 1.516 . S
C503 C504 1.502 . S
C503 C505 1.561 . S
C503 C506 1.526 . S
C504 H488 0.959 . S
C504 H489 0.959 . S
C504 H490 0.961 . S
C504 C503 1.502 . S
C505 H491 0.960 . S
C505 H492 0.961 . S
C505 H493 0.959 . S
C505 C503 1.561 . S
C506 C503 1.526 . S
C506 C507 1.396 . S
C506 C511 1.390 . S
C507 C501 1.465 . S
C507 C506 1.396 . S
C507 C508 1.399 . S
C508 H494 0.929 . S
C508 C507 1.399 . S
C508 C509 1.385 . S
C509 H495 0.931 . S
C509 C508 1.385 . S
C509 C510 1.389 . S
C510 C509 1.389 . S
C510 C511 1.387 . S
C511 H496 0.930 . S
C511 C506 1.390 . S
C511 C510 1.387 . S
H512 C524 0.930 . S
H513 C526 0.930 . S
H514 C527 0.930 . S
H515 C531 0.959 . S
H516 C531 0.959 . S
H517 C531 0.961 . S
H518 C532 0.960 . S
H519 C532 0.961 . S
H520 C532 0.959 . S
H521 C535 0.929 . S
H522 C536 0.931 . S
H523 C538 0.930 . S
C524 H512 0.930 . S
C524 C525 1.399 . S
C524 C529 1.399 . S
C525 C524 1.399 . S
C525 C526 1.376 . S
C526 H513 0.930 . S
C526 C525 1.376 . S
C526 C527 1.388 . S
C527 H514 0.930 . S
C527 C526 1.388 . S
C527 C528 1.390 . S
C528 C527 1.390 . S
C528 C529 1.394 . S
C528 C534 1.465 1_565 S
C529 C524 1.399 . S
C529 C528 1.394 . S
C529 C530 1.516 . S
C530 C529 1.516 . S
C530 C531 1.502 . S
C530 C532 1.561 . S
C530 C533 1.526 1_565 S
C531 H515 0.959 . S
C531 H516 0.959 . S
C531 H517 0.961 . S
C531 C530 1.502 . S
C532 H518 0.960 . S
C532 H519 0.961 . S
C532 H520 0.959 . S
C532 C530 1.561 . S
C533 C530 1.526 1_545 S
C533 C534 1.396 . S
C533 C538 1.390 . S
C534 C528 1.465 1_545 S
C534 C533 1.396 . S
C534 C535 1.399 . S
C535 H521 0.929 . S
C535 C534 1.399 . S
C535 C536 1.385 . S
C536 H522 0.931 . S
C536 C535 1.385 . S
C536 C537 1.389 . S
C537 C536 1.389 . S
C537 C538 1.387 . S
C538 H523 0.930 . S
C538 C533 1.390 . S
C538 C537 1.387 . S
H539 C551 0.930 . S
H540 C553 0.930 . S
H541 C554 0.930 . S
H542 C558 0.959 . S
H543 C558 0.959 . S
H544 C558 0.961 . S
H545 C559 0.960 . S
H546 C559 0.961 . S
H547 C559 0.959 . S
H548 C562 0.929 . S
H549 C563 0.931 . S
H550 C565 0.930 . S
C551 H539 0.930 . S
C551 C552 1.399 . S
C551 C556 1.399 . S
C552 C551 1.399 . S
C552 C553 1.376 . S
C553 H540 0.930 . S
C553 C552 1.376 . S
C553 C554 1.388 . S
C554 H541 0.930 . S
C554 C553 1.388 . S
C554 C555 1.390 . S
C555 C554 1.390 . S
C555 C556 1.394 . S
C555 C561 1.465 . S
C556 C551 1.399 . S
C556 C555 1.394 . S
C556 C557 1.516 . S
C557 C556 1.516 . S
C557 C558 1.502 . S
C557 C559 1.561 . S
C557 C560 1.526 1_545 S
C558 H542 0.959 . S
C558 H543 0.959 . S
C558 H544 0.961 . S
C558 C557 1.502 . S
C559 H545 0.960 . S
C559 H546 0.961 . S
C559 H547 0.959 . S
C559 C557 1.561 . S
C560 C557 1.526 1_565 S
C560 C561 1.396 1_565 S
C560 C565 1.390 . S
C561 C555 1.465 . S
C561 C560 1.396 1_545 S
C561 C562 1.399 1_545 S
C562 H548 0.929 . S
C562 C561 1.399 1_565 S
C562 C563 1.385 . S
C563 H549 0.931 . S
C563 C562 1.385 . S
C563 C564 1.389 . S
C564 C563 1.389 . S
C564 C565 1.387 . S
C565 H550 0.930 . S
C565 C560 1.390 . S
C565 C564 1.387 . S
H566 C578 0.930 . S
H567 C580 0.930 . S
H568 C581 0.930 1_565 S
H569 C585 0.959 . S
H570 C585 0.959 . S
H571 C585 0.961 1_545 S
H572 C586 0.960 . S
H573 C586 0.961 1_565 S
H574 C586 0.959 1_565 S
H575 C589 0.929 . S
H576 C590 0.931 . S
H577 C592 0.930 . S
C578 H566 0.930 . S
C578 C579 1.399 . S
C578 C583 1.399 . S
C579 C578 1.399 . S
C579 C580 1.376 . S
C580 H567 0.930 . S
C580 C579 1.376 . S
C580 C581 1.388 . S
C581 H568 0.930 1_545 S
C581 C580 1.388 . S
C581 C582 1.390 1_545 S
C582 C581 1.390 1_565 S
C582 C583 1.394 1_565 S
C582 C588 1.465 . S
C583 C578 1.399 . S
C583 C582 1.394 1_545 S
C583 C584 1.516 1_545 S
C584 C583 1.516 1_565 S
C584 C585 1.502 . S
C584 C586 1.561 1_565 S
C584 C587 1.526 . S
C585 H569 0.959 . S
C585 H570 0.959 . S
C585 H571 0.961 1_565 S
C585 C584 1.502 . S
C586 H572 0.960 . S
C586 H573 0.961 1_545 S
C586 H574 0.959 1_545 S
C586 C584 1.561 1_545 S
C587 C584 1.526 . S
C587 C588 1.396 . S
C587 C592 1.390 . S
C588 C582 1.465 . S
C588 C587 1.396 . S
C588 C589 1.399 . S
C589 H575 0.929 . S
C589 C588 1.399 . S
C589 C590 1.385 . S
C590 H576 0.931 . S
C590 C589 1.385 . S
C590 C591 1.389 . S
C591 C590 1.389 . S
C591 C592 1.387 . S
C592 H577 0.930 . S
C592 C587 1.390 . S
C592 C591 1.387 . S
H593 C605 0.930 . S
H594 C607 0.930 . S
H595 C608 0.930 . S
H596 C612 0.959 . S
H597 C612 0.959 . S
H598 C612 0.961 . S
H599 C613 0.960 . S
H600 C613 0.961 . S
H601 C613 0.959 1_655 S
H602 C616 0.929 . S
H603 C617 0.931 . S
H604 C619 0.930 . S
C605 H593 0.930 . S
C605 C606 1.399 . S
C605 C610 1.399 . S
C606 C605 1.399 . S
C606 C607 1.376 . S
C607 H594 0.930 . S
C607 C606 1.376 . S
C607 C608 1.388 . S
C608 H595 0.930 . S
C608 C607 1.388 . S
C608 C609 1.390 . S
C609 C608 1.390 . S
C609 C610 1.394 . S
C609 C615 1.465 . S
C610 C605 1.399 . S
C610 C609 1.394 . S
C610 C611 1.516 . S
C611 C610 1.516 . S
C611 C612 1.502 . S
C611 C613 1.561 . S
C611 C614 1.526 . S
C612 H596 0.959 . S
C612 H597 0.959 . S
C612 H598 0.961 . S
C612 C611 1.502 . S
C613 H599 0.960 . S
C613 H600 0.961 . S
C613 H601 0.959 1_455 S
C613 C611 1.561 . S
C614 C611 1.526 . S
C614 C615 1.396 . S
C614 C619 1.390 1_565 S
C615 C609 1.465 . S
C615 C614 1.396 . S
C615 C616 1.399 1_565 S
C616 H602 0.929 . S
C616 C615 1.399 1_545 S
C616 C617 1.385 . S
C617 H603 0.931 . S
C617 C616 1.385 . S
C617 C618 1.389 . S
C618 C617 1.389 . S
C618 C619 1.387 . S
C619 H604 0.930 . S
C619 C614 1.390 1_545 S
C619 C618 1.387 . S
H620 C632 0.930 . S
H621 C634 0.930 . S
H622 C635 0.930 . S
H623 C639 0.959 . S
H624 C639 0.959 . S
H625 C639 0.961 . S
H626 C640 0.960 1_554 S
H627 C640 0.961 . S
H628 C640 0.959 . S
H629 C643 0.929 . S
H630 C644 0.931 . S
H631 C646 0.930 . S
C632 H620 0.930 . S
C632 C633 1.399 . S
C632 C637 1.399 . S
C633 C632 1.399 . S
C633 C634 1.376 . S
C634 H621 0.930 . S
C634 C633 1.376 . S
C634 C635 1.388 . S
C635 H622 0.930 . S
C635 C634 1.388 . S
C635 C636 1.390 1_554 S
C636 C635 1.390 1_556 S
C636 C637 1.394 1_556 S
C636 C642 1.465 . S
C637 C632 1.399 . S
C637 C636 1.394 1_554 S
C637 C638 1.516 1_554 S
C638 C637 1.516 1_556 S
C638 C639 1.502 . S
C638 C640 1.561 . S
C638 C641 1.526 . S
C639 H623 0.959 . S
C639 H624 0.959 . S
C639 H625 0.961 . S
C639 C638 1.502 . S
C640 H626 0.960 1_556 S
C640 H627 0.961 . S
C640 H628 0.959 . S
C640 C638 1.561 . S
C641 C638 1.526 . S
C641 C642 1.396 . S
C641 C646 1.390 . S
C642 C636 1.465 . S
C642 C641 1.396 . S
C642 C643 1.399 . S
C643 H629 0.929 . S
C643 C642 1.399 . S
C643 C644 1.385 . S
C644 H630 0.931 . S
C644 C643 1.385 . S
C644 C645 1.389 . S
C645 C644 1.389 . S
C645 C646 1.387 . S
C646 H631 0.930 . S
C646 C641 1.390 . S
C646 C645 1.387 . S
H647 C659 0.930 . S
H648 C661 0.930 . S
H649 C662 0.930 . S
H650 C666 0.959 . S
H651 C666 0.959 . S
H652 C666 0.961 . S
H653 C667 0.960 . S
H654 C667 0.961 . S
H655 C667 0.959 . S
H656 C670 0.929 . S
H657 C671 0.931 . S
H658 C673 0.930 . S
C659 H647 0.930 . S
C659 C660 1.399 . S
C659 C664 1.399 . S
C660 C659 1.399 . S
C660 C661 1.376 . S
C661 H648 0.930 . S
C661 C660 1.376 . S
C661 C662 1.388 . S
C662 H649 0.930 . S
C662 C661 1.388 . S
C662 C663 1.390 . S
C663 C662 1.390 . S
C663 C664 1.394 . S
C663 C669 1.465 . S
C664 C659 1.399 . S
C664 C663 1.394 . S
C664 C665 1.516 . S
C665 C664 1.516 . S
C665 C666 1.502 . S
C665 C667 1.561 . S
C665 C668 1.526 . S
C666 H650 0.959 . S
C666 H651 0.959 . S
C666 H652 0.961 . S
C666 C665 1.502 . S
C667 H653 0.960 . S
C667 H654 0.961 . S
C667 H655 0.959 . S
C667 C665 1.561 . S
C668 C665 1.526 . S
C668 C669 1.396 . S
C668 C673 1.390 . S
C669 C663 1.465 . S
C669 C668 1.396 . S
C669 C670 1.399 . S
C670 H656 0.929 . S
C670 C669 1.399 . S
C670 C671 1.385 . S
C671 H657 0.931 . S
C671 C670 1.385 . S
C671 C672 1.389 . S
C672 C671 1.389 . S
C672 C673 1.387 . S
C673 H658 0.930 . S
C673 C668 1.390 . S
C673 C672 1.387 . S
H674 C686 0.930 . S
H675 C688 0.930 . S
H676 C689 0.930 . S
H677 C693 0.959 . S
H678 C693 0.959 . S
H679 C693 0.961 . S
H680 C694 0.960 . S
H681 C694 0.961 . S
H682 C694 0.959 . S
H683 C697 0.929 . S
H684 C698 0.931 . S
H685 C700 0.930 . S
C686 H674 0.930 . S
C686 C687 1.399 . S
C686 C691 1.399 . S
C687 C686 1.399 . S
C687 C688 1.376 . S
C688 H675 0.930 . S
C688 C687 1.376 . S
C688 C689 1.388 . S
C689 H676 0.930 . S
C689 C688 1.388 . S
C689 C690 1.390 . S
C690 C689 1.390 . S
C690 C691 1.394 . S
C690 C696 1.465 . S
C691 C686 1.399 . S
C691 C690 1.394 . S
C691 C692 1.516 . S
C692 C691 1.516 . S
C692 C693 1.502 . S
C692 C694 1.561 . S
C692 C695 1.526 . S
C693 H677 0.959 . S
C693 H678 0.959 . S
C693 H679 0.961 . S
C693 C692 1.502 . S
C694 H680 0.960 . S
C694 H681 0.961 . S
C694 H682 0.959 . S
C694 C692 1.561 . S
C695 C692 1.526 . S
C695 C696 1.396 . S
C695 C700 1.390 . S
C696 C690 1.465 . S
C696 C695 1.396 . S
C696 C697 1.399 . S
C697 H683 0.929 . S
C697 C696 1.399 . S
C697 C698 1.385 . S
C698 H684 0.931 . S
C698 C697 1.385 . S
C698 C699 1.389 . S
C699 C698 1.389 . S
C699 C700 1.387 . S
C700 H685 0.930 . S
C700 C695 1.390 . S
C700 C699 1.387 . S
H701 C713 0.930 . S
H702 C715 0.930 . S
H703 C716 0.930 . S
H704 C720 0.959 . S
H705 C720 0.959 . S
H706 C720 0.961 . S
H707 C721 0.960 . S
H708 C721 0.961 . S
H709 C721 0.959 . S
H710 C724 0.929 . S
H711 C725 0.931 . S
H712 C727 0.930 . S
C713 H701 0.930 . S
C713 C714 1.399 . S
C713 C718 1.399 . S
C714 C713 1.399 . S
C714 C715 1.376 . S
C715 H702 0.930 . S
C715 C714 1.376 . S
C715 C716 1.388 . S
C716 H703 0.930 . S
C716 C715 1.388 . S
C716 C717 1.390 . S
C717 C716 1.390 . S
C717 C718 1.394 . S
C717 C723 1.465 . S
C718 C713 1.399 . S
C718 C717 1.394 . S
C718 C719 1.516 . S
C719 C718 1.516 . S
C719 C720 1.502 . S
C719 C721 1.561 . S
C719 C722 1.526 . S
C720 H704 0.959 . S
C720 H705 0.959 . S
C720 H706 0.961 . S
C720 C719 1.502 . S
C721 H707 0.960 . S
C721 H708 0.961 . S
C721 H709 0.959 . S
C721 C719 1.561 . S
C722 C719 1.526 . S
C722 C723 1.396 . S
C722 C727 1.390 . S
C723 C717 1.465 . S
C723 C722 1.396 . S
C723 C724 1.399 . S
C724 H710 0.929 . S
C724 C723 1.399 . S
C724 C725 1.385 . S
C725 H711 0.931 . S
C725 C724 1.385 . S
C725 C726 1.389 . S
C726 C725 1.389 . S
C726 C727 1.387 . S
C727 H712 0.930 . S
C727 C722 1.390 . S
C727 C726 1.387 . S
H728 C740 0.930 . S
H729 C742 0.930 . S
H730 C743 0.930 . S
H731 C747 0.959 . S
H732 C747 0.959 . S
H733 C747 0.961 . S
H734 C748 0.960 . S
H735 C748 0.961 . S
H736 C748 0.959 . S
H737 C751 0.929 . S
H738 C752 0.931 . S
H739 C754 0.930 . S
C740 H728 0.930 . S
C740 C741 1.399 . S
C740 C745 1.399 . S
C741 C740 1.399 . S
C741 C742 1.376 . S
C742 H729 0.930 . S
C742 C741 1.376 . S
C742 C743 1.388 . S
C743 H730 0.930 . S
C743 C742 1.388 . S
C743 C744 1.390 1_556 S
C744 C743 1.390 1_554 S
C744 C745 1.394 1_554 S
C744 C750 1.465 . S
C745 C740 1.399 . S
C745 C744 1.394 1_556 S
C745 C746 1.516 1_556 S
C746 C745 1.516 1_554 S
C746 C747 1.502 . S
C746 C748 1.561 . S
C746 C749 1.526 . S
C747 H731 0.959 . S
C747 H732 0.959 . S
C747 H733 0.961 . S
C747 C746 1.502 . S
C748 H734 0.960 . S
C748 H735 0.961 . S
C748 H736 0.959 . S
C748 C746 1.561 . S
C749 C746 1.526 . S
C749 C750 1.396 . S
C749 C754 1.390 . S
C750 C744 1.465 . S
C750 C749 1.396 . S
C750 C751 1.399 . S
C751 H737 0.929 . S
C751 C750 1.399 . S
C751 C752 1.385 . S
C752 H738 0.931 . S
C752 C751 1.385 . S
C752 C753 1.389 . S
C753 C752 1.389 . S
C753 C754 1.387 . S
C754 H739 0.930 . S
C754 C749 1.390 . S
C754 C753 1.387 . S
H755 C767 0.930 . S
H756 C769 0.930 . S
H757 C770 0.930 . S
H758 C774 0.959 . S
H759 C774 0.959 . S
H760 C774 0.961 . S
H761 C775 0.960 . S
H762 C775 0.961 . S
H763 C775 0.959 . S
H764 C778 0.929 . S
H765 C779 0.931 . S
H766 C781 0.930 . S
C767 H755 0.930 . S
C767 C768 1.399 . S
C767 C772 1.399 . S
C768 C767 1.399 . S
C768 C769 1.376 . S
C769 H756 0.930 . S
C769 C768 1.376 . S
C769 C770 1.388 . S
C770 H757 0.930 . S
C770 C769 1.388 . S
C770 C771 1.390 . S
C771 C770 1.390 . S
C771 C772 1.394 . S
C771 C777 1.465 . S
C772 C767 1.399 . S
C772 C771 1.394 . S
C772 C773 1.516 . S
C773 C772 1.516 . S
C773 C774 1.502 . S
C773 C775 1.561 . S
C773 C776 1.526 . S
C774 H758 0.959 . S
C774 H759 0.959 . S
C774 H760 0.961 . S
C774 C773 1.502 . S
C775 H761 0.960 . S
C775 H762 0.961 . S
C775 H763 0.959 . S
C775 C773 1.561 . S
C776 C773 1.526 . S
C776 C777 1.396 . S
C776 C781 1.390 . S
C777 C771 1.465 . S
C777 C776 1.396 . S
C777 C778 1.399 . S
C778 H764 0.929 . S
C778 C777 1.399 . S
C778 C779 1.385 . S
C779 H765 0.931 . S
C779 C778 1.385 . S
C779 C780 1.389 . S
C780 C779 1.389 . S
C780 C781 1.387 . S
C781 H766 0.930 . S
C781 C776 1.390 . S
C781 C780 1.387 . S
H782 C794 0.930 . S
H783 C796 0.930 . S
H784 C797 0.930 . S
H785 C801 0.959 . S
H786 C801 0.959 . S
H787 C801 0.961 . S
H788 C802 0.960 . S
H789 C802 0.961 . S
H790 C802 0.959 . S
H791 C805 0.929 . S
H792 C806 0.931 . S
H793 C808 0.930 . S
C794 H782 0.930 . S
C794 C795 1.399 . S
C794 C799 1.399 . S
C795 C794 1.399 . S
C795 C796 1.376 . S
C796 H783 0.930 . S
C796 C795 1.376 . S
C796 C797 1.388 . S
C797 H784 0.930 . S
C797 C796 1.388 . S
C797 C798 1.390 . S
C798 C797 1.390 . S
C798 C799 1.394 . S
C798 C804 1.465 . S
C799 C794 1.399 . S
C799 C798 1.394 . S
C799 C800 1.516 . S
C800 C799 1.516 . S
C800 C801 1.502 . S
C800 C802 1.561 . S
C800 C803 1.526 . S
C801 H785 0.959 . S
C801 H786 0.959 . S
C801 H787 0.961 . S
C801 C800 1.502 . S
C802 H788 0.960 . S
C802 H789 0.961 . S
C802 H790 0.959 . S
C802 C800 1.561 . S
C803 C800 1.526 . S
C803 C804 1.396 . S
C803 C808 1.390 . S
C804 C798 1.465 . S
C804 C803 1.396 . S
C804 C805 1.399 . S
C805 H791 0.929 . S
C805 C804 1.399 . S
C805 C806 1.385 . S
C806 H792 0.931 . S
C806 C805 1.385 . S
C806 C807 1.389 . S
C807 C806 1.389 . S
C807 C808 1.387 . S
C808 H793 0.930 . S
C808 C803 1.390 . S
C808 C807 1.387 . S
H809 C821 0.930 . S
H810 C823 0.930 . S
H811 C824 0.930 . S
H812 C828 0.959 . S
H813 C828 0.959 . S
H814 C828 0.961 . S
H815 C829 0.960 . S
H816 C829 0.961 . S
H817 C829 0.959 . S
H818 C832 0.929 . S
H819 C833 0.931 . S
H820 C835 0.930 . S
C821 H809 0.930 . S
C821 C822 1.399 . S
C821 C826 1.399 . S
C822 C821 1.399 . S
C822 C823 1.376 . S
C823 H810 0.930 . S
C823 C822 1.376 . S
C823 C824 1.388 . S
C824 H811 0.930 . S
C824 C823 1.388 . S
C824 C825 1.390 . S
C825 C824 1.390 . S
C825 C826 1.394 . S
C825 C831 1.465 . S
C826 C821 1.399 . S
C826 C825 1.394 . S
C826 C827 1.516 . S
C827 C826 1.516 . S
C827 C828 1.502 . S
C827 C829 1.561 . S
C827 C830 1.526 . S
C828 H812 0.959 . S
C828 H813 0.959 . S
C828 H814 0.961 . S
C828 C827 1.502 . S
C829 H815 0.960 . S
C829 H816 0.961 . S
C829 H817 0.959 . S
C829 C827 1.561 . S
C830 C827 1.526 . S
C830 C831 1.396 . S
C830 C835 1.390 . S
C831 C825 1.465 . S
C831 C830 1.396 . S
C831 C832 1.399 . S
C832 H818 0.929 . S
C832 C831 1.399 . S
C832 C833 1.385 . S
C833 H819 0.931 . S
C833 C832 1.385 . S
C833 C834 1.389 . S
C834 C833 1.389 . S
C834 C835 1.387 . S
C835 H820 0.930 . S
C835 C830 1.390 . S
C835 C834 1.387 . S
C213 C111 1.462 . S
C201 C4 1.506 . S
C240 C129 1.412 . S
C228 C17 1.308 1_655 S
C255 C34 1.359 . S
C267 C153 1.285 . S
C294 C183 1.328 1_655 S
C282 C47 1.435 . S
C321 C171 1.223 . S
C309 C56 1.344 . S
C336 C69 1.334 . S
C348 C124 1.432 . S
C363 C86 1.534 . S
C375 C144 1.461 . S
C390 C99 1.394 . S
C402 C149 1.293 . S
C417 C95 1.322 . S
C429 C165 1.427 . S
C444 C73 1.394 . S
C456 C120 1.209 . S
C483 C187 1.398 . S
C471 C43 1.340 . S
C510 C132 1.338 . S
C498 C21 1.417 . S
C525 C30 1.481 . S
C537 C150 1.496 . S
C552 C8 1.313 . S
C564 C108 1.185 . S
C591 C128 1.250 . S
C579 C82 1.307 . S
C618 C174 1.455 . S
C606 C60 1.542 . S
C645 C170 1.331 . S
C633 C9 1.560 . S
C672 C123 1.347 . S
C660 C22 1.440 . S
C687 C35 1.570 . S
C699 C145 1.255 . S
C714 C48 1.462 . S
C726 C166 1.379 . S
C753 C107 1.357 . S
C741 C61 1.496 . S
C768 C74 1.573 . S
C780 C141 1.527 . S
C807 C162 1.427 . S
C795 C87 1.548 . S
C834 C186 1.503 . S
C822 C100 1.550 . S
