# Generated by pormake.
# Topology ssa, (4,4)-cn, num edge types: 1
# Building blocks:
#     Node 0, Type 0, BuildingBlock: NAWXER_clean_sbu_0, # of connection points: 4
#     Node 1, Type 0, BuildingBlock: NAWXER_clean_sbu_0, # of connection points: 4
#     Node 2, Type 0, BuildingBlock: NAWXER_clean_sbu_0, # of connection points: 4
#     Node 3, Type 0, BuildingBlock: NAWXER_clean_sbu_0, # of connection points: 4
#     Node 4, Type 0, BuildingBlock: NAWXER_clean_sbu_0, # of connection points: 4
#     Node 5, Type 0, BuildingBlock: NAWXER_clean_sbu_0, # of connection points: 4
#     Node 6, Type 1, BuildingBlock: NAHDIM_clean_linker_0, # of connection points: 4
#     Node 7, Type 1, BuildingBlock: NAHDIM_clean_linker_0, # of connection points: 4
#     Node 8, Type 1, BuildingBlock: NAHDIM_clean_linker_0, # of connection points: 4
#     Node 9, Type 1, BuildingBlock: NAHDIM_clean_linker_0, # of connection points: 4
#     Node 10, Type 1, BuildingBlock: NAHDIM_clean_linker_0, # of connection points: 4
#     Node 11, Type 1, BuildingBlock: NAHDIM_clean_linker_0, # of connection points: 4
#     Edge 12, Type (0, 1), BuildingBlock: CIFDUS_clean_linker_0, # of connection points: 2
#     Edge 13, Type (0, 1), BuildingBlock: CIFDUS_clean_linker_0, # of connection points: 2
#     Edge 14, Type (0, 1), BuildingBlock: CIFDUS_clean_linker_0, # of connection points: 2
#     Edge 15, Type (0, 1), BuildingBlock: CIFDUS_clean_linker_0, # of connection points: 2
#     Edge 16, Type (0, 1), BuildingBlock: CIFDUS_clean_linker_0, # of connection points: 2
#     Edge 17, Type (0, 1), BuildingBlock: CIFDUS_clean_linker_0, # of connection points: 2
#     Edge 18, Type (0, 1), BuildingBlock: CIFDUS_clean_linker_0, # of connection points: 2
#     Edge 19, Type (0, 1), BuildingBlock: CIFDUS_clean_linker_0, # of connection points: 2
#     Edge 20, Type (0, 1), BuildingBlock: CIFDUS_clean_linker_0, # of connection points: 2
#     Edge 21, Type (0, 1), BuildingBlock: CIFDUS_clean_linker_0, # of connection points: 2
#     Edge 22, Type (0, 1), BuildingBlock: CIFDUS_clean_linker_0, # of connection points: 2
#     Edge 23, Type (0, 1), BuildingBlock: CIFDUS_clean_linker_0, # of connection points: 2
#     Edge 24, Type (0, 1), BuildingBlock: CIFDUS_clean_linker_0, # of connection points: 2
#     Edge 25, Type (0, 1), BuildingBlock: CIFDUS_clean_linker_0, # of connection points: 2
#     Edge 26, Type (0, 1), BuildingBlock: CIFDUS_clean_linker_0, # of connection points: 2
#     Edge 27, Type (0, 1), BuildingBlock: CIFDUS_clean_linker_0, # of connection points: 2
#     Edge 28, Type (0, 1), BuildingBlock: CIFDUS_clean_linker_0, # of connection points: 2
#     Edge 29, Type (0, 1), BuildingBlock: CIFDUS_clean_linker_0, # of connection points: 2
#     Edge 30, Type (0, 1), BuildingBlock: CIFDUS_clean_linker_0, # of connection points: 2
#     Edge 31, Type (0, 1), BuildingBlock: CIFDUS_clean_linker_0, # of connection points: 2
#     Edge 32, Type (0, 1), BuildingBlock: CIFDUS_clean_linker_0, # of connection points: 2
#     Edge 33, Type (0, 1), BuildingBlock: CIFDUS_clean_linker_0, # of connection points: 2
#     Edge 34, Type (0, 1), BuildingBlock: CIFDUS_clean_linker_0, # of connection points: 2
#     Edge 35, Type (0, 1), BuildingBlock: CIFDUS_clean_linker_0, # of connection points: 2
# Relax obj value: 0.028
# Max RMSD: 0.057
# Mean RMSD: 0.044
data_MOF--net-ssa--node1-NAWXER_clean_sbu_0--node2-NAHDIM_clean_linker_0--edge1-CIFDUS_clean_linker_0
_symmetry_space_group_name_H-M    P1
_symmetry_Int_Tables_number       1
_symmetry_cell_setting            triclinic
loop_
_symmetry_equiv_pos_as_xyz
'x, y, z'
_cell_length_a     55.291959
_cell_length_b     55.33153
_cell_length_c     47.25911
_cell_angle_alpha  89.798222
_cell_angle_beta   90.530289
_cell_angle_gamma 119.99769
loop_
_atom_site_label
_atom_site_type_symbol
_atom_site_fract_x
_atom_site_fract_y
_atom_site_fract_z
_atom_type_partial_charge
C0 C 0.04914 0.53927 0.02865 0.0
C1 C 0.99166 0.45032 0.97989 0.0
O2 O 0.02518 0.52402 0.03989 0.0
Zn3 Zn 0.98927 0.48352 0.03429 0.0
O4 O 0.05649 0.53024 0.00761 0.0
Zn5 Zn 0.02158 0.49484 0.00432 0.0
O6 O 0.99196 0.50874 0.99487 0.0
O7 O 0.96059 0.49297 0.02886 0.0
O8 O 0.0161 0.46944 0.97337 0.0
O9 O 0.97996 0.45335 0.00182 0.0
O10 O 0.98915 0.46464 0.06869 0.0
O11 O 0.02436 0.47312 0.04093 0.0
C12 C 0.96991 0.50669 0.00606 0.0
C13 C 0.0109 0.46306 0.06397 0.0
C14 C 0.49587 0.02979 0.54045 0.0
C15 C 0.52763 0.97714 0.48408 0.0
O16 O 0.48993 0.00619 0.55113 0.0
Zn17 Zn 0.49366 0.97085 0.5411 0.0
O18 O 0.50773 0.037 0.51651 0.0
Zn19 Zn 0.51088 0.00379 0.51044 0.0
O20 O 0.46842 0.97243 0.50255 0.0
O21 O 0.45533 0.94108 0.53653 0.0
O22 O 0.53039 0.00079 0.47777 0.0
O23 O 0.51437 0.96452 0.50647 0.0
O24 O 0.51599 0.97068 0.57282 0.0
O25 O 0.53888 0.00627 0.54371 0.0
C26 C 0.44961 0.94977 0.51391 0.0
C27 C 0.53845 0.9926 0.56586 0.0
C28 C 0.48106 0.4827 0.96938 0.0
C29 C 0.51644 0.56059 0.03579 0.0
O30 O 0.47604 0.50274 0.96893 0.0
Zn31 Zn 0.49712 0.52135 0.00297 0.0
O32 O 0.49544 0.48069 0.98969 0.0
Zn33 Zn 0.51603 0.50257 0.02747 0.0
O34 O 0.49477 0.47679 0.05751 0.0
O35 O 0.47161 0.49441 0.03593 0.0
O36 O 0.52275 0.542 0.04289 0.0
O37 O 0.50164 0.55706 0.01375 0.0
O38 O 0.53936 0.53346 0.99209 0.0
O39 O 0.55378 0.51074 0.01984 0.0
C40 C 0.47283 0.47864 0.05515 0.0
C41 C 0.55837 0.52799 0.99992 0.0
C42 C 0.00607 0.53277 0.47204 0.0
C43 C 0.96103 0.4491 0.53078 0.0
O44 O 0.01985 0.53453 0.49467 0.0
Zn45 Zn 0.01609 0.5096 0.53095 0.0
O46 O 0.98286 0.51073 0.46722 0.0
Zn47 Zn 0.9826 0.49099 0.50134 0.0
O48 O 0.97795 0.51563 0.53364 0.0
O49 O 0.01446 0.53109 0.56222 0.0
O50 O 0.95119 0.45389 0.50841 0.0
O51 O 0.98458 0.46793 0.54079 0.0
O52 O 0.0485 0.50569 0.52758 0.0
O53 O 0.01684 0.48315 0.49428 0.0
C54 C 0.99145 0.52962 0.55558 0.0
C55 C 0.04057 0.49007 0.50582 0.0
C56 C 0.54693 0.014 0.05157 0.0
C57 C 0.4959 0.03883 0.98371 0.0
O58 O 0.54726 0.03713 0.05013 0.0
Zn59 Zn 0.52207 0.02716 0.01817 0.0
O60 O 0.53156 0.99413 0.0344 0.0
Zn61 Zn 0.503 0.98644 0.99965 0.0
O62 O 0.52146 0.97906 0.96886 0.0
O63 O 0.54604 0.02177 0.98611 0.0
O64 O 0.49059 0.01362 0.98099 0.0
O65 O 0.5135 0.05449 0.00227 0.0
O66 O 0.48388 0.99668 0.03711 0.0
O67 O 0.46774 0.95677 0.01404 0.0
C68 C 0.54374 0.00271 0.96914 0.0
C69 C 0.46533 0.97095 0.0338 0.0
C70 C 0.55854 0.55107 0.55431 0.0
C71 C 0.48426 0.5172 0.48285 0.0
O72 O 0.53703 0.55381 0.55399 0.0
Zn73 Zn 0.52136 0.53476 0.51858 0.0
O74 O 0.56241 0.53814 0.53395 0.0
Zn75 Zn 0.54153 0.51717 0.49554 0.0
O76 O 0.56806 0.53835 0.46654 0.0
O77 O 0.5512 0.56205 0.48806 0.0
O78 O 0.50291 0.51056 0.47756 0.0
O79 O 0.48695 0.53191 0.50454 0.0
O80 O 0.50865 0.49202 0.52872 0.0
O81 O 0.53343 0.47962 0.50239 0.0
C82 C 0.56735 0.56079 0.46954 0.0
C83 C 0.51486 0.47356 0.52105 0.0
C84 C 0.10357 0.38433 0.4557 0.0
C85 C 0.11216 0.40957 0.43648 0.0
C86 C 0.12796 0.40555 0.39012 0.0
C87 C 0.14926 0.43276 0.38434 0.0
C88 C 0.17133 0.43757 0.36643 0.0
C89 C 0.17227 0.41458 0.35454 0.0
C90 C 0.15029 0.3871 0.35977 0.0
C91 C 0.12808 0.38298 0.37716 0.0
C92 C 0.19397 0.46718 0.36075 0.0
C93 C 0.15073 0.36209 0.34776 0.0
C94 C 0.38003 0.44581 0.42057 0.0
C95 C 0.35426 0.43364 0.40279 0.0
C96 C 0.31385 0.4389 0.39339 0.0
C97 C 0.29832 0.41465 0.3771 0.0
C98 C 0.27569 0.41115 0.36036 0.0
C99 C 0.26909 0.4328 0.35907 0.0
C100 C 0.28466 0.45719 0.37562 0.0
C101 C 0.30651 0.45963 0.39299 0.0
C102 C 0.2588 0.38419 0.34421 0.0
C103 C 0.27831 0.48073 0.37501 0.0
C104 C 0.32596 0.45384 0.17585 0.0
C105 C 0.30941 0.42714 0.18751 0.0
C106 C 0.2847 0.42035 0.20198 0.0
C107 C 0.27687 0.44093 0.20559 0.0
C108 C 0.29372 0.4679 0.19414 0.0
C109 C 0.31788 0.47387 0.17918 0.0
C110 C 0.26691 0.39116 0.21331 0.0
C111 C 0.28625 0.49048 0.19774 0.0
C112 C 0.06081 0.36842 0.16851 0.0
C113 C 0.0839 0.39799 0.16115 0.0
C114 C 0.12996 0.40338 0.16764 0.0
C115 C 0.13866 0.38379 0.17071 0.0
C116 C 0.16207 0.3896 0.18743 0.0
C117 C 0.17765 0.41609 0.20052 0.0
C118 C 0.16961 0.43649 0.19629 0.0
C119 C 0.14556 0.42974 0.18017 0.0
C120 C 0.16997 0.36733 0.1913 0.0
C121 C 0.1864 0.46538 0.20876 0.0
C122 C 0.19728 0.41936 0.33853 0.0
C123 C 0.22065 0.42359 0.35419 0.0
C124 C 0.24553 0.42959 0.34094 0.0
C125 C 0.24734 0.43169 0.31109 0.0
C126 C 0.27242 0.43907 0.29708 0.0
C127 C 0.27376 0.44022 0.26768 0.0
C128 C 0.25006 0.43396 0.25113 0.0
C129 C 0.25103 0.43431 0.22121 0.0
C130 C 0.22719 0.42854 0.20546 0.0
C131 C 0.2022 0.42231 0.2187 0.0
C132 C 0.20078 0.42162 0.24862 0.0
C133 C 0.17599 0.41526 0.26272 0.0
C134 C 0.1749 0.41496 0.29215 0.0
C135 C 0.19831 0.42018 0.30863 0.0
C136 C 0.22347 0.4264 0.29488 0.0
C137 C 0.22478 0.42736 0.26485 0.0
C138 C 0.38365 0.45679 0.13416 0.0
C139 C 0.36265 0.44559 0.15719 0.0
O140 O 0.10737 0.40071 0.40852 0.0
O141 O 0.10693 0.39671 0.15175 0.0
O142 O 0.34955 0.46116 0.16095 0.0
O143 O 0.33593 0.44289 0.4097 0.0
H144 H 0.13485 0.42427 0.44029 0.0
H145 H 0.11591 0.37414 0.45046 0.0
H146 H 0.08103 0.36885 0.45282 0.0
H147 H 0.10762 0.39094 0.47824 0.0
H148 H 0.14864 0.45017 0.39403 0.0
H149 H 0.1113 0.36205 0.38167 0.0
H150 H 0.21348 0.47122 0.3717 0.0
H151 H 0.18828 0.48266 0.3683 0.0
H152 H 0.19837 0.47033 0.33773 0.0
H153 H 0.13262 0.34207 0.3548 0.0
H154 H 0.17028 0.36253 0.3543 0.0
H155 H 0.15045 0.36286 0.3243 0.0
H156 H 0.34402 0.41063 0.39974 0.0
H157 H 0.37918 0.42752 0.43204 0.0
H158 H 0.37553 0.45459 0.44003 0.0
H159 H 0.41218 0.47069 0.39189 0.0
H160 H 0.30335 0.39813 0.3778 0.0
H161 H 0.31848 0.47816 0.40582 0.0
H162 H 0.23609 0.37646 0.34629 0.0
H163 H 0.26313 0.36765 0.35166 0.0
H164 H 0.26402 0.38786 0.32142 0.0
H165 H 0.2954 0.5001 0.3847 0.0
H166 H 0.25892 0.47443 0.38705 0.0
H167 H 0.2748 0.48532 0.35295 0.0
H168 H 0.36969 0.44059 0.17744 0.0
H169 H 0.31547 0.41145 0.18514 0.0
H170 H 0.33076 0.49439 0.17009 0.0
H171 H 0.26776 0.39165 0.23678 0.0
H172 H 0.27401 0.37673 0.20581 0.0
H173 H 0.24477 0.38273 0.2068 0.0
H174 H 0.30294 0.51106 0.19002 0.0
H175 H 0.28234 0.49246 0.22039 0.0
H176 H 0.26673 0.48473 0.18579 0.0
H177 H 0.08921 0.41096 0.18068 0.0
H178 H 0.04234 0.36868 0.17719 0.0
H179 H 0.06856 0.35935 0.1848 0.0
H180 H 0.05433 0.35484 0.14943 0.0
H181 H 0.1266 0.36363 0.16052 0.0
H182 H 0.13913 0.44512 0.17696 0.0
H183 H 0.17263 0.36441 0.21416 0.0
H184 H 0.19024 0.37399 0.18086 0.0
H185 H 0.15409 0.34697 0.18215 0.0
H186 H 0.17987 0.47994 0.20006 0.0
H187 H 0.20898 0.47402 0.2046 0.0
H188 H 0.18362 0.46429 0.23204 0.0
H189 H 0.21947 0.42224 0.37711 0.0
H190 H 0.2913 0.44399 0.30869 0.0
H191 H 0.29362 0.44593 0.25809 0.0
H192 H 0.2281 0.42892 0.18252 0.0
H193 H 0.15714 0.41057 0.25118 0.0
H194 H 0.15534 0.41023 0.30183 0.0
H195 H 0.40427 0.46372 0.14516 0.0
H196 H 0.3882 0.4787 0.1297 0.0
H197 H 0.36709 0.42491 0.10315 0.0
C198 C 0.93081 0.2916 0.90392 0.0
C199 C 0.93072 0.31293 0.88304 0.0
C200 C 0.88461 0.2845 0.8599 0.0
C201 C 0.89097 0.26626 0.84537 0.0
C202 C 0.87016 0.24317 0.83044 0.0
C203 C 0.84264 0.23879 0.82909 0.0
C204 C 0.83648 0.25779 0.84271 0.0
C205 C 0.85752 0.28025 0.8581 0.0
C206 C 0.87753 0.22322 0.81649 0.0
C207 C 0.8076 0.25423 0.84128 0.0
C208 C 0.69042 0.0321 0.87602 0.0
C209 C 0.69063 0.05613 0.89241 0.0
C210 C 0.71391 0.09861 0.86314 0.0
C211 C 0.70969 0.11901 0.85041 0.0
C212 C 0.73164 0.14239 0.8374 0.0
C213 C 0.75841 0.14494 0.83629 0.0
C214 C 0.76313 0.12484 0.84991 0.0
C215 C 0.74086 0.10195 0.86344 0.0
C216 C 0.72589 0.16381 0.82391 0.0
C217 C 0.79139 0.12696 0.84911 0.0
C218 C 0.70938 0.07875 0.66539 0.0
C219 C 0.7011 0.09713 0.6759 0.0
C220 C 0.72107 0.124 0.68511 0.0
C221 C 0.74981 0.13221 0.68451 0.0
C222 C 0.75816 0.11411 0.6726 0.0
C223 C 0.73776 0.08773 0.66271 0.0
C224 C 0.71138 0.1432 0.69636 0.0
C225 C 0.78854 0.12215 0.67135 0.0
C226 C 0.9162 0.3294 0.66225 0.0
C227 C 0.90933 0.31673 0.63237 0.0
C228 C 0.86331 0.27682 0.64305 0.0
C229 C 0.83585 0.27054 0.64761 0.0
C230 C 0.81762 0.24754 0.66416 0.0
C231 C 0.82697 0.23 0.67573 0.0
C232 C 0.85426 0.23534 0.66988 0.0
C233 C 0.87225 0.25884 0.65384 0.0
C234 C 0.78862 0.2424 0.66986 0.0
C235 C 0.86461 0.21647 0.68096 0.0
C236 C 0.82017 0.21387 0.81424 0.0
C237 C 0.80123 0.19131 0.83074 0.0
C238 C 0.78022 0.16686 0.81816 0.0
C239 C 0.77871 0.16425 0.78837 0.0
C240 C 0.7593 0.13912 0.77516 0.0
C241 C 0.75709 0.137 0.74588 0.0
C242 C 0.77379 0.16008 0.7286 0.0
C243 C 0.7708 0.1584 0.69879 0.0
C244 C 0.78816 0.18157 0.68222 0.0
C245 C 0.80856 0.20653 0.69463 0.0
C246 C 0.81157 0.2087 0.72447 0.0
C247 C 0.83155 0.23359 0.73775 0.0
C248 C 0.83453 0.23534 0.76711 0.0
C249 C 0.81744 0.21238 0.78436 0.0
C250 C 0.79684 0.18732 0.77142 0.0
C251 C 0.79408 0.18537 0.74147 0.0
C252 C 0.66873 0.00793 0.6795 0.0
C253 C 0.66699 0.03408 0.67279 0.0
O254 O 0.90357 0.30611 0.87614 0.0
O255 O 0.88061 0.3006 0.6287 0.0
O256 O 0.69051 0.0523 0.65756 0.0
O257 O 0.6912 0.07584 0.87391 0.0
H258 H 0.94196 0.31333 0.86347 0.0
H259 H 0.92124 0.27054 0.89429 0.0
H260 H 0.91888 0.29019 0.92325 0.0
H261 H 0.95259 0.29782 0.91014 0.0
H262 H 0.91198 0.26959 0.84587 0.0
H263 H 0.85281 0.29455 0.86909 0.0
H264 H 0.86232 0.20139 0.82252 0.0
H265 H 0.89887 0.22764 0.82233 0.0
H266 H 0.87642 0.22483 0.79316 0.0
H267 H 0.80717 0.27279 0.84955 0.0
H268 H 0.7931 0.2358 0.85401 0.0
H269 H 0.79972 0.2504 0.81911 0.0
H270 H 0.7096 0.06564 0.90622 0.0
H271 H 0.68611 0.01457 0.89053 0.0
H272 H 0.71106 0.03925 0.86622 0.0
H273 H 0.67457 0.02446 0.85874 0.0
H274 H 0.68891 0.11639 0.85046 0.0
H275 H 0.74455 0.08642 0.87333 0.0
H276 H 0.72456 0.16102 0.80059 0.0
H277 H 0.74311 0.18526 0.82865 0.0
H278 H 0.70593 0.16175 0.83129 0.0
H279 H 0.79169 0.10952 0.86053 0.0
H280 H 0.8073 0.14698 0.8588 0.0
H281 H 0.79751 0.12694 0.8268 0.0
H282 H 0.66647 0.04356 0.69339 0.0
H283 H 0.67906 0.09043 0.67697 0.0
H284 H 0.74384 0.07348 0.65401 0.0
H285 H 0.71244 0.14344 0.71982 0.0
H286 H 0.68951 0.13631 0.68988 0.0
H287 H 0.72513 0.16487 0.68882 0.0
H288 H 0.79145 0.10509 0.66281 0.0
H289 H 0.79808 0.12775 0.69283 0.0
H290 H 0.79998 0.1408 0.65769 0.0
H291 H 0.91909 0.30359 0.62937 0.0
H292 H 0.93915 0.34249 0.66538 0.0
H293 H 0.90831 0.3127 0.67849 0.0
H294 H 0.90642 0.34247 0.6657 0.0
H295 H 0.82904 0.28436 0.63898 0.0
H296 H 0.89319 0.26296 0.64989 0.0
H297 H 0.78508 0.24146 0.69304 0.0
H298 H 0.77294 0.22194 0.66078 0.0
H299 H 0.78506 0.25888 0.66063 0.0
H300 H 0.8848 0.22123 0.67139 0.0
H301 H 0.84895 0.19429 0.67662 0.0
H302 H 0.86754 0.219 0.70424 0.0
H303 H 0.80262 0.19294 0.85364 0.0
H304 H 0.74563 0.12072 0.7873 0.0
H305 H 0.74186 0.11703 0.73705 0.0
H306 H 0.78594 0.18009 0.65936 0.0
H307 H 0.84514 0.25202 0.72561 0.0
H308 H 0.85024 0.25501 0.77614 0.0
H309 H 0.66878 0.99722 0.65966 0.0
H310 H 0.65079 0.99321 0.69266 0.0
H311 H 0.68828 0.0138 0.69149 0.0
C312 C 0.66999 0.70657 0.36753 0.0
C313 C 0.64695 0.7061 0.38587 0.0
C314 C 0.62427 0.72731 0.35836 0.0
C315 C 0.59852 0.72216 0.34755 0.0
C316 C 0.59523 0.74366 0.33576 0.0
C317 C 0.61864 0.77088 0.33388 0.0
C318 C 0.64476 0.77635 0.34499 0.0
C319 C 0.64727 0.75458 0.35736 0.0
C320 C 0.56681 0.73716 0.32501 0.0
C321 C 0.67015 0.80513 0.34333 0.0
C322 C 0.58972 0.95042 0.39994 0.0
C323 C 0.60385 0.93765 0.38445 0.0
C324 C 0.59315 0.89139 0.3676 0.0
C325 C 0.62099 0.89842 0.36287 0.0
C326 C 0.62716 0.87918 0.35028 0.0
C327 C 0.60507 0.85267 0.34193 0.0
C328 C 0.57715 0.84519 0.34783 0.0
C329 C 0.57161 0.86466 0.36072 0.0
C330 C 0.65717 0.88757 0.34469 0.0
C331 C 0.55307 0.81706 0.33933 0.0
C332 C 0.61122 0.9156 0.17001 0.0
C333 C 0.63622 0.91505 0.17357 0.0
C334 C 0.6359 0.89099 0.1836 0.0
C335 C 0.61012 0.86705 0.19019 0.0
C336 C 0.58489 0.86727 0.18589 0.0
C337 C 0.58583 0.89167 0.17606 0.0
C338 C 0.66318 0.89143 0.18809 0.0
C339 C 0.55705 0.84204 0.19261 0.0
C340 C 0.63176 0.6963 0.13765 0.0
C341 C 0.6015 0.68967 0.14063 0.0
C342 C 0.60147 0.73277 0.14637 0.0
C343 C 0.62655 0.75817 0.14685 0.0
C344 C 0.62985 0.78006 0.1644 0.0
C345 C 0.6072 0.77647 0.18118 0.0
C346 C 0.58146 0.75095 0.17995 0.0
C347 C 0.57904 0.72923 0.16273 0.0
C348 C 0.65759 0.80684 0.16519 0.0
C349 C 0.55651 0.74656 0.19678 0.0
C350 C 0.61608 0.79338 0.31941 0.0
C351 C 0.61322 0.81268 0.33607 0.0
C352 C 0.61065 0.83426 0.32364 0.0
C353 C 0.61133 0.83704 0.29387 0.0
C354 C 0.60961 0.85901 0.28078 0.0
C355 C 0.60973 0.86132 0.25152 0.0
C356 C 0.61072 0.84128 0.23413 0.0
C357 C 0.60987 0.84294 0.20433 0.0
C358 C 0.60908 0.82177 0.18764 0.0
C359 C 0.61026 0.79933 0.19995 0.0
C360 C 0.61306 0.79835 0.22968 0.0
C361 C 0.61637 0.77728 0.2427 0.0
C362 C 0.61807 0.77598 0.27203 0.0
C363 C 0.6159 0.79534 0.28952 0.0
C364 C 0.6134 0.8172 0.27677 0.0
C365 C 0.61249 0.81899 0.24684 0.0
C366 C 0.64893 0.98443 0.17163 0.0
C367 C 0.63173 0.9625 0.149 0.0
O368 O 0.62597 0.70531 0.36897 0.0
O369 O 0.59896 0.71165 0.12998 0.0
O370 O 0.61055 0.93879 0.1616 0.0
O371 O 0.58602 0.90968 0.37833 0.0
H372 H 0.65678 0.72538 0.39905 0.0
H373 H 0.6821 0.72708 0.35692 0.0
H374 H 0.66099 0.69038 0.35073 0.0
H375 H 0.68473 0.70321 0.38082 0.0
H376 H 0.58087 0.70111 0.34851 0.0
H377 H 0.66736 0.75903 0.36563 0.0
H378 H 0.56183 0.75318 0.33244 0.0
H379 H 0.55008 0.71628 0.33201 0.0
H380 H 0.56683 0.73756 0.30153 0.0
H381 H 0.68935 0.80563 0.35135 0.0
H382 H 0.66664 0.81994 0.356 0.0
H383 H 0.67358 0.81257 0.32108 0.0
H384 H 0.61678 0.94985 0.36611 0.0
H385 H 0.59065 0.96691 0.3852 0.0
H386 H 0.60944 0.95998 0.44009 0.0
H387 H 0.56654 0.93609 0.397 0.0
H388 H 0.6379 0.91896 0.36847 0.0
H389 H 0.55025 0.85937 0.36474 0.0
H390 H 0.66139 0.87092 0.35197 0.0
H391 H 0.67203 0.90745 0.35541 0.0
H392 H 0.66101 0.89017 0.32157 0.0
H393 H 0.53269 0.81389 0.34682 0.0
H394 H 0.55628 0.80021 0.34806 0.0
H395 H 0.55219 0.8151 0.31592 0.0
H396 H 0.64626 0.95758 0.13758 0.0
H397 H 0.6561 0.93345 0.16936 0.0
H398 H 0.56666 0.89227 0.17326 0.0
H399 H 0.66609 0.88884 0.21096 0.0
H400 H 0.68139 0.91118 0.18067 0.0
H401 H 0.66271 0.87369 0.1767 0.0
H402 H 0.53925 0.84468 0.18572 0.0
H403 H 0.55558 0.83826 0.21578 0.0
H404 H 0.55522 0.82325 0.18216 0.0
H405 H 0.59612 0.68673 0.16357 0.0
H406 H 0.63431 0.67899 0.14626 0.0
H407 H 0.64594 0.71553 0.14971 0.0
H408 H 0.63802 0.6996 0.11506 0.0
H409 H 0.64366 0.7606 0.13383 0.0
H410 H 0.55966 0.70946 0.16188 0.0
H411 H 0.6646 0.81296 0.18743 0.0
H412 H 0.65522 0.82381 0.15539 0.0
H413 H 0.67402 0.80504 0.15362 0.0
H414 H 0.53703 0.72753 0.18997 0.0
H415 H 0.55346 0.76486 0.19464 0.0
H416 H 0.56016 0.74432 0.21952 0.0
H417 H 0.61258 0.81063 0.35893 0.0
H418 H 0.60826 0.87482 0.29296 0.0
H419 H 0.60851 0.87878 0.24276 0.0
H420 H 0.60742 0.82271 0.16481 0.0
H421 H 0.61771 0.76156 0.23033 0.0
H422 H 0.62065 0.7593 0.28082 0.0
H423 H 0.66384 0.00459 0.16155 0.0
H424 H 0.63515 0.9876 0.18626 0.0
H425 H 0.66115 0.97738 0.18447 0.0
C426 C 0.66508 0.55704 0.9441 0.0
C427 C 0.69181 0.57286 0.92852 0.0
C428 C 0.72466 0.56427 0.90218 0.0
C429 C 0.7408 0.59169 0.89194 0.0
C430 C 0.76286 0.59862 0.87314 0.0
C431 C 0.76855 0.57766 0.86403 0.0
C432 C 0.75201 0.54998 0.8739 0.0
C433 C 0.73044 0.54373 0.89306 0.0
C434 C 0.7803 0.6284 0.86325 0.0
C435 C 0.75727 0.52702 0.86438 0.0
C436 C 0.94958 0.64277 0.95784 0.0
C437 C 0.93184 0.61668 0.93996 0.0
C438 C 0.91359 0.61655 0.89318 0.0
C439 C 0.89201 0.58879 0.89101 0.0
C440 C 0.86898 0.58149 0.87311 0.0
C441 C 0.86718 0.60261 0.85776 0.0
C442 C 0.88935 0.63062 0.85957 0.0
C443 C 0.91265 0.63706 0.87675 0.0
C444 C 0.84622 0.55131 0.87138 0.0
C445 C 0.88804 0.65399 0.84433 0.0
C446 C 0.90094 0.60448 0.67047 0.0
C447 C 0.88341 0.57874 0.68315 0.0
C448 C 0.86068 0.57484 0.69955 0.0
C449 C 0.85601 0.59753 0.70387 0.0
C450 C 0.8737 0.62354 0.69077 0.0
C451 C 0.89577 0.62654 0.67384 0.0
C452 C 0.84176 0.54653 0.71229 0.0
C453 C 0.86947 0.64821 0.69481 0.0
C454 C 0.67663 0.61319 0.69428 0.0
C455 C 0.68456 0.60292 0.66766 0.0
C456 C 0.71387 0.58418 0.68613 0.0
C457 C 0.71482 0.55972 0.69088 0.0
C458 C 0.73843 0.56047 0.70311 0.0
C459 C 0.76164 0.58642 0.71098 0.0
C460 C 0.76108 0.61135 0.70582 0.0
C461 C 0.73726 0.61001 0.69341 0.0
C462 C 0.73841 0.53353 0.70817 0.0
C463 C 0.78551 0.6394 0.71392 0.0
C464 C 0.79266 0.5848 0.84534 0.0
C465 C 0.81782 0.59055 0.8582 0.0
C466 C 0.84107 0.59583 0.84215 0.0
C467 C 0.83915 0.59508 0.81225 0.0
C468 C 0.86163 0.59903 0.79537 0.0
C469 C 0.8597 0.59884 0.76597 0.0
C470 C 0.8351 0.59443 0.75229 0.0
C471 C 0.83292 0.59418 0.72239 0.0
C472 C 0.80856 0.59098 0.70957 0.0
C473 C 0.78603 0.58757 0.72579 0.0
C474 C 0.78736 0.58648 0.75564 0.0
C475 C 0.76461 0.5818 0.77254 0.0
C476 C 0.76612 0.5808 0.8019 0.0
C477 C 0.79071 0.58523 0.81552 0.0
C478 C 0.814 0.59022 0.79891 0.0
C479 C 0.81213 0.59029 0.76892 0.0
C480 C 0.96959 0.64149 0.66595 0.0
C481 C 0.94706 0.61063 0.66561 0.0
O482 O 0.7035 0.55679 0.92083 0.0
O483 O 0.6899 0.5817 0.67501 0.0
O484 O 0.92262 0.60806 0.65442 0.0
O485 O 0.93511 0.62414 0.91162 0.0
H486 H 0.70718 0.59333 0.93811 0.0
H487 H 0.66401 0.53722 0.95181 0.0
H488 H 0.63518 0.55718 0.91608 0.0
H489 H 0.66951 0.56698 0.96569 0.0
H490 H 0.73658 0.60783 0.89881 0.0
H491 H 0.71783 0.52265 0.90096 0.0
H492 H 0.80259 0.63633 0.86876 0.0
H493 H 0.77362 0.64243 0.87278 0.0
H494 H 0.7788 0.62927 0.83986 0.0
H495 H 0.7411 0.50618 0.8721 0.0
H496 H 0.77796 0.53127 0.87241 0.0
H497 H 0.75779 0.52651 0.84091 0.0
H498 H 0.90968 0.60844 0.94632 0.0
H499 H 0.94699 0.63743 0.98072 0.0
H500 H 0.94285 0.65834 0.9539 0.0
H501 H 0.97202 0.65234 0.95236 0.0
H502 H 0.89315 0.57289 0.90345 0.0
H503 H 0.92961 0.65842 0.87857 0.0
H504 H 0.83806 0.54559 0.8494 0.0
H505 H 0.8287 0.54807 0.88514 0.0
H506 H 0.85371 0.53704 0.87865 0.0
H507 H 0.90471 0.67487 0.85159 0.0
H508 H 0.86746 0.65247 0.84757 0.0
H509 H 0.89059 0.65237 0.82129 0.0
H510 H 0.94368 0.60283 0.68784 0.0
H511 H 0.88747 0.5617 0.67996 0.0
H512 H 0.90942 0.64627 0.6636 0.0
H513 H 0.84529 0.54749 0.7355 0.0
H514 H 0.84561 0.5302 0.70343 0.0
H515 H 0.81952 0.5403 0.70855 0.0
H516 H 0.887 0.66776 0.68612 0.0
H517 H 0.86727 0.65133 0.71764 0.0
H518 H 0.8499 0.64408 0.68391 0.0
H519 H 0.70352 0.62082 0.65844 0.0
H520 H 0.67357 0.63108 0.68905 0.0
H521 H 0.69355 0.62051 0.71041 0.0
H522 H 0.65733 0.59605 0.7038 0.0
H523 H 0.69678 0.53989 0.68516 0.0
H524 H 0.73706 0.62923 0.68995 0.0
H525 H 0.73992 0.53058 0.73124 0.0
H526 H 0.75695 0.53451 0.69811 0.0
H527 H 0.71926 0.51515 0.69969 0.0
H528 H 0.78207 0.65693 0.7081 0.0
H529 H 0.80467 0.64248 0.70329 0.0
H530 H 0.78928 0.64008 0.7371 0.0
H531 H 0.81928 0.5908 0.88113 0.0
H532 H 0.88101 0.60237 0.80473 0.0
H533 H 0.87782 0.6023 0.75412 0.0
H534 H 0.80721 0.59142 0.68667 0.0
H535 H 0.74525 0.57861 0.76327 0.0
H536 H 0.74788 0.57688 0.81381 0.0
H537 H 0.97379 0.65008 0.64411 0.0
H538 H 0.98929 0.64425 0.67542 0.0
H539 H 0.96255 0.65352 0.67886 0.0
C540 C 0.0902 0.69915 0.40221 0.0
C541 C 0.09036 0.6756 0.38513 0.0
C542 C 0.13553 0.7029 0.36048 0.0
C543 C 0.12824 0.71927 0.34358 0.0
C544 C 0.14865 0.74187 0.32801 0.0
C545 C 0.17656 0.74729 0.32828 0.0
C546 C 0.18345 0.72963 0.34384 0.0
C547 C 0.16287 0.70788 0.35995 0.0
C548 C 0.14049 0.76035 0.31188 0.0
C549 C 0.21271 0.73414 0.34427 0.0
C550 C 0.28554 0.8965 0.45003 0.0
C551 C 0.30347 0.88967 0.43088 0.0
C552 C 0.2884 0.8803 0.38176 0.0
C553 C 0.294 0.85905 0.37466 0.0
C554 C 0.27889 0.84001 0.35297 0.0
C555 C 0.25739 0.84202 0.33851 0.0
C556 C 0.25242 0.86411 0.34504 0.0
C557 C 0.26842 0.88332 0.36632 0.0
C558 C 0.2854 0.81729 0.34604 0.0
C559 C 0.2296 0.86683 0.33026 0.0
C560 C 0.3099 0.90093 0.15594 0.0
C561 C 0.31952 0.88457 0.16917 0.0
C562 C 0.3009 0.85987 0.18331 0.0
C563 C 0.2723 0.85196 0.18484 0.0
C564 C 0.26265 0.86849 0.17132 0.0
C565 C 0.28157 0.89251 0.15656 0.0
C566 C 0.31173 0.84214 0.19634 0.0
C567 C 0.23235 0.86082 0.17237 0.0
C568 C 0.09775 0.66278 0.15131 0.0
C569 C 0.11073 0.67635 0.12285 0.0
C570 C 0.15734 0.71096 0.14034 0.0
C571 C 0.18373 0.71474 0.14674 0.0
C572 C 0.20242 0.73652 0.16454 0.0
C573 C 0.19462 0.75528 0.17576 0.0
C574 C 0.16837 0.75227 0.1685 0.0
C575 C 0.14995 0.73009 0.15103 0.0
C576 C 0.23031 0.73924 0.17173 0.0
C577 C 0.15965 0.77238 0.17941 0.0
C578 C 0.19891 0.77228 0.31378 0.0
C579 C 0.21673 0.79523 0.33055 0.0
C580 C 0.23849 0.81946 0.3187 0.0
C581 C 0.24219 0.82132 0.28903 0.0
C582 C 0.26314 0.84571 0.27619 0.0
C583 C 0.26625 0.84743 0.2469 0.0
C584 C 0.2491 0.82452 0.22941 0.0
C585 C 0.25216 0.82595 0.19963 0.0
C586 C 0.23466 0.80277 0.18295 0.0
C587 C 0.21382 0.77814 0.19506 0.0
C588 C 0.2105 0.77623 0.22477 0.0
C589 C 0.18993 0.75162 0.23767 0.0
C590 C 0.18623 0.7502 0.26683 0.0
C591 C 0.20294 0.77332 0.28421 0.0
C592 C 0.2244 0.79808 0.27175 0.0
C593 C 0.22811 0.79957 0.24197 0.0
C594 C 0.35358 0.973 0.15183 0.0
C595 C 0.35321 0.94517 0.15189 0.0
O596 O 0.11733 0.68248 0.37799 0.0
O597 O 0.13958 0.6885 0.12429 0.0
O598 O 0.32738 0.92468 0.14196 0.0
O599 O 0.30201 0.89805 0.40349 0.0
H600 H 0.07758 0.67154 0.36553 0.0
H601 H 0.09707 0.71814 0.38922 0.0
H602 H 0.10435 0.70483 0.42091 0.0
H603 H 0.06873 0.69242 0.40961 0.0
H604 H 0.10687 0.7149 0.34283 0.0
H605 H 0.1682 0.69486 0.37271 0.0
H606 H 0.15503 0.78262 0.31709 0.0
H607 H 0.11884 0.75539 0.3166 0.0
H608 H 0.14196 0.75767 0.28882 0.0
H609 H 0.21317 0.71529 0.35168 0.0
H610 H 0.22576 0.75154 0.35896 0.0
H611 H 0.22221 0.73986 0.32294 0.0
H612 H 0.2948 0.86665 0.43175 0.0
H613 H 0.28576 0.88944 0.47203 0.0
H614 H 0.2636 0.8856 0.44219 0.0
H615 H 0.2934 0.91933 0.45017 0.0
H616 H 0.31009 0.85733 0.38621 0.0
H617 H 0.26457 0.9001 0.37182 0.0
H618 H 0.28665 0.81545 0.32277 0.0
H619 H 0.26834 0.79705 0.35391 0.0
H620 H 0.30534 0.82114 0.35591 0.0
H621 H 0.22818 0.88501 0.33802 0.0
H622 H 0.20918 0.84757 0.33355 0.0
H623 H 0.23346 0.86916 0.30714 0.0
H624 H 0.35655 0.94083 0.17422 0.0
H625 H 0.34145 0.89085 0.16795 0.0
H626 H 0.27442 0.90523 0.14595 0.0
H627 H 0.31075 0.84287 0.21974 0.0
H628 H 0.33368 0.84935 0.19031 0.0
H629 H 0.29846 0.82003 0.18971 0.0
H630 H 0.2291 0.87799 0.16465 0.0
H631 H 0.22439 0.85541 0.19432 0.0
H632 H 0.21975 0.84219 0.15889 0.0
H633 H 0.10511 0.69253 0.11758 0.0
H634 H 0.07463 0.65284 0.15026 0.0
H635 H 0.10529 0.67862 0.16844 0.0
H636 H 0.10335 0.64666 0.15696 0.0
H637 H 0.18939 0.70007 0.13828 0.0
H638 H 0.12985 0.7279 0.14597 0.0
H639 H 0.23288 0.73923 0.19507 0.0
H640 H 0.24732 0.75946 0.16368 0.0
H641 H 0.23267 0.7221 0.1625 0.0
H642 H 0.13983 0.76888 0.16957 0.0
H643 H 0.17622 0.79421 0.17523 0.0
H644 H 0.15679 0.76996 0.20266 0.0
H645 H 0.2138 0.7941 0.3533 0.0
H646 H 0.27712 0.86387 0.28864 0.0
H647 H 0.2824 0.86692 0.23817 0.0
H648 H 0.23683 0.80417 0.16011 0.0
H649 H 0.17637 0.7332 0.22535 0.0
H650 H 0.17001 0.73075 0.27558 0.0
H651 H 0.37358 0.98988 0.16076 0.0
H652 H 0.33628 0.9713 0.16504 0.0
H653 H 0.35086 0.97874 0.12994 0.0
C654 C 0.3927 0.0715 0.62791 0.0
C655 C 0.41651 0.09833 0.61511 0.0
C656 C 0.42971 0.13454 0.65177 0.0
C657 C 0.4518 0.15347 0.66886 0.0
C658 C 0.44981 0.17381 0.68467 0.0
C659 C 0.42451 0.17444 0.68424 0.0
C660 C 0.40172 0.15477 0.66763 0.0
C661 C 0.40469 0.13535 0.6512 0.0
C662 C 0.47503 0.19505 0.70115 0.0
C663 C 0.37432 0.15458 0.66679 0.0
C664 C 0.40247 0.30625 0.57664 0.0
C665 C 0.41859 0.32808 0.59969 0.0
C666 C 0.43392 0.30412 0.63336 0.0
C667 C 0.40733 0.28499 0.64381 0.0
C668 C 0.40408 0.26495 0.66403 0.0
C669 C 0.4279 0.26444 0.67439 0.0
C670 C 0.45473 0.28425 0.6646 0.0
C671 C 0.45732 0.30371 0.64406 0.0
C672 C 0.37514 0.24388 0.67384 0.0
C673 C 0.48063 0.2845 0.67541 0.0
C674 C 0.42223 0.32148 0.85017 0.0
C675 C 0.39656 0.29986 0.83987 0.0
C676 C 0.39453 0.27546 0.82849 0.0
C677 C 0.41872 0.27289 0.82693 0.0
C678 C 0.44443 0.29444 0.83777 0.0
C679 C 0.44572 0.3183 0.84951 0.0
C680 C 0.36663 0.25258 0.81776 0.0
C681 C 0.47068 0.2925 0.83665 0.0
C682 C 0.42904 0.09074 0.84868 0.0
C683 C 0.44595 0.1135 0.87072 0.0
C684 C 0.42741 0.14498 0.86786 0.0
C685 C 0.40082 0.14162 0.86385 0.0
C686 C 0.39712 0.16126 0.84832 0.0
C687 C 0.4207 0.18489 0.83695 0.0
C688 C 0.44778 0.18921 0.84248 0.0
C689 C 0.45085 0.16928 0.85803 0.0
C690 C 0.36804 0.15631 0.84315 0.0
C691 C 0.47348 0.21453 0.8313 0.0
C692 C 0.42278 0.19728 0.6988 0.0
C693 C 0.42487 0.21904 0.682 0.0
C694 C 0.4247 0.24199 0.69388 0.0
C695 C 0.42246 0.24357 0.72348 0.0
C696 C 0.42287 0.2667 0.73617 0.0
C697 C 0.42103 0.26822 0.76538 0.0
C698 C 0.4188 0.24669 0.78306 0.0
C699 C 0.4175 0.24831 0.81286 0.0
C700 C 0.41686 0.22724 0.82986 0.0
C701 C 0.41726 0.20437 0.81788 0.0
C702 C 0.41723 0.20176 0.78811 0.0
C703 C 0.41652 0.17845 0.77535 0.0
C704 C 0.41768 0.17661 0.74608 0.0
C705 C 0.42016 0.19823 0.72847 0.0
C706 C 0.42018 0.22158 0.74085 0.0
C707 C 0.41846 0.22321 0.77068 0.0
C708 C 0.40639 0.36573 0.82899 0.0
C709 C 0.4074 0.35617 0.85925 0.0
O710 O 0.43358 0.11605 0.63635 0.0
O711 O 0.42987 0.12436 0.88083 0.0
O712 O 0.42556 0.34575 0.86086 0.0
O713 O 0.43811 0.32292 0.61267 0.0
H714 H 0.40755 0.10895 0.60231 0.0
H715 H 0.37939 0.07615 0.64163 0.0
H716 H 0.40113 0.0606 0.64097 0.0
H717 H 0.37928 0.05722 0.61081 0.0
H718 H 0.47102 0.15271 0.66917 0.0
H719 H 0.38737 0.121 0.63802 0.0
H720 H 0.47904 0.21647 0.69674 0.0
H721 H 0.49412 0.19411 0.69602 0.0
H722 H 0.4711 0.19117 0.72415 0.0
H723 H 0.35725 0.13507 0.65729 0.0
H724 H 0.37673 0.17248 0.65394 0.0
H725 H 0.36814 0.15696 0.68845 0.0
H726 H 0.40359 0.32739 0.61566 0.0
H727 H 0.39042 0.28511 0.58598 0.0
H728 H 0.41697 0.30585 0.56078 0.0
H729 H 0.38749 0.31106 0.56572 0.0
H730 H 0.38897 0.28512 0.63597 0.0
H731 H 0.47774 0.31862 0.63599 0.0
H732 H 0.37108 0.22242 0.66963 0.0
H733 H 0.35865 0.24656 0.66319 0.0
H734 H 0.37365 0.24587 0.69703 0.0
H735 H 0.50008 0.30314 0.66813 0.0
H736 H 0.48062 0.26553 0.66783 0.0
H737 H 0.48072 0.28404 0.69891 0.0
H738 H 0.38613 0.33978 0.86572 0.0
H739 H 0.37808 0.30183 0.84057 0.0
H740 H 0.46536 0.33498 0.85775 0.0
H741 H 0.3671 0.25147 0.79435 0.0
H742 H 0.34925 0.25613 0.8237 0.0
H743 H 0.36232 0.23209 0.82628 0.0
H744 H 0.48952 0.31228 0.84315 0.0
H745 H 0.47384 0.28706 0.81492 0.0
H746 H 0.46852 0.27565 0.85104 0.0
H747 H 0.46458 0.12963 0.85931 0.0
H748 H 0.4405 0.07992 0.8423 0.0
H749 H 0.42564 0.10038 0.82951 0.0
H750 H 0.4082 0.0753 0.857 0.0
H751 H 0.38289 0.12302 0.87199 0.0
H752 H 0.47158 0.17269 0.86237 0.0
H753 H 0.36343 0.15407 0.82008 0.0
H754 H 0.36666 0.1746 0.8506 0.0
H755 H 0.35191 0.13731 0.85407 0.0
H756 H 0.4931 0.21594 0.83933 0.0
H757 H 0.47332 0.23381 0.83735 0.0
H758 H 0.47341 0.21364 0.80783 0.0
H759 H 0.42708 0.21829 0.65926 0.0
H760 H 0.42473 0.28396 0.72364 0.0
H761 H 0.42163 0.28663 0.77392 0.0
H762 H 0.41698 0.22913 0.85271 0.0
H763 H 0.41506 0.16136 0.78787 0.0
H764 H 0.417 0.15819 0.73741 0.0
H765 H 0.39211 0.37439 0.82772 0.0
H766 H 0.39852 0.34787 0.81407 0.0
H767 H 0.42757 0.38197 0.82218 0.0
H768 H 0.04823 0.44547 0.05584 0.0
H769 H 0.99717 0.45297 0.11984 0.0
H770 H 0.0161 0.43456 0.15536 0.0
H771 H 0.04749 0.41672 0.16835 0.0
H772 H 0.09624 0.40652 0.10362 0.0
H773 H 0.07814 0.42588 0.06844 0.0
C774 C 0.04121 0.44306 0.07756 0.0
C775 C 0.02137 0.45067 0.08518 0.0
C776 C 0.05194 0.43217 0.09781 0.0
C777 C 0.01233 0.44717 0.11337 0.0
C778 C 0.02323 0.43675 0.13372 0.0
C779 C 0.05418 0.41883 0.14653 0.0
C780 C 0.07356 0.41061 0.13887 0.0
C781 C 0.04311 0.42929 0.1262 0.0
C782 C 0.08175 0.41306 0.11039 0.0
C783 C 0.07128 0.42402 0.09015 0.0
H784 H 0.54453 0.98746 0.62252 0.0
H785 H 0.59099 0.01911 0.54532 0.0
H786 H 0.63476 0.03488 0.57116 0.0
H787 H 0.65983 0.03904 0.6154 0.0
H788 H 0.61418 0.01056 0.69344 0.0
H789 H 0.57012 0.99417 0.66761 0.0
C790 C 0.56427 0.99777 0.61145 0.0
C791 C 0.56457 0.002 0.5821 0.0
C792 C 0.5895 0.00743 0.62657 0.0
C793 C 0.59027 0.0157 0.56797 0.0
C794 C 0.6153 0.02469 0.5827 0.0
C795 C 0.64034 0.02961 0.62689 0.0
C796 C 0.64033 0.02624 0.65641 0.0
C797 C 0.61519 0.02068 0.61199 0.0
C798 C 0.61471 0.01358 0.67075 0.0
C799 C 0.58954 0.00413 0.65599 0.0
H800 H 0.53219 0.5674 0.09078 0.0
H801 H 0.52709 0.61212 0.01817 0.0
H802 H 0.55201 0.65612 0.0444 0.0
H803 H 0.57841 0.68208 0.08678 0.0
H804 H 0.5819 0.63682 0.15979 0.0
H805 H 0.55454 0.59273 0.13446 0.0
C806 C 0.5363 0.58676 0.08079 0.0
C807 C 0.52806 0.58659 0.05253 0.0
C808 C 0.5505 0.61185 0.09599 0.0
C809 C 0.53318 0.61173 0.03994 0.0
C810 C 0.54758 0.6369 0.05487 0.0
C811 C 0.57276 0.66257 0.09735 0.0
C812 C 0.582 0.66271 0.12529 0.0
C813 C 0.55679 0.63726 0.08274 0.0
C814 C 0.57481 0.63719 0.13842 0.0
C815 C 0.55926 0.61202 0.12394 0.0
H816 H 0.00364 0.54672 0.61044 0.0
H817 H 0.95416 0.54531 0.53865 0.0
H818 H 0.93604 0.5701 0.56595 0.0
H819 H 0.93479 0.59284 0.60992 0.0
H820 H 0.9822 0.59218 0.68263 0.0
H821 H 0.00074 0.56771 0.65522 0.0
C822 C 0.98891 0.55187 0.6008 0.0
C823 C 0.98035 0.54429 0.57254 0.0
C824 C 0.97817 0.56571 0.61679 0.0
C825 C 0.96102 0.55084 0.56041 0.0
C826 C 0.95069 0.56507 0.57598 0.0
C827 C 0.94886 0.58702 0.61994 0.0
C828 C 0.95677 0.59396 0.64848 0.0
C829 C 0.95911 0.57262 0.60418 0.0
C830 C 0.97552 0.58672 0.66082 0.0
C831 C 0.98618 0.57282 0.64515 0.0
H832 H 0.46651 0.9801 0.08959 0.0
H833 H 0.41051 0.93478 0.02077 0.0
H834 H 0.37024 0.92104 0.05169 0.0
H835 H 0.35139 0.92617 0.09704 0.0
H836 H 0.40803 0.96987 0.16622 0.0
H837 H 0.4478 0.98003 0.13635 0.0
C838 C 0.44545 0.96687 0.08153 0.0
C839 C 0.4413 0.95866 0.05301 0.0
C840 C 0.42264 0.95901 0.09939 0.0
C841 C 0.41408 0.94125 0.04275 0.0
C842 C 0.39112 0.9336 0.06035 0.0
C843 C 0.37237 0.93743 0.10578 0.0
C844 C 0.37677 0.94734 0.13389 0.0
C845 C 0.39517 0.94295 0.08855 0.0
C846 C 0.40417 0.96202 0.1447 0.0
C847 C 0.42688 0.9679 0.12764 0.0
H848 H 0.46977 0.45231 0.55544 0.0
H849 H 0.52645 0.43127 0.51476 0.0
H850 H 0.50169 0.38462 0.53546 0.0
H851 H 0.46403 0.34986 0.5652 0.0
H852 H 0.40688 0.37062 0.60503 0.0
H853 H 0.43178 0.41742 0.58452 0.0
C854 C 0.47679 0.43758 0.55113 0.0
C855 C 0.50001 0.44533 0.53365 0.0
C856 C 0.46237 0.41076 0.56293 0.0
C857 C 0.50866 0.42587 0.52814 0.0
C858 C 0.49452 0.39918 0.53997 0.0
C859 C 0.45707 0.36468 0.56934 0.0
C860 C 0.43381 0.35692 0.58676 0.0
C861 C 0.47137 0.39143 0.55738 0.0
C862 C 0.42484 0.37619 0.59185 0.0
C863 C 0.43905 0.40291 0.58012 0.0
H864 H 0.5732 0.00467 0.45067 0.0
H865 H 0.51231 0.92318 0.48257 0.0
H866 H 0.53583 0.89959 0.46465 0.0
H867 H 0.58007 0.89761 0.43575 0.0
H868 H 0.65463 0.99389 0.39862 0.0
H869 H 0.62236 0.01707 0.42236 0.0
C870 C 0.5659 0.98255 0.45231 0.0
C871 C 0.54157 0.96483 0.46774 0.0
C872 C 0.58204 0.97238 0.44085 0.0
C873 C 0.5314 0.93573 0.47092 0.0
C874 C 0.54473 0.92172 0.46082 0.0
C875 C 0.58858 0.91993 0.43428 0.0
C876 C 0.61806 0.94222 0.41034 0.0
C877 C 0.56953 0.93617 0.44661 0.0
C878 C 0.63603 0.98112 0.41081 0.0
C879 C 0.61504 0.99499 0.42423 0.0
H880 H 0.57976 0.50306 0.96835 0.0
H881 H 0.59327 0.58248 0.99886 0.0
H882 H 0.63461 0.61043 0.97053 0.0
H883 H 0.67521 0.61741 0.92892 0.0
H884 H 0.65649 0.52374 0.88676 0.0
H885 H 0.6095 0.49573 0.92479 0.0
C886 C 0.59266 0.52559 0.9685 0.0
C887 C 0.58523 0.54192 0.98516 0.0
C888 C 0.61509 0.53817 0.95028 0.0
C889 C 0.60054 0.57151 0.98557 0.0
C890 C 0.62427 0.58791 0.96929 0.0
C891 C 0.66242 0.59496 0.92726 0.0
C892 C 0.674 0.57347 0.90762 0.0
C893 C 0.63376 0.5754 0.95077 0.0
C894 C 0.65052 0.53545 0.90051 0.0
C895 C 0.62233 0.51822 0.92521 0.0
H896 H 0.05725 0.57872 0.4742 0.0
H897 H 0.98079 0.54052 0.42518 0.0
H898 H 1.0001 0.5811 0.39365 0.0
H899 H 0.03872 0.62811 0.38074 0.0
H900 H 0.11474 0.66516 0.43044 0.0
H901 H 0.09548 0.62431 0.46108 0.0
C902 C 0.04471 0.57915 0.45663 0.0
C903 C 0.01755 0.55664 0.45215 0.0
C904 C 0.0559 0.60239 0.43871 0.0
C905 C 0.00176 0.55757 0.42912 0.0
C906 C 0.01278 0.58079 0.41112 0.0
C907 C 0.05106 0.62706 0.39817 0.0
C908 C 0.07822 0.6495 0.40315 0.0
C909 C 0.03982 0.6034 0.41579 0.0
C910 C 0.0939 0.64805 0.42603 0.0
C911 C 0.0829 0.62475 0.44357 0.0
H912 H 0.51306 0.09262 0.96842 0.0
H913 H 0.44624 0.0078 0.95676 0.0
H914 H 0.42339 0.02338 0.92293 0.0
H915 H 0.42366 0.06041 0.89469 0.0
H916 H 0.49187 0.145 0.90327 0.0
H917 H 0.51247 0.1303 0.94081 0.0
C918 C 0.49337 0.07764 0.95865 0.0
C919 C 0.48147 0.04911 0.96494 0.0
C920 C 0.48062 0.08666 0.93859 0.0
C921 C 0.45599 0.02988 0.95205 0.0
C922 C 0.44286 0.03876 0.93273 0.0
C923 C 0.44313 0.07573 0.90446 0.0
C924 C 0.45676 0.1037 0.89531 0.0
C925 C 0.45525 0.06701 0.92542 0.0
C926 C 0.48138 0.12322 0.90938 0.0
C927 C 0.49316 0.11484 0.93083 0.0
H928 H 0.46194 0.47069 0.45131 0.0
H929 H 0.45446 0.54275 0.47259 0.0
H930 H 0.41688 0.53191 0.43884 0.0
H931 H 0.37682 0.49755 0.39599 0.0
H932 H 0.38608 0.41219 0.36961 0.0
H933 H 0.43156 0.43131 0.41009 0.0
C934 C 0.45159 0.48273 0.44808 0.0
C935 C 0.46002 0.50757 0.46344 0.0
C936 C 0.43036 0.4734 0.42824 0.0
C937 C 0.44698 0.52397 0.46003 0.0
C938 C 0.42541 0.51811 0.44051 0.0
C939 C 0.38777 0.48596 0.39756 0.0
C940 C 0.37337 0.45026 0.38206 0.0
C941 C 0.41515 0.49488 0.42327 0.0
C942 C 0.3937 0.43178 0.38069 0.0
C943 C 0.42086 0.44299 0.40701 0.0
H944 H 0.01114 0.43298 0.93573 0.0
H945 H 0.93762 0.4093 0.98574 0.0
H946 H 0.91222 0.36584 0.95946 0.0
H947 H 0.91105 0.33354 0.92357 0.0
H948 H 0.98428 0.35587 0.87396 0.0
H949 H 0.00953 0.40076 0.89866 0.0
C950 C 0.98953 0.41838 0.94075 0.0
C951 C 0.97642 0.42446 0.96279 0.0
C952 C 0.97493 0.39312 0.92561 0.0
C953 C 0.94837 0.40521 0.96903 0.0
C954 C 0.93374 0.38028 0.95398 0.0
C955 C 0.93242 0.34842 0.91791 0.0
C956 C 0.94562 0.3416 0.89665 0.0
C957 C 0.94684 0.37393 0.93241 0.0
C958 C 0.97353 0.36083 0.88996 0.0
C959 C 0.98799 0.38642 0.90416 0.0
H960 H 0.98915 0.54383 0.96257 0.0
H961 H 0.92163 0.50475 0.02224 0.0
H962 H 0.90286 0.53388 0.00538 0.0
H963 H 0.90758 0.57284 0.97625 0.0
H964 H 0.97595 0.61311 0.91792 0.0
H965 H 0.9924 0.58104 0.9316 0.0
C966 C 0.97013 0.5414 0.97167 0.0
C967 C 0.95691 0.52218 0.99375 0.0
C968 C 0.95967 0.55852 0.96218 0.0
C969 C 0.93231 0.51942 0.00531 0.0
C970 C 0.92157 0.53611 0.99572 0.0
C971 C 0.9258 0.57423 0.96621 0.0
C972 C 0.94029 0.595 0.94582 0.0
C973 C 0.93536 0.55607 0.97454 0.0
C974 C 0.9642 0.597 0.93334 0.0
C975 C 0.97368 0.57878 0.94127 0.0
H976 H 0.42926 0.96707 0.47069 0.0
H977 H 0.40654 0.89783 0.52749 0.0
H978 H 0.36005 0.87283 0.50577 0.0
H979 H 0.32548 0.87111 0.4713 0.0
H980 H 0.34779 0.94139 0.41625 0.0
H981 H 0.39487 0.96543 0.43652 0.0
C982 C 0.41422 0.94645 0.47829 0.0
C983 C 0.42145 0.93434 0.50069 0.0
C984 C 0.38748 0.93233 0.4659 0.0
C985 C 0.40156 0.90768 0.51033 0.0
C986 C 0.37497 0.89335 0.49789 0.0
C987 C 0.34083 0.89155 0.46353 0.0
C988 C 0.33335 0.90408 0.44179 0.0
C989 C 0.36768 0.90552 0.47573 0.0
C990 C 0.35315 0.93093 0.43244 0.0
C991 C 0.38004 0.94478 0.44416 0.0
H992 H 0.4291 0.45314 0.94582 0.0
H993 H 0.51262 0.46609 0.94197 0.0
H994 H 0.49778 0.42942 0.90629 0.0
H995 H 0.46087 0.39243 0.87794 0.0
H996 H 0.37615 0.37581 0.88449 0.0
H997 H 0.39157 0.4153 0.9171 0.0
C998 C 0.44398 0.44805 0.93682 0.0
C999 C 0.47188 0.46224 0.94622 0.0
C1000 C 0.43503 0.42616 0.91707 0.0
C1001 C 0.49102 0.45532 0.93491 0.0
C1002 C 0.48255 0.43437 0.91459 0.0
C1003 C 0.44566 0.39718 0.8867 0.0
C1004 C 0.41723 0.38069 0.8794 0.0
C1005 C 0.45454 0.41935 0.90588 0.0
C1006 C 0.39805 0.38785 0.89029 0.0
C1007 C 0.40686 0.41044 0.90884 0.0
H1008 H 0.02702 0.45146 0.46408 0.0
H1009 H 0.09371 0.50427 0.52171 0.0
H1010 H 0.12207 0.48517 0.50409 0.0
H1011 H 0.12725 0.4521 0.47373 0.0
H1012 H 0.06003 0.39806 0.41746 0.0
H1013 H 0.03261 0.41909 0.43303 0.0
C1014 C 0.04783 0.45895 0.47268 0.0
C1015 C 0.05817 0.47926 0.49425 0.0
C1016 C 0.06395 0.44767 0.46265 0.0
C1017 C 0.08516 0.4886 0.50519 0.0
C1018 C 0.10142 0.4777 0.49511 0.0
C1019 C 0.10675 0.44527 0.4646 0.0
C1020 C 0.09596 0.42404 0.44402 0.0
C1021 C 0.09094 0.45707 0.47403 0.0
C1022 C 0.06907 0.4148 0.43286 0.0
C1023 C 0.05332 0.4267 0.44189 0.0
H1024 H 0.5979 0.03847 0.98089 0.0
H1025 H 0.5438 0.97889 0.91833 0.0
H1026 H 0.58443 0.98957 0.88915 0.0
H1027 H 0.63502 0.01724 0.88093 0.0
H1028 H 0.68895 0.07499 0.94502 0.0
H1029 H 0.64842 0.06378 0.97409 0.0
C1030 C 0.59497 0.02785 0.96082 0.0
C1031 C 0.5679 0.00819 0.95154 0.0
C1032 C 0.61833 0.0337 0.94455 0.0
C1033 C 0.56445 0.99418 0.92582 0.0
C1034 C 0.58765 0.00031 0.90917 0.0
C1035 C 0.6381 0.0269 0.90153 0.0
C1036 C 0.66525 0.04638 0.91112 0.0
C1037 C 0.61469 0.02015 0.91829 0.0
C1038 C 0.66844 0.05943 0.93745 0.0
C1039 C 0.64527 0.05315 0.95401 0.0
H1040 H 0.58266 0.61468 0.48012 0.0
H1041 H 0.59006 0.56167 0.41819 0.0
H1042 H 0.61561 0.60175 0.38692 0.0
H1043 H 0.63387 0.65124 0.37647 0.0
H1044 H 0.62828 0.70469 0.43927 0.0
H1045 H 0.60354 0.66479 0.47082 0.0
C1046 C 0.58996 0.61192 0.45981 0.0
C1047 C 0.58434 0.58523 0.45139 0.0
C1048 C 0.60488 0.63506 0.44212 0.0
C1049 C 0.59418 0.58202 0.42518 0.0
C1050 C 0.6087 0.6049 0.40726 0.0
C1051 C 0.62792 0.65446 0.39726 0.0
C1052 C 0.63379 0.68128 0.40578 0.0
C1053 C 0.61399 0.63149 0.41544 0.0
C1054 C 0.6247 0.68447 0.43247 0.0
C1055 C 0.61044 0.66165 0.45047 0.0
H1056 H 0.46932 0.05703 0.52134 0.0
H1057 H 0.50468 0.04134 0.59602 0.0
H1058 H 0.4855 0.06376 0.62549 0.0
H1059 H 0.45461 0.08314 0.63066 0.0
H1060 H 0.416 0.09594 0.55689 0.0
H1061 H 0.44034 0.07938 0.52641 0.0
C1062 C 0.47332 0.05922 0.54397 0.0
C1063 C 0.48844 0.04778 0.55659 0.0
C1064 C 0.46128 0.07122 0.56096 0.0
C1065 C 0.49309 0.05011 0.58596 0.0
C1066 C 0.48204 0.06278 0.60281 0.0
C1067 C 0.45193 0.08275 0.60787 0.0
C1068 C 0.43376 0.09097 0.59602 0.0
C1069 C 0.46546 0.07268 0.59064 0.0
C1070 C 0.43008 0.08993 0.56648 0.0
C1071 C 0.44393 0.0804 0.54907 0.0
H1072 H 0.42587 0.48212 0.05598 0.0
H1073 H 0.46725 0.44153 0.09568 0.0
H1074 H 0.42962 0.41457 0.12846 0.0
H1075 H 0.37695 0.39936 0.15492 0.0
H1076 H 0.32644 0.44564 0.10644 0.0
H1077 H 0.37313 0.47275 0.06818 0.0
C1078 C 0.42586 0.46778 0.07165 0.0
C1079 C 0.4487 0.46312 0.07436 0.0
C1080 C 0.4028 0.45422 0.08877 0.0
C1081 C 0.44918 0.44426 0.09461 0.0
C1082 C 0.42757 0.42845 0.11369 0.0
C1083 C 0.37538 0.41162 0.13787 0.0
C1084 C 0.34906 0.4234 0.138 0.0
C1085 C 0.40377 0.43063 0.11382 0.0
C1086 C 0.34343 0.44124 0.10723 0.0
C1087 C 0.37311 0.459 0.0845 0.0
H1088 H 0.98417 0.42228 0.55669 0.0
H1089 H 0.90464 0.41555 0.53778 0.0
H1090 H 0.88102 0.37325 0.56692 0.0
H1091 H 0.88378 0.34024 0.60035 0.0
H1092 H 0.9635 0.34603 0.6165 0.0
H1093 H 0.98637 0.38685 0.58584 0.0
C1094 C 0.96162 0.4114 0.55881 0.0
C1095 C 0.94612 0.42205 0.54548 0.0
C1096 C 0.94832 0.38708 0.57515 0.0
C1097 C 0.91693 0.40763 0.54791 0.0
C1098 C 0.9035 0.38358 0.56465 0.0
C1099 C 0.90606 0.35009 0.59678 0.0
C1100 C 0.92194 0.33998 0.61065 0.0
C1101 C 0.91906 0.37336 0.57874 0.0
C1102 C 0.95086 0.35332 0.60595 0.0
C1103 C 0.96394 0.37667 0.58851 0.0
H1104 H 0.56696 0.9788 0.04652 0.0
H1105 H 0.56644 0.03966 0.10289 0.0
H1106 H 0.59339 0.02998 0.13803 0.0
H1107 H 0.61492 0.00255 0.15325 0.0
H1108 H 0.61678 0.94298 0.09572 0.0
H1109 H 0.59112 0.95377 0.06041 0.0
C1110 C 0.57277 0.98998 0.0665 0.0
C1111 C 0.5645 0.00967 0.07231 0.0
C1112 C 0.58846 0.98457 0.08629 0.0
C1113 C 0.57257 0.02437 0.09801 0.0
C1114 C 0.58789 0.01878 0.11809 0.0
C1115 C 0.61035 0.99227 0.13287 0.0
C1116 C 0.61848 0.97236 0.12695 0.0
C1117 C 0.59574 0.99873 0.11253 0.0
C1118 C 0.61135 0.95881 0.10056 0.0
C1119 C 0.59656 0.96484 0.08043 0.0
H1120 H 0.60894 0.55395 0.55754 0.0
H1121 H 0.55427 0.57365 0.60425 0.0
H1122 H 0.58784 0.59126 0.64351 0.0
H1123 H 0.63216 0.60055 0.66449 0.0
H1124 H 0.68742 0.58178 0.61729 0.0
H1125 H 0.65381 0.56419 0.57817 0.0
C1126 C 0.6043 0.56208 0.57629 0.0
C1127 C 0.57904 0.56238 0.57795 0.0
C1128 C 0.6237 0.57225 0.59871 0.0
C1129 C 0.57353 0.57318 0.60237 0.0
C1130 C 0.59271 0.58321 0.62486 0.0
C1131 C 0.63716 0.59266 0.64587 0.0
C1132 C 0.6625 0.59228 0.64419 0.0
C1133 C 0.61784 0.58277 0.62329 0.0
C1134 C 0.66806 0.58207 0.61933 0.0
C1135 C 0.64888 0.57205 0.59693 0.0
H1136 H 0.03393 0.57683 0.04102 0.0
H1137 H 0.10439 0.56371 0.04348 0.0
H1138 H 0.13107 0.60652 0.07161 0.0
H1139 H 0.1319 0.6446 0.09979 0.0
H1140 H 0.06144 0.65796 0.09523 0.0
H1141 H 0.0371 0.61806 0.0635 0.0
C1142 C 0.05534 0.58371 0.0473 0.0
C1143 C 0.06725 0.56728 0.04051 0.0
C1144 C 0.07036 0.60817 0.06325 0.0
C1145 C 0.09498 0.57626 0.04845 0.0
C1146 C 0.11007 0.60055 0.06469 0.0
C1147 C 0.11153 0.6392 0.09132 0.0
C1148 C 0.09853 0.65437 0.09976 0.0
C1149 C 0.09767 0.61627 0.07285 0.0
C1150 C 0.07193 0.64677 0.08885 0.0
C1151 C 0.05796 0.62391 0.07082 0.0
loop_
_geom_bond_atom_site_label_1
_geom_bond_atom_site_label_2
_geom_bond_distance
_geom_bond_site_symmetry_2
_ccdc_geom_bond_type
C0 O2 1.247 . S
C0 O4 1.258 . S
C1 O8 1.247 . S
C1 O9 1.258 1_455 S
O2 C0 1.247 . S
O2 Zn3 2.028 . S
Zn3 O2 2.028 . S
Zn3 O7 2.035 1_454 S
Zn3 O9 2.035 1_454 S
Zn3 O10 2.028 . S
O4 C0 1.258 . S
O4 Zn5 2.035 1_554 S
Zn5 O4 2.035 1_556 S
Zn5 O6 2.028 . S
Zn5 O8 2.028 . S
Zn5 O11 2.035 1_556 S
O6 Zn5 2.028 . S
O6 C12 1.247 . S
O7 Zn3 2.035 1_656 S
O7 C12 1.258 1_655 S
O8 C1 1.247 . S
O8 Zn5 2.028 . S
O9 C1 1.258 1_655 S
O9 Zn3 2.035 1_656 S
O10 Zn3 2.028 . S
O10 C13 1.247 . S
O11 Zn5 2.035 1_554 S
O11 C13 1.258 . S
C12 O6 1.247 . S
C12 O7 1.258 1_455 S
C13 O10 1.247 . S
C13 O11 1.258 . S
C14 O16 1.247 . S
C14 O18 1.258 . S
C15 O22 1.247 1_565 S
C15 O23 1.258 . S
O16 C14 1.247 . S
O16 Zn17 2.028 1_545 S
Zn17 O16 2.028 1_565 S
Zn17 O21 2.035 . S
Zn17 O23 2.035 . S
Zn17 O24 2.028 1_565 S
O18 C14 1.258 . S
O18 Zn19 2.035 . S
Zn19 O18 2.035 . S
Zn19 O20 2.028 . S
Zn19 O22 2.028 . S
Zn19 O25 2.035 . S
O20 Zn19 2.028 . S
O20 C26 1.247 1_545 S
O21 Zn17 2.035 . S
O21 C26 1.258 . S
O22 C15 1.247 1_545 S
O22 Zn19 2.028 . S
O23 C15 1.258 . S
O23 Zn17 2.035 . S
O24 Zn17 2.028 1_545 S
O24 C27 1.247 . S
O25 Zn19 2.035 . S
O25 C27 1.258 . S
C26 O20 1.247 1_565 S
C26 O21 1.258 . S
C27 O24 1.247 . S
C27 O25 1.258 . S
C28 O30 1.247 . S
C28 O32 1.258 1_556 S
C29 O36 1.247 . S
C29 O37 1.258 . S
O30 C28 1.247 . S
O30 Zn31 2.034 . S
Zn31 O30 2.034 . S
Zn31 O35 2.026 1_556 S
Zn31 O37 2.026 1_556 S
Zn31 O38 2.034 . S
O32 C28 1.258 1_554 S
O32 Zn33 2.035 . S
Zn33 O32 2.035 . S
Zn33 O34 2.028 . S
Zn33 O36 2.028 . S
Zn33 O39 2.035 . S
O34 Zn33 2.028 . S
O34 C40 1.247 . S
O35 Zn31 2.026 1_554 S
O35 C40 1.258 . S
O36 C29 1.247 . S
O36 Zn33 2.028 . S
O37 C29 1.258 . S
O37 Zn31 2.026 1_554 S
O38 Zn31 2.034 . S
O38 C41 1.247 . S
O39 Zn33 2.035 . S
O39 C41 1.258 1_554 S
C40 O34 1.247 . S
C40 O35 1.258 . S
C41 O38 1.247 . S
C41 O39 1.258 1_556 S
C42 O44 1.247 . S
C42 O46 1.258 . S
C43 O50 1.247 . S
C43 O51 1.258 1_655 S
O44 C42 1.247 . S
O44 Zn45 2.028 . S
Zn45 O44 2.028 . S
Zn45 O49 2.035 . S
Zn45 O51 2.035 . S
Zn45 O52 2.028 . S
O46 C42 1.258 . S
O46 Zn47 2.035 1_455 S
Zn47 O46 2.035 1_655 S
Zn47 O48 2.028 . S
Zn47 O50 2.028 . S
Zn47 O53 2.035 1_655 S
O48 Zn47 2.028 . S
O48 C54 1.247 . S
O49 Zn45 2.035 . S
O49 C54 1.258 1_455 S
O50 C43 1.247 . S
O50 Zn47 2.028 . S
O51 C43 1.258 1_455 S
O51 Zn45 2.035 . S
O52 Zn45 2.028 . S
O52 C55 1.247 . S
O53 Zn47 2.035 1_455 S
O53 C55 1.258 . S
C54 O48 1.247 . S
C54 O49 1.258 1_655 S
C55 O52 1.247 . S
C55 O53 1.258 . S
C56 O58 1.247 1_565 S
C56 O60 1.258 . S
C57 O64 1.247 . S
C57 O65 1.258 1_556 S
O58 C56 1.247 1_545 S
O58 Zn59 2.028 . S
Zn59 O58 2.028 . S
Zn59 O63 2.035 . S
Zn59 O65 2.035 . S
Zn59 O66 2.028 . S
O60 C56 1.258 . S
O60 Zn61 2.035 1_554 S
Zn61 O60 2.035 1_556 S
Zn61 O62 2.028 1_565 S
Zn61 O64 2.028 1_565 S
Zn61 O67 2.035 1_556 S
O62 Zn61 2.028 1_545 S
O62 C68 1.247 . S
O63 Zn59 2.035 . S
O63 C68 1.258 1_554 S
O64 C57 1.247 . S
O64 Zn61 2.028 1_545 S
O65 C57 1.258 1_554 S
O65 Zn59 2.035 . S
O66 Zn59 2.028 . S
O66 C69 1.247 1_545 S
O67 Zn61 2.035 1_554 S
O67 C69 1.258 . S
C68 O62 1.247 . S
C68 O63 1.258 1_556 S
C69 O66 1.247 1_565 S
C69 O67 1.258 . S
C70 O72 1.247 . S
C70 O74 1.258 . S
C71 O78 1.247 . S
C71 O79 1.258 . S
O72 C70 1.247 . S
O72 Zn73 2.028 . S
Zn73 O72 2.028 . S
Zn73 O77 2.035 . S
Zn73 O79 2.035 . S
Zn73 O80 2.028 . S
O74 C70 1.258 . S
O74 Zn75 2.035 . S
Zn75 O74 2.035 . S
Zn75 O76 2.028 . S
Zn75 O78 2.028 . S
Zn75 O81 2.035 . S
O76 Zn75 2.028 . S
O76 C82 1.247 . S
O77 Zn73 2.035 . S
O77 C82 1.258 . S
O78 C71 1.247 . S
O78 Zn75 2.028 . S
O79 C71 1.258 . S
O79 Zn73 2.035 . S
O80 Zn73 2.028 . S
O80 C83 1.247 . S
O81 Zn75 2.035 . S
O81 C83 1.258 . S
C82 O76 1.247 . S
C82 O77 1.258 . S
C83 O80 1.247 . S
C83 O81 1.258 . S
C84 C85 1.560 . S
C84 H145 0.959 . S
C84 H146 0.959 . S
C84 H147 0.960 . S
C85 C84 1.560 . S
C85 O140 1.426 . S
C85 H144 0.980 . S
C86 C87 1.407 . S
C86 C91 1.418 . S
C86 O140 1.334 . S
C87 C86 1.407 . S
C87 C88 1.360 . S
C87 H148 0.929 . S
C88 C87 1.360 . S
C88 C89 1.401 . S
C88 C92 1.527 . S
C89 C88 1.401 . S
C89 C90 1.405 . S
C89 C122 1.587 . S
C90 C89 1.405 . S
C90 C91 1.332 . S
C90 C93 1.496 . S
C91 C86 1.418 . S
C91 C90 1.332 . S
C91 H149 0.929 . S
C92 C88 1.527 . S
C92 H150 0.959 . S
C92 H151 0.961 . S
C92 H152 0.961 . S
C93 C90 1.496 . S
C93 H153 0.960 . S
C93 H154 0.960 . S
C93 H155 0.961 . S
C94 C95 1.517 . S
C94 H157 0.961 . S
C94 H158 0.960 . S
C94 H159 0.959 . S
C95 C94 1.517 . S
C95 O143 1.468 . S
C95 H156 0.980 . S
C96 C97 1.349 . S
C96 C101 1.367 . S
C96 O143 1.408 . S
C97 C96 1.349 . S
C97 C98 1.407 . S
C97 H160 0.930 . S
C98 C97 1.407 . S
C98 C99 1.449 . S
C98 C102 1.535 . S
C99 C98 1.449 . S
C99 C100 1.384 . S
C99 C124 1.553 . S
C100 C99 1.384 . S
C100 C101 1.364 . S
C100 C103 1.450 . S
C101 C96 1.367 . S
C101 C100 1.364 . S
C101 H161 0.931 . S
C102 C98 1.535 . S
C102 H162 0.959 . S
C102 H163 0.961 . S
C102 H164 0.959 . S
C103 C100 1.450 . S
C103 H165 0.960 . S
C103 H166 0.960 . S
C103 H167 0.960 . S
C104 C105 1.309 . S
C104 C109 1.304 . S
C104 O142 1.435 . S
C105 C104 1.309 . S
C105 C106 1.476 . S
C105 H169 0.930 . S
C106 C105 1.476 . S
C106 C107 1.400 . S
C106 C110 1.567 . S
C107 C106 1.400 . S
C107 C108 1.373 . S
C107 C129 1.432 . S
C108 C107 1.373 . S
C108 C109 1.339 . S
C108 C111 1.530 . S
C109 C104 1.304 . S
C109 C108 1.339 . S
C109 H170 0.930 . S
C110 C106 1.567 . S
C110 H171 0.961 . S
C110 H172 0.960 . S
C110 H173 0.958 . S
C111 C108 1.530 . S
C111 H174 0.961 . S
C111 H175 0.960 . S
C111 H176 0.960 . S
C112 C113 1.530 . S
C112 H178 0.961 . S
C112 H179 0.961 . S
C112 H180 0.959 . S
C113 C112 1.530 . S
C113 O141 1.412 . S
C113 H177 0.980 . S
C114 C115 1.288 . S
C114 C119 1.377 . S
C114 O141 1.393 . S
C115 C114 1.288 . S
C115 C116 1.369 . S
C115 H181 0.932 . S
C116 C115 1.369 . S
C116 C117 1.398 . S
C116 C120 1.527 . S
C117 C116 1.398 . S
C117 C118 1.380 . S
C117 C131 1.497 . S
C118 C117 1.380 . S
C118 C119 1.383 . S
C118 C121 1.603 . S
C119 C114 1.377 . S
C119 C118 1.383 . S
C119 H182 0.929 . S
C120 C116 1.527 . S
C120 H183 0.961 . S
C120 H184 0.959 . S
C120 H185 0.959 . S
C121 C118 1.603 . S
C121 H186 0.960 . S
C121 H187 0.962 . S
C121 H188 0.961 . S
C122 C89 1.587 . S
C122 C123 1.360 . S
C122 C135 1.412 . S
C123 C122 1.360 . S
C123 C124 1.365 . S
C123 H189 0.929 . S
C124 C99 1.553 . S
C124 C123 1.365 . S
C124 C125 1.404 . S
C125 C124 1.404 . S
C125 C126 1.395 . S
C125 C136 1.451 . S
C126 C125 1.395 . S
C126 C127 1.322 . S
C126 H190 0.930 . S
C127 C126 1.322 . S
C127 C128 1.459 . S
C127 H191 0.929 . S
C128 C127 1.459 . S
C128 C129 1.445 . S
C128 C137 1.395 . S
C129 C107 1.432 . S
C129 C128 1.445 . S
C129 C130 1.370 . S
C130 C129 1.370 . S
C130 C131 1.438 . S
C130 H192 0.930 . S
C131 C117 1.497 . S
C131 C130 1.438 . S
C131 C132 1.360 . S
C132 C131 1.360 . S
C132 C133 1.401 . S
C132 C137 1.446 . S
C133 C132 1.401 . S
C133 C134 1.347 . S
C133 H193 0.929 . S
C134 C133 1.347 . S
C134 C135 1.455 . S
C134 H194 0.930 . S
C135 C122 1.412 . S
C135 C134 1.455 . S
C135 C136 1.331 . S
C136 C125 1.451 . S
C136 C135 1.331 . S
C136 C137 1.497 . S
C137 C128 1.395 . S
C137 C132 1.446 . S
C137 C136 1.497 . S
C138 C139 1.582 . S
C138 H195 0.962 . S
C138 H196 0.959 . S
C138 H197 0.958 . S
C139 C138 1.582 . S
C139 O142 1.458 . S
C139 H168 0.980 . S
O140 C85 1.426 . S
O140 C86 1.334 . S
O141 C113 1.412 . S
O141 C114 1.393 . S
O142 C104 1.435 . S
O142 C139 1.458 . S
O143 C95 1.468 . S
O143 C96 1.408 . S
H144 C85 0.980 . S
H145 C84 0.959 . S
H146 C84 0.959 . S
H147 C84 0.960 . S
H148 C87 0.929 . S
H149 C91 0.929 . S
H150 C92 0.959 . S
H151 C92 0.961 . S
H152 C92 0.961 . S
H153 C93 0.960 . S
H154 C93 0.960 . S
H155 C93 0.961 . S
H156 C95 0.980 . S
H157 C94 0.961 . S
H158 C94 0.960 . S
H159 C94 0.959 . S
H160 C97 0.930 . S
H161 C101 0.931 . S
H162 C102 0.959 . S
H163 C102 0.961 . S
H164 C102 0.959 . S
H165 C103 0.960 . S
H166 C103 0.960 . S
H167 C103 0.960 . S
H168 C139 0.980 . S
H169 C105 0.930 . S
H170 C109 0.930 . S
H171 C110 0.961 . S
H172 C110 0.960 . S
H173 C110 0.958 . S
H174 C111 0.961 . S
H175 C111 0.960 . S
H176 C111 0.960 . S
H177 C113 0.980 . S
H178 C112 0.961 . S
H179 C112 0.961 . S
H180 C112 0.959 . S
H181 C115 0.932 . S
H182 C119 0.929 . S
H183 C120 0.961 . S
H184 C120 0.959 . S
H185 C120 0.959 . S
H186 C121 0.960 . S
H187 C121 0.962 . S
H188 C121 0.961 . S
H189 C123 0.929 . S
H190 C126 0.930 . S
H191 C127 0.929 . S
H192 C130 0.930 . S
H193 C133 0.929 . S
H194 C134 0.930 . S
H195 C138 0.962 . S
H196 C138 0.959 . S
H197 C138 0.958 . S
C198 C199 1.560 . S
C198 H259 0.959 . S
C198 H260 0.959 . S
C198 H261 0.960 . S
C199 C198 1.560 . S
C199 O254 1.426 . S
C199 H258 0.980 . S
C200 C201 1.407 . S
C200 C205 1.418 . S
C200 O254 1.334 . S
C201 C200 1.407 . S
C201 C202 1.360 . S
C201 H262 0.929 . S
C202 C201 1.360 . S
C202 C203 1.401 . S
C202 C206 1.527 . S
C203 C202 1.401 . S
C203 C204 1.405 . S
C203 C236 1.587 . S
C204 C203 1.405 . S
C204 C205 1.332 . S
C204 C207 1.496 . S
C205 C200 1.418 . S
C205 C204 1.332 . S
C205 H263 0.929 . S
C206 C202 1.527 . S
C206 H264 0.959 . S
C206 H265 0.961 . S
C206 H266 0.961 . S
C207 C204 1.496 . S
C207 H267 0.960 . S
C207 H268 0.960 . S
C207 H269 0.961 . S
C208 C209 1.517 . S
C208 H271 0.961 . S
C208 H272 0.960 . S
C208 H273 0.959 . S
C209 C208 1.517 . S
C209 O257 1.468 . S
C209 H270 0.980 . S
C210 C211 1.349 . S
C210 C215 1.367 . S
C210 O257 1.408 . S
C211 C210 1.349 . S
C211 C212 1.407 . S
C211 H274 0.930 . S
C212 C211 1.407 . S
C212 C213 1.449 . S
C212 C216 1.535 . S
C213 C212 1.449 . S
C213 C214 1.384 . S
C213 C238 1.553 . S
C214 C213 1.384 . S
C214 C215 1.364 . S
C214 C217 1.450 . S
C215 C210 1.367 . S
C215 C214 1.364 . S
C215 H275 0.931 . S
C216 C212 1.535 . S
C216 H276 0.959 . S
C216 H277 0.961 . S
C216 H278 0.959 . S
C217 C214 1.450 . S
C217 H279 0.960 . S
C217 H280 0.960 . S
C217 H281 0.960 . S
C218 C219 1.309 . S
C218 C223 1.304 . S
C218 O256 1.435 . S
C219 C218 1.309 . S
C219 C220 1.476 . S
C219 H283 0.930 . S
C220 C219 1.476 . S
C220 C221 1.400 . S
C220 C224 1.567 . S
C221 C220 1.400 . S
C221 C222 1.373 . S
C221 C243 1.432 . S
C222 C221 1.373 . S
C222 C223 1.339 . S
C222 C225 1.530 . S
C223 C218 1.304 . S
C223 C222 1.339 . S
C223 H284 0.930 . S
C224 C220 1.567 . S
C224 H285 0.961 . S
C224 H286 0.960 . S
C224 H287 0.958 . S
C225 C222 1.530 . S
C225 H288 0.961 . S
C225 H289 0.960 . S
C225 H290 0.960 . S
C226 C227 1.530 . S
C226 H292 0.961 . S
C226 H293 0.961 . S
C226 H294 0.959 . S
C227 C226 1.530 . S
C227 O255 1.412 . S
C227 H291 0.980 . S
C228 C229 1.288 . S
C228 C233 1.377 . S
C228 O255 1.393 . S
C229 C228 1.288 . S
C229 C230 1.369 . S
C229 H295 0.932 . S
C230 C229 1.369 . S
C230 C231 1.398 . S
C230 C234 1.527 . S
C231 C230 1.398 . S
C231 C232 1.380 . S
C231 C245 1.497 . S
C232 C231 1.380 . S
C232 C233 1.383 . S
C232 C235 1.603 . S
C233 C228 1.377 . S
C233 C232 1.383 . S
C233 H296 0.929 . S
C234 C230 1.527 . S
C234 H297 0.961 . S
C234 H298 0.959 . S
C234 H299 0.959 . S
C235 C232 1.603 . S
C235 H300 0.960 . S
C235 H301 0.962 . S
C235 H302 0.961 . S
C236 C203 1.587 . S
C236 C237 1.360 . S
C236 C249 1.412 . S
C237 C236 1.360 . S
C237 C238 1.365 . S
C237 H303 0.929 . S
C238 C213 1.553 . S
C238 C237 1.365 . S
C238 C239 1.404 . S
C239 C238 1.404 . S
C239 C240 1.395 . S
C239 C250 1.451 . S
C240 C239 1.395 . S
C240 C241 1.322 . S
C240 H304 0.930 . S
C241 C240 1.322 . S
C241 C242 1.459 . S
C241 H305 0.929 . S
C242 C241 1.459 . S
C242 C243 1.445 . S
C242 C251 1.395 . S
C243 C221 1.432 . S
C243 C242 1.445 . S
C243 C244 1.370 . S
C244 C243 1.370 . S
C244 C245 1.438 . S
C244 H306 0.930 . S
C245 C231 1.497 . S
C245 C244 1.438 . S
C245 C246 1.360 . S
C246 C245 1.360 . S
C246 C247 1.401 . S
C246 C251 1.446 . S
C247 C246 1.401 . S
C247 C248 1.347 . S
C247 H307 0.929 . S
C248 C247 1.347 . S
C248 C249 1.455 . S
C248 H308 0.930 . S
C249 C236 1.412 . S
C249 C248 1.455 . S
C249 C250 1.331 . S
C250 C239 1.451 . S
C250 C249 1.331 . S
C250 C251 1.497 . S
C251 C242 1.395 . S
C251 C246 1.446 . S
C251 C250 1.497 . S
C252 C253 1.582 . S
C252 H309 0.962 . S
C252 H310 0.959 . S
C252 H311 0.958 . S
C253 C252 1.582 . S
C253 O256 1.458 . S
C253 H282 0.980 . S
O254 C199 1.426 . S
O254 C200 1.334 . S
O255 C227 1.412 . S
O255 C228 1.393 . S
O256 C218 1.435 . S
O256 C253 1.458 . S
O257 C209 1.468 . S
O257 C210 1.408 . S
H258 C199 0.980 . S
H259 C198 0.959 . S
H260 C198 0.959 . S
H261 C198 0.960 . S
H262 C201 0.929 . S
H263 C205 0.929 . S
H264 C206 0.959 . S
H265 C206 0.961 . S
H266 C206 0.961 . S
H267 C207 0.960 . S
H268 C207 0.960 . S
H269 C207 0.961 . S
H270 C209 0.980 . S
H271 C208 0.961 . S
H272 C208 0.960 . S
H273 C208 0.959 . S
H274 C211 0.930 . S
H275 C215 0.931 . S
H276 C216 0.959 . S
H277 C216 0.961 . S
H278 C216 0.959 . S
H279 C217 0.960 . S
H280 C217 0.960 . S
H281 C217 0.960 . S
H282 C253 0.980 . S
H283 C219 0.930 . S
H284 C223 0.930 . S
H285 C224 0.961 . S
H286 C224 0.960 . S
H287 C224 0.958 . S
H288 C225 0.961 . S
H289 C225 0.960 . S
H290 C225 0.960 . S
H291 C227 0.980 . S
H292 C226 0.961 . S
H293 C226 0.961 . S
H294 C226 0.959 . S
H295 C229 0.932 . S
H296 C233 0.929 . S
H297 C234 0.961 . S
H298 C234 0.959 . S
H299 C234 0.959 . S
H300 C235 0.960 . S
H301 C235 0.962 . S
H302 C235 0.961 . S
H303 C237 0.929 . S
H304 C240 0.930 . S
H305 C241 0.929 . S
H306 C244 0.930 . S
H307 C247 0.929 . S
H308 C248 0.930 . S
H309 C252 0.962 . S
H310 C252 0.959 . S
H311 C252 0.958 . S
C312 C313 1.560 . S
C312 H373 0.959 . S
C312 H374 0.959 . S
C312 H375 0.960 . S
C313 C312 1.560 . S
C313 O368 1.426 . S
C313 H372 0.980 . S
C314 C315 1.407 . S
C314 C319 1.418 . S
C314 O368 1.334 . S
C315 C314 1.407 . S
C315 C316 1.360 . S
C315 H376 0.929 . S
C316 C315 1.360 . S
C316 C317 1.401 . S
C316 C320 1.527 . S
C317 C316 1.401 . S
C317 C318 1.405 . S
C317 C350 1.587 . S
C318 C317 1.405 . S
C318 C319 1.332 . S
C318 C321 1.496 . S
C319 C314 1.418 . S
C319 C318 1.332 . S
C319 H377 0.929 . S
C320 C316 1.527 . S
C320 H378 0.959 . S
C320 H379 0.961 . S
C320 H380 0.961 . S
C321 C318 1.496 . S
C321 H381 0.960 . S
C321 H382 0.960 . S
C321 H383 0.961 . S
C322 C323 1.517 . S
C322 H385 0.961 . S
C322 H386 0.960 . S
C322 H387 0.959 . S
C323 C322 1.517 . S
C323 O371 1.468 . S
C323 H384 0.980 . S
C324 C325 1.349 . S
C324 C329 1.367 . S
C324 O371 1.408 . S
C325 C324 1.349 . S
C325 C326 1.407 . S
C325 H388 0.930 . S
C326 C325 1.407 . S
C326 C327 1.449 . S
C326 C330 1.535 . S
C327 C326 1.449 . S
C327 C328 1.384 . S
C327 C352 1.553 . S
C328 C327 1.384 . S
C328 C329 1.364 . S
C328 C331 1.450 . S
C329 C324 1.367 . S
C329 C328 1.364 . S
C329 H389 0.931 . S
C330 C326 1.535 . S
C330 H390 0.959 . S
C330 H391 0.961 . S
C330 H392 0.959 . S
C331 C328 1.450 . S
C331 H393 0.960 . S
C331 H394 0.960 . S
C331 H395 0.960 . S
C332 C333 1.309 . S
C332 C337 1.304 . S
C332 O370 1.435 . S
C333 C332 1.309 . S
C333 C334 1.476 . S
C333 H397 0.930 . S
C334 C333 1.476 . S
C334 C335 1.400 . S
C334 C338 1.567 . S
C335 C334 1.400 . S
C335 C336 1.373 . S
C335 C357 1.432 . S
C336 C335 1.373 . S
C336 C337 1.339 . S
C336 C339 1.530 . S
C337 C332 1.304 . S
C337 C336 1.339 . S
C337 H398 0.930 . S
C338 C334 1.567 . S
C338 H399 0.961 . S
C338 H400 0.960 . S
C338 H401 0.958 . S
C339 C336 1.530 . S
C339 H402 0.961 . S
C339 H403 0.960 . S
C339 H404 0.960 . S
C340 C341 1.530 . S
C340 H406 0.961 . S
C340 H407 0.961 . S
C340 H408 0.959 . S
C341 C340 1.530 . S
C341 O369 1.412 . S
C341 H405 0.980 . S
C342 C343 1.288 . S
C342 C347 1.377 . S
C342 O369 1.393 . S
C343 C342 1.288 . S
C343 C344 1.369 . S
C343 H409 0.932 . S
C344 C343 1.369 . S
C344 C345 1.398 . S
C344 C348 1.527 . S
C345 C344 1.398 . S
C345 C346 1.380 . S
C345 C359 1.497 . S
C346 C345 1.380 . S
C346 C347 1.383 . S
C346 C349 1.603 . S
C347 C342 1.377 . S
C347 C346 1.383 . S
C347 H410 0.929 . S
C348 C344 1.527 . S
C348 H411 0.961 . S
C348 H412 0.959 . S
C348 H413 0.959 . S
C349 C346 1.603 . S
C349 H414 0.960 . S
C349 H415 0.962 . S
C349 H416 0.961 . S
C350 C317 1.587 . S
C350 C351 1.360 . S
C350 C363 1.412 . S
C351 C350 1.360 . S
C351 C352 1.365 . S
C351 H417 0.929 . S
C352 C327 1.553 . S
C352 C351 1.365 . S
C352 C353 1.404 . S
C353 C352 1.404 . S
C353 C354 1.395 . S
C353 C364 1.451 . S
C354 C353 1.395 . S
C354 C355 1.322 . S
C354 H418 0.930 . S
C355 C354 1.322 . S
C355 C356 1.459 . S
C355 H419 0.929 . S
C356 C355 1.459 . S
C356 C357 1.445 . S
C356 C365 1.395 . S
C357 C335 1.432 . S
C357 C356 1.445 . S
C357 C358 1.370 . S
C358 C357 1.370 . S
C358 C359 1.438 . S
C358 H420 0.930 . S
C359 C345 1.497 . S
C359 C358 1.438 . S
C359 C360 1.360 . S
C360 C359 1.360 . S
C360 C361 1.401 . S
C360 C365 1.446 . S
C361 C360 1.401 . S
C361 C362 1.347 . S
C361 H421 0.929 . S
C362 C361 1.347 . S
C362 C363 1.455 . S
C362 H422 0.930 . S
C363 C350 1.412 . S
C363 C362 1.455 . S
C363 C364 1.331 . S
C364 C353 1.451 . S
C364 C363 1.331 . S
C364 C365 1.497 . S
C365 C356 1.395 . S
C365 C360 1.446 . S
C365 C364 1.497 . S
C366 C367 1.582 . S
C366 H423 0.962 . S
C366 H424 0.959 . S
C366 H425 0.958 . S
C367 C366 1.582 . S
C367 O370 1.458 . S
C367 H396 0.980 . S
O368 C313 1.426 . S
O368 C314 1.334 . S
O369 C341 1.412 . S
O369 C342 1.393 . S
O370 C332 1.435 . S
O370 C367 1.458 . S
O371 C323 1.468 . S
O371 C324 1.408 . S
H372 C313 0.980 . S
H373 C312 0.959 . S
H374 C312 0.959 . S
H375 C312 0.960 . S
H376 C315 0.929 . S
H377 C319 0.929 . S
H378 C320 0.959 . S
H379 C320 0.961 . S
H380 C320 0.961 . S
H381 C321 0.960 . S
H382 C321 0.960 . S
H383 C321 0.961 . S
H384 C323 0.980 . S
H385 C322 0.961 . S
H386 C322 0.960 . S
H387 C322 0.959 . S
H388 C325 0.930 . S
H389 C329 0.931 . S
H390 C330 0.959 . S
H391 C330 0.961 . S
H392 C330 0.959 . S
H393 C331 0.960 . S
H394 C331 0.960 . S
H395 C331 0.960 . S
H396 C367 0.980 . S
H397 C333 0.930 . S
H398 C337 0.930 . S
H399 C338 0.961 . S
H400 C338 0.960 . S
H401 C338 0.958 . S
H402 C339 0.961 . S
H403 C339 0.960 . S
H404 C339 0.960 . S
H405 C341 0.980 . S
H406 C340 0.961 . S
H407 C340 0.961 . S
H408 C340 0.959 . S
H409 C343 0.932 . S
H410 C347 0.929 . S
H411 C348 0.961 . S
H412 C348 0.959 . S
H413 C348 0.959 . S
H414 C349 0.960 . S
H415 C349 0.962 . S
H416 C349 0.961 . S
H417 C351 0.929 . S
H418 C354 0.930 . S
H419 C355 0.929 . S
H420 C358 0.930 . S
H421 C361 0.929 . S
H422 C362 0.930 . S
H423 C366 0.962 . S
H424 C366 0.959 . S
H425 C366 0.958 . S
C426 C427 1.560 . S
C426 H487 0.959 . S
C426 H488 0.959 . S
C426 H489 0.960 . S
C427 C426 1.560 . S
C427 O482 1.426 . S
C427 H486 0.980 . S
C428 C429 1.407 . S
C428 C433 1.418 . S
C428 O482 1.334 . S
C429 C428 1.407 . S
C429 C430 1.360 . S
C429 H490 0.929 . S
C430 C429 1.360 . S
C430 C431 1.401 . S
C430 C434 1.527 . S
C431 C430 1.401 . S
C431 C432 1.405 . S
C431 C464 1.587 . S
C432 C431 1.405 . S
C432 C433 1.332 . S
C432 C435 1.496 . S
C433 C428 1.418 . S
C433 C432 1.332 . S
C433 H491 0.929 . S
C434 C430 1.527 . S
C434 H492 0.959 . S
C434 H493 0.961 . S
C434 H494 0.961 . S
C435 C432 1.496 . S
C435 H495 0.960 . S
C435 H496 0.960 . S
C435 H497 0.961 . S
C436 C437 1.517 . S
C436 H499 0.961 . S
C436 H500 0.960 . S
C436 H501 0.959 . S
C437 C436 1.517 . S
C437 O485 1.468 . S
C437 H498 0.980 . S
C438 C439 1.349 . S
C438 C443 1.367 . S
C438 O485 1.408 . S
C439 C438 1.349 . S
C439 C440 1.407 . S
C439 H502 0.930 . S
C440 C439 1.407 . S
C440 C441 1.449 . S
C440 C444 1.535 . S
C441 C440 1.449 . S
C441 C442 1.384 . S
C441 C466 1.553 . S
C442 C441 1.384 . S
C442 C443 1.364 . S
C442 C445 1.450 . S
C443 C438 1.367 . S
C443 C442 1.364 . S
C443 H503 0.931 . S
C444 C440 1.535 . S
C444 H504 0.959 . S
C444 H505 0.961 . S
C444 H506 0.959 . S
C445 C442 1.450 . S
C445 H507 0.960 . S
C445 H508 0.960 . S
C445 H509 0.960 . S
C446 C447 1.309 . S
C446 C451 1.304 . S
C446 O484 1.435 . S
C447 C446 1.309 . S
C447 C448 1.476 . S
C447 H511 0.930 . S
C448 C447 1.476 . S
C448 C449 1.400 . S
C448 C452 1.567 . S
C449 C448 1.400 . S
C449 C450 1.373 . S
C449 C471 1.432 . S
C450 C449 1.373 . S
C450 C451 1.339 . S
C450 C453 1.530 . S
C451 C446 1.304 . S
C451 C450 1.339 . S
C451 H512 0.930 . S
C452 C448 1.567 . S
C452 H513 0.961 . S
C452 H514 0.960 . S
C452 H515 0.958 . S
C453 C450 1.530 . S
C453 H516 0.961 . S
C453 H517 0.960 . S
C453 H518 0.960 . S
C454 C455 1.530 . S
C454 H520 0.961 . S
C454 H521 0.961 . S
C454 H522 0.959 . S
C455 C454 1.530 . S
C455 O483 1.412 . S
C455 H519 0.980 . S
C456 C457 1.288 . S
C456 C461 1.377 . S
C456 O483 1.393 . S
C457 C456 1.288 . S
C457 C458 1.369 . S
C457 H523 0.932 . S
C458 C457 1.369 . S
C458 C459 1.398 . S
C458 C462 1.527 . S
C459 C458 1.398 . S
C459 C460 1.380 . S
C459 C473 1.497 . S
C460 C459 1.380 . S
C460 C461 1.383 . S
C460 C463 1.603 . S
C461 C456 1.377 . S
C461 C460 1.383 . S
C461 H524 0.929 . S
C462 C458 1.527 . S
C462 H525 0.961 . S
C462 H526 0.959 . S
C462 H527 0.959 . S
C463 C460 1.603 . S
C463 H528 0.960 . S
C463 H529 0.962 . S
C463 H530 0.961 . S
C464 C431 1.587 . S
C464 C465 1.360 . S
C464 C477 1.412 . S
C465 C464 1.360 . S
C465 C466 1.365 . S
C465 H531 0.929 . S
C466 C441 1.553 . S
C466 C465 1.365 . S
C466 C467 1.404 . S
C467 C466 1.404 . S
C467 C468 1.395 . S
C467 C478 1.451 . S
C468 C467 1.395 . S
C468 C469 1.322 . S
C468 H532 0.930 . S
C469 C468 1.322 . S
C469 C470 1.459 . S
C469 H533 0.929 . S
C470 C469 1.459 . S
C470 C471 1.445 . S
C470 C479 1.395 . S
C471 C449 1.432 . S
C471 C470 1.445 . S
C471 C472 1.370 . S
C472 C471 1.370 . S
C472 C473 1.438 . S
C472 H534 0.930 . S
C473 C459 1.497 . S
C473 C472 1.438 . S
C473 C474 1.360 . S
C474 C473 1.360 . S
C474 C475 1.401 . S
C474 C479 1.446 . S
C475 C474 1.401 . S
C475 C476 1.347 . S
C475 H535 0.929 . S
C476 C475 1.347 . S
C476 C477 1.455 . S
C476 H536 0.930 . S
C477 C464 1.412 . S
C477 C476 1.455 . S
C477 C478 1.331 . S
C478 C467 1.451 . S
C478 C477 1.331 . S
C478 C479 1.497 . S
C479 C470 1.395 . S
C479 C474 1.446 . S
C479 C478 1.497 . S
C480 C481 1.582 . S
C480 H537 0.962 . S
C480 H538 0.959 . S
C480 H539 0.958 . S
C481 C480 1.582 . S
C481 O484 1.458 . S
C481 H510 0.980 . S
O482 C427 1.426 . S
O482 C428 1.334 . S
O483 C455 1.412 . S
O483 C456 1.393 . S
O484 C446 1.435 . S
O484 C481 1.458 . S
O485 C437 1.468 . S
O485 C438 1.408 . S
H486 C427 0.980 . S
H487 C426 0.959 . S
H488 C426 0.959 . S
H489 C426 0.960 . S
H490 C429 0.929 . S
H491 C433 0.929 . S
H492 C434 0.959 . S
H493 C434 0.961 . S
H494 C434 0.961 . S
H495 C435 0.960 . S
H496 C435 0.960 . S
H497 C435 0.961 . S
H498 C437 0.980 . S
H499 C436 0.961 . S
H500 C436 0.960 . S
H501 C436 0.959 . S
H502 C439 0.930 . S
H503 C443 0.931 . S
H504 C444 0.959 . S
H505 C444 0.961 . S
H506 C444 0.959 . S
H507 C445 0.960 . S
H508 C445 0.960 . S
H509 C445 0.960 . S
H510 C481 0.980 . S
H511 C447 0.930 . S
H512 C451 0.930 . S
H513 C452 0.961 . S
H514 C452 0.960 . S
H515 C452 0.958 . S
H516 C453 0.961 . S
H517 C453 0.960 . S
H518 C453 0.960 . S
H519 C455 0.980 . S
H520 C454 0.961 . S
H521 C454 0.961 . S
H522 C454 0.959 . S
H523 C457 0.932 . S
H524 C461 0.929 . S
H525 C462 0.961 . S
H526 C462 0.959 . S
H527 C462 0.959 . S
H528 C463 0.960 . S
H529 C463 0.962 . S
H530 C463 0.961 . S
H531 C465 0.929 . S
H532 C468 0.930 . S
H533 C469 0.929 . S
H534 C472 0.930 . S
H535 C475 0.929 . S
H536 C476 0.930 . S
H537 C480 0.962 . S
H538 C480 0.959 . S
H539 C480 0.958 . S
C540 C541 1.560 . S
C540 H601 0.959 . S
C540 H602 0.959 . S
C540 H603 0.960 . S
C541 C540 1.560 . S
C541 O596 1.426 . S
C541 H600 0.980 . S
C542 C543 1.407 . S
C542 C547 1.418 . S
C542 O596 1.334 . S
C543 C542 1.407 . S
C543 C544 1.360 . S
C543 H604 0.929 . S
C544 C543 1.360 . S
C544 C545 1.401 . S
C544 C548 1.527 . S
C545 C544 1.401 . S
C545 C546 1.405 . S
C545 C578 1.587 . S
C546 C545 1.405 . S
C546 C547 1.332 . S
C546 C549 1.496 . S
C547 C542 1.418 . S
C547 C546 1.332 . S
C547 H605 0.929 . S
C548 C544 1.527 . S
C548 H606 0.959 . S
C548 H607 0.961 . S
C548 H608 0.961 . S
C549 C546 1.496 . S
C549 H609 0.960 . S
C549 H610 0.960 . S
C549 H611 0.961 . S
C550 C551 1.517 . S
C550 H613 0.961 . S
C550 H614 0.960 . S
C550 H615 0.959 . S
C551 C550 1.517 . S
C551 O599 1.468 . S
C551 H612 0.980 . S
C552 C553 1.349 . S
C552 C557 1.367 . S
C552 O599 1.408 . S
C553 C552 1.349 . S
C553 C554 1.407 . S
C553 H616 0.930 . S
C554 C553 1.407 . S
C554 C555 1.449 . S
C554 C558 1.535 . S
C555 C554 1.449 . S
C555 C556 1.384 . S
C555 C580 1.553 . S
C556 C555 1.384 . S
C556 C557 1.364 . S
C556 C559 1.450 . S
C557 C552 1.367 . S
C557 C556 1.364 . S
C557 H617 0.931 . S
C558 C554 1.535 . S
C558 H618 0.959 . S
C558 H619 0.961 . S
C558 H620 0.959 . S
C559 C556 1.450 . S
C559 H621 0.960 . S
C559 H622 0.960 . S
C559 H623 0.960 . S
C560 C561 1.309 . S
C560 C565 1.304 . S
C560 O598 1.435 . S
C561 C560 1.309 . S
C561 C562 1.476 . S
C561 H625 0.930 . S
C562 C561 1.476 . S
C562 C563 1.400 . S
C562 C566 1.567 . S
C563 C562 1.400 . S
C563 C564 1.373 . S
C563 C585 1.432 . S
C564 C563 1.373 . S
C564 C565 1.339 . S
C564 C567 1.530 . S
C565 C560 1.304 . S
C565 C564 1.339 . S
C565 H626 0.930 . S
C566 C562 1.567 . S
C566 H627 0.961 . S
C566 H628 0.960 . S
C566 H629 0.958 . S
C567 C564 1.530 . S
C567 H630 0.961 . S
C567 H631 0.960 . S
C567 H632 0.960 . S
C568 C569 1.530 . S
C568 H634 0.961 . S
C568 H635 0.961 . S
C568 H636 0.959 . S
C569 C568 1.530 . S
C569 O597 1.412 . S
C569 H633 0.980 . S
C570 C571 1.288 . S
C570 C575 1.377 . S
C570 O597 1.393 . S
C571 C570 1.288 . S
C571 C572 1.369 . S
C571 H637 0.932 . S
C572 C571 1.369 . S
C572 C573 1.398 . S
C572 C576 1.527 . S
C573 C572 1.398 . S
C573 C574 1.380 . S
C573 C587 1.497 . S
C574 C573 1.380 . S
C574 C575 1.383 . S
C574 C577 1.603 . S
C575 C570 1.377 . S
C575 C574 1.383 . S
C575 H638 0.929 . S
C576 C572 1.527 . S
C576 H639 0.961 . S
C576 H640 0.959 . S
C576 H641 0.959 . S
C577 C574 1.603 . S
C577 H642 0.960 . S
C577 H643 0.962 . S
C577 H644 0.961 . S
C578 C545 1.587 . S
C578 C579 1.360 . S
C578 C591 1.412 . S
C579 C578 1.360 . S
C579 C580 1.365 . S
C579 H645 0.929 . S
C580 C555 1.553 . S
C580 C579 1.365 . S
C580 C581 1.404 . S
C581 C580 1.404 . S
C581 C582 1.395 . S
C581 C592 1.451 . S
C582 C581 1.395 . S
C582 C583 1.322 . S
C582 H646 0.930 . S
C583 C582 1.322 . S
C583 C584 1.459 . S
C583 H647 0.929 . S
C584 C583 1.459 . S
C584 C585 1.445 . S
C584 C593 1.395 . S
C585 C563 1.432 . S
C585 C584 1.445 . S
C585 C586 1.370 . S
C586 C585 1.370 . S
C586 C587 1.438 . S
C586 H648 0.930 . S
C587 C573 1.497 . S
C587 C586 1.438 . S
C587 C588 1.360 . S
C588 C587 1.360 . S
C588 C589 1.401 . S
C588 C593 1.446 . S
C589 C588 1.401 . S
C589 C590 1.347 . S
C589 H649 0.929 . S
C590 C589 1.347 . S
C590 C591 1.455 . S
C590 H650 0.930 . S
C591 C578 1.412 . S
C591 C590 1.455 . S
C591 C592 1.331 . S
C592 C581 1.451 . S
C592 C591 1.331 . S
C592 C593 1.497 . S
C593 C584 1.395 . S
C593 C588 1.446 . S
C593 C592 1.497 . S
C594 C595 1.582 . S
C594 H651 0.962 . S
C594 H652 0.959 . S
C594 H653 0.958 . S
C595 C594 1.582 . S
C595 O598 1.458 . S
C595 H624 0.980 . S
O596 C541 1.426 . S
O596 C542 1.334 . S
O597 C569 1.412 . S
O597 C570 1.393 . S
O598 C560 1.435 . S
O598 C595 1.458 . S
O599 C551 1.468 . S
O599 C552 1.408 . S
H600 C541 0.980 . S
H601 C540 0.959 . S
H602 C540 0.959 . S
H603 C540 0.960 . S
H604 C543 0.929 . S
H605 C547 0.929 . S
H606 C548 0.959 . S
H607 C548 0.961 . S
H608 C548 0.961 . S
H609 C549 0.960 . S
H610 C549 0.960 . S
H611 C549 0.961 . S
H612 C551 0.980 . S
H613 C550 0.961 . S
H614 C550 0.960 . S
H615 C550 0.959 . S
H616 C553 0.930 . S
H617 C557 0.931 . S
H618 C558 0.959 . S
H619 C558 0.961 . S
H620 C558 0.959 . S
H621 C559 0.960 . S
H622 C559 0.960 . S
H623 C559 0.960 . S
H624 C595 0.980 . S
H625 C561 0.930 . S
H626 C565 0.930 . S
H627 C566 0.961 . S
H628 C566 0.960 . S
H629 C566 0.958 . S
H630 C567 0.961 . S
H631 C567 0.960 . S
H632 C567 0.960 . S
H633 C569 0.980 . S
H634 C568 0.961 . S
H635 C568 0.961 . S
H636 C568 0.959 . S
H637 C571 0.932 . S
H638 C575 0.929 . S
H639 C576 0.961 . S
H640 C576 0.959 . S
H641 C576 0.959 . S
H642 C577 0.960 . S
H643 C577 0.962 . S
H644 C577 0.961 . S
H645 C579 0.929 . S
H646 C582 0.930 . S
H647 C583 0.929 . S
H648 C586 0.930 . S
H649 C589 0.929 . S
H650 C590 0.930 . S
H651 C594 0.962 . S
H652 C594 0.959 . S
H653 C594 0.958 . S
C654 C655 1.560 . S
C654 H715 0.959 . S
C654 H716 0.959 . S
C654 H717 0.960 . S
C655 C654 1.560 . S
C655 O710 1.426 . S
C655 H714 0.980 . S
C656 C657 1.407 . S
C656 C661 1.418 . S
C656 O710 1.334 . S
C657 C656 1.407 . S
C657 C658 1.360 . S
C657 H718 0.929 . S
C658 C657 1.360 . S
C658 C659 1.401 . S
C658 C662 1.527 . S
C659 C658 1.401 . S
C659 C660 1.405 . S
C659 C692 1.587 . S
C660 C659 1.405 . S
C660 C661 1.332 . S
C660 C663 1.496 . S
C661 C656 1.418 . S
C661 C660 1.332 . S
C661 H719 0.929 . S
C662 C658 1.527 . S
C662 H720 0.959 . S
C662 H721 0.961 . S
C662 H722 0.961 . S
C663 C660 1.496 . S
C663 H723 0.960 . S
C663 H724 0.960 . S
C663 H725 0.961 . S
C664 C665 1.517 . S
C664 H727 0.961 . S
C664 H728 0.960 . S
C664 H729 0.959 . S
C665 C664 1.517 . S
C665 O713 1.468 . S
C665 H726 0.980 . S
C666 C667 1.349 . S
C666 C671 1.367 . S
C666 O713 1.408 . S
C667 C666 1.349 . S
C667 C668 1.407 . S
C667 H730 0.930 . S
C668 C667 1.407 . S
C668 C669 1.449 . S
C668 C672 1.535 . S
C669 C668 1.449 . S
C669 C670 1.384 . S
C669 C694 1.553 . S
C670 C669 1.384 . S
C670 C671 1.364 . S
C670 C673 1.450 . S
C671 C666 1.367 . S
C671 C670 1.364 . S
C671 H731 0.931 . S
C672 C668 1.535 . S
C672 H732 0.959 . S
C672 H733 0.961 . S
C672 H734 0.959 . S
C673 C670 1.450 . S
C673 H735 0.960 . S
C673 H736 0.960 . S
C673 H737 0.960 . S
C674 C675 1.309 . S
C674 C679 1.304 . S
C674 O712 1.435 . S
C675 C674 1.309 . S
C675 C676 1.476 . S
C675 H739 0.930 . S
C676 C675 1.476 . S
C676 C677 1.400 . S
C676 C680 1.567 . S
C677 C676 1.400 . S
C677 C678 1.373 . S
C677 C699 1.432 . S
C678 C677 1.373 . S
C678 C679 1.339 . S
C678 C681 1.530 . S
C679 C674 1.304 . S
C679 C678 1.339 . S
C679 H740 0.930 . S
C680 C676 1.567 . S
C680 H741 0.961 . S
C680 H742 0.960 . S
C680 H743 0.958 . S
C681 C678 1.530 . S
C681 H744 0.961 . S
C681 H745 0.960 . S
C681 H746 0.960 . S
C682 C683 1.530 . S
C682 H748 0.961 . S
C682 H749 0.961 . S
C682 H750 0.959 . S
C683 C682 1.530 . S
C683 O711 1.412 . S
C683 H747 0.980 . S
C684 C685 1.288 . S
C684 C689 1.377 . S
C684 O711 1.393 . S
C685 C684 1.288 . S
C685 C686 1.369 . S
C685 H751 0.932 . S
C686 C685 1.369 . S
C686 C687 1.398 . S
C686 C690 1.527 . S
C687 C686 1.398 . S
C687 C688 1.380 . S
C687 C701 1.497 . S
C688 C687 1.380 . S
C688 C689 1.383 . S
C688 C691 1.603 . S
C689 C684 1.377 . S
C689 C688 1.383 . S
C689 H752 0.929 . S
C690 C686 1.527 . S
C690 H753 0.961 . S
C690 H754 0.959 . S
C690 H755 0.959 . S
C691 C688 1.603 . S
C691 H756 0.960 . S
C691 H757 0.962 . S
C691 H758 0.961 . S
C692 C659 1.587 . S
C692 C693 1.360 . S
C692 C705 1.412 . S
C693 C692 1.360 . S
C693 C694 1.365 . S
C693 H759 0.929 . S
C694 C669 1.553 . S
C694 C693 1.365 . S
C694 C695 1.404 . S
C695 C694 1.404 . S
C695 C696 1.395 . S
C695 C706 1.451 . S
C696 C695 1.395 . S
C696 C697 1.322 . S
C696 H760 0.930 . S
C697 C696 1.322 . S
C697 C698 1.459 . S
C697 H761 0.929 . S
C698 C697 1.459 . S
C698 C699 1.445 . S
C698 C707 1.395 . S
C699 C677 1.432 . S
C699 C698 1.445 . S
C699 C700 1.370 . S
C700 C699 1.370 . S
C700 C701 1.438 . S
C700 H762 0.930 . S
C701 C687 1.497 . S
C701 C700 1.438 . S
C701 C702 1.360 . S
C702 C701 1.360 . S
C702 C703 1.401 . S
C702 C707 1.446 . S
C703 C702 1.401 . S
C703 C704 1.347 . S
C703 H763 0.929 . S
C704 C703 1.347 . S
C704 C705 1.455 . S
C704 H764 0.930 . S
C705 C692 1.412 . S
C705 C704 1.455 . S
C705 C706 1.331 . S
C706 C695 1.451 . S
C706 C705 1.331 . S
C706 C707 1.497 . S
C707 C698 1.395 . S
C707 C702 1.446 . S
C707 C706 1.497 . S
C708 C709 1.582 . S
C708 H765 0.962 . S
C708 H766 0.959 . S
C708 H767 0.958 . S
C709 C708 1.582 . S
C709 O712 1.458 . S
C709 H738 0.980 . S
O710 C655 1.426 . S
O710 C656 1.334 . S
O711 C683 1.412 . S
O711 C684 1.393 . S
O712 C674 1.435 . S
O712 C709 1.458 . S
O713 C665 1.468 . S
O713 C666 1.408 . S
H714 C655 0.980 . S
H715 C654 0.959 . S
H716 C654 0.959 . S
H717 C654 0.960 . S
H718 C657 0.929 . S
H719 C661 0.929 . S
H720 C662 0.959 . S
H721 C662 0.961 . S
H722 C662 0.961 . S
H723 C663 0.960 . S
H724 C663 0.960 . S
H725 C663 0.961 . S
H726 C665 0.980 . S
H727 C664 0.961 . S
H728 C664 0.960 . S
H729 C664 0.959 . S
H730 C667 0.930 . S
H731 C671 0.931 . S
H732 C672 0.959 . S
H733 C672 0.961 . S
H734 C672 0.959 . S
H735 C673 0.960 . S
H736 C673 0.960 . S
H737 C673 0.960 . S
H738 C709 0.980 . S
H739 C675 0.930 . S
H740 C679 0.930 . S
H741 C680 0.961 . S
H742 C680 0.960 . S
H743 C680 0.958 . S
H744 C681 0.961 . S
H745 C681 0.960 . S
H746 C681 0.960 . S
H747 C683 0.980 . S
H748 C682 0.961 . S
H749 C682 0.961 . S
H750 C682 0.959 . S
H751 C685 0.932 . S
H752 C689 0.929 . S
H753 C690 0.961 . S
H754 C690 0.959 . S
H755 C690 0.959 . S
H756 C691 0.960 . S
H757 C691 0.962 . S
H758 C691 0.961 . S
H759 C693 0.929 . S
H760 C696 0.930 . S
H761 C697 0.929 . S
H762 C700 0.930 . S
H763 C703 0.929 . S
H764 C704 0.930 . S
H765 C708 0.962 . S
H766 C708 0.959 . S
H767 C708 0.958 . S
H768 C774 0.930 . S
H769 C777 0.930 . S
H770 C778 0.930 . S
H771 C779 0.930 . S
H772 C782 0.930 . S
H773 C783 0.930 . S
C774 H768 0.930 . S
C774 C775 1.355 . S
C774 C776 1.415 . S
C775 C774 1.355 . S
C775 C777 1.419 . S
C776 C774 1.415 . S
C776 C781 1.425 . S
C776 C783 1.409 . S
C777 H769 0.930 . S
C777 C775 1.419 . S
C777 C778 1.362 . S
C778 H770 0.930 . S
C778 C777 1.362 . S
C778 C781 1.409 . S
C779 H771 0.930 . S
C779 C780 1.355 . S
C779 C781 1.415 . S
C780 C779 1.355 . S
C780 C782 1.419 . S
C781 C776 1.425 . S
C781 C778 1.409 . S
C781 C779 1.415 . S
C782 H772 0.930 . S
C782 C780 1.419 . S
C782 C783 1.362 . S
C783 H773 0.930 . S
C783 C776 1.409 . S
C783 C782 1.362 . S
H784 C790 0.930 . S
H785 C793 0.930 . S
H786 C794 0.930 . S
H787 C795 0.930 . S
H788 C798 0.930 . S
H789 C799 0.930 . S
C790 H784 0.930 . S
C790 C791 1.355 . S
C790 C792 1.415 . S
C791 C790 1.355 . S
C791 C793 1.419 . S
C792 C790 1.415 . S
C792 C797 1.425 . S
C792 C799 1.409 . S
C793 H785 0.930 . S
C793 C791 1.419 . S
C793 C794 1.362 . S
C794 H786 0.930 . S
C794 C793 1.362 . S
C794 C797 1.409 . S
C795 H787 0.930 . S
C795 C796 1.355 . S
C795 C797 1.415 . S
C796 C795 1.355 . S
C796 C798 1.419 . S
C797 C792 1.425 . S
C797 C794 1.409 . S
C797 C795 1.415 . S
C798 H788 0.930 . S
C798 C796 1.419 . S
C798 C799 1.362 . S
C799 H789 0.930 . S
C799 C792 1.409 . S
C799 C798 1.362 . S
H800 C806 0.930 . S
H801 C809 0.930 . S
H802 C810 0.930 . S
H803 C811 0.930 . S
H804 C814 0.930 . S
H805 C815 0.930 . S
C806 H800 0.930 . S
C806 C807 1.355 . S
C806 C808 1.415 . S
C807 C806 1.355 . S
C807 C809 1.419 . S
C808 C806 1.415 . S
C808 C813 1.425 . S
C808 C815 1.409 . S
C809 H801 0.930 . S
C809 C807 1.419 . S
C809 C810 1.362 . S
C810 H802 0.930 . S
C810 C809 1.362 . S
C810 C813 1.409 . S
C811 H803 0.930 . S
C811 C812 1.355 . S
C811 C813 1.415 . S
C812 C811 1.355 . S
C812 C814 1.419 . S
C813 C808 1.425 . S
C813 C810 1.409 . S
C813 C811 1.415 . S
C814 H804 0.930 . S
C814 C812 1.419 . S
C814 C815 1.362 . S
C815 H805 0.930 . S
C815 C808 1.409 . S
C815 C814 1.362 . S
H816 C822 0.930 . S
H817 C825 0.930 . S
H818 C826 0.930 . S
H819 C827 0.930 . S
H820 C830 0.930 . S
H821 C831 0.930 . S
C822 H816 0.930 . S
C822 C823 1.355 . S
C822 C824 1.415 . S
C823 C822 1.355 . S
C823 C825 1.419 . S
C824 C822 1.415 . S
C824 C829 1.425 . S
C824 C831 1.409 . S
C825 H817 0.930 . S
C825 C823 1.419 . S
C825 C826 1.362 . S
C826 H818 0.930 . S
C826 C825 1.362 . S
C826 C829 1.409 . S
C827 H819 0.930 . S
C827 C828 1.355 . S
C827 C829 1.415 . S
C828 C827 1.355 . S
C828 C830 1.419 . S
C829 C824 1.425 . S
C829 C826 1.409 . S
C829 C827 1.415 . S
C830 H820 0.930 . S
C830 C828 1.419 . S
C830 C831 1.362 . S
C831 H821 0.930 . S
C831 C824 1.409 . S
C831 C830 1.362 . S
H832 C838 0.930 . S
H833 C841 0.930 . S
H834 C842 0.930 . S
H835 C843 0.930 . S
H836 C846 0.930 . S
H837 C847 0.930 . S
C838 H832 0.930 . S
C838 C839 1.355 . S
C838 C840 1.415 . S
C839 C838 1.355 . S
C839 C841 1.419 . S
C840 C838 1.415 . S
C840 C845 1.425 . S
C840 C847 1.409 . S
C841 H833 0.930 . S
C841 C839 1.419 . S
C841 C842 1.362 . S
C842 H834 0.930 . S
C842 C841 1.362 . S
C842 C845 1.409 . S
C843 H835 0.930 . S
C843 C844 1.355 . S
C843 C845 1.415 . S
C844 C843 1.355 . S
C844 C846 1.419 . S
C845 C840 1.425 . S
C845 C842 1.409 . S
C845 C843 1.415 . S
C846 H836 0.930 . S
C846 C844 1.419 . S
C846 C847 1.362 . S
C847 H837 0.930 . S
C847 C840 1.409 . S
C847 C846 1.362 . S
H848 C854 0.930 . S
H849 C857 0.930 . S
H850 C858 0.930 . S
H851 C859 0.930 . S
H852 C862 0.930 . S
H853 C863 0.930 . S
C854 H848 0.930 . S
C854 C855 1.355 . S
C854 C856 1.415 . S
C855 C854 1.355 . S
C855 C857 1.419 . S
C856 C854 1.415 . S
C856 C861 1.425 . S
C856 C863 1.409 . S
C857 H849 0.930 . S
C857 C855 1.419 . S
C857 C858 1.362 . S
C858 H850 0.930 . S
C858 C857 1.362 . S
C858 C861 1.409 . S
C859 H851 0.930 . S
C859 C860 1.355 . S
C859 C861 1.415 . S
C860 C859 1.355 . S
C860 C862 1.419 . S
C861 C856 1.425 . S
C861 C858 1.409 . S
C861 C859 1.415 . S
C862 H852 0.930 . S
C862 C860 1.419 . S
C862 C863 1.362 . S
C863 H853 0.930 . S
C863 C856 1.409 . S
C863 C862 1.362 . S
H864 C870 0.930 . S
H865 C873 0.930 . S
H866 C874 0.930 . S
H867 C875 0.930 . S
H868 C878 0.930 . S
H869 C879 0.930 . S
C870 H864 0.930 . S
C870 C871 1.355 . S
C870 C872 1.415 . S
C871 C870 1.355 . S
C871 C873 1.419 . S
C872 C870 1.415 . S
C872 C877 1.425 . S
C872 C879 1.409 . S
C873 H865 0.930 . S
C873 C871 1.419 . S
C873 C874 1.362 . S
C874 H866 0.930 . S
C874 C873 1.362 . S
C874 C877 1.409 . S
C875 H867 0.930 . S
C875 C876 1.355 . S
C875 C877 1.415 . S
C876 C875 1.355 . S
C876 C878 1.419 . S
C877 C872 1.425 . S
C877 C874 1.409 . S
C877 C875 1.415 . S
C878 H868 0.930 . S
C878 C876 1.419 . S
C878 C879 1.362 . S
C879 H869 0.930 . S
C879 C872 1.409 . S
C879 C878 1.362 . S
H880 C886 0.930 . S
H881 C889 0.930 . S
H882 C890 0.930 . S
H883 C891 0.930 . S
H884 C894 0.930 . S
H885 C895 0.930 . S
C886 H880 0.930 . S
C886 C887 1.355 . S
C886 C888 1.415 . S
C887 C886 1.355 . S
C887 C889 1.419 . S
C888 C886 1.415 . S
C888 C893 1.425 . S
C888 C895 1.409 . S
C889 H881 0.930 . S
C889 C887 1.419 . S
C889 C890 1.362 . S
C890 H882 0.930 . S
C890 C889 1.362 . S
C890 C893 1.409 . S
C891 H883 0.930 . S
C891 C892 1.355 . S
C891 C893 1.415 . S
C892 C891 1.355 . S
C892 C894 1.419 . S
C893 C888 1.425 . S
C893 C890 1.409 . S
C893 C891 1.415 . S
C894 H884 0.930 . S
C894 C892 1.419 . S
C894 C895 1.362 . S
C895 H885 0.930 . S
C895 C888 1.409 . S
C895 C894 1.362 . S
H896 C902 0.930 . S
H897 C905 0.930 . S
H898 C906 0.930 . S
H899 C907 0.930 . S
H900 C910 0.930 . S
H901 C911 0.930 . S
C902 H896 0.930 . S
C902 C903 1.355 . S
C902 C904 1.415 . S
C903 C902 1.355 . S
C903 C905 1.419 . S
C904 C902 1.415 . S
C904 C909 1.425 . S
C904 C911 1.409 . S
C905 H897 0.930 . S
C905 C903 1.419 . S
C905 C906 1.362 . S
C906 H898 0.930 . S
C906 C905 1.362 . S
C906 C909 1.409 . S
C907 H899 0.930 . S
C907 C908 1.355 . S
C907 C909 1.415 . S
C908 C907 1.355 . S
C908 C910 1.419 . S
C909 C904 1.425 . S
C909 C906 1.409 . S
C909 C907 1.415 . S
C910 H900 0.930 . S
C910 C908 1.419 . S
C910 C911 1.362 . S
C911 H901 0.930 . S
C911 C904 1.409 . S
C911 C910 1.362 . S
H912 C918 0.930 . S
H913 C921 0.930 . S
H914 C922 0.930 . S
H915 C923 0.930 . S
H916 C926 0.930 . S
H917 C927 0.930 . S
C918 H912 0.930 . S
C918 C919 1.355 . S
C918 C920 1.415 . S
C919 C918 1.355 . S
C919 C921 1.419 . S
C920 C918 1.415 . S
C920 C925 1.425 . S
C920 C927 1.409 . S
C921 H913 0.930 . S
C921 C919 1.419 . S
C921 C922 1.362 . S
C922 H914 0.930 . S
C922 C921 1.362 . S
C922 C925 1.409 . S
C923 H915 0.930 . S
C923 C924 1.355 . S
C923 C925 1.415 . S
C924 C923 1.355 . S
C924 C926 1.419 . S
C925 C920 1.425 . S
C925 C922 1.409 . S
C925 C923 1.415 . S
C926 H916 0.930 . S
C926 C924 1.419 . S
C926 C927 1.362 . S
C927 H917 0.930 . S
C927 C920 1.409 . S
C927 C926 1.362 . S
H928 C934 0.930 . S
H929 C937 0.930 . S
H930 C938 0.930 . S
H931 C939 0.930 . S
H932 C942 0.930 . S
H933 C943 0.930 . S
C934 H928 0.930 . S
C934 C935 1.355 . S
C934 C936 1.415 . S
C935 C934 1.355 . S
C935 C937 1.419 . S
C936 C934 1.415 . S
C936 C941 1.425 . S
C936 C943 1.409 . S
C937 H929 0.930 . S
C937 C935 1.419 . S
C937 C938 1.362 . S
C938 H930 0.930 . S
C938 C937 1.362 . S
C938 C941 1.409 . S
C939 H931 0.930 . S
C939 C940 1.355 . S
C939 C941 1.415 . S
C940 C939 1.355 . S
C940 C942 1.419 . S
C941 C936 1.425 . S
C941 C938 1.409 . S
C941 C939 1.415 . S
C942 H932 0.930 . S
C942 C940 1.419 . S
C942 C943 1.362 . S
C943 H933 0.930 . S
C943 C936 1.409 . S
C943 C942 1.362 . S
H944 C950 0.930 1_455 S
H945 C953 0.930 . S
H946 C954 0.930 . S
H947 C955 0.930 . S
H948 C958 0.930 . S
H949 C959 0.930 1_455 S
C950 H944 0.930 1_655 S
C950 C951 1.355 . S
C950 C952 1.415 . S
C951 C950 1.355 . S
C951 C953 1.419 . S
C952 C950 1.415 . S
C952 C957 1.425 . S
C952 C959 1.409 . S
C953 H945 0.930 . S
C953 C951 1.419 . S
C953 C954 1.362 . S
C954 H946 0.930 . S
C954 C953 1.362 . S
C954 C957 1.409 . S
C955 H947 0.930 . S
C955 C956 1.355 . S
C955 C957 1.415 . S
C956 C955 1.355 . S
C956 C958 1.419 . S
C957 C952 1.425 . S
C957 C954 1.409 . S
C957 C955 1.415 . S
C958 H948 0.930 . S
C958 C956 1.419 . S
C958 C959 1.362 . S
C959 H949 0.930 1_655 S
C959 C952 1.409 . S
C959 C958 1.362 . S
H960 C966 0.952 . S
H961 C969 0.930 . S
H962 C970 0.930 . S
H963 C971 0.930 . S
H964 C974 0.930 1_455 S
H965 C975 0.930 . S
C966 H960 0.952 . S
C966 C967 1.353 1_455 S
C966 C968 1.395 1_455 S
C967 C966 1.353 1_655 S
C967 C969 1.419 . S
C968 C966 1.395 1_655 S
C968 C973 1.425 . S
C968 C975 1.409 1_655 S
C969 H961 0.930 . S
C969 C967 1.419 . S
C969 C970 1.362 . S
C970 H962 0.930 . S
C970 C969 1.362 . S
C970 C973 1.409 . S
C971 H963 0.930 . S
C971 C972 1.355 . S
C971 C973 1.415 . S
C972 C971 1.355 . S
C972 C974 1.419 . S
C973 C968 1.425 . S
C973 C970 1.409 . S
C973 C971 1.415 . S
C974 H964 0.930 1_655 S
C974 C972 1.419 . S
C974 C975 1.362 1_655 S
C975 H965 0.930 . S
C975 C968 1.409 1_455 S
C975 C974 1.362 1_455 S
H976 C982 0.930 . S
H977 C985 0.930 . S
H978 C986 0.930 . S
H979 C987 0.930 . S
H980 C990 0.930 . S
H981 C991 0.930 . S
C982 H976 0.930 . S
C982 C983 1.355 . S
C982 C984 1.415 . S
C983 C982 1.355 . S
C983 C985 1.419 . S
C984 C982 1.415 . S
C984 C989 1.425 . S
C984 C991 1.409 . S
C985 H977 0.930 . S
C985 C983 1.419 . S
C985 C986 1.362 . S
C986 H978 0.930 . S
C986 C985 1.362 . S
C986 C989 1.409 . S
C987 H979 0.930 . S
C987 C988 1.355 . S
C987 C989 1.415 . S
C988 C987 1.355 . S
C988 C990 1.419 . S
C989 C984 1.425 . S
C989 C986 1.409 . S
C989 C987 1.415 . S
C990 H980 0.930 . S
C990 C988 1.419 . S
C990 C991 1.362 . S
C991 H981 0.930 . S
C991 C984 1.409 . S
C991 C990 1.362 . S
H992 C998 0.930 . S
H993 C1001 0.930 . S
H994 C1002 0.930 . S
H995 C1003 0.930 . S
H996 C1006 0.930 . S
H997 C1007 0.930 . S
C998 H992 0.930 . S
C998 C999 1.355 . S
C998 C1000 1.415 . S
C999 C998 1.355 . S
C999 C1001 1.419 . S
C1000 C998 1.415 . S
C1000 C1005 1.425 . S
C1000 C1007 1.409 . S
C1001 H993 0.930 . S
C1001 C999 1.419 . S
C1001 C1002 1.362 . S
C1002 H994 0.930 . S
C1002 C1001 1.362 . S
C1002 C1005 1.409 . S
C1003 H995 0.930 . S
C1003 C1004 1.355 . S
C1003 C1005 1.415 . S
C1004 C1003 1.355 . S
C1004 C1006 1.419 . S
C1005 C1000 1.425 . S
C1005 C1002 1.409 . S
C1005 C1003 1.415 . S
C1006 H996 0.930 . S
C1006 C1004 1.419 . S
C1006 C1007 1.362 . S
C1007 H997 0.930 . S
C1007 C1000 1.409 . S
C1007 C1006 1.362 . S
H1008 C1014 0.930 . S
H1009 C1017 0.930 . S
H1010 C1018 0.930 . S
H1011 C1019 0.930 . S
H1012 C1022 0.930 . S
H1013 C1023 0.930 . S
C1014 H1008 0.930 . S
C1014 C1015 1.355 . S
C1014 C1016 1.415 . S
C1015 C1014 1.355 . S
C1015 C1017 1.419 . S
C1016 C1014 1.415 . S
C1016 C1021 1.425 . S
C1016 C1023 1.409 . S
C1017 H1009 0.930 . S
C1017 C1015 1.419 . S
C1017 C1018 1.362 . S
C1018 H1010 0.930 . S
C1018 C1017 1.362 . S
C1018 C1021 1.409 . S
C1019 H1011 0.930 . S
C1019 C1020 1.355 . S
C1019 C1021 1.415 . S
C1020 C1019 1.355 . S
C1020 C1022 1.419 . S
C1021 C1016 1.425 . S
C1021 C1018 1.409 . S
C1021 C1019 1.415 . S
C1022 H1012 0.930 . S
C1022 C1020 1.419 . S
C1022 C1023 1.362 . S
C1023 H1013 0.930 . S
C1023 C1016 1.409 . S
C1023 C1022 1.362 . S
H1024 C1030 0.930 . S
H1025 C1033 0.947 . S
H1026 C1034 0.904 1_565 S
H1027 C1035 0.930 . S
H1028 C1038 0.930 . S
H1029 C1039 0.930 . S
C1030 H1024 0.930 . S
C1030 C1031 1.355 . S
C1030 C1032 1.415 . S
C1031 C1030 1.355 . S
C1031 C1033 1.419 . S
C1032 C1030 1.415 . S
C1032 C1037 1.425 . S
C1032 C1039 1.409 . S
C1033 H1025 0.947 . S
C1033 C1031 1.419 . S
C1033 C1034 1.362 . S
C1034 H1026 0.904 1_545 S
C1034 C1033 1.362 . S
C1034 C1037 1.409 . S
C1035 H1027 0.930 . S
C1035 C1036 1.355 . S
C1035 C1037 1.415 . S
C1036 C1035 1.355 . S
C1036 C1038 1.419 . S
C1037 C1032 1.425 . S
C1037 C1034 1.409 . S
C1037 C1035 1.415 . S
C1038 H1028 0.930 . S
C1038 C1036 1.419 . S
C1038 C1039 1.362 . S
C1039 H1029 0.930 . S
C1039 C1032 1.409 . S
C1039 C1038 1.362 . S
H1040 C1046 0.930 . S
H1041 C1049 0.930 . S
H1042 C1050 0.930 . S
H1043 C1051 0.930 . S
H1044 C1054 0.930 . S
H1045 C1055 0.930 . S
C1046 H1040 0.930 . S
C1046 C1047 1.355 . S
C1046 C1048 1.415 . S
C1047 C1046 1.355 . S
C1047 C1049 1.419 . S
C1048 C1046 1.415 . S
C1048 C1053 1.425 . S
C1048 C1055 1.409 . S
C1049 H1041 0.930 . S
C1049 C1047 1.419 . S
C1049 C1050 1.362 . S
C1050 H1042 0.930 . S
C1050 C1049 1.362 . S
C1050 C1053 1.409 . S
C1051 H1043 0.930 . S
C1051 C1052 1.355 . S
C1051 C1053 1.415 . S
C1052 C1051 1.355 . S
C1052 C1054 1.419 . S
C1053 C1048 1.425 . S
C1053 C1050 1.409 . S
C1053 C1051 1.415 . S
C1054 H1044 0.930 . S
C1054 C1052 1.419 . S
C1054 C1055 1.362 . S
C1055 H1045 0.930 . S
C1055 C1048 1.409 . S
C1055 C1054 1.362 . S
H1056 C1062 0.930 . S
H1057 C1065 0.930 . S
H1058 C1066 0.930 . S
H1059 C1067 0.930 . S
H1060 C1070 0.930 . S
H1061 C1071 0.930 . S
C1062 H1056 0.930 . S
C1062 C1063 1.355 . S
C1062 C1064 1.415 . S
C1063 C1062 1.355 . S
C1063 C1065 1.419 . S
C1064 C1062 1.415 . S
C1064 C1069 1.425 . S
C1064 C1071 1.409 . S
C1065 H1057 0.930 . S
C1065 C1063 1.419 . S
C1065 C1066 1.362 . S
C1066 H1058 0.930 . S
C1066 C1065 1.362 . S
C1066 C1069 1.409 . S
C1067 H1059 0.930 . S
C1067 C1068 1.355 . S
C1067 C1069 1.415 . S
C1068 C1067 1.355 . S
C1068 C1070 1.419 . S
C1069 C1064 1.425 . S
C1069 C1066 1.409 . S
C1069 C1067 1.415 . S
C1070 H1060 0.930 . S
C1070 C1068 1.419 . S
C1070 C1071 1.362 . S
C1071 H1061 0.930 . S
C1071 C1064 1.409 . S
C1071 C1070 1.362 . S
H1072 C1078 0.930 . S
H1073 C1081 0.930 . S
H1074 C1082 0.930 . S
H1075 C1083 0.930 . S
H1076 C1086 0.930 . S
H1077 C1087 0.930 . S
C1078 H1072 0.930 . S
C1078 C1079 1.355 . S
C1078 C1080 1.415 . S
C1079 C1078 1.355 . S
C1079 C1081 1.419 . S
C1080 C1078 1.415 . S
C1080 C1085 1.425 . S
C1080 C1087 1.409 . S
C1081 H1073 0.930 . S
C1081 C1079 1.419 . S
C1081 C1082 1.362 . S
C1082 H1074 0.930 . S
C1082 C1081 1.362 . S
C1082 C1085 1.409 . S
C1083 H1075 0.930 . S
C1083 C1084 1.355 . S
C1083 C1085 1.415 . S
C1084 C1083 1.355 . S
C1084 C1086 1.419 . S
C1085 C1080 1.425 . S
C1085 C1082 1.409 . S
C1085 C1083 1.415 . S
C1086 H1076 0.930 . S
C1086 C1084 1.419 . S
C1086 C1087 1.362 . S
C1087 H1077 0.930 . S
C1087 C1080 1.409 . S
C1087 C1086 1.362 . S
H1088 C1094 0.930 . S
H1089 C1097 0.930 . S
H1090 C1098 0.930 . S
H1091 C1099 0.930 . S
H1092 C1102 0.930 . S
H1093 C1103 0.930 1_455 S
C1094 H1088 0.930 . S
C1094 C1095 1.355 . S
C1094 C1096 1.415 . S
C1095 C1094 1.355 . S
C1095 C1097 1.419 . S
C1096 C1094 1.415 . S
C1096 C1101 1.425 . S
C1096 C1103 1.409 . S
C1097 H1089 0.930 . S
C1097 C1095 1.419 . S
C1097 C1098 1.362 . S
C1098 H1090 0.930 . S
C1098 C1097 1.362 . S
C1098 C1101 1.409 . S
C1099 H1091 0.930 . S
C1099 C1100 1.355 . S
C1099 C1101 1.415 . S
C1100 C1099 1.355 . S
C1100 C1102 1.419 . S
C1101 C1096 1.425 . S
C1101 C1098 1.409 . S
C1101 C1099 1.415 . S
C1102 H1092 0.930 . S
C1102 C1100 1.419 . S
C1102 C1103 1.362 . S
C1103 H1093 0.930 1_655 S
C1103 C1096 1.409 . S
C1103 C1102 1.362 . S
H1104 C1110 0.930 . S
H1105 C1113 0.930 1_545 S
H1106 C1114 0.930 1_545 S
H1107 C1115 0.930 . S
H1108 C1118 0.930 . S
H1109 C1119 0.930 . S
C1110 H1104 0.930 . S
C1110 C1111 1.355 . S
C1110 C1112 1.415 . S
C1111 C1110 1.355 . S
C1111 C1113 1.419 . S
C1112 C1110 1.415 . S
C1112 C1117 1.425 . S
C1112 C1119 1.409 . S
C1113 H1105 0.930 1_565 S
C1113 C1111 1.419 . S
C1113 C1114 1.362 . S
C1114 H1106 0.930 1_565 S
C1114 C1113 1.362 . S
C1114 C1117 1.409 . S
C1115 H1107 0.930 . S
C1115 C1116 1.355 . S
C1115 C1117 1.415 . S
C1116 C1115 1.355 . S
C1116 C1118 1.419 . S
C1117 C1112 1.425 . S
C1117 C1114 1.409 . S
C1117 C1115 1.415 . S
C1118 H1108 0.930 . S
C1118 C1116 1.419 . S
C1118 C1119 1.362 . S
C1119 H1109 0.930 . S
C1119 C1112 1.409 . S
C1119 C1118 1.362 . S
H1120 C1126 0.930 . S
H1121 C1129 0.930 . S
H1122 C1130 0.930 . S
H1123 C1131 0.930 . S
H1124 C1134 0.930 . S
H1125 C1135 0.930 . S
C1126 H1120 0.930 . S
C1126 C1127 1.355 . S
C1126 C1128 1.415 . S
C1127 C1126 1.355 . S
C1127 C1129 1.419 . S
C1128 C1126 1.415 . S
C1128 C1133 1.425 . S
C1128 C1135 1.409 . S
C1129 H1121 0.930 . S
C1129 C1127 1.419 . S
C1129 C1130 1.362 . S
C1130 H1122 0.930 . S
C1130 C1129 1.362 . S
C1130 C1133 1.409 . S
C1131 H1123 0.930 . S
C1131 C1132 1.355 . S
C1131 C1133 1.415 . S
C1132 C1131 1.355 . S
C1132 C1134 1.419 . S
C1133 C1128 1.425 . S
C1133 C1130 1.409 . S
C1133 C1131 1.415 . S
C1134 H1124 0.930 . S
C1134 C1132 1.419 . S
C1134 C1135 1.362 . S
C1135 H1125 0.930 . S
C1135 C1128 1.409 . S
C1135 C1134 1.362 . S
H1136 C1142 0.930 . S
H1137 C1145 0.930 . S
H1138 C1146 0.930 . S
H1139 C1147 0.930 . S
H1140 C1150 0.930 . S
H1141 C1151 0.930 . S
C1142 H1136 0.930 . S
C1142 C1143 1.355 . S
C1142 C1144 1.415 . S
C1143 C1142 1.355 . S
C1143 C1145 1.419 . S
C1144 C1142 1.415 . S
C1144 C1149 1.425 . S
C1144 C1151 1.409 . S
C1145 H1137 0.930 . S
C1145 C1143 1.419 . S
C1145 C1146 1.362 . S
C1146 H1138 0.930 . S
C1146 C1145 1.362 . S
C1146 C1149 1.409 . S
C1147 H1139 0.930 . S
C1147 C1148 1.355 . S
C1147 C1149 1.415 . S
C1148 C1147 1.355 . S
C1148 C1150 1.419 . S
C1149 C1144 1.425 . S
C1149 C1146 1.409 . S
C1149 C1147 1.415 . S
C1150 H1140 0.930 . S
C1150 C1148 1.419 . S
C1150 C1151 1.362 . S
C1151 H1141 0.930 . S
C1151 C1144 1.409 . S
C1151 C1150 1.362 . S
C775 C13 1.974 . S
C780 C113 1.817 . S
C791 C27 1.946 . S
C796 C253 1.738 . S
C812 C341 1.756 . S
C807 C29 1.891 . S
C828 C481 1.742 . S
C823 C54 1.969 . S
C844 C595 1.734 . S
C839 C69 1.921 . S
C860 C665 1.060 . S
C855 C83 1.939 . S
C871 C15 1.952 . S
C876 C323 0.966 . S
C887 C41 1.847 . S
C892 C427 1.243 . S
C908 C541 1.326 . S
C903 C42 1.863 . S
C924 C683 1.781 . S
C919 C57 1.885 . S
C935 C71 2.038 . S
C940 C95 1.123 . S
C956 C199 1.334 . S
C951 C1 1.842 1_655 S
C972 C437 1.683 . S
C967 C12 2.086 1_655 S
C983 C26 2.109 . S
C988 C551 1.677 . S
C1004 C709 1.331 . S
C999 C28 2.170 . S
C1015 C55 1.986 . S
C1020 C85 1.827 . S
C1031 C68 2.173 . S
C1036 C209 1.769 . S
C1047 C82 1.972 . S
C1052 C313 1.745 . S
C1063 C14 2.027 . S
C1068 C655 1.787 . S
C1084 C139 1.214 . S
C1079 C40 2.060 . S
C1095 C43 2.070 . S
C1100 C227 1.400 . S
C1111 C56 2.080 . S
C1116 C367 1.244 . S
C1127 C70 2.027 . S
C1132 C455 1.435 . S
C1143 C0 2.079 . S
C1148 C569 1.401 . S
