# Generated by pormake.
# Topology eea, (3,6)-cn, num edge types: 1
# Building blocks:
#     Node 0, Type 0, BuildingBlock: BETDAH_clean_linker_0, # of connection points: 3
#     Node 1, Type 0, BuildingBlock: BETDAH_clean_linker_0, # of connection points: 3
#     Node 2, Type 0, BuildingBlock: BETDAH_clean_linker_0, # of connection points: 3
#     Node 3, Type 0, BuildingBlock: BETDAH_clean_linker_0, # of connection points: 3
#     Node 4, Type 0, BuildingBlock: BETDAH_clean_linker_0, # of connection points: 3
#     Node 5, Type 0, BuildingBlock: BETDAH_clean_linker_0, # of connection points: 3
#     Node 6, Type 0, BuildingBlock: BETDAH_clean_linker_0, # of connection points: 3
#     Node 7, Type 0, BuildingBlock: BETDAH_clean_linker_0, # of connection points: 3
#     Node 8, Type 0, BuildingBlock: BETDAH_clean_linker_0, # of connection points: 3
#     Node 9, Type 0, BuildingBlock: BETDAH_clean_linker_0, # of connection points: 3
#     Node 10, Type 0, BuildingBlock: BETDAH_clean_linker_0, # of connection points: 3
#     Node 11, Type 0, BuildingBlock: BETDAH_clean_linker_0, # of connection points: 3
#     Node 12, Type 0, BuildingBlock: BETDAH_clean_linker_0, # of connection points: 3
#     Node 13, Type 0, BuildingBlock: BETDAH_clean_linker_0, # of connection points: 3
#     Node 14, Type 0, BuildingBlock: BETDAH_clean_linker_0, # of connection points: 3
#     Node 15, Type 0, BuildingBlock: BETDAH_clean_linker_0, # of connection points: 3
#     Node 16, Type 0, BuildingBlock: BETDAH_clean_linker_0, # of connection points: 3
#     Node 17, Type 0, BuildingBlock: BETDAH_clean_linker_0, # of connection points: 3
#     Node 18, Type 1, BuildingBlock: CUKXOW_clean_sbu_0, # of connection points: 6
#     Node 19, Type 1, BuildingBlock: CUKXOW_clean_sbu_0, # of connection points: 6
#     Node 20, Type 1, BuildingBlock: CUKXOW_clean_sbu_0, # of connection points: 6
#     Node 21, Type 1, BuildingBlock: CUKXOW_clean_sbu_0, # of connection points: 6
#     Node 22, Type 1, BuildingBlock: CUKXOW_clean_sbu_0, # of connection points: 6
#     Node 23, Type 1, BuildingBlock: CUKXOW_clean_sbu_0, # of connection points: 6
#     Node 24, Type 1, BuildingBlock: CUKXOW_clean_sbu_0, # of connection points: 6
#     Node 25, Type 1, BuildingBlock: CUKXOW_clean_sbu_0, # of connection points: 6
#     Node 26, Type 1, BuildingBlock: CUKXOW_clean_sbu_0, # of connection points: 6
#     Edge 27, Type (0, 1), BuildingBlock: TEMPAE_clean_linker_10, # of connection points: 2
#     Edge 28, Type (0, 1), BuildingBlock: TEMPAE_clean_linker_10, # of connection points: 2
#     Edge 29, Type (0, 1), BuildingBlock: TEMPAE_clean_linker_10, # of connection points: 2
#     Edge 30, Type (0, 1), BuildingBlock: TEMPAE_clean_linker_10, # of connection points: 2
#     Edge 31, Type (0, 1), BuildingBlock: TEMPAE_clean_linker_10, # of connection points: 2
#     Edge 32, Type (0, 1), BuildingBlock: TEMPAE_clean_linker_10, # of connection points: 2
#     Edge 33, Type (0, 1), BuildingBlock: TEMPAE_clean_linker_10, # of connection points: 2
#     Edge 34, Type (0, 1), BuildingBlock: TEMPAE_clean_linker_10, # of connection points: 2
#     Edge 35, Type (0, 1), BuildingBlock: TEMPAE_clean_linker_10, # of connection points: 2
#     Edge 36, Type (0, 1), BuildingBlock: TEMPAE_clean_linker_10, # of connection points: 2
#     Edge 37, Type (0, 1), BuildingBlock: TEMPAE_clean_linker_10, # of connection points: 2
#     Edge 38, Type (0, 1), BuildingBlock: TEMPAE_clean_linker_10, # of connection points: 2
#     Edge 39, Type (0, 1), BuildingBlock: TEMPAE_clean_linker_10, # of connection points: 2
#     Edge 40, Type (0, 1), BuildingBlock: TEMPAE_clean_linker_10, # of connection points: 2
#     Edge 41, Type (0, 1), BuildingBlock: TEMPAE_clean_linker_10, # of connection points: 2
#     Edge 42, Type (0, 1), BuildingBlock: TEMPAE_clean_linker_10, # of connection points: 2
#     Edge 43, Type (0, 1), BuildingBlock: TEMPAE_clean_linker_10, # of connection points: 2
#     Edge 44, Type (0, 1), BuildingBlock: TEMPAE_clean_linker_10, # of connection points: 2
#     Edge 45, Type (0, 1), BuildingBlock: TEMPAE_clean_linker_10, # of connection points: 2
#     Edge 46, Type (0, 1), BuildingBlock: TEMPAE_clean_linker_10, # of connection points: 2
#     Edge 47, Type (0, 1), BuildingBlock: TEMPAE_clean_linker_10, # of connection points: 2
#     Edge 48, Type (0, 1), BuildingBlock: TEMPAE_clean_linker_10, # of connection points: 2
#     Edge 49, Type (0, 1), BuildingBlock: TEMPAE_clean_linker_10, # of connection points: 2
#     Edge 50, Type (0, 1), BuildingBlock: TEMPAE_clean_linker_10, # of connection points: 2
#     Edge 51, Type (0, 1), BuildingBlock: TEMPAE_clean_linker_10, # of connection points: 2
#     Edge 52, Type (0, 1), BuildingBlock: TEMPAE_clean_linker_10, # of connection points: 2
#     Edge 53, Type (0, 1), BuildingBlock: TEMPAE_clean_linker_10, # of connection points: 2
#     Edge 54, Type (0, 1), BuildingBlock: TEMPAE_clean_linker_10, # of connection points: 2
#     Edge 55, Type (0, 1), BuildingBlock: TEMPAE_clean_linker_10, # of connection points: 2
#     Edge 56, Type (0, 1), BuildingBlock: TEMPAE_clean_linker_10, # of connection points: 2
#     Edge 57, Type (0, 1), BuildingBlock: TEMPAE_clean_linker_10, # of connection points: 2
#     Edge 58, Type (0, 1), BuildingBlock: TEMPAE_clean_linker_10, # of connection points: 2
#     Edge 59, Type (0, 1), BuildingBlock: TEMPAE_clean_linker_10, # of connection points: 2
#     Edge 60, Type (0, 1), BuildingBlock: TEMPAE_clean_linker_10, # of connection points: 2
#     Edge 61, Type (0, 1), BuildingBlock: TEMPAE_clean_linker_10, # of connection points: 2
#     Edge 62, Type (0, 1), BuildingBlock: TEMPAE_clean_linker_10, # of connection points: 2
#     Edge 63, Type (0, 1), BuildingBlock: TEMPAE_clean_linker_10, # of connection points: 2
#     Edge 64, Type (0, 1), BuildingBlock: TEMPAE_clean_linker_10, # of connection points: 2
#     Edge 65, Type (0, 1), BuildingBlock: TEMPAE_clean_linker_10, # of connection points: 2
#     Edge 66, Type (0, 1), BuildingBlock: TEMPAE_clean_linker_10, # of connection points: 2
#     Edge 67, Type (0, 1), BuildingBlock: TEMPAE_clean_linker_10, # of connection points: 2
#     Edge 68, Type (0, 1), BuildingBlock: TEMPAE_clean_linker_10, # of connection points: 2
#     Edge 69, Type (0, 1), BuildingBlock: TEMPAE_clean_linker_10, # of connection points: 2
#     Edge 70, Type (0, 1), BuildingBlock: TEMPAE_clean_linker_10, # of connection points: 2
#     Edge 71, Type (0, 1), BuildingBlock: TEMPAE_clean_linker_10, # of connection points: 2
#     Edge 72, Type (0, 1), BuildingBlock: TEMPAE_clean_linker_10, # of connection points: 2
#     Edge 73, Type (0, 1), BuildingBlock: TEMPAE_clean_linker_10, # of connection points: 2
#     Edge 74, Type (0, 1), BuildingBlock: TEMPAE_clean_linker_10, # of connection points: 2
#     Edge 75, Type (0, 1), BuildingBlock: TEMPAE_clean_linker_10, # of connection points: 2
#     Edge 76, Type (0, 1), BuildingBlock: TEMPAE_clean_linker_10, # of connection points: 2
#     Edge 77, Type (0, 1), BuildingBlock: TEMPAE_clean_linker_10, # of connection points: 2
#     Edge 78, Type (0, 1), BuildingBlock: TEMPAE_clean_linker_10, # of connection points: 2
#     Edge 79, Type (0, 1), BuildingBlock: TEMPAE_clean_linker_10, # of connection points: 2
#     Edge 80, Type (0, 1), BuildingBlock: TEMPAE_clean_linker_10, # of connection points: 2
# Relax obj value: 0.033
# Max RMSD: 0.156
# Mean RMSD: 0.090
data_MOF--net-eea--node1-CUKXOW_clean_sbu_0--node2-BETDAH_clean_linker_0--edge1-TEMPAE_clean_linker_10
_symmetry_space_group_name_H-M    P1
_symmetry_Int_Tables_number       1
_symmetry_cell_setting            triclinic
loop_
_symmetry_equiv_pos_as_xyz
'x, y, z'
_cell_length_a     60.844982
_cell_length_b     57.384826
_cell_length_c     50.83555
_cell_angle_alpha  93.280673
_cell_angle_beta   93.300413
_cell_angle_gamma 119.91633
loop_
_atom_site_label
_atom_site_type_symbol
_atom_site_fract_x
_atom_site_fract_y
_atom_site_fract_z
_atom_type_partial_charge
H0 H 0.23555 0.07528 0.46605 0.0
H1 H 0.2538 0.15431 0.44567 0.0
H2 H 0.22253 0.08787 0.38518 0.0
C3 C 0.23577 0.0883 0.45132 0.0
C4 C 0.22713 0.07771 0.42471 0.0
C5 C 0.24575 0.11595 0.45891 0.0
C6 C 0.24589 0.13293 0.44 0.0
C7 C 0.23692 0.12246 0.4135 0.0
C8 C 0.22824 0.09524 0.40595 0.0
N9 N 0.23796 0.13913 0.39357 0.0
C10 C 0.23149 0.15907 0.39686 0.0
H11 H 0.92718 0.18419 0.46189 0.0
H12 H 0.86926 0.09978 0.45684 0.0
H13 H 0.93405 0.12531 0.41267 0.0
C14 C 0.91951 0.16337 0.45399 0.0
C15 C 0.93329 0.15713 0.43657 0.0
C16 C 0.89651 0.14282 0.46196 0.0
C17 C 0.88666 0.11599 0.45071 0.0
C18 C 0.90014 0.10981 0.43269 0.0
C19 C 0.92355 0.1303 0.42623 0.0
N20 N 0.89146 0.08311 0.42147 0.0
C21 C 0.86634 0.06211 0.4192 0.0
H22 H 0.83447 0.74554 0.48218 0.0
H23 H 0.89736 0.73893 0.45584 0.0
H24 H 0.85866 0.76747 0.40514 0.0
C25 C 0.84757 0.74849 0.4674 0.0
C26 C 0.84455 0.75771 0.4433 0.0
C27 C 0.86641 0.74146 0.47188 0.0
C28 C 0.88308 0.74475 0.45251 0.0
C29 C 0.88036 0.75446 0.42844 0.0
C30 C 0.86091 0.76044 0.42391 0.0
N31 N 0.89589 0.75738 0.4077 0.0
C32 C 0.91967 0.75952 0.41061 0.0
H33 H 0.07144 0.25578 0.54405 0.0
H34 H 0.14072 0.25661 0.56972 0.0
H35 H 0.07943 0.22879 0.61938 0.0
C36 C 0.08248 0.25152 0.55847 0.0
C37 C 0.07243 0.24146 0.58224 0.0
C38 C 0.10739 0.25754 0.55406 0.0
C39 C 0.12163 0.25214 0.57308 0.0
C40 C 0.11135 0.24141 0.59652 0.0
C41 C 0.08708 0.23663 0.60105 0.0
N42 N 0.12486 0.23574 0.61644 0.0
C43 C 0.1469 0.23457 0.6136 0.0
H44 H 0.76312 0.8213 0.56359 0.0
H45 H 0.74967 0.88506 0.59148 0.0
H46 H 0.77996 0.85166 0.64612 0.0
C47 C 0.76397 0.83514 0.57957 0.0
C48 C 0.77345 0.8347 0.60537 0.0
C49 C 0.75495 0.85295 0.57443 0.0
C50 C 0.75641 0.87117 0.59522 0.0
C51 C 0.76574 0.87078 0.621 0.0
C52 C 0.77366 0.85229 0.62592 0.0
N53 N 0.76635 0.88771 0.64283 0.0
C54 C 0.76852 0.91284 0.64121 0.0
H55 H 0.17006 0.92667 0.55357 0.0
H56 H 0.1125 0.84801 0.57117 0.0
H57 H 0.14744 0.91362 0.63271 0.0
C58 C 0.15825 0.91367 0.56769 0.0
C59 C 0.16074 0.92402 0.59415 0.0
C60 C 0.14118 0.88624 0.55943 0.0
C61 C 0.12549 0.86922 0.57741 0.0
C62 C 0.12745 0.87947 0.60375 0.0
C63 C 0.1454 0.90647 0.61203 0.0
N64 N 0.11284 0.86289 0.62293 0.0
C65 C 0.08805 0.84138 0.6176 0.0
H66 H 0.91223 0.40563 0.78965 0.0
H67 H 0.92684 0.48494 0.77479 0.0
H68 H 0.89896 0.42254 0.71053 0.0
C69 C 0.91201 0.41926 0.7759 0.0
C70 C 0.90383 0.41012 0.74887 0.0
C71 C 0.9208 0.44632 0.78526 0.0
C72 C 0.92 0.46405 0.76776 0.0
C73 C 0.91148 0.45507 0.74091 0.0
C74 C 0.90422 0.42858 0.73157 0.0
N75 N 0.91164 0.47266 0.72237 0.0
C76 C 0.90366 0.49124 0.7271 0.0
H77 H 0.59407 0.51098 0.80671 0.0
H78 H 0.53201 0.42993 0.78311 0.0
H79 H 0.60046 0.46204 0.74392 0.0
C80 C 0.5857 0.49217 0.79402 0.0
C81 C 0.59997 0.48903 0.77485 0.0
C82 C 0.56122 0.47072 0.79754 0.0
C83 C 0.55094 0.44637 0.78092 0.0
C84 C 0.56515 0.44332 0.76152 0.0
C85 C 0.58959 0.46453 0.75889 0.0
N86 N 0.55575 0.4193 0.74428 0.0
C87 C 0.53132 0.39707 0.74281 0.0
H88 H 0.49781 0.06898 0.79936 0.0
H89 H 0.54828 0.04182 0.77266 0.0
H90 H 0.5191 0.07782 0.72001 0.0
C91 C 0.50834 0.06623 0.78421 0.0
C92 C 0.50654 0.07457 0.75917 0.0
C93 C 0.5227 0.05352 0.7894 0.0
C94 C 0.53722 0.05163 0.76955 0.0
C95 C 0.53623 0.0609 0.74476 0.0
C96 C 0.52031 0.07148 0.73947 0.0
N97 N 0.5497 0.05815 0.72412 0.0
C98 C 0.57525 0.06554 0.72763 0.0
H99 H 0.74786 0.5943 0.88351 0.0
H100 H 0.81858 0.59844 0.90931 0.0
H101 H 0.75951 0.5742 0.96143 0.0
C102 C 0.7596 0.59148 0.89838 0.0
C103 C 0.75063 0.58349 0.92306 0.0
C104 C 0.78431 0.59735 0.89347 0.0
C105 C 0.79958 0.59401 0.91304 0.0
C106 C 0.79045 0.58546 0.93751 0.0
C107 C 0.76629 0.58065 0.94241 0.0
N108 N 0.80515 0.5821 0.95801 0.0
C109 C 0.82614 0.57921 0.95443 0.0
H110 H 0.43676 0.16039 0.89239 0.0
H111 H 0.42866 0.22888 0.91557 0.0
H112 H 0.45792 0.19714 0.9731 0.0
C113 C 0.43903 0.17574 0.90749 0.0
C114 C 0.44916 0.1767 0.93348 0.0
C115 C 0.43107 0.19412 0.90105 0.0
C116 C 0.43459 0.21455 0.92041 0.0
C117 C 0.44479 0.2158 0.94624 0.0
C118 C 0.45125 0.19652 0.95271 0.0
N119 N 0.44772 0.2353 0.96667 0.0
C120 C 0.45239 0.26108 0.96278 0.0
H121 H 0.84569 0.25827 0.89622 0.0
H122 H 0.79118 0.179 0.91641 0.0
H123 H 0.82405 0.24661 0.9755 0.0
C124 C 0.83485 0.24498 0.91065 0.0
C125 C 0.83712 0.25598 0.93674 0.0
C126 C 0.819 0.21707 0.90303 0.0
C127 C 0.80342 0.20053 0.92153 0.0
C128 C 0.80491 0.21152 0.94746 0.0
C129 C 0.82221 0.23884 0.95506 0.0
N130 N 0.79072 0.19521 0.96699 0.0
C131 C 0.76512 0.1755 0.96255 0.0
H132 H 0.57328 0.74475 0.13346 0.0
H133 H 0.59123 0.82392 0.11368 0.0
H134 H 0.56387 0.75872 0.05226 0.0
C135 C 0.57397 0.758 0.11876 0.0
C136 C 0.56675 0.7479 0.09189 0.0
C137 C 0.58317 0.78545 0.12673 0.0
C138 C 0.58391 0.80269 0.10776 0.0
C139 C 0.57639 0.79272 0.08095 0.0
C140 C 0.56846 0.7657 0.07318 0.0
N141 N 0.5784 0.80972 0.06097 0.0
C142 C 0.57202 0.8298 0.06344 0.0
H143 H 0.267 0.85135 0.13956 0.0
H144 H 0.19912 0.77502 0.11374 0.0
H145 H 0.2586 0.81094 0.06251 0.0
C146 C 0.25619 0.83416 0.12487 0.0
C147 C 0.26578 0.8337 0.10043 0.0
C148 C 0.23189 0.81321 0.12965 0.0
C149 C 0.21779 0.79117 0.1102 0.0
C150 C 0.22764 0.79035 0.08606 0.0
C151 C 0.25132 0.81168 0.08133 0.0
N152 N 0.21419 0.76907 0.06549 0.0
C153 C 0.19291 0.7441 0.06783 0.0
H154 H 0.17995 0.42334 0.14613 0.0
H155 H 0.26054 0.45226 0.15522 0.0
H156 H 0.2311 0.49054 0.1055 0.0
C157 C 0.19901 0.4369 0.141 0.0
C158 C 0.2029 0.45685 0.12413 0.0
C159 C 0.21974 0.43539 0.15261 0.0
C160 C 0.24448 0.45326 0.14626 0.0
C161 C 0.24846 0.47298 0.12898 0.0
C162 C 0.22778 0.47506 0.11856 0.0
N163 N 0.27313 0.4917 0.12247 0.0
C164 C 0.29178 0.48504 0.11836 0.0
H165 H 0.40912 0.92771 0.21288 0.0
H166 H 0.47518 0.92387 0.24176 0.0
H167 H 0.41163 0.89818 0.28815 0.0
C168 C 0.4191 0.92279 0.22793 0.0
C169 C 0.40752 0.91243 0.25085 0.0
C170 C 0.44368 0.92724 0.22461 0.0
C171 C 0.45622 0.92034 0.24414 0.0
C172 C 0.44458 0.90986 0.26712 0.0
C173 C 0.42048 0.90625 0.27037 0.0
N174 N 0.4565 0.90308 0.28768 0.0
C175 C 0.47903 0.90269 0.28635 0.0
H176 H 0.1048 0.49557 0.22541 0.0
H177 H 0.09507 0.56287 0.24909 0.0
H178 H 0.12205 0.52942 0.30703 0.0
C179 C 0.10621 0.51031 0.24072 0.0
C180 C 0.11521 0.51047 0.26698 0.0
C181 C 0.09836 0.52879 0.23426 0.0
C182 C 0.10081 0.54841 0.25396 0.0
C183 C 0.10982 0.54877 0.28007 0.0
C184 C 0.1162 0.52944 0.2865 0.0
N185 N 0.11191 0.56768 0.30067 0.0
C186 C 0.11658 0.59345 0.29687 0.0
H187 H 0.50441 0.5964 0.22209 0.0
H188 H 0.4236 0.5404 0.21107 0.0
H189 H 0.45399 0.60883 0.26943 0.0
C190 C 0.48544 0.59004 0.22766 0.0
C191 C 0.48203 0.60543 0.24779 0.0
C192 C 0.46447 0.56679 0.21411 0.0
C193 C 0.43986 0.55824 0.2215 0.0
C194 C 0.43626 0.57327 0.24185 0.0
C195 C 0.45721 0.59696 0.25443 0.0
N196 N 0.41169 0.56597 0.24921 0.0
C197 C 0.39257 0.53951 0.25095 0.0
Tb198 Tb 0.5385 0.02722 0.0152 0.0
C199 C 0.52165 0.96747 0.0251 0.0
Tb200 Tb 0.47992 0.9838 0.01512 0.0
O201 O 0.54664 0.02597 0.05785 0.0
O202 O 0.51014 0.01402 0.04161 0.0
O203 O 0.53784 0.98877 0.01341 0.0
C204 C 0.43271 0.95548 0.03006 0.0
O205 O 0.49942 0.96391 0.03157 0.0
C206 C 0.5 0.98758 0.96946 0.0
C207 C 0.496 0.04374 0.00227 0.0
O208 O 0.44446 0.94547 0.01725 0.0
O209 O 0.44736 0.9815 0.03397 0.0
O210 O 0.47874 0.96664 0.97429 0.0
O211 O 0.50592 0.00499 0.98847 0.0
O212 O 0.47709 0.0192 0.00612 0.0
O213 O 0.52062 0.05087 0.00438 0.0
C214 C 0.58375 0.05968 0.99873 0.0
O215 O 0.57421 0.066 0.01837 0.0
O216 O 0.56778 0.03514 0.98849 0.0
C217 C 0.52278 0.01442 0.06226 0.0
Tb218 Tb 0.99076 0.51211 0.0079 0.0
C219 C 0.04806 0.55422 0.02362 0.0
Tb220 Tb 0.02789 0.49076 0.01692 0.0
O221 O 0.99832 0.52769 0.0499 0.0
O222 O 1.00041 0.49375 0.03783 0.0
O223 O 0.02651 0.55021 0.01113 0.0
C224 C 0.06154 0.47856 0.03832 0.0
O225 O 0.05162 0.53404 0.02976 0.0
C226 C 0.01472 0.49153 0.96711 0.0
C227 C 0.97069 0.44896 0.99973 0.0
O228 O 0.06297 0.48895 0.01602 0.0
O229 O 0.04106 0.47484 0.04843 0.0
O230 O 0.02221 0.47534 0.97537 0.0
O231 O 0.01773 0.50828 0.98625 0.0
O232 O 0.99191 0.45274 0.01293 0.0
O233 O 0.96757 0.4693 0.99309 0.0
C234 C 0.95602 0.52481 0.99107 0.0
O235 O 0.95379 0.50961 0.00986 0.0
O236 O 0.97783 0.53289 0.98179 0.0
C237 C 0.00425 0.51013 0.05741 0.0
Tb238 Tb 0.47754 0.49519 0.01155 0.0
C239 C 0.49373 0.4532 0.99469 0.0
Tb240 Tb 0.53489 0.51641 0.00454 0.0
O241 O 0.46602 0.48236 0.96904 0.0
O242 O 0.50283 0.51317 0.98238 0.0
O243 O 0.47682 0.45702 0.0068 0.0
C244 C 0.58028 0.53205 0.98677 0.0
O245 O 0.51608 0.47349 0.9893 0.0
C246 C 0.52296 0.5127 0.05365 0.0
C247 C 0.51826 0.55801 0.02214 0.0
O248 O 0.56831 0.51181 1.00067 0.0
O249 O 0.56674 0.54349 0.98298 0.0
O250 O 0.54566 0.52884 0.04713 0.0
O251 O 0.50953 0.49787 0.03322 0.0
O252 O 0.53506 0.55446 0.00955 0.0
O253 O 0.49605 0.5376 0.0272 0.0
C254 C 0.43437 0.48402 0.0322 0.0
O255 O 0.44324 0.49845 0.01253 0.0
O256 O 0.44951 0.47533 0.0398 0.0
C257 C 0.48881 0.49785 0.96225 0.0
Tb258 Tb 0.20151 0.35736 0.34603 0.0
C259 C 0.1848 0.29918 0.36048 0.0
Tb260 Tb 0.14446 0.3193 0.35269 0.0
O261 O 0.21126 0.35741 0.3883 0.0
O262 O 0.17613 0.35244 0.37478 0.0
O263 O 0.20207 0.32017 0.34925 0.0
C264 C 0.09996 0.28783 0.37132 0.0
O265 O 0.16237 0.29622 0.36567 0.0
C266 C 0.15643 0.32385 0.30373 0.0
C267 C 0.16091 0.37656 0.33551 0.0
O268 O 0.11799 0.31077 0.38298 0.0
O269 O 0.10702 0.28256 0.3492 0.0
O270 O 0.13405 0.31789 0.31047 0.0
O271 O 0.16972 0.3243 0.32391 0.0
O272 O 0.1438 0.35637 0.34774 0.0
O273 O 0.18322 0.37909 0.33079 0.0
C274 C 0.24542 0.39105 0.32723 0.0
O275 O 0.2365 0.39672 0.34772 0.0
O276 O 0.22988 0.3662 0.31773 0.0
C277 C 0.18899 0.35206 0.39489 0.0
Tb278 Tb 0.64879 0.84576 0.35071 0.0
C279 C 0.70597 0.88528 0.3689 0.0
Tb280 Tb 0.68369 0.82155 0.35852 0.0
O281 O 0.6553 0.85882 0.39329 0.0
O282 O 0.65631 0.82472 0.37942 0.0
O283 O 0.68534 0.88304 0.35592 0.0
C284 C 0.71581 0.80754 0.38011 0.0
O285 O 0.7079 0.86395 0.37435 0.0
C286 C 0.67339 0.82631 0.3091 0.0
C287 C 0.62678 0.78247 0.33719 0.0
O288 O 0.72035 0.82306 0.36112 0.0
O289 O 0.69294 0.7994 0.38658 0.0
O290 O 0.68034 0.80939 0.31639 0.0
O291 O 0.67578 0.84183 0.32914 0.0
O292 O 0.64727 0.78418 0.35008 0.0
O293 O 0.62481 0.80406 0.33306 0.0
C294 C 0.61535 0.86036 0.33436 0.0
O295 O 0.61202 0.84377 0.35205 0.0
O296 O 0.63761 0.86895 0.32603 0.0
C297 C 0.66013 0.84017 0.39982 0.0
Tb298 Tb 0.13739 0.82535 0.34054 0.0
C299 C 0.15466 0.78428 0.32476 0.0
Tb300 Tb 0.19421 0.84786 0.33241 0.0
O301 O 0.12753 0.81106 0.29804 0.0
O302 O 0.16204 0.84506 0.31149 0.0
O303 O 0.13786 0.78784 0.33725 0.0
C304 C 0.23704 0.86156 0.31014 0.0
O305 O 0.17628 0.80478 0.31832 0.0
C306 C 0.1841 0.84445 0.38186 0.0
C307 C 0.17724 0.88843 0.35232 0.0
O308 O 0.22913 0.84624 0.32933 0.0
O309 O 0.22108 0.86955 0.30383 0.0
O310 O 0.2064 0.861 0.37454 0.0
O311 O 0.16997 0.82884 0.36195 0.0
O312 O 0.19436 0.88568 0.33946 0.0
O313 O 0.1551 0.86754 0.35703 0.0
C314 C 0.09231 0.81091 0.35831 0.0
O315 O 0.1014 0.8256 0.33885 0.0
O316 O 0.1085 0.80425 0.36752 0.0
C317 C 0.14937 0.82935 0.29128 0.0
Tb318 Tb 0.86632 0.68468 0.67736 0.0
C319 C 0.85029 0.62677 0.69277 0.0
Tb320 Tb 0.80981 0.64687 0.68684 0.0
O321 O 0.87761 0.68556 0.71931 0.0
O322 O 0.8422 0.68066 0.70724 0.0
O323 O 0.8668 0.64739 0.68054 0.0
C324 C 0.76639 0.61666 0.70819 0.0
O325 O 0.82821 0.624 0.69916 0.0
C326 C 0.81975 0.65 0.63719 0.0
C327 C 0.82544 0.70362 0.66818 0.0
O328 O 0.77205 0.61068 0.68548 0.0
O329 O 0.78522 0.6396 0.71888 0.0
O330 O 0.7977 0.64419 0.64485 0.0
O331 O 0.83383 0.651 0.65689 0.0
O332 O 0.80905 0.68384 0.68139 0.0
O333 O 0.84756 0.70615 0.66249 0.0
C334 C 0.91072 0.71723 0.65883 0.0
O335 O 0.90245 0.72298 0.6798 0.0
O336 O 0.89403 0.6931 0.64836 0.0
C337 C 0.85584 0.6808 0.72687 0.0
Tb338 Tb 0.31617 0.17631 0.67964 0.0
C339 C 0.37334 0.21717 0.69752 0.0
Tb340 Tb 0.35273 0.15382 0.68772 0.0
O341 O 0.32272 0.18985 0.7221 0.0
O342 O 0.32502 0.15641 0.70863 0.0
O343 O 0.35233 0.21414 0.68458 0.0
C344 C 0.38621 0.1406 0.7075 0.0
O345 O 0.37607 0.19636 0.70321 0.0
C346 C 0.34119 0.15773 0.63834 0.0
C347 C 0.2958 0.11316 0.66806 0.0
O348 O 0.38959 0.15575 0.68838 0.0
O349 O 0.36382 0.13263 0.71535 0.0
O350 O 0.34834 0.14096 0.64555 0.0
O351 O 0.34369 0.17326 0.65834 0.0
O352 O 0.31664 0.11598 0.68123 0.0
O353 O 0.29297 0.13405 0.66298 0.0
C354 C 0.28202 0.18983 0.66244 0.0
O355 O 0.27962 0.1749 0.68155 0.0
O356 O 0.30374 0.1973 0.65315 0.0
C357 C 0.32852 0.17194 0.72886 0.0
Tb358 Tb 0.80242 0.15502 0.6727 0.0
C359 C 0.81637 0.10798 0.66825 0.0
Tb360 Tb 0.85895 0.16971 0.67234 0.0
O361 O 0.80227 0.16513 0.63135 0.0
O362 O 0.8257 0.15123 0.646 0.0
O363 O 0.79929 0.11514 0.67395 0.0
C364 C 0.90369 0.18707 0.65237 0.0
O365 O 0.84003 0.12593 0.6637 0.0
C366 C 0.8414 0.16389 0.71899 0.0
C367 C 0.84504 0.21684 0.68003 0.0
O368 O 0.89707 0.17423 0.67344 0.0
O369 O 0.88528 0.1904 0.64291 0.0
O370 O 0.86098 0.16142 0.71401 0.0
O371 O 0.83557 0.17271 0.69939 0.0
O372 O 0.86234 0.21006 0.67397 0.0
O373 O 0.82103 0.19853 0.683 0.0
C374 C 0.75571 0.13717 0.68767 0.0
O375 O 0.76295 0.14585 0.66488 0.0
O376 O 0.77477 0.13854 0.70196 0.0
C377 C 0.82065 0.16063 0.62648 0.0
C378 C 0.29165 0.86717 0.06968 0.0
C379 C 0.29049 0.85617 0.09385 0.0
C380 C 0.31505 0.88537 0.06084 0.0
C381 C 0.33798 0.89273 0.07648 0.0
C382 C 0.33692 0.88282 0.10159 0.0
C383 C 0.31311 0.86467 0.11005 0.0
C384 C 0.31524 0.89568 0.03412 0.0
C385 C 0.36094 0.89024 0.11889 0.0
C386 C 0.39532 0.91133 0.03793 0.0
C387 C 0.40831 0.9396 0.04154 0.0
C388 C 0.37274 0.89588 0.04971 0.0
C389 C 0.36288 0.90903 0.06546 0.0
C390 C 0.37607 0.93762 0.06934 0.0
C391 C 0.39867 0.95258 0.05733 0.0
C392 C 0.35932 0.86544 0.04512 0.0
C393 C 0.3662 0.9524 0.08596 0.0
H394 H 0.27413 0.86085 0.05727 0.0
H395 H 0.31226 0.85611 0.12868 0.0
H396 H 0.32724 0.91802 0.03579 0.0
H397 H 0.32368 0.88741 0.02025 0.0
H398 H 0.2958 0.88982 0.02542 0.0
H399 H 0.35691 0.88342 0.13897 0.0
H400 H 0.37097 0.88075 0.10952 0.0
H401 H 0.37411 0.91242 0.12086 0.0
H402 H 0.40289 0.90124 0.02596 0.0
H403 H 0.40885 0.97446 0.06041 0.0
H404 H 0.34008 0.85755 0.03463 0.0
H405 H 0.35671 0.85664 0.06435 0.0
H406 H 0.36997 0.85832 0.03321 0.0
H407 H 0.34719 0.9477 0.07704 0.0
H408 H 0.37915 0.97465 0.0878 0.0
H409 H 0.36376 0.9455 0.10609 0.0
C410 C 0.15922 0.43607 0.10015 0.0
C411 C 0.18108 0.45899 0.11266 0.0
C412 C 0.13882 0.43803 0.0884 0.0
C413 C 0.1402 0.46345 0.08952 0.0
C414 C 0.16198 0.48653 0.10271 0.0
C415 C 0.18224 0.48406 0.11396 0.0
C416 C 0.11603 0.41302 0.07428 0.0
C417 C 0.164 0.5139 0.10469 0.0
C418 C 0.10146 0.47657 0.03741 0.0
C419 C 0.08091 0.47341 0.05097 0.0
C420 C 0.12062 0.47283 0.04957 0.0
C421 C 0.11933 0.46616 0.07606 0.0
C422 C 0.09846 0.46274 0.08977 0.0
C423 C 0.07935 0.46617 0.07694 0.0
C424 C 0.14241 0.47634 0.03418 0.0
C425 C 0.09661 0.45606 0.11815 0.0
H426 H 0.15837 0.41671 0.09901 0.0
H427 H 0.19899 0.50173 0.12394 0.0
H428 H 0.09835 0.40966 0.08266 0.0
H429 H 0.11401 0.4158 0.05303 0.0
H430 H 0.11761 0.39466 0.07578 0.0
H431 H 0.18154 0.5295 0.11693 0.0
H432 H 0.16408 0.52055 0.08461 0.0
H433 H 0.1472 0.51267 0.11344 0.0
H434 H 0.10263 0.48209 0.01728 0.0
H435 H 0.06342 0.46373 0.08743 0.0
H436 H 0.144 0.45789 0.03392 0.0
H437 H 0.16061 0.49335 0.04399 0.0
H438 H 0.14004 0.48044 0.01343 0.0
H439 H 0.09748 0.43736 0.12 0.0
H440 H 0.07876 0.45323 0.12571 0.0
H441 H 0.11305 0.47257 0.13096 0.0
C442 C 0.57061 0.70636 0.09457 0.0
C443 C 0.55853 0.71924 0.08301 0.0
C444 C 0.56384 0.67983 0.08542 0.0
C445 C 0.54481 0.66595 0.06392 0.0
C446 C 0.53233 0.67866 0.05237 0.0
C447 C 0.53917 0.705 0.06219 0.0
C448 C 0.5773 0.66678 0.09851 0.0
C449 C 0.51193 0.66453 0.02941 0.0
C450 C 0.54486 0.60839 0.02292 0.0
C451 C 0.52494 0.58567 0.03242 0.0
C452 C 0.55149 0.63464 0.03297 0.0
C453 C 0.53812 0.63824 0.05325 0.0
C454 C 0.51814 0.61539 0.06307 0.0
C455 C 0.51172 0.58941 0.05247 0.0
C456 C 0.57272 0.65853 0.02177 0.0
C457 C 0.50369 0.61837 0.08497 0.0
H458 H 0.58582 0.71722 0.1104 0.0
H459 H 0.52935 0.7145 0.05345 0.0
H460 H 0.56317 0.6473 0.10539 0.0
H461 H 0.58789 0.66223 0.08398 0.0
H462 H 0.59091 0.67985 0.11571 0.0
H463 H 0.50408 0.67721 0.02263 0.0
H464 H 0.51986 0.65913 0.01253 0.0
H465 H 0.49608 0.64543 0.03514 0.0
H466 H 0.55516 0.60567 0.00746 0.0
H467 H 0.49654 0.57198 0.06025 0.0
H468 H 0.588 0.67144 0.03774 0.0
H469 H 0.5654 0.67111 0.01344 0.0
H470 H 0.58116 0.65231 0.00597 0.0
H471 H 0.51693 0.62879 0.10314 0.0
H472 H 0.48803 0.59859 0.0897 0.0
H473 H 0.49546 0.63102 0.07932 0.0
C474 C 0.85006 0.3 0.9634 0.0
C475 C 0.85584 0.28502 0.94515 0.0
C476 C 0.86802 0.32696 0.97241 0.0
C477 C 0.89226 0.33942 0.96266 0.0
C478 C 0.89803 0.32468 0.94378 0.0
C479 C 0.87988 0.29763 0.93545 0.0
C480 C 0.86118 0.34205 0.99256 0.0
C481 C 0.92355 0.33737 0.93266 0.0
C482 C 0.93236 0.41609 0.96936 0.0
C483 C 0.95013 0.42103 0.99088 0.0
C484 C 0.91329 0.38965 0.96006 0.0
C485 C 0.91185 0.36765 0.97271 0.0
C486 C 0.92952 0.37256 0.9947 0.0
C487 C 0.94857 0.39919 0.00339 0.0
C488 C 0.89516 0.38529 0.93625 0.0
C489 C 0.92838 0.34966 0.00894 0.0
H490 H 0.83143 0.29066 0.97068 0.0
H491 H 0.88478 0.2862 0.92171 0.0
H492 H 0.87468 0.34877 0.01072 0.0
H493 H 0.86292 0.36045 0.98462 0.0
H494 H 0.84149 0.32952 0.9981 0.0
H495 H 0.9246 0.32359 0.91716 0.0
H496 H 0.92736 0.35619 0.92399 0.0
H497 H 0.93892 0.34301 0.94878 0.0
H498 H 0.93369 0.43286 0.95934 0.0
H499 H 0.96219 0.40291 0.02009 0.0
H500 H 0.87519 0.37109 0.93988 0.0
H501 H 0.89957 0.37615 0.91901 0.0
H502 H 0.89658 0.40449 0.93099 0.0
H503 H 0.90925 0.3375 0.0159 0.0
H504 H 0.94297 0.35694 0.02625 0.0
H505 H 0.93134 0.33601 0.99514 0.0
C506 C 0.72272 0.58959 0.95343 0.0
C507 C 0.72518 0.57841 0.92929 0.0
C508 C 0.6987 0.58278 0.96128 0.0
C509 C 0.67654 0.56425 0.94461 0.0
C510 C 0.67889 0.55371 0.9197 0.0
C511 C 0.70325 0.56101 0.91227 0.0
C512 C 0.69706 0.59476 0.98783 0.0
C513 C 0.65567 0.53391 0.90139 0.0
C514 C 0.61716 0.52544 0.97998 0.0
C515 C 0.60459 0.53991 0.9756 0.0
C516 C 0.64027 0.53271 0.96936 0.0
C517 C 0.65102 0.555 0.95404 0.0
C518 C 0.63811 0.56936 0.94917 0.0
C519 C 0.61501 0.56161 0.96002 0.0
C520 C 0.65342 0.51684 0.97492 0.0
C521 C 0.64894 0.59321 0.93294 0.0
H522 H 0.73969 0.60337 0.96644 0.0
H523 H 0.70512 0.55227 0.89365 0.0
H524 H 0.68528 0.60442 0.98544 0.0
H525 H 0.68762 0.57849 1.00101 0.0
H526 H 0.71611 0.61004 0.99772 0.0
H527 H 0.66073 0.52933 0.88188 0.0
H528 H 0.64504 0.51476 0.91063 0.0
H529 H 0.64262 0.54196 0.89816 0.0
H530 H 0.60899 0.50849 0.99184 0.0
H531 H 0.60516 0.57267 0.95641 0.0
H532 H 0.67208 0.53014 0.98663 0.0
H533 H 0.65726 0.50943 0.95608 0.0
H534 H 0.64194 0.49926 0.98606 0.0
H535 H 0.66735 0.60958 0.94306 0.0
H536 H 0.63589 0.60132 0.92983 0.0
H537 H 0.65284 0.58735 0.91335 0.0
C538 C 0.44329 0.12974 0.9303 0.0
C539 C 0.4569 0.15684 0.94119 0.0
C540 C 0.4496 0.11073 0.93889 0.0
C541 C 0.46949 0.11878 0.9594 0.0
C542 C 0.48351 0.1461 0.97019 0.0
C543 C 0.47741 0.16481 0.96061 0.0
C544 C 0.43474 0.08194 0.92629 0.0
C545 C 0.50466 0.15549 0.99232 0.0
C546 C 0.46929 0.06562 1.0011 0.0
C547 C 0.4892 0.06298 0.99173 0.0
C548 C 0.46265 0.08375 0.99076 0.0
C549 C 0.47562 0.09873 0.96988 0.0
C550 C 0.49523 0.09544 0.95985 0.0
C551 C 0.50208 0.07795 0.97121 0.0
C552 C 0.44215 0.08727 0.00252 0.0
C553 C 0.50889 0.11023 0.937 0.0
H554 H 0.42729 0.12314 0.9155 0.0
H555 H 0.48867 0.18578 0.96865 0.0
H556 H 0.44796 0.07533 0.9195 0.0
H557 H 0.42368 0.06834 0.94108 0.0
H558 H 0.42132 0.07943 0.90913 0.0
H559 H 0.51324 0.17729 0.99909 0.0
H560 H 0.4972 0.14366 0.00946 0.0
H561 H 0.5199 0.15196 0.98572 0.0
H562 H 0.45929 0.05395 0.0169 0.0
H563 H 0.51714 0.07549 0.96359 0.0
H564 H 0.42651 0.08241 0.98699 0.0
H565 H 0.45011 0.10866 0.01044 0.0
H566 H 0.43401 0.07423 0.01876 0.0
H567 H 0.49487 0.1058 0.91977 0.0
H568 H 0.52294 0.10454 0.93082 0.0
H569 H 0.51902 0.13236 0.94254 0.0
C570 C 0.73052 0.13497 0.97828 0.0
C571 C 0.7383 0.15646 0.96263 0.0
C572 C 0.70469 0.11851 0.98198 0.0
C573 C 0.68634 0.12384 0.96973 0.0
C574 C 0.69416 0.145 0.95303 0.0
C575 C 0.72018 0.1612 0.94977 0.0
C576 C 0.69719 0.09618 0.99992 0.0
C577 C 0.67519 0.1512 0.9395 0.0
C578 C 0.61701 0.06834 0.96802 0.0
C579 C 0.60933 0.07698 0.99022 0.0
C580 C 0.6418 0.08378 0.96058 0.0
C581 C 0.65933 0.10833 0.97584 0.0
C582 C 0.65141 0.11744 0.9979 0.0
C583 C 0.62646 0.10167 0.00478 0.0
C584 C 0.64941 0.0735 0.9368 0.0
C585 C 0.66952 0.14348 0.01471 0.0
H586 H 0.74475 0.13163 0.9884 0.0
H587 H 0.72643 0.1781 0.93787 0.0
H588 H 0.68958 0.1007 0.01761 0.0
H589 H 0.68184 0.07674 0.98957 0.0
H590 H 0.71351 0.09365 0.00664 0.0
H591 H 0.68397 0.16667 0.92536 0.0
H592 H 0.65909 0.13259 0.92866 0.0
H593 H 0.66714 0.15874 0.95457 0.0
H594 H 0.60372 0.04929 0.95663 0.0
H595 H 0.62053 0.1084 0.02192 0.0
H596 H 0.66426 0.06864 0.94325 0.0
H597 H 0.65776 0.08935 0.923 0.0
H598 H 0.63302 0.05511 0.9259 0.0
H599 H 0.68564 0.14202 0.02414 0.0
H600 H 0.6601 0.14828 0.03051 0.0
H601 H 0.67765 0.16049 0.00217 0.0
C602 C 0.84434 0.55161 0.93931 0.0
C603 C 0.84705 0.57417 0.95443 0.0
C604 C 0.86289 0.54397 0.94239 0.0
C605 C 0.88439 0.55923 0.96119 0.0
C606 C 0.88764 0.5828 0.97559 0.0
C607 C 0.86881 0.58997 0.97204 0.0
C608 C 0.85882 0.51882 0.92658 0.0
C609 C 0.91028 0.59962 0.99578 0.0
C610 C 0.91494 0.52368 0.99505 0.0
C611 C 0.93722 0.53257 0.98242 0.0
C612 C 0.89737 0.53185 0.98794 0.0
C613 C 0.90222 0.54926 0.96765 0.0
C614 C 0.92446 0.5578 0.95442 0.0
C615 C 0.94177 0.54939 0.96203 0.0
C616 C 0.87387 0.52227 0.00253 0.0
C617 C 0.9302 0.57622 0.93261 0.0
H618 H 0.82726 0.53938 0.92584 0.0
H619 H 0.87061 0.60731 0.98383 0.0
H620 H 0.87632 0.52291 0.91733 0.0
H621 H 0.85473 0.50282 0.93998 0.0
H622 H 0.84271 0.51097 0.91081 0.0
H623 H 0.9111 0.61855 0.00358 0.0
H624 H 0.90922 0.58774 0.01262 0.0
H625 H 0.92826 0.60492 0.98697 0.0
H626 H 0.91139 0.51063 0.01079 0.0
H627 H 0.95902 0.55625 0.95224 0.0
H628 H 0.8565 0.51194 0.98828 0.0
H629 H 0.87402 0.53986 0.01301 0.0
H630 H 0.87255 0.50815 0.01725 0.0
H631 H 0.91381 0.56753 0.91713 0.0
H632 H 0.94748 0.57966 0.92321 0.0
H633 H 0.93312 0.59603 0.94074 0.0
C634 C 0.47702 0.30717 0.98422 0.0
C635 C 0.45944 0.28913 0.96367 0.0
C636 C 0.48312 0.33425 0.98707 0.0
C637 C 0.4713 0.34338 0.96884 0.0
C638 C 0.45401 0.32526 0.9475 0.0
C639 C 0.44819 0.29816 0.94521 0.0
C640 C 0.50159 0.35283 0.01011 0.0
C641 C 0.44116 0.33429 0.92761 0.0
C642 C 0.46631 0.4033 0.99623 0.0
C643 C 0.48733 0.42505 0.98681 0.0
C644 C 0.46044 0.37659 0.98979 0.0
C645 C 0.47584 0.37139 0.97338 0.0
C646 C 0.49659 0.39314 0.96307 0.0
C647 C 0.50215 0.41973 0.96999 0.0
C648 C 0.43817 0.35398 1.00125 0.0
C649 C 0.5133 0.3884 0.94529 0.0
H650 H 0.48562 0.29994 0.99846 0.0
H651 H 0.43456 0.28398 0.92933 0.0
H652 H 0.51722 0.37116 0.00292 0.0
H653 H 0.49164 0.35956 0.02352 0.0
H654 H 0.51006 0.3429 0.02172 0.0
H655 H 0.42987 0.3184 0.91103 0.0
H656 H 0.42823 0.33956 0.93754 0.0
H657 H 0.45555 0.35273 0.91936 0.0
H658 H 0.45467 0.40714 0.00916 0.0
H659 H 0.51823 0.43636 0.9623 0.0
H660 H 0.44516 0.34409 0.01484 0.0
H661 H 0.42509 0.33835 0.98524 0.0
H662 H 0.42721 0.36124 0.01241 0.0
H663 H 0.52409 0.38076 0.95668 0.0
H664 H 0.52712 0.40712 0.93691 0.0
H665 H 0.50147 0.37277 0.92873 0.0
C666 C 0.17219 0.69867 0.04494 0.0
C667 C 0.17202 0.7166 0.0646 0.0
C668 C 0.15167 0.67216 0.03983 0.0
C669 C 0.1305 0.66344 0.05484 0.0
C670 C 0.13052 0.68147 0.07516 0.0
C671 C 0.15138 0.70803 0.07977 0.0
C672 C 0.15245 0.65365 0.01801 0.0
C673 C 0.10837 0.67283 0.09167 0.0
C674 C 0.0688 0.6042 0.0212 0.0
C675 C 0.06864 0.58227 0.03222 0.0
C676 C 0.08841 0.63082 0.02902 0.0
C677 C 0.10819 0.63566 0.04853 0.0
C678 C 0.10764 0.61367 0.0604 0.0
C679 C 0.08797 0.58725 0.05199 0.0
C680 C 0.08835 0.65371 0.01584 0.0
C681 C 0.12815 0.61796 0.08152 0.0
H682 H 0.18827 0.70556 0.03322 0.0
H683 H 0.15141 0.72213 0.09493 0.0
H684 H 0.15017 0.63506 0.026 0.0
H685 H 0.13637 0.64735 0.00255 0.0
H686 H 0.17054 0.66341 0.00855 0.0
H687 H 0.11192 0.68875 0.10758 0.0
H688 H 0.09096 0.66797 0.07883 0.0
H689 H 0.10445 0.65421 0.10083 0.0
H690 H 0.05386 0.60055 0.00604 0.0
H691 H 0.08772 0.57047 0.06102 0.0
H692 H 0.10509 0.66347 0.00432 0.0
H693 H 0.08999 0.66935 0.03098 0.0
H694 H 0.07081 0.64676 0.00225 0.0
H695 H 0.14651 0.62545 0.07277 0.0
H696 H 0.1236 0.59908 0.09058 0.0
H697 H 0.13088 0.63353 0.09738 0.0
C698 C 0.33722 0.49963 0.1192 0.0
C699 C 0.31188 0.48055 0.11059 0.0
C700 C 0.35725 0.49815 0.10835 0.0
C701 C 0.35162 0.47709 0.08843 0.0
C702 C 0.32591 0.45694 0.0808 0.0
C703 C 0.30627 0.459 0.09194 0.0
C704 C 0.38435 0.51983 0.11727 0.0
C705 C 0.31911 0.43405 0.05984 0.0
C706 C 0.39886 0.49324 0.03707 0.0
C707 C 0.41232 0.48076 0.04573 0.0
C708 C 0.37895 0.49196 0.05071 0.0
C709 C 0.37235 0.47784 0.0736 0.0
C710 C 0.3857 0.46487 0.08223 0.0
C711 C 0.40554 0.46646 0.06813 0.0
C712 C 0.36526 0.50615 0.04087 0.0
C713 C 0.37934 0.44972 0.10655 0.0
H714 H 0.34136 0.51634 0.1336 0.0
H715 H 0.28653 0.44437 0.08528 0.0
H716 H 0.39529 0.51049 0.12485 0.0
H717 H 0.39368 0.53078 0.10022 0.0
H718 H 0.38551 0.53469 0.13309 0.0
H719 H 0.29854 0.41853 0.05824 0.0
H720 H 0.32379 0.44213 0.04035 0.0
H721 H 0.33046 0.42422 0.06423 0.0
H722 H 0.40415 0.5044 0.0198 0.0
H723 H 0.41597 0.45679 0.07484 0.0
H724 H 0.36758 0.52183 0.0564 0.0
H725 H 0.34455 0.49151 0.03672 0.0
H726 H 0.37249 0.51595 0.02259 0.0
H727 H 0.38388 0.46405 0.12434 0.0
H728 H 0.39014 0.43899 0.10941 0.0
H729 H 0.35865 0.43479 0.1052 0.0
C730 C 0.54558 0.84456 0.04006 0.0
C731 C 0.56379 0.84925 0.06085 0.0
C732 C 0.53841 0.86384 0.03551 0.0
C733 C 0.54978 0.88836 0.05223 0.0
C734 C 0.56784 0.89286 0.07371 0.0
C735 C 0.57473 0.87318 0.07773 0.0
C736 C 0.51913 0.85823 0.0124 0.0
C737 C 0.58026 0.91867 0.09204 0.0
C738 C 0.55022 0.94779 0.0223 0.0
C739 C 0.52915 0.94756 0.03241 0.0
C740 C 0.55745 0.92899 0.02904 0.0
C741 C 0.54338 0.90958 0.04646 0.0
C742 C 0.52242 0.90959 0.05718 0.0
C743 C 0.5155 0.9285 0.04994 0.0
C744 C 0.57987 0.92959 0.01712 0.0
C745 C 0.50707 0.8894 0.07599 0.0
H746 H 0.53729 0.82597 0.027 0.0
H747 H 0.58891 0.87666 0.09375 0.0
H748 H 0.50299 0.85993 0.01935 0.0
H749 H 0.52803 0.87348 0.99813 0.0
H750 H 0.51149 0.83781 0.00182 0.0
H751 H 0.59285 0.91843 0.10862 0.0
H752 H 0.59179 0.93608 0.08077 0.0
H753 H 0.5655 0.92203 0.10039 0.0
H754 H 0.56093 0.96247 0.0088 0.0
H755 H 0.49939 0.92836 0.05817 0.0
H756 H 0.5734 0.91038 0.00463 0.0
H757 H 0.59406 0.93136 0.03301 0.0
H758 H 0.58943 0.94662 0.00475 0.0
H759 H 0.49746 0.86868 0.06567 0.0
H760 H 0.49236 0.89319 0.08388 0.0
H761 H 0.51981 0.89004 0.09288 0.0
C762 C 0.96062 0.20144 0.41894 0.0
C763 C 0.95823 0.17839 0.42953 0.0
C764 C 0.9838 0.22069 0.41037 0.0
C765 C 0.00509 0.21689 0.41291 0.0
C766 C 0.00297 0.19412 0.42455 0.0
C767 C 0.97948 0.17502 0.43254 0.0
C768 C 0.98529 0.24457 0.39778 0.0
C769 C 0.02536 0.18966 0.42811 0.0
C770 C 0.05641 0.24743 0.36603 0.0
C771 C 0.07547 0.27032 0.38169 0.0
C772 C 0.03316 0.23024 0.37579 0.0
C773 C 0.02916 0.23583 0.40202 0.0
C774 C 0.04836 0.25902 0.41788 0.0
C775 C 0.07119 0.27624 0.40734 0.0
C776 C 0.01297 0.20594 0.35812 0.0
C777 C 0.04507 0.26529 0.44615 0.0
H778 H 0.9441 0.20393 0.41655 0.0
H779 H 0.97765 0.15731 0.44107 0.0
H780 H 0.00121 0.2637 0.40804 0.0
H781 H 0.98928 0.24364 0.37684 0.0
H782 H 0.96736 0.24519 0.39831 0.0
H783 H 0.02078 0.17144 0.43842 0.0
H784 H 0.0316 0.18734 0.40853 0.0
H785 H 0.04167 0.20748 0.43968 0.0
H786 H 0.05967 0.24296 0.3461 0.0
H787 H 0.08591 0.29406 0.41936 0.0
H788 H 0.99483 0.20621 0.35669 0.0
H789 H 0.00921 0.18713 0.36678 0.0
H790 H 0.01862 0.20519 0.33782 0.0
H791 H 0.06116 0.28496 0.45528 0.0
H792 H 0.04373 0.24916 0.45816 0.0
H793 H 0.02708 0.26567 0.44709 0.0
C794 C 0.80662 0.75062 0.41491 0.0
C795 C 0.8237 0.76344 0.43765 0.0
C796 C 0.78782 0.7571 0.40801 0.0
C797 C 0.78642 0.77726 0.424 0.0
C798 C 0.80317 0.78971 0.44746 0.0
C799 C 0.82154 0.78245 0.45415 0.0
C800 C 0.77 0.74298 0.38312 0.0
C801 C 0.80245 0.81154 0.46479 0.0
C802 C 0.75918 0.81348 0.38595 0.0
C803 C 0.73407 0.8008 0.39264 0.0
C804 C 0.77672 0.8068 0.39698 0.0
C805 C 0.76879 0.78667 0.41483 0.0
C806 C 0.74361 0.77433 0.42224 0.0
C807 C 0.72654 0.7817 0.41114 0.0
C808 C 0.80354 0.82079 0.38896 0.0
C809 C 0.73443 0.75269 0.44107 0.0
H810 H 0.80817 0.73568 0.40236 0.0
H811 H 0.83485 0.79237 0.47171 0.0
H812 H 0.74993 0.73478 0.38745 0.0
H813 H 0.77387 0.75767 0.36828 0.0
H814 H 0.77213 0.72617 0.3742 0.0
H815 H 0.81518 0.8175 0.48349 0.0
H816 H 0.80849 0.82966 0.45389 0.0
H817 H 0.78276 0.80474 0.46974 0.0
H818 H 0.7651 0.82851 0.37189 0.0
H819 H 0.70714 0.77207 0.41649 0.0
H820 H 0.80691 0.80599 0.37753 0.0
H821 H 0.81755 0.82911 0.40678 0.0
H822 H 0.80722 0.83749 0.3766 0.0
H823 H 0.73406 0.73452 0.43173 0.0
H824 H 0.71503 0.74677 0.44653 0.0
H825 H 0.7477 0.75969 0.45941 0.0
C826 C 0.23027 0.03572 0.42684 0.0
C827 C 0.21809 0.04883 0.41604 0.0
C828 C 0.22291 0.00907 0.41754 0.0
C829 C 0.20323 0.99535 0.39661 0.0
C830 C 0.19047 0.00817 0.38603 0.0
C831 C 0.19788 0.03462 0.39603 0.0
C832 C 0.23648 0.99574 0.42977 0.0
C833 C 0.16917 0.99405 0.36391 0.0
C834 C 0.20296 0.93882 0.35359 0.0
C835 C 0.18357 0.91577 0.36322 0.0
C836 C 0.20944 0.96482 0.36423 0.0
C837 C 0.19642 0.96784 0.38521 0.0
C838 C 0.17683 0.94464 0.39502 0.0
C839 C 0.17067 0.9189 0.38393 0.0
C840 C 0.23015 0.98908 0.35295 0.0
C841 C 0.16272 0.94683 0.41765 0.0
H842 H 0.24607 0.04652 0.44209 0.0
H843 H 0.1879 0.04426 0.38799 0.0
H844 H 0.22244 0.97626 0.43674 0.0
H845 H 0.24661 0.99114 0.41468 0.0
H846 H 0.25053 0.00864 0.44675 0.0
H847 H 0.16112 0.0068 0.3579 0.0
H848 H 0.17627 0.9885 0.34638 0.0
H849 H 0.15363 0.97504 0.37019 0.0
H850 H 0.21298 0.93655 0.33758 0.0
H851 H 0.15598 0.90119 0.39186 0.0
H852 H 0.24579 0.00181 0.36868 0.0
H853 H 0.22246 0.00168 0.34554 0.0
H854 H 0.23824 0.98329 0.33646 0.0
H855 H 0.17471 0.95109 0.43658 0.0
H856 H 0.14439 0.92781 0.41849 0.0
H857 H 0.15869 0.96356 0.4161 0.0
C858 C 0.52374 0.64864 0.24714 0.0
C859 C 0.50419 0.63061 0.26146 0.0
C860 C 0.54436 0.67279 0.2597 0.0
C861 C 0.54538 0.67922 0.28721 0.0
C862 C 0.5259 0.66103 0.30184 0.0
C863 C 0.50563 0.63692 0.28883 0.0
C864 C 0.5648 0.69166 0.24341 0.0
C865 C 0.52621 0.66727 0.33117 0.0
C866 C 0.60836 0.73276 0.32472 0.0
C867 C 0.60571 0.75571 0.32541 0.0
C868 C 0.58892 0.70771 0.31231 0.0
C869 C 0.56622 0.70554 0.30049 0.0
C870 C 0.56336 0.72856 0.30133 0.0
C871 C 0.58312 0.75333 0.31368 0.0
C872 C 0.59278 0.68367 0.31151 0.0
C873 C 0.53944 0.7271 0.28904 0.0
H874 H 0.52266 0.64418 0.22595 0.0
H875 H 0.49087 0.62295 0.30015 0.0
H876 H 0.56478 0.71097 0.24333 0.0
H877 H 0.58386 0.6965 0.25233 0.0
H878 H 0.56205 0.68293 0.22259 0.0
H879 H 0.50994 0.65072 0.33981 0.0
H880 H 0.54422 0.67078 0.34176 0.0
H881 H 0.52544 0.68609 0.33479 0.0
H882 H 0.6258 0.73441 0.3335 0.0
H883 H 0.58082 0.77089 0.31403 0.0
H884 H 0.59158 0.67596 0.29064 0.0
H885 H 0.57745 0.66706 0.32102 0.0
H886 H 0.61149 0.68867 0.32167 0.0
H887 H 0.53689 0.72112 0.26745 0.0
H888 H 0.53992 0.74668 0.29206 0.0
H889 H 0.52254 0.71145 0.29764 0.0
C890 C 0.37843 0.91974 0.27805 0.0
C891 C 0.38193 0.90805 0.25493 0.0
C892 C 0.35398 0.91324 0.28414 0.0
C893 C 0.33251 0.89421 0.26687 0.0
C894 C 0.336 0.88326 0.24283 0.0
C895 C 0.3608 0.89048 0.23705 0.0
C896 C 0.3511 0.92576 0.30971 0.0
C897 C 0.31355 0.86275 0.22404 0.0
C898 C 0.27385 0.85529 0.30279 0.0
C899 C 0.26045 0.86873 0.29749 0.0
C900 C 0.29674 0.86255 0.29179 0.0
C901 C 0.30659 0.88403 0.27544 0.0
C902 C 0.29266 0.89708 0.26934 0.0
C903 C 0.26962 0.88916 0.28039 0.0
C904 C 0.3108 0.84781 0.29838 0.0
C905 C 0.30255 0.92005 0.25203 0.0
H906 H 0.39487 0.93351 0.29171 0.0
H907 H 0.3636 0.88138 0.21922 0.0
H908 H 0.33841 0.93418 0.30597 0.0
H909 H 0.34213 0.91002 0.32352 0.0
H910 H 0.36969 0.94212 0.31957 0.0
H911 H 0.31946 0.85904 0.2047 0.0
H912 H 0.30373 0.84334 0.23301 0.0
H913 H 0.29949 0.86945 0.2205 0.0
H914 H 0.26655 0.83924 0.31576 0.0
H915 H 0.25909 0.89939 0.27613 0.0
H916 H 0.32901 0.8618 0.31054 0.0
H917 H 0.31556 0.84069 0.27999 0.0
H918 H 0.29953 0.83015 0.30952 0.0
H919 H 0.31994 0.93775 0.2624 0.0
H920 H 0.28829 0.92623 0.24707 0.0
H921 H 0.30801 0.9143 0.23336 0.0
C922 C 0.14311 0.49857 0.29458 0.0
C923 C 0.12306 0.49072 0.27463 0.0
C924 C 0.1492 0.47986 0.30415 0.0
C925 C 0.13561 0.4527 0.29285 0.0
C926 C 0.11623 0.44482 0.27181 0.0
C927 C 0.10995 0.46383 0.26317 0.0
C928 C 0.16987 0.48906 0.32677 0.0
C929 C 0.10186 0.4162 0.25874 0.0
C930 C 0.16764 0.41139 0.30463 0.0
C931 C 0.15441 0.39611 0.3249 0.0
C932 C 0.16136 0.42944 0.29364 0.0
C933 C 0.1416 0.43261 0.30338 0.0
C934 C 0.12823 0.41736 0.32391 0.0
C935 C 0.13463 0.39908 0.33425 0.0
C936 C 0.17578 0.44501 0.2715 0.0
C937 C 0.10747 0.4207 0.33526 0.0
H938 H 0.15396 0.51942 0.30306 0.0
H939 H 0.09433 0.45737 0.24791 0.0
H940 H 0.16194 0.47713 0.34373 0.0
H941 H 0.18524 0.48549 0.32067 0.0
H942 H 0.1784 0.51084 0.33361 0.0
H943 H 0.08842 0.41369 0.2416 0.0
H944 H 0.11543 0.41016 0.2518 0.0
H945 H 0.09092 0.40216 0.27329 0.0
H946 H 0.18272 0.40896 0.29699 0.0
H947 H 0.12436 0.38738 0.34991 0.0
H948 H 0.18456 0.46704 0.27696 0.0
H949 H 0.1624 0.43979 0.25348 0.0
H950 H 0.19104 0.44073 0.2666 0.0
H951 H 0.11531 0.44199 0.34349 0.0
H952 H 0.09891 0.40736 0.35118 0.0
H953 H 0.09217 0.41612 0.31941 0.0
C954 C 0.34675 0.50642 0.24785 0.0
C955 C 0.37177 0.51398 0.25683 0.0
C956 C 0.32602 0.48421 0.2572 0.0
C957 C 0.33062 0.46945 0.27603 0.0
C958 C 0.35601 0.47629 0.28401 0.0
C959 C 0.37635 0.49863 0.27435 0.0
C960 C 0.29928 0.4774 0.24796 0.0
C961 C 0.36173 0.46097 0.30385 0.0
C962 C 0.2816 0.43774 0.32528 0.0
C963 C 0.268 0.4106 0.31491 0.0
C964 C 0.30209 0.45699 0.31285 0.0
C965 C 0.30915 0.44888 0.28946 0.0
C966 C 0.29563 0.42137 0.27909 0.0
C967 C 0.27522 0.40253 0.292 0.0
C968 C 0.31594 0.48611 0.32456 0.0
C969 C 0.30245 0.41191 0.25417 0.0
H970 H 0.34338 0.51855 0.23437 0.0
H971 H 0.39583 0.50477 0.28137 0.0
H972 H 0.28788 0.45595 0.23966 0.0
H973 H 0.28984 0.48001 0.26501 0.0
H974 H 0.29891 0.49028 0.23263 0.0
H975 H 0.3822 0.46693 0.30582 0.0
H976 H 0.35656 0.4649 0.32352 0.0
H977 H 0.35013 0.4389 0.29801 0.0
H978 H 0.27598 0.44405 0.34294 0.0
H979 H 0.26471 0.38152 0.28397 0.0
H980 H 0.31439 0.49901 0.30997 0.0
H981 H 0.3365 0.49326 0.32914 0.0
H982 H 0.30825 0.48905 0.34297 0.0
H983 H 0.29882 0.4212 0.23714 0.0
H984 H 0.29124 0.38959 0.24973 0.0
H985 H 0.32303 0.41848 0.25596 0.0
C986 C 0.52171 0.9172 0.3073 0.0
C987 C 0.50147 0.90027 0.28837 0.0
C988 C 0.54191 0.91242 0.3127 0.0
C989 C 0.54159 0.89009 0.29885 0.0
C990 C 0.52168 0.87378 0.2787 0.0
C991 C 0.50171 0.87905 0.27375 0.0
C992 C 0.56279 0.93028 0.33428 0.0
C993 C 0.52072 0.84989 0.26344 0.0
C994 C 0.60176 0.88529 0.30505 0.0
C995 C 0.59658 0.86788 0.32499 0.0
C996 C 0.58393 0.89252 0.29603 0.0
C997 C 0.56052 0.88216 0.30739 0.0
C998 C 0.55522 0.86445 0.32745 0.0
C999 C 0.57332 0.85749 0.33597 0.0
C1000 C 0.59017 0.91134 0.27454 0.0
C1001 C 0.53047 0.85296 0.34006 0.0
H1002 H 0.52122 0.9335 0.31865 0.0
H1003 H 0.4858 0.86594 0.25922 0.0
H1004 H 0.56139 0.9186 0.35138 0.0
H1005 H 0.58177 0.93717 0.32716 0.0
H1006 H 0.56161 0.94829 0.34127 0.0
H1007 H 0.50567 0.84119 0.24649 0.0
H1008 H 0.53936 0.85581 0.25586 0.0
H1009 H 0.51683 0.83392 0.27681 0.0
H1010 H 0.61977 0.8933 0.29653 0.0
H1011 H 0.56929 0.84397 0.35135 0.0
H1012 H 0.59069 0.93013 0.28219 0.0
H1013 H 0.57511 0.9018 0.25767 0.0
H1014 H 0.60881 0.91683 0.26712 0.0
H1015 H 0.52853 0.86962 0.34965 0.0
H1016 H 0.5292 0.83922 0.35518 0.0
H1017 H 0.51412 0.84161 0.32469 0.0
C1018 C 0.14278 0.64049 0.31537 0.0
C1019 C 0.12339 0.62133 0.29682 0.0
C1020 C 0.1486 0.66746 0.31751 0.0
C1021 C 0.1346 0.67529 0.30061 0.0
C1022 C 0.11554 0.65604 0.28113 0.0
C1023 C 0.11007 0.62909 0.27952 0.0
C1024 C 0.169 0.68731 0.33856 0.0
C1025 C 0.10035 0.66369 0.26268 0.0
C1026 C 0.12974 0.73481 0.32924 0.0
C1027 C 0.14893 0.75633 0.31757 0.0
C1028 C 0.12446 0.70826 0.3233 0.0
C1029 C 0.13855 0.70302 0.30504 0.0
C1030 C 0.15742 0.72452 0.29253 0.0
C1031 C 0.1625 0.75097 0.29907 0.0
C1032 C 0.10426 0.68591 0.33717 0.0
C1033 C 0.17257 0.71966 0.27268 0.0
H1034 H 0.15299 0.63421 0.32869 0.0
H1035 H 0.09506 0.61403 0.26518 0.0
H1036 H 0.18315 0.7054 0.32966 0.0
H1037 H 0.16029 0.69425 0.35342 0.0
H1038 H 0.17917 0.67838 0.34895 0.0
H1039 H 0.08813 0.64714 0.24695 0.0
H1040 H 0.08797 0.66862 0.27414 0.0
H1041 H 0.11327 0.68199 0.25322 0.0
H1042 H 0.11914 0.73874 0.34352 0.0
H1043 H 0.17711 0.76746 0.28966 0.0
H1044 H 0.11313 0.677 0.34971 0.0
H1045 H 0.08998 0.66952 0.32243 0.0
H1046 H 0.09422 0.69317 0.3499 0.0
H1047 H 0.18456 0.71257 0.28264 0.0
H1048 H 0.18514 0.73817 0.26323 0.0
H1049 H 0.15956 0.70355 0.25698 0.0
C1050 C 0.83832 0.02006 0.3915 0.0
C1051 C 0.84173 0.03815 0.41304 0.0
C1052 C 0.81504 0.99598 0.38522 0.0
C1053 C 0.79472 0.98997 0.40095 0.0
C1054 C 0.79805 0.00852 0.42261 0.0
C1055 C 0.82168 0.03253 0.42846 0.0
C1056 C 0.81235 0.97676 0.36203 0.0
C1057 C 0.77681 0.0028 0.43977 0.0
C1058 C 0.72977 0.93568 0.36838 0.0
C1059 C 0.72761 0.91246 0.37846 0.0
C1060 C 0.75103 0.96131 0.37641 0.0
C1061 C 0.77046 0.96374 0.39504 0.0
C1062 C 0.76778 0.94051 0.40617 0.0
C1063 C 0.74646 0.91518 0.39768 0.0
C1064 C 0.75317 0.98563 0.36417 0.0
C1065 C 0.78791 0.9422 0.42629 0.0
H1066 H 0.85403 0.02463 0.37968 0.0
H1067 H 0.82454 0.04674 0.44515 0.0
H1068 H 0.80841 0.9572 0.36903 0.0
H1069 H 0.79599 0.97259 0.34781 0.0
H1070 H 0.82976 0.98483 0.35138 0.0
H1071 H 0.78213 0.01973 0.4552 0.0
H1072 H 0.75952 0.99902 0.42738 0.0
H1073 H 0.77171 0.98425 0.44964 0.0
H1074 H 0.7152 0.93378 0.35366 0.0
H1075 H 0.74472 0.89742 0.406 0.0
H1076 H 0.76904 0.99341 0.35137 0.0
H1077 H 0.75766 0.0021 0.3798 0.0
H1078 H 0.7354 0.9808 0.35199 0.0
H1079 H 0.80558 0.94773 0.41672 0.0
H1080 H 0.78174 0.92279 0.43496 0.0
H1081 H 0.79272 0.9582 0.44256 0.0
C1082 C 0.94855 0.7468 0.39118 0.0
C1083 C 0.94498 0.764 0.40869 0.0
C1084 C 0.9731 0.75347 0.38508 0.0
C1085 C 0.99439 0.77798 0.39676 0.0
C1086 C 0.99083 0.79473 0.41555 0.0
C1087 C 0.96602 0.78755 0.42121 0.0
C1088 C 0.97608 0.73505 0.36501 0.0
C1089 C 0.01304 0.82091 0.42855 0.0
C1090 C 0.06035 0.78779 0.39025 0.0
C1091 C 0.06758 0.803 0.36848 0.0
C1092 C 0.03676 0.77985 0.40004 0.0
C1093 C 0.01998 0.78716 0.38756 0.0
C1094 C 0.02734 0.80274 0.36568 0.0
C1095 C 0.05111 0.81053 0.35644 0.0
C1096 C 0.02968 0.76342 0.42349 0.0
C1097 C 0.00997 0.81093 0.35182 0.0
H1098 H 0.93207 0.72873 0.38134 0.0
H1099 H 0.96302 0.80092 0.43456 0.0
H1100 H 0.98257 0.74531 0.3468 0.0
H1101 H 0.99081 0.73054 0.37284 0.0
H1102 H 0.95797 0.71569 0.35954 0.0
H1103 H 0.0074 0.83009 0.44472 0.0
H1104 H 0.02843 0.81759 0.43677 0.0
H1105 H 0.02104 0.83553 0.41355 0.0
H1106 H 0.07311 0.78196 0.39959 0.0
H1107 H 0.05671 0.82234 0.33963 0.0
H1108 H 0.01273 0.74323 0.41749 0.0
H1109 H 0.02449 0.77338 0.43932 0.0
H1110 H 0.04543 0.76065 0.43179 0.0
H1111 H 0.99187 0.79266 0.34363 0.0
H1112 H 0.01873 0.82345 0.33541 0.0
H1113 H 0.0051 0.82255 0.36617 0.0
C1114 C 0.23502 0.20256 0.41211 0.0
C1115 C 0.22296 0.17833 0.39562 0.0
C1116 C 0.22808 0.22231 0.40897 0.0
C1117 C 0.20886 0.21757 0.38873 0.0
C1118 C 0.19613 0.19259 0.37268 0.0
C1119 C 0.20337 0.17324 0.37636 0.0
C1120 C 0.24194 0.24859 0.42658 0.0
C1121 C 0.17559 0.18675 0.35088 0.0
C1122 C 0.17765 0.26076 0.38671 0.0
C1123 C 0.1911 0.27853 0.36812 0.0
C1124 C 0.18369 0.24129 0.39428 0.0
C1125 C 0.20343 0.23938 0.38273 0.0
C1126 C 0.21723 0.25747 0.36419 0.0
C1127 C 0.21099 0.2769 0.35722 0.0
C1128 C 0.16882 0.22265 0.41443 0.0
C1129 C 0.2383 0.25596 0.35127 0.0
H1130 H 0.25023 0.2063 0.42698 0.0
H1131 H 0.19417 0.15438 0.36364 0.0
H1132 H 0.25387 0.26526 0.41469 0.0
H1133 H 0.22813 0.25345 0.43506 0.0
H1134 H 0.25443 0.24801 0.44304 0.0
H1135 H 0.16649 0.16573 0.34129 0.0
H1136 H 0.16064 0.19001 0.35884 0.0
H1137 H 0.18391 0.20088 0.33553 0.0
H1138 H 0.16252 0.26219 0.39556 0.0
H1139 H 0.22148 0.29057 0.34287 0.0
H1140 H 0.18201 0.22441 0.43144 0.0
H1141 H 0.15893 0.20137 0.40551 0.0
H1142 H 0.15442 0.22716 0.42196 0.0
H1143 H 0.25293 0.25777 0.3666 0.0
H1144 H 0.24771 0.27206 0.33787 0.0
H1145 H 0.23045 0.23604 0.33961 0.0
C1146 C 0.62886 0.53494 0.76134 0.0
C1147 C 0.62569 0.51114 0.77083 0.0
C1148 C 0.65234 0.55406 0.75312 0.0
C1149 C 0.67312 0.54935 0.75491 0.0
C1150 C 0.67034 0.52608 0.76608 0.0
C1151 C 0.64654 0.50708 0.7736 0.0
C1152 C 0.65444 0.57844 0.74106 0.0
C1153 C 0.69215 0.52061 0.76892 0.0
C1154 C 0.72229 0.57715 0.70527 0.0
C1155 C 0.74243 0.59996 0.72002 0.0
C1156 C 0.69946 0.56088 0.71627 0.0
C1157 C 0.69693 0.56729 0.74287 0.0
C1158 C 0.71727 0.59035 0.75785 0.0
C1159 C 0.73966 0.60666 0.74608 0.0
C1160 C 0.67808 0.53674 0.69946 0.0
C1161 C 0.7156 0.59746 0.78643 0.0
H1162 H 0.61261 0.53787 0.75901 0.0
H1163 H 0.64398 0.48862 0.781 0.0
H1164 H 0.67146 0.59717 0.75046 0.0
H1165 H 0.65688 0.57685 0.71968 0.0
H1166 H 0.63731 0.58033 0.74312 0.0
H1167 H 0.68774 0.50331 0.78065 0.0
H1168 H 0.6965 0.51603 0.74903 0.0
H1169 H 0.70958 0.53874 0.77861 0.0
H1170 H 0.72434 0.57206 0.68504 0.0
H1171 H 0.75518 0.62442 0.75742 0.0
H1172 H 0.66041 0.53792 0.69896 0.0
H1173 H 0.67402 0.5179 0.70825 0.0
H1174 H 0.68266 0.53526 0.67881 0.0
H1175 H 0.73271 0.61659 0.79505 0.0
H1176 H 0.71352 0.58098 0.79834 0.0
H1177 H 0.6985 0.59942 0.78825 0.0
C1178 C 0.4716 0.07441 0.73069 0.0
C1179 C 0.48928 0.0853 0.75321 0.0
C1180 C 0.45481 0.0839 0.72482 0.0
C1181 C 0.45596 0.10508 0.74167 0.0
C1182 C 0.4738 0.11619 0.76447 0.0
C1183 C 0.49013 0.10601 0.77008 0.0
C1184 C 0.43583 0.07123 0.70054 0.0
C1185 C 0.47585 0.13907 0.78268 0.0
C1186 C 0.42893 0.14454 0.70907 0.0
C1187 C 0.40461 0.13292 0.71788 0.0
C1188 C 0.44622 0.13642 0.71753 0.0
C1189 C 0.43884 0.11592 0.73492 0.0
C1190 C 0.41452 0.10467 0.74447 0.0
C1191 C 0.39772 0.11346 0.73595 0.0
C1192 C 0.47213 0.14926 0.70727 0.0
C1193 C 0.40588 0.08266 0.7629 0.0
H1194 H 0.47068 0.05814 0.71783 0.0
H1195 H 0.50388 0.11452 0.78744 0.0
H1196 H 0.4162 0.06347 0.70622 0.0
H1197 H 0.43938 0.08667 0.68662 0.0
H1198 H 0.43682 0.05433 0.68999 0.0
H1199 H 0.49039 0.14513 0.79983 0.0
H1200 H 0.48096 0.15689 0.77155 0.0
H1201 H 0.4572 0.13314 0.79021 0.0
H1202 H 0.43436 0.15979 0.69528 0.0
H1203 H 0.37895 0.10458 0.7429 0.0
H1204 H 0.47376 0.13397 0.69449 0.0
H1205 H 0.4873 0.15674 0.72399 0.0
H1206 H 0.47566 0.16637 0.69558 0.0
H1207 H 0.4045 0.06433 0.7526 0.0
H1208 H 0.38705 0.07721 0.76977 0.0
H1209 H 0.42003 0.08909 0.78045 0.0
C1210 C 0.87612 0.36841 0.71742 0.0
C1211 C 0.8955 0.38171 0.73842 0.0
C1212 C 0.86862 0.34212 0.70672 0.0
C1213 C 0.88015 0.32827 0.71774 0.0
C1214 C 0.89945 0.34129 0.73915 0.0
C1215 C 0.90711 0.36792 0.74898 0.0
C1216 C 0.84818 0.32909 0.68368 0.0
C1217 C 0.91182 0.32698 0.75186 0.0
C1218 C 0.84147 0.25161 0.70807 0.0
C1219 C 0.85367 0.24547 0.68851 0.0
C1220 C 0.85018 0.27839 0.71802 0.0
C1221 C 0.87118 0.29972 0.70762 0.0
C1222 C 0.88333 0.29371 0.68751 0.0
C1223 C 0.87467 0.26659 0.67848 0.0
C1224 C 0.83712 0.28379 0.73999 0.0
C1225 C 0.90538 0.31593 0.67547 0.0
H1226 H 0.86653 0.37845 0.70937 0.0
H1227 H 0.92241 0.37798 0.76483 0.0
H1228 H 0.85503 0.32167 0.66721 0.0
H1229 H 0.83111 0.31134 0.68977 0.0
H1230 H 0.84239 0.34324 0.67617 0.0
H1231 H 0.92632 0.33979 0.76856 0.0
H1232 H 0.89711 0.30823 0.7594 0.0
H1233 H 0.92112 0.32092 0.73697 0.0
H1234 H 0.82547 0.23538 0.71625 0.0
H1235 H 0.88416 0.26191 0.66339 0.0
H1236 H 0.82896 0.2962 0.73333 0.0
H1237 H 0.85119 0.29546 0.75732 0.0
H1238 H 0.82158 0.26488 0.74649 0.0
H1239 H 0.89956 0.32971 0.66711 0.0
H1240 H 0.91231 0.30793 0.65954 0.0
H1241 H 0.92141 0.32816 0.69097 0.0
C1242 C 0.20405 0.96547 0.59397 0.0
C1243 C 0.17996 0.9527 0.60356 0.0
C1244 C 0.22265 0.99202 0.60364 0.0
C1245 C 0.2173 0.00598 0.6238 0.0
C1246 C 0.19298 0.99343 0.63331 0.0
C1247 C 0.17455 0.96711 0.62289 0.0
C1248 C 0.24816 0.00504 0.59251 0.0
C1249 C 0.18647 0.00778 0.65462 0.0
C1250 C 0.2735 0.0628 0.66762 0.0
C1251 C 0.2754 0.08576 0.65722 0.0
C1252 C 0.25454 0.03673 0.65705 0.0
C1253 C 0.23728 0.03355 0.63533 0.0
C1254 C 0.23909 0.05669 0.62476 0.0
C1255 C 0.25813 0.0825 0.63584 0.0
C1256 C 0.2529 0.01257 0.66919 0.0
C1257 C 0.22147 0.05436 0.60131 0.0
H1258 H 0.20866 0.95454 0.57931 0.0
H1259 H 0.15585 0.95779 0.63001 0.0
H1260 H 0.25222 0.02445 0.58503 0.0
H1261 H 0.26348 0.00969 0.60837 0.0
H1262 H 0.24897 0.99191 0.57612 0.0
H1263 H 0.16678 0.99512 0.66008 0.0
H1264 H 0.20001 0.01352 0.67262 0.0
H1265 H 0.18845 0.0267 0.6478 0.0
H1266 H 0.28675 0.06518 0.68417 0.0
H1267 H 0.25975 0.10013 0.62734 0.0
H1268 H 0.25553 0.99963 0.65413 0.0
H1269 H 0.23372 1.00015 0.67593 0.0
H1270 H 0.26745 0.01848 0.68631 0.0
H1271 H 0.22821 0.04988 0.5829 0.0
H1272 H 0.22111 0.0734 0.59981 0.0
H1273 H 0.2017 0.03772 0.60239 0.0
C1274 C 0.02474 0.21606 0.57391 0.0
C1275 C 0.04702 0.23655 0.58845 0.0
C1276 C 1.00062 0.20838 0.58246 0.0
C1277 C 0.99886 0.22181 0.60588 0.0
C1278 C 0.02133 0.24352 0.61973 0.0
C1279 C 0.04512 0.25041 0.61101 0.0
C1280 C 0.97717 0.18503 0.56723 0.0
C1281 C 0.02035 0.25883 0.64437 0.0
C1282 C 0.93491 0.21391 0.62091 0.0
C1283 C 0.92785 0.19573 0.64033 0.0
C1284 C 0.95787 0.22248 0.60936 0.0
C1285 C 0.97385 0.21214 0.61699 0.0
C1286 C 0.96645 0.19329 0.63619 0.0
C1287 C 0.94368 0.18556 0.64785 0.0
C1288 C 0.96531 0.2431 0.5895 0.0
C1289 C 0.98266 0.18137 0.64455 0.0
H1290 H 0.02626 0.20519 0.55661 0.0
H1291 H 0.0624 0.26627 0.62223 0.0
H1292 H 0.96862 0.1679 0.57961 0.0
H1293 H 0.96261 0.19082 0.56253 0.0
H1294 H 0.98152 0.17799 0.54847 0.0
H1295 H 0.03919 0.27681 0.65129 0.0
H1296 H 0.00632 0.26554 0.64066 0.0
H1297 H 0.014 0.24537 0.66051 0.0
H1298 H 0.92266 0.22179 0.61502 0.0
H1299 H 0.93814 0.17131 0.66267 0.0
H1300 H 0.96962 0.23565 0.571 0.0
H1301 H 0.98291 0.26198 0.59762 0.0
H1302 H 0.95014 0.24799 0.58455 0.0
H1303 H 0.98636 0.17201 0.62691 0.0
H1304 H 0.97355 0.16585 0.65857 0.0
H1305 H 0.00139 0.19758 0.65419 0.0
C1306 C 0.80359 0.82388 0.63017 0.0
C1307 C 0.78246 0.81554 0.61153 0.0
C1308 C 0.81088 0.80561 0.63845 0.0
C1309 C 0.79708 0.77834 0.62746 0.0
C1310 C 0.77649 0.77 0.60771 0.0
C1311 C 0.7693 0.78864 0.60011 0.0
C1312 C 0.833 0.81538 0.65948 0.0
C1313 C 0.76165 0.7412 0.59515 0.0
C1314 C 0.82975 0.73713 0.63646 0.0
C1315 C 0.8182 0.72278 0.6579 0.0
C1316 C 0.82268 0.75483 0.62597 0.0
C1317 C 0.8038 0.75851 0.63734 0.0
C1318 C 0.79204 0.74404 0.65894 0.0
C1319 C 0.79924 0.72619 0.66881 0.0
C1320 C 0.83529 0.76948 0.60262 0.0
C1321 C 0.77211 0.74774 0.67187 0.0
H1322 H 0.8143 0.84475 0.63863 0.0
H1323 H 0.75287 0.7819 0.58584 0.0
H1324 H 0.82638 0.80411 0.67712 0.0
H1325 H 0.84771 0.81137 0.65205 0.0
H1326 H 0.84199 0.83732 0.66576 0.0
H1327 H 0.74745 0.73841 0.57871 0.0
H1328 H 0.77479 0.73494 0.58737 0.0
H1329 H 0.75148 0.7275 0.61027 0.0
H1330 H 0.8441 0.73425 0.62757 0.0
H1331 H 0.79022 0.71516 0.68534 0.0
H1332 H 0.84336 0.79155 0.607 0.0
H1333 H 0.82089 0.7627 0.58524 0.0
H1334 H 0.85079 0.76582 0.59718 0.0
H1335 H 0.78038 0.76915 0.67988 0.0
H1336 H 0.76457 0.73475 0.68827 0.0
H1337 H 0.75599 0.74292 0.657 0.0
C1338 C 0.0424 0.82387 0.60538 0.0
C1339 C 0.06179 0.82036 0.61704 0.0
C1340 C 0.01675 0.8059 0.60883 0.0
C1341 C 0.01062 0.78423 0.62455 0.0
C1342 C 0.03023 0.77998 0.63524 0.0
C1343 C 0.05566 0.7982 0.63137 0.0
C1344 C 0.99642 0.811 0.59694 0.0
C1345 C 0.02454 0.75716 0.6521 0.0
C1346 C 0.95296 0.75958 0.66356 0.0
C1347 C 0.93562 0.73491 0.64912 0.0
C1348 C 0.97723 0.77605 0.65542 0.0
C1349 C 0.98424 0.7677 0.63215 0.0
C1350 C 0.96648 0.74312 0.61706 0.0
C1351 C 0.94238 0.72692 0.62583 0.0
C1352 C 0.99559 0.8021 0.6721 0.0
C1353 C 0.97312 0.73366 0.59202 0.0
H1354 H 0.04737 0.84128 0.59449 0.0
H1355 H 0.07085 0.79579 0.64056 0.0
H1356 H 0.98024 0.79205 0.5867 0.0
H1357 H 0.98884 0.81809 0.61294 0.0
H1358 H 0.00384 0.82649 0.58264 0.0
H1359 H 0.04155 0.75519 0.65693 0.0
H1360 H 0.01779 0.76075 0.6709 0.0
H1361 H 0.0091 0.73773 0.64184 0.0
H1362 H 0.94773 0.76581 0.68155 0.0
H1363 H 0.92894 0.70784 0.61462 0.0
H1364 H 0.00228 0.81934 0.65984 0.0
H1365 H 0.0126 0.80129 0.67982 0.0
H1366 H 0.98689 0.80611 0.68913 0.0
H1367 H 0.9804 0.74983 0.57846 0.0
H1368 H 0.9565 0.71524 0.58144 0.0
H1369 H 0.98853 0.72913 0.59689 0.0
C1370 C 0.1904 0.24904 0.63225 0.0
C1371 C 0.16882 0.23108 0.61523 0.0
C1372 C 0.21014 0.24351 0.63781 0.0
C1373 C 0.20803 0.21937 0.62611 0.0
C1374 C 0.1867 0.20183 0.60786 0.0
C1375 C 0.16723 0.20788 0.60271 0.0
C1376 C 0.23254 0.26275 0.65733 0.0
C1377 C 0.18378 0.17599 0.59486 0.0
C1378 C 0.26704 0.21212 0.63099 0.0
C1379 C 0.26306 0.19708 0.6528 0.0
C1380 C 0.24916 0.21925 0.62177 0.0
C1381 C 0.2269 0.2113 0.63486 0.0
C1382 C 0.22278 0.19596 0.65682 0.0
C1383 C 0.24088 0.18898 0.66547 0.0
C1384 C 0.25416 0.23542 0.5982 0.0
C1385 C 0.19934 0.18711 0.67137 0.0
H1386 H 0.19136 0.26685 0.64208 0.0
H1387 H 0.15029 0.19391 0.58974 0.0
H1388 H 0.23205 0.25288 0.67561 0.0
H1389 H 0.2507 0.26792 0.649 0.0
H1390 H 0.23246 0.28173 0.66281 0.0
H1391 H 0.16757 0.16609 0.57911 0.0
H1392 H 0.20148 0.18001 0.5861 0.0
H1393 H 0.1805 0.16169 0.60999 0.0
H1394 H 0.28418 0.21837 0.62114 0.0
H1395 H 0.23775 0.17732 0.68232 0.0
H1396 H 0.25596 0.25525 0.60418 0.0
H1397 H 0.23787 0.22477 0.58265 0.0
H1398 H 0.27181 0.23899 0.58954 0.0
H1399 H 0.19867 0.20506 0.67955 0.0
H1400 H 0.19885 0.17503 0.68788 0.0
H1401 H 0.18193 0.1748 0.65746 0.0
C1402 C 0.77097 0.95282 0.62244 0.0
C1403 C 0.77306 0.94007 0.64428 0.0
C1404 C 0.77673 0.97987 0.62563 0.0
C1405 C 0.78481 0.99426 0.65122 0.0
C1406 C 0.78651 0.98108 0.67332 0.0
C1407 C 0.78059 0.95409 0.66954 0.0
C1408 C 0.77463 0.99321 0.60163 0.0
C1409 C 0.79515 0.99567 0.70088 0.0
C1410 C 0.82577 0.0708 0.65801 0.0
C1411 C 0.80816 0.07882 0.66419 0.0
C1412 C 0.81832 0.04339 0.65339 0.0
C1413 C 0.7926 0.0234 0.6549 0.0
C1414 C 0.77468 0.0313 0.66099 0.0
C1415 C 0.78268 0.0589 0.66562 0.0
C1416 C 0.83806 0.03582 0.64711 0.0
C1417 C 0.74708 0.01057 0.66274 0.0
H1418 H 0.76517 0.94177 0.60292 0.0
H1419 H 0.78221 0.94402 0.68634 0.0
H1420 H 0.7621 0.00181 0.60481 0.0
H1421 H 0.79368 0.0102 0.59853 0.0
H1422 H 0.76691 0.9789 0.58337 0.0
H1423 H 0.7946 0.98224 0.71604 0.0
H1424 H 0.81493 0.01289 0.70154 0.0
H1425 H 0.78291 0.00411 0.70619 0.0
H1426 H 0.84549 0.08595 0.65679 0.0
H1427 H 0.76888 0.06483 0.67025 0.0
H1428 H 0.8321 0.0231 0.62791 0.0
H1429 H 0.83972 0.02368 0.6625 0.0
H1430 H 0.85714 0.0538 0.64606 0.0
H1431 H 0.73894 0.99718 0.64393 0.0
H1432 H 0.73537 0.02 0.66683 0.0
H1433 H 0.74563 0.9976 0.67869 0.0
C1434 C 0.48733 0.36665 0.75342 0.0
C1435 C 0.50723 0.3723 0.73775 0.0
C1436 C 0.46406 0.34212 0.74842 0.0
C1437 C 0.46093 0.3231 0.72733 0.0
C1438 C 0.48112 0.32907 0.71143 0.0
C1439 C 0.50406 0.35366 0.71687 0.0
C1440 C 0.44295 0.33644 0.76575 0.0
C1441 C 0.47862 0.30934 0.68884 0.0
C1442 C 0.41373 0.24823 0.72593 0.0
C1443 C 0.39459 0.24469 0.70662 0.0
C1444 C 0.4348 0.27389 0.73386 0.0
C1445 C 0.43692 0.29658 0.72206 0.0
C1446 C 0.41717 0.29333 0.70336 0.0
C1447 C 0.39616 0.26739 0.69592 0.0
C1448 C 0.45527 0.27649 0.7541 0.0
C1449 C 0.41874 0.31707 0.69042 0.0
H1450 H 0.49002 0.38128 0.76958 0.0
H1451 H 0.51964 0.35828 0.70485 0.0
H1452 H 0.42552 0.33236 0.75343 0.0
H1453 H 0.43809 0.31807 0.77586 0.0
H1454 H 0.44826 0.35352 0.78098 0.0
H1455 H 0.49596 0.31732 0.67809 0.0
H1456 H 0.47506 0.29015 0.69649 0.0
H1457 H 0.46209 0.3045 0.67456 0.0
H1458 H 0.41243 0.23086 0.73471 0.0
H1459 H 0.38137 0.26483 0.68112 0.0
H1460 H 0.45993 0.29279 0.76998 0.0
H1461 H 0.47292 0.28208 0.74446 0.0
H1462 H 0.44952 0.25741 0.76329 0.0
H1463 H 0.42308 0.33383 0.70563 0.0
H1464 H 0.40078 0.31163 0.67824 0.0
H1465 H 0.43448 0.32473 0.67746 0.0
C1466 C 0.61003 0.05747 0.71728 0.0
C1467 C 0.60208 0.07495 0.72727 0.0
C1468 C 0.63567 0.06726 0.71301 0.0
C1469 C 0.65358 0.0952 0.71876 0.0
C1470 C 0.64565 0.11268 0.72991 0.0
C1471 C 0.61988 0.1023 0.73398 0.0
C1472 C 0.64334 0.04795 0.70119 0.0
C1473 C 0.66411 0.14254 0.73637 0.0
C1474 C 0.72435 0.11858 0.72125 0.0
C1475 C 0.72981 0.12691 0.69587 0.0
C1476 C 0.69967 0.10838 0.72912 0.0
C1477 C 0.68003 0.10644 0.71112 0.0
C1478 C 0.68557 0.11504 0.68552 0.0
C1479 C 0.71041 0.12519 0.67822 0.0
C1480 C 0.69457 0.09954 0.7566 0.0
C1481 C 0.66521 0.11336 0.66574 0.0
H1482 H 0.59604 0.03633 0.71192 0.0
H1483 H 0.61349 0.11576 0.7415 0.0
H1484 H 0.64889 0.05296 0.68096 0.0
H1485 H 0.66015 0.05 0.71315 0.0
H1486 H 0.62767 0.02658 0.69993 0.0
H1487 H 0.65547 0.1529 0.74709 0.0
H1488 H 0.6813 0.1459 0.74864 0.0
H1489 H 0.67049 0.15206 0.71779 0.0
H1490 H 0.73937 0.11996 0.73496 0.0
H1491 H 0.7146 0.13165 0.65859 0.0
H1492 H 0.68016 0.07771 0.75529 0.0
H1493 H 0.68657 0.1106 0.76725 0.0
H1494 H 0.71206 0.10307 0.76846 0.0
H1495 H 0.64955 0.09207 0.66157 0.0
H1496 H 0.67269 0.12111 0.64676 0.0
H1497 H 0.65688 0.12517 0.6741 0.0
C1498 C 0.87271 0.50294 0.70896 0.0
C1499 C 0.89376 0.50944 0.72679 0.0
C1500 C 0.86437 0.52149 0.70561 0.0
C1501 C 0.87748 0.54712 0.72052 0.0
C1502 C 0.89815 0.55326 0.73946 0.0
C1503 C 0.90618 0.5343 0.74228 0.0
C1504 C 0.84233 0.51413 0.68518 0.0
C1505 C 0.91248 0.58026 0.75586 0.0
C1506 C 0.87626 0.60438 0.68783 0.0
C1507 C 0.85713 0.6064 0.70009 0.0
C1508 C 0.88324 0.58544 0.6946 0.0
C1509 C 0.87102 0.56822 0.71437 0.0
C1510 C 0.852 0.57046 0.7272 0.0
C1511 C 0.84516 0.58941 0.71979 0.0
C1512 C 0.90347 0.58359 0.68027 0.0
C1513 C 0.83882 0.55279 0.74866 0.0
H1514 H 0.86327 0.48364 0.69695 0.0
H1515 H 0.92256 0.53922 0.75599 0.0
H1516 H 0.82785 0.5176 0.69405 0.0
H1517 H 0.84922 0.52727 0.66883 0.0
H1518 H 0.83302 0.49272 0.67667 0.0
H1519 H 0.92608 0.58072 0.77172 0.0
H1520 H 0.92331 0.59633 0.74291 0.0
H1521 H 0.899 0.58518 0.76506 0.0
H1522 H 0.88562 0.61742 0.6726 0.0
H1523 H 0.83063 0.59114 0.72966 0.0
H1524 H 0.8953 0.56317 0.66954 0.0
H1525 H 0.91924 0.58652 0.6947 0.0
H1526 H 0.91152 0.59883 0.66579 0.0
H1527 H 0.82856 0.53124 0.74057 0.0
H1528 H 0.82498 0.55759 0.75723 0.0
H1529 H 0.85313 0.55529 0.7648 0.0
C1530 C 0.46864 0.92914 0.18639 0.0
C1531 C 0.45654 0.94 0.20121 0.0
C1532 C 0.48045 0.94093 0.16395 0.0
C1533 C 0.48045 0.96432 0.15646 0.0
C1534 C 0.46856 0.97556 0.17159 0.0
C1535 C 0.45666 0.9632 0.19372 0.0
C1536 C 0.49222 0.9279 0.14776 0.0
C1537 C 0.46813 1.00046 0.16421 0.0
C1538 C 0.52781 0.00873 0.1102 0.0
C1539 C 0.51224 0.00139 0.08631 0.0
C1540 C 0.51779 0.99667 0.13324 0.0
C1541 C 0.49177 0.97639 0.13209 0.0
C1542 C 0.47623 0.96833 0.10775 0.0
C1543 C 0.48664 0.98123 0.08533 0.0
C1544 C 0.53488 0.00598 0.15891 0.0
C1545 C 0.44847 0.94652 0.1053 0.0
H1546 H 0.46835 0.91106 0.19202 0.0
H1547 H 0.44759 0.97182 0.20534 0.0
H1548 H 0.48214 0.92109 0.12749 0.0
H1549 H 0.51244 0.94278 0.14574 0.0
H1550 H 0.4913 0.91023 0.15666 0.0
H1551 H 0.45948 0.00762 0.17897 0.0
H1552 H 0.48779 0.01704 0.16241 0.0
H1553 H 0.45705 0.99602 0.14465 0.0
H1554 H 0.5477 0.02428 0.11098 0.0
H1555 H 0.47479 0.97511 0.06686 0.0
H1556 H 0.53504 0.98858 0.16716 0.0
H1557 H 0.52736 0.01448 0.17368 0.0
H1558 H 0.55478 0.02158 0.15638 0.0
H1559 H 0.44513 0.93012 0.1179 0.0
H1560 H 0.44145 0.93743 0.08453 0.0
H1561 H 0.43692 0.95546 0.11176 0.0
C1562 C 0.09749 0.52554 0.18463 0.0
C1563 C 0.08603 0.52661 0.20747 0.0
C1564 C 0.08567 0.52347 0.1593 0.0
C1565 C 0.06165 0.52195 0.15684 0.0
C1566 C 0.04996 0.52278 0.17989 0.0
C1567 C 0.06238 0.52531 0.20489 0.0
C1568 C 0.09901 0.52328 0.13523 0.0
C1569 C 0.02417 0.52072 0.17816 0.0
C1570 C 0.03611 0.53894 0.0953 0.0
C1571 C 0.01929 0.51319 0.08248 0.0
C1572 C 0.051 0.54219 0.11887 0.0
C1573 C 0.04834 0.51906 0.13027 0.0
C1574 C 0.03151 0.493 0.11715 0.0
C1575 C 0.01733 0.49042 0.09326 0.0
C1576 C 0.06934 0.57035 0.13172 0.0
C1577 C 0.02789 0.46782 0.12873 0.0
H1578 H 0.11587 0.52672 0.18663 0.0
H1579 H 0.05334 0.52579 0.22252 0.0
H1580 H 0.08605 0.50588 0.12071 0.0
H1581 H 0.10439 0.54188 0.12535 0.0
H1582 H 0.11648 0.52224 0.14034 0.0
H1583 H 0.01753 0.52127 0.19797 0.0
H1584 H 0.02494 0.53759 0.16784 0.0
H1585 H 0.00987 0.5016 0.16637 0.0
H1586 H 0.03791 0.55659 0.08668 0.0
H1587 H 0.00429 0.47051 0.08324 0.0
H1588 H 0.08852 0.57289 0.13618 0.0
H1589 H 0.06279 0.57359 0.15079 0.0
H1590 H 0.07103 0.58616 0.11898 0.0
H1591 H 0.04658 0.46945 0.13401 0.0
H1592 H 0.01606 0.44933 0.11487 0.0
H1593 H 0.01847 0.46552 0.14723 0.0
C1594 C 0.48663 0.54452 0.19397 0.0
C1595 C 0.46859 0.55281 0.19118 0.0
C1596 C 0.49358 0.53494 0.1718 0.0
C1597 C 0.48268 0.53429 0.1462 0.0
C1598 C 0.46378 0.54177 0.14335 0.0
C1599 C 0.45666 0.55056 0.16599 0.0
C1600 C 0.51347 0.52672 0.17568 0.0
C1601 C 0.45182 0.54154 0.11638 0.0
C1602 C 0.52436 0.54386 0.09047 0.0
C1603 C 0.51296 0.51765 0.07773 0.0
C1604 C 0.51433 0.54957 0.11243 0.0
C1605 C 0.49287 0.52834 0.12242 0.0
C1606 C 0.48147 0.50172 0.10979 0.0
C1607 C 0.49159 0.49672 0.0874 0.0
C1608 C 0.52654 0.5784 0.12473 0.0
C1609 C 0.45878 0.47859 0.12009 0.0
H1610 H 0.49575 0.54619 0.2135 0.0
H1611 H 0.44278 0.5571 0.16386 0.0
H1612 H 0.50694 0.50683 0.16449 0.0
H1613 H 0.53129 0.54168 0.16787 0.0
H1614 H 0.5179 0.52545 0.19688 0.0
H1615 H 0.44131 0.55273 0.11725 0.0
H1616 H 0.46646 0.55064 0.1023 0.0
H1617 H 0.43831 0.52037 0.10825 0.0
H1618 H 0.54074 0.56012 0.08277 0.0
H1619 H 0.48299 0.47641 0.07762 0.0
H1620 H 0.53519 0.58011 0.14508 0.0
H1621 H 0.51192 0.58445 0.12633 0.0
H1622 H 0.54158 0.59284 0.11311 0.0
H1623 H 0.46389 0.47635 0.14072 0.0
H1624 H 0.45192 0.45914 0.10782 0.0
H1625 H 0.44293 0.48287 0.12056 0.0
C1626 C 0.95908 0.4762 0.81673 0.0
C1627 C 0.93319 0.45652 0.81265 0.0
C1628 C 0.97223 0.48376 0.84218 0.0
C1629 C 0.95897 0.47184 0.86416 0.0
C1630 C 0.93247 0.45294 0.86025 0.0
C1631 C 0.91996 0.44515 0.83444 0.0
C1632 C 1.0006 0.50336 0.84531 0.0
C1633 C 0.91752 0.44029 0.88322 0.0
C1634 C 0.99592 0.46508 0.92316 0.0
C1635 C 0.00113 0.48742 0.94063 0.0
C1636 C 0.98244 0.45998 0.8982 0.0
C1637 C 0.9733 0.47726 0.89072 0.0
C1638 C 0.97845 0.49985 0.90832 0.0
C1639 C 0.99282 0.50498 0.93284 0.0
C1640 C 0.9781 0.43613 0.87979 0.0
C1641 C 0.96843 0.51832 0.90145 0.0
H1642 H 0.96934 0.48473 0.79979 0.0
H1643 H 0.89992 0.42993 0.83121 0.0
H1644 H 0.00544 0.52027 0.86052 0.0
H1645 H 0.01075 0.49291 0.8522 0.0
H1646 H 0.00782 0.51185 0.82648 0.0
H1647 H 0.89666 0.42856 0.87735 0.0
H1648 H 0.92346 0.42649 0.89128 0.0
H1649 H 0.92153 0.45609 0.89943 0.0
H1650 H 0.00244 0.45148 0.92899 0.0
H1651 H 0.99763 0.52273 0.94585 0.0
H1652 H 0.98545 0.44295 0.86053 0.0
H1653 H 0.95739 0.42149 0.87577 0.0
H1654 H 0.98754 0.42548 0.8881 0.0
H1655 H 0.97471 0.52645 0.88229 0.0
H1656 H 0.97484 0.53551 0.91689 0.0
H1657 H 0.94729 0.50667 0.89912 0.0
C1658 C 0.53426 0.45215 0.83503 0.0
C1659 C 0.54693 0.4734 0.81923 0.0
C1660 C 0.52243 0.4551 0.85688 0.0
C1661 C 0.52328 0.47992 0.86314 0.0
C1662 C 0.53523 0.5011 0.84676 0.0
C1663 C 0.54689 0.49759 0.82501 0.0
C1664 C 0.51027 0.43217 0.87412 0.0
C1665 C 0.53657 0.52787 0.85279 0.0
C1666 C 0.48049 0.48302 0.91359 0.0
C1667 C 0.49753 0.49397 0.93661 0.0
C1668 C 0.48856 0.47853 0.88936 0.0
C1669 C 0.51413 0.4847 0.88834 0.0
C1670 C 0.53119 0.4953 0.91168 0.0
C1671 C 0.52264 0.4999 0.93535 0.0
C1672 C 0.4698 0.46713 0.8649 0.0
C1673 C 0.55852 0.50182 0.91175 0.0
H1674 H 0.53446 0.43351 0.83096 0.0
H1675 H 0.55628 0.51396 0.81267 0.0
H1676 H 0.52157 0.43808 0.89374 0.0
H1677 H 0.49079 0.42778 0.87758 0.0
H1678 H 0.50911 0.41339 0.86525 0.0
H1679 H 0.54434 0.54132 0.83678 0.0
H1680 H 0.51737 0.52468 0.85574 0.0
H1681 H 0.54895 0.53831 0.87148 0.0
H1682 H 0.4609 0.47811 0.91452 0.0
H1683 H 0.53538 0.50715 0.95315 0.0
H1684 H 0.46768 0.44761 0.857 0.0
H1685 H 0.47704 0.48108 0.84922 0.0
H1686 H 0.45073 0.46381 0.86888 0.0
H1687 H 0.55968 0.48513 0.90104 0.0
H1688 H 0.56792 0.50551 0.93211 0.0
H1689 H 0.56941 0.52019 0.90145 0.0
C1690 C 0.49886 0.03075 0.82775 0.0
C1691 C 0.52129 0.04117 0.81491 0.0
C1692 C 0.4974 0.02057 0.85238 0.0
C1693 C 0.51837 0.01924 0.86404 0.0
C1694 C 0.54053 0.02812 0.85061 0.0
C1695 C 0.54195 0.03949 0.82652 0.0
C1696 C 0.47365 0.01211 0.86635 0.0
C1697 C 0.56296 0.02615 0.86199 0.0
C1698 C 0.52227 0.02231 0.93875 0.0
C1699 C 0.5081 0.99488 0.94285 0.0
C1700 C 0.52669 0.03049 0.91325 0.0
C1701 C 0.5176 0.01072 0.89126 0.0
C1702 C 0.50515 0.98293 0.89544 0.0
C1703 C 0.50007 0.97529 0.92124 0.0
C1704 C 0.53926 0.06029 0.90983 0.0
C1705 C 0.49622 0.96129 0.8726 0.0
H1706 H 0.48226 0.03065 0.81871 0.0
H1707 H 0.55948 0.04748 0.81711 0.0
H1708 H 0.46489 0.99058 0.87007 0.0
H1709 H 0.47868 0.02416 0.88588 0.0
H1710 H 0.4592 0.01488 0.85478 0.0
H1711 H 0.57705 0.03005 0.84741 0.0
H1712 H 0.57272 0.0411 0.87956 0.0
H1713 H 0.55641 0.00581 0.86865 0.0
H1714 H 0.52867 0.03759 0.95539 0.0
H1715 H 0.48935 0.95408 0.9244 0.0
H1716 H 0.52497 0.06463 0.90034 0.0
H1717 H 0.55474 0.06626 0.89669 0.0
H1718 H 0.54735 0.07309 0.92901 0.0
H1719 H 0.47906 0.95922 0.86139 0.0
H1720 H 0.49131 0.94136 0.87944 0.0
H1721 H 0.51113 0.96686 0.85873 0.0
C1722 C 0.10774 0.2592 0.5048 0.0
C1723 C 0.11922 0.27093 0.53042 0.0
C1724 C 0.11913 0.27176 0.4824 0.0
C1725 C 0.14228 0.29692 0.48576 0.0
C1726 C 0.15376 0.30891 0.51167 0.0
C1727 C 0.14224 0.29564 0.53364 0.0
C1728 C 0.10667 0.25762 0.45524 0.0
C1729 C 0.17812 0.33591 0.51621 0.0
C1730 C 0.18515 0.32164 0.42977 0.0
C1731 C 0.17783 0.33884 0.41869 0.0
C1732 C 0.17329 0.3073 0.45114 0.0
C1733 C 0.15434 0.31107 0.46232 0.0
C1734 C 0.14719 0.32878 0.45136 0.0
C1735 C 0.15885 0.34224 0.42949 0.0
C1736 C 0.18075 0.28782 0.46148 0.0
C1737 C 0.12731 0.33362 0.46283 0.0
H1738 H 0.09008 0.23994 0.50229 0.0
H1739 H 0.15103 0.3048 0.55348 0.0
H1740 H 0.10827 0.27214 0.44098 0.0
H1741 H 0.11649 0.24706 0.44772 0.0
H1742 H 0.08623 0.24239 0.45571 0.0
H1743 H 0.18443 0.34267 0.53759 0.0
H1744 H 0.19354 0.33473 0.5067 0.0
H1745 H 0.1754 0.35145 0.50691 0.0
H1746 H 0.19961 0.31873 0.42119 0.0
H1747 H 0.15322 0.35557 0.42089 0.0
H1748 H 0.18863 0.29418 0.48253 0.0
H1749 H 0.19512 0.28645 0.44999 0.0
H1750 H 0.16365 0.26738 0.46061 0.0
H1751 H 0.1098 0.31412 0.46466 0.0
H1752 H 0.12218 0.34597 0.4506 0.0
H1753 H 0.13463 0.34425 0.48305 0.0
C1754 C 0.71878 0.85001 0.54566 0.0
C1755 C 0.74247 0.85138 0.54782 0.0
C1756 C 0.70619 0.84784 0.52087 0.0
C1757 C 0.7177 0.84741 0.49755 0.0
C1758 C 0.7417 0.84886 0.49953 0.0
C1759 C 0.75372 0.85061 0.52468 0.0
C1760 C 0.68041 0.84579 0.51963 0.0
C1761 C 0.75476 0.84883 0.47515 0.0
C1762 C 0.67312 0.81861 0.43387 0.0
C1763 C 0.67519 0.84199 0.42444 0.0
C1764 C 0.68738 0.82007 0.45729 0.0
C1765 C 0.70447 0.84562 0.47126 0.0
C1766 C 0.70733 0.86938 0.46112 0.0
C1767 C 0.69231 0.86723 0.43807 0.0
C1768 C 0.68362 0.79424 0.46748 0.0
C1769 C 0.72602 0.89706 0.47479 0.0
H1770 H 0.70981 0.85012 0.56346 0.0
H1771 H 0.77208 0.85175 0.52629 0.0
H1772 H 0.68127 0.86314 0.51017 0.0
H1773 H 0.66612 0.8271 0.50726 0.0
H1774 H 0.67371 0.84556 0.53954 0.0
H1775 H 0.77357 0.85055 0.4801 0.0
H1776 H 0.74264 0.82997 0.46195 0.0
H1777 H 0.75757 0.8659 0.46379 0.0
H1778 H 0.6599 0.7991 0.42321 0.0
H1779 H 0.69426 0.88538 0.43047 0.0
H1780 H 0.67609 0.79214 0.48711 0.0
H1781 H 0.7021 0.79483 0.47023 0.0
H1782 H 0.6702 0.77611 0.45386 0.0
H1783 H 0.71965 0.89974 0.49417 0.0
H1784 H 0.72794 0.91349 0.46285 0.0
H1785 H 0.74508 0.89915 0.47875 0.0
C1786 C 0.13513 0.88357 0.51007 0.0
C1787 C 0.14204 0.87514 0.53281 0.0
C1788 C 0.13916 0.87589 0.48486 0.0
C1789 C 0.15112 0.86017 0.48258 0.0
C1790 C 0.15739 0.85095 0.50553 0.0
C1791 C 0.1525 0.85833 0.53037 0.0
C1792 C 0.13147 0.88532 0.46075 0.0
C1793 C 0.17056 0.83459 0.50402 0.0
C1794 C 0.15244 0.82785 0.41551 0.0
C1795 C 0.17574 0.84764 0.40786 0.0
C1796 C 0.14385 0.83172 0.43959 0.0
C1797 C 0.15938 0.85565 0.45668 0.0
C1798 C 0.18328 0.87537 0.44928 0.0
C1799 C 0.19106 0.87119 0.42489 0.0
C1800 C 0.11798 0.81051 0.44637 0.0
C1801 C 0.20067 0.90096 0.46708 0.0
H1802 H 0.12705 0.89661 0.5121 0.0
H1803 H 0.15807 0.85211 0.5481 0.0
H1804 H 0.14857 0.89858 0.45086 0.0
H1805 H 0.1187 0.86771 0.44629 0.0
H1806 H 0.12158 0.89661 0.46575 0.0
H1807 H 0.17285 0.82772 0.52345 0.0
H1808 H 0.15967 0.81663 0.48938 0.0
H1809 H 0.18971 0.84699 0.4972 0.0
H1810 H 0.14102 0.80928 0.40276 0.0
H1811 H 0.20914 0.88656 0.41905 0.0
H1812 H 0.10462 0.81833 0.4444 0.0
H1813 H 0.11886 0.80587 0.46715 0.0
H1814 H 0.11005 0.79147 0.4331 0.0
H1815 H 0.19129 0.91316 0.46975 0.0
H1816 H 0.21916 0.91358 0.45899 0.0
H1817 H 0.20449 0.89592 0.48696 0.0
C1818 C 0.58094 0.78482 0.17579 0.0
C1819 C 0.59466 0.79637 0.15431 0.0
C1820 C 0.5929 0.79244 0.20182 0.0
C1821 C 0.61936 0.8114 0.20627 0.0
C1822 C 0.63302 0.82385 0.18468 0.0
C1823 C 0.62041 0.8164 0.15899 0.0
C1824 C 0.57752 0.77926 0.22438 0.0
C1825 C 0.66134 0.84363 0.18844 0.0
C1826 C 0.65238 0.84168 0.27582 0.0
C1827 C 0.6604 0.82363 0.28265 0.0
C1828 C 0.63845 0.83773 0.25127 0.0
C1829 C 0.63335 0.81576 0.23279 0.0
C1830 C 0.64218 0.79798 0.23935 0.0
C1831 C 0.65532 0.80197 0.26427 0.0
C1832 C 0.62873 0.85667 0.24538 0.0
C1833 C 0.63778 0.77469 0.22004 0.0
H1834 H 0.56099 0.76936 0.17213 0.0
H1835 H 0.63107 0.82507 0.14233 0.0
H1836 H 0.58295 0.7649 0.23197 0.0
H1837 H 0.58157 0.79468 0.24102 0.0
H1838 H 0.55671 0.768 0.2182 0.0
H1839 H 0.66875 0.85302 0.17002 0.0
H1840 H 0.6659 0.85987 0.20435 0.0
H1841 H 0.67152 0.833 0.19466 0.0
H1842 H 0.65703 0.85888 0.28961 0.0
H1843 H 0.66158 0.78798 0.26937 0.0
H1844 H 0.60761 0.84548 0.24435 0.0
H1845 H 0.63399 0.86445 0.22588 0.0
H1846 H 0.63623 0.87408 0.26077 0.0
H1847 H 0.61706 0.76018 0.21584 0.0
H1848 H 0.64712 0.76367 0.22767 0.0
H1849 H 0.6452 0.78217 0.20098 0.0
C1850 C 0.23311 0.81919 0.1792 0.0
C1851 C 0.22035 0.81517 0.15404 0.0
C1852 C 0.22198 0.82077 0.20228 0.0
C1853 C 0.19794 0.8193 0.20002 0.0
C1854 C 0.18528 0.81572 0.17456 0.0
C1855 C 0.19646 0.81332 0.15194 0.0
C1856 C 0.23626 0.82443 0.2289 0.0
C1857 C 0.16007 0.8149 0.17117 0.0
C1858 C 0.15491 0.80108 0.25599 0.0
C1859 C 0.16091 0.82663 0.26738 0.0
C1860 C 0.16762 0.79843 0.2348 0.0
C1861 C 0.18598 0.82187 0.22403 0.0
C1862 C 0.19191 0.84771 0.23542 0.0
C1863 C 0.1795 0.84976 0.25716 0.0
C1864 C 0.1618 0.77061 0.22425 0.0
C1865 C 0.21125 0.87319 0.22456 0.0
H1866 H 0.25163 0.82068 0.18084 0.0
H1867 H 0.18675 0.81059 0.13247 0.0
H1868 H 0.24728 0.84624 0.23594 0.0
H1869 H 0.22312 0.81376 0.2439 0.0
H1870 H 0.24998 0.81708 0.2276 0.0
H1871 H 0.15309 0.81286 0.15001 0.0
H1872 H 0.14548 0.79767 0.18072 0.0
H1873 H 0.16197 0.83365 0.18109 0.0
H1874 H 0.1409 0.78319 0.26426 0.0
H1875 H 0.18424 0.86951 0.26615 0.0
H1876 H 0.17969 0.76984 0.22468 0.0
H1877 H 0.15351 0.76611 0.20332 0.0
H1878 H 0.14827 0.75459 0.23588 0.0
H1879 H 0.23022 0.87481 0.22653 0.0
H1880 H 0.21293 0.89164 0.23499 0.0
H1881 H 0.20592 0.87247 0.20316 0.0
C1882 C 0.22674 0.42694 0.19902 0.0
C1883 C 0.21536 0.41667 0.1731 0.0
C1884 C 0.21898 0.4104 0.21986 0.0
C1885 C 0.20001 0.38277 0.21435 0.0
C1886 C 0.19002 0.3719 0.18784 0.0
C1887 C 0.19751 0.38912 0.16756 0.0
C1888 C 0.23024 0.42286 0.24782 0.0
C1889 C 0.17046 0.3424 0.18104 0.0
C1890 C 0.18836 0.33804 0.27048 0.0
C1891 C 0.16675 0.3371 0.2798 0.0
C1892 C 0.19919 0.35235 0.24874 0.0
C1893 C 0.18828 0.36625 0.23646 0.0
C1894 C 0.16623 0.36502 0.24572 0.0
C1895 C 0.15551 0.35007 0.267 0.0
C1896 C 0.22214 0.35246 0.23881 0.0
C1897 C 0.1541 0.37981 0.23348 0.0
H1898 H 0.24056 0.44829 0.20324 0.0
H1899 H 0.18886 0.38122 0.14743 0.0
H1900 H 0.21532 0.41588 0.26176 0.0
H1901 H 0.24405 0.41661 0.25443 0.0
H1902 H 0.2404 0.44528 0.24929 0.0
H1903 H 0.16806 0.33626 0.15947 0.0
H1904 H 0.17593 0.32953 0.19189 0.0
H1905 H 0.15178 0.33845 0.18712 0.0
H1906 H 0.19671 0.32753 0.28015 0.0
H1907 H 0.1388 0.34939 0.27423 0.0
H1908 H 0.2381 0.3735 0.23898 0.0
H1909 H 0.21743 0.3433 0.21798 0.0
H1910 H 0.22866 0.34111 0.25088 0.0
H1911 H 0.16877 0.4008 0.23068 0.0
H1912 H 0.13986 0.38051 0.24574 0.0
H1913 H 0.14434 0.36948 0.21368 0.0
C1914 C 0.7817 0.59523 0.84392 0.0
C1915 C 0.79481 0.60856 0.86861 0.0
C1916 C 0.79148 0.60604 0.82032 0.0
C1917 C 0.81471 0.63099 0.82156 0.0
C1918 C 0.82791 0.64452 0.84651 0.0
C1919 C 0.81792 0.63301 0.86972 0.0
C1920 C 0.77719 0.59032 0.79421 0.0
C1921 C 0.85246 0.67134 0.84873 0.0
C1922 C 0.85356 0.65176 0.76241 0.0
C1923 C 0.84587 0.66869 0.75138 0.0
C1924 C 0.84298 0.63865 0.78478 0.0
C1925 C 0.82502 0.64342 0.79691 0.0
C1926 C 0.8174 0.66074 0.78589 0.0
C1927 C 0.82778 0.67299 0.76308 0.0
C1928 C 0.85079 0.61947 0.79524 0.0
C1929 C 0.79846 0.6665 0.79833 0.0
H1930 H 0.76395 0.57617 0.84308 0.0
H1931 H 0.82792 0.64343 0.88884 0.0
H1932 H 0.77828 0.60386 0.77905 0.0
H1933 H 0.78595 0.57859 0.7868 0.0
H1934 H 0.75683 0.5759 0.79631 0.0
H1935 H 0.86031 0.67931 0.86963 0.0
H1936 H 0.86695 0.66925 0.83819 0.0
H1937 H 0.8492 0.68639 0.83912 0.0
H1938 H 0.86732 0.64816 0.7531 0.0
H1939 H 0.82188 0.6861 0.75445 0.0
H1940 H 0.83368 0.59926 0.79573 0.0
H1941 H 0.85989 0.62677 0.81584 0.0
H1942 H 0.86429 0.61724 0.78296 0.0
H1943 H 0.78114 0.64734 0.80153 0.0
H1944 H 0.79273 0.67833 0.786 0.0
H1945 H 0.80695 0.67804 0.81803 0.0
C1946 C 0.39327 0.18872 0.87355 0.0
C1947 C 0.41725 0.19081 0.87482 0.0
C1948 C 0.37943 0.18509 0.84914 0.0
C1949 C 0.39006 0.18408 0.82533 0.0
C1950 C 0.41438 0.18629 0.82645 0.0
C1951 C 0.42758 0.18931 0.85125 0.0
C1952 C 0.35334 0.18219 0.84886 0.0
C1953 C 0.42658 0.1859 0.80151 0.0
C1954 C 0.34357 0.15231 0.76315 0.0
C1955 C 0.34443 0.17498 0.75326 0.0
C1956 C 0.35873 0.15496 0.78632 0.0
C1957 C 0.37562 0.18102 0.79942 0.0
C1958 C 0.37725 0.20407 0.78879 0.0
C1959 C 0.36125 0.20071 0.76613 0.0
C1960 C 0.35616 0.12985 0.79714 0.0
C1961 C 0.39573 0.23227 0.80147 0.0
H1962 H 0.38512 0.18949 0.89177 0.0
H1963 H 0.44617 0.19099 0.85225 0.0
H1964 H 0.35325 0.199 0.83921 0.0
H1965 H 0.33901 0.16306 0.83713 0.0
H1966 H 0.34736 0.18225 0.8691 0.0
H1967 H 0.44555 0.1878 0.80577 0.0
H1968 H 0.41415 0.16685 0.78866 0.0
H1969 H 0.42887 0.20275 0.79008 0.0
H1970 H 0.33059 0.13243 0.75306 0.0
H1971 H 0.36226 0.21831 0.75816 0.0
H1972 H 0.34949 0.12829 0.81718 0.0
H1973 H 0.37494 0.13104 0.79921 0.0
H1974 H 0.34255 0.11117 0.78429 0.0
H1975 H 0.38992 0.2353 0.82107 0.0
H1976 H 0.39663 0.24805 0.78914 0.0
H1977 H 0.41513 0.2351 0.80482 0.0
C1978 C 0.84323 0.2168 0.86475 0.0
C1979 C 0.82009 0.20545 0.87634 0.0
C1980 C 0.84475 0.20739 0.83927 0.0
C1981 C 0.82287 0.18521 0.82522 0.0
C1982 C 0.7997 0.17272 0.83712 0.0
C1983 C 0.79848 0.18322 0.86238 0.0
C1984 C 0.86972 0.22174 0.82713 0.0
C1985 C 0.77613 0.14855 0.82301 0.0
C1986 C 0.82307 0.18256 0.75061 0.0
C1987 C 0.83399 0.16643 0.74569 0.0
C1988 C 0.81851 0.18807 0.77629 0.0
C1989 C 0.82419 0.17638 0.79751 0.0
C1990 C 0.83367 0.15863 0.79237 0.0
C1991 C 0.83891 0.15424 0.76653 0.0
C1992 C 0.8092 0.2078 0.78086 0.0
C1993 C 0.8391 0.14503 0.81432 0.0
H1994 H 0.86036 0.23326 0.87556 0.0
H1995 H 0.78046 0.17424 0.87091 0.0
H1996 H 0.87647 0.20744 0.82216 0.0
H1997 H 0.86699 0.22943 0.80841 0.0
H1998 H 0.88485 0.23901 0.84054 0.0
H1999 H 0.76043 0.13944 0.83598 0.0
H2000 H 0.76931 0.15462 0.80542 0.0
H2001 H 0.78062 0.13291 0.8158 0.0
H2002 H 0.81918 0.192 0.73457 0.0
H2003 H 0.8471 0.14154 0.76268 0.0
H2004 H 0.82443 0.22645 0.79256 0.0
H2005 H 0.79246 0.19917 0.79245 0.0
H2006 H 0.80386 0.21348 0.76202 0.0
H2007 H 0.85609 0.16019 0.82748 0.0
H2008 H 0.84274 0.1289 0.80654 0.0
H2009 H 0.82285 0.13607 0.82659 0.0
C2010 C 0.28499 0.14523 0.48921 0.0
C2011 C 0.25865 0.1273 0.48589 0.0
C2012 C 0.2985 0.15286 0.51444 0.0
C2013 C 0.28521 0.14276 0.53689 0.0
C2014 C 0.25833 0.12603 0.53373 0.0
C2015 C 0.24538 0.11811 0.50816 0.0
C2016 C 0.32718 0.17028 0.51688 0.0
C2017 C 0.24346 0.11561 0.55728 0.0
C2018 C 0.32 0.13173 0.59479 0.0
C2019 C 0.32757 0.15478 0.61226 0.0
C2020 C 0.30635 0.12774 0.57021 0.0
C2021 C 0.29968 0.14708 0.56307 0.0
C2022 C 0.30732 0.17047 0.58063 0.0
C2023 C 0.32157 0.17424 0.60489 0.0
C2024 C 0.29907 0.10277 0.55188 0.0
C2025 C 0.30002 0.19121 0.57413 0.0
H2026 H 0.29521 0.15206 0.47188 0.0
H2027 H 0.22497 0.10426 0.50548 0.0
H2028 H 0.33364 0.18774 0.53194 0.0
H2029 H 0.33585 0.15834 0.52361 0.0
H2030 H 0.33445 0.17798 0.4978 0.0
H2031 H 0.22255 0.10427 0.55171 0.0
H2032 H 0.24892 0.10207 0.56679 0.0
H2033 H 0.24818 0.13269 0.57227 0.0
H2034 H 0.32466 0.11663 0.60039 0.0
H2035 H 0.32817 0.19245 0.618 0.0
H2036 H 0.3062 0.10858 0.53232 0.0
H2037 H 0.27802 0.09 0.54856 0.0
H2038 H 0.3068 0.09041 0.5599 0.0
H2039 H 0.30386 0.19667 0.55364 0.0
H2040 H 0.31038 0.20991 0.58801 0.0
H2041 H 0.27926 0.18252 0.57534 0.0
C2042 C 0.8989 0.16807 0.50504 0.0
C2043 C 0.884 0.14908 0.48346 0.0
C2044 C 0.88771 0.17258 0.52664 0.0
C2045 C 0.86097 0.15722 0.52711 0.0
C2046 C 0.84569 0.13873 0.50507 0.0
C2047 C 0.85737 0.13508 0.4834 0.0
C2048 C 0.90476 0.19262 0.54965 0.0
C2049 C 0.81715 0.12159 0.50504 0.0
C2050 C 0.83955 0.14235 0.59557 0.0
C2051 C 0.82992 0.15968 0.60052 0.0
C2052 C 0.84904 0.14095 0.57151 0.0
C2053 C 0.84952 0.15779 0.55203 0.0
C2054 C 0.83986 0.17544 0.55688 0.0
C2055 C 0.8298 0.17591 0.58105 0.0
C2056 C 0.85875 0.12153 0.56709 0.0
C2057 C 0.84082 0.19426 0.53686 0.0
H2058 H 0.91949 0.17869 0.50572 0.0
H2059 H 0.84562 0.12074 0.46668 0.0
H2060 H 0.89646 0.20472 0.55734 0.0
H2061 H 0.90674 0.1816 0.566 0.0
H2062 H 0.9241 0.2066 0.54402 0.0
H2063 H 0.80777 0.11011 0.48547 0.0
H2064 H 0.81268 0.10697 0.52008 0.0
H2065 H 0.80884 0.13433 0.51054 0.0
H2066 H 0.83949 0.1296 0.61052 0.0
H2067 H 0.82251 0.18943 0.58501 0.0
H2068 H 0.87953 0.13295 0.56526 0.0
H2069 H 0.84935 0.10834 0.54833 0.0
H2070 H 0.85534 0.10851 0.58351 0.0
H2071 H 0.86096 0.20843 0.53369 0.0
H2072 H 0.83192 0.20619 0.54329 0.0
H2073 H 0.83097 0.18265 0.51751 0.0
C2074 C 0.87798 0.74276 0.52001 0.0
C2075 C 0.86625 0.72778 0.49556 0.0
C2076 C 0.8736 0.72994 0.54348 0.0
C2077 C 0.85686 0.70163 0.54224 0.0
C2078 C 0.8462 0.68636 0.51731 0.0
C2079 C 0.85105 0.69967 0.49423 0.0
C2080 C 0.88614 0.74679 0.56959 0.0
C2081 C 0.82827 0.65619 0.51511 0.0
C2082 C 0.85071 0.66367 0.60296 0.0
C2083 C 0.82898 0.66225 0.61251 0.0
C2084 C 0.86032 0.67672 0.58023 0.0
C2085 C 0.84778 0.68847 0.56686 0.0
C2086 C 0.82583 0.68707 0.57657 0.0
C2087 C 0.81657 0.67374 0.59912 0.0
C2088 C 0.88385 0.67798 0.57057 0.0
C2089 C 0.8122 0.69985 0.56325 0.0
H2090 H 0.88971 0.76455 0.52084 0.0
H2091 H 0.84187 0.68827 0.4752 0.0
H2092 H 0.87217 0.74149 0.58447 0.0
H2093 H 0.90107 0.74257 0.57743 0.0
H2094 H 0.89521 0.76879 0.56759 0.0
H2095 H 0.82397 0.64693 0.49431 0.0
H2096 H 0.8365 0.64636 0.52717 0.0
H2097 H 0.8101 0.65187 0.52296 0.0
H2098 H 0.86008 0.65445 0.6132 0.0
H2099 H 0.7999 0.6729 0.60665 0.0
H2100 H 0.89912 0.69937 0.57072 0.0
H2101 H 0.87966 0.66871 0.54982 0.0
H2102 H 0.89111 0.66746 0.58296 0.0
H2103 H 0.8258 0.72149 0.56147 0.0
H2104 H 0.79639 0.69844 0.57427 0.0
H2105 H 0.80429 0.68978 0.54291 0.0
loop_
_geom_bond_atom_site_label_1
_geom_bond_atom_site_label_2
_geom_bond_distance
_geom_bond_site_symmetry_2
_ccdc_geom_bond_type
H0 C3 0.929 . S
H1 C6 0.929 . S
H2 C8 0.930 . S
C3 H0 0.929 . S
C3 C4 1.398 . S
C3 C5 1.396 . S
C4 C3 1.398 . S
C4 C8 1.407 . S
C5 C3 1.396 . S
C5 C6 1.394 . S
C6 H1 0.929 . S
C6 C5 1.394 . S
C6 C7 1.382 . S
C7 C6 1.382 . S
C7 C8 1.392 . S
C7 N9 1.420 . S
C8 H2 0.930 . S
C8 C4 1.407 . S
C8 C7 1.392 . S
N9 C7 1.420 . S
N9 C10 1.244 . S
C10 N9 1.244 . S
H11 C14 0.929 . S
H12 C17 0.929 . S
H13 C19 0.930 . S
C14 H11 0.929 . S
C14 C15 1.398 . S
C14 C16 1.396 . S
C15 C14 1.398 . S
C15 C19 1.407 . S
C16 C14 1.396 . S
C16 C17 1.394 . S
C17 H12 0.929 . S
C17 C16 1.394 . S
C17 C18 1.382 . S
C18 C17 1.382 . S
C18 C19 1.392 . S
C18 N20 1.420 . S
C19 H13 0.930 . S
C19 C15 1.407 . S
C19 C18 1.392 . S
N20 C18 1.420 . S
N20 C21 1.244 . S
C21 N20 1.244 . S
H22 C25 0.929 . S
H23 C28 0.929 . S
H24 C30 0.930 . S
C25 H22 0.929 . S
C25 C26 1.398 . S
C25 C27 1.396 . S
C26 C25 1.398 . S
C26 C30 1.407 . S
C27 C25 1.396 . S
C27 C28 1.394 . S
C28 H23 0.929 . S
C28 C27 1.394 . S
C28 C29 1.382 . S
C29 C28 1.382 . S
C29 C30 1.392 . S
C29 N31 1.420 . S
C30 H24 0.930 . S
C30 C26 1.407 . S
C30 C29 1.392 . S
N31 C29 1.420 . S
N31 C32 1.244 . S
C32 N31 1.244 . S
H33 C36 0.929 . S
H34 C39 0.929 . S
H35 C41 0.930 . S
C36 H33 0.929 . S
C36 C37 1.398 . S
C36 C38 1.396 . S
C37 C36 1.398 . S
C37 C41 1.407 . S
C38 C36 1.396 . S
C38 C39 1.394 . S
C39 H34 0.929 . S
C39 C38 1.394 . S
C39 C40 1.382 . S
C40 C39 1.382 . S
C40 C41 1.392 . S
C40 N42 1.420 . S
C41 H35 0.930 . S
C41 C37 1.407 . S
C41 C40 1.392 . S
N42 C40 1.420 . S
N42 C43 1.244 . S
C43 N42 1.244 . S
H44 C47 0.929 . S
H45 C50 0.929 . S
H46 C52 0.930 . S
C47 H44 0.929 . S
C47 C48 1.398 . S
C47 C49 1.396 . S
C48 C47 1.398 . S
C48 C52 1.407 . S
C49 C47 1.396 . S
C49 C50 1.394 . S
C50 H45 0.929 . S
C50 C49 1.394 . S
C50 C51 1.382 . S
C51 C50 1.382 . S
C51 C52 1.392 . S
C51 N53 1.420 . S
C52 H46 0.930 . S
C52 C48 1.407 . S
C52 C51 1.392 . S
N53 C51 1.420 . S
N53 C54 1.244 . S
C54 N53 1.244 . S
H55 C58 0.929 . S
H56 C61 0.929 . S
H57 C63 0.930 . S
C58 H55 0.929 . S
C58 C59 1.398 . S
C58 C60 1.396 . S
C59 C58 1.398 . S
C59 C63 1.407 . S
C60 C58 1.396 . S
C60 C61 1.394 . S
C61 H56 0.929 . S
C61 C60 1.394 . S
C61 C62 1.382 . S
C62 C61 1.382 . S
C62 C63 1.392 . S
C62 N64 1.420 . S
C63 H57 0.930 . S
C63 C59 1.407 . S
C63 C62 1.392 . S
N64 C62 1.420 . S
N64 C65 1.244 . S
C65 N64 1.244 . S
H66 C69 0.929 . S
H67 C72 0.929 . S
H68 C74 0.930 . S
C69 H66 0.929 . S
C69 C70 1.398 . S
C69 C71 1.396 . S
C70 C69 1.398 . S
C70 C74 1.407 . S
C71 C69 1.396 . S
C71 C72 1.394 . S
C72 H67 0.929 . S
C72 C71 1.394 . S
C72 C73 1.382 . S
C73 C72 1.382 . S
C73 C74 1.392 . S
C73 N75 1.420 . S
C74 H68 0.930 . S
C74 C70 1.407 . S
C74 C73 1.392 . S
N75 C73 1.420 . S
N75 C76 1.244 . S
C76 N75 1.244 . S
H77 C80 0.929 . S
H78 C83 0.929 . S
H79 C85 0.930 . S
C80 H77 0.929 . S
C80 C81 1.398 . S
C80 C82 1.396 . S
C81 C80 1.398 . S
C81 C85 1.407 . S
C82 C80 1.396 . S
C82 C83 1.394 . S
C83 H78 0.929 . S
C83 C82 1.394 . S
C83 C84 1.382 . S
C84 C83 1.382 . S
C84 C85 1.392 . S
C84 N86 1.420 . S
C85 H79 0.930 . S
C85 C81 1.407 . S
C85 C84 1.392 . S
N86 C84 1.420 . S
N86 C87 1.244 . S
C87 N86 1.244 . S
H88 C91 0.929 . S
H89 C94 0.929 . S
H90 C96 0.930 . S
C91 H88 0.929 . S
C91 C92 1.398 . S
C91 C93 1.396 . S
C92 C91 1.398 . S
C92 C96 1.407 . S
C93 C91 1.396 . S
C93 C94 1.394 . S
C94 H89 0.929 . S
C94 C93 1.394 . S
C94 C95 1.382 . S
C95 C94 1.382 . S
C95 C96 1.392 . S
C95 N97 1.420 . S
C96 H90 0.930 . S
C96 C92 1.407 . S
C96 C95 1.392 . S
N97 C95 1.420 . S
N97 C98 1.244 . S
C98 N97 1.244 . S
H99 C102 0.929 . S
H100 C105 0.929 . S
H101 C107 0.930 . S
C102 H99 0.929 . S
C102 C103 1.398 . S
C102 C104 1.396 . S
C103 C102 1.398 . S
C103 C107 1.407 . S
C104 C102 1.396 . S
C104 C105 1.394 . S
C105 H100 0.929 . S
C105 C104 1.394 . S
C105 C106 1.382 . S
C106 C105 1.382 . S
C106 C107 1.392 . S
C106 N108 1.420 . S
C107 H101 0.930 . S
C107 C103 1.407 . S
C107 C106 1.392 . S
N108 C106 1.420 . S
N108 C109 1.244 . S
C109 N108 1.244 . S
H110 C113 0.929 . S
H111 C116 0.929 . S
H112 C118 0.930 . S
C113 H110 0.929 . S
C113 C114 1.398 . S
C113 C115 1.396 . S
C114 C113 1.398 . S
C114 C118 1.407 . S
C115 C113 1.396 . S
C115 C116 1.394 . S
C116 H111 0.929 . S
C116 C115 1.394 . S
C116 C117 1.382 . S
C117 C116 1.382 . S
C117 C118 1.392 . S
C117 N119 1.420 . S
C118 H112 0.930 . S
C118 C114 1.407 . S
C118 C117 1.392 . S
N119 C117 1.420 . S
N119 C120 1.244 . S
C120 N119 1.244 . S
H121 C124 0.929 . S
H122 C127 0.929 . S
H123 C129 0.930 . S
C124 H121 0.929 . S
C124 C125 1.398 . S
C124 C126 1.396 . S
C125 C124 1.398 . S
C125 C129 1.407 . S
C126 C124 1.396 . S
C126 C127 1.394 . S
C127 H122 0.929 . S
C127 C126 1.394 . S
C127 C128 1.382 . S
C128 C127 1.382 . S
C128 C129 1.392 . S
C128 N130 1.420 . S
C129 H123 0.930 . S
C129 C125 1.407 . S
C129 C128 1.392 . S
N130 C128 1.420 . S
N130 C131 1.244 . S
C131 N130 1.244 . S
H132 C135 0.929 . S
H133 C138 0.929 . S
H134 C140 0.930 . S
C135 H132 0.929 . S
C135 C136 1.398 . S
C135 C137 1.396 . S
C136 C135 1.398 . S
C136 C140 1.407 . S
C137 C135 1.396 . S
C137 C138 1.394 . S
C138 H133 0.929 . S
C138 C137 1.394 . S
C138 C139 1.382 . S
C139 C138 1.382 . S
C139 C140 1.392 . S
C139 N141 1.420 . S
C140 H134 0.930 . S
C140 C136 1.407 . S
C140 C139 1.392 . S
N141 C139 1.420 . S
N141 C142 1.244 . S
C142 N141 1.244 . S
H143 C146 0.929 . S
H144 C149 0.929 . S
H145 C151 0.930 . S
C146 H143 0.929 . S
C146 C147 1.398 . S
C146 C148 1.396 . S
C147 C146 1.398 . S
C147 C151 1.407 . S
C148 C146 1.396 . S
C148 C149 1.394 . S
C149 H144 0.929 . S
C149 C148 1.394 . S
C149 C150 1.382 . S
C150 C149 1.382 . S
C150 C151 1.392 . S
C150 N152 1.420 . S
C151 H145 0.930 . S
C151 C147 1.407 . S
C151 C150 1.392 . S
N152 C150 1.420 . S
N152 C153 1.244 . S
C153 N152 1.244 . S
H154 C157 0.929 . S
H155 C160 0.929 . S
H156 C162 0.930 . S
C157 H154 0.929 . S
C157 C158 1.398 . S
C157 C159 1.396 . S
C158 C157 1.398 . S
C158 C162 1.407 . S
C159 C157 1.396 . S
C159 C160 1.394 . S
C160 H155 0.929 . S
C160 C159 1.394 . S
C160 C161 1.382 . S
C161 C160 1.382 . S
C161 C162 1.392 . S
C161 N163 1.420 . S
C162 H156 0.930 . S
C162 C158 1.407 . S
C162 C161 1.392 . S
N163 C161 1.420 . S
N163 C164 1.244 . S
C164 N163 1.244 . S
H165 C168 0.929 . S
H166 C171 0.929 . S
H167 C173 0.930 . S
C168 H165 0.929 . S
C168 C169 1.398 . S
C168 C170 1.396 . S
C169 C168 1.398 . S
C169 C173 1.407 . S
C170 C168 1.396 . S
C170 C171 1.394 . S
C171 H166 0.929 . S
C171 C170 1.394 . S
C171 C172 1.382 . S
C172 C171 1.382 . S
C172 C173 1.392 . S
C172 N174 1.420 . S
C173 H167 0.930 . S
C173 C169 1.407 . S
C173 C172 1.392 . S
N174 C172 1.420 . S
N174 C175 1.244 . S
C175 N174 1.244 . S
H176 C179 0.929 . S
H177 C182 0.929 . S
H178 C184 0.930 . S
C179 H176 0.929 . S
C179 C180 1.398 . S
C179 C181 1.396 . S
C180 C179 1.398 . S
C180 C184 1.407 . S
C181 C179 1.396 . S
C181 C182 1.394 . S
C182 H177 0.929 . S
C182 C181 1.394 . S
C182 C183 1.382 . S
C183 C182 1.382 . S
C183 C184 1.392 . S
C183 N185 1.420 . S
C184 H178 0.930 . S
C184 C180 1.407 . S
C184 C183 1.392 . S
N185 C183 1.420 . S
N185 C186 1.244 . S
C186 N185 1.244 . S
H187 C190 0.929 . S
H188 C193 0.929 . S
H189 C195 0.930 . S
C190 H187 0.929 . S
C190 C191 1.398 . S
C190 C192 1.396 . S
C191 C190 1.398 . S
C191 C195 1.407 . S
C192 C190 1.396 . S
C192 C193 1.394 . S
C193 H188 0.929 . S
C193 C192 1.394 . S
C193 C194 1.382 . S
C194 C193 1.382 . S
C194 C195 1.392 . S
C194 N196 1.420 . S
C195 H189 0.930 . S
C195 C191 1.407 . S
C195 C194 1.392 . S
N196 C194 1.420 . S
N196 C197 1.244 . S
C197 N196 1.244 . S
Tb198 O201 2.453 . S
Tb198 O202 2.596 1_545 S
Tb198 O203 2.374 1_545 S
Tb198 O211 2.343 1_554 S
Tb198 O213 2.353 . S
Tb198 O215 2.427 . S
Tb198 O216 2.532 . S
C199 O203 1.251 . S
C199 O205 1.263 1_554 S
Tb200 O202 2.343 1_556 S
Tb200 O205 2.353 . S
Tb200 O208 2.427 1_556 S
Tb200 O209 2.513 1_556 S
Tb200 O210 2.453 . S
Tb200 O211 2.596 1_565 S
Tb200 O212 2.374 1_565 S
O201 Tb198 2.453 . S
O201 C217 1.245 1_545 S
O202 Tb198 2.596 1_565 S
O202 Tb200 2.343 1_554 S
O202 C217 1.259 . S
O203 Tb198 2.374 1_565 S
O203 C199 1.251 . S
C204 O208 1.275 . S
C204 O209 1.246 . S
O205 C199 1.263 1_556 S
O205 Tb200 2.353 . S
C206 O210 1.245 1_545 S
C206 O211 1.259 . S
C207 O212 1.250 1_554 S
C207 O213 1.263 . S
O208 Tb200 2.427 1_554 S
O208 C204 1.275 . S
O209 Tb200 2.513 1_554 S
O209 C204 1.246 . S
O210 Tb200 2.453 . S
O210 C206 1.245 1_565 S
O211 Tb198 2.343 1_556 S
O211 Tb200 2.596 1_545 S
O211 C206 1.259 . S
O212 Tb200 2.374 1_545 S
O212 C207 1.250 1_556 S
O213 Tb198 2.353 . S
O213 C207 1.263 . S
C214 O215 1.275 1_556 S
C214 O216 1.239 1_556 S
O215 Tb198 2.427 . S
O215 C214 1.275 1_554 S
O216 Tb198 2.532 . S
O216 C214 1.239 1_554 S
C217 O201 1.245 1_565 S
C217 O202 1.259 . S
Tb218 O221 2.453 . S
Tb218 O222 2.596 1_655 S
Tb218 O223 2.374 1_655 S
Tb218 O231 2.343 1_554 S
Tb218 O233 2.353 . S
Tb218 O235 2.427 1_554 S
Tb218 O236 2.513 1_554 S
C219 O223 1.251 . S
C219 O225 1.263 . S
Tb220 O222 2.343 1_556 S
Tb220 O225 2.353 1_556 S
Tb220 O228 2.427 1_556 S
Tb220 O229 2.513 1_556 S
Tb220 O230 2.453 . S
Tb220 O231 2.596 1_455 S
Tb220 O232 2.374 1_455 S
O221 Tb218 2.453 . S
O221 C237 1.245 1_655 S
O222 Tb218 2.596 1_455 S
O222 Tb220 2.343 1_554 S
O222 C237 1.259 . S
O223 Tb218 2.374 1_455 S
O223 C219 1.251 . S
C224 O228 1.275 . S
C224 O229 1.246 . S
O225 C219 1.263 . S
O225 Tb220 2.353 1_554 S
C226 O230 1.245 1_655 S
C226 O231 1.259 . S
C227 O232 1.250 1_554 S
C227 O233 1.263 . S
O228 Tb220 2.427 1_554 S
O228 C224 1.275 . S
O229 Tb220 2.513 1_554 S
O229 C224 1.246 . S
O230 Tb220 2.453 . S
O230 C226 1.245 1_455 S
O231 Tb218 2.343 1_556 S
O231 Tb220 2.596 1_655 S
O231 C226 1.259 . S
O232 Tb220 2.374 1_655 S
O232 C227 1.250 1_556 S
O233 Tb218 2.353 . S
O233 C227 1.263 . S
C234 O235 1.275 . S
C234 O236 1.246 . S
O235 Tb218 2.427 1_556 S
O235 C234 1.275 . S
O236 Tb218 2.513 1_556 S
O236 C234 1.246 . S
C237 O221 1.245 1_455 S
C237 O222 1.259 . S
Tb238 O241 2.453 . S
Tb238 O242 2.596 . S
Tb238 O243 2.374 1_556 S
Tb238 O251 2.343 1_556 S
Tb238 O253 2.353 1_556 S
Tb238 O255 2.427 1_556 S
Tb238 O256 2.513 1_556 S
C239 O243 1.251 . S
C239 O245 1.263 . S
Tb240 O242 2.343 1_554 S
Tb240 O245 2.353 . S
Tb240 O248 2.427 . S
Tb240 O249 2.498 1_554 S
Tb240 O250 2.453 . S
Tb240 O251 2.596 . S
Tb240 O252 2.374 . S
O241 Tb238 2.453 . S
O241 C257 1.245 . S
O242 Tb238 2.596 . S
O242 Tb240 2.343 1_556 S
O242 C257 1.259 . S
O243 Tb238 2.374 1_554 S
O243 C239 1.251 . S
C244 O248 1.275 1_556 S
C244 O249 1.250 . S
O245 C239 1.263 . S
O245 Tb240 2.353 . S
C246 O250 1.245 . S
C246 O251 1.259 . S
C247 O252 1.250 . S
C247 O253 1.263 . S
O248 Tb240 2.427 . S
O248 C244 1.275 1_554 S
O249 Tb240 2.498 1_556 S
O249 C244 1.250 . S
O250 Tb240 2.453 . S
O250 C246 1.245 . S
O251 Tb238 2.343 1_554 S
O251 Tb240 2.596 . S
O251 C246 1.259 . S
O252 Tb240 2.374 . S
O252 C247 1.250 . S
O253 Tb238 2.353 1_554 S
O253 C247 1.263 . S
C254 O255 1.275 . S
C254 O256 1.246 . S
O255 Tb238 2.427 1_554 S
O255 C254 1.275 . S
O256 Tb238 2.513 1_554 S
O256 C254 1.246 . S
C257 O241 1.245 . S
C257 O242 1.259 . S
Tb258 O261 2.453 . S
Tb258 O262 2.596 . S
Tb258 O263 2.374 . S
Tb258 O271 2.343 . S
Tb258 O273 2.353 . S
Tb258 O275 2.427 . S
Tb258 O276 2.513 . S
C259 O263 1.251 . S
C259 O265 1.263 . S
Tb260 O262 2.343 . S
Tb260 O265 2.353 . S
Tb260 O268 2.427 . S
Tb260 O269 2.513 . S
Tb260 O270 2.453 . S
Tb260 O271 2.596 . S
Tb260 O272 2.374 . S
O261 Tb258 2.453 . S
O261 C277 1.245 . S
O262 Tb258 2.596 . S
O262 Tb260 2.343 . S
O262 C277 1.259 . S
O263 Tb258 2.374 . S
O263 C259 1.251 . S
C264 O268 1.275 . S
C264 O269 1.246 . S
O265 C259 1.263 . S
O265 Tb260 2.353 . S
C266 O270 1.245 . S
C266 O271 1.259 . S
C267 O272 1.250 . S
C267 O273 1.263 . S
O268 Tb260 2.427 . S
O268 C264 1.275 . S
O269 Tb260 2.513 . S
O269 C264 1.246 . S
O270 Tb260 2.453 . S
O270 C266 1.245 . S
O271 Tb258 2.343 . S
O271 Tb260 2.596 . S
O271 C266 1.259 . S
O272 Tb260 2.374 . S
O272 C267 1.250 . S
O273 Tb258 2.353 . S
O273 C267 1.263 . S
C274 O275 1.275 . S
C274 O276 1.246 . S
O275 Tb258 2.427 . S
O275 C274 1.275 . S
O276 Tb258 2.513 . S
O276 C274 1.246 . S
C277 O261 1.245 . S
C277 O262 1.259 . S
Tb278 O281 2.453 . S
Tb278 O282 2.596 . S
Tb278 O283 2.374 . S
Tb278 O291 2.343 . S
Tb278 O293 2.353 . S
Tb278 O295 2.427 . S
Tb278 O296 2.513 . S
C279 O283 1.251 . S
C279 O285 1.263 . S
Tb280 O282 2.343 . S
Tb280 O285 2.353 . S
Tb280 O288 2.427 . S
Tb280 O289 2.513 . S
Tb280 O290 2.453 . S
Tb280 O291 2.596 . S
Tb280 O292 2.374 . S
O281 Tb278 2.453 . S
O281 C297 1.245 . S
O282 Tb278 2.596 . S
O282 Tb280 2.343 . S
O282 C297 1.259 . S
O283 Tb278 2.374 . S
O283 C279 1.251 . S
C284 O288 1.275 . S
C284 O289 1.246 . S
O285 C279 1.263 . S
O285 Tb280 2.353 . S
C286 O290 1.245 . S
C286 O291 1.259 . S
C287 O292 1.250 . S
C287 O293 1.263 . S
O288 Tb280 2.427 . S
O288 C284 1.275 . S
O289 Tb280 2.513 . S
O289 C284 1.246 . S
O290 Tb280 2.453 . S
O290 C286 1.245 . S
O291 Tb278 2.343 . S
O291 Tb280 2.596 . S
O291 C286 1.259 . S
O292 Tb280 2.374 . S
O292 C287 1.250 . S
O293 Tb278 2.353 . S
O293 C287 1.263 . S
C294 O295 1.275 . S
C294 O296 1.246 . S
O295 Tb278 2.427 . S
O295 C294 1.275 . S
O296 Tb278 2.513 . S
O296 C294 1.246 . S
C297 O281 1.245 . S
C297 O282 1.259 . S
Tb298 O301 2.453 . S
Tb298 O302 2.596 . S
Tb298 O303 2.374 . S
Tb298 O311 2.343 . S
Tb298 O313 2.353 . S
Tb298 O315 2.427 . S
Tb298 O316 2.513 . S
C299 O303 1.251 . S
C299 O305 1.263 . S
Tb300 O302 2.343 . S
Tb300 O305 2.353 . S
Tb300 O308 2.427 . S
Tb300 O309 2.513 . S
Tb300 O310 2.453 . S
Tb300 O311 2.596 . S
Tb300 O312 2.374 . S
O301 Tb298 2.453 . S
O301 C317 1.245 . S
O302 Tb298 2.596 . S
O302 Tb300 2.343 . S
O302 C317 1.259 . S
O303 Tb298 2.374 . S
O303 C299 1.251 . S
C304 O308 1.275 . S
C304 O309 1.246 . S
O305 C299 1.263 . S
O305 Tb300 2.353 . S
C306 O310 1.245 . S
C306 O311 1.259 . S
C307 O312 1.250 . S
C307 O313 1.263 . S
O308 Tb300 2.427 . S
O308 C304 1.275 . S
O309 Tb300 2.513 . S
O309 C304 1.246 . S
O310 Tb300 2.453 . S
O310 C306 1.245 . S
O311 Tb298 2.343 . S
O311 Tb300 2.596 . S
O311 C306 1.259 . S
O312 Tb300 2.374 . S
O312 C307 1.250 . S
O313 Tb298 2.353 . S
O313 C307 1.263 . S
C314 O315 1.275 . S
C314 O316 1.246 . S
O315 Tb298 2.427 . S
O315 C314 1.275 . S
O316 Tb298 2.513 . S
O316 C314 1.246 . S
C317 O301 1.245 . S
C317 O302 1.259 . S
Tb318 O321 2.453 . S
Tb318 O322 2.596 . S
Tb318 O323 2.374 . S
Tb318 O331 2.343 . S
Tb318 O333 2.353 . S
Tb318 O335 2.427 . S
Tb318 O336 2.513 . S
C319 O323 1.251 . S
C319 O325 1.263 . S
Tb320 O322 2.343 . S
Tb320 O325 2.353 . S
Tb320 O328 2.427 . S
Tb320 O329 2.513 . S
Tb320 O330 2.453 . S
Tb320 O331 2.596 . S
Tb320 O332 2.374 . S
O321 Tb318 2.453 . S
O321 C337 1.245 . S
O322 Tb318 2.596 . S
O322 Tb320 2.343 . S
O322 C337 1.259 . S
O323 Tb318 2.374 . S
O323 C319 1.251 . S
C324 O328 1.275 . S
C324 O329 1.246 . S
O325 C319 1.263 . S
O325 Tb320 2.353 . S
C326 O330 1.245 . S
C326 O331 1.259 . S
C327 O332 1.250 . S
C327 O333 1.263 . S
O328 Tb320 2.427 . S
O328 C324 1.275 . S
O329 Tb320 2.513 . S
O329 C324 1.246 . S
O330 Tb320 2.453 . S
O330 C326 1.245 . S
O331 Tb318 2.343 . S
O331 Tb320 2.596 . S
O331 C326 1.259 . S
O332 Tb320 2.374 . S
O332 C327 1.250 . S
O333 Tb318 2.353 . S
O333 C327 1.263 . S
C334 O335 1.275 . S
C334 O336 1.246 . S
O335 Tb318 2.427 . S
O335 C334 1.275 . S
O336 Tb318 2.513 . S
O336 C334 1.246 . S
C337 O321 1.245 . S
C337 O322 1.259 . S
Tb338 O341 2.453 . S
Tb338 O342 2.596 . S
Tb338 O343 2.374 . S
Tb338 O351 2.343 . S
Tb338 O353 2.353 . S
Tb338 O355 2.427 . S
Tb338 O356 2.513 . S
C339 O343 1.251 . S
C339 O345 1.263 . S
Tb340 O342 2.343 . S
Tb340 O345 2.353 . S
Tb340 O348 2.427 . S
Tb340 O349 2.513 . S
Tb340 O350 2.453 . S
Tb340 O351 2.596 . S
Tb340 O352 2.374 . S
O341 Tb338 2.453 . S
O341 C357 1.245 . S
O342 Tb338 2.596 . S
O342 Tb340 2.343 . S
O342 C357 1.259 . S
O343 Tb338 2.374 . S
O343 C339 1.251 . S
C344 O348 1.275 . S
C344 O349 1.246 . S
O345 C339 1.263 . S
O345 Tb340 2.353 . S
C346 O350 1.245 . S
C346 O351 1.259 . S
C347 O352 1.250 . S
C347 O353 1.263 . S
O348 Tb340 2.427 . S
O348 C344 1.275 . S
O349 Tb340 2.513 . S
O349 C344 1.246 . S
O350 Tb340 2.453 . S
O350 C346 1.245 . S
O351 Tb338 2.343 . S
O351 Tb340 2.596 . S
O351 C346 1.259 . S
O352 Tb340 2.374 . S
O352 C347 1.250 . S
O353 Tb338 2.353 . S
O353 C347 1.263 . S
C354 O355 1.275 . S
C354 O356 1.246 . S
O355 Tb338 2.427 . S
O355 C354 1.275 . S
O356 Tb338 2.513 . S
O356 C354 1.246 . S
C357 O341 1.245 . S
C357 O342 1.259 . S
Tb358 O361 2.453 . S
Tb358 O362 2.596 . S
Tb358 O363 2.374 . S
Tb358 O371 2.343 . S
Tb358 O373 2.353 . S
Tb358 O375 2.427 . S
Tb358 O376 2.513 . S
C359 O363 1.251 . S
C359 O365 1.263 . S
Tb360 O362 2.343 . S
Tb360 O365 2.353 . S
Tb360 O368 2.427 . S
Tb360 O369 2.513 . S
Tb360 O370 2.453 . S
Tb360 O371 2.596 . S
Tb360 O372 2.374 . S
O361 Tb358 2.453 . S
O361 C377 1.245 . S
O362 Tb358 2.596 . S
O362 Tb360 2.343 . S
O362 C377 1.259 . S
O363 Tb358 2.374 . S
O363 C359 1.251 . S
C364 O368 1.275 . S
C364 O369 1.246 . S
O365 C359 1.263 . S
O365 Tb360 2.353 . S
C366 O370 1.245 . S
C366 O371 1.259 . S
C367 O372 1.250 . S
C367 O373 1.263 . S
O368 Tb360 2.427 . S
O368 C364 1.275 . S
O369 Tb360 2.513 . S
O369 C364 1.246 . S
O370 Tb360 2.453 . S
O370 C366 1.245 . S
O371 Tb358 2.343 . S
O371 Tb360 2.596 . S
O371 C366 1.259 . S
O372 Tb360 2.374 . S
O372 C367 1.250 . S
O373 Tb358 2.353 . S
O373 C367 1.263 . S
C374 O375 1.275 . S
C374 O376 1.246 . S
O375 Tb358 2.427 . S
O375 C374 1.275 . S
O376 Tb358 2.513 . S
O376 C374 1.246 . S
C377 O361 1.245 . S
C377 O362 1.259 . S
C378 C379 1.391 . S
C378 C380 1.394 . S
C378 H394 0.931 . S
C379 C378 1.391 . S
C379 C383 1.376 . S
C380 C378 1.394 . S
C380 C381 1.369 . S
C380 C384 1.531 . S
C381 C380 1.369 . S
C381 C382 1.410 . S
C381 C389 1.503 . S
C382 C381 1.410 . S
C382 C383 1.392 . S
C382 C385 1.511 . S
C383 C379 1.376 . S
C383 C382 1.392 . S
C383 H395 0.929 . S
C384 C380 1.531 . S
C384 H396 0.960 . S
C384 H397 0.962 . S
C384 H398 0.960 . S
C385 C382 1.511 . S
C385 H399 0.961 . S
C385 H400 0.961 . S
C385 H401 0.961 . S
C386 C387 1.370 . S
C386 C388 1.363 . S
C386 H402 0.931 . S
C387 C386 1.370 . S
C387 C391 1.408 . S
C388 C386 1.363 . S
C388 C389 1.370 . S
C388 C392 1.524 . S
C389 C381 1.503 . S
C389 C388 1.370 . S
C389 C390 1.403 . S
C390 C389 1.403 . S
C390 C391 1.404 . S
C390 C393 1.539 . S
C391 C387 1.408 . S
C391 C390 1.404 . S
C391 H403 0.930 . S
C392 C388 1.524 . S
C392 H404 0.956 . S
C392 H405 0.961 . S
C392 H406 0.961 1_554 S
C393 C390 1.539 . S
C393 H407 0.958 . S
C393 H408 0.961 . S
C393 H409 0.960 . S
H394 C378 0.931 . S
H395 C383 0.929 . S
H396 C384 0.960 . S
H397 C384 0.962 . S
H398 C384 0.960 . S
H399 C385 0.961 . S
H400 C385 0.961 . S
H401 C385 0.961 . S
H402 C386 0.931 . S
H403 C391 0.930 . S
H404 C392 0.956 . S
H405 C392 0.961 . S
H406 C392 0.961 1_556 S
H407 C393 0.958 . S
H408 C393 0.961 . S
H409 C393 0.960 . S
C410 C411 1.391 . S
C410 C412 1.394 . S
C410 H426 0.931 . S
C411 C410 1.391 . S
C411 C415 1.376 . S
C412 C410 1.394 . S
C412 C413 1.369 . S
C412 C416 1.531 . S
C413 C412 1.369 . S
C413 C414 1.410 . S
C413 C421 1.503 . S
C414 C413 1.410 . S
C414 C415 1.392 . S
C414 C417 1.511 . S
C415 C411 1.376 . S
C415 C414 1.392 . S
C415 H427 0.929 . S
C416 C412 1.531 . S
C416 H428 0.960 . S
C416 H429 0.962 . S
C416 H430 0.960 . S
C417 C414 1.511 . S
C417 H431 0.961 . S
C417 H432 0.961 . S
C417 H433 0.961 . S
C418 C419 1.370 . S
C418 C420 1.363 . S
C418 H434 0.931 . S
C419 C418 1.370 . S
C419 C423 1.408 . S
C420 C418 1.363 . S
C420 C421 1.370 . S
C420 C424 1.524 . S
C421 C413 1.503 . S
C421 C420 1.370 . S
C421 C422 1.403 . S
C422 C421 1.403 . S
C422 C423 1.404 . S
C422 C425 1.539 . S
C423 C419 1.408 . S
C423 C422 1.404 . S
C423 H435 0.930 . S
C424 C420 1.524 . S
C424 H436 0.956 . S
C424 H437 0.961 . S
C424 H438 0.961 . S
C425 C422 1.539 . S
C425 H439 0.958 . S
C425 H440 0.961 . S
C425 H441 0.960 . S
H426 C410 0.931 . S
H427 C415 0.929 . S
H428 C416 0.960 . S
H429 C416 0.962 . S
H430 C416 0.960 . S
H431 C417 0.961 . S
H432 C417 0.961 . S
H433 C417 0.961 . S
H434 C418 0.931 . S
H435 C423 0.930 . S
H436 C424 0.956 . S
H437 C424 0.961 . S
H438 C424 0.961 . S
H439 C425 0.958 . S
H440 C425 0.961 . S
H441 C425 0.960 . S
C442 C443 1.391 . S
C442 C444 1.394 . S
C442 H458 0.931 . S
C443 C442 1.391 . S
C443 C447 1.376 . S
C444 C442 1.394 . S
C444 C445 1.369 . S
C444 C448 1.531 . S
C445 C444 1.369 . S
C445 C446 1.410 . S
C445 C453 1.503 . S
C446 C445 1.410 . S
C446 C447 1.392 . S
C446 C449 1.511 . S
C447 C443 1.376 . S
C447 C446 1.392 . S
C447 H459 0.929 . S
C448 C444 1.531 . S
C448 H460 0.960 . S
C448 H461 0.962 . S
C448 H462 0.960 . S
C449 C446 1.511 . S
C449 H463 0.961 . S
C449 H464 0.961 . S
C449 H465 0.961 . S
C450 C451 1.370 . S
C450 C452 1.363 . S
C450 H466 0.931 1_554 S
C451 C450 1.370 . S
C451 C455 1.408 . S
C452 C450 1.363 . S
C452 C453 1.370 . S
C452 C456 1.524 1_554 S
C453 C445 1.503 . S
C453 C452 1.370 . S
C453 C454 1.403 . S
C454 C453 1.403 . S
C454 C455 1.404 . S
C454 C457 1.539 . S
C455 C451 1.408 . S
C455 C454 1.404 . S
C455 H467 0.930 . S
C456 C452 1.524 1_556 S
C456 H468 0.956 1_556 S
C456 H469 0.961 . S
C456 H470 0.961 . S
C457 C454 1.539 . S
C457 H471 0.958 . S
C457 H472 0.961 . S
C457 H473 0.960 . S
H458 C442 0.931 . S
H459 C447 0.929 . S
H460 C448 0.960 . S
H461 C448 0.962 . S
H462 C448 0.960 . S
H463 C449 0.961 . S
H464 C449 0.961 . S
H465 C449 0.961 . S
H466 C450 0.931 1_556 S
H467 C455 0.930 . S
H468 C456 0.956 1_554 S
H469 C456 0.961 . S
H470 C456 0.961 . S
H471 C457 0.958 . S
H472 C457 0.961 . S
H473 C457 0.960 . S
C474 C475 1.391 . S
C474 C476 1.394 . S
C474 H490 0.931 . S
C475 C474 1.391 . S
C475 C479 1.376 . S
C476 C474 1.394 . S
C476 C477 1.369 . S
C476 C480 1.531 1_556 S
C477 C476 1.369 . S
C477 C478 1.410 . S
C477 C485 1.503 . S
C478 C477 1.410 . S
C478 C479 1.392 . S
C478 C481 1.511 . S
C479 C475 1.376 . S
C479 C478 1.392 . S
C479 H491 0.929 . S
C480 C476 1.531 1_554 S
C480 H492 0.960 . S
C480 H493 0.962 1_554 S
C480 H494 0.960 . S
C481 C478 1.511 . S
C481 H495 0.961 . S
C481 H496 0.961 . S
C481 H497 0.961 . S
C482 C483 1.370 . S
C482 C484 1.363 . S
C482 H498 0.931 . S
C483 C482 1.370 . S
C483 C487 1.408 1_556 S
C484 C482 1.363 . S
C484 C485 1.370 . S
C484 C488 1.524 . S
C485 C477 1.503 . S
C485 C484 1.370 . S
C485 C486 1.403 1_556 S
C486 C485 1.403 1_554 S
C486 C487 1.404 . S
C486 C489 1.539 . S
C487 C483 1.408 1_554 S
C487 C486 1.404 . S
C487 H499 0.930 . S
C488 C484 1.524 . S
C488 H500 0.956 . S
C488 H501 0.961 . S
C488 H502 0.961 . S
C489 C486 1.539 . S
C489 H503 0.958 . S
C489 H504 0.961 . S
C489 H505 0.960 . S
H490 C474 0.931 . S
H491 C479 0.929 . S
H492 C480 0.960 . S
H493 C480 0.962 1_556 S
H494 C480 0.960 . S
H495 C481 0.961 . S
H496 C481 0.961 . S
H497 C481 0.961 . S
H498 C482 0.931 . S
H499 C487 0.930 . S
H500 C488 0.956 . S
H501 C488 0.961 . S
H502 C488 0.961 . S
H503 C489 0.958 . S
H504 C489 0.961 . S
H505 C489 0.960 . S
C506 C507 1.391 . S
C506 C508 1.394 . S
C506 H522 0.931 . S
C507 C506 1.391 . S
C507 C511 1.376 . S
C508 C506 1.394 . S
C508 C509 1.369 . S
C508 C512 1.502 1_556 S
C509 C508 1.369 . S
C509 C510 1.410 . S
C509 C517 1.503 . S
C510 C509 1.410 . S
C510 C511 1.392 . S
C510 C513 1.511 . S
C511 C507 1.376 . S
C511 C510 1.392 . S
C511 H523 0.929 . S
C512 C508 1.502 1_554 S
C512 H524 0.964 . S
C512 H525 0.978 . S
C512 H526 0.970 . S
C513 C510 1.511 . S
C513 H527 0.961 . S
C513 H528 0.961 . S
C513 H529 0.961 . S
C514 C515 1.370 . S
C514 C516 1.363 . S
C514 H530 0.931 . S
C515 C514 1.370 . S
C515 C519 1.408 . S
C516 C514 1.363 . S
C516 C517 1.370 . S
C516 C520 1.524 . S
C517 C509 1.503 . S
C517 C516 1.370 . S
C517 C518 1.403 . S
C518 C517 1.403 . S
C518 C519 1.404 . S
C518 C521 1.539 . S
C519 C515 1.408 . S
C519 C518 1.404 . S
C519 H531 0.930 . S
C520 C516 1.524 . S
C520 H532 0.956 . S
C520 H533 0.961 . S
C520 H534 0.961 . S
C521 C518 1.539 . S
C521 H535 0.958 . S
C521 H536 0.961 . S
C521 H537 0.960 . S
H522 C506 0.931 . S
H523 C511 0.929 . S
H524 C512 0.964 . S
H525 C512 0.978 . S
H526 C512 0.970 . S
H527 C513 0.961 . S
H528 C513 0.961 . S
H529 C513 0.961 . S
H530 C514 0.931 . S
H531 C519 0.930 . S
H532 C520 0.956 . S
H533 C520 0.961 . S
H534 C520 0.961 . S
H535 C521 0.958 . S
H536 C521 0.961 . S
H537 C521 0.960 . S
C538 C539 1.391 . S
C538 C540 1.394 . S
C538 H554 0.931 . S
C539 C538 1.391 . S
C539 C543 1.376 . S
C540 C538 1.394 . S
C540 C541 1.369 . S
C540 C544 1.531 . S
C541 C540 1.369 . S
C541 C542 1.410 . S
C541 C549 1.503 . S
C542 C541 1.410 . S
C542 C543 1.392 . S
C542 C545 1.511 . S
C543 C539 1.376 . S
C543 C542 1.392 . S
C543 H555 0.929 . S
C544 C540 1.531 . S
C544 H556 0.960 . S
C544 H557 0.962 . S
C544 H558 0.960 . S
C545 C542 1.511 . S
C545 H559 0.961 1_556 S
C545 H560 0.961 1_556 S
C545 H561 0.961 . S
C546 C547 1.370 1_554 S
C546 C548 1.363 . S
C546 H562 0.931 . S
C547 C546 1.370 1_556 S
C547 C551 1.408 . S
C548 C546 1.363 . S
C548 C549 1.370 1_554 S
C548 C552 1.524 . S
C549 C541 1.503 . S
C549 C548 1.370 1_556 S
C549 C550 1.403 . S
C550 C549 1.403 . S
C550 C551 1.404 . S
C550 C553 1.539 . S
C551 C547 1.408 . S
C551 C550 1.404 . S
C551 H563 0.930 . S
C552 C548 1.524 . S
C552 H564 0.956 . S
C552 H565 0.961 . S
C552 H566 0.961 . S
C553 C550 1.539 . S
C553 H567 0.958 . S
C553 H568 0.961 . S
C553 H569 0.960 . S
H554 C538 0.931 . S
H555 C543 0.929 . S
H556 C544 0.960 . S
H557 C544 0.962 . S
H558 C544 0.960 . S
H559 C545 0.961 1_554 S
H560 C545 0.961 1_554 S
H561 C545 0.961 . S
H562 C546 0.931 . S
H563 C551 0.930 . S
H564 C552 0.956 . S
H565 C552 0.961 . S
H566 C552 0.961 . S
H567 C553 0.958 . S
H568 C553 0.961 . S
H569 C553 0.960 . S
C570 C571 1.391 . S
C570 C572 1.394 . S
C570 H586 0.905 1_556 S
C571 C570 1.391 . S
C571 C575 1.376 . S
C572 C570 1.394 . S
C572 C573 1.369 . S
C572 C576 1.531 1_556 S
C573 C572 1.369 . S
C573 C574 1.410 . S
C573 C581 1.503 . S
C574 C573 1.410 . S
C574 C575 1.392 . S
C574 C577 1.511 . S
C575 C571 1.376 . S
C575 C574 1.392 . S
C575 H587 0.929 . S
C576 C572 1.531 1_554 S
C576 H588 0.960 . S
C576 H589 0.962 . S
C576 H590 0.960 . S
C577 C574 1.511 . S
C577 H591 0.961 . S
C577 H592 0.961 . S
C577 H593 0.961 . S
C578 C579 1.370 . S
C578 C580 1.363 . S
C578 H594 0.931 . S
C579 C578 1.370 . S
C579 C583 1.408 . S
C580 C578 1.363 . S
C580 C581 1.370 . S
C580 C584 1.524 . S
C581 C573 1.503 . S
C581 C580 1.370 . S
C581 C582 1.403 . S
C582 C581 1.403 . S
C582 C583 1.404 . S
C582 C585 1.539 . S
C583 C579 1.408 . S
C583 C582 1.404 . S
C583 H595 0.930 . S
C584 C580 1.524 . S
C584 H596 0.956 . S
C584 H597 0.961 . S
C584 H598 0.961 . S
C585 C582 1.539 . S
C585 H599 0.958 . S
C585 H600 0.961 . S
C585 H601 0.960 . S
H586 C570 0.905 1_554 S
H587 C575 0.929 . S
H588 C576 0.960 . S
H589 C576 0.962 . S
H590 C576 0.960 . S
H591 C577 0.961 . S
H592 C577 0.961 . S
H593 C577 0.961 . S
H594 C578 0.931 . S
H595 C583 0.930 . S
H596 C584 0.956 . S
H597 C584 0.961 . S
H598 C584 0.961 . S
H599 C585 0.958 . S
H600 C585 0.961 . S
H601 C585 0.960 . S
C602 C603 1.391 . S
C602 C604 1.394 . S
C602 H618 0.931 . S
C603 C602 1.391 . S
C603 C607 1.376 . S
C604 C602 1.394 . S
C604 C605 1.369 . S
C604 C608 1.531 . S
C605 C604 1.369 . S
C605 C606 1.410 . S
C605 C613 1.503 . S
C606 C605 1.410 . S
C606 C607 1.392 . S
C606 C609 1.511 1_556 S
C607 C603 1.376 . S
C607 C606 1.392 . S
C607 H619 0.929 . S
C608 C604 1.531 . S
C608 H620 0.960 . S
C608 H621 0.962 . S
C608 H622 0.960 . S
C609 C606 1.511 1_554 S
C609 H623 0.961 . S
C609 H624 0.961 . S
C609 H625 0.961 . S
C610 C611 1.370 . S
C610 C612 1.363 . S
C610 H626 0.931 . S
C611 C610 1.370 . S
C611 C615 1.408 . S
C612 C610 1.363 . S
C612 C613 1.370 . S
C612 C616 1.524 . S
C613 C605 1.503 . S
C613 C612 1.370 . S
C613 C614 1.403 . S
C614 C613 1.403 . S
C614 C615 1.404 . S
C614 C617 1.539 . S
C615 C611 1.408 . S
C615 C614 1.404 . S
C615 H627 0.930 . S
C616 C612 1.524 . S
C616 H628 0.956 . S
C616 H629 0.961 . S
C616 H630 0.961 . S
C617 C614 1.539 . S
C617 H631 0.958 . S
C617 H632 0.961 . S
C617 H633 0.960 . S
H618 C602 0.931 . S
H619 C607 0.929 . S
H620 C608 0.960 . S
H621 C608 0.962 . S
H622 C608 0.960 . S
H623 C609 0.961 . S
H624 C609 0.961 . S
H625 C609 0.961 . S
H626 C610 0.931 . S
H627 C615 0.930 . S
H628 C616 0.956 . S
H629 C616 0.961 . S
H630 C616 0.961 . S
H631 C617 0.958 . S
H632 C617 0.961 . S
H633 C617 0.960 . S
C634 C635 1.391 1_554 S
C634 C636 1.394 . S
C634 H650 0.931 . S
C635 C634 1.391 1_556 S
C635 C639 1.376 . S
C636 C634 1.394 . S
C636 C637 1.369 1_554 S
C636 C640 1.531 . S
C637 C636 1.369 1_556 S
C637 C638 1.410 . S
C637 C645 1.503 . S
C638 C637 1.410 . S
C638 C639 1.392 . S
C638 C641 1.511 . S
C639 C635 1.376 . S
C639 C638 1.392 . S
C639 H651 0.929 . S
C640 C636 1.531 . S
C640 H652 0.960 . S
C640 H653 0.962 . S
C640 H654 0.960 . S
C641 C638 1.511 . S
C641 H655 0.961 . S
C641 H656 0.961 . S
C641 H657 0.961 . S
C642 C643 1.358 1_556 S
C642 C644 1.363 . S
C642 H658 0.931 . S
C643 C642 1.358 1_554 S
C643 C647 1.422 . S
C644 C642 1.363 . S
C644 C645 1.370 . S
C644 C648 1.524 . S
C645 C637 1.503 . S
C645 C644 1.370 . S
C645 C646 1.403 1_556 S
C646 C645 1.403 1_554 S
C646 C647 1.404 . S
C646 C649 1.539 . S
C647 C643 1.422 . S
C647 C646 1.404 . S
C647 H659 0.930 . S
C648 C644 1.524 . S
C648 H660 0.956 . S
C648 H661 0.961 . S
C648 H662 0.961 . S
C649 C646 1.539 . S
C649 H663 0.958 . S
C649 H664 0.961 . S
C649 H665 0.960 . S
H650 C634 0.931 . S
H651 C639 0.929 . S
H652 C640 0.960 . S
H653 C640 0.962 . S
H654 C640 0.960 . S
H655 C641 0.961 . S
H656 C641 0.961 . S
H657 C641 0.961 . S
H658 C642 0.931 . S
H659 C647 0.930 . S
H660 C648 0.956 . S
H661 C648 0.961 . S
H662 C648 0.961 . S
H663 C649 0.958 . S
H664 C649 0.961 . S
H665 C649 0.960 . S
C666 C667 1.391 . S
C666 C668 1.394 . S
C666 H682 0.931 . S
C667 C666 1.391 . S
C667 C671 1.376 . S
C668 C666 1.394 . S
C668 C669 1.369 . S
C668 C672 1.531 1_554 S
C669 C668 1.369 . S
C669 C670 1.410 . S
C669 C677 1.503 . S
C670 C669 1.410 . S
C670 C671 1.392 . S
C670 C673 1.511 . S
C671 C667 1.376 . S
C671 C670 1.392 . S
C671 H683 0.929 . S
C672 C668 1.531 1_556 S
C672 H684 0.960 . S
C672 H685 0.962 . S
C672 H686 0.960 . S
C673 C670 1.511 . S
C673 H687 0.961 . S
C673 H688 0.961 . S
C673 H689 0.961 . S
C674 C675 1.370 . S
C674 C676 1.363 . S
C674 H690 0.931 . S
C675 C674 1.370 . S
C675 C679 1.408 . S
C676 C674 1.363 . S
C676 C677 1.370 . S
C676 C680 1.524 . S
C677 C669 1.503 . S
C677 C676 1.370 . S
C677 C678 1.403 . S
C678 C677 1.403 . S
C678 C679 1.404 . S
C678 C681 1.539 . S
C679 C675 1.408 . S
C679 C678 1.404 . S
C679 H691 0.930 . S
C680 C676 1.524 . S
C680 H692 0.956 . S
C680 H693 0.961 . S
C680 H694 0.961 . S
C681 C678 1.539 . S
C681 H695 0.958 1_554 S
C681 H696 0.961 . S
C681 H697 0.960 . S
H682 C666 0.931 . S
H683 C671 0.929 . S
H684 C672 0.960 . S
H685 C672 0.962 . S
H686 C672 0.960 . S
H687 C673 0.961 . S
H688 C673 0.961 . S
H689 C673 0.961 . S
H690 C674 0.931 . S
H691 C679 0.930 . S
H692 C680 0.956 . S
H693 C680 0.961 . S
H694 C680 0.961 . S
H695 C681 0.958 1_556 S
H696 C681 0.961 . S
H697 C681 0.960 . S
C698 C699 1.391 . S
C698 C700 1.394 . S
C698 H714 0.931 . S
C699 C698 1.391 . S
C699 C703 1.376 . S
C700 C698 1.394 . S
C700 C701 1.369 . S
C700 C704 1.531 . S
C701 C700 1.369 . S
C701 C702 1.410 . S
C701 C709 1.503 . S
C702 C701 1.410 . S
C702 C703 1.392 . S
C702 C705 1.511 . S
C703 C699 1.376 . S
C703 C702 1.392 . S
C703 H715 0.929 . S
C704 C700 1.531 . S
C704 H716 0.960 . S
C704 H717 0.962 . S
C704 H718 0.960 . S
C705 C702 1.511 . S
C705 H719 0.961 . S
C705 H720 0.961 . S
C705 H721 0.961 . S
C706 C707 1.370 . S
C706 C708 1.363 . S
C706 H722 0.931 . S
C707 C706 1.370 . S
C707 C711 1.408 . S
C708 C706 1.363 . S
C708 C709 1.370 . S
C708 C712 1.524 . S
C709 C701 1.503 . S
C709 C708 1.370 . S
C709 C710 1.403 . S
C710 C709 1.403 . S
C710 C711 1.404 . S
C710 C713 1.539 . S
C711 C707 1.408 . S
C711 C710 1.404 . S
C711 H723 0.930 . S
C712 C708 1.524 . S
C712 H724 0.956 . S
C712 H725 0.961 . S
C712 H726 0.961 . S
C713 C710 1.539 . S
C713 H727 0.958 . S
C713 H728 0.961 . S
C713 H729 0.960 . S
H714 C698 0.931 . S
H715 C703 0.929 . S
H716 C704 0.960 . S
H717 C704 0.962 . S
H718 C704 0.960 . S
H719 C705 0.961 . S
H720 C705 0.961 . S
H721 C705 0.961 . S
H722 C706 0.931 . S
H723 C711 0.930 . S
H724 C712 0.956 . S
H725 C712 0.961 . S
H726 C712 0.961 . S
H727 C713 0.958 . S
H728 C713 0.961 . S
H729 C713 0.960 . S
C730 C731 1.391 . S
C730 C732 1.394 . S
C730 H746 0.931 . S
C731 C730 1.391 . S
C731 C735 1.376 . S
C732 C730 1.394 . S
C732 C733 1.369 . S
C732 C736 1.531 1_554 S
C733 C732 1.369 . S
C733 C734 1.410 . S
C733 C741 1.503 . S
C734 C733 1.410 . S
C734 C735 1.392 . S
C734 C737 1.511 . S
C735 C731 1.376 . S
C735 C734 1.392 . S
C735 H747 0.929 . S
C736 C732 1.531 1_556 S
C736 H748 0.960 . S
C736 H749 0.962 . S
C736 H750 0.960 . S
C737 C734 1.511 . S
C737 H751 0.961 . S
C737 H752 0.961 . S
C737 H753 0.961 . S
C738 C739 1.370 . S
C738 C740 1.363 . S
C738 H754 0.931 . S
C739 C738 1.370 . S
C739 C743 1.408 . S
C740 C738 1.363 . S
C740 C741 1.370 . S
C740 C744 1.524 . S
C741 C733 1.503 . S
C741 C740 1.370 . S
C741 C742 1.403 . S
C742 C741 1.403 . S
C742 C743 1.404 . S
C742 C745 1.539 . S
C743 C739 1.408 . S
C743 C742 1.404 . S
C743 H755 0.930 . S
C744 C740 1.524 . S
C744 H756 0.956 . S
C744 H757 0.961 . S
C744 H758 0.961 . S
C745 C742 1.539 . S
C745 H759 0.958 1_554 S
C745 H760 0.961 . S
C745 H761 0.960 . S
H746 C730 0.931 . S
H747 C735 0.929 . S
H748 C736 0.960 . S
H749 C736 0.962 . S
H750 C736 0.960 . S
H751 C737 0.961 . S
H752 C737 0.961 . S
H753 C737 0.961 . S
H754 C738 0.931 . S
H755 C743 0.930 . S
H756 C744 0.956 . S
H757 C744 0.961 . S
H758 C744 0.961 . S
H759 C745 0.958 1_556 S
H760 C745 0.961 . S
H761 C745 0.960 . S
C762 C763 1.391 . S
C762 C764 1.394 . S
C762 H778 0.931 . S
C763 C762 1.391 . S
C763 C767 1.376 . S
C764 C762 1.394 . S
C764 C765 1.369 . S
C764 C768 1.531 . S
C765 C764 1.369 . S
C765 C766 1.410 . S
C765 C773 1.503 1_655 S
C766 C765 1.410 . S
C766 C767 1.392 . S
C766 C769 1.511 . S
C767 C763 1.376 . S
C767 C766 1.392 . S
C767 H779 0.929 . S
C768 C764 1.531 . S
C768 H780 0.970 . S
C768 H781 0.962 . S
C768 H782 0.960 . S
C769 C766 1.511 . S
C769 H783 0.961 . S
C769 H784 0.961 . S
C769 H785 0.961 . S
C770 C771 1.370 . S
C770 C772 1.363 . S
C770 H786 0.931 . S
C771 C770 1.370 . S
C771 C775 1.408 . S
C772 C770 1.363 . S
C772 C773 1.370 . S
C772 C776 1.524 1_455 S
C773 C765 1.503 1_455 S
C773 C772 1.370 . S
C773 C774 1.403 . S
C774 C773 1.403 . S
C774 C775 1.404 . S
C774 C777 1.539 . S
C775 C771 1.408 . S
C775 C774 1.404 . S
C775 H787 0.930 . S
C776 C772 1.524 1_655 S
C776 H788 0.956 . S
C776 H789 0.961 . S
C776 H790 0.961 . S
C777 C774 1.539 . S
C777 H791 0.958 . S
C777 H792 0.961 . S
C777 H793 0.960 . S
H778 C762 0.931 . S
H779 C767 0.929 . S
H780 C768 0.970 . S
H781 C768 0.962 . S
H782 C768 0.960 . S
H783 C769 0.961 . S
H784 C769 0.961 . S
H785 C769 0.961 . S
H786 C770 0.931 . S
H787 C775 0.930 . S
H788 C776 0.956 . S
H789 C776 0.961 . S
H790 C776 0.961 . S
H791 C777 0.958 . S
H792 C777 0.961 . S
H793 C777 0.960 . S
C794 C795 1.391 . S
C794 C796 1.394 . S
C794 H810 0.931 . S
C795 C794 1.391 . S
C795 C799 1.376 . S
C796 C794 1.394 . S
C796 C797 1.369 . S
C796 C800 1.531 . S
C797 C796 1.369 . S
C797 C798 1.410 . S
C797 C805 1.503 . S
C798 C797 1.410 . S
C798 C799 1.392 . S
C798 C801 1.511 . S
C799 C795 1.376 . S
C799 C798 1.392 . S
C799 H811 0.929 . S
C800 C796 1.531 . S
C800 H812 0.960 . S
C800 H813 0.962 . S
C800 H814 0.960 . S
C801 C798 1.511 . S
C801 H815 0.961 . S
C801 H816 0.961 . S
C801 H817 0.961 . S
C802 C803 1.370 . S
C802 C804 1.363 . S
C802 H818 0.931 . S
C803 C802 1.370 . S
C803 C807 1.408 . S
C804 C802 1.363 . S
C804 C805 1.370 . S
C804 C808 1.524 . S
C805 C797 1.503 . S
C805 C804 1.370 . S
C805 C806 1.403 . S
C806 C805 1.403 . S
C806 C807 1.404 . S
C806 C809 1.539 . S
C807 C803 1.408 . S
C807 C806 1.404 . S
C807 H819 0.930 . S
C808 C804 1.524 . S
C808 H820 0.956 . S
C808 H821 0.961 . S
C808 H822 0.961 . S
C809 C806 1.539 . S
C809 H823 0.958 . S
C809 H824 0.961 . S
C809 H825 0.960 . S
H810 C794 0.931 . S
H811 C799 0.929 . S
H812 C800 0.960 . S
H813 C800 0.962 . S
H814 C800 0.960 . S
H815 C801 0.961 . S
H816 C801 0.961 . S
H817 C801 0.961 . S
H818 C802 0.931 . S
H819 C807 0.930 . S
H820 C808 0.956 . S
H821 C808 0.961 . S
H822 C808 0.961 . S
H823 C809 0.958 . S
H824 C809 0.961 . S
H825 C809 0.960 . S
C826 C827 1.391 . S
C826 C828 1.394 . S
C826 H842 0.931 . S
C827 C826 1.391 . S
C827 C831 1.376 . S
C828 C826 1.394 . S
C828 C829 1.369 . S
C828 C832 1.531 . S
C829 C828 1.369 . S
C829 C830 1.410 . S
C829 C837 1.503 1_545 S
C830 C829 1.410 . S
C830 C831 1.392 . S
C830 C833 1.511 . S
C831 C827 1.376 . S
C831 C830 1.392 . S
C831 H843 0.929 . S
C832 C828 1.531 . S
C832 H844 0.960 . S
C832 H845 0.962 . S
C832 H846 0.960 . S
C833 C830 1.511 . S
C833 H847 0.961 . S
C833 H848 0.961 1_545 S
C833 H849 0.961 1_545 S
C834 C835 1.370 . S
C834 C836 1.363 . S
C834 H850 0.931 . S
C835 C834 1.370 . S
C835 C839 1.408 . S
C836 C834 1.363 . S
C836 C837 1.370 . S
C836 C840 1.524 1_565 S
C837 C829 1.503 1_565 S
C837 C836 1.370 . S
C837 C838 1.403 . S
C838 C837 1.403 . S
C838 C839 1.404 . S
C838 C841 1.539 . S
C839 C835 1.408 . S
C839 C838 1.404 . S
C839 H851 0.930 . S
C840 C836 1.524 1_545 S
C840 H852 0.956 . S
C840 H853 0.961 . S
C840 H854 0.961 1_545 S
C841 C838 1.539 . S
C841 H855 0.958 . S
C841 H856 0.961 . S
C841 H857 0.960 . S
H842 C826 0.931 . S
H843 C831 0.929 . S
H844 C832 0.960 . S
H845 C832 0.962 . S
H846 C832 0.960 . S
H847 C833 0.961 . S
H848 C833 0.961 1_565 S
H849 C833 0.961 1_565 S
H850 C834 0.931 . S
H851 C839 0.930 . S
H852 C840 0.956 . S
H853 C840 0.961 . S
H854 C840 0.961 1_565 S
H855 C841 0.958 . S
H856 C841 0.961 . S
H857 C841 0.960 . S
C858 C859 1.391 . S
C858 C860 1.394 . S
C858 H874 0.931 . S
C859 C858 1.391 . S
C859 C863 1.376 . S
C860 C858 1.394 . S
C860 C861 1.369 . S
C860 C864 1.531 . S
C861 C860 1.369 . S
C861 C862 1.410 . S
C861 C869 1.503 . S
C862 C861 1.410 . S
C862 C863 1.392 . S
C862 C865 1.511 . S
C863 C859 1.376 . S
C863 C862 1.392 . S
C863 H875 0.929 . S
C864 C860 1.531 . S
C864 H876 0.960 . S
C864 H877 0.962 . S
C864 H878 0.960 . S
C865 C862 1.511 . S
C865 H879 0.961 . S
C865 H880 0.961 . S
C865 H881 0.961 . S
C866 C867 1.370 . S
C866 C868 1.363 . S
C866 H882 0.931 . S
C867 C866 1.370 . S
C867 C871 1.408 . S
C868 C866 1.363 . S
C868 C869 1.370 . S
C868 C872 1.524 . S
C869 C861 1.503 . S
C869 C868 1.370 . S
C869 C870 1.403 . S
C870 C869 1.403 . S
C870 C871 1.404 . S
C870 C873 1.539 . S
C871 C867 1.408 . S
C871 C870 1.404 . S
C871 H883 0.930 . S
C872 C868 1.524 . S
C872 H884 0.956 . S
C872 H885 0.961 . S
C872 H886 0.961 . S
C873 C870 1.539 . S
C873 H887 0.958 . S
C873 H888 0.961 . S
C873 H889 0.960 . S
H874 C858 0.931 . S
H875 C863 0.929 . S
H876 C864 0.960 . S
H877 C864 0.962 . S
H878 C864 0.960 . S
H879 C865 0.961 . S
H880 C865 0.961 . S
H881 C865 0.961 . S
H882 C866 0.931 . S
H883 C871 0.930 . S
H884 C872 0.956 . S
H885 C872 0.961 . S
H886 C872 0.961 . S
H887 C873 0.958 . S
H888 C873 0.961 . S
H889 C873 0.960 . S
C890 C891 1.391 . S
C890 C892 1.394 . S
C890 H906 0.931 . S
C891 C890 1.391 . S
C891 C895 1.376 . S
C892 C890 1.394 . S
C892 C893 1.369 . S
C892 C896 1.531 . S
C893 C892 1.369 . S
C893 C894 1.410 . S
C893 C901 1.503 . S
C894 C893 1.410 . S
C894 C895 1.392 . S
C894 C897 1.511 . S
C895 C891 1.376 . S
C895 C894 1.392 . S
C895 H907 0.929 . S
C896 C892 1.531 . S
C896 H908 0.960 . S
C896 H909 0.962 . S
C896 H910 0.960 . S
C897 C894 1.511 . S
C897 H911 0.961 . S
C897 H912 0.961 . S
C897 H913 0.961 . S
C898 C899 1.370 . S
C898 C900 1.363 . S
C898 H914 0.931 . S
C899 C898 1.370 . S
C899 C903 1.408 . S
C900 C898 1.363 . S
C900 C901 1.370 . S
C900 C904 1.524 . S
C901 C893 1.503 . S
C901 C900 1.370 . S
C901 C902 1.403 . S
C902 C901 1.403 . S
C902 C903 1.404 . S
C902 C905 1.539 . S
C903 C899 1.408 . S
C903 C902 1.404 . S
C903 H915 0.930 . S
C904 C900 1.524 . S
C904 H916 0.956 . S
C904 H917 0.961 . S
C904 H918 0.961 . S
C905 C902 1.539 . S
C905 H919 0.958 . S
C905 H920 0.961 . S
C905 H921 0.960 . S
H906 C890 0.931 . S
H907 C895 0.929 . S
H908 C896 0.960 . S
H909 C896 0.962 . S
H910 C896 0.960 . S
H911 C897 0.961 . S
H912 C897 0.961 . S
H913 C897 0.961 . S
H914 C898 0.931 . S
H915 C903 0.930 . S
H916 C904 0.956 . S
H917 C904 0.961 . S
H918 C904 0.961 . S
H919 C905 0.958 . S
H920 C905 0.961 . S
H921 C905 0.960 . S
C922 C923 1.391 . S
C922 C924 1.394 . S
C922 H938 0.931 . S
C923 C922 1.391 . S
C923 C927 1.376 . S
C924 C922 1.394 . S
C924 C925 1.369 . S
C924 C928 1.531 . S
C925 C924 1.369 . S
C925 C926 1.410 . S
C925 C933 1.503 . S
C926 C925 1.410 . S
C926 C927 1.392 . S
C926 C929 1.511 . S
C927 C923 1.376 . S
C927 C926 1.392 . S
C927 H939 0.929 . S
C928 C924 1.531 . S
C928 H940 0.960 . S
C928 H941 0.962 . S
C928 H942 0.960 . S
C929 C926 1.511 . S
C929 H943 0.961 . S
C929 H944 0.961 . S
C929 H945 0.961 . S
C930 C931 1.370 . S
C930 C932 1.363 . S
C930 H946 0.931 . S
C931 C930 1.370 . S
C931 C935 1.408 . S
C932 C930 1.363 . S
C932 C933 1.370 . S
C932 C936 1.524 . S
C933 C925 1.503 . S
C933 C932 1.370 . S
C933 C934 1.403 . S
C934 C933 1.403 . S
C934 C935 1.404 . S
C934 C937 1.539 . S
C935 C931 1.408 . S
C935 C934 1.404 . S
C935 H947 0.930 . S
C936 C932 1.524 . S
C936 H948 0.956 . S
C936 H949 0.961 . S
C936 H950 0.961 . S
C937 C934 1.539 . S
C937 H951 0.958 . S
C937 H952 0.961 . S
C937 H953 0.960 . S
H938 C922 0.931 . S
H939 C927 0.929 . S
H940 C928 0.960 . S
H941 C928 0.962 . S
H942 C928 0.960 . S
H943 C929 0.961 . S
H944 C929 0.961 . S
H945 C929 0.961 . S
H946 C930 0.931 . S
H947 C935 0.930 . S
H948 C936 0.956 . S
H949 C936 0.961 . S
H950 C936 0.961 . S
H951 C937 0.958 . S
H952 C937 0.961 . S
H953 C937 0.960 . S
C954 C955 1.391 . S
C954 C956 1.394 . S
C954 H970 0.931 . S
C955 C954 1.391 . S
C955 C959 1.376 . S
C956 C954 1.394 . S
C956 C957 1.369 . S
C956 C960 1.531 . S
C957 C956 1.369 . S
C957 C958 1.410 . S
C957 C965 1.503 . S
C958 C957 1.410 . S
C958 C959 1.392 . S
C958 C961 1.511 . S
C959 C955 1.376 . S
C959 C958 1.392 . S
C959 H971 0.929 . S
C960 C956 1.531 . S
C960 H972 0.960 . S
C960 H973 0.962 . S
C960 H974 0.960 . S
C961 C958 1.511 . S
C961 H975 0.961 . S
C961 H976 0.961 . S
C961 H977 0.961 . S
C962 C963 1.370 . S
C962 C964 1.363 . S
C962 H978 0.931 . S
C963 C962 1.370 . S
C963 C967 1.408 . S
C964 C962 1.363 . S
C964 C965 1.370 . S
C964 C968 1.524 . S
C965 C957 1.503 . S
C965 C964 1.370 . S
C965 C966 1.403 . S
C966 C965 1.403 . S
C966 C967 1.404 . S
C966 C969 1.539 . S
C967 C963 1.408 . S
C967 C966 1.404 . S
C967 H979 0.930 . S
C968 C964 1.524 . S
C968 H980 0.956 . S
C968 H981 0.961 . S
C968 H982 0.961 . S
C969 C966 1.539 . S
C969 H983 0.958 . S
C969 H984 0.961 . S
C969 H985 0.960 . S
H970 C954 0.931 . S
H971 C959 0.929 . S
H972 C960 0.960 . S
H973 C960 0.962 . S
H974 C960 0.960 . S
H975 C961 0.961 . S
H976 C961 0.961 . S
H977 C961 0.961 . S
H978 C962 0.931 . S
H979 C967 0.930 . S
H980 C968 0.956 . S
H981 C968 0.961 . S
H982 C968 0.961 . S
H983 C969 0.958 . S
H984 C969 0.961 . S
H985 C969 0.960 . S
C986 C987 1.391 . S
C986 C988 1.394 . S
C986 H1002 0.931 . S
C987 C986 1.391 . S
C987 C991 1.376 . S
C988 C986 1.394 . S
C988 C989 1.369 . S
C988 C992 1.531 . S
C989 C988 1.369 . S
C989 C990 1.410 . S
C989 C997 1.503 . S
C990 C989 1.410 . S
C990 C991 1.392 . S
C990 C993 1.511 . S
C991 C987 1.376 . S
C991 C990 1.392 . S
C991 H1003 0.929 . S
C992 C988 1.531 . S
C992 H1004 0.960 . S
C992 H1005 0.962 . S
C992 H1006 0.960 . S
C993 C990 1.511 . S
C993 H1007 0.961 . S
C993 H1008 0.961 . S
C993 H1009 0.961 . S
C994 C995 1.370 . S
C994 C996 1.363 . S
C994 H1010 0.931 . S
C995 C994 1.370 . S
C995 C999 1.408 . S
C996 C994 1.363 . S
C996 C997 1.370 . S
C996 C1000 1.524 . S
C997 C989 1.503 . S
C997 C996 1.370 . S
C997 C998 1.403 . S
C998 C997 1.403 . S
C998 C999 1.404 . S
C998 C1001 1.539 . S
C999 C995 1.408 . S
C999 C998 1.404 . S
C999 H1011 0.930 . S
C1000 C996 1.524 . S
C1000 H1012 0.956 . S
C1000 H1013 0.961 . S
C1000 H1014 0.961 . S
C1001 C998 1.539 . S
C1001 H1015 0.958 . S
C1001 H1016 0.961 . S
C1001 H1017 0.960 . S
H1002 C986 0.931 . S
H1003 C991 0.929 . S
H1004 C992 0.960 . S
H1005 C992 0.962 . S
H1006 C992 0.960 . S
H1007 C993 0.961 . S
H1008 C993 0.961 . S
H1009 C993 0.961 . S
H1010 C994 0.931 . S
H1011 C999 0.930 . S
H1012 C1000 0.956 . S
H1013 C1000 0.961 . S
H1014 C1000 0.961 . S
H1015 C1001 0.958 . S
H1016 C1001 0.961 . S
H1017 C1001 0.960 . S
C1018 C1019 1.391 . S
C1018 C1020 1.394 . S
C1018 H1034 0.931 . S
C1019 C1018 1.391 . S
C1019 C1023 1.376 . S
C1020 C1018 1.394 . S
C1020 C1021 1.369 . S
C1020 C1024 1.531 . S
C1021 C1020 1.369 . S
C1021 C1022 1.410 . S
C1021 C1029 1.503 . S
C1022 C1021 1.410 . S
C1022 C1023 1.392 . S
C1022 C1025 1.511 . S
C1023 C1019 1.376 . S
C1023 C1022 1.392 . S
C1023 H1035 0.929 . S
C1024 C1020 1.531 . S
C1024 H1036 0.960 . S
C1024 H1037 0.962 . S
C1024 H1038 0.960 . S
C1025 C1022 1.511 . S
C1025 H1039 0.961 . S
C1025 H1040 0.961 . S
C1025 H1041 0.961 . S
C1026 C1027 1.370 . S
C1026 C1028 1.363 . S
C1026 H1042 0.931 . S
C1027 C1026 1.370 . S
C1027 C1031 1.408 . S
C1028 C1026 1.363 . S
C1028 C1029 1.370 . S
C1028 C1032 1.524 . S
C1029 C1021 1.503 . S
C1029 C1028 1.370 . S
C1029 C1030 1.403 . S
C1030 C1029 1.403 . S
C1030 C1031 1.404 . S
C1030 C1033 1.539 . S
C1031 C1027 1.408 . S
C1031 C1030 1.404 . S
C1031 H1043 0.930 . S
C1032 C1028 1.524 . S
C1032 H1044 0.956 . S
C1032 H1045 0.961 . S
C1032 H1046 0.961 . S
C1033 C1030 1.539 . S
C1033 H1047 0.958 . S
C1033 H1048 0.961 . S
C1033 H1049 0.960 . S
H1034 C1018 0.931 . S
H1035 C1023 0.929 . S
H1036 C1024 0.960 . S
H1037 C1024 0.962 . S
H1038 C1024 0.960 . S
H1039 C1025 0.961 . S
H1040 C1025 0.961 . S
H1041 C1025 0.961 . S
H1042 C1026 0.931 . S
H1043 C1031 0.930 . S
H1044 C1032 0.956 . S
H1045 C1032 0.961 . S
H1046 C1032 0.961 . S
H1047 C1033 0.958 . S
H1048 C1033 0.961 . S
H1049 C1033 0.960 . S
C1050 C1051 1.391 . S
C1050 C1052 1.394 1_545 S
C1050 H1066 0.931 . S
C1051 C1050 1.391 . S
C1051 C1055 1.376 . S
C1052 C1050 1.394 1_565 S
C1052 C1053 1.369 . S
C1052 C1056 1.531 . S
C1053 C1052 1.369 . S
C1053 C1054 1.410 . S
C1053 C1061 1.503 . S
C1054 C1053 1.410 . S
C1054 C1055 1.392 1_565 S
C1054 C1057 1.511 . S
C1055 C1051 1.376 . S
C1055 C1054 1.392 1_545 S
C1055 H1067 0.929 . S
C1056 C1052 1.531 . S
C1056 H1068 0.960 . S
C1056 H1069 0.962 . S
C1056 H1070 0.960 . S
C1057 C1054 1.511 . S
C1057 H1071 0.961 . S
C1057 H1072 0.961 . S
C1057 H1073 0.961 . S
C1058 C1059 1.370 . S
C1058 C1060 1.363 . S
C1058 H1074 0.931 . S
C1059 C1058 1.370 . S
C1059 C1063 1.408 . S
C1060 C1058 1.363 . S
C1060 C1061 1.370 . S
C1060 C1064 1.524 . S
C1061 C1053 1.503 . S
C1061 C1060 1.370 . S
C1061 C1062 1.403 . S
C1062 C1061 1.403 . S
C1062 C1063 1.404 . S
C1062 C1065 1.539 . S
C1063 C1059 1.408 . S
C1063 C1062 1.404 . S
C1063 H1075 0.930 . S
C1064 C1060 1.524 . S
C1064 H1076 0.956 . S
C1064 H1077 0.961 . S
C1064 H1078 0.961 . S
C1065 C1062 1.539 . S
C1065 H1079 0.958 . S
C1065 H1080 0.961 . S
C1065 H1081 0.960 . S
H1066 C1050 0.931 . S
H1067 C1055 0.929 . S
H1068 C1056 0.960 . S
H1069 C1056 0.962 . S
H1070 C1056 0.960 . S
H1071 C1057 0.961 . S
H1072 C1057 0.961 . S
H1073 C1057 0.961 . S
H1074 C1058 0.931 . S
H1075 C1063 0.930 . S
H1076 C1064 0.956 . S
H1077 C1064 0.961 . S
H1078 C1064 0.961 . S
H1079 C1065 0.958 . S
H1080 C1065 0.961 . S
H1081 C1065 0.960 . S
C1082 C1083 1.391 . S
C1082 C1084 1.394 1_655 S
C1082 H1098 0.931 . S
C1083 C1082 1.391 . S
C1083 C1087 1.376 . S
C1084 C1082 1.394 1_455 S
C1084 C1085 1.369 . S
C1084 C1088 1.531 . S
C1085 C1084 1.369 . S
C1085 C1086 1.410 . S
C1085 C1093 1.503 . S
C1086 C1085 1.410 . S
C1086 C1087 1.392 1_455 S
C1086 C1089 1.511 . S
C1087 C1083 1.376 . S
C1087 C1086 1.392 1_655 S
C1087 H1099 0.929 . S
C1088 C1084 1.531 . S
C1088 H1100 0.960 . S
C1088 H1101 0.962 . S
C1088 H1102 0.960 . S
C1089 C1086 1.511 . S
C1089 H1103 0.961 . S
C1089 H1104 0.961 . S
C1089 H1105 0.961 . S
C1090 C1091 1.370 . S
C1090 C1092 1.363 . S
C1090 H1106 0.931 . S
C1091 C1090 1.370 . S
C1091 C1095 1.408 . S
C1092 C1090 1.363 . S
C1092 C1093 1.370 . S
C1092 C1096 1.524 . S
C1093 C1085 1.503 . S
C1093 C1092 1.370 . S
C1093 C1094 1.403 . S
C1094 C1093 1.403 . S
C1094 C1095 1.404 . S
C1094 C1097 1.539 . S
C1095 C1091 1.408 . S
C1095 C1094 1.404 . S
C1095 H1107 0.930 . S
C1096 C1092 1.524 . S
C1096 H1108 0.956 . S
C1096 H1109 0.961 . S
C1096 H1110 0.961 . S
C1097 C1094 1.539 . S
C1097 H1111 0.958 . S
C1097 H1112 0.961 . S
C1097 H1113 0.960 . S
H1098 C1082 0.931 . S
H1099 C1087 0.929 . S
H1100 C1088 0.960 . S
H1101 C1088 0.962 . S
H1102 C1088 0.960 . S
H1103 C1089 0.961 . S
H1104 C1089 0.961 . S
H1105 C1089 0.961 . S
H1106 C1090 0.931 . S
H1107 C1095 0.930 . S
H1108 C1096 0.956 . S
H1109 C1096 0.961 . S
H1110 C1096 0.961 . S
H1111 C1097 0.958 . S
H1112 C1097 0.961 . S
H1113 C1097 0.960 . S
C1114 C1115 1.391 . S
C1114 C1116 1.394 . S
C1114 H1130 0.931 . S
C1115 C1114 1.391 . S
C1115 C1119 1.376 . S
C1116 C1114 1.394 . S
C1116 C1117 1.369 . S
C1116 C1120 1.531 . S
C1117 C1116 1.369 . S
C1117 C1118 1.410 . S
C1117 C1125 1.503 . S
C1118 C1117 1.410 . S
C1118 C1119 1.392 . S
C1118 C1121 1.511 . S
C1119 C1115 1.376 . S
C1119 C1118 1.392 . S
C1119 H1131 0.929 . S
C1120 C1116 1.531 . S
C1120 H1132 0.960 . S
C1120 H1133 0.962 . S
C1120 H1134 0.960 . S
C1121 C1118 1.511 . S
C1121 H1135 0.961 . S
C1121 H1136 0.961 . S
C1121 H1137 0.961 . S
C1122 C1123 1.370 . S
C1122 C1124 1.363 . S
C1122 H1138 0.931 . S
C1123 C1122 1.370 . S
C1123 C1127 1.408 . S
C1124 C1122 1.363 . S
C1124 C1125 1.370 . S
C1124 C1128 1.524 . S
C1125 C1117 1.503 . S
C1125 C1124 1.370 . S
C1125 C1126 1.403 . S
C1126 C1125 1.403 . S
C1126 C1127 1.404 . S
C1126 C1129 1.539 . S
C1127 C1123 1.408 . S
C1127 C1126 1.404 . S
C1127 H1139 0.930 . S
C1128 C1124 1.524 . S
C1128 H1140 0.956 . S
C1128 H1141 0.961 . S
C1128 H1142 0.961 . S
C1129 C1126 1.539 . S
C1129 H1143 0.958 . S
C1129 H1144 0.961 . S
C1129 H1145 0.960 . S
H1130 C1114 0.931 . S
H1131 C1119 0.929 . S
H1132 C1120 0.960 . S
H1133 C1120 0.962 . S
H1134 C1120 0.960 . S
H1135 C1121 0.961 . S
H1136 C1121 0.961 . S
H1137 C1121 0.961 . S
H1138 C1122 0.931 . S
H1139 C1127 0.930 . S
H1140 C1128 0.956 . S
H1141 C1128 0.961 . S
H1142 C1128 0.961 . S
H1143 C1129 0.958 . S
H1144 C1129 0.961 . S
H1145 C1129 0.960 . S
C1146 C1147 1.391 . S
C1146 C1148 1.394 . S
C1146 H1162 0.931 . S
C1147 C1146 1.391 . S
C1147 C1151 1.376 . S
C1148 C1146 1.394 . S
C1148 C1149 1.369 . S
C1148 C1152 1.531 . S
C1149 C1148 1.369 . S
C1149 C1150 1.410 . S
C1149 C1157 1.503 . S
C1150 C1149 1.410 . S
C1150 C1151 1.392 . S
C1150 C1153 1.511 . S
C1151 C1147 1.376 . S
C1151 C1150 1.392 . S
C1151 H1163 0.929 . S
C1152 C1148 1.531 . S
C1152 H1164 0.960 . S
C1152 H1165 0.962 . S
C1152 H1166 0.960 . S
C1153 C1150 1.511 . S
C1153 H1167 0.961 . S
C1153 H1168 0.961 . S
C1153 H1169 0.961 . S
C1154 C1155 1.370 . S
C1154 C1156 1.363 . S
C1154 H1170 0.931 . S
C1155 C1154 1.370 . S
C1155 C1159 1.408 . S
C1156 C1154 1.363 . S
C1156 C1157 1.370 . S
C1156 C1160 1.524 . S
C1157 C1149 1.503 . S
C1157 C1156 1.370 . S
C1157 C1158 1.403 . S
C1158 C1157 1.403 . S
C1158 C1159 1.404 . S
C1158 C1161 1.539 . S
C1159 C1155 1.408 . S
C1159 C1158 1.404 . S
C1159 H1171 0.930 . S
C1160 C1156 1.524 . S
C1160 H1172 0.956 . S
C1160 H1173 0.961 . S
C1160 H1174 0.961 . S
C1161 C1158 1.539 . S
C1161 H1175 0.958 . S
C1161 H1176 0.961 . S
C1161 H1177 0.960 . S
H1162 C1146 0.931 . S
H1163 C1151 0.929 . S
H1164 C1152 0.960 . S
H1165 C1152 0.962 . S
H1166 C1152 0.960 . S
H1167 C1153 0.961 . S
H1168 C1153 0.961 . S
H1169 C1153 0.961 . S
H1170 C1154 0.931 . S
H1171 C1159 0.930 . S
H1172 C1160 0.956 . S
H1173 C1160 0.961 . S
H1174 C1160 0.961 . S
H1175 C1161 0.958 . S
H1176 C1161 0.961 . S
H1177 C1161 0.960 . S
C1178 C1179 1.391 . S
C1178 C1180 1.394 . S
C1178 H1194 0.931 . S
C1179 C1178 1.391 . S
C1179 C1183 1.376 . S
C1180 C1178 1.394 . S
C1180 C1181 1.369 . S
C1180 C1184 1.531 . S
C1181 C1180 1.369 . S
C1181 C1182 1.410 . S
C1181 C1189 1.503 . S
C1182 C1181 1.410 . S
C1182 C1183 1.392 . S
C1182 C1185 1.511 . S
C1183 C1179 1.376 . S
C1183 C1182 1.392 . S
C1183 H1195 0.929 . S
C1184 C1180 1.531 . S
C1184 H1196 0.960 . S
C1184 H1197 0.962 . S
C1184 H1198 0.960 . S
C1185 C1182 1.511 . S
C1185 H1199 0.961 . S
C1185 H1200 0.961 . S
C1185 H1201 0.961 . S
C1186 C1187 1.370 . S
C1186 C1188 1.363 . S
C1186 H1202 0.931 . S
C1187 C1186 1.370 . S
C1187 C1191 1.408 . S
C1188 C1186 1.363 . S
C1188 C1189 1.370 . S
C1188 C1192 1.524 . S
C1189 C1181 1.503 . S
C1189 C1188 1.370 . S
C1189 C1190 1.403 . S
C1190 C1189 1.403 . S
C1190 C1191 1.404 . S
C1190 C1193 1.539 . S
C1191 C1187 1.408 . S
C1191 C1190 1.404 . S
C1191 H1203 0.930 . S
C1192 C1188 1.524 . S
C1192 H1204 0.956 . S
C1192 H1205 0.961 . S
C1192 H1206 0.961 . S
C1193 C1190 1.539 . S
C1193 H1207 0.958 . S
C1193 H1208 0.961 . S
C1193 H1209 0.960 . S
H1194 C1178 0.931 . S
H1195 C1183 0.929 . S
H1196 C1184 0.960 . S
H1197 C1184 0.962 . S
H1198 C1184 0.960 . S
H1199 C1185 0.961 . S
H1200 C1185 0.961 . S
H1201 C1185 0.961 . S
H1202 C1186 0.931 . S
H1203 C1191 0.930 . S
H1204 C1192 0.956 . S
H1205 C1192 0.961 . S
H1206 C1192 0.961 . S
H1207 C1193 0.958 . S
H1208 C1193 0.961 . S
H1209 C1193 0.960 . S
C1210 C1211 1.391 . S
C1210 C1212 1.394 . S
C1210 H1226 0.931 . S
C1211 C1210 1.391 . S
C1211 C1215 1.376 . S
C1212 C1210 1.394 . S
C1212 C1213 1.369 . S
C1212 C1216 1.531 . S
C1213 C1212 1.369 . S
C1213 C1214 1.410 . S
C1213 C1221 1.503 . S
C1214 C1213 1.410 . S
C1214 C1215 1.392 . S
C1214 C1217 1.511 . S
C1215 C1211 1.376 . S
C1215 C1214 1.392 . S
C1215 H1227 0.929 . S
C1216 C1212 1.531 . S
C1216 H1228 0.960 . S
C1216 H1229 0.962 . S
C1216 H1230 0.960 . S
C1217 C1214 1.511 . S
C1217 H1231 0.961 . S
C1217 H1232 0.961 . S
C1217 H1233 0.961 . S
C1218 C1219 1.370 . S
C1218 C1220 1.363 . S
C1218 H1234 0.931 . S
C1219 C1218 1.370 . S
C1219 C1223 1.408 . S
C1220 C1218 1.363 . S
C1220 C1221 1.370 . S
C1220 C1224 1.524 . S
C1221 C1213 1.503 . S
C1221 C1220 1.370 . S
C1221 C1222 1.403 . S
C1222 C1221 1.403 . S
C1222 C1223 1.404 . S
C1222 C1225 1.539 . S
C1223 C1219 1.408 . S
C1223 C1222 1.404 . S
C1223 H1235 0.930 . S
C1224 C1220 1.524 . S
C1224 H1236 0.956 . S
C1224 H1237 0.961 . S
C1224 H1238 0.961 . S
C1225 C1222 1.539 . S
C1225 H1239 0.958 . S
C1225 H1240 0.961 . S
C1225 H1241 0.960 . S
H1226 C1210 0.931 . S
H1227 C1215 0.929 . S
H1228 C1216 0.960 . S
H1229 C1216 0.962 . S
H1230 C1216 0.960 . S
H1231 C1217 0.961 . S
H1232 C1217 0.961 . S
H1233 C1217 0.961 . S
H1234 C1218 0.931 . S
H1235 C1223 0.930 . S
H1236 C1224 0.956 . S
H1237 C1224 0.961 . S
H1238 C1224 0.961 . S
H1239 C1225 0.958 . S
H1240 C1225 0.961 . S
H1241 C1225 0.960 . S
C1242 C1243 1.391 . S
C1242 C1244 1.394 . S
C1242 H1258 0.931 . S
C1243 C1242 1.391 . S
C1243 C1247 1.376 . S
C1244 C1242 1.394 . S
C1244 C1245 1.369 . S
C1244 C1248 1.531 . S
C1245 C1244 1.369 . S
C1245 C1246 1.410 . S
C1245 C1253 1.503 1_565 S
C1246 C1245 1.410 . S
C1246 C1247 1.392 . S
C1246 C1249 1.511 1_565 S
C1247 C1243 1.376 . S
C1247 C1246 1.392 . S
C1247 H1259 0.929 . S
C1248 C1244 1.531 . S
C1248 H1260 0.960 . S
C1248 H1261 0.962 . S
C1248 H1262 0.960 . S
C1249 C1246 1.511 1_545 S
C1249 H1263 0.961 1_545 S
C1249 H1264 0.961 . S
C1249 H1265 0.961 . S
C1250 C1251 1.370 . S
C1250 C1252 1.363 . S
C1250 H1266 0.931 . S
C1251 C1250 1.370 . S
C1251 C1255 1.408 . S
C1252 C1250 1.363 . S
C1252 C1253 1.370 . S
C1252 C1256 1.524 1_545 S
C1253 C1245 1.503 1_545 S
C1253 C1252 1.370 . S
C1253 C1254 1.403 . S
C1254 C1253 1.403 . S
C1254 C1255 1.404 . S
C1254 C1257 1.539 . S
C1255 C1251 1.408 . S
C1255 C1254 1.404 . S
C1255 H1267 0.930 . S
C1256 C1252 1.524 1_565 S
C1256 H1268 0.956 . S
C1256 H1269 0.961 . S
C1256 H1270 0.961 1_565 S
C1257 C1254 1.539 . S
C1257 H1271 0.958 . S
C1257 H1272 0.961 . S
C1257 H1273 0.960 . S
H1258 C1242 0.931 . S
H1259 C1247 0.929 . S
H1260 C1248 0.960 . S
H1261 C1248 0.962 . S
H1262 C1248 0.960 . S
H1263 C1249 0.961 1_565 S
H1264 C1249 0.961 . S
H1265 C1249 0.961 . S
H1266 C1250 0.931 . S
H1267 C1255 0.930 . S
H1268 C1256 0.956 . S
H1269 C1256 0.961 . S
H1270 C1256 0.961 1_545 S
H1271 C1257 0.958 . S
H1272 C1257 0.961 . S
H1273 C1257 0.960 . S
C1274 C1275 1.391 . S
C1274 C1276 1.394 . S
C1274 H1290 0.931 . S
C1275 C1274 1.391 . S
C1275 C1279 1.376 . S
C1276 C1274 1.394 . S
C1276 C1277 1.369 . S
C1276 C1280 1.531 1_455 S
C1277 C1276 1.369 . S
C1277 C1278 1.410 . S
C1277 C1285 1.503 1_455 S
C1278 C1277 1.410 . S
C1278 C1279 1.392 . S
C1278 C1281 1.511 . S
C1279 C1275 1.376 . S
C1279 C1278 1.392 . S
C1279 H1291 0.929 . S
C1280 C1276 1.531 1_655 S
C1280 H1292 0.960 . S
C1280 H1293 0.962 . S
C1280 H1294 0.942 1_655 S
C1281 C1278 1.511 . S
C1281 H1295 0.961 . S
C1281 H1296 0.961 . S
C1281 H1297 0.961 . S
C1282 C1283 1.370 . S
C1282 C1284 1.363 . S
C1282 H1298 0.931 . S
C1283 C1282 1.370 . S
C1283 C1287 1.408 . S
C1284 C1282 1.363 . S
C1284 C1285 1.370 . S
C1284 C1288 1.524 . S
C1285 C1277 1.503 1_655 S
C1285 C1284 1.370 . S
C1285 C1286 1.403 . S
C1286 C1285 1.403 . S
C1286 C1287 1.404 . S
C1286 C1289 1.539 1_655 S
C1287 C1283 1.408 . S
C1287 C1286 1.404 . S
C1287 H1299 0.930 . S
C1288 C1284 1.524 . S
C1288 H1300 0.956 . S
C1288 H1301 0.961 1_655 S
C1288 H1302 0.961 . S
C1289 C1286 1.539 1_455 S
C1289 H1303 0.958 1_455 S
C1289 H1304 0.961 1_455 S
C1289 H1305 0.960 . S
H1290 C1274 0.931 . S
H1291 C1279 0.929 . S
H1292 C1280 0.960 . S
H1293 C1280 0.962 . S
H1294 C1280 0.942 1_455 S
H1295 C1281 0.961 . S
H1296 C1281 0.961 . S
H1297 C1281 0.961 . S
H1298 C1282 0.931 . S
H1299 C1287 0.930 . S
H1300 C1288 0.956 . S
H1301 C1288 0.961 1_455 S
H1302 C1288 0.961 . S
H1303 C1289 0.958 1_655 S
H1304 C1289 0.961 1_655 S
H1305 C1289 0.960 . S
C1306 C1307 1.391 . S
C1306 C1308 1.394 . S
C1306 H1322 0.931 . S
C1307 C1306 1.391 . S
C1307 C1311 1.376 . S
C1308 C1306 1.394 . S
C1308 C1309 1.369 . S
C1308 C1312 1.531 . S
C1309 C1308 1.369 . S
C1309 C1310 1.410 . S
C1309 C1317 1.503 . S
C1310 C1309 1.410 . S
C1310 C1311 1.392 . S
C1310 C1313 1.511 . S
C1311 C1307 1.376 . S
C1311 C1310 1.392 . S
C1311 H1323 0.929 . S
C1312 C1308 1.531 . S
C1312 H1324 0.960 . S
C1312 H1325 0.962 . S
C1312 H1326 0.960 . S
C1313 C1310 1.511 . S
C1313 H1327 0.961 . S
C1313 H1328 0.961 . S
C1313 H1329 0.961 . S
C1314 C1315 1.370 . S
C1314 C1316 1.363 . S
C1314 H1330 0.931 . S
C1315 C1314 1.370 . S
C1315 C1319 1.408 . S
C1316 C1314 1.363 . S
C1316 C1317 1.370 . S
C1316 C1320 1.524 . S
C1317 C1309 1.503 . S
C1317 C1316 1.370 . S
C1317 C1318 1.403 . S
C1318 C1317 1.403 . S
C1318 C1319 1.404 . S
C1318 C1321 1.539 . S
C1319 C1315 1.408 . S
C1319 C1318 1.404 . S
C1319 H1331 0.930 . S
C1320 C1316 1.524 . S
C1320 H1332 0.956 . S
C1320 H1333 0.961 . S
C1320 H1334 0.961 . S
C1321 C1318 1.539 . S
C1321 H1335 0.958 . S
C1321 H1336 0.961 . S
C1321 H1337 0.960 . S
H1322 C1306 0.931 . S
H1323 C1311 0.929 . S
H1324 C1312 0.960 . S
H1325 C1312 0.962 . S
H1326 C1312 0.960 . S
H1327 C1313 0.961 . S
H1328 C1313 0.961 . S
H1329 C1313 0.961 . S
H1330 C1314 0.931 . S
H1331 C1319 0.930 . S
H1332 C1320 0.956 . S
H1333 C1320 0.961 . S
H1334 C1320 0.961 . S
H1335 C1321 0.958 . S
H1336 C1321 0.961 . S
H1337 C1321 0.960 . S
C1338 C1339 1.391 . S
C1338 C1340 1.394 . S
C1338 H1354 0.931 . S
C1339 C1338 1.391 . S
C1339 C1343 1.376 . S
C1340 C1338 1.394 . S
C1340 C1341 1.369 1_455 S
C1340 C1344 1.531 1_455 S
C1341 C1340 1.369 1_655 S
C1341 C1342 1.410 1_655 S
C1341 C1349 1.503 . S
C1342 C1341 1.410 1_455 S
C1342 C1343 1.392 . S
C1342 C1345 1.511 . S
C1343 C1339 1.376 . S
C1343 C1342 1.392 . S
C1343 H1355 0.929 . S
C1344 C1340 1.531 1_655 S
C1344 H1356 0.960 . S
C1344 H1357 0.962 . S
C1344 H1358 0.960 . S
C1345 C1342 1.511 . S
C1345 H1359 0.961 . S
C1345 H1360 0.961 1_455 S
C1345 H1361 0.961 . S
C1346 C1347 1.370 . S
C1346 C1348 1.363 . S
C1346 H1362 0.931 . S
C1347 C1346 1.370 . S
C1347 C1351 1.408 . S
C1348 C1346 1.363 . S
C1348 C1349 1.370 . S
C1348 C1352 1.524 . S
C1349 C1341 1.503 . S
C1349 C1348 1.370 . S
C1349 C1350 1.403 . S
C1350 C1349 1.403 . S
C1350 C1351 1.404 . S
C1350 C1353 1.539 . S
C1351 C1347 1.408 . S
C1351 C1350 1.404 . S
C1351 H1363 0.930 . S
C1352 C1348 1.524 . S
C1352 H1364 0.956 . S
C1352 H1365 0.961 . S
C1352 H1366 0.961 . S
C1353 C1350 1.539 . S
C1353 H1367 0.958 . S
C1353 H1368 0.961 . S
C1353 H1369 0.960 . S
H1354 C1338 0.931 . S
H1355 C1343 0.929 . S
H1356 C1344 0.960 . S
H1357 C1344 0.962 . S
H1358 C1344 0.960 . S
H1359 C1345 0.961 . S
H1360 C1345 0.961 1_655 S
H1361 C1345 0.961 . S
H1362 C1346 0.931 . S
H1363 C1351 0.930 . S
H1364 C1352 0.956 . S
H1365 C1352 0.961 . S
H1366 C1352 0.961 . S
H1367 C1353 0.958 . S
H1368 C1353 0.961 . S
H1369 C1353 0.960 . S
C1370 C1371 1.391 . S
C1370 C1372 1.394 . S
C1370 H1386 0.931 . S
C1371 C1370 1.391 . S
C1371 C1375 1.376 . S
C1372 C1370 1.394 . S
C1372 C1373 1.369 . S
C1372 C1376 1.531 . S
C1373 C1372 1.369 . S
C1373 C1374 1.410 . S
C1373 C1381 1.503 . S
C1374 C1373 1.410 . S
C1374 C1375 1.392 . S
C1374 C1377 1.511 . S
C1375 C1371 1.376 . S
C1375 C1374 1.392 . S
C1375 H1387 0.929 . S
C1376 C1372 1.531 . S
C1376 H1388 0.960 . S
C1376 H1389 0.962 . S
C1376 H1390 0.960 . S
C1377 C1374 1.511 . S
C1377 H1391 0.961 . S
C1377 H1392 0.961 . S
C1377 H1393 0.961 . S
C1378 C1379 1.370 . S
C1378 C1380 1.363 . S
C1378 H1394 0.931 . S
C1379 C1378 1.370 . S
C1379 C1383 1.408 . S
C1380 C1378 1.363 . S
C1380 C1381 1.370 . S
C1380 C1384 1.524 . S
C1381 C1373 1.503 . S
C1381 C1380 1.370 . S
C1381 C1382 1.403 . S
C1382 C1381 1.403 . S
C1382 C1383 1.404 . S
C1382 C1385 1.539 . S
C1383 C1379 1.408 . S
C1383 C1382 1.404 . S
C1383 H1395 0.930 . S
C1384 C1380 1.524 . S
C1384 H1396 0.956 . S
C1384 H1397 0.961 . S
C1384 H1398 0.961 . S
C1385 C1382 1.539 . S
C1385 H1399 0.958 . S
C1385 H1400 0.961 . S
C1385 H1401 0.960 . S
H1386 C1370 0.931 . S
H1387 C1375 0.929 . S
H1388 C1376 0.960 . S
H1389 C1376 0.962 . S
H1390 C1376 0.960 . S
H1391 C1377 0.961 . S
H1392 C1377 0.961 . S
H1393 C1377 0.961 . S
H1394 C1378 0.931 . S
H1395 C1383 0.930 . S
H1396 C1384 0.956 . S
H1397 C1384 0.961 . S
H1398 C1384 0.961 . S
H1399 C1385 0.958 . S
H1400 C1385 0.961 . S
H1401 C1385 0.960 . S
C1402 C1403 1.391 . S
C1402 C1404 1.394 1_565 S
C1402 H1418 0.931 . S
C1403 C1402 1.391 . S
C1403 C1407 1.376 . S
C1404 C1402 1.394 1_545 S
C1404 C1405 1.369 . S
C1404 C1408 1.531 . S
C1405 C1404 1.369 . S
C1405 C1406 1.410 . S
C1405 C1413 1.503 . S
C1406 C1405 1.410 . S
C1406 C1407 1.392 1_545 S
C1406 C1409 1.511 . S
C1407 C1403 1.376 . S
C1407 C1406 1.392 1_565 S
C1407 H1419 0.929 . S
C1408 C1404 1.531 . S
C1408 H1420 0.960 . S
C1408 H1421 0.962 . S
C1408 H1422 0.960 . S
C1409 C1406 1.511 . S
C1409 H1423 0.961 . S
C1409 H1424 0.961 . S
C1409 H1425 0.961 . S
C1410 C1411 1.370 . S
C1410 C1412 1.363 . S
C1410 H1426 0.931 . S
C1411 C1410 1.370 . S
C1411 C1415 1.408 . S
C1412 C1410 1.363 . S
C1412 C1413 1.370 . S
C1412 C1416 1.524 . S
C1413 C1405 1.503 . S
C1413 C1412 1.370 . S
C1413 C1414 1.403 . S
C1414 C1413 1.403 . S
C1414 C1415 1.404 . S
C1414 C1417 1.539 . S
C1415 C1411 1.408 . S
C1415 C1414 1.404 . S
C1415 H1427 0.930 . S
C1416 C1412 1.524 . S
C1416 H1428 0.956 . S
C1416 H1429 0.961 . S
C1416 H1430 0.961 . S
C1417 C1414 1.539 . S
C1417 H1431 0.958 . S
C1417 H1432 0.961 . S
C1417 H1433 0.960 . S
H1418 C1402 0.931 . S
H1419 C1407 0.929 . S
H1420 C1408 0.960 . S
H1421 C1408 0.962 . S
H1422 C1408 0.960 . S
H1423 C1409 0.961 . S
H1424 C1409 0.961 . S
H1425 C1409 0.961 . S
H1426 C1410 0.931 . S
H1427 C1415 0.930 . S
H1428 C1416 0.956 . S
H1429 C1416 0.961 . S
H1430 C1416 0.961 . S
H1431 C1417 0.958 . S
H1432 C1417 0.961 . S
H1433 C1417 0.960 . S
C1434 C1435 1.391 . S
C1434 C1436 1.394 . S
C1434 H1450 0.931 . S
C1435 C1434 1.391 . S
C1435 C1439 1.376 . S
C1436 C1434 1.394 . S
C1436 C1437 1.369 . S
C1436 C1440 1.531 . S
C1437 C1436 1.369 . S
C1437 C1438 1.410 . S
C1437 C1445 1.503 . S
C1438 C1437 1.410 . S
C1438 C1439 1.392 . S
C1438 C1441 1.511 . S
C1439 C1435 1.376 . S
C1439 C1438 1.392 . S
C1439 H1451 0.929 . S
C1440 C1436 1.531 . S
C1440 H1452 0.960 . S
C1440 H1453 0.962 . S
C1440 H1454 0.960 . S
C1441 C1438 1.511 . S
C1441 H1455 0.961 . S
C1441 H1456 0.961 . S
C1441 H1457 0.961 . S
C1442 C1443 1.370 . S
C1442 C1444 1.363 . S
C1442 H1458 0.931 . S
C1443 C1442 1.370 . S
C1443 C1447 1.408 . S
C1444 C1442 1.363 . S
C1444 C1445 1.370 . S
C1444 C1448 1.524 . S
C1445 C1437 1.503 . S
C1445 C1444 1.370 . S
C1445 C1446 1.403 . S
C1446 C1445 1.403 . S
C1446 C1447 1.404 . S
C1446 C1449 1.539 . S
C1447 C1443 1.408 . S
C1447 C1446 1.404 . S
C1447 H1459 0.930 . S
C1448 C1444 1.524 . S
C1448 H1460 0.956 . S
C1448 H1461 0.961 . S
C1448 H1462 0.961 . S
C1449 C1446 1.539 . S
C1449 H1463 0.958 . S
C1449 H1464 0.961 . S
C1449 H1465 0.960 . S
H1450 C1434 0.931 . S
H1451 C1439 0.929 . S
H1452 C1440 0.960 . S
H1453 C1440 0.962 . S
H1454 C1440 0.960 . S
H1455 C1441 0.961 . S
H1456 C1441 0.961 . S
H1457 C1441 0.961 . S
H1458 C1442 0.931 . S
H1459 C1447 0.930 . S
H1460 C1448 0.956 . S
H1461 C1448 0.961 . S
H1462 C1448 0.961 . S
H1463 C1449 0.958 . S
H1464 C1449 0.961 . S
H1465 C1449 0.960 . S
C1466 C1467 1.391 . S
C1466 C1468 1.394 . S
C1466 H1482 0.931 . S
C1467 C1466 1.391 . S
C1467 C1471 1.376 . S
C1468 C1466 1.394 . S
C1468 C1469 1.369 . S
C1468 C1472 1.531 . S
C1469 C1468 1.369 . S
C1469 C1470 1.410 . S
C1469 C1477 1.503 . S
C1470 C1469 1.410 . S
C1470 C1471 1.392 . S
C1470 C1473 1.511 . S
C1471 C1467 1.376 . S
C1471 C1470 1.392 . S
C1471 H1483 0.929 . S
C1472 C1468 1.531 . S
C1472 H1484 0.960 . S
C1472 H1485 0.962 . S
C1472 H1486 0.960 . S
C1473 C1470 1.511 . S
C1473 H1487 0.961 . S
C1473 H1488 0.961 . S
C1473 H1489 0.961 . S
C1474 C1475 1.370 . S
C1474 C1476 1.363 . S
C1474 H1490 0.931 . S
C1475 C1474 1.370 . S
C1475 C1479 1.408 . S
C1476 C1474 1.363 . S
C1476 C1477 1.370 . S
C1476 C1480 1.524 . S
C1477 C1469 1.503 . S
C1477 C1476 1.370 . S
C1477 C1478 1.403 . S
C1478 C1477 1.403 . S
C1478 C1479 1.404 . S
C1478 C1481 1.539 . S
C1479 C1475 1.408 . S
C1479 C1478 1.404 . S
C1479 H1491 0.930 . S
C1480 C1476 1.524 . S
C1480 H1492 0.956 . S
C1480 H1493 0.961 . S
C1480 H1494 0.961 . S
C1481 C1478 1.539 . S
C1481 H1495 0.958 . S
C1481 H1496 0.961 . S
C1481 H1497 0.960 . S
H1482 C1466 0.931 . S
H1483 C1471 0.929 . S
H1484 C1472 0.960 . S
H1485 C1472 0.962 . S
H1486 C1472 0.960 . S
H1487 C1473 0.961 . S
H1488 C1473 0.961 . S
H1489 C1473 0.961 . S
H1490 C1474 0.931 . S
H1491 C1479 0.930 . S
H1492 C1480 0.956 . S
H1493 C1480 0.961 . S
H1494 C1480 0.961 . S
H1495 C1481 0.958 . S
H1496 C1481 0.961 . S
H1497 C1481 0.960 . S
C1498 C1499 1.391 . S
C1498 C1500 1.394 . S
C1498 H1514 0.931 . S
C1499 C1498 1.391 . S
C1499 C1503 1.376 . S
C1500 C1498 1.394 . S
C1500 C1501 1.369 . S
C1500 C1504 1.531 . S
C1501 C1500 1.369 . S
C1501 C1502 1.410 . S
C1501 C1509 1.503 . S
C1502 C1501 1.410 . S
C1502 C1503 1.392 . S
C1502 C1505 1.511 . S
C1503 C1499 1.376 . S
C1503 C1502 1.392 . S
C1503 H1515 0.929 . S
C1504 C1500 1.531 . S
C1504 H1516 0.960 . S
C1504 H1517 0.962 . S
C1504 H1518 0.960 . S
C1505 C1502 1.511 . S
C1505 H1519 0.961 . S
C1505 H1520 0.961 . S
C1505 H1521 0.961 . S
C1506 C1507 1.370 . S
C1506 C1508 1.363 . S
C1506 H1522 0.931 . S
C1507 C1506 1.370 . S
C1507 C1511 1.408 . S
C1508 C1506 1.363 . S
C1508 C1509 1.370 . S
C1508 C1512 1.524 . S
C1509 C1501 1.503 . S
C1509 C1508 1.370 . S
C1509 C1510 1.403 . S
C1510 C1509 1.403 . S
C1510 C1511 1.404 . S
C1510 C1513 1.539 . S
C1511 C1507 1.408 . S
C1511 C1510 1.404 . S
C1511 H1523 0.930 . S
C1512 C1508 1.524 . S
C1512 H1524 0.956 . S
C1512 H1525 0.961 . S
C1512 H1526 0.961 . S
C1513 C1510 1.539 . S
C1513 H1527 0.958 . S
C1513 H1528 0.961 . S
C1513 H1529 0.960 . S
H1514 C1498 0.931 . S
H1515 C1503 0.929 . S
H1516 C1504 0.960 . S
H1517 C1504 0.962 . S
H1518 C1504 0.960 . S
H1519 C1505 0.961 . S
H1520 C1505 0.961 . S
H1521 C1505 0.961 . S
H1522 C1506 0.931 . S
H1523 C1511 0.930 . S
H1524 C1512 0.956 . S
H1525 C1512 0.961 . S
H1526 C1512 0.961 . S
H1527 C1513 0.958 . S
H1528 C1513 0.961 . S
H1529 C1513 0.960 . S
C1530 C1531 1.391 . S
C1530 C1532 1.394 . S
C1530 H1546 0.931 . S
C1531 C1530 1.391 . S
C1531 C1535 1.376 . S
C1532 C1530 1.394 . S
C1532 C1533 1.369 . S
C1532 C1536 1.531 . S
C1533 C1532 1.369 . S
C1533 C1534 1.410 . S
C1533 C1541 1.503 . S
C1534 C1533 1.410 . S
C1534 C1535 1.392 . S
C1534 C1537 1.511 . S
C1535 C1531 1.376 . S
C1535 C1534 1.392 . S
C1535 H1547 0.929 . S
C1536 C1532 1.531 . S
C1536 H1548 0.960 . S
C1536 H1549 0.962 . S
C1536 H1550 0.960 . S
C1537 C1534 1.511 . S
C1537 H1551 0.961 . S
C1537 H1552 0.961 . S
C1537 H1553 0.961 . S
C1538 C1539 1.370 . S
C1538 C1540 1.363 . S
C1538 H1554 0.931 1_565 S
C1539 C1538 1.370 . S
C1539 C1543 1.408 . S
C1540 C1538 1.363 . S
C1540 C1541 1.370 . S
C1540 C1544 1.524 . S
C1541 C1533 1.503 . S
C1541 C1540 1.370 . S
C1541 C1542 1.403 . S
C1542 C1541 1.403 . S
C1542 C1543 1.404 . S
C1542 C1545 1.539 . S
C1543 C1539 1.408 . S
C1543 C1542 1.404 . S
C1543 H1555 0.930 . S
C1544 C1540 1.524 . S
C1544 H1556 0.956 . S
C1544 H1557 0.961 . S
C1544 H1558 0.961 1_565 S
C1545 C1542 1.539 . S
C1545 H1559 0.958 . S
C1545 H1560 0.961 . S
C1545 H1561 0.960 . S
H1546 C1530 0.931 . S
H1547 C1535 0.929 . S
H1548 C1536 0.960 . S
H1549 C1536 0.962 . S
H1550 C1536 0.960 . S
H1551 C1537 0.961 . S
H1552 C1537 0.961 . S
H1553 C1537 0.961 . S
H1554 C1538 0.931 1_545 S
H1555 C1543 0.930 . S
H1556 C1544 0.956 . S
H1557 C1544 0.961 . S
H1558 C1544 0.961 1_545 S
H1559 C1545 0.958 . S
H1560 C1545 0.961 . S
H1561 C1545 0.960 . S
C1562 C1563 1.391 . S
C1562 C1564 1.394 . S
C1562 H1578 0.931 . S
C1563 C1562 1.391 . S
C1563 C1567 1.376 . S
C1564 C1562 1.394 . S
C1564 C1565 1.369 . S
C1564 C1568 1.531 . S
C1565 C1564 1.369 . S
C1565 C1566 1.410 . S
C1565 C1573 1.503 . S
C1566 C1565 1.410 . S
C1566 C1567 1.392 . S
C1566 C1569 1.511 . S
C1567 C1563 1.376 . S
C1567 C1566 1.392 . S
C1567 H1579 0.929 . S
C1568 C1564 1.531 . S
C1568 H1580 0.960 . S
C1568 H1581 0.962 . S
C1568 H1582 0.960 . S
C1569 C1566 1.511 . S
C1569 H1583 0.961 . S
C1569 H1584 0.961 . S
C1569 H1585 0.961 . S
C1570 C1571 1.370 . S
C1570 C1572 1.363 . S
C1570 H1586 0.931 . S
C1571 C1570 1.370 . S
C1571 C1575 1.408 . S
C1572 C1570 1.363 . S
C1572 C1573 1.370 . S
C1572 C1576 1.524 . S
C1573 C1565 1.503 . S
C1573 C1572 1.370 . S
C1573 C1574 1.403 . S
C1574 C1573 1.403 . S
C1574 C1575 1.404 . S
C1574 C1577 1.539 . S
C1575 C1571 1.408 . S
C1575 C1574 1.404 . S
C1575 H1587 0.930 . S
C1576 C1572 1.524 . S
C1576 H1588 0.956 . S
C1576 H1589 0.961 . S
C1576 H1590 0.961 . S
C1577 C1574 1.539 . S
C1577 H1591 0.958 . S
C1577 H1592 0.961 1_455 S
C1577 H1593 0.960 . S
H1578 C1562 0.931 . S
H1579 C1567 0.929 . S
H1580 C1568 0.960 . S
H1581 C1568 0.962 . S
H1582 C1568 0.960 . S
H1583 C1569 0.961 . S
H1584 C1569 0.961 . S
H1585 C1569 0.961 . S
H1586 C1570 0.931 . S
H1587 C1575 0.930 . S
H1588 C1576 0.956 . S
H1589 C1576 0.961 . S
H1590 C1576 0.961 . S
H1591 C1577 0.958 . S
H1592 C1577 0.961 1_655 S
H1593 C1577 0.960 . S
C1594 C1595 1.391 . S
C1594 C1596 1.394 . S
C1594 H1610 0.931 . S
C1595 C1594 1.391 . S
C1595 C1599 1.376 . S
C1596 C1594 1.394 . S
C1596 C1597 1.369 . S
C1596 C1600 1.531 . S
C1597 C1596 1.369 . S
C1597 C1598 1.410 . S
C1597 C1605 1.503 . S
C1598 C1597 1.410 . S
C1598 C1599 1.392 . S
C1598 C1601 1.511 . S
C1599 C1595 1.376 . S
C1599 C1598 1.392 . S
C1599 H1611 0.929 . S
C1600 C1596 1.531 . S
C1600 H1612 0.960 . S
C1600 H1613 0.962 . S
C1600 H1614 0.960 . S
C1601 C1598 1.511 . S
C1601 H1615 0.961 . S
C1601 H1616 0.961 . S
C1601 H1617 0.961 . S
C1602 C1603 1.370 . S
C1602 C1604 1.363 . S
C1602 H1618 0.931 . S
C1603 C1602 1.370 . S
C1603 C1607 1.408 . S
C1604 C1602 1.363 . S
C1604 C1605 1.370 . S
C1604 C1608 1.524 . S
C1605 C1597 1.503 . S
C1605 C1604 1.370 . S
C1605 C1606 1.403 . S
C1606 C1605 1.403 . S
C1606 C1607 1.404 . S
C1606 C1609 1.539 . S
C1607 C1603 1.408 . S
C1607 C1606 1.404 . S
C1607 H1619 0.930 . S
C1608 C1604 1.524 . S
C1608 H1620 0.956 . S
C1608 H1621 0.961 . S
C1608 H1622 0.961 . S
C1609 C1606 1.539 . S
C1609 H1623 0.958 . S
C1609 H1624 0.961 . S
C1609 H1625 0.960 . S
H1610 C1594 0.931 . S
H1611 C1599 0.929 . S
H1612 C1600 0.960 . S
H1613 C1600 0.962 . S
H1614 C1600 0.960 . S
H1615 C1601 0.961 . S
H1616 C1601 0.961 . S
H1617 C1601 0.961 . S
H1618 C1602 0.931 . S
H1619 C1607 0.930 . S
H1620 C1608 0.956 . S
H1621 C1608 0.961 . S
H1622 C1608 0.961 . S
H1623 C1609 0.958 . S
H1624 C1609 0.961 . S
H1625 C1609 0.960 . S
C1626 C1627 1.391 . S
C1626 C1628 1.394 . S
C1626 H1642 0.931 . S
C1627 C1626 1.391 . S
C1627 C1631 1.376 . S
C1628 C1626 1.394 . S
C1628 C1629 1.369 . S
C1628 C1632 1.531 . S
C1629 C1628 1.369 . S
C1629 C1630 1.410 . S
C1629 C1637 1.503 . S
C1630 C1629 1.410 . S
C1630 C1631 1.392 . S
C1630 C1633 1.511 . S
C1631 C1627 1.376 . S
C1631 C1630 1.392 . S
C1631 H1643 0.929 . S
C1632 C1628 1.531 . S
C1632 H1644 0.960 1_655 S
C1632 H1645 0.989 . S
C1632 H1646 0.960 1_655 S
C1633 C1630 1.511 . S
C1633 H1647 0.961 . S
C1633 H1648 0.961 . S
C1633 H1649 0.961 . S
C1634 C1635 1.370 . S
C1634 C1636 1.363 . S
C1634 H1650 0.931 . S
C1635 C1634 1.370 . S
C1635 C1639 1.408 . S
C1636 C1634 1.363 . S
C1636 C1637 1.370 . S
C1636 C1640 1.524 . S
C1637 C1629 1.503 . S
C1637 C1636 1.370 . S
C1637 C1638 1.403 . S
C1638 C1637 1.403 . S
C1638 C1639 1.404 . S
C1638 C1641 1.539 . S
C1639 C1635 1.408 . S
C1639 C1638 1.404 . S
C1639 H1651 0.930 . S
C1640 C1636 1.524 . S
C1640 H1652 0.956 . S
C1640 H1653 0.961 . S
C1640 H1654 0.961 . S
C1641 C1638 1.539 . S
C1641 H1655 0.958 . S
C1641 H1656 0.961 . S
C1641 H1657 0.960 . S
H1642 C1626 0.931 . S
H1643 C1631 0.929 . S
H1644 C1632 0.960 1_455 S
H1645 C1632 0.989 . S
H1646 C1632 0.960 1_455 S
H1647 C1633 0.961 . S
H1648 C1633 0.961 . S
H1649 C1633 0.961 . S
H1650 C1634 0.931 . S
H1651 C1639 0.930 . S
H1652 C1640 0.956 . S
H1653 C1640 0.961 . S
H1654 C1640 0.961 . S
H1655 C1641 0.958 . S
H1656 C1641 0.961 . S
H1657 C1641 0.960 . S
C1658 C1659 1.391 . S
C1658 C1660 1.394 . S
C1658 H1674 0.931 . S
C1659 C1658 1.391 . S
C1659 C1663 1.376 . S
C1660 C1658 1.394 . S
C1660 C1661 1.369 . S
C1660 C1664 1.531 . S
C1661 C1660 1.369 . S
C1661 C1662 1.410 . S
C1661 C1669 1.503 . S
C1662 C1661 1.410 . S
C1662 C1663 1.392 . S
C1662 C1665 1.511 . S
C1663 C1659 1.376 . S
C1663 C1662 1.392 . S
C1663 H1675 0.929 . S
C1664 C1660 1.531 . S
C1664 H1676 0.960 . S
C1664 H1677 0.962 . S
C1664 H1678 0.960 . S
C1665 C1662 1.511 . S
C1665 H1679 0.961 . S
C1665 H1680 0.961 . S
C1665 H1681 0.961 . S
C1666 C1667 1.370 . S
C1666 C1668 1.363 . S
C1666 H1682 0.931 . S
C1667 C1666 1.370 . S
C1667 C1671 1.408 . S
C1668 C1666 1.363 . S
C1668 C1669 1.370 . S
C1668 C1672 1.524 . S
C1669 C1661 1.503 . S
C1669 C1668 1.370 . S
C1669 C1670 1.403 . S
C1670 C1669 1.403 . S
C1670 C1671 1.404 . S
C1670 C1673 1.539 . S
C1671 C1667 1.408 . S
C1671 C1670 1.404 . S
C1671 H1683 0.930 . S
C1672 C1668 1.524 . S
C1672 H1684 0.956 . S
C1672 H1685 0.961 . S
C1672 H1686 0.961 . S
C1673 C1670 1.539 . S
C1673 H1687 0.958 . S
C1673 H1688 0.961 . S
C1673 H1689 0.960 . S
H1674 C1658 0.931 . S
H1675 C1663 0.929 . S
H1676 C1664 0.960 . S
H1677 C1664 0.962 . S
H1678 C1664 0.960 . S
H1679 C1665 0.961 . S
H1680 C1665 0.961 . S
H1681 C1665 0.961 . S
H1682 C1666 0.931 . S
H1683 C1671 0.930 . S
H1684 C1672 0.956 . S
H1685 C1672 0.961 . S
H1686 C1672 0.961 . S
H1687 C1673 0.958 . S
H1688 C1673 0.961 . S
H1689 C1673 0.960 . S
C1690 C1691 1.391 . S
C1690 C1692 1.394 . S
C1690 H1706 0.931 . S
C1691 C1690 1.391 . S
C1691 C1695 1.376 . S
C1692 C1690 1.394 . S
C1692 C1693 1.369 . S
C1692 C1696 1.531 . S
C1693 C1692 1.369 . S
C1693 C1694 1.410 . S
C1693 C1701 1.503 . S
C1694 C1693 1.410 . S
C1694 C1695 1.392 . S
C1694 C1697 1.511 . S
C1695 C1691 1.376 . S
C1695 C1694 1.392 . S
C1695 H1707 0.929 . S
C1696 C1692 1.531 . S
C1696 H1708 0.960 . S
C1696 H1709 0.962 . S
C1696 H1710 0.960 . S
C1697 C1694 1.511 . S
C1697 H1711 0.961 . S
C1697 H1712 0.961 . S
C1697 H1713 0.961 . S
C1698 C1699 1.370 . S
C1698 C1700 1.363 . S
C1698 H1714 0.931 . S
C1699 C1698 1.370 . S
C1699 C1703 1.408 . S
C1700 C1698 1.363 . S
C1700 C1701 1.370 . S
C1700 C1704 1.524 . S
C1701 C1693 1.503 . S
C1701 C1700 1.370 . S
C1701 C1702 1.403 . S
C1702 C1701 1.403 . S
C1702 C1703 1.404 . S
C1702 C1705 1.539 1_545 S
C1703 C1699 1.408 . S
C1703 C1702 1.404 . S
C1703 H1715 0.930 1_545 S
C1704 C1700 1.524 . S
C1704 H1716 0.956 . S
C1704 H1717 0.961 . S
C1704 H1718 0.961 . S
C1705 C1702 1.539 1_565 S
C1705 H1719 0.958 . S
C1705 H1720 0.961 . S
C1705 H1721 0.960 1_565 S
H1706 C1690 0.931 . S
H1707 C1695 0.929 . S
H1708 C1696 0.960 . S
H1709 C1696 0.962 . S
H1710 C1696 0.960 . S
H1711 C1697 0.961 . S
H1712 C1697 0.961 . S
H1713 C1697 0.961 . S
H1714 C1698 0.931 . S
H1715 C1703 0.930 1_565 S
H1716 C1704 0.956 . S
H1717 C1704 0.961 . S
H1718 C1704 0.961 . S
H1719 C1705 0.958 . S
H1720 C1705 0.961 . S
H1721 C1705 0.960 1_545 S
C1722 C1723 1.391 . S
C1722 C1724 1.394 . S
C1722 H1738 0.931 . S
C1723 C1722 1.391 . S
C1723 C1727 1.376 . S
C1724 C1722 1.394 . S
C1724 C1725 1.369 . S
C1724 C1728 1.531 . S
C1725 C1724 1.369 . S
C1725 C1726 1.410 . S
C1725 C1733 1.503 . S
C1726 C1725 1.410 . S
C1726 C1727 1.392 . S
C1726 C1729 1.511 . S
C1727 C1723 1.376 . S
C1727 C1726 1.392 . S
C1727 H1739 0.929 . S
C1728 C1724 1.531 . S
C1728 H1740 0.960 . S
C1728 H1741 0.962 . S
C1728 H1742 0.960 . S
C1729 C1726 1.511 . S
C1729 H1743 0.961 . S
C1729 H1744 0.961 . S
C1729 H1745 0.961 . S
C1730 C1731 1.370 . S
C1730 C1732 1.363 . S
C1730 H1746 0.931 . S
C1731 C1730 1.370 . S
C1731 C1735 1.408 . S
C1732 C1730 1.363 . S
C1732 C1733 1.370 . S
C1732 C1736 1.524 . S
C1733 C1725 1.503 . S
C1733 C1732 1.370 . S
C1733 C1734 1.403 . S
C1734 C1733 1.403 . S
C1734 C1735 1.404 . S
C1734 C1737 1.539 . S
C1735 C1731 1.408 . S
C1735 C1734 1.404 . S
C1735 H1747 0.930 . S
C1736 C1732 1.524 . S
C1736 H1748 0.956 . S
C1736 H1749 0.961 . S
C1736 H1750 0.961 . S
C1737 C1734 1.539 . S
C1737 H1751 0.958 . S
C1737 H1752 0.961 . S
C1737 H1753 0.960 . S
H1738 C1722 0.931 . S
H1739 C1727 0.929 . S
H1740 C1728 0.960 . S
H1741 C1728 0.962 . S
H1742 C1728 0.960 . S
H1743 C1729 0.961 . S
H1744 C1729 0.961 . S
H1745 C1729 0.961 . S
H1746 C1730 0.931 . S
H1747 C1735 0.930 . S
H1748 C1736 0.956 . S
H1749 C1736 0.961 . S
H1750 C1736 0.961 . S
H1751 C1737 0.958 . S
H1752 C1737 0.961 . S
H1753 C1737 0.960 . S
C1754 C1755 1.391 . S
C1754 C1756 1.394 . S
C1754 H1770 0.931 . S
C1755 C1754 1.391 . S
C1755 C1759 1.376 . S
C1756 C1754 1.394 . S
C1756 C1757 1.369 . S
C1756 C1760 1.531 . S
C1757 C1756 1.369 . S
C1757 C1758 1.410 . S
C1757 C1765 1.503 . S
C1758 C1757 1.410 . S
C1758 C1759 1.392 . S
C1758 C1761 1.511 . S
C1759 C1755 1.376 . S
C1759 C1758 1.392 . S
C1759 H1771 0.929 . S
C1760 C1756 1.531 . S
C1760 H1772 0.960 . S
C1760 H1773 0.962 . S
C1760 H1774 0.960 . S
C1761 C1758 1.511 . S
C1761 H1775 0.961 . S
C1761 H1776 0.961 . S
C1761 H1777 0.961 . S
C1762 C1763 1.370 . S
C1762 C1764 1.363 . S
C1762 H1778 0.931 . S
C1763 C1762 1.370 . S
C1763 C1767 1.408 . S
C1764 C1762 1.363 . S
C1764 C1765 1.370 . S
C1764 C1768 1.524 . S
C1765 C1757 1.503 . S
C1765 C1764 1.370 . S
C1765 C1766 1.403 . S
C1766 C1765 1.403 . S
C1766 C1767 1.404 . S
C1766 C1769 1.539 . S
C1767 C1763 1.408 . S
C1767 C1766 1.404 . S
C1767 H1779 0.930 . S
C1768 C1764 1.524 . S
C1768 H1780 0.956 . S
C1768 H1781 0.961 . S
C1768 H1782 0.961 . S
C1769 C1766 1.539 . S
C1769 H1783 0.958 . S
C1769 H1784 0.961 . S
C1769 H1785 0.960 . S
H1770 C1754 0.931 . S
H1771 C1759 0.929 . S
H1772 C1760 0.960 . S
H1773 C1760 0.962 . S
H1774 C1760 0.960 . S
H1775 C1761 0.961 . S
H1776 C1761 0.961 . S
H1777 C1761 0.961 . S
H1778 C1762 0.931 . S
H1779 C1767 0.930 . S
H1780 C1768 0.956 . S
H1781 C1768 0.961 . S
H1782 C1768 0.961 . S
H1783 C1769 0.958 . S
H1784 C1769 0.961 . S
H1785 C1769 0.960 . S
C1786 C1787 1.391 . S
C1786 C1788 1.394 . S
C1786 H1802 0.931 . S
C1787 C1786 1.391 . S
C1787 C1791 1.376 . S
C1788 C1786 1.394 . S
C1788 C1789 1.369 . S
C1788 C1792 1.531 . S
C1789 C1788 1.369 . S
C1789 C1790 1.410 . S
C1789 C1797 1.503 . S
C1790 C1789 1.410 . S
C1790 C1791 1.392 . S
C1790 C1793 1.511 . S
C1791 C1787 1.376 . S
C1791 C1790 1.392 . S
C1791 H1803 0.929 . S
C1792 C1788 1.531 . S
C1792 H1804 0.960 . S
C1792 H1805 0.962 . S
C1792 H1806 0.960 . S
C1793 C1790 1.511 . S
C1793 H1807 0.961 . S
C1793 H1808 0.961 . S
C1793 H1809 0.961 . S
C1794 C1795 1.370 . S
C1794 C1796 1.363 . S
C1794 H1810 0.931 . S
C1795 C1794 1.370 . S
C1795 C1799 1.408 . S
C1796 C1794 1.363 . S
C1796 C1797 1.370 . S
C1796 C1800 1.524 . S
C1797 C1789 1.503 . S
C1797 C1796 1.370 . S
C1797 C1798 1.403 . S
C1798 C1797 1.403 . S
C1798 C1799 1.404 . S
C1798 C1801 1.539 . S
C1799 C1795 1.408 . S
C1799 C1798 1.404 . S
C1799 H1811 0.930 . S
C1800 C1796 1.524 . S
C1800 H1812 0.956 . S
C1800 H1813 0.961 . S
C1800 H1814 0.961 . S
C1801 C1798 1.539 . S
C1801 H1815 0.958 . S
C1801 H1816 0.961 . S
C1801 H1817 0.960 . S
H1802 C1786 0.931 . S
H1803 C1791 0.929 . S
H1804 C1792 0.960 . S
H1805 C1792 0.962 . S
H1806 C1792 0.960 . S
H1807 C1793 0.961 . S
H1808 C1793 0.961 . S
H1809 C1793 0.961 . S
H1810 C1794 0.931 . S
H1811 C1799 0.930 . S
H1812 C1800 0.956 . S
H1813 C1800 0.961 . S
H1814 C1800 0.961 . S
H1815 C1801 0.958 . S
H1816 C1801 0.961 . S
H1817 C1801 0.960 . S
C1818 C1819 1.391 . S
C1818 C1820 1.394 . S
C1818 H1834 0.931 . S
C1819 C1818 1.391 . S
C1819 C1823 1.376 . S
C1820 C1818 1.394 . S
C1820 C1821 1.369 . S
C1820 C1824 1.531 . S
C1821 C1820 1.369 . S
C1821 C1822 1.410 . S
C1821 C1829 1.503 . S
C1822 C1821 1.410 . S
C1822 C1823 1.392 . S
C1822 C1825 1.511 . S
C1823 C1819 1.376 . S
C1823 C1822 1.392 . S
C1823 H1835 0.929 . S
C1824 C1820 1.531 . S
C1824 H1836 0.960 . S
C1824 H1837 0.962 . S
C1824 H1838 0.960 . S
C1825 C1822 1.511 . S
C1825 H1839 0.961 . S
C1825 H1840 0.961 . S
C1825 H1841 0.961 . S
C1826 C1827 1.370 . S
C1826 C1828 1.363 . S
C1826 H1842 0.931 . S
C1827 C1826 1.370 . S
C1827 C1831 1.408 . S
C1828 C1826 1.363 . S
C1828 C1829 1.370 . S
C1828 C1832 1.524 . S
C1829 C1821 1.503 . S
C1829 C1828 1.370 . S
C1829 C1830 1.403 . S
C1830 C1829 1.403 . S
C1830 C1831 1.404 . S
C1830 C1833 1.539 . S
C1831 C1827 1.408 . S
C1831 C1830 1.404 . S
C1831 H1843 0.930 . S
C1832 C1828 1.524 . S
C1832 H1844 0.956 . S
C1832 H1845 0.961 . S
C1832 H1846 0.961 . S
C1833 C1830 1.539 . S
C1833 H1847 0.958 . S
C1833 H1848 0.961 . S
C1833 H1849 0.960 . S
H1834 C1818 0.931 . S
H1835 C1823 0.929 . S
H1836 C1824 0.960 . S
H1837 C1824 0.962 . S
H1838 C1824 0.960 . S
H1839 C1825 0.961 . S
H1840 C1825 0.961 . S
H1841 C1825 0.961 . S
H1842 C1826 0.931 . S
H1843 C1831 0.930 . S
H1844 C1832 0.956 . S
H1845 C1832 0.961 . S
H1846 C1832 0.961 . S
H1847 C1833 0.958 . S
H1848 C1833 0.961 . S
H1849 C1833 0.960 . S
C1850 C1851 1.391 . S
C1850 C1852 1.394 . S
C1850 H1866 0.931 . S
C1851 C1850 1.391 . S
C1851 C1855 1.376 . S
C1852 C1850 1.394 . S
C1852 C1853 1.369 . S
C1852 C1856 1.531 . S
C1853 C1852 1.369 . S
C1853 C1854 1.410 . S
C1853 C1861 1.503 . S
C1854 C1853 1.410 . S
C1854 C1855 1.392 . S
C1854 C1857 1.511 . S
C1855 C1851 1.376 . S
C1855 C1854 1.392 . S
C1855 H1867 0.929 . S
C1856 C1852 1.531 . S
C1856 H1868 0.960 . S
C1856 H1869 0.962 . S
C1856 H1870 0.960 . S
C1857 C1854 1.511 . S
C1857 H1871 0.961 . S
C1857 H1872 0.961 . S
C1857 H1873 0.961 . S
C1858 C1859 1.370 . S
C1858 C1860 1.363 . S
C1858 H1874 0.931 . S
C1859 C1858 1.370 . S
C1859 C1863 1.408 . S
C1860 C1858 1.363 . S
C1860 C1861 1.370 . S
C1860 C1864 1.524 . S
C1861 C1853 1.503 . S
C1861 C1860 1.370 . S
C1861 C1862 1.403 . S
C1862 C1861 1.403 . S
C1862 C1863 1.404 . S
C1862 C1865 1.539 . S
C1863 C1859 1.408 . S
C1863 C1862 1.404 . S
C1863 H1875 0.930 . S
C1864 C1860 1.524 . S
C1864 H1876 0.956 . S
C1864 H1877 0.961 . S
C1864 H1878 0.961 . S
C1865 C1862 1.539 . S
C1865 H1879 0.958 . S
C1865 H1880 0.961 . S
C1865 H1881 0.960 . S
H1866 C1850 0.931 . S
H1867 C1855 0.929 . S
H1868 C1856 0.960 . S
H1869 C1856 0.962 . S
H1870 C1856 0.960 . S
H1871 C1857 0.961 . S
H1872 C1857 0.961 . S
H1873 C1857 0.961 . S
H1874 C1858 0.931 . S
H1875 C1863 0.930 . S
H1876 C1864 0.956 . S
H1877 C1864 0.961 . S
H1878 C1864 0.961 . S
H1879 C1865 0.958 . S
H1880 C1865 0.961 . S
H1881 C1865 0.960 . S
C1882 C1883 1.391 . S
C1882 C1884 1.394 . S
C1882 H1898 0.931 . S
C1883 C1882 1.391 . S
C1883 C1887 1.376 . S
C1884 C1882 1.394 . S
C1884 C1885 1.369 . S
C1884 C1888 1.531 . S
C1885 C1884 1.369 . S
C1885 C1886 1.410 . S
C1885 C1893 1.503 . S
C1886 C1885 1.410 . S
C1886 C1887 1.392 . S
C1886 C1889 1.511 . S
C1887 C1883 1.376 . S
C1887 C1886 1.392 . S
C1887 H1899 0.929 . S
C1888 C1884 1.531 . S
C1888 H1900 0.960 . S
C1888 H1901 0.962 . S
C1888 H1902 0.960 . S
C1889 C1886 1.511 . S
C1889 H1903 0.961 . S
C1889 H1904 0.961 . S
C1889 H1905 0.961 . S
C1890 C1891 1.370 . S
C1890 C1892 1.363 . S
C1890 H1906 0.931 . S
C1891 C1890 1.370 . S
C1891 C1895 1.408 . S
C1892 C1890 1.363 . S
C1892 C1893 1.370 . S
C1892 C1896 1.524 . S
C1893 C1885 1.503 . S
C1893 C1892 1.370 . S
C1893 C1894 1.403 . S
C1894 C1893 1.403 . S
C1894 C1895 1.404 . S
C1894 C1897 1.539 . S
C1895 C1891 1.408 . S
C1895 C1894 1.404 . S
C1895 H1907 0.930 . S
C1896 C1892 1.524 . S
C1896 H1908 0.956 . S
C1896 H1909 0.961 . S
C1896 H1910 0.961 . S
C1897 C1894 1.539 . S
C1897 H1911 0.958 . S
C1897 H1912 0.961 . S
C1897 H1913 0.960 . S
H1898 C1882 0.931 . S
H1899 C1887 0.929 . S
H1900 C1888 0.960 . S
H1901 C1888 0.962 . S
H1902 C1888 0.960 . S
H1903 C1889 0.961 . S
H1904 C1889 0.961 . S
H1905 C1889 0.961 . S
H1906 C1890 0.931 . S
H1907 C1895 0.930 . S
H1908 C1896 0.956 . S
H1909 C1896 0.961 . S
H1910 C1896 0.961 . S
H1911 C1897 0.958 . S
H1912 C1897 0.961 . S
H1913 C1897 0.960 . S
C1914 C1915 1.391 . S
C1914 C1916 1.394 . S
C1914 H1930 0.931 . S
C1915 C1914 1.391 . S
C1915 C1919 1.376 . S
C1916 C1914 1.394 . S
C1916 C1917 1.369 . S
C1916 C1920 1.531 . S
C1917 C1916 1.369 . S
C1917 C1918 1.410 . S
C1917 C1925 1.503 . S
C1918 C1917 1.410 . S
C1918 C1919 1.392 . S
C1918 C1921 1.511 . S
C1919 C1915 1.376 . S
C1919 C1918 1.392 . S
C1919 H1931 0.929 . S
C1920 C1916 1.531 . S
C1920 H1932 0.960 . S
C1920 H1933 0.962 . S
C1920 H1934 0.960 . S
C1921 C1918 1.511 . S
C1921 H1935 0.961 . S
C1921 H1936 0.961 . S
C1921 H1937 0.961 . S
C1922 C1923 1.370 . S
C1922 C1924 1.363 . S
C1922 H1938 0.931 . S
C1923 C1922 1.370 . S
C1923 C1927 1.408 . S
C1924 C1922 1.363 . S
C1924 C1925 1.370 . S
C1924 C1928 1.524 . S
C1925 C1917 1.503 . S
C1925 C1924 1.370 . S
C1925 C1926 1.403 . S
C1926 C1925 1.403 . S
C1926 C1927 1.404 . S
C1926 C1929 1.539 . S
C1927 C1923 1.408 . S
C1927 C1926 1.404 . S
C1927 H1939 0.930 . S
C1928 C1924 1.524 . S
C1928 H1940 0.956 . S
C1928 H1941 0.961 . S
C1928 H1942 0.961 . S
C1929 C1926 1.539 . S
C1929 H1943 0.958 . S
C1929 H1944 0.961 . S
C1929 H1945 0.960 . S
H1930 C1914 0.931 . S
H1931 C1919 0.929 . S
H1932 C1920 0.960 . S
H1933 C1920 0.962 . S
H1934 C1920 0.960 . S
H1935 C1921 0.961 . S
H1936 C1921 0.961 . S
H1937 C1921 0.961 . S
H1938 C1922 0.931 . S
H1939 C1927 0.930 . S
H1940 C1928 0.956 . S
H1941 C1928 0.961 . S
H1942 C1928 0.961 . S
H1943 C1929 0.958 . S
H1944 C1929 0.961 . S
H1945 C1929 0.960 . S
C1946 C1947 1.391 . S
C1946 C1948 1.394 . S
C1946 H1962 0.931 . S
C1947 C1946 1.391 . S
C1947 C1951 1.376 . S
C1948 C1946 1.394 . S
C1948 C1949 1.369 . S
C1948 C1952 1.531 . S
C1949 C1948 1.369 . S
C1949 C1950 1.410 . S
C1949 C1957 1.503 . S
C1950 C1949 1.410 . S
C1950 C1951 1.392 . S
C1950 C1953 1.511 . S
C1951 C1947 1.376 . S
C1951 C1950 1.392 . S
C1951 H1963 0.929 . S
C1952 C1948 1.531 . S
C1952 H1964 0.960 . S
C1952 H1965 0.962 . S
C1952 H1966 0.960 . S
C1953 C1950 1.511 . S
C1953 H1967 0.961 . S
C1953 H1968 0.961 . S
C1953 H1969 0.961 . S
C1954 C1955 1.370 . S
C1954 C1956 1.363 . S
C1954 H1970 0.931 . S
C1955 C1954 1.370 . S
C1955 C1959 1.408 . S
C1956 C1954 1.363 . S
C1956 C1957 1.370 . S
C1956 C1960 1.524 . S
C1957 C1949 1.503 . S
C1957 C1956 1.370 . S
C1957 C1958 1.403 . S
C1958 C1957 1.403 . S
C1958 C1959 1.404 . S
C1958 C1961 1.539 . S
C1959 C1955 1.408 . S
C1959 C1958 1.404 . S
C1959 H1971 0.930 . S
C1960 C1956 1.524 . S
C1960 H1972 0.956 . S
C1960 H1973 0.961 . S
C1960 H1974 0.961 . S
C1961 C1958 1.539 . S
C1961 H1975 0.958 . S
C1961 H1976 0.961 . S
C1961 H1977 0.960 . S
H1962 C1946 0.931 . S
H1963 C1951 0.929 . S
H1964 C1952 0.960 . S
H1965 C1952 0.962 . S
H1966 C1952 0.960 . S
H1967 C1953 0.961 . S
H1968 C1953 0.961 . S
H1969 C1953 0.961 . S
H1970 C1954 0.931 . S
H1971 C1959 0.930 . S
H1972 C1960 0.956 . S
H1973 C1960 0.961 . S
H1974 C1960 0.961 . S
H1975 C1961 0.958 . S
H1976 C1961 0.961 . S
H1977 C1961 0.960 . S
C1978 C1979 1.391 . S
C1978 C1980 1.394 . S
C1978 H1994 0.931 . S
C1979 C1978 1.391 . S
C1979 C1983 1.376 . S
C1980 C1978 1.394 . S
C1980 C1981 1.369 . S
C1980 C1984 1.531 . S
C1981 C1980 1.369 . S
C1981 C1982 1.410 . S
C1981 C1989 1.503 . S
C1982 C1981 1.410 . S
C1982 C1983 1.392 . S
C1982 C1985 1.511 . S
C1983 C1979 1.376 . S
C1983 C1982 1.392 . S
C1983 H1995 0.929 . S
C1984 C1980 1.531 . S
C1984 H1996 0.960 . S
C1984 H1997 0.962 . S
C1984 H1998 0.960 . S
C1985 C1982 1.511 . S
C1985 H1999 0.961 . S
C1985 H2000 0.961 . S
C1985 H2001 0.961 . S
C1986 C1987 1.370 . S
C1986 C1988 1.363 . S
C1986 H2002 0.931 . S
C1987 C1986 1.370 . S
C1987 C1991 1.408 . S
C1988 C1986 1.363 . S
C1988 C1989 1.370 . S
C1988 C1992 1.524 . S
C1989 C1981 1.503 . S
C1989 C1988 1.370 . S
C1989 C1990 1.403 . S
C1990 C1989 1.403 . S
C1990 C1991 1.404 . S
C1990 C1993 1.539 . S
C1991 C1987 1.408 . S
C1991 C1990 1.404 . S
C1991 H2003 0.930 . S
C1992 C1988 1.524 . S
C1992 H2004 0.956 . S
C1992 H2005 0.961 . S
C1992 H2006 0.961 . S
C1993 C1990 1.539 . S
C1993 H2007 0.958 . S
C1993 H2008 0.961 . S
C1993 H2009 0.960 . S
H1994 C1978 0.931 . S
H1995 C1983 0.929 . S
H1996 C1984 0.960 . S
H1997 C1984 0.962 . S
H1998 C1984 0.960 . S
H1999 C1985 0.961 . S
H2000 C1985 0.961 . S
H2001 C1985 0.961 . S
H2002 C1986 0.931 . S
H2003 C1991 0.930 . S
H2004 C1992 0.956 . S
H2005 C1992 0.961 . S
H2006 C1992 0.961 . S
H2007 C1993 0.958 . S
H2008 C1993 0.961 . S
H2009 C1993 0.960 . S
C2010 C2011 1.391 . S
C2010 C2012 1.394 . S
C2010 H2026 0.931 . S
C2011 C2010 1.391 . S
C2011 C2015 1.376 . S
C2012 C2010 1.394 . S
C2012 C2013 1.369 . S
C2012 C2016 1.531 . S
C2013 C2012 1.369 . S
C2013 C2014 1.410 . S
C2013 C2021 1.503 . S
C2014 C2013 1.410 . S
C2014 C2015 1.392 . S
C2014 C2017 1.511 . S
C2015 C2011 1.376 . S
C2015 C2014 1.392 . S
C2015 H2027 0.929 . S
C2016 C2012 1.531 . S
C2016 H2028 0.960 . S
C2016 H2029 0.962 . S
C2016 H2030 0.960 . S
C2017 C2014 1.511 . S
C2017 H2031 0.961 . S
C2017 H2032 0.961 . S
C2017 H2033 0.961 . S
C2018 C2019 1.370 . S
C2018 C2020 1.363 . S
C2018 H2034 0.931 . S
C2019 C2018 1.370 . S
C2019 C2023 1.408 . S
C2020 C2018 1.363 . S
C2020 C2021 1.370 . S
C2020 C2024 1.524 . S
C2021 C2013 1.503 . S
C2021 C2020 1.370 . S
C2021 C2022 1.403 . S
C2022 C2021 1.403 . S
C2022 C2023 1.404 . S
C2022 C2025 1.539 . S
C2023 C2019 1.408 . S
C2023 C2022 1.404 . S
C2023 H2035 0.930 . S
C2024 C2020 1.524 . S
C2024 H2036 0.956 . S
C2024 H2037 0.961 . S
C2024 H2038 0.961 . S
C2025 C2022 1.539 . S
C2025 H2039 0.958 . S
C2025 H2040 0.961 . S
C2025 H2041 0.960 . S
H2026 C2010 0.931 . S
H2027 C2015 0.929 . S
H2028 C2016 0.960 . S
H2029 C2016 0.962 . S
H2030 C2016 0.960 . S
H2031 C2017 0.961 . S
H2032 C2017 0.961 . S
H2033 C2017 0.961 . S
H2034 C2018 0.931 . S
H2035 C2023 0.930 . S
H2036 C2024 0.956 . S
H2037 C2024 0.961 . S
H2038 C2024 0.961 . S
H2039 C2025 0.958 . S
H2040 C2025 0.961 . S
H2041 C2025 0.960 . S
C2042 C2043 1.391 . S
C2042 C2044 1.394 . S
C2042 H2058 0.931 . S
C2043 C2042 1.391 . S
C2043 C2047 1.376 . S
C2044 C2042 1.394 . S
C2044 C2045 1.369 . S
C2044 C2048 1.531 . S
C2045 C2044 1.369 . S
C2045 C2046 1.410 . S
C2045 C2053 1.503 . S
C2046 C2045 1.410 . S
C2046 C2047 1.392 . S
C2046 C2049 1.511 . S
C2047 C2043 1.376 . S
C2047 C2046 1.392 . S
C2047 H2059 0.929 . S
C2048 C2044 1.531 . S
C2048 H2060 0.960 . S
C2048 H2061 0.962 . S
C2048 H2062 0.960 . S
C2049 C2046 1.511 . S
C2049 H2063 0.961 . S
C2049 H2064 0.961 . S
C2049 H2065 0.961 . S
C2050 C2051 1.370 . S
C2050 C2052 1.363 . S
C2050 H2066 0.931 . S
C2051 C2050 1.370 . S
C2051 C2055 1.408 . S
C2052 C2050 1.363 . S
C2052 C2053 1.370 . S
C2052 C2056 1.524 . S
C2053 C2045 1.503 . S
C2053 C2052 1.370 . S
C2053 C2054 1.403 . S
C2054 C2053 1.403 . S
C2054 C2055 1.404 . S
C2054 C2057 1.539 . S
C2055 C2051 1.408 . S
C2055 C2054 1.404 . S
C2055 H2067 0.930 . S
C2056 C2052 1.524 . S
C2056 H2068 0.956 . S
C2056 H2069 0.961 . S
C2056 H2070 0.961 . S
C2057 C2054 1.539 . S
C2057 H2071 0.958 . S
C2057 H2072 0.961 . S
C2057 H2073 0.960 . S
H2058 C2042 0.931 . S
H2059 C2047 0.929 . S
H2060 C2048 0.960 . S
H2061 C2048 0.962 . S
H2062 C2048 0.960 . S
H2063 C2049 0.961 . S
H2064 C2049 0.961 . S
H2065 C2049 0.961 . S
H2066 C2050 0.931 . S
H2067 C2055 0.930 . S
H2068 C2056 0.956 . S
H2069 C2056 0.961 . S
H2070 C2056 0.961 . S
H2071 C2057 0.958 . S
H2072 C2057 0.961 . S
H2073 C2057 0.960 . S
C2074 C2075 1.391 . S
C2074 C2076 1.394 . S
C2074 H2090 0.931 . S
C2075 C2074 1.391 . S
C2075 C2079 1.376 . S
C2076 C2074 1.394 . S
C2076 C2077 1.369 . S
C2076 C2080 1.531 . S
C2077 C2076 1.369 . S
C2077 C2078 1.410 . S
C2077 C2085 1.503 . S
C2078 C2077 1.410 . S
C2078 C2079 1.392 . S
C2078 C2081 1.511 . S
C2079 C2075 1.376 . S
C2079 C2078 1.392 . S
C2079 H2091 0.929 . S
C2080 C2076 1.531 . S
C2080 H2092 0.960 . S
C2080 H2093 0.962 . S
C2080 H2094 0.960 . S
C2081 C2078 1.511 . S
C2081 H2095 0.961 . S
C2081 H2096 0.961 . S
C2081 H2097 0.961 . S
C2082 C2083 1.370 . S
C2082 C2084 1.363 . S
C2082 H2098 0.931 . S
C2083 C2082 1.370 . S
C2083 C2087 1.408 . S
C2084 C2082 1.363 . S
C2084 C2085 1.370 . S
C2084 C2088 1.524 . S
C2085 C2077 1.503 . S
C2085 C2084 1.370 . S
C2085 C2086 1.403 . S
C2086 C2085 1.403 . S
C2086 C2087 1.404 . S
C2086 C2089 1.539 . S
C2087 C2083 1.408 . S
C2087 C2086 1.404 . S
C2087 H2099 0.930 . S
C2088 C2084 1.524 . S
C2088 H2100 0.956 . S
C2088 H2101 0.961 . S
C2088 H2102 0.961 . S
C2089 C2086 1.539 . S
C2089 H2103 0.958 . S
C2089 H2104 0.961 . S
C2089 H2105 0.960 . S
H2090 C2074 0.931 . S
H2091 C2079 0.929 . S
H2092 C2080 0.960 . S
H2093 C2080 0.962 . S
H2094 C2080 0.960 . S
H2095 C2081 0.961 . S
H2096 C2081 0.961 . S
H2097 C2081 0.961 . S
H2098 C2082 0.931 . S
H2099 C2087 0.930 . S
H2100 C2088 0.956 . S
H2101 C2088 0.961 . S
H2102 C2088 0.961 . S
H2103 C2089 0.958 . S
H2104 C2089 0.961 . S
H2105 C2089 0.960 . S
C379 C147 1.547 . S
C387 C204 1.545 . S
C411 C158 1.507 . S
C419 C224 1.495 . S
C443 C136 1.493 . S
C451 C247 1.522 . S
C475 C125 1.431 . S
C483 C227 1.424 1_556 S
C515 C244 1.433 . S
C507 C103 1.442 . S
C539 C114 1.454 . S
C547 C207 1.473 1_556 S
C579 C214 1.553 . S
C571 C131 1.555 . S
C611 C234 1.431 . S
C603 C109 1.454 . S
C635 C120 1.551 . S
C643 C239 1.567 . S
C667 C153 1.454 . S
C675 C219 1.463 . S
C699 C164 1.448 . S
C707 C254 1.419 . S
C739 C199 1.544 . S
C731 C142 1.531 . S
C771 C264 1.545 . S
C763 C15 1.547 . S
C795 C26 1.508 . S
C803 C284 1.494 . S
C827 C4 1.495 . S
C835 C307 1.521 . S
C859 C191 1.420 . S
C867 C287 1.429 . S
C891 C169 1.442 . S
C899 C304 1.434 . S
C923 C180 1.475 . S
C931 C267 1.466 . S
C955 C197 1.565 . S
C963 C274 1.540 . S
C987 C175 1.475 . S
C995 C294 1.425 . S
C1027 C299 1.563 . S
C1019 C186 1.544 . S
C1051 C21 1.430 . S
C1059 C279 1.468 . S
C1091 C314 1.435 . S
C1083 C32 1.434 . S
C1115 C10 1.550 . S
C1123 C259 1.533 . S
C1155 C324 1.546 . S
C1147 C81 1.546 . S
C1179 C92 1.506 . S
C1187 C344 1.496 . S
C1219 C367 1.512 . S
C1211 C70 1.522 . S
C1251 C347 1.432 . S
C1243 C59 1.411 . S
C1283 C364 1.424 . S
C1275 C37 1.448 . S
C1307 C48 1.474 . S
C1315 C327 1.465 . S
C1339 C65 1.557 . S
C1347 C334 1.545 . S
C1371 C43 1.475 . S
C1379 C354 1.424 . S
C1411 C359 1.558 . S
C1403 C54 1.525 . S
C1435 C87 1.470 . S
C1443 C339 1.454 . S
C1467 C98 1.459 . S
C1475 C374 1.414 . S
C1499 C76 1.545 . S
C1507 C319 1.538 . S
C1531 C170 1.350 . S
C1539 C217 1.323 . S
C1571 C237 1.629 . S
C1563 C181 1.711 . S
C1595 C192 1.530 . S
C1603 C246 1.483 . S
C1627 C71 1.687 . S
C1635 C226 1.632 . S
C1659 C82 1.572 . S
C1667 C257 1.529 . S
C1699 C206 1.305 . S
C1691 C93 1.341 . S
C1723 C38 1.348 . S
C1731 C277 1.306 . S
C1755 C49 1.710 . S
C1763 C297 1.643 . S
C1787 C60 1.512 . S
C1795 C306 1.473 . S
C1819 C137 1.673 . S
C1827 C286 1.618 . S
C1859 C317 1.508 . S
C1851 C148 1.580 . S
C1883 C159 1.311 . S
C1891 C266 1.311 . S
C1915 C104 1.347 . S
C1923 C337 1.310 . S
C1947 C115 1.708 . S
C1955 C357 1.645 . S
C1987 C366 1.473 . S
C1979 C126 1.517 . S
C2011 C5 1.685 . S
C2019 C346 1.636 . S
C2043 C16 1.580 . S
C2051 C377 1.508 . S
C2075 C27 1.317 . S
C2083 C326 1.317 . S
