# Generated by pormake.
# Topology ctn, (3,4)-cn, num edge types: 1
# Building blocks:
#     Node 0, Type 0, BuildingBlock: CUQRIR_clean_linker_1, # of connection points: 3
#     Node 1, Type 0, BuildingBlock: CUQRIR_clean_linker_1, # of connection points: 3
#     Node 2, Type 0, BuildingBlock: CUQRIR_clean_linker_1, # of connection points: 3
#     Node 3, Type 0, BuildingBlock: CUQRIR_clean_linker_1, # of connection points: 3
#     Node 4, Type 0, BuildingBlock: CUQRIR_clean_linker_1, # of connection points: 3
#     Node 5, Type 0, BuildingBlock: CUQRIR_clean_linker_1, # of connection points: 3
#     Node 6, Type 0, BuildingBlock: CUQRIR_clean_linker_1, # of connection points: 3
#     Node 7, Type 0, BuildingBlock: CUQRIR_clean_linker_1, # of connection points: 3
#     Node 8, Type 0, BuildingBlock: CUQRIR_clean_linker_1, # of connection points: 3
#     Node 9, Type 0, BuildingBlock: CUQRIR_clean_linker_1, # of connection points: 3
#     Node 10, Type 0, BuildingBlock: CUQRIR_clean_linker_1, # of connection points: 3
#     Node 11, Type 0, BuildingBlock: CUQRIR_clean_linker_1, # of connection points: 3
#     Node 12, Type 0, BuildingBlock: CUQRIR_clean_linker_1, # of connection points: 3
#     Node 13, Type 0, BuildingBlock: CUQRIR_clean_linker_1, # of connection points: 3
#     Node 14, Type 0, BuildingBlock: CUQRIR_clean_linker_1, # of connection points: 3
#     Node 15, Type 0, BuildingBlock: CUQRIR_clean_linker_1, # of connection points: 3
#     Node 16, Type 1, BuildingBlock: KUFVIS_clean_sbu_0, # of connection points: 4
#     Node 17, Type 1, BuildingBlock: KUFVIS_clean_sbu_0, # of connection points: 4
#     Node 18, Type 1, BuildingBlock: KUFVIS_clean_sbu_0, # of connection points: 4
#     Node 19, Type 1, BuildingBlock: KUFVIS_clean_sbu_0, # of connection points: 4
#     Node 20, Type 1, BuildingBlock: KUFVIS_clean_sbu_0, # of connection points: 4
#     Node 21, Type 1, BuildingBlock: KUFVIS_clean_sbu_0, # of connection points: 4
#     Node 22, Type 1, BuildingBlock: KUFVIS_clean_sbu_0, # of connection points: 4
#     Node 23, Type 1, BuildingBlock: KUFVIS_clean_sbu_0, # of connection points: 4
#     Node 24, Type 1, BuildingBlock: KUFVIS_clean_sbu_0, # of connection points: 4
#     Node 25, Type 1, BuildingBlock: KUFVIS_clean_sbu_0, # of connection points: 4
#     Node 26, Type 1, BuildingBlock: KUFVIS_clean_sbu_0, # of connection points: 4
#     Node 27, Type 1, BuildingBlock: KUFVIS_clean_sbu_0, # of connection points: 4
#     Edge 28, Type (0, 1), BuildingBlock: CIFDUS_clean_linker_0, # of connection points: 2
#     Edge 29, Type (0, 1), BuildingBlock: CIFDUS_clean_linker_0, # of connection points: 2
#     Edge 30, Type (0, 1), BuildingBlock: CIFDUS_clean_linker_0, # of connection points: 2
#     Edge 31, Type (0, 1), BuildingBlock: CIFDUS_clean_linker_0, # of connection points: 2
#     Edge 32, Type (0, 1), BuildingBlock: CIFDUS_clean_linker_0, # of connection points: 2
#     Edge 33, Type (0, 1), BuildingBlock: CIFDUS_clean_linker_0, # of connection points: 2
#     Edge 34, Type (0, 1), BuildingBlock: CIFDUS_clean_linker_0, # of connection points: 2
#     Edge 35, Type (0, 1), BuildingBlock: CIFDUS_clean_linker_0, # of connection points: 2
#     Edge 36, Type (0, 1), BuildingBlock: CIFDUS_clean_linker_0, # of connection points: 2
#     Edge 37, Type (0, 1), BuildingBlock: CIFDUS_clean_linker_0, # of connection points: 2
#     Edge 38, Type (0, 1), BuildingBlock: CIFDUS_clean_linker_0, # of connection points: 2
#     Edge 39, Type (0, 1), BuildingBlock: CIFDUS_clean_linker_0, # of connection points: 2
#     Edge 40, Type (0, 1), BuildingBlock: CIFDUS_clean_linker_0, # of connection points: 2
#     Edge 41, Type (0, 1), BuildingBlock: CIFDUS_clean_linker_0, # of connection points: 2
#     Edge 42, Type (0, 1), BuildingBlock: CIFDUS_clean_linker_0, # of connection points: 2
#     Edge 43, Type (0, 1), BuildingBlock: CIFDUS_clean_linker_0, # of connection points: 2
#     Edge 44, Type (0, 1), BuildingBlock: CIFDUS_clean_linker_0, # of connection points: 2
#     Edge 45, Type (0, 1), BuildingBlock: CIFDUS_clean_linker_0, # of connection points: 2
#     Edge 46, Type (0, 1), BuildingBlock: CIFDUS_clean_linker_0, # of connection points: 2
#     Edge 47, Type (0, 1), BuildingBlock: CIFDUS_clean_linker_0, # of connection points: 2
#     Edge 48, Type (0, 1), BuildingBlock: CIFDUS_clean_linker_0, # of connection points: 2
#     Edge 49, Type (0, 1), BuildingBlock: CIFDUS_clean_linker_0, # of connection points: 2
#     Edge 50, Type (0, 1), BuildingBlock: CIFDUS_clean_linker_0, # of connection points: 2
#     Edge 51, Type (0, 1), BuildingBlock: CIFDUS_clean_linker_0, # of connection points: 2
#     Edge 52, Type (0, 1), BuildingBlock: CIFDUS_clean_linker_0, # of connection points: 2
#     Edge 53, Type (0, 1), BuildingBlock: CIFDUS_clean_linker_0, # of connection points: 2
#     Edge 54, Type (0, 1), BuildingBlock: CIFDUS_clean_linker_0, # of connection points: 2
#     Edge 55, Type (0, 1), BuildingBlock: CIFDUS_clean_linker_0, # of connection points: 2
#     Edge 56, Type (0, 1), BuildingBlock: CIFDUS_clean_linker_0, # of connection points: 2
#     Edge 57, Type (0, 1), BuildingBlock: CIFDUS_clean_linker_0, # of connection points: 2
#     Edge 58, Type (0, 1), BuildingBlock: CIFDUS_clean_linker_0, # of connection points: 2
#     Edge 59, Type (0, 1), BuildingBlock: CIFDUS_clean_linker_0, # of connection points: 2
#     Edge 60, Type (0, 1), BuildingBlock: CIFDUS_clean_linker_0, # of connection points: 2
#     Edge 61, Type (0, 1), BuildingBlock: CIFDUS_clean_linker_0, # of connection points: 2
#     Edge 62, Type (0, 1), BuildingBlock: CIFDUS_clean_linker_0, # of connection points: 2
#     Edge 63, Type (0, 1), BuildingBlock: CIFDUS_clean_linker_0, # of connection points: 2
#     Edge 64, Type (0, 1), BuildingBlock: CIFDUS_clean_linker_0, # of connection points: 2
#     Edge 65, Type (0, 1), BuildingBlock: CIFDUS_clean_linker_0, # of connection points: 2
#     Edge 66, Type (0, 1), BuildingBlock: CIFDUS_clean_linker_0, # of connection points: 2
#     Edge 67, Type (0, 1), BuildingBlock: CIFDUS_clean_linker_0, # of connection points: 2
#     Edge 68, Type (0, 1), BuildingBlock: CIFDUS_clean_linker_0, # of connection points: 2
#     Edge 69, Type (0, 1), BuildingBlock: CIFDUS_clean_linker_0, # of connection points: 2
#     Edge 70, Type (0, 1), BuildingBlock: CIFDUS_clean_linker_0, # of connection points: 2
#     Edge 71, Type (0, 1), BuildingBlock: CIFDUS_clean_linker_0, # of connection points: 2
#     Edge 72, Type (0, 1), BuildingBlock: CIFDUS_clean_linker_0, # of connection points: 2
#     Edge 73, Type (0, 1), BuildingBlock: CIFDUS_clean_linker_0, # of connection points: 2
#     Edge 74, Type (0, 1), BuildingBlock: CIFDUS_clean_linker_0, # of connection points: 2
#     Edge 75, Type (0, 1), BuildingBlock: CIFDUS_clean_linker_0, # of connection points: 2
# Relax obj value: 0.094
# Max RMSD: 0.205
# Mean RMSD: 0.136
data_MOF--net-ctn--node1-KUFVIS_clean_sbu_0--node2-CUQRIR_clean_linker_1--edge1-CIFDUS_clean_linker_0
_symmetry_space_group_name_H-M    P1
_symmetry_Int_Tables_number       1
_symmetry_cell_setting            triclinic
loop_
_symmetry_equiv_pos_as_xyz
'x, y, z'
_cell_length_a     43.787258
_cell_length_b     40.618092
_cell_length_c     41.942475
_cell_angle_alpha  97.33124
_cell_angle_beta   89.302413
_cell_angle_gamma 94.102584
loop_
_atom_site_label
_atom_site_type_symbol
_atom_site_fract_x
_atom_site_fract_y
_atom_site_fract_z
_atom_type_partial_charge
C0 C 0.07114 0.0346 0.09814 0.0
N1 N 0.08046 0.04753 0.07107 0.0
N2 N 0.04474 0.04695 0.10951 0.0
C3 C 0.08792 1.0098 0.11373 0.0
C4 C 0.03821 0.06818 0.08854 0.0
N5 N 0.05973 0.06843 0.06486 0.0
C6 C 1.01 0.08759 0.09037 0.0
H7 H 0.08047 0.9843 0.10254 0.0
H8 H 0.08275 1.01168 0.13985 0.0
H9 H 0.11301 1.01379 0.11021 0.0
H10 H 1.00105 0.09223 0.11518 0.0
H11 H 0.99177 0.07313 0.07533 0.0
H12 H 0.0149 0.11189 0.08124 0.0
C13 C 0.32916 0.72037 0.19211 0.0
N14 N 0.33807 0.70497 0.21697 0.0
N15 N 0.3465 0.74892 0.19034 0.0
C16 C 0.30253 0.7085 0.17018 0.0
C17 C 0.36635 0.75065 0.21513 0.0
N18 N 0.3611 0.72401 0.23179 0.0
C19 C 0.39239 0.77687 0.221 0.0
H20 H 0.31089 0.69233 0.14902 0.0
H21 H 0.29211 0.72979 0.16145 0.0
H22 H 0.28471 0.69395 0.18246 0.0
H23 H 0.38517 0.79727 0.23904 0.0
H24 H 0.39871 0.78763 0.1986 0.0
H25 H 0.41277 0.76642 0.23023 0.0
C26 C 0.99212 0.52206 0.0965 0.0
N27 N 1.01048 0.49662 0.09834 0.0
N28 N 0.96865 0.51249 0.07564 0.0
C29 C 0.99786 0.55659 0.11426 0.0
C30 C 0.97327 0.48023 0.06518 0.0
N31 N 0.9984 0.47046 0.07902 0.0
C32 C 0.95353 0.45826 0.04077 0.0
H33 H 0.97756 0.57132 0.11506 0.0
H34 H 0.01634 0.57018 0.10184 0.0
H35 H 1.00539 0.55531 0.13921 0.0
H36 H 0.9642 0.45856 0.01667 0.0
H37 H 0.93016 0.46705 0.04012 0.0
H38 H 0.9517 0.43219 0.04618 0.0
C39 C 0.68326 0.81166 0.21838 0.0
N40 N 0.70897 0.82882 0.20883 0.0
N41 N 0.68103 0.81469 0.25075 0.0
C42 C 0.66204 0.78862 0.19633 0.0
C43 C 0.70621 0.83402 0.26082 0.0
N44 N 0.72237 0.84442 0.23561 0.0
C45 C 0.71601 0.84111 0.29558 0.0
H46 H 0.65132 0.80301 0.17923 0.0
H47 H 0.64376 0.77595 0.20981 0.0
H48 H 0.67515 0.76932 0.18224 0.0
H49 H 0.71733 0.81744 0.3058 0.0
H50 H 0.69875 0.85556 0.30974 0.0
H51 H 0.73899 0.8545 0.29833 0.0
C52 C 0.02526 0.98943 0.50761 0.0
N53 N 0.05185 0.99096 0.5244 0.0
N54 N 0.02463 0.01526 0.49031 0.0
C55 C 1.00148 0.96047 0.5049 0.0
C56 C 0.05196 0.03234 0.49677 0.0
N57 N 0.06881 0.01774 0.51728 0.0
C58 C 0.0626 0.06319 0.48261 0.0
H59 H 1.01145 0.93735 0.51003 0.0
H60 H 0.9914 0.95604 0.48045 0.0
H61 H 0.98276 0.96618 0.52235 0.0
H62 H 0.04296 0.0768 0.47615 0.0
H63 H 0.07613 0.05598 0.46061 0.0
H64 H 0.07748 0.0797 0.49996 0.0
C65 C 0.18204 0.71503 0.84128 0.0
N66 N 0.20829 0.70807 0.85528 0.0
N67 N 0.17759 0.69596 0.81264 0.0
C68 C 0.16145 0.74175 0.8545 0.0
C69 C 0.20202 0.67734 0.80929 0.0
N70 N 0.22082 0.68479 0.835 0.0
C71 C 0.20848 0.6533 0.78009 0.0
H72 H 0.14751 0.75003 0.83557 0.0
H73 H 0.1751 0.76355 0.86675 0.0
H74 H 0.14544 0.73179 0.87221 0.0
H75 H 0.18728 0.6449 0.76631 0.0
H76 H 0.21926 0.63141 0.78716 0.0
H77 H 0.2248 0.66586 0.76431 0.0
C78 C 0.97563 0.54316 0.45894 0.0
N79 N 0.99763 0.56847 0.46412 0.0
N80 N 0.94992 0.55071 0.4756 0.0
C81 C 0.97892 0.51163 0.4365 0.0
C82 C 0.95671 0.58175 0.49074 0.0
N83 N 0.98586 0.59286 0.48377 0.0
C84 C 0.9337 0.60185 0.51014 0.0
H85 H 0.97698 0.51706 0.41137 0.0
H86 H 0.96101 0.492 0.44093 0.0
H87 H 1.0018 0.50229 0.43927 0.0
H88 H 0.91536 0.58602 0.52019 0.0
H89 H 0.92272 0.61736 0.49426 0.0
H90 H 0.94472 0.61848 0.53011 0.0
C91 C 0.81006 0.83673 0.86642 0.0
N92 N 0.83533 0.81965 0.85943 0.0
N93 N 0.81094 0.86438 0.85156 0.0
C94 C 0.7834 0.82517 0.88612 0.0
C95 C 0.83771 0.86358 0.83511 0.0
N96 N 0.85239 0.83576 0.83885 0.0
C97 C 0.84963 0.89108 0.81635 0.0
H98 H 0.77031 0.80403 0.87184 0.0
H99 H 0.76793 0.8454 0.89299 0.0
H100 H 0.79163 0.81619 0.90816 0.0
H101 H 0.87481 0.89131 0.81305 0.0
H102 H 0.84403 0.91556 0.82907 0.0
H103 H 0.8382 0.888 0.79259 0.0
C104 C 0.30485 0.33544 0.36566 0.0
N105 N 0.3282 0.31548 0.35816 0.0
N106 N 0.30482 0.35958 0.34628 0.0
C107 C 0.27997 0.32919 0.38967 0.0
C108 C 0.32883 0.35357 0.32628 0.0
N109 N 0.3434 0.32694 0.33345 0.0
C110 C 0.3357 0.37142 0.29732 0.0
H111 H 0.2633 0.30926 0.37859 0.0
H112 H 0.2677 0.35194 0.39697 0.0
H113 H 0.28966 0.32067 0.41126 0.0
H114 H 0.35552 0.38978 0.30274 0.0
H115 H 0.31609 0.38507 0.29091 0.0
H116 H 0.34168 0.35356 0.27629 0.0
C117 C 0.48419 1.00706 0.5966 0.0
N118 N 0.50123 0.98041 0.59718 0.0
N119 N 0.4598 0.99941 0.57659 0.0
C120 C 0.49103 0.04042 0.61636 0.0
C121 C 0.46276 0.96707 0.56488 0.0
N122 N 0.48777 0.95545 0.57741 0.0
C123 C 0.44057 0.94657 0.54191 0.0
H124 H 0.48634 0.03805 0.64206 0.0
H125 H 0.47726 0.05985 0.60869 0.0
H126 H 0.51545 0.04893 0.61415 0.0
H127 H 0.44624 0.9518 0.51712 0.0
H128 H 0.4168 0.95339 0.54737 0.0
H129 H 0.4417 0.91953 0.54264 0.0
C130 C 0.16459 0.30356 0.72184 0.0
N131 N 0.19009 0.31728 0.70868 0.0
N132 N 0.1583 0.32062 0.75078 0.0
C133 C 0.14715 0.27207 0.70743 0.0
C134 C 0.18098 0.34514 0.75479 0.0
N135 N 0.2008 0.34283 0.72953 0.0
C136 C 0.1839 0.3709 0.78402 0.0
H137 H 0.14137 0.27384 0.68206 0.0
H138 H 0.12577 0.26705 0.72099 0.0
H139 H 0.16188 0.25095 0.70749 0.0
H140 H 0.19457 0.36006 0.80378 0.0
H141 H 0.16102 0.3784 0.79242 0.0
H142 H 0.19797 0.39344 0.77888 0.0
C143 C 0.81275 0.23528 0.71625 0.0
N144 N 0.82199 0.21871 0.7402 0.0
N145 N 0.83055 0.26365 0.71487 0.0
C146 C 0.78466 0.22548 0.69595 0.0
C147 C 0.85088 0.26414 0.73898 0.0
N148 N 0.84565 0.23692 0.75467 0.0
C149 C 0.87668 0.29048 0.74588 0.0
H150 H 0.79064 0.20747 0.67505 0.0
H151 H 0.77561 0.24731 0.68681 0.0
H152 H 0.76652 0.21347 0.70997 0.0
H153 H 0.86942 0.3098 0.76503 0.0
H154 H 0.88261 0.30265 0.72417 0.0
H155 H 0.89729 0.27969 0.7542 0.0
C156 C 0.5563 0.53123 0.60205 0.0
N157 N 0.56627 0.54182 0.57394 0.0
N158 N 0.53058 0.54581 0.61262 0.0
C159 C 0.5713 0.506 0.61896 0.0
C160 C 0.52478 0.56527 0.58985 0.0
N161 N 0.546 0.56243 0.56586 0.0
C162 C 0.49827 0.58722 0.5912 0.0
H163 H 0.58009 0.4862 0.60125 0.0
H164 H 0.55551 0.49429 0.63569 0.0
H165 H 0.59084 0.51862 0.63335 0.0
H166 H 0.50495 0.61066 0.58111 0.0
H167 H 0.48975 0.59361 0.61599 0.0
H168 H 0.47905 0.57386 0.57683 0.0
C169 C 0.53564 0.49322 0.017 0.0
N170 N 0.56268 0.49491 0.03296 0.0
N171 N 0.53753 0.51156 0.99225 0.0
C172 C 0.50731 0.47226 0.02448 0.0
C173 C 0.56658 0.52527 0.99411 0.0
N174 N 0.58205 0.51538 0.01868 0.0
C175 C 0.58064 0.54616 0.97012 0.0
H176 H 0.48651 0.48359 0.01736 0.0
H177 H 0.50608 0.46957 0.05048 0.0
H178 H 0.50779 0.44716 1.01058 0.0
H179 H 0.56308 0.55937 0.95896 0.0
H180 H 0.59203 0.52996 0.95094 0.0
H181 H 0.59804 0.5645 0.9822 0.0
C182 C 0.66105 0.21069 0.35707 0.0
N183 N 0.6851 0.20254 0.37387 0.0
N184 N 0.66081 0.1945 0.32684 0.0
C185 C 0.63872 0.23593 0.36959 0.0
C186 C 0.68568 0.17653 0.3255 0.0
N187 N 0.70075 0.18175 0.3539 0.0
C188 C 0.69601 0.15487 0.29615 0.0
H189 H 0.6227 0.22496 0.38668 0.0
H190 H 0.62493 0.24361 0.35022 0.0
H191 H 0.65113 0.2583 0.38264 0.0
H192 H 0.71602 0.16782 0.28544 0.0
H193 H 0.67768 0.14947 0.27783 0.0
H194 H 0.70345 0.13116 0.30294 0.0
C195 C 0.48614 0.04084 0.97185 0.0
N196 N 0.50442 0.06926 0.97156 0.0
N197 N 0.45893 0.04734 0.98602 0.0
C198 C 0.49393 1.00725 0.95565 0.0
C199 C 0.46107 0.0807 0.99404 0.0
N200 N 0.48869 0.09425 0.98527 0.0
C201 C 0.43591 0.09977 1.01072 0.0
H202 H 0.50164 1.00921 0.93061 0.0
H203 H 0.47416 0.98855 0.95519 0.0
H204 H 0.51321 0.99868 0.96861 0.0
H205 H 0.44511 0.12213 0.02626 0.0
H206 H 0.42144 0.08402 0.02552 0.0
H207 H 0.42119 0.10794 0.99229 0.0
Mn208 Mn 0.2635 0.89161 0.03376 0.0
Mn209 Mn 0.25177 0.90424 0.95664 0.0
C210 C 0.23848 0.85032 0.99804 0.0
C211 C 0.29163 0.87237 0.07438 0.0
C212 C 0.21448 0.93525 1.01234 0.0
O213 O 0.29538 0.92976 0.02773 0.0
O214 O 0.2853 0.93551 0.97608 0.0
C215 C 0.31066 0.88343 0.92806 0.0
N216 N 0.27949 0.88036 0.92846 0.0
C217 C 0.27814 0.84142 0.88008 0.0
C218 C 0.31024 0.84421 0.8791 0.0
C219 C 0.32656 0.86514 0.90331 0.0
C220 C 0.26358 0.85992 0.90554 0.0
H221 H 0.32327 0.89982 0.94638 0.0
C222 C 0.30048 0.9435 1.00218 0.0
O223 O 0.2719 0.89466 0.08091 0.0
O224 O 0.29619 0.8625 0.04415 0.0
N225 N 0.22023 0.87534 0.93468 0.0
C226 C 0.18947 0.87406 0.94018 0.0
C227 C 0.16983 0.85358 0.91869 0.0
C228 C 0.18198 0.83498 0.89157 0.0
C229 C 0.21374 0.8365 0.8865 0.0
C230 C 0.23217 0.85734 0.90879 0.0
H231 H 0.17998 0.88879 0.96063 0.0
O232 O 0.23383 0.85143 0.02877 0.0
O233 O 0.25688 0.87392 0.98897 0.0
O234 O 0.22799 0.92283 0.03435 0.0
O235 O 0.22143 0.92968 0.98268 0.0
C236 C 0.22785 0.81827 0.86021 0.0
C237 C 0.26003 0.8207 0.85702 0.0
H238 H 0.32258 0.83024 0.86 0.0
H239 H 0.35133 0.86737 0.90276 0.0
H240 H 0.14535 0.85247 0.92278 0.0
H241 H 0.16663 0.81985 0.87472 0.0
H242 H 0.21423 0.80204 0.84248 0.0
H243 H 0.27064 0.80616 0.837 0.0
Mn244 Mn 0.17397 0.53964 0.28931 0.0
Mn245 Mn 0.15569 0.61716 0.27963 0.0
C246 C 0.21019 0.57745 0.27033 0.0
C247 C 0.19587 0.50107 0.31792 0.0
C248 C 0.13473 0.55621 0.23337 0.0
O249 O 0.13659 0.54548 0.31915 0.0
O250 O 0.12589 0.59673 0.30893 0.0
C251 C 0.16676 0.64972 0.34622 0.0
N252 N 0.1723 0.64847 0.31408 0.0
C253 C 0.20546 0.69867 0.32221 0.0
C254 C 0.19996 0.70059 0.35538 0.0
C255 C 0.18059 0.67595 0.36743 0.0
C256 C 0.19091 0.67205 0.30223 0.0
H257 H 0.1519 0.63086 0.35563 0.0
C258 C 0.12045 0.57083 0.32328 0.0
O259 O 0.17646 0.49159 0.29484 0.0
O260 O 0.20071 0.53291 0.32589 0.0
N261 N 0.18298 0.6401 0.25252 0.0
C262 C 0.18846 0.63274 0.22045 0.0
C263 C 0.20828 0.65426 0.2048 0.0
C264 C 0.22224 0.68309 0.22228 0.0
C265 C 0.21661 0.68991 0.25533 0.0
C266 C 0.19643 0.66771 0.26958 0.0
H267 H 0.17809 0.61042 0.20704 0.0
O268 O 0.21209 0.54568 0.26281 0.0
O269 O 0.18639 0.58619 0.28726 0.0
O270 O 0.14615 0.53491 0.24888 0.0
O271 O 0.13783 0.58749 0.24242 0.0
C272 C 0.23088 0.71737 0.27486 0.0
C273 C 0.22535 0.72172 0.30829 0.0
H274 H 0.21072 0.72067 0.37184 0.0
H275 H 0.17635 0.67717 0.39301 0.0
H276 H 0.21287 0.64858 0.17936 0.0
H277 H 0.2375 0.69964 0.21019 0.0
H278 H 0.24666 0.7349 0.26451 0.0
H279 H 0.23691 0.74257 0.32314 0.0
Mn280 Mn 0.78837 0.65295 0.03482 0.0
Mn281 Mn 0.73124 0.67068 0.98757 0.0
C282 C 0.74014 0.62349 0.03593 0.0
C283 C 0.83181 0.62484 0.04492 0.0
C284 C 0.74852 0.71263 0.05094 0.0
O285 O 0.81147 0.681 1.00304 0.0
O286 O 0.77139 0.68912 0.97277 0.0
C287 C 0.75065 0.62806 0.92936 0.0
N288 N 0.72851 0.6373 0.95111 0.0
C289 C 0.69062 0.60004 0.92183 0.0
C290 C 0.71286 0.59045 0.89883 0.0
C291 C 0.74311 0.60426 0.90283 0.0
C292 C 0.69972 0.6231 0.94828 0.0
H293 H 0.77387 0.63876 0.93226 0.0
C294 C 0.79996 0.69258 0.97921 0.0
O295 O 0.82578 0.6528 0.06145 0.0
O296 O 0.81333 0.6136 0.02138 0.0
N297 N 0.69041 0.6549 0.99722 0.0
C298 C 0.67147 0.66764 0.02097 0.0
C299 C 0.64035 0.65651 0.02051 0.0
C300 C 0.62875 0.63345 0.99496 0.0
C301 C 0.64847 0.62145 0.97025 0.0
C302 C 0.67939 0.63283 0.97241 0.0
H303 H 0.68002 0.68627 0.04006 0.0
O304 O 0.75954 0.62437 0.05915 0.0
O305 O 0.74986 0.63888 1.01184 0.0
O306 O 0.77014 0.69505 0.05742 0.0
O307 O 0.73235 0.70592 0.02535 0.0
C308 C 0.63849 0.59961 0.94293 0.0
C309 C 0.65964 0.58826 0.91916 0.0
H310 H 0.70696 0.57255 0.87802 0.0
H311 H 0.76049 0.59685 0.88532 0.0
H312 H 0.62521 0.66618 0.03947 0.0
H313 H 0.6046 0.62554 0.99436 0.0
H314 H 0.61452 0.59188 0.93949 0.0
H315 H 0.65169 0.57111 0.89854 0.0
Mn316 Mn 0.87419 0.03713 0.29317 0.0
Mn317 Mn 0.89982 0.95995 0.28692 0.0
C318 C 0.84943 0.99329 0.25958 0.0
C319 C 0.84431 0.07926 0.31737 0.0
C320 C 0.92911 1.01407 0.25129 0.0
O321 O 0.90247 0.0408 0.33216 0.0
O322 O 0.9192 0.98926 0.32375 0.0
C323 C 0.86889 0.94358 0.34669 0.0
N324 N 0.87378 0.93623 0.31451 0.0
C325 C 0.83708 0.8889 0.31147 0.0
C326 C 0.83177 0.89588 0.3446 0.0
C327 C 0.84771 0.92338 0.36226 0.0
C328 C 0.85815 0.91019 0.29721 0.0
H329 H 0.88091 0.9648 0.36035 0.0
C330 C 0.91917 0.01839 0.33941 0.0
O331 O 0.86854 0.08576 0.30053 0.0
O332 O 0.83792 0.04826 0.3211 0.0
N333 N 0.88388 0.92772 0.25282 0.0
C334 C 0.89434 0.92226 0.22199 0.0
C335 C 0.88263 0.8942 0.20156 0.0
C336 C 0.86073 0.87165 0.21321 0.0
C337 C 0.8512 0.87706 0.24537 0.0
C338 C 0.86412 0.90515 0.26471 0.0
H339 H 0.91149 0.93919 0.21306 0.0
O340 O 0.84613 0.02392 0.25547 0.0
O341 O 0.8665 0.98927 0.28377 0.0
O342 O 0.91174 0.03637 0.26356 0.0
O343 O 0.92637 0.98377 0.25716 0.0
C344 C 0.82979 0.85538 0.25913 0.0
C345 C 0.82244 0.86154 0.29209 0.0
H346 H 0.81557 0.88026 0.35672 0.0
H347 H 0.84368 0.929 0.38782 0.0
H348 H 0.89046 0.88996 0.17691 0.0
H349 H 0.85157 0.85018 0.19734 0.0
H350 H 0.81895 0.83383 0.24461 0.0
H351 H 0.80592 0.84474 0.30241 0.0
Mn352 Mn 0.28306 0.13983 0.52919 0.0
Mn353 Mn 0.22342 0.17021 0.4946 0.0
C354 C 0.2334 0.11398 0.53265 0.0
C355 C 0.32513 0.10669 0.52893 0.0
C356 C 0.25026 0.20099 0.559 0.0
O357 O 0.30462 0.17128 0.49917 0.0
O358 O 0.26272 0.18637 0.47588 0.0
C359 C 0.23132 0.13273 0.43006 0.0
N360 N 0.21314 0.1419 0.45577 0.0
C361 C 0.16879 0.11322 0.4292 0.0
C362 C 0.18685 0.10401 0.40213 0.0
C363 C 0.21836 0.11344 0.40274 0.0
C364 C 0.18319 0.13155 0.45607 0.0
H365 H 0.2555 0.13999 0.43048 0.0
C366 C 0.29177 0.18668 0.47869 0.0
O367 O 0.32253 0.13282 0.54966 0.0
O368 O 0.30385 0.10025 0.5072 0.0
N369 N 0.18319 0.15744 0.50892 0.0
C370 C 0.16885 0.16887 0.53676 0.0
C371 C 0.13726 0.16145 0.54017 0.0
C372 C 0.1205 0.14354 0.51449 0.0
C373 C 0.13557 0.13287 0.48573 0.0
C374 C 0.1672 0.14026 0.48402 0.0
H375 H 0.18138 0.18368 0.55619 0.0
O376 O 0.25481 0.10938 0.55235 0.0
O377 O 0.24184 0.1326 0.51052 0.0
O378 O 0.27032 0.17987 0.55979 0.0
O379 O 0.23199 0.20046 0.53529 0.0
C380 C 0.1203 0.11628 0.45827 0.0
C381 C 0.13696 0.10567 0.43032 0.0
H382 H 0.1768 0.08967 0.3808 0.0
H383 H 0.23255 0.10617 0.38209 0.0
H384 H 0.12575 0.1701 0.56232 0.0
H385 H 0.09603 0.13854 0.51698 0.0
H386 H 0.09568 0.11227 0.45806 0.0
H387 H 0.12495 0.09242 0.40958 0.0
Mn388 Mn 0.37414 0.51248 0.8004 0.0
Mn389 Mn 0.40159 0.43629 0.79572 0.0
C390 C 0.34526 0.46565 0.77672 0.0
C391 C 0.34591 0.55531 0.82587 0.0
C392 C 0.42258 0.48687 0.75152 0.0
O393 O 0.40788 0.51984 0.83432 0.0
O394 O 0.42444 0.4681 0.82875 0.0
C395 C 0.38349 0.41988 0.86045 0.0
N396 N 0.38277 0.41214 0.82788 0.0
C397 C 0.35289 0.36077 0.83207 0.0
C398 C 0.3535 0.36811 0.86565 0.0
C399 C 0.36882 0.39782 0.87988 0.0
C400 C 0.36823 0.38351 0.81393 0.0
H401 H 0.39515 0.44272 0.87153 0.0
C402 C 0.42542 0.49837 0.84225 0.0
O403 O 0.36694 0.56085 0.80474 0.0
O404 O 0.34234 0.52524 0.83333 0.0
N405 N 0.38102 0.40306 0.76536 0.0
C406 C 0.37962 0.40153 0.73277 0.0
C407 C 0.36367 0.37421 0.71488 0.0
C408 C 0.34931 0.34877 0.73065 0.0
C409 C 0.35091 0.35097 0.76423 0.0
C410 C 0.36734 0.37868 0.78079 0.0
H411 H 0.39005 0.42131 0.72061 0.0
O412 O 0.34072 0.49491 0.76917 0.0
O413 O 0.36693 0.46456 0.79742 0.0
O414 O 0.40639 0.50998 0.76425 0.0
O415 O 0.42213 0.45825 0.76108 0.0
C416 C 0.33596 0.32735 0.78199 0.0
C417 C 0.33698 0.33222 0.81588 0.0
H418 H 0.34197 0.35131 0.88072 0.0
H419 H 0.36925 0.40374 0.90578 0.0
H420 H 0.36221 0.37291 0.689 0.0
H421 H 0.33669 0.32796 0.7168 0.0
H422 H 0.32307 0.30569 0.76984 0.0
H423 H 0.32492 0.31419 0.82928 0.0
Mn424 Mn 0.75823 0.39195 0.54016 0.0
Mn425 Mn 0.74452 0.40948 0.46524 0.0
C426 C 0.73375 0.35214 0.50265 0.0
C427 C 0.78783 0.3688 0.57695 0.0
C428 C 0.7102 0.4393 0.52419 0.0
O429 O 0.78971 0.43054 0.53517 0.0
O430 O 0.78049 0.43833 0.48372 0.0
C431 C 0.80063 0.38802 0.4308 0.0
N432 N 0.76959 0.38538 0.43413 0.0
C433 C 0.76438 0.3442 0.38748 0.0
C434 C 0.79627 0.34659 0.38353 0.0
C435 C 0.81445 0.36858 0.4053 0.0
C436 C 0.75184 0.36451 0.41312 0.0
H437 H 0.81475 0.40477 0.44752 0.0
C438 C 0.796 0.44458 0.50993 0.0
O439 O 0.76848 0.3908 0.58658 0.0
O440 O 0.79123 0.36192 0.54615 0.0
N441 N 0.71094 0.38183 0.44541 0.0
C442 C 0.68096 0.38001 0.45452 0.0
C443 C 0.6599 0.35771 0.43639 0.0
C444 C 0.66988 0.33745 0.40916 0.0
C445 C 0.70089 0.33951 0.40041 0.0
C446 C 0.72081 0.36237 0.4193 0.0
H447 H 0.67322 0.39521 0.47565 0.0
O448 O 0.72879 0.35133 0.53313 0.0
O449 O 0.75081 0.37754 0.49536 0.0
O450 O 0.72341 0.424 0.54437 0.0
O451 O 0.71658 0.43574 0.49426 0.0
C452 C 0.71294 0.31922 0.37418 0.0
C453 C 0.74464 0.32165 0.36764 0.0
H454 H 0.80706 0.33135 0.36411 0.0
H455 H 0.8391 0.37043 0.4025 0.0
H456 H 0.63605 0.35603 0.44346 0.0
H457 H 0.65357 0.32018 0.39534 0.0
H458 H 0.6981 0.30124 0.35922 0.0
H459 H 0.75371 0.30552 0.34774 0.0
Mn460 Mn 0.6689 0.03108 0.78516 0.0
Mn461 Mn 0.64595 0.10584 0.77237 0.0
C462 C 0.70155 0.06837 0.76083 0.0
C463 C 0.69473 0.99632 0.81489 0.0
C464 C 0.62584 0.0419 0.72988 0.0
O465 O 0.63346 0.03705 0.81744 0.0
O466 O 0.61843 0.08532 0.80371 0.0
C467 C 0.65882 0.14075 0.83784 0.0
N468 N 0.6627 0.13887 0.80539 0.0
C469 C 0.69369 0.19065 0.81086 0.0
C470 C 0.68987 0.19322 0.8443 0.0
C471 C 0.67247 0.16807 0.85784 0.0
C472 C 0.67972 0.16273 0.79216 0.0
H473 H 0.64542 0.12159 0.84844 0.0
C474 C 0.61564 0.06093 0.82041 0.0
O475 O 0.67432 0.98429 0.79351 0.0
O476 O 0.69855 0.02848 0.82043 0.0
N477 N 0.67058 0.12938 0.74342 0.0
C478 C 0.67379 0.12216 0.71102 0.0
C479 C 0.69081 0.1446 0.69376 0.0
C480 C 0.70428 0.17435 0.70998 0.0
C481 C 0.70103 0.18114 0.74342 0.0
C482 C 0.68359 0.1579 0.75929 0.0
H483 H 0.66372 0.09931 0.69855 0.0
O484 O 0.7046 0.03663 0.75537 0.0
O485 O 0.67886 0.07737 0.7794 0.0
O486 O 0.63847 0.02247 0.74668 0.0
O487 O 0.62824 0.0736 0.73663 0.0
C488 C 0.71457 0.20991 0.76167 0.0
C489 C 0.71106 0.21455 0.79539 0.0
H490 H 0.70033 0.21427 0.85981 0.0
H491 H 0.66951 0.16979 0.88365 0.0
H492 H 0.69348 0.13901 0.66799 0.0
H493 H 0.71707 0.19169 0.69645 0.0
H494 H 0.72803 0.22844 0.75012 0.0
H495 H 0.72203 0.23647 0.80921 0.0
Mn496 Mn 1.00958 0.25533 0.92344 0.0
Mn497 Mn 0.94353 0.24313 0.96356 0.0
C498 C 0.96452 0.23514 0.89603 0.0
C499 C 0.04399 0.28483 0.89271 0.0
C500 C 0.99577 0.19781 0.96389 0.0
O501 O 0.01714 0.28689 0.96548 0.0
O502 O 0.97222 0.2755 0.99045 0.0
C503 C 0.9208 0.31054 0.96739 0.0
N504 N 0.91685 0.27719 0.9577 0.0
C505 C 0.8681 0.28335 0.93404 0.0
C506 C 0.87162 0.3177 0.94389 0.0
C507 C 0.89808 0.33134 0.96065 0.0
C508 C 0.89129 0.26376 0.94186 0.0
H509 H 0.94116 0.32127 0.98008 0.0
C510 C 0.99859 0.29151 0.98934 0.0
O511 O 0.05248 0.26129 0.90806 0.0
O512 O 0.01599 0.29303 0.89715 0.0
N513 N 0.91408 0.21342 0.93897 0.0
C514 C 0.91561 0.18046 0.92827 0.0
C515 C 0.89158 0.16336 0.90973 0.0
C516 C 0.86635 0.18035 0.90215 0.0
C517 C 0.86542 0.21434 0.91311 0.0
C518 C 0.88989 0.23001 0.93181 0.0
H519 H 0.93526 0.16749 0.93333 0.0
O520 O 0.99097 0.22741 0.88415 0.0
O521 O 0.96543 0.25215 0.92439 0.0
O522 O 1.01388 0.21427 0.94683 0.0
O523 O 0.96863 0.20593 0.97096 0.0
C524 C 0.84161 0.23348 0.90539 0.0
C525 C 0.8429 0.26794 0.91593 0.0
H526 H 0.85433 0.3339 0.9384 0.0
H527 H 0.90104 0.35786 0.9682 0.0
H528 H 0.89267 0.13722 0.901 0.0
H529 H 0.84806 0.16717 0.88747 0.0
H530 H 0.82245 0.22205 0.89091 0.0
H531 H 0.82468 0.28248 0.90943 0.0
Mn532 Mn 0.51857 0.7413 0.40987 0.0
Mn533 Mn 0.4493 0.74154 0.44579 0.0
C534 C 0.47409 0.72454 0.37998 0.0
C535 C 0.56005 0.76242 0.38125 0.0
C536 C 0.49533 0.69103 0.45506 0.0
O537 O 0.52615 0.77568 0.44993 0.0
O538 O 0.47875 0.7737 0.47212 0.0
C539 C 0.43342 0.81039 0.44067 0.0
N540 N 0.42692 0.77692 0.43403 0.0
C541 C 0.3809 0.78497 0.40603 0.0
C542 C 0.38708 0.8195 0.41268 0.0
C543 C 0.41345 0.83224 0.43008 0.0
C544 C 0.4014 0.76438 0.41761 0.0
H545 H 0.45373 0.8204 0.45387 0.0
C546 C 0.50671 0.78578 0.47155 0.0
O547 O 0.56264 0.73963 0.39974 0.0
O548 O 0.53339 0.77455 0.38047 0.0
N549 N 0.41919 0.71242 0.42156 0.0
C550 C 0.41822 0.67869 0.41429 0.0
C551 C 0.39411 0.66211 0.3955 0.0
C552 C 0.37137 0.68036 0.38421 0.0
C553 C 0.37299 0.71508 0.39174 0.0
C554 C 0.39741 0.73023 0.41082 0.0
H555 H 0.43595 0.66461 0.42232 0.0
O556 O 0.49998 0.71243 0.37106 0.0
O557 O 0.47484 0.74394 0.40713 0.0
O558 O 0.51572 0.70283 0.43712 0.0
O559 O 0.46936 0.70326 0.45973 0.0
C560 C 0.35182 0.73529 0.38029 0.0
C561 C 0.35571 0.77021 0.38752 0.0
H562 H 0.37193 0.83645 0.40421 0.0
H563 H 0.41845 0.85887 0.43518 0.0
H564 H 0.39322 0.63535 0.38947 0.0
H565 H 0.35302 0.66752 0.3694 0.0
H566 H 0.33275 0.72427 0.36545 0.0
H567 H 0.33955 0.78551 0.37816 0.0
Mn568 Mn 0.02634 0.79402 0.65226 0.0
Mn569 Mn 0.99155 0.72143 0.67025 0.0
C570 C 0.0242 0.74627 0.61443 0.0
C571 C 0.02778 0.84566 0.6322 0.0
C572 C 0.05407 0.74826 0.69536 0.0
O573 O 0.99885 0.80896 0.69124 0.0
O574 O 0.97606 0.75898 0.69946 0.0
C575 C 0.92833 0.73105 0.65092 0.0
N576 N 0.95336 0.71282 0.6482 0.0
C577 C 0.92688 0.66945 0.61236 0.0
C578 C 0.90076 0.6877 0.61481 0.0
C579 C 0.90158 0.71876 0.63397 0.0
C580 C 0.95309 0.68336 0.62913 0.0
H581 H 0.92874 0.75469 0.66603 0.0
C582 C 0.98005 0.79059 0.70634 0.0
O583 O 0.04809 0.8391 0.6522 0.0
O584 O 1.00572 0.82291 0.62481 0.0
N585 N 1.00406 0.6827 0.64393 0.0
C586 C 0.03118 0.66821 0.64417 0.0
C587 C 0.03426 0.6371 0.626 0.0
C588 C 1.00922 0.62083 0.60846 0.0
C589 C 0.9814 0.63596 0.60909 0.0
C590 C 0.97984 0.66725 0.62714 0.0
H591 H 0.05032 0.68023 0.65817 0.0
O592 O 0.04514 0.77021 0.61248 0.0
O593 O 1.00529 0.75095 0.6384 0.0
O594 O 0.0556 0.7741 0.68098 0.0
O595 O 0.03086 0.72729 0.69354 0.0
C596 C 0.95497 0.62093 0.59302 0.0
C597 C 0.92781 0.6378 0.59435 0.0
H598 H 0.87994 0.67807 0.60215 0.0
H599 H 0.88152 0.73301 0.63598 0.0
H600 H 0.05578 0.62553 0.62578 0.0
H601 H 1.01159 0.59671 0.59468 0.0
H602 H 0.95535 0.59642 0.57943 0.0
H603 H 0.90772 0.62613 0.58154 0.0
Mn604 Mn 0.52417 0.29267 0.15296 0.0
Mn605 Mn 0.48878 0.21898 0.16733 0.0
C606 C 0.5291 0.24429 0.11672 0.0
C607 C 0.52832 0.3424 0.12918 0.0
C608 C 0.54768 0.24775 0.19968 0.0
O609 O 0.49216 0.30762 0.18793 0.0
O610 O 0.47183 0.25657 0.19483 0.0
C611 C 0.42781 0.22971 0.14253 0.0
N612 N 0.45247 0.21102 0.14202 0.0
C613 C 0.42732 0.16735 0.10554 0.0
C614 C 0.40161 0.18607 0.10564 0.0
C615 C 0.40199 0.21755 0.12397 0.0
C616 C 0.4528 0.18128 0.12355 0.0
H617 H 0.42774 0.25357 0.15718 0.0
C618 C 0.47343 0.28818 0.20194 0.0
O619 O 0.54468 0.33883 0.1539 0.0
O620 O 0.50762 0.31857 0.12038 0.0
N621 N 0.50211 0.17946 0.1431 0.0
C622 C 0.52752 0.16321 0.14794 0.0
C623 C 0.53067 0.13129 0.13147 0.0
C624 C 0.50712 0.11582 0.11124 0.0
C625 C 0.48051 0.13231 0.10795 0.0
C626 C 0.47897 0.16442 0.12433 0.0
H627 H 0.54532 0.17453 0.16418 0.0
O628 O 0.54926 0.26932 0.11763 0.0
O629 O 0.50635 0.24811 0.13678 0.0
O630 O 0.54933 0.27474 0.18698 0.0
O631 O 0.52618 0.22494 0.19372 0.0
C632 C 0.4549 0.11751 0.09026 0.0
C633 C 0.42833 0.13504 0.08903 0.0
H634 H 0.3814 0.17642 0.09192 0.0
H635 H 0.38223 0.23214 0.12424 0.0
H636 H 0.55103 0.11847 0.13469 0.0
H637 H 0.50941 0.091 0.09894 0.0
H638 H 0.45527 0.09248 0.0778 0.0
H639 H 0.40865 0.12333 0.07556 0.0
H640 H 0.18064 0.72304 0.91235 0.0
H641 H 0.26658 0.73554 0.86278 0.0
H642 H 0.28545 0.77708 0.90652 0.0
H643 H 0.27394 0.81753 0.95333 0.0
H644 H 0.18428 0.81298 0.99654 0.0
H645 H 0.16951 0.76237 0.96002 0.0
C646 C 0.20347 0.73498 0.91113 0.0
C647 C 0.22195 0.72641 0.88405 0.0
C648 C 0.21283 0.76159 0.93445 0.0
C649 C 0.25195 0.74107 0.8834 0.0
C650 C 0.2625 0.7655 0.90812 0.0
C651 C 0.25103 0.80565 0.95436 0.0
C652 C 0.22967 0.81964 0.97644 0.0
C653 C 0.24252 0.77729 0.93269 0.0
C654 C 0.2007 0.80308 0.97899 0.0
C655 C 0.19236 0.77415 0.95824 0.0
H656 H 1.00509 0.59978 0.41228 0.0
H657 H 0.05016 0.53986 0.47188 0.0
H658 H 0.09231 0.53358 0.43277 0.0
H659 H 0.115 0.54321 0.37983 0.0
H660 H 0.06859 0.60292 0.32031 0.0
H661 H 0.02825 0.61079 0.36052 0.0
C662 C 0.02467 0.58622 0.41694 0.0
C663 C 0.02514 0.57103 0.44511 0.0
C664 C 0.04816 0.58195 0.39386 0.0
C665 C 0.04994 0.55246 0.45065 0.0
C666 C 0.07371 0.5485 0.42808 0.0
C667 C 0.09586 0.55758 0.37555 0.0
C668 C 0.09474 0.57214 0.34686 0.0
C669 C 0.0728 0.5626 0.39922 0.0
C670 C 0.07003 0.59128 0.34205 0.0
C671 C 0.04697 0.59599 0.36513 0.0
H672 H 0.86198 0.81199 0.91497 0.0
H673 H 0.81571 0.7586 0.83233 0.0
H674 H 0.8038 0.71092 0.86186 0.0
H675 H 0.79795 0.6896 0.91421 0.0
H676 H 0.84396 0.74273 0.99755 0.0
H677 H 0.86496 0.78516 0.96497 0.0
C678 C 0.85075 0.78915 0.90304 0.0
C679 C 0.84015 0.78854 0.87129 0.0
C680 C 0.84322 0.76224 0.92069 0.0
C681 C 0.82472 0.75928 0.85635 0.0
C682 C 0.81742 0.73231 0.87352 0.0
C683 C 0.81335 0.70991 0.92507 0.0
C684 C 0.81922 0.71303 0.9584 0.0
C685 C 0.82523 0.73422 0.90615 0.0
C686 C 0.83923 0.73955 0.97201 0.0
C687 C 0.85103 0.76399 0.95337 0.0
H688 H 0.03378 0.02324 0.42822 0.0
H689 H 0.96398 0.01873 0.5009 0.0
H690 H 0.92433 0.02299 0.46103 0.0
H691 H 0.90945 0.02371 0.40414 0.0
H692 H 0.97993 0.02782 0.33196 0.0
H693 H 0.01949 0.02915 0.37287 0.0
C694 C 1.00996 0.02402 0.4354 0.0
C695 C 1.00172 0.02072 0.46738 0.0
C696 C 0.98746 0.02659 0.41238 0.0
C697 C 0.97071 0.02099 0.47631 0.0
C698 C 0.94812 0.02353 0.45356 0.0
C699 C 0.93352 0.02588 0.39771 0.0
C700 C 0.94196 0.02625 0.36531 0.0
C701 C 0.95616 0.02584 0.42136 0.0
C702 C 0.97309 0.02807 0.35691 0.0
C703 C 0.99566 0.02853 0.38022 0.0
H704 H 0.23862 0.28046 0.69826 0.0
H705 H 0.16917 0.32575 0.65096 0.0
H706 H 0.18314 0.29557 0.599 0.0
H707 H 0.21137 0.25156 0.56832 0.0
H708 H 0.28082 0.20569 0.61616 0.0
H709 H 0.27092 0.24074 0.6662 0.0
C710 C 0.22732 0.28429 0.67631 0.0
C711 C 0.20315 0.30534 0.67806 0.0
C712 C 0.23515 0.26629 0.64669 0.0
C713 C 0.18809 0.30986 0.64979 0.0
C714 C 0.1959 0.29238 0.62024 0.0
C715 C 0.22466 0.24949 0.58952 0.0
C716 C 0.24659 0.22557 0.58825 0.0
C717 C 0.2188 0.26975 0.61853 0.0
C718 C 0.26364 0.2236 0.61617 0.0
C719 C 0.25799 0.24367 0.64499 0.0
H720 H 0.49966 0.48903 0.62321 0.0
H721 H 0.52097 0.59038 0.66441 0.0
H722 H 0.48796 0.58192 0.71088 0.0
H723 H 0.45291 0.54515 0.73965 0.0
H724 H 0.43721 0.44177 0.70095 0.0
H725 H 0.46826 0.4512 0.65395 0.0
C726 C 0.49718 0.50903 0.64262 0.0
C727 C 0.51233 0.5403 0.64052 0.0
C728 C 0.47916 0.50354 0.66962 0.0
C729 C 0.50915 0.56622 0.6656 0.0
C730 C 0.49039 0.56133 0.69209 0.0
C731 C 0.45627 0.52476 0.72086 0.0
C732 C 0.4423 0.49293 0.72359 0.0
C733 C 0.47518 0.53007 0.69433 0.0
C734 C 0.44739 0.46657 0.69938 0.0
C735 C 0.46521 0.47192 0.67245 0.0
H736 H 0.84021 0.25942 0.65143 0.0
H737 H 0.81013 0.32402 0.73314 0.0
H738 H 0.79572 0.36427 0.69787 0.0
H739 H 0.78801 0.37862 0.64297 0.0
H740 H 0.81996 0.31409 0.56148 0.0
H741 H 0.83765 0.27663 0.59717 0.0
C742 C 0.83101 0.28265 0.66133 0.0
C743 C 0.82619 0.28903 0.69461 0.0
C744 C 0.82297 0.30555 0.64088 0.0
C745 C 0.81415 0.31897 0.70752 0.0
C746 C 0.8058 0.34178 0.68734 0.0
C747 C 0.79926 0.35664 0.63308 0.0
C748 C 0.80239 0.34916 0.59949 0.0
C749 C 0.80956 0.33505 0.65386 0.0
C750 C 0.81716 0.32056 0.58716 0.0
C751 C 0.82721 0.29896 0.60757 0.0
H752 H 0.55616 1.01374 0.59701 0.0
H753 H 0.50141 0.94534 0.64777 0.0
H754 H 0.53752 0.95516 0.69308 0.0
H755 H 0.58114 0.98985 0.72135 0.0
H756 H 0.63152 0.06247 0.67097 0.0
H757 H 0.60096 0.04507 0.62317 0.0
C758 C 0.55264 1.00046 0.61775 0.0
C759 C 0.52626 0.97886 0.6191 0.0
C760 C 0.57249 1.00779 0.6443 0.0
C761 C 0.52179 0.96177 0.64606 0.0
C762 C 0.54221 0.96784 0.67215 0.0
C763 C 0.58567 1.00143 0.69972 0.0
C764 C 0.60864 0.02777 0.70007 0.0
C765 C 0.5671 0.9918 0.6721 0.0
C766 C 0.61393 0.04262 0.67182 0.0
C767 C 0.59645 0.03252 0.64423 0.0
H768 H 0.86045 0.27624 0.80939 0.0
H769 H 0.871 0.17872 0.75895 0.0
H770 H 0.90742 0.16767 0.79985 0.0
H771 H 0.94028 0.18845 0.84762 0.0
H772 H 0.93234 0.28866 0.89353 0.0
H773 H 0.89162 0.29627 0.85685 0.0
C774 C 0.87076 0.25259 0.80743 0.0
C775 C 0.86347 0.22853 0.781 0.0
C776 C 0.89246 0.24706 0.83023 0.0
C777 C 0.87629 0.1976 0.77913 0.0
C778 C 0.89733 0.19146 0.80235 0.0
C779 C 0.92931 0.21173 0.84968 0.0
C780 C 0.93861 0.23754 0.87407 0.0
C781 C 0.90625 0.21637 0.82762 0.0
C782 C 0.92482 0.26793 0.87587 0.0
C783 C 0.90167 0.27246 0.85466 0.0
H784 H 0.52952 0.93486 0.53326 0.0
H785 H 0.46557 0.90127 0.6027 0.0
H786 H 0.46862 0.84347 0.57811 0.0
H787 H 0.48291 0.80417 0.53131 0.0
H788 H 0.5478 0.83758 0.46208 0.0
H789 H 0.5515 0.89336 0.49217 0.0
C790 C 0.51736 0.91461 0.54371 0.0
C791 C 0.49753 0.92211 0.56988 0.0
C792 C 0.51896 0.88146 0.52901 0.0
C793 C 0.48132 0.89587 0.58292 0.0
C794 C 0.48277 0.86293 0.56854 0.0
C795 C 0.4985 0.82341 0.52326 0.0
C796 C 0.51484 0.81657 0.49421 0.0
C797 C 0.50051 0.85559 0.54073 0.0
C798 C 0.53504 0.84189 0.48433 0.0
C799 C 0.53697 0.87399 0.50143 0.0
H800 H 0.10925 0.34949 0.77775 0.0
H801 H 0.16541 0.26727 0.78048 0.0
H802 H 0.13614 0.25007 0.82651 0.0
H803 H 0.09475 0.2586 0.8658 0.0
H804 H 0.03706 0.33986 0.86262 0.0
H805 H 0.06704 0.35788 0.81743 0.0
C806 C 0.11476 0.32776 0.7885 0.0
C807 C 0.13914 0.3094 0.77592 0.0
C808 C 0.09791 0.31826 0.81505 0.0
C809 C 0.14642 0.28133 0.78977 0.0
C810 C 0.12988 0.27175 0.81614 0.0
C811 C 0.08894 0.28052 0.85553 0.0
C812 C 0.06389 0.29807 0.86779 0.0
C813 C 0.1057 0.29013 0.82908 0.0
C814 C 0.05637 0.32607 0.85378 0.0
C815 C 0.07339 0.33626 0.82783 0.0
H816 H 0.50025 0.56178 0.52405 0.0
H817 H 0.59144 0.60422 0.54608 0.0
H818 H 0.58491 0.64666 0.5102 0.0
H819 H 0.55006 0.67662 0.47919 0.0
H820 H 0.45575 0.63898 0.46665 0.0
H821 H 0.46599 0.59073 0.49307 0.0
C822 C 0.51882 0.5801 0.52056 0.0
C823 C 0.54616 0.5801 0.53793 0.0
C824 C 0.51378 0.60602 0.50241 0.0
C825 C 0.57028 0.60354 0.53283 0.0
C826 C 0.56626 0.62817 0.51281 0.0
C827 C 0.53184 0.65769 0.48204 0.0
C828 C 0.50209 0.66149 0.47087 0.0
C829 C 0.53762 0.63053 0.49859 0.0
C830 C 0.47871 0.63688 0.47509 0.0
C831 C 0.48461 0.60915 0.49007 0.0
H832 H 0.86018 0.83729 0.77516 0.0
H833 H 0.90194 0.80527 0.85732 0.0
H834 H 0.94622 0.78876 0.82387 0.0
H835 H 0.97353 0.78487 0.77063 0.0
H836 H 0.93461 0.82762 0.69282 0.0
H837 H 0.88969 0.84104 0.72584 0.0
C838 C 0.87934 0.82783 0.78628 0.0
C839 C 0.87778 0.82336 0.81912 0.0
C840 C 0.90567 0.82123 0.76774 0.0
C841 C 0.90222 0.80893 0.83222 0.0
C842 C 0.9278 0.79997 0.81315 0.0
C843 C 0.95561 0.79809 0.76138 0.0
C844 C 0.95767 0.80591 0.72947 0.0
C845 C 0.92999 0.80647 0.78092 0.0
C846 C 0.93397 0.82224 0.71749 0.0
C847 C 0.90806 0.8294 0.73621 0.0
H848 H 1.01422 0.97869 0.57247 0.0
H849 H 0.10102 0.9544 0.53015 0.0
H850 H 0.10291 0.90866 0.56324 0.0
H851 H 0.0761 0.87105 0.59909 0.0
H852 H 0.98488 0.89054 0.63246 0.0
H853 H 0.98773 0.94193 0.60738 0.0
C854 C 0.03374 0.96357 0.57082 0.0
C855 C 0.05739 0.96985 0.5488 0.0
C856 C 0.03329 0.93585 0.58774 0.0
C857 C 0.08272 0.95039 0.5471 0.0
C858 C 0.08347 0.92387 0.56564 0.0
C859 C 0.05702 0.88681 0.60102 0.0
C860 C 0.03029 0.8772 0.61771 0.0
C861 C 0.05834 0.91563 0.58519 0.0
C862 C 1.00555 0.89744 0.61971 0.0
C863 C 1.00726 0.92684 0.60547 0.0
H864 H 0.17457 0.74493 0.77643 0.0
H865 H 0.12882 0.65314 0.79779 0.0
H866 H 0.0863 0.66047 0.76215 0.0
H867 H 0.06133 0.69477 0.72731 0.0
H868 H 0.10698 0.78785 0.70732 0.0
H869 H 0.15032 0.77847 0.7401 0.0
C870 C 0.15534 0.72652 0.77279 0.0
C871 C 0.15443 0.69859 0.78936 0.0
C872 C 0.13095 0.73137 0.7529 0.0
C873 C 0.12967 0.67469 0.78496 0.0
C874 C 0.10545 0.67904 0.76482 0.0
C875 C 0.08073 0.71304 0.73005 0.0
C876 C 0.08065 0.74212 0.71495 0.0
C877 C 0.10563 0.70758 0.74906 0.0
C878 C 0.10621 0.76532 0.71869 0.0
C879 C 0.1311 0.75998 0.73743 0.0
H880 H 0.96791 0.65562 0.49329 0.0
H881 H 0.04159 0.59614 0.51181 0.0
H882 H 0.06332 0.64137 0.55109 0.0
H883 H 0.05658 0.69456 0.58659 0.0
H884 H 0.97431 0.74478 0.57769 0.0
H885 H 0.95959 0.70615 0.52992 0.0
C886 C 0.98867 0.6525 0.50603 0.0
C887 C 1.00265 0.62218 0.50007 0.0
C888 C 0.9988 0.67675 0.53133 0.0
C889 C 0.03035 0.61919 0.51573 0.0
C890 C 0.04245 0.64485 0.5387 0.0
C891 C 0.03545 0.69684 0.57411 0.0
C892 C 0.0163 0.72213 0.58576 0.0
C893 C 0.0261 0.67313 0.54779 0.0
C894 C 0.98913 0.72518 0.56934 0.0
C895 C 0.98081 0.70324 0.54194 0.0
H896 H 0.77091 0.86556 0.19805 0.0
H897 H 0.7107 0.8999 0.27564 0.0
H898 H 0.7461 0.94731 0.29175 0.0
H899 H 0.79693 0.97592 0.28743 0.0
H900 H 0.84793 0.95573 0.19988 0.0
H901 H 0.81246 0.90684 0.1827 0.0
C902 C 0.76515 0.8834 0.21818 0.0
C903 C 0.7398 0.87662 0.23808 0.0
C904 C 0.78407 0.91316 0.22544 0.0
C905 C 0.73179 0.90217 0.26216 0.0
C906 C 0.75173 0.92983 0.27115 0.0
C907 C 0.80026 0.96074 0.26458 0.0
C908 C 0.82633 0.96715 0.2462 0.0
C909 C 0.77866 0.93469 0.25385 0.0
C910 C 0.82911 0.94938 0.21544 0.0
C911 C 0.80865 0.92177 0.20552 0.0
H912 H 0.7572 0.19702 0.33339 0.0
H913 H 0.7041 0.12972 0.38683 0.0
H914 H 0.74593 0.09215 0.38303 0.0
H915 H 0.79442 0.07495 0.35714 0.0
H916 H 0.8471 0.14294 0.30315 0.0
H917 H 0.80902 0.18381 0.31462 0.0
C918 C 0.7555 0.17475 0.34525 0.0
C919 C 0.728 0.16613 0.36069 0.0
C920 C 0.7793 0.15307 0.34215 0.0
C921 C 0.72542 0.13696 0.37542 0.0
C922 C 0.74913 0.11533 0.37277 0.0
C923 C 0.79782 0.09893 0.34837 0.0
C924 C 0.82341 0.10559 0.32888 0.0
C925 C 0.7757 0.1225 0.35505 0.0
C926 C 0.82757 0.13696 0.31799 0.0
C927 C 0.80574 0.16041 0.32449 0.0
H928 H 0.40192 0.04955 0.96503 0.0
H929 H 0.45829 0.99505 0.01974 0.0
H930 H 0.41332 0.95921 0.0326 0.0
H931 H 0.35762 0.94328 0.02743 0.0
H932 H 0.30203 0.99854 0.97207 0.0
H933 H 0.34664 0.03497 0.96116 0.0
C934 C 0.40417 0.02978 0.97976 0.0
C935 C 0.43312 0.02465 0.99136 0.0
C936 C 0.37826 1.00991 0.98739 0.0
C937 C 0.43612 0.99898 1.01031 0.0
C938 C 0.41042 0.97882 0.01787 0.0
C939 C 0.35526 0.96377 0.01361 0.0
C940 C 0.32656 0.96847 1.00083 0.0
C941 C 0.38129 0.98415 1.00665 0.0
C942 C 0.32388 0.9946 0.9823 0.0
C943 C 0.34939 0.01527 0.97585 0.0
H944 H 0.29999 0.42306 0.37177 0.0
H945 H 0.25496 0.342 0.31 0.0
H946 H 0.215 0.37792 0.29766 0.0
H947 H 0.1952 0.43364 0.30153 0.0
H948 H 0.24053 0.51503 0.36351 0.0
H949 H 0.2776 0.47795 0.37914 0.0
C950 C 0.28113 0.41342 0.35598 0.0
C951 C 0.28016 0.38018 0.34168 0.0
C952 C 0.25836 0.43431 0.34905 0.0
C953 C 0.25585 0.3676 0.32117 0.0
C954 C 0.23316 0.38813 0.31413 0.0
C955 C 0.21285 0.44317 0.31887 0.0
C956 C 0.21504 0.4772 0.33118 0.0
C957 C 0.23442 0.42171 0.32753 0.0
C958 C 0.2382 0.48901 0.3536 0.0
C959 C 0.25958 0.46783 0.36246 0.0
H960 H 0.09949 0.05618 0.56587 0.0
H961 H 0.11094 0.99825 0.47395 0.0
H962 H 0.16263 0.02445 0.46905 0.0
H963 H 0.20337 0.06736 0.48913 0.0
H964 H 0.19459 0.12116 0.58366 0.0
H965 H 0.14352 0.0935 0.58953 0.0
C966 C 0.1139 0.0483 0.54553 0.0
C967 C 0.10163 0.02465 0.52061 0.0
C968 C 0.14384 0.06358 0.54296 0.0
C969 C 0.12024 0.01558 0.49382 0.0
C970 C 0.14958 0.03105 0.49076 0.0
C971 C 0.19017 0.07302 0.51094 0.0
C972 C 0.20221 0.09725 0.53544 0.0
C973 C 0.16138 0.05574 0.51478 0.0
C974 C 0.18545 0.10326 0.56414 0.0
C975 C 0.1563 0.08728 0.56757 0.0
H976 H 0.80547 0.16064 0.70454 0.0
H977 H 0.80067 0.21312 0.80009 0.0
H978 H 0.76412 0.16943 0.81585 0.0
H979 H 0.72923 0.11943 0.80048 0.0
H980 H 0.73168 0.06896 0.70382 0.0
H981 H 0.77292 0.10886 0.69005 0.0
C982 C 0.79662 0.16216 0.72889 0.0
C983 C 0.8056 0.19003 0.75112 0.0
C984 C 0.7746 0.13777 0.73722 0.0
C985 C 0.79436 0.19171 0.78273 0.0
C986 C 0.77318 0.16695 0.79157 0.0
C987 C 0.73872 0.11741 0.77636 0.0
C988 C 0.72674 0.09218 0.75276 0.0
C989 C 0.76235 0.14048 0.7687 0.0
C990 C 0.74009 0.08873 0.72206 0.0
C991 C 0.76368 0.11146 0.71426 0.0
H992 H 0.435 1.01158 0.52053 0.0
H993 H 0.42626 0.03128 0.62348 0.0
H994 H 0.38486 0.06734 0.61771 0.0
H995 H 0.35129 0.09373 0.58354 0.0
H996 H 0.35505 0.06933 0.48062 0.0
H997 H 0.39774 0.03428 0.48602 0.0
C998 C 0.42378 0.02353 0.54163 0.0
C999 C 0.43428 0.01941 0.57247 0.0
C1000 C 0.39906 0.04335 0.53806 0.0
C1001 C 0.4193 0.03488 0.59956 0.0
C1002 C 0.39547 0.05531 0.59625 0.0
C1003 C 0.3615 0.08077 0.56226 0.0
C1004 C 0.35031 0.08449 0.53168 0.0
C1005 C 0.3853 0.05995 0.56565 0.0
C1006 C 0.36332 0.06697 0.5044 0.0
C1007 C 0.38776 0.04698 0.50752 0.0
H1008 H 0.62346 0.54311 0.59631 0.0
H1009 H 0.56869 0.51357 0.51175 0.0
H1010 H 0.61007 0.48088 0.48714 0.0
H1011 H 0.65929 0.45493 0.49297 0.0
H1012 H 0.70916 0.47805 0.58206 0.0
H1013 H 0.67192 0.51773 0.60223 0.0
C1014 C 0.62073 0.52967 0.57237 0.0
C1015 C 0.59291 0.53046 0.55603 0.0
C1016 C 0.64346 0.50886 0.5597 0.0
C1017 C 0.58992 0.5136 0.52473 0.0
C1018 C 0.61339 0.49443 0.51096 0.0
C1019 C 0.66203 0.46872 0.51677 0.0
C1020 C 0.68701 0.46325 0.53607 0.0
C1021 C 0.63981 0.49085 0.52873 0.0
C1022 C 0.69007 0.48135 0.56686 0.0
C1023 C 0.66887 0.50427 0.57833 0.0
H1024 H 0.73893 0.23638 0.38898 0.0
H1025 H 0.65176 0.20638 0.42844 0.0
H1026 H 0.65868 0.25094 0.47346 0.0
H1027 H 0.68653 0.30387 0.49665 0.0
H1028 H 0.77708 0.32816 0.46156 0.0
H1029 H 0.77241 0.27999 0.42033 0.0
C1030 C 0.72217 0.23861 0.40823 0.0
C1031 C 0.69451 0.2189 0.40506 0.0
C1032 C 0.72656 0.26391 0.43426 0.0
C1033 C 0.67293 0.22198 0.43017 0.0
C1034 C 0.67677 0.24757 0.45573 0.0
C1035 C 0.70517 0.29845 0.47998 0.0
C1036 C 0.73106 0.32093 0.48023 0.0
C1037 C 0.70285 0.26978 0.45712 0.0
C1038 C 0.75592 0.31253 0.46005 0.0
C1039 C 0.75352 0.28468 0.43683 0.0
H1040 H 0.50389 0.0905 0.9142 0.0
H1041 H 0.56139 0.05103 0.98012 0.0
H1042 H 0.60114 0.04294 0.93844 0.0
H1043 H 0.6182 0.04457 0.8818 0.0
H1044 H 0.55932 0.0834 0.81607 0.0
H1045 H 0.52123 0.09354 0.85849 0.0
C1046 C 0.5256 0.08114 0.91953 0.0
C1047 C 0.53026 0.07223 0.95026 0.0
C1048 C 0.54763 0.07544 0.89509 0.0
C1049 C 0.55785 0.05886 0.9568 0.0
C1050 C 0.58026 0.05377 0.93282 0.0
C1051 C 0.59682 0.05477 0.87673 0.0
C1052 C 0.59144 0.06275 0.84563 0.0
C1053 C 0.57514 0.06128 0.90159 0.0
C1054 C 0.56393 0.07676 0.83967 0.0
C1055 C 0.54221 0.08282 0.864 0.0
H1056 H 0.35718 0.30369 0.41173 0.0
H1057 H 0.29884 0.25798 0.33443 0.0
H1058 H 0.28549 0.21081 0.36383 0.0
H1059 H 0.28334 0.1877 0.41501 0.0
H1060 H 0.34037 0.2328 0.49389 0.0
H1061 H 0.36149 0.27482 0.46073 0.0
C1062 C 0.34282 0.28252 0.40079 0.0
C1063 C 0.32993 0.28379 0.37025 0.0
C1064 C 0.33433 0.25584 0.41863 0.0
C1065 C 0.31014 0.2569 0.35705 0.0
C1066 C 0.30198 0.23027 0.37426 0.0
C1067 C 0.30104 0.20612 0.42474 0.0
C1068 C 0.31018 0.20703 0.45701 0.0
C1069 C 0.31292 0.23015 0.40556 0.0
C1070 C 0.33309 0.23125 0.46912 0.0
C1071 C 0.34498 0.25548 0.45017 0.0
H1072 H 0.50282 0.55447 0.96743 0.0
H1073 H 0.53157 0.45454 0.95284 0.0
H1074 H 0.50036 0.44202 0.90426 0.0
H1075 H 0.4643 0.45892 0.86686 0.0
H1076 H 0.43442 0.5588 0.88044 0.0
H1077 H 0.46688 0.57212 0.92814 0.0
C1078 C 0.50212 0.53009 0.9534 0.0
C1079 C 0.51909 0.50526 0.9636 0.0
C1080 C 0.4841 0.52315 0.92534 0.0
C1081 C 0.51831 0.47374 0.94542 0.0
C1082 C 0.50061 0.46668 0.91767 0.0
C1083 C 0.46491 0.48375 0.87999 0.0
C1084 C 0.44678 0.50776 0.86987 0.0
C1085 C 0.48331 0.49112 0.90749 0.0
C1086 C 0.44808 0.53975 0.88749 0.0
C1087 C 0.46659 0.54738 0.91489 0.0
H1088 H 0.69158 0.82607 0.14672 0.0
H1089 H 0.76296 0.8013 0.20724 0.0
H1090 H 0.78381 0.76548 0.16216 0.0
H1091 H 0.77709 0.73468 0.10818 0.0
H1092 H 0.70279 0.75534 0.04864 0.0
H1093 H 0.68745 0.79847 0.09058 0.0
C1094 C 0.7121 0.81338 0.14969 0.0
C1095 C 0.72569 0.81635 0.18032 0.0
C1096 C 0.72289 0.79121 0.12403 0.0
C1097 C 0.75231 0.79977 0.18388 0.0
C1098 C 0.76393 0.77885 0.1582 0.0
C1099 C 0.75771 0.74879 0.10409 0.0
C1100 C 0.74098 0.74125 0.07519 0.0
C1101 C 0.74865 0.77327 0.12857 0.0
C1102 C 0.71607 0.76021 0.07056 0.0
C1103 C 0.70724 0.785 0.0946 0.0
H1104 H 0.02608 0.08296 0.16345 0.0
H1105 H 0.0204 0.98459 0.11102 0.0
H1106 H 0.98584 0.96445 0.15192 0.0
H1107 H 0.955 0.97586 0.20115 0.0
H1108 H 0.95765 0.07571 0.25108 0.0
H1109 H 0.99526 0.0944 0.21268 0.0
C1110 C 0.017 0.05722 0.16105 0.0
C1111 C 0.02531 0.03529 0.1343 0.0
C1112 C 0.99652 0.04619 0.18414 0.0
C1113 C 1.01414 1.00179 0.13155 0.0
C1114 C 0.99435 0.99037 0.15481 0.0
C1115 C 0.96397 1.00162 0.20375 0.0
C1116 C 0.95339 0.02434 0.22889 0.0
C1117 C 0.98506 1.01246 0.18104 0.0
C1118 C 0.96518 0.05773 0.2318 0.0
C1119 C 0.98674 0.06847 0.20987 0.0
H1120 H 0.32712 0.81076 0.1992 0.0
H1121 H 0.35945 0.73582 0.1276 0.0
H1122 H 0.34816 0.7692 0.08494 0.0
H1123 H 0.32452 0.81726 0.0678 0.0
H1124 H 0.28946 0.89111 0.13933 0.0
H1125 H 0.3065 0.86112 0.18209 0.0
C1126 C 0.33227 0.80233 0.17427 0.0
C1127 C 0.34433 0.77116 0.16635 0.0
C1128 C 0.32489 0.82134 0.14987 0.0
C1129 C 0.35042 0.75992 0.13403 0.0
C1130 C 0.34379 0.77891 0.10973 0.0
C1131 C 0.32104 0.82711 0.09274 0.0
C1132 C 0.30562 0.85643 0.10023 0.0
C1133 C 0.33035 0.80932 0.11727 0.0
C1134 C 0.30118 0.86862 0.13277 0.0
C1135 C 0.31087 0.85141 0.1573 0.0
H1136 H 0.06006 0.54017 0.10348 0.0
H1137 H 0.0186 0.45464 0.14222 0.0
H1138 H 0.05603 0.46286 0.18627 0.0
H1139 H 0.09664 0.49917 0.21767 0.0
H1140 H 0.1326 0.58863 0.18085 0.0
H1141 H 0.1012 0.57472 0.13302 0.0
C1142 C 0.05932 0.52329 0.12153 0.0
C1143 C 0.03629 0.49714 0.11985 0.0
C1144 C 0.07977 0.52934 0.14763 0.0
C1145 C 0.03618 0.47486 0.14289 0.0
C1146 C 0.05736 0.47987 0.16832 0.0
C1147 C 0.09791 0.5153 0.19893 0.0
C1148 C 0.11718 0.54497 0.20306 0.0
C1149 C 0.07868 0.50773 0.17159 0.0
C1150 C 0.11813 0.56573 0.17859 0.0
C1151 C 0.10009 0.55779 0.15107 0.0
H1152 H 0.37753 0.76623 0.28447 0.0
H1153 H 0.38405 0.66529 0.24058 0.0
H1154 H 0.41782 0.65499 0.28401 0.0
H1155 H 0.44922 0.67653 0.33276 0.0
H1156 H 0.44749 0.78018 0.37051 0.0
H1157 H 0.40925 0.78789 0.3311 0.0
C1158 C 0.38653 0.74205 0.28426 0.0
C1159 C 0.37843 0.71672 0.25909 0.0
C1160 C 0.40719 0.73691 0.30829 0.0
C1161 C 0.38962 0.68519 0.25976 0.0
C1162 C 0.40927 0.67943 0.28444 0.0
C1163 C 0.44019 0.70065 0.33242 0.0
C1164 C 0.45022 0.7274 0.35562 0.0
C1165 C 0.41878 0.70532 0.30857 0.0
C1166 C 0.43913 0.75878 0.35405 0.0
C1167 C 0.41744 0.76335 0.33123 0.0
H1168 H 0.9829 0.41077 0.09741 0.0
H1169 H 0.04264 0.46135 0.0347 0.0
H1170 H 0.05263 0.40809 1.00298 0.0
H1171 H 0.03629 0.34852 0.98751 0.0
H1172 H 0.97447 0.2988 0.04981 0.0
H1173 H 0.97371 0.34969 0.08731 0.0
C1174 C 0.9992 0.40977 0.07769 0.0
C1175 C 1.01234 0.43974 0.06854 0.0
C1176 C 1.00383 0.37912 0.05897 0.0
C1177 C 0.03278 0.43845 0.04244 0.0
C1178 C 0.03805 0.40803 0.02404 0.0
C1179 C 0.02346 0.34849 1.00978 0.0
C1180 C 1.00516 0.31975 0.01545 0.0
C1181 C 0.02257 0.37832 0.03119 0.0
C1182 C 0.98852 0.32048 0.04448 0.0
C1183 C 0.98798 0.3497 0.06601 0.0
H1184 H 0.6799 0.77509 0.29742 0.0
H1185 H 0.62418 0.83483 0.24757 0.0
H1186 H 0.5812 0.82502 0.28417 0.0
H1187 H 0.56018 0.80044 0.33166 0.0
H1188 H 0.618 0.74326 0.38278 0.0
H1189 H 0.65975 0.75215 0.34539 0.0
C1190 C 0.65844 0.78621 0.29491 0.0
C1191 C 0.65512 0.80586 0.2702 0.0
C1192 C 0.63438 0.78134 0.31662 0.0
C1193 C 0.62697 0.81941 0.26643 0.0
C1194 C 0.6026 0.81407 0.2875 0.0
C1195 C 0.58203 0.79028 0.33479 0.0
C1196 C 0.58589 0.77128 0.36007 0.0
C1197 C 0.60615 0.79538 0.31299 0.0
C1198 C 0.61431 0.75803 0.3636 0.0
C1199 C 0.63824 0.76293 0.34211 0.0
H1200 H 0.01524 0.06426 0.02118 0.0
H1201 H 0.10036 0.11797 0.05078 0.0
H1202 H 0.08993 0.16155 0.01779 0.0
H1203 H 0.05227 0.18888 0.98777 0.0
H1204 H 0.96301 0.13897 0.96785 0.0
H1205 H 0.97859 0.09028 0.99026 0.0
C1206 C 0.03184 0.08511 0.01959 0.0
C1207 C 0.05876 0.08758 0.03807 0.0
C1208 C 0.02423 0.1115 1.00312 0.0
C1209 C 0.07998 0.11486 0.03612 0.0
C1210 C 0.07357 0.14024 0.01784 0.0
C1211 C 0.03642 0.16713 0.98797 0.0
C1212 C 1.00646 0.16764 0.976 0.0
C1213 C 0.04514 0.13955 1.00237 0.0
C1214 C 0.98609 0.13942 0.9769 0.0
C1215 C 0.99504 0.11144 0.98966 0.0
H1216 H 0.39683 0.35862 0.31838 0.0
H1217 H 0.34521 0.2637 0.30359 0.0
H1218 H 0.38155 0.24355 0.26242 0.0
H1219 H 0.42485 0.25441 0.22702 0.0
H1220 H 0.47459 0.35085 0.23738 0.0
H1221 H 0.44124 0.3695 0.28269 0.0
C1222 C 0.39384 0.33335 0.30639 0.0
C1223 C 0.36838 0.31255 0.31465 0.0
C1224 C 0.4139 0.32266 0.28111 0.0
C1225 C 0.36486 0.27993 0.29883 0.0
C1226 C 0.38538 0.26865 0.27463 0.0
C1227 C 0.42868 0.27959 0.23909 0.0
C1228 C 0.45245 0.30119 0.22847 0.0
C1229 C 0.40945 0.29007 0.26501 0.0
C1230 C 0.45651 0.33372 0.24461 0.0
C1231 C 0.43754 0.34428 0.27074 0.0
H1232 H 0.56126 0.42947 0.01754 0.0
H1233 H 0.57661 0.50694 0.09655 0.0
H1234 H 0.5693 0.46566 0.1348 0.0
H1235 H 0.55123 0.40786 0.14546 0.0
H1236 H 0.52622 0.33448 0.06462 0.0
H1237 H 0.54323 0.37355 0.02756 0.0
C1238 C 0.56389 0.43706 0.04317 0.0
C1239 C 0.56976 0.4711 0.05421 0.0
C1240 C 0.55648 0.41389 0.06473 0.0
C1241 C 0.57269 0.48084 0.08744 0.0
C1242 C 0.56777 0.45728 0.10926 0.0
C1243 C 0.54943 0.4006 0.11973 0.0
C1244 C 0.53707 0.36828 0.10788 0.0
C1245 C 0.55832 0.42387 0.09822 0.0
C1246 C 0.53502 0.35926 0.07446 0.0
C1247 C 0.54511 0.3815 0.05318 0.0
H1248 H 0.65806 0.24733 0.29557 0.0
H1249 H 0.61712 0.14911 0.30236 0.0
H1250 H 0.57832 0.15645 0.26247 0.0
H1251 H 0.55506 0.19201 0.22789 0.0
H1252 H 0.59562 0.29126 0.22208 0.0
H1253 H 0.63553 0.28255 0.25955 0.0
C1254 C 0.64071 0.22761 0.28787 0.0
C1255 C 0.64005 0.19779 0.30147 0.0
C1256 C 0.61839 0.23237 0.26553 0.0
C1257 C 0.61774 0.17214 0.29182 0.0
C1258 C 0.59563 0.17646 0.26928 0.0
C1259 C 0.5726 0.2118 0.23474 0.0
C1260 C 0.57213 0.24234 0.22223 0.0
C1261 C 0.59549 0.20667 0.25633 0.0
C1262 C 0.59526 0.26754 0.23134 0.0
C1263 C 0.61816 0.26259 0.25276 0.0
H1264 H 0.53841 0.11127 0.0227 0.0
H1265 H 0.46575 0.15195 0.97558 0.0
H1266 H 0.47105 0.20297 0.01361 0.0
H1267 H 0.49088 0.23163 0.06582 0.0
H1268 H 0.57047 0.19695 0.10652 0.0
H1269 H 0.56834 0.14792 0.06547 0.0
C1270 C 0.5248 0.13196 0.01983 0.0
C1271 C 0.50097 0.1275 0.99711 0.0
C1272 C 0.52855 0.16165 0.04137 0.0
C1273 C 0.48386 0.15472 0.99327 0.0
C1274 C 0.48657 0.18366 0.01534 0.0
C1275 C 0.50782 0.21335 0.0655 0.0
C1276 C 0.52959 0.21649 0.09024 0.0
C1277 C 0.50773 0.18658 0.04056 0.0
C1278 C 0.55265 0.19403 0.08848 0.0
C1279 C 0.55158 0.1662 0.06488 0.0
H1280 H 0.24288 0.34906 0.77552 0.0
H1281 H 0.22539 0.37636 0.68208 0.0
H1282 H 0.27158 0.41506 0.68664 0.0
H1283 H 0.31335 0.4461 0.72084 0.0
H1284 H 0.32106 0.42652 0.81889 0.0
H1285 H 0.28156 0.38106 0.80991 0.0
C1286 C 0.24918 0.3636 0.75621 0.0
C1287 C 0.23055 0.36051 0.72885 0.0
C1288 C 0.27377 0.38764 0.7603 0.0
C1289 C 0.23942 0.37847 0.70341 0.0
C1290 C 0.26553 0.40088 0.70628 0.0
C1291 C 0.30649 0.43151 0.73998 0.0
C1292 C 0.32137 0.43816 0.76996 0.0
C1293 C 0.28229 0.40653 0.73514 0.0
C1294 C 0.3113 0.42038 0.7951 0.0
C1295 C 0.28846 0.39466 0.79008 0.0
H1296 H 0.23206 0.63653 0.87024 0.0
H1297 H 0.27292 0.69998 0.8046 0.0
H1298 H 0.31827 0.6676 0.79923 0.0
H1299 H 0.34271 0.61686 0.80751 0.0
H1300 H 0.30017 0.55074 0.8704 0.0
H1301 H 0.25939 0.58843 0.88297 0.0
C1302 C 0.25147 0.6437 0.85571 0.0
C1303 C 0.2497 0.67077 0.83826 0.0
C1304 C 0.27686 0.62411 0.85186 0.0
C1305 C 0.27434 0.67951 0.81861 0.0
C1306 C 0.30001 0.66083 0.81535 0.0
C1307 C 0.32487 0.61099 0.82447 0.0
C1308 C 0.3244 0.58083 0.83775 0.0
C1309 C 0.30106 0.63239 0.83099 0.0
C1310 C 0.30104 0.57367 0.85967 0.0
C1311 C 0.27762 0.59519 0.86682 0.0
H1312 H 0.92475 0.52639 0.52693 0.0
H1313 H 0.91141 0.53125 0.4263 0.0
H1314 H 0.86143 0.49994 0.42825 0.0
H1315 H 0.82185 0.47157 0.45879 0.0
H1316 H 0.83505 0.46698 0.56003 0.0
H1317 H 0.88444 0.49861 0.55793 0.0
C1318 C 0.91072 0.52045 0.50556 0.0
C1319 C 0.92138 0.53094 0.47651 0.0
C1320 C 0.88196 0.50301 0.50713 0.0
C1321 C 0.90343 0.52319 0.44878 0.0
C1322 C 0.87491 0.50555 0.45001 0.0
C1323 C 0.83529 0.47768 0.48056 0.0
C1324 C 0.82451 0.46682 0.50957 0.0
C1325 C 0.86389 0.49548 0.47911 0.0
C1326 C 0.84257 0.47498 0.53737 0.0
C1327 C 0.87094 0.49295 0.53618 0.0
H1328 H 0.80353 0.92864 0.87328 0.0
H1329 H 0.76162 0.84237 0.81588 0.0
H1330 H 0.71991 0.87483 0.80135 0.0
H1331 H 0.69739 0.92885 0.80208 0.0
H1332 H 0.73976 0.01559 0.85922 0.0
H1333 H 0.77888 0.98212 0.877 0.0
C1334 C 0.78504 0.91712 0.85783 0.0
C1335 C 0.78547 0.88335 0.84549 0.0
C1336 C 0.76126 0.93608 0.84952 0.0
C1337 C 0.7615 0.86838 0.82559 0.0
C1338 C 0.73778 0.88695 0.81727 0.0
C1339 C 0.71488 0.94035 0.81882 0.0
C1340 C 0.71558 0.97478 0.82917 0.0
C1341 C 0.73764 0.92097 0.8287 0.0
C1342 C 0.73857 0.98919 0.8508 0.0
C1343 C 0.7611 0.97007 0.86091 0.0
H1344 H 0.60721 0.56072 0.06511 0.0
H1345 H 0.62869 0.49199 0.98275 0.0
H1346 H 0.67952 0.52072 0.979 0.0
H1347 H 0.71636 0.56896 0.99638 0.0
H1348 H 0.6967 0.63488 0.0817 0.0
H1349 H 0.647 0.60423 0.08716 0.0
C1350 C 0.62363 0.55115 0.04737 0.0
C1351 C 0.61438 0.52374 0.02466 0.0
C1352 C 0.65285 0.56815 0.04526 0.0
C1353 C 0.63559 0.51237 1.00105 0.0
C1354 C 0.66443 0.52927 0.99852 0.0
C1355 C 0.70107 0.57662 0.01605 0.0
C1356 C 0.70964 0.60501 0.03789 0.0
C1357 C 0.67301 0.55785 0.01988 0.0
C1358 C 0.69023 0.61371 0.06409 0.0
C1359 C 0.66188 0.59602 0.06734 0.0
H1360 H 0.31135 0.69641 0.27387 0.0
H1361 H 0.33082 0.64599 0.18012 0.0
H1362 H 0.29317 0.60037 0.18848 0.0
H1363 H 0.24971 0.57879 0.2198 0.0
H1364 H 0.23353 0.6261 0.31566 0.0
H1365 H 0.27512 0.66848 0.3097 0.0
C1366 C 0.30806 0.67482 0.25587 0.0
C1367 C 0.3233 0.67467 0.2262 0.0
C1368 C 0.28644 0.64856 0.26097 0.0
C1369 C 0.31896 0.64661 0.20297 0.0
C1370 C 0.29729 0.62071 0.20765 0.0
C1371 C 0.25546 0.59833 0.23936 0.0
C1372 C 0.23731 0.60084 0.26727 0.0
C1373 C 0.27996 0.6221 0.23602 0.0
C1374 C 0.24598 0.62508 0.29313 0.0
C1375 C 0.27002 0.64904 0.28991 0.0
H1376 H 0.92754 0.54675 0.11237 0.0
H1377 H 0.95692 0.52191 0.01454 0.0
H1378 H 0.91608 0.55281 0.99557 0.0
H1379 H 0.87182 0.58769 1.00711 0.0
H1380 H 0.84745 0.61837 0.10575 0.0
H1381 H 0.88667 0.58538 0.12418 0.0
C1382 C 0.92539 0.54877 0.08699 0.0
C1383 C 0.94538 0.53225 0.06492 0.0
C1384 C 0.90266 0.56776 0.07642 0.0
C1385 C 0.94174 0.5343 0.03197 0.0
C1386 C 0.91845 0.55207 0.02115 0.0
C1387 C 0.87522 0.58713 0.03259 0.0
C1388 C 0.85663 0.60532 0.05503 0.0
C1389 C 0.8987 0.56895 0.04315 0.0
C1390 C 0.86151 0.60469 0.08801 0.0
C1391 C 0.8839 0.58574 0.09858 0.0
H1392 H 0.08299 0.98694 0.03925 0.0
H1393 H 0.13541 0.08018 0.06263 0.0
H1394 H 0.18253 0.05396 0.04489 0.0
H1395 H 0.20964 1.00227 0.02886 0.0
H1396 H 0.15671 0.90812 1.01273 0.0
H1397 H 0.10928 0.93623 0.02225 0.0
C1398 C 0.10467 1.00165 0.03922 0.0
C1399 C 0.10555 0.03569 0.05115 0.0
C1400 C 0.13179 0.98574 0.03154 0.0
C1401 C 0.13387 0.05436 0.05222 0.0
C1402 C 0.16094 0.03907 0.0429 0.0
C1403 C 0.18766 0.98807 0.02761 0.0
C1404 C 0.18657 0.95315 0.02045 0.0
C1405 C 0.16034 1.00449 0.03363 0.0
C1406 C 0.15804 0.93496 0.01848 0.0
C1407 C 0.13093 0.95105 0.02372 0.0
loop_
_geom_bond_atom_site_label_1
_geom_bond_atom_site_label_2
_geom_bond_distance
_geom_bond_site_symmetry_2
_ccdc_geom_bond_type
C0 N1 1.317 1_565 S
C0 N2 1.348 1_465 S
C0 C3 1.485 . S
N1 C0 1.317 1_545 S
N1 N5 1.370 . S
N2 C0 1.348 1_645 S
N2 C4 1.346 . S
C3 C0 1.485 . S
C3 H7 0.960 . S
C3 H8 0.961 . S
C3 H9 0.960 . S
C4 N2 1.346 . S
C4 N5 1.307 1_655 S
C4 C6 1.486 . S
N5 N1 1.370 . S
N5 C4 1.307 1_455 S
C6 C4 1.486 . S
C6 H10 0.960 . S
C6 H11 0.960 . S
C6 H12 0.959 . S
H7 C3 0.960 . S
H8 C3 0.961 . S
H9 C3 0.960 . S
H10 C6 0.960 . S
H11 C6 0.960 . S
H12 C6 0.959 . S
C13 N14 1.317 . S
C13 N15 1.348 . S
C13 C16 1.485 . S
N14 C13 1.317 . S
N14 N18 1.370 . S
N15 C13 1.348 . S
N15 C17 1.346 . S
C16 C13 1.485 . S
C16 H20 0.960 . S
C16 H21 0.961 . S
C16 H22 0.960 . S
C17 N15 1.346 . S
C17 N18 1.307 . S
C17 C19 1.486 . S
N18 N14 1.370 . S
N18 C17 1.307 . S
C19 C17 1.486 . S
C19 H23 0.960 . S
C19 H24 0.960 . S
C19 H25 0.959 . S
H20 C16 0.960 . S
H21 C16 0.961 . S
H22 C16 0.960 . S
H23 C19 0.960 . S
H24 C19 0.960 . S
H25 C19 0.959 . S
C26 N27 1.317 . S
C26 N28 1.348 . S
C26 C29 1.485 . S
N27 C26 1.317 . S
N27 N31 1.370 . S
N28 C26 1.348 . S
N28 C30 1.346 . S
C29 C26 1.485 . S
C29 H33 0.960 . S
C29 H34 0.961 . S
C29 H35 0.960 . S
C30 N28 1.346 . S
C30 N31 1.307 . S
C30 C32 1.486 . S
N31 N27 1.370 . S
N31 C30 1.307 . S
C32 C30 1.486 . S
C32 H36 0.960 1_554 S
C32 H37 0.960 . S
C32 H38 0.959 . S
H33 C29 0.960 . S
H34 C29 0.961 . S
H35 C29 0.960 . S
H36 C32 0.960 1_556 S
H37 C32 0.960 . S
H38 C32 0.959 . S
C39 N40 1.317 . S
C39 N41 1.348 . S
C39 C42 1.485 . S
N40 C39 1.317 . S
N40 N44 1.370 . S
N41 C39 1.348 . S
N41 C43 1.346 . S
C42 C39 1.485 . S
C42 H46 0.960 . S
C42 H47 0.961 . S
C42 H48 0.960 . S
C43 N41 1.346 . S
C43 N44 1.307 . S
C43 C45 1.486 . S
N44 N40 1.370 . S
N44 C43 1.307 . S
C45 C43 1.486 . S
C45 H49 0.960 . S
C45 H50 0.960 . S
C45 H51 0.959 . S
H46 C42 0.960 . S
H47 C42 0.961 . S
H48 C42 0.960 . S
H49 C45 0.960 . S
H50 C45 0.960 . S
H51 C45 0.959 . S
C52 N53 1.317 . S
C52 N54 1.348 . S
C52 C55 1.485 1_455 S
N53 C52 1.317 . S
N53 N57 1.386 . S
N54 C52 1.348 . S
N54 C56 1.346 1_565 S
C55 C52 1.485 1_655 S
C55 H59 0.960 . S
C55 H60 0.961 . S
C55 H61 0.960 . S
C56 N54 1.346 1_545 S
C56 N57 1.298 1_545 S
C56 C58 1.486 . S
N57 N53 1.386 . S
N57 C56 1.298 1_565 S
C58 C56 1.486 . S
C58 H62 0.960 . S
C58 H63 0.960 . S
C58 H64 0.959 . S
H59 C55 0.960 . S
H60 C55 0.961 . S
H61 C55 0.960 . S
H62 C58 0.960 . S
H63 C58 0.960 . S
H64 C58 0.959 . S
C65 N66 1.317 . S
C65 N67 1.348 . S
C65 C68 1.485 . S
N66 C65 1.317 . S
N66 N70 1.370 . S
N67 C65 1.348 . S
N67 C69 1.346 . S
C68 C65 1.485 . S
C68 H72 0.960 . S
C68 H73 0.961 . S
C68 H74 0.960 . S
C69 N67 1.346 . S
C69 N70 1.307 . S
C69 C71 1.486 . S
N70 N66 1.370 . S
N70 C69 1.307 . S
C71 C69 1.486 . S
C71 H75 0.960 . S
C71 H76 0.960 . S
C71 H77 0.959 . S
H72 C68 0.960 . S
H73 C68 0.961 . S
H74 C68 0.960 . S
H75 C71 0.960 . S
H76 C71 0.960 . S
H77 C71 0.959 . S
C78 N79 1.317 . S
C78 N80 1.348 . S
C78 C81 1.485 . S
N79 C78 1.317 . S
N79 N83 1.370 . S
N80 C78 1.348 . S
N80 C82 1.346 . S
C81 C78 1.485 . S
C81 H85 0.960 . S
C81 H86 0.961 . S
C81 H87 0.960 . S
C82 N80 1.346 . S
C82 N83 1.307 . S
C82 C84 1.486 . S
N83 N79 1.370 . S
N83 C82 1.307 . S
C84 C82 1.486 . S
C84 H88 0.960 . S
C84 H89 0.960 . S
C84 H90 0.959 . S
H85 C81 0.960 . S
H86 C81 0.961 . S
H87 C81 0.960 . S
H88 C84 0.960 . S
H89 C84 0.960 . S
H90 C84 0.959 . S
C91 N92 1.317 . S
C91 N93 1.348 . S
C91 C94 1.485 . S
N92 C91 1.317 . S
N92 N96 1.370 . S
N93 C91 1.348 . S
N93 C95 1.346 . S
C94 C91 1.485 . S
C94 H98 0.960 . S
C94 H99 0.961 . S
C94 H100 0.960 . S
C95 N93 1.346 . S
C95 N96 1.307 . S
C95 C97 1.486 . S
N96 N92 1.370 . S
N96 C95 1.307 . S
C97 C95 1.486 . S
C97 H101 0.960 . S
C97 H102 0.960 . S
C97 H103 0.959 . S
H98 C94 0.960 . S
H99 C94 0.961 . S
H100 C94 0.960 . S
H101 C97 0.960 . S
H102 C97 0.960 . S
H103 C97 0.959 . S
C104 N105 1.317 . S
C104 N106 1.348 . S
C104 C107 1.485 . S
N105 C104 1.317 . S
N105 N109 1.370 . S
N106 C104 1.348 . S
N106 C108 1.346 . S
C107 C104 1.485 . S
C107 H111 0.960 . S
C107 H112 0.961 . S
C107 H113 0.960 . S
C108 N106 1.346 . S
C108 N109 1.307 . S
C108 C110 1.486 . S
N109 N105 1.370 . S
N109 C108 1.307 . S
C110 C108 1.486 . S
C110 H114 0.960 . S
C110 H115 0.960 . S
C110 H116 0.959 . S
H111 C107 0.960 . S
H112 C107 0.961 . S
H113 C107 0.960 . S
H114 C110 0.960 . S
H115 C110 0.960 . S
H116 C110 0.959 . S
C117 N118 1.317 1_545 S
C117 N119 1.348 1_545 S
C117 C120 1.485 . S
N118 C117 1.317 1_565 S
N118 N122 1.370 . S
N119 C117 1.348 1_565 S
N119 C121 1.346 . S
C120 C117 1.485 . S
C120 H124 0.960 . S
C120 H125 0.961 . S
C120 H126 0.960 . S
C121 N119 1.346 . S
C121 N122 1.307 . S
C121 C123 1.486 . S
N122 N118 1.370 . S
N122 C121 1.307 . S
C123 C121 1.486 . S
C123 H127 0.960 . S
C123 H128 0.960 . S
C123 H129 0.959 . S
H124 C120 0.960 . S
H125 C120 0.961 . S
H126 C120 0.960 . S
H127 C123 0.960 . S
H128 C123 0.960 . S
H129 C123 0.959 . S
C130 N131 1.317 . S
C130 N132 1.348 . S
C130 C133 1.485 . S
N131 C130 1.317 . S
N131 N135 1.370 . S
N132 C130 1.348 . S
N132 C134 1.346 . S
C133 C130 1.485 . S
C133 H137 0.960 . S
C133 H138 0.961 . S
C133 H139 0.960 . S
C134 N132 1.346 . S
C134 N135 1.307 . S
C134 C136 1.486 . S
N135 N131 1.370 . S
N135 C134 1.307 . S
C136 C134 1.486 . S
C136 H140 0.960 . S
C136 H141 0.960 . S
C136 H142 0.959 . S
H137 C133 0.960 . S
H138 C133 0.961 . S
H139 C133 0.960 . S
H140 C136 0.960 . S
H141 C136 0.960 . S
H142 C136 0.959 . S
C143 N144 1.317 . S
C143 N145 1.348 . S
C143 C146 1.485 . S
N144 C143 1.317 . S
N144 N148 1.370 . S
N145 C143 1.348 . S
N145 C147 1.346 . S
C146 C143 1.485 . S
C146 H150 0.960 . S
C146 H151 0.961 . S
C146 H152 0.960 . S
C147 N145 1.346 . S
C147 N148 1.307 . S
C147 C149 1.486 . S
N148 N144 1.370 . S
N148 C147 1.307 . S
C149 C147 1.486 . S
C149 H153 0.960 . S
C149 H154 0.960 . S
C149 H155 0.959 . S
H150 C146 0.960 . S
H151 C146 0.961 . S
H152 C146 0.960 . S
H153 C149 0.960 . S
H154 C149 0.960 . S
H155 C149 0.959 . S
C156 N157 1.317 . S
C156 N158 1.348 . S
C156 C159 1.485 . S
N157 C156 1.317 . S
N157 N161 1.370 . S
N158 C156 1.348 . S
N158 C160 1.346 . S
C159 C156 1.485 . S
C159 H163 0.960 . S
C159 H164 0.961 . S
C159 H165 0.960 . S
C160 N158 1.346 . S
C160 N161 1.307 . S
C160 C162 1.486 . S
N161 N157 1.370 . S
N161 C160 1.307 . S
C162 C160 1.486 . S
C162 H166 0.960 . S
C162 H167 0.960 . S
C162 H168 0.959 . S
H163 C159 0.960 . S
H164 C159 0.961 . S
H165 C159 0.960 . S
H166 C162 0.960 . S
H167 C162 0.960 . S
H168 C162 0.959 . S
C169 N170 1.317 . S
C169 N171 1.348 . S
C169 C172 1.485 . S
N170 C169 1.317 . S
N170 N174 1.370 . S
N171 C169 1.348 . S
N171 C173 1.346 . S
C172 C169 1.485 . S
C172 H176 0.960 . S
C172 H177 0.961 . S
C172 H178 0.960 1_556 S
C173 N171 1.346 . S
C173 N174 1.307 . S
C173 C175 1.486 . S
N174 N170 1.370 . S
N174 C173 1.307 . S
C175 C173 1.486 . S
C175 H179 0.960 . S
C175 H180 0.960 . S
C175 H181 0.959 . S
H176 C172 0.960 . S
H177 C172 0.961 . S
H178 C172 0.960 1_554 S
H179 C175 0.960 . S
H180 C175 0.960 . S
H181 C175 0.959 . S
C182 N183 1.317 . S
C182 N184 1.348 . S
C182 C185 1.485 . S
N183 C182 1.317 . S
N183 N187 1.370 . S
N184 C182 1.348 . S
N184 C186 1.346 . S
C185 C182 1.485 . S
C185 H189 0.960 . S
C185 H190 0.961 . S
C185 H191 0.960 . S
C186 N184 1.346 . S
C186 N187 1.307 . S
C186 C188 1.486 . S
N187 N183 1.370 . S
N187 C186 1.307 . S
C188 C186 1.486 . S
C188 H192 0.960 . S
C188 H193 0.960 . S
C188 H194 0.959 . S
H189 C185 0.960 . S
H190 C185 0.961 . S
H191 C185 0.960 . S
H192 C188 0.960 . S
H193 C188 0.960 . S
H194 C188 0.959 . S
C195 N196 1.317 . S
C195 N197 1.348 . S
C195 C198 1.485 1_545 S
N196 C195 1.317 . S
N196 N200 1.370 . S
N197 C195 1.348 . S
N197 C199 1.346 1_556 S
C198 C195 1.485 1_565 S
C198 H202 0.960 . S
C198 H203 0.961 . S
C198 H204 0.960 . S
C199 N197 1.346 1_554 S
C199 N200 1.307 1_554 S
C199 C201 1.486 . S
N200 N196 1.370 . S
N200 C199 1.307 1_556 S
C201 C199 1.486 . S
C201 H205 0.960 . S
C201 H206 0.960 . S
C201 H207 0.959 . S
H202 C198 0.960 . S
H203 C198 0.961 . S
H204 C198 0.960 . S
H205 C201 0.960 . S
H206 C201 0.960 . S
H207 C201 0.959 . S
Mn208 O213 2.095 . S
Mn208 O223 2.162 . S
Mn208 O224 2.297 . S
Mn208 O232 2.385 . S
Mn208 O233 2.209 1_554 S
Mn208 O234 2.094 . S
Mn209 O214 2.121 . S
Mn209 N216 2.257 . S
Mn209 N225 2.282 . S
Mn209 O233 2.215 . S
Mn209 O235 2.117 . S
C210 O232 1.234 1_556 S
C210 O233 1.283 . S
C211 O223 1.281 . S
C211 O224 1.236 . S
C212 O234 1.240 . S
C212 O235 1.264 1_554 S
O213 Mn208 2.095 . S
O213 C222 1.250 . S
O214 Mn209 2.121 . S
O214 C222 1.258 1_556 S
C215 N216 1.326 . S
C215 C219 1.460 . S
C215 H221 0.929 . S
N216 Mn209 2.257 . S
N216 C215 1.326 . S
N216 C220 1.362 . S
C217 C218 1.258 . S
C217 C220 1.431 . S
C217 C237 1.449 . S
C218 C217 1.258 . S
C218 C219 1.477 . S
C218 H238 0.931 . S
C219 C215 1.460 . S
C219 C218 1.477 . S
C219 H239 0.930 . S
C220 N216 1.362 . S
C220 C217 1.431 . S
C220 C230 1.476 . S
H221 C215 0.929 . S
C222 O213 1.250 . S
C222 O214 1.258 1_554 S
O223 Mn208 2.162 . S
O223 C211 1.281 . S
O224 Mn208 2.297 . S
O224 C211 1.236 . S
N225 Mn209 2.282 . S
N225 C226 1.328 . S
N225 C230 1.318 . S
C226 N225 1.328 . S
C226 C227 1.457 . S
C226 H231 0.929 . S
C227 C226 1.457 . S
C227 C228 1.291 . S
C227 H240 0.931 . S
C228 C227 1.291 . S
C228 C229 1.373 . S
C228 H241 0.929 . S
C229 C228 1.373 . S
C229 C230 1.396 . S
C229 C236 1.403 . S
C230 C220 1.476 . S
C230 N225 1.318 . S
C230 C229 1.396 . S
H231 C226 0.929 . S
O232 Mn208 2.385 . S
O232 C210 1.234 1_554 S
O233 Mn208 2.209 1_556 S
O233 Mn209 2.215 . S
O233 C210 1.283 . S
O234 Mn208 2.094 . S
O234 C212 1.240 . S
O235 Mn209 2.117 . S
O235 C212 1.264 1_556 S
C236 C229 1.403 . S
C236 C237 1.399 . S
C236 H242 0.929 . S
C237 C217 1.449 . S
C237 C236 1.399 . S
C237 H243 0.930 . S
H238 C218 0.931 . S
H239 C219 0.930 . S
H240 C227 0.931 . S
H241 C228 0.929 . S
H242 C236 0.929 . S
H243 C237 0.930 . S
Mn244 O249 2.095 . S
Mn244 O259 2.162 . S
Mn244 O260 2.297 . S
Mn244 O268 2.385 . S
Mn244 O269 2.209 . S
Mn244 O270 2.094 . S
Mn245 O250 2.121 . S
Mn245 N252 2.257 . S
Mn245 N261 2.282 . S
Mn245 O269 2.215 . S
Mn245 O271 2.117 . S
C246 O268 1.234 . S
C246 O269 1.283 . S
C247 O259 1.281 . S
C247 O260 1.236 . S
C248 O270 1.240 . S
C248 O271 1.264 . S
O249 Mn244 2.095 . S
O249 C258 1.250 . S
O250 Mn245 2.121 . S
O250 C258 1.258 . S
C251 N252 1.326 . S
C251 C255 1.460 . S
C251 H257 0.929 . S
N252 Mn245 2.257 . S
N252 C251 1.326 . S
N252 C256 1.362 . S
C253 C254 1.258 . S
C253 C256 1.431 . S
C253 C273 1.449 . S
C254 C253 1.258 . S
C254 C255 1.477 . S
C254 H274 0.931 . S
C255 C251 1.460 . S
C255 C254 1.477 . S
C255 H275 0.930 . S
C256 N252 1.362 . S
C256 C253 1.431 . S
C256 C266 1.476 . S
H257 C251 0.929 . S
C258 O249 1.250 . S
C258 O250 1.258 . S
O259 Mn244 2.162 . S
O259 C247 1.281 . S
O260 Mn244 2.297 . S
O260 C247 1.236 . S
N261 Mn245 2.282 . S
N261 C262 1.328 . S
N261 C266 1.318 . S
C262 N261 1.328 . S
C262 C263 1.457 . S
C262 H267 0.929 . S
C263 C262 1.457 . S
C263 C264 1.291 . S
C263 H276 0.931 . S
C264 C263 1.291 . S
C264 C265 1.373 . S
C264 H277 0.929 . S
C265 C264 1.373 . S
C265 C266 1.396 . S
C265 C272 1.403 . S
C266 C256 1.476 . S
C266 N261 1.318 . S
C266 C265 1.396 . S
H267 C262 0.929 . S
O268 Mn244 2.385 . S
O268 C246 1.234 . S
O269 Mn244 2.209 . S
O269 Mn245 2.215 . S
O269 C246 1.283 . S
O270 Mn244 2.094 . S
O270 C248 1.240 . S
O271 Mn245 2.117 . S
O271 C248 1.264 . S
C272 C265 1.403 . S
C272 C273 1.399 . S
C272 H278 0.929 . S
C273 C253 1.449 . S
C273 C272 1.399 . S
C273 H279 0.930 . S
H274 C254 0.931 . S
H275 C255 0.930 . S
H276 C263 0.931 . S
H277 C264 0.929 . S
H278 C272 0.929 . S
H279 C273 0.930 . S
Mn280 O285 2.095 1_554 S
Mn280 O295 2.162 . S
Mn280 O296 2.297 1_554 S
Mn280 O304 2.385 . S
Mn280 O305 2.209 1_554 S
Mn280 O306 2.094 . S
Mn281 O286 2.121 . S
Mn281 N288 2.257 . S
Mn281 N297 2.282 1_556 S
Mn281 O305 2.215 . S
Mn281 O307 2.117 1_556 S
C282 O304 1.234 . S
C282 O305 1.283 1_554 S
C283 O295 1.281 . S
C283 O296 1.236 1_554 S
C284 O306 1.240 . S
C284 O307 1.264 . S
O285 Mn280 2.095 1_556 S
O285 C294 1.250 . S
O286 Mn281 2.121 . S
O286 C294 1.258 . S
C287 N288 1.326 . S
C287 C291 1.460 . S
C287 H293 0.929 . S
N288 Mn281 2.257 . S
N288 C287 1.326 . S
N288 C292 1.362 . S
C289 C290 1.258 . S
C289 C292 1.431 . S
C289 C309 1.449 . S
C290 C289 1.258 . S
C290 C291 1.477 . S
C290 H310 0.931 . S
C291 C287 1.460 . S
C291 C290 1.477 . S
C291 H311 0.930 . S
C292 N288 1.362 . S
C292 C289 1.431 . S
C292 C302 1.476 . S
H293 C287 0.929 . S
C294 O285 1.250 . S
C294 O286 1.258 . S
O295 Mn280 2.162 . S
O295 C283 1.281 . S
O296 Mn280 2.297 1_556 S
O296 C283 1.236 1_556 S
N297 Mn281 2.282 1_554 S
N297 C298 1.328 . S
N297 C302 1.318 1_554 S
C298 N297 1.328 . S
C298 C299 1.457 . S
C298 H303 0.929 . S
C299 C298 1.457 . S
C299 C300 1.291 . S
C299 H312 0.931 . S
C300 C299 1.291 . S
C300 C301 1.373 1_554 S
C300 H313 0.929 . S
C301 C300 1.373 1_556 S
C301 C302 1.396 . S
C301 C308 1.403 . S
C302 C292 1.476 . S
C302 N297 1.318 1_556 S
C302 C301 1.396 . S
H303 C298 0.929 . S
O304 Mn280 2.385 . S
O304 C282 1.234 . S
O305 Mn280 2.209 1_556 S
O305 Mn281 2.215 . S
O305 C282 1.283 1_556 S
O306 Mn280 2.094 . S
O306 C284 1.240 . S
O307 Mn281 2.117 1_554 S
O307 C284 1.264 . S
C308 C301 1.403 . S
C308 C309 1.399 . S
C308 H314 0.929 . S
C309 C289 1.449 . S
C309 C308 1.399 . S
C309 H315 0.930 . S
H310 C290 0.931 . S
H311 C291 0.930 . S
H312 C299 0.931 . S
H313 C300 0.929 . S
H314 C308 0.929 . S
H315 C309 0.930 . S
Mn316 O321 2.095 . S
Mn316 O331 2.162 . S
Mn316 O332 2.297 . S
Mn316 O340 2.385 1_545 S
Mn316 O341 2.209 1_545 S
Mn316 O342 2.094 . S
Mn317 O322 2.121 . S
Mn317 N324 2.257 . S
Mn317 N333 2.282 . S
Mn317 O341 2.215 . S
Mn317 O343 2.117 . S
C318 O340 1.234 . S
C318 O341 1.283 . S
C319 O331 1.281 . S
C319 O332 1.236 . S
C320 O342 1.240 . S
C320 O343 1.264 1_545 S
O321 Mn316 2.095 . S
O321 C330 1.250 . S
O322 Mn317 2.121 . S
O322 C330 1.258 1_565 S
C323 N324 1.326 . S
C323 C327 1.460 . S
C323 H329 0.929 . S
N324 Mn317 2.257 . S
N324 C323 1.326 . S
N324 C328 1.362 . S
C325 C326 1.258 . S
C325 C328 1.431 . S
C325 C345 1.449 . S
C326 C325 1.258 . S
C326 C327 1.477 . S
C326 H346 0.931 . S
C327 C323 1.460 . S
C327 C326 1.477 . S
C327 H347 0.930 . S
C328 N324 1.362 . S
C328 C325 1.431 . S
C328 C338 1.476 . S
H329 C323 0.929 . S
C330 O321 1.250 . S
C330 O322 1.258 1_545 S
O331 Mn316 2.162 . S
O331 C319 1.281 . S
O332 Mn316 2.297 . S
O332 C319 1.236 . S
N333 Mn317 2.282 . S
N333 C334 1.328 . S
N333 C338 1.318 . S
C334 N333 1.328 . S
C334 C335 1.457 . S
C334 H339 0.929 . S
C335 C334 1.457 . S
C335 C336 1.291 . S
C335 H348 0.931 . S
C336 C335 1.291 . S
C336 C337 1.373 . S
C336 H349 0.929 . S
C337 C336 1.373 . S
C337 C338 1.396 . S
C337 C344 1.403 . S
C338 C328 1.476 . S
C338 N333 1.318 . S
C338 C337 1.396 . S
H339 C334 0.929 . S
O340 Mn316 2.385 1_565 S
O340 C318 1.234 . S
O341 Mn316 2.209 1_565 S
O341 Mn317 2.215 . S
O341 C318 1.283 . S
O342 Mn316 2.094 . S
O342 C320 1.240 . S
O343 Mn317 2.117 . S
O343 C320 1.264 1_565 S
C344 C337 1.403 . S
C344 C345 1.399 . S
C344 H350 0.929 . S
C345 C325 1.449 . S
C345 C344 1.399 . S
C345 H351 0.930 . S
H346 C326 0.931 . S
H347 C327 0.930 . S
H348 C335 0.931 . S
H349 C336 0.929 . S
H350 C344 0.929 . S
H351 C345 0.930 . S
Mn352 O357 2.095 . S
Mn352 O367 2.162 . S
Mn352 O368 2.297 . S
Mn352 O376 2.385 . S
Mn352 O377 2.209 . S
Mn352 O378 2.094 . S
Mn353 O358 2.121 . S
Mn353 N360 2.257 . S
Mn353 N369 2.282 . S
Mn353 O377 2.215 . S
Mn353 O379 2.117 . S
C354 O376 1.234 . S
C354 O377 1.283 . S
C355 O367 1.281 . S
C355 O368 1.236 . S
C356 O378 1.240 . S
C356 O379 1.264 . S
O357 Mn352 2.095 . S
O357 C366 1.250 . S
O358 Mn353 2.121 . S
O358 C366 1.258 . S
C359 N360 1.326 . S
C359 C363 1.460 . S
C359 H365 0.929 . S
N360 Mn353 2.257 . S
N360 C359 1.326 . S
N360 C364 1.362 . S
C361 C362 1.258 . S
C361 C364 1.431 . S
C361 C381 1.449 . S
C362 C361 1.258 . S
C362 C363 1.477 . S
C362 H382 0.931 . S
C363 C359 1.460 . S
C363 C362 1.477 . S
C363 H383 0.930 . S
C364 N360 1.362 . S
C364 C361 1.431 . S
C364 C374 1.476 . S
H365 C359 0.929 . S
C366 O357 1.250 . S
C366 O358 1.258 . S
O367 Mn352 2.162 . S
O367 C355 1.281 . S
O368 Mn352 2.297 . S
O368 C355 1.236 . S
N369 Mn353 2.282 . S
N369 C370 1.328 . S
N369 C374 1.318 . S
C370 N369 1.328 . S
C370 C371 1.457 . S
C370 H375 0.929 . S
C371 C370 1.457 . S
C371 C372 1.291 . S
C371 H384 0.931 . S
C372 C371 1.291 . S
C372 C373 1.373 . S
C372 H385 0.929 . S
C373 C372 1.373 . S
C373 C374 1.396 . S
C373 C380 1.403 . S
C374 C364 1.476 . S
C374 N369 1.318 . S
C374 C373 1.396 . S
H375 C370 0.929 . S
O376 Mn352 2.385 . S
O376 C354 1.234 . S
O377 Mn352 2.209 . S
O377 Mn353 2.215 . S
O377 C354 1.283 . S
O378 Mn352 2.094 . S
O378 C356 1.240 . S
O379 Mn353 2.117 . S
O379 C356 1.264 . S
C380 C373 1.403 . S
C380 C381 1.399 . S
C380 H386 0.929 . S
C381 C361 1.449 . S
C381 C380 1.399 . S
C381 H387 0.930 . S
H382 C362 0.931 . S
H383 C363 0.930 . S
H384 C371 0.931 . S
H385 C372 0.929 . S
H386 C380 0.929 . S
H387 C381 0.930 . S
Mn388 O393 2.095 . S
Mn388 O403 2.162 . S
Mn388 O404 2.297 . S
Mn388 O412 2.385 . S
Mn388 O413 2.209 . S
Mn388 O414 2.094 . S
Mn389 O394 2.121 . S
Mn389 N396 2.257 . S
Mn389 N405 2.282 . S
Mn389 O413 2.215 . S
Mn389 O415 2.117 . S
C390 O412 1.234 . S
C390 O413 1.283 . S
C391 O403 1.281 . S
C391 O404 1.236 . S
C392 O414 1.240 . S
C392 O415 1.264 . S
O393 Mn388 2.095 . S
O393 C402 1.250 . S
O394 Mn389 2.121 . S
O394 C402 1.258 . S
C395 N396 1.326 . S
C395 C399 1.460 . S
C395 H401 0.929 . S
N396 Mn389 2.257 . S
N396 C395 1.326 . S
N396 C400 1.362 . S
C397 C398 1.258 . S
C397 C400 1.431 . S
C397 C417 1.449 . S
C398 C397 1.258 . S
C398 C399 1.477 . S
C398 H418 0.931 . S
C399 C395 1.460 . S
C399 C398 1.477 . S
C399 H419 0.930 . S
C400 N396 1.362 . S
C400 C397 1.431 . S
C400 C410 1.476 . S
H401 C395 0.929 . S
C402 O393 1.250 . S
C402 O394 1.258 . S
O403 Mn388 2.162 . S
O403 C391 1.281 . S
O404 Mn388 2.297 . S
O404 C391 1.236 . S
N405 Mn389 2.282 . S
N405 C406 1.328 . S
N405 C410 1.318 . S
C406 N405 1.328 . S
C406 C407 1.457 . S
C406 H411 0.929 . S
C407 C406 1.457 . S
C407 C408 1.291 . S
C407 H420 0.931 . S
C408 C407 1.291 . S
C408 C409 1.373 . S
C408 H421 0.929 . S
C409 C408 1.373 . S
C409 C410 1.396 . S
C409 C416 1.403 . S
C410 C400 1.476 . S
C410 N405 1.318 . S
C410 C409 1.396 . S
H411 C406 0.929 . S
O412 Mn388 2.385 . S
O412 C390 1.234 . S
O413 Mn388 2.209 . S
O413 Mn389 2.215 . S
O413 C390 1.283 . S
O414 Mn388 2.094 . S
O414 C392 1.240 . S
O415 Mn389 2.117 . S
O415 C392 1.264 . S
C416 C409 1.403 . S
C416 C417 1.399 . S
C416 H422 0.929 . S
C417 C397 1.449 . S
C417 C416 1.399 . S
C417 H423 0.930 . S
H418 C398 0.931 . S
H419 C399 0.930 . S
H420 C407 0.931 . S
H421 C408 0.929 . S
H422 C416 0.929 . S
H423 C417 0.930 . S
Mn424 O429 2.095 . S
Mn424 O439 2.162 . S
Mn424 O440 2.297 . S
Mn424 O448 2.385 . S
Mn424 O449 2.209 . S
Mn424 O450 2.094 . S
Mn425 O430 2.121 . S
Mn425 N432 2.257 . S
Mn425 N441 2.282 . S
Mn425 O449 2.215 . S
Mn425 O451 2.117 . S
C426 O448 1.234 . S
C426 O449 1.283 . S
C427 O439 1.281 . S
C427 O440 1.236 . S
C428 O450 1.240 . S
C428 O451 1.264 . S
O429 Mn424 2.095 . S
O429 C438 1.250 . S
O430 Mn425 2.121 . S
O430 C438 1.258 . S
C431 N432 1.326 . S
C431 C435 1.460 . S
C431 H437 0.929 . S
N432 Mn425 2.257 . S
N432 C431 1.326 . S
N432 C436 1.362 . S
C433 C434 1.258 . S
C433 C436 1.431 . S
C433 C453 1.449 . S
C434 C433 1.258 . S
C434 C435 1.477 . S
C434 H454 0.931 . S
C435 C431 1.460 . S
C435 C434 1.477 . S
C435 H455 0.930 . S
C436 N432 1.362 . S
C436 C433 1.431 . S
C436 C446 1.476 . S
H437 C431 0.929 . S
C438 O429 1.250 . S
C438 O430 1.258 . S
O439 Mn424 2.162 . S
O439 C427 1.281 . S
O440 Mn424 2.297 . S
O440 C427 1.236 . S
N441 Mn425 2.282 . S
N441 C442 1.328 . S
N441 C446 1.318 . S
C442 N441 1.328 . S
C442 C443 1.457 . S
C442 H447 0.929 . S
C443 C442 1.457 . S
C443 C444 1.291 . S
C443 H456 0.931 . S
C444 C443 1.291 . S
C444 C445 1.373 . S
C444 H457 0.929 . S
C445 C444 1.373 . S
C445 C446 1.396 . S
C445 C452 1.403 . S
C446 C436 1.476 . S
C446 N441 1.318 . S
C446 C445 1.396 . S
H447 C442 0.929 . S
O448 Mn424 2.385 . S
O448 C426 1.234 . S
O449 Mn424 2.209 . S
O449 Mn425 2.215 . S
O449 C426 1.283 . S
O450 Mn424 2.094 . S
O450 C428 1.240 . S
O451 Mn425 2.117 . S
O451 C428 1.264 . S
C452 C445 1.403 . S
C452 C453 1.399 . S
C452 H458 0.929 . S
C453 C433 1.449 . S
C453 C452 1.399 . S
C453 H459 0.930 . S
H454 C434 0.931 . S
H455 C435 0.930 . S
H456 C443 0.931 . S
H457 C444 0.929 . S
H458 C452 0.929 . S
H459 C453 0.930 . S
Mn460 O465 2.095 . S
Mn460 O475 2.162 1_545 S
Mn460 O476 2.297 . S
Mn460 O484 2.385 . S
Mn460 O485 2.209 . S
Mn460 O486 2.094 1_545 S
Mn461 O466 2.121 . S
Mn461 N468 2.257 . S
Mn461 N477 2.282 . S
Mn461 O485 2.215 . S
Mn461 O487 2.117 . S
C462 O484 1.234 . S
C462 O485 1.283 . S
C463 O475 1.281 . S
C463 O476 1.236 1_565 S
C464 O486 1.240 1_545 S
C464 O487 1.264 . S
O465 Mn460 2.095 . S
O465 C474 1.250 . S
O466 Mn461 2.121 . S
O466 C474 1.258 . S
C467 N468 1.326 . S
C467 C471 1.460 . S
C467 H473 0.929 . S
N468 Mn461 2.257 . S
N468 C467 1.326 . S
N468 C472 1.362 . S
C469 C470 1.258 . S
C469 C472 1.431 . S
C469 C489 1.449 . S
C470 C469 1.258 . S
C470 C471 1.477 . S
C470 H490 0.931 . S
C471 C467 1.460 . S
C471 C470 1.477 . S
C471 H491 0.930 . S
C472 N468 1.362 . S
C472 C469 1.431 . S
C472 C482 1.476 . S
H473 C467 0.929 . S
C474 O465 1.250 . S
C474 O466 1.258 . S
O475 Mn460 2.162 1_565 S
O475 C463 1.281 . S
O476 Mn460 2.297 . S
O476 C463 1.236 1_545 S
N477 Mn461 2.282 . S
N477 C478 1.328 . S
N477 C482 1.318 . S
C478 N477 1.328 . S
C478 C479 1.457 . S
C478 H483 0.929 . S
C479 C478 1.457 . S
C479 C480 1.291 . S
C479 H492 0.931 . S
C480 C479 1.291 . S
C480 C481 1.373 . S
C480 H493 0.929 . S
C481 C480 1.373 . S
C481 C482 1.396 . S
C481 C488 1.403 . S
C482 C472 1.476 . S
C482 N477 1.318 . S
C482 C481 1.396 . S
H483 C478 0.929 . S
O484 Mn460 2.385 . S
O484 C462 1.234 . S
O485 Mn460 2.209 . S
O485 Mn461 2.215 . S
O485 C462 1.283 . S
O486 Mn460 2.094 1_565 S
O486 C464 1.240 1_565 S
O487 Mn461 2.117 . S
O487 C464 1.264 . S
C488 C481 1.403 . S
C488 C489 1.399 . S
C488 H494 0.929 . S
C489 C469 1.449 . S
C489 C488 1.399 . S
C489 H495 0.930 . S
H490 C470 0.931 . S
H491 C471 0.930 . S
H492 C479 0.931 . S
H493 C480 0.929 . S
H494 C488 0.929 . S
H495 C489 0.930 . S
Mn496 O501 2.095 . S
Mn496 O511 2.162 . S
Mn496 O512 2.297 . S
Mn496 O520 2.385 1_455 S
Mn496 O521 2.209 1_455 S
Mn496 O522 2.094 . S
Mn497 O502 2.121 . S
Mn497 N504 2.257 . S
Mn497 N513 2.282 . S
Mn497 O521 2.215 . S
Mn497 O523 2.117 . S
C498 O520 1.234 . S
C498 O521 1.283 . S
C499 O511 1.281 . S
C499 O512 1.236 . S
C500 O522 1.240 . S
C500 O523 1.264 1_455 S
O501 Mn496 2.095 . S
O501 C510 1.250 1_455 S
O502 Mn497 2.121 . S
O502 C510 1.258 . S
C503 N504 1.326 . S
C503 C507 1.460 . S
C503 H509 0.929 . S
N504 Mn497 2.257 . S
N504 C503 1.326 . S
N504 C508 1.362 . S
C505 C506 1.258 . S
C505 C508 1.431 . S
C505 C525 1.449 . S
C506 C505 1.258 . S
C506 C507 1.477 . S
C506 H526 0.931 . S
C507 C503 1.460 . S
C507 C506 1.477 . S
C507 H527 0.930 . S
C508 N504 1.362 . S
C508 C505 1.431 . S
C508 C518 1.476 . S
H509 C503 0.929 . S
C510 O501 1.250 1_655 S
C510 O502 1.258 . S
O511 Mn496 2.162 . S
O511 C499 1.281 . S
O512 Mn496 2.297 . S
O512 C499 1.236 . S
N513 Mn497 2.282 . S
N513 C514 1.328 . S
N513 C518 1.318 . S
C514 N513 1.328 . S
C514 C515 1.457 . S
C514 H519 0.929 . S
C515 C514 1.457 . S
C515 C516 1.291 . S
C515 H528 0.931 . S
C516 C515 1.291 . S
C516 C517 1.373 . S
C516 H529 0.929 . S
C517 C516 1.373 . S
C517 C518 1.396 . S
C517 C524 1.403 . S
C518 C508 1.476 . S
C518 N513 1.318 . S
C518 C517 1.396 . S
H519 C514 0.929 . S
O520 Mn496 2.385 1_655 S
O520 C498 1.234 . S
O521 Mn496 2.209 1_655 S
O521 Mn497 2.215 . S
O521 C498 1.283 . S
O522 Mn496 2.094 . S
O522 C500 1.240 . S
O523 Mn497 2.117 . S
O523 C500 1.264 1_655 S
C524 C517 1.403 . S
C524 C525 1.399 . S
C524 H530 0.929 . S
C525 C505 1.449 . S
C525 C524 1.399 . S
C525 H531 0.930 . S
H526 C506 0.931 . S
H527 C507 0.930 . S
H528 C515 0.931 . S
H529 C516 0.929 . S
H530 C524 0.929 . S
H531 C525 0.930 . S
Mn532 O537 2.095 . S
Mn532 O547 2.162 . S
Mn532 O548 2.297 . S
Mn532 O556 2.385 . S
Mn532 O557 2.209 . S
Mn532 O558 2.094 . S
Mn533 O538 2.121 . S
Mn533 N540 2.257 . S
Mn533 N549 2.282 . S
Mn533 O557 2.215 . S
Mn533 O559 2.117 . S
C534 O556 1.234 . S
C534 O557 1.283 . S
C535 O547 1.281 . S
C535 O548 1.236 . S
C536 O558 1.240 . S
C536 O559 1.264 . S
O537 Mn532 2.095 . S
O537 C546 1.250 . S
O538 Mn533 2.121 . S
O538 C546 1.258 . S
C539 N540 1.326 . S
C539 C543 1.460 . S
C539 H545 0.929 . S
N540 Mn533 2.257 . S
N540 C539 1.326 . S
N540 C544 1.362 . S
C541 C542 1.258 . S
C541 C544 1.431 . S
C541 C561 1.449 . S
C542 C541 1.258 . S
C542 C543 1.477 . S
C542 H562 0.931 . S
C543 C539 1.460 . S
C543 C542 1.477 . S
C543 H563 0.930 . S
C544 N540 1.362 . S
C544 C541 1.431 . S
C544 C554 1.476 . S
H545 C539 0.929 . S
C546 O537 1.250 . S
C546 O538 1.258 . S
O547 Mn532 2.162 . S
O547 C535 1.281 . S
O548 Mn532 2.297 . S
O548 C535 1.236 . S
N549 Mn533 2.282 . S
N549 C550 1.328 . S
N549 C554 1.318 . S
C550 N549 1.328 . S
C550 C551 1.457 . S
C550 H555 0.929 . S
C551 C550 1.457 . S
C551 C552 1.291 . S
C551 H564 0.931 . S
C552 C551 1.291 . S
C552 C553 1.373 . S
C552 H565 0.929 . S
C553 C552 1.373 . S
C553 C554 1.396 . S
C553 C560 1.403 . S
C554 C544 1.476 . S
C554 N549 1.318 . S
C554 C553 1.396 . S
H555 C550 0.929 . S
O556 Mn532 2.385 . S
O556 C534 1.234 . S
O557 Mn532 2.209 . S
O557 Mn533 2.215 . S
O557 C534 1.283 . S
O558 Mn532 2.094 . S
O558 C536 1.240 . S
O559 Mn533 2.117 . S
O559 C536 1.264 . S
C560 C553 1.403 . S
C560 C561 1.399 . S
C560 H566 0.929 . S
C561 C541 1.449 . S
C561 C560 1.399 . S
C561 H567 0.930 . S
H562 C542 0.931 . S
H563 C543 0.930 . S
H564 C551 0.931 . S
H565 C552 0.929 . S
H566 C560 0.929 . S
H567 C561 0.930 . S
Mn568 O573 2.095 . S
Mn568 O583 2.162 . S
Mn568 O584 2.297 . S
Mn568 O592 2.385 . S
Mn568 O593 2.209 . S
Mn568 O594 2.094 . S
Mn569 O574 2.121 . S
Mn569 N576 2.257 . S
Mn569 N585 2.282 1_655 S
Mn569 O593 2.215 1_655 S
Mn569 O595 2.117 1_655 S
C570 O592 1.234 . S
C570 O593 1.283 . S
C571 O583 1.281 . S
C571 O584 1.236 . S
C572 O594 1.240 . S
C572 O595 1.264 . S
O573 Mn568 2.095 . S
O573 C582 1.250 1_455 S
O574 Mn569 2.121 . S
O574 C582 1.258 . S
C575 N576 1.326 . S
C575 C579 1.460 . S
C575 H581 0.929 . S
N576 Mn569 2.257 . S
N576 C575 1.326 . S
N576 C580 1.362 . S
C577 C578 1.258 . S
C577 C580 1.431 . S
C577 C597 1.449 . S
C578 C577 1.258 . S
C578 C579 1.477 . S
C578 H598 0.931 . S
C579 C575 1.460 . S
C579 C578 1.477 . S
C579 H599 0.930 . S
C580 N576 1.362 . S
C580 C577 1.431 . S
C580 C590 1.476 . S
H581 C575 0.929 . S
C582 O573 1.250 1_655 S
C582 O574 1.258 . S
O583 Mn568 2.162 . S
O583 C571 1.281 . S
O584 Mn568 2.297 . S
O584 C571 1.236 . S
N585 Mn569 2.282 1_455 S
N585 C586 1.328 . S
N585 C590 1.318 1_455 S
C586 N585 1.328 . S
C586 C587 1.457 . S
C586 H591 0.929 . S
C587 C586 1.457 . S
C587 C588 1.291 . S
C587 H600 0.931 . S
C588 C587 1.291 . S
C588 C589 1.373 1_455 S
C588 H601 0.929 . S
C589 C588 1.373 1_655 S
C589 C590 1.396 . S
C589 C596 1.403 . S
C590 C580 1.476 . S
C590 N585 1.318 1_655 S
C590 C589 1.396 . S
H591 C586 0.929 . S
O592 Mn568 2.385 . S
O592 C570 1.234 . S
O593 Mn568 2.209 . S
O593 Mn569 2.215 1_455 S
O593 C570 1.283 . S
O594 Mn568 2.094 . S
O594 C572 1.240 . S
O595 Mn569 2.117 1_455 S
O595 C572 1.264 . S
C596 C589 1.403 . S
C596 C597 1.399 . S
C596 H602 0.929 . S
C597 C577 1.449 . S
C597 C596 1.399 . S
C597 H603 0.930 . S
H598 C578 0.931 . S
H599 C579 0.930 . S
H600 C587 0.931 . S
H601 C588 0.929 . S
H602 C596 0.929 . S
H603 C597 0.930 . S
Mn604 O609 2.095 . S
Mn604 O619 2.162 . S
Mn604 O620 2.297 . S
Mn604 O628 2.385 . S
Mn604 O629 2.209 . S
Mn604 O630 2.094 . S
Mn605 O610 2.121 . S
Mn605 N612 2.257 . S
Mn605 N621 2.282 . S
Mn605 O629 2.215 . S
Mn605 O631 2.117 . S
C606 O628 1.234 . S
C606 O629 1.283 . S
C607 O619 1.281 . S
C607 O620 1.236 . S
C608 O630 1.240 . S
C608 O631 1.264 . S
O609 Mn604 2.095 . S
O609 C618 1.250 . S
O610 Mn605 2.121 . S
O610 C618 1.258 . S
C611 N612 1.326 . S
C611 C615 1.460 . S
C611 H617 0.929 . S
N612 Mn605 2.257 . S
N612 C611 1.326 . S
N612 C616 1.362 . S
C613 C614 1.258 . S
C613 C616 1.431 . S
C613 C633 1.449 . S
C614 C613 1.258 . S
C614 C615 1.477 . S
C614 H634 0.931 . S
C615 C611 1.460 . S
C615 C614 1.477 . S
C615 H635 0.930 . S
C616 N612 1.362 . S
C616 C613 1.431 . S
C616 C626 1.476 . S
H617 C611 0.929 . S
C618 O609 1.250 . S
C618 O610 1.258 . S
O619 Mn604 2.162 . S
O619 C607 1.281 . S
O620 Mn604 2.297 . S
O620 C607 1.236 . S
N621 Mn605 2.282 . S
N621 C622 1.328 . S
N621 C626 1.318 . S
C622 N621 1.328 . S
C622 C623 1.457 . S
C622 H627 0.929 . S
C623 C622 1.457 . S
C623 C624 1.291 . S
C623 H636 0.931 . S
C624 C623 1.291 . S
C624 C625 1.373 . S
C624 H637 0.929 . S
C625 C624 1.373 . S
C625 C626 1.396 . S
C625 C632 1.403 . S
C626 C616 1.476 . S
C626 N621 1.318 . S
C626 C625 1.396 . S
H627 C622 0.929 . S
O628 Mn604 2.385 . S
O628 C606 1.234 . S
O629 Mn604 2.209 . S
O629 Mn605 2.215 . S
O629 C606 1.283 . S
O630 Mn604 2.094 . S
O630 C608 1.240 . S
O631 Mn605 2.117 . S
O631 C608 1.264 . S
C632 C625 1.403 . S
C632 C633 1.399 . S
C632 H638 0.929 . S
C633 C613 1.449 . S
C633 C632 1.399 . S
C633 H639 0.930 . S
H634 C614 0.931 . S
H635 C615 0.930 . S
H636 C623 0.931 . S
H637 C624 0.929 . S
H638 C632 0.929 . S
H639 C633 0.930 . S
H640 C646 0.930 . S
H641 C649 0.930 . S
H642 C650 0.930 . S
H643 C651 0.930 . S
H644 C654 0.930 . S
H645 C655 0.930 . S
C646 H640 0.930 . S
C646 C647 1.355 . S
C646 C648 1.415 . S
C647 C646 1.355 . S
C647 C649 1.419 . S
C648 C646 1.415 . S
C648 C653 1.425 . S
C648 C655 1.409 . S
C649 H641 0.930 . S
C649 C647 1.419 . S
C649 C650 1.362 . S
C650 H642 0.930 . S
C650 C649 1.362 . S
C650 C653 1.409 . S
C651 H643 0.930 . S
C651 C652 1.355 . S
C651 C653 1.415 . S
C652 C651 1.355 . S
C652 C654 1.419 . S
C653 C648 1.425 . S
C653 C650 1.409 . S
C653 C651 1.415 . S
C654 H644 0.930 . S
C654 C652 1.419 . S
C654 C655 1.362 . S
C655 H645 0.930 . S
C655 C648 1.409 . S
C655 C654 1.362 . S
H656 C662 0.930 1_655 S
H657 C665 0.930 . S
H658 C666 0.930 . S
H659 C667 0.930 . S
H660 C670 0.930 . S
H661 C671 0.930 . S
C662 H656 0.930 1_455 S
C662 C663 1.355 . S
C662 C664 1.415 . S
C663 C662 1.355 . S
C663 C665 1.419 . S
C664 C662 1.415 . S
C664 C669 1.425 . S
C664 C671 1.409 . S
C665 H657 0.930 . S
C665 C663 1.419 . S
C665 C666 1.362 . S
C666 H658 0.930 . S
C666 C665 1.362 . S
C666 C669 1.409 . S
C667 H659 0.930 . S
C667 C668 1.355 . S
C667 C669 1.415 . S
C668 C667 1.355 . S
C668 C670 1.419 . S
C669 C664 1.425 . S
C669 C666 1.409 . S
C669 C667 1.415 . S
C670 H660 0.930 . S
C670 C668 1.419 . S
C670 C671 1.362 . S
C671 H661 0.930 . S
C671 C664 1.409 . S
C671 C670 1.362 . S
H672 C678 0.930 . S
H673 C681 0.930 . S
H674 C682 0.930 . S
H675 C683 0.930 . S
H676 C686 0.930 . S
H677 C687 0.930 . S
C678 H672 0.930 . S
C678 C679 1.355 . S
C678 C680 1.415 . S
C679 C678 1.355 . S
C679 C681 1.419 . S
C680 C678 1.415 . S
C680 C685 1.425 . S
C680 C687 1.409 . S
C681 H673 0.930 . S
C681 C679 1.419 . S
C681 C682 1.362 . S
C682 H674 0.930 . S
C682 C681 1.362 . S
C682 C685 1.409 . S
C683 H675 0.930 . S
C683 C684 1.355 . S
C683 C685 1.415 . S
C684 C683 1.355 . S
C684 C686 1.419 . S
C685 C680 1.425 . S
C685 C682 1.409 . S
C685 C683 1.415 . S
C686 H676 0.930 . S
C686 C684 1.419 . S
C686 C687 1.362 . S
C687 H677 0.930 . S
C687 C680 1.409 . S
C687 C686 1.362 . S
H688 C694 0.930 . S
H689 C697 0.930 . S
H690 C698 0.930 . S
H691 C699 0.930 . S
H692 C702 0.930 . S
H693 C703 0.930 . S
C694 H688 0.930 . S
C694 C695 1.355 . S
C694 C696 1.415 . S
C695 C694 1.355 . S
C695 C697 1.419 1_565 S
C696 C694 1.415 . S
C696 C701 1.425 1_565 S
C696 C703 1.409 . S
C697 H689 0.930 . S
C697 C695 1.419 1_545 S
C697 C698 1.362 . S
C698 H690 0.930 . S
C698 C697 1.362 . S
C698 C701 1.409 . S
C699 H691 0.930 . S
C699 C700 1.355 . S
C699 C701 1.415 . S
C700 C699 1.355 . S
C700 C702 1.419 1_545 S
C701 C696 1.425 1_545 S
C701 C698 1.409 . S
C701 C699 1.415 . S
C702 H692 0.930 . S
C702 C700 1.419 1_565 S
C702 C703 1.362 . S
C703 H693 0.930 . S
C703 C696 1.409 . S
C703 C702 1.362 . S
H704 C710 0.930 . S
H705 C713 0.930 . S
H706 C714 0.930 . S
H707 C715 0.930 . S
H708 C718 0.930 . S
H709 C719 0.930 . S
C710 H704 0.930 . S
C710 C711 1.355 . S
C710 C712 1.415 . S
C711 C710 1.355 . S
C711 C713 1.419 . S
C712 C710 1.415 . S
C712 C717 1.425 . S
C712 C719 1.409 . S
C713 H705 0.930 . S
C713 C711 1.419 . S
C713 C714 1.362 . S
C714 H706 0.930 . S
C714 C713 1.362 . S
C714 C717 1.409 . S
C715 H707 0.930 . S
C715 C716 1.355 . S
C715 C717 1.415 . S
C716 C715 1.355 . S
C716 C718 1.419 . S
C717 C712 1.425 . S
C717 C714 1.409 . S
C717 C715 1.415 . S
C718 H708 0.930 . S
C718 C716 1.419 . S
C718 C719 1.362 . S
C719 H709 0.930 . S
C719 C712 1.409 . S
C719 C718 1.362 . S
H720 C726 0.930 . S
H721 C729 0.930 . S
H722 C730 0.930 . S
H723 C731 0.930 . S
H724 C734 0.930 . S
H725 C735 0.930 . S
C726 H720 0.930 . S
C726 C727 1.355 . S
C726 C728 1.415 . S
C727 C726 1.355 . S
C727 C729 1.419 . S
C728 C726 1.415 . S
C728 C733 1.425 . S
C728 C735 1.409 . S
C729 H721 0.930 . S
C729 C727 1.419 . S
C729 C730 1.362 . S
C730 H722 0.930 . S
C730 C729 1.362 . S
C730 C733 1.409 . S
C731 H723 0.930 . S
C731 C732 1.355 . S
C731 C733 1.415 . S
C732 C731 1.355 . S
C732 C734 1.419 . S
C733 C728 1.425 . S
C733 C730 1.409 . S
C733 C731 1.415 . S
C734 H724 0.930 . S
C734 C732 1.419 . S
C734 C735 1.362 . S
C735 H725 0.930 . S
C735 C728 1.409 . S
C735 C734 1.362 . S
H736 C742 0.930 . S
H737 C745 0.930 . S
H738 C746 0.930 . S
H739 C747 0.930 . S
H740 C750 0.930 . S
H741 C751 0.930 . S
C742 H736 0.930 . S
C742 C743 1.355 . S
C742 C744 1.415 . S
C743 C742 1.355 . S
C743 C745 1.419 . S
C744 C742 1.415 . S
C744 C749 1.425 . S
C744 C751 1.409 . S
C745 H737 0.930 . S
C745 C743 1.419 . S
C745 C746 1.362 . S
C746 H738 0.930 . S
C746 C745 1.362 . S
C746 C749 1.409 . S
C747 H739 0.930 . S
C747 C748 1.355 . S
C747 C749 1.415 . S
C748 C747 1.355 . S
C748 C750 1.419 . S
C749 C744 1.425 . S
C749 C746 1.409 . S
C749 C747 1.415 . S
C750 H740 0.930 . S
C750 C748 1.419 . S
C750 C751 1.362 . S
C751 H741 0.930 . S
C751 C744 1.409 . S
C751 C750 1.362 . S
H752 C758 0.930 . S
H753 C761 0.930 . S
H754 C762 0.930 . S
H755 C763 0.930 . S
H756 C766 0.930 . S
H757 C767 0.930 . S
C758 H752 0.930 . S
C758 C759 1.355 1_545 S
C758 C760 1.415 . S
C759 C758 1.355 1_565 S
C759 C761 1.419 . S
C760 C758 1.415 . S
C760 C765 1.425 1_545 S
C760 C767 1.409 . S
C761 H753 0.930 . S
C761 C759 1.419 . S
C761 C762 1.362 . S
C762 H754 0.930 . S
C762 C761 1.362 . S
C762 C765 1.409 . S
C763 H755 0.930 . S
C763 C764 1.355 1_565 S
C763 C765 1.415 . S
C764 C763 1.355 1_545 S
C764 C766 1.419 . S
C765 C760 1.425 1_565 S
C765 C762 1.409 . S
C765 C763 1.415 . S
C766 H756 0.930 . S
C766 C764 1.419 . S
C766 C767 1.362 . S
C767 H757 0.930 . S
C767 C760 1.409 . S
C767 C766 1.362 . S
H768 C774 0.930 . S
H769 C777 0.930 . S
H770 C778 0.930 . S
H771 C779 0.930 . S
H772 C782 0.930 . S
H773 C783 0.930 . S
C774 H768 0.930 . S
C774 C775 1.355 . S
C774 C776 1.415 . S
C775 C774 1.355 . S
C775 C777 1.419 . S
C776 C774 1.415 . S
C776 C781 1.425 . S
C776 C783 1.409 . S
C777 H769 0.930 . S
C777 C775 1.419 . S
C777 C778 1.362 . S
C778 H770 0.930 . S
C778 C777 1.362 . S
C778 C781 1.409 . S
C779 H771 0.930 . S
C779 C780 1.355 . S
C779 C781 1.415 . S
C780 C779 1.355 . S
C780 C782 1.419 . S
C781 C776 1.425 . S
C781 C778 1.409 . S
C781 C779 1.415 . S
C782 H772 0.930 . S
C782 C780 1.419 . S
C782 C783 1.362 . S
C783 H773 0.930 . S
C783 C776 1.409 . S
C783 C782 1.362 . S
H784 C790 0.930 . S
H785 C793 0.930 . S
H786 C794 0.930 . S
H787 C795 0.930 . S
H788 C798 0.930 . S
H789 C799 0.930 . S
C790 H784 0.930 . S
C790 C791 1.355 . S
C790 C792 1.415 . S
C791 C790 1.355 . S
C791 C793 1.419 . S
C792 C790 1.415 . S
C792 C797 1.425 . S
C792 C799 1.409 . S
C793 H785 0.930 . S
C793 C791 1.419 . S
C793 C794 1.362 . S
C794 H786 0.930 . S
C794 C793 1.362 . S
C794 C797 1.409 . S
C795 H787 0.930 . S
C795 C796 1.355 . S
C795 C797 1.415 . S
C796 C795 1.355 . S
C796 C798 1.419 . S
C797 C792 1.425 . S
C797 C794 1.409 . S
C797 C795 1.415 . S
C798 H788 0.930 . S
C798 C796 1.419 . S
C798 C799 1.362 . S
C799 H789 0.930 . S
C799 C792 1.409 . S
C799 C798 1.362 . S
H800 C806 0.930 . S
H801 C809 0.930 . S
H802 C810 0.930 . S
H803 C811 0.930 . S
H804 C814 0.930 . S
H805 C815 0.930 . S
C806 H800 0.930 . S
C806 C807 1.355 . S
C806 C808 1.415 . S
C807 C806 1.355 . S
C807 C809 1.419 . S
C808 C806 1.415 . S
C808 C813 1.425 . S
C808 C815 1.409 . S
C809 H801 0.930 . S
C809 C807 1.419 . S
C809 C810 1.362 . S
C810 H802 0.930 . S
C810 C809 1.362 . S
C810 C813 1.409 . S
C811 H803 0.930 . S
C811 C812 1.355 . S
C811 C813 1.415 . S
C812 C811 1.355 . S
C812 C814 1.419 . S
C813 C808 1.425 . S
C813 C810 1.409 . S
C813 C811 1.415 . S
C814 H804 0.930 . S
C814 C812 1.419 . S
C814 C815 1.362 . S
C815 H805 0.930 . S
C815 C808 1.409 . S
C815 C814 1.362 . S
H816 C822 0.930 . S
H817 C825 0.930 . S
H818 C826 0.930 . S
H819 C827 0.930 . S
H820 C830 0.930 . S
H821 C831 0.930 . S
C822 H816 0.930 . S
C822 C823 1.355 . S
C822 C824 1.415 . S
C823 C822 1.355 . S
C823 C825 1.419 . S
C824 C822 1.415 . S
C824 C829 1.425 . S
C824 C831 1.409 . S
C825 H817 0.930 . S
C825 C823 1.419 . S
C825 C826 1.362 . S
C826 H818 0.930 . S
C826 C825 1.362 . S
C826 C829 1.409 . S
C827 H819 0.930 . S
C827 C828 1.355 . S
C827 C829 1.415 . S
C828 C827 1.355 . S
C828 C830 1.419 . S
C829 C824 1.425 . S
C829 C826 1.409 . S
C829 C827 1.415 . S
C830 H820 0.930 . S
C830 C828 1.419 . S
C830 C831 1.362 . S
C831 H821 0.930 . S
C831 C824 1.409 . S
C831 C830 1.362 . S
H832 C838 0.930 . S
H833 C841 0.930 . S
H834 C842 0.930 . S
H835 C843 0.930 . S
H836 C846 0.930 . S
H837 C847 0.930 . S
C838 H832 0.930 . S
C838 C839 1.355 . S
C838 C840 1.415 . S
C839 C838 1.355 . S
C839 C841 1.419 . S
C840 C838 1.415 . S
C840 C845 1.425 . S
C840 C847 1.409 . S
C841 H833 0.930 . S
C841 C839 1.419 . S
C841 C842 1.362 . S
C842 H834 0.930 . S
C842 C841 1.362 . S
C842 C845 1.409 . S
C843 H835 0.930 . S
C843 C844 1.355 . S
C843 C845 1.415 . S
C844 C843 1.355 . S
C844 C846 1.419 . S
C845 C840 1.425 . S
C845 C842 1.409 . S
C845 C843 1.415 . S
C846 H836 0.930 . S
C846 C844 1.419 . S
C846 C847 1.362 . S
C847 H837 0.930 . S
C847 C840 1.409 . S
C847 C846 1.362 . S
H848 C854 0.930 . S
H849 C857 0.930 . S
H850 C858 0.930 . S
H851 C859 0.930 . S
H852 C862 0.930 1_655 S
H853 C863 0.930 1_655 S
C854 H848 0.930 . S
C854 C855 1.355 . S
C854 C856 1.415 . S
C855 C854 1.355 . S
C855 C857 1.419 . S
C856 C854 1.415 . S
C856 C861 1.425 . S
C856 C863 1.409 . S
C857 H849 0.930 . S
C857 C855 1.419 . S
C857 C858 1.362 . S
C858 H850 0.930 . S
C858 C857 1.362 . S
C858 C861 1.409 . S
C859 H851 0.930 . S
C859 C860 1.355 . S
C859 C861 1.415 . S
C860 C859 1.355 . S
C860 C862 1.419 . S
C861 C856 1.425 . S
C861 C858 1.409 . S
C861 C859 1.415 . S
C862 H852 0.930 1_455 S
C862 C860 1.419 . S
C862 C863 1.362 . S
C863 H853 0.930 1_455 S
C863 C856 1.409 . S
C863 C862 1.362 . S
H864 C870 0.930 . S
H865 C873 0.930 . S
H866 C874 0.930 . S
H867 C875 0.930 . S
H868 C878 0.930 . S
H869 C879 0.930 . S
C870 H864 0.930 . S
C870 C871 1.355 . S
C870 C872 1.415 . S
C871 C870 1.355 . S
C871 C873 1.419 . S
C872 C870 1.415 . S
C872 C877 1.425 . S
C872 C879 1.409 . S
C873 H865 0.930 . S
C873 C871 1.419 . S
C873 C874 1.362 . S
C874 H866 0.930 . S
C874 C873 1.362 . S
C874 C877 1.409 . S
C875 H867 0.930 . S
C875 C876 1.355 . S
C875 C877 1.415 . S
C876 C875 1.355 . S
C876 C878 1.419 . S
C877 C872 1.425 . S
C877 C874 1.409 . S
C877 C875 1.415 . S
C878 H868 0.930 . S
C878 C876 1.419 . S
C878 C879 1.362 . S
C879 H869 0.930 . S
C879 C872 1.409 . S
C879 C878 1.362 . S
H880 C886 0.930 . S
H881 C889 0.930 . S
H882 C890 0.930 . S
H883 C891 0.930 . S
H884 C894 0.930 . S
H885 C895 0.930 . S
C886 H880 0.930 . S
C886 C887 1.355 . S
C886 C888 1.415 . S
C887 C886 1.355 . S
C887 C889 1.419 1_655 S
C888 C886 1.415 . S
C888 C893 1.425 1_655 S
C888 C895 1.409 . S
C889 H881 0.930 . S
C889 C887 1.419 1_455 S
C889 C890 1.362 . S
C890 H882 0.930 . S
C890 C889 1.362 . S
C890 C893 1.409 . S
C891 H883 0.930 . S
C891 C892 1.355 . S
C891 C893 1.415 . S
C892 C891 1.355 . S
C892 C894 1.419 1_455 S
C893 C888 1.425 1_455 S
C893 C890 1.409 . S
C893 C891 1.415 . S
C894 H884 0.930 . S
C894 C892 1.419 1_655 S
C894 C895 1.362 . S
C895 H885 0.930 . S
C895 C888 1.409 . S
C895 C894 1.362 . S
H896 C902 0.930 . S
H897 C905 0.930 . S
H898 C906 0.930 . S
H899 C907 0.930 . S
H900 C910 0.930 . S
H901 C911 0.930 . S
C902 H896 0.930 . S
C902 C903 1.355 . S
C902 C904 1.415 . S
C903 C902 1.355 . S
C903 C905 1.419 . S
C904 C902 1.415 . S
C904 C909 1.425 . S
C904 C911 1.409 . S
C905 H897 0.930 . S
C905 C903 1.419 . S
C905 C906 1.362 . S
C906 H898 0.930 . S
C906 C905 1.362 . S
C906 C909 1.409 . S
C907 H899 0.930 . S
C907 C908 1.355 . S
C907 C909 1.415 . S
C908 C907 1.355 . S
C908 C910 1.419 . S
C909 C904 1.425 . S
C909 C906 1.409 . S
C909 C907 1.415 . S
C910 H900 0.930 . S
C910 C908 1.419 . S
C910 C911 1.362 . S
C911 H901 0.930 . S
C911 C904 1.409 . S
C911 C910 1.362 . S
H912 C918 0.930 . S
H913 C921 0.930 . S
H914 C922 0.930 . S
H915 C923 0.930 . S
H916 C926 0.930 . S
H917 C927 0.930 . S
C918 H912 0.930 . S
C918 C919 1.355 . S
C918 C920 1.415 . S
C919 C918 1.355 . S
C919 C921 1.419 . S
C920 C918 1.415 . S
C920 C925 1.425 . S
C920 C927 1.409 . S
C921 H913 0.930 . S
C921 C919 1.419 . S
C921 C922 1.362 . S
C922 H914 0.930 . S
C922 C921 1.362 . S
C922 C925 1.409 . S
C923 H915 0.930 . S
C923 C924 1.355 . S
C923 C925 1.415 . S
C924 C923 1.355 . S
C924 C926 1.419 . S
C925 C920 1.425 . S
C925 C922 1.409 . S
C925 C923 1.415 . S
C926 H916 0.930 . S
C926 C924 1.419 . S
C926 C927 1.362 . S
C927 H917 0.930 . S
C927 C920 1.409 . S
C927 C926 1.362 . S
H928 C934 0.930 . S
H929 C937 0.930 . S
H930 C938 0.930 . S
H931 C939 0.930 . S
H932 C942 0.930 . S
H933 C943 0.930 . S
C934 H928 0.930 . S
C934 C935 1.355 1_565 S
C934 C936 1.415 . S
C935 C934 1.355 1_545 S
C935 C937 1.419 1_556 S
C936 C934 1.415 . S
C936 C941 1.425 1_556 S
C936 C943 1.409 . S
C937 H929 0.930 . S
C937 C935 1.419 1_554 S
C937 C938 1.362 . S
C938 H930 0.930 . S
C938 C937 1.362 . S
C938 C941 1.409 1_545 S
C939 H931 0.930 . S
C939 C940 1.355 . S
C939 C941 1.415 . S
C940 C939 1.355 . S
C940 C942 1.419 1_554 S
C941 C936 1.425 1_554 S
C941 C938 1.409 1_565 S
C941 C939 1.415 . S
C942 H932 0.930 . S
C942 C940 1.419 1_556 S
C942 C943 1.362 . S
C943 H933 0.930 . S
C943 C936 1.409 . S
C943 C942 1.362 . S
H944 C950 0.930 . S
H945 C953 0.930 . S
H946 C954 0.930 . S
H947 C955 0.930 . S
H948 C958 0.930 . S
H949 C959 0.930 . S
C950 H944 0.930 . S
C950 C951 1.355 . S
C950 C952 1.415 . S
C951 C950 1.355 . S
C951 C953 1.419 . S
C952 C950 1.415 . S
C952 C957 1.425 . S
C952 C959 1.409 . S
C953 H945 0.930 . S
C953 C951 1.419 . S
C953 C954 1.362 . S
C954 H946 0.930 . S
C954 C953 1.362 . S
C954 C957 1.409 . S
C955 H947 0.930 . S
C955 C956 1.355 . S
C955 C957 1.415 . S
C956 C955 1.355 . S
C956 C958 1.419 . S
C957 C952 1.425 . S
C957 C954 1.409 . S
C957 C955 1.415 . S
C958 H948 0.930 . S
C958 C956 1.419 . S
C958 C959 1.362 . S
C959 H949 0.930 . S
C959 C952 1.409 . S
C959 C958 1.362 . S
H960 C966 0.930 . S
H961 C969 0.930 1_565 S
H962 C970 0.930 . S
H963 C971 0.930 . S
H964 C974 0.930 . S
H965 C975 0.930 . S
C966 H960 0.930 . S
C966 C967 1.355 . S
C966 C968 1.415 . S
C967 C966 1.355 . S
C967 C969 1.419 . S
C968 C966 1.415 . S
C968 C973 1.425 . S
C968 C975 1.409 . S
C969 H961 0.930 1_545 S
C969 C967 1.419 . S
C969 C970 1.362 . S
C970 H962 0.930 . S
C970 C969 1.362 . S
C970 C973 1.409 . S
C971 H963 0.930 . S
C971 C972 1.355 . S
C971 C973 1.415 . S
C972 C971 1.355 . S
C972 C974 1.419 . S
C973 C968 1.425 . S
C973 C970 1.409 . S
C973 C971 1.415 . S
C974 H964 0.930 . S
C974 C972 1.419 . S
C974 C975 1.362 . S
C975 H965 0.930 . S
C975 C968 1.409 . S
C975 C974 1.362 . S
H976 C982 0.930 . S
H977 C985 0.930 . S
H978 C986 0.930 . S
H979 C987 0.930 . S
H980 C990 0.930 . S
H981 C991 0.930 . S
C982 H976 0.930 . S
C982 C983 1.355 . S
C982 C984 1.415 . S
C983 C982 1.355 . S
C983 C985 1.419 . S
C984 C982 1.415 . S
C984 C989 1.425 . S
C984 C991 1.409 . S
C985 H977 0.930 . S
C985 C983 1.419 . S
C985 C986 1.362 . S
C986 H978 0.930 . S
C986 C985 1.362 . S
C986 C989 1.409 . S
C987 H979 0.930 . S
C987 C988 1.355 . S
C987 C989 1.415 . S
C988 C987 1.355 . S
C988 C990 1.419 . S
C989 C984 1.425 . S
C989 C986 1.409 . S
C989 C987 1.415 . S
C990 H980 0.930 . S
C990 C988 1.419 . S
C990 C991 1.362 . S
C991 H981 0.930 . S
C991 C984 1.409 . S
C991 C990 1.362 . S
H992 C998 0.930 . S
H993 C1001 0.930 . S
H994 C1002 0.930 . S
H995 C1003 0.930 . S
H996 C1006 0.930 . S
H997 C1007 0.930 . S
C998 H992 0.930 . S
C998 C999 1.355 . S
C998 C1000 1.415 . S
C999 C998 1.355 . S
C999 C1001 1.419 . S
C1000 C998 1.415 . S
C1000 C1005 1.425 . S
C1000 C1007 1.409 . S
C1001 H993 0.930 . S
C1001 C999 1.419 . S
C1001 C1002 1.362 . S
C1002 H994 0.930 . S
C1002 C1001 1.362 . S
C1002 C1005 1.409 . S
C1003 H995 0.930 . S
C1003 C1004 1.355 . S
C1003 C1005 1.415 . S
C1004 C1003 1.355 . S
C1004 C1006 1.419 . S
C1005 C1000 1.425 . S
C1005 C1002 1.409 . S
C1005 C1003 1.415 . S
C1006 H996 0.930 . S
C1006 C1004 1.419 . S
C1006 C1007 1.362 . S
C1007 H997 0.930 . S
C1007 C1000 1.409 . S
C1007 C1006 1.362 . S
H1008 C1014 0.930 . S
H1009 C1017 0.930 . S
H1010 C1018 0.930 . S
H1011 C1019 0.930 . S
H1012 C1022 0.930 . S
H1013 C1023 0.930 . S
C1014 H1008 0.930 . S
C1014 C1015 1.355 . S
C1014 C1016 1.415 . S
C1015 C1014 1.355 . S
C1015 C1017 1.419 . S
C1016 C1014 1.415 . S
C1016 C1021 1.425 . S
C1016 C1023 1.409 . S
C1017 H1009 0.930 . S
C1017 C1015 1.419 . S
C1017 C1018 1.362 . S
C1018 H1010 0.930 . S
C1018 C1017 1.362 . S
C1018 C1021 1.409 . S
C1019 H1011 0.930 . S
C1019 C1020 1.355 . S
C1019 C1021 1.415 . S
C1020 C1019 1.355 . S
C1020 C1022 1.419 . S
C1021 C1016 1.425 . S
C1021 C1018 1.409 . S
C1021 C1019 1.415 . S
C1022 H1012 0.930 . S
C1022 C1020 1.419 . S
C1022 C1023 1.362 . S
C1023 H1013 0.930 . S
C1023 C1016 1.409 . S
C1023 C1022 1.362 . S
H1024 C1030 0.930 . S
H1025 C1033 0.930 . S
H1026 C1034 0.930 . S
H1027 C1035 0.930 . S
H1028 C1038 0.930 . S
H1029 C1039 0.930 . S
C1030 H1024 0.930 . S
C1030 C1031 1.355 . S
C1030 C1032 1.415 . S
C1031 C1030 1.355 . S
C1031 C1033 1.419 . S
C1032 C1030 1.415 . S
C1032 C1037 1.425 . S
C1032 C1039 1.409 . S
C1033 H1025 0.930 . S
C1033 C1031 1.419 . S
C1033 C1034 1.362 . S
C1034 H1026 0.930 . S
C1034 C1033 1.362 . S
C1034 C1037 1.409 . S
C1035 H1027 0.930 . S
C1035 C1036 1.355 . S
C1035 C1037 1.415 . S
C1036 C1035 1.355 . S
C1036 C1038 1.419 . S
C1037 C1032 1.425 . S
C1037 C1034 1.409 . S
C1037 C1035 1.415 . S
C1038 H1028 0.930 . S
C1038 C1036 1.419 . S
C1038 C1039 1.362 . S
C1039 H1029 0.930 . S
C1039 C1032 1.409 . S
C1039 C1038 1.362 . S
H1040 C1046 0.930 . S
H1041 C1049 0.930 . S
H1042 C1050 0.930 . S
H1043 C1051 0.930 . S
H1044 C1054 0.930 1_565 S
H1045 C1055 0.930 1_565 S
C1046 H1040 0.930 . S
C1046 C1047 1.355 . S
C1046 C1048 1.415 . S
C1047 C1046 1.355 . S
C1047 C1049 1.419 . S
C1048 C1046 1.415 . S
C1048 C1053 1.425 . S
C1048 C1055 1.409 . S
C1049 H1041 0.930 . S
C1049 C1047 1.419 . S
C1049 C1050 1.362 . S
C1050 H1042 0.930 . S
C1050 C1049 1.362 . S
C1050 C1053 1.409 . S
C1051 H1043 0.930 . S
C1051 C1052 1.355 . S
C1051 C1053 1.415 . S
C1052 C1051 1.355 . S
C1052 C1054 1.419 . S
C1053 C1048 1.425 . S
C1053 C1050 1.409 . S
C1053 C1051 1.415 . S
C1054 H1044 0.930 1_545 S
C1054 C1052 1.419 . S
C1054 C1055 1.362 . S
C1055 H1045 0.930 1_545 S
C1055 C1048 1.409 . S
C1055 C1054 1.362 . S
H1056 C1062 0.930 . S
H1057 C1065 0.930 . S
H1058 C1066 0.930 . S
H1059 C1067 0.930 . S
H1060 C1070 0.930 . S
H1061 C1071 0.930 . S
C1062 H1056 0.930 . S
C1062 C1063 1.355 . S
C1062 C1064 1.415 . S
C1063 C1062 1.355 . S
C1063 C1065 1.419 . S
C1064 C1062 1.415 . S
C1064 C1069 1.425 . S
C1064 C1071 1.409 . S
C1065 H1057 0.930 . S
C1065 C1063 1.419 . S
C1065 C1066 1.362 . S
C1066 H1058 0.930 . S
C1066 C1065 1.362 . S
C1066 C1069 1.409 . S
C1067 H1059 0.930 . S
C1067 C1068 1.355 . S
C1067 C1069 1.415 . S
C1068 C1067 1.355 . S
C1068 C1070 1.419 . S
C1069 C1064 1.425 . S
C1069 C1066 1.409 . S
C1069 C1067 1.415 . S
C1070 H1060 0.930 . S
C1070 C1068 1.419 . S
C1070 C1071 1.362 . S
C1071 H1061 0.930 . S
C1071 C1064 1.409 . S
C1071 C1070 1.362 . S
H1072 C1078 0.930 . S
H1073 C1081 0.930 . S
H1074 C1082 0.930 . S
H1075 C1083 0.930 . S
H1076 C1086 0.930 . S
H1077 C1087 0.930 . S
C1078 H1072 0.930 . S
C1078 C1079 1.355 . S
C1078 C1080 1.415 . S
C1079 C1078 1.355 . S
C1079 C1081 1.419 . S
C1080 C1078 1.415 . S
C1080 C1085 1.425 . S
C1080 C1087 1.409 . S
C1081 H1073 0.930 . S
C1081 C1079 1.419 . S
C1081 C1082 1.362 . S
C1082 H1074 0.930 . S
C1082 C1081 1.362 . S
C1082 C1085 1.409 . S
C1083 H1075 0.930 . S
C1083 C1084 1.355 . S
C1083 C1085 1.415 . S
C1084 C1083 1.355 . S
C1084 C1086 1.419 . S
C1085 C1080 1.425 . S
C1085 C1082 1.409 . S
C1085 C1083 1.415 . S
C1086 H1076 0.930 . S
C1086 C1084 1.419 . S
C1086 C1087 1.362 . S
C1087 H1077 0.930 . S
C1087 C1080 1.409 . S
C1087 C1086 1.362 . S
H1088 C1094 0.930 . S
H1089 C1097 0.930 . S
H1090 C1098 0.930 . S
H1091 C1099 0.930 . S
H1092 C1102 0.930 . S
H1093 C1103 0.930 . S
C1094 H1088 0.930 . S
C1094 C1095 1.355 . S
C1094 C1096 1.415 . S
C1095 C1094 1.355 . S
C1095 C1097 1.419 . S
C1096 C1094 1.415 . S
C1096 C1101 1.425 . S
C1096 C1103 1.409 . S
C1097 H1089 0.930 . S
C1097 C1095 1.419 . S
C1097 C1098 1.362 . S
C1098 H1090 0.930 . S
C1098 C1097 1.362 . S
C1098 C1101 1.409 . S
C1099 H1091 0.930 . S
C1099 C1100 1.355 . S
C1099 C1101 1.415 . S
C1100 C1099 1.355 . S
C1100 C1102 1.419 . S
C1101 C1096 1.425 . S
C1101 C1098 1.409 . S
C1101 C1099 1.415 . S
C1102 H1092 0.930 . S
C1102 C1100 1.419 . S
C1102 C1103 1.362 . S
C1103 H1093 0.930 . S
C1103 C1096 1.409 . S
C1103 C1102 1.362 . S
H1104 C1110 0.930 . S
H1105 C1113 0.930 . S
H1106 C1114 0.930 . S
H1107 C1115 0.930 . S
H1108 C1118 0.930 . S
H1109 C1119 0.930 . S
C1110 H1104 0.930 . S
C1110 C1111 1.355 . S
C1110 C1112 1.415 . S
C1111 C1110 1.355 . S
C1111 C1113 1.419 1_545 S
C1112 C1110 1.415 . S
C1112 C1117 1.425 1_545 S
C1112 C1119 1.409 . S
C1113 H1105 0.930 . S
C1113 C1111 1.419 1_565 S
C1113 C1114 1.362 . S
C1114 H1106 0.930 . S
C1114 C1113 1.362 . S
C1114 C1117 1.409 . S
C1115 H1107 0.930 . S
C1115 C1116 1.355 1_565 S
C1115 C1117 1.415 . S
C1116 C1115 1.355 1_545 S
C1116 C1118 1.419 . S
C1117 C1112 1.425 1_565 S
C1117 C1114 1.409 . S
C1117 C1115 1.415 . S
C1118 H1108 0.930 . S
C1118 C1116 1.419 . S
C1118 C1119 1.362 . S
C1119 H1109 0.930 . S
C1119 C1112 1.409 . S
C1119 C1118 1.362 . S
H1120 C1126 0.930 . S
H1121 C1129 0.930 . S
H1122 C1130 0.930 . S
H1123 C1131 0.930 . S
H1124 C1134 0.930 . S
H1125 C1135 0.930 . S
C1126 H1120 0.930 . S
C1126 C1127 1.355 . S
C1126 C1128 1.415 . S
C1127 C1126 1.355 . S
C1127 C1129 1.419 . S
C1128 C1126 1.415 . S
C1128 C1133 1.425 . S
C1128 C1135 1.409 . S
C1129 H1121 0.930 . S
C1129 C1127 1.419 . S
C1129 C1130 1.362 . S
C1130 H1122 0.930 . S
C1130 C1129 1.362 . S
C1130 C1133 1.409 . S
C1131 H1123 0.930 . S
C1131 C1132 1.355 . S
C1131 C1133 1.415 . S
C1132 C1131 1.355 . S
C1132 C1134 1.419 . S
C1133 C1128 1.425 . S
C1133 C1130 1.409 . S
C1133 C1131 1.415 . S
C1134 H1124 0.930 . S
C1134 C1132 1.419 . S
C1134 C1135 1.362 . S
C1135 H1125 0.930 . S
C1135 C1128 1.409 . S
C1135 C1134 1.362 . S
H1136 C1142 0.930 . S
H1137 C1145 0.930 . S
H1138 C1146 0.930 . S
H1139 C1147 0.930 . S
H1140 C1150 0.930 . S
H1141 C1151 0.930 . S
C1142 H1136 0.930 . S
C1142 C1143 1.355 . S
C1142 C1144 1.415 . S
C1143 C1142 1.355 . S
C1143 C1145 1.419 . S
C1144 C1142 1.415 . S
C1144 C1149 1.425 . S
C1144 C1151 1.409 . S
C1145 H1137 0.930 . S
C1145 C1143 1.419 . S
C1145 C1146 1.362 . S
C1146 H1138 0.930 . S
C1146 C1145 1.362 . S
C1146 C1149 1.409 . S
C1147 H1139 0.930 . S
C1147 C1148 1.355 . S
C1147 C1149 1.415 . S
C1148 C1147 1.355 . S
C1148 C1150 1.419 . S
C1149 C1144 1.425 . S
C1149 C1146 1.409 . S
C1149 C1147 1.415 . S
C1150 H1140 0.930 . S
C1150 C1148 1.419 . S
C1150 C1151 1.362 . S
C1151 H1141 0.930 . S
C1151 C1144 1.409 . S
C1151 C1150 1.362 . S
H1152 C1158 0.930 . S
H1153 C1161 0.930 . S
H1154 C1162 0.930 . S
H1155 C1163 0.930 . S
H1156 C1166 0.930 . S
H1157 C1167 0.930 . S
C1158 H1152 0.930 . S
C1158 C1159 1.355 . S
C1158 C1160 1.415 . S
C1159 C1158 1.355 . S
C1159 C1161 1.419 . S
C1160 C1158 1.415 . S
C1160 C1165 1.425 . S
C1160 C1167 1.409 . S
C1161 H1153 0.930 . S
C1161 C1159 1.419 . S
C1161 C1162 1.362 . S
C1162 H1154 0.930 . S
C1162 C1161 1.362 . S
C1162 C1165 1.409 . S
C1163 H1155 0.930 . S
C1163 C1164 1.355 . S
C1163 C1165 1.415 . S
C1164 C1163 1.355 . S
C1164 C1166 1.419 . S
C1165 C1160 1.425 . S
C1165 C1162 1.409 . S
C1165 C1163 1.415 . S
C1166 H1156 0.930 . S
C1166 C1164 1.419 . S
C1166 C1167 1.362 . S
C1167 H1157 0.930 . S
C1167 C1160 1.409 . S
C1167 C1166 1.362 . S
H1168 C1174 0.930 . S
H1169 C1177 0.930 . S
H1170 C1178 0.930 . S
H1171 C1179 0.930 . S
H1172 C1182 0.930 . S
H1173 C1183 0.930 . S
C1174 H1168 0.930 . S
C1174 C1175 1.355 . S
C1174 C1176 1.415 . S
C1175 C1174 1.355 . S
C1175 C1177 1.419 1_554 S
C1176 C1174 1.415 . S
C1176 C1181 1.425 1_554 S
C1176 C1183 1.409 . S
C1177 H1169 0.930 . S
C1177 C1175 1.419 1_556 S
C1177 C1178 1.362 . S
C1178 H1170 0.930 . S
C1178 C1177 1.362 . S
C1178 C1181 1.409 . S
C1179 H1171 0.930 . S
C1179 C1180 1.358 . S
C1179 C1181 1.415 . S
C1180 C1179 1.358 . S
C1180 C1182 1.421 1_556 S
C1181 C1176 1.425 1_556 S
C1181 C1178 1.409 . S
C1181 C1179 1.415 . S
C1182 H1172 0.930 . S
C1182 C1180 1.421 1_554 S
C1182 C1183 1.362 . S
C1183 H1173 0.930 . S
C1183 C1176 1.409 . S
C1183 C1182 1.362 . S
H1184 C1190 0.930 . S
H1185 C1193 0.930 . S
H1186 C1194 0.930 . S
H1187 C1195 0.930 . S
H1188 C1198 0.930 . S
H1189 C1199 0.930 . S
C1190 H1184 0.930 . S
C1190 C1191 1.355 . S
C1190 C1192 1.415 . S
C1191 C1190 1.355 . S
C1191 C1193 1.419 . S
C1192 C1190 1.415 . S
C1192 C1197 1.425 . S
C1192 C1199 1.409 . S
C1193 H1185 0.930 . S
C1193 C1191 1.419 . S
C1193 C1194 1.362 . S
C1194 H1186 0.930 . S
C1194 C1193 1.362 . S
C1194 C1197 1.409 . S
C1195 H1187 0.930 . S
C1195 C1196 1.355 . S
C1195 C1197 1.415 . S
C1196 C1195 1.355 . S
C1196 C1198 1.419 . S
C1197 C1192 1.425 . S
C1197 C1194 1.409 . S
C1197 C1195 1.415 . S
C1198 H1188 0.930 . S
C1198 C1196 1.419 . S
C1198 C1199 1.362 . S
C1199 H1189 0.930 . S
C1199 C1192 1.409 . S
C1199 C1198 1.362 . S
H1200 C1206 0.911 1_655 S
H1201 C1209 0.930 . S
H1202 C1210 0.930 . S
H1203 C1211 0.930 . S
H1204 C1214 0.930 . S
H1205 C1215 0.930 . S
C1206 H1200 0.911 1_455 S
C1206 C1207 1.375 . S
C1206 C1208 1.416 1_554 S
C1207 C1206 1.375 . S
C1207 C1209 1.419 . S
C1208 C1206 1.416 1_556 S
C1208 C1213 1.455 . S
C1208 C1215 1.379 1_455 S
C1209 H1201 0.930 . S
C1209 C1207 1.419 . S
C1209 C1210 1.362 . S
C1210 H1202 0.930 . S
C1210 C1209 1.362 . S
C1210 C1213 1.409 1_554 S
C1211 H1203 0.930 . S
C1211 C1212 1.355 . S
C1211 C1213 1.415 . S
C1212 C1211 1.355 . S
C1212 C1214 1.419 1_455 S
C1213 C1208 1.455 . S
C1213 C1210 1.409 1_556 S
C1213 C1211 1.415 . S
C1214 H1204 0.930 . S
C1214 C1212 1.419 1_655 S
C1214 C1215 1.362 . S
C1215 H1205 0.930 . S
C1215 C1208 1.379 1_655 S
C1215 C1214 1.362 . S
H1216 C1222 0.930 . S
H1217 C1225 0.930 . S
H1218 C1226 0.930 . S
H1219 C1227 0.930 . S
H1220 C1230 0.930 . S
H1221 C1231 0.930 . S
C1222 H1216 0.930 . S
C1222 C1223 1.355 . S
C1222 C1224 1.415 . S
C1223 C1222 1.355 . S
C1223 C1225 1.419 . S
C1224 C1222 1.415 . S
C1224 C1229 1.425 . S
C1224 C1231 1.409 . S
C1225 H1217 0.930 . S
C1225 C1223 1.419 . S
C1225 C1226 1.362 . S
C1226 H1218 0.930 . S
C1226 C1225 1.362 . S
C1226 C1229 1.409 . S
C1227 H1219 0.930 . S
C1227 C1228 1.355 . S
C1227 C1229 1.415 . S
C1228 C1227 1.355 . S
C1228 C1230 1.419 . S
C1229 C1224 1.425 . S
C1229 C1226 1.409 . S
C1229 C1227 1.415 . S
C1230 H1220 0.930 . S
C1230 C1228 1.419 . S
C1230 C1231 1.362 . S
C1231 H1221 0.930 . S
C1231 C1224 1.409 . S
C1231 C1230 1.362 . S
H1232 C1238 0.930 . S
H1233 C1241 0.930 . S
H1234 C1242 0.930 . S
H1235 C1243 0.930 . S
H1236 C1246 0.930 . S
H1237 C1247 0.930 . S
C1238 H1232 0.930 . S
C1238 C1239 1.355 . S
C1238 C1240 1.415 . S
C1239 C1238 1.355 . S
C1239 C1241 1.419 . S
C1240 C1238 1.415 . S
C1240 C1245 1.425 . S
C1240 C1247 1.409 . S
C1241 H1233 0.930 . S
C1241 C1239 1.419 . S
C1241 C1242 1.362 . S
C1242 H1234 0.930 . S
C1242 C1241 1.362 . S
C1242 C1245 1.409 . S
C1243 H1235 0.930 . S
C1243 C1244 1.355 . S
C1243 C1245 1.415 . S
C1244 C1243 1.355 . S
C1244 C1246 1.419 . S
C1245 C1240 1.425 . S
C1245 C1242 1.409 . S
C1245 C1243 1.415 . S
C1246 H1236 0.930 . S
C1246 C1244 1.419 . S
C1246 C1247 1.362 . S
C1247 H1237 0.930 . S
C1247 C1240 1.409 . S
C1247 C1246 1.362 . S
H1248 C1254 0.930 . S
H1249 C1257 0.930 . S
H1250 C1258 0.930 . S
H1251 C1259 0.930 . S
H1252 C1262 0.930 . S
H1253 C1263 0.930 . S
C1254 H1248 0.930 . S
C1254 C1255 1.355 . S
C1254 C1256 1.415 . S
C1255 C1254 1.355 . S
C1255 C1257 1.419 . S
C1256 C1254 1.415 . S
C1256 C1261 1.425 . S
C1256 C1263 1.409 . S
C1257 H1249 0.930 . S
C1257 C1255 1.419 . S
C1257 C1258 1.362 . S
C1258 H1250 0.930 . S
C1258 C1257 1.362 . S
C1258 C1261 1.409 . S
C1259 H1251 0.930 . S
C1259 C1260 1.355 . S
C1259 C1261 1.415 . S
C1260 C1259 1.355 . S
C1260 C1262 1.419 . S
C1261 C1256 1.425 . S
C1261 C1258 1.409 . S
C1261 C1259 1.415 . S
C1262 H1252 0.930 . S
C1262 C1260 1.419 . S
C1262 C1263 1.362 . S
C1263 H1253 0.930 . S
C1263 C1256 1.409 . S
C1263 C1262 1.362 . S
H1264 C1270 0.930 . S
H1265 C1273 0.930 1_556 S
H1266 C1274 0.930 . S
H1267 C1275 0.930 . S
H1268 C1278 0.930 . S
H1269 C1279 0.930 . S
C1270 H1264 0.930 . S
C1270 C1271 1.355 . S
C1270 C1272 1.415 . S
C1271 C1270 1.355 . S
C1271 C1273 1.419 . S
C1272 C1270 1.415 . S
C1272 C1277 1.425 . S
C1272 C1279 1.409 . S
C1273 H1265 0.930 1_554 S
C1273 C1271 1.419 . S
C1273 C1274 1.362 . S
C1274 H1266 0.930 . S
C1274 C1273 1.362 . S
C1274 C1277 1.409 . S
C1275 H1267 0.930 . S
C1275 C1276 1.355 . S
C1275 C1277 1.415 . S
C1276 C1275 1.355 . S
C1276 C1278 1.419 . S
C1277 C1272 1.425 . S
C1277 C1274 1.409 . S
C1277 C1275 1.415 . S
C1278 H1268 0.930 . S
C1278 C1276 1.419 . S
C1278 C1279 1.362 . S
C1279 H1269 0.930 . S
C1279 C1272 1.409 . S
C1279 C1278 1.362 . S
H1280 C1286 0.930 . S
H1281 C1289 0.930 . S
H1282 C1290 0.930 . S
H1283 C1291 0.930 . S
H1284 C1294 0.930 . S
H1285 C1295 0.930 . S
C1286 H1280 0.930 . S
C1286 C1287 1.355 . S
C1286 C1288 1.415 . S
C1287 C1286 1.355 . S
C1287 C1289 1.419 . S
C1288 C1286 1.415 . S
C1288 C1293 1.425 . S
C1288 C1295 1.409 . S
C1289 H1281 0.930 . S
C1289 C1287 1.419 . S
C1289 C1290 1.362 . S
C1290 H1282 0.930 . S
C1290 C1289 1.362 . S
C1290 C1293 1.409 . S
C1291 H1283 0.930 . S
C1291 C1292 1.355 . S
C1291 C1293 1.415 . S
C1292 C1291 1.355 . S
C1292 C1294 1.419 . S
C1293 C1288 1.425 . S
C1293 C1290 1.409 . S
C1293 C1291 1.415 . S
C1294 H1284 0.930 . S
C1294 C1292 1.419 . S
C1294 C1295 1.362 . S
C1295 H1285 0.930 . S
C1295 C1288 1.409 . S
C1295 C1294 1.362 . S
H1296 C1302 0.930 . S
H1297 C1305 0.930 . S
H1298 C1306 0.930 . S
H1299 C1307 0.930 . S
H1300 C1310 0.930 . S
H1301 C1311 0.930 . S
C1302 H1296 0.930 . S
C1302 C1303 1.355 . S
C1302 C1304 1.415 . S
C1303 C1302 1.355 . S
C1303 C1305 1.419 . S
C1304 C1302 1.415 . S
C1304 C1309 1.425 . S
C1304 C1311 1.409 . S
C1305 H1297 0.930 . S
C1305 C1303 1.419 . S
C1305 C1306 1.362 . S
C1306 H1298 0.930 . S
C1306 C1305 1.362 . S
C1306 C1309 1.409 . S
C1307 H1299 0.930 . S
C1307 C1308 1.355 . S
C1307 C1309 1.415 . S
C1308 C1307 1.355 . S
C1308 C1310 1.419 . S
C1309 C1304 1.425 . S
C1309 C1306 1.409 . S
C1309 C1307 1.415 . S
C1310 H1300 0.930 . S
C1310 C1308 1.419 . S
C1310 C1311 1.362 . S
C1311 H1301 0.930 . S
C1311 C1304 1.409 . S
C1311 C1310 1.362 . S
H1312 C1318 0.930 . S
H1313 C1321 0.930 . S
H1314 C1322 0.930 . S
H1315 C1323 0.930 . S
H1316 C1326 0.930 . S
H1317 C1327 0.930 . S
C1318 H1312 0.930 . S
C1318 C1319 1.355 . S
C1318 C1320 1.415 . S
C1319 C1318 1.355 . S
C1319 C1321 1.419 . S
C1320 C1318 1.415 . S
C1320 C1325 1.425 . S
C1320 C1327 1.409 . S
C1321 H1313 0.930 . S
C1321 C1319 1.419 . S
C1321 C1322 1.362 . S
C1322 H1314 0.930 . S
C1322 C1321 1.362 . S
C1322 C1325 1.409 . S
C1323 H1315 0.930 . S
C1323 C1324 1.355 . S
C1323 C1325 1.415 . S
C1324 C1323 1.355 . S
C1324 C1326 1.419 . S
C1325 C1320 1.425 . S
C1325 C1322 1.409 . S
C1325 C1323 1.415 . S
C1326 H1316 0.930 . S
C1326 C1324 1.419 . S
C1326 C1327 1.362 . S
C1327 H1317 0.930 . S
C1327 C1320 1.409 . S
C1327 C1326 1.362 . S
H1328 C1334 0.930 . S
H1329 C1337 0.930 . S
H1330 C1338 0.930 . S
H1331 C1339 0.930 . S
H1332 C1342 0.930 1_545 S
H1333 C1343 0.930 . S
C1334 H1328 0.930 . S
C1334 C1335 1.355 . S
C1334 C1336 1.415 . S
C1335 C1334 1.355 . S
C1335 C1337 1.419 . S
C1336 C1334 1.415 . S
C1336 C1341 1.425 . S
C1336 C1343 1.409 . S
C1337 H1329 0.930 . S
C1337 C1335 1.419 . S
C1337 C1338 1.362 . S
C1338 H1330 0.930 . S
C1338 C1337 1.362 . S
C1338 C1341 1.409 . S
C1339 H1331 0.930 . S
C1339 C1340 1.355 . S
C1339 C1341 1.415 . S
C1340 C1339 1.355 . S
C1340 C1342 1.419 . S
C1341 C1336 1.425 . S
C1341 C1338 1.409 . S
C1341 C1339 1.415 . S
C1342 H1332 0.930 1_565 S
C1342 C1340 1.419 . S
C1342 C1343 1.362 . S
C1343 H1333 0.930 . S
C1343 C1336 1.409 . S
C1343 C1342 1.362 . S
H1344 C1350 0.930 . S
H1345 C1353 0.930 . S
H1346 C1354 0.930 . S
H1347 C1355 0.930 . S
H1348 C1358 0.930 . S
H1349 C1359 0.930 . S
C1350 H1344 0.930 . S
C1350 C1351 1.355 1_554 S
C1350 C1352 1.415 . S
C1351 C1350 1.355 1_556 S
C1351 C1353 1.419 . S
C1352 C1350 1.415 . S
C1352 C1357 1.425 1_554 S
C1352 C1359 1.409 . S
C1353 H1345 0.930 . S
C1353 C1351 1.419 . S
C1353 C1354 1.362 . S
C1354 H1346 0.930 . S
C1354 C1353 1.362 . S
C1354 C1357 1.409 . S
C1355 H1347 0.930 . S
C1355 C1356 1.355 . S
C1355 C1357 1.415 . S
C1356 C1355 1.355 . S
C1356 C1358 1.419 1_556 S
C1357 C1352 1.425 1_556 S
C1357 C1354 1.409 . S
C1357 C1355 1.415 . S
C1358 H1348 0.930 . S
C1358 C1356 1.419 1_554 S
C1358 C1359 1.362 . S
C1359 H1349 0.930 . S
C1359 C1352 1.409 . S
C1359 C1358 1.362 . S
H1360 C1366 0.930 . S
H1361 C1369 0.930 . S
H1362 C1370 0.930 . S
H1363 C1371 0.930 . S
H1364 C1374 0.930 . S
H1365 C1375 0.930 . S
C1366 H1360 0.930 . S
C1366 C1367 1.355 . S
C1366 C1368 1.415 . S
C1367 C1366 1.355 . S
C1367 C1369 1.419 . S
C1368 C1366 1.415 . S
C1368 C1373 1.425 . S
C1368 C1375 1.409 . S
C1369 H1361 0.930 . S
C1369 C1367 1.419 . S
C1369 C1370 1.362 . S
C1370 H1362 0.930 . S
C1370 C1369 1.362 . S
C1370 C1373 1.409 . S
C1371 H1363 0.930 . S
C1371 C1372 1.355 . S
C1371 C1373 1.415 . S
C1372 C1371 1.355 . S
C1372 C1374 1.419 . S
C1373 C1368 1.425 . S
C1373 C1370 1.409 . S
C1373 C1371 1.415 . S
C1374 H1364 0.930 . S
C1374 C1372 1.419 . S
C1374 C1375 1.362 . S
C1375 H1365 0.930 . S
C1375 C1368 1.409 . S
C1375 C1374 1.362 . S
H1376 C1382 0.930 . S
H1377 C1385 0.930 . S
H1378 C1386 0.913 1_556 S
H1379 C1387 0.930 1_556 S
H1380 C1390 0.930 . S
H1381 C1391 0.930 . S
C1382 H1376 0.930 . S
C1382 C1383 1.355 . S
C1382 C1384 1.415 . S
C1383 C1382 1.355 . S
C1383 C1385 1.419 . S
C1384 C1382 1.415 . S
C1384 C1389 1.425 . S
C1384 C1391 1.409 . S
C1385 H1377 0.930 . S
C1385 C1383 1.419 . S
C1385 C1386 1.371 . S
C1386 H1378 0.913 1_554 S
C1386 C1385 1.371 . S
C1386 C1389 1.417 . S
C1387 H1379 0.930 1_554 S
C1387 C1388 1.355 . S
C1387 C1389 1.415 . S
C1388 C1387 1.355 . S
C1388 C1390 1.419 . S
C1389 C1384 1.425 . S
C1389 C1386 1.417 . S
C1389 C1387 1.415 . S
C1390 H1380 0.930 . S
C1390 C1388 1.419 . S
C1390 C1391 1.362 . S
C1391 H1381 0.930 . S
C1391 C1384 1.409 . S
C1391 C1390 1.362 . S
H1392 C1398 0.930 . S
H1393 C1401 0.930 . S
H1394 C1402 0.930 . S
H1395 C1403 0.930 . S
H1396 C1406 0.930 . S
H1397 C1407 0.930 . S
C1398 H1392 0.930 . S
C1398 C1399 1.355 . S
C1398 C1400 1.415 . S
C1399 C1398 1.355 . S
C1399 C1401 1.419 1_565 S
C1400 C1398 1.415 . S
C1400 C1405 1.425 . S
C1400 C1407 1.409 . S
C1401 H1393 0.930 . S
C1401 C1399 1.419 1_545 S
C1401 C1402 1.362 . S
C1402 H1394 0.930 . S
C1402 C1401 1.362 . S
C1402 C1405 1.409 1_545 S
C1403 H1395 0.930 . S
C1403 C1404 1.355 . S
C1403 C1405 1.415 . S
C1404 C1403 1.355 . S
C1404 C1406 1.419 . S
C1405 C1400 1.425 . S
C1405 C1402 1.409 1_565 S
C1405 C1403 1.415 . S
C1406 H1396 0.930 . S
C1406 C1404 1.419 . S
C1406 C1407 1.362 . S
C1407 H1397 0.930 . S
C1407 C1400 1.409 . S
C1407 C1406 1.362 . S
C652 C210 1.192 . S
C647 N66 1.145 . S
C668 C258 1.556 . S
C663 N79 1.628 1_455 S
C679 N92 1.742 . S
C684 C294 1.621 . S
C700 C330 1.342 . S
C695 N54 1.463 1_655 S
C716 C356 1.416 . S
C711 N131 1.412 . S
C732 C392 1.294 . S
C727 N158 1.296 . S
C743 N145 1.530 . S
C748 C427 1.540 . S
C764 C464 1.755 . S
C759 N118 1.755 . S
C775 N148 1.812 . S
C780 C498 1.832 . S
C796 C546 1.654 . S
C791 N122 1.675 . S
C807 N132 1.184 . S
C812 C499 1.210 . S
C828 C536 1.546 . S
C823 N161 1.490 . S
C839 N96 1.785 . S
C844 C582 1.714 . S
C855 N53 1.721 . S
C860 C571 1.729 . S
C871 N67 1.197 . S
C876 C572 1.193 . S
C887 N83 1.522 . S
C892 C570 1.532 . S
C903 N44 1.301 . S
C908 C318 1.331 . S
C919 N187 1.473 . S
C924 C319 1.454 . S
C940 C222 1.294 . S
C935 N197 1.339 . S
C956 C247 1.341 . S
C951 N106 1.330 . S
C967 N57 1.829 1_545 S
C972 C354 1.831 . S
C988 C462 1.398 . S
C983 N144 1.356 . S
C1004 C355 1.464 . S
C999 N119 1.467 1_545 S
C1020 C428 1.821 . S
C1015 N157 1.786 . S
C1036 C426 1.239 . S
C1031 N183 1.218 . S
C1047 N196 1.637 . S
C1052 C474 1.573 . S
C1063 N105 1.712 . S
C1068 C366 1.673 . S
C1084 C402 1.417 . S
C1079 N171 1.471 . S
C1095 N40 1.361 . S
C1100 C284 1.403 . S
C1116 C320 1.314 . S
C1111 N2 1.310 . S
C1132 C211 1.546 . S
C1127 N15 1.523 . S
C1148 C248 1.754 . S
C1143 N27 1.756 1_455 S
C1159 N18 1.817 . S
C1164 C534 1.831 . S
C1175 N31 1.665 . S
C1180 C510 1.622 . S
C1191 N41 1.232 . S
C1196 C535 1.227 . S
C1207 N5 1.523 . S
C1212 C500 1.546 . S
C1228 C618 1.774 . S
C1223 N109 1.808 . S
C1244 C607 1.731 . S
C1239 N170 1.684 1_554 S
C1260 C608 1.164 . S
C1255 N184 1.163 . S
C1271 N200 1.493 1_554 S
C1276 C606 1.515 . S
C1287 N135 1.323 . S
C1292 C390 1.350 . S
C1308 C391 1.473 . S
C1303 N70 1.429 . S
C1324 C438 1.339 . S
C1319 N80 1.347 . S
C1340 C463 1.331 . S
C1335 N93 1.322 . S
C1351 N174 1.828 . S
C1356 C282 1.844 1_556 S
C1372 C246 1.410 . S
C1367 N14 1.367 . S
C1383 N28 1.454 . S
C1388 C283 1.427 . S
C1404 C212 1.797 . S
C1399 N1 1.771 1_565 S
