# Generated by pormake.
# Topology ptr, (4,4)-cn, num edge types: 1
# Building blocks:
#     Node 0, Type 0, BuildingBlock: GALJAG_clean_sbu_0, # of connection points: 4
#     Node 1, Type 0, BuildingBlock: GALJAG_clean_sbu_0, # of connection points: 4
#     Node 2, Type 0, BuildingBlock: GALJAG_clean_sbu_0, # of connection points: 4
#     Node 3, Type 0, BuildingBlock: GALJAG_clean_sbu_0, # of connection points: 4
#     Node 4, Type 0, BuildingBlock: GALJAG_clean_sbu_0, # of connection points: 4
#     Node 5, Type 0, BuildingBlock: GALJAG_clean_sbu_0, # of connection points: 4
#     Node 6, Type 0, BuildingBlock: GALJAG_clean_sbu_0, # of connection points: 4
#     Node 7, Type 0, BuildingBlock: GALJAG_clean_sbu_0, # of connection points: 4
#     Node 8, Type 0, BuildingBlock: GALJAG_clean_sbu_0, # of connection points: 4
#     Node 9, Type 0, BuildingBlock: GALJAG_clean_sbu_0, # of connection points: 4
#     Node 10, Type 0, BuildingBlock: GALJAG_clean_sbu_0, # of connection points: 4
#     Node 11, Type 0, BuildingBlock: GALJAG_clean_sbu_0, # of connection points: 4
#     Node 12, Type 0, BuildingBlock: GALJAG_clean_sbu_0, # of connection points: 4
#     Node 13, Type 0, BuildingBlock: GALJAG_clean_sbu_0, # of connection points: 4
#     Node 14, Type 0, BuildingBlock: GALJAG_clean_sbu_0, # of connection points: 4
#     Node 15, Type 0, BuildingBlock: GALJAG_clean_sbu_0, # of connection points: 4
#     Node 16, Type 0, BuildingBlock: GALJAG_clean_sbu_0, # of connection points: 4
#     Node 17, Type 0, BuildingBlock: GALJAG_clean_sbu_0, # of connection points: 4
#     Node 18, Type 1, BuildingBlock: KUFVIS_clean_linker_0, # of connection points: 4
#     Node 19, Type 1, BuildingBlock: KUFVIS_clean_linker_0, # of connection points: 4
#     Node 20, Type 1, BuildingBlock: KUFVIS_clean_linker_0, # of connection points: 4
#     Node 21, Type 1, BuildingBlock: KUFVIS_clean_linker_0, # of connection points: 4
#     Node 22, Type 1, BuildingBlock: KUFVIS_clean_linker_0, # of connection points: 4
#     Node 23, Type 1, BuildingBlock: KUFVIS_clean_linker_0, # of connection points: 4
#     Node 24, Type 1, BuildingBlock: KUFVIS_clean_linker_0, # of connection points: 4
#     Node 25, Type 1, BuildingBlock: KUFVIS_clean_linker_0, # of connection points: 4
#     Node 26, Type 1, BuildingBlock: KUFVIS_clean_linker_0, # of connection points: 4
#     Node 27, Type 1, BuildingBlock: KUFVIS_clean_linker_0, # of connection points: 4
#     Node 28, Type 1, BuildingBlock: KUFVIS_clean_linker_0, # of connection points: 4
#     Node 29, Type 1, BuildingBlock: KUFVIS_clean_linker_0, # of connection points: 4
#     Node 30, Type 1, BuildingBlock: KUFVIS_clean_linker_0, # of connection points: 4
#     Node 31, Type 1, BuildingBlock: KUFVIS_clean_linker_0, # of connection points: 4
#     Node 32, Type 1, BuildingBlock: KUFVIS_clean_linker_0, # of connection points: 4
#     Node 33, Type 1, BuildingBlock: KUFVIS_clean_linker_0, # of connection points: 4
#     Node 34, Type 1, BuildingBlock: KUFVIS_clean_linker_0, # of connection points: 4
#     Node 35, Type 1, BuildingBlock: KUFVIS_clean_linker_0, # of connection points: 4
#     Edge 36, Type (0, 1), BuildingBlock: UVAHIK_clean_linker_0, # of connection points: 2
#     Edge 37, Type (0, 1), BuildingBlock: UVAHIK_clean_linker_0, # of connection points: 2
#     Edge 38, Type (0, 1), BuildingBlock: UVAHIK_clean_linker_0, # of connection points: 2
#     Edge 39, Type (0, 1), BuildingBlock: UVAHIK_clean_linker_0, # of connection points: 2
#     Edge 40, Type (0, 1), BuildingBlock: UVAHIK_clean_linker_0, # of connection points: 2
#     Edge 41, Type (0, 1), BuildingBlock: UVAHIK_clean_linker_0, # of connection points: 2
#     Edge 42, Type (0, 1), BuildingBlock: UVAHIK_clean_linker_0, # of connection points: 2
#     Edge 43, Type (0, 1), BuildingBlock: UVAHIK_clean_linker_0, # of connection points: 2
#     Edge 44, Type (0, 1), BuildingBlock: UVAHIK_clean_linker_0, # of connection points: 2
#     Edge 45, Type (0, 1), BuildingBlock: UVAHIK_clean_linker_0, # of connection points: 2
#     Edge 46, Type (0, 1), BuildingBlock: UVAHIK_clean_linker_0, # of connection points: 2
#     Edge 47, Type (0, 1), BuildingBlock: UVAHIK_clean_linker_0, # of connection points: 2
#     Edge 48, Type (0, 1), BuildingBlock: UVAHIK_clean_linker_0, # of connection points: 2
#     Edge 49, Type (0, 1), BuildingBlock: UVAHIK_clean_linker_0, # of connection points: 2
#     Edge 50, Type (0, 1), BuildingBlock: UVAHIK_clean_linker_0, # of connection points: 2
#     Edge 51, Type (0, 1), BuildingBlock: UVAHIK_clean_linker_0, # of connection points: 2
#     Edge 52, Type (0, 1), BuildingBlock: UVAHIK_clean_linker_0, # of connection points: 2
#     Edge 53, Type (0, 1), BuildingBlock: UVAHIK_clean_linker_0, # of connection points: 2
#     Edge 54, Type (0, 1), BuildingBlock: UVAHIK_clean_linker_0, # of connection points: 2
#     Edge 55, Type (0, 1), BuildingBlock: UVAHIK_clean_linker_0, # of connection points: 2
#     Edge 56, Type (0, 1), BuildingBlock: UVAHIK_clean_linker_0, # of connection points: 2
#     Edge 57, Type (0, 1), BuildingBlock: UVAHIK_clean_linker_0, # of connection points: 2
#     Edge 58, Type (0, 1), BuildingBlock: UVAHIK_clean_linker_0, # of connection points: 2
#     Edge 59, Type (0, 1), BuildingBlock: UVAHIK_clean_linker_0, # of connection points: 2
#     Edge 60, Type (0, 1), BuildingBlock: UVAHIK_clean_linker_0, # of connection points: 2
#     Edge 61, Type (0, 1), BuildingBlock: UVAHIK_clean_linker_0, # of connection points: 2
#     Edge 62, Type (0, 1), BuildingBlock: UVAHIK_clean_linker_0, # of connection points: 2
#     Edge 63, Type (0, 1), BuildingBlock: UVAHIK_clean_linker_0, # of connection points: 2
#     Edge 64, Type (0, 1), BuildingBlock: UVAHIK_clean_linker_0, # of connection points: 2
#     Edge 65, Type (0, 1), BuildingBlock: UVAHIK_clean_linker_0, # of connection points: 2
#     Edge 66, Type (0, 1), BuildingBlock: UVAHIK_clean_linker_0, # of connection points: 2
#     Edge 67, Type (0, 1), BuildingBlock: UVAHIK_clean_linker_0, # of connection points: 2
#     Edge 68, Type (0, 1), BuildingBlock: UVAHIK_clean_linker_0, # of connection points: 2
#     Edge 69, Type (0, 1), BuildingBlock: UVAHIK_clean_linker_0, # of connection points: 2
#     Edge 70, Type (0, 1), BuildingBlock: UVAHIK_clean_linker_0, # of connection points: 2
#     Edge 71, Type (0, 1), BuildingBlock: UVAHIK_clean_linker_0, # of connection points: 2
#     Edge 72, Type (0, 1), BuildingBlock: UVAHIK_clean_linker_0, # of connection points: 2
#     Edge 73, Type (0, 1), BuildingBlock: UVAHIK_clean_linker_0, # of connection points: 2
#     Edge 74, Type (0, 1), BuildingBlock: UVAHIK_clean_linker_0, # of connection points: 2
#     Edge 75, Type (0, 1), BuildingBlock: UVAHIK_clean_linker_0, # of connection points: 2
#     Edge 76, Type (0, 1), BuildingBlock: UVAHIK_clean_linker_0, # of connection points: 2
#     Edge 77, Type (0, 1), BuildingBlock: UVAHIK_clean_linker_0, # of connection points: 2
#     Edge 78, Type (0, 1), BuildingBlock: UVAHIK_clean_linker_0, # of connection points: 2
#     Edge 79, Type (0, 1), BuildingBlock: UVAHIK_clean_linker_0, # of connection points: 2
#     Edge 80, Type (0, 1), BuildingBlock: UVAHIK_clean_linker_0, # of connection points: 2
#     Edge 81, Type (0, 1), BuildingBlock: UVAHIK_clean_linker_0, # of connection points: 2
#     Edge 82, Type (0, 1), BuildingBlock: UVAHIK_clean_linker_0, # of connection points: 2
#     Edge 83, Type (0, 1), BuildingBlock: UVAHIK_clean_linker_0, # of connection points: 2
#     Edge 84, Type (0, 1), BuildingBlock: UVAHIK_clean_linker_0, # of connection points: 2
#     Edge 85, Type (0, 1), BuildingBlock: UVAHIK_clean_linker_0, # of connection points: 2
#     Edge 86, Type (0, 1), BuildingBlock: UVAHIK_clean_linker_0, # of connection points: 2
#     Edge 87, Type (0, 1), BuildingBlock: UVAHIK_clean_linker_0, # of connection points: 2
#     Edge 88, Type (0, 1), BuildingBlock: UVAHIK_clean_linker_0, # of connection points: 2
#     Edge 89, Type (0, 1), BuildingBlock: UVAHIK_clean_linker_0, # of connection points: 2
#     Edge 90, Type (0, 1), BuildingBlock: UVAHIK_clean_linker_0, # of connection points: 2
#     Edge 91, Type (0, 1), BuildingBlock: UVAHIK_clean_linker_0, # of connection points: 2
#     Edge 92, Type (0, 1), BuildingBlock: UVAHIK_clean_linker_0, # of connection points: 2
#     Edge 93, Type (0, 1), BuildingBlock: UVAHIK_clean_linker_0, # of connection points: 2
#     Edge 94, Type (0, 1), BuildingBlock: UVAHIK_clean_linker_0, # of connection points: 2
#     Edge 95, Type (0, 1), BuildingBlock: UVAHIK_clean_linker_0, # of connection points: 2
#     Edge 96, Type (0, 1), BuildingBlock: UVAHIK_clean_linker_0, # of connection points: 2
#     Edge 97, Type (0, 1), BuildingBlock: UVAHIK_clean_linker_0, # of connection points: 2
#     Edge 98, Type (0, 1), BuildingBlock: UVAHIK_clean_linker_0, # of connection points: 2
#     Edge 99, Type (0, 1), BuildingBlock: UVAHIK_clean_linker_0, # of connection points: 2
#     Edge 100, Type (0, 1), BuildingBlock: UVAHIK_clean_linker_0, # of connection points: 2
#     Edge 101, Type (0, 1), BuildingBlock: UVAHIK_clean_linker_0, # of connection points: 2
#     Edge 102, Type (0, 1), BuildingBlock: UVAHIK_clean_linker_0, # of connection points: 2
#     Edge 103, Type (0, 1), BuildingBlock: UVAHIK_clean_linker_0, # of connection points: 2
#     Edge 104, Type (0, 1), BuildingBlock: UVAHIK_clean_linker_0, # of connection points: 2
#     Edge 105, Type (0, 1), BuildingBlock: UVAHIK_clean_linker_0, # of connection points: 2
#     Edge 106, Type (0, 1), BuildingBlock: UVAHIK_clean_linker_0, # of connection points: 2
#     Edge 107, Type (0, 1), BuildingBlock: UVAHIK_clean_linker_0, # of connection points: 2
# Relax obj value: 0.068
# Max RMSD: 0.101
# Mean RMSD: 0.096
data_MOF--net-ptr--node1-GALJAG_clean_sbu_0--node2-KUFVIS_clean_linker_0--edge1-UVAHIK_clean_linker_0
_symmetry_space_group_name_H-M    P1
_symmetry_Int_Tables_number       1
_symmetry_cell_setting            triclinic
loop_
_symmetry_equiv_pos_as_xyz
'x, y, z'
_cell_length_a     99.798589
_cell_length_b     99.918873
_cell_length_c     66.208761
_cell_angle_alpha  90.014988
_cell_angle_beta   90.036269
_cell_angle_gamma 120.08291
loop_
_atom_site_label
_atom_site_type_symbol
_atom_site_fract_x
_atom_site_fract_y
_atom_site_fract_z
_atom_type_partial_charge
In0 In 0.01612 0.37096 0.01323 0.0
O1 O 1.00653 0.37494 0.04272 0.0
O2 O 0.0275 0.39341 0.03116 0.0
C3 C 0.99337 0.34197 0.00396 0.0
C4 C 0.04036 0.36699 0.02212 0.0
C5 C 0.01392 0.38707 0.98184 0.0
O6 O 0.9919 0.3499 0.01771 0.0
O7 O 1.00623 0.34866 0.99494 0.0
O8 O 0.02493 0.38435 0.98357 0.0
O9 O 1.0039 0.38134 0.99561 0.0
C10 C 0.01728 0.3888 0.04469 0.0
O11 O 0.04105 0.3763 0.00872 0.0
O12 O 0.02748 0.35973 0.03105 0.0
In13 In 0.65391 0.65156 0.01392 0.0
O14 O 0.64552 0.63087 0.03539 0.0
O15 O 0.64177 0.64908 0.04417 0.0
C16 C 0.67927 0.64901 0.00634 0.0
C17 C 0.66174 0.68184 0.01561 0.0
C18 C 0.6339 0.63773 0.98307 0.0
O19 O 0.67888 0.65724 0.02053 0.0
O20 O 0.66692 0.64202 0.99627 0.0
O21 O 0.64789 0.64796 0.98025 0.0
O22 O 0.62993 0.635 0.00136 0.0
C23 C 0.63979 0.6359 0.04819 0.0
O24 O 0.64876 0.67137 0.00925 0.0
O25 O 0.67083 0.6771 0.02061 0.0
In26 In 0.37163 0.00995 0.0091 0.0
O27 O 0.37943 0.03576 0.00802 0.0
O28 O 0.35902 0.02029 0.99201 0.0
C29 C 0.3887 0.01143 0.0417 0.0
C30 C 0.38718 0.00732 0.97724 0.0
C31 C 0.34321 0.98716 0.02069 0.0
O32 O 0.384 0.02089 0.03889 0.0
O33 O 0.38438 1.00102 0.02845 0.0
O34 O 0.35163 0.98483 0.00865 0.0
O35 O 0.34917 1.00089 0.027 0.0
C36 C 0.36834 0.03408 0.99709 0.0
O37 O 0.37282 0.99839 0.97965 0.0
O38 O 0.39347 0.01769 0.9905 0.0
In39 In 0.01389 0.65213 0.00904 0.0
O40 O 0.02369 0.65018 0.9786 0.0
O41 O 1.00407 0.63012 0.99012 0.0
C42 C 0.03912 0.67924 0.01973 0.0
C43 C 0.99076 0.65799 -0.00017 0.0
C44 C 0.01312 0.63437 0.04039 0.0
O45 O 0.03904 0.67132 0.00485 0.0
O46 O 0.02647 0.6735 0.02925 0.0
O47 O 1.00461 0.64037 0.03971 0.0
O48 O 0.02212 0.63758 0.02555 0.0
C49 C 0.01404 0.63599 0.97629 0.0
O50 O 0.98847 0.64628 0.00978 0.0
O51 O 1.00461 0.66666 0.99448 0.0
In52 In 0.37269 0.36851 0.01509 0.0
O53 O 0.37441 0.38075 0.98508 0.0
O54 O 0.39475 0.38173 0.9965 0.0
C55 C 0.3444 0.3634 0.02649 0.0
C56 C 0.36837 0.34044 0.00436 0.0
C57 C 0.39019 0.38514 0.04692 0.0
O58 O 0.35298 0.37404 0.01442 0.0
O59 O 0.35013 0.35547 0.03293 0.0
O60 O 0.38574 0.37097 0.04464 0.0
O61 O 0.38549 0.39074 0.03348 0.0
C62 C 0.38871 0.38577 0.98284 0.0
O63 O 0.37832 0.34897 0.01726 0.0
O64 O 0.36077 0.34615 0.99669 0.0
In65 In 0.65468 0.01023 0.01101 0.0
O66 O 0.64391 0.02177 0.02988 0.0
O67 O 0.64126 1.00056 0.04035 0.0
C68 C 0.68386 0.03429 0.00647 0.0
C69 C 0.65923 0.98585 0.01535 0.0
C70 C 0.63724 0.00959 0.97915 0.0
O71 O 0.67507 0.03383 0.02052 0.0
O72 O 0.678 0.02259 0.99507 0.0
O73 O 0.63232 0.99894 0.99213 0.0
O74 O 0.65103 0.02016 0.98185 0.0
C75 C 0.63817 0.01121 0.04298 0.0
O76 O 0.65078 0.98641 0.00153 0.0
O77 O 0.66548 0.99762 0.02662 0.0
In78 In 0.68363 0.70461 0.34072 0.0
O79 O 0.67249 0.71052 0.36697 0.0
O80 O 0.69673 0.7246 0.36268 0.0
C81 C 0.66092 0.67544 0.33214 0.0
C82 C 0.70742 0.69991 0.34937 0.0
C83 C 0.68232 0.72164 0.3097 0.0
O84 O 0.6603 0.68283 0.34724 0.0
O85 O 0.67289 0.68276 0.32142 0.0
O86 O 0.69282 0.71816 0.31109 0.0
O87 O 0.67244 0.7163 0.32364 0.0
C88 C 0.68499 0.72211 0.37272 0.0
O89 O 0.70852 0.70978 0.33654 0.0
O90 O 0.69433 0.69243 0.35779 0.0
In91 In 0.32208 0.982 0.34904 0.0
O92 O 0.3176 0.97008 0.37996 0.0
O93 O 0.29836 0.9679 0.36348 0.0
C94 C 0.35105 0.98723 0.34168 0.0
C95 C 0.32513 0.00984 0.35817 0.0
C96 C 0.30688 0.96509 0.3162 0.0
O97 O 0.34164 0.97649 0.35304 0.0
O98 O 0.34592 0.99539 0.3342 0.0
O99 O 0.30937 0.97864 0.31905 0.0
O100 O 0.31242 0.96028 0.3296 0.0
C101 C 0.3031 0.96441 0.37914 0.0
O102 O 0.31816 1.00228 0.34257 0.0
O103 O 0.33062 1.0034 0.36913 0.0
In104 In 0.03611 0.34349 0.34515 0.0
O105 O 0.04156 0.36874 0.34581 0.0
O106 O 0.02171 0.35256 0.32957 0.0
C107 C 0.05393 0.34455 0.37666 0.0
C108 C 0.05273 0.34291 0.31319 0.0
C109 C 1.00869 0.31859 0.35563 0.0
O110 O 0.04798 0.3531 0.37569 0.0
O111 O 0.05059 0.33533 0.36204 0.0
O112 O 0.01597 0.31898 0.33987 0.0
O113 O 0.01522 0.33077 0.36614 0.0
C114 C 0.03008 0.36638 0.33521 0.0
O115 O 0.03893 0.33244 0.31638 0.0
O116 O 0.05794 0.35391 0.32571 0.0
In117 In 0.68025 0.98513 0.33961 0.0
O118 O 0.69173 0.98249 0.31107 0.0
O119 O 0.67005 0.96353 0.31982 0.0
C120 C 0.70407 0.01286 0.35146 0.0
C121 C 0.65731 0.99101 0.32957 0.0
C122 C 0.67923 0.96712 0.37072 0.0
O123 O 0.70429 0.00637 0.3352 0.0
O124 O 0.6919 1.00532 0.36178 0.0
O125 O 0.66991 0.97213 0.36915 0.0
O126 O 0.68923 0.97148 0.35688 0.0
C127 C 0.68119 0.96878 0.30754 0.0
O128 O 0.65501 0.97971 0.34046 0.0
O129 O 0.67107 0.99922 0.32362 0.0
In130 In 0.03739 0.70366 0.34607 0.0
O131 O 0.03976 0.71512 0.31519 0.0
O132 O 0.06012 0.71789 0.32914 0.0
C133 C 1.00839 0.69756 0.35512 0.0
C134 C 0.03501 0.67597 0.33752 0.0
C135 C 0.05292 0.72147 0.3782 0.0
O136 O 0.01644 0.70686 0.34134 0.0
O137 O 0.01497 0.69137 0.36434 0.0
O138 O 0.05006 0.70771 0.37625 0.0
O139 O 0.04761 0.72607 0.36425 0.0
C140 C 0.05427 0.72104 0.31432 0.0
O141 O 0.045 0.6856 0.34953 0.0
O142 O 0.02627 0.6803 0.32976 0.0
In143 In 0.32308 0.34436 0.34674 0.0
O144 O 0.32579 0.32372 0.33728 0.0
O145 O 0.32721 0.32907 0.3685 0.0
C146 C 0.30751 0.3464 0.31448 0.0
C147 C 0.30366 0.34363 0.37572 0.0
C148 C 0.35234 0.36816 0.34197 0.0
O149 O 0.30516 0.33361 0.32128 0.0
O150 O 0.31796 0.35807 0.32354 0.0
O151 O 0.34339 0.36811 0.35548 0.0
O152 O 0.34662 0.35612 0.33119 0.0
C153 C 0.32757 0.32032 0.35505 0.0
O154 O 0.31782 0.3539 0.37527 0.0
O155 O 0.29946 0.3337 0.36182 0.0
In156 In 0.34777 0.03717 0.67814 0.0
O157 O 0.37347 0.04428 0.67639 0.0
O158 O 0.35836 0.02318 0.69102 0.0
C159 C 0.34799 0.05533 0.64771 0.0
C160 C 0.34662 0.05295 0.71071 0.0
C161 C 0.32301 0.00955 0.66784 0.0
O162 O 0.35622 0.04901 0.64741 0.0
O163 O 0.33944 0.05218 0.66305 0.0
O164 O 0.32516 0.01495 0.68553 0.0
O165 O 0.33346 0.01797 0.6554 0.0
C166 C 0.37202 0.03261 0.68563 0.0
O167 O 0.33576 0.03961 0.70621 0.0
O168 O 0.3582 0.05808 0.6992 0.0
In169 In 0.98685 0.3178 0.68053 0.0
O170 O 0.98338 0.3387 0.67803 0.0
O171 O 1.00263 0.34133 0.69505 0.0
C172 C 0.96662 0.30129 0.65073 0.0
C173 C 0.97028 0.30244 0.71356 0.0
C174 C 0.01393 0.31945 0.67008 0.0
O175 O 0.97416 0.31588 0.65072 0.0
O176 O 0.96948 0.29516 0.66546 0.0
O177 O 1.00777 0.31479 0.6872 0.0
O178 O 1.00644 0.32323 0.65831 0.0
C179 C 0.9951 0.34751 0.68857 0.0
O180 O 0.97917 0.29885 0.70453 0.0
O181 O 0.97014 0.31404 0.70635 0.0
In182 In 0.70444 0.67746 0.67982 0.0
O183 O 0.70947 0.70253 0.67981 0.0
O184 O 0.692 0.68655 0.66007 0.0
C185 C 0.72219 0.6794 0.71192 0.0
C186 C 0.72068 0.67558 0.64832 0.0
C187 C 0.67617 0.65453 0.69167 0.0
O188 O 0.71729 0.68872 0.70935 0.0
O189 O 0.71783 0.66899 0.69867 0.0
O190 O 0.6845 0.65231 0.67935 0.0
O191 O 0.68217 0.6682 0.6982 0.0
C192 C 0.69936 0.70022 0.66668 0.0
O193 O 0.70671 0.66555 0.65152 0.0
O194 O 0.72628 0.68669 0.66066 0.0
In195 In 0.34624 0.3191 0.67435 0.0
O196 O 0.35573 0.31408 0.64548 0.0
O197 O 0.33323 0.29732 0.65533 0.0
C198 C 0.3711 0.34623 0.68568 0.0
C199 C 0.32407 0.32653 0.66643 0.0
C200 C 0.34653 0.30113 0.70457 0.0
O201 O 0.37005 0.34044 0.66837 0.0
O202 O 0.35957 0.33846 0.69699 0.0
O203 O 0.33666 0.30551 0.70368 0.0
O204 O 0.35626 0.30594 0.69038 0.0
C205 C 0.34389 0.30097 0.6426 0.0
O206 O 0.32195 0.31586 0.67846 0.0
O207 O 0.33734 0.33348 0.65851 0.0
In208 In 0.70712 0.03264 0.6851 0.0
O209 O 0.71349 0.05105 0.66049 0.0
O210 O 0.72518 0.03824 0.66054 0.0
C211 C 0.67835 0.02715 0.69461 0.0
C212 C 0.70233 1.00415 0.67634 0.0
C213 C 0.72565 0.04996 0.71593 0.0
O214 O 0.68541 0.03448 0.67895 0.0
O215 O 0.68578 0.02269 0.70539 0.0
O216 O 0.7199 0.0355 0.71506 0.0
O217 O 0.72181 0.05557 0.70155 0.0
C218 C 0.72368 0.04883 0.65246 0.0
O219 O 0.71293 0.01336 0.6881 0.0
O220 O 0.69412 0.0093 0.66896 0.0
In221 In 0.98726 0.6764 0.67972 0.0
O222 O 0.98663 0.65378 0.67165 0.0
O223 O 0.99066 0.66112 0.70228 0.0
C224 C 0.97256 0.67875 0.6467 0.0
C225 C 0.96882 0.67746 0.70883 0.0
C226 C 0.01732 0.69819 0.67409 0.0
O227 O 0.96962 0.6659 0.654 0.0
O228 O 0.98325 0.69035 0.65559 0.0
O229 O 1.00825 0.70056 0.68482 0.0
O230 O 0.01126 0.68485 0.66641 0.0
C231 C 0.989 0.65102 0.6895 0.0
O232 O 0.98331 0.68646 0.70885 0.0
O233 O 0.96381 0.66799 0.69438 0.0
H234 H 0.23162 0.35512 0.14054 0.0
H235 H 0.19045 0.34332 0.10707 0.0
H236 H 0.19334 0.35388 0.1711 0.0
H237 H 0.16847 0.33864 0.1704 0.0
H238 H 0.13073 0.33756 0.13861 0.0
H239 H 0.17306 0.35113 0.10699 0.0
C240 C 0.22004 0.35355 0.14006 0.0
C241 C 0.21316 0.35464 0.15784 0.0
C242 C 0.21195 0.3497 0.12181 0.0
C243 C 0.1967 0.34694 0.12122 0.0
C244 C 0.18954 0.34837 0.13895 0.0
C245 C 0.19812 0.35238 0.15721 0.0
C246 C 0.17313 0.34526 0.13867 0.0
C247 C 0.16402 0.34052 0.15646 0.0
C248 C 0.14884 0.33792 0.15652 0.0
C249 C 0.14237 0.3393 0.1385 0.0
C250 C 0.15093 0.34374 0.12057 0.0
C251 C 0.1664 0.34709 0.12078 0.0
H252 H 0.67532 0.88817 0.12888 0.0
H253 H 0.66902 0.84815 0.09695 0.0
H254 H 0.68618 0.85691 0.15865 0.0
H255 H 0.67615 0.83214 0.16037 0.0
H256 H 0.68305 0.79897 0.12829 0.0
H257 H 0.68049 0.8343 0.09502 0.0
C258 C 0.67599 0.87766 0.12856 0.0
C259 C 0.68082 0.8732 0.14579 0.0
C260 C 0.67196 0.86877 0.11094 0.0
C261 C 0.67264 0.85504 0.11058 0.0
C262 C 0.67753 0.8502 0.12784 0.0
C263 C 0.68176 0.85967 0.14534 0.0
C264 C 0.67841 0.83555 0.12773 0.0
C265 C 0.678 0.82805 0.14611 0.0
C266 C 0.68024 0.81525 0.14643 0.0
C267 C 0.68185 0.80919 0.12819 0.0
C268 C 0.6815 0.81578 0.10975 0.0
C269 C 0.68002 0.82904 0.10947 0.0
H270 H 0.22579 0.89064 0.13572 0.0
H271 H 0.19023 0.85291 0.10216 0.0
H272 H 0.19286 0.85013 0.16737 0.0
H273 H 0.16755 0.83622 0.16515 0.0
H274 H 0.13665 0.79363 0.13569 0.0
H275 H 0.17719 0.82717 0.10432 0.0
C276 C 0.21558 0.8792 0.13549 0.0
C277 C 0.20969 0.87129 0.15362 0.0
C278 C 0.20884 0.87246 0.11699 0.0
C279 C 0.19563 0.85764 0.11659 0.0
C280 C 0.18928 0.84935 0.13479 0.0
C281 C 0.19689 0.85625 0.1532 0.0
C282 C 0.17463 0.83384 0.13482 0.0
C283 C 0.1649 0.82883 0.15206 0.0
C284 C 0.15131 0.81435 0.15247 0.0
C285 C 0.14716 0.80484 0.13545 0.0
C286 C 0.15634 0.80953 0.11808 0.0
C287 C 0.17006 0.82396 0.11774 0.0
H288 H 0.34375 0.13058 0.88697 0.0
H289 H 0.35411 0.17178 0.91912 0.0
H290 H 0.34017 0.16604 0.856 0.0
H291 H 0.35067 0.19056 0.85522 0.0
H292 H 0.34583 0.22481 0.88752 0.0
H293 H 0.34558 0.18794 0.92054 0.0
C294 C 0.34461 0.14185 0.88714 0.0
C295 C 0.34207 0.14776 0.86941 0.0
C296 C 0.34866 0.15039 0.90503 0.0
C297 C 0.35044 0.16526 0.9052 0.0
C298 C 0.34734 0.17138 0.8876 0.0
C299 C 0.34311 0.16228 0.86974 0.0
C300 C 0.34793 0.1868 0.88784 0.0
C301 C 0.34903 0.19471 0.86955 0.0
C302 C 0.34759 0.20796 0.86936 0.0
C303 C 0.34633 0.21421 0.88762 0.0
C304 C 0.34604 0.20724 0.90602 0.0
C305 C 0.34663 0.19348 0.90615 0.0
H306 H 0.80003 0.1312 0.89482 0.0
H307 H 0.83156 0.17326 0.92521 0.0
H308 H 0.84036 0.16514 0.86358 0.0
H309 H 0.85058 0.19055 0.86128 0.0
H310 H 0.88956 0.22778 0.89081 0.0
H311 H 0.85789 0.18825 0.92551 0.0
C312 C 0.8107 0.14227 0.89471 0.0
C313 C 0.81967 0.14725 0.87717 0.0
C314 C 0.81507 0.1515 0.91204 0.0
C315 C 0.82863 0.16606 0.91187 0.0
C316 C 0.83794 0.17143 0.89429 0.0
C317 C 0.83333 0.16169 0.87709 0.0
C318 C 0.85217 0.1872 0.89356 0.0
C319 C 0.85717 0.19531 0.87502 0.0
C320 C 0.87062 0.20987 0.87401 0.0
C321 C 0.87905 0.21658 0.8916 0.0
C322 C 0.87443 0.20889 0.91011 0.0
C323 C 0.86104 0.19423 0.91115 0.0
H324 H 0.79623 0.67251 0.89119 0.0
H325 H 0.82964 0.66442 0.92085 0.0
H326 H 0.83892 0.68532 0.86129 0.0
H327 H 0.85291 0.67433 0.85775 0.0
H328 H 0.89312 0.6801 0.88855 0.0
H329 H 0.85545 0.67692 0.9232 0.0
C330 C 0.80753 0.6734 0.89119 0.0
C331 C 0.81701 0.6792 0.87421 0.0
C332 C 0.81217 0.66832 0.90803 0.0
C333 C 0.82655 0.66892 0.90793 0.0
C334 C 0.83652 0.67491 0.89099 0.0
C335 C 0.83154 0.68018 0.87428 0.0
C336 C 0.85201 0.67571 0.89054 0.0
C337 C 0.85896 0.67575 0.87185 0.0
C338 C 0.87396 0.67787 0.87104 0.0
C339 C 0.88174 0.67899 0.88905 0.0
C340 C 0.87495 0.67828 0.90776 0.0
C341 C 0.8602 0.67681 0.90856 0.0
H342 H 0.8965 0.68592 0.47273 0.0
H343 H 0.85579 0.67528 0.43877 0.0
H344 H 0.85895 0.68662 0.50255 0.0
H345 H 0.83399 0.67129 0.50189 0.0
H346 H 0.79657 0.67083 0.47001 0.0
H347 H 0.83879 0.6837 0.43846 0.0
C348 C 0.88506 0.68466 0.47204 0.0
C349 C 0.87841 0.68644 0.48961 0.0
C350 C 0.87701 0.6808 0.45372 0.0
C351 C 0.86203 0.67882 0.45293 0.0
C352 C 0.85503 0.68067 0.47053 0.0
C353 C 0.8636 0.6847 0.4888 0.0
C354 C 0.83875 0.67791 0.47018 0.0
C355 C 0.82961 0.67329 0.48795 0.0
C356 C 0.81452 0.67092 0.488 0.0
C357 C 0.80815 0.67242 0.46995 0.0
C358 C 0.81672 0.6767 0.45201 0.0
C359 C 0.83212 0.67982 0.45225 0.0
H360 H 0.34236 0.22092 0.46301 0.0
H361 H 0.34567 0.18521 0.43176 0.0
H362 H 0.33783 0.18223 0.49645 0.0
H363 H 0.35124 0.17023 0.49601 0.0
H364 H 0.34218 0.12771 0.46863 0.0
H365 H 0.33437 0.15949 0.43437 0.0
C366 C 0.3422 0.20998 0.46345 0.0
C367 C 0.34018 0.20238 0.48187 0.0
C368 C 0.34384 0.20366 0.44544 0.0
C369 C 0.34396 0.18966 0.44582 0.0
C370 C 0.34222 0.18179 0.4643 0.0
C371 C 0.34004 0.18826 0.48219 0.0
C372 C 0.34261 0.16693 0.46512 0.0
C373 C 0.34722 0.16261 0.48306 0.0
C374 C 0.34698 0.14847 0.48446 0.0
C375 C 0.34252 0.13872 0.46764 0.0
C376 C 0.33826 0.1428 0.44957 0.0
C377 C 0.33822 0.15682 0.44829 0.0
H378 H 0.89514 0.21949 0.46924 0.0
H379 H 0.862 0.17812 0.43947 0.0
H380 H 0.85542 0.18644 0.50216 0.0
H381 H 0.84216 0.16183 0.50485 0.0
H382 H 0.80654 0.12212 0.47484 0.0
H383 H 0.83732 0.16151 0.43956 0.0
C384 C 0.88437 0.2085 0.46981 0.0
C385 C 0.87612 0.20359 0.48791 0.0
C386 C 0.87909 0.19949 0.4524 0.0
C387 C 0.8653 0.18517 0.45295 0.0
C388 C 0.85638 0.17993 0.47093 0.0
C389 C 0.86187 0.18967 0.4882 0.0
C390 C 0.84201 0.16412 0.472 0.0
C391 C 0.83643 0.15653 0.49082 0.0
C392 C 0.82355 0.14156 0.49185 0.0
C393 C 0.81645 0.13374 0.47406 0.0
C394 C 0.82157 0.14085 0.45527 0.0
C395 C 0.83398 0.15613 0.45426 0.0
H396 H 0.01116 0.46479 0.22197 0.0
H397 H 0.01318 0.50186 0.25636 0.0
H398 H 0.02 0.50584 0.19122 0.0
H399 H 0.0137 0.52294 0.1917 0.0
H400 H 0.01853 0.56168 0.22478 0.0
H401 H 0.0213 0.52608 0.25669 0.0
C402 C 0.01254 0.47627 0.22245 0.0
C403 C 0.01494 0.4845 0.20454 0.0
C404 C 0.01238 0.48274 0.24104 0.0
C405 C 0.01408 0.49758 0.24176 0.0
C406 C 0.01647 0.50632 0.2238 0.0
C407 C 0.01747 0.49963 0.20531 0.0
C408 C 0.01746 0.522 0.22413 0.0
C409 C 0.01579 0.52874 0.20606 0.0
C410 C 0.01685 0.5433 0.2061 0.0
C411 C 0.01838 0.55075 0.22449 0.0
C412 C 0.01959 0.54433 0.24262 0.0
C413 C 0.01969 0.53032 0.24244 0.0
H414 H 0.46595 0.46489 0.2261 0.0
H415 H 0.49857 0.50603 0.25735 0.0
H416 H 0.50674 0.49834 0.19521 0.0
H417 H 0.51808 0.52384 0.19367 0.0
H418 H 0.55761 0.55976 0.22402 0.0
H419 H 0.52478 0.52032 0.25783 0.0
C420 C 0.47682 0.47578 0.22617 0.0
C421 C 0.48578 0.48075 0.20863 0.0
C422 C 0.48149 0.48476 0.24373 0.0
C423 C 0.49539 0.49903 0.2438 0.0
C424 C 0.50471 0.50439 0.22623 0.0
C425 C 0.49974 0.49493 0.20876 0.0
C426 C 0.51933 0.51988 0.22583 0.0
C427 C 0.52466 0.52821 0.20749 0.0
C428 C 0.53844 0.54252 0.2068 0.0
C429 C 0.54686 0.54875 0.22453 0.0
C430 C 0.5419 0.54087 0.24287 0.0
C431 C 0.52819 0.52645 0.24359 0.0
H432 H 0.46951 0.0178 0.2208 0.0
H433 H 0.49877 1.00468 0.25194 0.0
H434 H 0.50676 0.01802 0.18883 0.0
H435 H 0.5167 1.00305 0.18769 0.0
H436 H 0.55425 1.0026 0.21816 0.0
H437 H 0.52404 0.01294 0.25192 0.0
C438 C 0.47955 0.0163 0.22079 0.0
C439 C 0.48752 0.01807 0.20276 0.0
C440 C 0.48377 0.01182 0.23861 0.0
C441 C 0.49608 0.00877 0.23825 0.0
C442 C 0.50475 0.01098 0.22036 0.0
C443 C 0.50031 0.01581 0.20273 0.0
C444 C 0.51828 0.00825 0.21992 0.0
C445 C 0.52305 1.0046 0.20156 0.0
C446 C 0.53606 1.00273 0.20082 0.0
C447 C 0.54407 1.00387 0.21863 0.0
C448 C 0.53957 0.00728 0.23698 0.0
C449 C 0.52686 0.00965 0.23766 0.0
H450 H 0.5628 0.01772 0.80358 0.0
H451 H 0.52237 0.00684 0.76886 0.0
H452 H 0.52461 0.01775 0.83268 0.0
H453 H 0.49966 1.0016 0.83132 0.0
H454 H 0.46254 1.00162 0.79918 0.0
H455 H 0.50534 0.01561 0.76846 0.0
C456 C 0.55136 0.01647 0.80272 0.0
C457 C 0.54442 0.01797 0.82021 0.0
C458 C 0.54354 0.01267 0.78424 0.0
C459 C 0.52847 0.01038 0.78313 0.0
C460 C 0.52119 0.01202 0.8006 0.0
C461 C 0.52952 0.01603 0.81905 0.0
C462 C 0.50482 0.00901 0.79994 0.0
C463 C 0.49542 1.00387 0.81744 0.0
C464 C 0.48028 1.00137 0.81731 0.0
C465 C 0.47414 1.00326 0.79928 0.0
C466 C 0.48299 0.00808 0.7816 0.0
C467 C 0.49843 0.0113 0.78204 0.0
H468 H 0.01358 0.55676 0.79784 0.0
H469 H 1.00442 0.51484 0.7685 0.0
H470 H 0.02146 0.52433 0.83019 0.0
H471 H 0.00998 0.49927 0.83262 0.0
H472 H 0.01735 0.46564 0.80262 0.0
H473 H 0.0163 0.50107 0.7676 0.0
C474 C 0.01364 0.54593 0.79827 0.0
C475 C 0.0176 0.5413 0.81612 0.0
C476 C 0.00914 0.53652 0.78112 0.0
C477 C 1.00846 0.52214 0.78176 0.0
C478 C 0.01295 0.51737 0.79941 0.0
C479 C 0.01755 0.52724 0.81652 0.0
C480 C 0.01322 0.50244 0.80003 0.0
C481 C 0.01212 0.49499 0.8187 0.0
C482 C 0.01415 0.4821 0.81974 0.0
C483 C 0.01625 0.4759 0.80193 0.0
C484 C 0.0166 0.48246 0.78319 0.0
C485 C 0.01526 0.49579 0.7822 0.0
H486 H 0.55999 0.55555 0.80473 0.0
H487 H 0.52208 0.52034 0.77122 0.0
H488 H 0.52544 0.51552 0.8359 0.0
H489 H 0.49994 0.50304 0.83417 0.0
H490 H 0.46656 0.46236 0.80291 0.0
H491 H 0.50826 0.49446 0.77248 0.0
C492 C 0.54942 0.54439 0.80449 0.0
C493 C 0.54348 0.53623 0.82249 0.0
C494 C 0.54192 0.53854 0.78609 0.0
C495 C 0.52796 0.52437 0.78557 0.0
C496 C 0.52151 0.51586 0.80356 0.0
C497 C 0.52963 0.52192 0.82194 0.0
C498 C 0.50627 0.50093 0.80332 0.0
C499 C 0.49664 0.49602 0.82065 0.0
C500 C 0.48242 0.48209 0.82065 0.0
C501 C 0.47747 0.4732 0.80302 0.0
C502 C 0.48667 0.47777 0.78569 0.0
C503 C 0.50111 0.49144 0.78587 0.0
H504 H 0.68727 0.8018 0.5472 0.0
H505 H 0.67931 0.83276 0.58301 0.0
H506 H 0.69072 0.8418 0.51922 0.0
H507 H 0.67958 0.85516 0.52035 0.0
H508 H 0.67979 0.89104 0.5555 0.0
H509 H 0.68722 0.85734 0.58517 0.0
C510 C 0.68673 0.81236 0.54842 0.0
C511 C 0.68894 0.82127 0.53126 0.0
C512 C 0.68353 0.81666 0.56705 0.0
C513 C 0.68244 0.83012 0.56854 0.0
C514 C 0.68484 0.83958 0.55135 0.0
C515 C 0.68831 0.83493 0.53274 0.0
C516 C 0.68347 0.85395 0.55261 0.0
C517 C 0.6809 0.86046 0.53496 0.0
C518 C 0.68028 0.87418 0.53583 0.0
C519 C 0.68081 0.88074 0.55464 0.0
C520 C 0.68291 0.87446 0.57239 0.0
C521 C 0.68479 0.86145 0.57133 0.0
H522 H 0.13322 0.79517 0.55975 0.0
H523 H 0.16832 0.83317 0.59335 0.0
H524 H 0.16396 0.83685 0.52859 0.0
H525 H 0.18842 0.8529 0.52931 0.0
H526 H 0.21825 0.89523 0.55995 0.0
H527 H 0.18118 0.85851 0.59273 0.0
C528 C 0.14311 0.80682 0.56001 0.0
C529 C 0.14832 0.81513 0.54201 0.0
C530 C 0.15003 0.81346 0.57848 0.0
C531 C 0.16281 0.82857 0.57895 0.0
C532 C 0.16848 0.83731 0.56092 0.0
C533 C 0.16061 0.83046 0.54261 0.0
C534 C 0.18253 0.85336 0.56095 0.0
C535 C 0.19125 0.85965 0.54302 0.0
C536 C 0.20372 0.87489 0.54239 0.0
C537 C 0.20827 0.88363 0.56012 0.0
C538 C 0.20041 0.87758 0.57824 0.0
C539 C 0.18742 0.86262 0.57866 0.0
H540 H 0.12831 0.33669 0.55587 0.0
H541 H 0.16296 0.33092 0.58623 0.0
H542 H 0.17036 0.34857 0.5249 0.0
H543 H 0.18478 0.33802 0.52218 0.0
H544 H 0.2261 0.3464 0.55242 0.0
H545 H 0.18865 0.34341 0.58737 0.0
C546 C 0.13961 0.3376 0.55572 0.0
C547 C 0.14869 0.34275 0.53832 0.0
C548 C 0.14483 0.33358 0.573 0.0
C549 C 0.15935 0.33448 0.57284 0.0
C550 C 0.16884 0.33961 0.55537 0.0
C551 C 0.16329 0.34391 0.53826 0.0
C552 C 0.18449 0.34075 0.55484 0.0
C553 C 0.19116 0.34021 0.53616 0.0
C554 C 0.20632 0.3428 0.53518 0.0
C555 C 0.21457 0.34492 0.55306 0.0
C556 C 0.20809 0.34475 0.57181 0.0
C557 C 0.19315 0.34283 0.57275 0.0
C558 C 0.02973 0.41456 0.06184 0.0
C559 C 0.0175 0.39918 0.06077 0.0
C560 C 0.02958 0.42473 0.07621 0.0
C561 C 1.00297 0.43061 0.10879 0.0
H562 H 0.04034 0.45874 0.13805 0.0
C563 C 1.00232 0.46177 0.18139 0.0
C564 C 0.01452 0.47684 0.18516 0.0
C565 C 1.00258 0.45358 0.1645 0.0
C566 C 0.02987 0.45116 0.12975 0.0
H567 H 0.99564 0.38231 0.07412 0.0
H568 H 0.99545 0.40004 0.0994 0.0
H569 H 0.04117 0.44149 0.11264 0.0
H570 H 0.03628 0.49541 0.17381 0.0
H571 H 0.03672 0.48107 0.14396 0.0
H572 H 0.99162 0.44014 0.12605 0.0
C573 C 1.00506 0.40429 0.08893 0.0
C574 C 0.03033 0.44123 0.11524 0.0
C575 C 1.00522 0.3941 0.07457 0.0
C576 C 0.02671 0.48382 0.1712 0.0
C577 C 0.02702 0.47556 0.15427 0.0
C578 C 1.00251 0.44055 0.12327 0.0
C579 C 0.01718 0.41976 0.08982 0.0
C580 C 0.01684 0.4307 0.10477 0.0
C581 C 0.01506 0.46024 0.15093 0.0
C582 C 0.0159 0.4508 0.13413 0.0
H583 H 0.03933 0.41883 0.05136 0.0
H584 H 0.03903 0.43659 0.07636 0.0
H585 H 0.99244 0.42288 0.10069 0.0
H586 H 0.99272 0.45616 0.19185 0.0
H587 H 0.99326 0.44177 0.16253 0.0
C588 C 0.62562 0.61073 0.06672 0.0
C589 C 0.63006 0.62645 0.06519 0.0
C590 C 0.61506 0.60138 0.0815 0.0
C591 C 0.59815 0.60272 0.13035 0.0
H592 H 0.56427 0.56245 0.11467 0.0
C593 C 0.54954 0.56666 0.18625 0.0
C594 C 0.54486 0.5509 0.18761 0.0
C595 C 0.55853 0.57551 0.17002 0.0
C596 C 0.57373 0.5736 0.11935 0.0
H597 H 0.62725 0.64479 0.07826 0.0
H598 H 0.60895 0.62851 0.10419 0.0
H599 H 0.58367 0.57868 0.08969 0.0
H600 H 0.54518 0.5318 0.17268 0.0
H601 H 0.56112 0.54729 0.14434 0.0
H602 H 0.58849 0.59765 0.16002 0.0
C603 C 0.61363 0.62341 0.09398 0.0
C604 C 0.58485 0.58289 0.10504 0.0
C605 C 0.6241 0.63273 0.07912 0.0
C606 C 0.54853 0.54391 0.17183 0.0
C607 C 0.55769 0.55281 0.15564 0.0
C608 C 0.58711 0.59343 0.14466 0.0
C609 C 0.60883 0.60758 0.09516 0.0
C610 C 0.59716 0.59756 0.11039 0.0
C611 C 0.56323 0.56884 0.1549 0.0
C612 C 0.57471 0.57877 0.13935 0.0
H613 H 0.63 0.60556 0.05616 0.0
H614 H 0.61173 0.58927 0.0822 0.0
H615 H 0.60761 0.61387 0.13501 0.0
H616 H 0.54676 0.57228 0.1982 0.0
H617 H 0.56221 0.58771 0.16966 0.0
C618 C 0.4054 1.00304 0.05935 0.0
C619 C 0.3993 0.013 0.05831 0.0
C620 C 0.41619 1.00506 0.07422 0.0
C621 C 0.43063 0.0223 0.12426 0.0
H622 H 0.46626 0.01855 0.10973 0.0
C623 C 0.47676 0.03214 0.1834 0.0
C624 C 0.48152 0.02107 0.18381 0.0
C625 C 0.46852 0.03303 0.1669 0.0
C626 C 0.45633 0.01953 0.11407 0.0
H627 H 0.39957 0.03279 0.07219 0.0
H628 H 0.41839 0.03629 0.0983 0.0
H629 H 0.44774 0.01591 0.08373 0.0
H630 H 0.48205 1.0028 0.16688 0.0
H631 H 0.46754 1.00423 0.13812 0.0
H632 H 0.43894 0.02555 0.15463 0.0
C633 C 0.41478 0.02687 0.08762 0.0
C634 C 0.44571 0.01801 0.09917 0.0
C635 C 0.40402 0.02489 0.07266 0.0
C636 C 0.47866 0.01154 0.16688 0.0
C637 C 0.47032 0.01237 0.15041 0.0
C638 C 0.4412 0.02375 0.13916 0.0
C639 C 0.42109 0.01706 0.08845 0.0
C640 C 0.43268 0.01925 0.10413 0.0
C641 C 0.46475 0.02282 0.15049 0.0
C642 C 0.45413 0.02228 0.1343 0.0
H643 H 0.40198 0.99377 0.04849 0.0
H644 H 0.42065 0.99716 0.07465 0.0
H645 H 0.42061 0.02312 0.12861 0.0
H646 H 0.47898 0.03976 0.19617 0.0
H647 H 0.46474 0.04147 0.16725 0.0
C648 C 0.41235 0.01499 0.96023 0.0
C649 C 0.39619 1.00535 0.96096 0.0
C650 C 0.42109 0.01277 0.94554 0.0
C651 C 0.41833 0.99579 0.89536 0.0
H652 H 0.45757 0.9993 0.91023 0.0
C653 C 0.45523 0.98689 0.83624 0.0
C654 C 0.47108 0.99802 0.83616 0.0
C655 C 0.4459 0.98569 0.85266 0.0
C656 C 0.44669 0.99837 0.9058 0.0
H657 H 0.37648 0.98588 0.94677 0.0
H658 H 0.39177 0.98202 0.92097 0.0
H659 H 0.4415 1.00164 0.93616 0.0
H660 H 0.48974 0.01609 0.85363 0.0
H661 H 0.47348 0.01412 0.88225 0.0
H662 H 0.42363 0.99289 0.86497 0.0
C663 C 0.39767 0.99134 0.93174 0.0
C664 C 0.43748 0.99972 0.92066 0.0
C665 C 0.38891 0.99353 0.94653 0.0
C666 C 0.47759 0.0073 0.85335 0.0
C667 C 0.46824 0.00617 0.86975 0.0
C668 C 0.42755 0.99449 0.8805 0.0
C669 C 0.41387 1.00088 0.93118 0.0
C670 C 0.42327 0.99861 0.91557 0.0
C671 C 0.45219 0.99567 0.86934 0.0
C672 C 0.44193 0.99591 0.88549 0.0
H673 H 0.4183 0.02421 0.97114 0.0
H674 H 0.43351 0.02047 0.94532 0.0
H675 H 0.40754 0.99507 0.8909 0.0
H676 H 0.44994 0.97945 0.82328 0.0
H677 H 0.43367 0.97722 0.85204 0.0
C678 C 0.02526 0.40407 0.95154 0.0
C679 C 0.01326 0.39698 0.96574 0.0
C680 C 0.02509 0.4142 0.93713 0.0
C681 C 0.99933 0.42537 0.91135 0.0
H682 H 0.03792 0.46277 0.89903 0.0
C683 C 1.00264 0.47047 0.85351 0.0
C684 C 0.0146 0.47512 0.83929 0.0
C685 C 1.00241 0.46226 0.8708 0.0
C686 C 0.02706 0.45235 0.90225 0.0
H687 H 0.99156 0.39475 0.97583 0.0
H688 H 0.99129 0.41247 0.9507 0.0
H689 H 0.03742 0.44523 0.92498 0.0
H690 H 0.03608 0.47563 0.83246 0.0
H691 H 0.03569 0.46136 0.86242 0.0
H692 H 0.98904 0.43241 0.88835 0.0
C693 C 1.00077 0.41013 0.9506 0.0
C694 C 0.02678 0.44227 0.91707 0.0
C695 C 1.00096 0.40001 0.96503 0.0
C696 C 0.02665 0.47206 0.84311 0.0
C697 C 0.02649 0.464 0.86037 0.0
C698 C 0.99961 0.43547 0.8965 0.0
C699 C 0.01292 0.41746 0.9366 0.0
C700 C 0.01298 0.42854 0.92157 0.0
C701 C 0.01424 0.45875 0.87425 0.0
C702 C 0.01354 0.44894 0.89155 0.0
H703 H 0.03488 0.40193 0.9517 0.0
H704 H 0.03449 0.41946 0.92635 0.0
H705 H 0.98853 0.41484 0.91435 0.0
H706 H 0.99319 0.47265 0.85087 0.0
H707 H 0.99289 0.4585 0.88134 0.0
C708 C 0.60764 0.61826 0.97025 0.0
C709 C 0.62345 0.6284 0.96651 0.0
C710 C 0.59807 0.60812 0.95523 0.0
C711 C 0.5965 0.60005 0.89995 0.0
H712 H 0.56548 0.55851 0.916 0.0
C713 C 0.56797 0.55106 0.84236 0.0
C714 C 0.55169 0.54335 0.84171 0.0
C715 C 0.57602 0.56048 0.8587 0.0
C716 C 0.57404 0.5701 0.91136 0.0
H717 H 0.64158 0.63607 0.94402 0.0
H718 H 0.62508 0.61817 0.91801 0.0
H719 H 0.58086 0.57762 0.94181 0.0
H720 H 0.5311 0.53853 0.85846 0.0
H721 H 0.54529 0.55479 0.88748 0.0
H722 H 0.58999 0.59232 0.86949 0.0
C723 C 0.61989 0.61823 0.93234 0.0
C724 C 0.5828 0.5811 0.92611 0.0
C725 C 0.62941 0.62849 0.94729 0.0
C726 C 0.54363 0.54428 0.85857 0.0
C727 C 0.55173 0.55363 0.8751 0.0
C728 C 0.58792 0.58901 0.88526 0.0
C729 C 0.60413 0.60776 0.93618 0.0
C730 C 0.59424 0.59621 0.92059 0.0
C731 C 0.56801 0.56226 0.87493 0.0
C732 C 0.5767 0.5739 0.8908 0.0
H733 H 0.60272 0.61797 0.98493 0.0
H734 H 0.58595 0.60049 0.95864 0.0
H735 H 0.6049 0.61162 0.89508 0.0
H736 H 0.57451 0.55032 0.82979 0.0
H737 H 0.58857 0.56675 0.8584 0.0
C738 C 1.0054 0.61052 0.95952 0.0
C739 C 0.01501 0.62668 0.95959 0.0
C740 C 1.00698 0.60154 0.94455 0.0
C741 C 0.02141 0.60328 0.89307 0.0
H742 H 0.02111 0.56565 0.90833 0.0
C743 C 0.03077 0.56702 0.83352 0.0
C744 C 0.02085 0.55094 0.8345 0.0
C745 C 0.03182 0.57646 0.84972 0.0
C746 C 0.02109 0.57605 0.90378 0.0
H747 H 0.03364 0.64614 0.94388 0.0
H748 H 0.03628 0.63045 0.91756 0.0
H749 H 0.01885 0.58174 0.93433 0.0
H750 H 1.00475 0.53203 0.85345 0.0
H751 H 1.00633 0.54849 0.88167 0.0
H752 H 0.02322 0.59749 0.86253 0.0
C753 C 0.02753 0.62474 0.9291 0.0
C754 C 0.0198 0.58527 0.91869 0.0
C755 C 0.02603 0.63371 0.94418 0.0
C756 C 0.0126 0.54439 0.85239 0.0
C757 C 0.01353 0.55385 0.86855 0.0
C758 C 0.02258 0.59403 0.87816 0.0
C759 C 0.01812 0.60854 0.92924 0.0
C760 C 0.01987 0.59894 0.91348 0.0
C761 C 0.02283 0.57005 0.86719 0.0
C762 C 0.02238 0.58025 0.88329 0.0
H763 H 0.99681 0.60476 0.97123 0.0
H764 H 0.99941 0.58911 0.94491 0.0
H765 H 0.0213 0.61365 0.88856 0.0
H766 H 0.03738 0.57234 0.81996 0.0
H767 H 0.03941 0.58884 0.84833 0.0
C768 C 0.41411 0.40305 0.96608 0.0
C769 C 0.39791 0.39627 0.96623 0.0
C770 C 0.42295 0.41357 0.95099 0.0
C771 C 0.42071 0.42553 0.89925 0.0
H772 H 0.45874 0.46298 0.91348 0.0
C773 C 0.45684 0.47004 0.83842 0.0
C774 C 0.47293 0.47608 0.83922 0.0
C775 C 0.44748 0.46198 0.85485 0.0
C776 C 0.44823 0.45252 0.90922 0.0
H777 H 0.37825 0.39509 0.9506 0.0
H778 H 0.39372 0.41339 0.92408 0.0
H779 H 0.44276 0.44511 0.93998 0.0
H780 H 0.49193 0.47902 0.85812 0.0
H781 H 0.47562 0.46475 0.88676 0.0
H782 H 0.42628 0.43263 0.86851 0.0
C783 C 0.39956 0.41054 0.93564 0.0
C784 C 0.43907 0.44229 0.92441 0.0
C785 C 0.39071 0.40009 0.95083 0.0
C786 C 0.47957 0.47461 0.85717 0.0
C787 C 0.4702 0.46641 0.87358 0.0
C788 C 0.42991 0.43569 0.88406 0.0
C789 C 0.4158 0.41748 0.93564 0.0
C790 C 0.42526 0.42863 0.91958 0.0
C791 C 0.45398 0.45962 0.87241 0.0
C792 C 0.44383 0.44929 0.88881 0.0
H793 H 0.41999 0.40036 0.97775 0.0
H794 H 0.43541 0.41855 0.95125 0.0
H795 H 0.41025 0.41501 0.89502 0.0
H796 H 0.45144 0.47116 0.82482 0.0
H797 H 0.4351 0.45727 0.85358 0.0
C798 C 0.61156 0.99932 0.96183 0.0
C799 C 0.62741 0.01035 0.96298 0.0
C800 C 0.60212 1.00076 0.94734 0.0
C801 C 0.6038 0.01929 0.89846 0.0
H802 H 0.56319 0.01228 0.91332 0.0
C803 C 0.56814 0.03158 0.84171 0.0
C804 C 0.55249 0.02016 0.83977 0.0
C805 C 0.57679 0.0316 0.8583 0.0
C806 C 0.57445 0.01417 0.90889 0.0
H807 H 0.64583 0.03143 0.94978 0.0
H808 H 0.62944 0.03391 0.92456 0.0
H809 H 0.57925 0.00911 0.93862 0.0
H810 H 0.53337 1.00032 0.85413 0.0
H811 H 0.54851 1.00019 0.88309 0.0
H812 H 0.59904 0.0241 0.86875 0.0
C813 C 0.62428 0.02409 0.9347 0.0
C814 C 0.58364 0.01232 0.92338 0.0
C815 C 0.63368 0.02269 0.9492 0.0
C816 C 0.54539 0.00935 0.85539 0.0
C817 C 0.55409 0.00927 0.87194 0.0
C818 C 0.59463 0.02108 0.88401 0.0
C819 C 0.60838 0.0132 0.93366 0.0
C820 C 0.59844 0.0149 0.91832 0.0
C821 C 0.57003 0.02007 0.87322 0.0
C822 C 0.57986 0.0186 0.88902 0.0
H823 H 0.60639 0.98971 0.97229 0.0
H824 H 0.58995 0.99207 0.94677 0.0
H825 H 0.61503 0.0211 0.89398 0.0
H826 H 0.57385 0.04011 0.82992 0.0
H827 H 0.58893 0.04035 0.85907 0.0
C828 C 0.62156 0.99834 0.07307 0.0
C829 C 0.62768 0.01061 0.05917 0.0
C830 C 0.6108 0.99705 0.08754 0.0
C831 C 0.58203 0.00895 0.09847 0.0
H832 H 0.58536 0.99719 0.15321 0.0
C833 C 0.54623 0.01169 0.16592 0.0
C834 C 0.54233 1.00078 0.18145 0.0
C835 C 0.55522 0.01191 0.14955 0.0
C836 C 0.58407 1.00022 0.13792 0.0
H837 H 0.62746 0.03125 0.04966 0.0
H838 H 0.60872 0.02908 0.07513 0.0
H839 H 0.60447 1.00017 0.12819 0.0
H840 H 0.54362 0.98081 0.19131 0.0
H841 H 0.55885 0.98083 0.1625 0.0
H842 H 0.56158 0.00901 0.10828 0.0
C843 C 0.61214 0.02037 0.07467 0.0
C844 C 0.59509 1.002 0.12358 0.0
C845 C 0.62297 0.02169 0.06021 0.0
C846 C 0.5466 0.98942 0.17961 0.0
C847 C 0.55545 0.98954 0.16321 0.0
C848 C 0.57093 0.00712 0.11283 0.0
C849 C 0.60587 0.00798 0.08844 0.0
C850 C 0.59421 0.00636 0.10368 0.0
C851 C 0.56038 1.00115 0.14838 0.0
C852 C 0.5718 1.00269 0.13274 0.0
H853 H 0.62489 0.98956 0.07258 0.0
H854 H 0.60607 0.98727 0.09776 0.0
H855 H 0.58092 0.01215 0.08319 0.0
H856 H 0.54321 0.02067 0.1671 0.0
H857 H 0.55885 0.02105 0.13847 0.0
C858 C 1.00315 0.62162 0.07399 0.0
C859 C 0.01242 0.62406 0.05688 0.0
C860 C 1.00256 0.61181 0.08949 0.0
C861 C 0.01003 0.57988 0.10084 0.0
H862 H 0.01433 0.5945 0.15602 0.0
C863 C 1.00532 0.54315 0.17205 0.0
C864 C 0.01646 0.55109 0.18714 0.0
C865 C 1.00422 0.55116 0.15531 0.0
C866 C 0.01314 0.59026 0.14068 0.0
H867 H 0.02817 0.618 0.04247 0.0
H868 H 0.02714 0.60093 0.06949 0.0
H869 H 0.01321 0.61014 0.12853 0.0
H870 H 0.03582 0.57338 0.19581 0.0
H871 H 0.03381 0.58726 0.16686 0.0
H872 H 0.01021 0.56008 0.1131 0.0
C873 C 0.02026 0.6065 0.07089 0.0
C874 C 0.01234 0.59915 0.12496 0.0
C875 C 0.02095 0.61638 0.05549 0.0
C876 C 0.02687 0.567 0.18469 0.0
C877 C 0.02572 0.57496 0.16812 0.0
C878 C 0.0107 0.5709 0.11663 0.0
C879 C 0.01112 0.60415 0.08811 0.0
C880 C 0.01098 0.59417 0.10484 0.0
C881 C 0.0142 0.56722 0.15346 0.0
C882 C 0.0125 0.57613 0.13668 0.0
H883 H 0.99641 0.62733 0.07544 0.0
H884 H 0.99532 0.61014 0.10251 0.0
H885 H 0.00883 0.57568 0.08549 0.0
H886 H 0.9971 0.53092 0.17356 0.0
H887 H 0.99522 0.5449 0.14421 0.0
C888 C 0.40692 0.41076 0.06347 0.0
C889 C 0.40072 0.39465 0.06335 0.0
C890 C 0.4174 0.41991 0.07846 0.0
C891 C 0.42994 0.41834 0.13008 0.0
H892 H 0.4666 0.45701 0.11578 0.0
C893 C 0.4742 0.45528 0.19077 0.0
C894 C 0.47986 0.47128 0.19004 0.0
C895 C 0.46624 0.44586 0.17434 0.0
C896 C 0.45636 0.44632 0.12006 0.0
H897 H 0.40054 0.37547 0.07889 0.0
H898 H 0.41875 0.39146 0.10524 0.0
H899 H 0.44889 0.44066 0.08932 0.0
H900 H 0.48222 0.49008 0.17129 0.0
H901 H 0.46806 0.47363 0.14263 0.0
H902 H 0.43707 0.42409 0.1608 0.0
C903 C 0.41548 0.39699 0.09374 0.0
C904 C 0.44622 0.43695 0.10489 0.0
C905 C 0.40509 0.38785 0.07864 0.0
C906 C 0.47809 0.47779 0.17216 0.0
C907 C 0.46997 0.46834 0.15576 0.0
C908 C 0.44 0.42774 0.14525 0.0
C909 C 0.42182 0.41314 0.09374 0.0
C910 C 0.43286 0.42289 0.10975 0.0
C911 C 0.46357 0.45218 0.15685 0.0
C912 C 0.45333 0.44189 0.14047 0.0
H913 H 0.40379 0.41634 0.05187 0.0
H914 H 0.42192 0.43228 0.0782 0.0
H915 H 0.41963 0.40769 0.13433 0.0
H916 H 0.47556 0.45 0.20433 0.0
H917 H 0.46185 0.43354 0.17554 0.0
C918 C 0.70019 0.74332 0.39741 0.0
C919 C 0.68581 0.73256 0.38905 0.0
C920 C 0.70116 0.75384 0.41206 0.0
C921 C 0.68197 0.77443 0.42994 0.0
H922 H 0.70398 0.77901 0.48004 0.0
C923 C 0.67838 0.80868 0.49811 0.0
C924 C 0.69084 0.81541 0.51166 0.0
C925 C 0.67868 0.80001 0.4817 0.0
C926 C 0.69807 0.77818 0.46598 0.0
H927 H 0.66117 0.72434 0.38943 0.0
H928 H 0.66292 0.74298 0.41486 0.0
H929 H 0.70249 0.76065 0.45474 0.0
H930 H 0.71367 0.81919 0.51839 0.0
H931 H 0.71471 0.80486 0.48911 0.0
H932 H 0.67781 0.79217 0.44084 0.0
C933 C 0.6734 0.74318 0.41011 0.0
C934 C 0.69712 0.76753 0.45156 0.0
C935 C 0.67239 0.73246 0.3957 0.0
C936 C 0.70398 0.81414 0.50799 0.0
C937 C 0.70443 0.80573 0.49139 0.0
C938 C 0.68313 0.78528 0.44422 0.0
C939 C 0.68781 0.75399 0.41837 0.0
C940 C 0.68895 0.76546 0.4335 0.0
C941 C 0.69155 0.79806 0.47843 0.0
C942 C 0.6911 0.78723 0.46254 0.0
H943 H 0.71072 0.74367 0.39255 0.0
H944 H 0.71241 0.7621 0.41814 0.0
H945 H 0.67576 0.77317 0.41599 0.0
H946 H 0.66801 0.80931 0.50093 0.0
H947 H 0.66846 0.79417 0.47229 0.0
C948 C 0.2763 0.9469 0.39179 0.0
C949 C 0.29237 0.95411 0.39486 0.0
C950 C 0.26602 0.937 0.40638 0.0
C951 C 0.2634 0.91388 0.45166 0.0
H952 H 0.22666 0.91661 0.46245 0.0
C953 C 0.21546 0.8972 0.51846 0.0
C954 C 0.212 0.8821 0.52329 0.0
C955 C 0.22428 0.9047 0.50147 0.0
C956 C 0.23688 0.91572 0.45967 0.0
H957 H 0.31029 0.95659 0.41557 0.0
H958 H 0.29231 0.93956 0.44137 0.0
H959 H 0.24449 0.93257 0.43614 0.0
H960 H 0.21473 0.86286 0.51376 0.0
H961 H 0.23005 0.87595 0.48369 0.0
H962 H 0.25602 0.89744 0.47583 0.0
C963 C 0.28765 0.94133 0.42749 0.0
C964 C 0.24703 0.92475 0.44441 0.0
C965 C 0.29796 0.95118 0.4128 0.0
C966 C 0.21717 0.87447 0.51036 0.0
C967 C 0.22607 0.88203 0.49329 0.0
C968 C 0.25324 0.90485 0.46701 0.0
C969 C 0.27154 0.93416 0.42448 0.0
C970 C 0.2605 0.92407 0.44031 0.0
C971 C 0.22984 0.8973 0.48877 0.0
C972 C 0.23996 0.90582 0.47136 0.0
H973 H 0.27164 0.94881 0.37802 0.0
H974 H 0.25371 0.93149 0.40338 0.0
H975 H 0.27355 0.9129 0.44872 0.0
H976 H 0.21149 0.90331 0.52801 0.0
H977 H 0.2271 0.9165 0.49863 0.0
C978 C 0.06741 0.3555 0.40963 0.0
C979 C 0.06446 0.3456 0.39309 0.0
C980 C 0.07769 0.35668 0.42486 0.0
C981 C 0.11024 0.34997 0.43519 0.0
H982 H 0.09844 0.34882 0.49119 0.0
C983 C 0.1418 0.3395 0.50152 0.0
C984 C 0.14248 0.3465 0.52018 0.0
C985 C 0.13371 0.34109 0.48528 0.0
C986 C 0.10209 0.34945 0.47565 0.0
H987 H 0.06996 0.32918 0.37948 0.0
H988 H 0.08783 0.33121 0.40603 0.0
H989 H 0.08134 0.3482 0.46454 0.0
H990 H 0.13622 0.3615 0.53612 0.0
H991 H 0.1225 0.36466 0.5077 0.0
H992 H 0.13099 0.35119 0.44629 0.0
C993 C 0.08232 0.33816 0.40718 0.0
C994 C 0.09223 0.34905 0.46037 0.0
C995 C 0.07198 0.33691 0.39206 0.0
C996 C 0.1357 0.35583 0.52195 0.0
C997 C 0.12775 0.35753 0.50571 0.0
C998 C 0.12016 0.35047 0.45049 0.0
C999 C 0.0853 0.34806 0.42375 0.0
C1000 C 0.09613 0.34917 0.43996 0.0
C1001 C 0.12624 0.34981 0.48735 0.0
C1002 C 0.11616 0.3501 0.47093 0.0
H1003 H 0.06183 0.36238 0.41079 0.0
H1004 H 0.07984 0.36449 0.43736 0.0
H1005 H 0.11366 0.35029 0.41959 0.0
H1006 H 0.14683 0.33215 0.49982 0.0
H1007 H 0.13271 0.33487 0.47144 0.0
C1008 C 0.05603 0.32939 0.2834 0.0
C1009 C 0.06239 0.34181 0.29709 0.0
C1010 C 0.06541 0.32782 0.269 0.0
C1011 C 0.10607 0.33928 0.25845 0.0
H1012 H 0.09184 0.32881 0.20316 0.0
C1013 C 0.14633 0.3452 0.19191 0.0
C1014 C 0.13992 0.335 0.17551 0.0
C1015 C 0.13699 0.34448 0.20811 0.0
C1016 C 0.0959 0.33145 0.2186 0.0
H1017 H 0.08351 0.36242 0.30631 0.0
H1018 H 0.09986 0.35973 0.28111 0.0
H1019 H 0.0752 0.33099 0.22819 0.0
H1020 H 0.11909 0.31527 0.1639 0.0
H1021 H 0.10287 0.31366 0.19242 0.0
H1022 H 0.1268 0.33977 0.24886 0.0
C1023 C 0.08766 0.35112 0.28164 0.0
C1024 C 0.08637 0.33276 0.23294 0.0
C1025 C 0.07827 0.35273 0.29594 0.0
C1026 C 0.12427 0.32337 0.17628 0.0
C1027 C 0.11497 0.32255 0.19253 0.0
C1028 C 0.1156 0.33788 0.24412 0.0
C1029 C 0.08136 0.3386 0.26808 0.0
C1030 C 0.09138 0.33681 0.25299 0.0
C1031 C 0.12108 0.33345 0.2083 0.0
C1032 C 0.11067 0.33404 0.22397 0.0
H1033 H 0.04385 0.32075 0.28397 0.0
H1034 H 0.06023 0.31799 0.25887 0.0
H1035 H 0.11016 0.34219 0.27387 0.0
H1036 H 0.15833 0.35438 0.19159 0.0
H1037 H 0.14209 0.35312 0.2199 0.0
C1038 C 0.67004 0.73537 0.29326 0.0
C1039 C 0.68188 0.73165 0.29357 0.0
C1040 C 0.66986 0.7453 0.27854 0.0
C1041 C 0.69532 0.77567 0.24239 0.0
H1042 H 0.65672 0.76637 0.21651 0.0
C1043 C 0.69301 0.80459 0.16843 0.0
C1044 C 0.68115 0.80811 0.16567 0.0
C1045 C 0.69329 0.79658 0.18552 0.0
C1046 C 0.66755 0.76928 0.22382 0.0
H1047 H 0.70274 0.73529 0.27859 0.0
H1048 H 0.70235 0.7525 0.25268 0.0
H1049 H 0.65667 0.74934 0.24293 0.0
H1050 H 0.66056 0.80645 0.17898 0.0
H1051 H 0.66109 0.79247 0.20914 0.0
H1052 H 0.70623 0.79549 0.22309 0.0
C1053 C 0.69331 0.74791 0.26401 0.0
C1054 C 0.66754 0.75949 0.23894 0.0
C1055 C 0.69348 0.73796 0.27874 0.0
C1056 C 0.66985 0.80392 0.18076 0.0
C1057 C 0.67008 0.7958 0.19789 0.0
C1058 C 0.69533 0.78545 0.22728 0.0
C1059 C 0.68154 0.75176 0.26378 0.0
C1060 C 0.68145 0.76246 0.24823 0.0
C1061 C 0.68171 0.79187 0.20032 0.0
C1062 C 0.68148 0.78226 0.21763 0.0
H1063 H 0.66096 0.73073 0.30455 0.0
H1064 H 0.66072 0.74814 0.27894 0.0
H1065 H 0.70619 0.77848 0.24952 0.0
H1066 H 0.70196 0.8078 0.15713 0.0
H1067 H 0.70232 0.79362 0.18678 0.0
C1068 C 0.29079 0.96081 0.28527 0.0
C1069 C 0.29738 0.95524 0.29928 0.0
C1070 C 0.28105 0.95118 0.27 0.0
C1071 C 0.25593 0.91 0.2566 0.0
H1072 H 0.25882 0.92639 0.20272 0.0
C1073 C 0.22256 0.8724 0.18675 0.0
C1074 C 0.21715 0.87918 0.17279 0.0
C1075 C 0.23166 0.88099 0.20321 0.0
C1076 C 0.25772 0.92167 0.21775 0.0
H1077 H 0.29913 0.93527 0.30815 0.0
H1078 H 0.28227 0.91851 0.28133 0.0
H1079 H 0.27656 0.94288 0.22886 0.0
H1080 H 0.21597 0.89974 0.1658 0.0
H1081 H 0.23152 0.91459 0.19457 0.0
H1082 H 0.23705 0.88874 0.24536 0.0
C1083 C 0.28446 0.93026 0.2823 0.0
C1084 C 0.26792 0.93113 0.23273 0.0
C1085 C 0.29421 0.9399 0.29756 0.0
C1086 C 0.22021 0.89433 0.17619 0.0
C1087 C 0.2292 0.90285 0.19259 0.0
C1088 C 0.2457 0.9005 0.24157 0.0
C1089 C 0.27769 0.93576 0.26841 0.0
C1090 C 0.26709 0.92546 0.25237 0.0
C1091 C 0.23542 0.89647 0.20596 0.0
C1092 C 0.24639 0.90629 0.22201 0.0
H1093 H 0.29295 0.97255 0.28629 0.0
H1094 H 0.27589 0.95573 0.25969 0.0
H1095 H 0.25488 0.90532 0.27164 0.0
H1096 H 0.22041 0.86075 0.18439 0.0
H1097 H 0.23631 0.87575 0.21324 0.0
C1098 C 0.67161 0.94332 0.29026 0.0
C1099 C 0.68216 0.9593 0.29107 0.0
C1100 C 0.6729 0.93416 0.2753 0.0
C1101 C 0.68791 0.9358 0.22443 0.0
H1102 H 0.6847 0.89662 0.23857 0.0
C1103 C 0.69465 0.89869 0.16357 0.0
C1104 C 0.68433 0.88268 0.16435 0.0
C1105 C 0.69613 0.9081 0.18001 0.0
C1106 C 0.68546 0.90744 0.2343 0.0
H1107 H 0.70225 0.97824 0.27676 0.0
H1108 H 0.70433 0.96224 0.25035 0.0
H1109 H 0.68334 0.91293 0.26502 0.0
H1110 H 0.66788 0.86384 0.18305 0.0
H1111 H 0.6701 0.88027 0.21166 0.0
H1112 H 0.68948 0.93021 0.19373 0.0
C1113 C 0.6951 0.95682 0.26135 0.0
C1114 C 0.68472 0.9168 0.24949 0.0
C1115 C 0.69392 0.96597 0.27647 0.0
C1116 C 0.67603 0.87614 0.18219 0.0
C1117 C 0.67734 0.88559 0.19857 0.0
C1118 C 0.68847 0.92638 0.20924 0.0
C1119 C 0.68466 0.9408 0.26069 0.0
C1120 C 0.68588 0.93105 0.24469 0.0
C1121 C 0.68712 0.90176 0.1975 0.0
C1122 C 0.68722 0.91205 0.21393 0.0
H1123 H 0.66245 0.93785 0.30134 0.0
H1124 H 0.66458 0.92188 0.27503 0.0
H1125 H 0.68864 0.94662 0.22025 0.0
H1126 H 0.70125 0.90397 0.14999 0.0
H1127 H 0.7041 0.92042 0.17879 0.0
C1128 C 0.08007 0.73885 0.2989 0.0
C1129 C 0.06383 0.73142 0.29784 0.0
C1130 C 0.08922 0.74911 0.28377 0.0
C1131 C 0.08833 0.75904 0.23058 0.0
H1132 H 0.12524 0.79758 0.24473 0.0
C1133 C 0.12531 0.80214 0.16901 0.0
C1134 C 0.14141 0.80863 0.17072 0.0
C1135 C 0.11562 0.79441 0.18531 0.0
C1136 C 0.11505 0.78682 0.24051 0.0
H1137 H 0.04445 0.72888 0.28006 0.0
H1138 H 0.06046 0.74677 0.2535 0.0
H1139 H 0.10869 0.78035 0.27139 0.0
H1140 H 0.16011 0.81278 0.19103 0.0
H1141 H 0.1432 0.79905 0.21953 0.0
H1142 H 0.09479 0.76522 0.19977 0.0
C1143 C 0.0661 0.7446 0.26603 0.0
C1144 C 0.10556 0.77695 0.25579 0.0
C1145 C 0.05693 0.73439 0.28125 0.0
C1146 C 0.14773 0.80797 0.18939 0.0
C1147 C 0.13802 0.8001 0.20569 0.0
C1148 C 0.09784 0.76885 0.21532 0.0
C1149 C 0.08235 0.75213 0.26717 0.0
C1150 C 0.09214 0.7629 0.25099 0.0
C1151 C 0.12181 0.79284 0.20367 0.0
C1152 C 0.11136 0.78285 0.22006 0.0
H1153 H 0.08574 0.73681 0.31151 0.0
H1154 H 0.1017 0.75455 0.28495 0.0
H1155 H 0.0782 0.74821 0.22638 0.0
H1156 H 0.12017 0.80265 0.15482 0.0
H1157 H 0.10324 0.78933 0.18335 0.0
C1158 C 0.28374 0.33495 0.29285 0.0
C1159 C 0.2981 0.34771 0.29822 0.0
C1160 C 0.27427 0.33657 0.27863 0.0
C1161 C 0.27502 0.35969 0.23564 0.0
H1162 H 0.23203 0.34524 0.24874 0.0
C1163 C 0.23655 0.36896 0.17972 0.0
C1164 C 0.22138 0.35663 0.17717 0.0
C1165 C 0.24548 0.36919 0.19611 0.0
C1166 C 0.24395 0.34919 0.24471 0.0
H1167 H 0.314 0.37205 0.29264 0.0
H1168 H 0.29763 0.37475 0.26737 0.0
H1169 H 0.2486 0.34222 0.27328 0.0
H1170 H 0.20342 0.33516 0.18994 0.0
H1171 H 0.21908 0.33522 0.21823 0.0
H1172 H 0.27042 0.36609 0.20685 0.0
C1173 C 0.29365 0.36356 0.2743 0.0
C1174 C 0.25343 0.34748 0.25881 0.0
C1175 C 0.30299 0.36201 0.28876 0.0
C1176 C 0.21503 0.34491 0.19178 0.0
C1177 C 0.22405 0.34497 0.208 0.0
C1178 C 0.26551 0.36118 0.22142 0.0
C1179 C 0.27912 0.3509 0.26929 0.0
C1180 C 0.26905 0.3527 0.25439 0.0
C1181 C 0.23956 0.3569 0.21006 0.0
C1182 C 0.24982 0.35595 0.22573 0.0
H1183 H 0.27965 0.32381 0.29999 0.0
H1184 H 0.26317 0.3266 0.27488 0.0
H1185 H 0.28699 0.36367 0.23179 0.0
H1186 H 0.24166 0.37813 0.16861 0.0
H1187 H 0.2572 0.3788 0.19748 0.0
C1188 C 0.27712 0.33147 0.39075 0.0
C1189 C 0.29268 0.34341 0.39089 0.0
C1190 C 0.26658 0.33139 0.4047 0.0
C1191 C 0.26034 0.35702 0.43884 0.0
H1192 H 0.23161 0.31888 0.46603 0.0
C1193 C 0.22913 0.35582 0.51219 0.0
C1194 C 0.21399 0.34364 0.51564 0.0
C1195 C 0.23728 0.35596 0.49503 0.0
C1196 C 0.23934 0.32957 0.45831 0.0
H1197 H 0.3094 0.36458 0.40582 0.0
H1198 H 0.29102 0.3644 0.43031 0.0
H1199 H 0.24897 0.31866 0.44028 0.0
H1200 H 0.19525 0.32234 0.50343 0.0
H1201 H 0.20951 0.32261 0.4731 0.0
H1202 H 0.25088 0.36798 0.45703 0.0
C1203 C 0.28693 0.35519 0.41925 0.0
C1204 C 0.24934 0.32946 0.44359 0.0
C1205 C 0.29749 0.35524 0.40533 0.0
C1206 C 0.2069 0.33189 0.5011 0.0
C1207 C 0.21511 0.33198 0.48387 0.0
C1208 C 0.25033 0.35713 0.4535 0.0
C1209 C 0.27133 0.34328 0.41907 0.0
C1210 C 0.26013 0.34323 0.43392 0.0
C1211 C 0.2305 0.3439 0.48083 0.0
C1212 C 0.23989 0.34346 0.46367 0.0
H1213 H 0.27305 0.32221 0.37975 0.0
H1214 H 0.25463 0.32213 0.40403 0.0
H1215 H 0.26829 0.36776 0.43137 0.0
H1216 H 0.23483 0.36511 0.52308 0.0
H1217 H 0.24914 0.36524 0.49332 0.0
C1218 C 0.66761 0.9528 0.40292 0.0
C1219 C 0.67828 0.95661 0.38709 0.0
C1220 C 0.66666 0.94274 0.41827 0.0
C1221 C 0.67626 0.91244 0.43068 0.0
H1222 H 0.67512 0.92444 0.48606 0.0
C1223 C 0.66977 0.87428 0.50108 0.0
C1224 C 0.67975 0.88229 0.51725 0.0
C1225 C 0.6688 0.88241 0.48438 0.0
C1226 C 0.67543 0.92092 0.47067 0.0
H1227 H 0.6962 0.95276 0.37478 0.0
H1228 H 0.69458 0.93526 0.40161 0.0
H1229 H 0.67476 0.94041 0.45848 0.0
H1230 H 0.69723 0.90496 0.52796 0.0
H1231 H 0.69539 0.919 0.49914 0.0
H1232 H 0.67721 0.89306 0.44302 0.0
C1233 C 0.68686 0.93994 0.40209 0.0
C1234 C 0.67508 0.93 0.45487 0.0
C1235 C 0.68789 0.95007 0.38682 0.0
C1236 C 0.68911 0.89846 0.51602 0.0
C1237 C 0.68807 0.90653 0.4995 0.0
C1238 C 0.67648 0.90327 0.44653 0.0
C1239 C 0.67629 0.93621 0.41803 0.0
C1240 C 0.6757 0.92598 0.4347 0.0
C1241 C 0.67775 0.89865 0.48365 0.0
C1242 C 0.67632 0.90757 0.46669 0.0
H1243 H 0.66 0.9576 0.40348 0.0
H1244 H 0.65831 0.94 0.43028 0.0
H1245 H 0.67659 0.90897 0.41527 0.0
H1246 H 0.66239 0.86183 0.50161 0.0
H1247 H 0.66075 0.87604 0.47233 0.0
C1248 C 0.06933 0.72649 0.40901 0.0
C1249 C 0.06256 0.73172 0.39476 0.0
C1250 C 0.07928 0.73649 0.42386 0.0
C1251 C 0.0904 0.77301 0.45072 0.0
H1252 H 0.12767 0.77163 0.46311 0.0
C1253 C 0.13566 0.81458 0.50884 0.0
C1254 C 0.14075 0.80745 0.52273 0.0
C1255 C 0.12719 0.80652 0.49171 0.0
C1256 C 0.11727 0.77211 0.45991 0.0
H1257 H 0.06069 0.75145 0.3851 0.0
H1258 H 0.07806 0.76892 0.41103 0.0
H1259 H 0.11023 0.75491 0.43678 0.0
H1260 H 0.14163 0.78663 0.52912 0.0
H1261 H 0.12681 0.77258 0.49953 0.0
H1262 H 0.09735 0.79005 0.4741 0.0
C1263 C 0.07561 0.75707 0.4108 0.0
C1264 C 0.10725 0.76249 0.44486 0.0
C1265 C 0.0657 0.74707 0.39591 0.0
C1266 C 0.13773 0.79237 0.51877 0.0
C1267 C 0.12935 0.78437 0.5017 0.0
C1268 C 0.10042 0.78262 0.46583 0.0
C1269 C 0.08265 0.75195 0.42481 0.0
C1270 C 0.09359 0.76267 0.44027 0.0
C1271 C 0.12378 0.79124 0.4881 0.0
C1272 C 0.11387 0.78212 0.4708 0.0
H1273 H 0.06712 0.71471 0.40853 0.0
H1274 H 0.08431 0.73211 0.43463 0.0
H1275 H 0.07991 0.77335 0.44766 0.0
H1276 H 0.13778 0.82618 0.51156 0.0
H1277 H 0.12319 0.81219 0.48141 0.0
C1278 C 0.35654 0.07807 0.72897 0.0
C1279 C 0.34539 0.06232 0.7271 0.0
C1280 C 0.35486 0.08727 0.74351 0.0
C1281 C 0.33636 0.08552 0.79195 0.0
H1282 H 0.34316 0.12597 0.77688 0.0
C1283 C 0.32767 0.12307 0.84999 0.0
C1284 C 0.33905 0.13879 0.85048 0.0
C1285 C 0.32671 0.11382 0.83361 0.0
C1286 C 0.34135 0.11477 0.7814 0.0
H1287 H 0.32388 0.04377 0.7392 0.0
H1288 H 0.32107 0.05981 0.76487 0.0
H1289 H 0.3455 0.10957 0.75143 0.0
H1290 H 0.35787 0.15738 0.83396 0.0
H1291 H 0.35647 0.14121 0.80547 0.0
H1292 H 0.3327 0.09078 0.82198 0.0
C1293 C 0.33108 0.06504 0.75502 0.0
C1294 C 0.34268 0.10538 0.76681 0.0
C1295 C 0.33268 0.05587 0.74033 0.0
C1296 C 0.3489 0.14531 0.83382 0.0
C1297 C 0.34807 0.13601 0.81751 0.0
C1298 C 0.33517 0.09495 0.80658 0.0
C1299 C 0.34208 0.08087 0.75662 0.0
C1300 C 0.34027 0.09069 0.77196 0.0
C1301 C 0.33726 0.12004 0.81748 0.0
C1302 C 0.33771 0.10974 0.80153 0.0
H1303 H 0.36644 0.08338 0.71895 0.0
H1304 H 0.36362 0.09938 0.74457 0.0
H1305 H 0.33463 0.07433 0.79642 0.0
H1306 H 0.31987 0.11782 0.86263 0.0
H1307 H 0.31796 0.10168 0.83388 0.0
C1308 C 0.95745 0.27824 0.73429 0.0
C1309 C 0.95994 0.29312 0.73021 0.0
C1310 C 0.94674 0.26895 0.74898 0.0
C1311 C 0.92701 0.27055 0.79469 0.0
H1312 H 0.89663 0.22803 0.78191 0.0
C1313 C 0.88015 0.23331 0.8523 0.0
C1314 C 0.87675 0.21797 0.85458 0.0
C1315 C 0.88867 0.24206 0.8357 0.0
C1316 C 0.90512 0.23982 0.78583 0.0
H1317 H 0.95342 0.31006 0.73854 0.0
H1318 H 0.93495 0.29395 0.76452 0.0
H1319 H 0.91554 0.24423 0.75646 0.0
H1320 H 0.87902 0.19948 0.84111 0.0
H1321 H 0.89429 0.21481 0.81233 0.0
H1322 H 0.9171 0.26616 0.82419 0.0
C1323 C 0.94122 0.28945 0.75627 0.0
C1324 C 0.91594 0.2491 0.77122 0.0
C1325 C 0.95177 0.29865 0.7414 0.0
C1326 C 0.88135 0.21125 0.8395 0.0
C1327 C 0.89011 0.22008 0.82302 0.0
C1328 C 0.91635 0.26125 0.80937 0.0
C1329 C 0.93847 0.27444 0.76006 0.0
C1330 C 0.92699 0.26456 0.77552 0.0
C1331 C 0.89426 0.23575 0.82121 0.0
C1332 C 0.90522 0.24574 0.80517 0.0
H1333 H 0.96354 0.27364 0.72584 0.0
H1334 H 0.94496 0.25749 0.75174 0.0
H1335 H 0.93551 0.28238 0.7985 0.0
H1336 H 0.87667 0.2387 0.86375 0.0
H1337 H 0.89123 0.25392 0.83456 0.0
C1338 C 0.73994 0.67183 0.72845 0.0
C1339 C 0.7328 0.6809 0.72851 0.0
C1340 C 0.75042 0.67354 0.74362 0.0
C1341 C 0.76113 0.6862 0.79593 0.0
H1342 H 0.79968 0.68782 0.78209 0.0
C1343 C 0.80426 0.69259 0.85795 0.0
C1344 C 0.81109 0.68331 0.85609 0.0
C1345 C 0.79643 0.69445 0.84166 0.0
C1346 C 0.78891 0.68724 0.78625 0.0
H1347 H 0.73097 0.69881 0.74459 0.0
H1348 H 0.74915 0.70163 0.77138 0.0
H1349 H 0.78219 0.68642 0.75531 0.0
H1350 H 0.81561 0.66917 0.83557 0.0
H1351 H 0.80166 0.67208 0.8072 0.0
H1352 H 0.76745 0.68644 0.8268 0.0
C1353 C 0.74664 0.69323 0.75952 0.0
C1354 C 0.77891 0.68648 0.77089 0.0
C1355 C 0.73626 0.69163 0.74418 0.0
C1356 C 0.81057 0.67652 0.83733 0.0
C1357 C 0.80257 0.67821 0.82108 0.0
C1358 C 0.77103 0.6868 0.81129 0.0
C1359 C 0.75389 0.68426 0.75932 0.0
C1360 C 0.76486 0.68583 0.77558 0.0
C1361 C 0.79506 0.68689 0.82318 0.0
C1362 C 0.78502 0.68722 0.80669 0.0
H1363 H 0.73753 0.66347 0.71655 0.0
H1364 H 0.75567 0.66633 0.74321 0.0
H1365 H 0.7503 0.68552 0.80001 0.0
H1366 H 0.80462 0.69807 0.87222 0.0
H1367 H 0.79116 0.70154 0.84372 0.0
C1368 C 0.72328 0.66175 0.61829 0.0
C1369 C 0.73005 0.67406 0.63213 0.0
C1370 C 0.73233 0.66003 0.60352 0.0
C1371 C 0.77266 0.67083 0.59159 0.0
H1372 H 0.7578 0.66179 0.5364 0.0
C1373 C 0.81216 0.67778 0.5237 0.0
C1374 C 0.80557 0.66795 0.50699 0.0
C1375 C 0.80296 0.67686 0.54017 0.0
C1376 C 0.76204 0.66402 0.55179 0.0
H1377 H 0.75156 0.69424 0.6413 0.0
H1378 H 0.76732 0.69126 0.6155 0.0
H1379 H 0.74159 0.66364 0.5624 0.0
H1380 H 0.7845 0.64871 0.49503 0.0
H1381 H 0.76851 0.64678 0.52397 0.0
H1382 H 0.79313 0.67125 0.58099 0.0
C1383 C 0.75506 0.68286 0.61617 0.0
C1384 C 0.75274 0.66514 0.56669 0.0
C1385 C 0.74601 0.68464 0.63084 0.0
C1386 C 0.78983 0.65654 0.50763 0.0
C1387 C 0.78067 0.65554 0.52414 0.0
C1388 C 0.78194 0.66962 0.5767 0.0
C1389 C 0.74834 0.67051 0.60237 0.0
C1390 C 0.75799 0.66871 0.58672 0.0
C1391 C 0.78699 0.66601 0.54034 0.0
C1392 C 0.7768 0.66633 0.55656 0.0
H1393 H 0.71102 0.65338 0.61897 0.0
H1394 H 0.72683 0.65033 0.5932 0.0
H1395 H 0.77694 0.67337 0.60696 0.0
H1396 H 0.82423 0.68678 0.52351 0.0
H1397 H 0.80823 0.6852 0.55227 0.0
C1398 C 0.35814 0.06914 0.61479 0.0
C1399 C 0.34867 0.06607 0.63185 0.0
C1400 C 0.35907 0.07966 0.60013 0.0
C1401 C 0.33805 0.09879 0.58077 0.0
H1402 H 0.37726 0.12632 0.55487 0.0
C1403 C 0.34322 0.1434 0.5217 0.0
C1404 C 0.35054 0.14324 0.50366 0.0
C1405 C 0.34444 0.136 0.53897 0.0
C1406 C 0.36623 0.11868 0.56194 0.0
H1407 H 0.33283 0.07164 0.647 0.0
H1408 H 0.33457 0.09008 0.62161 0.0
H1409 H 0.37616 0.1089 0.58151 0.0
H1410 H 0.36575 0.13621 0.48992 0.0
H1411 H 0.36787 0.1233 0.51997 0.0
H1412 H 0.32809 0.10843 0.56107 0.0
C1413 C 0.3411 0.08422 0.61935 0.0
C1414 C 0.36557 0.10865 0.57714 0.0
C1415 C 0.34015 0.07369 0.63394 0.0
C1416 C 0.35988 0.1364 0.50359 0.0
C1417 C 0.36117 0.12909 0.52085 0.0
C1418 C 0.33872 0.10884 0.56563 0.0
C1419 C 0.35058 0.08736 0.60225 0.0
C1420 C 0.35144 0.09846 0.5866 0.0
C1421 C 0.3531 0.12841 0.53856 0.0
C1422 C 0.35278 0.11879 0.55588 0.0
H1423 H 0.36484 0.06343 0.61276 0.0
H1424 H 0.36629 0.08161 0.58701 0.0
H1425 H 0.32693 0.09095 0.5875 0.0
H1426 H 0.3359 0.14853 0.52216 0.0
H1427 H 0.33826 0.13586 0.55248 0.0
C1428 C 0.95323 0.29906 0.61777 0.0
C1429 C 0.9553 0.29199 0.63489 0.0
C1430 C 0.94281 0.29009 0.60259 0.0
C1431 C 0.9095 0.25107 0.5915 0.0
H1432 H 0.9251 0.26017 0.53665 0.0
C1433 C 0.87462 0.21656 0.51996 0.0
C1434 C 0.88317 0.21285 0.50649 0.0
C1435 C 0.88199 0.22648 0.53637 0.0
C1436 C 0.92056 0.25752 0.55189 0.0
H1437 H 0.94779 0.27003 0.64981 0.0
H1438 H 0.92972 0.25441 0.62333 0.0
H1439 H 0.94047 0.27736 0.56398 0.0
H1440 H 0.90583 0.21572 0.50049 0.0
H1441 H 0.91859 0.23299 0.52876 0.0
H1442 H 0.88976 0.23091 0.57929 0.0
C1443 C 0.93602 0.26687 0.62167 0.0
C1444 C 0.92929 0.26745 0.56752 0.0
C1445 C 0.94649 0.27582 0.63676 0.0
C1446 C 0.89901 0.21868 0.51026 0.0
C1447 C 0.90633 0.2286 0.52645 0.0
C1448 C 0.90068 0.24116 0.57578 0.0
C1449 C 0.93418 0.27387 0.60431 0.0
C1450 C 0.92403 0.26418 0.58756 0.0
C1451 C 0.89801 0.23286 0.53945 0.0
C1452 C 0.90632 0.24411 0.5559 0.0
H1453 H 0.95981 0.31151 0.61597 0.0
H1454 H 0.94155 0.29583 0.58946 0.0
H1455 H 0.90507 0.24834 0.60678 0.0
H1456 H 0.8624 0.21223 0.51742 0.0
H1457 H 0.8753 0.22954 0.54624 0.0
C1458 C 0.35475 0.2947 0.61221 0.0
C1459 C 0.34282 0.29027 0.62642 0.0
C1460 C 0.35391 0.28422 0.59752 0.0
C1461 C 0.32602 0.24754 0.57203 0.0
H1462 H 0.36322 0.24713 0.55627 0.0
C1463 C 0.34695 0.21076 0.51807 0.0
C1464 C 0.33838 0.20952 0.50063 0.0
C1465 C 0.3467 0.21926 0.53476 0.0
C1466 C 0.35268 0.24693 0.56069 0.0
H1467 H 0.32068 0.2714 0.63643 0.0
H1468 H 0.31932 0.2531 0.61112 0.0
H1469 H 0.36461 0.26487 0.58255 0.0
H1470 H 0.32208 0.21538 0.48746 0.0
H1471 H 0.32185 0.23037 0.51623 0.0
H1472 H 0.31403 0.22943 0.55046 0.0
C1473 C 0.3292 0.26472 0.611 0.0
C1474 C 0.35352 0.25729 0.57554 0.0
C1475 C 0.33001 0.2752 0.62559 0.0
C1476 C 0.32898 0.2163 0.50059 0.0
C1477 C 0.32874 0.22478 0.5172 0.0
C1478 C 0.32517 0.23716 0.55725 0.0
C1479 C 0.34114 0.26906 0.59679 0.0
C1480 C 0.34023 0.25783 0.58128 0.0
C1481 C 0.33781 0.22662 0.53435 0.0
C1482 C 0.33851 0.23682 0.55122 0.0
H1483 H 0.36476 0.30624 0.61247 0.0
H1484 H 0.3632 0.28804 0.58662 0.0
H1485 H 0.31557 0.2477 0.57591 0.0
H1486 H 0.35433 0.20569 0.51852 0.0
H1487 H 0.35365 0.22025 0.54786 0.0
C1488 C 0.73468 0.07249 0.63061 0.0
C1489 C 0.73378 0.05842 0.63579 0.0
C1490 C 0.74509 0.08204 0.61579 0.0
C1491 C 0.76687 0.08141 0.5716 0.0
H1492 H 0.79404 0.12507 0.58246 0.0
C1493 C 0.81457 0.11913 0.51532 0.0
C1494 C 0.81688 0.13394 0.51139 0.0
C1495 C 0.80571 0.11062 0.53184 0.0
C1496 C 0.78643 0.11295 0.57907 0.0
H1497 H 0.74282 0.04317 0.6293 0.0
H1498 H 0.76075 0.05967 0.60318 0.0
H1499 H 0.77516 0.10868 0.60787 0.0
H1500 H 0.81231 0.15175 0.52191 0.0
H1501 H 0.79646 0.13678 0.55058 0.0
H1502 H 0.77767 0.08558 0.54269 0.0
C1503 C 0.75348 0.06336 0.61062 0.0
C1504 C 0.77563 0.10356 0.59364 0.0
C1505 C 0.74324 0.05393 0.6256 0.0
C1506 C 0.81081 0.14041 0.52481 0.0
C1507 C 0.80173 0.1318 0.54122 0.0
C1508 C 0.77752 0.09079 0.55696 0.0
C1509 C 0.75462 0.07757 0.60569 0.0
C1510 C 0.7658 0.08768 0.59008 0.0
C1511 C 0.79869 0.11661 0.54461 0.0
C1512 C 0.78753 0.10668 0.56051 0.0
H1513 H 0.72757 0.07627 0.63829 0.0
H1514 H 0.74565 0.09287 0.61216 0.0
H1515 H 0.7593 0.06925 0.56833 0.0
H1516 H 0.81921 0.11394 0.50518 0.0
H1517 H 0.80403 0.09917 0.53428 0.0
C1518 C 0.96855 0.69446 0.62055 0.0
C1519 C 0.96336 0.68019 0.63025 0.0
C1520 C 0.95931 0.69614 0.60604 0.0
C1521 C 0.91906 0.68066 0.59095 0.0
H1522 H 0.9358 0.69841 0.53855 0.0
C1523 C 0.88037 0.6773 0.52391 0.0
C1524 C 0.8867 0.68875 0.50895 0.0
C1525 C 0.88947 0.67761 0.54018 0.0
C1526 C 0.93097 0.69375 0.55324 0.0
H1527 H 0.94452 0.65649 0.63236 0.0
H1528 H 0.92827 0.65952 0.60719 0.0
H1529 H 0.95241 0.69608 0.56353 0.0
H1530 H 0.90699 0.71003 0.49978 0.0
H1531 H 0.92267 0.71113 0.52873 0.0
H1532 H 0.89771 0.67856 0.58095 0.0
C1533 C 0.93949 0.66936 0.61079 0.0
C1534 C 0.9405 0.69231 0.56749 0.0
C1535 C 0.94884 0.6676 0.62504 0.0
C1536 C 0.9019 0.70107 0.51118 0.0
C1537 C 0.91091 0.70155 0.52762 0.0
C1538 C 0.90957 0.68232 0.57682 0.0
C1539 C 0.94461 0.68367 0.60124 0.0
C1540 C 0.9346 0.6856 0.58638 0.0
C1541 C 0.90502 0.68951 0.54194 0.0
C1542 C 0.91534 0.68874 0.55766 0.0
H1543 H 0.97968 0.70437 0.62431 0.0
H1544 H 0.9635 0.70731 0.59894 0.0
H1545 H 0.91429 0.67562 0.60554 0.0
H1546 H 0.86873 0.66757 0.52231 0.0
H1547 H 0.88452 0.66804 0.55071 0.0
C1548 C 0.94241 0.66718 0.72356 0.0
C1549 C 0.95836 0.67793 0.72427 0.0
C1550 C 0.93238 0.66756 0.73795 0.0
C1551 C 0.92886 0.69307 0.77524 0.0
H1552 H 0.8976 0.65457 0.79928 0.0
C1553 C 0.89739 0.69073 0.84901 0.0
C1554 C 0.88186 0.67911 0.85156 0.0
C1555 C 0.90559 0.6911 0.83177 0.0
C1556 C 0.90606 0.6654 0.79247 0.0
H1557 H 0.97632 0.69755 0.74059 0.0
H1558 H 0.95878 0.69818 0.76587 0.0
H1559 H 0.91441 0.65412 0.77293 0.0
H1560 H 0.86253 0.65914 0.83765 0.0
H1561 H 0.87684 0.65988 0.8072 0.0
H1562 H 0.92062 0.70438 0.79491 0.0
C1563 C 0.95402 0.68954 0.75404 0.0
C1564 C 0.91574 0.66515 0.7774 0.0
C1565 C 0.96408 0.68912 0.73966 0.0
C1566 C 0.87448 0.66824 0.83605 0.0
C1567 C 0.88272 0.66858 0.81875 0.0
C1568 C 0.91915 0.69333 0.79026 0.0
C1569 C 0.93806 0.67873 0.75336 0.0
C1570 C 0.92738 0.67899 0.7688 0.0
C1571 C 0.89846 0.67987 0.81659 0.0
C1572 C 0.90777 0.67951 0.79926 0.0
H1573 H 0.93764 0.65844 0.71183 0.0
H1574 H 0.92014 0.65919 0.73686 0.0
H1575 H 0.93752 0.70391 0.76865 0.0
H1576 H 0.90334 0.69937 0.86061 0.0
H1577 H 0.91771 0.69986 0.83075 0.0
C1578 C 0.33541 0.28562 0.73609 0.0
C1579 C 0.34666 0.29104 0.7208 0.0
C1580 C 0.33554 0.27603 0.75136 0.0
C1581 C 0.35045 0.24979 0.76417 0.0
H1582 H 0.3419 0.25689 0.819 0.0
C1583 C 0.35801 0.21948 0.8351 0.0
C1584 C 0.34675 0.21525 0.85024 0.0
C1585 C 0.35794 0.22798 0.81828 0.0
C1586 C 0.34415 0.25463 0.80374 0.0
H1587 H 0.36685 0.29065 0.70947 0.0
H1588 H 0.36718 0.27407 0.73628 0.0
H1589 H 0.34198 0.27336 0.79192 0.0
H1590 H 0.32599 0.21556 0.85904 0.0
H1591 H 0.32576 0.23016 0.82977 0.0
H1592 H 0.35268 0.23104 0.77617 0.0
C1593 C 0.35814 0.27705 0.73633 0.0
C1594 C 0.34418 0.26408 0.78821 0.0
C1595 C 0.35801 0.28664 0.72105 0.0
C1596 C 0.335 0.21895 0.84777 0.0
C1597 C 0.3349 0.22736 0.83105 0.0
C1598 C 0.35044 0.24032 0.77977 0.0
C1599 C 0.34693 0.27167 0.75171 0.0
C1600 C 0.34721 0.26171 0.76821 0.0
C1601 C 0.34658 0.23233 0.81637 0.0
C1602 C 0.34713 0.24255 0.7997 0.0
H1603 H 0.32647 0.28875 0.73623 0.0
H1604 H 0.3266 0.27191 0.76281 0.0
H1605 H 0.3527 0.24757 0.74889 0.0
H1606 H 0.36721 0.21679 0.83668 0.0
H1607 H 0.36711 0.23166 0.80722 0.0
C1608 C 0.74335 0.07584 0.73124 0.0
C1609 C 0.73641 0.05965 0.73205 0.0
C1610 C 0.75381 0.0851 0.74617 0.0
C1611 C 0.76499 0.08408 0.79878 0.0
H1612 H 0.80237 0.12213 0.78451 0.0
C1613 C 0.80842 0.12155 0.85991 0.0
C1614 C 0.81403 0.13753 0.85873 0.0
C1615 C 0.80075 0.11192 0.84351 0.0
C1616 C 0.79193 0.1116 0.78876 0.0
H1617 H 0.73498 0.04047 0.7491 0.0
H1618 H 0.75323 0.05665 0.77526 0.0
H1619 H 0.78505 0.10549 0.75792 0.0
H1620 H 0.81667 0.15608 0.83922 0.0
H1621 H 0.80309 0.13927 0.81059 0.0
H1622 H 0.77159 0.09027 0.82957 0.0
C1623 C 0.75052 0.06217 0.76312 0.0
C1624 C 0.78201 0.10206 0.77352 0.0
C1625 C 0.7401 0.05291 0.74812 0.0
C1626 C 0.81257 0.14381 0.84046 0.0
C1627 C 0.80478 0.13416 0.82407 0.0
C1628 C 0.77486 0.09362 0.814 0.0
C1629 C 0.75751 0.07838 0.76229 0.0
C1630 C 0.76838 0.08824 0.77838 0.0
C1631 C 0.79839 0.11803 0.8256 0.0
C1632 C 0.78842 0.10755 0.80921 0.0
H1633 H 0.74074 0.08138 0.71902 0.0
H1634 H 0.75883 0.09752 0.74524 0.0
H1635 H 0.75447 0.07363 0.80304 0.0
H1636 H 0.80957 0.11643 0.87376 0.0
H1637 H 0.79634 0.09962 0.84505 0.0
C1638 C 0.05118 0.35178 0.03814 0.0
C1639 C 0.05357 0.36477 0.02704 0.0
C1640 C 0.06365 0.34973 0.04308 0.0
C1641 C 0.10469 0.37096 0.05392 0.0
H1642 H 0.10207 0.33113 0.04765 0.0
C1643 C 0.14995 0.35937 0.09144 0.0
C1644 C 0.1434 0.34537 0.10214 0.0
C1645 C 0.14113 0.36194 0.07708 0.0
C1646 C 0.103 0.34233 0.0496 0.0
H1647 H 0.07084 0.3858 0.01238 0.0
H1648 H 0.09277 0.3824 0.02158 0.0
H1649 H 0.08195 0.3353 0.03324 0.0
H1650 H 0.1231 0.32264 0.10509 0.0
H1651 H 0.10772 0.32711 0.0806 0.0
H1652 H 0.12514 0.37775 0.07137 0.0
C1653 C 0.0812 0.37375 0.02621 0.0
C1654 C 0.09148 0.3447 0.04127 0.0
C1655 C 0.06867 0.37566 0.02093 0.0
C1656 C 0.12839 0.33359 0.09712 0.0
C1657 C 0.1196 0.33614 0.08292 0.0
C1658 C 0.1161 0.36852 0.06253 0.0
C1659 C 0.07879 0.36075 0.03732 0.0
C1660 C 0.09201 0.35891 0.04379 0.0
C1661 C 0.12563 0.35055 0.07321 0.0
C1662 C 0.11516 0.35402 0.06099 0.0
H1663 H 0.03967 0.34319 0.04301 0.0
H1664 H 0.06149 0.33969 0.05185 0.0
H1665 H 0.10533 0.38201 0.05616 0.0
H1666 H 0.16149 0.36866 0.09506 0.0
H1667 H 0.14626 0.37307 0.06963 0.0
C1668 C 0.68061 0.70936 0.02447 0.0
C1669 C 0.66559 0.69807 0.01865 0.0
C1670 C 0.68393 0.7243 0.02953 0.0
C1671 C 0.66855 0.75157 0.02816 0.0
H1672 H 0.69367 0.76794 0.07635 0.0
C1673 C 0.66875 0.79843 0.08031 0.0
C1674 C 0.68234 0.80806 0.09114 0.0
C1675 C 0.66822 0.78725 0.06702 0.0
C1676 C 0.6869 0.76377 0.06262 0.0
H1677 H 0.64238 0.69376 0.0128 0.0
H1678 H 0.64806 0.71975 0.02208 0.0
H1679 H 0.68979 0.74402 0.06182 0.0
H1680 H 0.70629 0.8145 0.09559 0.0
H1681 H 0.70562 0.79545 0.07185 0.0
H1682 H 0.66529 0.77122 0.02954 0.0
C1683 C 0.65737 0.71716 0.02243 0.0
C1684 C 0.68466 0.74997 0.05426 0.0
C1685 C 0.65409 0.70222 0.01721 0.0
C1686 C 0.69573 0.80727 0.08723 0.0
C1687 C 0.69526 0.79621 0.07386 0.0
C1688 C 0.67078 0.76543 0.0366 0.0
C1689 C 0.67226 0.7283 0.02911 0.0
C1690 C 0.67536 0.74359 0.03701 0.0
C1691 C 0.68129 0.78555 0.06438 0.0
C1692 C 0.6799 0.77163 0.05405 0.0
H1693 H 0.68976 0.70656 0.02555 0.0
H1694 H 0.6956 0.73265 0.03416 0.0
H1695 H 0.66145 0.74709 0.01474 0.0
H1696 H 0.65821 0.79866 0.08341 0.0
H1697 H 0.65726 0.7792 0.06007 0.0
C1698 C 0.32245 0.95923 0.02276 0.0
C1699 C 0.32757 0.97486 0.02686 0.0
C1700 C 0.30779 0.94763 0.02914 0.0
C1701 C 0.27713 0.94103 0.06622 0.0
H1702 H 0.25262 0.90305 0.0361 0.0
C1703 C 0.21816 0.89603 0.09595 0.0
C1704 C 0.21645 0.88131 0.0985 0.0
C1705 C 0.22958 0.90682 0.08315 0.0
C1706 C 0.25935 0.91361 0.04463 0.0
H1707 H 0.32114 0.99066 0.04017 0.0
H1708 H 0.29549 0.97061 0.05072 0.0
H1709 H 0.27713 0.92343 0.0221 0.0
H1710 H 0.22438 0.86584 0.0886 0.0
H1711 H 0.24437 0.88471 0.06598 0.0
H1712 H 0.25948 0.93129 0.08874 0.0
C1713 C 0.3029 0.96716 0.04315 0.0
C1714 C 0.27344 0.92527 0.0367 0.0
C1715 C 0.3176 0.9787 0.03701 0.0
C1716 C 0.22534 0.87705 0.0866 0.0
C1717 C 0.23683 0.88789 0.07376 0.0
C1718 C 0.26304 0.92951 0.074 0.0
C1719 C 0.29785 0.95143 0.03959 0.0
C1720 C 0.28257 0.93912 0.04746 0.0
C1721 C 0.23958 0.90314 0.07275 0.0
C1722 C 0.25399 0.91564 0.06338 0.0
H1723 H 0.32989 0.95593 0.01496 0.0
H1724 H 0.30443 0.93568 0.02633 0.0
H1725 H 0.28395 0.9513 0.07525 0.0
H1726 H 0.2115 0.89959 0.10511 0.0
H1727 H 0.23122 0.91838 0.0824 0.0
C1728 C 0.35189 0.04441 0.98375 0.0
C1729 C 0.36627 0.04716 0.99095 0.0
C1730 C 0.34984 0.0567 0.9779 0.0
C1731 C 0.36811 0.09986 0.98022 0.0
H1732 H 0.34086 0.09261 0.9347 0.0
C1733 C 0.36554 0.14647 0.9293 0.0
C1734 C 0.35068 0.14303 0.92321 0.0
C1735 C 0.36741 0.13613 0.94168 0.0
C1736 C 0.34836 0.09477 0.9476 0.0
H1737 H 0.38981 0.06492 0.99777 0.0
H1738 H 0.38651 0.08638 0.98668 0.0
H1739 H 0.3444 0.07175 0.94701 0.0
H1740 H 0.32615 0.1269 0.92623 0.0
H1741 H 0.32936 0.10894 0.94796 0.0
H1742 H 0.37255 0.12327 0.97988 0.0
C1743 C 0.37662 0.07478 0.98609 0.0
C1744 C 0.35036 0.08276 0.95476 0.0
C1745 C 0.37858 0.06247 0.99229 0.0
C1746 C 0.3377 0.12985 0.93098 0.0
C1747 C 0.33956 0.11952 0.94321 0.0
C1748 C 0.36628 0.11199 0.97279 0.0
C1749 C 0.36223 0.07207 0.97869 0.0
C1750 C 0.36019 0.08506 0.97125 0.0
C1751 C 0.35443 0.12219 0.94788 0.0
C1752 C 0.35628 0.1095 0.95649 0.0
H1753 H 0.34213 0.03273 0.98281 0.0
H1754 H 0.33847 0.0541 0.97282 0.0
H1755 H 0.37564 0.10207 0.99309 0.0
H1756 H 0.3757 0.15643 0.92314 0.0
H1757 H 0.379 0.13842 0.945 0.0
C1758 C 0.96563 0.3206 0.0048 0.0
C1759 C 0.98097 0.3262 -0.0015 0.0
C1760 C 0.95382 0.306 -0.00144 0.0
C1761 C 0.94542 0.27682 0.95841 0.0
H1762 H 0.90921 0.25094 0.99099 0.0
C1763 C 0.89925 0.21841 0.92835 0.0
C1764 C 0.88436 0.21654 0.9278 0.0
C1765 C 0.91067 0.22964 0.94076 0.0
C1766 C 0.91928 0.25806 0.98177 0.0
H1767 H 0.99613 0.32065 0.98159 0.0
H1768 H 0.97577 0.29506 0.97136 0.0
H1769 H 0.93022 0.27503 0.00511 0.0
H1770 H 0.86933 0.22411 0.94055 0.0
H1771 H 0.88931 0.24375 0.96256 0.0
H1772 H 0.93456 0.25993 0.93513 0.0
C1773 C 0.97265 0.30207 0.9805 0.0
C1774 C 0.93129 0.27191 0.98978 0.0
C1775 C 0.98437 0.31673 0.98646 0.0
C1776 C 0.88068 0.22518 0.94106 0.0
C1777 C 0.89213 0.23645 0.95354 0.0
C1778 C 0.93356 0.26296 0.95055 0.0
C1779 C 0.95714 0.2966 0.9861 0.0
C1780 C 0.9445 0.28152 0.97814 0.0
C1781 C 0.90743 0.23928 0.95276 0.0
C1782 C 0.92033 0.25343 0.96207 0.0
H1783 H 0.96267 0.32768 0.01407 0.0
H1784 H 0.94204 0.30231 0.00301 0.0
H1785 H 0.95514 0.28403 0.94872 0.0
H1786 H 0.90236 0.21199 0.91803 0.0
H1787 H 0.92229 0.2314 0.94005 0.0
C1788 C 0.69207 0.63675 0.98763 0.0
C1789 C 0.69324 0.64817 0.00105 0.0
C1790 C 0.70532 0.63663 0.98113 0.0
C1791 C 0.74783 0.65375 0.99031 0.0
H1792 H 0.74769 0.64439 0.93347 0.0
C1793 C 0.8026 0.67207 0.94106 0.0
C1794 C 0.80136 0.66217 0.92523 0.0
C1795 C 0.78994 0.66816 0.95379 0.0
C1796 C 0.74787 0.64675 0.94947 0.0
H1797 H 0.70917 0.66816 0.01868 0.0
H1798 H 0.73242 0.6683 0.00683 0.0
H1799 H 0.72456 0.64209 0.94865 0.0
H1800 H 0.78651 0.64011 0.91094 0.0
H1801 H 0.76453 0.63303 0.93343 0.0
H1802 H 0.77153 0.65906 0.99066 0.0
C1803 C 0.72124 0.65921 0.00163 0.0
C1804 C 0.73455 0.64542 0.95823 0.0
C1805 C 0.70792 0.6592 0.00835 0.0
C1806 C 0.78776 0.64781 0.92325 0.0
C1807 C 0.77515 0.64388 0.93595 0.0
C1808 C 0.76127 0.65521 0.98145 0.0
C1809 C 0.72014 0.64809 0.98761 0.0
C1810 C 0.73431 0.64894 0.97875 0.0
C1811 C 0.77584 0.65432 0.95073 0.0
C1812 C 0.76143 0.65175 0.96089 0.0
H1813 H 0.6809 0.628 0.98192 0.0
H1814 H 0.70394 0.62764 0.97076 0.0
H1815 H 0.74805 0.65639 0.00621 0.0
H1816 H 0.81288 0.68335 0.94254 0.0
H1817 H 0.79083 0.6765 0.96493 0.0
C1818 C 0.96262 0.65006 0.99748 0.0
C1819 C 0.97826 0.66127 0.9946 0.0
C1820 C 0.95084 0.65302 0.99168 0.0
C1821 C 0.94417 0.67865 0.95767 0.0
H1822 H 0.90511 0.66191 0.98623 0.0
C1823 C 0.8983 0.69195 0.92945 0.0
C1824 C 0.88375 0.67883 0.92601 0.0
C1825 C 0.90911 0.69106 0.94194 0.0
C1826 C 0.91597 0.66666 0.97812 0.0
H1827 H 0.99384 0.68458 0.98414 0.0
H1828 H 0.97344 0.68993 0.97458 0.0
H1829 H 0.92569 0.65788 -0.00031 0.0
H1830 H 0.86863 0.65484 0.93391 0.0
H1831 H 0.88752 0.65323 0.95594 0.0
H1832 H 0.93452 0.68732 0.93607 0.0
C1833 C 0.97016 0.67866 0.98075 0.0
C1834 C 0.92774 0.66429 0.98576 0.0
C1835 C 0.98189 0.67564 0.98634 0.0
C1836 C 0.87969 0.66517 0.93665 0.0
C1837 C 0.89054 0.66425 0.94915 0.0
C1838 C 0.93251 0.68111 0.95018 0.0
C1839 C 0.95445 0.66732 0.98302 0.0
C1840 C 0.94199 0.6702 0.97555 0.0
C1841 C 0.90564 0.67698 0.9511 0.0
C1842 C 0.91824 0.67511 0.96023 0.0
H1843 H 0.95946 0.63887 0.00381 0.0
H1844 H 0.93892 0.64393 0.99346 0.0
H1845 H 0.95478 0.68305 0.94906 0.0
H1846 H 0.90172 0.70256 0.92124 0.0
H1847 H 0.92052 0.70116 0.94345 0.0
C1848 C 0.37555 0.31972 0.00585 0.0
C1849 C 0.36559 0.32488 -0.00107 0.0
C1850 C 0.3729 0.30501 0.00059 0.0
C1851 C 0.34255 0.26667 0.98239 0.0
H1852 H 0.37668 0.26355 0.95969 0.0
C1853 C 0.33403 0.21929 0.92665 0.0
C1854 C 0.34537 0.21498 0.92477 0.0
C1855 C 0.33566 0.23028 0.94092 0.0
C1856 C 0.36706 0.26405 0.96646 0.0
H1857 H 0.34493 0.3186 0.98135 0.0
H1858 H 0.34027 0.29295 0.97226 0.0
H1859 H 0.38146 0.28795 0.97421 0.0
H1860 H 0.36661 0.21773 0.93739 0.0
H1861 H 0.36934 0.23678 0.96283 0.0
H1862 H 0.32809 0.24287 0.97433 0.0
C1863 C 0.35009 0.30023 0.98181 0.0
C1864 C 0.36981 0.2781 0.9747 0.0
C1865 C 0.35283 0.31497 0.98688 0.0
C1866 C 0.35767 0.22082 0.93863 0.0
C1867 C 0.35932 0.23188 0.95298 0.0
C1868 C 0.33982 0.25258 0.97432 0.0
C1869 C 0.36012 0.29509 0.98853 0.0
C1870 C 0.35752 0.27969 0.9822 0.0
C1871 C 0.34868 0.23723 0.95369 0.0
C1872 C 0.35195 0.25121 0.96567 0.0
H1873 H 0.38546 0.32709 0.0152 0.0
H1874 H 0.38079 0.30135 0.00605 0.0
H1875 H 0.33289 0.26746 0.98842 0.0
H1876 H 0.32446 0.21495 0.91608 0.0
H1877 H 0.32727 0.23414 0.94083 0.0
C1878 C 0.70886 0.04709 0.9875 0.0
C1879 C 0.69948 0.04775 0.00281 0.0
C1880 C 0.72316 0.06003 0.98292 0.0
C1881 C 0.74376 0.1024 0.9853 0.0
H1882 H 0.77859 0.09812 0.96825 0.0
C1883 C 0.80886 0.13919 0.94612 0.0
C1884 C 0.80486 0.1455 0.92988 0.0
C1885 C 0.79759 0.12961 0.96014 0.0
C1886 C 0.76912 0.09965 0.97331 0.0
H1887 H 0.69789 0.06241 0.02569 0.0
H1888 H 0.72295 0.08513 0.01763 0.0
H1889 H 0.75602 0.07614 0.98327 0.0
H1890 H 0.78638 0.14762 0.91603 0.0
H1891 H 0.76676 0.13114 0.9405 0.0
H1892 H 0.75675 0.12583 0.97488 0.0
C1893 C 0.71917 0.07458 0.00911 0.0
C1894 C 0.75609 0.08696 0.98169 0.0
C1895 C 0.70487 0.06156 0.01379 0.0
C1896 C 0.78975 0.14304 0.92865 0.0
C1897 C 0.77853 0.13358 0.94268 0.0
C1898 C 0.7568 0.11509 0.97685 0.0
C1899 C 0.72842 0.07401 0.99347 0.0
C1900 C 0.74307 0.08805 0.98727 0.0
C1901 C 0.78215 0.12624 0.95813 0.0
C1902 C 0.76947 0.11375 0.97026 0.0
H1903 H 0.70504 0.03663 0.97875 0.0
H1904 H 0.72985 0.05922 0.97059 0.0
H1905 H 0.73393 0.10364 0.98935 0.0
H1906 H 0.8204 0.14076 0.94715 0.0
H1907 H 0.80079 0.12427 0.97199 0.0
C1908 C 0.65208 0.95832 0.00836 0.0
C1909 C 0.66108 0.97223 0.01894 0.0
C1910 C 0.65307 0.94515 0.01305 0.0
C1911 C 0.67753 0.93228 0.03954 0.0
H1912 H 0.6388 0.8942 0.04849 0.0
C1913 C 0.65515 0.87747 0.09467 0.0
C1914 C 0.66746 0.87453 0.09308 0.0
C1915 C 0.65329 0.88672 0.08041 0.0
C1916 C 0.64972 0.9047 0.04591 0.0
H1917 H 0.6785 0.98338 0.04226 0.0
H1918 H 0.68021 0.96054 0.05041 0.0
H1919 H 0.63854 0.91645 0.03371 0.0
H1920 H 0.68693 0.87807 0.07481 0.0
H1921 H 0.68366 0.89423 0.04963 0.0
H1922 H 0.68867 0.92085 0.05269 0.0
C1923 C 0.67247 0.95976 0.0384 0.0
C1924 C 0.64958 0.91743 0.03728 0.0
C1925 C 0.67141 0.97284 0.03382 0.0
C1926 C 0.67724 0.88006 0.0762 0.0
C1927 C 0.67547 0.88944 0.06196 0.0
C1928 C 0.67767 0.91956 0.04808 0.0
C1929 C 0.66317 0.94569 0.02827 0.0
C1930 C 0.66346 0.93152 0.03457 0.0
C1931 C 0.66382 0.89335 0.06434 0.0
C1932 C 0.66374 0.90575 0.05193 0.0
H1933 H 0.64402 0.9575 0.9968 0.0
H1934 H 0.64583 0.93452 0.00487 0.0
H1935 H 0.68844 0.9429 0.03738 0.0
H1936 H 0.64756 0.87344 0.10769 0.0
H1937 H 0.64429 0.88958 0.08287 0.0
C1938 C 0.06712 0.69934 0.01556 0.0
C1939 C 0.05293 0.69403 0.0256 0.0
C1940 C 0.08023 0.71319 0.02138 0.0
C1941 C 0.09238 0.74966 0.04922 0.0
H1942 H 0.1311 0.75006 0.05701 0.0
C1943 C 0.14825 0.78398 0.10237 0.0
C1944 C 0.1508 0.79907 0.10042 0.0
C1945 C 0.13889 0.77252 0.08854 0.0
C1946 C 0.12041 0.75017 0.05476 0.0
H1947 H 0.04132 0.69916 0.04947 0.0
H1948 H 0.06417 0.72327 0.05966 0.0
H1949 H 0.10883 0.72718 0.04266 0.0
H1950 H 0.14648 0.81434 0.08191 0.0
H1951 H 0.13014 0.79428 0.05745 0.0
H1952 H 0.10369 0.77234 0.06211 0.0
C1953 C 0.06515 0.71682 0.04716 0.0
C1954 C 0.10767 0.7371 0.04643 0.0
C1955 C 0.05208 0.70294 0.04143 0.0
C1956 C 0.14482 0.80281 0.08355 0.0
C1957 C 0.13533 0.79129 0.06974 0.0
C1958 C 0.10512 0.76274 0.05745 0.0
C1959 C 0.07941 0.72209 0.03727 0.0
C1960 C 0.0934 0.73655 0.04404 0.0
C1961 C 0.13175 0.77588 0.07256 0.0
C1962 C 0.11918 0.76302 0.06077 0.0
H1963 H 0.06813 0.69274 0.00327 0.0
H1964 H 0.09101 0.71698 0.01338 0.0
H1965 H 0.08161 0.74968 0.04732 0.0
H1966 H 0.15261 0.78082 0.11543 0.0
H1967 H 0.1363 0.76077 0.09129 0.0
C1968 C 0.32408 0.37112 0.02837 0.0
C1969 C 0.32888 0.36039 0.03263 0.0
C1970 C 0.30955 0.36842 0.03476 0.0
C1971 C 0.2788 0.34518 0.07213 0.0
H1972 H 0.25517 0.35955 0.04181 0.0
C1973 C 0.22068 0.33438 0.10213 0.0
C1974 C 0.2197 0.34784 0.10397 0.0
C1975 C 0.23187 0.33419 0.08965 0.0
C1976 C 0.26164 0.35546 0.0504 0.0
H1977 H 0.32203 0.33816 0.04624 0.0
H1978 H 0.29659 0.33319 0.05683 0.0
H1979 H 0.27918 0.36258 0.02767 0.0
H1980 H 0.22892 0.37135 0.0936 0.0
H1981 H 0.24842 0.37102 0.07146 0.0
H1982 H 0.26136 0.33812 0.09486 0.0
C1983 C 0.30415 0.34393 0.04911 0.0
C1984 C 0.27545 0.35727 0.04238 0.0
C1985 C 0.31873 0.34674 0.04295 0.0
C1986 C 0.22928 0.36074 0.09203 0.0
C1987 C 0.24047 0.36055 0.07946 0.0
C1988 C 0.26496 0.34323 0.08001 0.0
C1989 C 0.29943 0.35483 0.04537 0.0
C1990 C 0.2843 0.35228 0.05325 0.0
C1991 C 0.24234 0.3475 0.07887 0.0
C1992 C 0.25628 0.34845 0.06934 0.0
H1993 H 0.33167 0.38176 0.02044 0.0
H1994 H 0.30645 0.37718 0.03183 0.0
H1995 H 0.2854 0.34151 0.08121 0.0
H1996 H 0.21357 0.3244 0.1115 0.0
H1997 H 0.2329 0.3239 0.08931 0.0
C1998 C 0.71786 0.68436 0.3654 0.0
C1999 C 0.72049 0.69753 0.35452 0.0
C2000 C 0.73022 0.68227 0.37085 0.0
C2001 C 0.7711 0.70367 0.38329 0.0
H2002 H 0.76855 0.66381 0.37815 0.0
C2003 C 0.81593 0.69222 0.42259 0.0
C2004 C 0.80925 0.6783 0.4335 0.0
C2005 C 0.80724 0.69474 0.40798 0.0
C2006 C 0.76945 0.67501 0.37978 0.0
H2007 H 0.7381 0.71879 0.34071 0.0
H2008 H 0.75981 0.7153 0.35072 0.0
H2009 H 0.74871 0.66792 0.36268 0.0
H2010 H 0.78883 0.65568 0.43661 0.0
H2011 H 0.77368 0.66005 0.41163 0.0
H2012 H 0.79127 0.71055 0.4014 0.0
C2013 C 0.74815 0.70656 0.35483 0.0
C2014 C 0.7581 0.67736 0.37086 0.0
C2015 C 0.73573 0.70852 0.34906 0.0
C2016 C 0.79422 0.66656 0.42849 0.0
C2017 C 0.78557 0.66906 0.41401 0.0
C2018 C 0.78236 0.70127 0.39246 0.0
C2019 C 0.7455 0.69342 0.36581 0.0
C2020 C 0.75859 0.69159 0.37295 0.0
C2021 C 0.79175 0.68336 0.40402 0.0
C2022 C 0.78144 0.68676 0.39132 0.0
H2023 H 0.70624 0.67569 0.36978 0.0
H2024 H 0.72786 0.67213 0.37951 0.0
H2025 H 0.77173 0.71474 0.38524 0.0
H2026 H 0.82748 0.70148 0.42621 0.0
H2027 H 0.81247 0.7058 0.40033 0.0
C2028 C 0.33551 0.03347 0.37996 0.0
C2029 C 0.32654 0.02492 0.36335 0.0
C2030 C 0.33661 0.04755 0.38514 0.0
C2031 C 0.31588 0.06913 0.38077 0.0
H2032 H 0.35488 0.10352 0.39921 0.0
C2033 C 0.34456 0.13523 0.41658 0.0
C2034 C 0.33401 0.13199 0.43237 0.0
C2035 C 0.34286 0.12339 0.40361 0.0
C2036 C 0.34394 0.09415 0.39378 0.0
H2037 H 0.31177 0.02449 0.33903 0.0
H2038 H 0.31362 0.04909 0.34817 0.0
H2039 H 0.35412 0.08046 0.38568 0.0
H2040 H 0.31299 0.11427 0.44639 0.0
H2041 H 0.30981 0.09367 0.42363 0.0
H2042 H 0.30564 0.08271 0.38934 0.0
C2043 C 0.31977 0.04486 0.35721 0.0
C2044 C 0.34348 0.08085 0.38627 0.0
C2045 C 0.31876 0.03081 0.35193 0.0
C2046 C 0.32112 0.11706 0.43408 0.0
C2047 C 0.31935 0.10527 0.42106 0.0
C2048 C 0.31632 0.08241 0.38842 0.0
C2049 C 0.32869 0.05338 0.3739 0.0
C2050 C 0.3294 0.06806 0.38005 0.0
C2051 C 0.33055 0.10815 0.4062 0.0
C2052 C 0.33031 0.09497 0.39537 0.0
H2053 H 0.34163 0.02923 0.38906 0.0
H2054 H 0.34341 0.05372 0.39824 0.0
H2055 H 0.30483 0.05945 0.37618 0.0
H2056 H 0.35471 0.14662 0.4152 0.0
H2057 H 0.35159 0.126 0.39217 0.0
C2058 C 0.98742 0.29129 0.34976 0.0
C2059 C 0.99376 0.3049 0.36137 0.0
C2060 C 0.97345 0.27826 0.35541 0.0
C2061 C 0.93847 0.26603 0.38677 0.0
H2062 H 0.93584 0.22597 0.38687 0.0
C2063 C 0.9034 0.20691 0.43379 0.0
C2064 C 0.88869 0.20548 0.43405 0.0
C2065 C 0.91462 0.21681 0.42005 0.0
C2066 C 0.93635 0.23706 0.38681 0.0
H2067 H 0.99036 0.31558 0.38788 0.0
H2068 H 0.96605 0.29286 0.3978 0.0
H2069 H 0.95887 0.24845 0.37325 0.0
H2070 H 0.87374 0.21245 0.41956 0.0
H2071 H 0.89328 0.22965 0.39516 0.0
H2072 H 0.91631 0.25485 0.40113 0.0
C2073 C 0.97177 0.29228 0.3842 0.0
C2074 C 0.9495 0.24992 0.37888 0.0
C2075 C 0.98576 0.30527 0.37861 0.0
C2076 C 0.88495 0.2132 0.41938 0.0
C2077 C 0.89621 0.22319 0.40565 0.0
C2078 C 0.92531 0.25318 0.39462 0.0
C2079 C 0.96547 0.27859 0.37272 0.0
C2080 C 0.95087 0.26463 0.37922 0.0
C2081 C 0.91137 0.22561 0.40641 0.0
C2082 C 0.92423 0.23859 0.39516 0.0
H2083 H 0.9933 0.29066 0.33636 0.0
H2084 H 0.96886 0.26795 0.34615 0.0
H2085 H 0.93906 0.27715 0.38699 0.0
H2086 H 0.90659 0.20126 0.44525 0.0
H2087 H 0.92618 0.21847 0.42123 0.0
C2088 C 0.01263 0.37507 0.32039 0.0
C2089 C 0.02674 0.37877 0.32965 0.0
C2090 C 0.00959 0.38672 0.31455 0.0
C2091 C 0.0231 0.42884 0.32051 0.0
H2092 H 1.00218 0.4228 0.26914 0.0
C2093 C 0.02398 0.47756 0.27127 0.0
C2094 C 0.01088 0.47362 0.25934 0.0
C2095 C 0.02436 0.46651 0.28393 0.0
C2096 C 1.00778 0.4246 0.28371 0.0
H2097 H 0.04865 0.39761 0.34034 0.0
H2098 H 0.04356 0.41803 0.32958 0.0
H2099 H 1.00618 0.40251 0.28252 0.0
H2100 H 0.9875 0.45564 0.25247 0.0
H2101 H 0.98792 0.4365 0.27497 0.0
H2102 H 0.02516 0.4513 0.3211 0.0
C2103 C 0.03468 0.4061 0.3272 0.0
C2104 C 0.01009 0.41291 0.29142 0.0
C2105 C 0.03766 0.3944 0.33324 0.0
C2106 C 0.99768 0.45897 0.26167 0.0
C2107 C 0.99802 0.44797 0.27433 0.0
C2108 C 0.02088 0.44063 0.31267 0.0
C2109 C 0.02065 0.40242 0.31758 0.0
C2110 C 0.01781 0.41485 0.3099 0.0
C2111 C 0.01163 0.45134 0.28478 0.0
C2112 C 0.0132 0.43864 0.29415 0.0
H2113 H 1.00392 0.36312 0.31762 0.0
H2114 H 0.99853 0.38339 0.3076 0.0
H2115 H 0.02893 0.43069 0.3349 0.0
H2116 H 0.03439 0.4887 0.26943 0.0
H2117 H 0.03504 0.46948 0.29173 0.0
C2118 C 0.6336 0.65342 0.33506 0.0
C2119 C 0.64861 0.65952 0.3272 0.0
C2120 C 0.62181 0.63864 0.32937 0.0
C2121 C 0.61237 0.60945 0.2887 0.0
H2122 H 0.57793 0.58303 0.32364 0.0
C2123 C 0.56669 0.55016 0.26109 0.0
C2124 C 0.55175 0.5482 0.26075 0.0
C2125 C 0.57819 0.56152 0.27327 0.0
C2126 C 0.58752 0.59029 0.31378 0.0
H2127 H 0.66328 0.6547 0.30808 0.0
H2128 H 0.64307 0.62878 0.29888 0.0
H2129 H 0.59906 0.60754 0.33665 0.0
H2130 H 0.53672 0.55564 0.27383 0.0
H2131 H 0.55685 0.57546 0.29551 0.0
H2132 H 0.60094 0.59222 0.26594 0.0
C2133 C 0.64009 0.63553 0.30877 0.0
C2134 C 0.59958 0.60439 0.32115 0.0
C2135 C 0.65176 0.65038 0.31414 0.0
C2136 C 0.54809 0.55677 0.27417 0.0
C2137 C 0.55963 0.56815 0.28645 0.0
C2138 C 0.6005 0.59532 0.28151 0.0
C2139 C 0.62485 0.62954 0.31594 0.0
C2140 C 0.61215 0.61422 0.30864 0.0
C2141 C 0.57497 0.57116 0.28529 0.0
C2142 C 0.58792 0.58561 0.2939 0.0
H2143 H 0.63085 0.66024 0.34515 0.0
H2144 H 0.61023 0.63457 0.33505 0.0
H2145 H 0.62152 0.61679 0.27834 0.0
H2146 H 0.56979 0.5438 0.25065 0.0
H2147 H 0.58987 0.56346 0.27225 0.0
C2148 C 0.3706 0.97845 0.34149 0.0
C2149 C 0.36664 0.98977 0.33692 0.0
C2150 C 0.38503 0.9805 0.3358 0.0
C2151 C 0.42461 0.01003 0.32086 0.0
H2152 H 0.42423 0.97737 0.2888 0.0
C2153 C 0.47135 0.0216 0.2625 0.0
C2154 C 0.47462 0.00994 0.25713 0.0
C2155 C 0.46021 0.01891 0.27709 0.0
C2156 C 0.42469 0.98649 0.29815 0.0
H2157 H 0.37483 0.01231 0.32339 0.0
H2158 H 0.40006 0.01598 0.31373 0.0
H2159 H 0.40054 0.97301 0.30524 0.0
H2160 H 0.46962 0.98668 0.26382 0.0
H2161 H 0.45026 0.98201 0.28983 0.0
H2162 H 0.44868 0.02362 0.31359 0.0
C2163 C 0.39203 1.00552 0.32168 0.0
C2164 C 0.41106 0.98399 0.3075 0.0
C2165 C 0.37754 1.00337 0.32709 0.0
C2166 C 0.46733 0.99588 0.26773 0.0
C2167 C 0.45613 0.99316 0.28242 0.0
C2168 C 0.43829 0.01248 0.31171 0.0
C2169 C 0.39586 0.99403 0.32574 0.0
C2170 C 0.41077 0.99591 0.31841 0.0
C2171 C 0.45206 1.00448 0.2868 0.0
C2172 C 0.43839 1.00093 0.29964 0.0
H2173 H 0.36242 0.96784 0.34904 0.0
H2174 H 0.3877 0.97148 0.33918 0.0
H2175 H 0.42478 0.01934 0.32947 0.0
H2176 H 0.47686 0.03258 0.25461 0.0
H2177 H 0.45735 0.02788 0.27981 0.0
C2178 C 0.62929 0.98349 0.3278 0.0
C2179 C 0.64491 0.99436 0.32411 0.0
C2180 C 0.61758 0.98651 0.32194 0.0
C2181 C 0.61063 0.0112 0.28658 0.0
H2182 H 0.57222 0.99566 0.31637 0.0
C2183 C 0.56343 0.02234 0.25726 0.0
C2184 C 0.54901 0.00886 0.25492 0.0
C2185 C 0.57472 0.02234 0.26977 0.0
C2186 C 0.5829 1.00009 0.30793 0.0
H2187 H 0.66058 0.01716 0.31214 0.0
H2188 H 0.64028 0.02265 0.30246 0.0
H2189 H 0.59307 0.9922 0.33004 0.0
H2190 H 0.53464 0.98512 0.26442 0.0
H2191 H 0.5543 0.9851 0.28654 0.0
H2192 H 0.60049 0.01895 0.26443 0.0
C2193 C 0.63696 0.01158 0.30932 0.0
C2194 C 0.59483 0.99804 0.31568 0.0
C2195 C 0.64863 0.00848 0.31496 0.0
C2196 C 0.54559 0.99573 0.26639 0.0
C2197 C 0.55688 0.99573 0.27896 0.0
C2198 C 0.59881 0.01336 0.27896 0.0
C2199 C 0.62125 1.00055 0.31244 0.0
C2200 C 0.6088 1.00343 0.30498 0.0
C2201 C 0.5718 0.00882 0.28003 0.0
C2202 C 0.58475 0.00771 0.28943 0.0
H2203 H 0.62609 0.9725 0.33482 0.0
H2204 H 0.60565 0.97765 0.32436 0.0
H2205 H 0.62103 0.0152 0.27764 0.0
H2206 H 0.56636 0.0325 0.24826 0.0
H2207 H 0.58603 0.03266 0.2705 0.0
C2208 C 0.02055 0.64936 0.32271 0.0
C2209 C 0.03365 0.66085 0.33286 0.0
C2210 C 0.01929 0.63512 0.31809 0.0
C2211 C 0.04253 0.61727 0.30718 0.0
H2212 H 1.00389 0.57881 0.31464 0.0
C2213 C 0.03427 0.56095 0.27212 0.0
C2214 C 0.02032 0.55262 0.26146 0.0
C2215 C 0.03614 0.57229 0.28616 0.0
C2216 C 0.01476 0.58943 0.31238 0.0
H2217 H 0.0557 0.66642 0.3462 0.0
H2218 H 0.05364 0.64159 0.33766 0.0
H2219 H 1.00673 0.60284 0.3281 0.0
H2220 H 0.99711 0.54876 0.25785 0.0
H2221 H 1.00025 0.5684 0.28201 0.0
H2222 H 0.05032 0.60415 0.29046 0.0
C2223 C 0.04431 0.6436 0.33345 0.0
C2224 C 0.01638 0.60319 0.32013 0.0
C2225 C 0.04546 0.65778 0.33836 0.0
C2226 C 1.00792 0.55494 0.26611 0.0
C2227 C 0.00976 0.56622 0.28001 0.0
C2228 C 0.04086 0.60354 0.29919 0.0
C2229 C 0.0312 0.63212 0.32326 0.0
C2230 C 0.03015 0.6173 0.31719 0.0
C2231 C 0.02409 0.5755 0.28966 0.0
C2232 C 0.02679 0.58949 0.3012 0.0
H2233 H 0.01125 0.65138 0.31832 0.0
H2234 H 0.00914 0.62657 0.31001 0.0
H2235 H 0.05325 0.628 0.30459 0.0
H2236 H 0.04404 0.55946 0.26858 0.0
H2237 H 0.04724 0.57901 0.29355 0.0
C2238 C 0.37747 0.38074 0.32323 0.0
C2239 C 0.36791 0.38161 0.33811 0.0
C2240 C 0.39165 0.39374 0.31834 0.0
C2241 C 0.4112 0.4361 0.31861 0.0
H2242 H 0.44671 0.43262 0.30265 0.0
C2243 C 0.47583 0.47338 0.27843 0.0
C2244 C 0.47135 0.47878 0.26165 0.0
C2245 C 0.46483 0.464 0.29285 0.0
C2246 C 0.43704 0.43393 0.3074 0.0
H2247 H 0.36592 0.39668 0.35997 0.0
H2248 H 0.39075 0.41945 0.35139 0.0
H2249 H 0.42457 0.41069 0.31851 0.0
H2250 H 0.45229 0.47959 0.24732 0.0
H2251 H 0.43314 0.46345 0.27244 0.0
H2252 H 0.42353 0.45922 0.30703 0.0
C2253 C 0.38721 0.40872 0.34342 0.0
C2254 C 0.42426 0.42127 0.31627 0.0
C2255 C 0.37303 0.39566 0.3484 0.0
C2256 C 0.45602 0.47566 0.26028 0.0
C2257 C 0.44507 0.46642 0.2747 0.0
C2258 C 0.42397 0.44875 0.30969 0.0
C2259 C 0.3966 0.40795 0.32815 0.0
C2260 C 0.411 0.42205 0.32145 0.0
C2261 C 0.4492 0.45997 0.29073 0.0
C2262 C 0.43687 0.44768 0.30346 0.0
H2263 H 0.37385 0.37009 0.31501 0.0
H2264 H 0.39847 0.39278 0.30631 0.0
H2265 H 0.40116 0.43709 0.32234 0.0
H2266 H 0.48757 0.4755 0.27964 0.0
H2267 H 0.4684 0.45933 0.30514 0.0
C2268 C 0.32761 0.30152 0.37987 0.0
C2269 C 0.32954 0.30695 0.35991 0.0
C2270 C 0.32906 0.28868 0.38459 0.0
C2271 C 0.34751 0.26686 0.3695 0.0
H2272 H 0.31592 0.23466 0.40297 0.0
C2273 C 0.35683 0.22682 0.42329 0.0
C2274 C 0.34449 0.21175 0.42648 0.0
C2275 C 0.35534 0.23663 0.40958 0.0
C2276 C 0.32473 0.24339 0.39332 0.0
H2277 H 0.33475 0.30335 0.32929 0.0
H2278 H 0.33769 0.28102 0.33772 0.0
H2279 H 0.31233 0.25566 0.39071 0.0
H2280 H 0.32137 0.19471 0.41705 0.0
H2281 H 0.3187 0.21186 0.39298 0.0
H2282 H 0.36024 0.2549 0.37294 0.0
C2283 C 0.3349 0.28667 0.3496 0.0
C2284 C 0.32273 0.2555 0.3865 0.0
C2285 C 0.33317 0.29939 0.3448 0.0
C2286 C 0.33112 0.20621 0.41458 0.0
C2287 C 0.32954 0.21608 0.40101 0.0
C2288 C 0.34963 0.25483 0.37661 0.0
C2289 C 0.33271 0.28111 0.36952 0.0
C2290 C 0.33422 0.26751 0.37485 0.0
C2291 C 0.34137 0.2316 0.39906 0.0
C2292 C 0.33835 0.24309 0.38887 0.0
H2293 H 0.3248 0.30709 0.39184 0.0
H2294 H 0.32748 0.28474 0.40011 0.0
H2295 H 0.35657 0.27601 0.36059 0.0
H2296 H 0.36714 0.23139 0.43258 0.0
H2297 H 0.36461 0.24854 0.40855 0.0
C2298 C 0.71618 0.03465 0.37631 0.0
C2299 C 0.717 0.02807 0.35793 0.0
C2300 C 0.72845 0.0489 0.38264 0.0
C2301 C 0.77046 0.07464 0.37594 0.0
H2302 H 0.76272 0.1034 0.406 0.0
C2303 C 0.80454 0.1357 0.42502 0.0
C2304 C 0.81364 0.13177 0.43703 0.0
C2305 C 0.79423 0.12513 0.41082 0.0
C2306 C 0.76515 0.09567 0.39731 0.0
H2307 H 0.73124 0.0314 0.3316 0.0
H2308 H 0.75267 0.05636 0.34259 0.0
H2309 H 0.7412 0.08087 0.39011 0.0
H2310 H 0.81992 0.11433 0.44293 0.0
H2311 H 0.80215 0.09598 0.41821 0.0
H2312 H 0.79439 0.08936 0.38336 0.0
C2313 C 0.7426 0.05042 0.35223 0.0
C2314 C 0.75276 0.08262 0.38845 0.0
C2315 C 0.7303 0.03614 0.34589 0.0
C2316 C 0.81307 0.11763 0.4337 0.0
C2317 C 0.8029 0.10715 0.41949 0.0
C2318 C 0.78285 0.0877 0.3848 0.0
C2319 C 0.74186 0.05694 0.37073 0.0
C2320 C 0.7552 0.07173 0.37811 0.0
C2321 C 0.79296 0.11053 0.40835 0.0
C2322 C 0.7803 0.09816 0.39606 0.0
H2323 H 0.7061 0.02871 0.38594 0.0
H2324 H 0.72757 0.05343 0.39713 0.0
H2325 H 0.77278 0.06649 0.36816 0.0
H2326 H 0.8047 0.1465 0.4275 0.0
H2327 H 0.78684 0.12814 0.40232 0.0
C2328 C 0.98644 0.70284 0.35133 0.0
C2329 C 0.9926 0.69431 0.36024 0.0
C2330 C 0.97171 0.70008 0.35673 0.0
C2331 C 0.93492 0.67119 0.38078 0.0
H2332 H 0.93117 0.70673 0.3955 0.0
C2333 C 0.8899 0.66795 0.43707 0.0
C2334 C 0.88461 0.67856 0.43589 0.0
C2335 C 0.90048 0.66833 0.423 0.0
C2336 C 0.93183 0.69665 0.391 0.0
H2337 H 0.98802 0.676 0.38149 0.0
H2338 H 0.96234 0.67117 0.39088 0.0
H2339 H 0.95509 0.71061 0.38036 0.0
H2340 H 0.88533 0.69718 0.41841 0.0
H2341 H 0.90375 0.69774 0.39339 0.0
H2342 H 0.9118 0.65722 0.39184 0.0
C2343 C 0.96884 0.67992 0.37963 0.0
C2344 C 0.94561 0.6989 0.38238 0.0
C2345 C 0.98361 0.68277 0.37436 0.0
C2346 C 0.88918 0.68881 0.41951 0.0
C2347 C 0.89986 0.68924 0.40538 0.0
C2348 C 0.92111 0.66894 0.38928 0.0
C2349 C 0.96276 0.68862 0.37101 0.0
C2350 C 0.94747 0.6862 0.37771 0.0
C2351 C 0.90608 0.67938 0.40741 0.0
C2352 C 0.91955 0.68165 0.39506 0.0
H2353 H 0.99309 0.71179 0.34036 0.0
H2354 H 0.96731 0.7069 0.34973 0.0
H2355 H 0.93589 0.66117 0.37698 0.0
H2356 H 0.88659 0.65999 0.44967 0.0
H2357 H 0.90508 0.66066 0.42525 0.0
C2358 C 0.40058 0.04244 0.6871 0.0
C2359 C 0.3853 0.03039 0.69021 0.0
C2360 C 0.41314 0.04056 0.69229 0.0
C2361 C 0.42421 0.01108 0.70288 0.0
H2362 H 0.45588 0.04253 0.73709 0.0
C2363 C 0.46107 0.9984 0.75724 0.0
C2364 C 0.47577 0.01027 0.76325 0.0
C2365 C 0.45225 1.00131 0.74347 0.0
C2366 C 0.4474 0.03378 0.72713 0.0
H2367 H 0.3712 0.0068 0.70073 0.0
H2368 H 0.39311 1.00347 0.70963 0.0
H2369 H 0.43593 0.04681 0.72251 0.0
H2370 H 0.49329 0.03418 0.75847 0.0
H2371 H 0.478 0.03927 0.73387 0.0
H2372 H 0.4355 0.99794 0.70768 0.0
C2373 C 0.39539 0.01436 0.70314 0.0
C2374 C 0.43589 0.03622 0.71885 0.0
C2375 C 0.38284 0.0163 0.69817 0.0
C2376 C 0.48201 0.02482 0.754 0.0
C2377 C 0.47315 0.02776 0.74014 0.0
C2378 C 0.4358 0.0087 0.71098 0.0
C2379 C 0.41068 0.02652 0.70046 0.0
C2380 C 0.42393 0.02472 0.70711 0.0
C2381 C 0.45792 0.01618 0.7353 0.0
C2382 C 0.44728 0.01982 0.72374 0.0
H2383 H 0.40284 0.05343 0.68097 0.0
H2384 H 0.42478 0.0501 0.68995 0.0
H2385 H 0.41529 1.00212 0.69358 0.0
H2386 H 0.456 0.98707 0.76418 0.0
H2387 H 0.44056 0.99211 0.74035 0.0
C2388 C 0.01361 0.37355 0.70285 0.0
C2389 C 0.99938 0.36361 0.69353 0.0
C2390 C 0.01737 0.38851 0.70851 0.0
C2391 C 1.00569 0.4185 0.70242 0.0
H2392 H 0.02571 0.43204 0.75456 0.0
C2393 C 1.00522 0.46608 0.75254 0.0
C2394 C 0.01811 0.47474 0.76502 0.0
C2395 C 1.00481 0.45475 0.73963 0.0
C2396 C 0.02039 0.42861 0.73978 0.0
H2397 H 0.97805 0.36165 0.68238 0.0
H2398 H 0.98436 0.3876 0.69281 0.0
H2399 H 0.02116 0.40768 0.74069 0.0
H2400 H 0.04116 0.47945 0.77265 0.0
H2401 H 0.04068 0.46006 0.74974 0.0
H2402 H 1.00442 0.43933 0.70212 0.0
C2403 C 0.9928 0.384 0.6954 0.0
C2404 C 0.01777 0.41459 0.73179 0.0
C2405 C 0.98912 0.36907 0.68954 0.0
C2406 C 0.03113 0.47294 0.76306 0.0
C2407 C 0.03076 0.46172 0.75014 0.0
C2408 C 1.00823 0.43255 0.71054 0.0
C2409 C 1.0069 0.39385 0.70522 0.0
C2410 C 0.01032 0.40926 0.71305 0.0
C2411 C 0.0173 0.45195 0.73908 0.0
C2412 C 0.01556 0.43773 0.72937 0.0
H2413 H 0.02183 0.36973 0.70593 0.0
H2414 H 0.02848 0.39586 0.71563 0.0
H2415 H 1.00009 0.41487 0.68784 0.0
H2416 H 0.99497 0.46712 0.75406 0.0
H2417 H 0.99425 0.4474 0.73136 0.0
C2418 C 0.65529 0.62663 0.69316 0.0
C2419 C 0.66053 0.64221 0.69779 0.0
C2420 C 0.64059 0.61501 0.69937 0.0
C2421 C 0.61001 0.60797 0.73676 0.0
H2422 H 0.58525 0.57071 0.7054 0.0
C2423 C 0.55107 0.56251 0.76601 0.0
C2424 C 0.54935 0.54773 0.76779 0.0
C2425 C 0.56243 0.57356 0.7534 0.0
C2426 C 0.59204 0.58107 0.71428 0.0
H2427 H 0.65431 0.65791 0.71189 0.0
H2428 H 0.62859 0.63782 0.72217 0.0
H2429 H 0.60982 0.59124 0.69179 0.0
H2430 H 0.55723 0.53247 0.75682 0.0
H2431 H 0.5771 0.55179 0.73452 0.0
H2432 H 0.59237 0.59787 0.75924 0.0
C2433 C 0.63593 0.63442 0.7143 0.0
C2434 C 0.60617 0.59281 0.70657 0.0
C2435 C 0.65067 0.64598 0.70832 0.0
C2436 C 0.55819 0.54372 0.75538 0.0
C2437 C 0.56961 0.55481 0.74273 0.0
C2438 C 0.59589 0.59637 0.74433 0.0
C2439 C 0.63074 0.61874 0.71016 0.0
C2440 C 0.6154 0.60639 0.71779 0.0
C2441 C 0.57237 0.57008 0.74244 0.0
C2442 C 0.58675 0.58275 0.73326 0.0
H2443 H 0.66265 0.62338 0.68505 0.0
H2444 H 0.63712 0.60309 0.69612 0.0
H2445 H 0.6169 0.61803 0.74611 0.0
H2446 H 0.54449 0.56588 0.77564 0.0
H2447 H 0.56411 0.58514 0.75322 0.0
C2448 C 0.70606 0.72801 0.66499 0.0
C2449 C 0.69623 0.71245 0.65964 0.0
C2450 C 0.70321 0.73954 0.65783 0.0
C2451 C 0.68229 0.7467 0.61675 0.0
H2452 H 0.69108 0.78287 0.64842 0.0
C2453 C 0.66876 0.79129 0.58426 0.0
C2454 C 0.68123 0.80653 0.58451 0.0
C2455 C 0.66882 0.7801 0.59681 0.0
C2456 C 0.68859 0.77283 0.63941 0.0
H2457 H 0.67541 0.69671 0.64319 0.0
H2458 H 0.6702 0.71666 0.63115 0.0
H2459 H 0.69484 0.76258 0.66339 0.0
H2460 H 0.70302 0.82235 0.5988 0.0
H2461 H 0.70316 0.80275 0.62093 0.0
H2462 H 0.67615 0.75689 0.59278 0.0
C2463 C 0.68037 0.72009 0.6404 0.0
C2464 C 0.69081 0.76123 0.64793 0.0
C2465 C 0.68331 0.70862 0.64738 0.0
C2466 C 0.69317 0.81071 0.59864 0.0
C2467 C 0.69326 0.79946 0.61121 0.0
C2468 C 0.67998 0.75818 0.60833 0.0
C2469 C 0.69039 0.73575 0.64529 0.0
C2470 C 0.68773 0.74802 0.63666 0.0
C2471 C 0.68143 0.78389 0.60972 0.0
C2472 C 0.68311 0.7714 0.61951 0.0
H2473 H 0.71612 0.73131 0.67442 0.0
H2474 H 0.71128 0.75147 0.66173 0.0
H2475 H 0.68016 0.73693 0.60739 0.0
H2476 H 0.65951 0.78781 0.57334 0.0
H2477 H 0.6594 0.76827 0.59559 0.0
C2478 C 0.30666 0.99005 0.64169 0.0
C2479 C 0.30907 0.99486 0.66195 0.0
C2480 C 0.29316 0.9766 0.63588 0.0
C2481 C 0.26084 0.93975 0.65477 0.0
H2482 H 0.24125 0.94139 0.60499 0.0
C2483 C 0.21758 0.88618 0.60831 0.0
C2484 C 0.2066 0.88737 0.5964 0.0
C2485 C 0.22781 0.89856 0.62056 0.0
C2486 C 0.24637 0.94074 0.61912 0.0
H2487 H 0.29934 0.98916 0.6921 0.0
H2488 H 0.27571 0.9656 0.68192 0.0
H2489 H 0.26403 0.96453 0.61723 0.0
H2490 H 0.19681 0.90175 0.58893 0.0
H2491 H 0.21423 0.92316 0.61085 0.0
H2492 H 0.24317 0.91583 0.65647 0.0
C2493 C 0.28431 0.97223 0.67055 0.0
C2494 C 0.25961 0.95399 0.62597 0.0
C2495 C 0.29781 0.98575 0.67636 0.0
C2496 C 0.20505 0.90051 0.59825 0.0
C2497 C 0.21519 0.91284 0.61055 0.0
C2498 C 0.24758 0.92642 0.64784 0.0
C2499 C 0.28175 0.9676 0.65019 0.0
C2500 C 0.26715 0.95361 0.6437 0.0
C2501 C 0.22723 0.91234 0.62099 0.0
C2502 C 0.24028 0.92672 0.6298 0.0
H2503 H 0.31514 0.99679 0.63023 0.0
H2504 H 0.29167 0.97323 0.62012 0.0
H2505 H 0.26641 0.93907 0.66847 0.0
H2506 H 0.21919 0.87628 0.60673 0.0
H2507 H 0.23697 0.89779 0.62828 0.0
C2508 C 0.03629 0.32819 0.64638 0.0
C2509 C 0.02877 0.32054 0.66425 0.0
C2510 C 0.0503 0.3293 0.64075 0.0
C2511 C 0.07337 0.31038 0.64626 0.0
H2512 H 0.10632 0.34909 0.62485 0.0
C2513 C 0.12012 0.31578 0.5904 0.0
C2514 C 0.13486 0.32906 0.59111 0.0
C2515 C 0.10868 0.31381 0.60421 0.0
C2516 C 0.09737 0.33825 0.6311 0.0
H2517 H 0.03002 0.30799 0.69021 0.0
H2518 H 0.05449 0.30973 0.68015 0.0
H2519 H 0.08327 0.34801 0.63902 0.0
H2520 H 0.14958 0.35023 0.60736 0.0
H2521 H 0.12959 0.3468 0.6317 0.0
H2522 H 0.08731 0.30051 0.63769 0.0
C2523 C 0.04952 0.31491 0.67058 0.0
C2524 C 0.08408 0.3376 0.639 0.0
C2525 C 0.03556 0.31397 0.67635 0.0
C2526 C 0.13836 0.33978 0.60675 0.0
C2527 C 0.12686 0.3379 0.62048 0.0
C2528 C 0.08663 0.31099 0.63815 0.0
C2529 C 0.05707 0.32265 0.65274 0.0
C2530 C 0.07179 0.3236 0.64629 0.0
C2531 C 0.11172 0.32521 0.61882 0.0
C2532 C 0.09867 0.32488 0.63015 0.0
H2533 H 0.03135 0.33337 0.63673 0.0
H2534 H 0.05573 0.33516 0.62679 0.0
H2535 H 0.06408 0.29942 0.65172 0.0
H2536 H 0.11711 0.3075 0.57823 0.0
H2537 H 0.09713 0.30398 0.60238 0.0
C2538 C 0.31565 0.34395 0.65094 0.0
C2539 C 0.31187 0.33029 0.66139 0.0
C2540 C 0.30409 0.34717 0.64514 0.0
C2541 C 0.26225 0.33496 0.65231 0.0
H2542 H 0.26758 0.35358 0.59942 0.0
C2543 C 0.21327 0.33339 0.60237 0.0
C2544 C 0.21737 0.34629 0.59001 0.0
C2545 C 0.22431 0.33305 0.61516 0.0
C2546 C 0.26599 0.34862 0.61438 0.0
H2547 H 0.29304 0.30941 0.67435 0.0
H2548 H 0.27275 0.31471 0.6636 0.0
H2549 H 0.28781 0.34959 0.61314 0.0
H2550 H 0.23559 0.36941 0.58254 0.0
H2551 H 0.25473 0.369 0.60513 0.0
H2552 H 0.23999 0.33344 0.6529 0.0
C2553 C 0.28468 0.32316 0.66027 0.0
C2554 C 0.27765 0.34634 0.62231 0.0
C2555 C 0.29631 0.32005 0.66633 0.0
C2556 C 0.23216 0.35937 0.59202 0.0
C2557 C 0.24314 0.35905 0.60476 0.0
C2558 C 0.25046 0.33711 0.64423 0.0
C2559 C 0.2884 0.33667 0.64933 0.0
C2560 C 0.27599 0.33948 0.64138 0.0
C2561 C 0.23959 0.3456 0.61567 0.0
C2562 C 0.25223 0.34399 0.62516 0.0
H2563 H 0.32757 0.35215 0.64712 0.0
H2564 H 0.3075 0.35788 0.6372 0.0
H2565 H 0.2606 0.3298 0.66714 0.0
H2566 H 0.202 0.32309 0.60083 0.0
H2567 H 0.22123 0.32251 0.62335 0.0
C2568 C 0.68673 0.97796 0.66061 0.0
C2569 C 0.7 0.98871 0.67121 0.0
C2570 C 0.68477 0.96355 0.6552 0.0
C2571 C 0.70685 0.94465 0.643 0.0
H2572 H 0.66707 0.90695 0.64701 0.0
C2573 C 0.69703 0.88928 0.60339 0.0
C2574 C 0.68348 0.88223 0.59168 0.0
C2575 C 0.69894 0.89999 0.61842 0.0
C2576 C 0.67826 0.91737 0.64574 0.0
H2577 H 0.72154 0.99276 0.68466 0.0
H2578 H 0.71822 0.96766 0.67485 0.0
H2579 H 0.67065 0.93073 0.66243 0.0
H2580 H 0.66086 0.87977 0.58746 0.0
H2581 H 0.66412 0.89839 0.6133 0.0
H2582 H 0.71427 0.93164 0.62535 0.0
C2583 C 0.70932 0.97037 0.67084 0.0
C2584 C 0.6803 0.93097 0.6546 0.0
C2585 C 0.71119 0.98471 0.67649 0.0
C2586 C 0.67141 0.88506 0.59633 0.0
C2587 C 0.67329 0.89572 0.61125 0.0
C2588 C 0.70477 0.93109 0.63393 0.0
C2589 C 0.69612 0.95967 0.66006 0.0
C2590 C 0.6945 0.94484 0.65289 0.0
C2591 C 0.68732 0.90381 0.62195 0.0
C2592 C 0.69031 0.91736 0.63469 0.0
H2593 H 0.67791 0.98071 0.65637 0.0
H2594 H 0.67456 0.95562 0.64669 0.0
H2595 H 0.71791 0.95519 0.64132 0.0
H2596 H 0.70653 0.88733 0.59999 0.0
H2597 H 0.70979 0.9058 0.62662 0.0
C2598 C 0.04367 0.70632 0.6605 0.0
C2599 C 0.0335 0.71027 0.66985 0.0
C2600 C 0.05859 0.71778 0.65498 0.0
C2601 C 0.08802 0.75977 0.66084 0.0
H2602 H 0.10132 0.75356 0.60842 0.0
C2603 C 0.13431 0.8083 0.60979 0.0
C2604 C 0.14296 0.80431 0.59697 0.0
C2605 C 0.12337 0.7973 0.62301 0.0
C2606 C 0.09798 0.7554 0.62327 0.0
H2607 H 0.03113 0.72929 0.68132 0.0
H2608 H 0.05701 0.74939 0.67112 0.0
H2609 H 0.07731 0.73339 0.62269 0.0
H2610 H 0.1481 0.78636 0.58909 0.0
H2611 H 0.12941 0.7673 0.61255 0.0
H2612 H 0.10857 0.78218 0.6608 0.0
C2613 C 0.05362 0.73741 0.6684 0.0
C2614 C 0.08415 0.74377 0.63151 0.0
C2615 C 0.03873 0.7259 0.67415 0.0
C2616 C 0.1416 0.7897 0.59893 0.0
C2617 C 0.13077 0.77876 0.61217 0.0
C2618 C 0.10188 0.7715 0.65248 0.0
C2619 C 0.06365 0.73353 0.65839 0.0
C2620 C 0.0789 0.74578 0.65035 0.0
C2621 C 0.12094 0.78215 0.62356 0.0
C2622 C 0.10698 0.76946 0.63355 0.0
H2623 H 0.04003 0.69436 0.65719 0.0
H2624 H 0.06608 0.71428 0.64777 0.0
H2625 H 0.08445 0.76167 0.67548 0.0
H2626 H 0.13501 0.81943 0.60829 0.0
H2627 H 0.11597 0.80028 0.63153 0.0
C2628 C 0.9889 0.62656 0.68037 0.0
C2629 C 0.98953 0.63697 0.69517 0.0
C2630 C 0.98927 0.61323 0.68593 0.0
C2631 C 0.98201 0.58716 0.72924 0.0
H2632 H 0.01005 0.57672 0.70228 0.0
C2633 C 0.98947 0.53762 0.75914 0.0
C2634 C 1.005 0.5422 0.76295 0.0
C2635 C 0.98573 0.54636 0.74621 0.0
C2636 C 1.00207 0.57941 0.70985 0.0
H2637 H 0.99106 0.64156 0.72734 0.0
H2638 H 0.99171 0.61837 0.73701 0.0
H2639 H 1.00721 0.59819 0.68971 0.0
H2640 H 0.02877 0.55876 0.75555 0.0
H2641 H 0.02236 0.57394 0.73282 0.0
H2642 H 0.97734 0.56891 0.7499 0.0
C2643 C 0.99078 0.62041 0.72113 0.0
C2644 C 1.00038 0.59165 0.70258 0.0
C2645 C 0.99053 0.63376 0.71559 0.0
C2646 C 0.0167 0.55489 0.75249 0.0
C2647 C 0.01299 0.56358 0.73952 0.0
C2648 C 0.98363 0.5749 0.73642 0.0
C2649 C 0.99013 0.60997 0.70639 0.0
C2650 C 0.99063 0.59591 0.71254 0.0
C2651 C 0.9975 0.55983 0.73694 0.0
C2652 C 0.99396 0.57111 0.72713 0.0
H2653 H 0.98812 0.62873 0.66451 0.0
H2654 H 0.9887 0.60537 0.67424 0.0
H2655 H 0.97424 0.59002 0.73707 0.0
H2656 H 0.98029 0.52801 0.76734 0.0
H2657 H 0.97368 0.54307 0.74435 0.0
C2658 C 0.38614 0.36522 0.71288 0.0
C2659 C 0.38491 0.36064 0.69258 0.0
C2660 C 0.39934 0.37846 0.71981 0.0
C2661 C 0.43208 0.41566 0.704 0.0
H2662 H 0.44913 0.41327 0.75563 0.0
C2663 C 0.46955 0.46806 0.75557 0.0
C2664 C 0.48079 0.46762 0.76782 0.0
C2665 C 0.46053 0.45581 0.74245 0.0
C2666 C 0.44472 0.41412 0.74103 0.0
H2667 H 0.39647 0.36652 0.66353 0.0
H2668 H 0.41958 0.38989 0.67567 0.0
H2669 H 0.42776 0.39002 0.74093 0.0
H2670 H 0.49204 0.45461 0.77547 0.0
H2671 H 0.47645 0.43323 0.75229 0.0
H2672 H 0.44887 0.43991 0.70441 0.0
C2673 C 0.41029 0.38315 0.68618 0.0
C2674 C 0.43233 0.40082 0.73273 0.0
C2675 C 0.3971 0.36976 0.67926 0.0
C2676 C 0.48359 0.45527 0.76587 0.0
C2677 C 0.47454 0.44298 0.7528 0.0
C2678 C 0.44444 0.42905 0.71241 0.0
C2679 C 0.41161 0.38754 0.70659 0.0
C2680 C 0.42567 0.40148 0.71432 0.0
C2681 C 0.46248 0.44282 0.74156 0.0
C2682 C 0.45074 0.42847 0.73118 0.0
H2683 H 0.37694 0.35847 0.72352 0.0
H2684 H 0.3999 0.38167 0.73555 0.0
H2685 H 0.42716 0.41653 0.6898 0.0
H2686 H 0.46702 0.47736 0.75721 0.0
H2687 H 0.45126 0.45601 0.73418 0.0
C2688 C 0.6565 0.03272 0.69172 0.0
C2689 C 0.66265 0.02401 0.70006 0.0
C2690 C 0.64193 0.03014 0.69779 0.0
C2691 C 0.61352 0.01205 0.73983 0.0
H2692 H 0.58635 0.01858 0.7044 0.0
C2693 C 0.55381 0.99767 0.76709 0.0
C2694 C 0.55142 0.01036 0.76685 0.0
C2695 C 0.56545 0.99774 0.75531 0.0
C2696 C 0.59384 0.0167 0.71441 0.0
H2697 H 0.6581 1.00529 0.72052 0.0
H2698 H 0.63255 1.00028 0.73039 0.0
H2699 H 0.61074 0.02176 0.69126 0.0
H2700 H 0.55852 0.0326 0.75326 0.0
H2701 H 0.57878 0.03263 0.73218 0.0
H2702 H 0.59659 0.0068 0.76284 0.0
C2703 C 0.63912 0.00956 0.71981 0.0
C2704 C 0.60787 0.01862 0.70696 0.0
C2705 C 0.65376 0.01234 0.71404 0.0
C2706 C 0.55996 0.02255 0.75334 0.0
C2707 C 0.5716 0.0226 0.74141 0.0
C2708 C 0.59946 0.0099 0.74711 0.0
C2709 C 0.63308 0.01861 0.7121 0.0
C2710 C 0.61794 0.01634 0.71961 0.0
C2711 C 0.57494 0.01053 0.74307 0.0
C2712 C 0.58946 0.0122 0.73453 0.0
H2713 H 0.66313 0.04181 0.68091 0.0
H2714 H 0.63784 0.03748 0.69165 0.0
H2715 H 0.62106 0.01063 0.75029 0.0
H2716 H 0.54751 0.98826 0.77764 0.0
H2717 H 0.56767 0.98822 0.75673 0.0
loop_
_geom_bond_atom_site_label_1
_geom_bond_atom_site_label_2
_geom_bond_distance
_geom_bond_site_symmetry_2
_ccdc_geom_bond_type
In0 O1 2.294 1_455 S
In0 O2 2.326 . S
In0 O6 2.266 1_455 S
In0 O7 2.326 1_454 S
In0 O8 2.266 1_554 S
In0 O9 2.326 1_454 S
In0 O11 2.294 . S
In0 O12 2.326 . S
O1 In0 2.294 1_655 S
O1 C10 1.240 1_655 S
O2 In0 2.326 . S
O2 C10 1.252 . S
C3 O6 1.252 1_556 S
C3 O7 1.260 . S
C4 O11 1.240 . S
C4 O12 1.252 . S
C5 O8 1.252 . S
C5 O9 1.260 1_455 S
O6 In0 2.266 1_655 S
O6 C3 1.252 1_554 S
O7 In0 2.326 1_656 S
O7 C3 1.260 . S
O8 In0 2.266 1_556 S
O8 C5 1.252 . S
O9 In0 2.326 1_656 S
O9 C5 1.260 1_655 S
C10 O1 1.240 1_455 S
C10 O2 1.252 . S
O11 In0 2.294 . S
O11 C4 1.240 . S
O12 In0 2.326 . S
O12 C4 1.252 . S
In13 O14 2.294 . S
In13 O15 2.326 . S
In13 O19 2.266 . S
In13 O20 2.326 1_554 S
In13 O21 2.266 1_554 S
In13 O22 2.326 1_554 S
In13 O24 2.294 . S
In13 O25 2.326 . S
O14 In13 2.294 . S
O14 C23 1.240 . S
O15 In13 2.326 . S
O15 C23 1.252 . S
C16 O19 1.252 1_556 S
C16 O20 1.260 . S
C17 O24 1.240 . S
C17 O25 1.252 . S
C18 O21 1.252 . S
C18 O22 1.260 . S
O19 In13 2.266 . S
O19 C16 1.252 1_554 S
O20 In13 2.326 1_556 S
O20 C16 1.260 . S
O21 In13 2.266 1_556 S
O21 C18 1.252 . S
O22 In13 2.326 1_556 S
O22 C18 1.260 . S
C23 O14 1.240 . S
C23 O15 1.252 . S
O24 In13 2.294 . S
O24 C17 1.240 . S
O25 In13 2.326 . S
O25 C17 1.252 . S
In26 O27 2.294 . S
In26 O28 2.326 1_554 S
In26 O32 2.266 . S
In26 O33 2.326 1_545 S
In26 O34 2.266 1_545 S
In26 O35 2.326 1_545 S
In26 O37 2.294 1_544 S
In26 O38 2.326 1_554 S
O27 In26 2.294 . S
O27 C36 1.240 1_554 S
O28 In26 2.326 1_556 S
O28 C36 1.252 . S
C29 O32 1.252 . S
C29 O33 1.260 1_545 S
C30 O37 1.240 1_545 S
C30 O38 1.252 . S
C31 O34 1.252 . S
C31 O35 1.260 . S
O32 In26 2.266 . S
O32 C29 1.252 . S
O33 In26 2.326 1_565 S
O33 C29 1.260 1_565 S
O34 In26 2.266 1_565 S
O34 C31 1.252 . S
O35 In26 2.326 1_565 S
O35 C31 1.260 . S
C36 O27 1.240 1_556 S
C36 O28 1.252 . S
O37 In26 2.294 1_566 S
O37 C30 1.240 1_565 S
O38 In26 2.326 1_556 S
O38 C30 1.252 . S
In39 O40 2.294 1_554 S
In39 O41 2.326 1_454 S
In39 O45 2.266 . S
In39 O46 2.326 . S
In39 O47 2.266 1_455 S
In39 O48 2.326 . S
In39 O50 2.294 1_455 S
In39 O51 2.326 1_454 S
O40 In39 2.294 1_556 S
O40 C49 1.240 . S
O41 In39 2.326 1_656 S
O41 C49 1.252 1_655 S
C42 O45 1.252 . S
C42 O46 1.260 . S
C43 O50 1.240 1_556 S
C43 O51 1.252 . S
C44 O47 1.252 1_455 S
C44 O48 1.260 . S
O45 In39 2.266 . S
O45 C42 1.252 . S
O46 In39 2.326 . S
O46 C42 1.260 . S
O47 In39 2.266 1_655 S
O47 C44 1.252 1_655 S
O48 In39 2.326 . S
O48 C44 1.260 . S
C49 O40 1.240 . S
C49 O41 1.252 1_455 S
O50 In39 2.294 1_655 S
O50 C43 1.240 1_554 S
O51 In39 2.326 1_656 S
O51 C43 1.252 . S
In52 O53 2.294 1_554 S
In52 O54 2.326 1_554 S
In52 O58 2.266 . S
In52 O59 2.326 . S
In52 O60 2.266 . S
In52 O61 2.326 . S
In52 O63 2.294 . S
In52 O64 2.326 1_554 S
O53 In52 2.294 1_556 S
O53 C62 1.240 . S
O54 In52 2.326 1_556 S
O54 C62 1.252 . S
C55 O58 1.252 . S
C55 O59 1.260 . S
C56 O63 1.240 1_556 S
C56 O64 1.252 . S
C57 O60 1.252 . S
C57 O61 1.260 . S
O58 In52 2.266 . S
O58 C55 1.252 . S
O59 In52 2.326 . S
O59 C55 1.260 . S
O60 In52 2.266 . S
O60 C57 1.252 . S
O61 In52 2.326 . S
O61 C57 1.260 . S
C62 O53 1.240 . S
C62 O54 1.252 . S
O63 In52 2.294 . S
O63 C56 1.240 1_554 S
O64 In52 2.326 1_556 S
O64 C56 1.252 . S
In65 O66 2.294 . S
In65 O67 2.326 1_545 S
In65 O71 2.266 . S
In65 O72 2.326 1_554 S
In65 O73 2.266 1_544 S
In65 O74 2.326 1_554 S
In65 O76 2.294 1_545 S
In65 O77 2.326 1_545 S
O66 In65 2.294 . S
O66 C75 1.240 . S
O67 In65 2.326 1_565 S
O67 C75 1.252 1_565 S
C68 O71 1.252 1_556 S
C68 O72 1.260 . S
C69 O76 1.240 . S
C69 O77 1.252 . S
C70 O73 1.252 1_545 S
C70 O74 1.260 . S
O71 In65 2.266 . S
O71 C68 1.252 1_554 S
O72 In65 2.326 1_556 S
O72 C68 1.260 . S
O73 In65 2.266 1_566 S
O73 C70 1.252 1_565 S
O74 In65 2.326 1_556 S
O74 C70 1.260 . S
C75 O66 1.240 . S
C75 O67 1.252 1_545 S
O76 In65 2.294 1_565 S
O76 C69 1.240 . S
O77 In65 2.326 1_565 S
O77 C69 1.252 . S
In78 O79 2.294 . S
In78 O80 2.326 . S
In78 O84 2.266 . S
In78 O85 2.326 . S
In78 O86 2.266 . S
In78 O87 2.326 . S
In78 O89 2.294 . S
In78 O90 2.326 . S
O79 In78 2.294 . S
O79 C88 1.240 . S
O80 In78 2.326 . S
O80 C88 1.252 . S
C81 O84 1.252 . S
C81 O85 1.260 . S
C82 O89 1.240 . S
C82 O90 1.252 . S
C83 O86 1.252 . S
C83 O87 1.260 . S
O84 In78 2.266 . S
O84 C81 1.252 . S
O85 In78 2.326 . S
O85 C81 1.260 . S
O86 In78 2.266 . S
O86 C83 1.252 . S
O87 In78 2.326 . S
O87 C83 1.260 . S
C88 O79 1.240 . S
C88 O80 1.252 . S
O89 In78 2.294 . S
O89 C82 1.240 . S
O90 In78 2.326 . S
O90 C82 1.252 . S
In91 O92 2.294 . S
In91 O93 2.326 . S
In91 O97 2.266 . S
In91 O98 2.326 . S
In91 O99 2.266 . S
In91 O100 2.326 . S
In91 O102 2.294 1_565 S
In91 O103 2.326 1_565 S
O92 In91 2.294 . S
O92 C101 1.240 . S
O93 In91 2.326 . S
O93 C101 1.252 . S
C94 O97 1.252 . S
C94 O98 1.260 . S
C95 O102 1.240 . S
C95 O103 1.252 . S
C96 O99 1.252 . S
C96 O100 1.260 . S
O97 In91 2.266 . S
O97 C94 1.252 . S
O98 In91 2.326 . S
O98 C94 1.260 . S
O99 In91 2.266 . S
O99 C96 1.252 . S
O100 In91 2.326 . S
O100 C96 1.260 . S
C101 O92 1.240 . S
C101 O93 1.252 . S
O102 In91 2.294 1_545 S
O102 C95 1.240 . S
O103 In91 2.326 1_545 S
O103 C95 1.252 . S
In104 O105 2.294 . S
In104 O106 2.326 . S
In104 O110 2.266 . S
In104 O111 2.326 . S
In104 O112 2.266 . S
In104 O113 2.326 . S
In104 O115 2.294 . S
In104 O116 2.326 . S
O105 In104 2.294 . S
O105 C114 1.240 . S
O106 In104 2.326 . S
O106 C114 1.252 . S
C107 O110 1.252 . S
C107 O111 1.260 . S
C108 O115 1.240 . S
C108 O116 1.252 . S
C109 O112 1.252 1_655 S
C109 O113 1.260 1_655 S
O110 In104 2.266 . S
O110 C107 1.252 . S
O111 In104 2.326 . S
O111 C107 1.260 . S
O112 In104 2.266 . S
O112 C109 1.252 1_455 S
O113 In104 2.326 . S
O113 C109 1.260 1_455 S
C114 O105 1.240 . S
C114 O106 1.252 . S
O115 In104 2.294 . S
O115 C108 1.240 . S
O116 In104 2.326 . S
O116 C108 1.252 . S
In117 O118 2.294 . S
In117 O119 2.326 . S
In117 O123 2.266 1_565 S
In117 O124 2.326 1_565 S
In117 O125 2.266 . S
In117 O126 2.326 . S
In117 O128 2.294 . S
In117 O129 2.326 . S
O118 In117 2.294 . S
O118 C127 1.240 . S
O119 In117 2.326 . S
O119 C127 1.252 . S
C120 O123 1.252 . S
C120 O124 1.260 . S
C121 O128 1.240 . S
C121 O129 1.252 . S
C122 O125 1.252 . S
C122 O126 1.260 . S
O123 In117 2.266 1_545 S
O123 C120 1.252 . S
O124 In117 2.326 1_545 S
O124 C120 1.260 . S
O125 In117 2.266 . S
O125 C122 1.252 . S
O126 In117 2.326 . S
O126 C122 1.260 . S
C127 O118 1.240 . S
C127 O119 1.252 . S
O128 In117 2.294 . S
O128 C121 1.240 . S
O129 In117 2.326 . S
O129 C121 1.252 . S
In130 O131 2.294 . S
In130 O132 2.326 . S
In130 O136 2.266 . S
In130 O137 2.326 . S
In130 O138 2.266 . S
In130 O139 2.326 . S
In130 O141 2.294 . S
In130 O142 2.326 . S
O131 In130 2.294 . S
O131 C140 1.240 . S
O132 In130 2.326 . S
O132 C140 1.252 . S
C133 O136 1.252 1_655 S
C133 O137 1.260 1_655 S
C134 O141 1.240 . S
C134 O142 1.252 . S
C135 O138 1.252 . S
C135 O139 1.260 . S
O136 In130 2.266 . S
O136 C133 1.252 1_455 S
O137 In130 2.326 . S
O137 C133 1.260 1_455 S
O138 In130 2.266 . S
O138 C135 1.252 . S
O139 In130 2.326 . S
O139 C135 1.260 . S
C140 O131 1.240 . S
C140 O132 1.252 . S
O141 In130 2.294 . S
O141 C134 1.240 . S
O142 In130 2.326 . S
O142 C134 1.252 . S
In143 O144 2.294 . S
In143 O145 2.326 . S
In143 O149 2.266 . S
In143 O150 2.326 . S
In143 O151 2.266 . S
In143 O152 2.326 . S
In143 O154 2.294 . S
In143 O155 2.326 . S
O144 In143 2.294 . S
O144 C153 1.240 . S
O145 In143 2.326 . S
O145 C153 1.252 . S
C146 O149 1.252 . S
C146 O150 1.260 . S
C147 O154 1.240 . S
C147 O155 1.252 . S
C148 O151 1.252 . S
C148 O152 1.260 . S
O149 In143 2.266 . S
O149 C146 1.252 . S
O150 In143 2.326 . S
O150 C146 1.260 . S
O151 In143 2.266 . S
O151 C148 1.252 . S
O152 In143 2.326 . S
O152 C148 1.260 . S
C153 O144 1.240 . S
C153 O145 1.252 . S
O154 In143 2.294 . S
O154 C147 1.240 . S
O155 In143 2.326 . S
O155 C147 1.252 . S
In156 O157 2.294 . S
In156 O158 2.326 . S
In156 O162 2.266 . S
In156 O163 2.326 . S
In156 O164 2.266 . S
In156 O165 2.326 . S
In156 O167 2.294 . S
In156 O168 2.326 . S
O157 In156 2.294 . S
O157 C166 1.240 . S
O158 In156 2.326 . S
O158 C166 1.252 . S
C159 O162 1.252 . S
C159 O163 1.260 . S
C160 O167 1.240 . S
C160 O168 1.252 . S
C161 O164 1.203 1_565 S
C161 O165 1.262 1_565 S
O162 In156 2.266 . S
O162 C159 1.252 . S
O163 In156 2.326 . S
O163 C159 1.260 . S
O164 In156 2.266 . S
O164 C161 1.203 1_545 S
O165 In156 2.326 . S
O165 C161 1.262 1_545 S
C166 O157 1.240 . S
C166 O158 1.252 . S
O167 In156 2.294 . S
O167 C160 1.240 . S
O168 In156 2.326 . S
O168 C160 1.252 . S
In169 O170 2.294 . S
In169 O171 2.326 . S
In169 O175 2.266 . S
In169 O176 2.326 . S
In169 O177 2.266 1_655 S
In169 O178 2.326 1_655 S
In169 O180 2.294 . S
In169 O181 2.326 . S
O170 In169 2.294 . S
O170 C179 1.240 . S
O171 In169 2.326 . S
O171 C179 1.252 . S
C172 O175 1.252 . S
C172 O176 1.260 . S
C173 O180 1.240 . S
C173 O181 1.252 . S
C174 O177 1.252 . S
C174 O178 1.260 . S
O175 In169 2.266 . S
O175 C172 1.252 . S
O176 In169 2.326 . S
O176 C172 1.260 . S
O177 In169 2.266 1_455 S
O177 C174 1.252 . S
O178 In169 2.326 1_455 S
O178 C174 1.260 . S
C179 O170 1.240 . S
C179 O171 1.252 . S
O180 In169 2.294 . S
O180 C173 1.240 . S
O181 In169 2.326 . S
O181 C173 1.252 . S
In182 O183 2.294 . S
In182 O184 2.326 . S
In182 O188 2.266 . S
In182 O189 2.326 . S
In182 O190 2.266 . S
In182 O191 2.326 . S
In182 O193 2.294 . S
In182 O194 2.326 . S
O183 In182 2.294 . S
O183 C192 1.240 . S
O184 In182 2.326 . S
O184 C192 1.252 . S
C185 O188 1.252 . S
C185 O189 1.260 . S
C186 O193 1.240 . S
C186 O194 1.252 . S
C187 O190 1.252 . S
C187 O191 1.260 . S
O188 In182 2.266 . S
O188 C185 1.252 . S
O189 In182 2.326 . S
O189 C185 1.260 . S
O190 In182 2.266 . S
O190 C187 1.252 . S
O191 In182 2.326 . S
O191 C187 1.260 . S
C192 O183 1.240 . S
C192 O184 1.252 . S
O193 In182 2.294 . S
O193 C186 1.240 . S
O194 In182 2.326 . S
O194 C186 1.252 . S
In195 O196 2.294 . S
In195 O197 2.326 . S
In195 O201 2.266 . S
In195 O202 2.326 . S
In195 O203 2.266 . S
In195 O204 2.326 . S
In195 O206 2.294 . S
In195 O207 2.326 . S
O196 In195 2.294 . S
O196 C205 1.240 . S
O197 In195 2.326 . S
O197 C205 1.252 . S
C198 O201 1.252 . S
C198 O202 1.260 . S
C199 O206 1.240 . S
C199 O207 1.252 . S
C200 O203 1.252 . S
C200 O204 1.260 . S
O201 In195 2.266 . S
O201 C198 1.252 . S
O202 In195 2.326 . S
O202 C198 1.260 . S
O203 In195 2.266 . S
O203 C200 1.252 . S
O204 In195 2.326 . S
O204 C200 1.260 . S
C205 O196 1.240 . S
C205 O197 1.252 . S
O206 In195 2.294 . S
O206 C199 1.240 . S
O207 In195 2.326 . S
O207 C199 1.252 . S
In208 O209 2.294 . S
In208 O210 2.326 . S
In208 O214 2.266 . S
In208 O215 2.326 . S
In208 O216 2.266 . S
In208 O217 2.326 . S
In208 O219 2.294 . S
In208 O220 2.326 . S
O209 In208 2.294 . S
O209 C218 1.240 . S
O210 In208 2.326 . S
O210 C218 1.252 . S
C211 O214 1.252 . S
C211 O215 1.260 . S
C212 O219 1.240 1_565 S
C212 O220 1.252 1_565 S
C213 O216 1.252 . S
C213 O217 1.260 . S
O214 In208 2.266 . S
O214 C211 1.252 . S
O215 In208 2.326 . S
O215 C211 1.260 . S
O216 In208 2.266 . S
O216 C213 1.252 . S
O217 In208 2.326 . S
O217 C213 1.260 . S
C218 O209 1.240 . S
C218 O210 1.252 . S
O219 In208 2.294 . S
O219 C212 1.240 1_545 S
O220 In208 2.326 . S
O220 C212 1.252 1_545 S
In221 O222 2.294 . S
In221 O223 2.326 . S
In221 O227 2.266 . S
In221 O228 2.326 . S
In221 O229 2.266 1_655 S
In221 O230 2.326 1_655 S
In221 O232 2.294 . S
In221 O233 2.326 . S
O222 In221 2.294 . S
O222 C231 1.240 . S
O223 In221 2.326 . S
O223 C231 1.252 . S
C224 O227 1.252 . S
C224 O228 1.260 . S
C225 O232 1.240 . S
C225 O233 1.252 . S
C226 O229 1.252 . S
C226 O230 1.260 . S
O227 In221 2.266 . S
O227 C224 1.252 . S
O228 In221 2.326 . S
O228 C224 1.260 . S
O229 In221 2.266 1_455 S
O229 C226 1.252 . S
O230 In221 2.326 1_455 S
O230 C226 1.260 . S
C231 O222 1.240 . S
C231 O223 1.252 . S
O232 In221 2.294 . S
O232 C225 1.240 . S
O233 In221 2.326 . S
O233 C225 1.252 . S
H234 C240 0.930 . S
H235 C243 0.931 . S
H236 C245 0.931 . S
H237 C247 0.930 . S
H238 C249 0.930 . S
H239 C251 0.931 . S
C240 H234 0.930 . S
C240 C241 1.380 . S
C240 C242 1.394 . S
C241 C240 1.380 . S
C241 C245 1.382 . S
C242 C240 1.394 . S
C242 C243 1.400 . S
C243 H235 0.931 . S
C243 C242 1.400 . S
C243 C244 1.375 . S
C244 C243 1.375 . S
C244 C245 1.415 . S
C244 C246 1.501 . S
C245 H236 0.931 . S
C245 C241 1.382 . S
C245 C244 1.415 . S
C246 C244 1.501 . S
C246 C247 1.384 . S
C246 C251 1.408 . S
C247 H237 0.930 . S
C247 C246 1.384 . S
C247 C248 1.389 . S
C248 C247 1.389 . S
C248 C249 1.405 . S
C249 H238 0.930 . S
C249 C248 1.405 . S
C249 C250 1.364 . S
C250 C249 1.364 . S
C250 C251 1.400 . S
C251 H239 0.931 . S
C251 C246 1.408 . S
C251 C250 1.400 . S
H252 C258 0.930 . S
H253 C261 0.931 . S
H254 C263 0.931 . S
H255 C265 0.930 . S
H256 C267 0.930 . S
H257 C269 0.931 . S
C258 H252 0.930 . S
C258 C259 1.380 . S
C258 C260 1.394 . S
C259 C258 1.380 . S
C259 C263 1.382 . S
C260 C258 1.394 . S
C260 C261 1.400 . S
C261 H253 0.931 . S
C261 C260 1.400 . S
C261 C262 1.375 . S
C262 C261 1.375 . S
C262 C263 1.415 . S
C262 C264 1.501 . S
C263 H254 0.931 . S
C263 C259 1.382 . S
C263 C262 1.415 . S
C264 C262 1.501 . S
C264 C265 1.384 . S
C264 C269 1.408 . S
C265 H255 0.930 . S
C265 C264 1.384 . S
C265 C266 1.389 . S
C266 C265 1.389 . S
C266 C267 1.405 . S
C267 H256 0.930 . S
C267 C266 1.405 . S
C267 C268 1.364 . S
C268 C267 1.364 . S
C268 C269 1.400 . S
C269 H257 0.931 . S
C269 C264 1.408 . S
C269 C268 1.400 . S
H270 C276 0.930 . S
H271 C279 0.931 . S
H272 C281 0.931 . S
H273 C283 0.930 . S
H274 C285 0.930 . S
H275 C287 0.931 . S
C276 H270 0.930 . S
C276 C277 1.380 . S
C276 C278 1.394 . S
C277 C276 1.380 . S
C277 C281 1.382 . S
C278 C276 1.394 . S
C278 C279 1.400 . S
C279 H271 0.931 . S
C279 C278 1.400 . S
C279 C280 1.375 . S
C280 C279 1.375 . S
C280 C281 1.415 . S
C280 C282 1.501 . S
C281 H272 0.931 . S
C281 C277 1.382 . S
C281 C280 1.415 . S
C282 C280 1.501 . S
C282 C283 1.384 . S
C282 C287 1.408 . S
C283 H273 0.930 . S
C283 C282 1.384 . S
C283 C284 1.389 . S
C284 C283 1.389 . S
C284 C285 1.405 . S
C285 H274 0.930 . S
C285 C284 1.405 . S
C285 C286 1.364 . S
C286 C285 1.364 . S
C286 C287 1.400 . S
C287 H275 0.931 . S
C287 C282 1.408 . S
C287 C286 1.400 . S
H288 C294 0.930 . S
H289 C297 0.931 . S
H290 C299 0.931 . S
H291 C301 0.930 . S
H292 C303 0.930 . S
H293 C305 0.931 . S
C294 H288 0.930 . S
C294 C295 1.380 . S
C294 C296 1.394 . S
C295 C294 1.380 . S
C295 C299 1.382 . S
C296 C294 1.394 . S
C296 C297 1.400 . S
C297 H289 0.931 . S
C297 C296 1.400 . S
C297 C298 1.375 . S
C298 C297 1.375 . S
C298 C299 1.415 . S
C298 C300 1.501 . S
C299 H290 0.931 . S
C299 C295 1.382 . S
C299 C298 1.415 . S
C300 C298 1.501 . S
C300 C301 1.384 . S
C300 C305 1.408 . S
C301 H291 0.930 . S
C301 C300 1.384 . S
C301 C302 1.389 . S
C302 C301 1.389 . S
C302 C303 1.405 . S
C303 H292 0.930 . S
C303 C302 1.405 . S
C303 C304 1.364 . S
C304 C303 1.364 . S
C304 C305 1.400 . S
C305 H293 0.931 . S
C305 C300 1.408 . S
C305 C304 1.400 . S
H306 C312 0.930 . S
H307 C315 0.931 . S
H308 C317 0.931 . S
H309 C319 0.930 . S
H310 C321 0.930 . S
H311 C323 0.931 . S
C312 H306 0.930 . S
C312 C313 1.380 . S
C312 C314 1.394 . S
C313 C312 1.380 . S
C313 C317 1.382 . S
C314 C312 1.394 . S
C314 C315 1.400 . S
C315 H307 0.931 . S
C315 C314 1.400 . S
C315 C316 1.375 . S
C316 C315 1.375 . S
C316 C317 1.415 . S
C316 C318 1.501 . S
C317 H308 0.931 . S
C317 C313 1.382 . S
C317 C316 1.415 . S
C318 C316 1.501 . S
C318 C319 1.384 . S
C318 C323 1.408 . S
C319 H309 0.930 . S
C319 C318 1.384 . S
C319 C320 1.389 . S
C320 C319 1.389 . S
C320 C321 1.405 . S
C321 H310 0.930 . S
C321 C320 1.405 . S
C321 C322 1.364 . S
C322 C321 1.364 . S
C322 C323 1.400 . S
C323 H311 0.931 . S
C323 C318 1.408 . S
C323 C322 1.400 . S
H324 C330 0.930 . S
H325 C333 0.931 . S
H326 C335 0.931 . S
H327 C337 0.930 . S
H328 C339 0.930 . S
H329 C341 0.931 . S
C330 H324 0.930 . S
C330 C331 1.380 . S
C330 C332 1.394 . S
C331 C330 1.380 . S
C331 C335 1.382 . S
C332 C330 1.394 . S
C332 C333 1.400 . S
C333 H325 0.931 . S
C333 C332 1.400 . S
C333 C334 1.375 . S
C334 C333 1.375 . S
C334 C335 1.415 . S
C334 C336 1.501 . S
C335 H326 0.931 . S
C335 C331 1.382 . S
C335 C334 1.415 . S
C336 C334 1.501 . S
C336 C337 1.384 . S
C336 C341 1.408 . S
C337 H327 0.930 . S
C337 C336 1.384 . S
C337 C338 1.389 . S
C338 C337 1.389 . S
C338 C339 1.405 . S
C339 H328 0.930 . S
C339 C338 1.405 . S
C339 C340 1.364 . S
C340 C339 1.364 . S
C340 C341 1.400 . S
C341 H329 0.931 . S
C341 C336 1.408 . S
C341 C340 1.400 . S
H342 C348 0.930 . S
H343 C351 0.931 . S
H344 C353 0.931 . S
H345 C355 0.930 . S
H346 C357 0.930 . S
H347 C359 0.931 . S
C348 H342 0.930 . S
C348 C349 1.380 . S
C348 C350 1.394 . S
C349 C348 1.380 . S
C349 C353 1.382 . S
C350 C348 1.394 . S
C350 C351 1.400 . S
C351 H343 0.931 . S
C351 C350 1.400 . S
C351 C352 1.375 . S
C352 C351 1.375 . S
C352 C353 1.415 . S
C352 C354 1.501 . S
C353 H344 0.931 . S
C353 C349 1.382 . S
C353 C352 1.415 . S
C354 C352 1.501 . S
C354 C355 1.384 . S
C354 C359 1.408 . S
C355 H345 0.930 . S
C355 C354 1.384 . S
C355 C356 1.389 . S
C356 C355 1.389 . S
C356 C357 1.405 . S
C357 H346 0.930 . S
C357 C356 1.405 . S
C357 C358 1.364 . S
C358 C357 1.364 . S
C358 C359 1.400 . S
C359 H347 0.931 . S
C359 C354 1.408 . S
C359 C358 1.400 . S
H360 C366 0.930 . S
H361 C369 0.931 . S
H362 C371 0.931 . S
H363 C373 0.930 . S
H364 C375 0.930 . S
H365 C377 0.931 . S
C366 H360 0.930 . S
C366 C367 1.380 . S
C366 C368 1.394 . S
C367 C366 1.380 . S
C367 C371 1.382 . S
C368 C366 1.394 . S
C368 C369 1.400 . S
C369 H361 0.931 . S
C369 C368 1.400 . S
C369 C370 1.375 . S
C370 C369 1.375 . S
C370 C371 1.415 . S
C370 C372 1.501 . S
C371 H362 0.931 . S
C371 C367 1.382 . S
C371 C370 1.415 . S
C372 C370 1.501 . S
C372 C373 1.384 . S
C372 C377 1.408 . S
C373 H363 0.930 . S
C373 C372 1.384 . S
C373 C374 1.389 . S
C374 C373 1.389 . S
C374 C375 1.405 . S
C375 H364 0.930 . S
C375 C374 1.405 . S
C375 C376 1.364 . S
C376 C375 1.364 . S
C376 C377 1.400 . S
C377 H365 0.931 . S
C377 C372 1.408 . S
C377 C376 1.400 . S
H378 C384 0.930 . S
H379 C387 0.931 . S
H380 C389 0.931 . S
H381 C391 0.930 . S
H382 C393 0.930 . S
H383 C395 0.931 . S
C384 H378 0.930 . S
C384 C385 1.380 . S
C384 C386 1.394 . S
C385 C384 1.380 . S
C385 C389 1.382 . S
C386 C384 1.394 . S
C386 C387 1.400 . S
C387 H379 0.931 . S
C387 C386 1.400 . S
C387 C388 1.375 . S
C388 C387 1.375 . S
C388 C389 1.415 . S
C388 C390 1.501 . S
C389 H380 0.931 . S
C389 C385 1.382 . S
C389 C388 1.415 . S
C390 C388 1.501 . S
C390 C391 1.384 . S
C390 C395 1.408 . S
C391 H381 0.930 . S
C391 C390 1.384 . S
C391 C392 1.389 . S
C392 C391 1.389 . S
C392 C393 1.405 . S
C393 H382 0.930 . S
C393 C392 1.405 . S
C393 C394 1.364 . S
C394 C393 1.364 . S
C394 C395 1.400 . S
C395 H383 0.931 . S
C395 C390 1.408 . S
C395 C394 1.400 . S
H396 C402 0.930 . S
H397 C405 0.931 . S
H398 C407 0.931 . S
H399 C409 0.930 . S
H400 C411 0.930 . S
H401 C413 0.931 . S
C402 H396 0.930 . S
C402 C403 1.380 . S
C402 C404 1.394 . S
C403 C402 1.380 . S
C403 C407 1.382 . S
C404 C402 1.394 . S
C404 C405 1.400 . S
C405 H397 0.931 . S
C405 C404 1.400 . S
C405 C406 1.375 . S
C406 C405 1.375 . S
C406 C407 1.415 . S
C406 C408 1.501 . S
C407 H398 0.931 . S
C407 C403 1.382 . S
C407 C406 1.415 . S
C408 C406 1.501 . S
C408 C409 1.384 . S
C408 C413 1.408 . S
C409 H399 0.930 . S
C409 C408 1.384 . S
C409 C410 1.389 . S
C410 C409 1.389 . S
C410 C411 1.405 . S
C411 H400 0.930 . S
C411 C410 1.405 . S
C411 C412 1.364 . S
C412 C411 1.364 . S
C412 C413 1.400 . S
C413 H401 0.931 . S
C413 C408 1.408 . S
C413 C412 1.400 . S
H414 C420 0.930 . S
H415 C423 0.931 . S
H416 C425 0.931 . S
H417 C427 0.930 . S
H418 C429 0.930 . S
H419 C431 0.931 . S
C420 H414 0.930 . S
C420 C421 1.380 . S
C420 C422 1.394 . S
C421 C420 1.380 . S
C421 C425 1.382 . S
C422 C420 1.394 . S
C422 C423 1.400 . S
C423 H415 0.931 . S
C423 C422 1.400 . S
C423 C424 1.375 . S
C424 C423 1.375 . S
C424 C425 1.415 . S
C424 C426 1.501 . S
C425 H416 0.931 . S
C425 C421 1.382 . S
C425 C424 1.415 . S
C426 C424 1.501 . S
C426 C427 1.384 . S
C426 C431 1.408 . S
C427 H417 0.930 . S
C427 C426 1.384 . S
C427 C428 1.389 . S
C428 C427 1.389 . S
C428 C429 1.405 . S
C429 H418 0.930 . S
C429 C428 1.405 . S
C429 C430 1.364 . S
C430 C429 1.364 . S
C430 C431 1.400 . S
C431 H419 0.931 . S
C431 C426 1.408 . S
C431 C430 1.400 . S
H432 C438 0.945 . S
H433 C441 0.931 . S
H434 C443 0.931 . S
H435 C445 0.930 . S
H436 C447 0.930 . S
H437 C449 0.921 1_545 S
C438 H432 0.945 . S
C438 C439 1.377 . S
C438 C440 1.383 1_545 S
C439 C438 1.377 . S
C439 C443 1.382 . S
C440 C438 1.383 1_565 S
C440 C441 1.400 . S
C441 H433 0.931 . S
C441 C440 1.400 . S
C441 C442 1.375 . S
C442 C441 1.375 . S
C442 C443 1.415 1_565 S
C442 C444 1.501 . S
C443 H434 0.931 . S
C443 C439 1.382 . S
C443 C442 1.415 1_545 S
C444 C442 1.501 . S
C444 C445 1.384 . S
C444 C449 1.399 . S
C445 H435 0.930 . S
C445 C444 1.384 . S
C445 C446 1.389 . S
C446 C445 1.389 . S
C446 C447 1.405 . S
C447 H436 0.930 . S
C447 C446 1.405 . S
C447 C448 1.375 . S
C448 C447 1.375 . S
C448 C449 1.406 . S
C449 H437 0.921 1_565 S
C449 C444 1.399 . S
C449 C448 1.406 . S
H450 C456 0.930 . S
H451 C459 0.931 . S
H452 C461 0.931 . S
H453 C463 0.930 . S
H454 C465 0.930 . S
H455 C467 0.931 . S
C456 H450 0.930 . S
C456 C457 1.380 . S
C456 C458 1.394 . S
C457 C456 1.380 . S
C457 C461 1.382 . S
C458 C456 1.394 . S
C458 C459 1.400 . S
C459 H451 0.931 . S
C459 C458 1.400 . S
C459 C460 1.375 . S
C460 C459 1.375 . S
C460 C461 1.415 . S
C460 C462 1.501 . S
C461 H452 0.931 . S
C461 C457 1.382 . S
C461 C460 1.415 . S
C462 C460 1.501 . S
C462 C463 1.384 . S
C462 C467 1.408 . S
C463 H453 0.930 . S
C463 C462 1.384 . S
C463 C464 1.389 . S
C464 C463 1.389 . S
C464 C465 1.405 . S
C465 H454 0.930 . S
C465 C464 1.405 . S
C465 C466 1.364 . S
C466 C465 1.364 . S
C466 C467 1.400 . S
C467 H455 0.931 . S
C467 C462 1.408 . S
C467 C466 1.400 . S
H468 C474 0.955 . S
H469 C477 0.931 . S
H470 C479 0.932 1_655 S
H471 C481 0.930 . S
H472 C483 0.974 . S
H473 C485 0.931 . S
C474 H468 0.955 . S
C474 C475 1.377 . S
C474 C476 1.369 1_655 S
C475 C474 1.377 . S
C475 C479 1.363 1_655 S
C476 C474 1.369 1_455 S
C476 C477 1.427 . S
C477 H469 0.931 . S
C477 C476 1.427 . S
C477 C478 1.375 . S
C478 C477 1.375 . S
C478 C479 1.417 . S
C478 C480 1.501 . S
C479 H470 0.932 1_455 S
C479 C475 1.363 1_455 S
C479 C478 1.417 . S
C480 C478 1.501 . S
C480 C481 1.384 . S
C480 C485 1.408 1_455 S
C481 H471 0.930 . S
C481 C480 1.384 . S
C481 C482 1.389 . S
C482 C481 1.389 . S
C482 C483 1.397 . S
C483 H472 0.974 . S
C483 C482 1.397 . S
C483 C484 1.334 1_455 S
C484 C483 1.334 1_655 S
C484 C485 1.400 . S
C485 H473 0.931 . S
C485 C480 1.408 1_655 S
C485 C484 1.400 . S
H486 C492 0.930 . S
H487 C495 0.931 . S
H488 C497 0.931 . S
H489 C499 0.930 . S
H490 C501 0.930 . S
H491 C503 0.931 . S
C492 H486 0.930 . S
C492 C493 1.380 . S
C492 C494 1.394 . S
C493 C492 1.380 . S
C493 C497 1.382 . S
C494 C492 1.394 . S
C494 C495 1.400 . S
C495 H487 0.931 . S
C495 C494 1.400 . S
C495 C496 1.375 . S
C496 C495 1.375 . S
C496 C497 1.415 . S
C496 C498 1.501 . S
C497 H488 0.931 . S
C497 C493 1.382 . S
C497 C496 1.415 . S
C498 C496 1.501 . S
C498 C499 1.384 . S
C498 C503 1.408 . S
C499 H489 0.930 . S
C499 C498 1.384 . S
C499 C500 1.389 . S
C500 C499 1.389 . S
C500 C501 1.405 . S
C501 H490 0.930 . S
C501 C500 1.405 . S
C501 C502 1.364 . S
C502 C501 1.364 . S
C502 C503 1.400 . S
C503 H491 0.931 . S
C503 C498 1.408 . S
C503 C502 1.400 . S
H504 C510 0.930 . S
H505 C513 0.931 . S
H506 C515 0.931 . S
H507 C517 0.930 . S
H508 C519 0.930 . S
H509 C521 0.931 . S
C510 H504 0.930 . S
C510 C511 1.380 . S
C510 C512 1.394 . S
C511 C510 1.380 . S
C511 C515 1.382 . S
C512 C510 1.394 . S
C512 C513 1.400 . S
C513 H505 0.931 . S
C513 C512 1.400 . S
C513 C514 1.375 . S
C514 C513 1.375 . S
C514 C515 1.415 . S
C514 C516 1.501 . S
C515 H506 0.931 . S
C515 C511 1.382 . S
C515 C514 1.415 . S
C516 C514 1.501 . S
C516 C517 1.384 . S
C516 C521 1.408 . S
C517 H507 0.930 . S
C517 C516 1.384 . S
C517 C518 1.389 . S
C518 C517 1.389 . S
C518 C519 1.405 . S
C519 H508 0.930 . S
C519 C518 1.405 . S
C519 C520 1.364 . S
C520 C519 1.364 . S
C520 C521 1.400 . S
C521 H509 0.931 . S
C521 C516 1.408 . S
C521 C520 1.400 . S
H522 C528 0.930 . S
H523 C531 0.931 . S
H524 C533 0.931 . S
H525 C535 0.930 . S
H526 C537 0.930 . S
H527 C539 0.931 . S
C528 H522 0.930 . S
C528 C529 1.380 . S
C528 C530 1.394 . S
C529 C528 1.380 . S
C529 C533 1.382 . S
C530 C528 1.394 . S
C530 C531 1.400 . S
C531 H523 0.931 . S
C531 C530 1.400 . S
C531 C532 1.375 . S
C532 C531 1.375 . S
C532 C533 1.415 . S
C532 C534 1.501 . S
C533 H524 0.931 . S
C533 C529 1.382 . S
C533 C532 1.415 . S
C534 C532 1.501 . S
C534 C535 1.384 . S
C534 C539 1.408 . S
C535 H525 0.930 . S
C535 C534 1.384 . S
C535 C536 1.389 . S
C536 C535 1.389 . S
C536 C537 1.405 . S
C537 H526 0.930 . S
C537 C536 1.405 . S
C537 C538 1.364 . S
C538 C537 1.364 . S
C538 C539 1.400 . S
C539 H527 0.931 . S
C539 C534 1.408 . S
C539 C538 1.400 . S
H540 C546 0.930 . S
H541 C549 0.931 . S
H542 C551 0.931 . S
H543 C553 0.930 . S
H544 C555 0.930 . S
H545 C557 0.931 . S
C546 H540 0.930 . S
C546 C547 1.380 . S
C546 C548 1.394 . S
C547 C546 1.380 . S
C547 C551 1.382 . S
C548 C546 1.394 . S
C548 C549 1.400 . S
C549 H541 0.931 . S
C549 C548 1.400 . S
C549 C550 1.375 . S
C550 C549 1.375 . S
C550 C551 1.415 . S
C550 C552 1.501 . S
C551 H542 0.931 . S
C551 C547 1.382 . S
C551 C550 1.415 . S
C552 C550 1.501 . S
C552 C553 1.384 . S
C552 C557 1.408 . S
C553 H543 0.930 . S
C553 C552 1.384 . S
C553 C554 1.389 . S
C554 C553 1.389 . S
C554 C555 1.405 . S
C555 H544 0.930 . S
C555 C554 1.405 . S
C555 C556 1.364 . S
C556 C555 1.364 . S
C556 C557 1.400 . S
C557 H545 0.931 . S
C557 C552 1.408 . S
C557 C556 1.400 . S
C558 C559 1.349 . S
C558 C560 1.327 . S
C558 H583 0.950 . S
C559 C558 1.349 . S
C559 C575 1.349 1_455 S
C560 C558 1.327 . S
C560 C579 1.429 . S
C560 H584 0.950 . S
C561 C578 1.574 . S
C561 C580 1.368 1_655 S
C561 H585 0.949 . S
H562 C566 0.949 . S
C563 C564 1.349 1_655 S
C563 C565 1.327 . S
C563 H586 0.950 . S
C564 C563 1.349 1_455 S
C564 C576 1.349 . S
C565 C563 1.327 . S
C565 C581 1.429 1_655 S
C565 H587 0.950 . S
C566 H562 0.949 . S
C566 C574 1.574 . S
C566 C582 1.368 . S
H567 C575 0.950 . S
H568 C573 0.950 . S
H569 C574 0.949 . S
H570 C576 0.950 . S
H571 C577 0.950 . S
H572 C578 0.949 . S
C573 H568 0.950 . S
C573 C575 1.327 . S
C573 C579 1.429 1_655 S
C574 C566 1.574 . S
C574 H569 0.949 . S
C574 C580 1.368 . S
C575 C559 1.349 1_655 S
C575 H567 0.950 . S
C575 C573 1.327 . S
C576 C564 1.349 . S
C576 H570 0.950 . S
C576 C577 1.327 . S
C577 H571 0.950 . S
C577 C576 1.327 . S
C577 C581 1.429 . S
C578 C561 1.574 . S
C578 H572 0.949 . S
C578 C582 1.368 1_655 S
C579 C560 1.429 . S
C579 C573 1.429 1_455 S
C579 C580 1.523 . S
C580 C561 1.368 1_455 S
C580 C574 1.368 . S
C580 C579 1.523 . S
C581 C565 1.429 1_455 S
C581 C577 1.429 . S
C581 C582 1.523 . S
C582 C566 1.368 . S
C582 C578 1.368 1_455 S
C582 C581 1.523 . S
H583 C558 0.950 . S
H584 C560 0.950 . S
H585 C561 0.949 . S
H586 C563 0.950 . S
H587 C565 0.950 . S
C588 C589 1.349 . S
C588 C590 1.327 . S
C588 H613 0.950 . S
C589 C588 1.349 . S
C589 C605 1.349 . S
C590 C588 1.327 . S
C590 C609 1.429 . S
C590 H614 0.950 . S
C591 C608 1.574 . S
C591 C610 1.368 . S
C591 H615 0.949 . S
H592 C596 0.949 . S
C593 C594 1.349 . S
C593 C595 1.327 . S
C593 H616 0.950 . S
C594 C593 1.349 . S
C594 C606 1.349 . S
C595 C593 1.327 . S
C595 C611 1.429 . S
C595 H617 0.950 . S
C596 H592 0.949 . S
C596 C604 1.574 . S
C596 C612 1.368 . S
H597 C605 0.950 . S
H598 C603 0.950 . S
H599 C604 0.949 . S
H600 C606 0.950 . S
H601 C607 0.950 . S
H602 C608 0.949 . S
C603 H598 0.950 . S
C603 C605 1.327 . S
C603 C609 1.429 . S
C604 C596 1.574 . S
C604 H599 0.949 . S
C604 C610 1.368 . S
C605 C589 1.349 . S
C605 H597 0.950 . S
C605 C603 1.327 . S
C606 C594 1.349 . S
C606 H600 0.950 . S
C606 C607 1.327 . S
C607 H601 0.950 . S
C607 C606 1.327 . S
C607 C611 1.429 . S
C608 C591 1.574 . S
C608 H602 0.949 . S
C608 C612 1.368 . S
C609 C590 1.429 . S
C609 C603 1.429 . S
C609 C610 1.523 . S
C610 C591 1.368 . S
C610 C604 1.368 . S
C610 C609 1.523 . S
C611 C595 1.429 . S
C611 C607 1.429 . S
C611 C612 1.523 . S
C612 C596 1.368 . S
C612 C608 1.368 . S
C612 C611 1.523 . S
H613 C588 0.950 . S
H614 C590 0.950 . S
H615 C591 0.949 . S
H616 C593 0.950 . S
H617 C595 0.950 . S
C618 C619 1.349 1_565 S
C618 C620 1.327 . S
C618 H643 0.950 . S
C619 C618 1.349 1_545 S
C619 C635 1.349 . S
C620 C618 1.327 . S
C620 C639 1.429 1_565 S
C620 H644 0.950 . S
C621 C638 1.574 . S
C621 C640 1.368 . S
C621 H645 0.949 . S
H622 C626 0.949 . S
C623 C624 1.349 . S
C623 C625 1.327 . S
C623 H646 0.950 . S
C624 C623 1.349 . S
C624 C636 1.349 1_545 S
C625 C623 1.327 . S
C625 C641 1.429 . S
C625 H647 0.950 . S
C626 H622 0.949 . S
C626 C634 1.574 . S
C626 C642 1.368 1_565 S
H627 C635 0.950 . S
H628 C633 0.950 . S
H629 C634 0.949 . S
H630 C636 0.950 . S
H631 C637 0.950 . S
H632 C638 0.949 . S
C633 H628 0.950 . S
C633 C635 1.327 . S
C633 C639 1.429 . S
C634 C626 1.574 . S
C634 H629 0.949 . S
C634 C640 1.368 1_565 S
C635 C619 1.349 . S
C635 H627 0.950 . S
C635 C633 1.327 . S
C636 C624 1.349 1_565 S
C636 H630 0.950 . S
C636 C637 1.327 . S
C637 H631 0.950 . S
C637 C636 1.327 . S
C637 C641 1.429 1_565 S
C638 C621 1.574 . S
C638 H632 0.949 . S
C638 C642 1.368 . S
C639 C620 1.429 1_545 S
C639 C633 1.429 . S
C639 C640 1.523 . S
C640 C621 1.368 . S
C640 C634 1.368 1_545 S
C640 C639 1.523 . S
C641 C625 1.429 . S
C641 C637 1.429 1_545 S
C641 C642 1.523 . S
C642 C626 1.368 1_545 S
C642 C638 1.368 . S
C642 C641 1.523 . S
H643 C618 0.950 . S
H644 C620 0.950 . S
H645 C621 0.949 . S
H646 C623 0.950 . S
H647 C625 0.950 . S
C648 C649 1.349 . S
C648 C650 1.327 . S
C648 H673 0.950 . S
C649 C648 1.349 . S
C649 C665 1.349 1_545 S
C650 C648 1.327 . S
C650 C669 1.429 . S
C650 H674 0.950 . S
C651 C668 1.574 . S
C651 C670 1.368 1_565 S
C651 H675 0.949 . S
H652 C656 0.949 . S
C653 C654 1.349 1_565 S
C653 C655 1.327 . S
C653 H676 0.950 . S
C654 C653 1.349 1_545 S
C654 C666 1.349 . S
C655 C653 1.327 . S
C655 C671 1.429 1_565 S
C655 H677 0.950 . S
C656 H652 0.949 . S
C656 C664 1.574 . S
C656 C672 1.368 . S
H657 C665 0.950 . S
H658 C663 0.950 . S
H659 C664 0.949 . S
H660 C666 0.950 . S
H661 C667 0.950 . S
H662 C668 0.949 . S
C663 H658 0.950 . S
C663 C665 1.327 . S
C663 C669 1.429 1_565 S
C664 C656 1.574 . S
C664 H659 0.949 . S
C664 C670 1.368 . S
C665 C649 1.349 1_565 S
C665 H657 0.950 . S
C665 C663 1.327 . S
C666 C654 1.349 . S
C666 H660 0.950 . S
C666 C667 1.327 . S
C667 H661 0.950 . S
C667 C666 1.327 . S
C667 C671 1.429 . S
C668 C651 1.574 . S
C668 H662 0.949 . S
C668 C672 1.368 1_565 S
C669 C650 1.429 . S
C669 C663 1.429 1_545 S
C669 C670 1.523 . S
C670 C651 1.368 1_545 S
C670 C664 1.368 . S
C670 C669 1.523 . S
C671 C655 1.429 1_545 S
C671 C667 1.429 . S
C671 C672 1.523 . S
C672 C656 1.368 . S
C672 C668 1.368 1_545 S
C672 C671 1.523 . S
H673 C648 0.950 . S
H674 C650 0.950 . S
H675 C651 0.949 . S
H676 C653 0.950 . S
H677 C655 0.950 . S
C678 C679 1.349 . S
C678 C680 1.327 . S
C678 H703 0.950 . S
C679 C678 1.349 . S
C679 C695 1.349 1_455 S
C680 C678 1.327 . S
C680 C699 1.429 . S
C680 H704 0.950 . S
C681 C698 1.574 . S
C681 C700 1.368 1_655 S
C681 H705 0.949 . S
H682 C686 0.949 . S
C683 C684 1.349 1_655 S
C683 C685 1.327 . S
C683 H706 0.950 . S
C684 C683 1.349 1_455 S
C684 C696 1.349 . S
C685 C683 1.327 . S
C685 C701 1.429 1_655 S
C685 H707 0.950 . S
C686 H682 0.949 . S
C686 C694 1.574 . S
C686 C702 1.368 . S
H687 C695 0.950 . S
H688 C693 0.950 . S
H689 C694 0.949 . S
H690 C696 0.950 . S
H691 C697 0.950 . S
H692 C698 0.949 . S
C693 H688 0.950 . S
C693 C695 1.327 . S
C693 C699 1.429 1_655 S
C694 C686 1.574 . S
C694 H689 0.949 . S
C694 C700 1.368 . S
C695 C679 1.349 1_655 S
C695 H687 0.950 . S
C695 C693 1.327 . S
C696 C684 1.349 . S
C696 H690 0.950 . S
C696 C697 1.327 . S
C697 H691 0.950 . S
C697 C696 1.327 . S
C697 C701 1.429 . S
C698 C681 1.574 . S
C698 H692 0.949 . S
C698 C702 1.368 1_655 S
C699 C680 1.429 . S
C699 C693 1.429 1_455 S
C699 C700 1.523 . S
C700 C681 1.368 1_455 S
C700 C694 1.368 . S
C700 C699 1.523 . S
C701 C685 1.429 1_455 S
C701 C697 1.429 . S
C701 C702 1.523 . S
C702 C686 1.368 . S
C702 C698 1.368 1_455 S
C702 C701 1.523 . S
H703 C678 0.950 . S
H704 C680 0.950 . S
H705 C681 0.949 . S
H706 C683 0.950 . S
H707 C685 0.950 . S
C708 C709 1.349 . S
C708 C710 1.327 . S
C708 H733 0.950 . S
C709 C708 1.349 . S
C709 C725 1.349 . S
C710 C708 1.327 . S
C710 C729 1.429 . S
C710 H734 0.950 . S
C711 C728 1.574 . S
C711 C730 1.368 . S
C711 H735 0.949 . S
H712 C716 0.949 . S
C713 C714 1.349 . S
C713 C715 1.327 . S
C713 H736 0.950 . S
C714 C713 1.349 . S
C714 C726 1.349 . S
C715 C713 1.327 . S
C715 C731 1.429 . S
C715 H737 0.950 . S
C716 H712 0.949 . S
C716 C724 1.574 . S
C716 C732 1.368 . S
H717 C725 0.950 . S
H718 C723 0.950 . S
H719 C724 0.949 . S
H720 C726 0.950 . S
H721 C727 0.950 . S
H722 C728 0.949 . S
C723 H718 0.950 . S
C723 C725 1.327 . S
C723 C729 1.429 . S
C724 C716 1.574 . S
C724 H719 0.949 . S
C724 C730 1.368 . S
C725 C709 1.349 . S
C725 H717 0.950 . S
C725 C723 1.327 . S
C726 C714 1.349 . S
C726 H720 0.950 . S
C726 C727 1.327 . S
C727 H721 0.950 . S
C727 C726 1.327 . S
C727 C731 1.429 . S
C728 C711 1.574 . S
C728 H722 0.949 . S
C728 C732 1.368 . S
C729 C710 1.429 . S
C729 C723 1.429 . S
C729 C730 1.523 . S
C730 C711 1.368 . S
C730 C724 1.368 . S
C730 C729 1.523 . S
C731 C715 1.429 . S
C731 C727 1.429 . S
C731 C732 1.523 . S
C732 C716 1.368 . S
C732 C728 1.368 . S
C732 C731 1.523 . S
H733 C708 0.950 . S
H734 C710 0.950 . S
H735 C711 0.949 . S
H736 C713 0.950 . S
H737 C715 0.950 . S
C738 C739 1.349 1_655 S
C738 C740 1.327 . S
C738 H763 0.950 . S
C739 C738 1.349 1_455 S
C739 C755 1.349 . S
C740 C738 1.327 . S
C740 C759 1.429 1_655 S
C740 H764 0.950 . S
C741 C758 1.574 . S
C741 C760 1.368 . S
C741 H765 0.949 . S
H742 C746 0.949 . S
C743 C744 1.341 1_455 S
C743 C745 1.327 . S
C743 H766 0.950 . S
C744 C743 1.341 1_655 S
C744 C756 1.369 . S
C745 C743 1.327 . S
C745 C761 1.440 . S
C745 H767 0.950 . S
C746 H742 0.949 . S
C746 C754 1.574 . S
C746 C762 1.335 1_655 S
H747 C755 0.950 . S
H748 C753 0.950 . S
H749 C754 0.949 . S
H750 C756 0.950 . S
H751 C757 0.950 . S
H752 C758 0.949 . S
C753 H748 0.950 . S
C753 C755 1.327 . S
C753 C759 1.429 . S
C754 C746 1.574 . S
C754 H749 0.949 . S
C754 C760 1.368 1_655 S
C755 C739 1.349 . S
C755 H747 0.950 . S
C755 C753 1.327 . S
C756 C744 1.369 . S
C756 H750 0.950 . S
C756 C757 1.327 . S
C757 H751 0.950 . S
C757 C756 1.327 . S
C757 C761 1.424 1_655 S
C758 C741 1.574 . S
C758 H752 0.949 . S
C758 C762 1.388 . S
C759 C740 1.429 1_455 S
C759 C753 1.429 . S
C759 C760 1.523 . S
C760 C741 1.368 . S
C760 C754 1.368 1_455 S
C760 C759 1.523 . S
C761 C745 1.440 . S
C761 C757 1.424 1_455 S
C761 C762 1.537 . S
C762 C746 1.335 1_455 S
C762 C758 1.388 . S
C762 C761 1.537 . S
H763 C738 0.950 . S
H764 C740 0.950 . S
H765 C741 0.949 . S
H766 C743 0.950 . S
H767 C745 0.950 . S
C768 C769 1.349 . S
C768 C770 1.327 . S
C768 H793 0.950 . S
C769 C768 1.349 . S
C769 C785 1.349 . S
C770 C768 1.327 . S
C770 C789 1.429 . S
C770 H794 0.950 . S
C771 C788 1.574 . S
C771 C790 1.368 . S
C771 H795 0.949 . S
H772 C776 0.949 . S
C773 C774 1.349 . S
C773 C775 1.327 . S
C773 H796 0.950 . S
C774 C773 1.349 . S
C774 C786 1.349 . S
C775 C773 1.327 . S
C775 C791 1.429 . S
C775 H797 0.950 . S
C776 H772 0.949 . S
C776 C784 1.574 . S
C776 C792 1.368 . S
H777 C785 0.950 . S
H778 C783 0.950 . S
H779 C784 0.949 . S
H780 C786 0.950 . S
H781 C787 0.950 . S
H782 C788 0.949 . S
C783 H778 0.950 . S
C783 C785 1.327 . S
C783 C789 1.429 . S
C784 C776 1.574 . S
C784 H779 0.949 . S
C784 C790 1.368 . S
C785 C769 1.349 . S
C785 H777 0.950 . S
C785 C783 1.327 . S
C786 C774 1.349 . S
C786 H780 0.950 . S
C786 C787 1.327 . S
C787 H781 0.950 . S
C787 C786 1.327 . S
C787 C791 1.429 . S
C788 C771 1.574 . S
C788 H782 0.949 . S
C788 C792 1.368 . S
C789 C770 1.429 . S
C789 C783 1.429 . S
C789 C790 1.523 . S
C790 C771 1.368 . S
C790 C784 1.368 . S
C790 C789 1.523 . S
C791 C775 1.429 . S
C791 C787 1.429 . S
C791 C792 1.523 . S
C792 C776 1.368 . S
C792 C788 1.368 . S
C792 C791 1.523 . S
H793 C768 0.950 . S
H794 C770 0.950 . S
H795 C771 0.949 . S
H796 C773 0.950 . S
H797 C775 0.950 . S
C798 C799 1.349 1_565 S
C798 C800 1.327 . S
C798 H823 0.950 . S
C799 C798 1.349 1_545 S
C799 C815 1.349 . S
C800 C798 1.327 . S
C800 C819 1.429 1_565 S
C800 H824 0.950 . S
C801 C818 1.574 . S
C801 C820 1.368 . S
C801 H825 0.949 . S
H802 C806 0.949 . S
C803 C804 1.349 . S
C803 C805 1.327 . S
C803 H826 0.950 . S
C804 C803 1.349 . S
C804 C816 1.346 . S
C805 C803 1.327 . S
C805 C821 1.429 . S
C805 H827 0.950 . S
C806 H802 0.949 . S
C806 C814 1.574 . S
C806 C822 1.368 1_565 S
H807 C815 0.950 . S
H808 C813 0.950 . S
H809 C814 0.949 . S
H810 C816 0.950 1_565 S
H811 C817 0.975 . S
H812 C818 0.949 . S
C813 H808 0.950 . S
C813 C815 1.327 . S
C813 C819 1.429 . S
C814 C806 1.574 . S
C814 H809 0.949 . S
C814 C820 1.368 1_565 S
C815 C799 1.349 . S
C815 H807 0.950 . S
C815 C813 1.327 . S
C816 C804 1.346 . S
C816 H810 0.950 1_545 S
C816 C817 1.311 1_545 S
C817 H811 0.975 . S
C817 C816 1.311 1_565 S
C817 C821 1.424 1_565 S
C818 C801 1.574 . S
C818 H812 0.949 . S
C818 C822 1.368 . S
C819 C800 1.429 1_545 S
C819 C813 1.429 . S
C819 C820 1.523 . S
C820 C801 1.368 . S
C820 C814 1.368 1_545 S
C820 C819 1.523 . S
C821 C805 1.429 . S
C821 C817 1.424 1_545 S
C821 C822 1.523 . S
C822 C806 1.368 1_545 S
C822 C818 1.368 . S
C822 C821 1.523 . S
H823 C798 0.950 . S
H824 C800 0.950 . S
H825 C801 0.949 . S
H826 C803 0.950 . S
H827 C805 0.950 . S
C828 C829 1.349 1_565 S
C828 C830 1.327 . S
C828 H853 0.950 . S
C829 C828 1.349 1_545 S
C829 C845 1.349 . S
C830 C828 1.327 . S
C830 C849 1.429 1_565 S
C830 H854 0.950 . S
C831 C848 1.574 . S
C831 C850 1.368 . S
C831 H855 0.949 . S
H832 C836 0.949 . S
C833 C834 1.331 1_545 S
C833 C835 1.327 . S
C833 H856 0.950 . S
C834 C833 1.331 1_565 S
C834 C846 1.377 . S
C835 C833 1.327 . S
C835 C851 1.450 . S
C835 H857 0.950 . S
C836 H832 0.949 . S
C836 C844 1.574 . S
C836 C852 1.308 1_565 S
H837 C845 0.950 . S
H838 C843 0.950 . S
H839 C844 0.949 . S
H840 C846 0.950 . S
H841 C847 0.950 . S
H842 C848 0.949 . S
C843 H838 0.950 . S
C843 C845 1.327 . S
C843 C849 1.429 . S
C844 C836 1.574 . S
C844 H839 0.949 . S
C844 C850 1.368 1_565 S
C845 C829 1.349 . S
C845 H837 0.950 . S
C845 C843 1.327 . S
C846 C834 1.377 . S
C846 H840 0.950 . S
C846 C847 1.327 . S
C847 H841 0.950 . S
C847 C846 1.327 . S
C847 C851 1.416 1_565 S
C848 C831 1.574 . S
C848 H842 0.949 . S
C848 C852 1.413 . S
C849 C830 1.429 1_545 S
C849 C843 1.429 . S
C849 C850 1.523 . S
C850 C831 1.368 . S
C850 C844 1.368 1_545 S
C850 C849 1.523 . S
C851 C835 1.450 . S
C851 C847 1.416 1_545 S
C851 C852 1.537 . S
C852 C836 1.308 1_545 S
C852 C848 1.413 . S
C852 C851 1.537 . S
H853 C828 0.950 . S
H854 C830 0.950 . S
H855 C831 0.949 . S
H856 C833 0.950 . S
H857 C835 0.950 . S
C858 C859 1.349 . S
C858 C860 1.327 . S
C858 H883 0.950 . S
C859 C858 1.349 . S
C859 C875 1.349 . S
C860 C858 1.327 . S
C860 C879 1.429 . S
C860 H884 0.950 . S
C861 C878 1.574 . S
C861 C880 1.368 . S
C861 H885 0.949 1_455 S
H862 C866 0.949 . S
C863 C864 1.349 . S
C863 C865 1.327 . S
C863 H886 0.950 . S
C864 C863 1.349 . S
C864 C876 1.349 . S
C865 C863 1.327 . S
C865 C881 1.429 . S
C865 H887 0.950 . S
C866 H862 0.949 . S
C866 C874 1.574 . S
C866 C882 1.368 . S
H867 C875 0.940 1_655 S
H868 C873 0.959 1_655 S
H869 C874 0.949 . S
H870 C876 0.950 . S
H871 C877 0.950 . S
H872 C878 0.939 . S
C873 H868 0.959 1_455 S
C873 C875 1.327 . S
C873 C879 1.429 . S
C874 C866 1.574 . S
C874 H869 0.949 . S
C874 C880 1.368 . S
C875 C859 1.349 . S
C875 H867 0.940 1_455 S
C875 C873 1.327 . S
C876 C864 1.349 . S
C876 H870 0.950 . S
C876 C877 1.327 . S
C877 H871 0.950 . S
C877 C876 1.327 . S
C877 C881 1.429 . S
C878 C861 1.574 . S
C878 H872 0.939 . S
C878 C882 1.368 . S
C879 C860 1.429 . S
C879 C873 1.429 . S
C879 C880 1.523 . S
C880 C861 1.368 . S
C880 C874 1.368 . S
C880 C879 1.523 . S
C881 C865 1.429 . S
C881 C877 1.429 . S
C881 C882 1.523 . S
C882 C866 1.368 . S
C882 C878 1.368 . S
C882 C881 1.523 . S
H883 C858 0.950 . S
H884 C860 0.950 . S
H885 C861 0.949 1_655 S
H886 C863 0.950 . S
H887 C865 0.950 . S
C888 C889 1.349 . S
C888 C890 1.327 . S
C888 H913 0.950 . S
C889 C888 1.349 . S
C889 C905 1.349 . S
C890 C888 1.327 . S
C890 C909 1.429 . S
C890 H914 0.950 . S
C891 C908 1.574 . S
C891 C910 1.368 . S
C891 H915 0.949 . S
H892 C896 0.949 . S
C893 C894 1.349 . S
C893 C895 1.327 . S
C893 H916 0.950 . S
C894 C893 1.349 . S
C894 C906 1.349 . S
C895 C893 1.327 . S
C895 C911 1.429 . S
C895 H917 0.950 . S
C896 H892 0.949 . S
C896 C904 1.574 . S
C896 C912 1.368 . S
H897 C905 0.950 . S
H898 C903 0.950 . S
H899 C904 0.949 . S
H900 C906 0.950 . S
H901 C907 0.950 . S
H902 C908 0.949 . S
C903 H898 0.950 . S
C903 C905 1.327 . S
C903 C909 1.429 . S
C904 C896 1.574 . S
C904 H899 0.949 . S
C904 C910 1.368 . S
C905 C889 1.349 . S
C905 H897 0.950 . S
C905 C903 1.327 . S
C906 C894 1.349 . S
C906 H900 0.950 . S
C906 C907 1.327 . S
C907 H901 0.950 . S
C907 C906 1.327 . S
C907 C911 1.429 . S
C908 C891 1.574 . S
C908 H902 0.949 . S
C908 C912 1.368 . S
C909 C890 1.429 . S
C909 C903 1.429 . S
C909 C910 1.523 . S
C910 C891 1.368 . S
C910 C904 1.368 . S
C910 C909 1.523 . S
C911 C895 1.429 . S
C911 C907 1.429 . S
C911 C912 1.523 . S
C912 C896 1.368 . S
C912 C908 1.368 . S
C912 C911 1.523 . S
H913 C888 0.950 . S
H914 C890 0.950 . S
H915 C891 0.949 . S
H916 C893 0.950 . S
H917 C895 0.950 . S
C918 C919 1.349 . S
C918 C920 1.327 . S
C918 H943 0.950 . S
C919 C918 1.349 . S
C919 C935 1.349 . S
C920 C918 1.327 . S
C920 C939 1.429 . S
C920 H944 0.950 . S
C921 C938 1.574 . S
C921 C940 1.368 . S
C921 H945 0.949 . S
H922 C926 0.949 . S
C923 C924 1.349 . S
C923 C925 1.327 . S
C923 H946 0.950 . S
C924 C923 1.349 . S
C924 C936 1.349 . S
C925 C923 1.327 . S
C925 C941 1.429 . S
C925 H947 0.950 . S
C926 H922 0.949 . S
C926 C934 1.574 . S
C926 C942 1.368 . S
H927 C935 0.950 . S
H928 C933 0.950 . S
H929 C934 0.949 . S
H930 C936 0.950 . S
H931 C937 0.950 . S
H932 C938 0.949 . S
C933 H928 0.950 . S
C933 C935 1.327 . S
C933 C939 1.429 . S
C934 C926 1.574 . S
C934 H929 0.949 . S
C934 C940 1.368 . S
C935 C919 1.349 . S
C935 H927 0.950 . S
C935 C933 1.327 . S
C936 C924 1.349 . S
C936 H930 0.950 . S
C936 C937 1.327 . S
C937 H931 0.950 . S
C937 C936 1.327 . S
C937 C941 1.429 . S
C938 C921 1.574 . S
C938 H932 0.949 . S
C938 C942 1.368 . S
C939 C920 1.429 . S
C939 C933 1.429 . S
C939 C940 1.523 . S
C940 C921 1.368 . S
C940 C934 1.368 . S
C940 C939 1.523 . S
C941 C925 1.429 . S
C941 C937 1.429 . S
C941 C942 1.523 . S
C942 C926 1.368 . S
C942 C938 1.368 . S
C942 C941 1.523 . S
H943 C918 0.950 . S
H944 C920 0.950 . S
H945 C921 0.949 . S
H946 C923 0.950 . S
H947 C925 0.950 . S
C948 C949 1.349 . S
C948 C950 1.327 . S
C948 H973 0.950 . S
C949 C948 1.349 . S
C949 C965 1.349 . S
C950 C948 1.327 . S
C950 C969 1.429 . S
C950 H974 0.950 . S
C951 C968 1.574 . S
C951 C970 1.368 . S
C951 H975 0.949 . S
H952 C956 0.949 . S
C953 C954 1.349 . S
C953 C955 1.327 . S
C953 H976 0.950 . S
C954 C953 1.349 . S
C954 C966 1.349 . S
C955 C953 1.327 . S
C955 C971 1.429 . S
C955 H977 0.950 . S
C956 H952 0.949 . S
C956 C964 1.574 . S
C956 C972 1.368 . S
H957 C965 0.950 . S
H958 C963 0.950 . S
H959 C964 0.949 . S
H960 C966 0.950 . S
H961 C967 0.950 . S
H962 C968 0.949 . S
C963 H958 0.950 . S
C963 C965 1.327 . S
C963 C969 1.429 . S
C964 C956 1.574 . S
C964 H959 0.949 . S
C964 C970 1.368 . S
C965 C949 1.349 . S
C965 H957 0.950 . S
C965 C963 1.327 . S
C966 C954 1.349 . S
C966 H960 0.950 . S
C966 C967 1.327 . S
C967 H961 0.950 . S
C967 C966 1.327 . S
C967 C971 1.429 . S
C968 C951 1.574 . S
C968 H962 0.949 . S
C968 C972 1.368 . S
C969 C950 1.429 . S
C969 C963 1.429 . S
C969 C970 1.523 . S
C970 C951 1.368 . S
C970 C964 1.368 . S
C970 C969 1.523 . S
C971 C955 1.429 . S
C971 C967 1.429 . S
C971 C972 1.523 . S
C972 C956 1.368 . S
C972 C968 1.368 . S
C972 C971 1.523 . S
H973 C948 0.950 . S
H974 C950 0.950 . S
H975 C951 0.949 . S
H976 C953 0.950 . S
H977 C955 0.950 . S
C978 C979 1.349 . S
C978 C980 1.327 . S
C978 H1003 0.950 . S
C979 C978 1.349 . S
C979 C995 1.349 . S
C980 C978 1.327 . S
C980 C999 1.429 . S
C980 H1004 0.950 . S
C981 C998 1.574 . S
C981 C1000 1.368 . S
C981 H1005 0.949 . S
H982 C986 0.949 . S
C983 C984 1.349 . S
C983 C985 1.327 . S
C983 H1006 0.950 . S
C984 C983 1.349 . S
C984 C996 1.349 . S
C985 C983 1.327 . S
C985 C1001 1.429 . S
C985 H1007 0.950 . S
C986 H982 0.949 . S
C986 C994 1.574 . S
C986 C1002 1.368 . S
H987 C995 0.950 . S
H988 C993 0.950 . S
H989 C994 0.949 . S
H990 C996 0.950 . S
H991 C997 0.950 . S
H992 C998 0.949 . S
C993 H988 0.950 . S
C993 C995 1.327 . S
C993 C999 1.429 . S
C994 C986 1.574 . S
C994 H989 0.949 . S
C994 C1000 1.368 . S
C995 C979 1.349 . S
C995 H987 0.950 . S
C995 C993 1.327 . S
C996 C984 1.349 . S
C996 H990 0.950 . S
C996 C997 1.327 . S
C997 H991 0.950 . S
C997 C996 1.327 . S
C997 C1001 1.429 . S
C998 C981 1.574 . S
C998 H992 0.949 . S
C998 C1002 1.368 . S
C999 C980 1.429 . S
C999 C993 1.429 . S
C999 C1000 1.523 . S
C1000 C981 1.368 . S
C1000 C994 1.368 . S
C1000 C999 1.523 . S
C1001 C985 1.429 . S
C1001 C997 1.429 . S
C1001 C1002 1.523 . S
C1002 C986 1.368 . S
C1002 C998 1.368 . S
C1002 C1001 1.523 . S
H1003 C978 0.950 . S
H1004 C980 0.950 . S
H1005 C981 0.949 . S
H1006 C983 0.950 . S
H1007 C985 0.950 . S
C1008 C1009 1.349 . S
C1008 C1010 1.327 . S
C1008 H1033 0.950 . S
C1009 C1008 1.349 . S
C1009 C1025 1.349 . S
C1010 C1008 1.327 . S
C1010 C1029 1.429 . S
C1010 H1034 0.950 . S
C1011 C1028 1.574 . S
C1011 C1030 1.368 . S
C1011 H1035 0.949 . S
H1012 C1016 0.949 . S
C1013 C1014 1.349 . S
C1013 C1015 1.327 . S
C1013 H1036 0.950 . S
C1014 C1013 1.349 . S
C1014 C1026 1.349 . S
C1015 C1013 1.327 . S
C1015 C1031 1.429 . S
C1015 H1037 0.950 . S
C1016 H1012 0.949 . S
C1016 C1024 1.574 . S
C1016 C1032 1.368 . S
H1017 C1025 0.950 . S
H1018 C1023 0.950 . S
H1019 C1024 0.949 . S
H1020 C1026 0.950 . S
H1021 C1027 0.950 . S
H1022 C1028 0.949 . S
C1023 H1018 0.950 . S
C1023 C1025 1.327 . S
C1023 C1029 1.429 . S
C1024 C1016 1.574 . S
C1024 H1019 0.949 . S
C1024 C1030 1.368 . S
C1025 C1009 1.349 . S
C1025 H1017 0.950 . S
C1025 C1023 1.327 . S
C1026 C1014 1.349 . S
C1026 H1020 0.950 . S
C1026 C1027 1.327 . S
C1027 H1021 0.950 . S
C1027 C1026 1.327 . S
C1027 C1031 1.429 . S
C1028 C1011 1.574 . S
C1028 H1022 0.949 . S
C1028 C1032 1.368 . S
C1029 C1010 1.429 . S
C1029 C1023 1.429 . S
C1029 C1030 1.523 . S
C1030 C1011 1.368 . S
C1030 C1024 1.368 . S
C1030 C1029 1.523 . S
C1031 C1015 1.429 . S
C1031 C1027 1.429 . S
C1031 C1032 1.523 . S
C1032 C1016 1.368 . S
C1032 C1028 1.368 . S
C1032 C1031 1.523 . S
H1033 C1008 0.950 . S
H1034 C1010 0.950 . S
H1035 C1011 0.949 . S
H1036 C1013 0.950 . S
H1037 C1015 0.950 . S
C1038 C1039 1.349 . S
C1038 C1040 1.327 . S
C1038 H1063 0.950 . S
C1039 C1038 1.349 . S
C1039 C1055 1.349 . S
C1040 C1038 1.327 . S
C1040 C1059 1.429 . S
C1040 H1064 0.950 . S
C1041 C1058 1.574 . S
C1041 C1060 1.368 . S
C1041 H1065 0.949 . S
H1042 C1046 0.949 . S
C1043 C1044 1.349 . S
C1043 C1045 1.327 . S
C1043 H1066 0.950 . S
C1044 C1043 1.349 . S
C1044 C1056 1.349 . S
C1045 C1043 1.327 . S
C1045 C1061 1.429 . S
C1045 H1067 0.950 . S
C1046 H1042 0.949 . S
C1046 C1054 1.574 . S
C1046 C1062 1.368 . S
H1047 C1055 0.950 . S
H1048 C1053 0.950 . S
H1049 C1054 0.949 . S
H1050 C1056 0.950 . S
H1051 C1057 0.950 . S
H1052 C1058 0.949 . S
C1053 H1048 0.950 . S
C1053 C1055 1.327 . S
C1053 C1059 1.429 . S
C1054 C1046 1.574 . S
C1054 H1049 0.949 . S
C1054 C1060 1.368 . S
C1055 C1039 1.349 . S
C1055 H1047 0.950 . S
C1055 C1053 1.327 . S
C1056 C1044 1.349 . S
C1056 H1050 0.950 . S
C1056 C1057 1.327 . S
C1057 H1051 0.950 . S
C1057 C1056 1.327 . S
C1057 C1061 1.429 . S
C1058 C1041 1.574 . S
C1058 H1052 0.949 . S
C1058 C1062 1.368 . S
C1059 C1040 1.429 . S
C1059 C1053 1.429 . S
C1059 C1060 1.523 . S
C1060 C1041 1.368 . S
C1060 C1054 1.368 . S
C1060 C1059 1.523 . S
C1061 C1045 1.429 . S
C1061 C1057 1.429 . S
C1061 C1062 1.523 . S
C1062 C1046 1.368 . S
C1062 C1058 1.368 . S
C1062 C1061 1.523 . S
H1063 C1038 0.950 . S
H1064 C1040 0.950 . S
H1065 C1041 0.949 . S
H1066 C1043 0.950 . S
H1067 C1045 0.950 . S
C1068 C1069 1.349 . S
C1068 C1070 1.327 . S
C1068 H1093 0.950 . S
C1069 C1068 1.349 . S
C1069 C1085 1.349 . S
C1070 C1068 1.327 . S
C1070 C1089 1.429 . S
C1070 H1094 0.950 . S
C1071 C1088 1.574 . S
C1071 C1090 1.368 . S
C1071 H1095 0.949 . S
H1072 C1076 0.949 . S
C1073 C1074 1.349 . S
C1073 C1075 1.327 . S
C1073 H1096 0.950 . S
C1074 C1073 1.349 . S
C1074 C1086 1.349 . S
C1075 C1073 1.327 . S
C1075 C1091 1.429 . S
C1075 H1097 0.950 . S
C1076 H1072 0.949 . S
C1076 C1084 1.574 . S
C1076 C1092 1.368 . S
H1077 C1085 0.950 . S
H1078 C1083 0.950 . S
H1079 C1084 0.949 . S
H1080 C1086 0.950 . S
H1081 C1087 0.950 . S
H1082 C1088 0.949 . S
C1083 H1078 0.950 . S
C1083 C1085 1.327 . S
C1083 C1089 1.429 . S
C1084 C1076 1.574 . S
C1084 H1079 0.949 . S
C1084 C1090 1.368 . S
C1085 C1069 1.349 . S
C1085 H1077 0.950 . S
C1085 C1083 1.327 . S
C1086 C1074 1.349 . S
C1086 H1080 0.950 . S
C1086 C1087 1.327 . S
C1087 H1081 0.950 . S
C1087 C1086 1.327 . S
C1087 C1091 1.429 . S
C1088 C1071 1.574 . S
C1088 H1082 0.949 . S
C1088 C1092 1.368 . S
C1089 C1070 1.429 . S
C1089 C1083 1.429 . S
C1089 C1090 1.523 . S
C1090 C1071 1.368 . S
C1090 C1084 1.368 . S
C1090 C1089 1.523 . S
C1091 C1075 1.429 . S
C1091 C1087 1.429 . S
C1091 C1092 1.523 . S
C1092 C1076 1.368 . S
C1092 C1088 1.368 . S
C1092 C1091 1.523 . S
H1093 C1068 0.950 . S
H1094 C1070 0.950 . S
H1095 C1071 0.949 . S
H1096 C1073 0.950 . S
H1097 C1075 0.950 . S
C1098 C1099 1.349 . S
C1098 C1100 1.327 . S
C1098 H1123 0.950 . S
C1099 C1098 1.349 . S
C1099 C1115 1.349 . S
C1100 C1098 1.327 . S
C1100 C1119 1.429 . S
C1100 H1124 0.950 . S
C1101 C1118 1.574 . S
C1101 C1120 1.368 . S
C1101 H1125 0.949 . S
H1102 C1106 0.949 . S
C1103 C1104 1.349 . S
C1103 C1105 1.327 . S
C1103 H1126 0.950 . S
C1104 C1103 1.349 . S
C1104 C1116 1.349 . S
C1105 C1103 1.327 . S
C1105 C1121 1.429 . S
C1105 H1127 0.950 . S
C1106 H1102 0.949 . S
C1106 C1114 1.574 . S
C1106 C1122 1.368 . S
H1107 C1115 0.950 . S
H1108 C1113 0.950 . S
H1109 C1114 0.949 . S
H1110 C1116 0.950 . S
H1111 C1117 0.950 . S
H1112 C1118 0.949 . S
C1113 H1108 0.950 . S
C1113 C1115 1.327 . S
C1113 C1119 1.429 . S
C1114 C1106 1.574 . S
C1114 H1109 0.949 . S
C1114 C1120 1.368 . S
C1115 C1099 1.349 . S
C1115 H1107 0.950 . S
C1115 C1113 1.327 . S
C1116 C1104 1.349 . S
C1116 H1110 0.950 . S
C1116 C1117 1.327 . S
C1117 H1111 0.950 . S
C1117 C1116 1.327 . S
C1117 C1121 1.429 . S
C1118 C1101 1.574 . S
C1118 H1112 0.949 . S
C1118 C1122 1.368 . S
C1119 C1100 1.429 . S
C1119 C1113 1.429 . S
C1119 C1120 1.523 . S
C1120 C1101 1.368 . S
C1120 C1114 1.368 . S
C1120 C1119 1.523 . S
C1121 C1105 1.429 . S
C1121 C1117 1.429 . S
C1121 C1122 1.523 . S
C1122 C1106 1.368 . S
C1122 C1118 1.368 . S
C1122 C1121 1.523 . S
H1123 C1098 0.950 . S
H1124 C1100 0.950 . S
H1125 C1101 0.949 . S
H1126 C1103 0.950 . S
H1127 C1105 0.950 . S
C1128 C1129 1.349 . S
C1128 C1130 1.327 . S
C1128 H1153 0.950 . S
C1129 C1128 1.349 . S
C1129 C1145 1.349 . S
C1130 C1128 1.327 . S
C1130 C1149 1.429 . S
C1130 H1154 0.950 . S
C1131 C1148 1.574 . S
C1131 C1150 1.368 . S
C1131 H1155 0.949 . S
H1132 C1136 0.949 . S
C1133 C1134 1.349 . S
C1133 C1135 1.327 . S
C1133 H1156 0.950 . S
C1134 C1133 1.349 . S
C1134 C1146 1.349 . S
C1135 C1133 1.327 . S
C1135 C1151 1.429 . S
C1135 H1157 0.950 . S
C1136 H1132 0.949 . S
C1136 C1144 1.574 . S
C1136 C1152 1.368 . S
H1137 C1145 0.950 . S
H1138 C1143 0.950 . S
H1139 C1144 0.949 . S
H1140 C1146 0.950 . S
H1141 C1147 0.950 . S
H1142 C1148 0.949 . S
C1143 H1138 0.950 . S
C1143 C1145 1.327 . S
C1143 C1149 1.429 . S
C1144 C1136 1.574 . S
C1144 H1139 0.949 . S
C1144 C1150 1.368 . S
C1145 C1129 1.349 . S
C1145 H1137 0.950 . S
C1145 C1143 1.327 . S
C1146 C1134 1.349 . S
C1146 H1140 0.950 . S
C1146 C1147 1.327 . S
C1147 H1141 0.950 . S
C1147 C1146 1.327 . S
C1147 C1151 1.429 . S
C1148 C1131 1.574 . S
C1148 H1142 0.949 . S
C1148 C1152 1.368 . S
C1149 C1130 1.429 . S
C1149 C1143 1.429 . S
C1149 C1150 1.523 . S
C1150 C1131 1.368 . S
C1150 C1144 1.368 . S
C1150 C1149 1.523 . S
C1151 C1135 1.429 . S
C1151 C1147 1.429 . S
C1151 C1152 1.523 . S
C1152 C1136 1.368 . S
C1152 C1148 1.368 . S
C1152 C1151 1.523 . S
H1153 C1128 0.950 . S
H1154 C1130 0.950 . S
H1155 C1131 0.949 . S
H1156 C1133 0.950 . S
H1157 C1135 0.950 . S
C1158 C1159 1.349 . S
C1158 C1160 1.327 . S
C1158 H1183 0.950 . S
C1159 C1158 1.349 . S
C1159 C1175 1.349 . S
C1160 C1158 1.327 . S
C1160 C1179 1.429 . S
C1160 H1184 0.950 . S
C1161 C1178 1.574 . S
C1161 C1180 1.368 . S
C1161 H1185 0.949 . S
H1162 C1166 0.949 . S
C1163 C1164 1.349 . S
C1163 C1165 1.327 . S
C1163 H1186 0.950 . S
C1164 C1163 1.349 . S
C1164 C1176 1.349 . S
C1165 C1163 1.327 . S
C1165 C1181 1.429 . S
C1165 H1187 0.950 . S
C1166 H1162 0.949 . S
C1166 C1174 1.574 . S
C1166 C1182 1.368 . S
H1167 C1175 0.950 . S
H1168 C1173 0.950 . S
H1169 C1174 0.949 . S
H1170 C1176 0.950 . S
H1171 C1177 0.950 . S
H1172 C1178 0.949 . S
C1173 H1168 0.950 . S
C1173 C1175 1.327 . S
C1173 C1179 1.429 . S
C1174 C1166 1.574 . S
C1174 H1169 0.949 . S
C1174 C1180 1.368 . S
C1175 C1159 1.349 . S
C1175 H1167 0.950 . S
C1175 C1173 1.327 . S
C1176 C1164 1.349 . S
C1176 H1170 0.950 . S
C1176 C1177 1.327 . S
C1177 H1171 0.950 . S
C1177 C1176 1.327 . S
C1177 C1181 1.429 . S
C1178 C1161 1.574 . S
C1178 H1172 0.949 . S
C1178 C1182 1.368 . S
C1179 C1160 1.429 . S
C1179 C1173 1.429 . S
C1179 C1180 1.523 . S
C1180 C1161 1.368 . S
C1180 C1174 1.368 . S
C1180 C1179 1.523 . S
C1181 C1165 1.429 . S
C1181 C1177 1.429 . S
C1181 C1182 1.523 . S
C1182 C1166 1.368 . S
C1182 C1178 1.368 . S
C1182 C1181 1.523 . S
H1183 C1158 0.950 . S
H1184 C1160 0.950 . S
H1185 C1161 0.949 . S
H1186 C1163 0.950 . S
H1187 C1165 0.950 . S
C1188 C1189 1.349 . S
C1188 C1190 1.327 . S
C1188 H1213 0.950 . S
C1189 C1188 1.349 . S
C1189 C1205 1.349 . S
C1190 C1188 1.327 . S
C1190 C1209 1.429 . S
C1190 H1214 0.950 . S
C1191 C1208 1.574 . S
C1191 C1210 1.368 . S
C1191 H1215 0.949 . S
H1192 C1196 0.949 . S
C1193 C1194 1.349 . S
C1193 C1195 1.327 . S
C1193 H1216 0.950 . S
C1194 C1193 1.349 . S
C1194 C1206 1.349 . S
C1195 C1193 1.327 . S
C1195 C1211 1.429 . S
C1195 H1217 0.950 . S
C1196 H1192 0.949 . S
C1196 C1204 1.574 . S
C1196 C1212 1.368 . S
H1197 C1205 0.950 . S
H1198 C1203 0.950 . S
H1199 C1204 0.949 . S
H1200 C1206 0.950 . S
H1201 C1207 0.950 . S
H1202 C1208 0.949 . S
C1203 H1198 0.950 . S
C1203 C1205 1.327 . S
C1203 C1209 1.429 . S
C1204 C1196 1.574 . S
C1204 H1199 0.949 . S
C1204 C1210 1.368 . S
C1205 C1189 1.349 . S
C1205 H1197 0.950 . S
C1205 C1203 1.327 . S
C1206 C1194 1.349 . S
C1206 H1200 0.950 . S
C1206 C1207 1.327 . S
C1207 H1201 0.950 . S
C1207 C1206 1.327 . S
C1207 C1211 1.429 . S
C1208 C1191 1.574 . S
C1208 H1202 0.949 . S
C1208 C1212 1.368 . S
C1209 C1190 1.429 . S
C1209 C1203 1.429 . S
C1209 C1210 1.523 . S
C1210 C1191 1.368 . S
C1210 C1204 1.368 . S
C1210 C1209 1.523 . S
C1211 C1195 1.429 . S
C1211 C1207 1.429 . S
C1211 C1212 1.523 . S
C1212 C1196 1.368 . S
C1212 C1208 1.368 . S
C1212 C1211 1.523 . S
H1213 C1188 0.950 . S
H1214 C1190 0.950 . S
H1215 C1191 0.949 . S
H1216 C1193 0.950 . S
H1217 C1195 0.950 . S
C1218 C1219 1.349 . S
C1218 C1220 1.327 . S
C1218 H1243 0.950 . S
C1219 C1218 1.349 . S
C1219 C1235 1.349 . S
C1220 C1218 1.327 . S
C1220 C1239 1.429 . S
C1220 H1244 0.950 . S
C1221 C1238 1.574 . S
C1221 C1240 1.368 . S
C1221 H1245 0.949 . S
H1222 C1226 0.949 . S
C1223 C1224 1.349 . S
C1223 C1225 1.327 . S
C1223 H1246 0.950 . S
C1224 C1223 1.349 . S
C1224 C1236 1.349 . S
C1225 C1223 1.327 . S
C1225 C1241 1.429 . S
C1225 H1247 0.950 . S
C1226 H1222 0.949 . S
C1226 C1234 1.574 . S
C1226 C1242 1.368 . S
H1227 C1235 0.950 . S
H1228 C1233 0.950 . S
H1229 C1234 0.949 . S
H1230 C1236 0.950 . S
H1231 C1237 0.950 . S
H1232 C1238 0.949 . S
C1233 H1228 0.950 . S
C1233 C1235 1.327 . S
C1233 C1239 1.429 . S
C1234 C1226 1.574 . S
C1234 H1229 0.949 . S
C1234 C1240 1.368 . S
C1235 C1219 1.349 . S
C1235 H1227 0.950 . S
C1235 C1233 1.327 . S
C1236 C1224 1.349 . S
C1236 H1230 0.950 . S
C1236 C1237 1.327 . S
C1237 H1231 0.950 . S
C1237 C1236 1.327 . S
C1237 C1241 1.429 . S
C1238 C1221 1.574 . S
C1238 H1232 0.949 . S
C1238 C1242 1.368 . S
C1239 C1220 1.429 . S
C1239 C1233 1.429 . S
C1239 C1240 1.523 . S
C1240 C1221 1.368 . S
C1240 C1234 1.368 . S
C1240 C1239 1.523 . S
C1241 C1225 1.429 . S
C1241 C1237 1.429 . S
C1241 C1242 1.523 . S
C1242 C1226 1.368 . S
C1242 C1238 1.368 . S
C1242 C1241 1.523 . S
H1243 C1218 0.950 . S
H1244 C1220 0.950 . S
H1245 C1221 0.949 . S
H1246 C1223 0.950 . S
H1247 C1225 0.950 . S
C1248 C1249 1.349 . S
C1248 C1250 1.327 . S
C1248 H1273 0.950 . S
C1249 C1248 1.349 . S
C1249 C1265 1.349 . S
C1250 C1248 1.327 . S
C1250 C1269 1.429 . S
C1250 H1274 0.950 . S
C1251 C1268 1.574 . S
C1251 C1270 1.368 . S
C1251 H1275 0.949 . S
H1252 C1256 0.949 . S
C1253 C1254 1.349 . S
C1253 C1255 1.327 . S
C1253 H1276 0.950 . S
C1254 C1253 1.349 . S
C1254 C1266 1.349 . S
C1255 C1253 1.327 . S
C1255 C1271 1.429 . S
C1255 H1277 0.950 . S
C1256 H1252 0.949 . S
C1256 C1264 1.574 . S
C1256 C1272 1.368 . S
H1257 C1265 0.950 . S
H1258 C1263 0.950 . S
H1259 C1264 0.949 . S
H1260 C1266 0.950 . S
H1261 C1267 0.950 . S
H1262 C1268 0.949 . S
C1263 H1258 0.950 . S
C1263 C1265 1.327 . S
C1263 C1269 1.429 . S
C1264 C1256 1.574 . S
C1264 H1259 0.949 . S
C1264 C1270 1.368 . S
C1265 C1249 1.349 . S
C1265 H1257 0.950 . S
C1265 C1263 1.327 . S
C1266 C1254 1.349 . S
C1266 H1260 0.950 . S
C1266 C1267 1.327 . S
C1267 H1261 0.950 . S
C1267 C1266 1.327 . S
C1267 C1271 1.429 . S
C1268 C1251 1.574 . S
C1268 H1262 0.949 . S
C1268 C1272 1.368 . S
C1269 C1250 1.429 . S
C1269 C1263 1.429 . S
C1269 C1270 1.523 . S
C1270 C1251 1.368 . S
C1270 C1264 1.368 . S
C1270 C1269 1.523 . S
C1271 C1255 1.429 . S
C1271 C1267 1.429 . S
C1271 C1272 1.523 . S
C1272 C1256 1.368 . S
C1272 C1268 1.368 . S
C1272 C1271 1.523 . S
H1273 C1248 0.950 . S
H1274 C1250 0.950 . S
H1275 C1251 0.949 . S
H1276 C1253 0.950 . S
H1277 C1255 0.950 . S
C1278 C1279 1.349 . S
C1278 C1280 1.327 . S
C1278 H1303 0.950 . S
C1279 C1278 1.349 . S
C1279 C1295 1.349 . S
C1280 C1278 1.327 . S
C1280 C1299 1.429 . S
C1280 H1304 0.950 . S
C1281 C1298 1.574 . S
C1281 C1300 1.368 . S
C1281 H1305 0.949 . S
H1282 C1286 0.949 . S
C1283 C1284 1.349 . S
C1283 C1285 1.327 . S
C1283 H1306 0.950 . S
C1284 C1283 1.349 . S
C1284 C1296 1.349 . S
C1285 C1283 1.327 . S
C1285 C1301 1.429 . S
C1285 H1307 0.950 . S
C1286 H1282 0.949 . S
C1286 C1294 1.574 . S
C1286 C1302 1.368 . S
H1287 C1295 0.950 . S
H1288 C1293 0.950 . S
H1289 C1294 0.949 . S
H1290 C1296 0.950 . S
H1291 C1297 0.950 . S
H1292 C1298 0.949 . S
C1293 H1288 0.950 . S
C1293 C1295 1.327 . S
C1293 C1299 1.429 . S
C1294 C1286 1.574 . S
C1294 H1289 0.949 . S
C1294 C1300 1.368 . S
C1295 C1279 1.349 . S
C1295 H1287 0.950 . S
C1295 C1293 1.327 . S
C1296 C1284 1.349 . S
C1296 H1290 0.950 . S
C1296 C1297 1.327 . S
C1297 H1291 0.950 . S
C1297 C1296 1.327 . S
C1297 C1301 1.429 . S
C1298 C1281 1.574 . S
C1298 H1292 0.949 . S
C1298 C1302 1.368 . S
C1299 C1280 1.429 . S
C1299 C1293 1.429 . S
C1299 C1300 1.523 . S
C1300 C1281 1.368 . S
C1300 C1294 1.368 . S
C1300 C1299 1.523 . S
C1301 C1285 1.429 . S
C1301 C1297 1.429 . S
C1301 C1302 1.523 . S
C1302 C1286 1.368 . S
C1302 C1298 1.368 . S
C1302 C1301 1.523 . S
H1303 C1278 0.950 . S
H1304 C1280 0.950 . S
H1305 C1281 0.949 . S
H1306 C1283 0.950 . S
H1307 C1285 0.950 . S
C1308 C1309 1.349 . S
C1308 C1310 1.327 . S
C1308 H1333 0.950 . S
C1309 C1308 1.349 . S
C1309 C1325 1.349 . S
C1310 C1308 1.327 . S
C1310 C1329 1.429 . S
C1310 H1334 0.950 . S
C1311 C1328 1.574 . S
C1311 C1330 1.368 . S
C1311 H1335 0.949 . S
H1312 C1316 0.949 . S
C1313 C1314 1.349 . S
C1313 C1315 1.327 . S
C1313 H1336 0.950 . S
C1314 C1313 1.349 . S
C1314 C1326 1.349 . S
C1315 C1313 1.327 . S
C1315 C1331 1.429 . S
C1315 H1337 0.950 . S
C1316 H1312 0.949 . S
C1316 C1324 1.574 . S
C1316 C1332 1.368 . S
H1317 C1325 0.950 . S
H1318 C1323 0.950 . S
H1319 C1324 0.949 . S
H1320 C1326 0.950 . S
H1321 C1327 0.950 . S
H1322 C1328 0.949 . S
C1323 H1318 0.950 . S
C1323 C1325 1.327 . S
C1323 C1329 1.429 . S
C1324 C1316 1.574 . S
C1324 H1319 0.949 . S
C1324 C1330 1.368 . S
C1325 C1309 1.349 . S
C1325 H1317 0.950 . S
C1325 C1323 1.327 . S
C1326 C1314 1.349 . S
C1326 H1320 0.950 . S
C1326 C1327 1.327 . S
C1327 H1321 0.950 . S
C1327 C1326 1.327 . S
C1327 C1331 1.429 . S
C1328 C1311 1.574 . S
C1328 H1322 0.949 . S
C1328 C1332 1.368 . S
C1329 C1310 1.429 . S
C1329 C1323 1.429 . S
C1329 C1330 1.523 . S
C1330 C1311 1.368 . S
C1330 C1324 1.368 . S
C1330 C1329 1.523 . S
C1331 C1315 1.429 . S
C1331 C1327 1.429 . S
C1331 C1332 1.523 . S
C1332 C1316 1.368 . S
C1332 C1328 1.368 . S
C1332 C1331 1.523 . S
H1333 C1308 0.950 . S
H1334 C1310 0.950 . S
H1335 C1311 0.949 . S
H1336 C1313 0.950 . S
H1337 C1315 0.950 . S
C1338 C1339 1.349 . S
C1338 C1340 1.327 . S
C1338 H1363 0.950 . S
C1339 C1338 1.349 . S
C1339 C1355 1.349 . S
C1340 C1338 1.327 . S
C1340 C1359 1.429 . S
C1340 H1364 0.950 . S
C1341 C1358 1.574 . S
C1341 C1360 1.368 . S
C1341 H1365 0.949 . S
H1342 C1346 0.949 . S
C1343 C1344 1.349 . S
C1343 C1345 1.327 . S
C1343 H1366 0.950 . S
C1344 C1343 1.349 . S
C1344 C1356 1.349 . S
C1345 C1343 1.327 . S
C1345 C1361 1.429 . S
C1345 H1367 0.950 . S
C1346 H1342 0.949 . S
C1346 C1354 1.574 . S
C1346 C1362 1.368 . S
H1347 C1355 0.950 . S
H1348 C1353 0.950 . S
H1349 C1354 0.949 . S
H1350 C1356 0.950 . S
H1351 C1357 0.950 . S
H1352 C1358 0.949 . S
C1353 H1348 0.950 . S
C1353 C1355 1.327 . S
C1353 C1359 1.429 . S
C1354 C1346 1.574 . S
C1354 H1349 0.949 . S
C1354 C1360 1.368 . S
C1355 C1339 1.349 . S
C1355 H1347 0.950 . S
C1355 C1353 1.327 . S
C1356 C1344 1.349 . S
C1356 H1350 0.950 . S
C1356 C1357 1.327 . S
C1357 H1351 0.950 . S
C1357 C1356 1.327 . S
C1357 C1361 1.429 . S
C1358 C1341 1.574 . S
C1358 H1352 0.949 . S
C1358 C1362 1.368 . S
C1359 C1340 1.429 . S
C1359 C1353 1.429 . S
C1359 C1360 1.523 . S
C1360 C1341 1.368 . S
C1360 C1354 1.368 . S
C1360 C1359 1.523 . S
C1361 C1345 1.429 . S
C1361 C1357 1.429 . S
C1361 C1362 1.523 . S
C1362 C1346 1.368 . S
C1362 C1358 1.368 . S
C1362 C1361 1.523 . S
H1363 C1338 0.950 . S
H1364 C1340 0.950 . S
H1365 C1341 0.949 . S
H1366 C1343 0.950 . S
H1367 C1345 0.950 . S
C1368 C1369 1.349 . S
C1368 C1370 1.327 . S
C1368 H1393 0.950 . S
C1369 C1368 1.349 . S
C1369 C1385 1.349 . S
C1370 C1368 1.327 . S
C1370 C1389 1.429 . S
C1370 H1394 0.950 . S
C1371 C1388 1.574 . S
C1371 C1390 1.368 . S
C1371 H1395 0.949 . S
H1372 C1376 0.949 . S
C1373 C1374 1.349 . S
C1373 C1375 1.327 . S
C1373 H1396 0.950 . S
C1374 C1373 1.349 . S
C1374 C1386 1.349 . S
C1375 C1373 1.327 . S
C1375 C1391 1.429 . S
C1375 H1397 0.950 . S
C1376 H1372 0.949 . S
C1376 C1384 1.574 . S
C1376 C1392 1.368 . S
H1377 C1385 0.950 . S
H1378 C1383 0.950 . S
H1379 C1384 0.949 . S
H1380 C1386 0.950 . S
H1381 C1387 0.950 . S
H1382 C1388 0.949 . S
C1383 H1378 0.950 . S
C1383 C1385 1.327 . S
C1383 C1389 1.429 . S
C1384 C1376 1.574 . S
C1384 H1379 0.949 . S
C1384 C1390 1.368 . S
C1385 C1369 1.349 . S
C1385 H1377 0.950 . S
C1385 C1383 1.327 . S
C1386 C1374 1.349 . S
C1386 H1380 0.950 . S
C1386 C1387 1.327 . S
C1387 H1381 0.950 . S
C1387 C1386 1.327 . S
C1387 C1391 1.429 . S
C1388 C1371 1.574 . S
C1388 H1382 0.949 . S
C1388 C1392 1.368 . S
C1389 C1370 1.429 . S
C1389 C1383 1.429 . S
C1389 C1390 1.523 . S
C1390 C1371 1.368 . S
C1390 C1384 1.368 . S
C1390 C1389 1.523 . S
C1391 C1375 1.429 . S
C1391 C1387 1.429 . S
C1391 C1392 1.523 . S
C1392 C1376 1.368 . S
C1392 C1388 1.368 . S
C1392 C1391 1.523 . S
H1393 C1368 0.950 . S
H1394 C1370 0.950 . S
H1395 C1371 0.949 . S
H1396 C1373 0.950 . S
H1397 C1375 0.950 . S
C1398 C1399 1.349 . S
C1398 C1400 1.327 . S
C1398 H1423 0.950 . S
C1399 C1398 1.349 . S
C1399 C1415 1.349 . S
C1400 C1398 1.327 . S
C1400 C1419 1.429 . S
C1400 H1424 0.950 . S
C1401 C1418 1.574 . S
C1401 C1420 1.368 . S
C1401 H1425 0.949 . S
H1402 C1406 0.949 . S
C1403 C1404 1.349 . S
C1403 C1405 1.327 . S
C1403 H1426 0.950 . S
C1404 C1403 1.349 . S
C1404 C1416 1.349 . S
C1405 C1403 1.327 . S
C1405 C1421 1.429 . S
C1405 H1427 0.950 . S
C1406 H1402 0.949 . S
C1406 C1414 1.574 . S
C1406 C1422 1.368 . S
H1407 C1415 0.950 . S
H1408 C1413 0.950 . S
H1409 C1414 0.949 . S
H1410 C1416 0.950 . S
H1411 C1417 0.950 . S
H1412 C1418 0.949 . S
C1413 H1408 0.950 . S
C1413 C1415 1.327 . S
C1413 C1419 1.429 . S
C1414 C1406 1.574 . S
C1414 H1409 0.949 . S
C1414 C1420 1.368 . S
C1415 C1399 1.349 . S
C1415 H1407 0.950 . S
C1415 C1413 1.327 . S
C1416 C1404 1.349 . S
C1416 H1410 0.950 . S
C1416 C1417 1.327 . S
C1417 H1411 0.950 . S
C1417 C1416 1.327 . S
C1417 C1421 1.429 . S
C1418 C1401 1.574 . S
C1418 H1412 0.949 . S
C1418 C1422 1.368 . S
C1419 C1400 1.429 . S
C1419 C1413 1.429 . S
C1419 C1420 1.523 . S
C1420 C1401 1.368 . S
C1420 C1414 1.368 . S
C1420 C1419 1.523 . S
C1421 C1405 1.429 . S
C1421 C1417 1.429 . S
C1421 C1422 1.523 . S
C1422 C1406 1.368 . S
C1422 C1418 1.368 . S
C1422 C1421 1.523 . S
H1423 C1398 0.950 . S
H1424 C1400 0.950 . S
H1425 C1401 0.949 . S
H1426 C1403 0.950 . S
H1427 C1405 0.950 . S
C1428 C1429 1.349 . S
C1428 C1430 1.327 . S
C1428 H1453 0.950 . S
C1429 C1428 1.349 . S
C1429 C1445 1.349 . S
C1430 C1428 1.327 . S
C1430 C1449 1.429 . S
C1430 H1454 0.950 . S
C1431 C1448 1.574 . S
C1431 C1450 1.368 . S
C1431 H1455 0.949 . S
H1432 C1436 0.949 . S
C1433 C1434 1.349 . S
C1433 C1435 1.327 . S
C1433 H1456 0.950 . S
C1434 C1433 1.349 . S
C1434 C1446 1.349 . S
C1435 C1433 1.327 . S
C1435 C1451 1.429 . S
C1435 H1457 0.950 . S
C1436 H1432 0.949 . S
C1436 C1444 1.574 . S
C1436 C1452 1.368 . S
H1437 C1445 0.950 . S
H1438 C1443 0.950 . S
H1439 C1444 0.949 . S
H1440 C1446 0.950 . S
H1441 C1447 0.950 . S
H1442 C1448 0.949 . S
C1443 H1438 0.950 . S
C1443 C1445 1.327 . S
C1443 C1449 1.429 . S
C1444 C1436 1.574 . S
C1444 H1439 0.949 . S
C1444 C1450 1.368 . S
C1445 C1429 1.349 . S
C1445 H1437 0.950 . S
C1445 C1443 1.327 . S
C1446 C1434 1.349 . S
C1446 H1440 0.950 . S
C1446 C1447 1.327 . S
C1447 H1441 0.950 . S
C1447 C1446 1.327 . S
C1447 C1451 1.429 . S
C1448 C1431 1.574 . S
C1448 H1442 0.949 . S
C1448 C1452 1.368 . S
C1449 C1430 1.429 . S
C1449 C1443 1.429 . S
C1449 C1450 1.523 . S
C1450 C1431 1.368 . S
C1450 C1444 1.368 . S
C1450 C1449 1.523 . S
C1451 C1435 1.429 . S
C1451 C1447 1.429 . S
C1451 C1452 1.523 . S
C1452 C1436 1.368 . S
C1452 C1448 1.368 . S
C1452 C1451 1.523 . S
H1453 C1428 0.950 . S
H1454 C1430 0.950 . S
H1455 C1431 0.949 . S
H1456 C1433 0.950 . S
H1457 C1435 0.950 . S
C1458 C1459 1.349 . S
C1458 C1460 1.327 . S
C1458 H1483 0.950 . S
C1459 C1458 1.349 . S
C1459 C1475 1.349 . S
C1460 C1458 1.327 . S
C1460 C1479 1.429 . S
C1460 H1484 0.950 . S
C1461 C1478 1.574 . S
C1461 C1480 1.368 . S
C1461 H1485 0.949 . S
H1462 C1466 0.949 . S
C1463 C1464 1.349 . S
C1463 C1465 1.327 . S
C1463 H1486 0.950 . S
C1464 C1463 1.349 . S
C1464 C1476 1.349 . S
C1465 C1463 1.327 . S
C1465 C1481 1.429 . S
C1465 H1487 0.950 . S
C1466 H1462 0.949 . S
C1466 C1474 1.574 . S
C1466 C1482 1.368 . S
H1467 C1475 0.950 . S
H1468 C1473 0.950 . S
H1469 C1474 0.949 . S
H1470 C1476 0.950 . S
H1471 C1477 0.950 . S
H1472 C1478 0.949 . S
C1473 H1468 0.950 . S
C1473 C1475 1.327 . S
C1473 C1479 1.429 . S
C1474 C1466 1.574 . S
C1474 H1469 0.949 . S
C1474 C1480 1.368 . S
C1475 C1459 1.349 . S
C1475 H1467 0.950 . S
C1475 C1473 1.327 . S
C1476 C1464 1.349 . S
C1476 H1470 0.950 . S
C1476 C1477 1.327 . S
C1477 H1471 0.950 . S
C1477 C1476 1.327 . S
C1477 C1481 1.429 . S
C1478 C1461 1.574 . S
C1478 H1472 0.949 . S
C1478 C1482 1.368 . S
C1479 C1460 1.429 . S
C1479 C1473 1.429 . S
C1479 C1480 1.523 . S
C1480 C1461 1.368 . S
C1480 C1474 1.368 . S
C1480 C1479 1.523 . S
C1481 C1465 1.429 . S
C1481 C1477 1.429 . S
C1481 C1482 1.523 . S
C1482 C1466 1.368 . S
C1482 C1478 1.368 . S
C1482 C1481 1.523 . S
H1483 C1458 0.950 . S
H1484 C1460 0.950 . S
H1485 C1461 0.949 . S
H1486 C1463 0.950 . S
H1487 C1465 0.950 . S
C1488 C1489 1.349 . S
C1488 C1490 1.327 . S
C1488 H1513 0.950 . S
C1489 C1488 1.349 . S
C1489 C1505 1.349 . S
C1490 C1488 1.327 . S
C1490 C1509 1.429 . S
C1490 H1514 0.950 . S
C1491 C1508 1.574 . S
C1491 C1510 1.368 . S
C1491 H1515 0.949 . S
H1492 C1496 0.949 . S
C1493 C1494 1.349 . S
C1493 C1495 1.327 . S
C1493 H1516 0.950 . S
C1494 C1493 1.349 . S
C1494 C1506 1.349 . S
C1495 C1493 1.327 . S
C1495 C1511 1.429 . S
C1495 H1517 0.950 . S
C1496 H1492 0.949 . S
C1496 C1504 1.574 . S
C1496 C1512 1.368 . S
H1497 C1505 0.950 . S
H1498 C1503 0.950 . S
H1499 C1504 0.949 . S
H1500 C1506 0.950 . S
H1501 C1507 0.950 . S
H1502 C1508 0.949 . S
C1503 H1498 0.950 . S
C1503 C1505 1.327 . S
C1503 C1509 1.429 . S
C1504 C1496 1.574 . S
C1504 H1499 0.949 . S
C1504 C1510 1.368 . S
C1505 C1489 1.349 . S
C1505 H1497 0.950 . S
C1505 C1503 1.327 . S
C1506 C1494 1.349 . S
C1506 H1500 0.950 . S
C1506 C1507 1.327 . S
C1507 H1501 0.950 . S
C1507 C1506 1.327 . S
C1507 C1511 1.429 . S
C1508 C1491 1.574 . S
C1508 H1502 0.949 . S
C1508 C1512 1.368 . S
C1509 C1490 1.429 . S
C1509 C1503 1.429 . S
C1509 C1510 1.523 . S
C1510 C1491 1.368 . S
C1510 C1504 1.368 . S
C1510 C1509 1.523 . S
C1511 C1495 1.429 . S
C1511 C1507 1.429 . S
C1511 C1512 1.523 . S
C1512 C1496 1.368 . S
C1512 C1508 1.368 . S
C1512 C1511 1.523 . S
H1513 C1488 0.950 . S
H1514 C1490 0.950 . S
H1515 C1491 0.949 . S
H1516 C1493 0.950 . S
H1517 C1495 0.950 . S
C1518 C1519 1.349 . S
C1518 C1520 1.327 . S
C1518 H1543 0.950 . S
C1519 C1518 1.349 . S
C1519 C1535 1.349 . S
C1520 C1518 1.327 . S
C1520 C1539 1.429 . S
C1520 H1544 0.950 . S
C1521 C1538 1.574 . S
C1521 C1540 1.368 . S
C1521 H1545 0.949 . S
H1522 C1526 0.949 . S
C1523 C1524 1.349 . S
C1523 C1525 1.327 . S
C1523 H1546 0.950 . S
C1524 C1523 1.349 . S
C1524 C1536 1.349 . S
C1525 C1523 1.327 . S
C1525 C1541 1.429 . S
C1525 H1547 0.950 . S
C1526 H1522 0.949 . S
C1526 C1534 1.574 . S
C1526 C1542 1.368 . S
H1527 C1535 0.950 . S
H1528 C1533 0.950 . S
H1529 C1534 0.949 . S
H1530 C1536 0.950 . S
H1531 C1537 0.950 . S
H1532 C1538 0.949 . S
C1533 H1528 0.950 . S
C1533 C1535 1.327 . S
C1533 C1539 1.429 . S
C1534 C1526 1.574 . S
C1534 H1529 0.949 . S
C1534 C1540 1.368 . S
C1535 C1519 1.349 . S
C1535 H1527 0.950 . S
C1535 C1533 1.327 . S
C1536 C1524 1.349 . S
C1536 H1530 0.950 . S
C1536 C1537 1.327 . S
C1537 H1531 0.950 . S
C1537 C1536 1.327 . S
C1537 C1541 1.429 . S
C1538 C1521 1.574 . S
C1538 H1532 0.949 . S
C1538 C1542 1.368 . S
C1539 C1520 1.429 . S
C1539 C1533 1.429 . S
C1539 C1540 1.523 . S
C1540 C1521 1.368 . S
C1540 C1534 1.368 . S
C1540 C1539 1.523 . S
C1541 C1525 1.429 . S
C1541 C1537 1.429 . S
C1541 C1542 1.523 . S
C1542 C1526 1.368 . S
C1542 C1538 1.368 . S
C1542 C1541 1.523 . S
H1543 C1518 0.950 . S
H1544 C1520 0.950 . S
H1545 C1521 0.949 . S
H1546 C1523 0.950 . S
H1547 C1525 0.950 . S
C1548 C1549 1.349 . S
C1548 C1550 1.327 . S
C1548 H1573 0.950 . S
C1549 C1548 1.349 . S
C1549 C1565 1.349 . S
C1550 C1548 1.327 . S
C1550 C1569 1.429 . S
C1550 H1574 0.950 . S
C1551 C1568 1.574 . S
C1551 C1570 1.368 . S
C1551 H1575 0.949 . S
H1552 C1556 0.949 . S
C1553 C1554 1.349 . S
C1553 C1555 1.327 . S
C1553 H1576 0.950 . S
C1554 C1553 1.349 . S
C1554 C1566 1.349 . S
C1555 C1553 1.327 . S
C1555 C1571 1.429 . S
C1555 H1577 0.950 . S
C1556 H1552 0.949 . S
C1556 C1564 1.574 . S
C1556 C1572 1.368 . S
H1557 C1565 0.950 . S
H1558 C1563 0.950 . S
H1559 C1564 0.949 . S
H1560 C1566 0.950 . S
H1561 C1567 0.950 . S
H1562 C1568 0.949 . S
C1563 H1558 0.950 . S
C1563 C1565 1.327 . S
C1563 C1569 1.429 . S
C1564 C1556 1.574 . S
C1564 H1559 0.949 . S
C1564 C1570 1.368 . S
C1565 C1549 1.349 . S
C1565 H1557 0.950 . S
C1565 C1563 1.327 . S
C1566 C1554 1.349 . S
C1566 H1560 0.950 . S
C1566 C1567 1.327 . S
C1567 H1561 0.950 . S
C1567 C1566 1.327 . S
C1567 C1571 1.429 . S
C1568 C1551 1.574 . S
C1568 H1562 0.949 . S
C1568 C1572 1.368 . S
C1569 C1550 1.429 . S
C1569 C1563 1.429 . S
C1569 C1570 1.523 . S
C1570 C1551 1.368 . S
C1570 C1564 1.368 . S
C1570 C1569 1.523 . S
C1571 C1555 1.429 . S
C1571 C1567 1.429 . S
C1571 C1572 1.523 . S
C1572 C1556 1.368 . S
C1572 C1568 1.368 . S
C1572 C1571 1.523 . S
H1573 C1548 0.950 . S
H1574 C1550 0.950 . S
H1575 C1551 0.949 . S
H1576 C1553 0.950 . S
H1577 C1555 0.950 . S
C1578 C1579 1.349 . S
C1578 C1580 1.327 . S
C1578 H1603 0.950 . S
C1579 C1578 1.349 . S
C1579 C1595 1.349 . S
C1580 C1578 1.327 . S
C1580 C1599 1.429 . S
C1580 H1604 0.950 . S
C1581 C1598 1.574 . S
C1581 C1600 1.368 . S
C1581 H1605 0.949 . S
H1582 C1586 0.949 . S
C1583 C1584 1.349 . S
C1583 C1585 1.327 . S
C1583 H1606 0.950 . S
C1584 C1583 1.349 . S
C1584 C1596 1.349 . S
C1585 C1583 1.327 . S
C1585 C1601 1.429 . S
C1585 H1607 0.950 . S
C1586 H1582 0.949 . S
C1586 C1594 1.574 . S
C1586 C1602 1.368 . S
H1587 C1595 0.950 . S
H1588 C1593 0.950 . S
H1589 C1594 0.949 . S
H1590 C1596 0.950 . S
H1591 C1597 0.950 . S
H1592 C1598 0.949 . S
C1593 H1588 0.950 . S
C1593 C1595 1.327 . S
C1593 C1599 1.429 . S
C1594 C1586 1.574 . S
C1594 H1589 0.949 . S
C1594 C1600 1.368 . S
C1595 C1579 1.349 . S
C1595 H1587 0.950 . S
C1595 C1593 1.327 . S
C1596 C1584 1.349 . S
C1596 H1590 0.950 . S
C1596 C1597 1.327 . S
C1597 H1591 0.950 . S
C1597 C1596 1.327 . S
C1597 C1601 1.429 . S
C1598 C1581 1.574 . S
C1598 H1592 0.949 . S
C1598 C1602 1.368 . S
C1599 C1580 1.429 . S
C1599 C1593 1.429 . S
C1599 C1600 1.523 . S
C1600 C1581 1.368 . S
C1600 C1594 1.368 . S
C1600 C1599 1.523 . S
C1601 C1585 1.429 . S
C1601 C1597 1.429 . S
C1601 C1602 1.523 . S
C1602 C1586 1.368 . S
C1602 C1598 1.368 . S
C1602 C1601 1.523 . S
H1603 C1578 0.950 . S
H1604 C1580 0.950 . S
H1605 C1581 0.949 . S
H1606 C1583 0.950 . S
H1607 C1585 0.950 . S
C1608 C1609 1.349 . S
C1608 C1610 1.327 . S
C1608 H1633 0.950 . S
C1609 C1608 1.349 . S
C1609 C1625 1.349 . S
C1610 C1608 1.327 . S
C1610 C1629 1.429 . S
C1610 H1634 0.950 . S
C1611 C1628 1.574 . S
C1611 C1630 1.368 . S
C1611 H1635 0.949 . S
H1612 C1616 0.949 . S
C1613 C1614 1.349 . S
C1613 C1615 1.327 . S
C1613 H1636 0.950 . S
C1614 C1613 1.349 . S
C1614 C1626 1.349 . S
C1615 C1613 1.327 . S
C1615 C1631 1.429 . S
C1615 H1637 0.950 . S
C1616 H1612 0.949 . S
C1616 C1624 1.574 . S
C1616 C1632 1.368 . S
H1617 C1625 0.950 . S
H1618 C1623 0.950 . S
H1619 C1624 0.949 . S
H1620 C1626 0.950 . S
H1621 C1627 0.950 . S
H1622 C1628 0.949 . S
C1623 H1618 0.950 . S
C1623 C1625 1.327 . S
C1623 C1629 1.429 . S
C1624 C1616 1.574 . S
C1624 H1619 0.949 . S
C1624 C1630 1.368 . S
C1625 C1609 1.349 . S
C1625 H1617 0.950 . S
C1625 C1623 1.327 . S
C1626 C1614 1.349 . S
C1626 H1620 0.950 . S
C1626 C1627 1.327 . S
C1627 H1621 0.950 . S
C1627 C1626 1.327 . S
C1627 C1631 1.429 . S
C1628 C1611 1.574 . S
C1628 H1622 0.949 . S
C1628 C1632 1.368 . S
C1629 C1610 1.429 . S
C1629 C1623 1.429 . S
C1629 C1630 1.523 . S
C1630 C1611 1.368 . S
C1630 C1624 1.368 . S
C1630 C1629 1.523 . S
C1631 C1615 1.429 . S
C1631 C1627 1.429 . S
C1631 C1632 1.523 . S
C1632 C1616 1.368 . S
C1632 C1628 1.368 . S
C1632 C1631 1.523 . S
H1633 C1608 0.950 . S
H1634 C1610 0.950 . S
H1635 C1611 0.949 . S
H1636 C1613 0.950 . S
H1637 C1615 0.950 . S
C1638 C1639 1.349 . S
C1638 C1640 1.327 . S
C1638 H1663 0.950 . S
C1639 C1638 1.349 . S
C1639 C1655 1.349 . S
C1640 C1638 1.327 . S
C1640 C1659 1.429 . S
C1640 H1664 0.950 . S
C1641 C1658 1.574 . S
C1641 C1660 1.368 . S
C1641 H1665 0.949 . S
H1642 C1646 0.949 . S
C1643 C1644 1.349 . S
C1643 C1645 1.327 . S
C1643 H1666 0.950 . S
C1644 C1643 1.349 . S
C1644 C1656 1.349 . S
C1645 C1643 1.327 . S
C1645 C1661 1.429 . S
C1645 H1667 0.950 . S
C1646 H1642 0.949 . S
C1646 C1654 1.574 . S
C1646 C1662 1.368 . S
H1647 C1655 0.950 . S
H1648 C1653 0.950 . S
H1649 C1654 0.949 . S
H1650 C1656 0.950 . S
H1651 C1657 0.950 . S
H1652 C1658 0.949 . S
C1653 H1648 0.950 . S
C1653 C1655 1.327 . S
C1653 C1659 1.429 . S
C1654 C1646 1.574 . S
C1654 H1649 0.949 . S
C1654 C1660 1.368 . S
C1655 C1639 1.349 . S
C1655 H1647 0.950 . S
C1655 C1653 1.327 . S
C1656 C1644 1.349 . S
C1656 H1650 0.950 . S
C1656 C1657 1.327 . S
C1657 H1651 0.950 . S
C1657 C1656 1.327 . S
C1657 C1661 1.429 . S
C1658 C1641 1.574 . S
C1658 H1652 0.949 . S
C1658 C1662 1.368 . S
C1659 C1640 1.429 . S
C1659 C1653 1.429 . S
C1659 C1660 1.523 . S
C1660 C1641 1.368 . S
C1660 C1654 1.368 . S
C1660 C1659 1.523 . S
C1661 C1645 1.429 . S
C1661 C1657 1.429 . S
C1661 C1662 1.523 . S
C1662 C1646 1.368 . S
C1662 C1658 1.368 . S
C1662 C1661 1.523 . S
H1663 C1638 0.950 . S
H1664 C1640 0.950 . S
H1665 C1641 0.949 . S
H1666 C1643 0.950 . S
H1667 C1645 0.950 . S
C1668 C1669 1.349 . S
C1668 C1670 1.327 . S
C1668 H1693 0.950 . S
C1669 C1668 1.349 . S
C1669 C1685 1.349 . S
C1670 C1668 1.327 . S
C1670 C1689 1.429 . S
C1670 H1694 0.950 . S
C1671 C1688 1.574 . S
C1671 C1690 1.368 . S
C1671 H1695 0.949 . S
H1672 C1676 0.949 . S
C1673 C1674 1.349 . S
C1673 C1675 1.327 . S
C1673 H1696 0.950 . S
C1674 C1673 1.349 . S
C1674 C1686 1.349 . S
C1675 C1673 1.327 . S
C1675 C1691 1.429 . S
C1675 H1697 0.950 . S
C1676 H1672 0.949 . S
C1676 C1684 1.574 . S
C1676 C1692 1.368 . S
H1677 C1685 0.950 . S
H1678 C1683 0.950 . S
H1679 C1684 0.949 . S
H1680 C1686 0.950 . S
H1681 C1687 0.950 . S
H1682 C1688 0.949 . S
C1683 H1678 0.950 . S
C1683 C1685 1.327 . S
C1683 C1689 1.429 . S
C1684 C1676 1.574 . S
C1684 H1679 0.949 . S
C1684 C1690 1.368 . S
C1685 C1669 1.349 . S
C1685 H1677 0.950 . S
C1685 C1683 1.327 . S
C1686 C1674 1.349 . S
C1686 H1680 0.950 . S
C1686 C1687 1.327 . S
C1687 H1681 0.950 . S
C1687 C1686 1.327 . S
C1687 C1691 1.429 . S
C1688 C1671 1.574 . S
C1688 H1682 0.949 . S
C1688 C1692 1.368 . S
C1689 C1670 1.429 . S
C1689 C1683 1.429 . S
C1689 C1690 1.523 . S
C1690 C1671 1.368 . S
C1690 C1684 1.368 . S
C1690 C1689 1.523 . S
C1691 C1675 1.429 . S
C1691 C1687 1.429 . S
C1691 C1692 1.523 . S
C1692 C1676 1.368 . S
C1692 C1688 1.368 . S
C1692 C1691 1.523 . S
H1693 C1668 0.950 . S
H1694 C1670 0.950 . S
H1695 C1671 0.949 . S
H1696 C1673 0.950 . S
H1697 C1675 0.950 . S
C1698 C1699 1.349 . S
C1698 C1700 1.327 . S
C1698 H1723 0.950 . S
C1699 C1698 1.349 . S
C1699 C1715 1.349 . S
C1700 C1698 1.327 . S
C1700 C1719 1.429 . S
C1700 H1724 0.950 . S
C1701 C1718 1.574 . S
C1701 C1720 1.368 . S
C1701 H1725 0.949 . S
H1702 C1706 0.949 . S
C1703 C1704 1.349 . S
C1703 C1705 1.327 . S
C1703 H1726 0.950 . S
C1704 C1703 1.349 . S
C1704 C1716 1.349 . S
C1705 C1703 1.327 . S
C1705 C1721 1.429 . S
C1705 H1727 0.950 . S
C1706 H1702 0.949 . S
C1706 C1714 1.574 . S
C1706 C1722 1.368 . S
H1707 C1715 0.950 . S
H1708 C1713 0.950 . S
H1709 C1714 0.949 . S
H1710 C1716 0.950 . S
H1711 C1717 0.950 . S
H1712 C1718 0.949 . S
C1713 H1708 0.950 . S
C1713 C1715 1.327 . S
C1713 C1719 1.429 . S
C1714 C1706 1.574 . S
C1714 H1709 0.949 . S
C1714 C1720 1.368 . S
C1715 C1699 1.349 . S
C1715 H1707 0.950 . S
C1715 C1713 1.327 . S
C1716 C1704 1.349 . S
C1716 H1710 0.950 . S
C1716 C1717 1.327 . S
C1717 H1711 0.950 . S
C1717 C1716 1.327 . S
C1717 C1721 1.429 . S
C1718 C1701 1.574 . S
C1718 H1712 0.949 . S
C1718 C1722 1.368 . S
C1719 C1700 1.429 . S
C1719 C1713 1.429 . S
C1719 C1720 1.523 . S
C1720 C1701 1.368 . S
C1720 C1714 1.368 . S
C1720 C1719 1.523 . S
C1721 C1705 1.429 . S
C1721 C1717 1.429 . S
C1721 C1722 1.523 . S
C1722 C1706 1.368 . S
C1722 C1718 1.368 . S
C1722 C1721 1.523 . S
H1723 C1698 0.950 . S
H1724 C1700 0.950 . S
H1725 C1701 0.949 . S
H1726 C1703 0.950 . S
H1727 C1705 0.950 . S
C1728 C1729 1.349 . S
C1728 C1730 1.327 . S
C1728 H1753 0.950 . S
C1729 C1728 1.349 . S
C1729 C1745 1.349 . S
C1730 C1728 1.327 . S
C1730 C1749 1.429 . S
C1730 H1754 0.950 . S
C1731 C1748 1.574 . S
C1731 C1750 1.368 . S
C1731 H1755 0.949 . S
H1732 C1736 0.949 . S
C1733 C1734 1.349 . S
C1733 C1735 1.327 . S
C1733 H1756 0.950 . S
C1734 C1733 1.349 . S
C1734 C1746 1.349 . S
C1735 C1733 1.327 . S
C1735 C1751 1.429 . S
C1735 H1757 0.950 . S
C1736 H1732 0.949 . S
C1736 C1744 1.574 . S
C1736 C1752 1.368 . S
H1737 C1745 0.950 . S
H1738 C1743 0.950 . S
H1739 C1744 0.949 . S
H1740 C1746 0.950 . S
H1741 C1747 0.950 . S
H1742 C1748 0.949 . S
C1743 H1738 0.950 . S
C1743 C1745 1.327 . S
C1743 C1749 1.429 . S
C1744 C1736 1.574 . S
C1744 H1739 0.949 . S
C1744 C1750 1.368 . S
C1745 C1729 1.349 . S
C1745 H1737 0.950 . S
C1745 C1743 1.327 . S
C1746 C1734 1.349 . S
C1746 H1740 0.950 . S
C1746 C1747 1.327 . S
C1747 H1741 0.950 . S
C1747 C1746 1.327 . S
C1747 C1751 1.429 . S
C1748 C1731 1.574 . S
C1748 H1742 0.949 . S
C1748 C1752 1.368 . S
C1749 C1730 1.429 . S
C1749 C1743 1.429 . S
C1749 C1750 1.523 . S
C1750 C1731 1.368 . S
C1750 C1744 1.368 . S
C1750 C1749 1.523 . S
C1751 C1735 1.429 . S
C1751 C1747 1.429 . S
C1751 C1752 1.523 . S
C1752 C1736 1.368 . S
C1752 C1748 1.368 . S
C1752 C1751 1.523 . S
H1753 C1728 0.950 . S
H1754 C1730 0.950 . S
H1755 C1731 0.949 . S
H1756 C1733 0.950 . S
H1757 C1735 0.950 . S
C1758 C1759 1.349 . S
C1758 C1760 1.327 . S
C1758 H1783 0.950 1_556 S
C1759 C1758 1.349 . S
C1759 C1775 1.349 . S
C1760 C1758 1.327 . S
C1760 C1779 1.429 . S
C1760 H1784 0.950 . S
C1761 C1778 1.574 . S
C1761 C1780 1.368 . S
C1761 H1785 0.949 . S
H1762 C1766 0.949 . S
C1763 C1764 1.349 . S
C1763 C1765 1.327 . S
C1763 H1786 0.950 . S
C1764 C1763 1.349 . S
C1764 C1776 1.349 . S
C1765 C1763 1.327 . S
C1765 C1781 1.429 . S
C1765 H1787 0.950 . S
C1766 H1762 0.949 . S
C1766 C1774 1.574 . S
C1766 C1782 1.368 . S
H1767 C1775 0.950 . S
H1768 C1773 0.950 . S
H1769 C1774 0.949 . S
H1770 C1776 0.950 . S
H1771 C1777 0.950 . S
H1772 C1778 0.949 . S
C1773 H1768 0.950 . S
C1773 C1775 1.327 . S
C1773 C1779 1.429 . S
C1774 C1766 1.574 . S
C1774 H1769 0.949 . S
C1774 C1780 1.368 . S
C1775 C1759 1.349 . S
C1775 H1767 0.950 . S
C1775 C1773 1.327 . S
C1776 C1764 1.349 . S
C1776 H1770 0.950 . S
C1776 C1777 1.327 . S
C1777 H1771 0.950 . S
C1777 C1776 1.327 . S
C1777 C1781 1.429 . S
C1778 C1761 1.574 . S
C1778 H1772 0.949 . S
C1778 C1782 1.368 . S
C1779 C1760 1.429 . S
C1779 C1773 1.429 . S
C1779 C1780 1.523 . S
C1780 C1761 1.368 . S
C1780 C1774 1.368 . S
C1780 C1779 1.523 . S
C1781 C1765 1.429 . S
C1781 C1777 1.429 . S
C1781 C1782 1.523 . S
C1782 C1766 1.368 . S
C1782 C1778 1.368 . S
C1782 C1781 1.523 . S
H1783 C1758 0.950 1_554 S
H1784 C1760 0.950 . S
H1785 C1761 0.949 . S
H1786 C1763 0.950 . S
H1787 C1765 0.950 . S
C1788 C1789 1.349 . S
C1788 C1790 1.327 . S
C1788 H1813 0.950 . S
C1789 C1788 1.349 . S
C1789 C1805 1.349 . S
C1790 C1788 1.327 . S
C1790 C1809 1.429 . S
C1790 H1814 0.950 . S
C1791 C1808 1.574 . S
C1791 C1810 1.368 . S
C1791 H1815 0.949 . S
H1792 C1796 0.949 . S
C1793 C1794 1.349 . S
C1793 C1795 1.327 . S
C1793 H1816 0.950 . S
C1794 C1793 1.349 . S
C1794 C1806 1.349 . S
C1795 C1793 1.327 . S
C1795 C1811 1.429 . S
C1795 H1817 0.950 . S
C1796 H1792 0.949 . S
C1796 C1804 1.574 . S
C1796 C1812 1.368 . S
H1797 C1805 0.950 1_554 S
H1798 C1803 0.950 . S
H1799 C1804 0.949 . S
H1800 C1806 0.950 . S
H1801 C1807 0.950 . S
H1802 C1808 0.949 . S
C1803 H1798 0.950 . S
C1803 C1805 1.327 . S
C1803 C1809 1.429 . S
C1804 C1796 1.574 . S
C1804 H1799 0.949 . S
C1804 C1810 1.368 . S
C1805 C1789 1.349 . S
C1805 H1797 0.950 1_556 S
C1805 C1803 1.327 . S
C1806 C1794 1.349 . S
C1806 H1800 0.950 . S
C1806 C1807 1.327 . S
C1807 H1801 0.950 . S
C1807 C1806 1.327 . S
C1807 C1811 1.429 . S
C1808 C1791 1.574 . S
C1808 H1802 0.949 . S
C1808 C1812 1.368 . S
C1809 C1790 1.429 . S
C1809 C1803 1.429 . S
C1809 C1810 1.523 . S
C1810 C1791 1.368 . S
C1810 C1804 1.368 . S
C1810 C1809 1.523 . S
C1811 C1795 1.429 . S
C1811 C1807 1.429 . S
C1811 C1812 1.523 . S
C1812 C1796 1.368 . S
C1812 C1808 1.368 . S
C1812 C1811 1.523 . S
H1813 C1788 0.950 . S
H1814 C1790 0.950 . S
H1815 C1791 0.949 . S
H1816 C1793 0.950 . S
H1817 C1795 0.950 . S
C1818 C1819 1.349 . S
C1818 C1820 1.327 . S
C1818 H1843 0.950 1_556 S
C1819 C1818 1.349 . S
C1819 C1835 1.349 . S
C1820 C1818 1.327 . S
C1820 C1839 1.429 . S
C1820 H1844 0.950 . S
C1821 C1838 1.574 . S
C1821 C1840 1.368 . S
C1821 H1845 0.949 . S
H1822 C1826 0.949 . S
C1823 C1824 1.349 . S
C1823 C1825 1.327 . S
C1823 H1846 0.950 . S
C1824 C1823 1.349 . S
C1824 C1836 1.349 . S
C1825 C1823 1.327 . S
C1825 C1841 1.429 . S
C1825 H1847 0.950 . S
C1826 H1822 0.949 . S
C1826 C1834 1.574 . S
C1826 C1842 1.368 . S
H1827 C1835 0.950 . S
H1828 C1833 0.950 . S
H1829 C1834 0.949 . S
H1830 C1836 0.950 . S
H1831 C1837 0.950 . S
H1832 C1838 0.949 . S
C1833 H1828 0.950 . S
C1833 C1835 1.327 . S
C1833 C1839 1.429 . S
C1834 C1826 1.574 . S
C1834 H1829 0.949 . S
C1834 C1840 1.368 . S
C1835 C1819 1.349 . S
C1835 H1827 0.950 . S
C1835 C1833 1.327 . S
C1836 C1824 1.349 . S
C1836 H1830 0.950 . S
C1836 C1837 1.327 . S
C1837 H1831 0.950 . S
C1837 C1836 1.327 . S
C1837 C1841 1.429 . S
C1838 C1821 1.574 . S
C1838 H1832 0.949 . S
C1838 C1842 1.368 . S
C1839 C1820 1.429 . S
C1839 C1833 1.429 . S
C1839 C1840 1.523 . S
C1840 C1821 1.368 . S
C1840 C1834 1.368 . S
C1840 C1839 1.523 . S
C1841 C1825 1.429 . S
C1841 C1837 1.429 . S
C1841 C1842 1.523 . S
C1842 C1826 1.368 . S
C1842 C1838 1.368 . S
C1842 C1841 1.523 . S
H1843 C1818 0.950 1_554 S
H1844 C1820 0.950 . S
H1845 C1821 0.949 . S
H1846 C1823 0.950 . S
H1847 C1825 0.950 . S
C1848 C1849 1.349 . S
C1848 C1850 1.327 . S
C1848 H1873 0.950 . S
C1849 C1848 1.349 . S
C1849 C1865 1.349 . S
C1850 C1848 1.327 . S
C1850 C1869 1.429 . S
C1850 H1874 0.950 . S
C1851 C1868 1.574 . S
C1851 C1870 1.368 . S
C1851 H1875 0.949 . S
H1852 C1856 0.949 . S
C1853 C1854 1.349 . S
C1853 C1855 1.327 . S
C1853 H1876 0.950 . S
C1854 C1853 1.349 . S
C1854 C1866 1.349 . S
C1855 C1853 1.327 . S
C1855 C1871 1.429 . S
C1855 H1877 0.950 . S
C1856 H1852 0.949 . S
C1856 C1864 1.574 . S
C1856 C1872 1.368 . S
H1857 C1865 0.950 . S
H1858 C1863 0.950 . S
H1859 C1864 0.949 . S
H1860 C1866 0.950 . S
H1861 C1867 0.950 . S
H1862 C1868 0.949 . S
C1863 H1858 0.950 . S
C1863 C1865 1.327 . S
C1863 C1869 1.429 . S
C1864 C1856 1.574 . S
C1864 H1859 0.949 . S
C1864 C1870 1.368 . S
C1865 C1849 1.349 . S
C1865 H1857 0.950 . S
C1865 C1863 1.327 . S
C1866 C1854 1.349 . S
C1866 H1860 0.950 . S
C1866 C1867 1.327 . S
C1867 H1861 0.950 . S
C1867 C1866 1.327 . S
C1867 C1871 1.429 . S
C1868 C1851 1.574 . S
C1868 H1862 0.949 . S
C1868 C1872 1.368 . S
C1869 C1850 1.429 . S
C1869 C1863 1.429 . S
C1869 C1870 1.523 . S
C1870 C1851 1.368 . S
C1870 C1864 1.368 . S
C1870 C1869 1.523 . S
C1871 C1855 1.429 . S
C1871 C1867 1.429 . S
C1871 C1872 1.523 . S
C1872 C1856 1.368 . S
C1872 C1868 1.368 . S
C1872 C1871 1.523 . S
H1873 C1848 0.950 . S
H1874 C1850 0.950 . S
H1875 C1851 0.949 . S
H1876 C1853 0.950 . S
H1877 C1855 0.950 . S
C1878 C1879 1.349 . S
C1878 C1880 1.327 . S
C1878 H1903 0.950 . S
C1879 C1878 1.349 . S
C1879 C1895 1.349 . S
C1880 C1878 1.327 . S
C1880 C1899 1.429 . S
C1880 H1904 0.950 . S
C1881 C1898 1.574 . S
C1881 C1900 1.368 . S
C1881 H1905 0.949 . S
H1882 C1886 0.949 . S
C1883 C1884 1.349 . S
C1883 C1885 1.327 . S
C1883 H1906 0.950 . S
C1884 C1883 1.349 . S
C1884 C1896 1.349 . S
C1885 C1883 1.327 . S
C1885 C1901 1.429 . S
C1885 H1907 0.950 . S
C1886 H1882 0.949 . S
C1886 C1894 1.574 . S
C1886 C1902 1.368 . S
H1887 C1895 0.950 1_554 S
H1888 C1893 0.950 . S
H1889 C1894 0.949 . S
H1890 C1896 0.950 . S
H1891 C1897 0.950 . S
H1892 C1898 0.949 . S
C1893 H1888 0.950 . S
C1893 C1895 1.327 . S
C1893 C1899 1.429 . S
C1894 C1886 1.574 . S
C1894 H1889 0.949 . S
C1894 C1900 1.368 . S
C1895 C1879 1.349 . S
C1895 H1887 0.950 1_556 S
C1895 C1893 1.327 . S
C1896 C1884 1.349 . S
C1896 H1890 0.950 . S
C1896 C1897 1.327 . S
C1897 H1891 0.950 . S
C1897 C1896 1.327 . S
C1897 C1901 1.429 . S
C1898 C1881 1.574 . S
C1898 H1892 0.949 . S
C1898 C1902 1.368 . S
C1899 C1880 1.429 . S
C1899 C1893 1.429 . S
C1899 C1900 1.523 . S
C1900 C1881 1.368 . S
C1900 C1894 1.368 . S
C1900 C1899 1.523 . S
C1901 C1885 1.429 . S
C1901 C1897 1.429 . S
C1901 C1902 1.523 . S
C1902 C1886 1.368 . S
C1902 C1898 1.368 . S
C1902 C1901 1.523 . S
H1903 C1878 0.950 . S
H1904 C1880 0.950 . S
H1905 C1881 0.949 . S
H1906 C1883 0.950 . S
H1907 C1885 0.950 . S
C1908 C1909 1.349 . S
C1908 C1910 1.327 . S
C1908 H1933 0.950 . S
C1909 C1908 1.349 . S
C1909 C1925 1.349 . S
C1910 C1908 1.327 . S
C1910 C1929 1.429 . S
C1910 H1934 0.950 . S
C1911 C1928 1.574 . S
C1911 C1930 1.368 . S
C1911 H1935 0.949 . S
H1912 C1916 0.949 . S
C1913 C1914 1.349 . S
C1913 C1915 1.327 . S
C1913 H1936 0.950 . S
C1914 C1913 1.349 . S
C1914 C1926 1.349 . S
C1915 C1913 1.327 . S
C1915 C1931 1.429 . S
C1915 H1937 0.950 . S
C1916 H1912 0.949 . S
C1916 C1924 1.574 . S
C1916 C1932 1.368 . S
H1917 C1925 0.950 . S
H1918 C1923 0.950 . S
H1919 C1924 0.949 . S
H1920 C1926 0.950 . S
H1921 C1927 0.950 . S
H1922 C1928 0.949 . S
C1923 H1918 0.950 . S
C1923 C1925 1.327 . S
C1923 C1929 1.429 . S
C1924 C1916 1.574 . S
C1924 H1919 0.949 . S
C1924 C1930 1.368 . S
C1925 C1909 1.349 . S
C1925 H1917 0.950 . S
C1925 C1923 1.327 . S
C1926 C1914 1.349 . S
C1926 H1920 0.950 . S
C1926 C1927 1.327 . S
C1927 H1921 0.950 . S
C1927 C1926 1.327 . S
C1927 C1931 1.429 . S
C1928 C1911 1.574 . S
C1928 H1922 0.949 . S
C1928 C1932 1.368 . S
C1929 C1910 1.429 . S
C1929 C1923 1.429 . S
C1929 C1930 1.523 . S
C1930 C1911 1.368 . S
C1930 C1924 1.368 . S
C1930 C1929 1.523 . S
C1931 C1915 1.429 . S
C1931 C1927 1.429 . S
C1931 C1932 1.523 . S
C1932 C1916 1.368 . S
C1932 C1928 1.368 . S
C1932 C1931 1.523 . S
H1933 C1908 0.950 . S
H1934 C1910 0.950 . S
H1935 C1911 0.949 . S
H1936 C1913 0.950 . S
H1937 C1915 0.950 . S
C1938 C1939 1.349 . S
C1938 C1940 1.327 . S
C1938 H1963 0.950 . S
C1939 C1938 1.349 . S
C1939 C1955 1.349 . S
C1940 C1938 1.327 . S
C1940 C1959 1.429 . S
C1940 H1964 0.950 . S
C1941 C1958 1.574 . S
C1941 C1960 1.368 . S
C1941 H1965 0.949 . S
H1942 C1946 0.949 . S
C1943 C1944 1.349 . S
C1943 C1945 1.327 . S
C1943 H1966 0.950 . S
C1944 C1943 1.349 . S
C1944 C1956 1.349 . S
C1945 C1943 1.327 . S
C1945 C1961 1.429 . S
C1945 H1967 0.950 . S
C1946 H1942 0.949 . S
C1946 C1954 1.574 . S
C1946 C1962 1.368 . S
H1947 C1955 0.950 . S
H1948 C1953 0.950 . S
H1949 C1954 0.949 . S
H1950 C1956 0.950 . S
H1951 C1957 0.950 . S
H1952 C1958 0.949 . S
C1953 H1948 0.950 . S
C1953 C1955 1.327 . S
C1953 C1959 1.429 . S
C1954 C1946 1.574 . S
C1954 H1949 0.949 . S
C1954 C1960 1.368 . S
C1955 C1939 1.349 . S
C1955 H1947 0.950 . S
C1955 C1953 1.327 . S
C1956 C1944 1.349 . S
C1956 H1950 0.950 . S
C1956 C1957 1.327 . S
C1957 H1951 0.950 . S
C1957 C1956 1.327 . S
C1957 C1961 1.429 . S
C1958 C1941 1.574 . S
C1958 H1952 0.949 . S
C1958 C1962 1.368 . S
C1959 C1940 1.429 . S
C1959 C1953 1.429 . S
C1959 C1960 1.523 . S
C1960 C1941 1.368 . S
C1960 C1954 1.368 . S
C1960 C1959 1.523 . S
C1961 C1945 1.429 . S
C1961 C1957 1.429 . S
C1961 C1962 1.523 . S
C1962 C1946 1.368 . S
C1962 C1958 1.368 . S
C1962 C1961 1.523 . S
H1963 C1938 0.950 . S
H1964 C1940 0.950 . S
H1965 C1941 0.949 . S
H1966 C1943 0.950 . S
H1967 C1945 0.950 . S
C1968 C1969 1.349 . S
C1968 C1970 1.327 . S
C1968 H1993 0.950 . S
C1969 C1968 1.349 . S
C1969 C1985 1.349 . S
C1970 C1968 1.327 . S
C1970 C1989 1.429 . S
C1970 H1994 0.950 . S
C1971 C1988 1.574 . S
C1971 C1990 1.368 . S
C1971 H1995 0.949 . S
H1972 C1976 0.949 . S
C1973 C1974 1.349 . S
C1973 C1975 1.327 . S
C1973 H1996 0.950 . S
C1974 C1973 1.349 . S
C1974 C1986 1.349 . S
C1975 C1973 1.327 . S
C1975 C1991 1.429 . S
C1975 H1997 0.950 . S
C1976 H1972 0.949 . S
C1976 C1984 1.574 . S
C1976 C1992 1.368 . S
H1977 C1985 0.950 . S
H1978 C1983 0.950 . S
H1979 C1984 0.949 . S
H1980 C1986 0.950 . S
H1981 C1987 0.950 . S
H1982 C1988 0.949 . S
C1983 H1978 0.950 . S
C1983 C1985 1.327 . S
C1983 C1989 1.429 . S
C1984 C1976 1.574 . S
C1984 H1979 0.949 . S
C1984 C1990 1.368 . S
C1985 C1969 1.349 . S
C1985 H1977 0.950 . S
C1985 C1983 1.327 . S
C1986 C1974 1.349 . S
C1986 H1980 0.950 . S
C1986 C1987 1.327 . S
C1987 H1981 0.950 . S
C1987 C1986 1.327 . S
C1987 C1991 1.429 . S
C1988 C1971 1.574 . S
C1988 H1982 0.949 . S
C1988 C1992 1.368 . S
C1989 C1970 1.429 . S
C1989 C1983 1.429 . S
C1989 C1990 1.523 . S
C1990 C1971 1.368 . S
C1990 C1984 1.368 . S
C1990 C1989 1.523 . S
C1991 C1975 1.429 . S
C1991 C1987 1.429 . S
C1991 C1992 1.523 . S
C1992 C1976 1.368 . S
C1992 C1988 1.368 . S
C1992 C1991 1.523 . S
H1993 C1968 0.950 . S
H1994 C1970 0.950 . S
H1995 C1971 0.949 . S
H1996 C1973 0.950 . S
H1997 C1975 0.950 . S
C1998 C1999 1.349 . S
C1998 C2000 1.327 . S
C1998 H2023 0.950 . S
C1999 C1998 1.349 . S
C1999 C2015 1.349 . S
C2000 C1998 1.327 . S
C2000 C2019 1.429 . S
C2000 H2024 0.950 . S
C2001 C2018 1.574 . S
C2001 C2020 1.368 . S
C2001 H2025 0.949 . S
H2002 C2006 0.949 . S
C2003 C2004 1.349 . S
C2003 C2005 1.327 . S
C2003 H2026 0.950 . S
C2004 C2003 1.349 . S
C2004 C2016 1.349 . S
C2005 C2003 1.327 . S
C2005 C2021 1.429 . S
C2005 H2027 0.950 . S
C2006 H2002 0.949 . S
C2006 C2014 1.574 . S
C2006 C2022 1.368 . S
H2007 C2015 0.950 . S
H2008 C2013 0.950 . S
H2009 C2014 0.949 . S
H2010 C2016 0.950 . S
H2011 C2017 0.950 . S
H2012 C2018 0.949 . S
C2013 H2008 0.950 . S
C2013 C2015 1.327 . S
C2013 C2019 1.429 . S
C2014 C2006 1.574 . S
C2014 H2009 0.949 . S
C2014 C2020 1.368 . S
C2015 C1999 1.349 . S
C2015 H2007 0.950 . S
C2015 C2013 1.327 . S
C2016 C2004 1.349 . S
C2016 H2010 0.950 . S
C2016 C2017 1.327 . S
C2017 H2011 0.950 . S
C2017 C2016 1.327 . S
C2017 C2021 1.429 . S
C2018 C2001 1.574 . S
C2018 H2012 0.949 . S
C2018 C2022 1.368 . S
C2019 C2000 1.429 . S
C2019 C2013 1.429 . S
C2019 C2020 1.523 . S
C2020 C2001 1.368 . S
C2020 C2014 1.368 . S
C2020 C2019 1.523 . S
C2021 C2005 1.429 . S
C2021 C2017 1.429 . S
C2021 C2022 1.523 . S
C2022 C2006 1.368 . S
C2022 C2018 1.368 . S
C2022 C2021 1.523 . S
H2023 C1998 0.950 . S
H2024 C2000 0.950 . S
H2025 C2001 0.949 . S
H2026 C2003 0.950 . S
H2027 C2005 0.950 . S
C2028 C2029 1.349 . S
C2028 C2030 1.327 . S
C2028 H2053 0.950 . S
C2029 C2028 1.349 . S
C2029 C2045 1.349 . S
C2030 C2028 1.327 . S
C2030 C2049 1.429 . S
C2030 H2054 0.950 . S
C2031 C2048 1.574 . S
C2031 C2050 1.368 . S
C2031 H2055 0.949 . S
H2032 C2036 0.949 . S
C2033 C2034 1.349 . S
C2033 C2035 1.327 . S
C2033 H2056 0.950 . S
C2034 C2033 1.349 . S
C2034 C2046 1.349 . S
C2035 C2033 1.327 . S
C2035 C2051 1.429 . S
C2035 H2057 0.950 . S
C2036 H2032 0.949 . S
C2036 C2044 1.574 . S
C2036 C2052 1.368 . S
H2037 C2045 0.950 . S
H2038 C2043 0.950 . S
H2039 C2044 0.949 . S
H2040 C2046 0.950 . S
H2041 C2047 0.950 . S
H2042 C2048 0.949 . S
C2043 H2038 0.950 . S
C2043 C2045 1.327 . S
C2043 C2049 1.429 . S
C2044 C2036 1.574 . S
C2044 H2039 0.949 . S
C2044 C2050 1.368 . S
C2045 C2029 1.349 . S
C2045 H2037 0.950 . S
C2045 C2043 1.327 . S
C2046 C2034 1.349 . S
C2046 H2040 0.950 . S
C2046 C2047 1.327 . S
C2047 H2041 0.950 . S
C2047 C2046 1.327 . S
C2047 C2051 1.429 . S
C2048 C2031 1.574 . S
C2048 H2042 0.949 . S
C2048 C2052 1.368 . S
C2049 C2030 1.429 . S
C2049 C2043 1.429 . S
C2049 C2050 1.523 . S
C2050 C2031 1.368 . S
C2050 C2044 1.368 . S
C2050 C2049 1.523 . S
C2051 C2035 1.429 . S
C2051 C2047 1.429 . S
C2051 C2052 1.523 . S
C2052 C2036 1.368 . S
C2052 C2048 1.368 . S
C2052 C2051 1.523 . S
H2053 C2028 0.950 . S
H2054 C2030 0.950 . S
H2055 C2031 0.949 . S
H2056 C2033 0.950 . S
H2057 C2035 0.950 . S
C2058 C2059 1.349 . S
C2058 C2060 1.327 . S
C2058 H2083 0.950 . S
C2059 C2058 1.349 . S
C2059 C2075 1.349 . S
C2060 C2058 1.327 . S
C2060 C2079 1.429 . S
C2060 H2084 0.950 . S
C2061 C2078 1.574 . S
C2061 C2080 1.368 . S
C2061 H2085 0.949 . S
H2062 C2066 0.949 . S
C2063 C2064 1.349 . S
C2063 C2065 1.327 . S
C2063 H2086 0.950 . S
C2064 C2063 1.349 . S
C2064 C2076 1.349 . S
C2065 C2063 1.327 . S
C2065 C2081 1.429 . S
C2065 H2087 0.950 . S
C2066 H2062 0.949 . S
C2066 C2074 1.574 . S
C2066 C2082 1.368 . S
H2067 C2075 0.950 . S
H2068 C2073 0.950 . S
H2069 C2074 0.949 . S
H2070 C2076 0.950 . S
H2071 C2077 0.950 . S
H2072 C2078 0.949 . S
C2073 H2068 0.950 . S
C2073 C2075 1.327 . S
C2073 C2079 1.429 . S
C2074 C2066 1.574 . S
C2074 H2069 0.949 . S
C2074 C2080 1.368 . S
C2075 C2059 1.349 . S
C2075 H2067 0.950 . S
C2075 C2073 1.327 . S
C2076 C2064 1.349 . S
C2076 H2070 0.950 . S
C2076 C2077 1.327 . S
C2077 H2071 0.950 . S
C2077 C2076 1.327 . S
C2077 C2081 1.429 . S
C2078 C2061 1.574 . S
C2078 H2072 0.949 . S
C2078 C2082 1.368 . S
C2079 C2060 1.429 . S
C2079 C2073 1.429 . S
C2079 C2080 1.523 . S
C2080 C2061 1.368 . S
C2080 C2074 1.368 . S
C2080 C2079 1.523 . S
C2081 C2065 1.429 . S
C2081 C2077 1.429 . S
C2081 C2082 1.523 . S
C2082 C2066 1.368 . S
C2082 C2078 1.368 . S
C2082 C2081 1.523 . S
H2083 C2058 0.950 . S
H2084 C2060 0.950 . S
H2085 C2061 0.949 . S
H2086 C2063 0.950 . S
H2087 C2065 0.950 . S
C2088 C2089 1.349 . S
C2088 C2090 1.327 . S
C2088 H2113 0.950 . S
C2089 C2088 1.349 . S
C2089 C2105 1.349 . S
C2090 C2088 1.327 . S
C2090 C2109 1.429 . S
C2090 H2114 0.940 1_455 S
C2091 C2108 1.574 . S
C2091 C2110 1.368 . S
C2091 H2115 0.949 . S
H2092 C2096 0.949 1_655 S
C2093 C2094 1.349 . S
C2093 C2095 1.327 . S
C2093 H2116 0.950 . S
C2094 C2093 1.349 . S
C2094 C2106 1.349 . S
C2095 C2093 1.327 . S
C2095 C2111 1.429 . S
C2095 H2117 0.950 . S
C2096 H2092 0.949 1_455 S
C2096 C2104 1.574 . S
C2096 C2112 1.368 . S
H2097 C2105 0.950 . S
H2098 C2103 0.950 . S
H2099 C2104 0.949 1_655 S
H2100 C2106 0.950 1_655 S
H2101 C2107 0.950 1_655 S
H2102 C2108 0.949 . S
C2103 H2098 0.950 . S
C2103 C2105 1.327 . S
C2103 C2109 1.429 . S
C2104 C2096 1.574 . S
C2104 H2099 0.949 1_455 S
C2104 C2110 1.368 . S
C2105 C2089 1.349 . S
C2105 H2097 0.950 . S
C2105 C2103 1.327 . S
C2106 C2094 1.349 . S
C2106 H2100 0.950 1_455 S
C2106 C2107 1.327 . S
C2107 H2101 0.950 1_455 S
C2107 C2106 1.327 . S
C2107 C2111 1.429 . S
C2108 C2091 1.574 . S
C2108 H2102 0.949 . S
C2108 C2112 1.368 . S
C2109 C2090 1.429 . S
C2109 C2103 1.429 . S
C2109 C2110 1.523 . S
C2110 C2091 1.368 . S
C2110 C2104 1.368 . S
C2110 C2109 1.523 . S
C2111 C2095 1.429 . S
C2111 C2107 1.429 . S
C2111 C2112 1.523 . S
C2112 C2096 1.368 . S
C2112 C2108 1.368 . S
C2112 C2111 1.523 . S
H2113 C2088 0.950 . S
H2114 C2090 0.940 1_655 S
H2115 C2091 0.949 . S
H2116 C2093 0.950 . S
H2117 C2095 0.950 . S
C2118 C2119 1.349 . S
C2118 C2120 1.327 . S
C2118 H2143 0.950 . S
C2119 C2118 1.349 . S
C2119 C2135 1.349 . S
C2120 C2118 1.327 . S
C2120 C2139 1.429 . S
C2120 H2144 0.950 . S
C2121 C2138 1.574 . S
C2121 C2140 1.368 . S
C2121 H2145 0.949 . S
H2122 C2126 0.949 . S
C2123 C2124 1.349 . S
C2123 C2125 1.327 . S
C2123 H2146 0.950 . S
C2124 C2123 1.349 . S
C2124 C2136 1.349 . S
C2125 C2123 1.327 . S
C2125 C2141 1.429 . S
C2125 H2147 0.950 . S
C2126 H2122 0.949 . S
C2126 C2134 1.574 . S
C2126 C2142 1.368 . S
H2127 C2135 0.950 . S
H2128 C2133 0.950 . S
H2129 C2134 0.949 . S
H2130 C2136 0.950 . S
H2131 C2137 0.950 . S
H2132 C2138 0.949 . S
C2133 H2128 0.950 . S
C2133 C2135 1.327 . S
C2133 C2139 1.429 . S
C2134 C2126 1.574 . S
C2134 H2129 0.949 . S
C2134 C2140 1.368 . S
C2135 C2119 1.349 . S
C2135 H2127 0.950 . S
C2135 C2133 1.327 . S
C2136 C2124 1.349 . S
C2136 H2130 0.950 . S
C2136 C2137 1.327 . S
C2137 H2131 0.950 . S
C2137 C2136 1.327 . S
C2137 C2141 1.429 . S
C2138 C2121 1.574 . S
C2138 H2132 0.949 . S
C2138 C2142 1.368 . S
C2139 C2120 1.429 . S
C2139 C2133 1.429 . S
C2139 C2140 1.523 . S
C2140 C2121 1.368 . S
C2140 C2134 1.368 . S
C2140 C2139 1.523 . S
C2141 C2125 1.429 . S
C2141 C2137 1.429 . S
C2141 C2142 1.523 . S
C2142 C2126 1.368 . S
C2142 C2138 1.368 . S
C2142 C2141 1.523 . S
H2143 C2118 0.950 . S
H2144 C2120 0.950 . S
H2145 C2121 0.949 . S
H2146 C2123 0.950 . S
H2147 C2125 0.950 . S
C2148 C2149 1.349 . S
C2148 C2150 1.327 . S
C2148 H2173 0.950 . S
C2149 C2148 1.349 . S
C2149 C2165 1.349 1_565 S
C2150 C2148 1.327 . S
C2150 C2169 1.429 . S
C2150 H2174 0.950 . S
C2151 C2168 1.574 . S
C2151 C2170 1.368 1_545 S
C2151 H2175 0.949 . S
H2152 C2156 0.949 . S
C2153 C2154 1.349 1_545 S
C2153 C2155 1.327 . S
C2153 H2176 0.950 . S
C2154 C2153 1.349 1_565 S
C2154 C2166 1.349 . S
C2155 C2153 1.327 . S
C2155 C2171 1.429 1_545 S
C2155 H2177 0.950 . S
C2156 H2152 0.949 . S
C2156 C2164 1.574 . S
C2156 C2172 1.368 . S
H2157 C2165 0.950 . S
H2158 C2163 0.950 . S
H2159 C2164 0.949 . S
H2160 C2166 0.950 . S
H2161 C2167 0.950 . S
H2162 C2168 0.949 . S
C2163 H2158 0.950 . S
C2163 C2165 1.327 . S
C2163 C2169 1.429 1_545 S
C2164 C2156 1.574 . S
C2164 H2159 0.949 . S
C2164 C2170 1.368 . S
C2165 C2149 1.349 1_545 S
C2165 H2157 0.950 . S
C2165 C2163 1.327 . S
C2166 C2154 1.349 . S
C2166 H2160 0.950 . S
C2166 C2167 1.327 . S
C2167 H2161 0.950 . S
C2167 C2166 1.327 . S
C2167 C2171 1.429 . S
C2168 C2151 1.574 . S
C2168 H2162 0.949 . S
C2168 C2172 1.368 1_545 S
C2169 C2150 1.429 . S
C2169 C2163 1.429 1_565 S
C2169 C2170 1.523 . S
C2170 C2151 1.368 1_565 S
C2170 C2164 1.368 . S
C2170 C2169 1.523 . S
C2171 C2155 1.429 1_565 S
C2171 C2167 1.429 . S
C2171 C2172 1.523 . S
C2172 C2156 1.368 . S
C2172 C2168 1.368 1_565 S
C2172 C2171 1.523 . S
H2173 C2148 0.950 . S
H2174 C2150 0.950 . S
H2175 C2151 0.949 . S
H2176 C2153 0.950 . S
H2177 C2155 0.950 . S
C2178 C2179 1.349 . S
C2178 C2180 1.327 . S
C2178 H2203 0.950 . S
C2179 C2178 1.349 . S
C2179 C2195 1.303 1_565 S
C2180 C2178 1.327 . S
C2180 C2199 1.429 . S
C2180 H2204 0.950 . S
C2181 C2198 1.574 . S
C2181 C2200 1.368 1_545 S
C2181 H2205 0.949 . S
H2182 C2186 0.949 . S
C2183 C2184 1.348 1_545 S
C2183 C2185 1.327 . S
C2183 H2206 0.950 . S
C2184 C2183 1.348 1_565 S
C2184 C2196 1.357 . S
C2185 C2183 1.327 . S
C2185 C2201 1.429 1_545 S
C2185 H2207 0.950 . S
C2186 H2182 0.949 . S
C2186 C2194 1.574 . S
C2186 C2202 1.368 . S
H2187 C2195 0.959 . S
H2188 C2193 0.950 . S
H2189 C2194 0.949 . S
H2190 C2196 0.950 . S
H2191 C2197 0.950 . S
H2192 C2198 0.949 . S
C2193 H2188 0.950 . S
C2193 C2195 1.372 . S
C2193 C2199 1.429 1_545 S
C2194 C2186 1.574 . S
C2194 H2189 0.949 . S
C2194 C2200 1.368 . S
C2195 C2179 1.303 1_545 S
C2195 H2187 0.959 . S
C2195 C2193 1.372 . S
C2196 C2184 1.357 . S
C2196 H2190 0.950 . S
C2196 C2197 1.327 . S
C2197 H2191 0.950 . S
C2197 C2196 1.327 . S
C2197 C2201 1.429 . S
C2198 C2181 1.574 . S
C2198 H2192 0.949 . S
C2198 C2202 1.368 1_545 S
C2199 C2180 1.429 . S
C2199 C2193 1.429 1_565 S
C2199 C2200 1.523 . S
C2200 C2181 1.368 1_565 S
C2200 C2194 1.368 . S
C2200 C2199 1.523 . S
C2201 C2185 1.429 1_565 S
C2201 C2197 1.429 . S
C2201 C2202 1.523 . S
C2202 C2186 1.368 . S
C2202 C2198 1.368 1_565 S
C2202 C2201 1.523 . S
H2203 C2178 0.950 . S
H2204 C2180 0.950 . S
H2205 C2181 0.949 . S
H2206 C2183 0.950 . S
H2207 C2185 0.950 . S
C2208 C2209 1.349 . S
C2208 C2210 1.327 . S
C2208 H2233 0.913 1_455 S
C2209 C2208 1.349 . S
C2209 C2225 1.349 . S
C2210 C2208 1.327 . S
C2210 C2229 1.429 . S
C2210 H2234 0.950 1_455 S
C2211 C2228 1.574 . S
C2211 C2230 1.368 . S
C2211 H2235 0.949 . S
H2212 C2216 0.949 1_655 S
C2213 C2214 1.349 . S
C2213 C2215 1.327 . S
C2213 H2236 0.950 . S
C2214 C2213 1.349 . S
C2214 C2226 1.306 1_455 S
C2215 C2213 1.327 . S
C2215 C2231 1.429 . S
C2215 H2237 0.950 . S
C2216 H2212 0.949 1_455 S
C2216 C2224 1.574 . S
C2216 C2232 1.368 . S
H2217 C2225 0.950 . S
H2218 C2223 0.950 . S
H2219 C2224 0.949 1_655 S
H2220 C2226 0.970 . S
H2221 C2227 0.947 . S
H2222 C2228 0.949 . S
C2223 H2218 0.950 . S
C2223 C2225 1.327 . S
C2223 C2229 1.429 . S
C2224 C2216 1.574 . S
C2224 H2219 0.949 1_455 S
C2224 C2230 1.368 . S
C2225 C2209 1.349 . S
C2225 H2217 0.950 . S
C2225 C2223 1.327 . S
C2226 C2214 1.306 1_655 S
C2226 H2220 0.970 . S
C2226 C2227 1.357 . S
C2227 H2221 0.947 . S
C2227 C2226 1.357 . S
C2227 C2231 1.430 1_655 S
C2228 C2211 1.574 . S
C2228 H2222 0.949 . S
C2228 C2232 1.368 . S
C2229 C2210 1.429 . S
C2229 C2223 1.429 . S
C2229 C2230 1.523 . S
C2230 C2211 1.368 . S
C2230 C2224 1.368 . S
C2230 C2229 1.523 . S
C2231 C2215 1.429 . S
C2231 C2227 1.430 1_455 S
C2231 C2232 1.523 . S
C2232 C2216 1.368 . S
C2232 C2228 1.368 . S
C2232 C2231 1.523 . S
H2233 C2208 0.913 1_655 S
H2234 C2210 0.950 1_655 S
H2235 C2211 0.949 . S
H2236 C2213 0.950 . S
H2237 C2215 0.950 . S
C2238 C2239 1.349 . S
C2238 C2240 1.327 . S
C2238 H2263 0.950 . S
C2239 C2238 1.349 . S
C2239 C2255 1.349 . S
C2240 C2238 1.327 . S
C2240 C2259 1.429 . S
C2240 H2264 0.950 . S
C2241 C2258 1.574 . S
C2241 C2260 1.368 . S
C2241 H2265 0.949 . S
H2242 C2246 0.949 . S
C2243 C2244 1.349 . S
C2243 C2245 1.327 . S
C2243 H2266 0.950 . S
C2244 C2243 1.349 . S
C2244 C2256 1.349 . S
C2245 C2243 1.327 . S
C2245 C2261 1.429 . S
C2245 H2267 0.950 . S
C2246 H2242 0.949 . S
C2246 C2254 1.574 . S
C2246 C2262 1.368 . S
H2247 C2255 0.950 . S
H2248 C2253 0.950 . S
H2249 C2254 0.949 . S
H2250 C2256 0.950 . S
H2251 C2257 0.950 . S
H2252 C2258 0.949 . S
C2253 H2248 0.950 . S
C2253 C2255 1.327 . S
C2253 C2259 1.429 . S
C2254 C2246 1.574 . S
C2254 H2249 0.949 . S
C2254 C2260 1.368 . S
C2255 C2239 1.349 . S
C2255 H2247 0.950 . S
C2255 C2253 1.327 . S
C2256 C2244 1.349 . S
C2256 H2250 0.950 . S
C2256 C2257 1.327 . S
C2257 H2251 0.950 . S
C2257 C2256 1.327 . S
C2257 C2261 1.429 . S
C2258 C2241 1.574 . S
C2258 H2252 0.949 . S
C2258 C2262 1.368 . S
C2259 C2240 1.429 . S
C2259 C2253 1.429 . S
C2259 C2260 1.523 . S
C2260 C2241 1.368 . S
C2260 C2254 1.368 . S
C2260 C2259 1.523 . S
C2261 C2245 1.429 . S
C2261 C2257 1.429 . S
C2261 C2262 1.523 . S
C2262 C2246 1.368 . S
C2262 C2258 1.368 . S
C2262 C2261 1.523 . S
H2263 C2238 0.950 . S
H2264 C2240 0.950 . S
H2265 C2241 0.949 . S
H2266 C2243 0.950 . S
H2267 C2245 0.950 . S
C2268 C2269 1.349 . S
C2268 C2270 1.327 . S
C2268 H2293 0.950 . S
C2269 C2268 1.349 . S
C2269 C2285 1.349 . S
C2270 C2268 1.327 . S
C2270 C2289 1.429 . S
C2270 H2294 0.950 . S
C2271 C2288 1.574 . S
C2271 C2290 1.368 . S
C2271 H2295 0.949 . S
H2272 C2276 0.949 . S
C2273 C2274 1.349 . S
C2273 C2275 1.327 . S
C2273 H2296 0.950 . S
C2274 C2273 1.349 . S
C2274 C2286 1.349 . S
C2275 C2273 1.327 . S
C2275 C2291 1.429 . S
C2275 H2297 0.950 . S
C2276 H2272 0.949 . S
C2276 C2284 1.574 . S
C2276 C2292 1.368 . S
H2277 C2285 0.950 . S
H2278 C2283 0.950 . S
H2279 C2284 0.949 . S
H2280 C2286 0.950 . S
H2281 C2287 0.950 . S
H2282 C2288 0.949 . S
C2283 H2278 0.950 . S
C2283 C2285 1.327 . S
C2283 C2289 1.429 . S
C2284 C2276 1.574 . S
C2284 H2279 0.949 . S
C2284 C2290 1.368 . S
C2285 C2269 1.349 . S
C2285 H2277 0.950 . S
C2285 C2283 1.327 . S
C2286 C2274 1.349 . S
C2286 H2280 0.950 . S
C2286 C2287 1.327 . S
C2287 H2281 0.950 . S
C2287 C2286 1.327 . S
C2287 C2291 1.429 . S
C2288 C2271 1.574 . S
C2288 H2282 0.949 . S
C2288 C2292 1.368 . S
C2289 C2270 1.429 . S
C2289 C2283 1.429 . S
C2289 C2290 1.523 . S
C2290 C2271 1.368 . S
C2290 C2284 1.368 . S
C2290 C2289 1.523 . S
C2291 C2275 1.429 . S
C2291 C2287 1.429 . S
C2291 C2292 1.523 . S
C2292 C2276 1.368 . S
C2292 C2288 1.368 . S
C2292 C2291 1.523 . S
H2293 C2268 0.950 . S
H2294 C2270 0.950 . S
H2295 C2271 0.949 . S
H2296 C2273 0.950 . S
H2297 C2275 0.950 . S
C2298 C2299 1.349 . S
C2298 C2300 1.327 . S
C2298 H2323 0.950 . S
C2299 C2298 1.349 . S
C2299 C2315 1.349 . S
C2300 C2298 1.327 . S
C2300 C2319 1.429 . S
C2300 H2324 0.950 . S
C2301 C2318 1.574 . S
C2301 C2320 1.368 . S
C2301 H2325 0.949 . S
H2302 C2306 0.949 . S
C2303 C2304 1.349 . S
C2303 C2305 1.327 . S
C2303 H2326 0.950 . S
C2304 C2303 1.349 . S
C2304 C2316 1.349 . S
C2305 C2303 1.327 . S
C2305 C2321 1.429 . S
C2305 H2327 0.950 . S
C2306 H2302 0.949 . S
C2306 C2314 1.574 . S
C2306 C2322 1.368 . S
H2307 C2315 0.950 . S
H2308 C2313 0.950 . S
H2309 C2314 0.949 . S
H2310 C2316 0.950 . S
H2311 C2317 0.950 . S
H2312 C2318 0.949 . S
C2313 H2308 0.950 . S
C2313 C2315 1.327 . S
C2313 C2319 1.429 . S
C2314 C2306 1.574 . S
C2314 H2309 0.949 . S
C2314 C2320 1.368 . S
C2315 C2299 1.349 . S
C2315 H2307 0.950 . S
C2315 C2313 1.327 . S
C2316 C2304 1.349 . S
C2316 H2310 0.950 . S
C2316 C2317 1.327 . S
C2317 H2311 0.950 . S
C2317 C2316 1.327 . S
C2317 C2321 1.429 . S
C2318 C2301 1.574 . S
C2318 H2312 0.949 . S
C2318 C2322 1.368 . S
C2319 C2300 1.429 . S
C2319 C2313 1.429 . S
C2319 C2320 1.523 . S
C2320 C2301 1.368 . S
C2320 C2314 1.368 . S
C2320 C2319 1.523 . S
C2321 C2305 1.429 . S
C2321 C2317 1.429 . S
C2321 C2322 1.523 . S
C2322 C2306 1.368 . S
C2322 C2318 1.368 . S
C2322 C2321 1.523 . S
H2323 C2298 0.950 . S
H2324 C2300 0.950 . S
H2325 C2301 0.949 . S
H2326 C2303 0.950 . S
H2327 C2305 0.950 . S
C2328 C2329 1.349 . S
C2328 C2330 1.327 . S
C2328 H2353 0.950 . S
C2329 C2328 1.349 . S
C2329 C2345 1.349 . S
C2330 C2328 1.327 . S
C2330 C2349 1.429 . S
C2330 H2354 0.950 . S
C2331 C2348 1.574 . S
C2331 C2350 1.368 . S
C2331 H2355 0.949 . S
H2332 C2336 0.949 . S
C2333 C2334 1.349 . S
C2333 C2335 1.327 . S
C2333 H2356 0.950 . S
C2334 C2333 1.349 . S
C2334 C2346 1.349 . S
C2335 C2333 1.327 . S
C2335 C2351 1.429 . S
C2335 H2357 0.950 . S
C2336 H2332 0.949 . S
C2336 C2344 1.574 . S
C2336 C2352 1.368 . S
H2337 C2345 0.950 . S
H2338 C2343 0.950 . S
H2339 C2344 0.949 . S
H2340 C2346 0.950 . S
H2341 C2347 0.950 . S
H2342 C2348 0.949 . S
C2343 H2338 0.950 . S
C2343 C2345 1.327 . S
C2343 C2349 1.429 . S
C2344 C2336 1.574 . S
C2344 H2339 0.949 . S
C2344 C2350 1.368 . S
C2345 C2329 1.349 . S
C2345 H2337 0.950 . S
C2345 C2343 1.327 . S
C2346 C2334 1.349 . S
C2346 H2340 0.950 . S
C2346 C2347 1.327 . S
C2347 H2341 0.950 . S
C2347 C2346 1.327 . S
C2347 C2351 1.429 . S
C2348 C2331 1.574 . S
C2348 H2342 0.949 . S
C2348 C2352 1.368 . S
C2349 C2330 1.429 . S
C2349 C2343 1.429 . S
C2349 C2350 1.523 . S
C2350 C2331 1.368 . S
C2350 C2344 1.368 . S
C2350 C2349 1.523 . S
C2351 C2335 1.429 . S
C2351 C2347 1.429 . S
C2351 C2352 1.523 . S
C2352 C2336 1.368 . S
C2352 C2348 1.368 . S
C2352 C2351 1.523 . S
H2353 C2328 0.950 . S
H2354 C2330 0.950 . S
H2355 C2331 0.949 . S
H2356 C2333 0.950 . S
H2357 C2335 0.950 . S
C2358 C2359 1.349 . S
C2358 C2360 1.327 . S
C2358 H2383 0.950 . S
C2359 C2358 1.349 . S
C2359 C2375 1.349 . S
C2360 C2358 1.327 . S
C2360 C2379 1.429 . S
C2360 H2384 0.950 . S
C2361 C2378 1.574 . S
C2361 C2380 1.368 . S
C2361 H2385 0.949 1_545 S
H2362 C2366 0.949 . S
C2363 C2364 1.349 . S
C2363 C2365 1.327 . S
C2363 H2386 0.950 1_545 S
C2364 C2363 1.349 . S
C2364 C2376 1.349 . S
C2365 C2363 1.327 . S
C2365 C2381 1.429 . S
C2365 H2387 0.950 1_545 S
C2366 H2362 0.949 . S
C2366 C2374 1.574 . S
C2366 C2382 1.368 . S
H2367 C2375 0.936 1_565 S
H2368 C2373 0.950 1_565 S
H2369 C2374 0.949 . S
H2370 C2376 0.950 . S
H2371 C2377 0.950 . S
H2372 C2378 0.949 1_565 S
C2373 H2368 0.950 1_545 S
C2373 C2375 1.327 . S
C2373 C2379 1.429 . S
C2374 C2366 1.574 . S
C2374 H2369 0.949 . S
C2374 C2380 1.368 . S
C2375 C2359 1.349 . S
C2375 H2367 0.936 1_545 S
C2375 C2373 1.327 . S
C2376 C2364 1.349 . S
C2376 H2370 0.950 . S
C2376 C2377 1.327 . S
C2377 H2371 0.950 . S
C2377 C2376 1.327 . S
C2377 C2381 1.429 . S
C2378 C2361 1.574 . S
C2378 H2372 0.949 1_545 S
C2378 C2382 1.368 . S
C2379 C2360 1.429 . S
C2379 C2373 1.429 . S
C2379 C2380 1.523 . S
C2380 C2361 1.368 . S
C2380 C2374 1.368 . S
C2380 C2379 1.523 . S
C2381 C2365 1.429 . S
C2381 C2377 1.429 . S
C2381 C2382 1.523 . S
C2382 C2366 1.368 . S
C2382 C2378 1.368 . S
C2382 C2381 1.523 . S
H2383 C2358 0.950 . S
H2384 C2360 0.950 . S
H2385 C2361 0.949 1_565 S
H2386 C2363 0.950 1_565 S
H2387 C2365 0.950 1_565 S
C2388 C2389 1.349 . S
C2388 C2390 1.327 . S
C2388 H2413 0.969 . S
C2389 C2388 1.349 . S
C2389 C2405 1.349 . S
C2390 C2388 1.327 . S
C2390 C2409 1.429 . S
C2390 H2414 0.936 1_655 S
C2391 C2408 1.574 . S
C2391 C2410 1.368 . S
C2391 H2415 0.949 . S
H2392 C2396 0.938 1_455 S
C2393 C2394 1.349 . S
C2393 C2395 1.327 . S
C2393 H2416 0.950 . S
C2394 C2393 1.349 . S
C2394 C2406 1.332 1_655 S
C2395 C2393 1.327 . S
C2395 C2411 1.429 . S
C2395 H2417 0.950 . S
C2396 H2392 0.938 1_655 S
C2396 C2404 1.542 . S
C2396 C2412 1.419 . S
H2397 C2405 0.950 . S
H2398 C2403 0.950 . S
H2399 C2404 0.949 1_455 S
H2400 C2406 0.956 . S
H2401 C2407 0.954 1_455 S
H2402 C2408 0.949 . S
C2403 H2398 0.950 . S
C2403 C2405 1.327 . S
C2403 C2409 1.429 . S
C2404 C2396 1.542 . S
C2404 H2399 0.949 1_655 S
C2404 C2410 1.368 . S
C2405 C2389 1.349 . S
C2405 H2397 0.950 . S
C2405 C2403 1.327 . S
C2406 C2394 1.332 1_455 S
C2406 H2400 0.956 . S
C2406 C2407 1.336 1_455 S
C2407 H2401 0.954 1_655 S
C2407 C2406 1.336 1_655 S
C2407 C2411 1.427 . S
C2408 C2391 1.574 . S
C2408 H2402 0.949 . S
C2408 C2412 1.368 . S
C2409 C2390 1.429 . S
C2409 C2403 1.429 . S
C2409 C2410 1.523 . S
C2410 C2391 1.368 . S
C2410 C2404 1.368 . S
C2410 C2409 1.523 . S
C2411 C2395 1.429 . S
C2411 C2407 1.427 . S
C2411 C2412 1.523 . S
C2412 C2396 1.419 . S
C2412 C2408 1.368 . S
C2412 C2411 1.523 . S
H2413 C2388 0.969 . S
H2414 C2390 0.936 1_455 S
H2415 C2391 0.949 . S
H2416 C2393 0.950 . S
H2417 C2395 0.950 . S
C2418 C2419 1.349 . S
C2418 C2420 1.327 . S
C2418 H2443 0.950 . S
C2419 C2418 1.349 . S
C2419 C2435 1.349 . S
C2420 C2418 1.327 . S
C2420 C2439 1.429 . S
C2420 H2444 0.950 . S
C2421 C2438 1.574 . S
C2421 C2440 1.368 . S
C2421 H2445 0.949 . S
H2422 C2426 0.949 . S
C2423 C2424 1.349 . S
C2423 C2425 1.327 . S
C2423 H2446 0.950 . S
C2424 C2423 1.349 . S
C2424 C2436 1.349 . S
C2425 C2423 1.327 . S
C2425 C2441 1.429 . S
C2425 H2447 0.950 . S
C2426 H2422 0.949 . S
C2426 C2434 1.574 . S
C2426 C2442 1.368 . S
H2427 C2435 0.950 . S
H2428 C2433 0.950 . S
H2429 C2434 0.949 . S
H2430 C2436 0.950 . S
H2431 C2437 0.950 . S
H2432 C2438 0.949 . S
C2433 H2428 0.950 . S
C2433 C2435 1.327 . S
C2433 C2439 1.429 . S
C2434 C2426 1.574 . S
C2434 H2429 0.949 . S
C2434 C2440 1.368 . S
C2435 C2419 1.349 . S
C2435 H2427 0.950 . S
C2435 C2433 1.327 . S
C2436 C2424 1.349 . S
C2436 H2430 0.950 . S
C2436 C2437 1.327 . S
C2437 H2431 0.950 . S
C2437 C2436 1.327 . S
C2437 C2441 1.429 . S
C2438 C2421 1.574 . S
C2438 H2432 0.949 . S
C2438 C2442 1.368 . S
C2439 C2420 1.429 . S
C2439 C2433 1.429 . S
C2439 C2440 1.523 . S
C2440 C2421 1.368 . S
C2440 C2434 1.368 . S
C2440 C2439 1.523 . S
C2441 C2425 1.429 . S
C2441 C2437 1.429 . S
C2441 C2442 1.523 . S
C2442 C2426 1.368 . S
C2442 C2438 1.368 . S
C2442 C2441 1.523 . S
H2443 C2418 0.950 . S
H2444 C2420 0.950 . S
H2445 C2421 0.949 . S
H2446 C2423 0.950 . S
H2447 C2425 0.950 . S
C2448 C2449 1.349 . S
C2448 C2450 1.327 . S
C2448 H2473 0.950 . S
C2449 C2448 1.349 . S
C2449 C2465 1.349 . S
C2450 C2448 1.327 . S
C2450 C2469 1.429 . S
C2450 H2474 0.950 . S
C2451 C2468 1.574 . S
C2451 C2470 1.368 . S
C2451 H2475 0.949 . S
H2452 C2456 0.949 . S
C2453 C2454 1.349 . S
C2453 C2455 1.327 . S
C2453 H2476 0.950 . S
C2454 C2453 1.349 . S
C2454 C2466 1.349 . S
C2455 C2453 1.327 . S
C2455 C2471 1.429 . S
C2455 H2477 0.950 . S
C2456 H2452 0.949 . S
C2456 C2464 1.574 . S
C2456 C2472 1.368 . S
H2457 C2465 0.950 . S
H2458 C2463 0.950 . S
H2459 C2464 0.949 . S
H2460 C2466 0.950 . S
H2461 C2467 0.950 . S
H2462 C2468 0.949 . S
C2463 H2458 0.950 . S
C2463 C2465 1.327 . S
C2463 C2469 1.429 . S
C2464 C2456 1.574 . S
C2464 H2459 0.949 . S
C2464 C2470 1.368 . S
C2465 C2449 1.349 . S
C2465 H2457 0.950 . S
C2465 C2463 1.327 . S
C2466 C2454 1.349 . S
C2466 H2460 0.950 . S
C2466 C2467 1.327 . S
C2467 H2461 0.950 . S
C2467 C2466 1.327 . S
C2467 C2471 1.429 . S
C2468 C2451 1.574 . S
C2468 H2462 0.949 . S
C2468 C2472 1.368 . S
C2469 C2450 1.429 . S
C2469 C2463 1.429 . S
C2469 C2470 1.523 . S
C2470 C2451 1.368 . S
C2470 C2464 1.368 . S
C2470 C2469 1.523 . S
C2471 C2455 1.429 . S
C2471 C2467 1.429 . S
C2471 C2472 1.523 . S
C2472 C2456 1.368 . S
C2472 C2468 1.368 . S
C2472 C2471 1.523 . S
H2473 C2448 0.950 . S
H2474 C2450 0.950 . S
H2475 C2451 0.949 . S
H2476 C2453 0.950 . S
H2477 C2455 0.950 . S
C2478 C2479 1.349 . S
C2478 C2480 1.327 . S
C2478 H2503 0.950 . S
C2479 C2478 1.349 . S
C2479 C2495 1.349 . S
C2480 C2478 1.327 . S
C2480 C2499 1.429 . S
C2480 H2504 0.950 . S
C2481 C2498 1.574 . S
C2481 C2500 1.368 . S
C2481 H2505 0.949 . S
H2482 C2486 0.949 . S
C2483 C2484 1.349 . S
C2483 C2485 1.327 . S
C2483 H2506 0.950 . S
C2484 C2483 1.349 . S
C2484 C2496 1.349 . S
C2485 C2483 1.327 . S
C2485 C2501 1.429 . S
C2485 H2507 0.950 . S
C2486 H2482 0.949 . S
C2486 C2494 1.574 . S
C2486 C2502 1.368 . S
H2487 C2495 0.950 . S
H2488 C2493 0.950 . S
H2489 C2494 0.949 . S
H2490 C2496 0.950 . S
H2491 C2497 0.950 . S
H2492 C2498 0.949 . S
C2493 H2488 0.950 . S
C2493 C2495 1.327 . S
C2493 C2499 1.429 . S
C2494 C2486 1.574 . S
C2494 H2489 0.949 . S
C2494 C2500 1.368 . S
C2495 C2479 1.349 . S
C2495 H2487 0.950 . S
C2495 C2493 1.327 . S
C2496 C2484 1.349 . S
C2496 H2490 0.950 . S
C2496 C2497 1.327 . S
C2497 H2491 0.950 . S
C2497 C2496 1.327 . S
C2497 C2501 1.429 . S
C2498 C2481 1.574 . S
C2498 H2492 0.949 . S
C2498 C2502 1.368 . S
C2499 C2480 1.429 . S
C2499 C2493 1.429 . S
C2499 C2500 1.523 . S
C2500 C2481 1.368 . S
C2500 C2494 1.368 . S
C2500 C2499 1.523 . S
C2501 C2485 1.429 . S
C2501 C2497 1.429 . S
C2501 C2502 1.523 . S
C2502 C2486 1.368 . S
C2502 C2498 1.368 . S
C2502 C2501 1.523 . S
H2503 C2478 0.950 . S
H2504 C2480 0.950 . S
H2505 C2481 0.949 . S
H2506 C2483 0.950 . S
H2507 C2485 0.950 . S
C2508 C2509 1.349 . S
C2508 C2510 1.327 . S
C2508 H2533 0.950 . S
C2509 C2508 1.349 . S
C2509 C2525 1.349 . S
C2510 C2508 1.327 . S
C2510 C2529 1.429 . S
C2510 H2534 0.950 . S
C2511 C2528 1.574 . S
C2511 C2530 1.368 . S
C2511 H2535 0.949 . S
H2512 C2516 0.949 . S
C2513 C2514 1.349 . S
C2513 C2515 1.327 . S
C2513 H2536 0.950 . S
C2514 C2513 1.349 . S
C2514 C2526 1.349 . S
C2515 C2513 1.327 . S
C2515 C2531 1.429 . S
C2515 H2537 0.950 . S
C2516 H2512 0.949 . S
C2516 C2524 1.574 . S
C2516 C2532 1.368 . S
H2517 C2525 0.950 . S
H2518 C2523 0.950 . S
H2519 C2524 0.949 . S
H2520 C2526 0.950 . S
H2521 C2527 0.950 . S
H2522 C2528 0.949 . S
C2523 H2518 0.950 . S
C2523 C2525 1.327 . S
C2523 C2529 1.429 . S
C2524 C2516 1.574 . S
C2524 H2519 0.949 . S
C2524 C2530 1.368 . S
C2525 C2509 1.349 . S
C2525 H2517 0.950 . S
C2525 C2523 1.327 . S
C2526 C2514 1.349 . S
C2526 H2520 0.950 . S
C2526 C2527 1.327 . S
C2527 H2521 0.950 . S
C2527 C2526 1.327 . S
C2527 C2531 1.429 . S
C2528 C2511 1.574 . S
C2528 H2522 0.949 . S
C2528 C2532 1.368 . S
C2529 C2510 1.429 . S
C2529 C2523 1.429 . S
C2529 C2530 1.523 . S
C2530 C2511 1.368 . S
C2530 C2524 1.368 . S
C2530 C2529 1.523 . S
C2531 C2515 1.429 . S
C2531 C2527 1.429 . S
C2531 C2532 1.523 . S
C2532 C2516 1.368 . S
C2532 C2528 1.368 . S
C2532 C2531 1.523 . S
H2533 C2508 0.950 . S
H2534 C2510 0.950 . S
H2535 C2511 0.949 . S
H2536 C2513 0.950 . S
H2537 C2515 0.950 . S
C2538 C2539 1.349 . S
C2538 C2540 1.327 . S
C2538 H2563 0.950 . S
C2539 C2538 1.349 . S
C2539 C2555 1.349 . S
C2540 C2538 1.327 . S
C2540 C2559 1.429 . S
C2540 H2564 0.950 . S
C2541 C2558 1.574 . S
C2541 C2560 1.368 . S
C2541 H2565 0.949 . S
H2542 C2546 0.949 . S
C2543 C2544 1.349 . S
C2543 C2545 1.327 . S
C2543 H2566 0.950 . S
C2544 C2543 1.349 . S
C2544 C2556 1.349 . S
C2545 C2543 1.327 . S
C2545 C2561 1.429 . S
C2545 H2567 0.950 . S
C2546 H2542 0.949 . S
C2546 C2554 1.574 . S
C2546 C2562 1.368 . S
H2547 C2555 0.950 . S
H2548 C2553 0.950 . S
H2549 C2554 0.949 . S
H2550 C2556 0.950 . S
H2551 C2557 0.950 . S
H2552 C2558 0.949 . S
C2553 H2548 0.950 . S
C2553 C2555 1.327 . S
C2553 C2559 1.429 . S
C2554 C2546 1.574 . S
C2554 H2549 0.949 . S
C2554 C2560 1.368 . S
C2555 C2539 1.349 . S
C2555 H2547 0.950 . S
C2555 C2553 1.327 . S
C2556 C2544 1.349 . S
C2556 H2550 0.950 . S
C2556 C2557 1.327 . S
C2557 H2551 0.950 . S
C2557 C2556 1.327 . S
C2557 C2561 1.429 . S
C2558 C2541 1.574 . S
C2558 H2552 0.949 . S
C2558 C2562 1.368 . S
C2559 C2540 1.429 . S
C2559 C2553 1.429 . S
C2559 C2560 1.523 . S
C2560 C2541 1.368 . S
C2560 C2554 1.368 . S
C2560 C2559 1.523 . S
C2561 C2545 1.429 . S
C2561 C2557 1.429 . S
C2561 C2562 1.523 . S
C2562 C2546 1.368 . S
C2562 C2558 1.368 . S
C2562 C2561 1.523 . S
H2563 C2538 0.950 . S
H2564 C2540 0.950 . S
H2565 C2541 0.949 . S
H2566 C2543 0.950 . S
H2567 C2545 0.950 . S
C2568 C2569 1.349 . S
C2568 C2570 1.327 . S
C2568 H2593 0.950 . S
C2569 C2568 1.349 . S
C2569 C2585 1.349 . S
C2570 C2568 1.327 . S
C2570 C2589 1.429 . S
C2570 H2594 0.950 . S
C2571 C2588 1.574 . S
C2571 C2590 1.368 . S
C2571 H2595 0.949 . S
H2572 C2576 0.949 . S
C2573 C2574 1.349 . S
C2573 C2575 1.327 . S
C2573 H2596 0.950 . S
C2574 C2573 1.349 . S
C2574 C2586 1.349 . S
C2575 C2573 1.327 . S
C2575 C2591 1.429 . S
C2575 H2597 0.950 . S
C2576 H2572 0.949 . S
C2576 C2584 1.574 . S
C2576 C2592 1.368 . S
H2577 C2585 0.950 . S
H2578 C2583 0.950 . S
H2579 C2584 0.949 . S
H2580 C2586 0.950 . S
H2581 C2587 0.950 . S
H2582 C2588 0.949 . S
C2583 H2578 0.950 . S
C2583 C2585 1.327 . S
C2583 C2589 1.429 . S
C2584 C2576 1.574 . S
C2584 H2579 0.949 . S
C2584 C2590 1.368 . S
C2585 C2569 1.349 . S
C2585 H2577 0.950 . S
C2585 C2583 1.327 . S
C2586 C2574 1.349 . S
C2586 H2580 0.950 . S
C2586 C2587 1.327 . S
C2587 H2581 0.950 . S
C2587 C2586 1.327 . S
C2587 C2591 1.429 . S
C2588 C2571 1.574 . S
C2588 H2582 0.949 . S
C2588 C2592 1.368 . S
C2589 C2570 1.429 . S
C2589 C2583 1.429 . S
C2589 C2590 1.523 . S
C2590 C2571 1.368 . S
C2590 C2584 1.368 . S
C2590 C2589 1.523 . S
C2591 C2575 1.429 . S
C2591 C2587 1.429 . S
C2591 C2592 1.523 . S
C2592 C2576 1.368 . S
C2592 C2588 1.368 . S
C2592 C2591 1.523 . S
H2593 C2568 0.950 . S
H2594 C2570 0.950 . S
H2595 C2571 0.949 . S
H2596 C2573 0.950 . S
H2597 C2575 0.950 . S
C2598 C2599 1.349 . S
C2598 C2600 1.327 . S
C2598 H2623 0.950 . S
C2599 C2598 1.349 . S
C2599 C2615 1.349 . S
C2600 C2598 1.327 . S
C2600 C2619 1.429 . S
C2600 H2624 0.950 . S
C2601 C2618 1.574 . S
C2601 C2620 1.368 . S
C2601 H2625 0.949 . S
H2602 C2606 0.949 . S
C2603 C2604 1.349 . S
C2603 C2605 1.327 . S
C2603 H2626 0.950 . S
C2604 C2603 1.349 . S
C2604 C2616 1.349 . S
C2605 C2603 1.327 . S
C2605 C2621 1.429 . S
C2605 H2627 0.950 . S
C2606 H2602 0.949 . S
C2606 C2614 1.574 . S
C2606 C2622 1.368 . S
H2607 C2615 0.950 . S
H2608 C2613 0.950 . S
H2609 C2614 0.949 . S
H2610 C2616 0.950 . S
H2611 C2617 0.950 . S
H2612 C2618 0.949 . S
C2613 H2608 0.950 . S
C2613 C2615 1.327 . S
C2613 C2619 1.429 . S
C2614 C2606 1.574 . S
C2614 H2609 0.949 . S
C2614 C2620 1.368 . S
C2615 C2599 1.349 . S
C2615 H2607 0.950 . S
C2615 C2613 1.327 . S
C2616 C2604 1.349 . S
C2616 H2610 0.950 . S
C2616 C2617 1.327 . S
C2617 H2611 0.950 . S
C2617 C2616 1.327 . S
C2617 C2621 1.429 . S
C2618 C2601 1.574 . S
C2618 H2612 0.949 . S
C2618 C2622 1.368 . S
C2619 C2600 1.429 . S
C2619 C2613 1.429 . S
C2619 C2620 1.523 . S
C2620 C2601 1.368 . S
C2620 C2614 1.368 . S
C2620 C2619 1.523 . S
C2621 C2605 1.429 . S
C2621 C2617 1.429 . S
C2621 C2622 1.523 . S
C2622 C2606 1.368 . S
C2622 C2618 1.368 . S
C2622 C2621 1.523 . S
H2623 C2598 0.950 . S
H2624 C2600 0.950 . S
H2625 C2601 0.949 . S
H2626 C2603 0.950 . S
H2627 C2605 0.950 . S
C2628 C2629 1.349 . S
C2628 C2630 1.327 . S
C2628 H2653 0.950 . S
C2629 C2628 1.349 . S
C2629 C2645 1.349 . S
C2630 C2628 1.327 . S
C2630 C2649 1.429 . S
C2630 H2654 0.954 . S
C2631 C2648 1.574 . S
C2631 C2650 1.368 . S
C2631 H2655 0.949 . S
H2632 C2636 0.958 . S
C2633 C2634 1.360 . S
C2633 C2635 1.327 . S
C2633 H2656 0.950 . S
C2634 C2633 1.360 . S
C2634 C2646 1.347 1_655 S
C2635 C2633 1.327 . S
C2635 C2651 1.429 . S
C2635 H2657 0.950 . S
C2636 H2632 0.958 . S
C2636 C2644 1.527 1_455 S
C2636 C2652 1.366 1_455 S
H2637 C2645 0.950 . S
H2638 C2643 0.950 . S
H2639 C2644 0.946 1_455 S
H2640 C2646 0.950 . S
H2641 C2647 0.950 . S
H2642 C2648 0.949 . S
C2643 H2638 0.950 . S
C2643 C2645 1.327 . S
C2643 C2649 1.429 . S
C2644 C2636 1.527 1_655 S
C2644 H2639 0.946 1_655 S
C2644 C2650 1.419 . S
C2645 C2629 1.349 . S
C2645 H2637 0.950 . S
C2645 C2643 1.327 . S
C2646 C2634 1.347 1_455 S
C2646 H2640 0.950 . S
C2646 C2647 1.327 . S
C2647 H2641 0.950 . S
C2647 C2646 1.327 . S
C2647 C2651 1.429 1_455 S
C2648 C2631 1.574 . S
C2648 H2642 0.949 . S
C2648 C2652 1.368 . S
C2649 C2630 1.429 . S
C2649 C2643 1.429 . S
C2649 C2650 1.523 . S
C2650 C2631 1.368 . S
C2650 C2644 1.419 . S
C2650 C2649 1.523 . S
C2651 C2635 1.429 . S
C2651 C2647 1.429 1_655 S
C2651 C2652 1.523 . S
C2652 C2636 1.366 1_655 S
C2652 C2648 1.368 . S
C2652 C2651 1.523 . S
H2653 C2628 0.950 . S
H2654 C2630 0.954 . S
H2655 C2631 0.949 . S
H2656 C2633 0.950 . S
H2657 C2635 0.950 . S
C2658 C2659 1.349 . S
C2658 C2660 1.327 . S
C2658 H2683 0.950 . S
C2659 C2658 1.349 . S
C2659 C2675 1.349 . S
C2660 C2658 1.327 . S
C2660 C2679 1.429 . S
C2660 H2684 0.950 . S
C2661 C2678 1.574 . S
C2661 C2680 1.368 . S
C2661 H2685 0.949 . S
H2662 C2666 0.949 . S
C2663 C2664 1.349 . S
C2663 C2665 1.327 . S
C2663 H2686 0.950 . S
C2664 C2663 1.349 . S
C2664 C2676 1.349 . S
C2665 C2663 1.327 . S
C2665 C2681 1.429 . S
C2665 H2687 0.950 . S
C2666 H2662 0.949 . S
C2666 C2674 1.574 . S
C2666 C2682 1.368 . S
H2667 C2675 0.950 . S
H2668 C2673 0.950 . S
H2669 C2674 0.949 . S
H2670 C2676 0.950 . S
H2671 C2677 0.950 . S
H2672 C2678 0.949 . S
C2673 H2668 0.950 . S
C2673 C2675 1.327 . S
C2673 C2679 1.429 . S
C2674 C2666 1.574 . S
C2674 H2669 0.949 . S
C2674 C2680 1.368 . S
C2675 C2659 1.349 . S
C2675 H2667 0.950 . S
C2675 C2673 1.327 . S
C2676 C2664 1.349 . S
C2676 H2670 0.950 . S
C2676 C2677 1.327 . S
C2677 H2671 0.950 . S
C2677 C2676 1.327 . S
C2677 C2681 1.429 . S
C2678 C2661 1.574 . S
C2678 H2672 0.949 . S
C2678 C2682 1.368 . S
C2679 C2660 1.429 . S
C2679 C2673 1.429 . S
C2679 C2680 1.523 . S
C2680 C2661 1.368 . S
C2680 C2674 1.368 . S
C2680 C2679 1.523 . S
C2681 C2665 1.429 . S
C2681 C2677 1.429 . S
C2681 C2682 1.523 . S
C2682 C2666 1.368 . S
C2682 C2678 1.368 . S
C2682 C2681 1.523 . S
H2683 C2658 0.950 . S
H2684 C2660 0.950 . S
H2685 C2661 0.949 . S
H2686 C2663 0.950 . S
H2687 C2665 0.950 . S
C2688 C2689 1.349 . S
C2688 C2690 1.327 . S
C2688 H2713 0.950 . S
C2689 C2688 1.349 . S
C2689 C2705 1.349 . S
C2690 C2688 1.327 . S
C2690 C2709 1.429 . S
C2690 H2714 0.950 . S
C2691 C2708 1.553 . S
C2691 C2710 1.368 . S
C2691 H2715 0.949 1_545 S
H2692 C2696 0.949 . S
C2693 C2694 1.349 1_565 S
C2693 C2695 1.302 . S
C2693 H2716 0.950 . S
C2694 C2693 1.349 1_545 S
C2694 C2706 1.349 . S
C2695 C2693 1.302 . S
C2695 C2711 1.397 1_565 S
C2695 H2717 1.010 . S
C2696 H2692 0.949 . S
C2696 C2704 1.574 . S
C2696 C2712 1.368 . S
H2697 C2705 0.950 1_565 S
H2698 C2703 0.950 1_565 S
H2699 C2704 0.949 . S
H2700 C2706 0.950 . S
H2701 C2707 0.950 . S
H2702 C2708 0.923 1_565 S
C2703 H2698 0.950 1_545 S
C2703 C2705 1.327 . S
C2703 C2709 1.429 . S
C2704 C2696 1.574 . S
C2704 H2699 0.949 . S
C2704 C2710 1.368 . S
C2705 C2689 1.349 . S
C2705 H2697 0.950 1_545 S
C2705 C2703 1.327 . S
C2706 C2694 1.349 . S
C2706 H2700 0.950 . S
C2706 C2707 1.327 . S
C2707 H2701 0.950 . S
C2707 C2706 1.327 . S
C2707 C2711 1.429 . S
C2708 C2691 1.553 . S
C2708 H2702 0.923 1_545 S
C2708 C2712 1.420 . S
C2709 C2690 1.429 . S
C2709 C2703 1.429 . S
C2709 C2710 1.523 . S
C2710 C2691 1.368 . S
C2710 C2704 1.368 . S
C2710 C2709 1.523 . S
C2711 C2695 1.397 1_545 S
C2711 C2707 1.429 . S
C2711 C2712 1.523 . S
C2712 C2696 1.368 . S
C2712 C2708 1.420 . S
C2712 C2711 1.523 . S
H2713 C2688 0.950 . S
H2714 C2690 0.950 . S
H2715 C2691 0.949 1_565 S
H2716 C2693 0.950 . S
H2717 C2695 1.010 . S
C559 C10 1.644 . S
C564 C403 1.622 . S
C589 C23 1.634 . S
C594 C428 1.618 . S
C624 C439 1.621 . S
C619 C29 1.640 . S
C649 C30 1.644 . S
C654 C464 1.628 . S
C679 C5 1.648 . S
C684 C482 1.636 . S
C709 C18 1.638 . S
C714 C493 1.620 . S
C739 C49 1.635 . S
C744 C475 1.617 . S
C774 C500 1.611 . S
C769 C62 1.627 . S
C804 C457 1.616 . S
C799 C70 1.631 . S
C829 C75 1.635 . S
C834 C446 1.610 . S
C864 C410 1.627 . S
C859 C44 1.640 . S
C889 C57 1.630 . S
C894 C421 1.616 . S
C919 C88 1.644 . S
C924 C511 1.622 . S
C949 C101 1.634 . S
C954 C536 1.618 . S
C984 C547 1.620 . S
C979 C107 1.639 . S
C1009 C108 1.643 . S
C1014 C248 1.627 . S
C1039 C83 1.648 . S
C1044 C266 1.635 . S
C1069 C96 1.638 . S
C1074 C277 1.620 . S
C1099 C127 1.635 . S
C1104 C259 1.617 . S
C1129 C140 1.627 . S
C1134 C284 1.611 . S
C1164 C241 1.617 . S
C1159 C146 1.631 . S
C1194 C554 1.620 . S
C1189 C147 1.635 . S
C1224 C518 1.627 . S
C1219 C122 1.639 . S
C1254 C529 1.616 . S
C1249 C135 1.630 . S
C1279 C160 1.644 . S
C1284 C295 1.622 . S
C1309 C173 1.635 . S
C1314 C320 1.618 . S
C1339 C185 1.639 . S
C1344 C331 1.620 . S
C1369 C186 1.643 . S
C1374 C356 1.627 . S
C1404 C374 1.635 . S
C1399 C159 1.648 . S
C1434 C385 1.619 . S
C1429 C172 1.638 . S
C1464 C367 1.617 . S
C1459 C205 1.635 . S
C1494 C392 1.611 . S
C1489 C218 1.627 . S
C1519 C224 1.631 . S
C1524 C349 1.617 . S
C1554 C338 1.619 . S
C1549 C225 1.635 . S
C1579 C200 1.639 . S
C1584 C302 1.627 . S
C1614 C313 1.616 . S
C1609 C213 1.630 . S
C1644 C250 1.434 . S
C1639 C4 1.504 . S
C1669 C17 1.496 . S
C1674 C268 1.426 . S
C1704 C278 1.439 . S
C1699 C31 1.506 . S
C1734 C296 1.433 . S
C1729 C36 1.498 . S
C1764 C322 1.440 . S
C1759 C3 1.513 . S
C1794 C332 1.439 . S
C1789 C16 1.505 . S
C1819 C43 1.508 . S
C1824 C340 1.435 . S
C1849 C56 1.500 . S
C1854 C304 1.427 . S
C1879 C68 1.509 . S
C1884 C314 1.441 . S
C1909 C69 1.502 . S
C1914 C260 1.435 . S
C1944 C286 1.441 . S
C1939 C42 1.516 . S
C1969 C55 1.509 . S
C1974 C242 1.441 . S
C2004 C358 1.434 . S
C1999 C82 1.504 . S
C2029 C95 1.495 . S
C2034 C376 1.426 . S
C2059 C109 1.506 . S
C2064 C386 1.439 . S
C2094 C404 1.433 . S
C2089 C114 1.498 . S
C2119 C81 1.513 . S
C2124 C430 1.441 . S
C2149 C94 1.505 . S
C2154 C440 1.439 . S
C2179 C121 1.508 . S
C2184 C448 1.441 . S
C2209 C134 1.500 . S
C2214 C412 1.427 . S
C2244 C422 1.441 . S
C2239 C148 1.509 . S
C2269 C153 1.502 . S
C2274 C368 1.435 . S
C2299 C120 1.517 . S
C2304 C394 1.441 . S
C2334 C350 1.441 . S
C2329 C133 1.509 . S
C2364 C466 1.435 . S
C2359 C166 1.505 . S
C2389 C179 1.495 . S
C2394 C484 1.426 . S
C2419 C187 1.506 . S
C2424 C494 1.439 . S
C2454 C512 1.433 . S
C2449 C192 1.498 . S
C2484 C538 1.441 . S
C2479 C161 1.562 . S
C2509 C174 1.505 . S
C2514 C548 1.438 . S
C2539 C199 1.509 . S
C2544 C556 1.435 . S
C2569 C212 1.499 . S
C2574 C520 1.426 . S
C2604 C530 1.441 . S
C2599 C226 1.509 . S
C2634 C476 1.410 1_655 S
C2629 C231 1.502 . S
C2664 C502 1.441 . S
C2659 C198 1.517 . S
C2689 C211 1.508 . S
C2694 C458 1.440 . S
