# Generated by pormake.
# Topology pyr, (3,6)-cn, num edge types: 1
# Building blocks:
#     Node 0, Type 0, BuildingBlock: CUQRIR_clean_linker_1, # of connection points: 3
#     Node 1, Type 0, BuildingBlock: CUQRIR_clean_linker_1, # of connection points: 3
#     Node 2, Type 0, BuildingBlock: CUQRIR_clean_linker_1, # of connection points: 3
#     Node 3, Type 0, BuildingBlock: CUQRIR_clean_linker_1, # of connection points: 3
#     Node 4, Type 0, BuildingBlock: CUQRIR_clean_linker_1, # of connection points: 3
#     Node 5, Type 0, BuildingBlock: CUQRIR_clean_linker_1, # of connection points: 3
#     Node 6, Type 0, BuildingBlock: CUQRIR_clean_linker_1, # of connection points: 3
#     Node 7, Type 0, BuildingBlock: CUQRIR_clean_linker_1, # of connection points: 3
#     Node 8, Type 1, BuildingBlock: BETFAJ_clean_sbu_0, # of connection points: 6
#     Node 9, Type 1, BuildingBlock: BETFAJ_clean_sbu_0, # of connection points: 6
#     Node 10, Type 1, BuildingBlock: BETFAJ_clean_sbu_0, # of connection points: 6
#     Node 11, Type 1, BuildingBlock: BETFAJ_clean_sbu_0, # of connection points: 6
#     Edge 12, Type (0, 1), BuildingBlock: XIVTED_clean_linker_0, # of connection points: 2
#     Edge 13, Type (0, 1), BuildingBlock: XIVTED_clean_linker_0, # of connection points: 2
#     Edge 14, Type (0, 1), BuildingBlock: XIVTED_clean_linker_0, # of connection points: 2
#     Edge 15, Type (0, 1), BuildingBlock: XIVTED_clean_linker_0, # of connection points: 2
#     Edge 16, Type (0, 1), BuildingBlock: XIVTED_clean_linker_0, # of connection points: 2
#     Edge 17, Type (0, 1), BuildingBlock: XIVTED_clean_linker_0, # of connection points: 2
#     Edge 18, Type (0, 1), BuildingBlock: XIVTED_clean_linker_0, # of connection points: 2
#     Edge 19, Type (0, 1), BuildingBlock: XIVTED_clean_linker_0, # of connection points: 2
#     Edge 20, Type (0, 1), BuildingBlock: XIVTED_clean_linker_0, # of connection points: 2
#     Edge 21, Type (0, 1), BuildingBlock: XIVTED_clean_linker_0, # of connection points: 2
#     Edge 22, Type (0, 1), BuildingBlock: XIVTED_clean_linker_0, # of connection points: 2
#     Edge 23, Type (0, 1), BuildingBlock: XIVTED_clean_linker_0, # of connection points: 2
#     Edge 24, Type (0, 1), BuildingBlock: XIVTED_clean_linker_0, # of connection points: 2
#     Edge 25, Type (0, 1), BuildingBlock: XIVTED_clean_linker_0, # of connection points: 2
#     Edge 26, Type (0, 1), BuildingBlock: XIVTED_clean_linker_0, # of connection points: 2
#     Edge 27, Type (0, 1), BuildingBlock: XIVTED_clean_linker_0, # of connection points: 2
#     Edge 28, Type (0, 1), BuildingBlock: XIVTED_clean_linker_0, # of connection points: 2
#     Edge 29, Type (0, 1), BuildingBlock: XIVTED_clean_linker_0, # of connection points: 2
#     Edge 30, Type (0, 1), BuildingBlock: XIVTED_clean_linker_0, # of connection points: 2
#     Edge 31, Type (0, 1), BuildingBlock: XIVTED_clean_linker_0, # of connection points: 2
#     Edge 32, Type (0, 1), BuildingBlock: XIVTED_clean_linker_0, # of connection points: 2
#     Edge 33, Type (0, 1), BuildingBlock: XIVTED_clean_linker_0, # of connection points: 2
#     Edge 34, Type (0, 1), BuildingBlock: XIVTED_clean_linker_0, # of connection points: 2
#     Edge 35, Type (0, 1), BuildingBlock: XIVTED_clean_linker_0, # of connection points: 2
# Relax obj value: 0.205
# Max RMSD: 0.259
# Mean RMSD: 0.169
data_MOF--net-pyr--node1-BETFAJ_clean_sbu_0--node2-CUQRIR_clean_linker_1--edge1-XIVTED_clean_linker_0
_symmetry_space_group_name_H-M    P1
_symmetry_Int_Tables_number       1
_symmetry_cell_setting            triclinic
loop_
_symmetry_equiv_pos_as_xyz
'x, y, z'
_cell_length_a     36.361812
_cell_length_b     37.40005
_cell_length_c     33.15062
_cell_angle_alpha  90.009285
_cell_angle_beta   89.645963
_cell_angle_gamma 105.20037
loop_
_atom_site_label
_atom_site_type_symbol
_atom_site_fract_x
_atom_site_fract_y
_atom_site_fract_z
_atom_type_partial_charge
C0 C 0.36116 0.40329 0.26827 0.0
N1 N 0.37739 0.37479 0.2733 0.0
N2 N 0.36575 0.4165 0.22997 0.0
C3 C 0.33314 0.4123 0.29781 0.0
C4 C 0.38743 0.39627 0.21248 0.0
N5 N 0.39471 0.37121 0.23867 0.0
C6 C 0.3976 0.39832 0.1684 0.0
H7 H 0.30517 0.3916 0.29474 0.0
H8 H 0.32922 0.44028 0.29225 0.0
H9 H 0.34317 0.41123 0.32918 0.0
H10 H 0.40062 0.4268 0.15684 0.0
H11 H 0.37444 0.37915 0.15138 0.0
H12 H 0.42446 0.39012 0.16324 0.0
C13 C 0.25092 0.91991 0.60656 0.0
N14 N 0.25239 0.93856 0.64162 0.0
N15 N 0.26407 0.88972 0.61156 0.0
C16 C 0.23829 0.93185 0.56683 0.0
C17 C 0.27335 0.89052 0.6512 0.0
N18 N 0.26584 0.92015 0.66964 0.0
C19 C 0.29633 0.86649 0.66939 0.0
H20 H 0.22867 0.90772 0.5464 0.0
H21 H 0.26263 0.95204 0.55227 0.0
H22 H 0.21486 0.94542 0.57138 0.0
H23 H 0.32561 0.87462 0.65656 0.0
H24 H 0.28352 0.83709 0.66133 0.0
H25 H 0.29814 0.86894 0.70264 0.0
C26 C 0.62544 0.40174 0.86876 0.0
N27 N 0.6474 0.39945 0.90142 0.0
N28 N 0.63808 0.43483 0.84943 0.0
C29 C 0.59048 0.37225 0.85674 0.0
C30 C 0.66868 0.45261 0.87171 0.0
N31 N 0.67432 0.43155 0.9035 0.0
C32 C 0.6947 0.48976 0.86063 0.0
H33 H 0.59886 0.35362 0.83449 0.0
H34 H 0.56927 0.38474 0.84244 0.0
H35 H 0.57712 0.35535 0.88304 0.0
H36 H 0.68536 0.51179 0.87694 0.0
H37 H 0.69376 0.495 0.82776 0.0
H38 H 0.72453 0.4914 0.86928 0.0
C39 C 0.83062 0.71929 0.36918 0.0
N40 N 0.86525 0.74359 0.36166 0.0
N41 N 0.81099 0.73184 0.39865 0.0
C42 C 0.8156 0.68334 0.34705 0.0
C43 C 0.8351 0.76486 0.40901 0.0
N44 N 0.86806 0.77233 0.38694 0.0
C45 C 0.82656 0.78977 0.44156 0.0
H46 H 0.8257 0.68563 0.31529 0.0
H47 H 0.78399 0.67476 0.34749 0.0
H48 H 0.82626 0.6615 0.362 0.0
H49 H 0.80662 0.77363 0.46445 0.0
H50 H 0.81325 0.81021 0.42757 0.0
H51 H 0.85275 0.80532 0.4571 0.0
C52 C 0.63553 0.83604 0.92289 0.0
N53 N 0.66331 0.82659 0.90136 0.0
N54 N 0.62349 0.86293 0.9039 0.0
C55 C 0.62216 0.82158 0.96419 0.0
C56 C 0.64471 0.86908 0.86965 0.0
N57 N 0.66904 0.84725 0.86813 0.0
C58 C 0.64723 0.90165 0.84212 0.0
H59 H 0.59166 0.82086 0.96832 0.0
H60 H 0.6387 0.84053 0.98726 0.0
H61 H 0.62613 0.79345 0.96882 0.0
H62 H 0.67097 0.92512 0.85211 0.0
H63 H 0.62039 0.9105 0.84294 0.0
H64 H 0.65316 0.89459 0.81068 0.0
C65 C 0.80914 0.30593 0.56332 0.0
N66 N 0.81586 0.28043 0.53712 0.0
N67 N 0.77766 0.31615 0.55241 0.0
C68 C 0.83254 0.3203 0.59985 0.0
C69 C 0.7654 0.29627 0.51888 0.0
N70 N 0.7885 0.27458 0.50965 0.0
C71 C 0.72975 0.29676 0.49625 0.0
H72 H 0.81921 0.30415 0.62665 0.0
H73 H 0.83319 0.34977 0.60514 0.0
H74 H 0.86205 0.31757 0.59632 0.0
H75 H 0.73223 0.28988 0.46396 0.0
H76 H 0.72359 0.32422 0.49867 0.0
H77 H 0.70539 0.27568 0.50962 0.0
C78 C 0.33282 0.7449 0.26832 0.0
N79 N 0.36576 0.76954 0.27993 0.0
N80 N 0.31432 0.75961 0.2399 0.0
C81 C 0.31784 0.70677 0.28611 0.0
C82 C 0.33719 0.79427 0.23454 0.0
N83 N 0.36822 0.80076 0.25894 0.0
C84 C 0.33056 0.82111 0.20322 0.0
H85 H 0.33032 0.68709 0.26928 0.0
H86 H 0.28635 0.69732 0.28387 0.0
H87 H 0.32608 0.70629 0.31823 0.0
H88 H 0.31494 0.8397 0.21739 0.0
H89 H 0.31342 0.80634 0.17778 0.0
H90 H 0.35791 0.83847 0.19103 0.0
C91 C 0.13015 0.41253 0.76689 0.0
N92 N 0.1542 0.40665 0.73717 0.0
N93 N 0.14256 0.44701 0.78353 0.0
C94 C 0.09539 0.38364 0.78099 0.0
C95 C 0.17527 0.46187 0.76234 0.0
N96 N 0.18282 0.43758 0.73466 0.0
C97 C 0.19807 0.50167 0.7658 0.0
H98 H 0.07041 0.38646 0.76345 0.0
H99 H 0.08977 0.38719 0.81348 0.0
H100 H 0.09875 0.35532 0.77607 0.0
H101 H 0.22113 0.50362 0.7881 0.0
H102 H 0.17985 0.51958 0.77592 0.0
H103 H 0.21134 0.51223 0.73643 0.0
Sm104 Sm 0.04175 0.1053 0.52299 0.0
Sm105 Sm 0.02262 0.0635 0.60148 0.0
C106 C 0.05626 0.1405 0.45396 0.0
C107 C 0.09244 0.16579 0.44021 0.0
C108 C 0.09357 0.2018 0.42753 0.0
C109 C 0.12821 0.22633 0.41635 0.0
C110 C 0.1623 0.21521 0.41764 0.0
C111 C 0.16121 0.17944 0.43123 0.0
C112 C 0.12669 0.15502 0.44249 0.0
C113 C 0.10291 0.09078 0.56248 0.0
C114 C 0.06084 0.15348 0.60481 0.0
C115 C 0.01335 1.01696 0.66333 0.0
C116 C 0.979 0.99448 0.68328 0.0
C117 C 0.98187 0.97134 0.7156 0.0
C118 C 0.9489 0.94992 0.73441 0.0
C119 C 0.91262 0.95138 0.72108 0.0
C120 C 0.91003 0.97429 0.68817 0.0
C121 C 0.94296 0.99565 0.66944 0.0
C122 C 0.96995 0.10068 0.58177 0.0
C123 C 0.99633 1.0156 0.51686 0.0
O124 O 0.03877 0.15264 0.48359 0.0
O125 O 0.05645 0.10574 0.45818 0.0
O126 O 0.07055 0.06929 0.55837 0.0
O127 O 0.1055 0.12119 0.54298 0.0
O128 O 0.04563 0.15308 0.56859 0.0
O129 O 0.06261 0.12151 0.62157 0.0
O130 O 0.01832 1.00743 0.6263 0.0
O131 O 0.01974 0.05275 0.66758 0.0
O132 O 0.98585 0.08443 0.55625 0.0
O133 O 0.97764 0.09308 0.61825 0.0
O134 O 0.9967 1.01522 0.55687 0.0
O135 O 0.01046 1.047 0.4968 0.0
H136 H 0.06769 0.21096 0.42637 0.0
H137 H 0.1283 0.25394 0.4064 0.0
H138 H 0.18686 0.16989 0.43203 0.0
H139 H 0.12695 0.12764 0.4529 0.0
H140 H 0.00953 0.96992 0.72633 0.0
H141 H 0.95181 0.93222 0.75938 0.0
H142 H 0.8826 0.97645 0.67753 0.0
H143 H 0.94035 1.01333 0.6443 0.0
Sm144 Sm 0.54862 0.11509 0.11682 0.0
Sm145 Sm 0.47654 0.09962 0.08453 0.0
C146 C 0.61676 0.14368 0.14866 0.0
C147 C 0.6359 0.1496 0.18794 0.0
C148 C 0.65923 0.1848 0.19689 0.0
C149 C 0.67919 0.19105 0.23306 0.0
C150 C 0.6764 0.1621 0.26093 0.0
C151 C 0.65241 0.12691 0.25226 0.0
C152 C 0.63228 0.12069 0.216 0.0
C153 C 0.50485 1.04756 0.14717 0.0
C154 C 0.48466 0.15142 0.15903 0.0
C155 C 0.40973 0.07161 0.04949 0.0
C156 C 0.39568 0.05406 1.01067 0.0
C157 C 0.39953 1.01872 1.00028 0.0
C158 C 0.38602 1.00275 0.96331 0.0
C159 C 0.36874 1.02192 0.93598 0.0
C160 C 0.36489 0.05716 0.94643 0.0
C161 C 0.37804 0.07296 0.98349 0.0
C162 C 0.52309 0.16679 0.05534 0.0
C163 C 0.5383 0.06496 1.03962 0.0
O164 O 0.59269 0.16321 0.14105 0.0
O165 O 0.60525 0.10969 0.13571 0.0
O166 O 0.49317 0.07668 0.14383 0.0
O167 O 0.53966 0.05408 0.13472 0.0
O168 O 0.5212 0.15637 0.15086 0.0
O169 O 0.45973 0.12383 0.14221 0.0
O170 O 0.4254 0.05289 0.07424 0.0
O171 O 0.42771 0.10669 0.04824 0.0
O172 O 0.53262 0.13661 0.05765 0.0
O173 O 0.48885 0.16221 0.06932 0.0
O174 O 0.50228 0.05873 0.04976 0.0
O175 O 0.56343 0.09259 0.05639 0.0
H176 H 0.66222 0.20748 0.17572 0.0
H177 H 0.6967 0.2187 0.23929 0.0
H178 H 0.64973 0.10408 0.27312 0.0
H179 H 0.61428 0.09324 0.20981 0.0
H180 H 0.41306 1.00342 1.02056 0.0
H181 H 0.38957 0.97565 0.95583 0.0
H182 H 0.35124 0.07234 0.92613 0.0
H183 H 0.37446 0.10008 0.99089 0.0
Sm184 Sm 0.49161 0.55403 0.52502 0.0
Sm185 Sm 0.49118 0.61942 0.58943 0.0
C186 C 0.51767 0.51158 0.47513 0.0
C187 C 0.54397 0.48837 0.48333 0.0
C188 C 0.58345 0.50297 0.47818 0.0
C189 C 0.60884 0.48421 0.49347 0.0
C190 C 0.59526 0.45048 0.51421 0.0
C191 C 0.55572 0.43487 0.51716 0.0
C192 C 0.53037 0.45346 0.50162 0.0
C193 C 0.42243 0.53729 0.56773 0.0
C194 C 0.52372 0.54973 0.62005 0.0
C195 C 0.46574 0.6626 0.63826 0.0
C196 C 0.45235 0.69498 0.6269 0.0
C197 C 0.41333 0.69251 0.63013 0.0
C198 C 0.3978 0.71733 0.6094 0.0
C199 C 0.4211 0.7454 0.5855 0.0
C200 C 0.46058 0.74977 0.58475 0.0
C201 C 0.47613 0.72455 0.60509 0.0
C202 C 0.55924 0.63589 0.54485 0.0
C203 C 0.46441 0.62839 0.49405 0.0
O204 O 0.5324 0.54745 0.4773 0.0
O205 O 0.48403 0.50098 0.49226 0.0
O206 O 0.45076 0.56537 0.57152 0.0
O207 O 0.42987 0.51772 0.53789 0.0
O208 O 0.52166 0.53705 0.58221 0.0
O209 O 0.5113 0.57879 0.63036 0.0
O210 O 0.44415 0.63107 0.62505 0.0
O211 O 0.50227 0.66546 0.63381 0.0
O212 O 0.53139 0.60739 0.54333 0.0
O213 O 0.55103 0.65781 0.57191 0.0
O214 O 0.46677 0.64059 0.53191 0.0
O215 O 0.47294 0.59696 0.48384 0.0
H216 H 0.5948 0.52964 0.46381 0.0
H217 H 0.63911 0.49649 0.48957 0.0
H218 H 0.54418 0.40899 0.53297 0.0
H219 H 0.50011 0.44122 0.5058 0.0
H220 H 0.39444 0.66991 0.6466 0.0
H221 H 0.36736 0.71415 0.61152 0.0
H222 H 0.47913 0.77163 0.56706 0.0
H223 H 0.50636 0.7271 0.60185 0.0
Sm224 Sm 0.9985 0.56183 0.09184 0.0
Sm225 Sm 0.99484 0.62701 1.04205 0.0
C226 C 0.0223 0.50368 0.11494 0.0
C227 C 0.05924 0.49838 0.12812 0.0
C228 C 0.09373 0.52208 0.1144 0.0
C229 C 0.12865 0.5161 0.12574 0.0
C230 C 0.1298 0.48602 0.1507 0.0
C231 C 0.09517 0.46271 0.16493 0.0
C232 C 0.06025 0.46891 0.15381 0.0
C233 C 0.97041 0.60817 0.14419 0.0
C234 C 0.06979 0.63673 0.09666 0.0
C235 C 0.97665 0.68179 1.00274 0.0
C236 C 0.94195 0.6938 0.99418 0.0
C237 C 0.91326 0.69106 1.02348 0.0
C238 C 0.88068 0.70282 1.01476 0.0
C239 C 0.87599 0.71721 0.97647 0.0
C240 C 0.9046 0.71944 0.94709 0.0
C241 C 0.93728 0.70792 0.95593 0.0
C242 C 0.03487 0.58177 1.00444 0.0
C243 C 0.91879 0.55332 1.04513 0.0
O244 O 0.02063 0.51342 0.07734 0.0
O245 O 1.00536 0.52174 0.13937 0.0
O246 O 0.97928 0.6148 0.10723 0.0
O247 O 0.97448 0.57571 0.15334 0.0
O248 O 0.05934 0.60025 0.09758 0.0
O249 O 0.04727 0.65533 0.08061 0.0
O250 O 0.98846 0.68443 1.04006 0.0
O251 O 0.97923 0.65123 0.98534 0.0
O252 O 1.00345 0.57105 1.02351 0.0
O253 O 0.04663 0.61765 1.00616 0.0
O254 O 0.93247 0.5891 1.03677 0.0
O255 O 0.93931 0.5351 0.06535 0.0
H256 H 0.09368 0.5448 0.09421 0.0
H257 H 0.1547 0.53434 0.1139 0.0
H258 H 0.09506 0.43956 0.1846 0.0
H259 H 0.034 0.45038 0.16485 0.0
H260 H 0.916 0.67984 0.05311 0.0
H261 H 0.85897 0.70031 1.03787 0.0
H262 H 0.90206 0.73074 0.91747 0.0
H263 H 0.95903 0.71017 0.93288 0.0
H264 H 0.38192 0.36685 0.35473 0.0
H265 H 0.17102 0.25601 0.34895 0.0
H266 H 0.32753 0.31389 0.24744 0.0
H267 H 0.23525 0.2286 0.44808 0.0
H268 H 0.23032 0.29039 0.31747 0.0
H269 H 0.3319 0.32448 0.39577 0.0
C270 C 0.36056 0.34515 0.34007 0.0
C271 C 0.35875 0.34347 0.29781 0.0
C272 C 0.23139 0.27684 0.34617 0.0
C273 C 0.30175 0.2966 0.3436 0.0
C274 C 0.19756 0.25767 0.36442 0.0
C275 C 0.1982 0.23932 0.4011 0.0
C276 C 0.26623 0.27801 0.36471 0.0
C277 C 0.23367 0.24208 0.41949 0.0
C278 C 0.33205 0.32134 0.36329 0.0
C279 C 0.33032 0.31548 0.27988 0.0
N280 N 0.26656 0.26122 0.40108 0.0
N281 N 0.30245 0.29373 0.30278 0.0
H282 H 0.31971 0.98334 0.68259 0.0
H283 H 0.32604 0.95126 0.92071 0.0
H284 H 0.24489 0.89033 0.74315 0.0
H285 H 0.37928 0.055 0.86193 0.0
H286 H 0.30072 0.92556 0.85545 0.0
H287 H 0.34597 1.00786 0.74785 0.0
C288 C 0.30868 0.9684 0.70993 0.0
C289 C 0.28013 0.93512 0.70803 0.0
C290 C 0.31793 0.95394 0.8569 0.0
C291 C 0.31014 0.96228 0.78243 0.0
C292 C 0.33258 0.96851 0.89401 0.0
C293 C 0.35456 1.00535 0.89666 0.0
C294 C 0.32567 0.97632 0.82224 0.0
C295 C 0.36201 1.02662 0.86126 0.0
C296 C 0.32368 0.98218 0.74704 0.0
C297 C 0.26695 0.91617 0.74386 0.0
N298 N 0.34763 1.01178 0.82552 0.0
N299 N 0.28217 0.92996 0.77978 0.0
H300 H 0.61995 0.40398 0.77483 0.0
H301 H 0.53825 0.57273 0.6983 0.0
H302 H 0.61737 0.49937 0.84621 0.0
H303 H 0.54899 0.48502 0.61822 0.0
H304 H 0.56543 0.54426 0.75241 0.0
H305 H 0.59238 0.43055 0.71779 0.0
C306 C 0.61343 0.43042 0.77855 0.0
C307 C 0.62112 0.44949 0.81546 0.0
C308 C 0.56194 0.53104 0.72311 0.0
C309 C 0.58956 0.48029 0.75013 0.0
C310 C 0.54622 0.54737 0.69185 0.0
C311 C 0.54095 0.53148 0.65307 0.0
C312 C 0.5727 0.49807 0.71637 0.0
C313 C 0.55232 0.4985 0.64737 0.0
C314 C 0.59786 0.4457 0.7459 0.0
C315 C 0.61233 0.48383 0.81835 0.0
N316 N 0.56748 0.48292 0.67855 0.0
N317 N 0.59711 0.49794 0.78642 0.0
H318 H 0.91389 0.70084 0.37224 0.0
H319 H 0.9492 0.67476 0.13316 0.0
H320 H 0.8744 0.76442 0.28245 0.0
H321 H 0.96488 0.59989 0.22621 0.0
H322 H 0.92955 0.71336 0.18566 0.0
H323 H 0.94217 0.67088 0.31874 0.0
C324 C 0.91269 0.70979 0.34133 0.0
C325 C 0.89283 0.73642 0.33239 0.0
C326 C 0.93742 0.68854 0.19458 0.0
C327 C 0.92379 0.70033 0.26955 0.0
C328 C 0.94869 0.66639 0.16447 0.0
C329 C 0.95867 0.63355 0.17481 0.0
C330 C 0.93655 0.67833 0.23574 0.0
C331 C 0.95734 0.6246 0.21627 0.0
C332 C 0.92819 0.69203 0.31048 0.0
C333 C 0.89058 0.74519 0.29115 0.0
N334 N 0.94674 0.6466 0.24472 0.0
N335 N 0.90553 0.72722 0.26152 0.0
H336 H 0.45375 0.35273 0.27408 0.0
H337 H 0.41135 0.15667 0.1652 0.0
H338 H 0.3681 0.31797 0.18294 0.0
H339 H 0.52643 0.21404 0.19807 0.0
H340 H 0.39006 0.21023 0.18701 0.0
H341 H 0.47666 0.2973 0.25982 0.0
C342 C 0.44013 0.33352 0.25085 0.0
C343 C 0.40969 0.3401 0.22896 0.0
C344 C 0.41991 0.21092 0.18983 0.0
C345 C 0.43441 0.27656 0.21366 0.0
C346 C 0.43213 0.18021 0.17772 0.0
C347 C 0.47089 0.18085 0.17949 0.0
C348 C 0.44641 0.24245 0.20447 0.0
C349 C 0.49632 0.21236 0.19601 0.0
C350 C 0.45304 0.30205 0.24283 0.0
C351 C 0.3923 0.31428 0.19966 0.0
N352 N 0.48366 0.24202 0.2078 0.0
N353 N 0.40469 0.2835 0.19308 0.0
H354 H 0.28538 1.00281 0.60408 0.0
H355 H 0.18003 0.12338 0.56257 0.0
H356 H 0.19944 0.95274 0.69137 0.0
H357 H 0.09188 1.03981 0.62176 0.0
H358 H 0.22806 0.10048 0.59863 0.0
H359 H 0.25789 0.05535 0.59852 0.0
C360 C 0.26124 1.00373 0.62295 0.0
C361 C 0.24352 0.97334 0.64705 0.0
C362 C 0.19822 0.08719 0.60385 0.0
C363 C 0.21194 1.03311 0.64157 0.0
C364 C 0.1709 0.10046 0.58347 0.0
C365 C 0.13222 0.08235 0.58814 0.0
C366 C 0.18631 0.0556 0.62863 0.0
C367 C 0.12153 0.05358 0.61628 0.0
C368 C 0.24565 1.03388 0.62018 0.0
C369 C 0.21312 0.97563 0.67185 0.0
N370 N 0.14843 1.04075 0.63502 0.0
N371 N 0.19755 1.00464 0.6677 0.0
H372 H 0.68676 0.49231 0.95073 0.0
H373 H 0.88941 0.47797 1.03482 0.0
H374 H 0.73116 0.39923 0.9232 0.0
H375 H 0.8599 0.58142 1.01882 0.0
H376 H 0.82786 0.44517 1.00547 0.0
H377 H 0.745 0.52082 0.98829 0.0
C378 C 0.70849 0.47745 0.95345 0.0
C379 C 0.70396 0.44329 0.93373 0.0
C380 C 0.83476 0.47501 1.00862 0.0
C381 C 0.77141 0.47606 0.97674 0.0
C382 C 0.86991 0.49385 1.02561 0.0
C383 C 0.88019 0.53274 1.02956 0.0
C384 C 0.80899 0.49492 0.99601 0.0
C385 C 0.85354 0.55155 1.01652 0.0
C386 C 0.74195 0.49392 0.97459 0.0
C387 C 0.7332 0.42535 0.93823 0.0
N388 N 0.81936 0.53255 1.00064 0.0
N389 N 0.7657 0.44198 0.95902 0.0
H390 H 0.78342 0.66166 0.42897 0.0
H391 H 0.59478 0.70499 0.51921 0.0
H392 H 0.75149 0.76276 0.40648 0.0
H393 H 0.60349 0.59264 0.51003 0.0
H394 H 0.65391 0.7261 0.4807 0.0
H395 H 0.72036 0.63523 0.46056 0.0
C396 C 0.76306 0.67818 0.43032 0.0
C397 C 0.77306 0.7147 0.41519 0.0
C398 C 0.64299 0.69675 0.4867 0.0
C399 C 0.70081 0.68478 0.45207 0.0
C400 C 0.60903 0.6846 0.5088 0.0
C401 C 0.59371 0.64689 0.51778 0.0
C402 C 0.663 0.6713 0.47388 0.0
C403 C 0.61383 0.62192 0.50343 0.0
C404 C 0.72706 0.66311 0.44849 0.0
C405 C 0.74547 0.73482 0.41821 0.0
N406 N 0.64761 0.63458 0.48265 0.0
N407 N 0.71109 0.71983 0.43646 0.0
H408 H 0.3077 0.37532 0.18731 0.0
H409 H 0.19796 0.53486 0.17167 0.0
H410 H 0.35655 0.48626 0.22958 0.0
H411 H 0.14616 0.4187 0.15089 0.0
H412 H 0.25864 0.52024 0.1858 0.0
H413 H 0.2514 0.39366 0.16477 0.0
C414 C 0.30687 0.40391 0.19064 0.0
C415 C 0.33684 0.42954 0.20961 0.0
C416 C 0.23396 0.49802 0.17813 0.0
C417 C 0.27199 0.45062 0.18532 0.0
C418 C 0.19935 0.50632 0.16996 0.0
C419 C 0.1668 0.47792 0.16026 0.0
C420 C 0.23616 0.4611 0.17613 0.0
C421 C 0.17026 0.44144 0.15881 0.0
C422 C 0.27457 0.41429 0.17838 0.0
C423 C 0.33411 0.46598 0.2145 0.0
N424 N 0.20422 0.43415 0.16656 0.0
N425 N 0.30206 0.47547 0.20266 0.0
H426 H 0.667 0.33455 0.89572 0.0
H427 H 0.50915 0.23505 0.05864 0.0
H428 H 0.60564 0.39353 0.97013 0.0
H429 H 0.5886 0.17981 1.00749 0.0
H430 H 0.54403 0.2927 1.02581 0.0
H431 H 0.64013 0.27796 0.93573 0.0
C432 C 0.64882 0.33581 0.92138 0.0
C433 C 0.63944 0.3691 0.93034 0.0
C434 C 0.55409 0.26812 1.02179 0.0
C435 C 0.60686 0.30386 0.9753 0.0
C436 C 0.53402 0.23498 1.0405 0.0
C437 C 0.5457 0.2022 1.03588 0.0
C438 C 0.58616 0.26891 0.99748 0.0
C439 C 0.5784 0.20423 1.01202 0.0
C440 C 0.6331 0.3034 0.94396 0.0
C441 C 0.61446 0.36879 0.96292 0.0
N442 N 0.59718 0.23678 0.99351 0.0
N443 N 0.59885 0.33681 0.98383 0.0
H444 H 0.87749 0.83907 0.35043 0.0
H445 H 0.98192 0.94377 0.54545 0.0
H446 H 0.92468 0.78356 0.44206 0.0
H447 H 0.97496 1.00376 0.43604 0.0
H448 H 0.95812 0.88534 0.50882 0.0
H449 H 0.91162 0.89925 0.37955 0.0
C450 C 0.89659 0.83953 0.37546 0.0
C451 C 0.8991 0.8058 0.39271 0.0
C452 C 0.96184 0.91121 0.49266 0.0
C453 C 0.93649 0.87525 0.42855 0.0
C454 C 0.97528 0.94487 0.51375 0.0
C455 C 0.98061 0.9794 0.49422 0.0
C456 C 0.95266 0.91131 0.45143 0.0
C457 C 0.97148 0.97822 0.45275 0.0
C458 C 0.91551 0.87401 0.39271 0.0
C459 C 0.92285 0.80855 0.4267 0.0
N460 N 0.95774 0.94507 0.43306 0.0
N461 N 0.93982 0.84224 0.44376 0.0
H462 H 0.32237 0.92285 0.5632 0.0
H463 H 0.44411 0.82087 0.58207 0.0
H464 H 0.24499 0.81747 0.59165 0.0
H465 H 0.3584 0.72674 0.53745 0.0
H466 H 0.40496 0.86115 0.56137 0.0
H467 H 0.36437 0.89094 0.52858 0.0
C468 C 0.31365 0.89295 0.56062 0.0
C469 C 0.28096 0.87237 0.58076 0.0
C470 C 0.39531 0.83194 0.55426 0.0
C471 C 0.32891 0.83601 0.54314 0.0
C472 C 0.41768 0.8089 0.56642 0.0
C473 C 0.40368 0.77047 0.56271 0.0
C474 C 0.35862 0.81614 0.53897 0.0
C475 C 0.36936 0.75627 0.54216 0.0
C476 C 0.33768 0.87481 0.54134 0.0
C477 C 0.27047 0.83391 0.57689 0.0
N478 N 0.34731 0.77902 0.53221 0.0
N479 N 0.2949 0.81676 0.55919 0.0
H480 H 0.67995 0.83658 0.78863 0.0
H481 H 0.90165 0.94271 0.80242 0.0
H482 H 0.73762 0.88072 0.8978 0.0
H483 H 0.8438 0.91337 0.68905 0.0
H484 H 0.84303 0.91244 0.83795 0.0
H485 H 0.74075 0.85775 0.75131 0.0
C486 C 0.70566 0.85036 0.80458 0.0
C487 C 0.7044 0.85677 0.84608 0.0
C488 C 0.84311 0.91241 0.80528 0.0
C489 C 0.77324 0.88099 0.8044 0.0
C490 C 0.87673 0.92946 0.78495 0.0
C491 C 0.87766 0.93069 0.74268 0.0
C492 C 0.80998 0.89647 0.78329 0.0
C493 C 0.8442 0.91353 0.72169 0.0
C494 C 0.74015 0.86245 0.78351 0.0
C495 C 0.73795 0.87491 0.86585 0.0
N496 N 0.81162 0.89724 0.74223 0.0
N497 N 0.77102 0.88644 0.84484 0.0
H498 H 0.8236 0.28454 0.43796 0.0
H499 H 0.65281 0.13749 0.33731 0.0
H500 H 0.73765 0.20789 0.50713 0.0
H501 H 0.75005 0.20254 0.27109 0.0
H502 H 0.68734 0.15587 0.40027 0.0
H503 H 0.80233 0.24805 0.37726 0.0
C504 C 0.80119 0.25903 0.44036 0.0
C505 C 0.78275 0.2485 0.4772 0.0
C506 C 0.70131 0.16569 0.37192 0.0
C507 C 0.75663 0.20774 0.40807 0.0
C508 C 0.68164 0.15514 0.33596 0.0
C509 C 0.69831 0.16913 0.29896 0.0
C510 C 0.73776 0.19055 0.37076 0.0
C511 C 0.73569 0.19196 0.29902 0.0
C512 C 0.78866 0.23842 0.4058 0.0
C513 C 0.75275 0.21624 0.47902 0.0
N514 N 0.75394 0.20232 0.33436 0.0
N515 N 0.74012 0.1972 0.44471 0.0
H516 H 0.37359 0.78944 0.359 0.0
H517 H 0.46338 0.61926 0.41096 0.0
H518 H 0.4127 0.72519 0.26902 0.0
H519 H 0.439 0.69192 0.50246 0.0
H520 H 0.44592 0.6585 0.35911 0.0
H521 H 0.39996 0.757 0.4119 0.0
C522 C 0.38927 0.76971 0.35027 0.0
C523 C 0.392 0.76104 0.30924 0.0
C524 C 0.44441 0.66598 0.39051 0.0
C525 C 0.42054 0.72184 0.37 0.0
C526 C 0.45426 0.64333 0.42035 0.0
C527 C 0.45269 0.6518 0.46164 0.0
C528 C 0.4325 0.69764 0.40148 0.0
C529 C 0.44073 0.68386 0.47128 0.0
C530 C 0.40371 0.75057 0.38055 0.0
C531 C 0.41098 0.73367 0.30003 0.0
N532 N 0.43104 0.70529 0.4417 0.0
N533 N 0.42403 0.71496 0.32987 0.0
H534 H 0.06739 0.44662 0.79567 0.0
H535 H 0.10777 0.59575 0.97453 0.0
H536 H 0.17875 0.48717 0.84775 0.0
H537 H 0.99835 0.51676 0.96395 0.0
H538 H 0.1333 0.56186 0.92247 0.0
H539 H 0.04057 0.47644 0.85078 0.0
C540 C 0.08629 0.46147 0.8187 0.0
C541 C 0.1257 0.46408 0.81651 0.0
C542 C 0.10373 0.55174 0.93157 0.0
C543 C 0.09493 0.49981 0.87965 0.0
C544 C 0.08905 0.57115 0.96144 0.0
C545 C 0.05076 0.55917 0.97424 0.0
C546 C 0.07993 0.5203 0.91298 0.0
C547 C 0.02808 0.52703 0.95559 0.0
C548 C 0.07088 0.47876 0.85018 0.0
C549 C 0.14847 0.48472 0.84727 0.0
N550 N 0.04279 0.50911 0.9258 0.0
N551 N 0.13297 0.50188 0.87694 0.0
H552 H 0.66286 0.91386 0.95477 0.0
H553 H 0.49358 1.00891 0.99473 0.0
H554 H 0.55407 0.87623 0.89687 0.0
H555 H 0.61078 0.05894 1.02644 0.0
H556 H 0.51354 0.95924 0.96015 0.0
H557 H 0.6424 0.9654 0.98466 0.0
C558 C 0.63439 0.91644 0.94896 0.0
C559 C 0.60978 0.8909 0.92405 0.0
C560 C 0.5349 0.9813 0.97432 0.0
C561 C 0.58625 0.94981 0.95723 0.0
C562 C 0.52358 1.00972 0.994 0.0
C563 C 0.55059 1.03805 1.01368 0.0
C564 C 0.5734 0.981 0.97475 0.0
C565 C 0.58901 1.03771 1.01168 0.0
C566 C 0.62282 0.94592 0.96556 0.0
C567 C 0.57344 0.89536 0.91644 0.0
N568 N 0.5992 1.00942 0.99296 0.0
N569 N 0.5626 0.92432 0.93313 0.0
H570 H 0.86884 0.26876 0.48439 0.0
H571 H 0.93527 0.13384 0.63647 0.0
H572 H 0.82 0.2393 0.60228 0.0
H573 H 0.95499 0.12888 0.50828 0.0
H574 H 0.90068 0.18002 0.62502 0.0
H575 H 0.90764 0.22436 0.49288 0.0
C576 C 0.86636 0.25287 0.51197 0.0
C577 C 0.8413 0.25735 0.5427 0.0
C578 C 0.91223 0.16873 0.59924 0.0
C579 C 0.8856 0.2076 0.55293 0.0
C580 C 0.93199 0.14227 0.60572 0.0
C581 C 0.94754 0.12719 0.57316 0.0
C582 C 0.90788 0.18042 0.55986 0.0
C583 C 0.94293 0.13961 0.53408 0.0
C584 C 0.88847 0.22776 0.51684 0.0
C585 C 0.83949 0.23692 0.57825 0.0
N586 N 0.92337 0.16569 0.52841 0.0
N587 N 0.86138 0.21295 0.58243 0.0
H588 H 0.25276 0.7872 0.23084 0.0
H589 H 0.12929 0.60764 0.11528 0.0
H590 H 0.29506 0.69306 0.20158 0.0
H591 H 0.096 0.71006 0.12045 0.0
H592 H 0.18857 0.63766 0.14935 0.0
H593 H 0.194 0.75891 0.19369 0.0
C594 C 0.24964 0.76056 0.21653 0.0
C595 C 0.27889 0.74246 0.21934 0.0
C596 C 0.16848 0.65373 0.14294 0.0
C597 C 0.21141 0.70957 0.17704 0.0
C598 C 0.13441 0.63654 0.12342 0.0
C599 C 0.10727 0.65621 0.11487 0.0
C600 C 0.17573 0.691 0.15468 0.0
C601 C 0.11599 0.69375 0.12618 0.0
C602 C 0.2161 0.74439 0.19535 0.0
C603 C 0.27313 0.70776 0.20061 0.0
N604 N 0.14925 0.7098 0.14573 0.0
N605 N 0.24016 0.69247 0.18042 0.0
H606 H 0.25575 0.45566 0.76021 0.0
H607 H 0.35253 0.499 0.54096 0.0
H608 H 0.18896 0.43943 0.65197 0.0
H609 H 0.40847 0.54789 0.64935 0.0
H610 H 0.29426 0.47252 0.5801 0.0
H611 H 0.31332 0.48237 0.71992 0.0
C612 C 0.25335 0.45692 0.72774 0.0
C613 C 0.21727 0.44482 0.7096 0.0
C614 C 0.31906 0.48925 0.59542 0.0
C615 C 0.28372 0.47625 0.66272 0.0
C616 C 0.35248 0.50462 0.57301 0.0
C617 C 0.38568 0.52624 0.59159 0.0
C618 C 0.31859 0.49439 0.63739 0.0
C619 C 0.38363 0.53202 0.63342 0.0
C620 C 0.28626 0.47266 0.70474 0.0
C621 C 0.21605 0.44768 0.66731 0.0
N622 N 0.351 0.5159 0.65483 0.0
N623 N 0.2486 0.46304 0.64544 0.0
H624 H 0.68435 0.77276 0.8607 0.0
H625 H 0.84127 0.75845 1.02457 0.0
H626 H 0.70242 0.83458 0.97158 0.0
H627 H 0.83279 0.70632 0.90764 0.0
H628 H 0.78609 0.78144 1.00847 0.0
H629 H 0.73438 0.74294 0.87999 0.0
C630 C 0.69837 0.77933 0.88952 0.0
C631 C 0.68873 0.80535 0.91506 0.0
C632 C 0.79618 0.76486 0.98636 0.0
C633 C 0.74624 0.77216 0.93713 0.0
C634 C 0.82759 0.75154 0.99564 0.0
C635 C 0.84176 0.73046 0.9674 0.0
C636 C 0.7786 0.75696 0.9486 0.0
C637 C 0.82314 0.72286 0.93013 0.0
C638 C 0.72699 0.76258 0.90043 0.0
C639 C 0.70808 0.81369 0.95173 0.0
N640 N 0.79257 0.7361 0.92181 0.0
N641 N 0.73598 0.79724 0.96161 0.0
H642 H 0.43811 0.81598 0.22373 0.0
H643 H 0.43791 1.02953 0.19363 0.0
H644 H 0.36185 0.86599 0.28843 0.0
H645 H 0.52799 0.98402 0.15013 0.0
H646 H 0.40965 0.97045 0.22901 0.0
H647 H 0.4734 0.87769 0.19935 0.0
C648 C 0.42998 0.84017 0.2345 0.0
C649 C 0.39753 0.83571 0.25915 0.0
C650 C 0.43571 0.97349 0.21184 0.0
C651 C 0.43632 0.90678 0.22912 0.0
C652 C 0.45174 1.00725 0.19143 0.0
C653 C 0.48551 1.01207 0.16874 0.0
C654 C 0.45326 0.944 0.20933 0.0
C655 C 0.50204 0.98191 0.16724 0.0
C656 C 0.44958 0.87546 0.21981 0.0
C657 C 0.38729 0.86819 0.27045 0.0
N658 N 0.48581 0.94946 0.18688 0.0
N659 N 0.406 0.90199 0.2549 0.0
H660 H 0.10282 0.38653 0.67737 0.0
H661 H 0.11309 0.1731 0.66806 0.0
H662 H 0.18665 0.34851 0.74325 0.0
H663 H 0.04522 0.22001 0.58804 0.0
H664 H 0.13938 0.23524 0.69755 0.0
H665 H 0.08133 0.32535 0.64535 0.0
C666 C 0.1175 0.36555 0.68416 0.0
C667 C 0.14746 0.37331 0.71213 0.0
C668 C 0.1187 0.23192 0.67356 0.0
C669 C 0.12172 0.30162 0.67663 0.0
C670 C 0.10343 0.19623 0.65679 0.0
C671 C 0.07662 0.19073 0.62528 0.0
C672 C 0.1069 0.26272 0.65928 0.0
C673 C 0.06579 0.22237 0.61202 0.0
C674 C 0.10492 0.33031 0.66621 0.0
C675 C 0.16426 0.34427 0.72102 0.0
N676 N 0.08065 0.25645 0.62901 0.0
N677 N 0.15113 0.3099 0.70363 0.0
H678 H 0.71561 0.29522 0.59927 0.0
H679 H 0.58901 0.37601 0.51936 0.0
H680 H 0.79465 0.3902 0.54703 0.0
H681 H 0.6629 0.48242 0.55236 0.0
H682 H 0.63416 0.346 0.54878 0.0
H683 H 0.6683 0.33115 0.60581 0.0
C684 C 0.72348 0.3243 0.59114 0.0
C685 C 0.75852 0.34001 0.57232 0.0
C686 C 0.63998 0.37587 0.55066 0.0
C687 C 0.70473 0.38031 0.57762 0.0
C688 C 0.6143 0.3931 0.53356 0.0
C689 C 0.62211 0.43187 0.53324 0.0
C690 C 0.67407 0.39749 0.5671 0.0
C691 C 0.65604 0.45249 0.55115 0.0
C692 C 0.69644 0.3445 0.59413 0.0
C693 C 0.76768 0.37747 0.56162 0.0
N694 N 0.6812 0.43504 0.56668 0.0
N695 N 0.74049 0.39632 0.56349 0.0
loop_
_geom_bond_atom_site_label_1
_geom_bond_atom_site_label_2
_geom_bond_distance
_geom_bond_site_symmetry_2
_ccdc_geom_bond_type
C0 N1 1.317 . S
C0 N2 1.348 . S
C0 C3 1.485 . S
N1 C0 1.317 . S
N1 N5 1.370 . S
N2 C0 1.348 . S
N2 C4 1.346 . S
C3 C0 1.485 . S
C3 H7 0.960 . S
C3 H8 0.961 . S
C3 H9 0.960 . S
C4 N2 1.346 . S
C4 N5 1.307 . S
C4 C6 1.486 . S
N5 N1 1.370 . S
N5 C4 1.307 . S
C6 C4 1.486 . S
C6 H10 0.960 . S
C6 H11 0.960 . S
C6 H12 0.959 . S
H7 C3 0.960 . S
H8 C3 0.961 . S
H9 C3 0.960 . S
H10 C6 0.960 . S
H11 C6 0.960 . S
H12 C6 0.959 . S
C13 N14 1.317 . S
C13 N15 1.348 . S
C13 C16 1.485 . S
N14 C13 1.317 . S
N14 N18 1.370 . S
N15 C13 1.348 . S
N15 C17 1.346 . S
C16 C13 1.485 . S
C16 H20 0.960 . S
C16 H21 0.961 . S
C16 H22 0.960 . S
C17 N15 1.346 . S
C17 N18 1.307 . S
C17 C19 1.486 . S
N18 N14 1.370 . S
N18 C17 1.307 . S
C19 C17 1.486 . S
C19 H23 0.960 . S
C19 H24 0.960 . S
C19 H25 0.959 . S
H20 C16 0.960 . S
H21 C16 0.961 . S
H22 C16 0.960 . S
H23 C19 0.960 . S
H24 C19 0.960 . S
H25 C19 0.959 . S
C26 N27 1.317 . S
C26 N28 1.348 . S
C26 C29 1.485 . S
N27 C26 1.317 . S
N27 N31 1.370 . S
N28 C26 1.348 . S
N28 C30 1.346 . S
C29 C26 1.485 . S
C29 H33 0.960 . S
C29 H34 0.961 . S
C29 H35 0.960 . S
C30 N28 1.346 . S
C30 N31 1.307 . S
C30 C32 1.486 . S
N31 N27 1.370 . S
N31 C30 1.307 . S
C32 C30 1.486 . S
C32 H36 0.960 . S
C32 H37 0.960 . S
C32 H38 0.959 . S
H33 C29 0.960 . S
H34 C29 0.961 . S
H35 C29 0.960 . S
H36 C32 0.960 . S
H37 C32 0.960 . S
H38 C32 0.959 . S
C39 N40 1.317 . S
C39 N41 1.348 . S
C39 C42 1.485 . S
N40 C39 1.317 . S
N40 N44 1.370 . S
N41 C39 1.348 . S
N41 C43 1.346 . S
C42 C39 1.485 . S
C42 H46 0.960 . S
C42 H47 0.961 . S
C42 H48 0.960 . S
C43 N41 1.346 . S
C43 N44 1.307 . S
C43 C45 1.486 . S
N44 N40 1.370 . S
N44 C43 1.307 . S
C45 C43 1.486 . S
C45 H49 0.960 . S
C45 H50 0.960 . S
C45 H51 0.959 . S
H46 C42 0.960 . S
H47 C42 0.961 . S
H48 C42 0.960 . S
H49 C45 0.960 . S
H50 C45 0.960 . S
H51 C45 0.959 . S
C52 N53 1.317 . S
C52 N54 1.348 . S
C52 C55 1.485 . S
N53 C52 1.317 . S
N53 N57 1.370 . S
N54 C52 1.348 . S
N54 C56 1.346 . S
C55 C52 1.485 . S
C55 H59 0.960 . S
C55 H60 0.961 . S
C55 H61 0.960 . S
C56 N54 1.346 . S
C56 N57 1.307 . S
C56 C58 1.486 . S
N57 N53 1.370 . S
N57 C56 1.307 . S
C58 C56 1.486 . S
C58 H62 0.960 . S
C58 H63 0.960 . S
C58 H64 0.959 . S
H59 C55 0.960 . S
H60 C55 0.961 . S
H61 C55 0.960 . S
H62 C58 0.960 . S
H63 C58 0.960 . S
H64 C58 0.959 . S
C65 N66 1.317 . S
C65 N67 1.348 . S
C65 C68 1.485 . S
N66 C65 1.317 . S
N66 N70 1.370 . S
N67 C65 1.348 . S
N67 C69 1.346 . S
C68 C65 1.485 . S
C68 H72 0.960 . S
C68 H73 0.961 . S
C68 H74 0.960 . S
C69 N67 1.346 . S
C69 N70 1.307 . S
C69 C71 1.486 . S
N70 N66 1.370 . S
N70 C69 1.307 . S
C71 C69 1.486 . S
C71 H75 0.960 . S
C71 H76 0.960 . S
C71 H77 0.959 . S
H72 C68 0.960 . S
H73 C68 0.961 . S
H74 C68 0.960 . S
H75 C71 0.960 . S
H76 C71 0.960 . S
H77 C71 0.959 . S
C78 N79 1.317 . S
C78 N80 1.348 . S
C78 C81 1.485 . S
N79 C78 1.317 . S
N79 N83 1.370 . S
N80 C78 1.348 . S
N80 C82 1.346 . S
C81 C78 1.485 . S
C81 H85 0.960 . S
C81 H86 0.961 . S
C81 H87 0.960 . S
C82 N80 1.346 . S
C82 N83 1.307 . S
C82 C84 1.486 . S
N83 N79 1.370 . S
N83 C82 1.307 . S
C84 C82 1.486 . S
C84 H88 0.960 . S
C84 H89 0.960 . S
C84 H90 0.959 . S
H85 C81 0.960 . S
H86 C81 0.961 . S
H87 C81 0.960 . S
H88 C84 0.960 . S
H89 C84 0.960 . S
H90 C84 0.959 . S
C91 N92 1.317 . S
C91 N93 1.348 . S
C91 C94 1.485 . S
N92 C91 1.317 . S
N92 N96 1.370 . S
N93 C91 1.348 . S
N93 C95 1.346 . S
C94 C91 1.485 . S
C94 H98 0.960 . S
C94 H99 0.961 . S
C94 H100 0.960 . S
C95 N93 1.346 . S
C95 N96 1.307 . S
C95 C97 1.486 . S
N96 N92 1.370 . S
N96 C95 1.307 . S
C97 C95 1.486 . S
C97 H101 0.960 . S
C97 H102 0.960 . S
C97 H103 0.959 . S
H98 C94 0.960 . S
H99 C94 0.961 . S
H100 C94 0.960 . S
H101 C97 0.960 . S
H102 C97 0.960 . S
H103 C97 0.959 . S
Sm104 C106 2.846 . S
Sm104 O124 2.543 . S
Sm104 O125 2.450 . S
Sm104 O126 2.681 . S
Sm104 O127 2.464 . S
Sm104 O128 2.396 . S
Sm104 O132 2.386 . S
Sm104 O135 2.408 1_545 S
Sm105 C115 2.846 1_445 S
Sm105 O126 2.386 . S
Sm105 O129 2.408 . S
Sm105 O130 2.543 1_445 S
Sm105 O131 2.450 1_445 S
Sm105 O132 2.681 . S
Sm105 O133 2.464 1_455 S
Sm105 O134 2.396 1_445 S
C106 Sm104 2.846 . S
C106 C107 1.506 . S
C106 O124 1.261 . S
C106 O125 1.242 . S
C107 C106 1.506 . S
C107 C108 1.358 . S
C107 C112 1.382 . S
C108 C107 1.358 . S
C108 C109 1.385 . S
C108 H136 0.930 . S
C109 C108 1.385 . S
C109 C110 1.395 . S
C109 H137 0.929 . S
C110 C109 1.395 . S
C110 C111 1.335 . S
C111 C110 1.335 . S
C111 C112 1.398 . S
C111 H138 0.930 . S
C112 C107 1.382 . S
C112 C111 1.398 . S
C112 H139 0.929 . S
C113 O126 1.263 1_565 S
C113 O127 1.247 1_565 S
C114 O128 1.252 . S
C114 O129 1.272 . S
C115 Sm105 2.846 1_665 S
C115 C116 1.506 . S
C115 O130 1.261 . S
C115 O131 1.242 . S
C116 C115 1.506 . S
C116 C117 1.358 . S
C116 C121 1.382 . S
C117 C116 1.358 . S
C117 C118 1.385 . S
C117 H140 0.930 . S
C118 C117 1.385 . S
C118 C119 1.395 . S
C118 H141 0.929 . S
C119 C118 1.395 . S
C119 C120 1.335 . S
C120 C119 1.335 . S
C120 C121 1.398 . S
C120 H142 0.930 . S
C121 C116 1.382 . S
C121 C120 1.398 . S
C121 H143 0.929 . S
C122 O132 1.271 1_655 S
C122 O133 1.251 . S
C123 O134 1.252 . S
C123 O135 1.272 1_655 S
O124 Sm104 2.543 . S
O124 C106 1.261 . S
O125 Sm104 2.450 . S
O125 C106 1.242 . S
O126 Sm104 2.681 . S
O126 Sm105 2.386 . S
O126 C113 1.263 1_545 S
O127 Sm104 2.464 . S
O127 C113 1.247 1_545 S
O128 Sm104 2.396 . S
O128 C114 1.252 . S
O129 Sm105 2.408 . S
O129 C114 1.272 . S
O130 Sm105 2.543 1_665 S
O130 C115 1.261 . S
O131 Sm105 2.450 1_665 S
O131 C115 1.242 . S
O132 Sm104 2.386 . S
O132 Sm105 2.681 . S
O132 C122 1.271 1_455 S
O133 Sm105 2.464 1_655 S
O133 C122 1.251 . S
O134 Sm105 2.396 1_665 S
O134 C123 1.252 . S
O135 Sm104 2.408 1_565 S
O135 C123 1.272 1_455 S
H136 C108 0.930 . S
H137 C109 0.929 . S
H138 C111 0.930 . S
H139 C112 0.929 . S
H140 C117 0.930 . S
H141 C118 0.929 . S
H142 C120 0.930 . S
H143 C121 0.929 . S
Sm144 C146 2.846 . S
Sm144 O164 2.543 . S
Sm144 O165 2.450 . S
Sm144 O166 2.681 . S
Sm144 O167 2.464 1_545 S
Sm144 O168 2.396 . S
Sm144 O172 2.386 . S
Sm144 O175 2.408 . S
Sm145 C155 2.846 1_554 S
Sm145 O166 2.386 . S
Sm145 O169 2.408 . S
Sm145 O170 2.543 1_544 S
Sm145 O171 2.450 1_554 S
Sm145 O172 2.681 . S
Sm145 O173 2.464 1_554 S
Sm145 O174 2.396 1_554 S
C146 Sm144 2.846 . S
C146 C147 1.506 . S
C146 O164 1.261 . S
C146 O165 1.242 . S
C147 C146 1.506 . S
C147 C148 1.358 . S
C147 C152 1.382 . S
C148 C147 1.358 . S
C148 C149 1.385 . S
C148 H176 0.930 . S
C149 C148 1.385 . S
C149 C150 1.395 . S
C149 H177 0.929 . S
C150 C149 1.395 . S
C150 C151 1.335 . S
C151 C150 1.335 . S
C151 C152 1.398 . S
C151 H178 0.930 . S
C152 C147 1.382 . S
C152 C151 1.398 . S
C152 H179 0.929 . S
C153 O166 1.271 1_565 S
C153 O167 1.251 . S
C154 O168 1.252 . S
C154 O169 1.272 . S
C155 Sm145 2.846 1_556 S
C155 C156 1.506 1_545 S
C155 O170 1.261 1_545 S
C155 O171 1.242 . S
C156 C155 1.506 1_565 S
C156 C157 1.358 . S
C156 C161 1.382 1_565 S
C157 C156 1.358 . S
C157 C158 1.385 . S
C157 H180 0.930 . S
C158 C157 1.385 . S
C158 C159 1.395 . S
C158 H181 0.929 . S
C159 C158 1.395 . S
C159 C160 1.335 . S
C160 C159 1.335 . S
C160 C161 1.398 1_565 S
C160 H182 0.930 . S
C161 C156 1.382 1_545 S
C161 C160 1.398 1_545 S
C161 H183 0.929 . S
C162 O172 1.271 . S
C162 O173 1.251 1_554 S
C163 O174 1.252 1_554 S
C163 O175 1.272 . S
O164 Sm144 2.543 . S
O164 C146 1.261 . S
O165 Sm144 2.450 . S
O165 C146 1.242 . S
O166 Sm144 2.681 . S
O166 Sm145 2.386 . S
O166 C153 1.271 1_545 S
O167 Sm144 2.464 1_565 S
O167 C153 1.251 . S
O168 Sm144 2.396 . S
O168 C154 1.252 . S
O169 Sm145 2.408 . S
O169 C154 1.272 . S
O170 Sm145 2.543 1_566 S
O170 C155 1.261 1_565 S
O171 Sm145 2.450 1_556 S
O171 C155 1.242 . S
O172 Sm144 2.386 . S
O172 Sm145 2.681 . S
O172 C162 1.271 . S
O173 Sm145 2.464 1_556 S
O173 C162 1.251 1_556 S
O174 Sm145 2.396 1_556 S
O174 C163 1.252 1_556 S
O175 Sm144 2.408 . S
O175 C163 1.272 . S
H176 C148 0.930 . S
H177 C149 0.929 . S
H178 C151 0.930 . S
H179 C152 0.929 . S
H180 C157 0.930 . S
H181 C158 0.929 . S
H182 C160 0.930 . S
H183 C161 0.929 . S
Sm184 C186 2.846 . S
Sm184 O204 2.543 . S
Sm184 O205 2.450 . S
Sm184 O206 2.681 . S
Sm184 O207 2.464 . S
Sm184 O208 2.396 . S
Sm184 O212 2.386 . S
Sm184 O215 2.408 . S
Sm185 C195 2.846 . S
Sm185 O206 2.386 . S
Sm185 O209 2.408 . S
Sm185 O210 2.543 . S
Sm185 O211 2.450 . S
Sm185 O212 2.681 . S
Sm185 O213 2.464 . S
Sm185 O214 2.396 . S
C186 Sm184 2.846 . S
C186 C187 1.506 . S
C186 O204 1.261 . S
C186 O205 1.242 . S
C187 C186 1.506 . S
C187 C188 1.358 . S
C187 C192 1.382 . S
C188 C187 1.358 . S
C188 C189 1.385 . S
C188 H216 0.930 . S
C189 C188 1.385 . S
C189 C190 1.395 . S
C189 H217 0.929 . S
C190 C189 1.395 . S
C190 C191 1.335 . S
C191 C190 1.335 . S
C191 C192 1.398 . S
C191 H218 0.930 . S
C192 C187 1.382 . S
C192 C191 1.398 . S
C192 H219 0.929 . S
C193 O206 1.271 . S
C193 O207 1.251 . S
C194 O208 1.252 . S
C194 O209 1.272 . S
C195 Sm185 2.846 . S
C195 C196 1.506 . S
C195 O210 1.261 . S
C195 O211 1.242 . S
C196 C195 1.506 . S
C196 C197 1.358 . S
C196 C201 1.382 . S
C197 C196 1.358 . S
C197 C198 1.385 . S
C197 H220 0.930 . S
C198 C197 1.385 . S
C198 C199 1.395 . S
C198 H221 0.929 . S
C199 C198 1.395 . S
C199 C200 1.335 . S
C200 C199 1.335 . S
C200 C201 1.398 . S
C200 H222 0.930 . S
C201 C196 1.382 . S
C201 C200 1.398 . S
C201 H223 0.929 . S
C202 O212 1.271 . S
C202 O213 1.251 . S
C203 O214 1.252 . S
C203 O215 1.272 . S
O204 Sm184 2.543 . S
O204 C186 1.261 . S
O205 Sm184 2.450 . S
O205 C186 1.242 . S
O206 Sm184 2.681 . S
O206 Sm185 2.386 . S
O206 C193 1.271 . S
O207 Sm184 2.464 . S
O207 C193 1.251 . S
O208 Sm184 2.396 . S
O208 C194 1.252 . S
O209 Sm185 2.408 . S
O209 C194 1.272 . S
O210 Sm185 2.543 . S
O210 C195 1.261 . S
O211 Sm185 2.450 . S
O211 C195 1.242 . S
O212 Sm184 2.386 . S
O212 Sm185 2.681 . S
O212 C202 1.271 . S
O213 Sm185 2.464 . S
O213 C202 1.251 . S
O214 Sm185 2.396 . S
O214 C203 1.252 . S
O215 Sm184 2.408 . S
O215 C203 1.272 . S
H216 C188 0.930 . S
H217 C189 0.929 . S
H218 C191 0.930 . S
H219 C192 0.929 . S
H220 C197 0.930 . S
H221 C198 0.929 . S
H222 C200 0.930 . S
H223 C201 0.929 . S
Sm224 C226 2.846 . S
Sm224 O244 2.543 . S
Sm224 O245 2.450 . S
Sm224 O246 2.681 1_455 S
Sm224 O247 2.464 1_455 S
Sm224 O248 2.396 . S
Sm224 O252 2.386 1_554 S
Sm224 O255 2.408 1_455 S
Sm225 C235 2.831 1_455 S
Sm225 O246 2.382 1_456 S
Sm225 O249 2.423 1_556 S
Sm225 O250 2.525 1_455 S
Sm225 O251 2.440 1_455 S
Sm225 O252 2.692 . S
Sm225 O253 2.473 . S
Sm225 O254 2.386 1_455 S
C226 Sm224 2.846 . S
C226 C227 1.506 . S
C226 O244 1.261 . S
C226 O245 1.242 . S
C227 C226 1.506 . S
C227 C228 1.358 . S
C227 C232 1.382 . S
C228 C227 1.358 . S
C228 C229 1.385 . S
C228 H256 0.930 . S
C229 C228 1.385 . S
C229 C230 1.395 . S
C229 H257 0.929 . S
C230 C229 1.395 . S
C230 C231 1.335 . S
C231 C230 1.335 . S
C231 C232 1.398 . S
C231 H258 0.930 . S
C232 C227 1.382 . S
C232 C231 1.398 . S
C232 H259 0.929 . S
C233 O246 1.271 . S
C233 O247 1.251 . S
C234 O248 1.252 . S
C234 O249 1.272 . S
C235 Sm225 2.831 1_655 S
C235 C236 1.506 . S
C235 O250 1.261 . S
C235 O251 1.242 . S
C236 C235 1.506 . S
C236 C237 1.358 . S
C236 C241 1.382 . S
C237 C236 1.358 . S
C237 C238 1.385 . S
C237 H260 0.930 . S
C238 C237 1.385 . S
C238 C239 1.395 . S
C238 H261 0.929 . S
C239 C238 1.395 . S
C239 C240 1.335 . S
C240 C239 1.335 . S
C240 C241 1.398 . S
C240 H262 0.930 . S
C241 C236 1.382 . S
C241 C240 1.398 . S
C241 H263 0.929 . S
C242 O252 1.271 . S
C242 O253 1.251 . S
C243 O254 1.252 . S
C243 O255 1.272 1_556 S
O244 Sm224 2.543 . S
O244 C226 1.261 . S
O245 Sm224 2.450 . S
O245 C226 1.242 . S
O246 Sm224 2.681 1_655 S
O246 Sm225 2.382 1_654 S
O246 C233 1.271 . S
O247 Sm224 2.464 1_655 S
O247 C233 1.251 . S
O248 Sm224 2.396 . S
O248 C234 1.252 . S
O249 Sm225 2.423 1_554 S
O249 C234 1.272 . S
O250 Sm225 2.525 1_655 S
O250 C235 1.261 . S
O251 Sm225 2.440 1_655 S
O251 C235 1.242 . S
O252 Sm224 2.386 1_556 S
O252 Sm225 2.692 . S
O252 C242 1.271 . S
O253 Sm225 2.473 . S
O253 C242 1.251 . S
O254 Sm225 2.386 1_655 S
O254 C243 1.252 . S
O255 Sm224 2.408 1_655 S
O255 C243 1.272 1_554 S
H256 C228 0.930 . S
H257 C229 0.929 . S
H258 C231 0.930 . S
H259 C232 0.929 . S
H260 C237 0.930 . S
H261 C238 0.929 . S
H262 C240 0.930 . S
H263 C241 0.929 . S
H264 C270 0.930 . S
H265 C274 0.930 . S
H266 C279 0.929 . S
H267 C277 0.929 . S
H268 C272 0.929 . S
H269 C278 0.929 . S
C270 H264 0.930 . S
C270 C271 1.367 . S
C270 C278 1.378 . S
C271 C270 1.367 . S
C271 C279 1.433 . S
C272 H268 0.929 . S
C272 C274 1.378 . S
C272 C276 1.350 . S
C273 C276 1.463 . S
C273 C278 1.350 . S
C273 N281 1.427 . S
C274 H265 0.930 . S
C274 C272 1.378 . S
C274 C275 1.367 . S
C275 C274 1.367 . S
C275 C277 1.433 . S
C276 C272 1.350 . S
C276 C273 1.463 . S
C276 N280 1.427 . S
C277 H267 0.929 . S
C277 C275 1.433 . S
C277 N280 1.384 . S
C278 H269 0.929 . S
C278 C270 1.378 . S
C278 C273 1.350 . S
C279 H266 0.929 . S
C279 C271 1.433 . S
C279 N281 1.384 . S
N280 C276 1.427 . S
N280 C277 1.384 . S
N281 C273 1.427 . S
N281 C279 1.384 . S
H282 C288 0.930 . S
H283 C292 0.930 . S
H284 C297 0.929 . S
H285 C295 0.929 . S
H286 C290 0.929 . S
H287 C296 0.929 . S
C288 H282 0.930 . S
C288 C289 1.367 . S
C288 C296 1.378 . S
C289 C288 1.367 . S
C289 C297 1.433 . S
C290 H286 0.929 . S
C290 C292 1.378 . S
C290 C294 1.350 . S
C291 C294 1.463 . S
C291 C296 1.350 . S
C291 N299 1.427 . S
C292 H283 0.930 . S
C292 C290 1.378 . S
C292 C293 1.367 . S
C293 C292 1.367 . S
C293 C295 1.433 . S
C294 C290 1.350 . S
C294 C291 1.463 . S
C294 N298 1.427 . S
C295 H285 0.929 . S
C295 C293 1.433 . S
C295 N298 1.384 . S
C296 H287 0.929 . S
C296 C288 1.378 . S
C296 C291 1.350 . S
C297 H284 0.929 . S
C297 C289 1.433 . S
C297 N299 1.384 . S
N298 C294 1.427 . S
N298 C295 1.384 . S
N299 C291 1.427 . S
N299 C297 1.384 . S
H300 C306 0.930 . S
H301 C310 0.930 . S
H302 C315 0.929 . S
H303 C313 0.929 . S
H304 C308 0.929 . S
H305 C314 0.929 . S
C306 H300 0.930 . S
C306 C307 1.367 . S
C306 C314 1.378 . S
C307 C306 1.367 . S
C307 C315 1.433 . S
C308 H304 0.929 . S
C308 C310 1.378 . S
C308 C312 1.350 . S
C309 C312 1.463 . S
C309 C314 1.350 . S
C309 N317 1.427 . S
C310 H301 0.930 . S
C310 C308 1.378 . S
C310 C311 1.367 . S
C311 C310 1.367 . S
C311 C313 1.433 . S
C312 C308 1.350 . S
C312 C309 1.463 . S
C312 N316 1.427 . S
C313 H303 0.929 . S
C313 C311 1.433 . S
C313 N316 1.384 . S
C314 H305 0.929 . S
C314 C306 1.378 . S
C314 C309 1.350 . S
C315 H302 0.929 . S
C315 C307 1.433 . S
C315 N317 1.384 . S
N316 C312 1.427 . S
N316 C313 1.384 . S
N317 C309 1.427 . S
N317 C315 1.384 . S
H318 C324 0.930 . S
H319 C328 0.930 . S
H320 C333 0.929 . S
H321 C331 0.929 . S
H322 C326 0.929 . S
H323 C332 0.929 . S
C324 H318 0.930 . S
C324 C325 1.367 . S
C324 C332 1.378 . S
C325 C324 1.367 . S
C325 C333 1.433 . S
C326 H322 0.929 . S
C326 C328 1.378 . S
C326 C330 1.350 . S
C327 C330 1.463 . S
C327 C332 1.350 . S
C327 N335 1.427 . S
C328 H319 0.930 . S
C328 C326 1.378 . S
C328 C329 1.367 . S
C329 C328 1.367 . S
C329 C331 1.433 . S
C330 C326 1.350 . S
C330 C327 1.463 . S
C330 N334 1.427 . S
C331 H321 0.929 . S
C331 C329 1.433 . S
C331 N334 1.384 . S
C332 H323 0.929 . S
C332 C324 1.378 . S
C332 C327 1.350 . S
C333 H320 0.929 . S
C333 C325 1.433 . S
C333 N335 1.384 . S
N334 C330 1.427 . S
N334 C331 1.384 . S
N335 C327 1.427 . S
N335 C333 1.384 . S
H336 C342 0.930 . S
H337 C346 0.930 . S
H338 C351 0.929 . S
H339 C349 0.929 . S
H340 C344 0.929 . S
H341 C350 0.929 . S
C342 H336 0.930 . S
C342 C343 1.367 . S
C342 C350 1.378 . S
C343 C342 1.367 . S
C343 C351 1.433 . S
C344 H340 0.929 . S
C344 C346 1.378 . S
C344 C348 1.350 . S
C345 C348 1.463 . S
C345 C350 1.350 . S
C345 N353 1.427 . S
C346 H337 0.930 . S
C346 C344 1.378 . S
C346 C347 1.367 . S
C347 C346 1.367 . S
C347 C349 1.433 . S
C348 C344 1.350 . S
C348 C345 1.463 . S
C348 N352 1.427 . S
C349 H339 0.929 . S
C349 C347 1.433 . S
C349 N352 1.384 . S
C350 H341 0.929 . S
C350 C342 1.378 . S
C350 C345 1.350 . S
C351 H338 0.929 . S
C351 C343 1.433 . S
C351 N353 1.384 . S
N352 C348 1.427 . S
N352 C349 1.384 . S
N353 C345 1.427 . S
N353 C351 1.384 . S
H354 C360 0.930 . S
H355 C364 0.930 1_545 S
H356 C369 0.929 . S
H357 C367 0.929 . S
H358 C362 0.929 . S
H359 C368 0.929 . S
C360 H354 0.930 . S
C360 C361 1.367 . S
C360 C368 1.378 . S
C361 C360 1.367 . S
C361 C369 1.433 . S
C362 H358 0.929 . S
C362 C364 1.378 . S
C362 C366 1.350 . S
C363 C366 1.463 . S
C363 C368 1.350 . S
C363 N371 1.427 . S
C364 H355 0.930 1_565 S
C364 C362 1.378 . S
C364 C365 1.367 . S
C365 C364 1.367 . S
C365 C367 1.433 . S
C366 C362 1.350 . S
C366 C363 1.463 . S
C366 N370 1.427 . S
C367 H357 0.929 . S
C367 C365 1.433 . S
C367 N370 1.384 . S
C368 H359 0.929 . S
C368 C360 1.378 . S
C368 C363 1.350 . S
C369 H356 0.929 . S
C369 C361 1.433 . S
C369 N371 1.384 . S
N370 C366 1.427 . S
N370 C367 1.384 . S
N371 C363 1.427 . S
N371 C369 1.384 . S
H372 C378 0.930 . S
H373 C382 0.930 . S
H374 C387 0.929 . S
H375 C385 0.929 . S
H376 C380 0.929 . S
H377 C386 0.929 . S
C378 H372 0.930 . S
C378 C379 1.367 . S
C378 C386 1.378 . S
C379 C378 1.367 . S
C379 C387 1.433 . S
C380 H376 0.929 . S
C380 C382 1.378 . S
C380 C384 1.350 . S
C381 C384 1.463 . S
C381 C386 1.350 . S
C381 N389 1.427 . S
C382 H373 0.930 . S
C382 C380 1.378 . S
C382 C383 1.367 . S
C383 C382 1.367 . S
C383 C385 1.433 . S
C384 C380 1.350 . S
C384 C381 1.463 . S
C384 N388 1.427 . S
C385 H375 0.929 . S
C385 C383 1.433 . S
C385 N388 1.384 . S
C386 H377 0.929 . S
C386 C378 1.378 . S
C386 C381 1.350 . S
C387 H374 0.929 . S
C387 C379 1.433 . S
C387 N389 1.384 . S
N388 C384 1.427 . S
N388 C385 1.384 . S
N389 C381 1.427 . S
N389 C387 1.384 . S
H390 C396 0.930 . S
H391 C400 0.930 . S
H392 C405 0.929 . S
H393 C403 0.929 . S
H394 C398 0.929 . S
H395 C404 0.929 . S
C396 H390 0.930 . S
C396 C397 1.367 . S
C396 C404 1.378 . S
C397 C396 1.367 . S
C397 C405 1.433 . S
C398 H394 0.929 . S
C398 C400 1.378 . S
C398 C402 1.350 . S
C399 C402 1.463 . S
C399 C404 1.350 . S
C399 N407 1.427 . S
C400 H391 0.930 . S
C400 C398 1.378 . S
C400 C401 1.367 . S
C401 C400 1.367 . S
C401 C403 1.433 . S
C402 C398 1.350 . S
C402 C399 1.463 . S
C402 N406 1.427 . S
C403 H393 0.929 . S
C403 C401 1.433 . S
C403 N406 1.384 . S
C404 H395 0.929 . S
C404 C396 1.378 . S
C404 C399 1.350 . S
C405 H392 0.929 . S
C405 C397 1.433 . S
C405 N407 1.384 . S
N406 C402 1.427 . S
N406 C403 1.384 . S
N407 C399 1.427 . S
N407 C405 1.384 . S
H408 C414 0.930 . S
H409 C418 0.930 . S
H410 C423 0.929 . S
H411 C421 0.929 . S
H412 C416 0.929 . S
H413 C422 0.929 . S
C414 H408 0.930 . S
C414 C415 1.367 . S
C414 C422 1.378 . S
C415 C414 1.367 . S
C415 C423 1.433 . S
C416 H412 0.929 . S
C416 C418 1.378 . S
C416 C420 1.350 . S
C417 C420 1.463 . S
C417 C422 1.350 . S
C417 N425 1.427 . S
C418 H409 0.930 . S
C418 C416 1.378 . S
C418 C419 1.367 . S
C419 C418 1.367 . S
C419 C421 1.433 . S
C420 C416 1.350 . S
C420 C417 1.463 . S
C420 N424 1.427 . S
C421 H411 0.929 . S
C421 C419 1.433 . S
C421 N424 1.384 . S
C422 H413 0.929 . S
C422 C414 1.378 . S
C422 C417 1.350 . S
C423 H410 0.929 . S
C423 C415 1.433 . S
C423 N425 1.384 . S
N424 C420 1.427 . S
N424 C421 1.384 . S
N425 C417 1.427 . S
N425 C423 1.384 . S
H426 C432 0.930 . S
H427 C436 0.930 . S
H428 C441 0.929 . S
H429 C439 0.929 . S
H430 C434 0.929 . S
H431 C440 0.929 . S
C432 H426 0.930 . S
C432 C433 1.367 . S
C432 C440 1.378 . S
C433 C432 1.367 . S
C433 C441 1.433 . S
C434 H430 0.929 . S
C434 C436 1.378 . S
C434 C438 1.350 . S
C435 C438 1.463 . S
C435 C440 1.350 . S
C435 N443 1.427 . S
C436 H427 0.930 . S
C436 C434 1.378 . S
C436 C437 1.367 . S
C437 C436 1.367 . S
C437 C439 1.433 . S
C438 C434 1.350 . S
C438 C435 1.463 . S
C438 N442 1.427 . S
C439 H429 0.929 . S
C439 C437 1.433 . S
C439 N442 1.384 . S
C440 H431 0.929 . S
C440 C432 1.378 . S
C440 C435 1.350 . S
C441 H428 0.929 . S
C441 C433 1.433 . S
C441 N443 1.384 . S
N442 C438 1.427 . S
N442 C439 1.384 . S
N443 C435 1.427 . S
N443 C441 1.384 . S
H444 C450 0.930 . S
H445 C454 0.930 . S
H446 C459 0.929 . S
H447 C457 0.929 . S
H448 C452 0.929 . S
H449 C458 0.929 . S
C450 H444 0.930 . S
C450 C451 1.367 . S
C450 C458 1.378 . S
C451 C450 1.367 . S
C451 C459 1.433 . S
C452 H448 0.929 . S
C452 C454 1.378 . S
C452 C456 1.350 . S
C453 C456 1.463 . S
C453 C458 1.350 . S
C453 N461 1.427 . S
C454 H445 0.930 . S
C454 C452 1.378 . S
C454 C455 1.367 . S
C455 C454 1.367 . S
C455 C457 1.433 . S
C456 C452 1.350 . S
C456 C453 1.463 . S
C456 N460 1.427 . S
C457 H447 0.929 . S
C457 C455 1.433 . S
C457 N460 1.384 . S
C458 H449 0.929 . S
C458 C450 1.378 . S
C458 C453 1.350 . S
C459 H446 0.929 . S
C459 C451 1.433 . S
C459 N461 1.384 . S
N460 C456 1.427 . S
N460 C457 1.384 . S
N461 C453 1.427 . S
N461 C459 1.384 . S
H462 C468 0.930 . S
H463 C472 0.930 . S
H464 C477 0.929 . S
H465 C475 0.929 . S
H466 C470 0.929 . S
H467 C476 0.929 . S
C468 H462 0.930 . S
C468 C469 1.367 . S
C468 C476 1.378 . S
C469 C468 1.367 . S
C469 C477 1.433 . S
C470 H466 0.929 . S
C470 C472 1.378 . S
C470 C474 1.350 . S
C471 C474 1.463 . S
C471 C476 1.350 . S
C471 N479 1.427 . S
C472 H463 0.930 . S
C472 C470 1.378 . S
C472 C473 1.367 . S
C473 C472 1.367 . S
C473 C475 1.433 . S
C474 C470 1.350 . S
C474 C471 1.463 . S
C474 N478 1.427 . S
C475 H465 0.929 . S
C475 C473 1.433 . S
C475 N478 1.384 . S
C476 H467 0.929 . S
C476 C468 1.378 . S
C476 C471 1.350 . S
C477 H464 0.929 . S
C477 C469 1.433 . S
C477 N479 1.384 . S
N478 C474 1.427 . S
N478 C475 1.384 . S
N479 C471 1.427 . S
N479 C477 1.384 . S
H480 C486 0.930 . S
H481 C490 0.930 . S
H482 C495 0.929 . S
H483 C493 0.929 . S
H484 C488 0.929 . S
H485 C494 0.929 . S
C486 H480 0.930 . S
C486 C487 1.367 . S
C486 C494 1.378 . S
C487 C486 1.367 . S
C487 C495 1.433 . S
C488 H484 0.929 . S
C488 C490 1.378 . S
C488 C492 1.350 . S
C489 C492 1.463 . S
C489 C494 1.350 . S
C489 N497 1.427 . S
C490 H481 0.930 . S
C490 C488 1.378 . S
C490 C491 1.367 . S
C491 C490 1.367 . S
C491 C493 1.433 . S
C492 C488 1.350 . S
C492 C489 1.463 . S
C492 N496 1.427 . S
C493 H483 0.929 . S
C493 C491 1.433 . S
C493 N496 1.384 . S
C494 H485 0.929 . S
C494 C486 1.378 . S
C494 C489 1.350 . S
C495 H482 0.929 . S
C495 C487 1.433 . S
C495 N497 1.384 . S
N496 C492 1.427 . S
N496 C493 1.384 . S
N497 C489 1.427 . S
N497 C495 1.384 . S
H498 C504 0.930 . S
H499 C508 0.930 . S
H500 C513 0.929 . S
H501 C511 0.929 . S
H502 C506 0.929 . S
H503 C512 0.929 . S
C504 H498 0.930 . S
C504 C505 1.367 . S
C504 C512 1.378 . S
C505 C504 1.367 . S
C505 C513 1.433 . S
C506 H502 0.929 . S
C506 C508 1.378 . S
C506 C510 1.350 . S
C507 C510 1.463 . S
C507 C512 1.350 . S
C507 N515 1.427 . S
C508 H499 0.930 . S
C508 C506 1.378 . S
C508 C509 1.367 . S
C509 C508 1.367 . S
C509 C511 1.433 . S
C510 C506 1.350 . S
C510 C507 1.463 . S
C510 N514 1.427 . S
C511 H501 0.929 . S
C511 C509 1.433 . S
C511 N514 1.384 . S
C512 H503 0.929 . S
C512 C504 1.378 . S
C512 C507 1.350 . S
C513 H500 0.929 . S
C513 C505 1.433 . S
C513 N515 1.384 . S
N514 C510 1.427 . S
N514 C511 1.384 . S
N515 C507 1.427 . S
N515 C513 1.384 . S
H516 C522 0.930 . S
H517 C526 0.930 . S
H518 C531 0.929 . S
H519 C529 0.929 . S
H520 C524 0.929 . S
H521 C530 0.929 . S
C522 H516 0.930 . S
C522 C523 1.367 . S
C522 C530 1.378 . S
C523 C522 1.367 . S
C523 C531 1.433 . S
C524 H520 0.929 . S
C524 C526 1.378 . S
C524 C528 1.350 . S
C525 C528 1.463 . S
C525 C530 1.350 . S
C525 N533 1.427 . S
C526 H517 0.930 . S
C526 C524 1.378 . S
C526 C527 1.367 . S
C527 C526 1.367 . S
C527 C529 1.433 . S
C528 C524 1.350 . S
C528 C525 1.463 . S
C528 N532 1.427 . S
C529 H519 0.929 . S
C529 C527 1.433 . S
C529 N532 1.384 . S
C530 H521 0.929 . S
C530 C522 1.378 . S
C530 C525 1.350 . S
C531 H518 0.929 . S
C531 C523 1.433 . S
C531 N533 1.384 . S
N532 C528 1.427 . S
N532 C529 1.384 . S
N533 C525 1.427 . S
N533 C531 1.384 . S
H534 C540 0.930 . S
H535 C544 0.930 . S
H536 C549 0.929 . S
H537 C547 0.929 . S
H538 C542 0.929 . S
H539 C548 0.929 . S
C540 H534 0.930 . S
C540 C541 1.367 . S
C540 C548 1.378 . S
C541 C540 1.367 . S
C541 C549 1.433 . S
C542 H538 0.929 . S
C542 C544 1.378 . S
C542 C546 1.350 . S
C543 C546 1.463 . S
C543 C548 1.350 . S
C543 N551 1.427 . S
C544 H535 0.930 . S
C544 C542 1.378 . S
C544 C545 1.367 . S
C545 C544 1.367 . S
C545 C547 1.433 . S
C546 C542 1.350 . S
C546 C543 1.463 . S
C546 N550 1.427 . S
C547 H537 0.929 . S
C547 C545 1.433 . S
C547 N550 1.384 . S
C548 H539 0.929 . S
C548 C540 1.378 . S
C548 C543 1.350 . S
C549 H536 0.929 . S
C549 C541 1.433 . S
C549 N551 1.384 . S
N550 C546 1.427 . S
N550 C547 1.384 . S
N551 C543 1.427 . S
N551 C549 1.384 . S
H552 C558 0.930 . S
H553 C562 0.930 . S
H554 C567 0.929 . S
H555 C565 0.929 . S
H556 C560 0.929 . S
H557 C566 0.929 . S
C558 H552 0.930 . S
C558 C559 1.367 . S
C558 C566 1.378 . S
C559 C558 1.367 . S
C559 C567 1.433 . S
C560 H556 0.929 . S
C560 C562 1.378 . S
C560 C564 1.350 . S
C561 C564 1.463 . S
C561 C566 1.350 . S
C561 N569 1.427 . S
C562 H553 0.930 . S
C562 C560 1.378 . S
C562 C563 1.367 . S
C563 C562 1.367 . S
C563 C565 1.433 . S
C564 C560 1.350 . S
C564 C561 1.463 . S
C564 N568 1.427 . S
C565 H555 0.929 . S
C565 C563 1.433 . S
C565 N568 1.384 . S
C566 H557 0.929 . S
C566 C558 1.378 . S
C566 C561 1.350 . S
C567 H554 0.929 . S
C567 C559 1.433 . S
C567 N569 1.384 . S
N568 C564 1.427 . S
N568 C565 1.384 . S
N569 C561 1.427 . S
N569 C567 1.384 . S
H570 C576 0.930 . S
H571 C580 0.930 . S
H572 C585 0.929 . S
H573 C583 0.929 . S
H574 C578 0.929 . S
H575 C584 0.929 . S
C576 H570 0.930 . S
C576 C577 1.367 . S
C576 C584 1.378 . S
C577 C576 1.367 . S
C577 C585 1.433 . S
C578 H574 0.929 . S
C578 C580 1.378 . S
C578 C582 1.350 . S
C579 C582 1.463 . S
C579 C584 1.350 . S
C579 N587 1.427 . S
C580 H571 0.930 . S
C580 C578 1.378 . S
C580 C581 1.367 . S
C581 C580 1.367 . S
C581 C583 1.433 . S
C582 C578 1.350 . S
C582 C579 1.463 . S
C582 N586 1.427 . S
C583 H573 0.929 . S
C583 C581 1.433 . S
C583 N586 1.384 . S
C584 H575 0.929 . S
C584 C576 1.378 . S
C584 C579 1.350 . S
C585 H572 0.929 . S
C585 C577 1.433 . S
C585 N587 1.384 . S
N586 C582 1.427 . S
N586 C583 1.384 . S
N587 C579 1.427 . S
N587 C585 1.384 . S
H588 C594 0.930 . S
H589 C598 0.930 . S
H590 C603 0.929 . S
H591 C601 0.929 . S
H592 C596 0.929 . S
H593 C602 0.929 . S
C594 H588 0.930 . S
C594 C595 1.367 . S
C594 C602 1.378 . S
C595 C594 1.367 . S
C595 C603 1.433 . S
C596 H592 0.929 . S
C596 C598 1.378 . S
C596 C600 1.350 . S
C597 C600 1.463 . S
C597 C602 1.350 . S
C597 N605 1.427 . S
C598 H589 0.930 . S
C598 C596 1.378 . S
C598 C599 1.367 . S
C599 C598 1.367 . S
C599 C601 1.433 . S
C600 C596 1.350 . S
C600 C597 1.463 . S
C600 N604 1.427 . S
C601 H591 0.929 . S
C601 C599 1.433 . S
C601 N604 1.384 . S
C602 H593 0.929 . S
C602 C594 1.378 . S
C602 C597 1.350 . S
C603 H590 0.929 . S
C603 C595 1.433 . S
C603 N605 1.384 . S
N604 C600 1.427 . S
N604 C601 1.384 . S
N605 C597 1.427 . S
N605 C603 1.384 . S
H606 C612 0.930 . S
H607 C616 0.930 . S
H608 C621 0.929 . S
H609 C619 0.929 . S
H610 C614 0.929 . S
H611 C620 0.929 . S
C612 H606 0.930 . S
C612 C613 1.367 . S
C612 C620 1.378 . S
C613 C612 1.367 . S
C613 C621 1.433 . S
C614 H610 0.929 . S
C614 C616 1.378 . S
C614 C618 1.350 . S
C615 C618 1.463 . S
C615 C620 1.350 . S
C615 N623 1.427 . S
C616 H607 0.930 . S
C616 C614 1.378 . S
C616 C617 1.367 . S
C617 C616 1.367 . S
C617 C619 1.433 . S
C618 C614 1.350 . S
C618 C615 1.463 . S
C618 N622 1.427 . S
C619 H609 0.929 . S
C619 C617 1.433 . S
C619 N622 1.384 . S
C620 H611 0.929 . S
C620 C612 1.378 . S
C620 C615 1.350 . S
C621 H608 0.929 . S
C621 C613 1.433 . S
C621 N623 1.384 . S
N622 C618 1.427 . S
N622 C619 1.384 . S
N623 C615 1.427 . S
N623 C621 1.384 . S
H624 C630 0.930 . S
H625 C634 0.930 . S
H626 C639 0.929 . S
H627 C637 0.929 . S
H628 C632 0.929 . S
H629 C638 0.929 . S
C630 H624 0.930 . S
C630 C631 1.367 . S
C630 C638 1.378 . S
C631 C630 1.367 . S
C631 C639 1.433 . S
C632 H628 0.929 . S
C632 C634 1.378 . S
C632 C636 1.350 . S
C633 C636 1.463 . S
C633 C638 1.350 . S
C633 N641 1.427 . S
C634 H625 0.930 . S
C634 C632 1.378 . S
C634 C635 1.367 . S
C635 C634 1.367 . S
C635 C637 1.433 . S
C636 C632 1.350 . S
C636 C633 1.463 . S
C636 N640 1.427 . S
C637 H627 0.929 . S
C637 C635 1.433 . S
C637 N640 1.384 . S
C638 H629 0.929 . S
C638 C630 1.378 . S
C638 C633 1.350 . S
C639 H626 0.929 . S
C639 C631 1.433 . S
C639 N641 1.384 . S
N640 C636 1.427 . S
N640 C637 1.384 . S
N641 C633 1.427 . S
N641 C639 1.384 . S
H642 C648 0.930 . S
H643 C652 0.930 . S
H644 C657 0.929 . S
H645 C655 0.929 . S
H646 C650 0.929 . S
H647 C656 0.929 . S
C648 H642 0.930 . S
C648 C649 1.367 . S
C648 C656 1.378 . S
C649 C648 1.367 . S
C649 C657 1.433 . S
C650 H646 0.929 . S
C650 C652 1.378 . S
C650 C654 1.350 . S
C651 C654 1.463 . S
C651 C656 1.350 . S
C651 N659 1.427 . S
C652 H643 0.930 . S
C652 C650 1.378 . S
C652 C653 1.367 . S
C653 C652 1.367 . S
C653 C655 1.433 . S
C654 C650 1.350 . S
C654 C651 1.463 . S
C654 N658 1.427 . S
C655 H645 0.929 . S
C655 C653 1.433 . S
C655 N658 1.384 . S
C656 H647 0.929 . S
C656 C648 1.378 . S
C656 C651 1.350 . S
C657 H644 0.929 . S
C657 C649 1.433 . S
C657 N659 1.384 . S
N658 C654 1.427 . S
N658 C655 1.384 . S
N659 C651 1.427 . S
N659 C657 1.384 . S
H660 C666 0.930 . S
H661 C670 0.930 . S
H662 C675 0.929 . S
H663 C673 0.929 . S
H664 C668 0.929 . S
H665 C674 0.929 . S
C666 H660 0.930 . S
C666 C667 1.367 . S
C666 C674 1.378 . S
C667 C666 1.367 . S
C667 C675 1.433 . S
C668 H664 0.929 . S
C668 C670 1.378 . S
C668 C672 1.350 . S
C669 C672 1.463 . S
C669 C674 1.350 . S
C669 N677 1.427 . S
C670 H661 0.930 . S
C670 C668 1.378 . S
C670 C671 1.367 . S
C671 C670 1.367 . S
C671 C673 1.433 . S
C672 C668 1.350 . S
C672 C669 1.463 . S
C672 N676 1.427 . S
C673 H663 0.929 . S
C673 C671 1.433 . S
C673 N676 1.384 . S
C674 H665 0.929 . S
C674 C666 1.378 . S
C674 C669 1.350 . S
C675 H662 0.929 . S
C675 C667 1.433 . S
C675 N677 1.384 . S
N676 C672 1.427 . S
N676 C673 1.384 . S
N677 C669 1.427 . S
N677 C675 1.384 . S
H678 C684 0.930 . S
H679 C688 0.930 . S
H680 C693 0.929 . S
H681 C691 0.929 . S
H682 C686 0.929 . S
H683 C692 0.929 . S
C684 H678 0.930 . S
C684 C685 1.367 . S
C684 C692 1.378 . S
C685 C684 1.367 . S
C685 C693 1.433 . S
C686 H682 0.929 . S
C686 C688 1.378 . S
C686 C690 1.350 . S
C687 C690 1.463 . S
C687 C692 1.350 . S
C687 N695 1.427 . S
C688 H679 0.930 . S
C688 C686 1.378 . S
C688 C689 1.367 . S
C689 C688 1.367 . S
C689 C691 1.433 . S
C690 C686 1.350 . S
C690 C687 1.463 . S
C690 N694 1.427 . S
C691 H681 0.929 . S
C691 C689 1.433 . S
C691 N694 1.384 . S
C692 H683 0.929 . S
C692 C684 1.378 . S
C692 C687 1.350 . S
C693 H680 0.929 . S
C693 C685 1.433 . S
C693 N695 1.384 . S
N694 C690 1.427 . S
N694 C691 1.384 . S
N695 C687 1.427 . S
N695 C693 1.384 . S
C271 N1 0.946 . S
C275 C110 0.962 . S
C289 N18 1.087 . S
C293 C159 1.125 . S
C311 C194 2.090 . S
C307 N28 2.133 . S
C325 N40 2.612 . S
C329 C233 2.606 . S
C347 C154 2.410 . S
C343 N5 2.359 . S
C365 C113 0.723 . S
C361 N14 0.683 . S
C383 C243 2.024 . S
C379 N31 2.024 . S
C401 C202 1.405 . S
C397 N41 1.435 . S
C415 N2 1.323 . S
C419 C230 1.359 . S
C437 C162 2.449 1_556 S
C433 N27 2.528 . S
C451 N44 2.411 . S
C455 C123 2.456 . S
C469 N15 0.680 . S
C473 C199 0.676 . S
C491 C119 1.453 . S
C487 N57 1.493 . S
C505 N70 0.898 . S
C509 C150 0.932 . S
C523 N79 2.306 . S
C527 C203 2.330 . S
C541 N93 2.408 . S
C545 C242 2.382 . S
C559 N54 1.903 . S
C563 C163 2.017 1_566 S
C581 C122 1.444 . S
C577 N66 1.540 . S
C599 C234 1.427 . S
C595 N80 1.474 . S
C617 C193 1.719 . S
C613 N96 1.724 . S
C631 N53 1.473 . S
C635 C239 1.492 . S
C653 C153 2.151 . S
C649 N83 2.156 . S
C671 C114 2.641 . S
C667 N92 2.623 . S
C685 N67 0.894 . S
C689 C190 0.898 . S
