# Generated by pormake.
# Topology eea, (3,6)-cn, num edge types: 1
# Building blocks:
#     Node 0, Type 0, BuildingBlock: BETDAH_clean_linker_0, # of connection points: 3
#     Node 1, Type 0, BuildingBlock: BETDAH_clean_linker_0, # of connection points: 3
#     Node 2, Type 0, BuildingBlock: BETDAH_clean_linker_0, # of connection points: 3
#     Node 3, Type 0, BuildingBlock: BETDAH_clean_linker_0, # of connection points: 3
#     Node 4, Type 0, BuildingBlock: BETDAH_clean_linker_0, # of connection points: 3
#     Node 5, Type 0, BuildingBlock: BETDAH_clean_linker_0, # of connection points: 3
#     Node 6, Type 0, BuildingBlock: BETDAH_clean_linker_0, # of connection points: 3
#     Node 7, Type 0, BuildingBlock: BETDAH_clean_linker_0, # of connection points: 3
#     Node 8, Type 0, BuildingBlock: BETDAH_clean_linker_0, # of connection points: 3
#     Node 9, Type 0, BuildingBlock: BETDAH_clean_linker_0, # of connection points: 3
#     Node 10, Type 0, BuildingBlock: BETDAH_clean_linker_0, # of connection points: 3
#     Node 11, Type 0, BuildingBlock: BETDAH_clean_linker_0, # of connection points: 3
#     Node 12, Type 0, BuildingBlock: BETDAH_clean_linker_0, # of connection points: 3
#     Node 13, Type 0, BuildingBlock: BETDAH_clean_linker_0, # of connection points: 3
#     Node 14, Type 0, BuildingBlock: BETDAH_clean_linker_0, # of connection points: 3
#     Node 15, Type 0, BuildingBlock: BETDAH_clean_linker_0, # of connection points: 3
#     Node 16, Type 0, BuildingBlock: BETDAH_clean_linker_0, # of connection points: 3
#     Node 17, Type 0, BuildingBlock: BETDAH_clean_linker_0, # of connection points: 3
#     Node 18, Type 1, BuildingBlock: LEVNOQ01_clean_sbu_1, # of connection points: 6
#     Node 19, Type 1, BuildingBlock: LEVNOQ01_clean_sbu_1, # of connection points: 6
#     Node 20, Type 1, BuildingBlock: LEVNOQ01_clean_sbu_1, # of connection points: 6
#     Node 21, Type 1, BuildingBlock: LEVNOQ01_clean_sbu_1, # of connection points: 6
#     Node 22, Type 1, BuildingBlock: LEVNOQ01_clean_sbu_1, # of connection points: 6
#     Node 23, Type 1, BuildingBlock: LEVNOQ01_clean_sbu_1, # of connection points: 6
#     Node 24, Type 1, BuildingBlock: LEVNOQ01_clean_sbu_1, # of connection points: 6
#     Node 25, Type 1, BuildingBlock: LEVNOQ01_clean_sbu_1, # of connection points: 6
#     Node 26, Type 1, BuildingBlock: LEVNOQ01_clean_sbu_1, # of connection points: 6
#     Edge 27, Type (0, 1), None
#     Edge 28, Type (0, 1), None
#     Edge 29, Type (0, 1), None
#     Edge 30, Type (0, 1), None
#     Edge 31, Type (0, 1), None
#     Edge 32, Type (0, 1), None
#     Edge 33, Type (0, 1), None
#     Edge 34, Type (0, 1), None
#     Edge 35, Type (0, 1), None
#     Edge 36, Type (0, 1), None
#     Edge 37, Type (0, 1), None
#     Edge 38, Type (0, 1), None
#     Edge 39, Type (0, 1), None
#     Edge 40, Type (0, 1), None
#     Edge 41, Type (0, 1), None
#     Edge 42, Type (0, 1), None
#     Edge 43, Type (0, 1), None
#     Edge 44, Type (0, 1), None
#     Edge 45, Type (0, 1), None
#     Edge 46, Type (0, 1), None
#     Edge 47, Type (0, 1), None
#     Edge 48, Type (0, 1), None
#     Edge 49, Type (0, 1), None
#     Edge 50, Type (0, 1), None
#     Edge 51, Type (0, 1), None
#     Edge 52, Type (0, 1), None
#     Edge 53, Type (0, 1), None
#     Edge 54, Type (0, 1), None
#     Edge 55, Type (0, 1), None
#     Edge 56, Type (0, 1), None
#     Edge 57, Type (0, 1), None
#     Edge 58, Type (0, 1), None
#     Edge 59, Type (0, 1), None
#     Edge 60, Type (0, 1), None
#     Edge 61, Type (0, 1), None
#     Edge 62, Type (0, 1), None
#     Edge 63, Type (0, 1), None
#     Edge 64, Type (0, 1), None
#     Edge 65, Type (0, 1), None
#     Edge 66, Type (0, 1), None
#     Edge 67, Type (0, 1), None
#     Edge 68, Type (0, 1), None
#     Edge 69, Type (0, 1), None
#     Edge 70, Type (0, 1), None
#     Edge 71, Type (0, 1), None
#     Edge 72, Type (0, 1), None
#     Edge 73, Type (0, 1), None
#     Edge 74, Type (0, 1), None
#     Edge 75, Type (0, 1), None
#     Edge 76, Type (0, 1), None
#     Edge 77, Type (0, 1), None
#     Edge 78, Type (0, 1), None
#     Edge 79, Type (0, 1), None
#     Edge 80, Type (0, 1), None
# Relax obj value: 0.090
# Max RMSD: 0.115
# Mean RMSD: 0.087
data_MOF--net-eea--node1-LEVNOQ01_clean_sbu_1--node2-BETDAH_clean_linker_0--edge1-none
_symmetry_space_group_name_H-M    P1
_symmetry_Int_Tables_number       1
_symmetry_cell_setting            triclinic
loop_
_symmetry_equiv_pos_as_xyz
'x, y, z'
_cell_length_a     26.860157
_cell_length_b     25.671106
_cell_length_c     18.261413
_cell_angle_alpha  88.454849
_cell_angle_beta   90.558657
_cell_angle_gamma 118.8793
loop_
_atom_site_label
_atom_site_type_symbol
_atom_site_fract_x
_atom_site_fract_y
_atom_site_fract_z
_atom_type_partial_charge
H0 H 0.25792 0.03488 0.46737 0.0
H1 H 0.16183 0.12767 0.48745 0.0
H2 H 0.13693 0.01975 0.30185 0.0
C3 C 0.22333 0.04262 0.44959 0.0
C4 C 0.1956 0.01927 0.38314 0.0
C5 C 0.21258 0.08301 0.48684 0.0
C6 C 0.16999 0.09544 0.46041 0.0
C7 C 0.14219 0.07238 0.39429 0.0
C8 C 0.15457 0.03354 0.35602 0.0
N9 N 0.11334 0.09944 0.35831 0.0
C10 C 0.14399 0.16015 0.34248 0.0
H11 H -0.01506 0.20192 0.47209 0.0
H12 H 0.805 0.08655 0.4608 0.0
H13 H 0.90722 0.13398 0.26627 0.0
C14 C 0.94794 0.17225 0.44159 0.0
C15 C 0.9528 0.17236 0.36554 0.0
C16 C 0.89444 0.14699 0.47565 0.0
C17 C 0.84699 0.10658 0.43626 0.0
C18 C 0.85326 0.09714 0.36187 0.0
C19 C 0.90523 0.13328 0.32556 0.0
N20 N 0.80439 0.06432 0.31962 0.0
C21 C 0.78466 0.00564 0.30049 0.0
H22 H 0.75694 0.68799 0.44176 0.0
H23 H 0.9366 0.76013 0.4179 0.0
H24 H 0.84162 0.78973 0.24614 0.0
C25 C 0.79533 0.71291 0.40949 0.0
C26 C 0.79299 0.73755 0.33993 0.0
C27 C 0.84706 0.72072 0.43791 0.0
C28 C 0.89653 0.75303 0.39544 0.0
C29 C 0.89509 0.77738 0.32575 0.0
C30 C 0.84311 0.77038 0.29904 0.0
N31 N 0.94526 0.80854 0.28197 0.0
C32 C -0.00408 0.80917 0.30107 0.0
H33 H 0.00103 0.22177 0.6062 0.0
H34 H 0.1785 0.27587 0.62564 0.0
H35 H 0.07304 0.23768 0.81827 0.0
C36 C 0.03744 0.23069 0.63929 0.0
C37 C 0.03101 0.22981 0.71489 0.0
C38 C 0.09125 0.25499 0.6061 0.0
C39 C 0.13692 0.26028 0.64994 0.0
C40 C 0.12831 0.24803 0.72694 0.0
C41 C 0.07702 0.23859 0.7592 0.0
N42 N 0.1706 0.24743 0.77387 0.0
C43 C 0.2135 0.2369 0.74902 0.0
H44 H 0.77856 0.7671 0.58825 0.0
H45 H 0.74915 0.91492 0.54648 0.0
H46 H 0.78373 0.87694 0.76471 0.0
C47 C 0.77975 0.80748 0.60683 0.0
C48 C 0.78361 0.81789 0.68179 0.0
C49 C 0.76078 0.83809 0.55975 0.0
C50 C 0.76258 0.89001 0.58291 0.0
C51 C 0.77505 0.90674 0.65544 0.0
C52 C 0.78312 0.86933 0.70655 0.0
N53 N 0.77001 0.95674 0.67437 0.0
C54 C 0.78436 0.98698 0.73907 0.0
H55 H 0.21574 0.97068 0.60673 0.0
H56 H 0.0349 0.85578 0.60892 0.0
H57 H 0.11433 0.97073 0.78776 0.0
C58 C 0.17415 0.95748 0.62979 0.0
C59 C 0.16964 0.98066 0.6974 0.0
C60 C 0.12572 0.91064 0.59856 0.0
C61 C 0.07285 0.89103 0.633 0.0
C62 C 0.06892 0.91068 0.70246 0.0
C63 C 0.11679 0.95762 0.7325 0.0
N64 N 0.02054 0.87684 0.7477 0.0
C65 C 0.98254 0.81818 0.73153 0.0
H66 H 0.90942 0.35455 0.7898 0.0
H67 H 0.82577 0.45944 0.80691 0.0
H68 H 0.79408 0.34918 0.62172 0.0
C69 C 0.87597 0.36419 0.77188 0.0
C70 C 0.84892 0.34304 0.70482 0.0
C71 C 0.86995 0.40834 0.80638 0.0
C72 C 0.8296 0.42408 0.78073 0.0
C73 C 0.80114 0.40217 0.71467 0.0
C74 C 0.8107 0.36111 0.67666 0.0
N75 N 0.77656 0.43329 0.6777 0.0
C76 C 0.80988 0.49454 0.66783 0.0
H77 H 0.65069 0.53336 0.79751 0.0
H78 H 0.47024 0.42736 0.76998 0.0
H79 H 0.58247 0.47836 0.58457 0.0
C80 C 0.61452 0.50713 0.76367 0.0
C81 C 0.62292 0.51029 0.6881 0.0
C82 C 0.55964 0.48371 0.7933 0.0
C83 C 0.5133 0.4469 0.74903 0.0
C84 C 0.52324 0.44046 0.67454 0.0
C85 C 0.57714 0.47558 0.64357 0.0
N86 N 0.47801 0.40897 0.62643 0.0
C87 C 0.45175 0.34774 0.62146 0.0
H88 H 0.42334 0.0197 0.79339 0.0
H89 H 0.59767 0.07794 0.74686 0.0
H90 H 0.49958 0.12367 0.59595 0.0
C91 C 0.45951 0.04222 0.7567 0.0
C92 C 0.45481 0.07024 0.69136 0.0
C93 C 0.51074 0.04457 0.77677 0.0
C94 C 0.55786 0.07507 0.73014 0.0
C95 C 0.55456 0.10344 0.6643 0.0
C96 C 0.50264 0.10131 0.64559 0.0
N97 N 0.60313 0.13485 0.61766 0.0
C98 C 0.65551 0.1391 0.63594 0.0
H99 H 0.66501 0.54532 0.93118 0.0
H100 H 0.84288 0.60321 0.95419 0.0
H101 H 0.73434 0.55662 0.14476 0.0
C102 C 0.70095 0.55374 0.9652 0.0
C103 C 0.69316 0.5506 0.04071 0.0
C104 C 0.75553 0.5807 0.93391 0.0
C105 C 0.80082 0.58564 0.9778 0.0
C106 C 0.79137 0.57055 0.05389 0.0
C107 C 0.7391 0.55911 0.08573 0.0
N108 N 0.83396 0.56913 0.09972 0.0
C109 C 0.87778 0.56091 0.07228 0.0
H110 H 0.43984 0.10249 0.91292 0.0
H111 H 0.42224 0.259 0.94671 0.0
H112 H 0.48955 0.19056 0.11511 0.0
C113 C 0.44749 0.14076 0.94485 0.0
C114 C 0.461 0.13941 0.01795 0.0
C115 C 0.42515 0.17807 0.9213 0.0
C116 C 0.43689 0.22806 0.96404 0.0
C117 C 0.46689 0.2356 0.03125 0.0
C118 C 0.47626 0.18978 0.05867 0.0
N119 N 0.48641 0.28613 0.07558 0.0
C120 C 0.46235 0.32277 0.08055 0.0
H121 H 0.87906 0.29852 0.93443 0.0
H122 H 0.69839 0.18212 0.94382 0.0
H123 H 0.78258 0.29371 0.12385 0.0
C124 C 0.83814 0.28441 0.96015 0.0
C125 C 0.83564 0.30565 0.03 0.0
C126 C 0.78897 0.23828 0.92935 0.0
C127 C 0.73697 0.21714 0.96697 0.0
C128 C 0.73462 0.23568 0.03764 0.0
C129 C 0.7836 0.28169 0.06762 0.0
N130 N 0.68621 0.20222 0.08319 0.0
C131 C 0.64871 0.14248 0.07038 0.0
H132 H 0.58647 0.6935 0.11921 0.0
H133 H 0.49184 0.78677 0.14363 0.0
H134 H 0.46418 0.67929 0.95658 0.0
C135 C 0.55121 0.70068 0.10285 0.0
C136 C 0.52329 0.67822 0.03669 0.0
C137 C 0.54185 0.74181 0.13961 0.0
C138 C 0.49838 0.75359 0.11617 0.0
C139 C 0.46944 0.73049 0.05066 0.0
C140 C 0.4817 0.69214 0.01098 0.0
N141 N 0.44262 0.75967 0.01487 0.0
C142 C 0.47593 0.82031 1.00098 0.0
H143 H 0.32023 0.86334 0.14258 0.0
H144 H 0.1397 0.75515 0.13983 0.0
H145 H 0.23671 0.78422 0.9433 0.0
C146 C 0.28237 0.83392 0.11417 0.0
C147 C 0.28587 0.82803 0.03875 0.0
C148 C 0.22986 0.81305 0.1496 0.0
C149 C 0.18094 0.77195 0.11387 0.0
C150 C 0.18451 0.75678 0.04138 0.0
C151 C 0.23628 0.78786 1.00224 0.0
N152 N 0.13332 0.72304 1.0037 0.0
C153 C 0.11532 0.66668 0.9769 0.0
H154 H 0.08396 0.34775 0.10617 0.0
H155 H 0.26508 0.4315 0.08156 0.0
H156 H 0.16504 0.46102 0.91682 0.0
C157 C 0.12196 0.37555 0.07432 0.0
C158 C 0.11798 0.40171 1.00669 0.0
C159 C 0.17482 0.38615 0.10208 0.0
C160 C 0.22407 0.42269 0.0603 0.0
C161 C 0.22094 0.44968 0.99305 0.0
C162 C 0.16772 0.43962 0.96756 0.0
N163 N 0.27048 0.48719 0.95047 0.0
C164 C 0.32235 0.48869 0.963 0.0
H165 H 0.33623 0.88953 0.27879 0.0
H166 H 0.51041 0.93006 0.29014 0.0
H167 H 0.41079 0.89828 0.48754 0.0
C168 C 0.3726 0.89598 0.31018 0.0
C169 C 0.36774 0.89465 0.38597 0.0
C170 C 0.42509 0.91619 0.27491 0.0
C171 C 0.4702 0.91789 0.31651 0.0
C172 C 0.46289 0.90558 0.39355 0.0
C173 C 0.41355 0.89968 0.42831 0.0
N174 N 0.50439 0.90028 0.43744 0.0
C175 C 0.54563 0.88908 0.40778 0.0
H176 H 0.1113 0.43542 0.25285 0.0
H177 H 0.08941 0.58791 0.2097 0.0
H178 H 0.11758 0.54573 0.42941 0.0
C179 C 0.11332 0.47618 0.2715 0.0
C180 C 0.11566 0.48559 0.34652 0.0
C181 C 0.0961 0.50817 0.22408 0.0
C182 C 0.10038 0.56133 0.24681 0.0
C183 C 0.11296 0.5778 0.31952 0.0
C184 C 0.11688 0.538 0.37129 0.0
N185 N 0.11577 0.63235 0.33681 0.0
C186 C 0.12334 0.65831 0.4041 0.0
H187 H 0.54813 0.62313 0.25572 0.0
H188 H 0.36668 0.51398 0.26877 0.0
H189 H 0.45636 0.629 0.44451 0.0
C190 C 0.50789 0.61108 0.28212 0.0
C191 C 0.50744 0.63495 0.35104 0.0
C192 C 0.45715 0.56603 0.25241 0.0
C193 C 0.40619 0.54812 0.29101 0.0
C194 C 0.40586 0.56973 0.36083 0.0
C195 C 0.45615 0.61477 0.38905 0.0
N196 N 0.35763 0.54037 0.40754 0.0
C197 C 0.31578 0.48281 0.39321 0.0
O198 O 0.56015 0.01059 0.85535 0.0
Mg199 Mg 0.58951 0.98104 0.94831 0.0
O200 O 0.48116 0.00705 0.90022 0.0
Mg201 Mg 0.47362 0.97785 0.02552 0.0
O202 O 0.51511 0.92532 0.99865 0.0
O203 O 0.5682 0.88908 0.9591 0.0
O204 O 0.46747 0.94811 0.15192 0.0
O205 O 0.38368 0.8897 0.01313 0.0
Mg206 Mg 0.36152 0.98219 0.08845 0.0
O207 O 0.43731 0.03822 0.04824 0.0
O208 O 0.39028 0.95405 0.18186 0.0
O209 O 0.32491 0.92495 0.99717 0.0
O210 O 0.37893 0.07055 0.0825 0.0
C211 C 0.61281 0.0824 0.04761 0.0
C212 C 0.51676 0.0181 0.84761 0.0
C213 C 0.52088 0.8797 0.98751 0.0
C214 C 0.42932 0.94132 0.19877 0.0
C215 C 0.33298 0.88031 1.00094 0.0
C216 C 0.42702 0.0818 0.05447 0.0
O217 O 0.63548 0.05345 0.02107 0.0
O218 O 0.55922 0.0623 0.04735 0.0
O219 O 0.93531 0.50492 0.83696 0.0
Mg220 Mg -0.00932 0.5731 0.90215 0.0
O221 O 0.93438 0.4326 0.90663 0.0
Mg222 Mg -0.00911 0.47304 0.00903 0.0
O223 O 0.05213 0.56611 0.95853 0.0
O224 O 0.07099 0.63348 0.86836 0.0
O225 O 0.04384 0.50435 0.11537 0.0
O226 O 0.05799 0.44212 0.98004 0.0
Mg227 Mg 0.98192 0.35183 0.09789 0.0
O228 O 0.9308 0.38202 0.05775 0.0
O229 O 0.0394 0.42097 0.16278 0.0
O230 O 0.01943 0.34535 1.00102 0.0
O231 O 0.89565 0.29513 0.11621 0.0
C232 C 0.92093 0.55428 0.03425 0.0
C233 C 0.91586 0.45036 0.85246 0.0
C234 C 0.08596 0.61799 0.92887 0.0
C235 C 0.05967 0.47711 0.16199 0.0
C236 C 0.06218 0.39445 0.98306 0.0
C237 C 0.88754 0.33118 0.07373 0.0
O238 O 0.94663 0.59148 0.98254 0.0
O239 O 0.92844 0.50907 0.04755 0.0
O240 O 0.40987 0.48315 0.17572 0.0
Mg241 Mg 0.3934 0.41884 0.09449 0.0
O242 O 0.49842 0.54753 0.14454 0.0
Mg243 Mg 0.50429 0.51286 0.02733 0.0
O244 O 0.46302 0.41446 0.06405 0.0
O245 O 0.38742 0.33797 0.1182 0.0
O246 O 0.51438 0.48381 0.9086 0.0
O247 O 0.5946 0.51788 0.05348 0.0
Mg248 Mg 0.62177 0.63004 0.95449 0.0
O249 O 0.545 0.60614 0.99108 0.0
O250 O 0.59481 0.56415 0.87222 0.0
O251 O 0.65578 0.61332 0.05429 0.0
O252 O 0.59845 0.69833 0.95569 0.0
C253 C 0.36542 0.47289 0.98174 0.0
C254 C 0.45558 0.53113 0.18717 0.0
C255 C 0.43637 0.35936 0.08655 0.0
C256 C 0.55477 0.51131 0.86184 0.0
C257 C 0.64544 0.55997 0.06452 0.0
C258 C 0.55236 0.65891 0.98686 0.0
O259 O 0.34741 0.42006 1.00393 0.0
O260 O 0.41717 0.51229 0.99272 0.0
O261 O 0.22176 0.34958 0.18126 0.0
Mg262 Mg 0.24956 0.32015 0.27591 0.0
O263 O 0.14605 0.35184 0.22804 0.0
Mg264 Mg 0.13887 0.32269 0.35608 0.0
O265 O 0.17606 0.26427 0.32931 0.0
O266 O 0.23154 0.23022 0.28979 0.0
O267 O 0.13375 0.29143 0.48324 0.0
O268 O 0.04944 0.23736 0.34281 0.0
Mg269 Mg 0.03305 0.3294 0.42461 0.0
O270 O 0.10684 0.38997 0.38135 0.0
O271 O 0.05677 0.29597 0.51664 0.0
O272 O -0.01064 0.2717 0.33602 0.0
O273 O 0.04591 0.4158 0.42735 0.0
C274 C 0.27842 0.42234 0.37496 0.0
C275 C 0.18009 0.35998 0.17412 0.0
C276 C 0.18468 0.21983 0.32071 0.0
C277 C 0.09573 0.28278 0.53131 0.0
C278 C -0.00129 0.22795 0.33296 0.0
C279 C 0.09234 0.43073 0.39201 0.0
O280 O 0.29919 0.39241 0.34639 0.0
O281 O 0.22528 0.40394 0.37687 0.0
O282 O 0.59678 0.83686 0.18476 0.0
Mg283 Mg 0.65839 0.90183 0.24808 0.0
O284 O 0.61217 0.7666 0.23305 0.0
Mg285 Mg 0.66285 0.80606 0.33979 0.0
O286 O 0.72618 0.90272 0.29814 0.0
O287 O 0.73255 0.96086 0.20029 0.0
O288 O 0.71048 0.8346 0.44963 0.0
O289 O 0.73335 0.77872 0.31392 0.0
Mg290 Mg 0.65391 0.68441 0.42382 0.0
O291 O 0.60186 0.71244 0.38104 0.0
O292 O 0.70765 0.75147 0.49487 0.0
O293 O 0.6952 0.68146 0.32877 0.0
O294 O 0.56809 0.62419 0.43641 0.0
C295 C 0.59078 0.88502 0.37182 0.0
C296 C 0.58529 0.78327 0.18916 0.0
C297 C 0.75386 0.9523 0.26011 0.0
C298 C 0.72606 0.80726 0.49633 0.0
C299 C 0.73808 0.73135 0.31435 0.0
C300 C 0.5596 0.66021 0.39432 0.0
O301 O 0.62071 0.92693 0.32726 0.0
O302 O 0.5961 0.83782 0.37805 0.0
O303 O 0.08598 0.82163 0.53465 0.0
Mg304 Mg 0.07075 0.75379 0.46293 0.0
O305 O 0.17018 0.89102 0.49466 0.0
Mg306 Mg 0.17924 0.85158 0.3819 0.0
O307 O 0.1407 0.75439 0.42549 0.0
O308 O 0.07611 0.67913 0.49419 0.0
O309 O 0.19167 0.8191 0.26692 0.0
O310 O 0.27097 0.86245 0.41024 0.0
Mg311 Mg 0.29116 0.96797 0.29719 0.0
O312 O 0.21615 0.94456 0.34056 0.0
O313 O 0.26481 0.90033 0.2168 0.0
O314 O 0.33084 0.95793 0.39567 0.0
O315 O 0.26685 0.03529 0.297 0.0
C316 C 0.03911 0.79928 0.33555 0.0
C317 C 0.1282 0.8733 0.53908 0.0
C318 C 0.11902 0.69981 0.45005 0.0
C319 C 0.22775 0.84532 0.21484 0.0
C320 C 0.32199 0.90591 0.41283 0.0
C321 C 0.22323 -0.00263 0.33395 0.0
O322 O 0.0222 0.75081 0.37127 0.0
O323 O 0.09041 0.8414 0.34075 0.0
O324 O 0.89313 0.68517 0.51959 0.0
Mg325 Mg 0.92114 0.65578 0.61381 0.0
O326 O 0.81656 0.68737 0.56341 0.0
Mg327 Mg 0.80834 0.65699 0.68997 0.0
O328 O 0.84608 0.59961 0.66282 0.0
O329 O 0.90122 0.56479 0.62507 0.0
O330 O 0.8012 0.62305 0.81495 0.0
O331 O 0.7203 0.57298 0.67317 0.0
Mg332 Mg 0.70106 0.66229 0.75701 0.0
O333 O 0.77574 0.72304 0.71696 0.0
O334 O 0.72248 0.62474 0.84694 0.0
O335 O 0.66259 0.61013 0.66295 0.0
O336 O 0.71493 0.7487 0.76354 0.0
C337 C 0.94689 0.75727 0.71323 0.0
C338 C 0.85141 0.69536 0.51077 0.0
C339 C 0.85336 0.55456 0.65266 0.0
C340 C 0.76147 0.61158 0.86139 0.0
C341 C 0.67079 0.56567 0.65994 0.0
C342 C 0.76133 0.76371 0.72808 0.0
O343 O 0.96899 0.72806 0.68599 0.0
O344 O 0.89365 0.73793 0.71313 0.0
O345 O 0.25352 0.17001 0.55467 0.0
Mg346 Mg 0.3223 0.22873 0.61607 0.0
O347 O 0.28609 0.10896 0.57898 0.0
Mg348 Mg 0.33066 0.15062 0.69221 0.0
O349 O 0.4008 0.24612 0.64989 0.0
O350 O 0.38272 0.28383 0.54613 0.0
O351 O 0.37695 0.18305 0.80852 0.0
O352 O 0.39916 0.11864 0.67305 0.0
Mg353 Mg 0.30976 0.03187 0.78519 0.0
O354 O 0.26276 0.05853 0.73022 0.0
O355 O 0.35489 0.09599 0.86288 0.0
O356 O 0.35673 0.02226 0.70044 0.0
O357 O 0.22485 0.97202 0.79209 0.0
C358 C 0.26013 0.23155 0.72028 0.0
C359 C 0.25155 0.12111 0.54409 0.0
C360 C 0.41592 0.28806 0.59964 0.0
C361 C 0.3812 0.15252 0.86266 0.0
C362 C 0.40003 0.06914 0.6778 0.0
C363 C 0.2196 0.0069 0.74419 0.0
O364 O 0.29562 0.27407 0.68104 0.0
O365 O 0.26188 0.18238 0.72543 0.0
O366 O 0.74712 0.15261 0.85924 0.0
Mg367 Mg 0.7354 0.08651 0.7872 0.0
O368 O 0.83295 0.22039 0.82309 0.0
Mg369 Mg 0.84074 0.18126 0.70865 0.0
O370 O 0.80499 0.08456 0.75291 0.0
O371 O 0.73965 0.01329 0.82575 0.0
O372 O 0.85276 0.14905 0.59273 0.0
O373 O 0.93314 0.19408 0.73516 0.0
Mg374 Mg 0.95169 0.29978 0.62464 0.0
O375 O 0.8752 0.27258 0.66494 0.0
O376 O 0.927 0.23151 0.54672 0.0
O377 O -0.00921 0.29038 0.72397 0.0
O378 O 0.92223 0.36323 0.62086 0.0
C379 C 0.7002 0.12836 0.6637 0.0
C380 C 0.7903 0.20311 0.86641 0.0
C381 C 0.78255 0.03127 0.78198 0.0
C382 C 0.89015 0.17661 0.54233 0.0
C383 C -0.01665 0.23863 0.73964 0.0
C384 C 0.87849 0.32352 0.65598 0.0
O385 O 0.68484 0.07899 0.69641 0.0
O386 O 0.7512 0.17085 0.66967 0.0
loop_
_geom_bond_atom_site_label_1
_geom_bond_atom_site_label_2
_geom_bond_distance
_geom_bond_site_symmetry_2
_ccdc_geom_bond_type
H0 C3 0.929 . S
H1 C6 0.929 . S
H2 C8 0.930 . S
C3 H0 0.929 . S
C3 C4 1.398 . S
C3 C5 1.396 . S
C4 C3 1.398 . S
C4 C8 1.407 . S
C5 C3 1.396 . S
C5 C6 1.394 . S
C6 H1 0.929 . S
C6 C5 1.394 . S
C6 C7 1.382 . S
C7 C6 1.382 . S
C7 C8 1.392 . S
C7 N9 1.420 . S
C8 H2 0.930 . S
C8 C4 1.407 . S
C8 C7 1.392 . S
N9 C7 1.420 . S
N9 C10 1.244 . S
C10 N9 1.244 . S
H11 C14 0.929 . S
H12 C17 0.929 . S
H13 C19 0.930 . S
C14 H11 0.929 . S
C14 C15 1.398 . S
C14 C16 1.396 . S
C15 C14 1.398 . S
C15 C19 1.407 . S
C16 C14 1.396 . S
C16 C17 1.394 . S
C17 H12 0.929 . S
C17 C16 1.394 . S
C17 C18 1.382 . S
C18 C17 1.382 . S
C18 C19 1.392 . S
C18 N20 1.420 . S
C19 H13 0.930 . S
C19 C15 1.407 . S
C19 C18 1.392 . S
N20 C18 1.420 . S
N20 C21 1.244 1_545 S
C21 N20 1.244 1_565 S
H22 C25 0.929 . S
H23 C28 0.929 . S
H24 C30 0.930 . S
C25 H22 0.929 . S
C25 C26 1.398 . S
C25 C27 1.396 . S
C26 C25 1.398 . S
C26 C30 1.407 . S
C27 C25 1.396 . S
C27 C28 1.394 . S
C28 H23 0.929 . S
C28 C27 1.394 . S
C28 C29 1.382 . S
C29 C28 1.382 . S
C29 C30 1.392 . S
C29 N31 1.420 . S
C30 H24 0.930 . S
C30 C26 1.407 . S
C30 C29 1.392 . S
N31 C29 1.420 . S
N31 C32 1.244 . S
C32 N31 1.244 . S
H33 C36 0.929 . S
H34 C39 0.929 . S
H35 C41 0.930 . S
C36 H33 0.929 . S
C36 C37 1.398 . S
C36 C38 1.396 . S
C37 C36 1.398 . S
C37 C41 1.407 . S
C38 C36 1.396 . S
C38 C39 1.394 . S
C39 H34 0.929 . S
C39 C38 1.394 . S
C39 C40 1.382 . S
C40 C39 1.382 . S
C40 C41 1.392 . S
C40 N42 1.420 . S
C41 H35 0.930 . S
C41 C37 1.407 . S
C41 C40 1.392 . S
N42 C40 1.420 . S
N42 C43 1.244 . S
C43 N42 1.244 . S
H44 C47 0.929 . S
H45 C50 0.929 . S
H46 C52 0.930 . S
C47 H44 0.929 . S
C47 C48 1.398 . S
C47 C49 1.396 . S
C48 C47 1.398 . S
C48 C52 1.407 . S
C49 C47 1.396 . S
C49 C50 1.394 . S
C50 H45 0.929 . S
C50 C49 1.394 . S
C50 C51 1.382 . S
C51 C50 1.382 . S
C51 C52 1.392 . S
C51 N53 1.420 . S
C52 H46 0.930 . S
C52 C48 1.407 . S
C52 C51 1.392 . S
N53 C51 1.420 . S
N53 C54 1.244 1_565 S
C54 N53 1.244 1_545 S
H55 C58 0.929 . S
H56 C61 0.929 . S
H57 C63 0.930 . S
C58 H55 0.929 . S
C58 C59 1.398 . S
C58 C60 1.396 . S
C59 C58 1.398 . S
C59 C63 1.407 . S
C60 C58 1.396 . S
C60 C61 1.394 . S
C61 H56 0.929 . S
C61 C60 1.394 . S
C61 C62 1.382 . S
C62 C61 1.382 . S
C62 C63 1.392 . S
C62 N64 1.420 . S
C63 H57 0.930 . S
C63 C59 1.407 . S
C63 C62 1.392 . S
N64 C62 1.420 . S
N64 C65 1.244 . S
C65 N64 1.244 . S
H66 C69 0.929 . S
H67 C72 0.929 . S
H68 C74 0.930 . S
C69 H66 0.929 . S
C69 C70 1.398 . S
C69 C71 1.396 . S
C70 C69 1.398 . S
C70 C74 1.407 . S
C71 C69 1.396 . S
C71 C72 1.394 . S
C72 H67 0.929 . S
C72 C71 1.394 . S
C72 C73 1.382 . S
C73 C72 1.382 . S
C73 C74 1.392 . S
C73 N75 1.420 . S
C74 H68 0.930 . S
C74 C70 1.407 . S
C74 C73 1.392 . S
N75 C73 1.420 . S
N75 C76 1.244 . S
C76 N75 1.244 . S
H77 C80 0.929 . S
H78 C83 0.929 . S
H79 C85 0.930 . S
C80 H77 0.929 . S
C80 C81 1.398 . S
C80 C82 1.396 . S
C81 C80 1.398 . S
C81 C85 1.407 . S
C82 C80 1.396 . S
C82 C83 1.394 . S
C83 H78 0.929 . S
C83 C82 1.394 . S
C83 C84 1.382 . S
C84 C83 1.382 . S
C84 C85 1.392 . S
C84 N86 1.420 . S
C85 H79 0.930 . S
C85 C81 1.407 . S
C85 C84 1.392 . S
N86 C84 1.420 . S
N86 C87 1.244 . S
C87 N86 1.244 . S
H88 C91 0.929 . S
H89 C94 0.929 . S
H90 C96 0.930 . S
C91 H88 0.929 . S
C91 C92 1.398 . S
C91 C93 1.396 . S
C92 C91 1.398 . S
C92 C96 1.407 . S
C93 C91 1.396 . S
C93 C94 1.394 . S
C94 H89 0.929 . S
C94 C93 1.394 . S
C94 C95 1.382 . S
C95 C94 1.382 . S
C95 C96 1.392 . S
C95 N97 1.420 . S
C96 H90 0.930 . S
C96 C92 1.407 . S
C96 C95 1.392 . S
N97 C95 1.420 . S
N97 C98 1.244 . S
C98 N97 1.244 . S
H99 C102 0.929 . S
H100 C105 0.929 . S
H101 C107 0.930 . S
C102 H99 0.929 . S
C102 C103 1.398 1_556 S
C102 C104 1.396 . S
C103 C102 1.398 1_554 S
C103 C107 1.407 . S
C104 C102 1.396 . S
C104 C105 1.394 . S
C105 H100 0.929 . S
C105 C104 1.394 . S
C105 C106 1.382 1_556 S
C106 C105 1.382 1_554 S
C106 C107 1.392 . S
C106 N108 1.420 . S
C107 H101 0.930 . S
C107 C103 1.407 . S
C107 C106 1.392 . S
N108 C106 1.420 . S
N108 C109 1.244 . S
C109 N108 1.244 . S
H110 C113 0.929 . S
H111 C116 0.929 . S
H112 C118 0.930 . S
C113 H110 0.929 . S
C113 C114 1.398 1_556 S
C113 C115 1.396 . S
C114 C113 1.398 1_554 S
C114 C118 1.407 . S
C115 C113 1.396 . S
C115 C116 1.394 . S
C116 H111 0.929 . S
C116 C115 1.394 . S
C116 C117 1.382 1_556 S
C117 C116 1.382 1_554 S
C117 C118 1.392 . S
C117 N119 1.420 . S
C118 H112 0.930 . S
C118 C114 1.407 . S
C118 C117 1.392 . S
N119 C117 1.420 . S
N119 C120 1.244 . S
C120 N119 1.244 . S
H121 C124 0.929 . S
H122 C127 0.929 . S
H123 C129 0.930 . S
C124 H121 0.929 . S
C124 C125 1.398 1_556 S
C124 C126 1.396 . S
C125 C124 1.398 1_554 S
C125 C129 1.407 . S
C126 C124 1.396 . S
C126 C127 1.394 . S
C127 H122 0.929 . S
C127 C126 1.394 . S
C127 C128 1.382 1_556 S
C128 C127 1.382 1_554 S
C128 C129 1.392 . S
C128 N130 1.420 . S
C129 H123 0.930 . S
C129 C125 1.407 . S
C129 C128 1.392 . S
N130 C128 1.420 . S
N130 C131 1.244 . S
C131 N130 1.244 . S
H132 C135 0.929 . S
H133 C138 0.929 . S
H134 C140 0.930 . S
C135 H132 0.929 . S
C135 C136 1.398 . S
C135 C137 1.396 . S
C136 C135 1.398 . S
C136 C140 1.407 1_554 S
C137 C135 1.396 . S
C137 C138 1.394 . S
C138 H133 0.929 . S
C138 C137 1.394 . S
C138 C139 1.382 . S
C139 C138 1.382 . S
C139 C140 1.392 1_554 S
C139 N141 1.420 1_554 S
C140 H134 0.930 . S
C140 C136 1.407 1_556 S
C140 C139 1.392 1_556 S
N141 C139 1.420 1_556 S
N141 C142 1.244 1_556 S
C142 N141 1.244 1_554 S
H143 C146 0.929 . S
H144 C149 0.929 . S
H145 C151 0.930 . S
C146 H143 0.929 . S
C146 C147 1.398 . S
C146 C148 1.396 . S
C147 C146 1.398 . S
C147 C151 1.407 1_554 S
C148 C146 1.396 . S
C148 C149 1.394 . S
C149 H144 0.929 . S
C149 C148 1.394 . S
C149 C150 1.382 . S
C150 C149 1.382 . S
C150 C151 1.392 1_554 S
C150 N152 1.420 1_554 S
C151 H145 0.930 . S
C151 C147 1.407 1_556 S
C151 C150 1.392 1_556 S
N152 C150 1.420 1_556 S
N152 C153 1.244 . S
C153 N152 1.244 . S
H154 C157 0.929 . S
H155 C160 0.929 . S
H156 C162 0.930 . S
C157 H154 0.929 . S
C157 C158 1.398 . S
C157 C159 1.396 . S
C158 C157 1.398 . S
C158 C162 1.407 1_554 S
C159 C157 1.396 . S
C159 C160 1.394 . S
C160 H155 0.929 . S
C160 C159 1.394 . S
C160 C161 1.382 . S
C161 C160 1.382 . S
C161 C162 1.392 1_554 S
C161 N163 1.420 1_554 S
C162 H156 0.930 . S
C162 C158 1.407 1_556 S
C162 C161 1.392 1_556 S
N163 C161 1.420 1_556 S
N163 C164 1.244 1_556 S
C164 N163 1.244 1_554 S
H165 C168 0.929 . S
H166 C171 0.929 . S
H167 C173 0.930 . S
C168 H165 0.929 . S
C168 C169 1.398 . S
C168 C170 1.396 . S
C169 C168 1.398 . S
C169 C173 1.407 . S
C170 C168 1.396 . S
C170 C171 1.394 . S
C171 H166 0.929 . S
C171 C170 1.394 . S
C171 C172 1.382 . S
C172 C171 1.382 . S
C172 C173 1.392 . S
C172 N174 1.420 . S
C173 H167 0.930 . S
C173 C169 1.407 . S
C173 C172 1.392 . S
N174 C172 1.420 . S
N174 C175 1.244 . S
C175 N174 1.244 . S
H176 C179 0.929 . S
H177 C182 0.929 . S
H178 C184 0.930 . S
C179 H176 0.929 . S
C179 C180 1.398 . S
C179 C181 1.396 . S
C180 C179 1.398 . S
C180 C184 1.407 . S
C181 C179 1.396 . S
C181 C182 1.394 . S
C182 H177 0.929 . S
C182 C181 1.394 . S
C182 C183 1.382 . S
C183 C182 1.382 . S
C183 C184 1.392 . S
C183 N185 1.420 . S
C184 H178 0.930 . S
C184 C180 1.407 . S
C184 C183 1.392 . S
N185 C183 1.420 . S
N185 C186 1.244 . S
C186 N185 1.244 . S
H187 C190 0.929 . S
H188 C193 0.929 . S
H189 C195 0.930 . S
C190 H187 0.929 . S
C190 C191 1.398 . S
C190 C192 1.396 . S
C191 C190 1.398 . S
C191 C195 1.407 . S
C192 C190 1.396 . S
C192 C193 1.394 . S
C193 H188 0.929 . S
C193 C192 1.394 . S
C193 C194 1.382 . S
C194 C193 1.382 . S
C194 C195 1.392 . S
C194 N196 1.420 . S
C195 H189 0.930 . S
C195 C191 1.407 . S
C195 C194 1.392 . S
N196 C194 1.420 . S
N196 C197 1.244 . S
C197 N196 1.244 . S
O198 Mg199 1.990 1_545 S
O198 C212 1.253 . S
Mg199 O198 1.990 1_565 S
Mg199 O202 2.180 1_556 S
Mg199 O203 2.117 . S
Mg199 O217 2.030 1_565 S
O200 Mg201 2.072 1_556 S
O200 C212 1.260 . S
Mg201 O200 2.072 1_554 S
Mg201 O202 2.099 1_545 S
Mg201 O204 2.079 1_545 S
Mg201 O205 2.072 1_545 S
Mg201 O207 2.099 . S
Mg201 O218 2.079 . S
O202 Mg199 2.180 1_554 S
O202 Mg201 2.099 1_565 S
O202 C213 1.279 1_554 S
O203 Mg199 2.117 . S
O203 C213 1.250 . S
O204 Mg201 2.079 1_565 S
O204 C214 1.264 . S
O205 Mg201 2.072 1_565 S
O205 C215 1.260 . S
Mg206 O207 2.180 . S
Mg206 O208 2.030 1_545 S
Mg206 O209 1.990 1_545 S
Mg206 O210 2.117 . S
O207 Mg201 2.099 . S
O207 Mg206 2.180 . S
O207 C216 1.279 . S
O208 Mg206 2.030 1_565 S
O208 C214 1.248 . S
O209 Mg206 1.990 1_565 S
O209 C215 1.253 . S
O210 Mg206 2.117 . S
O210 C216 1.250 . S
C211 O217 1.248 1_554 S
C211 O218 1.264 . S
C212 O198 1.253 . S
C212 O200 1.260 . S
C213 O202 1.279 1_556 S
C213 O203 1.250 . S
C214 O204 1.264 . S
C214 O208 1.248 . S
C215 O205 1.260 . S
C215 O209 1.253 . S
C216 O207 1.279 . S
C216 O210 1.250 . S
O217 Mg199 2.030 1_545 S
O217 C211 1.248 1_556 S
O218 Mg201 2.079 . S
O218 C211 1.264 . S
O219 Mg220 1.990 1_655 S
O219 C233 1.253 . S
Mg220 O219 1.990 1_455 S
Mg220 O223 2.180 1_556 S
Mg220 O224 2.117 . S
Mg220 O238 2.030 1_455 S
O221 Mg222 2.072 1_556 S
O221 C233 1.260 . S
Mg222 O221 2.072 1_554 S
Mg222 O223 2.099 1_655 S
Mg222 O225 2.079 1_655 S
Mg222 O226 2.072 1_655 S
Mg222 O228 2.099 . S
Mg222 O239 2.079 . S
O223 Mg220 2.180 1_554 S
O223 Mg222 2.099 1_455 S
O223 C234 1.279 1_554 S
O224 Mg220 2.117 . S
O224 C234 1.250 . S
O225 Mg222 2.079 1_455 S
O225 C235 1.264 . S
O226 Mg222 2.072 1_455 S
O226 C236 1.260 . S
Mg227 O228 2.180 . S
Mg227 O229 2.030 1_655 S
Mg227 O230 1.990 1_655 S
Mg227 O231 2.117 . S
O228 Mg222 2.099 . S
O228 Mg227 2.180 . S
O228 C237 1.279 . S
O229 Mg227 2.030 1_455 S
O229 C235 1.248 . S
O230 Mg227 1.990 1_455 S
O230 C236 1.253 . S
O231 Mg227 2.117 . S
O231 C237 1.250 . S
C232 O238 1.248 1_554 S
C232 O239 1.264 . S
C233 O219 1.253 . S
C233 O221 1.260 . S
C234 O223 1.279 1_556 S
C234 O224 1.250 . S
C235 O225 1.264 . S
C235 O229 1.248 . S
C236 O226 1.260 . S
C236 O230 1.253 . S
C237 O228 1.279 . S
C237 O231 1.250 . S
O238 Mg220 2.030 1_655 S
O238 C232 1.248 1_556 S
O239 Mg222 2.079 . S
O239 C232 1.264 . S
O240 Mg241 1.990 . S
O240 C254 1.253 . S
Mg241 O240 1.990 . S
Mg241 O244 2.180 . S
Mg241 O245 2.117 . S
Mg241 O259 2.030 . S
O242 Mg243 2.072 . S
O242 C254 1.260 . S
Mg243 O242 2.072 . S
Mg243 O244 2.099 . S
Mg243 O246 2.079 1_554 S
Mg243 O247 2.072 . S
Mg243 O249 2.099 1_554 S
Mg243 O260 2.079 1_554 S
O244 Mg241 2.180 . S
O244 Mg243 2.099 . S
O244 C255 1.279 . S
O245 Mg241 2.117 . S
O245 C255 1.250 . S
O246 Mg243 2.079 1_556 S
O246 C256 1.264 . S
O247 Mg243 2.072 . S
O247 C257 1.260 . S
Mg248 O249 2.180 . S
Mg248 O250 2.030 . S
Mg248 O251 1.990 . S
Mg248 O252 2.117 . S
O249 Mg243 2.099 1_556 S
O249 Mg248 2.180 . S
O249 C258 1.279 1_556 S
O250 Mg248 2.030 . S
O250 C256 1.248 . S
O251 Mg248 1.990 . S
O251 C257 1.253 1_556 S
O252 Mg248 2.117 . S
O252 C258 1.250 1_556 S
C253 O259 1.248 . S
C253 O260 1.264 1_554 S
C254 O240 1.253 . S
C254 O242 1.260 . S
C255 O244 1.279 . S
C255 O245 1.250 . S
C256 O246 1.264 . S
C256 O250 1.248 . S
C257 O247 1.260 . S
C257 O251 1.253 1_554 S
C258 O249 1.279 1_554 S
C258 O252 1.250 1_554 S
O259 Mg241 2.030 . S
O259 C253 1.248 . S
O260 Mg243 2.079 1_556 S
O260 C253 1.264 1_556 S
O261 Mg262 1.990 . S
O261 C275 1.253 . S
Mg262 O261 1.990 . S
Mg262 O265 2.180 . S
Mg262 O266 2.117 . S
Mg262 O280 2.030 . S
O263 Mg264 2.072 . S
O263 C275 1.260 . S
Mg264 O263 2.072 . S
Mg264 O265 2.099 . S
Mg264 O267 2.079 . S
Mg264 O268 2.072 . S
Mg264 O270 2.099 . S
Mg264 O281 2.079 . S
O265 Mg262 2.180 . S
O265 Mg264 2.099 . S
O265 C276 1.279 . S
O266 Mg262 2.117 . S
O266 C276 1.250 . S
O267 Mg264 2.079 . S
O267 C277 1.264 . S
O268 Mg264 2.072 . S
O268 C278 1.260 . S
Mg269 O270 2.180 . S
Mg269 O271 2.030 . S
Mg269 O272 1.990 1_455 S
Mg269 O273 2.117 . S
O270 Mg264 2.099 . S
O270 Mg269 2.180 . S
O270 C279 1.279 . S
O271 Mg269 2.030 . S
O271 C277 1.248 . S
O272 Mg269 1.990 1_655 S
O272 C278 1.253 1_655 S
O273 Mg269 2.117 . S
O273 C279 1.250 . S
C274 O280 1.248 . S
C274 O281 1.264 . S
C275 O261 1.253 . S
C275 O263 1.260 . S
C276 O265 1.279 . S
C276 O266 1.250 . S
C277 O267 1.264 . S
C277 O271 1.248 . S
C278 O268 1.260 . S
C278 O272 1.253 1_455 S
C279 O270 1.279 . S
C279 O273 1.250 . S
O280 Mg262 2.030 . S
O280 C274 1.248 . S
O281 Mg264 2.079 . S
O281 C274 1.264 . S
O282 Mg283 1.990 . S
O282 C296 1.253 . S
Mg283 O282 1.990 . S
Mg283 O286 2.180 . S
Mg283 O287 2.117 . S
Mg283 O301 2.030 . S
O284 Mg285 2.072 . S
O284 C296 1.260 . S
Mg285 O284 2.072 . S
Mg285 O286 2.099 . S
Mg285 O288 2.079 . S
Mg285 O289 2.072 . S
Mg285 O291 2.099 . S
Mg285 O302 2.079 . S
O286 Mg283 2.180 . S
O286 Mg285 2.099 . S
O286 C297 1.279 . S
O287 Mg283 2.117 . S
O287 C297 1.250 . S
O288 Mg285 2.079 . S
O288 C298 1.264 . S
O289 Mg285 2.072 . S
O289 C299 1.260 . S
Mg290 O291 2.180 . S
Mg290 O292 2.030 . S
Mg290 O293 1.990 . S
Mg290 O294 2.117 . S
O291 Mg285 2.099 . S
O291 Mg290 2.180 . S
O291 C300 1.279 . S
O292 Mg290 2.030 . S
O292 C298 1.248 . S
O293 Mg290 1.990 . S
O293 C299 1.253 . S
O294 Mg290 2.117 . S
O294 C300 1.250 . S
C295 O301 1.248 . S
C295 O302 1.264 . S
C296 O282 1.253 . S
C296 O284 1.260 . S
C297 O286 1.279 . S
C297 O287 1.250 . S
C298 O288 1.264 . S
C298 O292 1.248 . S
C299 O289 1.260 . S
C299 O293 1.253 . S
C300 O291 1.279 . S
C300 O294 1.250 . S
O301 Mg283 2.030 . S
O301 C295 1.248 . S
O302 Mg285 2.079 . S
O302 C295 1.264 . S
O303 Mg304 1.990 . S
O303 C317 1.253 . S
Mg304 O303 1.990 . S
Mg304 O307 2.180 . S
Mg304 O308 2.117 . S
Mg304 O322 2.030 . S
O305 Mg306 2.072 . S
O305 C317 1.260 . S
Mg306 O305 2.072 . S
Mg306 O307 2.099 . S
Mg306 O309 2.079 . S
Mg306 O310 2.072 . S
Mg306 O312 2.099 . S
Mg306 O323 2.079 . S
O307 Mg304 2.180 . S
O307 Mg306 2.099 . S
O307 C318 1.279 . S
O308 Mg304 2.117 . S
O308 C318 1.250 . S
O309 Mg306 2.079 . S
O309 C319 1.264 . S
O310 Mg306 2.072 . S
O310 C320 1.260 . S
Mg311 O312 2.180 . S
Mg311 O313 2.030 . S
Mg311 O314 1.990 . S
Mg311 O315 2.117 1_565 S
O312 Mg306 2.099 . S
O312 Mg311 2.180 . S
O312 C321 1.279 1_565 S
O313 Mg311 2.030 . S
O313 C319 1.248 . S
O314 Mg311 1.990 . S
O314 C320 1.253 . S
O315 Mg311 2.117 1_545 S
O315 C321 1.250 . S
C316 O322 1.248 . S
C316 O323 1.264 . S
C317 O303 1.253 . S
C317 O305 1.260 . S
C318 O307 1.279 . S
C318 O308 1.250 . S
C319 O309 1.264 . S
C319 O313 1.248 . S
C320 O310 1.260 . S
C320 O314 1.253 . S
C321 O312 1.279 1_545 S
C321 O315 1.250 . S
O322 Mg304 2.030 . S
O322 C316 1.248 . S
O323 Mg306 2.079 . S
O323 C316 1.264 . S
O324 Mg325 1.990 . S
O324 C338 1.253 . S
Mg325 O324 1.990 . S
Mg325 O328 2.180 . S
Mg325 O329 2.117 . S
Mg325 O343 2.030 . S
O326 Mg327 2.072 . S
O326 C338 1.260 . S
Mg327 O326 2.072 . S
Mg327 O328 2.099 . S
Mg327 O330 2.079 . S
Mg327 O331 2.072 . S
Mg327 O333 2.099 . S
Mg327 O344 2.079 . S
O328 Mg325 2.180 . S
O328 Mg327 2.099 . S
O328 C339 1.279 . S
O329 Mg325 2.117 . S
O329 C339 1.250 . S
O330 Mg327 2.079 . S
O330 C340 1.264 . S
O331 Mg327 2.072 . S
O331 C341 1.260 . S
Mg332 O333 2.180 . S
Mg332 O334 2.030 . S
Mg332 O335 1.990 . S
Mg332 O336 2.117 . S
O333 Mg327 2.099 . S
O333 Mg332 2.180 . S
O333 C342 1.279 . S
O334 Mg332 2.030 . S
O334 C340 1.248 . S
O335 Mg332 1.990 . S
O335 C341 1.253 . S
O336 Mg332 2.117 . S
O336 C342 1.250 . S
C337 O343 1.248 . S
C337 O344 1.264 . S
C338 O324 1.253 . S
C338 O326 1.260 . S
C339 O328 1.279 . S
C339 O329 1.250 . S
C340 O330 1.264 . S
C340 O334 1.248 . S
C341 O331 1.260 . S
C341 O335 1.253 . S
C342 O333 1.279 . S
C342 O336 1.250 . S
O343 Mg325 2.030 . S
O343 C337 1.248 . S
O344 Mg327 2.079 . S
O344 C337 1.264 . S
O345 Mg346 1.990 . S
O345 C359 1.253 . S
Mg346 O345 1.990 . S
Mg346 O349 2.180 . S
Mg346 O350 2.117 . S
Mg346 O364 2.030 . S
O347 Mg348 2.072 . S
O347 C359 1.260 . S
Mg348 O347 2.072 . S
Mg348 O349 2.099 . S
Mg348 O351 2.079 . S
Mg348 O352 2.072 . S
Mg348 O354 2.099 . S
Mg348 O365 2.079 . S
O349 Mg346 2.180 . S
O349 Mg348 2.099 . S
O349 C360 1.279 . S
O350 Mg346 2.117 . S
O350 C360 1.250 . S
O351 Mg348 2.079 . S
O351 C361 1.264 . S
O352 Mg348 2.072 . S
O352 C362 1.260 . S
Mg353 O354 2.180 . S
Mg353 O355 2.030 . S
Mg353 O356 1.990 . S
Mg353 O357 2.117 1_545 S
O354 Mg348 2.099 . S
O354 Mg353 2.180 . S
O354 C363 1.287 . S
O355 Mg353 2.030 . S
O355 C361 1.248 . S
O356 Mg353 1.990 . S
O356 C362 1.253 . S
O357 Mg353 2.117 1_565 S
O357 C363 1.241 1_565 S
C358 O364 1.248 . S
C358 O365 1.264 . S
C359 O345 1.253 . S
C359 O347 1.260 . S
C360 O349 1.279 . S
C360 O350 1.250 . S
C361 O351 1.264 . S
C361 O355 1.248 . S
C362 O352 1.260 . S
C362 O356 1.253 . S
C363 O354 1.287 . S
C363 O357 1.241 1_545 S
O364 Mg346 2.030 . S
O364 C358 1.248 . S
O365 Mg348 2.079 . S
O365 C358 1.264 . S
O366 Mg367 1.990 . S
O366 C380 1.253 . S
Mg367 O366 1.990 . S
Mg367 O370 2.180 . S
Mg367 O371 2.117 . S
Mg367 O385 2.030 . S
O368 Mg369 2.072 . S
O368 C380 1.260 . S
Mg369 O368 2.072 . S
Mg369 O370 2.099 . S
Mg369 O372 2.079 . S
Mg369 O373 2.072 . S
Mg369 O375 2.099 . S
Mg369 O386 2.079 . S
O370 Mg367 2.180 . S
O370 Mg369 2.099 . S
O370 C381 1.279 . S
O371 Mg367 2.117 . S
O371 C381 1.250 . S
O372 Mg369 2.079 . S
O372 C382 1.264 . S
O373 Mg369 2.072 . S
O373 C383 1.260 . S
Mg374 O375 2.180 . S
Mg374 O376 2.030 . S
Mg374 O377 1.990 1_655 S
Mg374 O378 2.117 . S
O375 Mg369 2.099 . S
O375 Mg374 2.180 . S
O375 C384 1.279 . S
O376 Mg374 2.030 . S
O376 C382 1.248 . S
O377 Mg374 1.990 1_455 S
O377 C383 1.253 1_455 S
O378 Mg374 2.117 . S
O378 C384 1.250 . S
C379 O385 1.248 . S
C379 O386 1.264 . S
C380 O366 1.253 . S
C380 O368 1.260 . S
C381 O370 1.279 . S
C381 O371 1.250 . S
C382 O372 1.264 . S
C382 O376 1.248 . S
C383 O373 1.260 . S
C383 O377 1.253 1_655 S
C384 O375 1.279 . S
C384 O378 1.250 . S
O385 Mg367 2.030 . S
O385 C379 1.248 . S
O386 Mg369 2.079 . S
O386 C379 1.264 . S
C147 C215 1.414 . S
C158 C236 1.342 . S
C136 C258 1.204 . S
C125 C237 1.139 . S
C257 C103 1.377 . S
C114 C216 1.192 . S
C211 C131 1.458 . S
C232 C109 1.488 . S
C120 C255 1.184 . S
C153 C234 1.162 . S
C164 C253 1.439 . S
C213 C142 1.254 1_556 S
C278 C15 1.414 1_455 S
C26 C299 1.342 . S
C4 C321 1.204 . S
C191 C300 1.139 . S
C169 C320 1.377 . S
C180 C279 1.192 . S
C197 C274 1.457 . S
C175 C295 1.488 . S
C318 C186 1.184 . S
C21 C297 1.162 . S
C316 C32 1.439 1_455 S
C10 C276 1.254 . S
C341 C81 1.414 . S
C92 C362 1.342 . S
C384 C70 1.204 . S
C363 C59 1.136 1_545 S
C383 C37 1.378 1_655 S
C48 C342 1.192 . S
C65 C337 1.457 1_455 S
C43 C358 1.488 . S
C381 C54 1.184 . S
C87 C360 1.162 . S
C98 C379 1.439 . S
C76 C339 1.254 . S
C170 C214 1.481 . S
C235 C181 1.543 . S
C192 C254 1.541 . S
C71 C233 1.624 . S
C82 C256 1.582 . S
C212 C93 1.595 . S
C38 C277 1.481 . S
C49 C298 1.543 . S
C60 C317 1.541 . S
C137 C296 1.624 . S
C319 C148 1.582 . S
C159 C275 1.595 . S
C104 C340 1.481 . S
C115 C361 1.543 . S
C380 C126 1.541 . S
C5 C359 1.624 . S
C16 C382 1.582 . S
C27 C338 1.595 . S
