# Generated by pormake.
# Topology pyr, (3,6)-cn, num edge types: 1
# Building blocks:
#     Node 0, Type 0, BuildingBlock: KAKCAD_clean_linker_0, # of connection points: 3
#     Node 1, Type 0, BuildingBlock: KAKCAD_clean_linker_0, # of connection points: 3
#     Node 2, Type 0, BuildingBlock: KAKCAD_clean_linker_0, # of connection points: 3
#     Node 3, Type 0, BuildingBlock: KAKCAD_clean_linker_0, # of connection points: 3
#     Node 4, Type 0, BuildingBlock: KAKCAD_clean_linker_0, # of connection points: 3
#     Node 5, Type 0, BuildingBlock: KAKCAD_clean_linker_0, # of connection points: 3
#     Node 6, Type 0, BuildingBlock: KAKCAD_clean_linker_0, # of connection points: 3
#     Node 7, Type 0, BuildingBlock: KAKCAD_clean_linker_0, # of connection points: 3
#     Node 8, Type 1, BuildingBlock: LEVNOQ01_clean_sbu_1, # of connection points: 6
#     Node 9, Type 1, BuildingBlock: LEVNOQ01_clean_sbu_1, # of connection points: 6
#     Node 10, Type 1, BuildingBlock: LEVNOQ01_clean_sbu_1, # of connection points: 6
#     Node 11, Type 1, BuildingBlock: LEVNOQ01_clean_sbu_1, # of connection points: 6
#     Edge 12, Type (0, 1), BuildingBlock: ZUJKAS_clean_linker_0, # of connection points: 2
#     Edge 13, Type (0, 1), BuildingBlock: ZUJKAS_clean_linker_0, # of connection points: 2
#     Edge 14, Type (0, 1), BuildingBlock: ZUJKAS_clean_linker_0, # of connection points: 2
#     Edge 15, Type (0, 1), BuildingBlock: ZUJKAS_clean_linker_0, # of connection points: 2
#     Edge 16, Type (0, 1), BuildingBlock: ZUJKAS_clean_linker_0, # of connection points: 2
#     Edge 17, Type (0, 1), BuildingBlock: ZUJKAS_clean_linker_0, # of connection points: 2
#     Edge 18, Type (0, 1), BuildingBlock: ZUJKAS_clean_linker_0, # of connection points: 2
#     Edge 19, Type (0, 1), BuildingBlock: ZUJKAS_clean_linker_0, # of connection points: 2
#     Edge 20, Type (0, 1), BuildingBlock: ZUJKAS_clean_linker_0, # of connection points: 2
#     Edge 21, Type (0, 1), BuildingBlock: ZUJKAS_clean_linker_0, # of connection points: 2
#     Edge 22, Type (0, 1), BuildingBlock: ZUJKAS_clean_linker_0, # of connection points: 2
#     Edge 23, Type (0, 1), BuildingBlock: ZUJKAS_clean_linker_0, # of connection points: 2
#     Edge 24, Type (0, 1), BuildingBlock: ZUJKAS_clean_linker_0, # of connection points: 2
#     Edge 25, Type (0, 1), BuildingBlock: ZUJKAS_clean_linker_0, # of connection points: 2
#     Edge 26, Type (0, 1), BuildingBlock: ZUJKAS_clean_linker_0, # of connection points: 2
#     Edge 27, Type (0, 1), BuildingBlock: ZUJKAS_clean_linker_0, # of connection points: 2
#     Edge 28, Type (0, 1), BuildingBlock: ZUJKAS_clean_linker_0, # of connection points: 2
#     Edge 29, Type (0, 1), BuildingBlock: ZUJKAS_clean_linker_0, # of connection points: 2
#     Edge 30, Type (0, 1), BuildingBlock: ZUJKAS_clean_linker_0, # of connection points: 2
#     Edge 31, Type (0, 1), BuildingBlock: ZUJKAS_clean_linker_0, # of connection points: 2
#     Edge 32, Type (0, 1), BuildingBlock: ZUJKAS_clean_linker_0, # of connection points: 2
#     Edge 33, Type (0, 1), BuildingBlock: ZUJKAS_clean_linker_0, # of connection points: 2
#     Edge 34, Type (0, 1), BuildingBlock: ZUJKAS_clean_linker_0, # of connection points: 2
#     Edge 35, Type (0, 1), BuildingBlock: ZUJKAS_clean_linker_0, # of connection points: 2
# Relax obj value: 0.034
# Max RMSD: 0.110
# Mean RMSD: 0.045
data_MOF--net-pry--node1-LEVNOQ01_clean_sbu_1--node2-KAKCAD_clean_linker_0--edge1-ZUJKAS_clean_linker_0
_symmetry_space_group_name_H-M    P1
_symmetry_Int_Tables_number       1
_symmetry_cell_setting            triclinic
loop_
_symmetry_equiv_pos_as_xyz
'x, y, z'
_cell_length_a     57.185653
_cell_length_b     55.499545
_cell_length_c     55.117546
_cell_angle_alpha  92.26076
_cell_angle_beta   90.287363
_cell_angle_gamma 92.611501
loop_
_atom_site_label
_atom_site_type_symbol
_atom_site_fract_x
_atom_site_fract_y
_atom_site_fract_z
_atom_type_partial_charge
C0 C 0.10269 0.12775 0.2151 0.0
C1 C 0.11813 0.12279 0.23407 0.0
C2 C 0.11125 0.13559 0.19284 0.0
C3 C 0.13548 0.13858 0.18891 0.0
C4 C 0.1509 0.13385 0.20793 0.0
C5 C 0.14235 0.1261 0.2302 0.0
C6 C 0.14471 0.14626 0.165 0.0
C7 C 0.13432 0.16472 0.15253 0.0
C8 C 0.14325 0.17229 0.13015 0.0
C9 C 0.16269 0.16085 0.12016 0.0
C10 C 0.1733 0.14232 0.13229 0.0
C11 C 0.16416 0.1352 0.15467 0.0
C12 C 0.19408 0.13051 0.12178 0.0
C13 C 0.19495 0.12396 0.0969 0.0
C14 C 0.21322 0.12563 0.13663 0.0
C15 C 0.23273 0.11451 0.12688 0.0
C16 C 0.23362 0.10783 0.10201 0.0
C17 C 0.13266 0.19251 0.1175 0.0
C18 C 0.10821 0.1943 0.11631 0.0
C19 C 0.14695 0.21036 0.10673 0.0
C20 C 0.1371 0.22957 0.09525 0.0
C21 C 0.11266 0.23146 0.09416 0.0
C22 C 0.09835 0.21349 0.10474 0.0
C23 C 0.21443 0.11271 0.08715 0.0
H24 H 0.08396 0.12507 0.21724 0.0
H25 H 0.09889 0.1388 0.1785 0.0
H26 H 0.16965 0.13636 0.20569 0.0
H27 H 0.15479 0.12293 0.24447 0.0
H28 H 0.11972 0.17378 0.16066 0.0
H29 H 0.17192 0.12057 0.16385 0.0
H30 H 0.16969 0.16649 0.10295 0.0
H31 H 0.18038 0.12717 0.08501 0.0
H32 H 0.21329 0.13078 0.15579 0.0
H33 H 0.24732 0.11154 0.13884 0.0
H34 H 0.09667 0.18077 0.12421 0.0
H35 H 0.16584 0.20972 0.10751 0.0
H36 H 0.21429 0.10754 0.068 0.0
H37 H 0.07948 0.21446 0.10448 0.0
H38 H 0.14867 0.24292 0.0871 0.0
C39 C 0.36971 0.91105 0.70892 0.0
C40 C 0.39394 0.91547 0.71225 0.0
C41 C 0.36086 0.89976 0.68745 0.0
C42 C 0.37601 0.89267 0.66871 0.0
C43 C 0.40024 0.89729 0.67196 0.0
C44 C 0.40909 0.90853 0.69347 0.0
C45 C 0.36654 0.88022 0.64604 0.0
C46 C 0.34565 0.88745 0.63549 0.0
C47 C 0.33617 0.87535 0.61455 0.0
C48 C 0.34789 0.85589 0.60408 0.0
C49 C 0.36871 0.84829 0.61433 0.0
C50 C 0.378 0.86064 0.63522 0.0
C51 C 0.38015 0.82685 0.60363 0.0
C52 C 0.36658 0.80609 0.59621 0.0
C53 C 0.40456 0.82694 0.60067 0.0
C54 C 0.41513 0.80673 0.59037 0.0
C55 C 0.40151 0.78595 0.583 0.0
C56 C 0.31366 0.88246 0.60397 0.0
C57 C 0.29459 0.8874 0.61906 0.0
C58 C 0.31083 0.88361 0.57869 0.0
C59 C 0.28936 0.88941 0.56871 0.0
C60 C 0.27021 0.89409 0.5838 0.0
C61 C 0.27311 0.89311 0.60909 0.0
C62 C 0.37712 0.78591 0.58602 0.0
H63 H 0.35758 0.9158 0.72317 0.0
H64 H 0.34215 0.89612 0.68578 0.0
H65 H 0.41238 0.89241 0.65778 0.0
H66 H 0.42782 0.91196 0.69531 0.0
H67 H 0.33689 0.90276 0.64337 0.0
H68 H 0.39368 0.8544 0.64359 0.0
H69 H 0.34058 0.84637 0.58804 0.0
H70 H 0.34776 0.80532 0.5985 0.0
H71 H 0.41546 0.84273 0.60608 0.0
H72 H 0.43398 0.80724 0.58848 0.0
H73 H 0.29614 0.88644 0.63859 0.0
H74 H 0.32525 0.88008 0.56659 0.0
H75 H 0.3661 0.77029 0.58034 0.0
H76 H 0.25879 0.89694 0.62123 0.0
H77 H 0.28767 0.8899 0.54916 0.0
C78 C 0.70551 0.41029 0.89698 0.0
C79 C 0.7208 0.39465 0.9078 0.0
C80 C 0.68583 0.40108 0.8839 0.0
C81 C 0.68105 0.37603 0.88128 0.0
C82 C 0.69601 0.36047 0.89271 0.0
C83 C 0.71552 0.36967 0.9059 0.0
C84 C 0.66127 0.36594 0.86581 0.0
C85 C 0.65625 0.3761 0.84349 0.0
C86 C 0.63896 0.36539 0.82779 0.0
C87 C 0.62648 0.34442 0.83476 0.0
C88 C 0.63145 0.33386 0.85678 0.0
C89 C 0.64853 0.34497 0.87238 0.0
C90 C 0.62031 0.31012 0.86246 0.0
C91 C 0.5962 0.30523 0.85868 0.0
C92 C 0.63412 0.29171 0.87058 0.0
C93 C 0.62414 0.26881 0.87451 0.0
C94 C 0.6001 0.26381 0.87051 0.0
C95 C 0.63496 0.37515 0.80346 0.0
C96 C 0.63466 0.40017 0.8004 0.0
C97 C 0.63165 0.35938 0.78301 0.0
C98 C 0.62781 0.36837 0.76011 0.0
C99 C 0.62733 0.39334 0.75707 0.0
C100 C 0.63092 0.40917 0.77743 0.0
C101 C 0.58616 0.28231 0.86279 0.0
H102 H 0.70913 0.42963 0.89791 0.0
H103 H 0.67453 0.41359 0.87558 0.0
H104 H 0.69311 0.34107 0.89087 0.0
H105 H 0.72671 0.35711 0.91431 0.0
H106 H 0.66665 0.39163 0.83773 0.0
H107 H 0.65207 0.33704 0.8896 0.0
H108 H 0.61336 0.33581 0.82263 0.0
H109 H 0.58513 0.31912 0.85251 0.0
H110 H 0.65279 0.29484 0.87336 0.0
H111 H 0.63525 0.25501 0.88079 0.0
H112 H 0.63696 0.41277 0.81583 0.0
H113 H 0.63233 0.34004 0.7846 0.0
H114 H 0.56759 0.27894 0.85949 0.0
H115 H 0.63038 0.42851 0.77567 0.0
H116 H 0.62547 0.35574 0.74471 0.0
C117 C 0.87346 0.60037 0.29239 0.0
C118 C 0.89721 0.6011 0.28584 0.0
C119 C 0.86686 0.60529 0.31641 0.0
C120 C 0.88385 0.61096 0.33455 0.0
C121 C 0.90761 0.61152 0.32804 0.0
C122 C 0.9142 0.60669 0.30399 0.0
C123 C 0.87676 0.61681 0.36001 0.0
C124 C 0.85776 0.6041 0.37052 0.0
C125 C 0.85013 0.6104 0.39404 0.0
C126 C 0.86215 0.62929 0.40729 0.0
C127 C 0.88114 0.64227 0.39719 0.0
C128 C 0.88835 0.63584 0.37356 0.0
C129 C 0.89245 0.66344 0.41081 0.0
C130 C 0.87877 0.67944 0.42438 0.0
C131 C 0.91682 0.66813 0.41005 0.0
C132 C 0.92718 0.68851 0.42233 0.0
C133 C 0.91339 0.70464 0.43564 0.0
C134 C 0.82861 0.59861 0.40423 0.0
C135 C 0.80874 0.59358 0.38945 0.0
C136 C 0.82713 0.59393 0.4291 0.0
C137 C 0.80602 0.58553 0.43914 0.0
C138 C 0.7859 0.58148 0.42451 0.0
C139 C 0.7877 0.58505 0.39945 0.0
C140 C 0.8891 0.69965 0.43672 0.0
H141 H 0.8599 0.59582 0.27899 0.0
H142 H 0.84839 0.605 0.32066 0.0
H143 H 0.92117 0.61559 0.34156 0.0
H144 H 0.93265 0.60766 0.29959 0.0
H145 H 0.8489 0.58923 0.36037 0.0
H146 H 0.90236 0.64637 0.36528 0.0
H147 H 0.85628 0.63438 0.42535 0.0
H148 H 0.85992 0.67666 0.42512 0.0
H149 H 0.92791 0.65606 0.39996 0.0
H150 H 0.94591 0.6919 0.42091 0.0
H151 H 0.80913 0.59712 0.37027 0.0
H152 H 0.84219 0.59723 0.44096 0.0
H153 H 0.87796 0.71147 0.44706 0.0
H154 H 0.77269 0.58164 0.38754 0.0
H155 H 0.80529 0.58306 0.45851 0.0
C156 C 0.88538 0.85914 0.77592 0.0
C157 C 0.88772 0.88383 0.77104 0.0
C158 C 0.87705 0.85165 0.7984 0.0
C159 C 0.87078 0.86865 0.81655 0.0
C160 C 0.87329 0.89334 0.81172 0.0
C161 C 0.88163 0.90081 0.78929 0.0
C162 C 0.86111 0.86072 0.84019 0.0
C163 C 0.87067 0.84148 0.85219 0.0
C164 C 0.8612 0.83345 0.87421 0.0
C165 C 0.84195 0.8453 0.8842 0.0
C166 C 0.83242 0.86488 0.87273 0.0
C167 C 0.84206 0.8723 0.85069 0.0
C168 C 0.81229 0.87757 0.88358 0.0
C169 C 0.79338 0.86454 0.89381 0.0
C170 C 0.81172 0.90289 0.88352 0.0
C171 C 0.79269 0.91485 0.89328 0.0
C172 C 0.77368 0.90182 0.90336 0.0
C173 C 0.87134 0.81273 0.88668 0.0
C174 C 0.88061 0.79337 0.87316 0.0
C175 C 0.87181 0.81201 0.9122 0.0
C176 C 0.88097 0.79245 0.92379 0.0
C177 C 0.89034 0.77315 0.91027 0.0
C178 C 0.89014 0.77404 0.88475 0.0
C179 C 0.77432 0.8765 0.90355 0.0
H180 H 0.89014 0.84556 0.76242 0.0
H181 H 0.87515 0.83249 0.80141 0.0
H182 H 0.86886 0.90695 0.82534 0.0
H183 H 0.88298 0.91996 0.78612 0.0
H184 H 0.88587 0.83313 0.84457 0.0
H185 H 0.83425 0.88676 0.8413 0.0
H186 H 0.8343 0.83932 0.90098 0.0
H187 H 0.79306 0.84501 0.89384 0.0
H188 H 0.82615 0.91353 0.87614 0.0
H189 H 0.79302 0.93437 0.89318 0.0
H190 H 0.88033 0.79292 0.85351 0.0
H191 H 0.86526 0.82666 0.92338 0.0
H192 H 0.75986 0.86582 0.9108 0.0
H193 H 0.89753 0.75988 0.87356 0.0
H194 H 0.88042 0.79245 0.94341 0.0
C195 C 0.61376 0.07331 0.31106 0.0
C196 C 0.60648 0.08681 0.29156 0.0
C197 C 0.62166 0.08488 0.33279 0.0
C198 C 0.6223 0.1102 0.33557 0.0
C199 C 0.61472 0.12367 0.31619 0.0
C200 C 0.60695 0.11212 0.29443 0.0
C201 C 0.63131 0.1226 0.3584 0.0
C202 C 0.65178 0.11513 0.3695 0.0
C203 C 0.66093 0.12719 0.39064 0.0
C204 C 0.6492 0.14691 0.40069 0.0
C205 C 0.6287 0.15471 0.38986 0.0
C206 C 0.61985 0.14234 0.36876 0.0
C207 C 0.61694 0.17618 0.40019 0.0
C208 C 0.61502 0.18015 0.42546 0.0
C209 C 0.60799 0.1932 0.3848 0.0
C210 C 0.59762 0.21376 0.39441 0.0
C211 C 0.59605 0.21796 0.41968 0.0
C212 C 0.68309 0.1196 0.40174 0.0
C213 C 0.68768 0.09499 0.40299 0.0
C214 C 0.70005 0.13689 0.41072 0.0
C215 C 0.72117 0.12977 0.42043 0.0
C216 C 0.72589 0.10519 0.42126 0.0
C217 C 0.70884 0.08788 0.41258 0.0
C218 C 0.60472 0.20079 0.43509 0.0
H219 H 0.61378 0.0538 0.30936 0.0
H220 H 0.62721 0.07399 0.34746 0.0
H221 H 0.61519 0.14321 0.31766 0.0
H222 H 0.60123 0.12303 0.27986 0.0
H223 H 0.6611 0.10043 0.36114 0.0
H224 H 0.60381 0.14788 0.36053 0.0
H225 H 0.65622 0.1564 0.41686 0.0
H226 H 0.62147 0.16727 0.43785 0.0
H227 H 0.60937 0.19089 0.36527 0.0
H228 H 0.59082 0.22639 0.38198 0.0
H229 H 0.67486 0.08118 0.39663 0.0
H230 H 0.69729 0.156 0.4097 0.0
H231 H 0.60398 0.20351 0.45463 0.0
H232 H 0.71183 0.06879 0.41329 0.0
H233 H 0.73408 0.14355 0.42666 0.0
C234 C 0.27172 0.60813 0.12931 0.0
C235 C 0.2716 0.60865 0.10386 0.0
C236 C 0.29003 0.61943 0.14287 0.0
C237 C 0.30882 0.63142 0.13133 0.0
C238 C 0.30877 0.63189 0.10581 0.0
C239 C 0.29028 0.62069 0.09221 0.0
C240 C 0.32798 0.64378 0.14612 0.0
C241 C 0.33597 0.6334 0.16731 0.0
C242 C 0.35253 0.64573 0.18267 0.0
C243 C 0.36174 0.66846 0.17622 0.0
C244 C 0.35434 0.67899 0.1549 0.0
C245 C 0.33746 0.66653 0.13994 0.0
C246 C 0.36365 0.7034 0.14873 0.0
C247 C 0.36625 0.72195 0.16678 0.0
C248 C 0.36995 0.70834 0.12476 0.0
C249 C 0.37868 0.73132 0.11899 0.0
C250 C 0.38125 0.7499 0.13705 0.0
C251 C 0.35945 0.63533 0.20595 0.0
C252 C 0.34256 0.62365 0.22041 0.0
C253 C 0.38278 0.63749 0.2142 0.0
C254 C 0.38902 0.62842 0.2365 0.0
C255 C 0.37209 0.61688 0.25097 0.0
C256 C 0.34883 0.61445 0.24263 0.0
C257 C 0.37495 0.74493 0.16101 0.0
H258 H 0.25733 0.59946 0.13884 0.0
H259 H 0.28915 0.6192 0.16248 0.0
H260 H 0.32308 0.64077 0.09634 0.0
H261 H 0.29068 0.62127 0.0726 0.0
H262 H 0.32925 0.61559 0.17188 0.0
H263 H 0.33098 0.67502 0.12403 0.0
H264 H 0.37446 0.67818 0.18801 0.0
H265 H 0.36118 0.71883 0.18535 0.0
H266 H 0.36843 0.69433 0.11052 0.0
H267 H 0.38373 0.73443 0.10042 0.0
H268 H 0.32436 0.62205 0.21482 0.0
H269 H 0.39628 0.64605 0.20335 0.0
H270 H 0.37636 0.75893 0.17527 0.0
H271 H 0.33537 0.60588 0.25352 0.0
H272 H 0.40716 0.6302 0.2423 0.0
C273 C 0.1014 0.29813 0.56741 0.0
C274 C 0.07683 0.2964 0.56802 0.0
C275 C 0.11383 0.31674 0.58028 0.0
C276 C 0.10205 0.33426 0.59399 0.0
C277 C 0.07744 0.33252 0.59471 0.0
C278 C 0.06496 0.31374 0.5819 0.0
C279 C 0.1156 0.35415 0.60743 0.0
C280 C 0.13568 0.36481 0.59696 0.0
C281 C 0.1497 0.38241 0.60983 0.0
C282 C 0.14311 0.38989 0.63336 0.0
C283 C 0.12291 0.37969 0.64413 0.0
C284 C 0.10922 0.36188 0.63099 0.0
C285 C 0.11655 0.387 0.6694 0.0
C286 C 0.13373 0.38939 0.68779 0.0
C287 C 0.09321 0.39135 0.6754 0.0
C288 C 0.08721 0.39798 0.69923 0.0
C289 C 0.10438 0.40023 0.71764 0.0
C290 C 0.17166 0.39214 0.59884 0.0
C291 C 0.18665 0.37644 0.58664 0.0
C292 C 0.17778 0.41697 0.60028 0.0
C293 C 0.19835 0.42591 0.58947 0.0
C294 C 0.21327 0.41017 0.5771 0.0
C295 C 0.20719 0.38532 0.57594 0.0
C296 C 0.1277 0.39585 0.71165 0.0
H297 H 0.1111 0.28474 0.55738 0.0
H298 H 0.13278 0.31713 0.57977 0.0
H299 H 0.0678 0.34583 0.60491 0.0
H300 H 0.04602 0.31292 0.58265 0.0
H301 H 0.14042 0.35945 0.57858 0.0
H302 H 0.09413 0.35334 0.6395 0.0
H303 H 0.1539 0.40343 0.64344 0.0
H304 H 0.15183 0.38592 0.6838 0.0
H305 H 0.0796 0.38979 0.66161 0.0
H306 H 0.06905 0.40102 0.70331 0.0
H307 H 0.18266 0.35715 0.58562 0.0
H308 H 0.16648 0.42953 0.6094 0.0
H309 H 0.14136 0.39763 0.72538 0.0
H310 H 0.21851 0.37259 0.56711 0.0
H311 H 0.20241 0.44517 0.59053 0.0
O312 O 0.00026 0.00662 0.56717 0.0
Mg313 Mg 0.02145 0.02411 0.5422 0.0
O314 O 0.98239 0.98623 0.53692 0.0
Mg315 Mg -0.00104 0.00132 0.50042 0.0
O316 O 0.00622 0.04193 0.51484 0.0
O317 O 0.02252 0.0598 0.54868 0.0
O318 O 0.01664 0.01794 0.46442 0.0
O319 O 0.96172 0.0155 0.49242 0.0
Mg320 Mg 0.98559 0.98158 0.45807 0.0
O321 O 0.98928 0.96024 0.48739 0.0
O322 O 0.0145 0.98873 0.43665 0.0
O323 O 0.95643 0.00295 0.45452 0.0
O324 O 0.97421 0.94751 0.45103 0.0
C325 C 0.05487 -0.00663 0.52012 0.0
C326 C 0.98512 0.99075 0.55973 0.0
C327 C 0.01228 0.06136 0.52793 0.0
C328 C 0.02258 0.00933 0.44356 0.0
C329 C 0.94952 0.01473 0.47297 0.0
C330 C 0.98053 0.943 0.47278 0.0
O331 O 0.05422 0.01115 0.53503 0.0
O332 O 0.03661 0.9864 0.50784 0.0
O333 O 0.47322 0.04081 0.03757 0.0
Mg334 Mg 0.50647 0.04273 0.021 0.0
O335 O 0.46374 0.0106 0.01221 0.0
Mg336 Mg 0.50222 0.00056 0.00184 0.0
O337 O 0.51159 0.03869 0.98434 0.0
O338 O 0.50809 0.0743 0.00471 0.0
O339 O 0.5417 0.99172 0.99129 0.0
O340 O 0.48796 0.99182 0.96202 0.0
Mg341 Mg 0.5096 0.94891 0.98856 0.0
O342 O 0.49014 0.96296 0.01615 0.0
O343 O 0.54553 0.95259 0.99414 0.0
O344 O 0.49646 0.95395 0.95355 0.0
O345 O 0.493 0.92322 0.00788 0.0
C346 C 0.53195 0.02138 0.05286 0.0
C347 C 0.45775 0.02633 0.0282 0.0
C348 C 0.51193 0.06222 0.98482 0.0
C349 C 0.55463 0.97346 0.99155 0.0
C350 C 0.48813 0.97351 0.94719 0.0
C351 C 0.48516 0.94062 0.02127 0.0
O352 O 0.53605 0.04094 0.04261 0.0
O353 O 0.51709 0.00598 0.04304 0.0
O354 O 0.48761 0.54835 0.55572 0.0
Mg355 Mg 0.48606 0.51118 0.56132 0.0
O356 O 0.49127 0.5429 0.51593 0.0
Mg357 Mg 0.49917 0.50223 0.50649 0.0
O358 O 0.51299 0.49449 0.54461 0.0
O359 O 0.50924 0.49763 0.58494 0.0
O360 O 0.50726 0.46165 0.49713 0.0
O361 O 0.53913 0.51616 0.50129 0.0
Mg362 Mg 0.51626 0.50135 0.46174 0.0
O363 O 0.48234 0.50981 0.46791 0.0
O364 O 0.52757 0.46607 0.46385 0.0
O365 O 0.54098 0.52985 0.46468 0.0
O366 O 0.49788 0.50276 0.43095 0.0
C367 C 0.44725 0.48529 0.53281 0.0
C368 C 0.48854 0.55677 0.5347 0.0
C369 C 0.52063 0.49023 0.56615 0.0
C370 C 0.51976 0.4527 0.48025 0.0
C371 C 0.55015 0.52821 0.48531 0.0
C372 C 0.48063 0.50922 0.44428 0.0
O373 O 0.45423 0.49185 0.55402 0.0
O374 O 0.46038 0.48847 0.51437 0.0
O375 O 0.99123 0.44828 0.03391 0.0
Mg376 Mg 0.00567 0.48361 0.03947 0.0
O377 O 0.01216 0.45943 0.00344 0.0
Mg378 Mg -0.0015 0.50034 0.0012 0.0
O379 O 0.98386 0.51151 0.04145 0.0
O380 O 0.99686 0.49221 0.07364 0.0
O381 O 0.98583 0.54183 -0.00148 0.0
O382 O 0.96112 0.48357 0.99385 0.0
Mg383 Mg 0.98986 0.51598 0.96328 0.0
O384 O 0.01253 0.4887 0.96093 0.0
O385 O 0.00444 0.55115 0.96574 0.0
O386 O 0.95306 0.5108 0.96799 0.0
O387 O 0.99438 0.5038 0.92903 0.0
C388 C 0.04996 0.50767 0.02376 0.0
C389 C 0.00395 0.44246 0.01635 0.0
C390 C 0.98407 0.50823 0.06477 0.0
C391 C 0.99326 0.558 0.98413 0.0
C392 C 0.94621 0.4936 0.98091 0.0
C393 C 0.00892 0.48923 0.93756 0.0
O394 O 0.04258 0.49106 0.03727 0.0
O395 O 0.03578 0.51665 0.00913 0.0
H396 H 0.13646 0.08858 0.26245 0.0
H397 H 0.12125 0.07344 0.3006 0.0
H398 H 0.06397 0.12107 0.29728 0.0
H399 H 0.07925 0.13668 0.25929 0.0
H400 H 0.11127 0.09858 0.34593 0.0
H401 H 0.03208 0.05297 0.3028 0.0
H402 H 0.05703 0.06318 0.28541 0.0
H403 H 0.03671 0.08446 0.29698 0.0
C404 C 0.12079 0.09612 0.26993 0.0
C405 C 0.10907 0.11385 0.25763 0.0
C406 C 0.11208 0.08736 0.29174 0.0
C407 C 0.09137 0.09596 0.30169 0.0
C408 C 0.0798 0.11391 0.28975 0.0
H409 H 0.0328 0.05855 0.44447 0.0
H410 H 0.05051 0.08188 0.41161 0.0
C411 C 0.08853 0.12274 0.26795 0.0
C412 C 0.08161 0.08559 0.32418 0.0
H413 H 0.03567 0.05107 0.34525 0.0
C414 C 0.09467 0.08833 0.34587 0.0
C415 C 0.06003 0.07206 0.32399 0.0
C416 C 0.04566 0.06775 0.30105 0.0
C417 C 0.08677 0.07773 0.36733 0.0
C418 C 0.06524 0.06415 0.36707 0.0
C419 C 0.05209 0.06167 0.34545 0.0
C420 C 0.05683 0.05056 0.38831 0.0
C421 C 0.10181 0.08041 0.3899 0.0
C422 C 0.05487 0.02531 0.38629 0.0
C423 C 0.04487 0.01207 0.40489 0.0
C424 C 0.03641 0.02372 0.42601 0.0
C425 C 0.03927 0.04903 0.42854 0.0
C426 C 0.04936 0.06236 0.40976 0.0
H427 H 0.11951 0.08846 0.38617 0.0
H428 H 0.09325 0.09225 0.40354 0.0
H429 H 0.10371 0.06258 0.39799 0.0
H430 H 0.06059 0.01582 0.36997 0.0
H431 H 0.04312 0.99262 0.40232 0.0
H432 H 0.4322 0.90288 0.73807 0.0
H433 H 0.4469 0.92038 0.77689 0.0
H434 H 0.39187 0.971 0.77792 0.0
H435 H 0.37701 0.95355 0.73901 0.0
H436 H 0.46263 0.96727 0.7901 0.0
H437 H 0.38412 0.93964 0.84333 0.0
H438 H 0.38917 0.92772 0.81297 0.0
H439 H 0.3787 0.95757 0.81763 0.0
C440 C 0.42333 0.91788 0.74641 0.0
C441 C 0.40335 0.92673 0.73547 0.0
C442 C 0.43171 0.92782 0.76866 0.0
C443 C 0.42029 0.94677 0.78049 0.0
C444 C 0.40066 0.95604 0.76939 0.0
H445 H 0.45685 0.00478 0.92886 0.0
H446 H 0.43992 0.00328 0.88756 0.0
C447 C 0.3922 0.94605 0.74715 0.0
C448 C 0.42899 0.9565 0.80452 0.0
H449 H 0.41513 0.96019 0.86477 0.0
C450 C 0.45215 0.96597 0.80638 0.0
C451 C 0.41524 0.95494 0.82576 0.0
C452 C 0.39049 0.94427 0.825 0.0
C453 C 0.46217 0.97316 0.82897 0.0
C454 C 0.44877 0.9706 0.85027 0.0
C455 C 0.42528 0.96226 0.84836 0.0
C456 C 0.45975 0.97309 0.87471 0.0
C457 C 0.48725 0.98284 0.82996 0.0
C458 C 0.47634 0.95661 0.88107 0.0
C459 C 0.48576 0.95726 0.90444 0.0
C460 C 0.47886 0.97447 0.9221 0.0
C461 C 0.46257 0.99139 0.91562 0.0
C462 C 0.45288 0.99053 0.89211 0.0
H463 H 0.49275 0.99034 0.81237 0.0
H464 H 0.48984 -0.00289 0.84454 0.0
H465 H 0.49881 0.96793 0.8339 0.0
H466 H 0.48162 0.94278 0.86805 0.0
H467 H 0.49834 0.94402 0.90873 0.0
H468 H 0.64985 0.43128 0.73528 0.0
H469 H 0.64134 0.44709 0.69543 0.0
H470 H 0.58581 0.39247 0.68435 0.0
H471 H 0.59428 0.37652 0.72398 0.0
H472 H 0.61377 0.39898 0.64307 0.0
H473 H 0.58411 0.48621 0.68255 0.0
H474 H 0.61322 0.47865 0.69078 0.0
H475 H 0.58856 0.46055 0.70082 0.0
C476 C 0.63578 0.42271 0.72435 0.0
C477 C 0.62265 0.40273 0.73278 0.0
C478 C 0.63099 0.43172 0.70161 0.0
C479 C 0.61281 0.42107 0.68707 0.0
C480 C 0.59998 0.40087 0.69525 0.0
H481 H 0.52158 0.4428 0.57368 0.0
H482 H 0.55108 0.42456 0.59823 0.0
C483 C 0.60484 0.39178 0.71789 0.0
C484 C 0.6063 0.43145 0.66377 0.0
H485 H 0.58171 0.48034 0.64037 0.0
C486 C 0.60704 0.4169 0.64237 0.0
C487 C 0.59761 0.45484 0.66292 0.0
C488 C 0.5956 0.47096 0.68547 0.0
C489 C 0.59862 0.42488 0.62023 0.0
C490 C 0.58901 0.44786 0.6196 0.0
C491 C 0.58932 0.46281 0.64079 0.0
C492 C 0.57545 0.45563 0.5985 0.0
C493 C 0.59969 0.40844 0.59786 0.0
C494 C 0.57973 0.47875 0.58951 0.0
C495 C 0.56275 0.48919 0.57547 0.0
C496 C 0.54143 0.47655 0.57023 0.0
C497 C 0.5382 0.45257 0.57701 0.0
C498 C 0.5551 0.44216 0.59109 0.0
H499 H 0.61468 0.39646 0.59888 0.0
H500 H 0.58343 0.39675 0.59654 0.0
H501 H 0.60128 0.41885 0.58111 0.0
H502 H 0.59522 0.48952 0.59516 0.0
H503 H 0.56529 0.50793 0.57088 0.0
H504 H 0.93426 0.57553 0.26939 0.0
H505 H 0.94551 0.56685 0.22738 0.0
H506 H 0.88713 0.6057 0.20209 0.0
H507 H 0.87593 0.6149 0.24413 0.0
H508 H 0.89084 0.5601 0.1792 0.0
H509 H 0.97568 0.61232 0.17817 0.0
H510 H 0.97319 0.59251 0.2031 0.0
H511 H 0.95396 0.61717 0.20135 0.0
C512 C 0.92402 0.58262 0.25495 0.0
C513 C 0.90423 0.59601 0.26021 0.0
C514 C 0.93049 0.57764 0.23091 0.0
C515 C 0.91739 0.58599 0.21162 0.0
C516 C 0.89757 0.59923 0.21673 0.0
H517 H 0.97219 0.55584 0.06378 0.0
H518 H 0.95232 0.57872 0.0964 0.0
C519 C 0.89111 0.6043 0.24078 0.0
C520 C 0.92374 0.57967 0.18617 0.0
H521 H 0.96951 0.58139 0.14663 0.0
C522 C 0.90786 0.56515 0.17189 0.0
C523 C 0.9458 0.58657 0.17648 0.0
C524 C 0.96306 0.60321 0.19048 0.0
C525 C 0.91409 0.556 0.14883 0.0
C526 C 0.9368 0.56141 0.13993 0.0
C527 C 0.9521 0.57724 0.15349 0.0
C528 C 0.94623 0.54786 0.11874 0.0
C529 C 0.89665 0.53984 0.13454 0.0
C530 C 0.94919 0.52309 0.12053 0.0
C531 C 0.96062 0.51027 0.10232 0.0
C532 C 0.96929 0.52186 0.08179 0.0
C533 C 0.9655 0.54649 0.07936 0.0
C534 C 0.95427 0.55952 0.09795 0.0
H535 H 0.87839 0.54347 0.13986 0.0
H536 H 0.89855 0.5422 0.11472 0.0
H537 H 0.89973 0.52073 0.13826 0.0
H538 H 0.94347 0.51382 0.13654 0.0
H539 H 0.96322 0.49127 0.10462 0.0
H540 H 0.25446 0.11491 0.05785 0.0
H541 H 0.28946 0.09666 0.04157 0.0
H542 H 0.29623 0.05713 0.10685 0.0
H543 H 0.26061 0.07431 0.12274 0.0
H544 H 0.33268 0.1016 0.05884 0.0
H545 H 0.30625 0.00447 0.05637 0.0
H546 H 0.28545 0.02775 0.06067 0.0
H547 H 0.30244 0.01835 0.08593 0.0
C548 C 0.26304 0.1019 0.06855 0.0
C549 C 0.25458 0.0961 0.09165 0.0
C550 C 0.28319 0.09158 0.05925 0.0
C551 C 0.29535 0.07518 0.07277 0.0
C552 C 0.2869 0.06925 0.09576 0.0
H553 H 0.44161 0.05071 0.06792 0.0
H554 H 0.4015 0.06075 0.07696 0.0
C555 C 0.26669 0.07945 0.10502 0.0
C556 C 0.31781 0.06576 0.06367 0.0
H557 H 0.34766 0.01418 0.05419 0.0
C558 C 0.3358 0.08246 0.05756 0.0
C559 C 0.3219 0.04076 0.06159 0.0
C560 C 0.30289 0.0218 0.06624 0.0
C561 C 0.35793 0.07497 0.05042 0.0
C562 C 0.36249 0.05008 0.04988 0.0
C563 C 0.34426 0.03326 0.05494 0.0
C564 C 0.38642 0.04156 0.04531 0.0
C565 C 0.37632 0.09385 0.04362 0.0
C566 C 0.39119 0.0263 0.02514 0.0
C567 C 0.4143 0.02024 0.01998 0.0
C568 C 0.43291 0.02941 0.03494 0.0
C569 C 0.42777 0.04361 0.05579 0.0
C570 C 0.40482 0.04948 0.06096 0.0
H571 H 0.36829 0.11061 0.0379 0.0
H572 H 0.38767 0.09865 0.05963 0.0
H573 H 0.3875 0.08705 0.02867 0.0
H574 H 0.37719 0.01979 0.01294 0.0
H575 H 0.41767 0.00926 0.00381 0.0
H576 H 0.26222 0.9242 0.54673 0.0
H577 H 0.22441 0.93619 0.53132 0.0
H578 H 0.18873 0.88977 0.5815 0.0
H579 H 0.22643 0.87766 0.597 0.0
H580 H 0.18415 0.90964 0.51112 0.0
H581 H 0.16567 0.95743 0.59905 0.0
H582 H 0.19433 0.94725 0.59144 0.0
H583 H 0.17187 0.92614 0.60116 0.0
C584 C 0.24633 0.91628 0.55425 0.0
C585 C 0.24733 0.9002 0.5733 0.0
C586 C 0.22475 0.92315 0.54543 0.0
C587 C 0.2038 0.91409 0.55548 0.0
C588 C 0.20471 0.89728 0.57378 0.0
H589 H 0.06071 0.9451 0.50936 0.0
H590 H 0.09687 0.92346 0.51507 0.0
C591 C 0.22626 0.89046 0.58267 0.0
C592 C 0.18113 0.92348 0.54797 0.0
H593 H 0.13631 0.95684 0.56898 0.0
C594 C 0.17357 0.91986 0.52375 0.0
C595 C 0.16754 0.93699 0.56447 0.0
C596 C 0.17528 0.94242 0.59043 0.0
C597 C 0.15277 0.92957 0.51557 0.0
C598 C 0.13924 0.94305 0.53212 0.0
C599 C 0.14668 0.94635 0.55637 0.0
C600 C 0.11826 0.95568 0.52461 0.0
C601 C 0.14577 0.92608 0.48921 0.0
C602 C 0.11847 0.98087 0.52754 0.0
C603 C 0.09802 0.99309 0.52454 0.0
C604 C 0.07684 0.98042 0.51844 0.0
C605 C 0.07684 0.95531 0.51391 0.0
C606 C 0.09746 0.94296 0.51716 0.0
H607 H 0.16001 0.91857 0.47799 0.0
H608 H 0.13022 0.91341 0.48762 0.0
H609 H 0.14091 0.94349 0.48177 0.0
H610 H 0.13434 0.99103 0.5332 0.0
H611 H 0.0986 0.01248 0.52794 0.0
H612 H 0.76385 0.37546 0.90493 0.0
H613 H 0.80059 0.39163 0.92283 0.0
H614 H 0.76521 0.45219 0.95431 0.0
H615 H 0.72797 0.43556 0.93724 0.0
H616 H 0.82152 0.435 0.91219 0.0
H617 H 0.805 0.43137 0.01121 0.0
H618 H 0.78683 0.41476 0.98881 0.0
H619 H 0.78337 0.4465 0.99449 0.0
C620 C 0.76368 0.3919 0.91616 0.0
C621 C 0.74289 0.40413 0.91975 0.0
C622 C 0.78477 0.4012 0.92625 0.0
C623 C 0.78559 0.42294 0.94014 0.0
C624 C 0.76488 0.43514 0.94404 0.0
H625 H 0.90976 0.51555 0.96059 0.0
H626 H 0.8701 0.49876 0.95314 0.0
C627 C 0.74368 0.42578 0.93399 0.0
C628 C 0.80849 0.43365 0.94872 0.0
H629 H 0.84004 0.45249 -0.00066 0.0
C630 C 0.82558 0.43875 0.93125 0.0
C631 C 0.81378 0.43832 0.97361 0.0
C632 C 0.79638 0.43227 0.99318 0.0
C633 C 0.84776 0.4486 0.93794 0.0
C634 C 0.85286 0.45392 0.96275 0.0
C635 C 0.83594 0.44855 0.98032 0.0
C636 C 0.87575 0.46521 0.97046 0.0
C637 C 0.86566 0.45299 0.91836 0.0
C638 C 0.8917 0.45229 0.98366 0.0
C639 C 0.91447 0.4619 0.9881 0.0
C640 C 0.92151 0.48453 0.97932 0.0
C641 C 0.905 0.49792 0.96731 0.0
C642 C 0.88232 0.48838 0.96302 0.0
H643 H 0.861 0.44265 0.90122 0.0
H644 H 0.86661 0.47247 0.91444 0.0
H645 H 0.88329 0.44796 0.92435 0.0
H646 H 0.88686 0.43438 0.98962 0.0
H647 H 0.92677 0.45121 0.99748 0.0
H648 H 0.74305 0.59774 0.41277 0.0
H649 H 0.70514 0.58666 0.43019 0.0
H650 H 0.73828 0.53974 0.47903 0.0
H651 H 0.77649 0.55024 0.46124 0.0
H652 H 0.68592 0.53573 0.43252 0.0
H653 H 0.69526 0.58545 0.52221 0.0
H654 H 0.71241 0.59417 0.49626 0.0
H655 H 0.71876 0.56729 0.51153 0.0
C656 C 0.74236 0.58484 0.42702 0.0
C657 C 0.76286 0.57472 0.43543 0.0
C658 C 0.72068 0.57872 0.43711 0.0
C659 C 0.71899 0.56257 0.456 0.0
C660 C 0.73932 0.55251 0.46467 0.0
H661 H 0.58338 0.51047 0.51515 0.0
H662 H 0.626 0.51808 0.51221 0.0
C663 C 0.76111 0.55854 0.45448 0.0
C664 C 0.69564 0.55563 0.4656 0.0
H665 H 0.65846 0.56632 0.51281 0.0
C666 C 0.68001 0.54211 0.45022 0.0
C667 C 0.6881 0.5639 0.48874 0.0
C668 C 0.70438 0.5786 0.50575 0.0
C669 C 0.65674 0.53733 0.45699 0.0
C670 C 0.64881 0.54667 0.47957 0.0
C671 C 0.66466 0.55927 0.4955 0.0
C672 C 0.62359 0.54534 0.48544 0.0
C673 C 0.64054 0.52292 0.43961 0.0
C674 C 0.60832 0.55896 0.47223 0.0
C675 C 0.5842 0.55462 0.47377 0.0
C676 C 0.57487 0.53666 0.48869 0.0
C677 C 0.5901 0.52447 0.50357 0.0
C678 C 0.61441 0.52873 0.50186 0.0
H679 H 0.65038 0.51242 0.4258 0.0
H680 H 0.62878 0.51029 0.44953 0.0
H681 H 0.62946 0.53544 0.42997 0.0
H682 H 0.61513 0.57199 0.45962 0.0
H683 H 0.57288 0.56443 0.46224 0.0
H684 H 0.07357 0.23129 0.06486 0.0
H685 H 0.05586 0.26588 0.04697 0.0
H686 H 0.11043 0.31338 0.07873 0.0
H687 H 0.12789 0.27906 0.09719 0.0
H688 H 0.06613 0.32952 0.08701 0.0
H689 H 0.07738 0.30561 0.9892 0.0
H690 H 0.06323 0.28222 0.00622 0.0
H691 H 0.09318 0.29148 0.01285 0.0
C692 C 0.08181 0.2491 0.06806 0.0
C693 C 0.10222 0.25233 0.08246 0.0
C694 C 0.07181 0.26883 0.05756 0.0
C695 C 0.08201 0.29221 0.06115 0.0
C696 C 0.10236 0.29549 0.07548 0.0
H697 H 0.04587 0.4281 0.99773 0.0
H698 H 0.065 0.39053 0.00631 0.0
C699 C 0.1124 0.2758 0.08593 0.0
C700 C 0.07076 0.31347 0.05128 0.0
H701 H 0.05311 0.33845 -0.00121 0.0
C702 C 0.06338 0.33148 0.06772 0.0
C703 C 0.06738 0.3162 0.02607 0.0
C704 C 0.07589 0.29798 0.0075 0.0
C705 C 0.05233 0.35185 0.05973 0.0
C706 C 0.0482 0.35419 0.03459 0.0
C707 C 0.05605 0.3365 0.01805 0.0
C708 C 0.03549 0.37488 0.02552 0.0
C709 C 0.04531 0.37083 0.07833 0.0
C710 C 0.01219 0.37796 0.03234 0.0
C711 C 0.00128 0.39929 0.02748 0.0
C712 C 0.01337 0.41796 0.0155 0.0
C713 C 0.03604 0.41402 0.00685 0.0
C714 C 0.04704 0.39262 0.01186 0.0
H715 H 0.05473 0.36938 0.09585 0.0
H716 H 0.04881 0.38925 0.07163 0.0
H717 H 0.02627 0.36848 0.08183 0.0
H718 H 0.00279 0.36433 0.0425 0.0
H719 H 0.98376 0.40168 0.03426 0.0
H720 H 0.55946 0.25192 0.89399 0.0
H721 H 0.544 0.21149 0.90327 0.0
H722 H 0.60167 0.18007 0.86529 0.0
H723 H 0.61732 0.22047 0.85608 0.0
H724 H 0.53087 0.17023 0.87368 0.0
H725 H 0.60693 0.15432 0.93356 0.0
H726 H 0.60117 0.1838 0.92291 0.0
H727 H 0.61378 0.16168 0.90288 0.0
C728 C 0.56868 0.23639 0.88737 0.0
C729 C 0.58973 0.23934 0.87457 0.0
C730 C 0.55986 0.21332 0.89269 0.0
C731 C 0.57191 0.19285 0.88527 0.0
C732 C 0.59238 0.19568 0.87159 0.0
H733 H 0.54225 0.05141 0.94793 0.0
H734 H 0.55627 0.07906 0.9167 0.0
C735 C 0.60129 0.21874 0.86639 0.0
C736 C 0.56356 0.16874 0.89302 0.0
H737 H 0.57685 0.12426 0.93111 0.0
C738 C 0.54104 0.15998 0.88596 0.0
C739 C 0.57695 0.15533 0.90891 0.0
C740 C 0.60098 0.16425 0.91771 0.0
C741 C 0.53116 0.13864 0.89517 0.0
C742 C 0.54407 0.12596 0.91206 0.0
C743 C 0.56709 0.13394 0.91799 0.0
C744 C 0.53284 0.10721 0.92703 0.0
C745 C 0.50672 0.13027 0.88737 0.0
C746 C 0.51485 0.11376 0.94279 0.0
C747 C 0.50712 0.09828 0.9606 0.0
C748 C 0.51716 0.07587 0.963 0.0
C749 C 0.53413 0.06853 0.94628 0.0
C750 C 0.54215 0.08429 0.92853 0.0
H751 H 0.50265 0.13625 0.86888 0.0
H752 H 0.50431 0.11031 0.88754 0.0
H753 H 0.49395 0.13829 0.90008 0.0
H754 H 0.50778 0.13153 0.94234 0.0
H755 H 0.49397 0.10432 0.97326 0.0
H756 H 0.95537 0.71088 0.46041 0.0
H757 H 0.97258 0.74843 0.47934 0.0
H758 H 0.91267 0.78647 0.45664 0.0
H759 H 0.89565 0.74949 0.43744 0.0
H760 H 0.984 0.79176 0.45676 0.0
H761 H 0.91878 0.80698 0.52855 0.0
H762 H 0.92169 0.7779 0.51319 0.0
H763 H 0.90491 0.8006 0.49961 0.0
C764 C 0.94588 0.72726 0.45946 0.0
C765 C 0.92399 0.72709 0.4476 0.0
C766 C 0.95567 0.74863 0.47044 0.0
C767 C 0.94362 0.77008 0.46994 0.0
C768 C 0.92192 0.76996 0.45795 0.0
H769 H 0.94455 0.91248 0.45957 0.0
H770 H 0.93976 0.8696 0.46677 0.0
C771 C 0.91221 0.74875 0.44694 0.0
C772 C 0.95409 0.79322 0.48024 0.0
H773 H 0.93917 0.84309 0.5138 0.0
C774 C 0.97471 0.80275 0.46989 0.0
C775 C 0.94208 0.8074 0.49757 0.0
C776 C 0.92077 0.79757 0.51056 0.0
C777 C 0.9822 0.82698 0.47448 0.0
C778 C 0.96875 0.84184 0.48986 0.0
C779 C 0.94944 0.83164 0.50199 0.0
C780 C 0.97101 0.86843 0.48887 0.0
C781 C 0.00311 0.83719 0.46111 0.0
C782 C 0.98991 0.88216 0.49954 0.0
C783 C 0.99259 0.90701 0.49562 0.0
C784 C 0.9766 0.91807 0.48066 0.0
C785 C 0.95727 0.90436 0.47098 0.0
C786 C 0.95445 0.87988 0.47515 0.0
H787 H 0.01186 0.82315 0.44997 0.0
H788 H -0.00244 0.85143 0.449 0.0
H789 H 0.01602 0.84568 0.4743 0.0
H790 H 0.00283 0.87356 0.51026 0.0
H791 H 0.00767 0.91723 0.50321 0.0
H792 H 0.43674 0.78385 0.54941 0.0
H793 H 0.45448 0.74769 0.53204 0.0
H794 H 0.4093 0.70301 0.57584 0.0
H795 H 0.39153 0.73888 0.59313 0.0
H796 H 0.47836 0.71366 0.55398 0.0
H797 H 0.39967 0.67033 0.50955 0.0
H798 H 0.40087 0.70149 0.5204 0.0
H799 H 0.39426 0.67767 0.54092 0.0
C800 C 0.43061 0.7663 0.55533 0.0
C801 C 0.41258 0.76421 0.5725 0.0
C802 C 0.44067 0.74567 0.54528 0.0
C803 C 0.43281 0.72261 0.55218 0.0
C804 C 0.41511 0.72055 0.56962 0.0
H805 H 0.49332 0.59169 0.57043 0.0
H806 H 0.48292 0.63352 0.56912 0.0
C807 C 0.40502 0.74109 0.57957 0.0
C808 C 0.44387 0.70063 0.54234 0.0
H809 H 0.43062 0.64371 0.51909 0.0
C810 C 0.468 0.69854 0.54588 0.0
C811 C 0.43054 0.68108 0.5312 0.0
C812 C 0.40495 0.68285 0.52504 0.0
C813 C 0.47876 0.67678 0.54035 0.0
C814 C 0.46493 0.65648 0.53151 0.0
C815 C 0.44119 0.65916 0.52616 0.0
C816 C 0.47384 0.63177 0.5309 0.0
C817 C 0.50474 0.67556 0.5447 0.0
C818 C 0.47205 0.61664 0.50983 0.0
C819 C 0.47792 0.5924 0.51055 0.0
C820 C 0.48527 0.58291 0.53247 0.0
C821 C 0.48767 0.59837 0.55325 0.0
C822 C 0.48195 0.62244 0.55249 0.0
H823 H 0.51384 0.69343 0.54237 0.0
H824 H 0.50784 0.6704 0.56366 0.0
H825 H 0.5126 0.66205 0.53219 0.0
H826 H 0.46559 0.62344 0.49303 0.0
H827 H 0.47576 0.5809 0.49428 0.0
H828 H 0.91813 0.92201 0.76213 0.0
H829 H 0.93185 0.93578 0.72289 0.0
H830 H 0.89171 0.87737 0.68639 0.0
H831 H 0.87727 0.86387 0.72559 0.0
H832 H 0.95716 0.91038 0.68774 0.0
H833 H 0.87179 0.93669 0.6505 0.0
H834 H 0.8761 0.9315 0.68231 0.0
H835 H 0.87267 0.90642 0.6608 0.0
C836 C 0.91194 0.91224 0.74577 0.0
C837 C 0.89645 0.8919 0.74707 0.0
C838 C 0.91994 0.92005 0.72334 0.0
C839 C 0.91257 0.90781 0.70166 0.0
C840 C 0.89732 0.88735 0.70283 0.0
H841 H 0.95692 0.94888 0.55381 0.0
H842 H 0.93812 0.92564 0.58627 0.0
C843 C 0.8893 0.87949 0.72531 0.0
C844 C 0.92144 0.91633 0.67801 0.0
H845 H 0.90486 0.94201 0.62554 0.0
C846 C 0.94568 0.91707 0.67406 0.0
C847 C 0.90644 0.92491 0.66005 0.0
C848 C 0.8803 0.92507 0.66357 0.0
C849 C 0.95538 0.92675 0.65302 0.0
C850 C 0.9405 0.93624 0.63554 0.0
C851 C 0.91619 0.93462 0.63893 0.0
C852 C 0.95022 0.95049 0.61539 0.0
C853 C 0.98159 0.92724 0.64989 0.0
C854 C 0.96254 0.97238 0.62098 0.0
C855 C 0.9731 0.98557 0.60271 0.0
C856 C 0.9716 0.97729 0.57824 0.0
C857 C 0.95843 0.95575 0.57245 0.0
C858 C 0.94775 0.94246 0.59094 0.0
H859 H 0.98978 0.91355 0.66095 0.0
H860 H 0.98629 0.92395 0.63055 0.0
H861 H 0.98911 0.94529 0.65591 0.0
H862 H 0.96431 0.97913 0.63965 0.0
H863 H 0.98283 0.00219 0.60794 0.0
H864 H 0.61789 0.09994 0.24569 0.0
H865 H 0.60486 0.08039 0.20711 0.0
H866 H 0.56525 0.02631 0.24564 0.0
H867 H 0.5779 0.04602 0.28444 0.0
H868 H 0.61065 0.02994 0.19075 0.0
H869 H 0.51748 0.05469 0.19765 0.0
H870 H 0.54044 0.07027 0.21556 0.0
H871 H 0.53015 0.04051 0.2231 0.0
C872 C 0.60624 0.08401 0.24598 0.0
C873 C 0.5988 0.07463 0.26814 0.0
C874 C 0.59896 0.07276 0.22393 0.0
C875 C 0.58396 0.05203 0.22354 0.0
C876 C 0.57665 0.04243 0.24557 0.0
H877 H 0.5157 0.99215 0.08898 0.0
H878 H 0.52899 -0.00629 0.13158 0.0
C879 C 0.58403 0.05361 0.26769 0.0
C880 C 0.57601 0.04074 0.19993 0.0
H881 H 0.52881 0.0346 0.16165 0.0
C882 C 0.59269 0.03066 0.18448 0.0
C883 C 0.55253 0.04147 0.19192 0.0
C884 C 0.53403 0.05241 0.20777 0.0
C885 C 0.58669 0.02204 0.16087 0.0
C886 C 0.56351 0.02407 0.15232 0.0
C887 C 0.54656 0.03301 0.16822 0.0
C888 C 0.55727 0.0202 0.12621 0.0
C889 C 0.60538 0.01126 0.14517 0.0
C890 C 0.56891 0.0343 0.10907 0.0
C891 C 0.56141 0.03344 0.08495 0.0
C892 C 0.54195 0.01859 0.07736 0.0
C893 C 0.53085 0.00362 0.09425 0.0
C894 C 0.53835 0.00459 0.11858 0.0
H895 H 0.6188 0.00294 0.15639 0.0
H896 H 0.59783 -0.00264 0.13197 0.0
H897 H 0.61436 0.02576 0.13493 0.0
H898 H 0.58317 0.04689 0.11455 0.0
H899 H 0.57034 0.04521 0.0724 0.0
H900 H 0.35915 0.57323 0.26928 0.0
H901 H 0.37141 0.55707 0.30774 0.0
H902 H 0.41204 0.62303 0.32477 0.0
H903 H 0.40005 0.63918 0.2862 0.0
H904 H 0.43708 0.58413 0.32996 0.0
H905 H 0.35267 0.5706 0.37743 0.0
H906 H 0.35243 0.55631 0.34765 0.0
H907 H 0.35576 0.58868 0.351 0.0
C908 C 0.37038 0.58443 0.28142 0.0
C909 C 0.37868 0.60745 0.27474 0.0
C910 C 0.37725 0.57524 0.30346 0.0
C911 C 0.39227 0.58903 0.31936 0.0
C912 C 0.40031 0.61215 0.31285 0.0
H913 H 0.45516 0.54837 0.45651 0.0
H914 H 0.42946 0.56875 0.42865 0.0
C915 C 0.39358 0.62128 0.29076 0.0
C916 C 0.40141 0.57847 0.34159 0.0
H917 H 0.38522 0.54965 0.39303 0.0
C918 C 0.42572 0.57697 0.34392 0.0
C919 C 0.38659 0.5692 0.35987 0.0
C920 C 0.36042 0.57148 0.35902 0.0
C921 C 0.43558 0.56566 0.36351 0.0
C922 C 0.42073 0.55533 0.38109 0.0
C923 C 0.39648 0.55751 0.37936 0.0
C924 C 0.43051 0.54082 0.40022 0.0
C925 C 0.46185 0.5642 0.36496 0.0
C926 C 0.43849 0.51798 0.39377 0.0
C927 C 0.45318 0.50654 0.40941 0.0
C928 C 0.45991 0.51765 0.43185 0.0
C929 C 0.45 0.53937 0.43938 0.0
C930 C 0.43543 0.55103 0.4235 0.0
H931 H 0.471 0.57674 0.35254 0.0
H932 H 0.46821 0.56843 0.38379 0.0
H933 H 0.46668 0.54554 0.35985 0.0
H934 H 0.43483 0.50988 0.37586 0.0
H935 H 0.4606 0.48976 0.40325 0.0
H936 H 0.11891 0.38051 0.75964 0.0
H937 H 0.1077 0.39151 0.80139 0.0
H938 H 0.06408 0.44614 0.77473 0.0
H939 H 0.07534 0.43546 0.733 0.0
H940 H 0.09672 0.46002 0.81678 0.0
H941 H 0.03902 0.37772 0.82879 0.0
H942 H 0.06789 0.37402 0.81665 0.0
H943 H 0.04642 0.38837 0.79912 0.0
C944 C 0.10708 0.395 0.76269 0.0
C945 C 0.09794 0.40707 0.74301 0.0
C946 C 0.10061 0.40115 0.78652 0.0
C947 C 0.08499 0.41953 0.79106 0.0
C948 C 0.07613 0.43186 0.77154 0.0
H949 H 0.99278 0.47194 0.89397 0.0
H950 H 0.01446 0.45192 0.86172 0.0
C951 C 0.08245 0.42563 0.74773 0.0
C952 C 0.07746 0.4258 0.81609 0.0
H953 H 0.04032 0.40718 0.86062 0.0
C954 C 0.08473 0.44834 0.82663 0.0
C955 C 0.06175 0.41048 0.82871 0.0
C956 C 0.05312 0.38631 0.81784 0.0
C957 C 0.07602 0.45634 0.84919 0.0
C958 C 0.05972 0.44134 0.86147 0.0
C959 C 0.05309 0.41845 0.85129 0.0
C960 C 0.04649 0.45073 0.88256 0.0
C961 C 0.08321 0.48133 0.8591 0.0
C962 C 0.05715 0.45603 0.90532 0.0
C963 C 0.04462 0.46739 0.92406 0.0
C964 C 0.02147 0.47382 0.92 0.0
C965 C 0.01068 0.46742 0.89755 0.0
C966 C 0.02301 0.4559 0.87911 0.0
H967 H 0.0946 0.49143 0.84635 0.0
H968 H 0.06747 0.49181 0.86294 0.0
H969 H 0.09288 0.47997 0.87646 0.0
H970 H 0.07526 0.452 0.90833 0.0
H971 H 0.05334 0.47219 0.94118 0.0
H972 H 0.75227 0.94071 0.88526 0.0
H973 H 0.7184 0.96114 0.90163 0.0
H974 H 0.71414 0.91159 0.95992 0.0
H975 H 0.74848 0.89168 0.94427 0.0
H976 H 0.67415 0.94265 0.90759 0.0
H977 H 0.70991 0.97565 0.99681 0.0
H978 H 0.7283 0.9648 0.97259 0.0
H979 H 0.71305 0.94385 0.99176 0.0
C980 C 0.74441 0.93442 0.90183 0.0
C981 C 0.75322 0.91456 0.91347 0.0
C982 C 0.72495 0.94606 0.91108 0.0
C983 C 0.71394 0.93822 0.93227 0.0
C984 C 0.72264 0.91838 0.94389 0.0
H985 H 0.5877 0.9449 0.00828 0.0
H986 H 0.6277 0.94165 0.99394 0.0
C987 C 0.74211 0.90676 0.93469 0.0
C988 C 0.69254 0.94977 0.94146 0.0
H989 H 0.66791 0.97384 0.99278 0.0
C990 C 0.6729 0.94991 0.92607 0.0
C991 C 0.69095 0.95938 0.96555 0.0
C992 C 0.71177 0.96116 0.98255 0.0
C993 C 0.65135 0.958 0.93454 0.0
C994 C 0.64947 0.96652 0.95897 0.0
C995 C 0.66937 0.96737 0.97405 0.0
C996 C 0.62641 0.97148 0.96996 0.0
C997 C 0.63041 0.95607 0.91767 0.0
C998 C 0.61263 0.99007 0.96204 0.0
C999 C 0.5896 0.99211 0.97042 0.0
C1000 C 0.58008 0.97545 0.98666 0.0
C1001 C 0.59449 0.95792 0.99564 0.0
C1002 C 0.6174 0.95603 0.98748 0.0
H1003 H 0.63403 0.94581 0.90048 0.0
H1004 H 0.61521 0.94708 0.92664 0.0
H1005 H 0.62544 0.97444 0.91308 0.0
H1006 H 0.61939 0.00241 0.94876 0.0
H1007 H 0.57887 0.00572 0.96311 0.0
H1008 H 0.75042 0.12273 0.4616 0.0
H1009 H 0.78906 0.11106 0.47546 0.0
H1010 H 0.79176 0.05918 0.41539 0.0
H1011 H 0.75337 0.07077 0.40131 0.0
H1012 H 0.80339 0.05503 0.48189 0.0
H1013 H 0.85274 0.11159 0.41648 0.0
H1014 H 0.82434 0.1193 0.42788 0.0
H1015 H 0.82663 0.09509 0.40564 0.0
C1016 C 0.75928 0.10885 0.45134 0.0
C1017 C 0.74885 0.09766 0.43035 0.0
C1018 C 0.78123 0.10214 0.45936 0.0
C1019 C 0.79314 0.08432 0.44639 0.0
C1020 C 0.78274 0.07296 0.42562 0.0
H1021 H 0.92053 0.01571 0.43382 0.0
H1022 H 0.88326 0.03473 0.43087 0.0
C1023 C 0.76078 0.07952 0.41769 0.0
C1024 C 0.81676 0.0778 0.45399 0.0
H1025 H 0.87408 0.08338 0.43752 0.0
C1026 C 0.81897 0.06146 0.47254 0.0
C1027 C 0.83687 0.08629 0.44165 0.0
C1028 C 0.83524 0.10416 0.42186 0.0
C1029 C 0.84081 0.05241 0.47827 0.0
C1030 C 0.86087 0.06029 0.46533 0.0
C1031 C 0.85869 0.07742 0.44746 0.0
C1032 C 0.88373 0.04906 0.46794 0.0
C1033 C 0.84206 0.03355 0.49715 0.0
C1034 C 0.89655 0.05092 0.48982 0.0
C1035 C 0.91807 0.03992 0.49164 0.0
C1036 C 0.92707 0.02699 0.47156 0.0
C1037 C 0.91419 0.02547 0.44968 0.0
C1038 C 0.89284 0.03638 0.44792 0.0
H1039 H 0.82442 0.02653 0.50254 0.0
H1040 H 0.85226 0.01818 0.49028 0.0
H1041 H 0.85112 0.04159 0.5136 0.0
H1042 H 0.88998 0.06095 0.50539 0.0
H1043 H 0.92759 0.0415 0.5087 0.0
H1044 H 0.24759 0.62712 0.0662 0.0
H1045 H 0.21126 0.61028 0.04702 0.0
H1046 H 0.21399 0.54785 0.09092 0.0
H1047 H 0.25021 0.56443 0.11004 0.0
H1048 H 0.1982 0.56293 0.02238 0.0
H1049 H 0.1516 0.58048 0.10899 0.0
H1050 H 0.18001 0.59426 0.10267 0.0
H1051 H 0.17744 0.56357 0.11193 0.0
C1052 C 0.24068 0.60958 0.07138 0.0
C1053 C 0.25153 0.59723 0.08986 0.0
C1054 C 0.21993 0.60004 0.06047 0.0
C1055 C 0.20982 0.57806 0.06789 0.0
C1056 C 0.22137 0.56505 0.08526 0.0
H1057 H 0.0845 0.49035 0.05148 0.0
H1058 H 0.12373 0.50812 0.05906 0.0
C1059 C 0.242 0.57456 0.09619 0.0
C1060 C 0.18637 0.56941 0.05897 0.0
H1061 H 0.13095 0.55642 0.07867 0.0
C1062 C 0.18339 0.56168 0.03455 0.0
C1063 C 0.16711 0.56806 0.07492 0.0
C1064 C 0.16904 0.57723 0.10104 0.0
C1065 C 0.16176 0.55158 0.02593 0.0
C1066 C 0.14277 0.54947 0.04215 0.0
C1067 C 0.14563 0.55792 0.06635 0.0
C1068 C 0.11998 0.53756 0.03498 0.0
C1069 C 0.15954 0.54245 -0.00014 0.0
C1070 C 0.10496 0.5481 0.01864 0.0
C1071 C 0.08238 0.53796 0.01424 0.0
C1072 C 0.07449 0.51724 0.02626 0.0
C1073 C 0.08993 0.50637 0.042 0.0
C1074 C 0.1124 0.51647 0.04634 0.0
H1075 H 0.17681 0.5418 0.99078 0.0
H1076 H 0.15087 0.52411 -0.00122 0.0
H1077 H 0.14847 0.5546 0.98974 0.0
H1078 H 0.1104 0.56459 0.00997 0.0
H1079 H 0.07089 0.54678 0.00206 0.0
H1080 H 0.24449 0.44542 0.5952 0.0
H1081 H 0.28227 0.45812 0.57829 0.0
H1082 H 0.27043 0.40806 0.51718 0.0
H1083 H 0.23238 0.39552 0.53372 0.0
H1084 H 0.3131 0.40336 0.54052 0.0
H1085 H 0.30069 0.49884 0.52011 0.0
H1086 H 0.29187 0.49168 0.5503 0.0
H1087 H 0.27645 0.47748 0.52464 0.0
C1088 C 0.24962 0.43751 0.57787 0.0
C1089 C 0.2354 0.41937 0.56589 0.0
C1090 C 0.27124 0.44481 0.56821 0.0
C1091 C 0.27903 0.43423 0.54633 0.0
C1092 C 0.2647 0.41652 0.53404 0.0
H1093 H 0.41823 0.48386 0.49264 0.0
H1094 H 0.37682 0.46945 0.4907 0.0
C1095 C 0.24304 0.40926 0.54363 0.0
C1096 C 0.30303 0.44007 0.53759 0.0
H1097 H 0.3406 0.48721 0.52421 0.0
C1098 C 0.31901 0.42161 0.53648 0.0
C1099 C 0.31065 0.46381 0.532 0.0
C1100 C 0.29396 0.48406 0.53157 0.0
C1101 C 0.34274 0.42656 0.53151 0.0
C1102 C 0.35068 0.45059 0.52773 0.0
C1103 C 0.33446 0.4688 0.52723 0.0
C1104 C 0.37596 0.45762 0.52764 0.0
C1105 C 0.35931 0.40617 0.53122 0.0
C1106 C 0.38903 0.45565 0.54896 0.0
C1107 C 0.41237 0.46395 0.55017 0.0
C1108 C 0.42324 0.47438 0.53005 0.0
C1109 C 0.41035 0.47574 0.50837 0.0
C1110 C 0.38674 0.46763 0.50727 0.0
H1111 H 0.34994 0.38845 0.52732 0.0
H1112 H 0.37322 0.40886 0.51747 0.0
H1113 H 0.36782 0.40557 0.54931 0.0
H1114 H 0.38096 0.44829 0.56497 0.0
H1115 H 0.4218 0.46257 0.56712 0.0
H1116 H 0.91337 0.77298 0.95451 0.0
H1117 H 0.9293 0.73879 0.97434 0.0
H1118 H 0.90749 0.69182 0.91343 0.0
H1119 H 0.88969 0.72537 0.89443 0.0
H1120 H 0.89948 0.66964 0.95331 0.0
H1121 H 0.98992 0.70997 0.95948 0.0
H1122 H 0.96906 0.72763 0.97549 0.0
H1123 H 0.96707 0.72361 0.94294 0.0
C1124 C 0.91155 0.75535 0.94541 0.0
C1125 C 0.90028 0.75223 0.9226 0.0
C1126 C 0.92111 0.7358 0.95667 0.0
C1127 C 0.92022 0.71272 0.94518 0.0
C1128 C 0.90866 0.70944 0.92266 0.0
H1129 H 0.00827 0.59512 0.95665 0.0
H1130 H 0.98999 0.6332 0.95157 0.0
C1131 C 0.89872 0.72884 0.9116 0.0
C1132 C 0.93126 0.69189 0.95636 0.0
H1133 H 0.98322 0.67241 0.97735 0.0
C1134 C 0.91779 0.67028 0.95864 0.0
C1135 C 0.95521 0.6926 0.96325 0.0
C1136 C 0.97123 0.7146 0.95997 0.0
C1137 C 0.92767 0.64924 0.96676 0.0
C1138 C 0.95159 0.64998 0.97374 0.0
C1139 C 0.96485 0.67183 0.97228 0.0
C1140 C 0.96398 0.62774 0.97946 0.0
C1141 C 0.91263 0.62615 0.96645 0.0
C1142 C 0.95618 0.61213 0.99759 0.0
C1143 C 0.96655 0.5899 0.00039 0.0
C1144 C 0.98509 0.58308 0.98528 0.0
C1145 C 0.9939 0.5996 0.96848 0.0
C1146 C 0.98345 0.62153 0.96555 0.0
H1147 H 0.89646 0.62746 0.95541 0.0
H1148 H 0.92242 0.61071 0.95904 0.0
H1149 H 0.90729 0.62225 0.98527 0.0
H1150 H 0.94166 0.61679 0.00911 0.0
H1151 H 0.9594 0.57767 0.01358 0.0
H1152 H 0.37088 0.77524 0.0971 0.0
H1153 H 0.38704 0.81486 0.08623 0.0
H1154 H 0.4277 0.82008 0.15249 0.0
H1155 H 0.41224 0.78004 0.16313 0.0
H1156 H 0.38592 0.86049 0.11162 0.0
H1157 H 0.47672 0.83006 0.09911 0.0
H1158 H 0.45183 0.80908 0.10111 0.0
H1159 H 0.46354 0.82457 0.12802 0.0
C1160 C 0.38342 0.7847 0.10927 0.0
C1161 C 0.39043 0.77437 0.13088 0.0
C1162 C 0.39245 0.80744 0.10316 0.0
C1163 C 0.4087 0.82028 0.11846 0.0
C1164 C 0.41537 0.81033 0.1403 0.0
H1165 H 0.49497 0.94271 0.0696 0.0
H1166 H 0.47415 0.91862 0.09992 0.0
C1167 C 0.40637 0.78754 0.14644 0.0
C1168 C 0.41915 0.8437 0.11094 0.0
H1169 H 0.46996 0.87013 0.09059 0.0
C1170 C 0.40436 0.86276 0.10732 0.0
C1171 C 0.44323 0.84663 0.10553 0.0
C1172 C 0.4598 0.82651 0.10844 0.0
C1173 C 0.41288 0.88442 0.09756 0.0
C1174 C 0.4367 0.88688 0.09097 0.0
C1175 C 0.45172 0.8683 0.09583 0.0
C1176 C 0.44574 0.90652 0.07563 0.0
C1177 C 0.39617 0.90422 0.09387 0.0
C1178 C 0.43619 0.90846 0.05232 0.0
C1179 C 0.44801 0.92215 0.03518 0.0
C1180 C 0.46946 0.9342 0.0411 0.0
C1181 C 0.47813 0.93397 0.06492 0.0
C1182 C 0.46635 0.9201 0.08212 0.0
H1183 H 0.38188 0.90363 0.10744 0.0
H1184 H 0.40531 0.92232 0.09516 0.0
H1185 H 0.38802 0.90165 0.07558 0.0
H1186 H 0.4207 0.8977 0.04666 0.0
H1187 H 0.44137 0.92168 0.0167 0.0
H1188 H 0.08458 0.27811 0.52208 0.0
H1189 H 0.06654 0.24149 0.50245 0.0
H1190 H 0.02246 0.23156 0.56487 0.0
H1191 H 0.04028 0.26818 0.58448 0.0
H1192 H 0.06975 0.19763 0.51972 0.0
H1193 H 0.97612 0.21566 0.51059 0.0
H1194 H -0.00173 0.23949 0.5164 0.0
H1195 H 0.98636 0.22244 0.541 0.0
C1196 C 0.0708 0.26829 0.53146 0.0
C1197 C 0.06392 0.27597 0.55488 0.0
C1198 C 0.06042 0.24746 0.52016 0.0
C1199 C 0.04289 0.23394 0.53199 0.0
C1200 C 0.03545 0.24203 0.55504 0.0
H1201 H 0.99403 0.09708 0.55488 0.0
H1202 H -0.00199 0.14007 0.54767 0.0
C1203 C 0.04574 0.26293 0.56631 0.0
C1204 C 0.03461 0.20984 0.52186 0.0
H1205 H 0.98538 0.17338 0.51274 0.0
C1206 C 0.05132 0.19246 0.5175 0.0
C1207 C 0.01057 0.20314 0.51885 0.0
C1208 C 0.99184 0.22128 0.52171 0.0
C1209 C 0.04464 0.16816 0.51227 0.0
C1210 C 0.02054 0.16113 0.51098 0.0
C1211 C 0.00384 0.17881 0.51366 0.0
C1212 C 0.01266 0.13535 0.51177 0.0
C1213 C 0.06343 0.14994 0.51018 0.0
C1214 C 0.01822 0.11833 0.49333 0.0
C1215 C 0.01579 0.09354 0.49741 0.0
C1216 C 0.00787 0.08572 0.51998 0.0
C1217 C 0.00022 0.10273 0.53734 0.0
C1218 C 0.00247 0.1273 0.53323 0.0
H1219 H 0.08114 0.15809 0.51451 0.0
H1220 H 0.05974 0.13497 0.5226 0.0
H1221 H 0.06367 0.14211 0.49135 0.0
H1222 H 0.02586 0.12421 0.4765 0.0
H1223 H 0.02196 0.0807 0.48387 0.0
H1224 H 0.6016 0.26367 0.4031 0.0
H1225 H 0.5841 0.30032 0.41894 0.0
H1226 H 0.55023 0.26019 0.47531 0.0
H1227 H 0.5673 0.22313 0.45926 0.0
H1228 H 0.53379 0.30645 0.42511 0.0
H1229 H 0.58521 0.31994 0.51118 0.0
H1230 H 0.5952 0.30148 0.48591 0.0
H1231 H 0.57146 0.29061 0.50424 0.0
C1232 C 0.59028 0.2625 0.41874 0.0
C1233 C 0.58578 0.24037 0.42981 0.0
C1234 C 0.58042 0.28352 0.42787 0.0
C1235 C 0.56603 0.28297 0.44837 0.0
C1236 C 0.56156 0.26103 0.45965 0.0
H1237 H 0.50498 0.41631 0.51034 0.0
H1238 H 0.51301 0.3731 0.50553 0.0
C1239 C 0.57137 0.2399 0.45047 0.0
C1240 C 0.55525 0.3054 0.45722 0.0
H1241 H 0.55964 0.35026 0.50152 0.0
C1242 C 0.53915 0.31585 0.442 0.0
C1243 C 0.56213 0.31748 0.47937 0.0
C1244 C 0.57953 0.30699 0.49618 0.0
C1245 C 0.53052 0.33858 0.44783 0.0
C1246 C 0.53849 0.35135 0.46922 0.0
C1247 C 0.55356 0.34036 0.48516 0.0
C1248 C 0.534 0.37726 0.47329 0.0
C1249 C 0.51353 0.34914 0.43059 0.0
C1250 C 0.54361 0.39378 0.45714 0.0
C1251 C 0.53915 0.41817 0.45981 0.0
C1252 C 0.52499 0.42675 0.47879 0.0
C1253 C 0.51584 0.41026 0.49546 0.0
C1254 C 0.5204 0.38563 0.49276 0.0
H1255 H 0.50397 0.33482 0.41932 0.0
H1256 H 0.50062 0.36004 0.44059 0.0
H1257 H 0.52335 0.36113 0.41817 0.0
H1258 H 0.55449 0.38774 0.44226 0.0
H1259 H 0.54672 0.43026 0.44672 0.0
loop_
_geom_bond_atom_site_label_1
_geom_bond_atom_site_label_2
_geom_bond_distance
_geom_bond_site_symmetry_2
_ccdc_geom_bond_type
C0 C1 1.386 . S
C0 C2 1.397 . S
C0 H24 0.931 . S
C1 C0 1.386 . S
C1 C5 1.397 . S
C2 C0 1.397 . S
C2 C3 1.384 . S
C2 H25 0.930 . S
C3 C2 1.384 . S
C3 C4 1.377 . S
C3 C6 1.481 . S
C4 C3 1.377 . S
C4 C5 1.389 . S
C4 H26 0.929 . S
C5 C1 1.397 . S
C5 C4 1.389 . S
C5 H27 0.931 . S
C6 C3 1.481 . S
C6 C7 1.387 . S
C6 C11 1.390 . S
C7 C6 1.387 . S
C7 C8 1.401 . S
C7 H28 0.930 . S
C8 C7 1.401 . S
C8 C9 1.376 . S
C8 C17 1.511 . S
C9 C8 1.376 . S
C9 C10 1.392 . S
C9 H30 0.931 . S
C10 C9 1.392 . S
C10 C11 1.361 . S
C10 C12 1.500 . S
C11 C6 1.390 . S
C11 C10 1.361 . S
C11 H29 0.931 . S
C12 C10 1.500 . S
C12 C13 1.371 . S
C12 C14 1.365 . S
C13 C12 1.371 . S
C13 C23 1.386 . S
C13 H31 0.931 . S
C14 C12 1.365 . S
C14 C15 1.409 . S
C14 H32 0.929 . S
C15 C14 1.409 . S
C15 C16 1.380 . S
C15 H33 0.930 . S
C16 C15 1.380 . S
C16 C23 1.357 . S
C17 C8 1.511 . S
C17 C18 1.341 . S
C17 C19 1.371 . S
C18 C17 1.341 . S
C18 C22 1.394 . S
C18 H34 0.930 . S
C19 C17 1.371 . S
C19 C20 1.392 . S
C19 H35 0.931 . S
C20 C19 1.392 . S
C20 C21 1.331 . S
C20 H38 0.932 . S
C21 C20 1.331 . S
C21 C22 1.336 . S
C22 C18 1.394 . S
C22 C21 1.336 . S
C22 H37 0.929 . S
C23 C13 1.386 . S
C23 C16 1.357 . S
C23 H36 0.928 . S
H24 C0 0.931 . S
H25 C2 0.930 . S
H26 C4 0.929 . S
H27 C5 0.931 . S
H28 C7 0.930 . S
H29 C11 0.931 . S
H30 C9 0.931 . S
H31 C13 0.931 . S
H32 C14 0.929 . S
H33 C15 0.930 . S
H34 C18 0.930 . S
H35 C19 0.931 . S
H36 C23 0.928 . S
H37 C22 0.929 . S
H38 C20 0.932 . S
C39 C40 1.386 . S
C39 C41 1.397 . S
C39 H63 0.931 . S
C40 C39 1.386 . S
C40 C44 1.397 . S
C41 C39 1.397 . S
C41 C42 1.384 . S
C41 H64 0.930 . S
C42 C41 1.384 . S
C42 C43 1.377 . S
C42 C45 1.481 . S
C43 C42 1.377 . S
C43 C44 1.389 . S
C43 H65 0.929 . S
C44 C40 1.397 . S
C44 C43 1.389 . S
C44 H66 0.931 . S
C45 C42 1.481 . S
C45 C46 1.387 . S
C45 C50 1.390 . S
C46 C45 1.387 . S
C46 C47 1.401 . S
C46 H67 0.930 . S
C47 C46 1.401 . S
C47 C48 1.376 . S
C47 C56 1.511 . S
C48 C47 1.376 . S
C48 C49 1.392 . S
C48 H69 0.931 . S
C49 C48 1.392 . S
C49 C50 1.361 . S
C49 C51 1.500 . S
C50 C45 1.390 . S
C50 C49 1.361 . S
C50 H68 0.931 . S
C51 C49 1.500 . S
C51 C52 1.371 . S
C51 C53 1.365 . S
C52 C51 1.371 . S
C52 C62 1.386 . S
C52 H70 0.931 . S
C53 C51 1.365 . S
C53 C54 1.409 . S
C53 H71 0.929 . S
C54 C53 1.409 . S
C54 C55 1.380 . S
C54 H72 0.930 . S
C55 C54 1.380 . S
C55 C62 1.357 . S
C56 C47 1.511 . S
C56 C57 1.341 . S
C56 C58 1.371 . S
C57 C56 1.341 . S
C57 C61 1.394 . S
C57 H73 0.930 . S
C58 C56 1.371 . S
C58 C59 1.392 . S
C58 H74 0.931 . S
C59 C58 1.392 . S
C59 C60 1.331 . S
C59 H77 0.932 . S
C60 C59 1.331 . S
C60 C61 1.336 . S
C61 C57 1.394 . S
C61 C60 1.336 . S
C61 H76 0.929 . S
C62 C52 1.386 . S
C62 C55 1.357 . S
C62 H75 0.928 . S
H63 C39 0.931 . S
H64 C41 0.930 . S
H65 C43 0.929 . S
H66 C44 0.931 . S
H67 C46 0.930 . S
H68 C50 0.931 . S
H69 C48 0.931 . S
H70 C52 0.931 . S
H71 C53 0.929 . S
H72 C54 0.930 . S
H73 C57 0.930 . S
H74 C58 0.931 . S
H75 C62 0.928 . S
H76 C61 0.929 . S
H77 C59 0.932 . S
C78 C79 1.386 . S
C78 C80 1.397 . S
C78 H102 0.931 . S
C79 C78 1.386 . S
C79 C83 1.397 . S
C80 C78 1.397 . S
C80 C81 1.384 . S
C80 H103 0.930 . S
C81 C80 1.384 . S
C81 C82 1.377 . S
C81 C84 1.481 . S
C82 C81 1.377 . S
C82 C83 1.389 . S
C82 H104 0.929 . S
C83 C79 1.397 . S
C83 C82 1.389 . S
C83 H105 0.931 . S
C84 C81 1.481 . S
C84 C85 1.387 . S
C84 C89 1.390 . S
C85 C84 1.387 . S
C85 C86 1.401 . S
C85 H106 0.930 . S
C86 C85 1.401 . S
C86 C87 1.376 . S
C86 C95 1.511 . S
C87 C86 1.376 . S
C87 C88 1.392 . S
C87 H108 0.931 . S
C88 C87 1.392 . S
C88 C89 1.361 . S
C88 C90 1.500 . S
C89 C84 1.390 . S
C89 C88 1.361 . S
C89 H107 0.931 . S
C90 C88 1.500 . S
C90 C91 1.371 . S
C90 C92 1.365 . S
C91 C90 1.371 . S
C91 C101 1.386 . S
C91 H109 0.931 . S
C92 C90 1.365 . S
C92 C93 1.409 . S
C92 H110 0.929 . S
C93 C92 1.409 . S
C93 C94 1.380 . S
C93 H111 0.930 . S
C94 C93 1.380 . S
C94 C101 1.357 . S
C95 C86 1.511 . S
C95 C96 1.341 . S
C95 C97 1.371 . S
C96 C95 1.341 . S
C96 C100 1.394 . S
C96 H112 0.930 . S
C97 C95 1.371 . S
C97 C98 1.392 . S
C97 H113 0.931 . S
C98 C97 1.392 . S
C98 C99 1.331 . S
C98 H116 0.932 . S
C99 C98 1.331 . S
C99 C100 1.336 . S
C100 C96 1.394 . S
C100 C99 1.336 . S
C100 H115 0.929 . S
C101 C91 1.386 . S
C101 C94 1.357 . S
C101 H114 0.928 . S
H102 C78 0.931 . S
H103 C80 0.930 . S
H104 C82 0.929 . S
H105 C83 0.931 . S
H106 C85 0.930 . S
H107 C89 0.931 . S
H108 C87 0.931 . S
H109 C91 0.931 . S
H110 C92 0.929 . S
H111 C93 0.930 . S
H112 C96 0.930 . S
H113 C97 0.931 . S
H114 C101 0.928 . S
H115 C100 0.929 . S
H116 C98 0.932 . S
C117 C118 1.386 . S
C117 C119 1.397 . S
C117 H141 0.931 . S
C118 C117 1.386 . S
C118 C122 1.397 . S
C119 C117 1.397 . S
C119 C120 1.384 . S
C119 H142 0.930 . S
C120 C119 1.384 . S
C120 C121 1.377 . S
C120 C123 1.481 . S
C121 C120 1.377 . S
C121 C122 1.389 . S
C121 H143 0.929 . S
C122 C118 1.397 . S
C122 C121 1.389 . S
C122 H144 0.931 . S
C123 C120 1.481 . S
C123 C124 1.387 . S
C123 C128 1.390 . S
C124 C123 1.387 . S
C124 C125 1.401 . S
C124 H145 0.930 . S
C125 C124 1.401 . S
C125 C126 1.376 . S
C125 C134 1.511 . S
C126 C125 1.376 . S
C126 C127 1.392 . S
C126 H147 0.931 . S
C127 C126 1.392 . S
C127 C128 1.361 . S
C127 C129 1.500 . S
C128 C123 1.390 . S
C128 C127 1.361 . S
C128 H146 0.931 . S
C129 C127 1.500 . S
C129 C130 1.371 . S
C129 C131 1.365 . S
C130 C129 1.371 . S
C130 C140 1.386 . S
C130 H148 0.931 . S
C131 C129 1.365 . S
C131 C132 1.409 . S
C131 H149 0.929 . S
C132 C131 1.409 . S
C132 C133 1.380 . S
C132 H150 0.930 . S
C133 C132 1.380 . S
C133 C140 1.357 . S
C134 C125 1.511 . S
C134 C135 1.341 . S
C134 C136 1.371 . S
C135 C134 1.341 . S
C135 C139 1.394 . S
C135 H151 0.930 . S
C136 C134 1.371 . S
C136 C137 1.392 . S
C136 H152 0.931 . S
C137 C136 1.392 . S
C137 C138 1.331 . S
C137 H155 0.932 . S
C138 C137 1.331 . S
C138 C139 1.336 . S
C139 C135 1.394 . S
C139 C138 1.336 . S
C139 H154 0.929 . S
C140 C130 1.386 . S
C140 C133 1.357 . S
C140 H153 0.928 . S
H141 C117 0.931 . S
H142 C119 0.930 . S
H143 C121 0.929 . S
H144 C122 0.931 . S
H145 C124 0.930 . S
H146 C128 0.931 . S
H147 C126 0.931 . S
H148 C130 0.931 . S
H149 C131 0.929 . S
H150 C132 0.930 . S
H151 C135 0.930 . S
H152 C136 0.931 . S
H153 C140 0.928 . S
H154 C139 0.929 . S
H155 C137 0.932 . S
C156 C157 1.386 . S
C156 C158 1.397 . S
C156 H180 0.931 . S
C157 C156 1.386 . S
C157 C161 1.397 . S
C158 C156 1.397 . S
C158 C159 1.384 . S
C158 H181 0.930 . S
C159 C158 1.384 . S
C159 C160 1.377 . S
C159 C162 1.481 . S
C160 C159 1.377 . S
C160 C161 1.389 . S
C160 H182 0.929 . S
C161 C157 1.397 . S
C161 C160 1.389 . S
C161 H183 0.931 . S
C162 C159 1.481 . S
C162 C163 1.387 . S
C162 C167 1.390 . S
C163 C162 1.387 . S
C163 C164 1.401 . S
C163 H184 0.930 . S
C164 C163 1.401 . S
C164 C165 1.376 . S
C164 C173 1.511 . S
C165 C164 1.376 . S
C165 C166 1.392 . S
C165 H186 0.931 . S
C166 C165 1.392 . S
C166 C167 1.361 . S
C166 C168 1.500 . S
C167 C162 1.390 . S
C167 C166 1.361 . S
C167 H185 0.931 . S
C168 C166 1.500 . S
C168 C169 1.371 . S
C168 C170 1.365 . S
C169 C168 1.371 . S
C169 C179 1.386 . S
C169 H187 0.931 . S
C170 C168 1.365 . S
C170 C171 1.409 . S
C170 H188 0.929 . S
C171 C170 1.409 . S
C171 C172 1.380 . S
C171 H189 0.930 . S
C172 C171 1.380 . S
C172 C179 1.357 . S
C173 C164 1.511 . S
C173 C174 1.341 . S
C173 C175 1.371 . S
C174 C173 1.341 . S
C174 C178 1.394 . S
C174 H190 0.930 . S
C175 C173 1.371 . S
C175 C176 1.392 . S
C175 H191 0.931 . S
C176 C175 1.392 . S
C176 C177 1.331 . S
C176 H194 0.932 . S
C177 C176 1.331 . S
C177 C178 1.336 . S
C178 C174 1.394 . S
C178 C177 1.336 . S
C178 H193 0.929 . S
C179 C169 1.386 . S
C179 C172 1.357 . S
C179 H192 0.928 . S
H180 C156 0.931 . S
H181 C158 0.930 . S
H182 C160 0.929 . S
H183 C161 0.931 . S
H184 C163 0.930 . S
H185 C167 0.931 . S
H186 C165 0.931 . S
H187 C169 0.931 . S
H188 C170 0.929 . S
H189 C171 0.930 . S
H190 C174 0.930 . S
H191 C175 0.931 . S
H192 C179 0.928 . S
H193 C178 0.929 . S
H194 C176 0.932 . S
C195 C196 1.386 . S
C195 C197 1.397 . S
C195 H219 0.931 . S
C196 C195 1.386 . S
C196 C200 1.397 . S
C197 C195 1.397 . S
C197 C198 1.384 . S
C197 H220 0.930 . S
C198 C197 1.384 . S
C198 C199 1.377 . S
C198 C201 1.481 . S
C199 C198 1.377 . S
C199 C200 1.389 . S
C199 H221 0.929 . S
C200 C196 1.397 . S
C200 C199 1.389 . S
C200 H222 0.931 . S
C201 C198 1.481 . S
C201 C202 1.387 . S
C201 C206 1.390 . S
C202 C201 1.387 . S
C202 C203 1.401 . S
C202 H223 0.930 . S
C203 C202 1.401 . S
C203 C204 1.376 . S
C203 C212 1.511 . S
C204 C203 1.376 . S
C204 C205 1.392 . S
C204 H225 0.931 . S
C205 C204 1.392 . S
C205 C206 1.361 . S
C205 C207 1.500 . S
C206 C201 1.390 . S
C206 C205 1.361 . S
C206 H224 0.931 . S
C207 C205 1.500 . S
C207 C208 1.371 . S
C207 C209 1.365 . S
C208 C207 1.371 . S
C208 C218 1.386 . S
C208 H226 0.931 . S
C209 C207 1.365 . S
C209 C210 1.409 . S
C209 H227 0.929 . S
C210 C209 1.409 . S
C210 C211 1.380 . S
C210 H228 0.930 . S
C211 C210 1.380 . S
C211 C218 1.357 . S
C212 C203 1.511 . S
C212 C213 1.341 . S
C212 C214 1.371 . S
C213 C212 1.341 . S
C213 C217 1.394 . S
C213 H229 0.930 . S
C214 C212 1.371 . S
C214 C215 1.392 . S
C214 H230 0.931 . S
C215 C214 1.392 . S
C215 C216 1.331 . S
C215 H233 0.932 . S
C216 C215 1.331 . S
C216 C217 1.336 . S
C217 C213 1.394 . S
C217 C216 1.336 . S
C217 H232 0.929 . S
C218 C208 1.386 . S
C218 C211 1.357 . S
C218 H231 0.928 . S
H219 C195 0.931 . S
H220 C197 0.930 . S
H221 C199 0.929 . S
H222 C200 0.931 . S
H223 C202 0.930 . S
H224 C206 0.931 . S
H225 C204 0.931 . S
H226 C208 0.931 . S
H227 C209 0.929 . S
H228 C210 0.930 . S
H229 C213 0.930 . S
H230 C214 0.931 . S
H231 C218 0.928 . S
H232 C217 0.929 . S
H233 C215 0.932 . S
C234 C235 1.386 . S
C234 C236 1.397 . S
C234 H258 0.931 . S
C235 C234 1.386 . S
C235 C239 1.397 . S
C236 C234 1.397 . S
C236 C237 1.384 . S
C236 H259 0.930 . S
C237 C236 1.384 . S
C237 C238 1.377 . S
C237 C240 1.481 . S
C238 C237 1.377 . S
C238 C239 1.389 . S
C238 H260 0.929 . S
C239 C235 1.397 . S
C239 C238 1.389 . S
C239 H261 0.931 . S
C240 C237 1.481 . S
C240 C241 1.387 . S
C240 C245 1.390 . S
C241 C240 1.387 . S
C241 C242 1.401 . S
C241 H262 0.930 . S
C242 C241 1.401 . S
C242 C243 1.376 . S
C242 C251 1.511 . S
C243 C242 1.376 . S
C243 C244 1.392 . S
C243 H264 0.931 . S
C244 C243 1.392 . S
C244 C245 1.361 . S
C244 C246 1.500 . S
C245 C240 1.390 . S
C245 C244 1.361 . S
C245 H263 0.931 . S
C246 C244 1.500 . S
C246 C247 1.371 . S
C246 C248 1.365 . S
C247 C246 1.371 . S
C247 C257 1.386 . S
C247 H265 0.931 . S
C248 C246 1.365 . S
C248 C249 1.409 . S
C248 H266 0.929 . S
C249 C248 1.409 . S
C249 C250 1.380 . S
C249 H267 0.930 . S
C250 C249 1.380 . S
C250 C257 1.357 . S
C251 C242 1.511 . S
C251 C252 1.341 . S
C251 C253 1.371 . S
C252 C251 1.341 . S
C252 C256 1.394 . S
C252 H268 0.930 . S
C253 C251 1.371 . S
C253 C254 1.392 . S
C253 H269 0.931 . S
C254 C253 1.392 . S
C254 C255 1.331 . S
C254 H272 0.932 . S
C255 C254 1.331 . S
C255 C256 1.336 . S
C256 C252 1.394 . S
C256 C255 1.336 . S
C256 H271 0.929 . S
C257 C247 1.386 . S
C257 C250 1.357 . S
C257 H270 0.928 . S
H258 C234 0.931 . S
H259 C236 0.930 . S
H260 C238 0.929 . S
H261 C239 0.931 . S
H262 C241 0.930 . S
H263 C245 0.931 . S
H264 C243 0.931 . S
H265 C247 0.931 . S
H266 C248 0.929 . S
H267 C249 0.930 . S
H268 C252 0.930 . S
H269 C253 0.931 . S
H270 C257 0.928 . S
H271 C256 0.929 . S
H272 C254 0.932 . S
C273 C274 1.386 . S
C273 C275 1.397 . S
C273 H297 0.931 . S
C274 C273 1.386 . S
C274 C278 1.397 . S
C275 C273 1.397 . S
C275 C276 1.384 . S
C275 H298 0.930 . S
C276 C275 1.384 . S
C276 C277 1.377 . S
C276 C279 1.481 . S
C277 C276 1.377 . S
C277 C278 1.389 . S
C277 H299 0.929 . S
C278 C274 1.397 . S
C278 C277 1.389 . S
C278 H300 0.931 . S
C279 C276 1.481 . S
C279 C280 1.387 . S
C279 C284 1.390 . S
C280 C279 1.387 . S
C280 C281 1.401 . S
C280 H301 0.930 . S
C281 C280 1.401 . S
C281 C282 1.376 . S
C281 C290 1.511 . S
C282 C281 1.376 . S
C282 C283 1.392 . S
C282 H303 0.931 . S
C283 C282 1.392 . S
C283 C284 1.361 . S
C283 C285 1.500 . S
C284 C279 1.390 . S
C284 C283 1.361 . S
C284 H302 0.931 . S
C285 C283 1.500 . S
C285 C286 1.371 . S
C285 C287 1.365 . S
C286 C285 1.371 . S
C286 C296 1.386 . S
C286 H304 0.931 . S
C287 C285 1.365 . S
C287 C288 1.409 . S
C287 H305 0.929 . S
C288 C287 1.409 . S
C288 C289 1.380 . S
C288 H306 0.930 . S
C289 C288 1.380 . S
C289 C296 1.357 . S
C290 C281 1.511 . S
C290 C291 1.341 . S
C290 C292 1.371 . S
C291 C290 1.341 . S
C291 C295 1.394 . S
C291 H307 0.930 . S
C292 C290 1.371 . S
C292 C293 1.392 . S
C292 H308 0.931 . S
C293 C292 1.392 . S
C293 C294 1.331 . S
C293 H311 0.932 . S
C294 C293 1.331 . S
C294 C295 1.336 . S
C295 C291 1.394 . S
C295 C294 1.336 . S
C295 H310 0.929 . S
C296 C286 1.386 . S
C296 C289 1.357 . S
C296 H309 0.928 . S
H297 C273 0.931 . S
H298 C275 0.930 . S
H299 C277 0.929 . S
H300 C278 0.931 . S
H301 C280 0.930 . S
H302 C284 0.931 . S
H303 C282 0.931 . S
H304 C286 0.931 . S
H305 C287 0.929 . S
H306 C288 0.930 . S
H307 C291 0.930 . S
H308 C292 0.931 . S
H309 C296 0.928 . S
H310 C295 0.929 . S
H311 C293 0.932 . S
O312 Mg313 1.990 . S
O312 C326 1.253 1_445 S
Mg313 O312 1.990 . S
Mg313 O316 2.180 . S
Mg313 O317 2.117 . S
Mg313 O331 2.030 1_545 S
O314 Mg315 2.072 1_665 S
O314 C326 1.260 . S
Mg315 O314 2.072 1_445 S
Mg315 O316 2.099 . S
Mg315 O318 2.079 . S
Mg315 O319 2.072 1_455 S
Mg315 O321 2.099 1_445 S
Mg315 O332 2.079 1_545 S
O316 Mg313 2.180 . S
O316 Mg315 2.099 . S
O316 C327 1.279 . S
O317 Mg313 2.117 . S
O317 C327 1.250 . S
O318 Mg315 2.079 . S
O318 C328 1.264 . S
O319 Mg315 2.072 1_655 S
O319 C329 1.260 . S
Mg320 O321 2.180 . S
Mg320 O322 2.030 1_565 S
Mg320 O323 1.990 1_565 S
Mg320 O324 2.117 . S
O321 Mg315 2.099 1_665 S
O321 Mg320 2.180 . S
O321 C330 1.279 . S
O322 Mg320 2.030 1_545 S
O322 C328 1.248 1_655 S
O323 Mg320 1.990 1_545 S
O323 C329 1.253 . S
O324 Mg320 2.117 . S
O324 C330 1.250 . S
C325 O331 1.248 . S
C325 O332 1.264 . S
C326 O312 1.253 1_665 S
C326 O314 1.260 . S
C327 O316 1.279 . S
C327 O317 1.250 . S
C328 O318 1.264 . S
C328 O322 1.248 1_455 S
C329 O319 1.260 . S
C329 O323 1.253 . S
C330 O321 1.279 . S
C330 O324 1.250 . S
O331 Mg313 2.030 1_565 S
O331 C325 1.248 . S
O332 Mg315 2.079 1_565 S
O332 C325 1.264 . S
O333 Mg334 1.990 . S
O333 C347 1.253 . S
Mg334 O333 1.990 . S
Mg334 O337 2.180 . S
Mg334 O338 2.117 1_554 S
Mg334 O352 2.030 . S
O335 Mg336 2.072 . S
O335 C347 1.260 . S
Mg336 O335 2.072 . S
Mg336 O337 2.099 . S
Mg336 O339 2.079 1_554 S
Mg336 O340 2.072 1_554 S
Mg336 O342 2.099 1_545 S
Mg336 O353 2.079 . S
O337 Mg334 2.180 . S
O337 Mg336 2.099 . S
O337 C348 1.279 1_554 S
O338 Mg334 2.117 1_556 S
O338 C348 1.250 . S
O339 Mg336 2.079 1_556 S
O339 C349 1.264 1_545 S
O340 Mg336 2.072 1_556 S
O340 C350 1.260 1_545 S
Mg341 O342 2.180 1_556 S
Mg341 O343 2.030 . S
Mg341 O344 1.990 . S
Mg341 O345 2.117 1_556 S
O342 Mg336 2.099 1_565 S
O342 Mg341 2.180 1_554 S
O342 C351 1.279 . S
O343 Mg341 2.030 . S
O343 C349 1.248 . S
O344 Mg341 1.990 . S
O344 C350 1.253 . S
O345 Mg341 2.117 1_554 S
O345 C351 1.250 . S
C346 O352 1.248 . S
C346 O353 1.264 . S
C347 O333 1.253 . S
C347 O335 1.260 . S
C348 O337 1.279 1_556 S
C348 O338 1.250 . S
C349 O339 1.264 1_565 S
C349 O343 1.248 . S
C350 O340 1.260 1_565 S
C350 O344 1.253 . S
C351 O342 1.279 . S
C351 O345 1.250 . S
O352 Mg334 2.030 . S
O352 C346 1.248 . S
O353 Mg336 2.079 . S
O353 C346 1.264 . S
O354 Mg355 1.990 . S
O354 C368 1.253 . S
Mg355 O354 1.990 . S
Mg355 O358 2.180 . S
Mg355 O359 2.117 . S
Mg355 O373 2.030 . S
O356 Mg357 2.072 . S
O356 C368 1.260 . S
Mg357 O356 2.072 . S
Mg357 O358 2.099 . S
Mg357 O360 2.079 . S
Mg357 O361 2.072 . S
Mg357 O363 2.099 . S
Mg357 O374 2.079 . S
O358 Mg355 2.180 . S
O358 Mg357 2.099 . S
O358 C369 1.279 . S
O359 Mg355 2.117 . S
O359 C369 1.250 . S
O360 Mg357 2.079 . S
O360 C370 1.264 . S
O361 Mg357 2.072 . S
O361 C371 1.260 . S
Mg362 O363 2.180 . S
Mg362 O364 2.030 . S
Mg362 O365 1.990 . S
Mg362 O366 2.117 . S
O363 Mg357 2.099 . S
O363 Mg362 2.180 . S
O363 C372 1.279 . S
O364 Mg362 2.030 . S
O364 C370 1.248 . S
O365 Mg362 1.990 . S
O365 C371 1.253 . S
O366 Mg362 2.117 . S
O366 C372 1.250 . S
C367 O373 1.248 . S
C367 O374 1.264 . S
C368 O354 1.253 . S
C368 O356 1.260 . S
C369 O358 1.279 . S
C369 O359 1.250 . S
C370 O360 1.264 . S
C370 O364 1.248 . S
C371 O361 1.260 . S
C371 O365 1.253 . S
C372 O363 1.279 . S
C372 O366 1.250 . S
O373 Mg355 2.030 . S
O373 C367 1.248 . S
O374 Mg357 2.079 . S
O374 C367 1.264 . S
O375 Mg376 1.990 . S
O375 C389 1.253 . S
Mg376 O375 1.990 . S
Mg376 O379 2.180 1_455 S
Mg376 O380 2.117 1_455 S
Mg376 O394 2.030 . S
O377 Mg378 2.072 . S
O377 C389 1.260 . S
Mg378 O377 2.072 . S
Mg378 O379 2.099 1_455 S
Mg378 O381 2.079 1_454 S
Mg378 O382 2.072 1_455 S
Mg378 O384 2.099 1_554 S
Mg378 O395 2.079 . S
O379 Mg376 2.180 1_655 S
O379 Mg378 2.099 1_655 S
O379 C390 1.279 . S
O380 Mg376 2.117 1_655 S
O380 C390 1.250 . S
O381 Mg378 2.079 1_656 S
O381 C391 1.264 . S
O382 Mg378 2.072 1_655 S
O382 C392 1.260 1_554 S
Mg383 O384 2.180 1_655 S
Mg383 O385 2.030 . S
Mg383 O386 1.990 . S
Mg383 O387 2.140 . S
O384 Mg378 2.099 1_556 S
O384 Mg383 2.180 1_455 S
O384 C393 1.279 . S
O385 Mg383 2.030 . S
O385 C391 1.248 . S
O386 Mg383 1.990 . S
O386 C392 1.253 . S
O387 Mg383 2.140 . S
O387 C393 1.229 1_655 S
C388 O394 1.248 . S
C388 O395 1.264 . S
C389 O375 1.253 . S
C389 O377 1.260 . S
C390 O379 1.279 . S
C390 O380 1.250 . S
C391 O381 1.264 . S
C391 O385 1.248 . S
C392 O382 1.260 1_556 S
C392 O386 1.253 . S
C393 O384 1.279 . S
C393 O387 1.229 1_455 S
O394 Mg376 2.030 . S
O394 C388 1.248 . S
O395 Mg378 2.079 . S
O395 C388 1.264 . S
H396 C404 0.929 . S
H397 C406 0.930 . S
H398 C408 0.930 . S
H399 C411 0.929 . S
H400 C414 0.930 . S
H401 C416 0.960 . S
H402 C416 0.960 . S
H403 C416 0.960 . S
C404 H396 0.929 . S
C404 C405 1.377 . S
C404 C406 1.384 . S
C405 C404 1.377 . S
C405 C411 1.390 . S
C406 H397 0.930 . S
C406 C404 1.384 . S
C406 C407 1.372 . S
C407 C406 1.372 . S
C407 C408 1.400 . S
C407 C412 1.490 . S
C408 H398 0.930 . S
C408 C407 1.400 . S
C408 C411 1.386 . S
H409 C425 0.917 1_655 S
H410 C426 0.931 . S
C411 H399 0.929 . S
C411 C405 1.390 . S
C411 C408 1.386 . S
C412 C407 1.490 . S
C412 C414 1.395 . S
C412 C415 1.403 . S
H413 C419 0.930 . S
C414 H400 0.930 . S
C414 C412 1.395 . S
C414 C417 1.403 . S
C415 C412 1.403 . S
C415 C416 1.524 . S
C415 C419 1.400 . S
C416 H401 0.960 . S
C416 H402 0.960 . S
C416 H403 0.960 . S
C416 C415 1.524 . S
C417 C414 1.403 . S
C417 C418 1.392 . S
C417 C421 1.495 . S
C418 C417 1.392 . S
C418 C419 1.385 . S
C418 C420 1.478 . S
C419 H413 0.930 . S
C419 C415 1.400 . S
C419 C418 1.385 . S
C420 C418 1.478 . S
C420 C422 1.381 . S
C420 C426 1.383 . S
C421 C417 1.495 . S
C421 H427 0.959 . S
C421 H428 0.961 . S
C421 H429 0.960 . S
C422 C420 1.381 . S
C422 C423 1.394 . S
C422 H430 0.930 . S
C423 C422 1.394 . S
C423 C424 1.383 . S
C423 H431 0.929 . S
C424 C423 1.383 . S
C424 C425 1.377 . S
C425 H409 0.917 1_455 S
C425 C424 1.377 . S
C425 C426 1.379 . S
C426 H410 0.931 . S
C426 C420 1.383 . S
C426 C425 1.379 . S
H427 C421 0.959 . S
H428 C421 0.961 . S
H429 C421 0.960 . S
H430 C422 0.930 . S
H431 C423 0.929 . S
H432 C440 0.929 . S
H433 C442 0.930 . S
H434 C444 0.930 . S
H435 C447 0.929 . S
H436 C450 0.930 . S
H437 C452 0.960 . S
H438 C452 0.960 . S
H439 C452 0.960 . S
C440 H432 0.929 . S
C440 C441 1.377 . S
C440 C442 1.384 . S
C441 C440 1.377 . S
C441 C447 1.390 . S
C442 H433 0.930 . S
C442 C440 1.384 . S
C442 C443 1.372 . S
C443 C442 1.372 . S
C443 C444 1.400 . S
C443 C448 1.490 . S
C444 H434 0.930 . S
C444 C443 1.400 . S
C444 C447 1.386 . S
H445 C461 0.930 . S
H446 C462 0.931 1_545 S
C447 H435 0.929 . S
C447 C441 1.390 . S
C447 C444 1.386 . S
C448 C443 1.490 . S
C448 C450 1.395 . S
C448 C451 1.403 . S
H449 C455 0.930 . S
C450 H436 0.930 . S
C450 C448 1.395 . S
C450 C453 1.403 . S
C451 C448 1.403 . S
C451 C452 1.524 . S
C451 C455 1.400 . S
C452 H437 0.960 . S
C452 H438 0.960 . S
C452 H439 0.960 . S
C452 C451 1.524 . S
C453 C450 1.403 . S
C453 C454 1.392 . S
C453 C457 1.495 . S
C454 C453 1.392 . S
C454 C455 1.385 . S
C454 C456 1.478 . S
C455 H449 0.930 . S
C455 C451 1.400 . S
C455 C454 1.385 . S
C456 C454 1.478 . S
C456 C458 1.381 . S
C456 C462 1.383 . S
C457 C453 1.495 . S
C457 H463 0.959 . S
C457 H464 0.961 . S
C457 H465 0.960 . S
C458 C456 1.381 . S
C458 C459 1.394 . S
C458 H466 0.930 . S
C459 C458 1.394 . S
C459 C460 1.383 . S
C459 H467 0.929 . S
C460 C459 1.383 . S
C460 C461 1.377 1_565 S
C461 H445 0.930 . S
C461 C460 1.377 1_545 S
C461 C462 1.379 1_545 S
C462 H446 0.931 1_565 S
C462 C456 1.383 . S
C462 C461 1.379 1_565 S
H463 C457 0.959 . S
H464 C457 0.961 . S
H465 C457 0.960 . S
H466 C458 0.930 . S
H467 C459 0.929 . S
H468 C476 0.929 . S
H469 C478 0.930 . S
H470 C480 0.930 . S
H471 C483 0.929 . S
H472 C486 0.930 . S
H473 C488 0.960 . S
H474 C488 0.960 . S
H475 C488 0.960 . S
C476 H468 0.929 . S
C476 C477 1.377 . S
C476 C478 1.384 . S
C477 C476 1.377 . S
C477 C483 1.390 . S
C478 H469 0.930 . S
C478 C476 1.384 . S
C478 C479 1.372 . S
C479 C478 1.372 . S
C479 C480 1.400 . S
C479 C484 1.490 . S
C480 H470 0.930 . S
C480 C479 1.400 . S
C480 C483 1.386 . S
H481 C497 0.930 . S
H482 C498 0.931 . S
C483 H471 0.929 . S
C483 C477 1.390 . S
C483 C480 1.386 . S
C484 C479 1.490 . S
C484 C486 1.395 . S
C484 C487 1.403 . S
H485 C491 0.930 . S
C486 H472 0.930 . S
C486 C484 1.395 . S
C486 C489 1.403 . S
C487 C484 1.403 . S
C487 C488 1.524 . S
C487 C491 1.400 . S
C488 H473 0.960 . S
C488 H474 0.960 . S
C488 H475 0.960 . S
C488 C487 1.524 . S
C489 C486 1.403 . S
C489 C490 1.392 . S
C489 C493 1.495 . S
C490 C489 1.392 . S
C490 C491 1.385 . S
C490 C492 1.478 . S
C491 H485 0.930 . S
C491 C487 1.400 . S
C491 C490 1.385 . S
C492 C490 1.478 . S
C492 C494 1.381 . S
C492 C498 1.383 . S
C493 C489 1.495 . S
C493 H499 0.959 . S
C493 H500 0.961 . S
C493 H501 0.960 . S
C494 C492 1.381 . S
C494 C495 1.394 . S
C494 H502 0.930 . S
C495 C494 1.394 . S
C495 C496 1.383 . S
C495 H503 0.929 . S
C496 C495 1.383 . S
C496 C497 1.377 . S
C497 H481 0.930 . S
C497 C496 1.377 . S
C497 C498 1.379 . S
C498 H482 0.931 . S
C498 C492 1.383 . S
C498 C497 1.379 . S
H499 C493 0.959 . S
H500 C493 0.961 . S
H501 C493 0.960 . S
H502 C494 0.930 . S
H503 C495 0.929 . S
H504 C512 0.929 . S
H505 C514 0.930 . S
H506 C516 0.930 . S
H507 C519 0.929 . S
H508 C522 0.930 . S
H509 C524 0.960 . S
H510 C524 0.960 . S
H511 C524 0.960 . S
C512 H504 0.929 . S
C512 C513 1.377 . S
C512 C514 1.384 . S
C513 C512 1.377 . S
C513 C519 1.390 . S
C514 H505 0.930 . S
C514 C512 1.384 . S
C514 C515 1.372 . S
C515 C514 1.372 . S
C515 C516 1.400 . S
C515 C520 1.490 . S
C516 H506 0.930 . S
C516 C515 1.400 . S
C516 C519 1.386 . S
H517 C533 0.930 . S
H518 C534 0.931 . S
C519 H507 0.929 . S
C519 C513 1.390 . S
C519 C516 1.386 . S
C520 C515 1.490 . S
C520 C522 1.395 . S
C520 C523 1.403 . S
H521 C527 0.930 . S
C522 H508 0.930 . S
C522 C520 1.395 . S
C522 C525 1.403 . S
C523 C520 1.403 . S
C523 C524 1.524 . S
C523 C527 1.400 . S
C524 H509 0.960 . S
C524 H510 0.960 . S
C524 H511 0.960 . S
C524 C523 1.524 . S
C525 C522 1.403 . S
C525 C526 1.392 . S
C525 C529 1.495 . S
C526 C525 1.392 . S
C526 C527 1.385 . S
C526 C528 1.478 . S
C527 H521 0.930 . S
C527 C523 1.400 . S
C527 C526 1.385 . S
C528 C526 1.478 . S
C528 C530 1.381 . S
C528 C534 1.383 . S
C529 C525 1.495 . S
C529 H535 0.959 . S
C529 H536 0.961 . S
C529 H537 0.960 . S
C530 C528 1.381 . S
C530 C531 1.394 . S
C530 H538 0.930 . S
C531 C530 1.394 . S
C531 C532 1.383 . S
C531 H539 0.929 . S
C532 C531 1.383 . S
C532 C533 1.377 . S
C533 H517 0.930 . S
C533 C532 1.377 . S
C533 C534 1.379 . S
C534 H518 0.931 . S
C534 C528 1.383 . S
C534 C533 1.379 . S
H535 C529 0.959 . S
H536 C529 0.961 . S
H537 C529 0.960 . S
H538 C530 0.930 . S
H539 C531 0.929 . S
H540 C548 0.929 . S
H541 C550 0.930 . S
H542 C552 0.930 . S
H543 C555 0.929 . S
H544 C558 0.930 . S
H545 C560 0.960 . S
H546 C560 0.960 . S
H547 C560 0.960 . S
C548 H540 0.929 . S
C548 C549 1.377 . S
C548 C550 1.384 . S
C549 C548 1.377 . S
C549 C555 1.390 . S
C550 H541 0.930 . S
C550 C548 1.384 . S
C550 C551 1.372 . S
C551 C550 1.372 . S
C551 C552 1.400 . S
C551 C556 1.490 . S
C552 H542 0.930 . S
C552 C551 1.400 . S
C552 C555 1.386 . S
H553 C569 0.930 . S
H554 C570 0.931 . S
C555 H543 0.929 . S
C555 C549 1.390 . S
C555 C552 1.386 . S
C556 C551 1.490 . S
C556 C558 1.395 . S
C556 C559 1.403 . S
H557 C563 0.930 . S
C558 H544 0.930 . S
C558 C556 1.395 . S
C558 C561 1.403 . S
C559 C556 1.403 . S
C559 C560 1.524 . S
C559 C563 1.400 . S
C560 H545 0.960 . S
C560 H546 0.960 . S
C560 H547 0.960 . S
C560 C559 1.524 . S
C561 C558 1.403 . S
C561 C562 1.392 . S
C561 C565 1.495 . S
C562 C561 1.392 . S
C562 C563 1.385 . S
C562 C564 1.478 . S
C563 H557 0.930 . S
C563 C559 1.400 . S
C563 C562 1.385 . S
C564 C562 1.478 . S
C564 C566 1.381 . S
C564 C570 1.383 . S
C565 C561 1.495 . S
C565 H571 0.959 . S
C565 H572 0.961 . S
C565 H573 0.960 . S
C566 C564 1.381 . S
C566 C567 1.394 . S
C566 H574 0.930 . S
C567 C566 1.394 . S
C567 C568 1.383 . S
C567 H575 0.929 . S
C568 C567 1.383 . S
C568 C569 1.377 . S
C569 H553 0.930 . S
C569 C568 1.377 . S
C569 C570 1.379 . S
C570 H554 0.931 . S
C570 C564 1.383 . S
C570 C569 1.379 . S
H571 C565 0.959 . S
H572 C565 0.961 . S
H573 C565 0.960 . S
H574 C566 0.930 . S
H575 C567 0.929 . S
H576 C584 0.929 . S
H577 C586 0.930 . S
H578 C588 0.930 . S
H579 C591 0.929 . S
H580 C594 0.930 . S
H581 C596 0.960 . S
H582 C596 0.960 . S
H583 C596 0.960 . S
C584 H576 0.929 . S
C584 C585 1.377 . S
C584 C586 1.384 . S
C585 C584 1.377 . S
C585 C591 1.390 . S
C586 H577 0.930 . S
C586 C584 1.384 . S
C586 C587 1.372 . S
C587 C586 1.372 . S
C587 C588 1.400 . S
C587 C592 1.490 . S
C588 H578 0.930 . S
C588 C587 1.400 . S
C588 C591 1.386 . S
H589 C605 0.930 . S
H590 C606 0.931 . S
C591 H579 0.929 . S
C591 C585 1.390 . S
C591 C588 1.386 . S
C592 C587 1.490 . S
C592 C594 1.395 . S
C592 C595 1.403 . S
H593 C599 0.930 . S
C594 H580 0.930 . S
C594 C592 1.395 . S
C594 C597 1.403 . S
C595 C592 1.403 . S
C595 C596 1.524 . S
C595 C599 1.400 . S
C596 H581 0.960 . S
C596 H582 0.960 . S
C596 H583 0.960 . S
C596 C595 1.524 . S
C597 C594 1.403 . S
C597 C598 1.392 . S
C597 C601 1.495 . S
C598 C597 1.392 . S
C598 C599 1.385 . S
C598 C600 1.478 . S
C599 H593 0.930 . S
C599 C595 1.400 . S
C599 C598 1.385 . S
C600 C598 1.478 . S
C600 C602 1.381 . S
C600 C606 1.383 . S
C601 C597 1.495 . S
C601 H607 0.959 . S
C601 H608 0.961 . S
C601 H609 0.960 . S
C602 C600 1.381 . S
C602 C603 1.394 . S
C602 H610 0.930 . S
C603 C602 1.394 . S
C603 C604 1.383 . S
C603 H611 0.929 . S
C604 C603 1.383 . S
C604 C605 1.377 . S
C605 H589 0.930 . S
C605 C604 1.377 . S
C605 C606 1.379 . S
C606 H590 0.931 . S
C606 C600 1.383 . S
C606 C605 1.379 . S
H607 C601 0.959 . S
H608 C601 0.961 . S
H609 C601 0.960 . S
H610 C602 0.930 . S
H611 C603 0.929 . S
H612 C620 0.929 . S
H613 C622 0.930 . S
H614 C624 0.930 . S
H615 C627 0.929 . S
H616 C630 0.930 . S
H617 C632 0.948 1_554 S
H618 C632 0.960 . S
H619 C632 0.960 . S
C620 H612 0.929 . S
C620 C621 1.377 . S
C620 C622 1.384 . S
C621 C620 1.377 . S
C621 C627 1.390 . S
C622 H613 0.930 . S
C622 C620 1.384 . S
C622 C623 1.372 . S
C623 C622 1.372 . S
C623 C624 1.400 . S
C623 C628 1.490 . S
C624 H614 0.930 . S
C624 C623 1.400 . S
C624 C627 1.386 . S
H625 C641 0.930 . S
H626 C642 0.931 . S
C627 H615 0.929 . S
C627 C621 1.390 . S
C627 C624 1.386 . S
C628 C623 1.490 . S
C628 C630 1.395 . S
C628 C631 1.403 . S
H629 C635 0.930 . S
C630 H616 0.930 . S
C630 C628 1.395 . S
C630 C633 1.403 . S
C631 C628 1.403 . S
C631 C632 1.524 . S
C631 C635 1.400 . S
C632 H617 0.948 1_556 S
C632 H618 0.960 . S
C632 H619 0.960 . S
C632 C631 1.524 . S
C633 C630 1.403 . S
C633 C634 1.392 . S
C633 C637 1.495 . S
C634 C633 1.392 . S
C634 C635 1.385 . S
C634 C636 1.478 . S
C635 H629 0.930 . S
C635 C631 1.400 . S
C635 C634 1.385 . S
C636 C634 1.478 . S
C636 C638 1.381 . S
C636 C642 1.383 . S
C637 C633 1.495 . S
C637 H643 0.959 . S
C637 H644 0.961 . S
C637 H645 0.960 . S
C638 C636 1.381 . S
C638 C639 1.394 . S
C638 H646 0.930 . S
C639 C638 1.394 . S
C639 C640 1.383 . S
C639 H647 0.929 . S
C640 C639 1.383 . S
C640 C641 1.377 . S
C641 H625 0.930 . S
C641 C640 1.377 . S
C641 C642 1.379 . S
C642 H626 0.931 . S
C642 C636 1.383 . S
C642 C641 1.379 . S
H643 C637 0.959 . S
H644 C637 0.961 . S
H645 C637 0.960 . S
H646 C638 0.930 . S
H647 C639 0.929 . S
H648 C656 0.929 . S
H649 C658 0.930 . S
H650 C660 0.930 . S
H651 C663 0.929 . S
H652 C666 0.930 . S
H653 C668 0.960 . S
H654 C668 0.960 . S
H655 C668 0.960 . S
C656 H648 0.929 . S
C656 C657 1.377 . S
C656 C658 1.384 . S
C657 C656 1.377 . S
C657 C663 1.390 . S
C658 H649 0.930 . S
C658 C656 1.384 . S
C658 C659 1.372 . S
C659 C658 1.372 . S
C659 C660 1.400 . S
C659 C664 1.490 . S
C660 H650 0.930 . S
C660 C659 1.400 . S
C660 C663 1.386 . S
H661 C677 0.930 . S
H662 C678 0.931 . S
C663 H651 0.929 . S
C663 C657 1.390 . S
C663 C660 1.386 . S
C664 C659 1.490 . S
C664 C666 1.395 . S
C664 C667 1.403 . S
H665 C671 0.930 . S
C666 H652 0.930 . S
C666 C664 1.395 . S
C666 C669 1.403 . S
C667 C664 1.403 . S
C667 C668 1.524 . S
C667 C671 1.400 . S
C668 H653 0.960 . S
C668 H654 0.960 . S
C668 H655 0.960 . S
C668 C667 1.524 . S
C669 C666 1.403 . S
C669 C670 1.392 . S
C669 C673 1.495 . S
C670 C669 1.392 . S
C670 C671 1.385 . S
C670 C672 1.478 . S
C671 H665 0.930 . S
C671 C667 1.400 . S
C671 C670 1.385 . S
C672 C670 1.478 . S
C672 C674 1.381 . S
C672 C678 1.383 . S
C673 C669 1.495 . S
C673 H679 0.959 . S
C673 H680 0.961 . S
C673 H681 0.960 . S
C674 C672 1.381 . S
C674 C675 1.394 . S
C674 H682 0.930 . S
C675 C674 1.394 . S
C675 C676 1.383 . S
C675 H683 0.929 . S
C676 C675 1.383 . S
C676 C677 1.377 . S
C677 H661 0.930 . S
C677 C676 1.377 . S
C677 C678 1.379 . S
C678 H662 0.931 . S
C678 C672 1.383 . S
C678 C677 1.379 . S
H679 C673 0.959 . S
H680 C673 0.961 . S
H681 C673 0.960 . S
H682 C674 0.930 . S
H683 C675 0.929 . S
H684 C692 0.929 . S
H685 C694 0.930 . S
H686 C696 0.930 . S
H687 C699 0.929 . S
H688 C702 0.930 . S
H689 C704 0.960 . S
H690 C704 0.960 . S
H691 C704 0.960 . S
C692 H684 0.929 . S
C692 C693 1.377 . S
C692 C694 1.384 . S
C693 C692 1.377 . S
C693 C699 1.390 . S
C694 H685 0.930 . S
C694 C692 1.384 . S
C694 C695 1.372 . S
C695 C694 1.372 . S
C695 C696 1.400 . S
C695 C700 1.490 . S
C696 H686 0.930 . S
C696 C695 1.400 . S
C696 C699 1.386 . S
H697 C713 0.930 . S
H698 C714 0.931 . S
C699 H687 0.929 . S
C699 C693 1.390 . S
C699 C696 1.386 . S
C700 C695 1.490 . S
C700 C702 1.395 . S
C700 C703 1.403 . S
H701 C707 0.930 . S
C702 H688 0.930 . S
C702 C700 1.395 . S
C702 C705 1.403 . S
C703 C700 1.403 . S
C703 C704 1.524 . S
C703 C707 1.400 . S
C704 H689 0.960 . S
C704 H690 0.960 . S
C704 H691 0.960 . S
C704 C703 1.524 . S
C705 C702 1.403 . S
C705 C706 1.392 . S
C705 C709 1.495 . S
C706 C705 1.392 . S
C706 C707 1.385 . S
C706 C708 1.478 . S
C707 H701 0.930 . S
C707 C703 1.400 . S
C707 C706 1.385 . S
C708 C706 1.478 . S
C708 C710 1.381 . S
C708 C714 1.383 . S
C709 C705 1.495 . S
C709 H715 0.959 . S
C709 H716 0.961 . S
C709 H717 0.960 . S
C710 C708 1.381 . S
C710 C711 1.394 . S
C710 H718 0.930 . S
C711 C710 1.394 . S
C711 C712 1.383 . S
C711 H719 0.929 . S
C712 C711 1.383 . S
C712 C713 1.377 . S
C713 H697 0.930 . S
C713 C712 1.377 . S
C713 C714 1.379 . S
C714 H698 0.931 . S
C714 C708 1.383 . S
C714 C713 1.379 . S
H715 C709 0.959 . S
H716 C709 0.961 . S
H717 C709 0.960 . S
H718 C710 0.930 . S
H719 C711 0.929 . S
H720 C728 0.929 . S
H721 C730 0.930 . S
H722 C732 0.930 . S
H723 C735 0.929 . S
H724 C738 0.930 . S
H725 C740 0.960 . S
H726 C740 0.960 . S
H727 C740 0.960 . S
C728 H720 0.929 . S
C728 C729 1.377 . S
C728 C730 1.384 . S
C729 C728 1.377 . S
C729 C735 1.390 . S
C730 H721 0.930 . S
C730 C728 1.384 . S
C730 C731 1.372 . S
C731 C730 1.372 . S
C731 C732 1.400 . S
C731 C736 1.490 . S
C732 H722 0.930 . S
C732 C731 1.400 . S
C732 C735 1.386 . S
H733 C749 0.930 . S
H734 C750 0.931 . S
C735 H723 0.929 . S
C735 C729 1.390 . S
C735 C732 1.386 . S
C736 C731 1.490 . S
C736 C738 1.395 . S
C736 C739 1.403 . S
H737 C743 0.930 . S
C738 H724 0.930 . S
C738 C736 1.395 . S
C738 C741 1.403 . S
C739 C736 1.403 . S
C739 C740 1.524 . S
C739 C743 1.400 . S
C740 H725 0.960 . S
C740 H726 0.960 . S
C740 H727 0.960 . S
C740 C739 1.524 . S
C741 C738 1.403 . S
C741 C742 1.392 . S
C741 C745 1.495 . S
C742 C741 1.392 . S
C742 C743 1.385 . S
C742 C744 1.478 . S
C743 H737 0.930 . S
C743 C739 1.400 . S
C743 C742 1.385 . S
C744 C742 1.478 . S
C744 C746 1.381 . S
C744 C750 1.383 . S
C745 C741 1.495 . S
C745 H751 0.959 . S
C745 H752 0.961 . S
C745 H753 0.960 . S
C746 C744 1.381 . S
C746 C747 1.394 . S
C746 H754 0.930 . S
C747 C746 1.394 . S
C747 C748 1.383 . S
C747 H755 0.929 . S
C748 C747 1.383 . S
C748 C749 1.377 . S
C749 H733 0.930 . S
C749 C748 1.377 . S
C749 C750 1.379 . S
C750 H734 0.931 . S
C750 C744 1.383 . S
C750 C749 1.379 . S
H751 C745 0.959 . S
H752 C745 0.961 . S
H753 C745 0.960 . S
H754 C746 0.930 . S
H755 C747 0.929 . S
H756 C764 0.929 . S
H757 C766 0.930 . S
H758 C768 0.930 . S
H759 C771 0.929 . S
H760 C774 0.930 . S
H761 C776 0.960 . S
H762 C776 0.960 . S
H763 C776 0.960 . S
C764 H756 0.929 . S
C764 C765 1.377 . S
C764 C766 1.384 . S
C765 C764 1.377 . S
C765 C771 1.390 . S
C766 H757 0.930 . S
C766 C764 1.384 . S
C766 C767 1.372 . S
C767 C766 1.372 . S
C767 C768 1.400 . S
C767 C772 1.490 . S
C768 H758 0.930 . S
C768 C767 1.400 . S
C768 C771 1.386 . S
H769 C785 0.930 . S
H770 C786 0.931 . S
C771 H759 0.929 . S
C771 C765 1.390 . S
C771 C768 1.386 . S
C772 C767 1.490 . S
C772 C774 1.395 . S
C772 C775 1.403 . S
H773 C779 0.930 . S
C774 H760 0.930 . S
C774 C772 1.395 . S
C774 C777 1.403 . S
C775 C772 1.403 . S
C775 C776 1.524 . S
C775 C779 1.400 . S
C776 H761 0.960 . S
C776 H762 0.960 . S
C776 H763 0.960 . S
C776 C775 1.524 . S
C777 C774 1.403 . S
C777 C778 1.392 . S
C777 C781 1.495 . S
C778 C777 1.392 . S
C778 C779 1.385 . S
C778 C780 1.478 . S
C779 H773 0.930 . S
C779 C775 1.400 . S
C779 C778 1.385 . S
C780 C778 1.478 . S
C780 C782 1.381 . S
C780 C786 1.383 . S
C781 C777 1.495 . S
C781 H787 0.980 . S
C781 H788 0.961 . S
C781 H789 0.960 1_655 S
C782 C780 1.381 . S
C782 C783 1.394 . S
C782 H790 0.930 1_655 S
C783 C782 1.394 . S
C783 C784 1.383 . S
C783 H791 0.929 1_655 S
C784 C783 1.383 . S
C784 C785 1.377 . S
C785 H769 0.930 . S
C785 C784 1.377 . S
C785 C786 1.379 . S
C786 H770 0.931 . S
C786 C780 1.383 . S
C786 C785 1.379 . S
H787 C781 0.980 . S
H788 C781 0.961 . S
H789 C781 0.960 1_455 S
H790 C782 0.930 1_455 S
H791 C783 0.929 1_455 S
H792 C800 0.929 . S
H793 C802 0.930 . S
H794 C804 0.930 . S
H795 C807 0.929 . S
H796 C810 0.930 . S
H797 C812 0.960 . S
H798 C812 0.960 . S
H799 C812 0.960 . S
C800 H792 0.929 . S
C800 C801 1.377 . S
C800 C802 1.384 . S
C801 C800 1.377 . S
C801 C807 1.390 . S
C802 H793 0.930 . S
C802 C800 1.384 . S
C802 C803 1.372 . S
C803 C802 1.372 . S
C803 C804 1.400 . S
C803 C808 1.490 . S
C804 H794 0.930 . S
C804 C803 1.400 . S
C804 C807 1.386 . S
H805 C821 0.930 . S
H806 C822 0.931 . S
C807 H795 0.929 . S
C807 C801 1.390 . S
C807 C804 1.386 . S
C808 C803 1.490 . S
C808 C810 1.395 . S
C808 C811 1.403 . S
H809 C815 0.930 . S
C810 H796 0.930 . S
C810 C808 1.395 . S
C810 C813 1.403 . S
C811 C808 1.403 . S
C811 C812 1.524 . S
C811 C815 1.400 . S
C812 H797 0.960 . S
C812 H798 0.960 . S
C812 H799 0.960 . S
C812 C811 1.524 . S
C813 C810 1.403 . S
C813 C814 1.392 . S
C813 C817 1.495 . S
C814 C813 1.392 . S
C814 C815 1.385 . S
C814 C816 1.478 . S
C815 H809 0.930 . S
C815 C811 1.400 . S
C815 C814 1.385 . S
C816 C814 1.478 . S
C816 C818 1.381 . S
C816 C822 1.383 . S
C817 C813 1.495 . S
C817 H823 0.959 . S
C817 H824 0.961 . S
C817 H825 0.960 . S
C818 C816 1.381 . S
C818 C819 1.394 . S
C818 H826 0.930 . S
C819 C818 1.394 . S
C819 C820 1.383 . S
C819 H827 0.929 . S
C820 C819 1.383 . S
C820 C821 1.377 . S
C821 H805 0.930 . S
C821 C820 1.377 . S
C821 C822 1.379 . S
C822 H806 0.931 . S
C822 C816 1.383 . S
C822 C821 1.379 . S
H823 C817 0.959 . S
H824 C817 0.961 . S
H825 C817 0.960 . S
H826 C818 0.930 . S
H827 C819 0.929 . S
H828 C836 0.929 . S
H829 C838 0.930 . S
H830 C840 0.930 . S
H831 C843 0.929 . S
H832 C846 0.930 . S
H833 C848 0.960 . S
H834 C848 0.960 . S
H835 C848 0.960 . S
C836 H828 0.929 . S
C836 C837 1.377 . S
C836 C838 1.384 . S
C837 C836 1.377 . S
C837 C843 1.390 . S
C838 H829 0.930 . S
C838 C836 1.384 . S
C838 C839 1.372 . S
C839 C838 1.372 . S
C839 C840 1.400 . S
C839 C844 1.490 . S
C840 H830 0.930 . S
C840 C839 1.400 . S
C840 C843 1.386 . S
H841 C857 0.930 . S
H842 C858 0.931 . S
C843 H831 0.929 . S
C843 C837 1.390 . S
C843 C840 1.386 . S
C844 C839 1.490 . S
C844 C846 1.395 . S
C844 C847 1.403 . S
H845 C851 0.930 . S
C846 H832 0.930 . S
C846 C844 1.395 . S
C846 C849 1.403 . S
C847 C844 1.403 . S
C847 C848 1.524 . S
C847 C851 1.400 . S
C848 H833 0.960 . S
C848 H834 0.960 . S
C848 H835 0.960 . S
C848 C847 1.524 . S
C849 C846 1.403 . S
C849 C850 1.392 . S
C849 C853 1.495 1_655 S
C850 C849 1.392 . S
C850 C851 1.385 . S
C850 C852 1.478 . S
C851 H845 0.930 . S
C851 C847 1.400 . S
C851 C850 1.385 . S
C852 C850 1.478 . S
C852 C854 1.381 . S
C852 C858 1.383 . S
C853 C849 1.495 1_455 S
C853 H859 0.959 . S
C853 H860 0.961 . S
C853 H861 0.965 . S
C854 C852 1.381 . S
C854 C855 1.394 . S
C854 H862 0.930 1_565 S
C855 C854 1.394 . S
C855 C856 1.383 . S
C855 H863 0.929 1_565 S
C856 C855 1.383 . S
C856 C857 1.377 . S
C857 H841 0.930 . S
C857 C856 1.377 . S
C857 C858 1.379 . S
C858 H842 0.931 . S
C858 C852 1.383 . S
C858 C857 1.379 . S
H859 C853 0.959 . S
H860 C853 0.961 . S
H861 C853 0.965 . S
H862 C854 0.930 1_545 S
H863 C855 0.929 1_545 S
H864 C872 0.929 . S
H865 C874 0.930 . S
H866 C876 0.930 . S
H867 C879 0.929 . S
H868 C882 0.930 . S
H869 C884 0.960 . S
H870 C884 0.960 . S
H871 C884 0.960 . S
C872 H864 0.929 . S
C872 C873 1.377 . S
C872 C874 1.384 . S
C873 C872 1.377 . S
C873 C879 1.390 . S
C874 H865 0.930 . S
C874 C872 1.384 . S
C874 C875 1.372 . S
C875 C874 1.372 . S
C875 C876 1.400 . S
C875 C880 1.490 . S
C876 H866 0.930 . S
C876 C875 1.400 . S
C876 C879 1.386 . S
H877 C893 0.930 . S
H878 C894 0.931 . S
C879 H867 0.929 . S
C879 C873 1.390 . S
C879 C876 1.386 . S
C880 C875 1.490 . S
C880 C882 1.395 . S
C880 C883 1.403 . S
H881 C887 0.930 . S
C882 H868 0.930 . S
C882 C880 1.395 . S
C882 C885 1.403 . S
C883 C880 1.403 . S
C883 C884 1.524 . S
C883 C887 1.400 . S
C884 H869 0.960 . S
C884 H870 0.960 . S
C884 H871 0.960 . S
C884 C883 1.524 . S
C885 C882 1.403 . S
C885 C886 1.392 . S
C885 C889 1.495 . S
C886 C885 1.392 . S
C886 C887 1.385 . S
C886 C888 1.478 . S
C887 H881 0.930 . S
C887 C883 1.400 . S
C887 C886 1.385 . S
C888 C886 1.478 . S
C888 C890 1.381 . S
C888 C894 1.383 . S
C889 C885 1.495 . S
C889 H895 0.959 . S
C889 H896 0.961 . S
C889 H897 0.960 . S
C890 C888 1.381 . S
C890 C891 1.394 . S
C890 H898 0.930 . S
C891 C890 1.394 . S
C891 C892 1.383 . S
C891 H899 0.929 . S
C892 C891 1.383 . S
C892 C893 1.377 . S
C893 H877 0.930 . S
C893 C892 1.377 . S
C893 C894 1.379 . S
C894 H878 0.931 . S
C894 C888 1.383 . S
C894 C893 1.379 . S
H895 C889 0.959 . S
H896 C889 0.961 . S
H897 C889 0.960 . S
H898 C890 0.930 . S
H899 C891 0.929 . S
H900 C908 0.929 . S
H901 C910 0.930 . S
H902 C912 0.930 . S
H903 C915 0.929 . S
H904 C918 0.930 . S
H905 C920 0.960 . S
H906 C920 0.960 . S
H907 C920 0.960 . S
C908 H900 0.929 . S
C908 C909 1.377 . S
C908 C910 1.384 . S
C909 C908 1.377 . S
C909 C915 1.390 . S
C910 H901 0.930 . S
C910 C908 1.384 . S
C910 C911 1.372 . S
C911 C910 1.372 . S
C911 C912 1.400 . S
C911 C916 1.490 . S
C912 H902 0.930 . S
C912 C911 1.400 . S
C912 C915 1.386 . S
H913 C929 0.930 . S
H914 C930 0.931 . S
C915 H903 0.929 . S
C915 C909 1.390 . S
C915 C912 1.386 . S
C916 C911 1.490 . S
C916 C918 1.395 . S
C916 C919 1.403 . S
H917 C923 0.930 . S
C918 H904 0.930 . S
C918 C916 1.395 . S
C918 C921 1.403 . S
C919 C916 1.403 . S
C919 C920 1.524 . S
C919 C923 1.400 . S
C920 H905 0.960 . S
C920 H906 0.960 . S
C920 H907 0.960 . S
C920 C919 1.524 . S
C921 C918 1.403 . S
C921 C922 1.392 . S
C921 C925 1.495 . S
C922 C921 1.392 . S
C922 C923 1.385 . S
C922 C924 1.478 . S
C923 H917 0.930 . S
C923 C919 1.400 . S
C923 C922 1.385 . S
C924 C922 1.478 . S
C924 C926 1.381 . S
C924 C930 1.383 . S
C925 C921 1.495 . S
C925 H931 0.959 . S
C925 H932 0.961 . S
C925 H933 0.960 . S
C926 C924 1.381 . S
C926 C927 1.394 . S
C926 H934 0.930 . S
C927 C926 1.394 . S
C927 C928 1.383 . S
C927 H935 0.929 . S
C928 C927 1.383 . S
C928 C929 1.377 . S
C929 H913 0.930 . S
C929 C928 1.377 . S
C929 C930 1.379 . S
C930 H914 0.931 . S
C930 C924 1.383 . S
C930 C929 1.379 . S
H931 C925 0.959 . S
H932 C925 0.961 . S
H933 C925 0.960 . S
H934 C926 0.930 . S
H935 C927 0.929 . S
H936 C944 0.929 . S
H937 C946 0.930 . S
H938 C948 0.930 . S
H939 C951 0.929 . S
H940 C954 0.930 . S
H941 C956 0.960 . S
H942 C956 0.960 . S
H943 C956 0.960 . S
C944 H936 0.929 . S
C944 C945 1.377 . S
C944 C946 1.384 . S
C945 C944 1.377 . S
C945 C951 1.390 . S
C946 H937 0.930 . S
C946 C944 1.384 . S
C946 C947 1.372 . S
C947 C946 1.372 . S
C947 C948 1.400 . S
C947 C952 1.490 . S
C948 H938 0.930 . S
C948 C947 1.400 . S
C948 C951 1.386 . S
H949 C965 0.930 1_655 S
H950 C966 0.931 . S
C951 H939 0.929 . S
C951 C945 1.390 . S
C951 C948 1.386 . S
C952 C947 1.490 . S
C952 C954 1.395 . S
C952 C955 1.403 . S
H953 C959 0.930 . S
C954 H940 0.930 . S
C954 C952 1.395 . S
C954 C957 1.403 . S
C955 C952 1.403 . S
C955 C956 1.524 . S
C955 C959 1.400 . S
C956 H941 0.960 . S
C956 H942 0.960 . S
C956 H943 0.960 . S
C956 C955 1.524 . S
C957 C954 1.403 . S
C957 C958 1.392 . S
C957 C961 1.495 . S
C958 C957 1.392 . S
C958 C959 1.385 . S
C958 C960 1.478 . S
C959 H953 0.930 . S
C959 C955 1.400 . S
C959 C958 1.385 . S
C960 C958 1.478 . S
C960 C962 1.381 . S
C960 C966 1.383 . S
C961 C957 1.495 . S
C961 H967 0.959 . S
C961 H968 0.961 . S
C961 H969 0.960 . S
C962 C960 1.381 . S
C962 C963 1.394 . S
C962 H970 0.930 . S
C963 C962 1.394 . S
C963 C964 1.383 . S
C963 H971 0.929 . S
C964 C963 1.383 . S
C964 C965 1.377 . S
C965 H949 0.930 1_455 S
C965 C964 1.377 . S
C965 C966 1.379 . S
C966 H950 0.931 . S
C966 C960 1.383 . S
C966 C965 1.379 . S
H967 C961 0.959 . S
H968 C961 0.961 . S
H969 C961 0.960 . S
H970 C962 0.930 . S
H971 C963 0.929 . S
H972 C980 0.929 . S
H973 C982 0.930 . S
H974 C984 0.930 . S
H975 C987 0.929 . S
H976 C990 0.930 . S
H977 C992 0.960 . S
H978 C992 0.960 . S
H979 C992 0.960 . S
C980 H972 0.929 . S
C980 C981 1.377 . S
C980 C982 1.384 . S
C981 C980 1.377 . S
C981 C987 1.390 . S
C982 H973 0.930 . S
C982 C980 1.384 . S
C982 C983 1.372 . S
C983 C982 1.372 . S
C983 C984 1.400 . S
C983 C988 1.490 . S
C984 H974 0.930 . S
C984 C983 1.400 . S
C984 C987 1.386 . S
H985 C1001 0.930 1_554 S
H986 C1002 0.931 . S
C987 H975 0.929 . S
C987 C981 1.390 . S
C987 C984 1.386 . S
C988 C983 1.490 . S
C988 C990 1.395 . S
C988 C991 1.403 . S
H989 C995 0.930 . S
C990 H976 0.930 . S
C990 C988 1.395 . S
C990 C993 1.403 . S
C991 C988 1.403 . S
C991 C992 1.524 . S
C991 C995 1.400 . S
C992 H977 0.960 . S
C992 H978 0.960 . S
C992 H979 0.960 . S
C992 C991 1.524 . S
C993 C990 1.403 . S
C993 C994 1.392 . S
C993 C997 1.495 . S
C994 C993 1.392 . S
C994 C995 1.385 . S
C994 C996 1.478 . S
C995 H989 0.930 . S
C995 C991 1.400 . S
C995 C994 1.385 . S
C996 C994 1.478 . S
C996 C998 1.381 . S
C996 C1002 1.383 . S
C997 C993 1.495 . S
C997 H1003 0.959 . S
C997 H1004 0.961 . S
C997 H1005 0.960 . S
C998 C996 1.381 . S
C998 C999 1.394 . S
C998 H1006 0.930 . S
C999 C998 1.394 . S
C999 C1000 1.383 . S
C999 H1007 0.927 1_565 S
C1000 C999 1.383 . S
C1000 C1001 1.377 . S
C1001 H985 0.930 1_556 S
C1001 C1000 1.377 . S
C1001 C1002 1.379 . S
C1002 H986 0.931 . S
C1002 C996 1.383 . S
C1002 C1001 1.379 . S
H1003 C997 0.959 . S
H1004 C997 0.961 . S
H1005 C997 0.960 . S
H1006 C998 0.930 . S
H1007 C999 0.927 1_545 S
H1008 C1016 0.929 . S
H1009 C1018 0.930 . S
H1010 C1020 0.930 . S
H1011 C1023 0.929 . S
H1012 C1026 0.930 . S
H1013 C1028 0.960 . S
H1014 C1028 0.960 . S
H1015 C1028 0.960 . S
C1016 H1008 0.929 . S
C1016 C1017 1.377 . S
C1016 C1018 1.384 . S
C1017 C1016 1.377 . S
C1017 C1023 1.390 . S
C1018 H1009 0.930 . S
C1018 C1016 1.384 . S
C1018 C1019 1.372 . S
C1019 C1018 1.372 . S
C1019 C1020 1.400 . S
C1019 C1024 1.490 . S
C1020 H1010 0.930 . S
C1020 C1019 1.400 . S
C1020 C1023 1.386 . S
H1021 C1037 0.930 . S
H1022 C1038 0.931 . S
C1023 H1011 0.929 . S
C1023 C1017 1.390 . S
C1023 C1020 1.386 . S
C1024 C1019 1.490 . S
C1024 C1026 1.395 . S
C1024 C1027 1.403 . S
H1025 C1031 0.930 . S
C1026 H1012 0.930 . S
C1026 C1024 1.395 . S
C1026 C1029 1.403 . S
C1027 C1024 1.403 . S
C1027 C1028 1.524 . S
C1027 C1031 1.400 . S
C1028 H1013 0.960 . S
C1028 H1014 0.960 . S
C1028 H1015 0.960 . S
C1028 C1027 1.524 . S
C1029 C1026 1.403 . S
C1029 C1030 1.392 . S
C1029 C1033 1.495 . S
C1030 C1029 1.392 . S
C1030 C1031 1.385 . S
C1030 C1032 1.478 . S
C1031 H1025 0.930 . S
C1031 C1027 1.400 . S
C1031 C1030 1.385 . S
C1032 C1030 1.478 . S
C1032 C1034 1.381 . S
C1032 C1038 1.383 . S
C1033 C1029 1.495 . S
C1033 H1039 0.959 . S
C1033 H1040 0.961 . S
C1033 H1041 0.960 . S
C1034 C1032 1.381 . S
C1034 C1035 1.394 . S
C1034 H1042 0.930 . S
C1035 C1034 1.394 . S
C1035 C1036 1.383 . S
C1035 H1043 0.929 . S
C1036 C1035 1.383 . S
C1036 C1037 1.377 . S
C1037 H1021 0.930 . S
C1037 C1036 1.377 . S
C1037 C1038 1.379 . S
C1038 H1022 0.931 . S
C1038 C1032 1.383 . S
C1038 C1037 1.379 . S
H1039 C1033 0.959 . S
H1040 C1033 0.961 . S
H1041 C1033 0.960 . S
H1042 C1034 0.930 . S
H1043 C1035 0.929 . S
H1044 C1052 0.929 . S
H1045 C1054 0.930 . S
H1046 C1056 0.930 . S
H1047 C1059 0.929 . S
H1048 C1062 0.930 . S
H1049 C1064 0.960 . S
H1050 C1064 0.960 . S
H1051 C1064 0.960 . S
C1052 H1044 0.929 . S
C1052 C1053 1.377 . S
C1052 C1054 1.384 . S
C1053 C1052 1.377 . S
C1053 C1059 1.390 . S
C1054 H1045 0.930 . S
C1054 C1052 1.384 . S
C1054 C1055 1.372 . S
C1055 C1054 1.372 . S
C1055 C1056 1.400 . S
C1055 C1060 1.490 . S
C1056 H1046 0.930 . S
C1056 C1055 1.400 . S
C1056 C1059 1.386 . S
H1057 C1073 0.930 . S
H1058 C1074 0.931 . S
C1059 H1047 0.929 . S
C1059 C1053 1.390 . S
C1059 C1056 1.386 . S
C1060 C1055 1.490 . S
C1060 C1062 1.395 . S
C1060 C1063 1.403 . S
H1061 C1067 0.930 . S
C1062 H1048 0.930 . S
C1062 C1060 1.395 . S
C1062 C1065 1.403 . S
C1063 C1060 1.403 . S
C1063 C1064 1.524 . S
C1063 C1067 1.400 . S
C1064 H1049 0.960 . S
C1064 H1050 0.960 . S
C1064 H1051 0.960 . S
C1064 C1063 1.524 . S
C1065 C1062 1.403 . S
C1065 C1066 1.392 . S
C1065 C1069 1.495 . S
C1066 C1065 1.392 . S
C1066 C1067 1.385 . S
C1066 C1068 1.478 . S
C1067 H1061 0.930 . S
C1067 C1063 1.400 . S
C1067 C1066 1.385 . S
C1068 C1066 1.478 . S
C1068 C1070 1.381 . S
C1068 C1074 1.383 . S
C1069 C1065 1.495 . S
C1069 H1075 0.944 1_554 S
C1069 H1076 0.961 . S
C1069 H1077 0.971 . S
C1070 C1068 1.381 . S
C1070 C1071 1.394 . S
C1070 H1078 0.930 . S
C1071 C1070 1.394 . S
C1071 C1072 1.383 . S
C1071 H1079 0.929 . S
C1072 C1071 1.383 . S
C1072 C1073 1.377 . S
C1073 H1057 0.930 . S
C1073 C1072 1.377 . S
C1073 C1074 1.379 . S
C1074 H1058 0.931 . S
C1074 C1068 1.383 . S
C1074 C1073 1.379 . S
H1075 C1069 0.944 1_556 S
H1076 C1069 0.961 . S
H1077 C1069 0.971 . S
H1078 C1070 0.930 . S
H1079 C1071 0.929 . S
H1080 C1088 0.929 . S
H1081 C1090 0.930 . S
H1082 C1092 0.930 . S
H1083 C1095 0.929 . S
H1084 C1098 0.930 . S
H1085 C1100 0.960 . S
H1086 C1100 0.960 . S
H1087 C1100 0.960 . S
C1088 H1080 0.929 . S
C1088 C1089 1.377 . S
C1088 C1090 1.384 . S
C1089 C1088 1.377 . S
C1089 C1095 1.390 . S
C1090 H1081 0.930 . S
C1090 C1088 1.384 . S
C1090 C1091 1.372 . S
C1091 C1090 1.372 . S
C1091 C1092 1.400 . S
C1091 C1096 1.490 . S
C1092 H1082 0.930 . S
C1092 C1091 1.400 . S
C1092 C1095 1.386 . S
H1093 C1109 0.930 . S
H1094 C1110 0.931 . S
C1095 H1083 0.929 . S
C1095 C1089 1.390 . S
C1095 C1092 1.386 . S
C1096 C1091 1.490 . S
C1096 C1098 1.395 . S
C1096 C1099 1.403 . S
H1097 C1103 0.930 . S
C1098 H1084 0.930 . S
C1098 C1096 1.395 . S
C1098 C1101 1.403 . S
C1099 C1096 1.403 . S
C1099 C1100 1.524 . S
C1099 C1103 1.400 . S
C1100 H1085 0.960 . S
C1100 H1086 0.960 . S
C1100 H1087 0.960 . S
C1100 C1099 1.524 . S
C1101 C1098 1.403 . S
C1101 C1102 1.392 . S
C1101 C1105 1.495 . S
C1102 C1101 1.392 . S
C1102 C1103 1.385 . S
C1102 C1104 1.478 . S
C1103 H1097 0.930 . S
C1103 C1099 1.400 . S
C1103 C1102 1.385 . S
C1104 C1102 1.478 . S
C1104 C1106 1.381 . S
C1104 C1110 1.383 . S
C1105 C1101 1.495 . S
C1105 H1111 0.959 . S
C1105 H1112 0.961 . S
C1105 H1113 0.960 . S
C1106 C1104 1.381 . S
C1106 C1107 1.394 . S
C1106 H1114 0.930 . S
C1107 C1106 1.394 . S
C1107 C1108 1.383 . S
C1107 H1115 0.929 . S
C1108 C1107 1.383 . S
C1108 C1109 1.377 . S
C1109 H1093 0.930 . S
C1109 C1108 1.377 . S
C1109 C1110 1.379 . S
C1110 H1094 0.931 . S
C1110 C1104 1.383 . S
C1110 C1109 1.379 . S
H1111 C1105 0.959 . S
H1112 C1105 0.961 . S
H1113 C1105 0.960 . S
H1114 C1106 0.930 . S
H1115 C1107 0.929 . S
H1116 C1124 0.929 . S
H1117 C1126 0.930 . S
H1118 C1128 0.930 . S
H1119 C1131 0.929 . S
H1120 C1134 0.930 . S
H1121 C1136 0.960 . S
H1122 C1136 0.960 . S
H1123 C1136 0.960 . S
C1124 H1116 0.929 . S
C1124 C1125 1.377 . S
C1124 C1126 1.384 . S
C1125 C1124 1.377 . S
C1125 C1131 1.390 . S
C1126 H1117 0.930 . S
C1126 C1124 1.384 . S
C1126 C1127 1.372 . S
C1127 C1126 1.372 . S
C1127 C1128 1.400 . S
C1127 C1132 1.490 . S
C1128 H1118 0.930 . S
C1128 C1127 1.400 . S
C1128 C1131 1.386 . S
H1129 C1145 0.930 . S
H1130 C1146 0.931 . S
C1131 H1119 0.929 . S
C1131 C1125 1.390 . S
C1131 C1128 1.386 . S
C1132 C1127 1.490 . S
C1132 C1134 1.395 . S
C1132 C1135 1.403 . S
H1133 C1139 0.930 . S
C1134 H1120 0.930 . S
C1134 C1132 1.395 . S
C1134 C1137 1.403 . S
C1135 C1132 1.403 . S
C1135 C1136 1.524 . S
C1135 C1139 1.400 . S
C1136 H1121 0.960 . S
C1136 H1122 0.960 . S
C1136 H1123 0.960 . S
C1136 C1135 1.524 . S
C1137 C1134 1.403 . S
C1137 C1138 1.392 . S
C1137 C1141 1.495 . S
C1138 C1137 1.392 . S
C1138 C1139 1.385 . S
C1138 C1140 1.478 . S
C1139 H1133 0.930 . S
C1139 C1135 1.400 . S
C1139 C1138 1.385 . S
C1140 C1138 1.478 . S
C1140 C1142 1.381 . S
C1140 C1146 1.383 . S
C1141 C1137 1.495 . S
C1141 H1147 0.959 . S
C1141 H1148 0.961 . S
C1141 H1149 0.960 . S
C1142 C1140 1.381 . S
C1142 C1143 1.398 . S
C1142 H1150 0.930 1_556 S
C1143 C1142 1.398 . S
C1143 C1144 1.393 . S
C1143 H1151 0.915 1_556 S
C1144 C1143 1.393 . S
C1144 C1145 1.377 . S
C1145 H1129 0.930 . S
C1145 C1144 1.377 . S
C1145 C1146 1.379 . S
C1146 H1130 0.931 . S
C1146 C1140 1.383 . S
C1146 C1145 1.379 . S
H1147 C1141 0.959 . S
H1148 C1141 0.961 . S
H1149 C1141 0.960 . S
H1150 C1142 0.930 1_554 S
H1151 C1143 0.915 1_554 S
H1152 C1160 0.929 . S
H1153 C1162 0.930 . S
H1154 C1164 0.930 . S
H1155 C1167 0.929 . S
H1156 C1170 0.930 . S
H1157 C1172 0.960 . S
H1158 C1172 0.960 . S
H1159 C1172 0.960 . S
C1160 H1152 0.929 . S
C1160 C1161 1.377 . S
C1160 C1162 1.384 . S
C1161 C1160 1.377 . S
C1161 C1167 1.390 . S
C1162 H1153 0.930 . S
C1162 C1160 1.384 . S
C1162 C1163 1.372 . S
C1163 C1162 1.372 . S
C1163 C1164 1.400 . S
C1163 C1168 1.490 . S
C1164 H1154 0.930 . S
C1164 C1163 1.400 . S
C1164 C1167 1.386 . S
H1165 C1181 0.930 . S
H1166 C1182 0.931 . S
C1167 H1155 0.929 . S
C1167 C1161 1.390 . S
C1167 C1164 1.386 . S
C1168 C1163 1.490 . S
C1168 C1170 1.395 . S
C1168 C1171 1.403 . S
H1169 C1175 0.930 . S
C1170 H1156 0.930 . S
C1170 C1168 1.395 . S
C1170 C1173 1.403 . S
C1171 C1168 1.403 . S
C1171 C1172 1.524 . S
C1171 C1175 1.400 . S
C1172 H1157 0.960 . S
C1172 H1158 0.960 . S
C1172 H1159 0.960 . S
C1172 C1171 1.524 . S
C1173 C1170 1.403 . S
C1173 C1174 1.392 . S
C1173 C1177 1.495 . S
C1174 C1173 1.392 . S
C1174 C1175 1.385 . S
C1174 C1176 1.478 . S
C1175 H1169 0.930 . S
C1175 C1171 1.400 . S
C1175 C1174 1.385 . S
C1176 C1174 1.478 . S
C1176 C1178 1.381 . S
C1176 C1182 1.383 . S
C1177 C1173 1.495 . S
C1177 H1183 0.959 . S
C1177 H1184 0.961 . S
C1177 H1185 0.960 . S
C1178 C1176 1.381 . S
C1178 C1179 1.394 . S
C1178 H1186 0.930 . S
C1179 C1178 1.394 . S
C1179 C1180 1.383 . S
C1179 H1187 0.929 . S
C1180 C1179 1.383 . S
C1180 C1181 1.377 . S
C1181 H1165 0.930 . S
C1181 C1180 1.377 . S
C1181 C1182 1.379 . S
C1182 H1166 0.931 . S
C1182 C1176 1.383 . S
C1182 C1181 1.379 . S
H1183 C1177 0.959 . S
H1184 C1177 0.961 . S
H1185 C1177 0.960 . S
H1186 C1178 0.930 . S
H1187 C1179 0.929 . S
H1188 C1196 0.929 . S
H1189 C1198 0.930 . S
H1190 C1200 0.930 . S
H1191 C1203 0.929 . S
H1192 C1206 0.930 . S
H1193 C1208 0.960 . S
H1194 C1208 0.960 . S
H1195 C1208 0.960 . S
C1196 H1188 0.929 . S
C1196 C1197 1.377 . S
C1196 C1198 1.384 . S
C1197 C1196 1.377 . S
C1197 C1203 1.390 . S
C1198 H1189 0.930 . S
C1198 C1196 1.384 . S
C1198 C1199 1.372 . S
C1199 C1198 1.372 . S
C1199 C1200 1.400 . S
C1199 C1204 1.490 . S
C1200 H1190 0.930 . S
C1200 C1199 1.400 . S
C1200 C1203 1.386 . S
H1201 C1217 0.930 1_655 S
H1202 C1218 0.953 . S
C1203 H1191 0.929 . S
C1203 C1197 1.390 . S
C1203 C1200 1.386 . S
C1204 C1199 1.490 . S
C1204 C1206 1.395 . S
C1204 C1207 1.403 . S
H1205 C1211 0.930 . S
C1206 H1192 0.930 . S
C1206 C1204 1.395 . S
C1206 C1209 1.403 . S
C1207 C1204 1.403 . S
C1207 C1208 1.524 . S
C1207 C1211 1.400 . S
C1208 H1193 0.960 . S
C1208 H1194 0.960 . S
C1208 H1195 0.960 . S
C1208 C1207 1.524 . S
C1209 C1206 1.403 . S
C1209 C1210 1.392 . S
C1209 C1213 1.495 . S
C1210 C1209 1.392 . S
C1210 C1211 1.385 . S
C1210 C1212 1.478 . S
C1211 H1205 0.930 . S
C1211 C1207 1.400 . S
C1211 C1210 1.385 . S
C1212 C1210 1.478 . S
C1212 C1214 1.381 . S
C1212 C1218 1.383 . S
C1213 C1209 1.495 . S
C1213 H1219 0.959 . S
C1213 H1220 0.961 . S
C1213 H1221 0.960 . S
C1214 C1212 1.381 . S
C1214 C1215 1.394 . S
C1214 H1222 0.930 . S
C1215 C1214 1.394 . S
C1215 C1216 1.383 . S
C1215 H1223 0.929 . S
C1216 C1215 1.383 . S
C1216 C1217 1.377 . S
C1217 H1201 0.930 1_455 S
C1217 C1216 1.377 . S
C1217 C1218 1.379 . S
C1218 H1202 0.953 . S
C1218 C1212 1.383 . S
C1218 C1217 1.379 . S
H1219 C1213 0.959 . S
H1220 C1213 0.961 . S
H1221 C1213 0.960 . S
H1222 C1214 0.930 . S
H1223 C1215 0.929 . S
H1224 C1232 0.929 . S
H1225 C1234 0.930 . S
H1226 C1236 0.930 . S
H1227 C1239 0.929 . S
H1228 C1242 0.930 . S
H1229 C1244 0.960 . S
H1230 C1244 0.960 . S
H1231 C1244 0.960 . S
C1232 H1224 0.929 . S
C1232 C1233 1.377 . S
C1232 C1234 1.384 . S
C1233 C1232 1.377 . S
C1233 C1239 1.390 . S
C1234 H1225 0.930 . S
C1234 C1232 1.384 . S
C1234 C1235 1.372 . S
C1235 C1234 1.372 . S
C1235 C1236 1.400 . S
C1235 C1240 1.490 . S
C1236 H1226 0.930 . S
C1236 C1235 1.400 . S
C1236 C1239 1.386 . S
H1237 C1253 0.930 . S
H1238 C1254 0.931 . S
C1239 H1227 0.929 . S
C1239 C1233 1.390 . S
C1239 C1236 1.386 . S
C1240 C1235 1.490 . S
C1240 C1242 1.395 . S
C1240 C1243 1.403 . S
H1241 C1247 0.930 . S
C1242 H1228 0.930 . S
C1242 C1240 1.395 . S
C1242 C1245 1.403 . S
C1243 C1240 1.403 . S
C1243 C1244 1.524 . S
C1243 C1247 1.400 . S
C1244 H1229 0.960 . S
C1244 H1230 0.960 . S
C1244 H1231 0.960 . S
C1244 C1243 1.524 . S
C1245 C1242 1.403 . S
C1245 C1246 1.392 . S
C1245 C1249 1.495 . S
C1246 C1245 1.392 . S
C1246 C1247 1.385 . S
C1246 C1248 1.478 . S
C1247 H1241 0.930 . S
C1247 C1243 1.400 . S
C1247 C1246 1.385 . S
C1248 C1246 1.478 . S
C1248 C1250 1.381 . S
C1248 C1254 1.383 . S
C1249 C1245 1.495 . S
C1249 H1255 0.959 . S
C1249 H1256 0.961 . S
C1249 H1257 0.960 . S
C1250 C1248 1.381 . S
C1250 C1251 1.394 . S
C1250 H1258 0.930 . S
C1251 C1250 1.394 . S
C1251 C1252 1.383 . S
C1251 H1259 0.929 . S
C1252 C1251 1.383 . S
C1252 C1253 1.377 . S
C1253 H1237 0.930 . S
C1253 C1252 1.377 . S
C1253 C1254 1.379 . S
C1254 H1238 0.931 . S
C1254 C1248 1.383 . S
C1254 C1253 1.379 . S
H1255 C1249 0.959 . S
H1256 C1249 0.961 . S
H1257 C1249 0.960 . S
H1258 C1250 0.930 . S
H1259 C1251 0.929 . S
C405 C1 1.658 . S
C424 C328 1.630 . S
C441 C40 1.486 . S
C460 C350 1.445 . S
C496 C369 1.222 . S
C477 C99 1.419 . S
C513 C118 1.854 . S
C532 C390 1.551 . S
C568 C347 1.809 . S
C549 C16 1.887 . S
C604 C325 1.717 . S
C585 C60 1.746 . S
C640 C392 1.223 . S
C621 C79 1.323 . S
C676 C371 1.362 . S
C657 C138 1.429 . S
C693 C21 1.810 . S
C712 C389 1.734 . S
C748 C348 1.322 . S
C729 C94 1.621 . S
C765 C133 1.675 . S
C784 C330 1.479 . S
C801 C55 1.515 . S
C820 C368 1.477 . S
C856 C326 1.592 . S
C837 C157 1.678 . S
C873 C196 1.283 . S
C892 C346 1.255 . S
C909 C255 1.492 . S
C928 C372 1.208 . S
C945 C289 1.741 . S
C964 C393 1.424 . S
C981 C172 1.822 . S
C1000 C349 1.764 . S
C1036 C329 1.757 . S
C1017 C216 1.845 . S
C1072 C388 1.185 . S
C1053 C235 1.198 . S
C1108 C367 1.480 . S
C1089 C294 1.541 . S
C1125 C177 1.581 . S
C1144 C391 1.535 . S
C1180 C351 1.312 . S
C1161 C250 1.510 . S
C1216 C327 1.242 . S
C1197 C274 1.450 . S
C1233 C211 1.429 . S
C1252 C370 1.384 . S
