# Generated by pormake.
# Topology zzz, (3,6)-cn, num edge types: 1
# Building blocks:
#     Node 0, Type 0, BuildingBlock: BELTOD_clean_linker_0, # of connection points: 3
#     Node 1, Type 0, BuildingBlock: BELTOD_clean_linker_0, # of connection points: 3
#     Node 2, Type 0, BuildingBlock: BELTOD_clean_linker_0, # of connection points: 3
#     Node 3, Type 0, BuildingBlock: BELTOD_clean_linker_0, # of connection points: 3
#     Node 4, Type 0, BuildingBlock: BELTOD_clean_linker_0, # of connection points: 3
#     Node 5, Type 0, BuildingBlock: BELTOD_clean_linker_0, # of connection points: 3
#     Node 6, Type 0, BuildingBlock: BELTOD_clean_linker_0, # of connection points: 3
#     Node 7, Type 0, BuildingBlock: BELTOD_clean_linker_0, # of connection points: 3
#     Node 8, Type 1, BuildingBlock: BETDEL_clean_sbu_0, # of connection points: 6
#     Node 9, Type 1, BuildingBlock: BETDEL_clean_sbu_0, # of connection points: 6
#     Node 10, Type 1, BuildingBlock: BETDEL_clean_sbu_0, # of connection points: 6
#     Node 11, Type 1, BuildingBlock: BETDEL_clean_sbu_0, # of connection points: 6
#     Edge 12, Type (0, 1), BuildingBlock: MIFKUJ_clean_linker_0, # of connection points: 2
#     Edge 13, Type (0, 1), BuildingBlock: MIFKUJ_clean_linker_0, # of connection points: 2
#     Edge 14, Type (0, 1), BuildingBlock: MIFKUJ_clean_linker_0, # of connection points: 2
#     Edge 15, Type (0, 1), BuildingBlock: MIFKUJ_clean_linker_0, # of connection points: 2
#     Edge 16, Type (0, 1), BuildingBlock: MIFKUJ_clean_linker_0, # of connection points: 2
#     Edge 17, Type (0, 1), BuildingBlock: MIFKUJ_clean_linker_0, # of connection points: 2
#     Edge 18, Type (0, 1), BuildingBlock: MIFKUJ_clean_linker_0, # of connection points: 2
#     Edge 19, Type (0, 1), BuildingBlock: MIFKUJ_clean_linker_0, # of connection points: 2
#     Edge 20, Type (0, 1), BuildingBlock: MIFKUJ_clean_linker_0, # of connection points: 2
#     Edge 21, Type (0, 1), BuildingBlock: MIFKUJ_clean_linker_0, # of connection points: 2
#     Edge 22, Type (0, 1), BuildingBlock: MIFKUJ_clean_linker_0, # of connection points: 2
#     Edge 23, Type (0, 1), BuildingBlock: MIFKUJ_clean_linker_0, # of connection points: 2
#     Edge 24, Type (0, 1), BuildingBlock: MIFKUJ_clean_linker_0, # of connection points: 2
#     Edge 25, Type (0, 1), BuildingBlock: MIFKUJ_clean_linker_0, # of connection points: 2
#     Edge 26, Type (0, 1), BuildingBlock: MIFKUJ_clean_linker_0, # of connection points: 2
#     Edge 27, Type (0, 1), BuildingBlock: MIFKUJ_clean_linker_0, # of connection points: 2
#     Edge 28, Type (0, 1), BuildingBlock: MIFKUJ_clean_linker_0, # of connection points: 2
#     Edge 29, Type (0, 1), BuildingBlock: MIFKUJ_clean_linker_0, # of connection points: 2
#     Edge 30, Type (0, 1), BuildingBlock: MIFKUJ_clean_linker_0, # of connection points: 2
#     Edge 31, Type (0, 1), BuildingBlock: MIFKUJ_clean_linker_0, # of connection points: 2
#     Edge 32, Type (0, 1), BuildingBlock: MIFKUJ_clean_linker_0, # of connection points: 2
#     Edge 33, Type (0, 1), BuildingBlock: MIFKUJ_clean_linker_0, # of connection points: 2
#     Edge 34, Type (0, 1), BuildingBlock: MIFKUJ_clean_linker_0, # of connection points: 2
#     Edge 35, Type (0, 1), BuildingBlock: MIFKUJ_clean_linker_0, # of connection points: 2
# Relax obj value: 0.303
# Max RMSD: 0.213
# Mean RMSD: 0.198
data_MOF--net-zzz--node1-BETDEL_clean_sbu_0--node2-BELTOD_clean_linker_0--edge1-MIFKUJ_clean_linker_0
_symmetry_space_group_name_H-M    P1
_symmetry_Int_Tables_number       1
_symmetry_cell_setting            triclinic
loop_
_symmetry_equiv_pos_as_xyz
'x, y, z'
_cell_length_a     67.331652
_cell_length_b     66.67089
_cell_length_c     23.329457
_cell_angle_alpha  91.242992
_cell_angle_beta   89.444791
_cell_angle_gamma 96.190115
loop_
_atom_site_label
_atom_site_type_symbol
_atom_site_fract_x
_atom_site_fract_y
_atom_site_fract_z
_atom_type_partial_charge
P0 P 0.72729 0.42799 0.13329 0.0
H1 H 0.73189 0.42649 0.25789 0.0
H2 H 0.75845 0.44185 0.32062 0.0
H3 H 0.78201 0.47961 0.18257 0.0
H4 H 0.75596 0.46383 0.11956 0.0
H5 H 0.68727 0.41216 0.09723 0.0
H6 H 0.66221 0.42576 0.0387 0.0
H7 H 0.69991 0.48219 0.02775 0.0
H8 H 0.72479 0.46869 0.08733 0.0
H9 H 0.75928 0.40287 0.14694 0.0
H10 H 0.73712 0.43772 0.01253 0.0
O11 O 0.717 0.40748 0.16662 0.0
H12 H 0.78962 0.39948 0.09076 0.0
H13 H 0.76741 0.43453 0.95661 0.0
C14 C 0.74166 0.4442 0.18411 0.0
C15 C 0.7423 0.43857 0.24158 0.0
C16 C 0.75756 0.44726 0.27737 0.0
C17 C 0.77229 0.46186 0.25631 0.0
C18 C 0.77068 0.46861 0.20014 0.0
C19 C 0.75561 0.45971 0.16418 0.0
C20 C 0.70788 0.43944 0.09734 0.0
C21 C 0.69001 0.42762 0.08343 0.0
C22 C 0.67567 0.43539 0.04994 0.0
C23 C 0.67914 0.45502 0.02872 0.0
C24 C 0.69691 0.46698 0.04342 0.0
C25 C 0.71111 0.45928 0.07778 0.0
C26 C 0.74587 0.42042 0.08388 0.0
C27 C 0.76064 0.40921 0.10454 0.0
C28 C 0.77805 0.40746 0.07272 0.0
C29 C 0.78094 0.41689 0.01958 0.0
C30 C 0.76551 0.42695 0.99721 0.0
C31 C 0.74815 0.42881 0.0293 0.0
P32 P 0.98791 0.73657 0.15753 0.0
H33 H 0.98834 0.73199 0.28215 0.0
H34 H 0.97473 0.75295 0.35649 0.0
H35 H 0.93759 0.77686 0.23004 0.0
H36 H 0.95037 0.75495 0.15716 0.0
H37 H 0.01231 0.71212 0.08982 0.0
H38 H 0.00513 0.68214 0.02955 0.0
H39 H 0.9425 0.68019 0.07435 0.0
H40 H 0.94992 0.71091 0.1342 0.0
H41 H 0.99961 0.77894 0.18069 0.0
H42 H 0.98004 0.74162 0.03413 0.0
O43 O 0.01031 0.73553 0.18668 0.0
H44 H 0.99946 0.80911 0.12303 0.0
H45 H 0.9803 0.7718 0.97597 0.0
C46 C 0.97084 0.74244 0.21383 0.0
C47 C 0.97653 0.74098 0.27104 0.0
C48 C 0.96891 0.75322 0.31344 0.0
C49 C 0.95574 0.76732 0.29888 0.0
C50 C 0.94783 0.76639 0.24309 0.0
C51 C 0.95517 0.75381 0.20104 0.0
C52 C 0.98173 0.71342 0.11751 0.0
C53 C 0.99705 0.70509 0.08746 0.0
C54 C 0.99291 0.68785 0.05309 0.0
C55 C 0.97327 0.67847 0.04779 0.0
C56 C 0.95779 0.687 0.07758 0.0
C57 C 0.96201 0.70444 0.11211 0.0
C58 C 0.99002 0.75805 0.11163 0.0
C59 C 0.99555 0.77723 0.13588 0.0
C60 C 0.99527 0.79445 0.10314 0.0
C61 C 0.98975 0.79274 0.04524 0.0
C62 C 0.98467 0.77347 0.02053 0.0
C63 C 0.98461 0.75623 0.05369 0.0
P64 P 0.77473 0.03513 0.12183 0.0
H65 H 0.76422 0.03954 0.24278 0.0
H66 H 0.73597 0.02481 0.29804 0.0
H67 H 0.72121 0.98112 0.16102 0.0
H68 H 0.74874 0.99714 0.10406 0.0
H69 H 0.81326 0.05389 0.08502 0.0
H70 H 0.84014 0.04223 0.02738 0.0
H71 H 0.80912 0.98205 0.0222 0.0
H72 H 0.78212 0.99386 0.08105 0.0
H73 H 0.74736 0.06597 0.1207 0.0
H74 H 0.76459 0.01914 0.00611 0.0
O75 O 0.78364 0.05597 0.15818 0.0
H76 H 0.72126 0.07284 0.05397 0.0
H77 H 0.7384 0.02566 0.93984 0.0
C78 C 0.75887 0.01936 0.16931 0.0
C79 C 0.75529 0.02644 0.22507 0.0
C80 C 0.73899 0.01786 0.25699 0.0
C81 C 0.72594 0.00181 0.23409 0.0
C82 C 0.73056 0.99373 0.17982 0.0
C83 C 0.74668 0.0026 0.14749 0.0
C84 C 0.79575 0.02473 0.08832 0.0
C85 C 0.8124 0.03805 0.07301 0.0
C86 C 0.82783 0.03134 0.03992 0.0
C87 C 0.82684 0.01117 0.0205 0.0
C88 C 0.81028 0.99769 0.03655 0.0
C89 C 0.79488 0.00441 0.07048 0.0
C90 C 0.75821 0.04237 0.06782 0.0
C91 C 0.74582 0.05748 0.08059 0.0
C92 C 0.73079 0.06124 0.04272 0.0
C93 C 0.72777 0.04979 0.99163 0.0
C94 C 0.74056 0.03498 0.97835 0.0
C95 C 0.75557 0.03122 0.01632 0.0
P96 P 0.51899 0.77177 0.17888 0.0
H97 H 0.51872 0.77043 0.30433 0.0
H98 H 0.5314 0.74597 0.36682 0.0
H99 H 0.56672 0.72529 0.22625 0.0
H100 H 0.55445 0.75021 0.16463 0.0
H101 H 0.50274 0.80984 0.16167 0.0
H102 H 0.51278 0.83826 0.10098 0.0
H103 H 0.56715 0.81242 0.05584 0.0
H104 H 0.55667 0.78352 0.1166 0.0
H105 H 0.50662 0.72919 0.19311 0.0
H106 H 0.51747 0.76971 0.05157 0.0
O107 O 0.49784 0.77594 0.2128 0.0
H108 H 0.50274 0.70047 0.12595 0.0
H109 H 0.51322 0.74088 0.98415 0.0
C110 C 0.53534 0.76191 0.22949 0.0
C111 C 0.52988 0.76128 0.28758 0.0
C112 C 0.53698 0.74709 0.32318 0.0
C113 C 0.54955 0.73319 0.30104 0.0
C114 C 0.55702 0.73568 0.2448 0.0
C115 C 0.55005 0.75005 0.20941 0.0
C116 C 0.52903 0.79461 0.1442 0.0
C117 C 0.51708 0.81045 0.14001 0.0
C118 C 0.52291 0.82683 0.10524 0.0
C119 C 0.54083 0.82772 0.07347 0.0
C120 C 0.5532 0.81215 0.07944 0.0
C121 C 0.54733 0.79572 0.11459 0.0
C122 C 0.51285 0.75154 0.12752 0.0
C123 C 0.50797 0.73194 0.14757 0.0
C124 C 0.50582 0.71554 0.10929 0.0
C125 C 0.508 0.71851 0.05013 0.0
C126 C 0.51158 0.73825 0.0297 0.0
C127 C 0.51408 0.7547 0.06825 0.0
P128 P 0.2701 0.48428 0.99858 0.0
H129 H 0.26314 0.46373 0.88707 0.0
H130 H 0.23871 0.46979 0.815 0.0
H131 H 0.23398 0.52887 0.89067 0.0
H132 H 0.25919 0.52304 0.96058 0.0
H133 H 0.30844 0.46794 0.00435 0.0
H134 H 0.33905 0.4793 0.05578 0.0
H135 H 0.31607 0.5359 0.0974 0.0
H136 H 0.28543 0.52456 0.0443 0.0
H137 H 0.22696 0.48087 0.98597 0.0
H138 H 0.26928 0.49852 0.12049 0.0
O139 O 0.26989 0.45921 0.9958 0.0
H140 H 0.20014 0.49171 0.04551 0.0
H141 H 0.24238 0.50978 0.18008 0.0
C142 C 0.26264 0.49276 0.93003 0.0
C143 C 0.25766 0.47841 0.88634 0.0
C144 C 0.24339 0.48178 0.84559 0.0
C145 C 0.23367 0.49945 0.84857 0.0
C146 C 0.24096 0.515 0.88713 0.0
C147 C 0.25556 0.51174 0.92717 0.0
C148 C 0.29443 0.49518 0.02194 0.0
C149 C 0.31013 0.48301 0.02315 0.0
C150 C 0.32771 0.48956 0.05244 0.0
C151 C 0.32981 0.50836 0.08137 0.0
C152 C 0.31471 0.52122 0.07607 0.0
C153 C 0.29726 0.51479 0.04564 0.0
C154 C 0.25037 0.48987 0.0474 0.0
C155 C 0.23058 0.48731 0.02809 0.0
C156 C 0.21522 0.49363 0.06205 0.0
C157 C 0.21926 0.50222 0.11672 0.0
C158 C 0.23889 0.50353 0.13767 0.0
C159 C 0.25432 0.49725 0.10337 0.0
P160 P 0.10217 0.27358 0.0324 0.0
H161 H 0.11198 0.26998 0.91021 0.0
H162 H 0.09829 0.24553 0.83767 0.0
H163 H 0.04862 0.22733 0.95027 0.0
H164 H 0.06232 0.25185 0.02243 0.0
H165 H 0.11891 0.30176 0.11936 0.0
H166 H 0.10492 0.32693 0.18056 0.0
H167 H 0.04804 0.31376 0.096 0.0
H168 H 0.06236 0.28892 0.03377 0.0
H169 H 0.11903 0.23594 0.01174 0.0
H170 H 0.08676 0.26314 0.1484 0.0
O171 O 0.12528 0.28206 0.01151 0.0
H172 H 0.11321 0.20326 0.05847 0.0
H173 H 0.08161 0.23067 0.19595 0.0
C174 C 0.08809 0.26292 0.97165 0.0
C175 C 0.0977 0.26138 0.91841 0.0
C176 C 0.08998 0.24719 0.87717 0.0
C177 C 0.07255 0.23425 0.88861 0.0
C178 C 0.06199 0.23714 0.93987 0.0
C179 C 0.06974 0.25132 0.9811 0.0
C180 C 0.09174 0.29355 0.07183 0.0
C181 C 0.1035 0.3045 0.11342 0.0
C182 C 0.09541 0.31873 0.14882 0.0
C183 C 0.07529 0.32224 0.14359 0.0
C184 C 0.06362 0.31152 0.10089 0.0
C185 C 0.07177 0.29723 0.06541 0.0
C186 C 0.10347 0.25202 0.07667 0.0
C187 C 0.1114 0.23508 0.05286 0.0
C188 C 0.10799 0.21643 0.07927 0.0
C189 C 0.09697 0.2146 0.13054 0.0
C190 C 0.09031 0.23185 0.15661 0.0
C191 C 0.09332 0.25043 0.12948 0.0
P192 P 0.26422 0.06106 0.04683 0.0
H193 H 0.27718 0.07788 0.93609 0.0
H194 H 0.2982 0.06506 0.86154 0.0
H195 H 0.29024 0.00613 0.93733 0.0
H196 H 0.2696 0.01933 0.01309 0.0
H197 H 0.2387 0.08555 0.11156 0.0
H198 H 0.20674 0.07779 0.15992 0.0
H199 H 0.20116 0.01798 0.08288 0.0
H200 H 0.23328 0.02609 0.0331 0.0
H201 H 0.30649 0.0696 0.07147 0.0
H202 H 0.25617 0.03162 0.1394 0.0
O203 O 0.27005 0.08599 0.04322 0.0
H204 H 0.32871 0.0545 0.13646 0.0
H205 H 0.27824 0.01635 0.2035 0.0
C206 C 0.27192 0.04963 0.98057 0.0
C207 C 0.27934 0.06202 0.9357 0.0
C208 C 0.29142 0.05462 0.8928 0.0
C209 C 0.29631 0.03463 0.89393 0.0
C210 C 0.28716 0.02172 0.93581 0.0
C211 C 0.27508 0.02917 0.97878 0.0
C212 C 0.23831 0.0565 0.06812 0.0
C213 C 0.23036 0.07097 0.10341 0.0
C214 C 0.21215 0.06643 0.13168 0.0
C215 C 0.20155 0.04717 0.12597 0.0
C216 C 0.20893 0.033 0.08791 0.0
C217 C 0.22726 0.03762 0.05932 0.0
C218 C 0.27964 0.05202 0.10111 0.0
C219 C 0.30017 0.05828 0.10105 0.0
C220 C 0.31287 0.0495 0.13776 0.0
C221 C 0.30522 0.03419 0.17499 0.0
C222 C 0.28454 0.02829 0.17588 0.0
C223 C 0.27188 0.03704 0.13902 0.0
P224 P 0.4184 0.22721 0.99476 0.0
H225 H 0.40684 0.233 0.87571 0.0
H226 H 0.42053 0.25751 0.80603 0.0
H227 H 0.47223 0.27231 0.91385 0.0
H228 H 0.45924 0.24652 0.97996 0.0
H229 H 0.40397 0.2039 0.09156 0.0
H230 H 0.4168 0.1768 0.14396 0.0
H231 H 0.46463 0.17497 0.02003 0.0
H232 H 0.4518 0.20261 0.96775 0.0
H233 H 0.39583 0.26154 0.02101 0.0
H234 H 0.44818 0.23727 0.08329 0.0
O235 O 0.39424 0.222 0.97906 0.0
H236 H 0.40336 0.29157 0.08239 0.0
H237 H 0.45647 0.26736 0.14159 0.0
C238 C 0.43182 0.23815 0.93368 0.0
C239 C 0.42152 0.24091 0.88307 0.0
C240 C 0.42925 0.25532 0.84367 0.0
C241 C 0.44719 0.26768 0.85497 0.0
C242 C 0.45838 0.26331 0.90304 0.0
C243 C 0.45089 0.2485 0.94146 0.0
C244 C 0.4269 0.20518 0.02577 0.0
C245 C 0.41707 0.19751 0.07511 0.0
C246 C 0.42447 0.18213 0.10523 0.0
C247 C 0.44176 0.17392 0.08623 0.0
C248 C 0.45122 0.18104 0.03539 0.0
C249 C 0.44392 0.19677 0.00554 0.0
C250 C 0.4212 0.247 0.04853 0.0
C251 C 0.4087 0.26249 0.04883 0.0
C252 C 0.41322 0.27979 0.08331 0.0
C253 C 0.4306 0.28204 0.11703 0.0
C254 C 0.44272 0.26611 0.11753 0.0
C255 C 0.438 0.24878 0.0839 0.0
Dy256 Dy 0.01322 0.99368 0.61082 0.0
C257 C 0.01158 0.03614 0.40159 0.0
C258 C 0.01235 0.96868 0.70171 0.0
Dy259 Dy 0.0033 0.01464 0.4986 0.0
O260 O 0.02476 0.96875 0.65885 0.0
O261 O 0.0007 0.98284 0.69616 0.0
O262 O 0.04583 0.99994 0.58875 0.0
O263 O 0.02452 0.99419 0.52337 0.0
C264 C 0.04275 0.99905 0.53376 0.0
C265 C 0.9738 0.00989 0.57592 0.0
O266 O 0.99435 0.98281 0.47068 0.0
O267 O 0.99217 0.97056 0.56348 0.0
O268 O 0.9949 0.03579 0.43058 0.0
O269 O 0.0232 0.02447 0.42503 0.0
O270 O 0.97037 0.01013 0.52092 0.0
O271 O 0.99214 0.01403 0.58549 0.0
O272 O 0.02074 0.02538 0.6424 0.0
O273 O 0.0196 0.03981 0.55242 0.0
C274 C 0.98881 0.9684 0.50759 0.0
C275 C 0.02364 0.04114 0.60827 0.0
Dy276 Dy 0.49382 0.98307 0.52879 0.0
C277 C 0.5543 0.0364 0.64396 0.0
C278 C 0.45944 0.96431 0.48268 0.0
Dy279 Dy 0.52294 0.01525 0.58898 0.0
O280 O 0.47644 0.96739 0.45581 0.0
O281 O 0.46151 0.97087 0.53524 0.0
O282 O 0.51853 0.96544 0.49857 0.0
O283 O 0.52397 0.99702 0.51064 0.0
C284 C 0.53202 0.98099 0.50076 0.0
C285 C 0.4843 0.01655 0.61586 0.0
O286 O 0.51687 0.03326 0.51298 0.0
O287 O 0.48962 0.01143 0.48165 0.0
O288 O 0.53731 0.03009 0.66757 0.0
O289 O 0.55407 0.03147 0.58978 0.0
O290 O 0.49723 0.03248 0.61457 0.0
O291 O 0.49303 0.00092 0.60758 0.0
O292 O 0.50069 0.96537 0.60476 0.0
O293 O 0.52931 0.98631 0.62982 0.0
C294 C 0.50137 0.0287 0.47879 0.0
C295 C 0.51727 0.96931 0.63504 0.0
Dy296 Dy 0.50131 0.51166 0.61015 0.0
C297 C 0.51345 0.46004 0.41708 0.0
C298 C 0.49899 0.53915 0.69755 0.0
Dy299 Dy 0.51428 0.48643 0.50821 0.0
O300 O 0.48485 0.53354 0.66146 0.0
O301 O 0.51427 0.52928 0.68706 0.0
O302 O 0.4695 0.50567 0.58043 0.0
O303 O 0.49287 0.50827 0.52016 0.0
C304 C 0.47426 0.50444 0.52645 0.0
C305 C 0.54147 0.49371 0.59099 0.0
O306 O 0.52495 0.51686 0.47446 0.0
O307 O 0.52266 0.53373 0.56225 0.0
O308 O 0.52454 0.45937 0.46204 0.0
O309 O 0.50322 0.47541 0.4214 0.0
O310 O 0.54627 0.49176 0.53705 0.0
O311 O 0.52287 0.49004 0.59746 0.0
O312 O 0.49459 0.48116 0.64743 0.0
O313 O 0.49294 0.46464 0.55874 0.0
C314 C 0.52847 0.5332 0.50781 0.0
C315 C 0.48987 0.46479 0.61511 0.0
Dy316 Dy 0.98821 0.48762 0.62667 0.0
C317 C 0.04152 0.51383 0.44367 0.0
C318 C 0.95968 0.47208 0.70138 0.0
Dy319 Dy 0.0122 0.5113 0.52435 0.0
O320 O 0.96153 0.46617 0.64842 0.0
O321 O 0.97367 0.48649 0.71427 0.0
O322 O 0.00455 0.46079 0.6044 0.0
O323 O 0.99844 0.4807 0.54023 0.0
C324 C 0.00726 0.4655 0.55092 0.0
C325 C 0.9995 0.53674 0.60457 0.0
O326 O 0.98206 0.50514 0.4847 0.0
O327 O 0.96478 0.49905 0.57128 0.0
O328 O 0.02672 0.52503 0.44435 0.0
O329 O 0.03968 0.50115 0.4853 0.0
O330 O 0.00928 0.54318 0.55873 0.0
O331 O 0.9977 0.51785 0.60256 0.0
O332 O 0.0171 0.49636 0.67168 0.0
O333 O 0.03543 0.50765 0.59053 0.0
C334 C 0.96523 0.50259 0.51527 0.0
C335 C 0.03409 0.50296 0.64553 0.0
H336 H 0.16528 0.02613 0.09799 0.0
H337 H 0.13689 0.01678 0.16279 0.0
H338 H 0.17011 0.04607 0.30407 0.0
H339 H 0.19836 0.05516 0.24029 0.0
H340 H 0.15324 0.00872 0.33122 0.0
H341 H 0.1332 0.0679 0.24158 0.0
H342 H 0.12446 0.0886 0.16112 0.0
H343 H 0.07662 0.04353 0.1144 0.0
H344 H 0.08529 0.02238 0.19397 0.0
H345 H 0.08047 0.01753 0.54798 0.0
H346 H 0.10639 0.02422 0.47444 0.0
H347 H 0.06651 0.99533 0.34651 0.0
H348 H 0.04052 0.98864 0.42006 0.0
H349 H 0.08551 0.03005 0.3076 0.0
H350 H 0.10439 0.97132 0.39748 0.0
H351 H 0.1124 0.95038 0.47816 0.0
H352 H 0.16173 0.99389 0.52377 0.0
H353 H 0.15384 0.01525 0.44382 0.0
C354 C 0.16647 0.03055 0.14288 0.0
C355 C 0.184 0.04154 0.16388 0.0
C356 C 0.15022 0.02532 0.17974 0.0
C357 C 0.15133 0.03087 0.23823 0.0
C358 C 0.16887 0.04169 0.25913 0.0
C359 C 0.18497 0.04701 0.22245 0.0
C360 C 0.1346 0.02499 0.27863 0.0
C361 C 0.13847 0.01352 0.32624 0.0
C362 C 0.11516 0.03076 0.27135 0.0
C363 C 0.11013 0.0434 0.22313 0.0
C364 C 0.12098 0.06228 0.21372 0.0
C365 C 0.11599 0.07412 0.16839 0.0
C366 C 0.10008 0.0673 0.1325 0.0
C367 C 0.08901 0.04873 0.1421 0.0
C368 C 0.09396 0.03681 0.18726 0.0
C369 C 0.07729 0.01253 0.50421 0.0
C370 C 0.0585 0.00268 0.48957 0.0
C371 C 0.0921 0.01633 0.46224 0.0
C372 C 0.08846 0.01012 0.40499 0.0
C373 C 0.06965 1.00027 0.39034 0.0
C374 C 0.05484 0.99646 0.43235 0.0
C375 C 0.10427 0.01403 0.3605 0.0
C376 C 0.10023 0.02509 0.31222 0.0
C377 C 0.12356 0.00782 0.36694 0.0
C378 C 0.12841 0.99497 0.41493 0.0
C379 C 0.11685 0.9765 0.42497 0.0
C380 C 0.12139 0.96454 0.47053 0.0
C381 C 0.13754 0.97082 0.50614 0.0
C382 C 0.14922 0.98905 0.49618 0.0
C383 C 0.14473 0.00108 0.45071 0.0
H384 H 0.14103 0.96154 0.54139 0.0
H385 H 0.09632 0.07638 0.09723 0.0
H386 H 0.45075 0.17698 0.19941 0.0
H387 H 0.46268 0.15133 0.26003 0.0
H388 H 0.46312 0.1106 0.11399 0.0
H389 H 0.4514 0.13649 0.05266 0.0
H390 H 0.44294 0.09419 0.21845 0.0
H391 H 0.50547 0.12919 0.15639 0.0
H392 H 0.5293 0.1593 0.13987 0.0
H393 H 0.52922 0.17394 0.32001 0.0
H394 H 0.50515 0.14407 0.33751 0.0
H395 H 0.48711 0.02019 0.37151 0.0
H396 H 0.47894 0.04392 0.29934 0.0
H397 H 0.49582 0.09361 0.41703 0.0
H398 H 0.5054 0.06984 0.48771 0.0
H399 H 0.50777 0.10461 0.3199 0.0
H400 H 0.4441 0.07239 0.38427 0.0
H401 H 0.41903 0.04354 0.40453 0.0
H402 H 0.41916 0.02528 0.22697 0.0
H403 H 0.44434 0.0539 0.20568 0.0
C404 C 0.4535 0.16259 0.18019 0.0
C405 C 0.45016 0.15866 0.12144 0.0
C406 C 0.46034 0.14799 0.21478 0.0
C407 C 0.46378 0.1291 0.19146 0.0
C408 C 0.46053 0.12511 0.13272 0.0
C409 C 0.45398 0.13989 0.09776 0.0
C410 C 0.47041 0.11352 0.22919 0.0
C411 C 0.45724 0.09623 0.24002 0.0
C412 C 0.48878 0.11658 0.25854 0.0
C413 C 0.50338 0.13447 0.24817 0.0
C414 C 0.51041 0.13891 0.19242 0.0
C415 C 0.52398 0.15593 0.1829 0.0
C416 C 0.53074 0.16855 0.22885 0.0
C417 C 0.52396 0.16416 0.28445 0.0
C418 C 0.51037 0.14718 0.2942 0.0
C419 C 0.48913 0.0362 0.38179 0.0
C420 C 0.49679 0.04322 0.43519 0.0
C421 C 0.48428 0.04978 0.34068 0.0
C422 C 0.48619 0.07064 0.35298 0.0
C423 C 0.49411 0.07763 0.40629 0.0
C424 C 0.49957 0.06407 0.44676 0.0
C425 C 0.48018 0.08518 0.3103 0.0
C426 C 0.49346 0.10237 0.29842 0.0
C427 C 0.46169 0.08219 0.28085 0.0
C428 C 0.44629 0.06516 0.29351 0.0
C429 C 0.43885 0.06216 0.3496 0.0
C430 C 0.42462 0.04586 0.36126 0.0
C431 C 0.41763 0.03252 0.31711 0.0
C432 C 0.42467 0.03558 0.26113 0.0
C433 C 0.43889 0.05186 0.24923 0.0
H434 H 0.40674 0.01984 0.3262 0.0
H435 H 0.54124 0.18172 0.22139 0.0
H436 H 0.32733 0.52124 0.1924 0.0
H437 H 0.35337 0.52306 0.26491 0.0
H438 H 0.39594 0.50779 0.13593 0.0
H439 H 0.36964 0.50531 0.06354 0.0
H440 H 0.39816 0.48485 0.22106 0.0
H441 H 0.39806 0.5559 0.2063 0.0
H442 H 0.38385 0.58843 0.20374 0.0
H443 H 0.36167 0.58015 0.37572 0.0
H444 H 0.37551 0.54741 0.37907 0.0
H445 H 0.48231 0.50581 0.4116 0.0
H446 H 0.45854 0.50694 0.33324 0.0
H447 H 0.41005 0.5053 0.45565 0.0
H448 H 0.43368 0.50328 0.53419 0.0
H449 H 0.41226 0.53768 0.37238 0.0
H450 H 0.41302 0.46563 0.38291 0.0
H451 H 0.42606 0.43245 0.37913 0.0
H452 H 0.44834 0.44378 0.20853 0.0
H453 H 0.43588 0.47722 0.21175 0.0
C454 C 0.34237 0.51882 0.17923 0.0
C455 C 0.34647 0.51317 0.12231 0.0
C456 C 0.35729 0.51988 0.22077 0.0
C457 C 0.37674 0.51569 0.20605 0.0
C458 C 0.38107 0.51101 0.14852 0.0
C459 C 0.36607 0.50966 0.10712 0.0
C460 C 0.39197 0.51432 0.25134 0.0
C461 C 0.40155 0.49665 0.25335 0.0
C462 C 0.39605 0.52942 0.29455 0.0
C463 C 0.38768 0.5491 0.29273 0.0
C464 C 0.39001 0.56093 0.24342 0.0
C465 C 0.38205 0.57942 0.24186 0.0
C466 C 0.37182 0.58633 0.28949 0.0
C467 C 0.36958 0.57477 0.33884 0.0
C468 C 0.3775 0.55625 0.34061 0.0
C469 C 0.46655 0.50518 0.42175 0.0
C470 C 0.45983 0.50417 0.47898 0.0
C471 C 0.45301 0.50596 0.37696 0.0
C472 C 0.43256 0.50615 0.38871 0.0
C473 C 0.42579 0.50513 0.44577 0.0
C474 C 0.43928 0.50395 0.49052 0.0
C475 C 0.41836 0.50829 0.34162 0.0
C476 C 0.40898 0.52607 0.33951 0.0
C477 C 0.41472 0.49344 0.29771 0.0
C478 C 0.42368 0.47406 0.29782 0.0
C479 C 0.42107 0.46125 0.34505 0.0
C480 C 0.42827 0.44233 0.34288 0.0
C481 C 0.43794 0.436 0.29351 0.0
C482 C 0.4408 0.4487 0.24668 0.0
C483 C 0.43372 0.46764 0.24871 0.0
H484 H 0.4431 0.42119 0.29124 0.0
H485 H 0.36567 0.60065 0.2882 0.0
H486 H 0.04949 0.35006 0.11898 0.0
H487 H 0.03573 0.37406 0.18535 0.0
H488 H 0.06787 0.35128 0.32463 0.0
H489 H 0.08113 0.32688 0.2591 0.0
H490 H 0.03072 0.35691 0.35761 0.0
H491 H 0.08489 0.39592 0.2609 0.0
H492 H 0.10433 0.41064 0.17902 0.0
H493 H 0.05374 0.43942 0.12552 0.0
H494 H 0.03393 0.42468 0.20684 0.0
H495 H 0.02946 0.43436 0.56664 0.0
H496 H 0.03908 0.40995 0.49455 0.0
H497 H 0.00962 0.44061 0.36402 0.0
H498 H 0.0009 0.46562 0.43565 0.0
H499 H 0.04143 0.43026 0.32161 0.0
H500 H 0.98887 0.39423 0.42517 0.0
H501 H 0.97015 0.38084 0.50991 0.0
H502 H 0.01847 0.34692 0.55256 0.0
H503 H 0.03762 0.36033 0.46849 0.0
C504 C 0.05346 0.35003 0.16384 0.0
C505 C 0.06654 0.33665 0.18362 0.0
C506 C 0.04572 0.36387 0.20165 0.0
C507 C 0.05096 0.36464 0.25989 0.0
C508 C 0.06366 0.35102 0.27989 0.0
C509 C 0.07139 0.33721 0.24221 0.0
C510 C 0.04346 0.37974 0.30011 0.0
C511 C 0.03336 0.37299 0.35021 0.0
C512 C 0.04624 0.40067 0.28949 0.0
C513 C 0.05786 0.40898 0.23946 0.0
C514 C 0.07783 0.40516 0.23121 0.0
C515 C 0.08894 0.41358 0.18507 0.0
C516 C 0.08025 0.4259 0.14697 0.0
C517 C 0.06043 0.42983 0.15496 0.0
C518 C 0.04926 0.42144 0.20106 0.0
C519 C 0.02518 0.43593 0.52245 0.0
C520 C 0.01434 0.45175 0.50671 0.0
C521 C 0.03048 0.42185 0.48134 0.0
C522 C 0.02456 0.42301 0.42396 0.0
C523 C 0.01422 0.43922 0.408 0.0
C524 C 0.00926 0.45353 0.44893 0.0
C525 C 0.0296 0.40761 0.38045 0.0
C526 C 0.03895 0.41424 0.32925 0.0
C527 C 0.02624 0.38661 0.39027 0.0
C528 C 0.01474 0.37842 0.44075 0.0
C529 C 0.99556 0.38402 0.45283 0.0
C530 C 0.98487 0.37641 0.50072 0.0
C531 C 0.99313 0.36307 0.53666 0.0
C532 C 0.0121 0.35727 0.5247 0.0
C533 C 0.02287 0.36485 0.47689 0.0
H534 H 0.98483 0.3572 0.57372 0.0
H535 H 0.0889 0.43245 0.11135 0.0
H536 H 0.8673 0.01993 0.02895 0.0
H537 H 0.8924 0.0153 0.95486 0.0
H538 H 0.84699 0.98414 0.84663 0.0
H539 H 0.82171 0.98876 0.92079 0.0
H540 H 0.88449 0.96804 0.83731 0.0
H541 H 0.85803 0.03233 0.82921 0.0
H542 H 0.84896 0.06465 0.86941 0.0
H543 H 0.91029 0.08246 0.91232 0.0
H544 H 0.91968 0.05008 0.87328 0.0
H545 H 0.93483 0.99343 0.56735 0.0
H546 H 0.90988 0.98938 0.64535 0.0
H547 H 0.95374 0.01658 0.7651 0.0
H548 H 0.97866 0.02026 0.68814 0.0
H549 H 0.91636 0.03359 0.76648 0.0
H550 H 0.94337 0.97029 0.77671 0.0
H551 H 0.9535 0.9382 0.73798 0.0
H552 H 0.89276 0.91881 0.69189 0.0
H553 H 0.88229 0.95095 0.72961 0.0
C554 C 0.8627 0.01181 0.98974 0.0
C555 C 0.84248 0.00496 0.98038 0.0
C556 C 0.87706 0.00913 0.94751 0.0
C557 C 0.8715 0.99968 0.89485 0.0
C558 C 0.8516 0.99149 0.88694 0.0
C559 C 0.83717 0.99412 0.92938 0.0
C560 C 0.88599 1.00041 0.84633 0.0
C561 C 0.89127 0.98235 0.82129 0.0
C562 C 0.8951 0.0191 0.82603 0.0
C563 C 0.88952 0.0387 0.84883 0.0
C564 C 0.86956 0.04308 0.84761 0.0
C565 C 0.86436 0.06141 0.87015 0.0
C566 C 0.87903 0.07558 0.89353 0.0
C567 C 0.89894 0.07146 0.89428 0.0
C568 C 0.90421 0.05312 0.87193 0.0
C569 C 0.93908 0.99846 0.61039 0.0
C570 C 0.95859 0.0072 0.6218 0.0
C571 C 0.92491 0.99607 0.65483 0.0
C572 C 0.93003 0.00266 0.7109 0.0
C573 C 0.94951 0.01139 0.72214 0.0
C574 C 0.96371 0.01346 0.67814 0.0
C575 C 0.91496 0.00127 0.75771 0.0
C576 C 0.90953 0.01926 0.78233 0.0
C577 C 0.90589 0.98256 0.77764 0.0
C578 C 0.91207 0.96314 0.75535 0.0
C579 C 0.93219 0.95927 0.75781 0.0
C580 C 0.938 0.94106 0.73616 0.0
C581 C 0.9238 0.92651 0.7123 0.0
C582 C 0.90375 0.93012 0.71028 0.0
C583 C 0.89786 0.94833 0.73184 0.0
H584 H 0.92832 0.91242 0.69552 0.0
H585 H 0.87498 0.08977 0.91096 0.0
H586 H 0.53539 0.86783 0.08454 0.0
H587 H 0.53629 0.89243 0.00827 0.0
H588 H 0.558 0.84921 0.88947 0.0
H589 H 0.55621 0.82419 0.96482 0.0
H590 H 0.5619 0.91137 0.93483 0.0
H591 H 0.5347 0.85186 0.76241 0.0
H592 H 0.51694 0.81751 0.7557 0.0
H593 H 0.48679 0.8275 0.91515 0.0
H594 H 0.50415 0.86198 0.92235 0.0
H595 H 0.55439 0.96358 0.67334 0.0
H596 H 0.56292 0.93986 0.74534 0.0
H597 H 0.50038 0.91891 0.76635 0.0
H598 H 0.49196 0.94179 0.69214 0.0
H599 H 0.51937 0.8886 0.76835 0.0
H600 H 0.52983 0.95428 0.86227 0.0
H601 H 0.54485 0.9895 0.87492 0.0
H602 H 0.60326 0.96949 0.88259 0.0
H603 H 0.58861 0.93416 0.86911 0.0
C604 C 0.5405 0.86359 0.04228 0.0
C605 C 0.54534 0.84388 0.03062 0.0
C606 C 0.5412 0.87775 0.99881 0.0
C607 C 0.54682 0.87255 0.94281 0.0
C608 C 0.55327 0.85346 0.93214 0.0
C609 C 0.55242 0.83921 0.9755 0.0
C610 C 0.54395 0.88633 0.89495 0.0
C611 C 0.55272 0.9064 0.89817 0.0
C612 C 0.53169 0.87995 0.84758 0.0
C613 C 0.5209 0.85938 0.84319 0.0
C614 C 0.52423 0.84673 0.7959 0.0
C615 C 0.51424 0.82725 0.79203 0.0
C616 C 0.5008 0.82031 0.83508 0.0
C617 C 0.49725 0.83287 0.88194 0.0
C618 C 0.50716 0.85237 0.88595 0.0
C619 C 0.54249 0.95382 0.69322 0.0
C620 C 0.5225 0.95454 0.67722 0.0
C621 C 0.54737 0.94036 0.73472 0.0
C622 C 0.53229 0.9278 0.76237 0.0
C623 C 0.51233 0.92839 0.74579 0.0
C624 C 0.5075 0.94149 0.70334 0.0
C625 C 0.53711 0.91387 0.8082 0.0
C626 C 0.52874 0.89366 0.80455 0.0
C627 C 0.54933 0.92033 0.85582 0.0
C628 C 0.55813 0.94158 0.86403 0.0
C629 C 0.54588 0.9574 0.86622 0.0
C630 C 0.55434 0.97738 0.87359 0.0
C631 C 0.575 0.98173 0.87937 0.0
C632 C 0.58726 0.9661 0.87797 0.0
C633 C 0.57889 0.9461 0.87047 0.0
H634 H 0.58152 0.99721 0.88507 0.0
H635 H 0.49311 0.80521 0.83205 0.0
H636 H 0.68724 0.4724 0.92535 0.0
H637 H 0.6634 0.48198 0.85533 0.0
H638 H 0.61477 0.46413 0.97176 0.0
H639 H 0.63863 0.45383 0.04106 0.0
H640 H 0.60534 0.45 0.87191 0.0
H641 H 0.63126 0.51531 0.94116 0.0
H642 H 0.65705 0.54299 0.96755 0.0
H643 H 0.678 0.54564 0.79319 0.0
H644 H 0.65251 0.51778 0.76586 0.0
H645 H 0.53265 0.49036 0.70463 0.0
H646 H 0.55576 0.4869 0.78304 0.0
H647 H 0.60538 0.49346 0.66412 0.0
H648 H 0.58224 0.49697 0.58519 0.0
H649 H 0.61309 0.51461 0.7683 0.0
H650 H 0.58716 0.44764 0.70266 0.0
H651 H 0.56073 0.42024 0.67899 0.0
H652 H 0.53842 0.42199 0.85184 0.0
H653 H 0.56458 0.4496 0.8764 0.0
C654 C 0.67148 0.47082 0.93627 0.0
C655 C 0.66476 0.46246 0.98865 0.0
C656 C 0.65785 0.47635 0.8963 0.0
C657 C 0.63724 0.47408 0.90843 0.0
C658 C 0.63056 0.46604 0.9613 0.0
C659 C 0.64418 0.4602 0.0009 0.0
C660 C 0.62263 0.47902 0.86478 0.0
C661 C 0.60687 0.4643 0.85015 0.0
C662 C 0.62475 0.49752 0.83535 0.0
C663 C 0.64007 0.51433 0.85157 0.0
C664 C 0.64146 0.52169 0.90851 0.0
C665 C 0.65601 0.53743 0.92363 0.0
C666 C 0.66918 0.54604 0.8821 0.0
C667 C 0.6678 0.53895 0.82532 0.0
C668 C 0.65329 0.5232 0.80998 0.0
C669 C 0.5485 0.49128 0.69523 0.0
C670 C 0.55567 0.49376 0.63876 0.0
C671 C 0.56167 0.48925 0.74006 0.0
C672 C 0.58224 0.48965 0.72922 0.0
C673 C 0.58954 0.49305 0.67329 0.0
C674 C 0.57634 0.495 0.62829 0.0
C675 C 0.59601 0.48559 0.77575 0.0
C676 C 0.61157 0.50043 0.79069 0.0
C677 C 0.59356 0.46732 0.80604 0.0
C678 C 0.57774 0.45081 0.79123 0.0
C679 C 0.57652 0.44231 0.7355 0.0
C680 C 0.56161 0.42672 0.72195 0.0
C681 C 0.54792 0.41938 0.7639 0.0
C682 C 0.54905 0.42768 0.81942 0.0
C683 C 0.56392 0.44329 0.83319 0.0
H684 H 0.53652 0.40718 0.75344 0.0
H685 H 0.68044 0.55822 0.89389 0.0
H686 H 0.94197 0.66898 0.97352 0.0
H687 H 0.93798 0.64108 0.90309 0.0
H688 H 0.99236 0.61995 0.96289 0.0
H689 H 0.99569 0.64684 0.03515 0.0
H690 H 0.95922 0.63473 0.81619 0.0
H691 H 0.99548 0.57187 0.93853 0.0
H692 H 0.99463 0.55789 0.0356 0.0
H693 H 0.93812 0.58033 0.06876 0.0
H694 H 0.93847 0.5942 0.97163 0.0
H695 H 0.01023 0.57656 0.62561 0.0
H696 H 0.99843 0.59763 0.70291 0.0
H697 H 0.9588 0.54692 0.76223 0.0
H698 H 0.97135 0.52559 0.68606 0.0
H699 H 0.97439 0.56477 0.84939 0.0
H700 H 0.9413 0.5882 0.69206 0.0
H701 H 0.93663 0.60037 0.59459 0.0
H702 H 0.97673 0.65352 0.63134 0.0
H703 H 0.98189 0.64154 0.72879 0.0
C704 C 0.95273 0.65803 0.97275 0.0
C705 C 0.96926 0.66029 0.00969 0.0
C706 C 0.95054 0.64217 0.93209 0.0
C707 C 0.9648 0.62826 0.92763 0.0
C708 C 0.9809 0.63015 0.96589 0.0
C709 C 0.98297 0.64579 0.00678 0.0
C710 C 0.96412 0.61294 0.88001 0.0
C711 C 0.96232 0.61938 0.82355 0.0
C712 C 0.96741 0.59263 0.88931 0.0
C713 C 0.96707 0.58419 0.94778 0.0
C714 C 0.98281 0.57373 0.96637 0.0
C715 C 0.98243 0.56585 0.02147 0.0
C716 C 0.96636 0.56826 0.05837 0.0
C717 C 0.9506 0.57853 0.04021 0.0
C718 C 0.9509 0.58643 0.98515 0.0
C719 C 0.99894 0.56996 0.65504 0.0
C720 C 0.99172 0.54948 0.65012 0.0
C721 C 0.99206 0.58205 0.69899 0.0
C722 C 0.97739 0.57403 0.73802 0.0
C723 C 0.97008 0.55351 0.73277 0.0
C724 C 0.97724 0.54132 0.68931 0.0
C725 C 0.97055 0.58693 0.78568 0.0
C726 C 0.97092 0.58001 0.84206 0.0
C727 C 0.96511 0.60654 0.7763 0.0
C728 C 0.96206 0.6139 0.71772 0.0
C729 C 0.94923 0.60242 0.67927 0.0
C730 C 0.94648 0.6093 0.62402 0.0
C731 C 0.95639 0.62769 0.60677 0.0
C732 C 0.96906 0.63927 0.64477 0.0
C733 C 0.97188 0.63246 0.70007 0.0
H734 H 0.95425 0.63299 0.56397 0.0
H735 H 0.9661 0.56215 0.101 0.0
H736 H 0.10404 0.20006 0.23598 0.0
H737 H 0.09106 0.16716 0.27413 0.0
H738 H 0.06025 0.15213 0.11477 0.0
H739 H 0.07424 0.18438 0.07583 0.0
H740 H 0.05615 0.15263 0.29824 0.0
H741 H 0.05124 0.1034 0.09019 0.0
H742 H 0.06947 0.10119 0.99838 0.0
H743 H 0.1235 0.12754 0.07869 0.0
H744 H 0.10561 0.12981 0.17099 0.0
H745 H 0.9922 0.06685 0.3611 0.0
H746 H 0.00703 0.09513 0.30392 0.0
H747 H 0.0618 0.06717 0.28826 0.0
H748 H 0.04693 0.03877 0.34417 0.0
H749 H 0.05588 0.08705 0.1932 0.0
H750 H 0.05713 0.10142 0.39478 0.0
H751 H 0.04325 0.10398 0.49246 0.0
H752 H 0.00428 0.14632 0.43548 0.0
H753 H 0.01792 0.14393 0.33723 0.0
C754 C 0.0948 0.18948 0.20904 0.0
C755 C 0.0903 0.19448 0.15294 0.0
C756 C 0.08731 0.17077 0.23077 0.0
C757 C 0.07487 0.15696 0.19711 0.0
C758 C 0.07029 0.16215 0.14108 0.0
C759 C 0.07818 0.18061 0.11892 0.0
C760 C 0.0658 0.13767 0.22162 0.0
C761 C 0.05616 0.13833 0.27513 0.0
C762 C 0.066 0.11886 0.19215 0.0
C763 C 0.07704 0.11692 0.13733 0.0
C764 C 0.06703 0.10863 0.08829 0.0
C765 C 0.07729 0.10744 0.03612 0.0
C766 C 0.09761 0.11432 0.03263 0.0
C767 C 0.10774 0.12233 0.08136 0.0
C768 C 0.09754 0.1236 0.13358 0.0
C769 C 0.00719 0.0665 0.34405 0.0
C770 C 0.01851 0.0508 0.35751 0.0
C771 C 0.01569 0.08269 0.31173 0.0
C772 C 0.03568 0.08346 0.29302 0.0
C773 C 0.04641 0.06696 0.30252 0.0
C774 C 0.0379 0.05076 0.33458 0.0
C775 C 0.04601 0.10223 0.26906 0.0
C776 C 0.05588 0.10142 0.21593 0.0
C777 C 0.04666 0.12084 0.2997 0.0
C778 C 0.03838 0.12233 0.35861 0.0
C779 C 0.0455 0.11117 0.40302 0.0
C780 C 0.03769 0.11261 0.4585 0.0
C781 C 0.02281 0.12523 0.47015 0.0
C782 C 0.01578 0.13651 0.42636 0.0
C783 C 0.02357 0.13515 0.3708 0.0
H784 H 0.01676 0.12631 0.51311 0.0
H785 H 0.10552 0.11337 0.99224 0.0
H786 H 0.3002 0.02309 0.28708 0.0
H787 H 0.32244 0.00492 0.34447 0.0
H788 H 0.36321 0.00362 0.20096 0.0
H789 H 0.34087 0.02128 0.14302 0.0
H790 H 0.35722 0.96722 0.25256 0.0
H791 H 0.37192 0.03725 0.30921 0.0
H792 H 0.36503 0.07049 0.34802 0.0
H793 H 0.34544 0.04361 0.5073 0.0
H794 H 0.35205 0.01014 0.46913 0.0
H795 H 0.45253 0.9604 0.36819 0.0
H796 H 0.42123 0.96476 0.32081 0.0
H797 H 0.39111 0.96476 0.48502 0.0
H798 H 0.42263 0.96097 0.53276 0.0
H799 H 0.38713 0.99794 0.4315 0.0
H800 H 0.37715 0.92847 0.37895 0.0
H801 H 0.38594 0.89575 0.34108 0.0
H802 H 0.39789 0.92141 0.17545 0.0
H803 H 0.38945 0.95438 0.21248 0.0
C804 C 0.31385 0.01882 0.26772 0.0
C805 C 0.31885 0.02371 0.21065 0.0
C806 C 0.32657 0.00854 0.3006 0.0
C807 C 0.3445 0.00301 0.27698 0.0
C808 C 0.34943 0.00773 0.21994 0.0
C809 C 0.33676 0.01803 0.18712 0.0
C810 C 0.35837 0.99258 0.31168 0.0
C811 C 0.36386 0.97393 0.29161 0.0
C812 C 0.36647 0.00105 0.36358 0.0
C813 C 0.36212 0.02113 0.38596 0.0
C814 C 0.36589 0.03837 0.35223 0.0
C815 C 0.36212 0.05728 0.37419 0.0
C816 C 0.3547 0.05915 0.42998 0.0
C817 C 0.35111 0.04213 0.46401 0.0
C818 C 0.35486 0.02319 0.44223 0.0
C819 C 0.43909 0.96057 0.39401 0.0
C820 C 0.43999 0.96055 0.45408 0.0
C821 C 0.42115 0.963 0.36686 0.0
C822 C 0.4038 0.96512 0.39937 0.0
C823 C 0.40433 0.96321 0.45914 0.0
C824 C 0.42231 0.96094 0.48633 0.0
C825 C 0.38634 0.97266 0.37202 0.0
C826 C 0.38017 0.99086 0.39332 0.0
C827 C 0.37769 0.96379 0.32126 0.0
C828 C 0.38275 0.94396 0.29864 0.0
C829 C 0.38179 0.92719 0.33455 0.0
C830 C 0.38669 0.90858 0.3132 0.0
C831 C 0.3925 0.90651 0.25592 0.0
C832 C 0.39339 0.92304 0.21982 0.0
C833 C 0.38851 0.94168 0.24095 0.0
H834 H 0.39629 0.89209 0.23948 0.0
H835 H 0.3518 0.0738 0.44692 0.0
H836 H 0.42595 0.32076 0.08503 0.0
H837 H 0.43933 0.35223 0.13214 0.0
H838 H 0.46496 0.31861 0.26353 0.0
H839 H 0.44996 0.28723 0.22012 0.0
H840 H 0.45233 0.34886 0.31066 0.0
H841 H 0.49175 0.34071 0.13795 0.0
H842 H 0.49705 0.33675 0.03369 0.0
H843 H 0.47287 0.39272 0.00576 0.0
H844 H 0.46725 0.39692 0.10979 0.0
H845 H 0.52458 0.42214 0.42253 0.0
H846 H 0.51128 0.39269 0.365 0.0
H847 H 0.47959 0.43085 0.25982 0.0
H848 H 0.49231 0.46032 0.31835 0.0
H849 H 0.49391 0.40001 0.19759 0.0
H850 H 0.45768 0.40899 0.37294 0.0
H851 H 0.45194 0.41225 0.47683 0.0
H852 H 0.47104 0.35365 0.50094 0.0
H853 H 0.47716 0.35013 0.39698 0.0
C854 C 0.43396 0.32002 0.12479 0.0
C855 C 0.43705 0.30132 0.14825 0.0
C856 C 0.44197 0.33809 0.15111 0.0
C857 C 0.45374 0.33785 0.20041 0.0
C858 C 0.45615 0.31926 0.22513 0.0
C859 C 0.44773 0.30125 0.19977 0.0
C860 C 0.46371 0.35678 0.22657 0.0
C861 C 0.46168 0.35986 0.28596 0.0
C862 C 0.47541 0.37152 0.19414 0.0
C863 C 0.4789 0.36902 0.1316 0.0
C864 C 0.48746 0.35211 0.10953 0.0
C865 C 0.49055 0.34984 0.05047 0.0
C866 C 0.48528 0.36446 0.01309 0.0
C867 C 0.47696 0.38141 0.03472 0.0
C868 C 0.47383 0.38375 0.09372 0.0
C869 C 0.51511 0.4243 0.38639 0.0
C870 C 0.50925 0.4434 0.37515 0.0
C871 C 0.50746 0.40747 0.3538 0.0
C872 C 0.49398 0.40958 0.30937 0.0
C873 C 0.48962 0.42891 0.29476 0.0
C874 C 0.49697 0.44571 0.32797 0.0
C875 C 0.48306 0.39156 0.28168 0.0
C876 C 0.4847 0.38884 0.22213 0.0
C877 C 0.47117 0.377 0.31403 0.0
C878 C 0.46799 0.37936 0.37691 0.0
C879 C 0.46082 0.39686 0.40023 0.0
C880 C 0.45747 0.39875 0.4592 0.0
C881 C 0.46109 0.38315 0.49537 0.0
C882 C 0.46821 0.3657 0.47278 0.0
C883 C 0.47162 0.36376 0.4138 0.0
H884 H 0.45827 0.38457 0.54083 0.0
H885 H 0.48767 0.36268 0.96739 0.0
H886 H 0.18938 0.52382 0.08217 0.0
H887 H 0.15971 0.53106 0.13696 0.0
H888 H 0.18234 0.50373 0.28541 0.0
H889 H 0.21178 0.49601 0.23058 0.0
H890 H 0.14527 0.48696 0.2539 0.0
H891 H 0.17892 0.55389 0.28391 0.0
H892 H 0.19625 0.58646 0.25364 0.0
H893 H 0.14463 0.59832 0.15862 0.0
H894 H 0.12708 0.56568 0.1877 0.0
H895 H 0.07698 0.50114 0.46668 0.0
H896 H 0.10724 0.50432 0.40883 0.0
H897 H 0.07743 0.53525 0.27972 0.0
H898 H 0.04689 0.53286 0.3398 0.0
H899 H 0.11647 0.55141 0.29261 0.0
H900 H 0.08336 0.48551 0.2569 0.0
H901 H 0.06516 0.45313 0.28289 0.0
H902 H 0.11512 0.43901 0.3819 0.0
H903 H 0.13368 0.4716 0.35634 0.0
C904 C 0.1881 0.51954 0.12669 0.0
C905 C 0.20277 0.50911 0.15195 0.0
C906 C 0.17127 0.52389 0.15806 0.0
C907 C 0.16888 0.51796 0.21521 0.0
C908 C 0.18397 0.50847 0.24132 0.0
C909 C 0.20081 0.50414 0.21005 0.0
C910 C 0.14967 0.51924 0.24559 0.0
C911 C 0.13916 0.50111 0.26306 0.0
C912 C 0.14123 0.5376 0.25491 0.0
C913 C 0.15176 0.55724 0.2375 0.0
C914 C 0.17132 0.56335 0.25613 0.0
C915 C 0.18118 0.58185 0.23928 0.0
C916 C 0.17157 0.59442 0.2041 0.0
C917 C 0.15207 0.58855 0.18581 0.0
C918 C 0.14215 0.57006 0.20251 0.0
C919 C 0.0768 0.50864 0.42598 0.0
C920 C 0.05951 0.51643 0.4071 0.0
C921 C 0.09414 0.51047 0.39294 0.0
C922 C 0.09447 0.51958 0.3393 0.0
C923 C 0.07743 0.52803 0.32087 0.0
C924 C 0.06001 0.52656 0.35486 0.0
C925 C 0.11248 0.51916 0.30233 0.0
C926 C 0.12264 0.53732 0.28322 0.0
C927 C 0.12063 0.50081 0.29052 0.0
C928 C 0.10981 0.48102 0.30507 0.0
C929 C 0.09043 0.47553 0.28437 0.0
C930 C 0.08005 0.4571 0.29908 0.0
C931 C 0.0889 0.44396 0.33441 0.0
C932 C 0.10826 0.4492 0.35463 0.0
C933 C 0.11875 0.46763 0.3399 0.0
H934 H 0.08082 0.42971 0.34607 0.0
H935 H 0.17922 0.60874 0.19111 0.0
H936 H 0.97225 0.82679 0.07259 0.0
H937 H 0.97398 0.85806 0.01823 0.0
H938 H 0.00889 0.83136 0.88693 0.0
H939 H 0.00705 0.80003 0.94075 0.0
H940 H 0.02564 0.87006 0.93348 0.0
H941 H 0.9638 0.83671 0.85627 0.0
H942 H 0.92931 0.82018 0.86297 0.0
H943 H 0.91046 0.87345 0.94404 0.0
H944 H 0.94492 0.89021 0.93855 0.0
H945 H 0.03188 0.93539 0.70386 0.0
H946 H 0.02625 0.90714 0.76832 0.0
H947 H 0.9817 0.93724 0.86055 0.0
H948 H 0.98682 0.96547 0.79404 0.0
H949 H 0.96878 0.89902 0.84439 0.0
H950 H 0.02874 0.93362 0.91829 0.0
H951 H 0.06293 0.95109 0.91591 0.0
H952 H 0.08521 0.89717 0.84967 0.0
H953 H 0.05111 0.87945 0.85089 0.0
C954 C 0.98017 0.8276 0.03192 0.0
C955 C 0.98959 0.81108 0.01081 0.0
C956 C 0.98105 0.84537 0.0009 0.0
C957 C 0.99155 0.84693 0.9487 0.0
C958 C 0.0007 0.83037 0.92716 0.0
C959 C 0.99958 0.81251 0.95772 0.0
C960 C 0.99401 0.86619 0.91792 0.0
C961 C 0.01327 0.87634 0.9135 0.0
C962 C 0.97768 0.87471 0.89423 0.0
C963 C 0.95699 0.86461 0.89768 0.0
C964 C 0.95235 0.84482 0.87611 0.0
C965 C 0.93279 0.83543 0.87954 0.0
C966 C 0.91772 0.84573 0.9041 0.0
C967 C 0.92216 0.86547 0.92514 0.0
C968 C 0.9417 0.87492 0.92185 0.0
C969 C 0.02107 0.93615 0.73833 0.0
C970 C 0.00998 0.95272 0.74457 0.0
C971 C 0.0179 0.92 0.77532 0.0
C972 C 0.00387 0.92023 0.82013 0.0
C973 C 0.99273 0.93682 0.82656 0.0
C974 C 0.99575 0.95297 0.78893 0.0
C975 C 0.00058 0.90276 0.85869 0.0
C976 C 0.98117 0.89293 0.86485 0.0
C977 C 0.01675 0.89468 0.88497 0.0
C978 C 0.03733 0.90525 0.88435 0.0
C979 C 0.04091 0.92553 0.90286 0.0
C980 C 0.06028 0.93547 0.90177 0.0
C981 C 0.07622 0.92526 0.88256 0.0
C982 C 0.07284 0.90506 0.86452 0.0
C983 C 0.0535 0.89505 0.86549 0.0
H984 H 0.09121 0.93298 0.88175 0.0
H985 H 0.90258 0.83844 0.90669 0.0
H986 H 0.68952 0.05446 0.0248 0.0
H987 H 0.66055 0.05617 0.96369 0.0
H988 H 0.69767 0.05151 0.81325 0.0
H989 H 0.72692 0.05034 0.87425 0.0
H990 H 0.67112 0.07908 0.80006 0.0
H991 H 0.66978 0.01102 0.86171 0.0
H992 H 0.66949 0.98302 0.92906 0.0
H993 H 0.6148 0.99914 0.00422 0.0
H994 H 0.61497 0.02752 0.93811 0.0
H995 H 0.59264 0.04309 0.60438 0.0
H996 H 0.62281 0.05024 0.66243 0.0
H997 H 0.58631 0.05426 0.8145 0.0
H998 H 0.5562 0.04687 0.75685 0.0
H999 H 0.6129 0.02769 0.82571 0.0
H1000 H 0.61428 0.09584 0.76206 0.0
H1001 H 0.61416 0.12262 0.69084 0.0
H1002 H 0.66824 0.10497 0.61554 0.0
H1003 H 0.66853 0.0779 0.68585 0.0
C1004 C 0.69161 0.05418 0.97871 0.0
C1005 C 0.71051 0.05223 0.95432 0.0
C1006 C 0.675 0.05496 0.94387 0.0
C1007 C 0.67693 0.05369 0.884 0.0
C1008 C 0.69587 0.05243 0.8594 0.0
C1009 C 0.71251 0.05162 0.89426 0.0
C1010 C 0.65906 0.05306 0.84725 0.0
C1011 C 0.65844 0.06774 0.80523 0.0
C1012 C 0.64244 0.03841 0.85468 0.0
C1013 C 0.64256 0.02162 0.89546 0.0
C1014 C 0.65784 0.00879 0.89312 0.0
C1015 C 0.65767 0.9928 0.931 0.0
C1016 C 0.64219 0.98935 0.97107 0.0
C1017 C 0.62683 0.00188 0.97333 0.0
C1018 C 0.62697 0.01793 0.93569 0.0
C1019 C 0.5911 0.04601 0.64998 0.0
C1020 C 0.57217 0.04435 0.67632 0.0
C1021 C 0.60831 0.05012 0.68306 0.0
C1022 C 0.60678 0.05278 0.74277 0.0
C1023 C 0.58781 0.05221 0.76851 0.0
C1024 C 0.57064 0.04805 0.73556 0.0
C1025 C 0.62477 0.05392 0.77919 0.0
C1026 C 0.62548 0.03918 0.82089 0.0
C1027 C 0.64145 0.06842 0.77118 0.0
C1028 C 0.64132 0.08472 0.72891 0.0
C1029 C 0.62605 0.09756 0.73001 0.0
C1030 C 0.62598 0.11281 0.68987 0.0
C1031 C 0.64116 0.11546 0.6486 0.0
C1032 C 0.65648 0.10289 0.64749 0.0
C1033 C 0.65662 0.0876 0.68752 0.0
H1034 H 0.64107 0.12728 0.61756 0.0
H1035 H 0.64205 0.97693 0.00023 0.0
H1036 H 0.52962 0.68661 0.05677 0.0
H1037 H 0.52807 0.65672 0.99335 0.0
H1038 H 0.48331 0.68062 0.89154 0.0
H1039 H 0.48506 0.71083 0.95456 0.0
H1040 H 0.4742 0.63889 0.93031 0.0
H1041 H 0.52539 0.68182 0.83364 0.0
H1042 H 0.55686 0.70429 0.82696 0.0
H1043 H 0.58962 0.65672 0.88395 0.0
H1044 H 0.55828 0.63405 0.8918 0.0
H1045 H 0.47148 0.56598 0.70453 0.0
H1046 H 0.47291 0.59678 0.76347 0.0
H1047 H 0.52762 0.5823 0.83975 0.0
H1048 H 0.52661 0.55174 0.77899 0.0
H1049 H 0.53136 0.62016 0.81237 0.0
H1050 H 0.48181 0.57747 0.91336 0.0
H1051 H 0.45099 0.55434 0.9255 0.0
H1052 H 0.41599 0.60011 0.86824 0.0
H1053 H 0.44664 0.62343 0.85503 0.0
C1054 C 0.51951 0.68549 0.02072 0.0
C1055 C 0.50739 0.7009 0.01045 0.0
C1056 C 0.51871 0.66851 0.9845 0.0
C1057 C 0.50562 0.66657 0.93787 0.0
C1058 C 0.49352 0.68194 0.92737 0.0
C1059 C 0.49457 0.69914 0.96309 0.0
C1060 C 0.50418 0.64809 0.90144 0.0
C1061 C 0.48655 0.63488 0.90372 0.0
C1062 C 0.52059 0.64269 0.86854 0.0
C1063 C 0.53945 0.6563 0.86388 0.0
C1064 C 0.53927 0.67621 0.8453 0.0
C1065 C 0.5571 0.68897 0.84118 0.0
C1066 C 0.57522 0.68195 0.85518 0.0
C1067 C 0.57556 0.66214 0.8732 0.0
C1068 C 0.55777 0.64933 0.87744 0.0
C1069 C 0.48367 0.56923 0.73445 0.0
C1070 C 0.49886 0.55645 0.73768 0.0
C1071 C 0.48445 0.58682 0.76821 0.0
C1072 C 0.50023 0.59174 0.80664 0.0
C1073 C 0.51529 0.5788 0.81044 0.0
C1074 C 0.51464 0.56131 0.77608 0.0
C1075 C 0.50136 0.61074 0.84134 0.0
C1076 C 0.51895 0.62409 0.8388 0.0
C1077 C 0.48501 0.61612 0.87481 0.0
C1078 C 0.46654 0.60213 0.88267 0.0
C1079 C 0.46756 0.58255 0.90292 0.0
C1080 C 0.45012 0.56941 0.91007 0.0
C1081 C 0.43155 0.57574 0.89751 0.0
C1082 C 0.43038 0.59522 0.87789 0.0
C1083 C 0.44778 0.60841 0.87061 0.0
H1084 H 0.41806 0.56555 0.90309 0.0
H1085 H 0.58901 0.69185 0.85193 0.0
H1086 H 0.81739 0.42623 0.0686 0.0
H1087 H 0.84976 0.43252 0.02023 0.0
H1088 H 0.82162 0.4178 0.85716 0.0
H1089 H 0.78911 0.4113 0.90544 0.0
H1090 H 0.85896 0.40204 0.87042 0.0
H1091 H 0.82955 0.46474 0.89717 0.0
H1092 H 0.81498 0.49118 0.95404 0.0
H1093 H 0.86906 0.50235 0.05111 0.0
H1094 H 0.88374 0.47559 0.99587 0.0
H1095 H 0.92603 0.44874 0.67027 0.0
H1096 H 0.89773 0.43676 0.73083 0.0
H1097 H 0.92787 0.46519 0.87871 0.0
H1098 H 0.956 0.47808 0.81724 0.0
H1099 H 0.89128 0.47251 0.88139 0.0
H1100 H 0.92199 0.41187 0.85384 0.0
H1101 H 0.93729 0.38531 0.79943 0.0
H1102 H 0.88257 0.36991 0.70786 0.0
H1103 H 0.867 0.39655 0.76121 0.0
C1104 C 0.81815 0.42387 0.02258 0.0
C1105 C 0.80073 0.41827 0.99071 0.0
C1106 C 0.83662 0.42761 0.99503 0.0
C1107 C 0.838 0.42579 0.93518 0.0
C1108 C 0.82081 0.4193 0.90343 0.0
C1109 C 0.80228 0.4157 0.93094 0.0
C1110 C 0.8571 0.43191 0.90533 0.0
C1111 C 0.86601 0.41746 0.87239 0.0
C1112 C 0.86653 0.4519 0.90957 0.0
C1113 C 0.85764 0.46796 0.94288 0.0
C1114 C 0.83824 0.47265 0.93112 0.0
C1115 C 0.82996 0.48772 0.96306 0.0
C1116 C 0.84104 0.49838 0.00638 0.0
C1117 C 0.86044 0.49403 0.01777 0.0
C1118 C 0.86874 0.47889 0.98621 0.0
C1119 C 0.92669 0.45232 0.71578 0.0
C1120 C 0.9432 0.46424 0.73929 0.0
C1121 C 0.91056 0.44534 0.75044 0.0
C1122 C 0.91081 0.44967 0.8096 0.0
C1123 C 0.92738 0.46154 0.83323 0.0
C1124 C 0.94344 0.46886 0.79825 0.0
C1125 C 0.89325 0.44268 0.84578 0.0
C1126 C 0.88451 0.45699 0.8799 0.0
C1127 C 0.88412 0.42249 0.84315 0.0
C1128 C 0.89337 0.4063 0.81134 0.0
C1129 C 0.91325 0.40289 0.82189 0.0
C1130 C 0.92197 0.38781 0.79126 0.0
C1131 C 0.91092 0.37595 0.75016 0.0
C1132 C 0.89111 0.37911 0.73972 0.0
C1133 C 0.88232 0.39417 0.77021 0.0
H1134 H 0.9177 0.36429 0.72646 0.0
H1135 H 0.83461 0.51006 0.03097 0.0
H1136 H 0.0973 0.20847 0.84195 0.0
H1137 H 0.08822 0.17697 0.78906 0.0
H1138 H 0.02605 0.18706 0.79927 0.0
H1139 H 0.03509 0.21867 0.85317 0.0
H1140 H 0.0298 0.14976 0.82521 0.0
H1141 H 0.05308 0.19215 0.6716 0.0
H1142 H 0.07623 0.21667 0.61948 0.0
H1143 H 0.12084 0.17523 0.61729 0.0
H1144 H 0.09805 0.15056 0.67011 0.0
H1145 H 0.02418 0.0776 0.55671 0.0
H1146 H 0.03167 0.1111 0.60017 0.0
H1147 H 0.04471 0.08442 0.76041 0.0
H1148 H 0.03675 0.05071 0.7176 0.0
H1149 H 0.06305 0.13122 0.64392 0.0
H1150 H 0.03114 0.11376 0.87166 0.0
H1151 H 0.00504 0.09049 0.91754 0.0
H1152 H 0.97219 0.08451 0.76014 0.0
H1153 H 0.99793 0.10797 0.71359 0.0
C1154 C 0.08172 0.20425 0.83186 0.0
C1155 C 0.06693 0.21621 0.85126 0.0
C1156 C 0.07654 0.18616 0.8017 0.0
C1157 C 0.05646 0.1797 0.78952 0.0
C1158 C 0.04164 0.19172 0.80815 0.0
C1159 C 0.04682 0.20979 0.8388 0.0
C1160 C 0.05098 0.15998 0.75949 0.0
C1161 C 0.03703 0.14575 0.78548 0.0
C1162 C 0.06014 0.15479 0.70711 0.0
C1163 C 0.0739 0.16957 0.67525 0.0
C1164 C 0.06788 0.18832 0.66038 0.0
C1165 C 0.08093 0.20224 0.63065 0.0
C1166 C 0.10001 0.19753 0.6152 0.0
C1167 C 0.10606 0.17886 0.62933 0.0
C1168 C 0.09307 0.1649 0.65911 0.0
C1169 C 0.02879 0.07878 0.60111 0.0
C1170 C 0.0298 0.06141 0.63371 0.0
C1171 C 0.03306 0.098 0.62588 0.0
C1172 C 0.03849 0.10033 0.68374 0.0
C1173 C 0.04016 0.08302 0.71597 0.0
C1174 C 0.03572 0.06375 0.69133 0.0
C1175 C 0.04216 0.12088 0.71023 0.0
C1176 C 0.05579 0.13526 0.6836 0.0
C1177 C 0.0323 0.12638 0.76118 0.0
C1178 C 0.01658 0.11247 0.78902 0.0
C1179 C 0.01831 0.10755 0.84693 0.0
C1180 C 0.00358 0.09431 0.87303 0.0
C1181 C 0.987 0.08598 0.84172 0.0
C1182 C 0.98507 0.09092 0.78429 0.0
C1183 C 0.99974 0.10417 0.75802 0.0
H1184 H 0.97563 0.07572 0.86199 0.0
H1185 H 0.11009 0.20832 0.59217 0.0
H1186 H 0.30494 0.04379 0.78095 0.0
H1187 H 0.33516 0.03783 0.72682 0.0
H1188 H 0.35541 0.00524 0.86883 0.0
H1189 H 0.32575 0.01171 0.92377 0.0
H1190 H 0.38373 0.03314 0.83534 0.0
H1191 H 0.33983 0.98104 0.74166 0.0
H1192 H 0.30978 0.96719 0.68849 0.0
H1193 H 0.32642 0.00684 0.54945 0.0
H1194 H 0.35657 0.02102 0.60188 0.0
H1195 H 0.45713 0.98415 0.63989 0.0
H1196 H 0.4231 0.98475 0.67789 0.0
H1197 H 0.43071 0.04979 0.6787 0.0
H1198 H 0.46446 0.04929 0.63891 0.0
H1199 H 0.38832 0.00375 0.63901 0.0
H1200 H 0.41274 0.06368 0.81229 0.0
H1201 H 0.44289 0.07639 0.86685 0.0
H1202 H 0.46474 0.01835 0.85033 0.0
H1203 H 0.4346 0.00523 0.79648 0.0
C1204 C 0.31573 0.03518 0.80047 0.0
C1205 C 0.31284 0.02828 0.8569 0.0
C1206 C 0.33295 0.03165 0.76924 0.0
C1207 C 0.3476 0.02106 0.79368 0.0
C1208 C 0.34435 0.01346 0.84902 0.0
C1209 C 0.32721 0.01699 0.88021 0.0
C1210 C 0.36701 0.01925 0.76388 0.0
C1211 C 0.38465 0.02667 0.79245 0.0
C1212 C 0.36834 0.01083 0.70784 0.0
C1213 C 0.35035 0.00222 0.67597 0.0
C1214 C 0.33703 0.9869 0.69989 0.0
C1215 C 0.32001 0.97895 0.66981 0.0
C1216 C 0.3162 0.98615 0.61564 0.0
C1217 C 0.32944 0.00126 0.59134 0.0
C1218 C 0.34651 0.00923 0.62118 0.0
C1219 C 0.45137 0.99855 0.64676 0.0
C1220 C 0.4634 0.01667 0.63599 0.0
C1221 C 0.43195 0.99887 0.6686 0.0
C1222 C 0.42441 0.01731 0.68114 0.0
C1223 C 0.43626 0.0354 0.66935 0.0
C1224 C 0.45555 0.03509 0.6468 0.0
C1225 C 0.40481 0.01772 0.71059 0.0
C1226 C 0.38725 0.01019 0.6819 0.0
C1227 C 0.40347 0.02592 0.76672 0.0
C1228 C 0.42153 0.03356 0.79981 0.0
C1229 C 0.42396 0.05363 0.82048 0.0
C1230 C 0.44104 0.0609 0.85128 0.0
C1231 C 0.45576 0.04821 0.86187 0.0
C1232 C 0.45338 0.02819 0.84189 0.0
C1233 C 0.43631 0.02084 0.81116 0.0
H1234 H 0.46898 0.05387 0.88567 0.0
H1235 H 0.303 0.98 0.59245 0.0
H1236 H 0.42235 0.29178 0.80228 0.0
H1237 H 0.43125 0.32405 0.75701 0.0
H1238 H 0.49343 0.31996 0.79047 0.0
H1239 H 0.48501 0.28678 0.83219 0.0
H1240 H 0.47151 0.35762 0.83447 0.0
H1241 H 0.48771 0.31667 0.67034 0.0
H1242 H 0.48103 0.29004 0.59594 0.0
H1243 H 0.43196 0.3194 0.53412 0.0
H1244 H 0.4381 0.346 0.60891 0.0
H1245 H 0.50854 0.44981 0.70415 0.0
H1246 H 0.50249 0.41608 0.74342 0.0
H1247 H 0.45213 0.40262 0.63052 0.0
H1248 H 0.45952 0.43581 0.58729 0.0
H1249 H 0.4702 0.37255 0.62751 0.0
H1250 H 0.45066 0.41192 0.79046 0.0
H1251 H 0.45462 0.43845 0.86612 0.0
H1252 H 0.50536 0.41277 0.93193 0.0
H1253 H 0.50185 0.38622 0.85631 0.0
C1254 C 0.43803 0.29719 0.79842 0.0
C1255 C 0.45291 0.28636 0.82133 0.0
C1256 C 0.44304 0.31586 0.77297 0.0
C1257 C 0.46295 0.32437 0.77066 0.0
C1258 C 0.47794 0.31362 0.79212 0.0
C1259 C 0.47302 0.29468 0.81639 0.0
C1260 C 0.46782 0.34506 0.74912 0.0
C1261 C 0.47146 0.36098 0.78916 0.0
C1262 C 0.46707 0.34934 0.69025 0.0
C1263 C 0.46317 0.33315 0.6459 0.0
C1264 C 0.4753 0.31728 0.64151 0.0
C1265 C 0.47166 0.30223 0.59909 0.0
C1266 C 0.45602 0.30297 0.5605 0.0
C1267 C 0.44401 0.31879 0.56419 0.0
C1268 C 0.44756 0.33385 0.60661 0.0
C1269 C 0.49604 0.43967 0.68826 0.0
C1270 C 0.48433 0.44539 0.64319 0.0
C1271 C 0.49251 0.42036 0.71094 0.0
C1272 C 0.47667 0.40663 0.6907 0.0
C1273 C 0.46459 0.41271 0.64666 0.0
C1274 C 0.46864 0.43174 0.62233 0.0
C1275 C 0.47335 0.38561 0.71279 0.0
C1276 C 0.47008 0.36948 0.6729 0.0
C1277 C 0.47393 0.3812 0.77202 0.0
C1278 C 0.47609 0.3972 0.81739 0.0
C1279 C 0.46274 0.41202 0.82084 0.0
C1280 C 0.4649 0.42705 0.86376 0.0
C1281 C 0.48027 0.42733 0.9037 0.0
C1282 C 0.49349 0.41256 0.90089 0.0
C1283 C 0.49141 0.39751 0.85808 0.0
H1284 H 0.48189 0.43896 0.93692 0.0
H1285 H 0.45326 0.29133 0.52761 0.0
H1286 H 0.21845 0.53202 0.80042 0.0
H1287 H 0.18424 0.53361 0.76724 0.0
H1288 H 0.17024 0.4702 0.79947 0.0
H1289 H 0.20399 0.46852 0.83357 0.0
H1290 H 0.15364 0.48 0.701 0.0
H1291 H 0.1572 0.50446 0.89531 0.0
H1292 H 0.17045 0.52591 0.97661 0.0
H1293 H 0.15626 0.57872 0.89018 0.0
H1294 H 0.14318 0.55757 0.80793 0.0
H1295 H 0.04713 0.47618 0.71982 0.0
H1296 H 0.08126 0.47662 0.75709 0.0
H1297 H 0.09768 0.53415 0.67917 0.0
H1298 H 0.06392 0.53346 0.64038 0.0
H1299 H 0.11258 0.52761 0.8015 0.0
H1300 H 0.11066 0.5017 0.60428 0.0
H1301 H 0.09659 0.47904 0.5264 0.0
H1302 H 0.10667 0.42744 0.62471 0.0
H1303 H 0.12066 0.44982 0.70344 0.0
C1304 C 0.20814 0.51838 0.80002 0.0
C1305 C 0.2141 0.50014 0.81965 0.0
C1306 C 0.18859 0.51932 0.78108 0.0
C1307 C 0.17462 0.50206 0.78155 0.0
C1308 C 0.18076 0.48369 0.79856 0.0
C1309 C 0.20021 0.48275 0.81764 0.0
C1310 C 0.15336 0.5032 0.76678 0.0
C1311 C 0.14467 0.49031 0.72336 0.0
C1312 C 0.1416 0.51668 0.79577 0.0
C1313 C 0.14942 0.52945 0.84517 0.0
C1314 C 0.15706 0.52066 0.89341 0.0
C1315 C 0.16451 0.53276 0.93971 0.0
C1316 C 0.16425 0.55367 0.93849 0.0
C1317 C 0.15649 0.56252 0.89101 0.0
C1318 C 0.14904 0.55048 0.84455 0.0
C1319 C 0.05792 0.48911 0.71198 0.0
C1320 C 0.05299 0.50479 0.6774 0.0
C1321 C 0.07736 0.48932 0.73296 0.0
C1322 C 0.09192 0.50541 0.72064 0.0
C1323 C 0.08662 0.52166 0.68922 0.0
C1324 C 0.06739 0.52122 0.6671 0.0
C1325 C 0.11307 0.5045 0.73585 0.0
C1326 C 0.12167 0.51738 0.77927 0.0
C1327 C 0.12471 0.49088 0.70736 0.0
C1328 C 0.11648 0.47741 0.65996 0.0
C1329 C 0.10971 0.48552 0.60949 0.0
C1330 C 0.10178 0.47274 0.56515 0.0
C1331 C 0.10064 0.45182 0.5707 0.0
C1332 C 0.10752 0.44365 0.62051 0.0
C1333 C 0.11547 0.45637 0.66497 0.0
H1334 H 0.09449 0.44195 0.53634 0.0
H1335 H 0.17001 0.56302 0.97439 0.0
H1336 H 0.92267 0.78811 0.31547 0.0
H1337 H 0.92222 0.82162 0.36039 0.0
H1338 H 0.98342 0.82082 0.41212 0.0
H1339 H 0.98421 0.78785 0.36683 0.0
H1340 H 0.96301 0.8396 0.49252 0.0
H1341 H 0.97328 0.84141 0.28799 0.0
H1342 H 0.96475 0.83301 0.1871 0.0
H1343 H 0.91044 0.86091 0.20686 0.0
H1344 H 0.91852 0.86921 0.30823 0.0
H1345 H 0.99569 0.94953 0.40572 0.0
H1346 H 0.9842 0.91468 0.37758 0.0
H1347 H 0.94859 0.90827 0.53236 0.0
H1348 H 0.96104 0.94271 0.5621 0.0
H1349 H 0.95209 0.89252 0.35334 0.0
H1350 H 0.9469 0.86139 0.58192 0.0
H1351 H 0.96021 0.87041 0.67844 0.0
H1352 H 0.01291 0.90169 0.60358 0.0
H1353 H 1.00003 0.89264 0.50668 0.0
C1354 C 0.93593 0.79491 0.33723 0.0
C1355 C 0.95351 0.78522 0.33697 0.0
C1356 C 0.93562 0.81405 0.36302 0.0
C1357 C 0.95289 0.82383 0.38891 0.0
C1358 C 0.9699 0.81355 0.39259 0.0
C1359 C 0.97026 0.79453 0.36678 0.0
C1360 C 0.95422 0.84547 0.4065 0.0
C1361 C 0.96036 0.85118 0.46239 0.0
C1362 C 0.95125 0.86061 0.36676 0.0
C1363 C 0.94637 0.8557 0.30584 0.0
C1364 C 0.95944 0.84561 0.27093 0.0
C1365 C 0.9547 0.84089 0.21366 0.0
C1366 C 0.93704 0.84637 0.19062 0.0
C1367 C 0.92409 0.85663 0.2248 0.0
C1368 C 0.92874 0.86134 0.28217 0.0
C1369 C 0.98523 0.94073 0.43331 0.0
C1370 C 0.97946 0.94865 0.48636 0.0
C1371 C 0.97862 0.92082 0.41722 0.0
C1372 C 0.96587 0.90862 0.45345 0.0
C1373 C 0.95889 0.91712 0.50445 0.0
C1374 C 0.96592 0.93683 0.52128 0.0
C1375 C 0.96103 0.88676 0.4394 0.0
C1376 C 0.95428 0.88099 0.38406 0.0
C1377 C 0.96414 0.87158 0.47909 0.0
C1378 C 0.97239 0.8765 0.53711 0.0
C1379 C 0.96138 0.87009 0.5861 0.0
C1380 C 0.96883 0.87523 0.64085 0.0
C1381 C 0.98736 0.88667 0.64712 0.0
C1382 C 0.99854 0.89288 0.59865 0.0
C1383 C 0.99117 0.88774 0.54382 0.0
H1384 H 0.99307 0.89069 0.68953 0.0
H1385 H 0.9334 0.84273 0.14625 0.0
H1386 H 0.71805 1.00028 0.3505 0.0
H1387 H 0.68561 0.99452 0.39762 0.0
H1388 H 0.65758 0.981 0.23371 0.0
H1389 H 0.6896 0.98862 0.18582 0.0
H1390 H 0.63668 0.00402 0.28713 0.0
H1391 H 0.66381 0.94414 0.34211 0.0
H1392 H 0.6884 0.92353 0.38218 0.0
H1393 H 0.68314 0.95274 0.54664 0.0
H1394 H 0.6587 0.97373 0.50736 0.0
H1395 H 0.54339 0.9603 0.40665 0.0
H1396 H 0.57702 0.96142 0.36418 0.0
H1397 H 0.6002 0.00144 0.50112 0.0
H1398 H 0.56649 0.00063 0.54297 0.0
H1399 H 0.62279 0.96402 0.46265 0.0
H1400 H 0.59588 0.02488 0.39955 0.0
H1401 H 0.56969 0.0427 0.35621 0.0
H1402 H 0.57339 0.00743 0.20101 0.0
H1403 H 0.59936 0.98914 0.2439 0.0
C1404 C 0.70502 0.99618 0.32422 0.0
C1405 C 0.70666 0.99511 0.26398 0.0
C1406 C 0.68642 0.99254 0.3515 0.0
C1407 C 0.66901 0.9871 0.31948 0.0
C1408 C 0.67071 0.9852 0.2596 0.0
C1409 C 0.68922 0.98927 0.23219 0.0
C1410 C 0.64893 0.98472 0.34775 0.0
C1411 C 0.63369 0.99498 0.32497 0.0
C1412 C 0.64486 0.97322 0.39783 0.0
C1413 C 0.65956 0.96064 0.42162 0.0
C1414 C 0.66801 0.94628 0.38671 0.0
C1415 C 0.6819 0.93451 0.4093 0.0
C1416 C 0.68737 0.93686 0.46688 0.0
C1417 C 0.67891 0.95096 0.50203 0.0
C1418 C 0.66502 0.96278 0.47963 0.0
C1419 C 0.55571 0.96924 0.42775 0.0
C1420 C 0.55241 0.98069 0.47747 0.0
C1421 C 0.57485 0.96985 0.40354 0.0
C1422 C 0.59101 0.98155 0.42951 0.0
C1423 C 0.58787 0.99236 0.48046 0.0
C1424 C 0.56864 0.9921 0.50392 0.0
C1425 C 0.61097 0.98326 0.40173 0.0
C1426 C 0.62602 0.97293 0.42464 0.0
C1427 C 0.61481 0.99433 0.35119 0.0
C1428 C 0.59937 0.00548 0.32518 0.0
C1429 C 0.59096 0.02078 0.35641 0.0
C1430 C 0.57619 0.03099 0.33189 0.0
C1431 C 0.56983 0.02615 0.27595 0.0
C1432 C 0.57829 0.01113 0.24437 0.0
C1433 C 0.59304 0.00084 0.26876 0.0
H1434 H 0.5584 0.03408 0.25704 0.0
H1435 H 0.69812 0.92773 0.48429 0.0
H1436 H 0.58313 0.71306 0.30948 0.0
H1437 H 0.58499 0.67957 0.34934 0.0
H1438 H 0.52306 0.67702 0.4007 0.0
H1439 H 0.52112 0.7102 0.36154 0.0
H1440 H 0.54272 0.66082 0.47973 0.0
H1441 H 0.53783 0.65488 0.27439 0.0
H1442 H 0.54816 0.66202 0.17452 0.0
H1443 H 0.60427 0.63901 0.20403 0.0
H1444 H 0.59435 0.632 0.30438 0.0
H1445 H 0.52273 0.54745 0.40128 0.0
H1446 H 0.53175 0.58198 0.36913 0.0
H1447 H 0.56391 0.59634 0.5265 0.0
H1448 H 0.55389 0.56221 0.55999 0.0
H1449 H 0.56216 0.60723 0.34623 0.0
H1450 H 0.55831 0.64351 0.57274 0.0
H1451 H 0.54332 0.63538 0.66756 0.0
H1452 H 0.49625 0.59638 0.58735 0.0
H1453 H 0.51077 0.60453 0.49205 0.0
C1454 C 0.57001 0.70545 0.32996 0.0
C1455 C 0.552 0.71439 0.33239 0.0
C1456 C 0.57107 0.68629 0.35263 0.0
C1457 C 0.55408 0.67563 0.37743 0.0
C1458 C 0.5364 0.68493 0.38211 0.0
C1459 C 0.53536 0.70404 0.35985 0.0
C1460 C 0.55409 0.65435 0.39548 0.0
C1461 C 0.54717 0.64914 0.45073 0.0
C1462 C 0.55948 0.63899 0.35733 0.0
C1463 C 0.56546 0.64315 0.29703 0.0
C1464 C 0.55243 0.65149 0.25969 0.0
C1465 C 0.5582 0.6555 0.20299 0.0
C1466 C 0.57689 0.65103 0.183 0.0
C1467 C 0.58982 0.64251 0.21962 0.0
C1468 C 0.58413 0.63851 0.2764 0.0
C1469 C 0.53205 0.55789 0.42841 0.0
C1470 C 0.53744 0.5523 0.4833 0.0
C1471 C 0.5372 0.57764 0.41008 0.0
C1472 C 0.54808 0.59198 0.44601 0.0
C1473 C 0.555 0.58578 0.4987 0.0
C1474 C 0.5494 0.56624 0.51765 0.0
C1475 C 0.55068 0.61366 0.43041 0.0
C1476 C 0.55806 0.61895 0.37565 0.0
C1477 C 0.54501 0.62902 0.46833 0.0
C1478 C 0.53578 0.62446 0.52532 0.0
C1479 C 0.5447 0.63329 0.57534 0.0
C1480 C 0.53629 0.62866 0.62916 0.0
C1481 C 0.51889 0.61531 0.63349 0.0
C1482 C 0.50976 0.60667 0.58395 0.0
C1483 C 0.51807 0.6113 0.53003 0.0
H1484 H 0.51245 0.61169 0.67519 0.0
H1485 H 0.58133 0.65413 0.13908 0.0
H1486 H 0.79038 0.50003 0.27854 0.0
H1487 H 0.82271 0.50929 0.325 0.0
H1488 H 0.82857 0.44626 0.35074 0.0
H1489 H 0.79603 0.43714 0.30683 0.0
H1490 H 0.84224 0.46542 0.43837 0.0
H1491 H 0.85197 0.47457 0.23714 0.0
H1492 H 0.84555 0.48802 0.1423 0.0
H1493 H 0.86205 0.54838 0.20601 0.0
H1494 H 0.86818 0.53529 0.30165 0.0
H1495 H 0.95661 0.49396 0.40235 0.0
H1496 H 0.92344 0.48921 0.35863 0.0
H1497 H 0.89704 0.50699 0.51859 0.0
H1498 H 0.92994 0.51103 0.56286 0.0
H1499 H 0.89407 0.51022 0.33671 0.0
H1500 H 0.85345 0.47903 0.54297 0.0
H1501 H 0.86093 0.46061 0.62945 0.0
H1502 H 0.90922 0.43602 0.54057 0.0
H1503 H 0.90184 0.45401 0.45334 0.0
C1504 C 0.79851 0.48824 0.29495 0.0
C1505 C 0.7907 0.46789 0.28943 0.0
C1506 C 0.81703 0.4935 0.32107 0.0
C1507 C 0.82831 0.47846 0.34052 0.0
C1508 C 0.8202 0.45818 0.33632 0.0
C1509 C 0.80156 0.45296 0.31132 0.0
C1510 C 0.84876 0.48363 0.36392 0.0
C1511 C 0.85351 0.4753 0.41617 0.0
C1512 C 0.86374 0.49607 0.33436 0.0
C1513 C 0.86033 0.50396 0.27671 0.0
C1514 C 0.8541 0.49072 0.23102 0.0
C1515 C 0.85052 0.49828 0.17711 0.0
C1516 C 0.85335 0.51905 0.16816 0.0
C1517 C 0.85983 0.53229 0.21305 0.0
C1518 C 0.86335 0.52481 0.26713 0.0
C1519 C 0.94375 0.49711 0.42789 0.0
C1520 C 0.94582 0.5026 0.48619 0.0
C1521 C 0.9248 0.4944 0.40289 0.0
C1522 C 0.90768 0.49731 0.43566 0.0
C1523 C 0.90995 0.50413 0.49282 0.0
C1524 C 0.92878 0.50651 0.51803 0.0
C1525 C 0.88739 0.49217 0.41131 0.0
C1526 C 0.88271 0.50047 0.35899 0.0
C1527 C 0.8727 0.479 0.43954 0.0
C1528 C 0.8772 0.46805 0.49182 0.0
C1529 C 0.86562 0.46964 0.54185 0.0
C1530 C 0.86985 0.45928 0.59098 0.0
C1531 C 0.88556 0.44719 0.5905 0.0
C1532 C 0.89709 0.44543 0.54091 0.0
C1533 C 0.8929 0.45572 0.49163 0.0
H1534 H 0.88874 0.4391 0.62844 0.0
H1535 H 0.85056 0.5249 0.12644 0.0
loop_
_geom_bond_atom_site_label_1
_geom_bond_atom_site_label_2
_geom_bond_distance
_geom_bond_site_symmetry_2
_ccdc_geom_bond_type
P0 O11 1.490 . S
P0 C14 1.812 . S
P0 C20 1.803 . S
P0 C26 1.819 1_554 S
H1 C15 0.941 . S
H2 C16 0.939 . S
H3 C18 0.940 . S
H4 C19 0.940 . S
H5 C21 0.939 . S
H6 C22 0.942 . S
H7 C24 0.940 . S
H8 C25 0.939 . S
H9 C27 0.941 . S
H10 C31 0.939 . S
O11 P0 1.490 . S
H12 C28 0.939 . S
H13 C30 0.940 . S
C14 P0 1.812 . S
C14 C15 1.389 . S
C14 C19 1.391 . S
C15 H1 0.941 . S
C15 C14 1.389 . S
C15 C16 1.397 . S
C16 H2 0.939 . S
C16 C15 1.397 . S
C16 C17 1.378 . S
C17 C16 1.378 . S
C17 C18 1.378 . S
C18 H3 0.940 . S
C18 C17 1.378 . S
C18 C19 1.396 . S
C19 H4 0.940 . S
C19 C14 1.391 . S
C19 C18 1.396 . S
C20 P0 1.803 . S
C20 C21 1.378 1_554 S
C20 C25 1.400 . S
C21 H5 0.939 . S
C21 C20 1.378 1_556 S
C21 C22 1.361 . S
C22 H6 0.942 . S
C22 C21 1.361 . S
C22 C23 1.369 . S
C23 C22 1.369 . S
C23 C24 1.404 1_556 S
C24 H7 0.940 . S
C24 C23 1.404 1_554 S
C24 C25 1.389 . S
C25 H8 0.939 . S
C25 C20 1.400 . S
C25 C24 1.389 . S
C26 P0 1.819 1_556 S
C26 C27 1.391 . S
C26 C31 1.391 . S
C27 H9 0.941 . S
C27 C26 1.391 . S
C27 C28 1.396 . S
C28 H12 0.939 . S
C28 C27 1.396 . S
C28 C29 1.397 . S
C29 C28 1.397 . S
C29 C30 1.385 . S
C30 H13 0.940 . S
C30 C29 1.385 . S
C30 C31 1.388 . S
C31 H10 0.939 . S
C31 C26 1.391 . S
C31 C30 1.388 . S
P32 O43 1.490 . S
P32 C46 1.812 . S
P32 C52 1.803 1_554 S
P32 C58 1.819 1_554 S
H33 C47 0.941 . S
H34 C48 0.939 . S
H35 C50 0.940 . S
H36 C51 0.940 . S
H37 C53 0.939 . S
H38 C54 0.942 . S
H39 C56 0.940 1_554 S
H40 C57 0.939 . S
H41 C59 0.941 . S
H42 C63 0.939 . S
O43 P32 1.490 . S
H44 C60 0.939 . S
H45 C62 0.940 . S
C46 P32 1.812 . S
C46 C47 1.389 . S
C46 C51 1.391 . S
C47 H33 0.941 . S
C47 C46 1.389 . S
C47 C48 1.397 . S
C48 H34 0.939 . S
C48 C47 1.397 . S
C48 C49 1.378 . S
C49 C48 1.378 . S
C49 C50 1.378 . S
C50 H35 0.940 . S
C50 C49 1.378 . S
C50 C51 1.396 . S
C51 H36 0.940 . S
C51 C46 1.391 . S
C51 C50 1.396 . S
C52 P32 1.803 1_556 S
C52 C53 1.378 . S
C52 C57 1.400 1_556 S
C53 H37 0.939 . S
C53 C52 1.378 . S
C53 C54 1.361 . S
C54 H38 0.942 . S
C54 C53 1.361 . S
C54 C55 1.369 . S
C55 C54 1.369 . S
C55 C56 1.404 . S
C56 H39 0.940 1_556 S
C56 C55 1.404 . S
C56 C57 1.389 1_556 S
C57 H40 0.939 . S
C57 C52 1.400 1_554 S
C57 C56 1.389 1_554 S
C58 P32 1.819 1_556 S
C58 C59 1.391 . S
C58 C63 1.391 . S
C59 H41 0.941 . S
C59 C58 1.391 . S
C59 C60 1.396 . S
C60 H44 0.939 . S
C60 C59 1.396 . S
C60 C61 1.397 . S
C61 C60 1.397 . S
C61 C62 1.385 . S
C62 H45 0.940 . S
C62 C61 1.385 . S
C62 C63 1.388 . S
C63 H42 0.939 . S
C63 C58 1.391 . S
C63 C62 1.388 . S
P64 O75 1.490 . S
P64 C78 1.812 . S
P64 C84 1.803 . S
P64 C90 1.819 1_554 S
H65 C79 0.941 . S
H66 C80 0.939 . S
H67 C82 0.940 . S
H68 C83 0.950 . S
H69 C85 0.939 . S
H70 C86 0.942 . S
H71 C88 0.940 . S
H72 C89 0.957 . S
H73 C91 0.941 1_554 S
H74 C95 0.926 1_565 S
O75 P64 1.490 . S
H76 C92 0.939 . S
H77 C94 0.940 . S
C78 P64 1.812 . S
C78 C79 1.389 . S
C78 C83 1.376 1_545 S
C79 H65 0.941 . S
C79 C78 1.389 . S
C79 C80 1.397 . S
C80 H66 0.939 . S
C80 C79 1.397 . S
C80 C81 1.378 . S
C81 C80 1.378 . S
C81 C82 1.378 1_545 S
C82 H67 0.940 . S
C82 C81 1.378 1_565 S
C82 C83 1.402 . S
C83 H68 0.950 . S
C83 C78 1.376 1_565 S
C83 C82 1.402 . S
C84 P64 1.803 . S
C84 C85 1.378 1_554 S
C84 C89 1.367 1_545 S
C85 H69 0.939 . S
C85 C84 1.378 1_556 S
C85 C86 1.361 . S
C86 H70 0.942 . S
C86 C85 1.361 . S
C86 C87 1.369 . S
C87 C86 1.369 . S
C87 C88 1.404 1_546 S
C88 H71 0.940 . S
C88 C87 1.404 1_564 S
C88 C89 1.405 . S
C89 H72 0.957 . S
C89 C84 1.367 1_565 S
C89 C88 1.405 . S
C90 P64 1.819 1_556 S
C90 C91 1.391 . S
C90 C95 1.391 . S
C91 H73 0.941 1_556 S
C91 C90 1.391 . S
C91 C92 1.396 . S
C92 H76 0.939 . S
C92 C91 1.396 . S
C92 C93 1.397 . S
C93 C92 1.397 . S
C93 C94 1.385 1_545 S
C94 H77 0.940 . S
C94 C93 1.385 1_565 S
C94 C95 1.388 1_565 S
C95 H74 0.926 1_545 S
C95 C90 1.391 . S
C95 C94 1.388 1_545 S
P96 O107 1.490 . S
P96 C110 1.812 . S
P96 C116 1.803 . S
P96 C122 1.819 . S
H97 C111 0.941 . S
H98 C112 0.939 . S
H99 C114 0.940 . S
H100 C115 0.940 . S
H101 C117 0.939 . S
H102 C118 0.942 1_556 S
H103 C120 0.940 . S
H104 C121 0.939 . S
H105 C123 0.941 . S
H106 C127 0.939 . S
O107 P96 1.490 . S
H108 C124 0.939 . S
H109 C126 0.940 . S
C110 P96 1.812 . S
C110 C111 1.389 . S
C110 C115 1.391 . S
C111 H97 0.941 . S
C111 C110 1.389 . S
C111 C112 1.397 . S
C112 H98 0.939 . S
C112 C111 1.397 . S
C112 C113 1.378 . S
C113 C112 1.378 . S
C113 C114 1.378 . S
C114 H99 0.940 . S
C114 C113 1.378 . S
C114 C115 1.396 . S
C115 H100 0.940 . S
C115 C110 1.391 . S
C115 C114 1.396 . S
C116 P96 1.803 . S
C116 C117 1.378 . S
C116 C121 1.400 . S
C117 H101 0.939 . S
C117 C116 1.378 . S
C117 C118 1.361 . S
C118 H102 0.942 1_554 S
C118 C117 1.361 . S
C118 C119 1.369 . S
C119 C118 1.369 . S
C119 C120 1.404 . S
C120 H103 0.940 . S
C120 C119 1.404 . S
C120 C121 1.389 . S
C121 H104 0.939 . S
C121 C116 1.400 . S
C121 C120 1.389 . S
C122 P96 1.819 . S
C122 C123 1.391 . S
C122 C127 1.391 1_554 S
C123 H105 0.941 . S
C123 C122 1.391 . S
C123 C124 1.396 1_554 S
C124 H108 0.939 . S
C124 C123 1.396 1_556 S
C124 C125 1.397 . S
C125 C124 1.397 . S
C125 C126 1.385 . S
C126 H109 0.940 . S
C126 C125 1.385 . S
C126 C127 1.388 . S
C127 H106 0.939 . S
C127 C122 1.391 1_556 S
C127 C126 1.388 . S
P128 O139 1.490 . S
P128 C142 1.812 . S
P128 C148 1.803 . S
P128 C154 1.819 . S
H129 C143 0.941 . S
H130 C144 0.939 . S
H131 C146 0.940 . S
H132 C147 0.940 . S
H133 C149 0.939 . S
H134 C150 0.942 . S
H135 C152 0.940 . S
H136 C153 0.939 . S
H137 C155 0.941 . S
H138 C159 0.939 . S
O139 P128 1.490 . S
H140 C156 0.939 . S
H141 C158 0.940 . S
C142 P128 1.812 . S
C142 C143 1.389 1_554 S
C142 C147 1.391 . S
C143 H129 0.941 . S
C143 C142 1.389 1_556 S
C143 C144 1.397 . S
C144 H130 0.939 . S
C144 C143 1.397 . S
C144 C145 1.378 . S
C145 C144 1.378 . S
C145 C146 1.378 . S
C146 H131 0.940 . S
C146 C145 1.378 . S
C146 C147 1.396 1_556 S
C147 H132 0.940 . S
C147 C142 1.391 . S
C147 C146 1.396 1_554 S
C148 P128 1.803 . S
C148 C149 1.378 . S
C148 C153 1.400 . S
C149 H133 0.939 . S
C149 C148 1.378 . S
C149 C150 1.361 . S
C150 H134 0.942 . S
C150 C149 1.361 . S
C150 C151 1.369 . S
C151 C150 1.369 . S
C151 C152 1.404 . S
C152 H135 0.940 . S
C152 C151 1.404 . S
C152 C153 1.389 . S
C153 H136 0.939 . S
C153 C148 1.400 . S
C153 C152 1.389 . S
C154 P128 1.819 . S
C154 C155 1.391 . S
C154 C159 1.391 . S
C155 H137 0.941 . S
C155 C154 1.391 . S
C155 C156 1.396 . S
C156 H140 0.939 . S
C156 C155 1.396 . S
C156 C157 1.397 . S
C157 C156 1.397 . S
C157 C158 1.385 . S
C158 H141 0.940 . S
C158 C157 1.385 . S
C158 C159 1.388 . S
C159 H138 0.939 . S
C159 C154 1.391 . S
C159 C158 1.388 . S
P160 O171 1.490 . S
P160 C174 1.812 . S
P160 C180 1.803 . S
P160 C186 1.819 . S
H161 C175 0.941 . S
H162 C176 0.939 . S
H163 C178 0.940 . S
H164 C179 0.940 . S
H165 C181 0.939 . S
H166 C182 0.942 . S
H167 C184 0.940 . S
H168 C185 0.939 . S
H169 C187 0.941 . S
H170 C191 0.939 . S
O171 P160 1.490 . S
H172 C188 0.939 . S
H173 C190 0.940 . S
C174 P160 1.812 . S
C174 C175 1.389 . S
C174 C179 1.391 . S
C175 H161 0.941 . S
C175 C174 1.389 . S
C175 C176 1.397 1_554 S
C176 H162 0.939 . S
C176 C175 1.397 1_556 S
C176 C177 1.378 . S
C177 C176 1.378 . S
C177 C178 1.378 1_556 S
C178 H163 0.940 . S
C178 C177 1.378 1_554 S
C178 C179 1.396 . S
C179 H164 0.940 . S
C179 C174 1.391 . S
C179 C178 1.396 . S
C180 P160 1.803 . S
C180 C181 1.378 . S
C180 C185 1.400 . S
C181 H165 0.939 . S
C181 C180 1.378 . S
C181 C182 1.361 . S
C182 H166 0.942 . S
C182 C181 1.361 . S
C182 C183 1.369 . S
C183 C182 1.369 . S
C183 C184 1.404 . S
C184 H167 0.940 . S
C184 C183 1.404 . S
C184 C185 1.389 . S
C185 H168 0.939 . S
C185 C180 1.400 . S
C185 C184 1.389 . S
C186 P160 1.819 . S
C186 C187 1.391 . S
C186 C191 1.391 . S
C187 H169 0.941 . S
C187 C186 1.391 . S
C187 C188 1.396 . S
C188 H172 0.939 . S
C188 C187 1.396 . S
C188 C189 1.397 . S
C189 C188 1.397 . S
C189 C190 1.385 . S
C190 H173 0.940 . S
C190 C189 1.385 . S
C190 C191 1.388 . S
C191 H170 0.939 . S
C191 C186 1.391 . S
C191 C190 1.388 . S
P192 O203 1.490 . S
P192 C206 1.812 . S
P192 C212 1.803 . S
P192 C218 1.819 . S
H193 C207 0.941 . S
H194 C208 0.939 . S
H195 C210 0.940 . S
H196 C211 0.943 . S
H197 C213 0.939 . S
H198 C214 0.942 . S
H199 C216 0.940 . S
H200 C217 0.953 . S
H201 C219 0.941 . S
H202 C223 0.935 1_565 S
O203 P192 1.490 . S
H204 C220 0.939 . S
H205 C222 0.940 . S
C206 P192 1.812 . S
C206 C207 1.389 1_554 S
C206 C211 1.387 1_545 S
C207 H193 0.941 . S
C207 C206 1.389 1_556 S
C207 C208 1.397 . S
C208 H194 0.939 . S
C208 C207 1.397 . S
C208 C209 1.378 . S
C209 C208 1.378 . S
C209 C210 1.378 1_545 S
C210 H195 0.940 . S
C210 C209 1.378 1_565 S
C210 C211 1.398 1_556 S
C211 H196 0.943 . S
C211 C206 1.387 1_565 S
C211 C210 1.398 1_554 S
C212 P192 1.803 . S
C212 C213 1.378 . S
C212 C217 1.381 1_545 S
C213 H197 0.939 . S
C213 C212 1.378 . S
C213 C214 1.361 . S
C214 H198 0.942 . S
C214 C213 1.361 . S
C214 C215 1.369 . S
C215 C214 1.369 . S
C215 C216 1.404 1_545 S
C216 H199 0.940 . S
C216 C215 1.404 1_565 S
C216 C217 1.395 . S
C217 H200 0.953 . S
C217 C212 1.381 1_565 S
C217 C216 1.395 . S
C218 P192 1.819 . S
C218 C219 1.391 . S
C218 C223 1.391 . S
C219 H201 0.941 . S
C219 C218 1.391 . S
C219 C220 1.396 . S
C220 H204 0.939 . S
C220 C219 1.396 . S
C220 C221 1.397 . S
C221 C220 1.397 . S
C221 C222 1.385 1_545 S
C222 H205 0.940 . S
C222 C221 1.385 1_565 S
C222 C223 1.388 1_565 S
C223 H202 0.935 1_545 S
C223 C218 1.391 . S
C223 C222 1.388 1_545 S
P224 O235 1.490 . S
P224 C238 1.812 . S
P224 C244 1.803 . S
P224 C250 1.819 . S
H225 C239 0.941 . S
H226 C240 0.939 . S
H227 C242 0.940 . S
H228 C243 0.940 . S
H229 C245 0.939 . S
H230 C246 0.942 . S
H231 C248 0.940 . S
H232 C249 0.939 . S
H233 C251 0.941 . S
H234 C255 0.939 . S
O235 P224 1.490 . S
H236 C252 0.939 . S
H237 C254 0.940 . S
C238 P224 1.812 . S
C238 C239 1.389 1_554 S
C238 C243 1.391 . S
C239 H225 0.941 . S
C239 C238 1.389 1_556 S
C239 C240 1.397 . S
C240 H226 0.939 . S
C240 C239 1.397 . S
C240 C241 1.378 . S
C241 C240 1.378 . S
C241 C242 1.378 . S
C242 H227 0.940 . S
C242 C241 1.378 . S
C242 C243 1.396 1_556 S
C243 H228 0.940 . S
C243 C238 1.391 . S
C243 C242 1.396 1_554 S
C244 P224 1.803 . S
C244 C245 1.378 . S
C244 C249 1.400 . S
C245 H229 0.939 . S
C245 C244 1.378 . S
C245 C246 1.361 . S
C246 H230 0.942 . S
C246 C245 1.361 . S
C246 C247 1.369 . S
C247 C246 1.369 . S
C247 C248 1.404 . S
C248 H231 0.940 . S
C248 C247 1.404 . S
C248 C249 1.389 . S
C249 H232 0.939 . S
C249 C244 1.400 . S
C249 C248 1.389 . S
C250 P224 1.819 . S
C250 C251 1.391 . S
C250 C255 1.391 . S
C251 H233 0.941 . S
C251 C250 1.391 . S
C251 C252 1.396 . S
C252 H236 0.939 . S
C252 C251 1.396 . S
C252 C253 1.397 . S
C253 C252 1.397 . S
C253 C254 1.385 . S
C254 H237 0.940 . S
C254 C253 1.385 . S
C254 C255 1.388 . S
C255 H234 0.939 . S
C255 C250 1.391 . S
C255 C254 1.388 . S
Dy256 O260 2.398 . S
Dy256 O261 2.491 1_455 S
Dy256 O262 2.403 . S
Dy256 O263 2.664 1_565 S
Dy256 O267 2.326 . S
Dy256 O271 2.310 1_455 S
Dy256 O272 2.351 1_565 S
C257 O268 1.185 1_455 S
C257 O269 1.355 . S
C258 O260 1.185 . S
C258 O261 1.355 1_455 S
Dy259 O263 2.268 1_655 S
Dy259 O266 2.361 1_545 S
Dy259 O268 2.412 . S
Dy259 O269 2.462 1_655 S
Dy259 O270 2.446 . S
Dy259 O271 2.678 1_545 S
Dy259 O273 2.316 1_655 S
O260 Dy256 2.398 . S
O260 C258 1.185 . S
O261 Dy256 2.491 1_655 S
O261 C258 1.355 1_655 S
O262 Dy256 2.403 . S
O262 C264 1.254 . S
O263 Dy256 2.664 1_545 S
O263 Dy259 2.268 1_455 S
O263 C264 1.268 1_545 S
C264 O262 1.254 . S
C264 O263 1.268 1_565 S
C265 O270 1.254 . S
C265 O271 1.268 1_545 S
O266 Dy259 2.361 1_565 S
O266 C274 1.249 . S
O267 Dy256 2.326 . S
O267 C274 1.267 1_455 S
O268 C257 1.185 1_655 S
O268 Dy259 2.412 . S
O269 C257 1.355 . S
O269 Dy259 2.462 1_455 S
O270 Dy259 2.446 . S
O270 C265 1.254 . S
O271 Dy256 2.310 1_655 S
O271 Dy259 2.678 1_565 S
O271 C265 1.268 1_565 S
O272 Dy256 2.351 1_545 S
O272 C275 1.249 . S
O273 Dy259 2.316 1_455 S
O273 C275 1.267 . S
C274 O266 1.249 . S
C274 O267 1.267 1_655 S
C275 O272 1.249 . S
C275 O273 1.267 . S
Dy276 O280 2.398 . S
Dy276 O281 2.491 . S
Dy276 O282 2.403 . S
Dy276 O283 2.664 . S
Dy276 O287 2.326 1_565 S
Dy276 O291 2.310 1_565 S
Dy276 O292 2.351 . S
C277 O288 1.185 . S
C277 O289 1.355 . S
C278 O280 1.185 . S
C278 O281 1.355 . S
Dy279 O283 2.310 1_545 S
Dy279 O286 2.351 . S
Dy279 O288 2.398 . S
Dy279 O289 2.491 . S
Dy279 O290 2.403 . S
Dy279 O291 2.664 . S
Dy279 O293 2.326 1_545 S
O280 Dy276 2.398 . S
O280 C278 1.185 . S
O281 Dy276 2.491 . S
O281 C278 1.355 . S
O282 Dy276 2.403 . S
O282 C284 1.254 . S
O283 Dy276 2.664 . S
O283 Dy279 2.310 1_565 S
O283 C284 1.268 . S
C284 O282 1.254 . S
C284 O283 1.268 . S
C285 O290 1.254 . S
C285 O291 1.268 . S
O286 Dy279 2.351 . S
O286 C294 1.249 . S
O287 Dy276 2.326 1_545 S
O287 C294 1.267 . S
O288 C277 1.185 . S
O288 Dy279 2.398 . S
O289 C277 1.355 . S
O289 Dy279 2.491 . S
O290 Dy279 2.403 . S
O290 C285 1.254 . S
O291 Dy276 2.310 1_545 S
O291 Dy279 2.664 . S
O291 C285 1.268 . S
O292 Dy276 2.351 . S
O292 C295 1.249 . S
O293 Dy279 2.326 1_565 S
O293 C295 1.267 . S
C294 O286 1.249 . S
C294 O287 1.267 . S
C295 O292 1.249 . S
C295 O293 1.267 . S
Dy296 O300 2.398 . S
Dy296 O301 2.491 . S
Dy296 O302 2.403 . S
Dy296 O303 2.664 . S
Dy296 O307 2.326 . S
Dy296 O311 2.310 . S
Dy296 O312 2.351 . S
C297 O308 1.185 . S
C297 O309 1.355 . S
C298 O300 1.185 . S
C298 O301 1.355 . S
Dy299 O303 2.310 . S
Dy299 O306 2.351 . S
Dy299 O308 2.398 . S
Dy299 O309 2.491 . S
Dy299 O310 2.403 . S
Dy299 O311 2.664 . S
Dy299 O313 2.326 . S
O300 Dy296 2.398 . S
O300 C298 1.185 . S
O301 Dy296 2.491 . S
O301 C298 1.355 . S
O302 Dy296 2.403 . S
O302 C304 1.254 . S
O303 Dy296 2.664 . S
O303 Dy299 2.310 . S
O303 C304 1.268 . S
C304 O302 1.254 . S
C304 O303 1.268 . S
C305 O310 1.254 . S
C305 O311 1.268 . S
O306 Dy299 2.351 . S
O306 C314 1.249 . S
O307 Dy296 2.326 . S
O307 C314 1.267 . S
O308 C297 1.185 . S
O308 Dy299 2.398 . S
O309 C297 1.355 . S
O309 Dy299 2.491 . S
O310 Dy299 2.403 . S
O310 C305 1.254 . S
O311 Dy296 2.310 . S
O311 Dy299 2.664 . S
O311 C305 1.268 . S
O312 Dy296 2.351 . S
O312 C315 1.249 . S
O313 Dy299 2.326 . S
O313 C315 1.267 . S
C314 O306 1.249 . S
C314 O307 1.267 . S
C315 O312 1.249 . S
C315 O313 1.267 . S
Dy316 O320 2.398 . S
Dy316 O321 2.491 . S
Dy316 O322 2.403 1_655 S
Dy316 O323 2.664 1_655 S
Dy316 O327 2.326 . S
Dy316 O331 2.310 . S
Dy316 O332 2.351 1_655 S
C317 O328 1.185 . S
C317 O329 1.355 . S
C318 O320 1.185 . S
C318 O321 1.355 . S
Dy319 O323 2.310 . S
Dy319 O326 2.351 1_455 S
Dy319 O328 2.398 . S
Dy319 O329 2.491 . S
Dy319 O330 2.403 . S
Dy319 O331 2.664 1_455 S
Dy319 O333 2.326 . S
O320 Dy316 2.398 . S
O320 C318 1.185 . S
O321 Dy316 2.491 . S
O321 C318 1.355 . S
O322 Dy316 2.403 1_455 S
O322 C324 1.254 . S
O323 Dy316 2.664 1_455 S
O323 Dy319 2.310 . S
O323 C324 1.268 . S
C324 O322 1.254 . S
C324 O323 1.268 . S
C325 O330 1.254 1_655 S
C325 O331 1.268 . S
O326 Dy319 2.351 1_655 S
O326 C334 1.249 . S
O327 Dy316 2.326 . S
O327 C334 1.267 . S
O328 C317 1.185 . S
O328 Dy319 2.398 . S
O329 C317 1.355 . S
O329 Dy319 2.491 . S
O330 Dy319 2.403 . S
O330 C325 1.254 1_455 S
O331 Dy316 2.310 . S
O331 Dy319 2.664 1_655 S
O331 C325 1.268 . S
O332 Dy316 2.351 1_455 S
O332 C335 1.249 . S
O333 Dy319 2.326 . S
O333 C335 1.267 . S
C334 O326 1.249 . S
C334 O327 1.267 . S
C335 O332 1.249 . S
C335 O333 1.267 . S
H336 C354 0.951 . S
H337 C356 0.951 . S
H338 C358 0.950 . S
H339 C359 0.950 . S
H340 C361 0.954 . S
H341 C364 0.950 . S
H342 C365 0.950 . S
H343 C367 0.950 . S
H344 C368 0.950 . S
H345 C369 0.951 . S
H346 C371 0.951 . S
H347 C373 0.950 . S
H348 C374 0.950 . S
H349 C376 0.950 . S
H350 C379 0.950 . S
H351 C380 0.950 . S
H352 C382 0.950 . S
H353 C383 0.950 . S
C354 H336 0.951 . S
C354 C355 1.368 . S
C354 C356 1.388 . S
C355 C354 1.368 . S
C355 C359 1.382 1_565 S
C356 H337 0.951 . S
C356 C354 1.388 . S
C356 C357 1.369 . S
C357 C356 1.369 . S
C357 C358 1.411 1_565 S
C357 C360 1.498 . S
C358 H338 0.950 . S
C358 C357 1.411 1_545 S
C358 C359 1.374 . S
C359 H339 0.950 . S
C359 C355 1.382 1_545 S
C359 C358 1.374 . S
C360 C357 1.498 . S
C360 C361 1.371 . S
C360 C362 1.394 . S
C361 H340 0.954 . S
C361 C360 1.371 . S
C361 C377 1.378 . S
C362 C360 1.394 . S
C362 C363 1.517 1_565 S
C362 C376 1.379 . S
C363 C362 1.517 1_545 S
C363 C364 1.397 . S
C363 C368 1.363 1_545 S
C364 H341 0.950 . S
C364 C363 1.397 . S
C364 C365 1.334 . S
C365 H342 0.950 . S
C365 C364 1.334 . S
C365 C366 1.287 . S
C366 C365 1.287 . S
C366 C367 1.524 1_545 S
C366 H385 0.913 . S
C367 H343 0.950 . S
C367 C366 1.524 1_565 S
C367 C368 1.415 . S
C368 H344 0.950 . S
C368 C363 1.363 1_565 S
C368 C367 1.415 . S
C369 H345 0.951 . S
C369 C370 1.366 1_545 S
C369 C371 1.388 . S
C370 C369 1.366 1_565 S
C370 C374 1.385 . S
C371 H346 0.951 . S
C371 C369 1.388 . S
C371 C372 1.366 1_545 S
C372 C371 1.366 1_565 S
C372 C373 1.414 . S
C372 C375 1.499 . S
C373 H347 0.950 . S
C373 C372 1.414 . S
C373 C374 1.374 . S
C374 H348 0.950 . S
C374 C370 1.385 . S
C374 C373 1.374 . S
C375 C372 1.499 . S
C375 C376 1.373 . S
C375 C377 1.389 . S
C376 H349 0.950 . S
C376 C362 1.379 . S
C376 C375 1.373 . S
C377 C361 1.378 . S
C377 C375 1.389 . S
C377 C378 1.524 . S
C378 C377 1.524 . S
C378 C379 1.397 . S
C378 C383 1.363 1_565 S
C379 H350 0.950 . S
C379 C378 1.397 . S
C379 C380 1.334 . S
C380 H351 0.950 . S
C380 C379 1.334 . S
C380 C381 1.287 . S
C381 C380 1.287 . S
C381 C382 1.524 1_565 S
C381 H384 0.999 . S
C382 H352 0.950 . S
C382 C381 1.524 1_545 S
C382 C383 1.415 . S
C383 H353 0.950 . S
C383 C378 1.363 1_545 S
C383 C382 1.415 . S
H384 C381 0.999 . S
H385 C366 0.913 . S
H386 C404 0.951 . S
H387 C406 0.951 . S
H388 C408 0.950 . S
H389 C409 0.950 . S
H390 C411 0.950 . S
H391 C414 0.950 . S
H392 C415 0.950 . S
H393 C417 0.950 . S
H394 C418 0.950 . S
H395 C419 0.951 . S
H396 C421 0.951 . S
H397 C423 0.950 . S
H398 C424 0.950 . S
H399 C426 0.950 . S
H400 C429 0.950 . S
H401 C430 0.950 . S
H402 C432 0.950 . S
H403 C433 0.950 . S
C404 H386 0.951 . S
C404 C405 1.366 . S
C404 C406 1.388 . S
C405 C404 1.366 . S
C405 C409 1.385 . S
C406 H387 0.951 . S
C406 C404 1.388 . S
C406 C407 1.366 . S
C407 C406 1.366 . S
C407 C408 1.414 . S
C407 C410 1.499 . S
C408 H388 0.950 . S
C408 C407 1.414 . S
C408 C409 1.374 . S
C409 H389 0.950 . S
C409 C405 1.385 . S
C409 C408 1.374 . S
C410 C407 1.499 . S
C410 C411 1.373 . S
C410 C412 1.389 . S
C411 H390 0.950 . S
C411 C410 1.373 . S
C411 C427 1.377 . S
C412 C410 1.389 . S
C412 C413 1.524 . S
C412 C426 1.377 . S
C413 C412 1.524 . S
C413 C414 1.397 . S
C413 C418 1.363 . S
C414 H391 0.950 . S
C414 C413 1.397 . S
C414 C415 1.334 . S
C415 H392 0.950 . S
C415 C414 1.334 . S
C415 C416 1.287 . S
C416 C415 1.287 . S
C416 C417 1.524 . S
C416 H435 0.913 . S
C417 H393 0.950 . S
C417 C416 1.524 . S
C417 C418 1.415 . S
C418 H394 0.950 . S
C418 C413 1.363 . S
C418 C417 1.415 . S
C419 H395 0.951 . S
C419 C420 1.366 . S
C419 C421 1.388 . S
C420 C419 1.366 . S
C420 C424 1.385 . S
C421 H396 0.951 . S
C421 C419 1.388 . S
C421 C422 1.366 . S
C422 C421 1.366 . S
C422 C423 1.414 . S
C422 C425 1.499 . S
C423 H397 0.950 . S
C423 C422 1.414 . S
C423 C424 1.374 . S
C424 H398 0.950 . S
C424 C420 1.385 . S
C424 C423 1.374 . S
C425 C422 1.499 . S
C425 C426 1.373 . S
C425 C427 1.389 . S
C426 H399 0.950 . S
C426 C412 1.377 . S
C426 C425 1.373 . S
C427 C411 1.377 . S
C427 C425 1.389 . S
C427 C428 1.524 . S
C428 C427 1.524 . S
C428 C429 1.397 . S
C428 C433 1.363 . S
C429 H400 0.950 . S
C429 C428 1.397 . S
C429 C430 1.334 . S
C430 H401 0.950 . S
C430 C429 1.334 . S
C430 C431 1.287 . S
C431 C430 1.287 . S
C431 C432 1.524 . S
C431 H434 0.999 . S
C432 H402 0.950 . S
C432 C431 1.524 . S
C432 C433 1.415 . S
C433 H403 0.950 . S
C433 C428 1.363 . S
C433 C432 1.415 . S
H434 C431 0.999 . S
H435 C416 0.913 . S
H436 C454 0.951 . S
H437 C456 0.951 . S
H438 C458 0.950 . S
H439 C459 0.950 . S
H440 C461 0.950 . S
H441 C464 0.950 . S
H442 C465 0.950 . S
H443 C467 0.950 . S
H444 C468 0.950 . S
H445 C469 0.951 . S
H446 C471 0.951 . S
H447 C473 0.950 . S
H448 C474 0.950 . S
H449 C476 0.950 . S
H450 C479 0.950 . S
H451 C480 0.950 . S
H452 C482 0.950 . S
H453 C483 0.950 . S
C454 H436 0.951 . S
C454 C455 1.366 . S
C454 C456 1.388 . S
C455 C454 1.366 . S
C455 C459 1.385 . S
C456 H437 0.951 . S
C456 C454 1.388 . S
C456 C457 1.366 . S
C457 C456 1.366 . S
C457 C458 1.414 . S
C457 C460 1.499 . S
C458 H438 0.950 . S
C458 C457 1.414 . S
C458 C459 1.374 . S
C459 H439 0.950 . S
C459 C455 1.385 . S
C459 C458 1.374 . S
C460 C457 1.499 . S
C460 C461 1.373 . S
C460 C462 1.389 . S
C461 H440 0.950 . S
C461 C460 1.373 . S
C461 C477 1.377 . S
C462 C460 1.389 . S
C462 C463 1.524 . S
C462 C476 1.377 . S
C463 C462 1.524 . S
C463 C464 1.397 . S
C463 C468 1.363 . S
C464 H441 0.950 . S
C464 C463 1.397 . S
C464 C465 1.334 . S
C465 H442 0.950 . S
C465 C464 1.334 . S
C465 C466 1.287 . S
C466 C465 1.287 . S
C466 C467 1.524 . S
C466 H485 0.913 . S
C467 H443 0.950 . S
C467 C466 1.524 . S
C467 C468 1.415 . S
C468 H444 0.950 . S
C468 C463 1.363 . S
C468 C467 1.415 . S
C469 H445 0.951 . S
C469 C470 1.366 . S
C469 C471 1.388 . S
C470 C469 1.366 . S
C470 C474 1.385 . S
C471 H446 0.951 . S
C471 C469 1.388 . S
C471 C472 1.366 . S
C472 C471 1.366 . S
C472 C473 1.414 . S
C472 C475 1.499 . S
C473 H447 0.950 . S
C473 C472 1.414 . S
C473 C474 1.374 . S
C474 H448 0.950 . S
C474 C470 1.385 . S
C474 C473 1.374 . S
C475 C472 1.499 . S
C475 C476 1.373 . S
C475 C477 1.389 . S
C476 H449 0.950 . S
C476 C462 1.377 . S
C476 C475 1.373 . S
C477 C461 1.377 . S
C477 C475 1.389 . S
C477 C478 1.524 . S
C478 C477 1.524 . S
C478 C479 1.397 . S
C478 C483 1.363 . S
C479 H450 0.950 . S
C479 C478 1.397 . S
C479 C480 1.334 . S
C480 H451 0.950 . S
C480 C479 1.334 . S
C480 C481 1.287 . S
C481 C480 1.287 . S
C481 C482 1.524 . S
C481 H484 0.999 . S
C482 H452 0.950 . S
C482 C481 1.524 . S
C482 C483 1.415 . S
C483 H453 0.950 . S
C483 C478 1.363 . S
C483 C482 1.415 . S
H484 C481 0.999 . S
H485 C466 0.913 . S
H486 C504 0.951 . S
H487 C506 0.951 . S
H488 C508 0.950 . S
H489 C509 0.950 . S
H490 C511 0.950 . S
H491 C514 0.950 . S
H492 C515 0.950 . S
H493 C517 0.950 . S
H494 C518 0.950 . S
H495 C519 0.951 . S
H496 C521 0.951 . S
H497 C523 0.950 . S
H498 C524 0.950 1_655 S
H499 C526 0.950 . S
H500 C529 0.950 . S
H501 C530 0.950 . S
H502 C532 0.950 . S
H503 C533 0.950 . S
C504 H486 0.951 . S
C504 C505 1.366 . S
C504 C506 1.388 . S
C505 C504 1.366 . S
C505 C509 1.385 . S
C506 H487 0.951 . S
C506 C504 1.388 . S
C506 C507 1.366 . S
C507 C506 1.366 . S
C507 C508 1.414 . S
C507 C510 1.499 . S
C508 H488 0.950 . S
C508 C507 1.414 . S
C508 C509 1.374 . S
C509 H489 0.950 . S
C509 C505 1.385 . S
C509 C508 1.374 . S
C510 C507 1.499 . S
C510 C511 1.373 . S
C510 C512 1.389 . S
C511 H490 0.950 . S
C511 C510 1.373 . S
C511 C527 1.377 . S
C512 C510 1.389 . S
C512 C513 1.524 . S
C512 C526 1.377 . S
C513 C512 1.524 . S
C513 C514 1.397 . S
C513 C518 1.363 . S
C514 H491 0.950 . S
C514 C513 1.397 . S
C514 C515 1.334 . S
C515 H492 0.950 . S
C515 C514 1.334 . S
C515 C516 1.287 . S
C516 C515 1.287 . S
C516 C517 1.524 . S
C516 H535 0.913 . S
C517 H493 0.950 . S
C517 C516 1.524 . S
C517 C518 1.415 . S
C518 H494 0.950 . S
C518 C513 1.363 . S
C518 C517 1.415 . S
C519 H495 0.951 . S
C519 C520 1.366 . S
C519 C521 1.388 . S
C520 C519 1.366 . S
C520 C524 1.385 . S
C521 H496 0.951 . S
C521 C519 1.388 . S
C521 C522 1.366 . S
C522 C521 1.366 . S
C522 C523 1.414 . S
C522 C525 1.499 . S
C523 H497 0.950 . S
C523 C522 1.414 . S
C523 C524 1.374 . S
C524 H498 0.950 1_455 S
C524 C520 1.385 . S
C524 C523 1.374 . S
C525 C522 1.499 . S
C525 C526 1.373 . S
C525 C527 1.389 . S
C526 H499 0.950 . S
C526 C512 1.377 . S
C526 C525 1.373 . S
C527 C511 1.377 . S
C527 C525 1.389 . S
C527 C528 1.524 . S
C528 C527 1.524 . S
C528 C529 1.397 . S
C528 C533 1.363 . S
C529 H500 0.950 . S
C529 C528 1.397 . S
C529 C530 1.334 . S
C530 H501 0.950 . S
C530 C529 1.334 . S
C530 C531 1.287 . S
C531 C530 1.287 . S
C531 C532 1.524 . S
C531 H534 0.999 . S
C532 H502 0.950 . S
C532 C531 1.524 . S
C532 C533 1.415 . S
C533 H503 0.950 . S
C533 C528 1.363 . S
C533 C532 1.415 . S
H534 C531 0.999 . S
H535 C516 0.913 . S
H536 C554 0.951 1_554 S
H537 C556 0.951 . S
H538 C558 0.950 . S
H539 C559 0.950 . S
H540 C561 0.950 . S
H541 C564 0.950 . S
H542 C565 0.950 . S
H543 C567 0.950 . S
H544 C568 0.950 . S
H545 C569 0.951 . S
H546 C571 0.951 . S
H547 C573 0.950 . S
H548 C574 0.950 . S
H549 C576 0.950 . S
H550 C579 0.950 . S
H551 C580 0.950 . S
H552 C582 0.950 . S
H553 C583 0.950 . S
C554 H536 0.951 1_556 S
C554 C555 1.368 . S
C554 C556 1.388 . S
C555 C554 1.368 . S
C555 C559 1.382 1_545 S
C556 H537 0.951 . S
C556 C554 1.388 . S
C556 C557 1.366 . S
C557 C556 1.366 . S
C557 C558 1.414 1_545 S
C557 C560 1.499 . S
C558 H538 0.950 . S
C558 C557 1.414 1_565 S
C558 C559 1.374 . S
C559 H539 0.950 . S
C559 C555 1.382 1_565 S
C559 C558 1.374 . S
C560 C557 1.499 . S
C560 C561 1.373 1_545 S
C560 C562 1.389 . S
C561 H540 0.950 . S
C561 C560 1.373 1_565 S
C561 C577 1.377 . S
C562 C560 1.389 . S
C562 C563 1.524 . S
C562 C576 1.377 . S
C563 C562 1.524 . S
C563 C564 1.397 . S
C563 C568 1.363 . S
C564 H541 0.950 . S
C564 C563 1.397 . S
C564 C565 1.334 . S
C565 H542 0.950 . S
C565 C564 1.334 . S
C565 C566 1.287 . S
C566 C565 1.287 . S
C566 C567 1.524 . S
C566 H585 0.913 . S
C567 H543 0.950 . S
C567 C566 1.524 . S
C567 C568 1.415 . S
C568 H544 0.950 . S
C568 C563 1.363 . S
C568 C567 1.415 . S
C569 H545 0.951 . S
C569 C570 1.366 1_565 S
C569 C571 1.388 . S
C570 C569 1.366 1_545 S
C570 C574 1.385 . S
C571 H546 0.951 . S
C571 C569 1.388 . S
C571 C572 1.366 1_565 S
C572 C571 1.366 1_545 S
C572 C573 1.414 . S
C572 C575 1.499 . S
C573 H547 0.950 . S
C573 C572 1.414 . S
C573 C574 1.374 . S
C574 H548 0.950 . S
C574 C570 1.385 . S
C574 C573 1.374 . S
C575 C572 1.499 . S
C575 C576 1.373 . S
C575 C577 1.389 1_545 S
C576 H549 0.950 . S
C576 C562 1.377 . S
C576 C575 1.373 . S
C577 C561 1.377 . S
C577 C575 1.389 1_565 S
C577 C578 1.524 . S
C578 C577 1.524 . S
C578 C579 1.397 . S
C578 C583 1.363 . S
C579 H550 0.950 . S
C579 C578 1.397 . S
C579 C580 1.334 . S
C580 H551 0.950 . S
C580 C579 1.334 . S
C580 C581 1.287 . S
C581 C580 1.287 . S
C581 C582 1.524 . S
C581 H584 0.999 . S
C582 H552 0.950 . S
C582 C581 1.524 . S
C582 C583 1.415 . S
C583 H553 0.950 . S
C583 C578 1.363 . S
C583 C582 1.415 . S
H584 C581 0.999 . S
H585 C566 0.913 . S
H586 C604 0.951 . S
H587 C606 0.951 . S
H588 C608 0.950 . S
H589 C609 0.950 . S
H590 C611 0.950 . S
H591 C614 0.950 . S
H592 C615 0.950 . S
H593 C617 0.950 . S
H594 C618 0.950 . S
H595 C619 0.951 . S
H596 C621 0.951 . S
H597 C623 0.950 . S
H598 C624 0.950 . S
H599 C626 0.950 . S
H600 C629 0.950 . S
H601 C630 0.950 . S
H602 C632 0.950 . S
H603 C633 0.950 . S
C604 H586 0.951 . S
C604 C605 1.366 . S
C604 C606 1.388 . S
C605 C604 1.366 . S
C605 C609 1.385 . S
C606 H587 0.951 . S
C606 C604 1.388 . S
C606 C607 1.366 . S
C607 C606 1.366 . S
C607 C608 1.414 . S
C607 C610 1.499 . S
C608 H588 0.950 . S
C608 C607 1.414 . S
C608 C609 1.374 . S
C609 H589 0.950 . S
C609 C605 1.385 . S
C609 C608 1.374 . S
C610 C607 1.499 . S
C610 C611 1.373 . S
C610 C612 1.389 . S
C611 H590 0.950 . S
C611 C610 1.373 . S
C611 C627 1.377 . S
C612 C610 1.389 . S
C612 C613 1.524 . S
C612 C626 1.377 . S
C613 C612 1.524 . S
C613 C614 1.397 . S
C613 C618 1.363 . S
C614 H591 0.950 . S
C614 C613 1.397 . S
C614 C615 1.334 . S
C615 H592 0.950 . S
C615 C614 1.334 . S
C615 C616 1.287 . S
C616 C615 1.287 . S
C616 C617 1.524 . S
C616 H635 0.913 . S
C617 H593 0.950 . S
C617 C616 1.524 . S
C617 C618 1.415 . S
C618 H594 0.950 . S
C618 C613 1.363 . S
C618 C617 1.415 . S
C619 H595 0.951 . S
C619 C620 1.366 . S
C619 C621 1.388 . S
C620 C619 1.366 . S
C620 C624 1.385 . S
C621 H596 0.951 . S
C621 C619 1.388 . S
C621 C622 1.366 . S
C622 C621 1.366 . S
C622 C623 1.414 . S
C622 C625 1.499 . S
C623 H597 0.950 . S
C623 C622 1.414 . S
C623 C624 1.374 . S
C624 H598 0.950 . S
C624 C620 1.385 . S
C624 C623 1.374 . S
C625 C622 1.499 . S
C625 C626 1.373 . S
C625 C627 1.389 . S
C626 H599 0.950 . S
C626 C612 1.377 . S
C626 C625 1.373 . S
C627 C611 1.377 . S
C627 C625 1.389 . S
C627 C628 1.524 . S
C628 C627 1.524 . S
C628 C629 1.397 . S
C628 C633 1.363 . S
C629 H600 0.950 . S
C629 C628 1.397 . S
C629 C630 1.334 . S
C630 H601 0.950 . S
C630 C629 1.334 . S
C630 C631 1.287 . S
C631 C630 1.287 . S
C631 C632 1.524 . S
C631 H634 0.999 . S
C632 H602 0.950 . S
C632 C631 1.524 . S
C632 C633 1.415 . S
C633 H603 0.950 . S
C633 C628 1.363 . S
C633 C632 1.415 . S
H634 C631 0.999 . S
H635 C616 0.913 . S
H636 C654 0.951 . S
H637 C656 0.951 . S
H638 C658 0.950 . S
H639 C659 0.950 . S
H640 C661 0.950 . S
H641 C664 0.950 . S
H642 C665 0.950 . S
H643 C667 0.950 . S
H644 C668 0.950 . S
H645 C669 0.951 . S
H646 C671 0.951 . S
H647 C673 0.950 . S
H648 C674 0.950 . S
H649 C676 0.950 . S
H650 C679 0.950 . S
H651 C680 0.950 . S
H652 C682 0.950 . S
H653 C683 0.950 . S
C654 H636 0.951 . S
C654 C655 1.366 . S
C654 C656 1.388 . S
C655 C654 1.366 . S
C655 C659 1.385 . S
C656 H637 0.951 . S
C656 C654 1.388 . S
C656 C657 1.366 . S
C657 C656 1.366 . S
C657 C658 1.414 . S
C657 C660 1.499 . S
C658 H638 0.950 . S
C658 C657 1.414 . S
C658 C659 1.374 . S
C659 H639 0.950 . S
C659 C655 1.385 . S
C659 C658 1.374 . S
C660 C657 1.499 . S
C660 C661 1.373 . S
C660 C662 1.389 . S
C661 H640 0.950 . S
C661 C660 1.373 . S
C661 C677 1.377 . S
C662 C660 1.389 . S
C662 C663 1.524 . S
C662 C676 1.377 . S
C663 C662 1.524 . S
C663 C664 1.397 . S
C663 C668 1.363 . S
C664 H641 0.950 . S
C664 C663 1.397 . S
C664 C665 1.334 . S
C665 H642 0.950 . S
C665 C664 1.334 . S
C665 C666 1.287 . S
C666 C665 1.287 . S
C666 C667 1.524 . S
C666 H685 0.913 . S
C667 H643 0.950 . S
C667 C666 1.524 . S
C667 C668 1.415 . S
C668 H644 0.950 . S
C668 C663 1.363 . S
C668 C667 1.415 . S
C669 H645 0.951 . S
C669 C670 1.366 . S
C669 C671 1.388 . S
C670 C669 1.366 . S
C670 C674 1.385 . S
C671 H646 0.951 . S
C671 C669 1.388 . S
C671 C672 1.366 . S
C672 C671 1.366 . S
C672 C673 1.414 . S
C672 C675 1.499 . S
C673 H647 0.950 . S
C673 C672 1.414 . S
C673 C674 1.374 . S
C674 H648 0.950 . S
C674 C670 1.385 . S
C674 C673 1.374 . S
C675 C672 1.499 . S
C675 C676 1.373 . S
C675 C677 1.389 . S
C676 H649 0.950 . S
C676 C662 1.377 . S
C676 C675 1.373 . S
C677 C661 1.377 . S
C677 C675 1.389 . S
C677 C678 1.524 . S
C678 C677 1.524 . S
C678 C679 1.397 . S
C678 C683 1.363 . S
C679 H650 0.950 . S
C679 C678 1.397 . S
C679 C680 1.334 . S
C680 H651 0.950 . S
C680 C679 1.334 . S
C680 C681 1.287 . S
C681 C680 1.287 . S
C681 C682 1.524 . S
C681 H684 0.999 . S
C682 H652 0.950 . S
C682 C681 1.524 . S
C682 C683 1.415 . S
C683 H653 0.950 . S
C683 C678 1.363 . S
C683 C682 1.415 . S
H684 C681 0.999 . S
H685 C666 0.913 . S
H686 C704 0.951 . S
H687 C706 0.951 . S
H688 C708 0.950 . S
H689 C709 0.950 . S
H690 C711 0.950 . S
H691 C714 0.950 . S
H692 C715 0.950 1_554 S
H693 C717 0.950 . S
H694 C718 0.950 . S
H695 C719 0.951 . S
H696 C721 0.951 1_455 S
H697 C723 0.950 . S
H698 C724 0.950 . S
H699 C726 0.950 . S
H700 C729 0.950 . S
H701 C730 0.950 . S
H702 C732 0.950 1_455 S
H703 C733 0.950 . S
C704 H686 0.951 . S
C704 C705 1.366 . S
C704 C706 1.388 . S
C705 C704 1.366 . S
C705 C709 1.385 . S
C706 H687 0.951 . S
C706 C704 1.388 . S
C706 C707 1.366 . S
C707 C706 1.366 . S
C707 C708 1.414 . S
C707 C710 1.499 . S
C708 H688 0.950 . S
C708 C707 1.414 . S
C708 C709 1.374 . S
C709 H689 0.950 . S
C709 C705 1.385 . S
C709 C708 1.374 . S
C710 C707 1.499 . S
C710 C711 1.373 . S
C710 C712 1.389 . S
C711 H690 0.950 . S
C711 C710 1.373 . S
C711 C727 1.377 . S
C712 C710 1.389 . S
C712 C713 1.524 . S
C712 C726 1.377 . S
C713 C712 1.524 . S
C713 C714 1.397 . S
C713 C718 1.363 . S
C714 H691 0.950 . S
C714 C713 1.397 . S
C714 C715 1.334 . S
C715 H692 0.950 1_556 S
C715 C714 1.334 . S
C715 C716 1.287 . S
C716 C715 1.287 . S
C716 C717 1.524 . S
C716 H735 0.913 1_556 S
C717 H693 0.950 . S
C717 C716 1.524 . S
C717 C718 1.415 . S
C718 H694 0.950 . S
C718 C713 1.363 . S
C718 C717 1.415 . S
C719 H695 0.951 . S
C719 C720 1.366 1_455 S
C719 C721 1.388 1_455 S
C720 C719 1.366 1_655 S
C720 C724 1.385 . S
C721 H696 0.951 1_655 S
C721 C719 1.388 1_655 S
C721 C722 1.366 . S
C722 C721 1.366 . S
C722 C723 1.414 . S
C722 C725 1.499 . S
C723 H697 0.950 . S
C723 C722 1.414 . S
C723 C724 1.374 . S
C724 H698 0.950 . S
C724 C720 1.385 . S
C724 C723 1.374 . S
C725 C722 1.499 . S
C725 C726 1.373 . S
C725 C727 1.389 . S
C726 H699 0.950 . S
C726 C712 1.377 . S
C726 C725 1.373 . S
C727 C711 1.377 . S
C727 C725 1.389 . S
C727 C728 1.524 . S
C728 C727 1.524 . S
C728 C729 1.397 . S
C728 C733 1.363 . S
C729 H700 0.950 . S
C729 C728 1.397 . S
C729 C730 1.334 . S
C730 H701 0.950 . S
C730 C729 1.334 . S
C730 C731 1.287 . S
C731 C730 1.287 . S
C731 C732 1.524 . S
C731 H734 0.999 . S
C732 H702 0.950 1_655 S
C732 C731 1.524 . S
C732 C733 1.415 . S
C733 H703 0.950 . S
C733 C728 1.363 . S
C733 C732 1.415 . S
H734 C731 0.999 . S
H735 C716 0.913 1_554 S
H736 C754 0.951 . S
H737 C756 0.951 . S
H738 C758 0.950 . S
H739 C759 0.950 . S
H740 C761 0.950 . S
H741 C764 0.950 . S
H742 C765 0.950 . S
H743 C767 0.950 . S
H744 C768 0.950 . S
H745 C769 0.951 1_655 S
H746 C771 0.951 . S
H747 C773 0.950 . S
H748 C774 0.950 . S
H749 C776 0.950 . S
H750 C779 0.933 1_455 S
H751 C780 0.950 . S
H752 C782 0.950 . S
H753 C783 0.950 1_455 S
C754 H736 0.951 . S
C754 C755 1.366 . S
C754 C756 1.388 . S
C755 C754 1.366 . S
C755 C759 1.385 . S
C756 H737 0.951 . S
C756 C754 1.388 . S
C756 C757 1.366 . S
C757 C756 1.366 . S
C757 C758 1.414 . S
C757 C760 1.499 . S
C758 H738 0.950 . S
C758 C757 1.414 . S
C758 C759 1.374 . S
C759 H739 0.950 . S
C759 C755 1.385 . S
C759 C758 1.374 . S
C760 C757 1.499 . S
C760 C761 1.373 . S
C760 C762 1.389 . S
C761 H740 0.950 . S
C761 C760 1.373 . S
C761 C777 1.377 . S
C762 C760 1.389 . S
C762 C763 1.524 . S
C762 C776 1.377 . S
C763 C762 1.524 . S
C763 C764 1.397 . S
C763 C768 1.363 . S
C764 H741 0.950 . S
C764 C763 1.397 . S
C764 C765 1.334 . S
C765 H742 0.950 . S
C765 C764 1.334 . S
C765 C766 1.287 . S
C766 C765 1.287 . S
C766 C767 1.524 . S
C766 H785 0.913 . S
C767 H743 0.950 . S
C767 C766 1.524 . S
C767 C768 1.415 . S
C768 H744 0.950 . S
C768 C763 1.363 . S
C768 C767 1.415 . S
C769 H745 0.951 1_455 S
C769 C770 1.366 . S
C769 C771 1.388 . S
C770 C769 1.366 . S
C770 C774 1.385 . S
C771 H746 0.951 . S
C771 C769 1.388 . S
C771 C772 1.366 . S
C772 C771 1.366 . S
C772 C773 1.414 . S
C772 C775 1.499 . S
C773 H747 0.950 . S
C773 C772 1.414 . S
C773 C774 1.374 . S
C774 H748 0.950 . S
C774 C770 1.385 . S
C774 C773 1.374 . S
C775 C772 1.499 . S
C775 C776 1.373 . S
C775 C777 1.389 . S
C776 H749 0.950 . S
C776 C762 1.377 . S
C776 C775 1.373 . S
C777 C761 1.377 . S
C777 C775 1.389 . S
C777 C778 1.524 . S
C778 C777 1.524 . S
C778 C779 1.387 1_455 S
C778 C783 1.363 1_455 S
C779 H750 0.933 1_655 S
C779 C778 1.387 1_655 S
C779 C780 1.360 . S
C780 H751 0.950 . S
C780 C779 1.360 . S
C780 C781 1.287 . S
C781 C780 1.287 . S
C781 C782 1.524 . S
C781 H784 0.999 . S
C782 H752 0.950 . S
C782 C781 1.524 . S
C782 C783 1.415 . S
C783 H753 0.950 1_655 S
C783 C778 1.363 1_655 S
C783 C782 1.415 . S
H784 C781 0.999 . S
H785 C766 0.913 . S
H786 C804 0.952 . S
H787 C806 0.951 . S
H788 C808 0.950 . S
H789 C809 0.950 . S
H790 C811 0.950 . S
H791 C814 0.950 . S
H792 C815 0.950 . S
H793 C817 0.950 . S
H794 C818 0.950 . S
H795 C819 0.951 . S
H796 C821 0.951 . S
H797 C823 0.950 . S
H798 C824 0.950 . S
H799 C826 0.950 . S
H800 C829 0.950 . S
H801 C830 0.950 . S
H802 C832 0.950 . S
H803 C833 0.950 . S
C804 H786 0.952 . S
C804 C805 1.356 1_565 S
C804 C806 1.397 . S
C805 C804 1.356 1_545 S
C805 C809 1.384 . S
C806 H787 0.951 . S
C806 C804 1.397 . S
C806 C807 1.365 . S
C807 C806 1.365 . S
C807 C808 1.412 1_565 S
C807 C810 1.503 . S
C808 H788 0.950 . S
C808 C807 1.412 1_545 S
C808 C809 1.374 . S
C809 H789 0.950 . S
C809 C805 1.384 . S
C809 C808 1.374 . S
C810 C807 1.503 . S
C810 C811 1.373 . S
C810 C812 1.389 1_565 S
C811 H790 0.950 . S
C811 C810 1.373 . S
C811 C827 1.377 . S
C812 C810 1.389 1_545 S
C812 C813 1.524 . S
C812 C826 1.377 . S
C813 C812 1.524 . S
C813 C814 1.397 . S
C813 C818 1.363 . S
C814 H791 0.950 . S
C814 C813 1.397 . S
C814 C815 1.334 . S
C815 H792 0.950 . S
C815 C814 1.334 . S
C815 C816 1.287 . S
C816 C815 1.287 . S
C816 C817 1.524 . S
C816 H835 0.913 . S
C817 H793 0.950 . S
C817 C816 1.524 . S
C817 C818 1.415 . S
C818 H794 0.950 . S
C818 C813 1.363 . S
C818 C817 1.415 . S
C819 H795 0.951 . S
C819 C820 1.366 . S
C819 C821 1.388 . S
C820 C819 1.366 . S
C820 C824 1.385 . S
C821 H796 0.951 . S
C821 C819 1.388 . S
C821 C822 1.366 . S
C822 C821 1.366 . S
C822 C823 1.414 . S
C822 C825 1.499 . S
C823 H797 0.950 . S
C823 C822 1.414 . S
C823 C824 1.374 . S
C824 H798 0.950 . S
C824 C820 1.385 . S
C824 C823 1.374 . S
C825 C822 1.499 . S
C825 C826 1.373 1_565 S
C825 C827 1.389 . S
C826 H799 0.950 . S
C826 C812 1.377 . S
C826 C825 1.373 1_545 S
C827 C811 1.377 . S
C827 C825 1.389 . S
C827 C828 1.524 . S
C828 C827 1.524 . S
C828 C829 1.397 . S
C828 C833 1.363 . S
C829 H800 0.950 . S
C829 C828 1.397 . S
C829 C830 1.334 . S
C830 H801 0.950 . S
C830 C829 1.334 . S
C830 C831 1.287 . S
C831 C830 1.287 . S
C831 C832 1.524 . S
C831 H834 0.999 . S
C832 H802 0.950 . S
C832 C831 1.524 . S
C832 C833 1.415 . S
C833 H803 0.950 . S
C833 C828 1.363 . S
C833 C832 1.415 . S
H834 C831 0.999 . S
H835 C816 0.913 . S
H836 C854 0.951 . S
H837 C856 0.951 . S
H838 C858 0.950 . S
H839 C859 0.950 . S
H840 C861 0.950 . S
H841 C864 0.950 . S
H842 C865 0.950 . S
H843 C867 0.950 . S
H844 C868 0.950 . S
H845 C869 0.951 . S
H846 C871 0.951 . S
H847 C873 0.950 . S
H848 C874 0.950 . S
H849 C876 0.950 . S
H850 C879 0.950 . S
H851 C880 0.950 . S
H852 C882 0.950 . S
H853 C883 0.950 . S
C854 H836 0.951 . S
C854 C855 1.366 . S
C854 C856 1.388 . S
C855 C854 1.366 . S
C855 C859 1.385 . S
C856 H837 0.951 . S
C856 C854 1.388 . S
C856 C857 1.366 . S
C857 C856 1.366 . S
C857 C858 1.414 . S
C857 C860 1.499 . S
C858 H838 0.950 . S
C858 C857 1.414 . S
C858 C859 1.374 . S
C859 H839 0.950 . S
C859 C855 1.385 . S
C859 C858 1.374 . S
C860 C857 1.499 . S
C860 C861 1.373 . S
C860 C862 1.389 . S
C861 H840 0.950 . S
C861 C860 1.373 . S
C861 C877 1.377 . S
C862 C860 1.389 . S
C862 C863 1.524 . S
C862 C876 1.377 . S
C863 C862 1.524 . S
C863 C864 1.397 . S
C863 C868 1.363 . S
C864 H841 0.950 . S
C864 C863 1.397 . S
C864 C865 1.334 . S
C865 H842 0.950 . S
C865 C864 1.334 . S
C865 C866 1.287 . S
C866 C865 1.287 . S
C866 C867 1.524 . S
C866 H885 0.913 . S
C867 H843 0.950 . S
C867 C866 1.524 . S
C867 C868 1.415 . S
C868 H844 0.950 . S
C868 C863 1.363 . S
C868 C867 1.415 . S
C869 H845 0.951 . S
C869 C870 1.366 . S
C869 C871 1.388 . S
C870 C869 1.366 . S
C870 C874 1.385 . S
C871 H846 0.951 . S
C871 C869 1.388 . S
C871 C872 1.366 . S
C872 C871 1.366 . S
C872 C873 1.414 . S
C872 C875 1.499 . S
C873 H847 0.950 . S
C873 C872 1.414 . S
C873 C874 1.374 . S
C874 H848 0.950 . S
C874 C870 1.385 . S
C874 C873 1.374 . S
C875 C872 1.499 . S
C875 C876 1.373 . S
C875 C877 1.389 . S
C876 H849 0.950 . S
C876 C862 1.377 . S
C876 C875 1.373 . S
C877 C861 1.377 . S
C877 C875 1.389 . S
C877 C878 1.524 . S
C878 C877 1.524 . S
C878 C879 1.397 . S
C878 C883 1.363 . S
C879 H850 0.950 . S
C879 C878 1.397 . S
C879 C880 1.334 . S
C880 H851 0.950 . S
C880 C879 1.334 . S
C880 C881 1.287 . S
C881 C880 1.287 . S
C881 C882 1.524 . S
C881 H884 0.999 . S
C882 H852 0.950 . S
C882 C881 1.524 . S
C882 C883 1.415 . S
C883 H853 0.950 . S
C883 C878 1.363 . S
C883 C882 1.415 . S
H884 C881 0.999 . S
H885 C866 0.913 . S
H886 C904 0.951 . S
H887 C906 0.951 . S
H888 C908 0.950 . S
H889 C909 0.950 . S
H890 C911 0.950 . S
H891 C914 0.950 . S
H892 C915 0.950 . S
H893 C917 0.950 . S
H894 C918 0.950 . S
H895 C919 0.951 . S
H896 C921 0.951 . S
H897 C923 0.950 . S
H898 C924 0.950 . S
H899 C926 0.950 . S
H900 C929 0.950 . S
H901 C930 0.950 . S
H902 C932 0.950 . S
H903 C933 0.950 . S
C904 H886 0.951 . S
C904 C905 1.366 . S
C904 C906 1.388 . S
C905 C904 1.366 . S
C905 C909 1.385 . S
C906 H887 0.951 . S
C906 C904 1.388 . S
C906 C907 1.366 . S
C907 C906 1.366 . S
C907 C908 1.414 . S
C907 C910 1.499 . S
C908 H888 0.950 . S
C908 C907 1.414 . S
C908 C909 1.374 . S
C909 H889 0.950 . S
C909 C905 1.385 . S
C909 C908 1.374 . S
C910 C907 1.499 . S
C910 C911 1.373 . S
C910 C912 1.389 . S
C911 H890 0.950 . S
C911 C910 1.373 . S
C911 C927 1.377 . S
C912 C910 1.389 . S
C912 C913 1.524 . S
C912 C926 1.377 . S
C913 C912 1.524 . S
C913 C914 1.397 . S
C913 C918 1.363 . S
C914 H891 0.950 . S
C914 C913 1.397 . S
C914 C915 1.334 . S
C915 H892 0.950 . S
C915 C914 1.334 . S
C915 C916 1.287 . S
C916 C915 1.287 . S
C916 C917 1.524 . S
C916 H935 0.913 . S
C917 H893 0.950 . S
C917 C916 1.524 . S
C917 C918 1.415 . S
C918 H894 0.950 . S
C918 C913 1.363 . S
C918 C917 1.415 . S
C919 H895 0.951 . S
C919 C920 1.366 . S
C919 C921 1.388 . S
C920 C919 1.366 . S
C920 C924 1.385 . S
C921 H896 0.951 . S
C921 C919 1.388 . S
C921 C922 1.366 . S
C922 C921 1.366 . S
C922 C923 1.414 . S
C922 C925 1.499 . S
C923 H897 0.950 . S
C923 C922 1.414 . S
C923 C924 1.374 . S
C924 H898 0.950 . S
C924 C920 1.385 . S
C924 C923 1.374 . S
C925 C922 1.499 . S
C925 C926 1.373 . S
C925 C927 1.389 . S
C926 H899 0.950 . S
C926 C912 1.377 . S
C926 C925 1.373 . S
C927 C911 1.377 . S
C927 C925 1.389 . S
C927 C928 1.524 . S
C928 C927 1.524 . S
C928 C929 1.397 . S
C928 C933 1.363 . S
C929 H900 0.950 . S
C929 C928 1.397 . S
C929 C930 1.334 . S
C930 H901 0.950 . S
C930 C929 1.334 . S
C930 C931 1.287 . S
C931 C930 1.287 . S
C931 C932 1.524 . S
C931 H934 0.999 . S
C932 H902 0.950 . S
C932 C931 1.524 . S
C932 C933 1.415 . S
C933 H903 0.950 . S
C933 C928 1.363 . S
C933 C932 1.415 . S
H934 C931 0.999 . S
H935 C916 0.913 . S
H936 C954 0.951 . S
H937 C956 0.951 . S
H938 C958 0.950 . S
H939 C959 0.950 . S
H940 C961 0.950 . S
H941 C964 0.950 . S
H942 C965 0.950 . S
H943 C967 0.950 . S
H944 C968 0.950 . S
H945 C969 0.951 . S
H946 C971 0.951 . S
H947 C973 0.950 . S
H948 C974 0.950 1_455 S
H949 C976 0.950 . S
H950 C979 0.950 . S
H951 C980 0.950 . S
H952 C982 0.950 . S
H953 C983 0.950 . S
C954 H936 0.951 . S
C954 C955 1.366 . S
C954 C956 1.388 . S
C955 C954 1.366 . S
C955 C959 1.385 . S
C956 H937 0.951 . S
C956 C954 1.388 . S
C956 C957 1.366 . S
C957 C956 1.366 . S
C957 C958 1.414 . S
C957 C960 1.499 . S
C958 H938 0.950 . S
C958 C957 1.414 . S
C958 C959 1.374 . S
C959 H939 0.950 . S
C959 C955 1.385 . S
C959 C958 1.374 . S
C960 C957 1.499 . S
C960 C961 1.373 . S
C960 C962 1.389 . S
C961 H940 0.950 . S
C961 C960 1.373 . S
C961 C977 1.377 . S
C962 C960 1.389 . S
C962 C963 1.524 . S
C962 C976 1.377 . S
C963 C962 1.524 . S
C963 C964 1.397 . S
C963 C968 1.363 . S
C964 H941 0.950 . S
C964 C963 1.397 . S
C964 C965 1.334 . S
C965 H942 0.950 . S
C965 C964 1.334 . S
C965 C966 1.287 . S
C966 C965 1.287 . S
C966 C967 1.524 . S
C966 H985 0.913 . S
C967 H943 0.950 . S
C967 C966 1.524 . S
C967 C968 1.415 . S
C968 H944 0.950 . S
C968 C963 1.363 . S
C968 C967 1.415 . S
C969 H945 0.951 . S
C969 C970 1.354 1_655 S
C969 C971 1.388 . S
C970 C969 1.354 1_455 S
C970 C974 1.381 1_455 S
C971 H946 0.951 . S
C971 C969 1.388 . S
C971 C972 1.366 . S
C972 C971 1.366 . S
C972 C973 1.414 . S
C972 C975 1.499 . S
C973 H947 0.950 . S
C973 C972 1.414 . S
C973 C974 1.374 . S
C974 H948 0.950 1_655 S
C974 C970 1.381 1_655 S
C974 C973 1.374 . S
C975 C972 1.499 . S
C975 C976 1.373 . S
C975 C977 1.389 . S
C976 H949 0.950 . S
C976 C962 1.377 . S
C976 C975 1.373 . S
C977 C961 1.377 . S
C977 C975 1.389 . S
C977 C978 1.524 . S
C978 C977 1.524 . S
C978 C979 1.397 1_655 S
C978 C983 1.363 . S
C979 H950 0.950 . S
C979 C978 1.397 1_455 S
C979 C980 1.334 . S
C980 H951 0.950 . S
C980 C979 1.334 . S
C980 C981 1.287 . S
C981 C980 1.287 . S
C981 C982 1.524 . S
C981 H984 0.999 . S
C982 H952 0.950 . S
C982 C981 1.524 . S
C982 C983 1.415 1_455 S
C983 H953 0.950 . S
C983 C978 1.363 . S
C983 C982 1.415 1_655 S
H984 C981 0.999 . S
H985 C966 0.913 . S
H986 C1004 0.951 . S
H987 C1006 0.951 . S
H988 C1008 0.950 . S
H989 C1009 0.950 . S
H990 C1011 0.950 . S
H991 C1014 0.950 . S
H992 C1015 0.950 1_554 S
H993 C1017 0.950 . S
H994 C1018 0.950 . S
H995 C1019 0.951 . S
H996 C1021 0.951 . S
H997 C1023 0.950 . S
H998 C1024 0.950 . S
H999 C1026 0.950 . S
H1000 C1029 0.950 . S
H1001 C1030 0.950 . S
H1002 C1032 0.950 1_565 S
H1003 C1033 0.950 . S
C1004 H986 0.951 . S
C1004 C1005 1.337 1_545 S
C1004 C1006 1.388 . S
C1005 C1004 1.337 1_565 S
C1005 C1009 1.408 . S
C1006 H987 0.951 . S
C1006 C1004 1.388 . S
C1006 C1007 1.397 . S
C1007 C1006 1.397 . S
C1007 C1008 1.376 1_545 S
C1007 C1010 1.508 . S
C1008 H988 0.950 . S
C1008 C1007 1.376 1_565 S
C1008 C1009 1.374 . S
C1009 H989 0.950 . S
C1009 C1005 1.408 . S
C1009 C1008 1.374 . S
C1010 C1007 1.508 . S
C1010 C1011 1.373 . S
C1010 C1012 1.389 . S
C1011 H990 0.950 . S
C1011 C1010 1.373 . S
C1011 C1027 1.377 . S
C1012 C1010 1.389 . S
C1012 C1013 1.524 1_545 S
C1012 C1026 1.377 . S
C1013 C1012 1.524 1_565 S
C1013 C1014 1.397 . S
C1013 C1018 1.363 1_565 S
C1014 H991 0.950 . S
C1014 C1013 1.397 . S
C1014 C1015 1.334 . S
C1015 H992 0.950 1_556 S
C1015 C1014 1.334 . S
C1015 C1016 1.287 1_556 S
C1016 C1015 1.287 1_554 S
C1016 C1017 1.524 1_565 S
C1016 H1035 0.913 . S
C1017 H993 0.950 . S
C1017 C1016 1.524 1_545 S
C1017 C1018 1.415 1_554 S
C1018 H994 0.950 . S
C1018 C1013 1.363 1_545 S
C1018 C1017 1.415 1_556 S
C1019 H995 0.951 . S
C1019 C1020 1.366 1_565 S
C1019 C1021 1.388 . S
C1020 C1019 1.366 1_545 S
C1020 C1024 1.385 . S
C1021 H996 0.951 . S
C1021 C1019 1.388 . S
C1021 C1022 1.366 1_565 S
C1022 C1021 1.366 1_545 S
C1022 C1023 1.414 . S
C1022 C1025 1.499 . S
C1023 H997 0.950 . S
C1023 C1022 1.414 . S
C1023 C1024 1.374 . S
C1024 H998 0.950 . S
C1024 C1020 1.385 . S
C1024 C1023 1.374 . S
C1025 C1022 1.499 . S
C1025 C1026 1.373 . S
C1025 C1027 1.389 . S
C1026 H999 0.950 . S
C1026 C1012 1.377 . S
C1026 C1025 1.373 . S
C1027 C1011 1.377 . S
C1027 C1025 1.389 . S
C1027 C1028 1.524 . S
C1028 C1027 1.524 . S
C1028 C1029 1.397 . S
C1028 C1033 1.363 1_545 S
C1029 H1000 0.950 . S
C1029 C1028 1.397 . S
C1029 C1030 1.334 . S
C1030 H1001 0.950 . S
C1030 C1029 1.334 . S
C1030 C1031 1.287 . S
C1031 C1030 1.287 . S
C1031 C1032 1.524 . S
C1031 H1034 0.999 . S
C1032 H1002 0.950 1_545 S
C1032 C1031 1.524 . S
C1032 C1033 1.415 1_545 S
C1033 H1003 0.950 . S
C1033 C1028 1.363 1_565 S
C1033 C1032 1.415 1_565 S
H1034 C1031 0.999 . S
H1035 C1016 0.913 . S
H1036 C1054 0.951 . S
H1037 C1056 0.951 . S
H1038 C1058 0.950 . S
H1039 C1059 0.950 . S
H1040 C1061 0.950 . S
H1041 C1064 0.950 . S
H1042 C1065 0.950 . S
H1043 C1067 0.950 . S
H1044 C1068 0.950 . S
H1045 C1069 0.951 . S
H1046 C1071 0.951 . S
H1047 C1073 0.950 . S
H1048 C1074 0.950 . S
H1049 C1076 0.950 . S
H1050 C1079 0.950 . S
H1051 C1080 0.950 . S
H1052 C1082 0.950 . S
H1053 C1083 0.950 . S
C1054 H1036 0.951 . S
C1054 C1055 1.366 . S
C1054 C1056 1.388 . S
C1055 C1054 1.366 . S
C1055 C1059 1.385 . S
C1056 H1037 0.951 . S
C1056 C1054 1.388 . S
C1056 C1057 1.366 . S
C1057 C1056 1.366 . S
C1057 C1058 1.414 . S
C1057 C1060 1.499 . S
C1058 H1038 0.950 . S
C1058 C1057 1.414 . S
C1058 C1059 1.374 . S
C1059 H1039 0.950 . S
C1059 C1055 1.385 . S
C1059 C1058 1.374 . S
C1060 C1057 1.499 . S
C1060 C1061 1.373 . S
C1060 C1062 1.389 . S
C1061 H1040 0.950 . S
C1061 C1060 1.373 . S
C1061 C1077 1.377 . S
C1062 C1060 1.389 . S
C1062 C1063 1.524 . S
C1062 C1076 1.377 . S
C1063 C1062 1.524 . S
C1063 C1064 1.397 . S
C1063 C1068 1.363 . S
C1064 H1041 0.950 . S
C1064 C1063 1.397 . S
C1064 C1065 1.334 . S
C1065 H1042 0.950 . S
C1065 C1064 1.334 . S
C1065 C1066 1.287 . S
C1066 C1065 1.287 . S
C1066 C1067 1.524 . S
C1066 H1085 0.913 . S
C1067 H1043 0.950 . S
C1067 C1066 1.524 . S
C1067 C1068 1.415 . S
C1068 H1044 0.950 . S
C1068 C1063 1.363 . S
C1068 C1067 1.415 . S
C1069 H1045 0.951 . S
C1069 C1070 1.366 . S
C1069 C1071 1.388 . S
C1070 C1069 1.366 . S
C1070 C1074 1.385 . S
C1071 H1046 0.951 . S
C1071 C1069 1.388 . S
C1071 C1072 1.366 . S
C1072 C1071 1.366 . S
C1072 C1073 1.414 . S
C1072 C1075 1.499 . S
C1073 H1047 0.950 . S
C1073 C1072 1.414 . S
C1073 C1074 1.374 . S
C1074 H1048 0.950 . S
C1074 C1070 1.385 . S
C1074 C1073 1.374 . S
C1075 C1072 1.499 . S
C1075 C1076 1.373 . S
C1075 C1077 1.389 . S
C1076 H1049 0.950 . S
C1076 C1062 1.377 . S
C1076 C1075 1.373 . S
C1077 C1061 1.377 . S
C1077 C1075 1.389 . S
C1077 C1078 1.524 . S
C1078 C1077 1.524 . S
C1078 C1079 1.397 . S
C1078 C1083 1.363 . S
C1079 H1050 0.950 . S
C1079 C1078 1.397 . S
C1079 C1080 1.334 . S
C1080 H1051 0.950 . S
C1080 C1079 1.334 . S
C1080 C1081 1.287 . S
C1081 C1080 1.287 . S
C1081 C1082 1.524 . S
C1081 H1084 0.999 . S
C1082 H1052 0.950 . S
C1082 C1081 1.524 . S
C1082 C1083 1.415 . S
C1083 H1053 0.950 . S
C1083 C1078 1.363 . S
C1083 C1082 1.415 . S
H1084 C1081 0.999 . S
H1085 C1066 0.913 . S
H1086 C1104 0.951 . S
H1087 C1106 0.951 . S
H1088 C1108 0.950 . S
H1089 C1109 0.950 . S
H1090 C1111 0.950 . S
H1091 C1114 0.950 . S
H1092 C1115 0.950 . S
H1093 C1117 0.950 1_554 S
H1094 C1118 0.950 . S
H1095 C1119 0.951 . S
H1096 C1121 0.951 . S
H1097 C1123 0.950 . S
H1098 C1124 0.950 . S
H1099 C1126 0.950 . S
H1100 C1129 0.950 . S
H1101 C1130 0.950 . S
H1102 C1132 0.950 . S
H1103 C1133 0.950 . S
C1104 H1086 0.951 . S
C1104 C1105 1.366 . S
C1104 C1106 1.388 . S
C1105 C1104 1.366 . S
C1105 C1109 1.385 . S
C1106 H1087 0.951 . S
C1106 C1104 1.388 . S
C1106 C1107 1.366 . S
C1107 C1106 1.366 . S
C1107 C1108 1.414 . S
C1107 C1110 1.499 . S
C1108 H1088 0.950 . S
C1108 C1107 1.414 . S
C1108 C1109 1.374 . S
C1109 H1089 0.950 . S
C1109 C1105 1.385 . S
C1109 C1108 1.374 . S
C1110 C1107 1.499 . S
C1110 C1111 1.373 . S
C1110 C1112 1.389 . S
C1111 H1090 0.950 . S
C1111 C1110 1.373 . S
C1111 C1127 1.377 . S
C1112 C1110 1.389 . S
C1112 C1113 1.524 . S
C1112 C1126 1.377 . S
C1113 C1112 1.524 . S
C1113 C1114 1.397 . S
C1113 C1118 1.363 . S
C1114 H1091 0.950 . S
C1114 C1113 1.397 . S
C1114 C1115 1.334 . S
C1115 H1092 0.950 . S
C1115 C1114 1.334 . S
C1115 C1116 1.287 . S
C1116 C1115 1.287 . S
C1116 C1117 1.524 . S
C1116 H1135 0.913 . S
C1117 H1093 0.950 1_556 S
C1117 C1116 1.524 . S
C1117 C1118 1.415 . S
C1118 H1094 0.950 . S
C1118 C1113 1.363 . S
C1118 C1117 1.415 . S
C1119 H1095 0.951 . S
C1119 C1120 1.366 . S
C1119 C1121 1.388 . S
C1120 C1119 1.366 . S
C1120 C1124 1.385 . S
C1121 H1096 0.951 . S
C1121 C1119 1.388 . S
C1121 C1122 1.366 . S
C1122 C1121 1.366 . S
C1122 C1123 1.414 . S
C1122 C1125 1.499 . S
C1123 H1097 0.950 . S
C1123 C1122 1.414 . S
C1123 C1124 1.374 . S
C1124 H1098 0.950 . S
C1124 C1120 1.385 . S
C1124 C1123 1.374 . S
C1125 C1122 1.499 . S
C1125 C1126 1.373 . S
C1125 C1127 1.389 . S
C1126 H1099 0.950 . S
C1126 C1112 1.377 . S
C1126 C1125 1.373 . S
C1127 C1111 1.377 . S
C1127 C1125 1.389 . S
C1127 C1128 1.524 . S
C1128 C1127 1.524 . S
C1128 C1129 1.397 . S
C1128 C1133 1.363 . S
C1129 H1100 0.950 . S
C1129 C1128 1.397 . S
C1129 C1130 1.334 . S
C1130 H1101 0.950 . S
C1130 C1129 1.334 . S
C1130 C1131 1.287 . S
C1131 C1130 1.287 . S
C1131 C1132 1.524 . S
C1131 H1134 0.999 . S
C1132 H1102 0.950 . S
C1132 C1131 1.524 . S
C1132 C1133 1.415 . S
C1133 H1103 0.950 . S
C1133 C1128 1.363 . S
C1133 C1132 1.415 . S
H1134 C1131 0.999 . S
H1135 C1116 0.913 . S
H1136 C1154 0.951 . S
H1137 C1156 0.951 . S
H1138 C1158 0.950 . S
H1139 C1159 0.950 . S
H1140 C1161 0.950 . S
H1141 C1164 0.950 . S
H1142 C1165 0.950 . S
H1143 C1167 0.950 . S
H1144 C1168 0.950 . S
H1145 C1169 0.951 . S
H1146 C1171 0.951 . S
H1147 C1173 0.950 . S
H1148 C1174 0.950 . S
H1149 C1176 0.950 . S
H1150 C1179 0.950 . S
H1151 C1180 0.950 . S
H1152 C1182 0.996 . S
H1153 C1183 0.950 . S
C1154 H1136 0.951 . S
C1154 C1155 1.366 . S
C1154 C1156 1.388 . S
C1155 C1154 1.366 . S
C1155 C1159 1.385 . S
C1156 H1137 0.951 . S
C1156 C1154 1.388 . S
C1156 C1157 1.366 . S
C1157 C1156 1.366 . S
C1157 C1158 1.414 . S
C1157 C1160 1.499 . S
C1158 H1138 0.950 . S
C1158 C1157 1.414 . S
C1158 C1159 1.374 . S
C1159 H1139 0.950 . S
C1159 C1155 1.385 . S
C1159 C1158 1.374 . S
C1160 C1157 1.499 . S
C1160 C1161 1.373 . S
C1160 C1162 1.389 . S
C1161 H1140 0.950 . S
C1161 C1160 1.373 . S
C1161 C1177 1.377 . S
C1162 C1160 1.389 . S
C1162 C1163 1.524 . S
C1162 C1176 1.377 . S
C1163 C1162 1.524 . S
C1163 C1164 1.397 . S
C1163 C1168 1.363 . S
C1164 H1141 0.950 . S
C1164 C1163 1.397 . S
C1164 C1165 1.334 . S
C1165 H1142 0.950 . S
C1165 C1164 1.334 . S
C1165 C1166 1.287 . S
C1166 C1165 1.287 . S
C1166 C1167 1.524 . S
C1166 H1185 0.913 . S
C1167 H1143 0.950 . S
C1167 C1166 1.524 . S
C1167 C1168 1.415 . S
C1168 H1144 0.950 . S
C1168 C1163 1.363 . S
C1168 C1167 1.415 . S
C1169 H1145 0.951 . S
C1169 C1170 1.366 . S
C1169 C1171 1.388 . S
C1170 C1169 1.366 . S
C1170 C1174 1.385 . S
C1171 H1146 0.951 . S
C1171 C1169 1.388 . S
C1171 C1172 1.366 . S
C1172 C1171 1.366 . S
C1172 C1173 1.414 . S
C1172 C1175 1.499 . S
C1173 H1147 0.950 . S
C1173 C1172 1.414 . S
C1173 C1174 1.374 . S
C1174 H1148 0.950 . S
C1174 C1170 1.385 . S
C1174 C1173 1.374 . S
C1175 C1172 1.499 . S
C1175 C1176 1.373 . S
C1175 C1177 1.389 . S
C1176 H1149 0.950 . S
C1176 C1162 1.377 . S
C1176 C1175 1.373 . S
C1177 C1161 1.377 . S
C1177 C1175 1.389 . S
C1177 C1178 1.524 . S
C1178 C1177 1.524 . S
C1178 C1179 1.397 . S
C1178 C1183 1.363 . S
C1179 H1150 0.950 . S
C1179 C1178 1.397 . S
C1179 C1180 1.334 . S
C1180 H1151 0.950 . S
C1180 C1179 1.334 . S
C1180 C1181 1.287 . S
C1181 C1180 1.287 . S
C1181 C1182 1.499 1_455 S
C1181 H1184 0.979 1_455 S
C1182 H1152 0.996 . S
C1182 C1181 1.499 1_655 S
C1182 C1183 1.388 1_655 S
C1183 H1153 0.950 . S
C1183 C1178 1.363 . S
C1183 C1182 1.388 1_455 S
H1184 C1181 0.979 1_655 S
H1185 C1166 0.913 . S
H1186 C1204 0.951 . S
H1187 C1206 0.951 . S
H1188 C1208 0.950 . S
H1189 C1209 0.950 . S
H1190 C1211 0.950 . S
H1191 C1214 0.950 . S
H1192 C1215 0.950 . S
H1193 C1217 0.950 . S
H1194 C1218 0.950 1_545 S
H1195 C1219 0.951 . S
H1196 C1221 0.951 . S
H1197 C1223 0.950 . S
H1198 C1224 0.950 . S
H1199 C1226 0.950 . S
H1200 C1229 0.950 . S
H1201 C1230 0.950 . S
H1202 C1232 0.950 . S
H1203 C1233 0.950 1_565 S
C1204 H1186 0.951 . S
C1204 C1205 1.374 . S
C1204 C1206 1.388 . S
C1205 C1204 1.374 . S
C1205 C1209 1.375 1_545 S
C1206 H1187 0.951 . S
C1206 C1204 1.388 . S
C1206 C1207 1.370 . S
C1207 C1206 1.370 . S
C1207 C1208 1.410 1_545 S
C1207 C1210 1.499 . S
C1208 H1188 0.950 . S
C1208 C1207 1.410 1_565 S
C1208 C1209 1.374 . S
C1209 H1189 0.950 . S
C1209 C1205 1.375 1_565 S
C1209 C1208 1.374 . S
C1210 C1207 1.499 . S
C1210 C1211 1.375 . S
C1210 C1212 1.387 1_545 S
C1211 H1190 0.950 . S
C1211 C1210 1.375 . S
C1211 C1227 1.377 . S
C1212 C1210 1.387 1_565 S
C1212 C1213 1.524 . S
C1212 C1226 1.377 . S
C1213 C1212 1.524 . S
C1213 C1214 1.397 . S
C1213 C1218 1.363 . S
C1214 H1191 0.950 . S
C1214 C1213 1.397 . S
C1214 C1215 1.334 . S
C1215 H1192 0.950 . S
C1215 C1214 1.334 . S
C1215 C1216 1.287 . S
C1216 C1215 1.287 . S
C1216 C1217 1.524 . S
C1216 H1235 0.913 . S
C1217 H1193 0.950 . S
C1217 C1216 1.524 . S
C1217 C1218 1.415 . S
C1218 H1194 0.950 1_565 S
C1218 C1213 1.363 . S
C1218 C1217 1.415 . S
C1219 H1195 0.951 . S
C1219 C1220 1.366 1_565 S
C1219 C1221 1.388 . S
C1220 C1219 1.366 1_545 S
C1220 C1224 1.385 . S
C1221 H1196 0.951 . S
C1221 C1219 1.388 . S
C1221 C1222 1.366 1_565 S
C1222 C1221 1.366 1_545 S
C1222 C1223 1.414 . S
C1222 C1225 1.499 . S
C1223 H1197 0.950 . S
C1223 C1222 1.414 . S
C1223 C1224 1.374 . S
C1224 H1198 0.950 . S
C1224 C1220 1.385 . S
C1224 C1223 1.374 . S
C1225 C1222 1.499 . S
C1225 C1226 1.373 1_545 S
C1225 C1227 1.389 . S
C1226 H1199 0.950 . S
C1226 C1212 1.377 . S
C1226 C1225 1.373 1_565 S
C1227 C1211 1.377 . S
C1227 C1225 1.389 . S
C1227 C1228 1.524 . S
C1228 C1227 1.524 . S
C1228 C1229 1.397 . S
C1228 C1233 1.363 . S
C1229 H1200 0.950 . S
C1229 C1228 1.397 . S
C1229 C1230 1.334 . S
C1230 H1201 0.950 . S
C1230 C1229 1.334 . S
C1230 C1231 1.287 . S
C1231 C1230 1.287 . S
C1231 C1232 1.524 . S
C1231 H1234 0.999 . S
C1232 H1202 0.950 . S
C1232 C1231 1.524 . S
C1232 C1233 1.415 . S
C1233 H1203 0.950 1_545 S
C1233 C1228 1.363 . S
C1233 C1232 1.415 . S
H1234 C1231 0.999 . S
H1235 C1216 0.913 . S
H1236 C1254 0.951 . S
H1237 C1256 0.951 . S
H1238 C1258 0.950 . S
H1239 C1259 0.950 . S
H1240 C1261 0.950 . S
H1241 C1264 0.950 . S
H1242 C1265 0.950 . S
H1243 C1267 0.950 . S
H1244 C1268 0.950 . S
H1245 C1269 0.951 . S
H1246 C1271 0.951 . S
H1247 C1273 0.950 . S
H1248 C1274 0.950 . S
H1249 C1276 0.950 . S
H1250 C1279 0.950 . S
H1251 C1280 0.950 . S
H1252 C1282 0.950 . S
H1253 C1283 0.950 . S
C1254 H1236 0.951 . S
C1254 C1255 1.366 . S
C1254 C1256 1.388 . S
C1255 C1254 1.366 . S
C1255 C1259 1.385 . S
C1256 H1237 0.951 . S
C1256 C1254 1.388 . S
C1256 C1257 1.366 . S
C1257 C1256 1.366 . S
C1257 C1258 1.414 . S
C1257 C1260 1.499 . S
C1258 H1238 0.950 . S
C1258 C1257 1.414 . S
C1258 C1259 1.374 . S
C1259 H1239 0.950 . S
C1259 C1255 1.385 . S
C1259 C1258 1.374 . S
C1260 C1257 1.499 . S
C1260 C1261 1.373 . S
C1260 C1262 1.389 . S
C1261 H1240 0.950 . S
C1261 C1260 1.373 . S
C1261 C1277 1.377 . S
C1262 C1260 1.389 . S
C1262 C1263 1.524 . S
C1262 C1276 1.377 . S
C1263 C1262 1.524 . S
C1263 C1264 1.397 . S
C1263 C1268 1.363 . S
C1264 H1241 0.950 . S
C1264 C1263 1.397 . S
C1264 C1265 1.334 . S
C1265 H1242 0.950 . S
C1265 C1264 1.334 . S
C1265 C1266 1.287 . S
C1266 C1265 1.287 . S
C1266 C1267 1.524 . S
C1266 H1285 0.913 . S
C1267 H1243 0.950 . S
C1267 C1266 1.524 . S
C1267 C1268 1.415 . S
C1268 H1244 0.950 . S
C1268 C1263 1.363 . S
C1268 C1267 1.415 . S
C1269 H1245 0.951 . S
C1269 C1270 1.366 . S
C1269 C1271 1.388 . S
C1270 C1269 1.366 . S
C1270 C1274 1.385 . S
C1271 H1246 0.951 . S
C1271 C1269 1.388 . S
C1271 C1272 1.366 . S
C1272 C1271 1.366 . S
C1272 C1273 1.414 . S
C1272 C1275 1.499 . S
C1273 H1247 0.950 . S
C1273 C1272 1.414 . S
C1273 C1274 1.374 . S
C1274 H1248 0.950 . S
C1274 C1270 1.385 . S
C1274 C1273 1.374 . S
C1275 C1272 1.499 . S
C1275 C1276 1.373 . S
C1275 C1277 1.389 . S
C1276 H1249 0.950 . S
C1276 C1262 1.377 . S
C1276 C1275 1.373 . S
C1277 C1261 1.377 . S
C1277 C1275 1.389 . S
C1277 C1278 1.524 . S
C1278 C1277 1.524 . S
C1278 C1279 1.397 . S
C1278 C1283 1.363 . S
C1279 H1250 0.950 . S
C1279 C1278 1.397 . S
C1279 C1280 1.334 . S
C1280 H1251 0.950 . S
C1280 C1279 1.334 . S
C1280 C1281 1.287 . S
C1281 C1280 1.287 . S
C1281 C1282 1.524 . S
C1281 H1284 0.999 . S
C1282 H1252 0.950 . S
C1282 C1281 1.524 . S
C1282 C1283 1.415 . S
C1283 H1253 0.950 . S
C1283 C1278 1.363 . S
C1283 C1282 1.415 . S
H1284 C1281 0.999 . S
H1285 C1266 0.913 . S
H1286 C1304 0.951 . S
H1287 C1306 0.951 . S
H1288 C1308 0.950 . S
H1289 C1309 0.950 . S
H1290 C1311 0.950 . S
H1291 C1314 0.950 . S
H1292 C1315 0.950 1_554 S
H1293 C1317 0.950 . S
H1294 C1318 0.950 . S
H1295 C1319 0.951 . S
H1296 C1321 0.951 . S
H1297 C1323 0.950 . S
H1298 C1324 0.950 . S
H1299 C1326 0.950 . S
H1300 C1329 0.950 . S
H1301 C1330 0.950 . S
H1302 C1332 0.950 . S
H1303 C1333 0.950 . S
C1304 H1286 0.951 . S
C1304 C1305 1.366 . S
C1304 C1306 1.388 . S
C1305 C1304 1.366 . S
C1305 C1309 1.385 . S
C1306 H1287 0.951 . S
C1306 C1304 1.388 . S
C1306 C1307 1.366 . S
C1307 C1306 1.366 . S
C1307 C1308 1.414 . S
C1307 C1310 1.499 . S
C1308 H1288 0.950 . S
C1308 C1307 1.414 . S
C1308 C1309 1.374 . S
C1309 H1289 0.950 . S
C1309 C1305 1.385 . S
C1309 C1308 1.374 . S
C1310 C1307 1.499 . S
C1310 C1311 1.373 . S
C1310 C1312 1.389 . S
C1311 H1290 0.950 . S
C1311 C1310 1.373 . S
C1311 C1327 1.377 . S
C1312 C1310 1.389 . S
C1312 C1313 1.524 . S
C1312 C1326 1.377 . S
C1313 C1312 1.524 . S
C1313 C1314 1.397 . S
C1313 C1318 1.363 . S
C1314 H1291 0.950 . S
C1314 C1313 1.397 . S
C1314 C1315 1.334 . S
C1315 H1292 0.950 1_556 S
C1315 C1314 1.334 . S
C1315 C1316 1.287 . S
C1316 C1315 1.287 . S
C1316 C1317 1.524 . S
C1316 H1335 0.913 1_556 S
C1317 H1293 0.950 . S
C1317 C1316 1.524 . S
C1317 C1318 1.415 . S
C1318 H1294 0.950 . S
C1318 C1313 1.363 . S
C1318 C1317 1.415 . S
C1319 H1295 0.951 . S
C1319 C1320 1.366 . S
C1319 C1321 1.388 . S
C1320 C1319 1.366 . S
C1320 C1324 1.385 . S
C1321 H1296 0.951 . S
C1321 C1319 1.388 . S
C1321 C1322 1.366 . S
C1322 C1321 1.366 . S
C1322 C1323 1.414 . S
C1322 C1325 1.499 . S
C1323 H1297 0.950 . S
C1323 C1322 1.414 . S
C1323 C1324 1.374 . S
C1324 H1298 0.950 . S
C1324 C1320 1.385 . S
C1324 C1323 1.374 . S
C1325 C1322 1.499 . S
C1325 C1326 1.373 . S
C1325 C1327 1.389 . S
C1326 H1299 0.950 . S
C1326 C1312 1.377 . S
C1326 C1325 1.373 . S
C1327 C1311 1.377 . S
C1327 C1325 1.389 . S
C1327 C1328 1.524 . S
C1328 C1327 1.524 . S
C1328 C1329 1.397 . S
C1328 C1333 1.363 . S
C1329 H1300 0.950 . S
C1329 C1328 1.397 . S
C1329 C1330 1.334 . S
C1330 H1301 0.950 . S
C1330 C1329 1.334 . S
C1330 C1331 1.287 . S
C1331 C1330 1.287 . S
C1331 C1332 1.524 . S
C1331 H1334 0.999 . S
C1332 H1302 0.950 . S
C1332 C1331 1.524 . S
C1332 C1333 1.415 . S
C1333 H1303 0.950 . S
C1333 C1328 1.363 . S
C1333 C1332 1.415 . S
H1334 C1331 0.999 . S
H1335 C1316 0.913 1_554 S
H1336 C1354 0.951 . S
H1337 C1356 0.951 . S
H1338 C1358 0.950 . S
H1339 C1359 0.950 . S
H1340 C1361 0.950 . S
H1341 C1364 0.950 . S
H1342 C1365 0.950 . S
H1343 C1367 0.950 . S
H1344 C1368 0.950 . S
H1345 C1369 0.922 1_455 S
H1346 C1371 0.951 . S
H1347 C1373 0.950 . S
H1348 C1374 0.950 . S
H1349 C1376 0.950 . S
H1350 C1379 0.942 1_655 S
H1351 C1380 0.950 . S
H1352 C1382 0.950 . S
H1353 C1383 0.950 . S
C1354 H1336 0.951 . S
C1354 C1355 1.366 . S
C1354 C1356 1.388 . S
C1355 C1354 1.366 . S
C1355 C1359 1.385 . S
C1356 H1337 0.951 . S
C1356 C1354 1.388 . S
C1356 C1357 1.366 . S
C1357 C1356 1.366 . S
C1357 C1358 1.414 . S
C1357 C1360 1.499 . S
C1358 H1338 0.950 . S
C1358 C1357 1.414 . S
C1358 C1359 1.374 . S
C1359 H1339 0.950 . S
C1359 C1355 1.385 . S
C1359 C1358 1.374 . S
C1360 C1357 1.499 . S
C1360 C1361 1.373 . S
C1360 C1362 1.389 . S
C1361 H1340 0.950 . S
C1361 C1360 1.373 . S
C1361 C1377 1.377 . S
C1362 C1360 1.389 . S
C1362 C1363 1.524 . S
C1362 C1376 1.377 . S
C1363 C1362 1.524 . S
C1363 C1364 1.397 . S
C1363 C1368 1.363 . S
C1364 H1341 0.950 . S
C1364 C1363 1.397 . S
C1364 C1365 1.334 . S
C1365 H1342 0.950 . S
C1365 C1364 1.334 . S
C1365 C1366 1.287 . S
C1366 C1365 1.287 . S
C1366 C1367 1.524 . S
C1366 H1385 0.913 . S
C1367 H1343 0.950 . S
C1367 C1366 1.524 . S
C1367 C1368 1.415 . S
C1368 H1344 0.950 . S
C1368 C1363 1.363 . S
C1368 C1367 1.415 . S
C1369 H1345 0.922 1_655 S
C1369 C1370 1.366 . S
C1369 C1371 1.388 . S
C1370 C1369 1.366 . S
C1370 C1374 1.385 . S
C1371 H1346 0.951 . S
C1371 C1369 1.388 . S
C1371 C1372 1.366 . S
C1372 C1371 1.366 . S
C1372 C1373 1.414 . S
C1372 C1375 1.499 . S
C1373 H1347 0.950 . S
C1373 C1372 1.414 . S
C1373 C1374 1.374 . S
C1374 H1348 0.950 . S
C1374 C1370 1.385 . S
C1374 C1373 1.374 . S
C1375 C1372 1.499 . S
C1375 C1376 1.373 . S
C1375 C1377 1.389 . S
C1376 H1349 0.950 . S
C1376 C1362 1.377 . S
C1376 C1375 1.373 . S
C1377 C1361 1.377 . S
C1377 C1375 1.389 . S
C1377 C1378 1.524 . S
C1378 C1377 1.524 . S
C1378 C1379 1.395 1_655 S
C1378 C1383 1.363 1_655 S
C1379 H1350 0.942 1_455 S
C1379 C1378 1.395 1_455 S
C1379 C1380 1.343 . S
C1380 H1351 0.950 . S
C1380 C1379 1.343 . S
C1380 C1381 1.287 . S
C1381 C1380 1.287 . S
C1381 C1382 1.524 . S
C1381 H1384 0.999 . S
C1382 H1352 0.950 . S
C1382 C1381 1.524 . S
C1382 C1383 1.415 . S
C1383 H1353 0.950 . S
C1383 C1378 1.363 1_455 S
C1383 C1382 1.415 . S
H1384 C1381 0.999 . S
H1385 C1366 0.913 . S
H1386 C1404 0.951 . S
H1387 C1406 0.951 . S
H1388 C1408 0.950 . S
H1389 C1409 0.950 . S
H1390 C1411 0.950 . S
H1391 C1414 0.950 . S
H1392 C1415 0.950 . S
H1393 C1417 0.950 . S
H1394 C1418 0.950 . S
H1395 C1419 0.951 . S
H1396 C1421 0.951 . S
H1397 C1423 0.950 . S
H1398 C1424 0.961 . S
H1399 C1426 0.950 . S
H1400 C1429 0.950 . S
H1401 C1430 0.950 . S
H1402 C1432 0.950 . S
H1403 C1433 0.950 . S
C1404 H1386 0.951 . S
C1404 C1405 1.366 1_545 S
C1404 C1406 1.388 . S
C1405 C1404 1.366 1_565 S
C1405 C1409 1.385 . S
C1406 H1387 0.951 . S
C1406 C1404 1.388 . S
C1406 C1407 1.366 1_545 S
C1407 C1406 1.366 1_565 S
C1407 C1408 1.414 . S
C1407 C1410 1.499 . S
C1408 H1388 0.950 . S
C1408 C1407 1.414 . S
C1408 C1409 1.374 . S
C1409 H1389 0.950 . S
C1409 C1405 1.385 . S
C1409 C1408 1.374 . S
C1410 C1407 1.499 . S
C1410 C1411 1.373 1_565 S
C1410 C1412 1.389 . S
C1411 H1390 0.950 . S
C1411 C1410 1.373 1_545 S
C1411 C1427 1.377 . S
C1412 C1410 1.389 . S
C1412 C1413 1.524 . S
C1412 C1426 1.377 . S
C1413 C1412 1.524 . S
C1413 C1414 1.397 . S
C1413 C1418 1.363 . S
C1414 H1391 0.950 . S
C1414 C1413 1.397 . S
C1414 C1415 1.334 . S
C1415 H1392 0.950 . S
C1415 C1414 1.334 . S
C1415 C1416 1.287 . S
C1416 C1415 1.287 . S
C1416 C1417 1.524 . S
C1416 H1435 0.913 . S
C1417 H1393 0.950 . S
C1417 C1416 1.524 . S
C1417 C1418 1.415 . S
C1418 H1394 0.950 . S
C1418 C1413 1.363 . S
C1418 C1417 1.415 . S
C1419 H1395 0.951 . S
C1419 C1420 1.366 . S
C1419 C1421 1.388 . S
C1420 C1419 1.366 . S
C1420 C1424 1.379 1_565 S
C1421 H1396 0.951 . S
C1421 C1419 1.388 . S
C1421 C1422 1.366 . S
C1422 C1421 1.366 . S
C1422 C1423 1.414 1_565 S
C1422 C1425 1.496 . S
C1423 H1397 0.950 . S
C1423 C1422 1.414 1_545 S
C1423 C1424 1.372 . S
C1424 H1398 0.961 . S
C1424 C1420 1.379 1_545 S
C1424 C1423 1.372 . S
C1425 C1422 1.496 . S
C1425 C1426 1.408 . S
C1425 C1427 1.363 1_565 S
C1426 H1399 0.950 . S
C1426 C1412 1.377 . S
C1426 C1425 1.408 . S
C1427 C1411 1.377 . S
C1427 C1425 1.363 1_545 S
C1427 C1428 1.524 . S
C1428 C1427 1.524 . S
C1428 C1429 1.397 . S
C1428 C1433 1.363 . S
C1429 H1400 0.950 . S
C1429 C1428 1.397 . S
C1429 C1430 1.334 . S
C1430 H1401 0.950 . S
C1430 C1429 1.334 . S
C1430 C1431 1.287 . S
C1431 C1430 1.287 . S
C1431 C1432 1.524 . S
C1431 H1434 0.999 . S
C1432 H1402 0.950 . S
C1432 C1431 1.524 . S
C1432 C1433 1.415 . S
C1433 H1403 0.950 . S
C1433 C1428 1.363 . S
C1433 C1432 1.415 . S
H1434 C1431 0.999 . S
H1435 C1416 0.913 . S
H1436 C1454 0.951 . S
H1437 C1456 0.951 . S
H1438 C1458 0.950 . S
H1439 C1459 0.950 . S
H1440 C1461 0.950 . S
H1441 C1464 0.950 . S
H1442 C1465 0.950 . S
H1443 C1467 0.950 . S
H1444 C1468 0.950 . S
H1445 C1469 0.951 . S
H1446 C1471 0.951 . S
H1447 C1473 0.950 . S
H1448 C1474 0.950 . S
H1449 C1476 0.950 . S
H1450 C1479 0.950 . S
H1451 C1480 0.950 . S
H1452 C1482 0.950 . S
H1453 C1483 0.950 . S
C1454 H1436 0.951 . S
C1454 C1455 1.366 . S
C1454 C1456 1.388 . S
C1455 C1454 1.366 . S
C1455 C1459 1.385 . S
C1456 H1437 0.951 . S
C1456 C1454 1.388 . S
C1456 C1457 1.366 . S
C1457 C1456 1.366 . S
C1457 C1458 1.414 . S
C1457 C1460 1.499 . S
C1458 H1438 0.950 . S
C1458 C1457 1.414 . S
C1458 C1459 1.374 . S
C1459 H1439 0.950 . S
C1459 C1455 1.385 . S
C1459 C1458 1.374 . S
C1460 C1457 1.499 . S
C1460 C1461 1.373 . S
C1460 C1462 1.389 . S
C1461 H1440 0.950 . S
C1461 C1460 1.373 . S
C1461 C1477 1.377 . S
C1462 C1460 1.389 . S
C1462 C1463 1.524 . S
C1462 C1476 1.377 . S
C1463 C1462 1.524 . S
C1463 C1464 1.397 . S
C1463 C1468 1.363 . S
C1464 H1441 0.950 . S
C1464 C1463 1.397 . S
C1464 C1465 1.334 . S
C1465 H1442 0.950 . S
C1465 C1464 1.334 . S
C1465 C1466 1.287 . S
C1466 C1465 1.287 . S
C1466 C1467 1.524 . S
C1466 H1485 0.913 . S
C1467 H1443 0.950 . S
C1467 C1466 1.524 . S
C1467 C1468 1.415 . S
C1468 H1444 0.950 . S
C1468 C1463 1.363 . S
C1468 C1467 1.415 . S
C1469 H1445 0.951 . S
C1469 C1470 1.366 . S
C1469 C1471 1.388 . S
C1470 C1469 1.366 . S
C1470 C1474 1.385 . S
C1471 H1446 0.951 . S
C1471 C1469 1.388 . S
C1471 C1472 1.366 . S
C1472 C1471 1.366 . S
C1472 C1473 1.414 . S
C1472 C1475 1.499 . S
C1473 H1447 0.950 . S
C1473 C1472 1.414 . S
C1473 C1474 1.374 . S
C1474 H1448 0.950 . S
C1474 C1470 1.385 . S
C1474 C1473 1.374 . S
C1475 C1472 1.499 . S
C1475 C1476 1.373 . S
C1475 C1477 1.389 . S
C1476 H1449 0.950 . S
C1476 C1462 1.377 . S
C1476 C1475 1.373 . S
C1477 C1461 1.377 . S
C1477 C1475 1.389 . S
C1477 C1478 1.524 . S
C1478 C1477 1.524 . S
C1478 C1479 1.397 . S
C1478 C1483 1.363 . S
C1479 H1450 0.950 . S
C1479 C1478 1.397 . S
C1479 C1480 1.334 . S
C1480 H1451 0.950 . S
C1480 C1479 1.334 . S
C1480 C1481 1.287 . S
C1481 C1480 1.287 . S
C1481 C1482 1.524 . S
C1481 H1484 0.999 . S
C1482 H1452 0.950 . S
C1482 C1481 1.524 . S
C1482 C1483 1.415 . S
C1483 H1453 0.950 . S
C1483 C1478 1.363 . S
C1483 C1482 1.415 . S
H1484 C1481 0.999 . S
H1485 C1466 0.913 . S
H1486 C1504 0.951 . S
H1487 C1506 0.951 . S
H1488 C1508 0.950 . S
H1489 C1509 0.950 . S
H1490 C1511 0.950 . S
H1491 C1514 0.950 . S
H1492 C1515 0.950 . S
H1493 C1517 0.950 . S
H1494 C1518 0.950 . S
H1495 C1519 0.951 . S
H1496 C1521 0.951 . S
H1497 C1523 0.950 . S
H1498 C1524 0.950 . S
H1499 C1526 0.950 . S
H1500 C1529 0.950 . S
H1501 C1530 0.950 . S
H1502 C1532 0.950 . S
H1503 C1533 0.950 . S
C1504 H1486 0.951 . S
C1504 C1505 1.366 . S
C1504 C1506 1.388 . S
C1505 C1504 1.366 . S
C1505 C1509 1.385 . S
C1506 H1487 0.951 . S
C1506 C1504 1.388 . S
C1506 C1507 1.366 . S
C1507 C1506 1.366 . S
C1507 C1508 1.414 . S
C1507 C1510 1.499 . S
C1508 H1488 0.950 . S
C1508 C1507 1.414 . S
C1508 C1509 1.374 . S
C1509 H1489 0.950 . S
C1509 C1505 1.385 . S
C1509 C1508 1.374 . S
C1510 C1507 1.499 . S
C1510 C1511 1.373 . S
C1510 C1512 1.389 . S
C1511 H1490 0.950 . S
C1511 C1510 1.373 . S
C1511 C1527 1.377 . S
C1512 C1510 1.389 . S
C1512 C1513 1.524 . S
C1512 C1526 1.377 . S
C1513 C1512 1.524 . S
C1513 C1514 1.397 . S
C1513 C1518 1.363 . S
C1514 H1491 0.950 . S
C1514 C1513 1.397 . S
C1514 C1515 1.334 . S
C1515 H1492 0.950 . S
C1515 C1514 1.334 . S
C1515 C1516 1.287 . S
C1516 C1515 1.287 . S
C1516 C1517 1.524 . S
C1516 H1535 0.913 . S
C1517 H1493 0.950 . S
C1517 C1516 1.524 . S
C1517 C1518 1.415 . S
C1518 H1494 0.950 . S
C1518 C1513 1.363 . S
C1518 C1517 1.415 . S
C1519 H1495 0.951 . S
C1519 C1520 1.366 . S
C1519 C1521 1.388 . S
C1520 C1519 1.366 . S
C1520 C1524 1.385 . S
C1521 H1496 0.951 . S
C1521 C1519 1.388 . S
C1521 C1522 1.366 . S
C1522 C1521 1.366 . S
C1522 C1523 1.414 . S
C1522 C1525 1.499 . S
C1523 H1497 0.950 . S
C1523 C1522 1.414 . S
C1523 C1524 1.374 . S
C1524 H1498 0.950 . S
C1524 C1520 1.385 . S
C1524 C1523 1.374 . S
C1525 C1522 1.499 . S
C1525 C1526 1.373 . S
C1525 C1527 1.389 . S
C1526 H1499 0.950 . S
C1526 C1512 1.377 . S
C1526 C1525 1.373 . S
C1527 C1511 1.377 . S
C1527 C1525 1.389 . S
C1527 C1528 1.524 . S
C1528 C1527 1.524 . S
C1528 C1529 1.397 . S
C1528 C1533 1.363 . S
C1529 H1500 0.950 . S
C1529 C1528 1.397 . S
C1529 C1530 1.334 . S
C1530 H1501 0.950 . S
C1530 C1529 1.334 . S
C1530 C1531 1.287 . S
C1531 C1530 1.287 . S
C1531 C1532 1.524 . S
C1531 H1534 0.999 . S
C1532 H1502 0.950 . S
C1532 C1531 1.524 . S
C1532 C1533 1.415 . S
C1533 H1503 0.950 . S
C1533 C1528 1.363 . S
C1533 C1532 1.415 . S
H1534 C1531 0.999 . S
H1535 C1516 0.913 . S
C355 C215 1.541 1_565 S
C370 C264 1.590 . S
C420 C294 2.208 . S
C405 C247 2.191 . S
C470 C304 1.616 . S
C455 C151 1.514 . S
C520 C324 1.484 . S
C505 C183 1.461 . S
C570 C265 1.590 . S
C555 C87 1.537 . S
C605 C119 2.039 1_556 S
C620 C295 2.213 . S
C655 C23 1.608 . S
C670 C305 1.617 . S
C705 C55 1.357 . S
C720 C325 1.483 . S
C770 C257 0.494 . S
C755 C189 0.471 . S
C820 C278 0.305 . S
C805 C221 0.454 . S
C870 C297 0.825 . S
C855 C253 0.827 . S
C905 C157 0.498 . S
C920 C317 0.352 . S
C955 C61 0.617 . S
C970 C258 0.505 . S
C1020 C277 0.306 . S
C1005 C93 0.456 1_565 S
C1070 C298 0.824 . S
C1055 C125 0.796 . S
C1105 C29 0.350 . S
C1120 C318 0.351 . S
C1155 C177 2.048 . S
C1170 C275 2.114 . S
C1205 C209 1.420 . S
C1220 C285 1.525 . S
C1270 C315 2.266 . S
C1255 C241 2.183 . S
C1320 C335 2.176 . S
C1305 C145 2.002 . S
C1355 C49 1.944 . S
C1370 C274 2.125 . S
C1420 C284 1.524 . S
C1405 C81 1.420 1_565 S
C1470 C314 2.266 . S
C1455 C113 2.049 . S
C1505 C17 2.112 . S
C1520 C334 2.176 . S
