# Generated by pormake.
# Topology zzz, (3,6)-cn, num edge types: 1
# Building blocks:
#     Node 0, Type 0, BuildingBlock: ESEHIV_clean_linker_0, # of connection points: 3
#     Node 1, Type 0, BuildingBlock: ESEHIV_clean_linker_0, # of connection points: 3
#     Node 2, Type 0, BuildingBlock: ESEHIV_clean_linker_0, # of connection points: 3
#     Node 3, Type 0, BuildingBlock: ESEHIV_clean_linker_0, # of connection points: 3
#     Node 4, Type 0, BuildingBlock: ESEHIV_clean_linker_0, # of connection points: 3
#     Node 5, Type 0, BuildingBlock: ESEHIV_clean_linker_0, # of connection points: 3
#     Node 6, Type 0, BuildingBlock: ESEHIV_clean_linker_0, # of connection points: 3
#     Node 7, Type 0, BuildingBlock: ESEHIV_clean_linker_0, # of connection points: 3
#     Node 8, Type 1, BuildingBlock: LEVNOQ01_clean_sbu_1, # of connection points: 6
#     Node 9, Type 1, BuildingBlock: LEVNOQ01_clean_sbu_1, # of connection points: 6
#     Node 10, Type 1, BuildingBlock: LEVNOQ01_clean_sbu_1, # of connection points: 6
#     Node 11, Type 1, BuildingBlock: LEVNOQ01_clean_sbu_1, # of connection points: 6
#     Edge 12, Type (0, 1), BuildingBlock: OJICUG_clean_linker_0, # of connection points: 2
#     Edge 13, Type (0, 1), BuildingBlock: OJICUG_clean_linker_0, # of connection points: 2
#     Edge 14, Type (0, 1), BuildingBlock: OJICUG_clean_linker_0, # of connection points: 2
#     Edge 15, Type (0, 1), BuildingBlock: OJICUG_clean_linker_0, # of connection points: 2
#     Edge 16, Type (0, 1), BuildingBlock: OJICUG_clean_linker_0, # of connection points: 2
#     Edge 17, Type (0, 1), BuildingBlock: OJICUG_clean_linker_0, # of connection points: 2
#     Edge 18, Type (0, 1), BuildingBlock: OJICUG_clean_linker_0, # of connection points: 2
#     Edge 19, Type (0, 1), BuildingBlock: OJICUG_clean_linker_0, # of connection points: 2
#     Edge 20, Type (0, 1), BuildingBlock: OJICUG_clean_linker_0, # of connection points: 2
#     Edge 21, Type (0, 1), BuildingBlock: OJICUG_clean_linker_0, # of connection points: 2
#     Edge 22, Type (0, 1), BuildingBlock: OJICUG_clean_linker_0, # of connection points: 2
#     Edge 23, Type (0, 1), BuildingBlock: OJICUG_clean_linker_0, # of connection points: 2
#     Edge 24, Type (0, 1), BuildingBlock: OJICUG_clean_linker_0, # of connection points: 2
#     Edge 25, Type (0, 1), BuildingBlock: OJICUG_clean_linker_0, # of connection points: 2
#     Edge 26, Type (0, 1), BuildingBlock: OJICUG_clean_linker_0, # of connection points: 2
#     Edge 27, Type (0, 1), BuildingBlock: OJICUG_clean_linker_0, # of connection points: 2
#     Edge 28, Type (0, 1), BuildingBlock: OJICUG_clean_linker_0, # of connection points: 2
#     Edge 29, Type (0, 1), BuildingBlock: OJICUG_clean_linker_0, # of connection points: 2
#     Edge 30, Type (0, 1), BuildingBlock: OJICUG_clean_linker_0, # of connection points: 2
#     Edge 31, Type (0, 1), BuildingBlock: OJICUG_clean_linker_0, # of connection points: 2
#     Edge 32, Type (0, 1), BuildingBlock: OJICUG_clean_linker_0, # of connection points: 2
#     Edge 33, Type (0, 1), BuildingBlock: OJICUG_clean_linker_0, # of connection points: 2
#     Edge 34, Type (0, 1), BuildingBlock: OJICUG_clean_linker_0, # of connection points: 2
#     Edge 35, Type (0, 1), BuildingBlock: OJICUG_clean_linker_0, # of connection points: 2
# Relax obj value: 0.311
# Max RMSD: 0.221
# Mean RMSD: 0.209
data_MOF--net-zzz--node1-LEVNOQ01_clean_sbu_1--node2-ESEHIV_clean_linker_0--edge1-OJICUG_clean_linker_0
_symmetry_space_group_name_H-M    P1
_symmetry_Int_Tables_number       1
_symmetry_cell_setting            triclinic
loop_
_symmetry_equiv_pos_as_xyz
'x, y, z'
_cell_length_a     30.853073
_cell_length_b     31.13305
_cell_length_c     11.681269
_cell_angle_alpha  89.685572
_cell_angle_beta   90.230079
_cell_angle_gamma 90.062628
loop_
_atom_site_label
_atom_site_type_symbol
_atom_site_fract_x
_atom_site_fract_y
_atom_site_fract_z
_atom_type_partial_charge
H0 H 0.85954 0.60915 0.25703 0.0
H1 H 0.7715 0.58445 0.98388 0.0
H2 H 0.7254 0.58666 0.33044 0.0
C3 C 0.82662 0.60563 0.22684 0.0
C4 C 0.79393 0.60057 0.30834 0.0
C5 C 0.81965 0.59175 0.11511 0.0
C6 C 0.77702 0.5917 0.07344 0.0
C7 C 0.74181 0.59136 0.14963 0.0
C8 C 0.75087 0.59311 0.26915 0.0
H9 H 0.93424 0.85042 0.26576 0.0
H10 H 0.9646 0.76487 0.99385 0.0
H11 H 0.95991 0.71765 0.33964 0.0
C12 C 0.93833 0.81783 0.23576 0.0
C13 C 0.94394 0.78527 0.31712 0.0
C14 C 0.95161 0.81173 0.12342 0.0
C15 C 0.9557 0.76976 0.08262 0.0
C16 C 0.9558 0.7347 0.15886 0.0
C17 C 0.95309 0.74301 0.27834 0.0
H18 H 0.66705 0.90715 0.27506 0.0
H19 H 0.736 0.92562 0.96911 0.0
H20 H 0.7911 0.97086 0.28618 0.0
C21 C 0.69769 0.9152 0.23485 0.0
C22 C 0.72967 0.93634 0.29904 0.0
C23 C 0.69675 0.92175 0.11767 0.0
C24 C 0.73628 0.92671 0.06182 0.0
C25 C 0.77152 0.94545 0.12032 0.0
C26 C 0.76736 0.95172 0.24074 0.0
H27 H 0.59161 0.64598 0.23713 0.0
H28 H 0.55102 0.77689 0.25257 0.0
H29 H 0.60151 0.72161 0.93917 0.0
C30 C 0.58999 0.67729 0.19667 0.0
C31 C 0.58974 0.67988 0.07779 0.0
C32 C 0.57648 0.71219 0.26235 0.0
C33 C 0.56654 0.7516 0.20484 0.0
C34 C 0.57498 0.75651 0.08474 0.0
C35 C 0.59278 0.72062 0.02834 0.0
H36 H 0.1635 0.42029 0.20077 0.0
H37 H 0.25978 0.44702 0.45101 0.0
H38 H 0.29858 0.41824 0.10657 0.0
C39 C 0.19764 0.41969 0.22405 0.0
C40 C 0.22911 0.41542 0.13934 0.0
C41 C 0.2088 0.43491 0.33107 0.0
C42 C 0.25184 0.43505 0.36634 0.0
C43 C 0.28499 0.42592 0.28823 0.0
C44 C 0.27361 0.41894 0.17142 0.0
H45 H 0.10255 0.17031 0.18788 0.0
H46 H 0.07015 0.25155 0.46589 0.0
H47 H 0.05724 0.29873 0.12215 0.0
C48 C 0.09563 0.20242 0.21828 0.0
C49 C 0.08273 0.23376 0.13899 0.0
C50 C 0.08408 0.20685 0.33234 0.0
C51 C 0.07752 0.24808 0.37562 0.0
C52 C 0.07017 0.28275 0.30076 0.0
C53 C 0.06965 0.27463 0.18087 0.0
H54 H 0.34969 0.1317 0.19161 0.0
H55 H 0.27288 0.09642 0.47882 0.0
H56 H 0.22594 0.07026 0.1426 0.0
C57 C 0.31881 0.12072 0.22475 0.0
C58 C 0.28961 0.10008 0.15111 0.0
C59 C 0.31716 0.10994 0.34058 0.0
C60 C 0.2761 0.10162 0.38756 0.0
C61 C 0.24109 0.09027 0.31634 0.0
C62 C 0.24923 0.08638 0.19714 0.0
H63 H 0.42404 0.35216 0.21366 0.0
H64 H 0.44406 0.21785 0.14425 0.0
H65 H 0.46545 0.26658 0.48017 0.0
C66 C 0.4312 0.3199 0.24312 0.0
C67 C 0.44949 0.31446 0.35159 0.0
C68 C 0.43358 0.28661 0.16326 0.0
C69 C 0.44121 0.24415 0.20406 0.0
C70 C 0.44725 0.23671 0.32305 0.0
C71 C 0.45334 0.27236 0.39448 0.0
O72 O 0.08985 0.94651 0.91317 0.0
Mg73 Mg 0.09136 0.94896 0.73283 0.0
O74 O 0.02409 0.97091 0.88519 0.0
Mg75 Mg 0.0131 0.00977 0.72484 0.0
O76 O 0.08419 0.00691 0.64978 0.0
O77 O 0.14555 0.96861 0.64755 0.0
O78 O 0.00603 0.04747 0.5621 0.0
O79 O 0.03332 0.07554 0.81919 0.0
Mg80 Mg 0.94395 0.06763 0.70057 0.0
O81 O 0.93924 0.01165 0.79814 0.0
O82 O 0.94232 0.07225 0.52002 0.0
O83 O 0.97749 0.11788 0.78188 0.0
O84 O 0.88519 0.05905 0.76842 0.0
C85 C 0.01305 0.90697 0.62069 0.0
C86 C 0.05118 0.95064 0.94686 0.0
C87 C 0.12396 0.00191 0.61416 0.0
C88 C 0.98157 0.06738 0.49329 0.0
C89 C 0.01472 0.11244 0.82537 0.0
C90 C 0.89933 0.02445 0.81692 0.0
O91 O 0.05196 0.90205 0.65394 0.0
O92 O 0.99374 0.94337 0.6326 0.0
O93 O 0.4046 0.96717 0.86636 0.0
Mg94 Mg 0.43949 0.93618 0.73967 0.0
O95 O 0.44129 0.02549 0.81856 0.0
Mg96 Mg 0.5078 0.00425 0.72353 0.0
O97 O 0.50374 0.93092 0.78384 0.0
O98 O 0.45702 0.87519 0.77752 0.0
O99 O 0.57576 0.98767 0.63334 0.0
O100 O 0.54365 0.00984 0.88875 0.0
Mg101 Mg 0.57161 0.08287 0.74893 0.0
O102 O 0.5137 0.07553 0.6636 0.0
O103 O 0.61721 0.0458 0.65665 0.0
O104 O 0.5732 0.07186 0.92928 0.0
O105 O 0.54859 0.13804 0.67058 0.0
C106 C 0.43636 0.98726 0.52363 0.0
C107 C 0.40887 0.00755 0.86891 0.0
C108 C 0.49422 0.89077 0.80731 0.0
C109 C 0.6119 0.00789 0.61912 0.0
C110 C 0.56479 0.03333 0.95701 0.0
C111 C 0.51707 0.11536 0.6303 0.0
O112 O 0.41688 0.95824 0.57937 0.0
O113 O 0.47422 0.99874 0.5518 0.0
O114 O 0.54925 0.4025 0.8758 0.0
Mg115 Mg 0.58227 0.44911 0.78208 0.0
O116 O 0.49101 0.43181 0.80022 0.0
Mg117 Mg 0.51013 0.50253 0.72826 0.0
O118 O 0.57675 0.51176 0.83856 0.0
O119 O 0.63502 0.46875 0.86588 0.0
O120 O 0.52564 0.57445 0.65174 0.0
O121 O 0.47539 0.52173 0.89014 0.0
Mg122 Mg 0.43102 0.5566 0.69404 0.0
O123 O 0.44432 0.49625 0.62266 0.0
O124 O 0.46321 0.60404 0.60171 0.0
O125 O 0.43053 0.57391 0.87017 0.0
O126 O 0.38039 0.53099 0.60884 0.0
C127 C 0.56194 0.44407 0.54172 0.0
C128 C 0.50902 0.40111 0.85659 0.0
C129 C 0.61509 0.50445 0.88438 0.0
C130 C 0.50416 0.60546 0.60458 0.0
C131 C 0.46358 0.5587 0.91987 0.0
C132 C 0.40541 0.49987 0.57821 0.0
O133 O 0.59039 0.43077 0.61123 0.0
O134 O 0.54196 0.47865 0.56333 0.0
O135 O 0.93295 0.43359 0.91201 0.0
Mg136 Mg 0.93876 0.43633 0.73149 0.0
O137 O 0.96645 0.49466 0.89007 0.0
Mg138 Mg 0.00745 0.50431 0.73608 0.0
O139 O 0.9976 0.43638 0.64684 0.0
O140 O 0.94995 0.38202 0.6402 0.0
O141 O 0.0489 0.51332 0.58423 0.0
O142 O 0.07094 0.47519 0.82947 0.0
Mg143 Mg 0.07526 0.5722 0.73502 0.0
O144 O 0.01734 0.57247 0.82463 0.0
O145 O 0.08101 0.57441 0.55405 0.0
O146 O 0.11876 0.5279 0.80806 0.0
O147 O 0.06548 0.62659 0.82641 0.0
C148 C 0.90593 0.51891 0.6249 0.0
C149 C 0.94244 0.47048 0.94932 0.0
C150 C 0.98612 0.3988 0.60709 0.0
C151 C 0.07362 0.5362 0.52366 0.0
C152 C 0.10981 0.48994 0.84003 0.0
C153 C 0.02957 0.61012 0.86244 0.0
O154 O 0.89616 0.48093 0.65502 0.0
O155 O 0.94458 0.53343 0.64097 0.0
C156 C 0.18336 0.09356 0.46887 0.0
C157 C 0.20146 0.07248 0.37341 0.0
H158 H 0.14337 0.0882 0.61928 0.0
C159 C 0.18736 0.03061 0.34909 0.0
H160 H 0.19366 0.12582 0.49023 0.0
C161 C 0.15908 0.00912 0.42367 0.0
C162 C 0.14355 0.02911 0.52325 0.0
H163 H 0.20104 0.01305 0.27809 0.0
H164 H 0.15141 0.97574 0.40717 0.0
C165 C 0.15448 0.07217 0.54275 0.0
C166 C 0.43263 0.18 0.47126 0.0
C167 C 0.45658 0.19374 0.37499 0.0
H168 H 0.43262 0.14313 0.62791 0.0
C169 C 0.49636 0.1737 0.35286 0.0
H170 H 0.40219 0.19545 0.49156 0.0
C171 C 0.51387 0.14417 0.43158 0.0
C172 C 0.49179 0.1336 0.53324 0.0
H173 H 0.51602 0.18425 0.28137 0.0
H174 H 0.54644 0.13234 0.41773 0.0
C175 C 0.45004 0.15013 0.54965 0.0
C176 C 0.34932 0.47367 0.3027 0.0
C177 C 0.32986 0.43424 0.33025 0.0
H178 H 0.38946 0.52531 0.36159 0.0
C179 C 0.34509 0.41167 0.42762 0.0
H180 H 0.33767 0.49226 0.23019 0.0
C181 C 0.37491 0.43067 0.50347 0.0
C182 C 0.38984 0.47254 0.48298 0.0
H183 H 0.33007 0.38153 0.4521 0.0
H184 H 0.38242 0.41462 0.58364 0.0
C185 C 0.37875 0.49275 0.37879 0.0
C186 C 0.07604 0.34554 0.43507 0.0
C187 C 0.05174 0.32219 0.35366 0.0
H188 H 0.07461 0.38855 0.57915 0.0
C189 C 0.00682 0.32867 0.34863 0.0
H190 H 0.11063 0.34028 0.44295 0.0
C191 C 0.9863 0.3553 0.428 0.0
C192 C 0.01011 0.37674 0.5137 0.0
H193 H 0.98709 0.31027 0.28963 0.0
H194 H 0.95127 0.35763 0.4254 0.0
C195 C 0.05546 0.37298 0.51355 0.0
C196 C 0.85071 0.96255 0.0718 0.0
C197 C 0.80604 0.96642 0.04842 0.0
H198 H 0.91556 0.9778 0.01605 0.0
C199 C 0.79353 0.98892 0.94853 0.0
H200 H 0.86163 0.94585 0.14816 0.0
C201 C 0.82407 0.0055 0.87277 0.0
C202 C 0.86862 0.00128 0.89425 0.0
H203 H 0.75967 0.99389 0.92784 0.0
H204 H 0.8125 0.02227 0.79707 0.0
C205 C 0.88167 0.97988 -0.00486 0.0
C206 C 0.55501 0.79127 0.89188 0.0
C207 C 0.55965 0.79475 0.01278 0.0
H208 H 0.53309 0.81917 0.73393 0.0
C209 C 0.54604 0.83383 0.06201 0.0
H210 H 0.56209 0.76229 0.84588 0.0
C211 C 0.52734 0.86667 0.99413 0.0
C212 C 0.52334 0.86232 0.87468 0.0
H213 H 0.54819 0.83881 0.15334 0.0
H214 H 0.51343 0.89423 0.03611 0.0
C215 C 0.53771 0.82439 0.82487 0.0
C216 C 0.67919 0.53998 0.14175 0.0
C217 C 0.69891 0.57776 0.10137 0.0
H218 H 0.63661 0.48746 0.10363 0.0
C219 C 0.68367 0.5957 -0.00274 0.0
H220 H 0.6905 0.52481 0.22 0.0
C221 C 0.65283 0.57403 0.92978 0.0
C222 C 0.6363 0.53425 0.96586 0.0
H223 H 0.69833 0.62472 0.96349 0.0
H224 H 0.64442 0.58675 0.84611 0.0
C225 C 0.64853 0.51837 0.07437 0.0
C226 C 0.01315 0.68046 0.12159 0.0
C227 C 0.96964 0.69271 0.11036 0.0
H228 H 0.06593 0.64482 0.0511 0.0
C229 C 0.94391 0.67212 0.02675 0.0
H230 H 0.03404 0.69649 0.18274 0.0
C231 C 0.96211 0.64193 0.95136 0.0
C232 C 0.00665 0.63289 0.95628 0.0
H233 H 0.91043 0.68161 0.01466 0.0
H234 H 0.9422 0.62841 0.88398 0.0
C235 C 0.03148 0.65125 0.04495 0.0
C236 C 0.01469 0.17709 0.4041 0.0
C237 C 0.05886 0.17062 0.37986 0.0
H238 H 0.95429 0.1488 0.45088 0.0
C239 C 0.07475 0.12849 0.37374 0.0
H240 H 0.0008 0.20903 0.40376 0.0
C241 C 0.04748 0.09373 0.39583 0.0
C242 C 0.00384 0.10042 0.42555 0.0
H243 H 0.10809 0.12253 0.35025 0.0
H244 H 0.06114 0.06167 0.39642 0.0
C245 C 0.98745 0.1424 0.42608 0.0
C246 C 0.35755 0.07855 0.50871 0.0
C247 C 0.3555 0.08712 0.39071 0.0
H248 H 0.38316 0.03822 0.64088 0.0
C249 C 0.38471 0.06504 0.3179 0.0
H250 H 0.33729 0.09567 0.56853 0.0
C251 C 0.41162 0.0327 0.36032 0.0
C252 C 0.40931 0.02122 0.47533 0.0
H253 H 0.38503 0.07007 0.22629 0.0
H254 H 0.43273 0.01549 0.30259 0.0
C255 C 0.38359 0.04541 0.55012 0.0
C256 C 0.49133 0.38426 0.33354 0.0
C257 C 0.47469 0.35065 0.40346 0.0
H258 H 0.53159 0.44049 0.3228 0.0
C259 C 0.48817 0.34883 0.5184 0.0
H260 H 0.48368 0.38689 0.24345 0.0
C261 C 0.51905 0.3775 0.55937 0.0
C262 C 0.53515 0.41063 0.48949 0.0
H263 H 0.47579 0.32489 0.57716 0.0
H264 H 0.5298 0.37419 0.64703 0.0
C265 C 0.52021 0.41458 0.37727 0.0
C266 C 0.16552 0.50166 0.33328 0.0
C267 C 0.17728 0.4626 0.38662 0.0
H268 H 0.12271 0.55617 0.33452 0.0
C269 C 0.15575 0.44852 0.48385 0.0
H270 H 0.18217 0.51255 0.2569 0.0
C271 C 0.12178 0.47272 0.52599 0.0
C272 C 0.10874 0.51142 0.47148 0.0
H273 H 0.1644 0.41846 0.52516 0.0
H274 H 0.10584 0.46099 0.6024 0.0
C275 C 0.13155 0.52627 0.37627 0.0
C276 C 0.01844 0.83999 0.0302 0.0
C277 C 0.97616 0.84754 0.07029 0.0
H278 H 0.07697 0.8673 0.96494 0.0
C279 C 0.96249 0.89021 0.08526 0.0
H280 H 0.03086 0.80764 0.02171 0.0
C281 C 0.99063 0.92419 0.06321 0.0
C282 C 0.0317 0.91668 0.01701 0.0
H283 H 0.93038 0.89733 0.11699 0.0
H284 H 0.97966 0.95677 0.07571 0.0
C285 C 0.0458 0.87419 0.00299 0.0
C286 C 0.6704 0.99477 0.06638 0.0
C287 C 0.66131 0.95068 0.08121 0.0
H288 H 0.64612 0.05682 0.02254 0.0
C289 C 0.61806 0.93716 0.08345 0.0
H290 H 0.7032 0.00691 0.07275 0.0
C291 C 0.58493 0.96655 0.06033 0.0
C292 C 0.59455 0.00963 0.03299 0.0
H293 H 0.61012 0.90393 0.10152 0.0
H294 H 0.55193 0.95517 0.05506 0.0
C295 C 0.63743 0.02392 0.04263 0.0
C296 C 0.53315 0.65809 0.935 0.0
C297 C 0.56517 0.64582 0.0155 0.0
H298 H 0.47525 0.64113 0.84559 0.0
C299 C 0.56495 0.60312 0.05597 0.0
H300 H 0.53135 0.69045 0.90121 0.0
C301 C 0.53195 0.57485 0.02451 0.0
C302 C 0.49832 0.58864 0.9522 0.0
H303 H 0.58914 0.59195 0.11637 0.0
H304 H 0.53206 0.54251 0.05934 0.0
C305 C 0.49996 0.63004 0.90487 0.0
C306 C 0.89651 0.56488 0.09587 0.0
C307 C 0.85223 0.56147 0.06668 0.0
H308 H 0.95925 0.5359 0.09287 0.0
C309 C 0.83807 0.52369 0.01167 0.0
H310 H 0.90948 0.59336 0.13598 0.0
C311 C 0.867 0.49076 0.98684 0.0
C312 C 0.91091 0.49445 0.01666 0.0
H313 H 0.80441 0.51875 0.98895 0.0
H314 H 0.85543 0.4637 0.93734 0.0
C315 C 0.92514 0.53145 0.07358 0.0
C316 C 0.09698 0.18621 0.97026 0.0
C317 C 0.06959 0.21608 0.02518 0.0
H318 H 0.10124 0.12857 0.8699 0.0
C319 C 0.02527 0.21532 -0.00223 0.0
H320 H 0.13133 0.18573 0.99 0.0
C321 C 0.00814 0.18264 0.92895 0.0
C322 C 0.03476 0.14955 0.88646 0.0
H323 H 0.00305 0.23709 0.03946 0.0
H324 H 0.97339 0.18171 0.91575 0.0
C325 C 0.07968 0.15275 0.90385 0.0
C326 C 0.30887 0.03379 0.04458 0.0
C327 C 0.3099 0.07882 0.0499 0.0
H328 H 0.33941 0.9765 0.98706 0.0
C329 C 0.34119 0.10071 0.98324 0.0
H330 H 0.28609 0.01559 0.09592 0.0
C331 C 0.37312 0.07804 0.92276 0.0
C332 C 0.37412 0.03292 0.92614 0.0
H333 H 0.34308 0.13544 0.98549 0.0
H334 H 0.39778 0.09583 0.87684 0.0
C335 C 0.34044 0.01126 0.98396 0.0
C336 C 0.4194 0.33488 0.99422 0.0
C337 C 0.44385 0.30125 0.04444 0.0
H338 H 0.42096 0.39388 0.89734 0.0
C339 C 0.4866 0.29545 0.00696 0.0
H340 H 0.38634 0.34033 0.02149 0.0
C341 C 0.50655 0.32645 0.93767 0.0
C342 C 0.4841 0.3637 0.90254 0.0
H343 H 0.50654 0.27023 0.04369 0.0
H344 H 0.54075 0.32284 0.91939 0.0
C345 C 0.43944 0.36607 0.92461 0.0
C346 C 0.17424 0.40025 0.98667 0.0
C347 C 0.21187 0.42284 0.0215 0.0
H348 H 0.11106 0.40426 0.90815 0.0
C349 C 0.2192 0.46356 0.97371 0.0
H350 H 0.16755 0.36875 0.02239 0.0
C351 C 0.18673 0.48401 0.90976 0.0
C352 C 0.1461 0.46419 0.89086 0.0
H353 H 0.24742 0.48206 -0.00121 0.0
H354 H 0.19255 0.51682 0.88267 0.0
C355 C 0.14123 0.42105 0.92407 0.0
C356 C 0.99854 0.80039 0.46679 0.0
C357 C 0.95483 0.80172 0.43366 0.0
H358 H 0.05115 0.83282 0.54822 0.0
C359 C 0.92832 0.83391 0.48207 0.0
H360 H 0.02009 0.77665 0.43052 0.0
C361 C 0.94658 0.86783 0.54519 0.0
C362 C 0.99143 0.86921 0.56583 0.0
H363 H 0.89448 0.83607 0.45756 0.0
H364 H 0.92596 0.89392 0.57265 0.0
C365 C 0.01658 0.83363 0.53184 0.0
C366 C 0.70875 0.99849 0.42015 0.0
C367 C 0.71371 0.95384 0.4102 0.0
H368 H 0.67236 0.05019 0.49192 0.0
C369 C 0.68887 0.92715 0.48329 0.0
H370 H 0.72641 0.02005 0.3641 0.0
C371 C 0.65593 0.9443 0.55207 0.0
C372 C 0.64848 0.98873 0.5537 0.0
H373 H 0.69164 0.89254 0.47731 0.0
H374 H 0.6355 0.92274 0.60105 0.0
C375 C 0.67679 0.01568 0.49154 0.0
C376 C 0.51769 0.70179 0.40587 0.0
C377 C 0.56205 0.70048 0.38089 0.0
H378 H 0.4649 0.67323 0.49599 0.0
C379 C 0.58876 0.67372 0.44963 0.0
H380 H 0.49603 0.72142 0.35448 0.0
C381 C 0.57073 0.64442 0.52841 0.0
C382 C 0.52562 0.64204 0.5426 0.0
H383 H 0.62318 0.67179 0.43229 0.0
H384 H 0.5918 0.6217 0.57168 0.0
C385 C 0.49977 0.67314 0.48584 0.0
C386 C 0.84563 0.61023 0.47352 0.0
C387 C 0.81011 0.58793 0.42468 0.0
H388 H 0.9052 0.60568 0.5695 0.0
C389 C 0.80252 0.54564 0.46136 0.0
H390 H 0.85246 0.64296 0.4471 0.0
C391 C 0.83265 0.52441 0.53135 0.0
C392 C 0.87139 0.54474 0.56651 0.0
H393 H 0.77601 0.52722 0.42535 0.0
H394 H 0.82685 0.49084 0.5508 0.0
C395 C 0.87646 0.58862 0.54158 0.0
loop_
_geom_bond_atom_site_label_1
_geom_bond_atom_site_label_2
_geom_bond_distance
_geom_bond_site_symmetry_2
_ccdc_geom_bond_type
H0 C3 0.931 . S
H1 C6 0.928 1_556 S
H2 C8 0.930 . S
C3 H0 0.931 . S
C3 C4 1.413 . S
C3 C5 1.360 . S
C4 C3 1.413 . S
C4 C8 1.429 . S
C5 C3 1.360 . S
C5 C6 1.372 . S
C6 H1 0.928 1_554 S
C6 C5 1.372 . S
C6 C7 1.404 . S
C7 C6 1.404 . S
C7 C8 1.391 . S
C8 H2 0.930 . S
C8 C4 1.429 . S
C8 C7 1.391 . S
H9 C12 0.931 . S
H10 C15 0.928 1_556 S
H11 C17 0.930 . S
C12 H9 0.931 . S
C12 C13 1.413 . S
C12 C14 1.360 . S
C13 C12 1.413 . S
C13 C17 1.429 . S
C14 C12 1.360 . S
C14 C15 1.372 . S
C15 H10 0.928 1_554 S
C15 C14 1.372 . S
C15 C16 1.404 . S
C16 C15 1.404 . S
C16 C17 1.391 . S
C17 H11 0.930 . S
C17 C13 1.429 . S
C17 C16 1.391 . S
H18 C21 0.931 . S
H19 C24 0.928 1_556 S
H20 C26 0.930 . S
C21 H18 0.931 . S
C21 C22 1.413 . S
C21 C23 1.360 . S
C22 C21 1.413 . S
C22 C26 1.429 . S
C23 C21 1.360 . S
C23 C24 1.372 . S
C24 H19 0.928 1_554 S
C24 C23 1.372 . S
C24 C25 1.404 . S
C25 C24 1.404 . S
C25 C26 1.391 . S
C26 H20 0.930 . S
C26 C22 1.429 . S
C26 C25 1.391 . S
H27 C30 0.931 . S
H28 C33 0.928 . S
H29 C35 0.930 1_556 S
C30 H27 0.931 . S
C30 C31 1.413 . S
C30 C32 1.360 . S
C31 C30 1.413 . S
C31 C35 1.429 . S
C32 C30 1.360 . S
C32 C33 1.372 . S
C33 H28 0.928 . S
C33 C32 1.372 . S
C33 C34 1.404 . S
C34 C33 1.404 . S
C34 C35 1.391 . S
C35 H29 0.930 1_554 S
C35 C31 1.429 . S
C35 C34 1.391 . S
H36 C39 0.931 . S
H37 C42 0.928 . S
H38 C44 0.930 . S
C39 H36 0.931 . S
C39 C40 1.413 . S
C39 C41 1.360 . S
C40 C39 1.413 . S
C40 C44 1.429 . S
C41 C39 1.360 . S
C41 C42 1.372 . S
C42 H37 0.928 . S
C42 C41 1.372 . S
C42 C43 1.404 . S
C43 C42 1.404 . S
C43 C44 1.391 . S
C44 H38 0.930 . S
C44 C40 1.429 . S
C44 C43 1.391 . S
H45 C48 0.931 . S
H46 C51 0.928 . S
H47 C53 0.930 . S
C48 H45 0.931 . S
C48 C49 1.413 . S
C48 C50 1.360 . S
C49 C48 1.413 . S
C49 C53 1.429 . S
C50 C48 1.360 . S
C50 C51 1.372 . S
C51 H46 0.928 . S
C51 C50 1.372 . S
C51 C52 1.404 . S
C52 C51 1.404 . S
C52 C53 1.391 . S
C53 H47 0.930 . S
C53 C49 1.429 . S
C53 C52 1.391 . S
H54 C57 0.931 . S
H55 C60 0.928 . S
H56 C62 0.930 . S
C57 H54 0.931 . S
C57 C58 1.413 . S
C57 C59 1.360 . S
C58 C57 1.413 . S
C58 C62 1.429 . S
C59 C57 1.360 . S
C59 C60 1.372 . S
C60 H55 0.928 . S
C60 C59 1.372 . S
C60 C61 1.404 . S
C61 C60 1.404 . S
C61 C62 1.391 . S
C62 H56 0.930 . S
C62 C58 1.429 . S
C62 C61 1.391 . S
H63 C66 0.931 . S
H64 C69 0.928 . S
H65 C71 0.930 . S
C66 H63 0.931 . S
C66 C67 1.413 . S
C66 C68 1.360 . S
C67 C66 1.413 . S
C67 C71 1.429 . S
C68 C66 1.360 . S
C68 C69 1.372 . S
C69 H64 0.928 . S
C69 C68 1.372 . S
C69 C70 1.404 . S
C70 C69 1.404 . S
C70 C71 1.391 . S
C71 H65 0.930 . S
C71 C67 1.429 . S
C71 C70 1.391 . S
O72 Mg73 1.990 . S
O72 C86 1.253 . S
Mg73 O72 1.990 . S
Mg73 O76 2.180 . S
Mg73 O77 2.117 . S
Mg73 O91 2.030 . S
O74 Mg75 2.072 1_565 S
O74 C86 1.260 . S
Mg75 O74 2.072 1_545 S
Mg75 O76 2.099 1_545 S
Mg75 O78 2.079 . S
Mg75 O79 2.072 . S
Mg75 O81 2.099 1_455 S
Mg75 O92 2.079 1_445 S
O76 Mg73 2.180 . S
O76 Mg75 2.099 1_565 S
O76 C87 1.279 . S
O77 Mg73 2.117 . S
O77 C87 1.249 . S
O78 Mg75 2.079 . S
O78 C88 1.264 1_455 S
O79 Mg75 2.072 . S
O79 C89 1.260 . S
Mg80 O81 2.180 . S
Mg80 O82 2.030 . S
Mg80 O83 1.990 . S
Mg80 O84 2.117 . S
O81 Mg75 2.099 1_655 S
O81 Mg80 2.180 . S
O81 C90 1.279 . S
O82 Mg80 2.030 . S
O82 C88 1.248 . S
O83 Mg80 1.990 . S
O83 C89 1.253 1_655 S
O84 Mg80 2.117 . S
O84 C90 1.250 . S
C85 O91 1.248 1_655 S
C85 O92 1.264 . S
C86 O72 1.253 . S
C86 O74 1.260 . S
C87 O76 1.279 . S
C87 O77 1.249 . S
C88 O78 1.264 1_655 S
C88 O82 1.248 . S
C89 O79 1.260 . S
C89 O83 1.253 1_455 S
C90 O81 1.279 . S
C90 O84 1.250 . S
O91 Mg73 2.030 . S
O91 C85 1.248 1_455 S
O92 Mg75 2.079 1_665 S
O92 C85 1.264 . S
O93 Mg94 1.990 . S
O93 C107 1.253 1_565 S
Mg94 O93 1.990 . S
Mg94 O97 2.180 . S
Mg94 O98 2.117 . S
Mg94 O112 2.030 . S
O95 Mg96 2.072 . S
O95 C107 1.260 . S
Mg96 O95 2.072 . S
Mg96 O97 2.099 1_545 S
Mg96 O99 2.079 1_545 S
Mg96 O100 2.072 1_545 S
Mg96 O102 2.099 . S
Mg96 O113 2.079 . S
O97 Mg94 2.180 . S
O97 Mg96 2.099 1_565 S
O97 C108 1.279 . S
O98 Mg94 2.117 . S
O98 C108 1.250 . S
O99 Mg96 2.079 1_565 S
O99 C109 1.264 . S
O100 Mg96 2.072 1_565 S
O100 C110 1.260 1_565 S
Mg101 O102 2.180 . S
Mg101 O103 2.030 . S
Mg101 O104 1.990 . S
Mg101 O105 2.117 . S
O102 Mg96 2.099 . S
O102 Mg101 2.180 . S
O102 C111 1.279 . S
O103 Mg101 2.030 . S
O103 C109 1.248 1_545 S
O104 Mg101 1.990 . S
O104 C110 1.253 . S
O105 Mg101 2.117 . S
O105 C111 1.250 . S
C106 O112 1.248 . S
C106 O113 1.264 1_565 S
C107 O93 1.253 1_545 S
C107 O95 1.260 . S
C108 O97 1.279 . S
C108 O98 1.250 . S
C109 O99 1.264 . S
C109 O103 1.248 1_565 S
C110 O100 1.260 1_545 S
C110 O104 1.253 . S
C111 O102 1.279 . S
C111 O105 1.250 . S
O112 Mg94 2.030 . S
O112 C106 1.248 . S
O113 Mg96 2.079 . S
O113 C106 1.264 1_545 S
O114 Mg115 1.990 . S
O114 C128 1.253 . S
Mg115 O114 1.990 . S
Mg115 O118 2.180 . S
Mg115 O119 2.117 . S
Mg115 O133 2.030 . S
O116 Mg117 2.072 . S
O116 C128 1.260 . S
Mg117 O116 2.072 . S
Mg117 O118 2.099 . S
Mg117 O120 2.079 . S
Mg117 O121 2.072 . S
Mg117 O123 2.099 . S
Mg117 O134 2.079 . S
O118 Mg115 2.180 . S
O118 Mg117 2.099 . S
O118 C129 1.279 . S
O119 Mg115 2.117 . S
O119 C129 1.250 . S
O120 Mg117 2.079 . S
O120 C130 1.264 . S
O121 Mg117 2.072 . S
O121 C131 1.260 . S
Mg122 O123 2.180 . S
Mg122 O124 2.030 . S
Mg122 O125 1.990 . S
Mg122 O126 2.117 . S
O123 Mg117 2.099 . S
O123 Mg122 2.180 . S
O123 C132 1.279 . S
O124 Mg122 2.030 . S
O124 C130 1.248 . S
O125 Mg122 1.990 . S
O125 C131 1.253 . S
O126 Mg122 2.117 . S
O126 C132 1.250 . S
C127 O133 1.248 . S
C127 O134 1.264 . S
C128 O114 1.253 . S
C128 O116 1.260 . S
C129 O118 1.279 . S
C129 O119 1.250 . S
C130 O120 1.264 . S
C130 O124 1.248 . S
C131 O121 1.260 . S
C131 O125 1.253 . S
C132 O123 1.279 . S
C132 O126 1.250 . S
O133 Mg115 2.030 . S
O133 C127 1.248 . S
O134 Mg117 2.079 . S
O134 C127 1.264 . S
O135 Mg136 1.990 . S
O135 C149 1.253 . S
Mg136 O135 1.990 . S
Mg136 O139 2.180 . S
Mg136 O140 2.117 . S
Mg136 O154 2.030 . S
O137 Mg138 2.072 1_655 S
O137 C149 1.260 . S
Mg138 O137 2.072 1_455 S
Mg138 O139 2.099 1_455 S
Mg138 O141 2.079 . S
Mg138 O142 2.072 . S
Mg138 O144 2.099 . S
Mg138 O155 2.079 1_455 S
O139 Mg136 2.180 . S
O139 Mg138 2.099 1_655 S
O139 C150 1.279 . S
O140 Mg136 2.117 . S
O140 C150 1.250 . S
O141 Mg138 2.079 . S
O141 C151 1.264 . S
O142 Mg138 2.072 . S
O142 C152 1.260 . S
Mg143 O144 2.180 . S
Mg143 O145 2.030 . S
Mg143 O146 1.990 . S
Mg143 O147 2.117 . S
O144 Mg138 2.099 . S
O144 Mg143 2.180 . S
O144 C153 1.279 . S
O145 Mg143 2.030 . S
O145 C151 1.248 . S
O146 Mg143 1.990 . S
O146 C152 1.253 . S
O147 Mg143 2.117 . S
O147 C153 1.250 . S
C148 O154 1.248 . S
C148 O155 1.264 . S
C149 O135 1.253 . S
C149 O137 1.260 . S
C150 O139 1.279 . S
C150 O140 1.250 . S
C151 O141 1.264 . S
C151 O145 1.248 . S
C152 O142 1.260 . S
C152 O146 1.253 . S
C153 O144 1.279 . S
C153 O147 1.250 . S
O154 Mg136 2.030 . S
O154 C148 1.248 . S
O155 Mg138 2.079 1_655 S
O155 C148 1.264 . S
C156 C157 1.387 . S
C156 H160 0.950 . S
C156 C165 1.390 . S
C157 C156 1.387 . S
C157 C159 1.387 . S
H158 C165 0.950 . S
C159 C157 1.387 . S
C159 C161 1.390 . S
C159 H163 0.950 1_545 S
H160 C156 0.950 . S
C161 C159 1.390 . S
C161 C162 1.387 . S
C161 H164 0.950 1_545 S
C162 C161 1.387 . S
C162 C165 1.387 . S
H163 C159 0.950 1_565 S
H164 C161 0.950 1_565 S
C165 C156 1.390 . S
C165 H158 0.950 . S
C165 C162 1.387 . S
C166 C167 1.387 . S
C166 H170 0.950 . S
C166 C175 1.390 . S
C167 C166 1.387 . S
C167 C169 1.387 . S
H168 C175 0.950 . S
C169 C167 1.387 . S
C169 C171 1.390 . S
C169 H173 0.950 . S
H170 C166 0.950 . S
C171 C169 1.390 . S
C171 C172 1.387 . S
C171 H174 0.950 . S
C172 C171 1.387 . S
C172 C175 1.387 . S
H173 C169 0.950 . S
H174 C171 0.950 . S
C175 C166 1.390 . S
C175 H168 0.950 . S
C175 C172 1.387 . S
C176 C177 1.387 . S
C176 H180 0.950 . S
C176 C185 1.390 . S
C177 C176 1.387 . S
C177 C179 1.387 . S
H178 C185 0.950 . S
C179 C177 1.387 . S
C179 C181 1.390 . S
C179 H183 0.950 . S
H180 C176 0.950 . S
C181 C179 1.390 . S
C181 C182 1.387 . S
C181 H184 0.950 . S
C182 C181 1.387 . S
C182 C185 1.387 . S
H183 C179 0.950 . S
H184 C181 0.950 . S
C185 C176 1.390 . S
C185 H178 0.950 . S
C185 C182 1.387 . S
C186 C187 1.387 . S
C186 H190 0.950 . S
C186 C195 1.390 . S
C187 C186 1.387 . S
C187 C189 1.387 . S
H188 C195 0.950 . S
C189 C187 1.387 . S
C189 C191 1.385 1_455 S
C189 H193 0.950 1_455 S
H190 C186 0.950 . S
C191 C189 1.385 1_655 S
C191 C192 1.379 1_655 S
C191 H194 0.964 . S
C192 C191 1.379 1_455 S
C192 C195 1.387 . S
H193 C189 0.950 1_655 S
H194 C191 0.964 . S
C195 C186 1.390 . S
C195 H188 0.950 . S
C195 C192 1.387 . S
C196 C197 1.387 . S
C196 H200 0.950 . S
C196 C205 1.390 1_554 S
C197 C196 1.387 . S
C197 C199 1.387 1_554 S
H198 C205 0.950 1_554 S
C199 C197 1.387 1_556 S
C199 C201 1.390 . S
C199 H203 0.950 . S
H200 C196 0.950 . S
C201 C199 1.390 . S
C201 C202 1.387 . S
C201 H204 0.950 . S
C202 C201 1.387 . S
C202 C205 1.387 . S
H203 C199 0.950 . S
H204 C201 0.950 . S
C205 C196 1.390 1_556 S
C205 H198 0.950 1_556 S
C205 C202 1.387 . S
C206 C207 1.387 1_556 S
C206 H210 0.950 . S
C206 C215 1.390 . S
C207 C206 1.387 1_554 S
C207 C209 1.387 . S
H208 C215 0.950 . S
C209 C207 1.387 . S
C209 C211 1.390 1_554 S
C209 H213 0.950 . S
H210 C206 0.950 . S
C211 C209 1.390 1_556 S
C211 C212 1.387 . S
C211 H214 0.950 1_556 S
C212 C211 1.387 . S
C212 C215 1.387 . S
H213 C209 0.950 . S
H214 C211 0.950 1_554 S
C215 C206 1.390 . S
C215 H208 0.950 . S
C215 C212 1.387 . S
C216 C217 1.387 . S
C216 H220 0.950 . S
C216 C225 1.390 1_554 S
C217 C216 1.387 . S
C217 C219 1.387 1_554 S
H218 C225 0.950 1_554 S
C219 C217 1.387 1_556 S
C219 C221 1.390 . S
C219 H223 0.950 . S
H220 C216 0.950 . S
C221 C219 1.390 . S
C221 C222 1.387 . S
C221 H224 0.950 . S
C222 C221 1.387 . S
C222 C225 1.387 . S
H223 C219 0.950 . S
H224 C221 0.950 . S
C225 C216 1.390 1_556 S
C225 H218 0.950 1_556 S
C225 C222 1.387 . S
C226 C227 1.387 1_456 S
C226 H230 0.950 1_556 S
C226 C235 1.390 . S
C227 C226 1.387 1_654 S
C227 C229 1.387 . S
H228 C235 0.950 . S
C229 C227 1.387 . S
C229 C231 1.390 1_554 S
C229 H233 0.950 . S
H230 C226 0.950 1_554 S
C231 C229 1.390 1_556 S
C231 C232 1.387 . S
C231 H234 0.950 . S
C232 C231 1.387 . S
C232 C235 1.387 1_655 S
H233 C229 0.950 . S
H234 C231 0.950 . S
C235 C226 1.390 . S
C235 H228 0.950 . S
C235 C232 1.387 1_455 S
C236 C237 1.387 . S
C236 H240 0.950 . S
C236 C245 1.390 . S
C237 C236 1.387 . S
C237 C239 1.387 . S
H238 C245 0.950 . S
C239 C237 1.387 . S
C239 C241 1.390 . S
C239 H243 0.950 . S
H240 C236 0.950 . S
C241 C239 1.390 . S
C241 C242 1.384 1_455 S
C241 H244 0.950 1_455 S
C242 C241 1.384 1_655 S
C242 C245 1.382 1_655 S
H243 C239 0.950 . S
H244 C241 0.950 1_655 S
C245 C236 1.390 . S
C245 H238 0.950 . S
C245 C242 1.382 1_455 S
C246 C247 1.387 . S
C246 H250 0.950 . S
C246 C255 1.390 . S
C247 C246 1.387 . S
C247 C249 1.387 . S
H248 C255 0.950 . S
C249 C247 1.387 . S
C249 C251 1.390 . S
C249 H253 0.950 . S
H250 C246 0.950 . S
C251 C249 1.390 . S
C251 C252 1.387 . S
C251 H254 0.950 1_545 S
C252 C251 1.387 . S
C252 C255 1.387 . S
H253 C249 0.950 . S
H254 C251 0.950 1_565 S
C255 C246 1.390 . S
C255 H248 0.950 . S
C255 C252 1.387 . S
C256 C257 1.387 . S
C256 H260 0.950 . S
C256 C265 1.390 . S
C257 C256 1.387 . S
C257 C259 1.387 . S
H258 C265 0.950 . S
C259 C257 1.387 . S
C259 C261 1.390 . S
C259 H263 0.950 . S
H260 C256 0.950 . S
C261 C259 1.390 . S
C261 C262 1.387 . S
C261 H264 0.950 . S
C262 C261 1.387 . S
C262 C265 1.387 . S
H263 C259 0.950 . S
H264 C261 0.950 . S
C265 C256 1.390 . S
C265 H258 0.950 . S
C265 C262 1.387 . S
C266 C267 1.387 . S
C266 H270 0.950 . S
C266 C275 1.390 . S
C267 C266 1.387 . S
C267 C269 1.387 . S
H268 C275 0.950 . S
C269 C267 1.387 . S
C269 C271 1.390 . S
C269 H273 0.950 . S
H270 C266 0.950 . S
C271 C269 1.390 . S
C271 C272 1.387 . S
C271 H274 0.950 . S
C272 C271 1.387 . S
C272 C275 1.387 . S
H273 C269 0.950 . S
H274 C271 0.950 . S
C275 C266 1.390 . S
C275 H268 0.950 . S
C275 C272 1.387 . S
C276 C277 1.387 . S
C276 H280 0.950 . S
C276 C285 1.390 1_655 S
C277 C276 1.387 . S
C277 C279 1.387 1_556 S
H278 C285 0.950 . S
C279 C277 1.387 1_554 S
C279 C281 1.390 1_554 S
C279 H283 0.950 . S
H280 C276 0.950 . S
C281 C279 1.390 1_556 S
C281 C282 1.387 1_655 S
C281 H284 0.950 1_556 S
C282 C281 1.387 1_455 S
C282 C285 1.387 . S
H283 C279 0.950 . S
H284 C281 0.950 1_554 S
C285 C276 1.390 1_455 S
C285 H278 0.950 . S
C285 C282 1.387 . S
C286 C287 1.387 1_554 S
C286 H290 0.950 . S
C286 C295 1.390 1_565 S
C287 C286 1.387 1_556 S
C287 C289 1.387 . S
H288 C295 0.950 . S
C289 C287 1.387 . S
C289 C291 1.390 . S
C289 H293 0.950 . S
H290 C286 0.950 . S
C291 C289 1.390 . S
C291 C292 1.387 1_565 S
C291 H294 0.950 . S
C292 C291 1.387 1_545 S
C292 C295 1.387 1_556 S
H293 C289 0.950 . S
H294 C291 0.950 . S
C295 C286 1.390 1_545 S
C295 H288 0.950 . S
C295 C292 1.387 1_554 S
C296 C297 1.387 . S
C296 H300 0.950 . S
C296 C305 1.390 . S
C297 C296 1.387 . S
C297 C299 1.387 1_556 S
H298 C305 0.950 . S
C299 C297 1.387 1_554 S
C299 C301 1.390 . S
C299 H303 0.950 . S
H300 C296 0.950 . S
C301 C299 1.390 . S
C301 C302 1.387 1_554 S
C301 H304 0.950 . S
C302 C301 1.387 1_556 S
C302 C305 1.387 . S
H303 C299 0.950 . S
H304 C301 0.950 . S
C305 C296 1.390 . S
C305 H298 0.950 . S
C305 C302 1.387 . S
C306 C307 1.387 1_554 S
C306 H310 0.950 . S
C306 C315 1.390 . S
C307 C306 1.387 1_556 S
C307 C309 1.387 . S
H308 C315 0.950 . S
C309 C307 1.387 . S
C309 C311 1.390 . S
C309 H313 0.950 . S
H310 C306 0.950 . S
C311 C309 1.390 . S
C311 C312 1.387 . S
C311 H314 0.950 . S
C312 C311 1.387 . S
C312 C315 1.387 1_556 S
H313 C309 0.950 . S
H314 C311 0.950 . S
C315 C306 1.390 . S
C315 H308 0.950 . S
C315 C312 1.387 1_554 S
C316 C317 1.387 . S
C316 H320 0.950 . S
C316 C325 1.390 1_554 S
C317 C316 1.387 . S
C317 C319 1.387 . S
H318 C325 0.950 . S
C319 C317 1.387 . S
C319 C321 1.390 . S
C319 H323 0.950 1_455 S
H320 C316 0.950 . S
C321 C319 1.390 . S
C321 C322 1.387 1_554 S
C321 H324 0.950 1_455 S
C322 C321 1.387 1_556 S
C322 C325 1.387 . S
H323 C319 0.950 1_655 S
H324 C321 0.950 1_655 S
C325 C316 1.390 1_556 S
C325 H318 0.950 . S
C325 C322 1.387 . S
C326 C327 1.387 . S
C326 H330 0.958 . S
C326 C335 1.390 . S
C327 C326 1.387 . S
C327 C329 1.387 . S
H328 C335 0.950 1_565 S
C329 C327 1.387 . S
C329 C331 1.390 1_554 S
C329 H333 0.950 . S
H330 C326 0.958 . S
C331 C329 1.390 1_556 S
C331 C332 1.387 . S
C331 H334 0.950 . S
C332 C331 1.387 . S
C332 C335 1.387 1_556 S
H333 C329 0.950 . S
H334 C331 0.950 . S
C335 C326 1.390 . S
C335 H328 0.950 1_545 S
C335 C332 1.387 1_554 S
C336 C337 1.387 . S
C336 H340 0.950 . S
C336 C345 1.390 . S
C337 C336 1.387 . S
C337 C339 1.387 . S
H338 C345 0.950 . S
C339 C337 1.387 . S
C339 C341 1.387 1_554 S
C339 H343 0.950 . S
H340 C336 0.950 . S
C341 C339 1.387 1_556 S
C341 C342 1.389 . S
C341 H344 0.952 . S
C342 C341 1.389 . S
C342 C345 1.387 1_556 S
H343 C339 0.950 . S
H344 C341 0.952 . S
C345 C336 1.390 . S
C345 H338 0.950 . S
C345 C342 1.387 1_554 S
C346 C347 1.387 . S
C346 H350 0.950 . S
C346 C355 1.390 1_554 S
C347 C346 1.387 . S
C347 C349 1.387 . S
H348 C355 0.950 . S
C349 C347 1.387 . S
C349 C351 1.390 . S
C349 H353 0.950 . S
H350 C346 0.950 . S
C351 C349 1.390 . S
C351 C352 1.387 1_554 S
C351 H354 0.950 . S
C352 C351 1.387 1_556 S
C352 C355 1.387 . S
H353 C349 0.950 . S
H354 C351 0.950 . S
C355 C346 1.390 1_556 S
C355 H348 0.950 . S
C355 C352 1.387 . S
C356 C357 1.387 1_455 S
C356 H360 0.950 . S
C356 C365 1.390 . S
C357 C356 1.387 1_655 S
C357 C359 1.387 . S
H358 C365 0.950 . S
C359 C357 1.387 . S
C359 C361 1.390 . S
C359 H363 0.950 . S
H360 C356 0.950 . S
C361 C359 1.390 . S
C361 C362 1.387 . S
C361 H364 0.950 . S
C362 C361 1.387 . S
C362 C365 1.387 1_655 S
H363 C359 0.950 . S
H364 C361 0.950 . S
C365 C356 1.390 . S
C365 H358 0.950 . S
C365 C362 1.387 1_455 S
C366 C367 1.387 . S
C366 H370 0.950 1_565 S
C366 C375 1.390 . S
C367 C366 1.387 . S
C367 C369 1.387 . S
H368 C375 0.950 1_545 S
C369 C367 1.387 . S
C369 C371 1.390 . S
C369 H373 0.950 . S
H370 C366 0.950 1_545 S
C371 C369 1.390 . S
C371 C372 1.387 . S
C371 H374 0.950 . S
C372 C371 1.387 . S
C372 C375 1.387 . S
H373 C369 0.950 . S
H374 C371 0.950 . S
C375 C366 1.390 . S
C375 H368 0.950 1_565 S
C375 C372 1.387 . S
C376 C377 1.387 . S
C376 H380 0.950 . S
C376 C385 1.390 . S
C377 C376 1.387 . S
C377 C379 1.387 . S
H378 C385 0.950 . S
C379 C377 1.387 . S
C379 C381 1.390 . S
C379 H383 0.950 . S
H380 C376 0.950 . S
C381 C379 1.390 . S
C381 C382 1.387 . S
C381 H384 0.950 . S
C382 C381 1.387 . S
C382 C385 1.387 . S
H383 C379 0.950 . S
H384 C381 0.950 . S
C385 C376 1.390 . S
C385 H378 0.950 . S
C385 C382 1.387 . S
C386 C387 1.387 . S
C386 H390 0.950 . S
C386 C395 1.390 . S
C387 C386 1.387 . S
C387 C389 1.387 . S
H388 C395 0.950 . S
C389 C387 1.387 . S
C389 C391 1.390 . S
C389 H393 0.950 . S
H390 C386 0.950 . S
C391 C389 1.390 . S
C391 C392 1.387 . S
C391 H394 0.950 . S
C392 C391 1.387 . S
C392 C395 1.387 . S
H393 C389 0.950 . S
H394 C391 0.950 . S
C395 C386 1.390 . S
C395 H388 0.950 . S
C395 C392 1.387 . S
C157 C61 1.636 . S
C162 C87 1.547 1_545 S
C172 C111 1.479 . S
C167 C70 1.601 . S
C182 C132 1.530 . S
C177 C43 1.622 . S
C192 C150 1.499 1_455 S
C187 C52 1.608 . S
C202 C90 1.446 1_565 S
C197 C25 1.534 . S
C207 C34 1.461 . S
C212 C108 1.347 . S
C217 C7 1.518 . S
C222 C129 1.429 . S
C227 C16 1.448 . S
C232 C153 1.339 1_655 S
C242 C88 0.864 . S
C237 C50 0.855 . S
C252 C106 0.916 1_545 S
C247 C59 0.901 . S
C262 C127 0.849 . S
C257 C67 0.846 . S
C267 C41 0.886 . S
C272 C151 0.904 . S
C277 C14 0.910 1_556 S
C282 C86 0.926 . S
C292 C110 0.978 . S
C287 C23 0.951 1_556 S
C302 C131 0.926 . S
C297 C31 0.908 1_556 S
C307 C5 0.956 1_556 S
C312 C149 0.982 . S
C317 C49 1.604 . S
C322 C89 1.574 . S
C327 C58 1.640 . S
C332 C107 1.618 . S
C342 C128 1.559 . S
C337 C68 1.590 . S
C352 C152 1.610 . S
C347 C40 1.637 . S
C357 C13 1.480 . S
C362 C85 1.456 . S
C372 C109 1.507 . S
C367 C22 1.528 . S
C382 C130 1.462 . S
C377 C32 1.482 . S
C387 C4 1.520 . S
C392 C148 1.502 . S
