# Generated by pormake.
# Topology anh, (6,3)-cn, num edge types: 1
# Building blocks:
#     Node 0, Type 0, BuildingBlock: VOLQOD_clean_sbu_1, # of connection points: 6
#     Node 1, Type 0, BuildingBlock: VOLQOD_clean_sbu_1, # of connection points: 6
#     Node 2, Type 0, BuildingBlock: VOLQOD_clean_sbu_1, # of connection points: 6
#     Node 3, Type 1, BuildingBlock: PAMTOO_clean_linker_0, # of connection points: 3
#     Node 4, Type 1, BuildingBlock: PAMTOO_clean_linker_0, # of connection points: 3
#     Node 5, Type 1, BuildingBlock: PAMTOO_clean_linker_0, # of connection points: 3
#     Node 6, Type 1, BuildingBlock: PAMTOO_clean_linker_0, # of connection points: 3
#     Node 7, Type 1, BuildingBlock: PAMTOO_clean_linker_0, # of connection points: 3
#     Node 8, Type 1, BuildingBlock: PAMTOO_clean_linker_0, # of connection points: 3
#     Edge 9, Type (0, 1), BuildingBlock: EZIPEK_clean_linker_0, # of connection points: 2
#     Edge 10, Type (0, 1), BuildingBlock: EZIPEK_clean_linker_0, # of connection points: 2
#     Edge 11, Type (0, 1), BuildingBlock: EZIPEK_clean_linker_0, # of connection points: 2
#     Edge 12, Type (0, 1), BuildingBlock: EZIPEK_clean_linker_0, # of connection points: 2
#     Edge 13, Type (0, 1), BuildingBlock: EZIPEK_clean_linker_0, # of connection points: 2
#     Edge 14, Type (0, 1), BuildingBlock: EZIPEK_clean_linker_0, # of connection points: 2
#     Edge 15, Type (0, 1), BuildingBlock: EZIPEK_clean_linker_0, # of connection points: 2
#     Edge 16, Type (0, 1), BuildingBlock: EZIPEK_clean_linker_0, # of connection points: 2
#     Edge 17, Type (0, 1), BuildingBlock: EZIPEK_clean_linker_0, # of connection points: 2
#     Edge 18, Type (0, 1), BuildingBlock: EZIPEK_clean_linker_0, # of connection points: 2
#     Edge 19, Type (0, 1), BuildingBlock: EZIPEK_clean_linker_0, # of connection points: 2
#     Edge 20, Type (0, 1), BuildingBlock: EZIPEK_clean_linker_0, # of connection points: 2
#     Edge 21, Type (0, 1), BuildingBlock: EZIPEK_clean_linker_0, # of connection points: 2
#     Edge 22, Type (0, 1), BuildingBlock: EZIPEK_clean_linker_0, # of connection points: 2
#     Edge 23, Type (0, 1), BuildingBlock: EZIPEK_clean_linker_0, # of connection points: 2
#     Edge 24, Type (0, 1), BuildingBlock: EZIPEK_clean_linker_0, # of connection points: 2
#     Edge 25, Type (0, 1), BuildingBlock: EZIPEK_clean_linker_0, # of connection points: 2
#     Edge 26, Type (0, 1), BuildingBlock: EZIPEK_clean_linker_0, # of connection points: 2
# Relax obj value: 0.161
# Max RMSD: 0.219
# Mean RMSD: 0.134
data_MOF--net-anh--node1-VOLQOD_clean_sbu_1--node2-PAMTOO_clean_linker_0--edge1-EZIPEK_clean_linker_0
_symmetry_space_group_name_H-M    P1
_symmetry_Int_Tables_number       1
_symmetry_cell_setting            triclinic
loop_
_symmetry_equiv_pos_as_xyz
'x, y, z'
_cell_length_a     22.055049
_cell_length_b     21.938905
_cell_length_c     41.603921
_cell_angle_alpha  84.501049
_cell_angle_beta   92.501852
_cell_angle_gamma 120.37733
loop_
_atom_site_label
_atom_site_type_symbol
_atom_site_fract_x
_atom_site_fract_y
_atom_site_fract_z
_atom_type_partial_charge
O0 O 0.0645 0.56079 0.23443 0.0
Zn1 Zn 0.06968 0.59416 0.18737 0.0
O2 O 0.07251 0.52635 0.16076 0.0
Zn3 Zn 0.98916 0.483 0.13433 0.0
Zn4 Zn 0.07889 0.45218 0.18834 0.0
Zn5 Zn 0.15211 0.57587 0.13157 0.0
O6 O 0.00963 0.49317 0.08695 0.0
O7 O 0.12428 0.57068 0.08517 0.0
O8 O 0.98474 0.60556 0.17679 0.0
O9 O 0.93238 0.52808 0.13975 0.0
O10 O 0.9265 0.38174 0.14956 0.0
O11 O 0.98864 0.35844 0.18704 0.0
O12 O 0.16227 0.44394 0.17609 0.0
O13 O 0.15946 0.68912 0.18172 0.0
O14 O 0.21328 0.53302 0.13776 0.0
O15 O 0.21103 0.67743 0.13992 0.0
C16 C 0.07528 0.51398 0.24965 0.0
C17 C 0.06632 0.53323 0.07117 0.0
C18 C 0.93263 0.33956 0.17077 0.0
C19 C 0.93509 0.57422 0.15691 0.0
C20 C 0.21152 0.48184 0.15566 0.0
C21 C 0.20983 0.71422 0.16143 0.0
O22 O 0.0864 0.4721 0.23503 0.0
O23 O 0.55533 0.03357 0.42322 0.0
Zn24 Zn 0.52937 0.02573 0.46963 0.0
O25 O 0.60083 0.02145 0.49792 0.0
Zn26 Zn 0.64501 0.10255 0.52346 0.0
Zn27 Zn 0.67366 0.02075 0.47251 0.0
Zn28 Zn 0.55493 0.93644 0.52738 0.0
O29 O 0.6355 0.07434 0.57111 0.0
O30 O 0.56927 0.95695 0.57369 0.0
O31 O 0.51933 0.11028 0.47732 0.0
O32 O 0.60182 0.16293 0.51416 0.0
O33 O 0.74693 0.16366 0.51275 0.0
O34 O 0.76945 0.10783 0.47804 0.0
O35 O 0.67843 0.93129 0.48392 0.0
O36 O 0.4355 0.93498 0.47564 0.0
O37 O 0.59323 0.87381 0.52077 0.0
O38 O 0.45186 0.87884 0.5194 0.0
C39 C 0.60337 0.0295 0.40941 0.0
C40 C 0.60311 0.01437 0.5873 0.0
C41 C 0.7905 0.15995 0.49522 0.0
C42 C 0.55301 0.16002 0.49582 0.0
C43 C 0.64136 0.87759 0.50354 0.0
C44 C 0.4127 0.88229 0.49684 0.0
O45 O 0.65075 0.023 0.42528 0.0
O46 O 0.56034 0.51154 0.75413 0.0
Zn47 Zn 0.53843 0.47674 0.80124 0.0
O48 O 0.61735 0.53477 0.82878 0.0
Zn49 Zn 0.58887 0.57603 0.85894 0.0
Zn50 Zn 0.69279 0.60996 0.80133 0.0
Zn51 Zn 0.64815 0.4779 0.855 0.0
O52 O 0.61167 0.56137 0.9047 0.0
O53 O 0.63764 0.47642 0.90344 0.0
O54 O 0.45025 0.47577 0.81313 0.0
O55 O 0.48636 0.53404 0.85726 0.0
O56 O 0.63047 0.67883 0.84756 0.0
O57 O 0.70082 0.70547 0.80602 0.0
O58 O 0.78461 0.61551 0.81262 0.0
O59 O 0.52076 0.3763 0.80543 0.0
O60 O 0.74988 0.51929 0.847 0.0
O61 O 0.59891 0.37935 0.84168 0.0
C62 C 0.61846 0.55134 0.73924 0.0
C63 C 0.62628 0.5168 0.91908 0.0
C64 C 0.67387 0.72444 0.8267 0.0
C65 C 0.43819 0.49884 0.83757 0.0
C66 C 0.79757 0.57358 0.83087 0.0
C67 C 0.54953 0.34598 0.82204 0.0
O68 O 0.67478 0.58835 0.75462 0.0
H69 H 0.71721 0.12265 0.2694 0.0
H70 H 0.50124 0.95698 0.26367 0.0
H71 H 0.62256 0.05904 0.17682 0.0
H72 H 0.48109 0.02472 0.16725 0.0
C73 C 0.45425 0.98225 0.18706 0.0
O74 O 0.4998 0.9612 0.20058 0.0
H75 H 0.4385 0.0032 0.20638 0.0
C76 C 0.67255 0.0881 0.25514 0.0
C77 C 0.67756 0.09605 0.22139 0.0
C78 C 0.60917 0.03813 0.2705 0.0
C79 C 0.5507 0.99541 0.25199 0.0
C80 C 0.55589 0.00273 0.21828 0.0
C81 C 0.61937 0.05257 0.20295 0.0
H82 H 0.63474 0.6601 0.59242 0.0
H83 H 0.61388 0.45326 0.59674 0.0
H84 H 0.62806 0.56737 0.50493 0.0
H85 H 0.51357 0.42588 0.50786 0.0
C86 C 0.53321 0.39854 0.52552 0.0
O87 O 0.60172 0.44513 0.53409 0.0
H88 H 0.50072 0.38073 0.54787 0.0
C89 C 0.63166 0.61677 0.58049 0.0
C90 C 0.63464 0.6217 0.5467 0.0
C91 C 0.626 0.55711 0.599 0.0
C92 C 0.61983 0.50052 0.583 0.0
C93 C 0.61777 0.50325 0.54919 0.0
C94 C 0.62818 0.56494 0.53107 0.0
H95 H -0.00872 0.57135 0.92326 0.0
H96 H 0.16675 0.53734 0.93358 0.0
H97 H 0.09299 0.5636 0.83891 0.0
H98 H 0.13371 0.44475 0.85123 0.0
C99 C 0.17187 0.46994 0.87082 0.0
O100 O 0.18227 0.53734 0.87137 0.0
H101 H 0.14995 0.43825 0.89426 0.0
C102 C 0.03226 0.56632 0.91246 0.0
C103 C 0.03731 0.56972 0.87879 0.0
C104 C 0.07932 0.55529 0.93224 0.0
C105 C 0.13124 0.54742 0.91828 0.0
C106 C 0.13519 0.54927 0.88468 0.0
C107 C 0.08937 0.56191 0.86491 0.0
H108 H 0.98248 0.3788 0.39396 0.0
H109 H 0.14905 0.59669 0.39266 0.0
H110 H 0.07226 0.47209 0.48308 0.0
H111 H 0.10252 0.61231 0.48749 0.0
C112 C 0.14271 0.64188 0.46813 0.0
O113 O 0.16083 0.59722 0.45546 0.0
H114 H 0.12028 0.66151 0.44812 0.0
C115 C 0.0196 0.4239 0.40674 0.0
C116 C 0.02083 0.41793 0.44065 0.0
C117 C 0.06647 0.48798 0.38931 0.0
C118 C 0.11318 0.54678 0.40591 0.0
C119 C 0.11481 0.54095 0.43964 0.0
C120 C 0.0701 0.47625 0.45693 0.0
H121 H 0.64287 0.92066 0.73079 0.0
H122 H 0.57081 0.06965 0.72984 0.0
H123 H 0.62287 0.9946 0.8199 0.0
H124 H 0.66261 0.17188 0.78261 0.0
C125 C 0.62004 0.14155 0.8009 0.0
O126 O 0.57417 0.07376 0.79268 0.0
H127 H 0.64834 0.1393 0.82333 0.0
C128 C 0.63008 0.95342 0.74369 0.0
C129 C 0.63506 0.9518 0.77745 0.0
C130 C 0.60887 -0.00256 0.72648 0.0
C131 C 0.58988 0.03785 0.74309 0.0
C132 C 0.59496 0.03676 0.77671 0.0
C133 C 0.61905 0.99512 0.79382 0.0
H134 H 0.73131 0.54595 0.0662 0.0
H135 H 0.5195 0.50579 0.05631 0.0
H136 H 0.62225 0.5517 0.14825 0.0
H137 H 0.47395 0.43956 0.1542 0.0
C138 C 0.45374 0.45439 0.13169 0.0
O139 O 0.50512 0.51823 0.11716 0.0
H140 H 0.44005 0.41017 0.11652 0.0
C141 C 0.68451 0.54045 0.07677 0.0
C142 C 0.68369 0.55019 0.10957 0.0
C143 C 0.62588 0.5254 0.05732 0.0
C144 C 0.56516 0.51757 0.07111 0.0
C145 C 0.56362 0.52592 0.10398 0.0
C146 C 0.62335 0.54396 0.12298 0.0
C147 C 0.27336 0.44132 0.12245 0.0
C148 C 0.2687 0.46672 0.15172 0.0
C149 C 0.38558 0.48732 0.16756 0.0
C150 C 0.38984 0.46038 0.1384 0.0
N151 N 0.34781 0.43418 0.08386 0.0
N152 N 0.31407 0.50497 0.20425 0.0
C153 C 0.33637 0.44324 0.11466 0.0
C154 C 0.32287 0.48679 0.17498 0.0
N155 N 0.21633 0.41327 0.10251 0.0
N156 N 0.44348 0.51889 0.18681 0.0
H157 H 0.27021 0.50806 0.21 0.0
H158 H 0.3473 0.51178 0.22382 0.0
H159 H 0.49211 0.5253 0.18135 0.0
H160 H 0.44625 0.54586 0.20657 0.0
H161 H 0.21312 0.38628 0.08266 0.0
H162 H 0.16917 0.4108 0.10759 0.0
H163 H 0.31399 0.42923 0.06475 0.0
H164 H 0.39476 0.43975 0.07615 0.0
C165 C 0.91424 0.22193 0.4712 0.0
C166 C 0.86331 0.22322 0.49053 0.0
C167 C 0.92129 0.35173 0.48049 0.0
C168 C 0.96937 0.35103 0.4592 0.0
N169 N 0.02509 0.28946 0.44163 0.0
N170 N 0.85046 0.29321 0.52827 0.0
C171 C 0.97004 0.28714 0.45674 0.0
C172 C 0.87683 0.28933 0.49996 0.0
N173 N 0.91029 0.15886 0.46753 0.0
N174 N 0.91536 0.41063 0.48124 0.0
H175 H 0.82624 0.24978 0.54538 0.0
H176 H 0.86271 0.34129 0.53683 0.0
H177 H 0.94437 0.45694 0.46624 0.0
H178 H 0.87621 0.41053 0.49447 0.0
H179 H 0.9388 0.15204 0.45036 0.0
H180 H 0.87886 0.11313 0.48248 0.0
H181 H 0.0319 0.24603 0.44095 0.0
H182 H 0.06752 0.33665 0.43176 0.0
C183 C 0.73205 0.85171 0.80118 0.0
C184 C 0.68256 0.79714 0.82318 0.0
C185 C 0.60899 0.85065 0.81914 0.0
C186 C 0.6551 0.90288 0.79548 0.0
N187 N 0.77149 0.96719 0.77201 0.0
N188 N 0.60395 0.77717 0.86689 0.0
C189 C 0.7204 0.90794 0.78895 0.0
C190 C 0.63067 0.80699 0.83679 0.0
N191 N 0.79043 0.85046 0.79266 0.0
N192 N 0.543 0.83935 0.82371 0.0
H193 H 0.62587 0.75323 0.88235 0.0
H194 H 0.56826 0.78639 0.87809 0.0
H195 H 0.5222 0.86645 0.80979 0.0
H196 H 0.50637 0.79736 0.83905 0.0
H197 H 0.82346 0.88248 0.77352 0.0
H198 H 0.80603 0.81728 0.80529 0.0
H199 H 0.82204 0.97671 0.76838 0.0
H200 H 0.76521 0.01018 0.76396 0.0
C201 C 0.8105 0.52999 0.16843 0.0
C202 C 0.87454 0.58537 0.15483 0.0
C203 C 0.81064 0.63176 0.12142 0.0
C204 C 0.7471 0.56734 0.12937 0.0
N205 N 0.68623 0.45285 0.15999 0.0
N206 N 0.93819 0.69206 0.11988 0.0
C207 C 0.74645 0.5164 0.15338 0.0
C208 C 0.8755 0.63819 0.13222 0.0
N209 N 0.81162 0.48959 0.19526 0.0
N210 N 0.80854 0.68616 0.10347 0.0
H211 H 0.9863 0.69918 0.12854 0.0
H212 H 0.94243 0.72763 0.10043 0.0
H213 H 0.76138 0.68283 0.09572 0.0
H214 H 0.85243 0.73634 0.09886 0.0
H215 H 0.76654 0.45191 0.20805 0.0
H216 H 0.85861 0.49949 0.20654 0.0
H217 H 0.68496 0.41084 0.17453 0.0
H218 H 0.63822 0.43971 0.14906 0.0
C219 C 0.28229 0.83079 0.48857 0.0
C220 C 0.34085 0.82064 0.49373 0.0
C221 C 0.26135 0.69251 0.49582 0.0
C222 C 0.2073 0.70335 0.48218 0.0
N223 N 0.161 0.78221 0.47144 0.0
N224 N 0.38614 0.73972 0.49695 0.0
C225 C 0.21601 0.77244 0.48044 0.0
C226 C 0.33046 0.75088 0.4963 0.0
N227 N 0.2893 0.89503 0.49295 0.0
N228 N 0.24662 0.62688 0.50881 0.0
H229 H 0.43824 0.78052 0.49455 0.0
H230 H 0.37994 0.68955 0.49598 0.0
H231 H 0.19531 0.58401 0.51098 0.0
H232 H 0.28398 0.61783 0.52107 0.0
H233 H 0.24738 0.90427 0.49239 0.0
H234 H 0.3362 0.93771 0.50029 0.0
H235 H 0.16646 0.83183 0.46511 0.0
H236 H 0.10952 0.74028 0.47004 0.0
C237 C 0.53529 0.25748 0.78423 0.0
C238 C 0.53324 0.27341 0.81616 0.0
C239 C 0.55408 0.1771 0.83639 0.0
C240 C 0.57944 0.1791 0.80527 0.0
N241 N 0.58462 0.21422 0.74794 0.0
N242 N 0.52452 0.23812 0.87302 0.0
C243 C 0.56619 0.21632 0.77855 0.0
C244 C 0.53649 0.22898 0.8424 0.0
N245 N 0.50594 0.27949 0.75964 0.0
N246 N 0.54601 0.12541 0.85982 0.0
H247 H 0.50581 0.27178 0.87747 0.0
H248 H 0.53469 0.2141 0.8937 0.0
H249 H 0.55517 0.08464 0.8556 0.0
H250 H 0.52314 0.11838 0.88225 0.0
H251 H 0.50185 0.26519 0.73614 0.0
H252 H 0.47639 0.30298 0.76366 0.0
H253 H 0.58491 0.24797 0.72846 0.0
H254 H 0.60281 0.18122 0.7421 0.0
C255 C 0.70877 0.81661 0.52179 0.0
C256 C 0.65011 0.81499 0.50572 0.0
C257 C 0.58526 0.68544 0.51129 0.0
C258 C 0.64314 0.6867 0.52816 0.0
N259 N 0.7662 0.75075 0.54141 0.0
N260 N 0.54376 0.75076 0.47577 0.0
C261 C 0.70721 0.75162 0.5306 0.0
C262 C 0.59217 0.7501 0.49722 0.0
N263 N 0.76387 0.87953 0.53029 0.0
N264 N 0.52234 0.62354 0.51054 0.0
H265 H 0.54852 0.79789 0.46485 0.0
H266 H 0.50342 0.70527 0.46642 0.0
H267 H 0.51457 0.57486 0.52079 0.0
H268 H 0.47627 0.62126 0.50187 0.0
H269 H 0.80418 0.88323 0.54548 0.0
H270 H 0.76741 0.92823 0.52347 0.0
H271 H 0.81591 0.79589 0.5412 0.0
H272 H 0.76643 0.70367 0.54779 0.0
C273 C 0.87851 0.52847 0.82657 0.0
C274 C 0.86915 0.58515 0.83327 0.0
C275 C 0.98463 0.64297 0.85842 0.0
C276 C 0.98567 0.5789 0.85844 0.0
N277 N 0.93132 0.4579 0.8441 0.0
N278 N 0.91259 0.69759 0.85558 0.0
C279 C 0.93285 0.52123 0.84232 0.0
C280 C 0.92273 0.64382 0.84851 0.0
N281 N 0.83433 0.48106 0.8056 0.0
N282 N 0.04254 0.70238 0.86817 0.0
H283 H 0.86833 0.70067 0.84833 0.0
H284 H 0.94621 0.73709 0.87023 0.0
H285 H 0.08872 0.70294 0.87544 0.0
H286 H 0.04712 0.75223 0.86611 0.0
H287 H 0.84206 0.44186 0.79765 0.0
H288 H 0.79422 0.48598 0.79361 0.0
H289 H 0.88931 0.41197 0.83586 0.0
H290 H 0.96909 0.44924 0.8561 0.0
C291 C 0.34029 0.79623 0.16237 0.0
C292 C 0.2715 0.78596 0.16426 0.0
C293 C 0.32218 0.91071 0.17495 0.0
C294 C 0.39043 0.91928 0.17357 0.0
N295 N 0.46107 0.88124 0.14859 0.0
N296 N 0.19809 0.83865 0.16265 0.0
C297 C 0.3984 0.86572 0.16138 0.0
C298 C 0.26255 0.84479 0.16776 0.0
N299 N 0.35115 0.73995 0.16382 0.0
N300 N 0.31438 0.96546 0.18271 0.0
H301 H 0.15423 0.79226 0.15585 0.0
H302 H 0.18939 0.88116 0.16202 0.0
H303 H 0.35653 0.01709 0.18344 0.0
H304 H 0.26623 0.95955 0.1887 0.0
H305 H 0.40128 0.74615 0.16513 0.0
H306 H 0.31104 0.68732 0.16779 0.0
H307 H 0.46748 0.84423 0.13745 0.0
H308 H 0.50341 0.93307 0.14549 0.0
C309 C 0.58763 0.28678 0.48249 0.0
C310 C 0.53743 0.21799 0.49583 0.0
C311 C 0.47134 0.26609 0.51845 0.0
C312 C 0.52851 0.33557 0.51061 0.0
N313 N 0.62157 0.41093 0.47256 0.0
N314 N 0.43042 0.14015 0.52576 0.0
C315 C 0.58087 0.34573 0.48861 0.0
C316 C 0.47807 0.2068 0.51301 0.0
N317 N 0.6432 0.29577 0.46509 0.0
N318 N 0.40955 0.25695 0.52945 0.0
H319 H 0.43245 0.09518 0.52141 0.0
H320 H 0.39122 0.12979 0.5421 0.0
H321 H 0.401 0.2992 0.53098 0.0
H322 H 0.36404 0.20769 0.53314 0.0
H323 H 0.68661 0.345 0.45826 0.0
H324 H 0.64723 0.25322 0.45849 0.0
H325 H 0.65714 0.42103 0.45435 0.0
H326 H 0.61426 0.45367 0.47499 0.0
C327 C 0.30604 0.42153 0.84347 0.0
C328 C 0.36815 0.48921 0.84319 0.0
C329 C 0.30558 0.53381 0.87051 0.0
C330 C 0.24055 0.4727 0.86442 0.0
N331 N 0.1788 0.35439 0.84642 0.0
N332 N 0.42008 0.61508 0.84823 0.0
C333 C 0.24062 0.41529 0.8511 0.0
C334 C 0.36557 0.54715 0.8539 0.0
N335 N 0.30972 0.36269 0.83872 0.0
N336 N 0.31174 0.5765 0.89371 0.0
H337 H 0.46372 0.62801 0.83418 0.0
H338 H 0.41745 0.65874 0.85434 0.0
H339 H 0.27152 0.56219 0.91016 0.0
H340 H 0.35991 0.6195 0.8997 0.0
H341 H 0.26711 0.31126 0.8421 0.0
H342 H 0.3566 0.36419 0.83434 0.0
H343 H 0.17517 0.31521 0.83282 0.0
H344 H 0.13065 0.34377 0.85532 0.0
C345 C 0.8547 0.20687 0.17829 0.0
C346 C 0.86758 0.27563 0.18275 0.0
C347 C 0.75127 0.22548 0.20695 0.0
C348 C 0.74102 0.15666 0.20572 0.0
N349 N 0.78426 0.08026 0.19333 0.0
N350 N 0.83532 0.35016 0.20798 0.0
C351 C 0.79301 0.14671 0.19211 0.0
C352 C 0.81781 0.28494 0.19887 0.0
N353 N 0.90064 0.19932 0.16041 0.0
N354 N 0.69687 0.23409 0.21523 0.0
H355 H 0.88418 0.39555 0.20318 0.0
H356 H 0.80401 0.35775 0.22329 0.0
H357 H 0.64671 0.19159 0.22103 0.0
H358 H 0.69957 0.28312 0.2132 0.0
H359 H 0.89093 0.1508 0.15353 0.0
H360 H 0.94669 0.24263 0.15051 0.0
H361 H 0.8233 0.07026 0.1869 0.0
H362 H 0.7391 0.03515 0.20277 0.0
C363 C 0.08392 0.60336 0.018 0.0
C364 C 0.06521 0.53753 0.0356 0.0
C365 C 0.04569 0.48151 0.98514 0.0
C366 C 0.07253 0.54903 0.96777 0.0
N367 N 0.12601 0.67601 0.96739 0.0
N368 N 0.03814 0.41609 0.03654 0.0
C369 C 0.09394 0.61055 0.9841 0.0
C370 C 0.04836 0.47695 0.01937 0.0
N371 N 0.08983 0.65825 0.03358 0.0
N372 N 0.01613 0.42166 0.96892 0.0
H373 H 0.04016 0.41071 0.06169 0.0
H374 H 0.0336 0.37299 0.02582 0.0
H375 H 0.0131 0.4229 0.94379 0.0
H376 H 0.98907 0.37059 0.98037 0.0
H377 H 0.09613 0.70501 0.02159 0.0
H378 H 0.08182 0.6546 0.05839 0.0
H379 H 0.14979 0.72325 0.97851 0.0
H380 H 0.13402 0.68344 0.94246 0.0
C381 C 0.60901 0.09061 0.35469 0.0
C382 C 0.60314 0.03078 0.37387 0.0
C383 C 0.60348 0.97638 0.32518 0.0
C384 C 0.60373 0.03357 0.30606 0.0
N385 N 0.59274 0.13798 0.30213 0.0
N386 N 0.58028 0.91039 0.37764 0.0
C387 C 0.60224 0.08859 0.32069 0.0
C388 C 0.59634 0.97179 0.35921 0.0
N389 N 0.62422 0.15054 0.36881 0.0
N390 N 0.61228 0.92772 0.31094 0.0
H391 H 0.57328 0.90435 0.40261 0.0
H392 H 0.56741 0.86333 0.36789 0.0
H393 H 0.61697 0.9289 0.28601 0.0
H394 H 0.62055 0.88958 0.32393 0.0
H395 H 0.63662 0.19833 0.35571 0.0
H396 H 0.63091 0.15469 0.39363 0.0
H397 H 0.58393 0.17497 0.31175 0.0
H398 H 0.58711 0.1379 0.2771 0.0
C399 C 0.5772 0.48997 0.6875 0.0
C400 C 0.62096 0.55255 0.70332 0.0
C401 C 0.6778 0.61201 0.65134 0.0
C402 C 0.62525 0.55422 0.63505 0.0
N403 N 0.51228 0.44553 0.63887 0.0
N404 N 0.70014 0.67992 0.69708 0.0
C405 C 0.57103 0.49523 0.65344 0.0
C406 C 0.66781 0.61572 0.68438 0.0
N407 N 0.54446 0.42489 0.70441 0.0
N408 N 0.73819 0.66234 0.63574 0.0
H409 H 0.68936 0.68674 0.72018 0.0
H410 H 0.73052 0.72751 0.68309 0.0
H411 H 0.74977 0.65918 0.61213 0.0
H412 H 0.77997 0.7023 0.64762 0.0
H413 H 0.51623 0.37793 0.69311 0.0
H414 H 0.55351 0.41708 0.72882 0.0
H415 H 0.46942 0.40479 0.652 0.0
H416 H 0.50283 0.44978 0.61421 0.0
C417 C 0.54073 0.97991 0.6405 0.0
C418 C 0.60472 0.01105 0.62288 0.0
C419 C 0.67138 0.03945 0.67319 0.0
C420 C 0.60729 0.00187 0.69081 0.0
N421 N 0.48122 0.92617 0.69181 0.0
N422 N 0.7303 0.0588 0.62233 0.0
C423 C 0.54193 0.96912 0.67463 0.0
C424 C 0.67001 0.03784 0.63916 0.0
N425 N 0.47925 0.96336 0.62474 0.0
N426 N 0.73335 0.07826 0.68887 0.0
H427 H 0.73146 0.05724 0.5974 0.0
H428 H 0.77806 0.0715 0.6334 0.0
H429 H 0.73656 0.08078 0.71384 0.0
H430 H 0.78066 0.11288 0.67691 0.0
H431 H 0.43231 0.94747 0.63663 0.0
H432 H 0.47636 0.97192 0.59977 0.0
H433 H 0.43294 0.89479 0.68104 0.0
H434 H 0.48006 0.91707 0.71691 0.0
C435 C 0.58548 0.45315 0.97445 0.0
C436 C 0.63217 0.5148 0.95472 0.0
C437 C 0.67303 0.58341 0.00205 0.0
C438 C 0.62939 0.52103 0.02208 0.0
N439 N 0.55542 0.39379 0.0285 0.0
N440 N 0.73275 0.63312 0.95055 0.0
C441 C 0.58908 0.45493 0.00862 0.0
C442 C 0.67984 0.57826 0.96883 0.0
N443 N 0.53534 0.39416 0.96062 0.0
N444 N 0.70546 0.64812 0.01438 0.0
H445 H 0.7403 0.63051 0.92624 0.0
H446 H 0.77326 0.67802 0.96023 0.0
H447 H 0.70085 0.6546 0.03848 0.0
H448 H 0.73162 0.69594 0.0001 0.0
H449 H 0.49477 0.35071 0.97367 0.0
H450 H 0.53087 0.3906 0.93573 0.0
H451 H 0.53121 0.34344 0.02022 0.0
H452 H 0.55702 0.39318 0.05363 0.0
C453 C 0.01104 0.49267 0.30155 0.0
C454 C 0.07277 0.50667 0.28537 0.0
C455 C 0.12614 0.49898 0.33734 0.0
C456 C 0.06792 0.49333 0.3535 0.0
N457 N 0.96001 0.49643 0.35118 0.0
N458 N 0.19397 0.53563 0.28785 0.0
C459 C 0.0117 0.49344 0.33566 0.0
C460 C 0.13172 0.51312 0.30325 0.0
N461 N 0.95082 0.47551 0.28452 0.0
N462 N 0.17505 0.48873 0.35448 0.0
H463 H 0.20075 0.54799 0.26295 0.0
H464 H 0.24066 0.54849 0.30003 0.0
H465 H 0.17244 0.47755 0.37949 0.0
H466 H 0.21445 0.48476 0.34364 0.0
H467 H 0.90241 0.45757 0.29546 0.0
H468 H 0.94743 0.47239 0.25959 0.0
H469 H 0.92189 0.50437 0.33907 0.0
H470 H 0.95873 0.49725 0.37616 0.0
loop_
_geom_bond_atom_site_label_1
_geom_bond_atom_site_label_2
_geom_bond_distance
_geom_bond_site_symmetry_2
_ccdc_geom_bond_type
O0 Zn1 1.953 . S
O0 C16 1.225 . S
Zn1 O0 1.953 . S
Zn1 O2 1.949 . S
Zn1 O8 1.919 1_455 S
Zn1 O13 1.924 . S
O2 Zn1 1.949 . S
O2 Zn3 1.923 1_455 S
O2 Zn4 1.950 . S
O2 Zn5 1.945 . S
Zn3 O2 1.923 1_655 S
Zn3 O6 1.933 . S
Zn3 O9 1.941 . S
Zn3 O10 1.965 . S
Zn4 O2 1.950 . S
Zn4 O11 1.938 1_455 S
Zn4 O12 1.906 . S
Zn4 O22 1.953 . S
Zn5 O2 1.945 . S
Zn5 O7 1.932 . S
Zn5 O14 1.977 . S
Zn5 O15 1.910 . S
O6 Zn3 1.933 . S
O6 C17 1.226 1_655 S
O7 Zn5 1.932 . S
O7 C17 1.307 . S
O8 Zn1 1.919 1_655 S
O8 C19 1.253 . S
O9 Zn3 1.941 . S
O9 C19 1.283 . S
O10 Zn3 1.965 . S
O10 C18 1.303 . S
O11 Zn4 1.938 1_655 S
O11 C18 1.247 . S
O12 Zn4 1.906 . S
O12 C20 1.304 . S
O13 Zn1 1.924 . S
O13 C21 1.311 . S
O14 Zn5 1.977 . S
O14 C20 1.272 . S
O15 Zn5 1.910 . S
O15 C21 1.231 . S
C16 O0 1.225 . S
C16 O22 1.298 . S
C17 O6 1.226 1_455 S
C17 O7 1.307 . S
C18 O10 1.303 . S
C18 O11 1.247 . S
C19 O8 1.253 . S
C19 O9 1.283 . S
C20 O12 1.304 . S
C20 O14 1.272 . S
C21 O13 1.311 . S
C21 O15 1.231 . S
O22 Zn4 1.953 . S
O22 C16 1.298 . S
O23 Zn24 1.953 . S
O23 C39 1.225 . S
Zn24 O23 1.953 . S
Zn24 O25 1.949 . S
Zn24 O31 1.919 . S
Zn24 O36 1.924 1_545 S
O25 Zn24 1.949 . S
O25 Zn26 1.923 . S
O25 Zn27 1.950 . S
O25 Zn28 1.945 1_545 S
Zn26 O25 1.923 . S
Zn26 O29 1.933 . S
Zn26 O32 1.941 . S
Zn26 O33 1.965 . S
Zn27 O25 1.950 . S
Zn27 O34 1.938 . S
Zn27 O35 1.906 1_545 S
Zn27 O45 1.953 . S
Zn28 O25 1.945 1_565 S
Zn28 O30 1.932 . S
Zn28 O37 1.977 . S
Zn28 O38 1.910 . S
O29 Zn26 1.933 . S
O29 C40 1.226 . S
O30 Zn28 1.932 . S
O30 C40 1.307 1_565 S
O31 Zn24 1.919 . S
O31 C42 1.253 . S
O32 Zn26 1.941 . S
O32 C42 1.283 . S
O33 Zn26 1.965 . S
O33 C41 1.303 . S
O34 Zn27 1.938 . S
O34 C41 1.247 . S
O35 Zn27 1.906 1_565 S
O35 C43 1.304 . S
O36 Zn24 1.924 1_565 S
O36 C44 1.311 . S
O37 Zn28 1.977 . S
O37 C43 1.272 . S
O38 Zn28 1.910 . S
O38 C44 1.231 . S
C39 O23 1.225 . S
C39 O45 1.298 . S
C40 O29 1.226 . S
C40 O30 1.307 1_545 S
C41 O33 1.303 . S
C41 O34 1.247 . S
C42 O31 1.253 . S
C42 O32 1.283 . S
C43 O35 1.304 . S
C43 O37 1.272 . S
C44 O36 1.311 . S
C44 O38 1.231 . S
O45 Zn27 1.953 . S
O45 C39 1.298 . S
O46 Zn47 1.953 . S
O46 C62 1.225 . S
Zn47 O46 1.953 . S
Zn47 O48 1.949 . S
Zn47 O54 1.919 . S
Zn47 O59 1.924 . S
O48 Zn47 1.949 . S
O48 Zn49 1.923 . S
O48 Zn50 1.950 . S
O48 Zn51 1.945 . S
Zn49 O48 1.923 . S
Zn49 O52 1.933 . S
Zn49 O55 1.941 . S
Zn49 O56 1.965 . S
Zn50 O48 1.950 . S
Zn50 O57 1.938 . S
Zn50 O58 1.906 . S
Zn50 O68 1.953 . S
Zn51 O48 1.945 . S
Zn51 O53 1.932 . S
Zn51 O60 1.977 . S
Zn51 O61 1.910 . S
O52 Zn49 1.933 . S
O52 C63 1.226 . S
O53 Zn51 1.932 . S
O53 C63 1.307 . S
O54 Zn47 1.919 . S
O54 C65 1.253 . S
O55 Zn49 1.941 . S
O55 C65 1.283 . S
O56 Zn49 1.965 . S
O56 C64 1.303 . S
O57 Zn50 1.938 . S
O57 C64 1.247 . S
O58 Zn50 1.906 . S
O58 C66 1.304 . S
O59 Zn47 1.924 . S
O59 C67 1.311 . S
O60 Zn51 1.977 . S
O60 C66 1.272 . S
O61 Zn51 1.910 . S
O61 C67 1.231 . S
C62 O46 1.225 . S
C62 O68 1.298 . S
C63 O52 1.226 . S
C63 O53 1.307 . S
C64 O56 1.303 . S
C64 O57 1.247 . S
C65 O54 1.253 . S
C65 O55 1.283 . S
C66 O58 1.304 . S
C66 O60 1.272 . S
C67 O59 1.311 . S
C67 O61 1.231 . S
O68 Zn50 1.953 . S
O68 C62 1.298 . S
H69 C76 0.929 . S
H70 C79 0.930 . S
H71 C81 0.929 . S
H72 C73 0.969 . S
C73 H72 0.969 . S
C73 O74 1.550 . S
C73 H75 0.973 . S
O74 C73 1.550 . S
O74 C80 1.412 1_565 S
H75 C73 0.973 . S
C76 H69 0.929 . S
C76 C77 1.400 . S
C76 C78 1.364 . S
C77 C76 1.400 . S
C77 C81 1.377 . S
C78 C76 1.364 . S
C78 C79 1.374 1_545 S
C79 H70 0.930 . S
C79 C78 1.374 1_565 S
C79 C80 1.383 1_565 S
C80 O74 1.412 1_545 S
C80 C79 1.383 1_545 S
C80 C81 1.394 . S
C81 H71 0.929 . S
C81 C77 1.377 . S
C81 C80 1.394 . S
H82 C89 0.929 . S
H83 C92 0.930 . S
H84 C94 0.929 . S
H85 C86 0.969 . S
C86 H85 0.969 . S
C86 O87 1.550 . S
C86 H88 0.973 . S
O87 C86 1.550 . S
O87 C93 1.412 . S
H88 C86 0.973 . S
C89 H82 0.929 . S
C89 C90 1.400 . S
C89 C91 1.364 . S
C90 C89 1.400 . S
C90 C94 1.377 . S
C91 C89 1.364 . S
C91 C92 1.374 . S
C92 H83 0.930 . S
C92 C91 1.374 . S
C92 C93 1.383 . S
C93 O87 1.412 . S
C93 C92 1.383 . S
C93 C94 1.394 . S
C94 H84 0.929 . S
C94 C90 1.377 . S
C94 C93 1.394 . S
H95 C102 0.929 1_655 S
H96 C105 0.930 . S
H97 C107 0.929 . S
H98 C99 0.969 . S
C99 H98 0.969 . S
C99 O100 1.550 . S
C99 H101 0.973 . S
O100 C99 1.550 . S
O100 C106 1.412 . S
H101 C99 0.973 . S
C102 H95 0.929 1_455 S
C102 C103 1.400 . S
C102 C104 1.364 . S
C103 C102 1.400 . S
C103 C107 1.377 . S
C104 C102 1.364 . S
C104 C105 1.374 . S
C105 H96 0.930 . S
C105 C104 1.374 . S
C105 C106 1.383 . S
C106 O100 1.412 . S
C106 C105 1.383 . S
C106 C107 1.394 . S
C107 H97 0.929 . S
C107 C103 1.377 . S
C107 C106 1.394 . S
H108 C115 0.929 1_655 S
H109 C118 0.930 . S
H110 C120 0.929 . S
H111 C112 0.969 . S
C112 H111 0.969 . S
C112 O113 1.550 . S
C112 H114 0.973 . S
O113 C112 1.550 . S
O113 C119 1.412 . S
H114 C112 0.973 . S
C115 H108 0.929 1_455 S
C115 C116 1.400 . S
C115 C117 1.364 . S
C116 C115 1.400 . S
C116 C120 1.377 . S
C117 C115 1.364 . S
C117 C118 1.374 . S
C118 H109 0.930 . S
C118 C117 1.374 . S
C118 C119 1.383 . S
C119 O113 1.412 . S
C119 C118 1.383 . S
C119 C120 1.394 . S
C120 H110 0.929 . S
C120 C116 1.377 . S
C120 C119 1.394 . S
H121 C128 0.929 . S
H122 C131 0.930 . S
H123 C133 0.929 1_565 S
H124 C125 0.969 . S
C125 H124 0.969 . S
C125 O126 1.550 . S
C125 H127 0.973 . S
O126 C125 1.550 . S
O126 C132 1.412 . S
H127 C125 0.973 . S
C128 H121 0.929 . S
C128 C129 1.400 . S
C128 C130 1.364 1_565 S
C129 C128 1.400 . S
C129 C133 1.373 1_565 S
C130 C128 1.364 1_545 S
C130 C131 1.374 . S
C131 H122 0.930 . S
C131 C130 1.374 . S
C131 C132 1.383 . S
C132 O126 1.412 . S
C132 C131 1.383 . S
C132 C133 1.398 . S
C133 H123 0.929 1_545 S
C133 C129 1.373 1_545 S
C133 C132 1.398 . S
H134 C141 0.929 . S
H135 C144 0.930 . S
H136 C146 0.929 . S
H137 C138 0.969 . S
C138 H137 0.969 . S
C138 O139 1.550 . S
C138 H140 0.973 . S
O139 C138 1.550 . S
O139 C145 1.412 . S
H140 C138 0.973 . S
C141 H134 0.929 . S
C141 C142 1.400 . S
C141 C143 1.364 . S
C142 C141 1.400 . S
C142 C146 1.377 . S
C143 C141 1.364 . S
C143 C144 1.374 . S
C144 H135 0.930 . S
C144 C143 1.374 . S
C144 C145 1.383 . S
C145 O139 1.412 . S
C145 C144 1.383 . S
C145 C146 1.394 . S
C146 H136 0.929 . S
C146 C142 1.377 . S
C146 C145 1.394 . S
C147 C148 1.363 . S
C147 C153 1.379 . S
C147 N155 1.356 . S
C148 C147 1.363 . S
C148 C154 1.363 . S
C149 C150 1.363 . S
C149 C154 1.379 . S
C149 N156 1.356 . S
C150 C149 1.363 . S
C150 C153 1.363 . S
N151 C153 1.356 . S
N151 H163 0.984 . S
N151 H164 0.985 . S
N152 C154 1.356 . S
N152 H157 0.984 . S
N152 H158 0.985 . S
C153 C147 1.379 . S
C153 C150 1.363 . S
C153 N151 1.356 . S
C154 C148 1.363 . S
C154 C149 1.379 . S
C154 N152 1.356 . S
N155 C147 1.356 . S
N155 H161 0.984 . S
N155 H162 0.984 . S
N156 C149 1.356 . S
N156 H159 0.984 . S
N156 H160 0.985 . S
H157 N152 0.984 . S
H158 N152 0.985 . S
H159 N156 0.984 . S
H160 N156 0.985 . S
H161 N155 0.984 . S
H162 N155 0.984 . S
H163 N151 0.984 . S
H164 N151 0.985 . S
C165 C166 1.363 . S
C165 C171 1.379 . S
C165 N173 1.356 . S
C166 C165 1.363 . S
C166 C172 1.363 . S
C167 C168 1.363 . S
C167 C172 1.379 . S
C167 N174 1.356 . S
C168 C167 1.363 . S
C168 C171 1.363 . S
N169 C171 1.356 1_455 S
N169 H181 0.984 . S
N169 H182 0.985 . S
N170 C172 1.356 . S
N170 H175 0.984 . S
N170 H176 0.985 . S
C171 C165 1.379 . S
C171 C168 1.363 . S
C171 N169 1.356 1_655 S
C172 C166 1.363 . S
C172 C167 1.379 . S
C172 N170 1.356 . S
N173 C165 1.356 . S
N173 H179 0.984 . S
N173 H180 0.984 . S
N174 C167 1.356 . S
N174 H177 0.984 . S
N174 H178 0.985 . S
H175 N170 0.984 . S
H176 N170 0.985 . S
H177 N174 0.984 . S
H178 N174 0.985 . S
H179 N173 0.984 . S
H180 N173 0.984 . S
H181 N169 0.984 . S
H182 N169 0.985 . S
C183 C184 1.363 . S
C183 C189 1.379 . S
C183 N191 1.356 . S
C184 C183 1.363 . S
C184 C190 1.363 . S
C185 C186 1.363 . S
C185 C190 1.379 . S
C185 N192 1.356 . S
C186 C185 1.363 . S
C186 C189 1.363 . S
N187 C189 1.356 . S
N187 H199 0.984 1_565 S
N187 H200 0.985 . S
N188 C190 1.356 . S
N188 H193 0.984 . S
N188 H194 0.985 . S
C189 C183 1.379 . S
C189 C186 1.363 . S
C189 N187 1.356 . S
C190 C184 1.363 . S
C190 C185 1.379 . S
C190 N188 1.356 . S
N191 C183 1.356 . S
N191 H197 0.984 . S
N191 H198 0.984 . S
N192 C185 1.356 . S
N192 H195 0.984 . S
N192 H196 0.985 . S
H193 N188 0.984 . S
H194 N188 0.985 . S
H195 N192 0.984 . S
H196 N192 0.985 . S
H197 N191 0.984 . S
H198 N191 0.984 . S
H199 N187 0.984 1_545 S
H200 N187 0.985 . S
C201 C202 1.363 . S
C201 C207 1.379 . S
C201 N209 1.356 . S
C202 C201 1.363 . S
C202 C208 1.363 . S
C203 C204 1.363 . S
C203 C208 1.379 . S
C203 N210 1.356 . S
C204 C203 1.363 . S
C204 C207 1.363 . S
N205 C207 1.356 . S
N205 H217 0.984 . S
N205 H218 0.985 . S
N206 C208 1.356 . S
N206 H211 0.984 . S
N206 H212 0.985 . S
C207 C201 1.379 . S
C207 C204 1.363 . S
C207 N205 1.356 . S
C208 C202 1.363 . S
C208 C203 1.379 . S
C208 N206 1.356 . S
N209 C201 1.356 . S
N209 H215 0.984 . S
N209 H216 0.984 . S
N210 C203 1.356 . S
N210 H213 0.984 . S
N210 H214 0.985 . S
H211 N206 0.984 . S
H212 N206 0.985 . S
H213 N210 0.984 . S
H214 N210 0.985 . S
H215 N209 0.984 . S
H216 N209 0.984 . S
H217 N205 0.984 . S
H218 N205 0.985 . S
C219 C220 1.363 . S
C219 C225 1.379 . S
C219 N227 1.356 . S
C220 C219 1.363 . S
C220 C226 1.363 . S
C221 C222 1.363 . S
C221 C226 1.379 . S
C221 N228 1.356 . S
C222 C221 1.363 . S
C222 C225 1.363 . S
N223 C225 1.356 . S
N223 H235 0.984 . S
N223 H236 0.985 . S
N224 C226 1.356 . S
N224 H229 0.984 . S
N224 H230 0.985 . S
C225 C219 1.379 . S
C225 C222 1.363 . S
C225 N223 1.356 . S
C226 C220 1.363 . S
C226 C221 1.379 . S
C226 N224 1.356 . S
N227 C219 1.356 . S
N227 H233 0.984 . S
N227 H234 0.984 . S
N228 C221 1.356 . S
N228 H231 0.984 . S
N228 H232 0.985 . S
H229 N224 0.984 . S
H230 N224 0.985 . S
H231 N228 0.984 . S
H232 N228 0.985 . S
H233 N227 0.984 . S
H234 N227 0.984 . S
H235 N223 0.984 . S
H236 N223 0.985 . S
C237 C238 1.363 . S
C237 C243 1.379 . S
C237 N245 1.356 . S
C238 C237 1.363 . S
C238 C244 1.363 . S
C239 C240 1.363 . S
C239 C244 1.379 . S
C239 N246 1.356 . S
C240 C239 1.363 . S
C240 C243 1.363 . S
N241 C243 1.356 . S
N241 H253 0.984 . S
N241 H254 0.985 . S
N242 C244 1.356 . S
N242 H247 0.984 . S
N242 H248 0.985 . S
C243 C237 1.379 . S
C243 C240 1.363 . S
C243 N241 1.356 . S
C244 C238 1.363 . S
C244 C239 1.379 . S
C244 N242 1.356 . S
N245 C237 1.356 . S
N245 H251 0.984 . S
N245 H252 0.984 . S
N246 C239 1.356 . S
N246 H249 0.984 . S
N246 H250 0.985 . S
H247 N242 0.984 . S
H248 N242 0.985 . S
H249 N246 0.984 . S
H250 N246 0.985 . S
H251 N245 0.984 . S
H252 N245 0.984 . S
H253 N241 0.984 . S
H254 N241 0.985 . S
C255 C256 1.363 . S
C255 C261 1.379 . S
C255 N263 1.356 . S
C256 C255 1.363 . S
C256 C262 1.363 . S
C257 C258 1.363 . S
C257 C262 1.379 . S
C257 N264 1.356 . S
C258 C257 1.363 . S
C258 C261 1.363 . S
N259 C261 1.356 . S
N259 H271 0.984 . S
N259 H272 0.985 . S
N260 C262 1.356 . S
N260 H265 0.984 . S
N260 H266 0.985 . S
C261 C255 1.379 . S
C261 C258 1.363 . S
C261 N259 1.356 . S
C262 C256 1.363 . S
C262 C257 1.379 . S
C262 N260 1.356 . S
N263 C255 1.356 . S
N263 H269 0.984 . S
N263 H270 0.984 . S
N264 C257 1.356 . S
N264 H267 0.984 . S
N264 H268 0.985 . S
H265 N260 0.984 . S
H266 N260 0.985 . S
H267 N264 0.984 . S
H268 N264 0.985 . S
H269 N263 0.984 . S
H270 N263 0.984 . S
H271 N259 0.984 . S
H272 N259 0.985 . S
C273 C274 1.363 . S
C273 C279 1.379 . S
C273 N281 1.356 . S
C274 C273 1.363 . S
C274 C280 1.363 . S
C275 C276 1.363 . S
C275 C280 1.379 . S
C275 N282 1.356 1_655 S
C276 C275 1.363 . S
C276 C279 1.363 . S
N277 C279 1.356 . S
N277 H289 0.984 . S
N277 H290 0.985 . S
N278 C280 1.356 . S
N278 H283 0.984 . S
N278 H284 0.985 . S
C279 C273 1.379 . S
C279 C276 1.363 . S
C279 N277 1.356 . S
C280 C274 1.363 . S
C280 C275 1.379 . S
C280 N278 1.356 . S
N281 C273 1.356 . S
N281 H287 0.984 . S
N281 H288 0.984 . S
N282 C275 1.356 1_455 S
N282 H285 0.984 . S
N282 H286 0.985 . S
H283 N278 0.984 . S
H284 N278 0.985 . S
H285 N282 0.984 . S
H286 N282 0.985 . S
H287 N281 0.984 . S
H288 N281 0.984 . S
H289 N277 0.984 . S
H290 N277 0.985 . S
C291 C292 1.363 . S
C291 C297 1.379 . S
C291 N299 1.356 . S
C292 C291 1.363 . S
C292 C298 1.363 . S
C293 C294 1.363 . S
C293 C298 1.379 . S
C293 N300 1.356 . S
C294 C293 1.363 . S
C294 C297 1.363 . S
N295 C297 1.356 . S
N295 H307 0.984 . S
N295 H308 0.985 . S
N296 C298 1.356 . S
N296 H301 0.984 . S
N296 H302 0.985 . S
C297 C291 1.379 . S
C297 C294 1.363 . S
C297 N295 1.356 . S
C298 C292 1.363 . S
C298 C293 1.379 . S
C298 N296 1.356 . S
N299 C291 1.356 . S
N299 H305 0.984 . S
N299 H306 0.984 . S
N300 C293 1.356 . S
N300 H303 0.984 . S
N300 H304 0.985 . S
H301 N296 0.984 . S
H302 N296 0.985 . S
H303 N300 0.984 . S
H304 N300 0.985 . S
H305 N299 0.984 . S
H306 N299 0.984 . S
H307 N295 0.984 . S
H308 N295 0.985 . S
C309 C310 1.363 . S
C309 C315 1.379 . S
C309 N317 1.356 . S
C310 C309 1.363 . S
C310 C316 1.363 . S
C311 C312 1.363 . S
C311 C316 1.379 . S
C311 N318 1.356 . S
C312 C311 1.363 . S
C312 C315 1.363 . S
N313 C315 1.356 . S
N313 H325 0.984 . S
N313 H326 0.985 . S
N314 C316 1.356 . S
N314 H319 0.984 . S
N314 H320 0.985 . S
C315 C309 1.379 . S
C315 C312 1.363 . S
C315 N313 1.356 . S
C316 C310 1.363 . S
C316 C311 1.379 . S
C316 N314 1.356 . S
N317 C309 1.356 . S
N317 H323 0.984 . S
N317 H324 0.984 . S
N318 C311 1.356 . S
N318 H321 0.984 . S
N318 H322 0.985 . S
H319 N314 0.984 . S
H320 N314 0.985 . S
H321 N318 0.984 . S
H322 N318 0.985 . S
H323 N317 0.984 . S
H324 N317 0.984 . S
H325 N313 0.984 . S
H326 N313 0.985 . S
C327 C328 1.363 . S
C327 C333 1.379 . S
C327 N335 1.356 . S
C328 C327 1.363 . S
C328 C334 1.363 . S
C329 C330 1.363 . S
C329 C334 1.379 . S
C329 N336 1.356 . S
C330 C329 1.363 . S
C330 C333 1.363 . S
N331 C333 1.356 . S
N331 H343 0.984 . S
N331 H344 0.985 . S
N332 C334 1.356 . S
N332 H337 0.984 . S
N332 H338 0.985 . S
C333 C327 1.379 . S
C333 C330 1.363 . S
C333 N331 1.356 . S
C334 C328 1.363 . S
C334 C329 1.379 . S
C334 N332 1.356 . S
N335 C327 1.356 . S
N335 H341 0.984 . S
N335 H342 0.984 . S
N336 C329 1.356 . S
N336 H339 0.984 . S
N336 H340 0.985 . S
H337 N332 0.984 . S
H338 N332 0.985 . S
H339 N336 0.984 . S
H340 N336 0.985 . S
H341 N335 0.984 . S
H342 N335 0.984 . S
H343 N331 0.984 . S
H344 N331 0.985 . S
C345 C346 1.363 . S
C345 C351 1.379 . S
C345 N353 1.356 . S
C346 C345 1.363 . S
C346 C352 1.363 . S
C347 C348 1.363 . S
C347 C352 1.379 . S
C347 N354 1.356 . S
C348 C347 1.363 . S
C348 C351 1.363 . S
N349 C351 1.356 . S
N349 H361 0.984 . S
N349 H362 0.985 . S
N350 C352 1.356 . S
N350 H355 0.984 . S
N350 H356 0.985 . S
C351 C345 1.379 . S
C351 C348 1.363 . S
C351 N349 1.356 . S
C352 C346 1.363 . S
C352 C347 1.379 . S
C352 N350 1.356 . S
N353 C345 1.356 . S
N353 H359 0.984 . S
N353 H360 0.984 . S
N354 C347 1.356 . S
N354 H357 0.984 . S
N354 H358 0.985 . S
H355 N350 0.984 . S
H356 N350 0.985 . S
H357 N354 0.984 . S
H358 N354 0.985 . S
H359 N353 0.984 . S
H360 N353 0.984 . S
H361 N349 0.984 . S
H362 N349 0.985 . S
C363 C364 1.363 . S
C363 C369 1.379 1_554 S
C363 N371 1.356 . S
C364 C363 1.363 . S
C364 C370 1.363 . S
C365 C366 1.363 . S
C365 C370 1.379 1_556 S
C365 N372 1.356 . S
C366 C365 1.363 . S
C366 C369 1.363 . S
N367 C369 1.356 . S
N367 H379 0.984 . S
N367 H380 0.985 . S
N368 C370 1.356 . S
N368 H373 0.984 . S
N368 H374 0.985 . S
C369 C363 1.379 1_556 S
C369 C366 1.363 . S
C369 N367 1.356 . S
C370 C364 1.363 . S
C370 C365 1.379 1_554 S
C370 N368 1.356 . S
N371 C363 1.356 . S
N371 H377 0.984 . S
N371 H378 0.984 . S
N372 C365 1.356 . S
N372 H375 0.984 . S
N372 H376 0.985 . S
H373 N368 0.984 . S
H374 N368 0.985 . S
H375 N372 0.984 . S
H376 N372 0.985 . S
H377 N371 0.984 . S
H378 N371 0.984 . S
H379 N367 0.984 . S
H380 N367 0.985 . S
C381 C382 1.363 . S
C381 C387 1.379 . S
C381 N389 1.356 . S
C382 C381 1.363 . S
C382 C388 1.363 1_545 S
C383 C384 1.363 1_565 S
C383 C388 1.379 . S
C383 N390 1.356 . S
C384 C383 1.363 1_545 S
C384 C387 1.363 . S
N385 C387 1.356 . S
N385 H397 0.984 . S
N385 H398 0.985 . S
N386 C388 1.356 . S
N386 H391 0.984 . S
N386 H392 0.985 . S
C387 C381 1.379 . S
C387 C384 1.363 . S
C387 N385 1.356 . S
C388 C382 1.363 1_565 S
C388 C383 1.379 . S
C388 N386 1.356 . S
N389 C381 1.356 . S
N389 H395 0.984 . S
N389 H396 0.984 . S
N390 C383 1.356 . S
N390 H393 0.984 . S
N390 H394 0.985 . S
H391 N386 0.984 . S
H392 N386 0.985 . S
H393 N390 0.984 . S
H394 N390 0.985 . S
H395 N389 0.984 . S
H396 N389 0.984 . S
H397 N385 0.984 . S
H398 N385 0.985 . S
C399 C400 1.363 . S
C399 C405 1.379 . S
C399 N407 1.356 . S
C400 C399 1.363 . S
C400 C406 1.363 . S
C401 C402 1.363 . S
C401 C406 1.379 . S
C401 N408 1.356 . S
C402 C401 1.363 . S
C402 C405 1.363 . S
N403 C405 1.356 . S
N403 H415 0.984 . S
N403 H416 0.985 . S
N404 C406 1.356 . S
N404 H409 0.984 . S
N404 H410 0.985 . S
C405 C399 1.379 . S
C405 C402 1.363 . S
C405 N403 1.356 . S
C406 C400 1.363 . S
C406 C401 1.379 . S
C406 N404 1.356 . S
N407 C399 1.356 . S
N407 H413 0.984 . S
N407 H414 0.984 . S
N408 C401 1.356 . S
N408 H411 0.984 . S
N408 H412 0.985 . S
H409 N404 0.984 . S
H410 N404 0.985 . S
H411 N408 0.984 . S
H412 N408 0.985 . S
H413 N407 0.984 . S
H414 N407 0.984 . S
H415 N403 0.984 . S
H416 N403 0.985 . S
C417 C418 1.363 1_565 S
C417 C423 1.379 . S
C417 N425 1.356 . S
C418 C417 1.363 1_545 S
C418 C424 1.363 . S
C419 C420 1.363 . S
C419 C424 1.379 . S
C419 N426 1.356 . S
C420 C419 1.363 . S
C420 C423 1.363 1_545 S
N421 C423 1.356 . S
N421 H433 0.984 . S
N421 H434 0.985 . S
N422 C424 1.356 . S
N422 H427 0.984 . S
N422 H428 0.985 . S
C423 C417 1.379 . S
C423 C420 1.363 1_565 S
C423 N421 1.356 . S
C424 C418 1.363 . S
C424 C419 1.379 . S
C424 N422 1.356 . S
N425 C417 1.356 . S
N425 H431 0.984 . S
N425 H432 0.984 . S
N426 C419 1.356 . S
N426 H429 0.984 . S
N426 H430 0.985 . S
H427 N422 0.984 . S
H428 N422 0.985 . S
H429 N426 0.984 . S
H430 N426 0.985 . S
H431 N425 0.984 . S
H432 N425 0.984 . S
H433 N421 0.984 . S
H434 N421 0.985 . S
C435 C436 1.363 . S
C435 C441 1.379 1_556 S
C435 N443 1.356 . S
C436 C435 1.363 . S
C436 C442 1.363 . S
C437 C438 1.363 . S
C437 C442 1.379 1_554 S
C437 N444 1.356 . S
C438 C437 1.363 . S
C438 C441 1.363 . S
N439 C441 1.356 . S
N439 H451 0.984 . S
N439 H452 0.985 . S
N440 C442 1.356 . S
N440 H445 0.984 . S
N440 H446 0.985 . S
C441 C435 1.379 1_554 S
C441 C438 1.363 . S
C441 N439 1.356 . S
C442 C436 1.363 . S
C442 C437 1.379 1_556 S
C442 N440 1.356 . S
N443 C435 1.356 . S
N443 H449 0.984 . S
N443 H450 0.984 . S
N444 C437 1.356 . S
N444 H447 0.984 . S
N444 H448 0.985 . S
H445 N440 0.984 . S
H446 N440 0.985 . S
H447 N444 0.984 . S
H448 N444 0.985 . S
H449 N443 0.984 . S
H450 N443 0.984 . S
H451 N439 0.984 . S
H452 N439 0.985 . S
C453 C454 1.363 1_655 S
C453 C459 1.379 1_655 S
C453 N461 1.356 . S
C454 C453 1.363 1_455 S
C454 C460 1.363 . S
C455 C456 1.363 . S
C455 C460 1.379 . S
C455 N462 1.356 . S
C456 C455 1.363 . S
C456 C459 1.363 . S
N457 C459 1.356 1_655 S
N457 H469 0.984 . S
N457 H470 0.985 . S
N458 C460 1.356 . S
N458 H463 0.984 . S
N458 H464 0.985 . S
C459 C453 1.379 1_455 S
C459 C456 1.363 . S
C459 N457 1.356 1_455 S
C460 C454 1.363 . S
C460 C455 1.379 . S
C460 N458 1.356 . S
N461 C453 1.356 . S
N461 H467 0.984 . S
N461 H468 0.984 . S
N462 C455 1.356 . S
N462 H465 0.984 . S
N462 H466 0.985 . S
H463 N458 0.984 . S
H464 N458 0.985 . S
H465 N462 0.984 . S
H466 N462 0.985 . S
H467 N461 0.984 . S
H468 N461 0.984 . S
H469 N457 0.984 . S
H470 N457 0.985 . S
C148 C20 1.345 . S
C150 C138 1.305 . S
C166 C41 1.443 . S
C168 C116 1.434 1_655 S
C184 C64 1.464 . S
C186 C129 1.455 . S
C202 C19 1.333 . S
C204 C142 1.405 . S
C222 C112 1.309 . S
C220 C44 1.395 . S
C240 C125 1.304 . S
C238 C67 1.390 . S
C256 C43 1.315 . S
C258 C90 1.403 . S
C274 C66 1.310 . S
C276 C103 1.397 1_655 S
C292 C21 1.402 . S
C294 C73 1.316 . S
C312 C86 1.306 . S
C310 C42 1.357 . S
C330 C99 1.307 . S
C328 C65 1.360 . S
C346 C18 1.397 . S
C348 C77 1.384 . S
C366 C104 1.516 . S
C364 C17 1.520 . S
C382 C39 1.531 . S
C384 C78 1.532 . S
C400 C62 1.540 . S
C402 C91 1.541 . S
C420 C130 1.518 . S
C418 C40 1.527 . S
C438 C143 1.539 . S
C436 C63 1.547 . S
C454 C16 1.522 . S
C456 C117 1.518 . S
