# Generated by pormake.
# Topology zzz, (3,6)-cn, num edge types: 1
# Building blocks:
#     Node 0, Type 0, BuildingBlock: CUQRIR_clean_linker_1, # of connection points: 3
#     Node 1, Type 0, BuildingBlock: CUQRIR_clean_linker_1, # of connection points: 3
#     Node 2, Type 0, BuildingBlock: CUQRIR_clean_linker_1, # of connection points: 3
#     Node 3, Type 0, BuildingBlock: CUQRIR_clean_linker_1, # of connection points: 3
#     Node 4, Type 0, BuildingBlock: CUQRIR_clean_linker_1, # of connection points: 3
#     Node 5, Type 0, BuildingBlock: CUQRIR_clean_linker_1, # of connection points: 3
#     Node 6, Type 0, BuildingBlock: CUQRIR_clean_linker_1, # of connection points: 3
#     Node 7, Type 0, BuildingBlock: CUQRIR_clean_linker_1, # of connection points: 3
#     Node 8, Type 1, BuildingBlock: JUFBIX_clean_sbu_0, # of connection points: 6
#     Node 9, Type 1, BuildingBlock: JUFBIX_clean_sbu_0, # of connection points: 6
#     Node 10, Type 1, BuildingBlock: JUFBIX_clean_sbu_0, # of connection points: 6
#     Node 11, Type 1, BuildingBlock: JUFBIX_clean_sbu_0, # of connection points: 6
#     Edge 12, Type (0, 1), BuildingBlock: UVAHIK_clean_linker_0, # of connection points: 2
#     Edge 13, Type (0, 1), BuildingBlock: UVAHIK_clean_linker_0, # of connection points: 2
#     Edge 14, Type (0, 1), BuildingBlock: UVAHIK_clean_linker_0, # of connection points: 2
#     Edge 15, Type (0, 1), BuildingBlock: UVAHIK_clean_linker_0, # of connection points: 2
#     Edge 16, Type (0, 1), BuildingBlock: UVAHIK_clean_linker_0, # of connection points: 2
#     Edge 17, Type (0, 1), BuildingBlock: UVAHIK_clean_linker_0, # of connection points: 2
#     Edge 18, Type (0, 1), BuildingBlock: UVAHIK_clean_linker_0, # of connection points: 2
#     Edge 19, Type (0, 1), BuildingBlock: UVAHIK_clean_linker_0, # of connection points: 2
#     Edge 20, Type (0, 1), BuildingBlock: UVAHIK_clean_linker_0, # of connection points: 2
#     Edge 21, Type (0, 1), BuildingBlock: UVAHIK_clean_linker_0, # of connection points: 2
#     Edge 22, Type (0, 1), BuildingBlock: UVAHIK_clean_linker_0, # of connection points: 2
#     Edge 23, Type (0, 1), BuildingBlock: UVAHIK_clean_linker_0, # of connection points: 2
#     Edge 24, Type (0, 1), BuildingBlock: UVAHIK_clean_linker_0, # of connection points: 2
#     Edge 25, Type (0, 1), BuildingBlock: UVAHIK_clean_linker_0, # of connection points: 2
#     Edge 26, Type (0, 1), BuildingBlock: UVAHIK_clean_linker_0, # of connection points: 2
#     Edge 27, Type (0, 1), BuildingBlock: UVAHIK_clean_linker_0, # of connection points: 2
#     Edge 28, Type (0, 1), BuildingBlock: UVAHIK_clean_linker_0, # of connection points: 2
#     Edge 29, Type (0, 1), BuildingBlock: UVAHIK_clean_linker_0, # of connection points: 2
#     Edge 30, Type (0, 1), BuildingBlock: UVAHIK_clean_linker_0, # of connection points: 2
#     Edge 31, Type (0, 1), BuildingBlock: UVAHIK_clean_linker_0, # of connection points: 2
#     Edge 32, Type (0, 1), BuildingBlock: UVAHIK_clean_linker_0, # of connection points: 2
#     Edge 33, Type (0, 1), BuildingBlock: UVAHIK_clean_linker_0, # of connection points: 2
#     Edge 34, Type (0, 1), BuildingBlock: UVAHIK_clean_linker_0, # of connection points: 2
#     Edge 35, Type (0, 1), BuildingBlock: UVAHIK_clean_linker_0, # of connection points: 2
# Relax obj value: 0.138
# Max RMSD: 0.183
# Mean RMSD: 0.101
data_MOF--net-zzz--node1-JUFBIX_clean_sbu_0--node2-CUQRIR_clean_linker_1--edge1-UVAHIK_clean_linker_0
_symmetry_space_group_name_H-M    P1
_symmetry_Int_Tables_number       1
_symmetry_cell_setting            triclinic
loop_
_symmetry_equiv_pos_as_xyz
'x, y, z'
_cell_length_a     63.716847
_cell_length_b     63.32397
_cell_length_c     20.619604
_cell_angle_alpha  82.761108
_cell_angle_beta   89.929202
_cell_angle_gamma 91.149526
loop_
_atom_site_label
_atom_site_type_symbol
_atom_site_fract_x
_atom_site_fract_y
_atom_site_fract_z
_atom_type_partial_charge
C0 C 0.77265 0.48972 0.29937 0.0
N1 N 0.79387 0.48871 0.29844 0.0
N2 N 0.76465 0.4867 0.24015 0.0
C3 C 0.75978 0.49255 0.35856 0.0
C4 C 0.78178 0.48405 0.20327 0.0
N5 N 0.79946 0.48506 0.23885 0.0
C6 C 0.78136 0.48237 0.13106 0.0
H7 H 0.76793 0.486 0.40399 0.0
H8 H 0.74411 0.4847 0.35642 0.0
H9 H 0.75753 0.50982 0.35999 0.0
H10 H 0.76748 0.49039 0.10762 0.0
H11 H 0.78054 0.46532 0.12375 0.0
H12 H 0.79578 0.48959 0.10664 0.0
C13 C 0.99041 0.74158 0.3167 0.0
N14 N 0.9943 0.76288 0.31122 0.0
N15 N 0.99684 0.73367 0.26207 0.0
C16 C 0.98083 0.72845 0.37536 0.0
C17 C 0.00449 0.75086 0.22297 0.0
N18 N 0.00312 0.76855 0.253 0.0
C19 C 0.0115 0.75064 0.15324 0.0
H20 H 0.98541 0.735 0.42087 0.0
H21 H 0.98566 0.71162 0.37814 0.0
H22 H 0.96349 0.72891 0.37108 0.0
H23 H 0.00692 0.76545 0.12235 0.0
H24 H 0.00473 0.73677 0.13206 0.0
H25 H 0.02886 0.74969 0.15207 0.0
C26 C 0.76285 0.00132 0.21611 0.0
N27 N 0.7421 0.00567 0.21293 0.0
N28 N 0.77159 0.0045 0.15557 0.0
C29 C 0.77433 0.99309 0.2774 0.0
C30 C 0.7555 0.01104 0.11575 0.0
N31 N 0.73764 0.01185 0.15058 0.0
C32 C 0.7569 0.01514 0.04236 0.0
H33 H 0.79109 0.99818 0.27432 0.0
H34 H 0.77357 0.97543 0.2836 0.0
H35 H 0.767 0.99871 0.32079 0.0
H36 H 0.75202 1.00044 0.02178 0.0
H37 H 0.77318 0.01956 0.02602 0.0
H38 H 0.74626 0.02802 0.02278 0.0
C39 C 0.53136 0.7418 0.22368 0.0
N40 N 0.53083 0.72043 0.22359 0.0
N41 N 0.53232 0.75186 0.16152 0.0
C42 C 0.53186 0.75275 0.28418 0.0
C43 C 0.53217 0.73577 0.12393 0.0
N44 N 0.5314 0.71675 0.16173 0.0
C45 C 0.53099 0.73859 0.05044 0.0
H46 H 0.5155 0.75523 0.29963 0.0
H47 H 0.54002 0.76848 0.27467 0.0
H48 H 0.53976 0.74277 0.3247 0.0
H49 H 0.54716 0.73973 0.03015 0.0
H50 H 0.52268 0.75337 0.03209 0.0
H51 H 0.52282 0.72482 0.03252 0.0
C52 C 0.24378 0.50606 0.24285 0.0
N53 N 0.2227 0.50824 0.245 0.0
N54 N 0.25239 0.5087 0.30142 0.0
C55 C 0.25558 0.49979 0.1855 0.0
C56 C 0.23585 0.51251 0.33903 0.0
N57 N 0.21777 0.51211 0.30494 0.0
C58 C 0.23757 0.51699 0.40881 0.0
H59 H 0.2728 0.50057 0.19308 0.0
H60 H 0.25135 0.5104 0.14063 0.0
H61 H 0.2508 0.48331 0.1781 0.0
H62 H 0.25288 0.52486 0.41725 0.0
H63 H 0.23664 0.50171 0.44165 0.0
H64 H 0.22467 0.52727 0.42149 0.0
C65 C 0.00808 0.26135 0.22504 0.0
N66 N 0.00516 0.23989 0.23255 0.0
N67 N 0.00331 0.26928 0.28128 0.0
C68 C 0.01483 0.2746 0.16274 0.0
C69 C 0.99771 0.25192 0.32331 0.0
N70 N 0.99865 0.23415 0.29361 0.0
C71 C 0.99327 0.25213 0.39505 0.0
H72 H 0.00891 0.29103 0.16065 0.0
H73 H 0.00916 0.26729 0.11967 0.0
H74 H 0.03224 0.27546 0.1609 0.0
H75 H 0.97613 0.25374 0.40203 0.0
H76 H 0.00148 0.2657 0.41391 0.0
H77 H 0.99822 0.23713 0.42414 0.0
C78 C 0.24865 0.99945 0.34209 0.0
N79 N 0.26968 0.99659 0.34462 0.0
N80 N 0.23996 0.99461 0.40239 0.0
C81 C 0.2365 0.00587 0.28064 0.0
C82 C 0.25647 0.9889 0.4416 0.0
N83 N 0.27444 0.98993 0.40644 0.0
C84 C 0.25531 0.98431 0.51501 0.0
H85 H 0.2359 0.0235 0.27203 0.0
H86 H 0.22018 0.9994 0.28519 0.0
H87 H 0.24427 1.00027 0.23792 0.0
H88 H 0.25298 0.96691 0.52894 0.0
H89 H 0.24199 0.9926 0.53465 0.0
H90 H 0.27004 0.98933 0.53782 0.0
C91 C 0.48101 0.2605 0.33108 0.0
N92 N 0.48204 0.28194 0.32927 0.0
N93 N 0.48168 0.25097 0.39375 0.0
C94 C 0.47843 0.24897 0.27216 0.0
C95 C 0.48338 0.26741 0.42974 0.0
N96 N 0.48346 0.28622 0.39058 0.0
C97 C 0.48702 0.265 0.50243 0.0
H98 H 0.46994 0.25887 0.23279 0.0
H99 H 0.46985 0.23359 0.28504 0.0
H100 H 0.49419 0.24566 0.25337 0.0
H101 H 0.49506 0.24991 0.51908 0.0
H102 H 0.47165 0.26475 0.52789 0.0
H103 H 0.49662 0.2785 0.51645 0.0
Co104 Co 0.01161 0.01007 0.81031 0.0
C105 C 0.96903 0.99871 0.82895 0.0
Co106 Co 0.99772 0.99194 0.73472 0.0
C107 C 0.02561 0.04658 0.87422 0.0
C108 C 0.02369 0.01771 0.94009 0.0
N109 N 0.0217 0.02539 0.87636 0.0
N110 N 0.0297 0.05238 0.934 0.0
C111 C 0.02863 0.03412 0.9753 0.0
H112 H 0.02474 0.05768 0.83003 0.0
H113 H 0.02053 0.00142 0.96078 0.0
C114 C 0.04031 0.00335 0.71612 0.0
N115 N 0.9876 0.97667 0.66903 0.0
C116 C 0.982 0.95582 0.67294 0.0
C117 C 0.98718 0.98374 0.60455 0.0
N118 N 0.97834 0.94957 0.61349 0.0
C119 C 0.98147 0.96724 0.57052 0.0
C120 C 0.99476 0.03565 0.70477 0.0
O121 O 0.03841 0.01158 0.76904 0.0
O122 O 0.02449 0.99414 0.69348 0.0
O123 O 0.99001 0.01796 0.68515 0.0
O124 O 0.00419 0.03575 0.75893 0.0
O125 O 0.97106 0.98995 0.77703 0.0
H126 H 0.99188 0.99959 0.58304 0.0
H127 H 0.98131 0.94524 0.71838 0.0
O128 O 0.98473 0.00836 0.85062 0.0
O129 O 0.01884 0.98395 0.86041 0.0
O130 O 0.00555 0.96624 0.78513 0.0
C131 C 0.01452 0.96629 0.84002 0.0
H132 H 0.02992 0.03279 0.02797 0.0
H133 H 0.981 0.96797 0.51783 0.0
Co134 Co 0.49671 0.00561 0.82056 0.0
C135 C 0.51083 0.9637 0.83483 0.0
Co136 Co 0.51456 0.99688 0.73571 0.0
C137 C 0.46136 0.01572 0.89999 0.0
C138 C 0.48951 0.0105 0.9556 0.0
N139 N 0.482 0.01165 0.89414 0.0
N140 N 0.4557 0.01698 0.9626 0.0
C141 C 0.47347 0.01383 0.99755 0.0
H142 H 0.45056 0.0172 0.8593 0.0
H143 H 0.50542 0.00651 0.9697 0.0
C144 C 0.50041 0.0388 0.72156 0.0
N145 N 0.52909 0.99087 0.66186 0.0
C146 C 0.54961 0.98645 0.65482 0.0
C147 C 0.52125 0.99241 0.60077 0.0
N148 N 0.55482 0.98527 0.59174 0.0
C149 C 0.53691 0.98893 0.55787 0.0
C150 C 0.47156 0.98943 0.72848 0.0
O151 O 0.49284 0.03373 0.77869 0.0
O152 O 0.51041 0.02506 0.69455 0.0
O153 O 0.48898 0.98787 0.69975 0.0
O154 O 0.47136 0.99674 0.78302 0.0
O155 O 0.51862 0.96878 0.77797 0.0
H156 H 0.50535 0.99679 0.58756 0.0
H157 H 0.56062 0.9847 0.69494 0.0
O158 O 0.50065 0.97742 0.86143 0.0
O159 O 0.5225 0.01439 0.85707 0.0
O160 O 0.5398 0.00587 0.77255 0.0
C161 C 0.53982 0.01292 0.82749 0.0
H162 H 0.47462 0.01282 0.05021 0.0
H163 H 0.5354 0.99021 0.50525 0.0
Co164 Co 0.52444 0.49943 0.78001 0.0
C165 C 0.50216 0.46926 0.86478 0.0
Co166 Co 0.49001 0.50269 0.77423 0.0
C167 C 0.56418 0.49713 0.84564 0.0
C168 C 0.56779 0.49418 0.74399 0.0
N169 N 0.55327 0.49702 0.78959 0.0
N170 N 0.58488 0.49442 0.83701 0.0
C171 C 0.58725 0.49244 0.77315 0.0
H172 H 0.55702 0.4987 0.89239 0.0
H173 H 0.56444 0.4933 0.69298 0.0
C174 C 0.51224 0.53283 0.68943 0.0
N175 N 0.46121 0.50496 0.76492 0.0
C176 C 0.45032 0.50641 0.70846 0.0
C177 C 0.44653 0.50442 0.81219 0.0
N178 N 0.42937 0.50664 0.71837 0.0
C179 C 0.42696 0.50546 0.78378 0.0
C180 C 0.50765 0.52662 0.86259 0.0
O181 O 0.52825 0.52294 0.71313 0.0
O182 O 0.49405 0.52641 0.70933 0.0
O183 O 0.49006 0.52151 0.8394 0.0
O184 O 0.52425 0.5186 0.84311 0.0
O185 O 0.48622 0.47887 0.8397 0.0
H186 H 0.44983 0.50289 0.864 0.0
H187 H 0.45773 0.50715 0.66096 0.0
O188 O 0.52041 0.47598 0.84632 0.0
O189 O 0.52433 0.48027 0.71679 0.0
O190 O 0.49025 0.48392 0.70897 0.0
C191 C 0.50698 0.47563 0.69133 0.0
H192 H 0.60201 0.4901 0.74922 0.0
H193 H 0.41212 0.50471 0.80962 0.0
Co194 Co 0.00739 0.5203 0.77115 0.0
C195 C 0.0417 0.50136 0.83724 0.0
Co196 Co 0.01003 0.48599 0.76306 0.0
C197 C 0.00507 0.55662 0.84098 0.0
C198 C 0.99943 0.56507 0.73885 0.0
N199 N 0.00442 0.54855 0.78345 0.0
N200 N 1.00046 0.57752 0.8345 0.0
C201 C 0.99699 0.58288 0.76999 0.0
H202 H 0.0086 0.54714 0.88688 0.0
H203 H 0.9971 0.56408 0.68736 0.0
C204 C 0.97574 0.50468 0.69691 0.0
N205 N 0.01277 0.45774 0.75033 0.0
C206 C 0.01228 0.45007 0.69216 0.0
C207 C 0.01558 0.44057 0.79483 0.0
N208 N 0.01468 0.42876 0.69811 0.0
C209 C 0.01675 0.42275 0.76296 0.0
C210 C 0.98618 0.49293 0.86808 0.0
O211 O 0.98238 0.52143 0.71914 0.0
O212 O 0.98583 0.48759 0.70991 0.0
O213 O 0.99276 0.47804 0.83791 0.0
O214 O 0.99103 0.5121 0.84689 0.0
O215 O 0.03438 0.48456 0.81688 0.0
H216 H 0.01665 0.44098 0.84701 0.0
H217 H 0.01041 0.46014 0.64621 0.0
O218 O 0.03229 0.51884 0.82258 0.0
O219 O 0.02394 0.52832 0.69542 0.0
O220 O 0.02716 0.49428 0.68829 0.0
C221 C 0.03133 0.51356 0.66636 0.0
H222 H 0.99229 0.59836 0.74694 0.0
H223 H 0.01869 0.40662 0.78618 0.0
C224 C 0.20881 0.97793 0.45958 0.0
C225 C 0.21836 0.99556 0.42214 0.0
C226 C 0.18902 0.97959 0.48734 0.0
C227 C 0.14087 0.01078 0.47936 0.0
H228 H 0.13599 0.98853 0.66306 0.0
C229 C 0.06157 0.99843 0.61721 0.0
C230 C 0.0606 0.00433 0.68066 0.0
C231 C 0.08068 0.99885 0.58377 0.0
C232 C 0.13714 0.99497 0.61193 0.0
H233 H 0.21456 0.02843 0.38166 0.0
H234 H 0.17951 0.03135 0.42924 0.0
H235 H 0.16922 0.98598 0.60592 0.0
H236 H 0.07896 0.01554 0.75843 0.0
H237 H 0.11247 0.01603 0.7001 0.0
H238 H 0.10869 0.01964 0.48548 0.0
C239 C 0.18739 0.01625 0.43731 0.0
C240 C 0.1561 0.9933 0.57902 0.0
C241 C 0.20734 0.0146 0.40992 0.0
C242 C 0.07918 0.01086 0.70969 0.0
C243 C 0.09837 0.01107 0.67642 0.0
C244 C 0.12181 0.01224 0.51217 0.0
C245 C 0.17829 0.9989 0.47772 0.0
C246 C 0.15814 0.00107 0.51232 0.0
C247 C 0.09932 0.00499 0.61318 0.0
C248 C 0.11974 0.00428 0.57877 0.0
H249 H 0.21701 0.96305 0.46891 0.0
H250 H 0.18223 0.96584 0.51721 0.0
H251 H 0.14199 0.01687 0.42795 0.0
H252 H 0.04754 0.99338 0.5933 0.0
H253 H 0.08094 0.99387 0.53541 0.0
C254 C 0.46659 0.22093 0.46745 0.0
C255 C 0.48089 0.22864 0.41788 0.0
C256 C 0.46737 0.19988 0.49692 0.0
C257 C 0.48689 0.14667 0.47806 0.0
H258 H 0.4866 0.13888 0.66769 0.0
C259 C 0.50848 0.06684 0.62759 0.0
C260 C 0.4975 0.06037 0.68614 0.0
C261 C 0.50571 0.08709 0.59356 0.0
C262 C 0.48637 0.14066 0.61477 0.0
H263 H 0.50668 0.22042 0.35829 0.0
H264 H 0.50791 0.18326 0.40909 0.0
H265 H 0.48244 0.17434 0.60875 0.0
H266 H 0.4748 0.07003 0.75448 0.0
H267 H 0.46957 0.10521 0.69438 0.0
H268 H 0.49062 0.11298 0.48392 0.0
C269 C 0.49609 0.19352 0.4252 0.0
C270 C 0.48403 0.16102 0.58099 0.0
C271 C 0.49539 0.21469 0.39604 0.0
C272 C 0.48361 0.07459 0.70978 0.0
C273 C 0.48069 0.0948 0.67541 0.0
C274 C 0.48905 0.12624 0.51186 0.0
C275 C 0.48238 0.18605 0.47697 0.0
C276 C 0.48434 0.16426 0.5123 0.0
C277 C 0.49174 0.10134 0.61689 0.0
C278 C 0.48892 0.12299 0.5807 0.0
H279 H 0.45513 0.23142 0.48433 0.0
H280 H 0.45637 0.19448 0.53591 0.0
H281 H 0.48698 0.14866 0.42511 0.0
H282 H 0.51939 0.0563 0.60817 0.0
H283 H 0.51477 0.09167 0.54939 0.0
C284 C 0.28864 0.52162 0.31313 0.0
C285 C 0.27348 0.50522 0.32392 0.0
C286 C 0.30749 0.52031 0.34821 0.0
C287 C 0.32659 0.49591 0.50733 0.0
H288 H 0.38122 0.5173 0.44357 0.0
C289 C 0.39278 0.5138 0.68302 0.0
C290 C 0.41301 0.5069 0.66979 0.0
C291 C 0.37672 0.51331 0.63712 0.0
C292 C 0.36608 0.51115 0.46198 0.0
H293 H 0.26612 0.47431 0.37643 0.0
H294 H 0.29922 0.47159 0.43683 0.0
H295 H 0.35216 0.51556 0.36659 0.0
H296 H 0.43206 0.49414 0.59705 0.0
H297 H 0.40407 0.49348 0.51691 0.0
H298 H 0.34034 0.4915 0.60249 0.0
C299 C 0.2966 0.4856 0.40212 0.0
C300 C 0.34943 0.51029 0.41799 0.0
C301 C 0.27783 0.48697 0.36716 0.0
C302 C 0.41681 0.49986 0.6088 0.0
C303 C 0.40074 0.49945 0.56274 0.0
C304 C 0.34314 0.49689 0.55119 0.0
C305 C 0.31133 0.50259 0.39487 0.0
C306 C 0.32947 0.50268 0.44024 0.0
C307 C 0.38045 0.50596 0.57666 0.0
C308 C 0.36305 0.50463 0.5292 0.0
H309 H 0.28528 0.53596 0.28073 0.0
H310 H 0.31842 0.53374 0.34179 0.0
H311 H 0.31135 0.49028 0.52636 0.0
H312 H 0.38933 0.51969 0.72879 0.0
H313 H 0.36135 0.51879 0.6489 0.0
C314 C 0.98726 0.29983 0.32252 0.0
C315 C 0.00477 0.2908 0.29645 0.0
C316 C 0.98945 0.31834 0.35237 0.0
C317 C 0.0297 0.34621 0.43931 0.0
H318 H 0.98469 0.38576 0.45224 0.0
C319 C 0.02312 0.39477 0.65655 0.0
C320 C 0.01498 0.41541 0.64604 0.0
C321 C 0.02323 0.38182 0.60639 0.0
C322 C 0.9976 0.3751 0.44867 0.0
H323 H 0.03801 0.29454 0.27668 0.0
H324 H 0.04196 0.32748 0.32717 0.0
H325 H 0.98264 0.36099 0.37136 0.0
H326 H 1.00052 0.4384 0.57326 0.0
H327 H 0.00142 0.4162 0.48583 0.0
H328 H 0.04477 0.36048 0.5161 0.0
C329 C 0.02654 0.32003 0.32591 0.0
C330 C 0.9963 0.36069 0.40263 0.0
C331 C 0.02429 0.3014 0.29617 0.0
C332 C 0.00715 0.42276 0.58357 0.0
C333 C 0.00741 0.40987 0.53329 0.0
C334 C 0.03107 0.36073 0.48499 0.0
C335 C 0.00927 0.32829 0.35654 0.0
C336 C 0.01208 0.3457 0.3984 0.0
C337 C 0.01535 0.38917 0.54407 0.0
C338 C 0.01481 0.37504 0.49138 0.0
H339 H 0.9721 0.29174 0.32338 0.0
H340 H 0.97582 0.32399 0.37586 0.0
H341 H 0.04208 0.3348 0.4381 0.0
H342 H 0.0295 0.38853 0.70346 0.0
H343 H 0.02917 0.36586 0.61699 0.0
C344 C 0.80959 0.01241 0.15077 0.0
C345 C 0.79242 0.99978 0.13569 0.0
C346 C 0.82928 0.00996 0.12277 0.0
C347 C 0.85226 0.99278 0.97553 0.0
H348 H 0.90496 0.99543 0.06812 0.0
C349 C 0.93216 0.98442 0.84832 0.0
C350 C 0.94881 0.99758 0.8649 0.0
C351 C 0.9133 0.98315 0.88366 0.0
C352 C 0.89039 0.99489 0.04133 0.0
H353 H 0.78215 0.97428 0.08217 0.0
H354 H 0.81657 0.96982 0.03303 0.0
H355 H 0.8719 0.99561 0.12797 0.0
H356 H 0.95862 0.0199 0.93118 0.0
H357 H 0.92571 0.01812 0.9914 0.0
H358 H 0.87059 0.99264 0.88866 0.0
C359 C 0.8149 0.98173 0.06598 0.0
C360 C 0.87146 0.99492 0.07576 0.0
C361 C 0.79531 0.98412 0.0943 0.0
C362 C 0.94615 0.00951 0.91727 0.0
C363 C 0.9273 0.00836 0.95224 0.0
C364 C 0.87117 0.99291 0.94104 0.0
C365 C 0.832 0.99494 0.07876 0.0
C366 C 0.85219 0.99396 0.04317 0.0
C367 C 0.91063 0.99511 0.93613 0.0
C368 C 0.89049 0.99411 0.97337 0.0
H369 H 0.8075 0.02478 0.18185 0.0
H370 H 0.8421 0.0205 0.13313 0.0
H371 H 0.83766 0.99237 0.94881 0.0
H372 H 0.93375 0.97492 0.8085 0.0
H373 H 0.90091 0.97258 0.87034 0.0
C374 C 0.54723 0.7832 0.09283 0.0
C375 C 0.53238 0.77433 0.13924 0.0
C376 C 0.54581 0.80436 0.06466 0.0
C377 C 0.50686 0.84705 0.03376 0.0
H378 H 0.55592 0.88196 0.97829 0.0
C379 C 0.50189 0.93561 0.92763 0.0
C380 C 0.51362 0.94218 0.87058 0.0
C381 C 0.50457 0.91544 0.9623 0.0
C382 C 0.54209 0.87231 0.99314 0.0
H383 H 0.50497 0.78066 0.1949 0.0
H384 H 0.50287 0.81802 0.14797 0.0
H385 H 0.56036 0.84678 0.03968 0.0
H386 H 0.53748 0.93277 0.80543 0.0
H387 H 0.54228 0.89749 0.8666 0.0
H388 H 0.48864 0.87276 0.98784 0.0
C389 C 0.51531 0.80851 0.13178 0.0
C390 C 0.54461 0.85214 0.02826 0.0
C391 C 0.51665 0.78725 0.15944 0.0
C392 C 0.52817 0.92815 0.84908 0.0
C393 C 0.53102 0.90803 0.88429 0.0
C394 C 0.50436 0.86728 0.99928 0.0
C395 C 0.5296 0.81721 0.08289 0.0
C396 C 0.52702 0.83917 0.04866 0.0
C397 C 0.51919 0.90147 0.94115 0.0
C398 C 0.52194 0.88007 0.97826 0.0
H399 H 0.55958 0.7735 0.07702 0.0
H400 H 0.55698 0.81035 0.02683 0.0
H401 H 0.49294 0.8374 0.04732 0.0
H402 H 0.49056 0.94603 0.94557 0.0
H403 H 0.49537 0.91089 0.00624 0.0
C404 C 0.72989 0.50314 0.22385 0.0
C405 C 0.74308 0.48591 0.21968 0.0
C406 C 0.71008 0.50367 0.19421 0.0
C407 C 0.67158 0.4702 0.11136 0.0
H408 H 0.65622 0.52463 0.01759 0.0
C409 C 0.61759 0.47938 0.88529 0.0
C410 C 0.60095 0.49354 0.88619 0.0
C411 C 0.63303 0.47829 0.93364 0.0
C412 C 0.66021 0.50938 0.0441 0.0
H413 H 0.74571 0.45523 0.1854 0.0
H414 H 0.71175 0.45629 0.1317 0.0
H415 H 0.6862 0.52276 0.09137 0.0
H416 H 0.58755 0.51791 0.93745 0.0
H417 H 0.61498 0.51644 0.02125 0.0
H418 H 0.64621 0.45677 0.06073 0.0
C419 C 0.71619 0.46932 0.15848 0.0
C420 C 0.67732 0.50828 0.08683 0.0
C421 C 0.73578 0.46873 0.18866 0.0
C422 C 0.60015 0.50676 0.93601 0.0
C423 C 0.61584 0.50599 0.98362 0.0
C424 C 0.65474 0.47127 0.06775 0.0
C425 C 0.70322 0.48701 0.15946 0.0
C426 C 0.68349 0.4886 0.12021 0.0
C427 C 0.63235 0.49165 0.98306 0.0
C428 C 0.64911 0.49081 0.03301 0.0
H429 H 0.73528 0.51658 0.24745 0.0
H430 H 0.7004 0.51737 0.19718 0.0
H431 H 0.67545 0.45484 0.1373 0.0
H432 H 0.61847 0.46893 0.8477 0.0
H433 H 0.6457 0.46722 0.93189 0.0
C434 C 0.97482 0.70476 0.22821 0.0
C435 C 0.99459 0.71249 0.24484 0.0
C436 C 0.97317 0.68678 0.19524 0.0
C437 C 0.97813 0.66319 0.07628 0.0
H438 H 0.01333 0.61366 0.10553 0.0
C439 C 0.99914 0.61327 0.87139 0.0
C440 C 0.99849 0.59095 0.88594 0.0
C441 C 0.99685 0.62626 0.92082 0.0
C442 C 0.00324 0.62729 0.09705 0.0
H443 H 0.02793 0.70726 0.24404 0.0
H444 H 0.02521 0.67556 0.18758 0.0
H445 H 0.01186 0.6383 0.18775 0.0
H446 H 0.99467 0.56496 0.96492 0.0
H447 H 0.99117 0.58769 0.05097 0.0
H448 H 0.9699 0.65252 0.98496 0.0
C449 C 0.01094 0.68317 0.2 0.0
C450 C 0.00249 0.64144 0.14394 0.0
C451 C 0.01255 0.70123 0.23234 0.0
C452 C 0.99563 0.58202 0.95157 0.0
C453 C 0.99352 0.59505 1.0011 0.0
C454 C 0.97903 0.64918 0.0292 0.0
C455 C 0.9913 0.67621 0.17886 0.0
C456 C 0.99015 0.65971 0.13362 0.0
C457 C 0.99401 0.61731 0.98621 0.0
C458 C 0.99186 0.63126 0.03855 0.0
H459 H 0.96085 0.71349 0.23676 0.0
H460 H 0.95781 0.68168 0.18006 0.0
H461 H 0.96866 0.67725 0.06643 0.0
H462 H 0.00165 0.6208 0.82187 0.0
H463 H 0.99765 0.64338 0.90795 0.0
C464 C 0.01296 0.1987 0.32707 0.0
C465 C 0.99613 0.21266 0.32493 0.0
C466 C 0.01127 0.17853 0.363 0.0
C467 C 0.00866 0.14586 0.48317 0.0
H468 H 0.95871 0.1096 0.48948 0.0
C469 C 0.99727 0.07534 0.68349 0.0
C470 C 0.99106 0.05588 0.66267 0.0
C471 C 0.99616 0.09425 0.64104 0.0
C472 C 0.97278 0.11954 0.48796 0.0
H473 H 0.96417 0.21661 0.35547 0.0
H474 H 0.96112 0.18129 0.41934 0.0
H475 H 0.96055 0.14236 0.41249 0.0
H476 H 0.97784 0.04113 0.582 0.0
H477 H 0.97594 0.07426 0.50777 0.0
H478 H 0.02097 0.12313 0.55816 0.0
C479 C 0.97556 0.18578 0.39295 0.0
C480 C 0.97378 0.13831 0.44426 0.0
C481 C 0.9773 0.20596 0.357 0.0
C482 C 0.98278 0.05587 0.59948 0.0
C483 C 0.98163 0.07484 0.55701 0.0
C484 C 0.00761 0.12721 0.52697 0.0
C485 C 0.9927 0.17204 0.39746 0.0
C486 C 0.99174 0.15166 0.44153 0.0
C487 C 0.98878 0.09413 0.57691 0.0
C488 C 0.98963 0.11391 0.53011 0.0
H489 H 0.02762 0.20371 0.30271 0.0
H490 H 0.02464 0.16817 0.36489 0.0
H491 H 0.0226 0.15595 0.48283 0.0
H492 H 0.00355 0.07594 0.73203 0.0
H493 H 0.00141 0.10896 0.65809 0.0
C494 C 0.31043 0.00301 0.42263 0.0
C495 C 0.29526 0.98659 0.43201 0.0
C496 C 0.33023 1.00028 0.45104 0.0
C497 C 0.37417 0.98692 0.49239 0.0
H498 H 0.37563 0.96185 0.67392 0.0
C499 C 0.45188 0.97748 0.63421 0.0
C500 C 0.45169 0.98427 0.69654 0.0
C501 C 0.43311 0.97466 0.60116 0.0
C502 C 0.37548 0.96889 0.62324 0.0
H503 H 0.28869 0.95435 0.47598 0.0
H504 H 0.32341 0.94939 0.52607 0.0
H505 H 0.34242 0.96331 0.61504 0.0
H506 H 0.43162 0.99263 0.77412 0.0
H507 H 0.39892 0.98789 0.71623 0.0
H508 H 0.40706 0.99325 0.5013 0.0
C509 C 0.32001 0.96446 0.49745 0.0
C510 C 0.3565 0.96952 0.58929 0.0
C511 C 0.30023 0.96722 0.46885 0.0
C512 C 0.43231 0.98739 0.72615 0.0
C513 C 0.41355 0.98456 0.69309 0.0
C514 C 0.39315 0.98627 0.52631 0.0
C515 C 0.33514 0.98107 0.48952 0.0
C516 C 0.35559 0.97883 0.52378 0.0
C517 C 0.41376 0.97854 0.62976 0.0
C518 C 0.39395 0.97753 0.5924 0.0
H519 H 0.30672 0.01814 0.39487 0.0
H520 H 0.34142 0.01349 0.44473 0.0
H521 H 0.37401 0.99399 0.44175 0.0
H522 H 0.46654 0.97483 0.61017 0.0
H523 H 0.43376 0.9697 0.55282 0.0
C524 C 0.5011 0.3215 0.38314 0.0
C525 C 0.48554 0.30712 0.41066 0.0
C526 C 0.50316 0.34172 0.40305 0.0
C527 C 0.47558 0.37961 0.4976 0.0
H528 H 0.53169 0.40335 0.51114 0.0
C529 C 0.48858 0.45843 0.60415 0.0
C530 C 0.50595 0.45959 0.64544 0.0
C531 C 0.48666 0.44197 0.56522 0.0
C532 C 0.51591 0.3969 0.50825 0.0
H533 H 0.45991 0.30237 0.47992 0.0
H534 H 0.4642 0.33707 0.51815 0.0
H535 H 0.52684 0.37006 0.46596 0.0
H536 H 0.53516 0.4448 0.6775 0.0
H537 H 0.53143 0.4156 0.61229 0.0
H538 H 0.46478 0.40555 0.54437 0.0
C539 C 0.4744 0.33324 0.47945 0.0
C540 C 0.51307 0.37791 0.48118 0.0
C541 C 0.4721 0.31322 0.45848 0.0
C542 C 0.52166 0.44437 0.64575 0.0
C543 C 0.51955 0.42767 0.60789 0.0
C544 C 0.47845 0.39836 0.52581 0.0
C545 C 0.48998 0.34779 0.45206 0.0
C546 C 0.49288 0.36883 0.47634 0.0
C547 C 0.50186 0.42605 0.56781 0.0
C548 C 0.49869 0.40713 0.53239 0.0
H549 H 0.5118 0.317 0.34672 0.0
H550 H 0.51512 0.35253 0.38003 0.0
H551 H 0.45974 0.37342 0.49339 0.0
H552 H 0.47632 0.4701 0.60252 0.0
H553 H 0.47309 0.4416 0.53383 0.0
C554 C 0.19027 0.50152 0.38705 0.0
C555 C 0.19687 0.51412 0.32957 0.0
C556 C 0.17062 0.50443 0.4139 0.0
C557 C 0.1178 0.51994 0.38263 0.0
H558 H 0.11806 0.53437 0.56011 0.0
C559 C 0.05042 0.50287 0.57033 0.0
C560 C 0.04613 0.51843 0.6112 0.0
C561 C 0.06664 0.5061 0.5244 0.0
C562 C 0.11772 0.53067 0.51021 0.0
H563 H 0.18802 0.53903 0.25351 0.0
H564 H 0.15294 0.54353 0.29925 0.0
H565 H 0.15126 0.53182 0.50247 0.0
H566 H 0.05462 0.55003 0.63369 0.0
H567 H 0.08339 0.55544 0.5542 0.0
H568 H 0.08423 0.51765 0.39187 0.0
C569 C 0.16321 0.53167 0.3238 0.0
C570 C 0.13668 0.52907 0.47757 0.0
C571 C 0.18312 0.52904 0.29761 0.0
C572 C 0.05759 0.53777 0.60283 0.0
C573 C 0.07406 0.54085 0.55757 0.0
C574 C 0.09878 0.52115 0.41585 0.0
C575 C 0.15705 0.51967 0.38286 0.0
C576 C 0.13686 0.52337 0.41402 0.0
C577 C 0.07904 0.52481 0.5192 0.0
C578 C 0.09863 0.52625 0.48026 0.0
H579 H 0.20047 0.4896 0.41155 0.0
H580 H 0.16601 0.49483 0.45912 0.0
H581 H 0.11767 0.51547 0.33362 0.0
H582 H 0.04174 0.48786 0.57549 0.0
H583 H 0.07028 0.49342 0.49574 0.0
C584 C 0.02624 0.79639 0.195 0.0
C585 C 0.00666 0.79004 0.22277 0.0
C586 C 0.0289 0.81642 0.15859 0.0
C587 C 0.99789 0.85622 0.05914 0.0
H588 H 0.04791 0.8921 0.06065 0.0
C589 C 0.01223 0.92657 0.86031 0.0
C590 C 0.01803 0.946 0.88209 0.0
C591 C 0.01292 0.90761 0.90271 0.0
C592 C 0.03383 0.88226 0.05991 0.0
H593 H 0.97479 0.79955 0.23713 0.0
H594 H 0.97941 0.83482 0.17452 0.0
H595 H 0.04453 0.85965 0.13852 0.0
H596 H 0.03018 0.96063 0.96443 0.0
H597 H 0.03127 0.92745 0.0386 0.0
H598 H 0.98704 0.87877 0.98124 0.0
C599 C 0.99265 0.82429 0.17996 0.0
C600 C 0.03195 0.86365 0.10414 0.0
C601 C 0.99003 0.80428 0.21626 0.0
C602 C 0.02556 0.94593 0.9462 0.0
C603 C 0.02626 0.92692 0.98865 0.0
C604 C 0.9998 0.8747 0.01489 0.0
C605 C 0.01197 0.83036 0.14936 0.0
C606 C 0.01393 0.85047 0.10422 0.0
C607 C 0.01943 0.90765 0.96779 0.0
C608 C 0.0178 0.88789 0.01459 0.0
H609 H 0.03923 0.78554 0.19991 0.0
H610 H 0.04392 0.82059 0.13532 0.0
H611 H 0.98395 0.84625 0.05731 0.0
H612 H 0.00654 0.92603 0.81105 0.0
H613 H 0.00795 0.89293 0.88489 0.0
C614 C 0.71015 0.0336 0.09293 0.0
C615 C 0.71686 0.01395 0.12403 0.0
C616 C 0.69033 0.03524 0.06393 0.0
C617 C 0.64309 0.03525 0.03389 0.0
H618 H 0.62857 0.99098 0.9269 0.0
C619 C 0.5605 0.02323 0.92255 0.0
C620 C 0.55998 0.01752 0.85882 0.0
C621 C 0.57965 0.025 0.95476 0.0
C622 C 0.63246 0.00355 0.9562 0.0
H623 H 0.7084 0.98089 0.15201 0.0
H624 H 0.6736 0.98358 0.10141 0.0
H625 H 0.66164 0.98943 0.98612 0.0
H626 H 0.57921 0.01035 0.77767 0.0
H627 H 0.61248 0.0135 0.83378 0.0
H628 H 0.6138 0.04938 0.00342 0.0
C629 C 0.68363 0.99768 0.09862 0.0
C630 C 0.65127 0.00252 0.99073 0.0
C631 C 0.70339 0.99611 0.12774 0.0
C632 C 0.57902 0.0146 0.82694 0.0
C633 C 0.59809 0.01629 0.85916 0.0
C634 C 0.62411 0.03619 0.99963 0.0
C635 C 0.67703 0.01718 0.0655 0.0
C636 C 0.65681 0.01834 0.02992 0.0
C637 C 0.59858 0.02101 0.92391 0.0
C638 C 0.61868 0.02038 0.96019 0.0
H639 H 0.72042 0.04751 0.09033 0.0
H640 H 0.6857 0.05044 0.0385 0.0
H641 H 0.64694 0.04761 0.064 0.0
H642 H 0.5461 0.02561 0.94841 0.0
H643 H 0.57956 0.02859 0.00475 0.0
C644 C 0.54566 0.68812 0.10606 0.0
C645 C 0.52922 0.69622 0.13979 0.0
C646 C 0.5433 0.66844 0.08284 0.0
C647 C 0.50911 0.61942 0.09526 0.0
H648 H 0.53508 0.61386 0.92824 0.0
C649 C 0.4914 0.5526 0.92954 0.0
C650 C 0.50935 0.54318 0.90692 0.0
C651 C 0.49342 0.56998 0.96505 0.0
C652 C 0.52784 0.61518 0.97512 0.0
H653 H 0.49765 0.69065 0.17681 0.0
H654 H 0.49295 0.65652 0.13403 0.0
H655 H 0.53939 0.64699 0.97519 0.0
H656 H 0.54348 0.54395 0.90657 0.0
H657 H 0.54684 0.57439 0.96716 0.0
H658 H 0.49693 0.58763 0.09299 0.0
C659 C 0.50792 0.66489 0.1268 0.0
C660 C 0.53042 0.6341 0.00238 0.0
C661 C 0.51047 0.68442 0.1509 0.0
C662 C 0.5293 0.55089 0.92286 0.0
C663 C 0.53128 0.56835 0.95741 0.0
C664 C 0.50624 0.60056 0.06726 0.0
C665 C 0.52425 0.65671 0.09189 0.0
C666 C 0.52127 0.63645 0.06312 0.0
C667 C 0.51339 0.57831 0.9776 0.0
C668 C 0.51577 0.59826 0.00728 0.0
H669 H 0.56028 0.69707 0.09784 0.0
H670 H 0.55642 0.66246 0.05771 0.0
H671 H 0.50204 0.62052 0.14244 0.0
H672 H 0.47583 0.54698 0.91819 0.0
H673 H 0.47941 0.57749 0.98016 0.0
C674 C 0.83503 0.50057 0.22099 0.0
C675 C 0.82066 0.48384 0.21582 0.0
C676 C 0.85528 0.49993 0.19561 0.0
C677 C 0.89411 0.46455 0.13221 0.0
H678 H 0.91301 0.51695 0.0293 0.0
C679 C 0.9593 0.46992 0.93367 0.0
C680 C 0.97172 0.48863 0.9243 0.0
C681 C 0.94312 0.46777 0.98017 0.0
C682 C 0.90822 0.50227 0.05882 0.0
H683 H 0.81605 0.45305 0.18278 0.0
H684 H 0.85136 0.45205 0.13633 0.0
H685 H 0.88045 0.51629 0.09044 0.0
H686 H 0.97829 0.51888 0.95994 0.0
H687 H 0.95053 0.5149 0.0418 0.0
H688 H 0.92181 0.45045 0.09879 0.0
C689 C 0.84718 0.46553 0.16081 0.0
C690 C 0.8895 0.5019 0.09393 0.0
C691 C 0.82695 0.46617 0.18655 0.0
C692 C 0.96873 0.50441 0.96536 0.0
C693 C 0.95276 0.50218 0.01206 0.0
C694 C 0.91292 0.46491 0.09692 0.0
C695 C 0.86146 0.48259 0.16409 0.0
C696 C 0.88213 0.48302 0.13064 0.0
C697 C 0.93925 0.48423 0.01828 0.0
C698 C 0.9201 0.48378 0.05951 0.0
H699 H 0.83038 0.51436 0.24327 0.0
H700 H 0.86601 0.51318 0.19972 0.0
H701 H 0.88892 0.4498 0.16057 0.0
H702 H 0.96127 0.45751 0.90262 0.0
H703 H 0.93293 0.45377 0.98362 0.0
C704 C 0.99145 0.21077 0.17555 0.0
C705 C 0.00768 0.22537 0.18471 0.0
C706 C 0.99488 0.19395 0.13943 0.0
C707 C 0.02791 0.17284 0.01849 0.0
H708 H 0.01365 0.11814 0.11719 0.0
C709 C 0.02291 0.09121 0.91327 0.0
C710 C 0.03148 0.07365 0.95248 0.0
C711 C 0.02222 0.11118 0.93573 0.0
C712 C 0.01781 0.13327 0.0891 0.0
H713 H 0.03984 0.23469 0.1605 0.0
H714 H 0.04581 0.20541 0.09508 0.0
H715 H 0.00718 0.15078 0.16464 0.0
H716 H 0.04756 0.064 0.04381 0.0
H717 H 0.04584 0.09856 0.0833 0.0
H718 H 0.03824 0.1551 0.9424 0.0
C719 C 0.03045 0.20698 0.11633 0.0
C720 C 0.01394 0.15196 0.11603 0.0
C721 C 0.02704 0.22374 0.15333 0.0
C722 C 0.04035 0.07693 0.01297 0.0
C723 C 0.03945 0.09677 0.03559 0.0
C724 C 0.03147 0.15405 0.99093 0.0
C725 C 0.01458 0.19153 0.11095 0.0
C726 C 0.01891 0.17193 0.08108 0.0
C727 C 0.02992 0.11396 0.99798 0.0
C728 C 0.02653 0.13408 0.02621 0.0
H729 H 0.97636 0.21187 0.19897 0.0
H730 H 0.9823 0.18242 0.13539 0.0
H731 H 0.03187 0.18805 0.99058 0.0
H732 H 0.01583 0.08938 0.86662 0.0
H733 H 0.01471 0.12416 0.90582 0.0
C734 C 0.2979 0.98281 0.28114 0.0
C735 C 0.28454 0.99942 0.29137 0.0
C736 C 0.31414 0.98615 0.23522 0.0
C737 C 0.34803 0.02907 0.15278 0.0
H738 H 0.36602 0.98472 0.05278 0.0
C739 C 0.43184 0.02649 0.0486 0.0
C740 C 0.4348 0.01859 0.98858 0.0
C741 C 0.41191 0.0262 0.07718 0.0
C742 C 0.36108 0.99742 0.07957 0.0
H743 H 0.27715 0.03231 0.26102 0.0
H744 H 0.30541 0.03825 0.17932 0.0
H745 H 0.33344 0.97995 0.11544 0.0
H746 H 0.41885 0.00475 0.91065 0.0
H747 H 0.38402 0.00458 0.95999 0.0
H748 H 0.37572 0.04651 0.11711 0.0
C749 C 0.30349 0.02266 0.20726 0.0
C750 C 0.3425 0.99457 0.11614 0.0
C751 C 0.28719 0.01926 0.2533 0.0
C752 C 0.41717 0.01109 0.95667 0.0
C753 C 0.39721 0.01076 0.98535 0.0
C754 C 0.36662 0.03192 0.11623 0.0
C755 C 0.31739 0.00623 0.19844 0.0
C756 C 0.33594 0.01019 0.15416 0.0
C757 C 0.39439 0.01801 0.04649 0.0
C758 C 0.37358 0.01596 0.0801 0.0
H759 H 0.29607 0.9674 0.3102 0.0
H760 H 0.32466 0.97321 0.23046 0.0
H761 H 0.34357 0.04136 0.18188 0.0
H762 H 0.445 0.03262 0.07411 0.0
H763 H 0.4104 0.03173 0.12454 0.0
C764 C 0.46583 0.31297 0.26656 0.0
C765 C 0.48157 0.29769 0.27264 0.0
C766 C 0.46712 0.33035 0.21761 0.0
C767 C 0.50611 0.36411 0.12508 0.0
H768 H 0.45978 0.38471 0.01459 0.0
C769 C 0.51651 0.43605 0.92578 0.0
C770 C 0.4996 0.4498 0.91224 0.0
C771 C 0.51397 0.41708 0.96785 0.0
C772 C 0.4728 0.3794 0.04574 0.0
H773 H 0.51058 0.28796 0.23233 0.0
H774 H 0.51308 0.31858 0.14643 0.0
H775 H 0.4555 0.35175 0.08918 0.0
H776 H 0.46684 0.45462 0.93325 0.0
H777 H 0.46256 0.42194 0.00881 0.0
H778 H 0.52322 0.39197 0.08417 0.0
C779 C 0.49971 0.31708 0.17928 0.0
C780 C 0.47036 0.36042 0.08807 0.0
C781 C 0.49821 0.29952 0.22768 0.0
C782 C 0.48015 0.44431 0.94252 0.0
C783 C 0.47767 0.42545 0.98542 0.0
C784 C 0.50846 0.38323 0.08357 0.0
C785 C 0.48436 0.33286 0.17457 0.0
C786 C 0.48702 0.35256 0.12795 0.0
C787 C 0.49451 0.41148 0.99833 0.0
C788 C 0.49186 0.39115 0.04312 0.0
H789 H 0.45298 0.31179 0.30133 0.0
H790 H 0.45517 0.34234 0.21539 0.0
H791 H 0.51908 0.35861 0.15622 0.0
H792 H 0.53166 0.4397 0.9027 0.0
H793 H 0.52721 0.40662 0.97536 0.0
C794 C 0.20441 0.52058 0.14274 0.0
C795 C 0.20771 0.50474 0.19525 0.0
C796 C 0.18754 0.51877 0.10025 0.0
C797 C 0.13598 0.49006 0.09337 0.0
H798 H 0.13727 0.51612 0.91284 0.0
C799 C 0.06838 0.48138 0.90895 0.0
C800 C 0.06118 0.50073 0.87647 0.0
C801 C 0.08679 0.48088 0.94609 0.0
C802 C 0.13671 0.50881 0.96324 0.0
H803 H 0.19693 0.47432 0.24395 0.0
H804 H 0.16812 0.47031 0.16786 0.0
H805 H 0.16909 0.51611 0.97855 0.0
H806 H 0.06781 0.53466 0.8566 0.0
H807 H 0.10023 0.53366 0.9202 0.0
H808 H 0.10364 0.48235 0.07696 0.0
C809 C 0.17794 0.48456 0.16021 0.0
C810 C 0.15491 0.50888 1.00116 0.0
C811 C 0.19457 0.48661 0.20326 0.0
C812 C 0.0729 0.51952 0.88128 0.0
C813 C 0.09151 0.51895 0.9173 0.0
C814 C 0.11791 0.48964 0.05504 0.0
C815 C 0.17381 0.50087 0.10899 0.0
C816 C 0.15477 0.49972 0.06708 0.0
C817 C 0.09858 0.49965 0.95031 0.0
C818 C 0.11804 0.49922 0.98987 0.0
H819 H 0.21427 0.53482 0.13679 0.0
H820 H 0.18481 0.53186 0.06233 0.0
H821 H 0.13496 0.48325 0.14415 0.0
H822 H 0.05968 0.46664 0.90623 0.0
H823 H 0.09195 0.46579 0.97095 0.0
C824 C 0.00736 0.79047 0.37554 0.0
C825 C 0.99087 0.77717 0.35915 0.0
C826 C 0.00377 0.80635 0.41517 0.0
C827 C 0.96142 0.83977 0.46492 0.0
H828 H 0.00466 0.85775 0.57942 0.0
C829 C 0.96642 0.92471 0.53691 0.0
C830 C 0.97507 0.92815 0.59752 0.0
C831 C 0.96557 0.90433 0.51763 0.0
C832 C 0.9922 0.85281 0.54862 0.0
H833 H 0.9578 0.76956 0.37221 0.0
H834 H 0.95143 0.7971 0.44337 0.0
H835 H 0.00868 0.82496 0.53124 0.0
H836 H 0.98866 0.91236 0.68679 0.0
H837 H 0.9866 0.87677 0.65402 0.0
H838 H 0.94489 0.86761 0.48259 0.0
C839 C 0.96715 0.79542 0.42493 0.0
C840 C 0.99466 0.8341 0.52019 0.0
C841 C 0.97079 0.7795 0.385 0.0
C842 C 0.98184 0.91042 0.63985 0.0
C843 C 0.98089 0.88998 0.62066 0.0
C844 C 0.9589 0.85845 0.49366 0.0
C845 C 0.98355 0.80929 0.43964 0.0
C846 C 0.97957 0.82761 0.47662 0.0
C847 C 0.9732 0.88673 0.55864 0.0
C848 C 0.97451 0.86551 0.53463 0.0
H849 H 0.02294 0.78892 0.35589 0.0
H850 H 0.01674 0.81687 0.42438 0.0
H851 H 0.94952 0.83538 0.43137 0.0
H852 H 0.96071 0.93788 0.50347 0.0
H853 H 0.95969 0.90258 0.46931 0.0
C854 C 0.72342 0.98407 0.30445 0.0
C855 C 0.72685 0.00361 0.26514 0.0
C856 C 0.70641 0.98135 0.34808 0.0
C857 C 0.65366 0.00131 0.36346 0.0
H858 H 0.65471 0.97345 0.54209 0.0
C859 C 0.57756 0.97636 0.50234 0.0
C860 C 0.57544 0.98338 0.56402 0.0
C861 C 0.59705 0.97711 0.47108 0.0
C862 C 0.65424 0.98128 0.49229 0.0
H863 H 0.71604 0.03578 0.24219 0.0
H864 H 0.68621 0.03109 0.31779 0.0
H865 H 0.68756 0.97908 0.47906 0.0
H866 H 0.59258 0.99562 0.64266 0.0
H867 H 0.62677 0.99663 0.58817 0.0
H868 H 0.6205 0.00348 0.37598 0.0
C869 C 0.69653 0.01785 0.31493 0.0
C870 C 0.67297 0.98439 0.45622 0.0
C871 C 0.71358 0.02058 0.27196 0.0
C872 C 0.5936 0.98999 0.59537 0.0
C873 C 0.6132 0.99061 0.56413 0.0
C874 C 0.635 0.99797 0.39903 0.0
C875 C 0.69246 0.99806 0.35235 0.0
C876 C 0.67285 0.99457 0.39154 0.0
C877 C 0.61499 0.98475 0.50087 0.0
C878 C 0.63505 0.98793 0.46381 0.0
H879 H 0.73326 0.97066 0.29903 0.0
H880 H 0.70355 0.96588 0.37595 0.0
H881 H 0.65303 0.00897 0.31348 0.0
H882 H 0.56405 0.97066 0.47744 0.0
H883 H 0.59802 0.97208 0.42288 0.0
C884 C 0.54673 0.68948 0.28715 0.0
C885 C 0.53045 0.70411 0.27874 0.0
C886 C 0.54533 0.67196 0.33552 0.0
C887 C 0.50655 0.63666 0.42476 0.0
H888 H 0.55273 0.61836 0.53921 0.0
C889 C 0.49738 0.56553 0.62709 0.0
C890 C 0.5146 0.55226 0.64167 0.0
C891 C 0.49956 0.58438 0.58433 0.0
C892 C 0.53977 0.62304 0.50698 0.0
H893 H 0.50013 0.7124 0.31363 0.0
H894 H 0.49743 0.68151 0.39868 0.0
H895 H 0.55625 0.65124 0.46394 0.0
H896 H 0.5476 0.54823 0.62193 0.0
H897 H 0.5513 0.58079 0.54537 0.0
H898 H 0.49025 0.60828 0.46571 0.0
C899 C 0.51134 0.68364 0.36813 0.0
C900 C 0.54177 0.64197 0.4642 0.0
C901 C 0.51291 0.70134 0.3202 0.0
C902 C 0.53404 0.55815 0.61184 0.0
C903 C 0.53618 0.57693 0.56835 0.0
C904 C 0.50463 0.61762 0.46687 0.0
C905 C 0.52744 0.66863 0.37568 0.0
C906 C 0.52515 0.64898 0.42279 0.0
C907 C 0.51898 0.59036 0.55426 0.0
C908 C 0.5212 0.61055 0.50873 0.0
H909 H 0.56028 0.69138 0.25501 0.0
H910 H 0.55787 0.66057 0.33979 0.0
H911 H 0.49362 0.64149 0.39251 0.0
H912 H 0.48221 0.56158 0.64969 0.0
H913 H 0.48605 0.59444 0.57585 0.0
C914 C 0.81119 0.5089 0.37896 0.0
C915 C 0.80829 0.48987 0.35158 0.0
C916 C 0.82819 0.51135 0.42073 0.0
C917 C 0.88114 0.49016 0.45204 0.0
H918 H 0.87997 0.51875 0.60754 0.0
C919 C 0.95017 0.48611 0.63059 0.0
C920 C 0.95632 0.50461 0.65734 0.0
C921 C 0.93177 0.48554 0.59421 0.0
C922 C 0.88058 0.51097 0.56375 0.0
H923 H 0.81967 0.45814 0.34876 0.0
H924 H 0.84904 0.46205 0.42268 0.0
H925 H 0.84762 0.51492 0.54553 0.0
H926 H 0.94783 0.53708 0.66688 0.0
H927 H 0.91555 0.53609 0.60265 0.0
H928 H 0.91393 0.48614 0.46981 0.0
C929 C 0.83863 0.4753 0.41111 0.0
C930 C 0.86205 0.50873 0.52835 0.0
C931 C 0.82175 0.47292 0.36949 0.0
C932 C 0.94355 0.52259 0.64682 0.0
C933 C 0.92501 0.52198 0.61042 0.0
C934 C 0.89956 0.49239 0.48723 0.0
C935 C 0.84248 0.49477 0.43554 0.0
C936 C 0.86208 0.49799 0.47265 0.0
C937 C 0.91897 0.50345 0.58348 0.0
C938 C 0.89948 0.50252 0.54406 0.0
H939 H 0.80107 0.52222 0.36491 0.0
H940 H 0.83074 0.52656 0.43856 0.0
H941 H 0.88186 0.48234 0.40831 0.0
H942 H 0.95954 0.47192 0.63785 0.0
H943 H 0.92743 0.47089 0.57513 0.0
loop_
_geom_bond_atom_site_label_1
_geom_bond_atom_site_label_2
_geom_bond_distance
_geom_bond_site_symmetry_2
_ccdc_geom_bond_type
C0 N1 1.317 . S
C0 N2 1.348 . S
C0 C3 1.485 . S
N1 C0 1.317 . S
N1 N5 1.370 . S
N2 C0 1.348 . S
N2 C4 1.346 . S
C3 C0 1.485 . S
C3 H7 0.960 . S
C3 H8 0.961 . S
C3 H9 0.960 . S
C4 N2 1.346 . S
C4 N5 1.307 . S
C4 C6 1.486 . S
N5 N1 1.370 . S
N5 C4 1.307 . S
C6 C4 1.486 . S
C6 H10 0.960 . S
C6 H11 0.960 . S
C6 H12 0.959 . S
H7 C3 0.960 . S
H8 C3 0.961 . S
H9 C3 0.960 . S
H10 C6 0.960 . S
H11 C6 0.960 . S
H12 C6 0.959 . S
C13 N14 1.317 . S
C13 N15 1.348 . S
C13 C16 1.485 . S
N14 C13 1.317 . S
N14 N18 1.370 . S
N15 C13 1.348 . S
N15 C17 1.346 . S
C16 C13 1.485 . S
C16 H20 0.960 . S
C16 H21 0.961 . S
C16 H22 0.960 . S
C17 N15 1.346 . S
C17 N18 1.307 . S
C17 C19 1.486 1_554 S
N18 N14 1.370 . S
N18 C17 1.307 . S
C19 C17 1.486 1_556 S
C19 H23 0.960 . S
C19 H24 0.960 . S
C19 H25 0.959 . S
H20 C16 0.960 . S
H21 C16 0.961 . S
H22 C16 0.960 . S
H23 C19 0.960 . S
H24 C19 0.960 . S
H25 C19 0.959 . S
C26 N27 1.317 . S
C26 N28 1.345 . S
C26 C29 1.485 . S
N27 C26 1.317 . S
N27 N31 1.369 . S
N28 C26 1.345 . S
N28 C30 1.348 1_565 S
C29 C26 1.485 . S
C29 H33 0.960 1_565 S
C29 H34 0.961 . S
C29 H35 0.960 . S
C30 N28 1.348 1_545 S
C30 N31 1.308 1_545 S
C30 C32 1.491 1_554 S
N31 N27 1.369 . S
N31 C30 1.308 1_565 S
C32 C30 1.491 1_556 S
C32 H36 0.922 1_545 S
C32 H37 0.988 . S
C32 H38 0.966 . S
H33 C29 0.960 1_545 S
H34 C29 0.961 . S
H35 C29 0.960 . S
H36 C32 0.922 1_565 S
H37 C32 0.988 . S
H38 C32 0.966 . S
C39 N40 1.317 . S
C39 N41 1.348 . S
C39 C42 1.485 . S
N40 C39 1.317 . S
N40 N44 1.370 . S
N41 C39 1.348 . S
N41 C43 1.346 . S
C42 C39 1.485 . S
C42 H46 0.960 . S
C42 H47 0.961 . S
C42 H48 0.960 . S
C43 N41 1.346 . S
C43 N44 1.307 . S
C43 C45 1.486 1_554 S
N44 N40 1.370 . S
N44 C43 1.307 . S
C45 C43 1.486 1_556 S
C45 H49 0.960 . S
C45 H50 0.960 . S
C45 H51 0.959 . S
H46 C42 0.960 . S
H47 C42 0.961 . S
H48 C42 0.960 . S
H49 C45 0.960 . S
H50 C45 0.960 . S
H51 C45 0.959 . S
C52 N53 1.317 . S
C52 N54 1.348 . S
C52 C55 1.485 . S
N53 C52 1.317 . S
N53 N57 1.370 . S
N54 C52 1.348 . S
N54 C56 1.346 . S
C55 C52 1.485 . S
C55 H59 0.960 . S
C55 H60 0.961 . S
C55 H61 0.960 . S
C56 N54 1.346 . S
C56 N57 1.307 . S
C56 C58 1.486 . S
N57 N53 1.370 . S
N57 C56 1.307 . S
C58 C56 1.486 . S
C58 H62 0.960 . S
C58 H63 0.960 . S
C58 H64 0.959 . S
H59 C55 0.960 . S
H60 C55 0.961 . S
H61 C55 0.960 . S
H62 C58 0.960 . S
H63 C58 0.960 . S
H64 C58 0.959 . S
C65 N66 1.317 . S
C65 N67 1.348 . S
C65 C68 1.485 . S
N66 C65 1.317 . S
N66 N70 1.370 . S
N67 C65 1.348 . S
N67 C69 1.346 . S
C68 C65 1.485 . S
C68 H72 0.960 . S
C68 H73 0.961 . S
C68 H74 0.960 . S
C69 N67 1.346 . S
C69 N70 1.307 . S
C69 C71 1.486 . S
N70 N66 1.370 . S
N70 C69 1.307 . S
C71 C69 1.486 . S
C71 H75 0.960 . S
C71 H76 0.960 . S
C71 H77 0.959 . S
H72 C68 0.960 . S
H73 C68 0.961 . S
H74 C68 0.960 . S
H75 C71 0.960 . S
H76 C71 0.960 . S
H77 C71 0.959 . S
C78 N79 1.317 . S
C78 N80 1.353 . S
C78 C81 1.485 . S
N79 C78 1.317 . S
N79 N83 1.370 . S
N80 C78 1.353 . S
N80 C82 1.343 1_565 S
C81 C78 1.485 . S
C81 H85 0.960 1_565 S
C81 H86 0.961 . S
C81 H87 0.960 . S
C82 N80 1.343 1_545 S
C82 N83 1.306 1_545 S
C82 C84 1.480 . S
N83 N79 1.370 . S
N83 C82 1.306 1_565 S
C84 C82 1.480 . S
C84 H88 0.916 1_545 S
C84 H89 1.001 . S
C84 H90 0.972 . S
H85 C81 0.960 1_545 S
H86 C81 0.961 . S
H87 C81 0.960 . S
H88 C84 0.916 1_565 S
H89 C84 1.001 . S
H90 C84 0.972 . S
C91 N92 1.317 . S
C91 N93 1.348 . S
C91 C94 1.485 . S
N92 C91 1.317 . S
N92 N96 1.370 . S
N93 C91 1.348 . S
N93 C95 1.346 . S
C94 C91 1.485 . S
C94 H98 0.960 . S
C94 H99 0.961 . S
C94 H100 0.960 . S
C95 N93 1.346 . S
C95 N96 1.307 . S
C95 C97 1.486 . S
N96 N92 1.370 . S
N96 C95 1.307 . S
C97 C95 1.486 . S
C97 H101 0.960 . S
C97 H102 0.960 . S
C97 H103 0.959 . S
H98 C94 0.960 . S
H99 C94 0.961 . S
H100 C94 0.960 . S
H101 C97 0.960 . S
H102 C97 0.960 . S
H103 C97 0.959 . S
Co104 N109 2.057 . S
Co104 O121 2.021 . S
Co104 O124 2.062 . S
Co104 O128 2.117 1_455 S
Co104 O129 2.020 1_545 S
C105 O125 1.259 1_545 S
C105 O128 1.258 . S
Co106 N115 2.057 . S
Co106 O122 2.117 1_655 S
Co106 O123 2.020 1_665 S
Co106 O125 2.021 . S
Co106 O130 2.062 . S
C107 N109 1.316 . S
C107 N110 1.347 . S
C107 H112 0.931 . S
C108 N109 1.375 1_655 S
C108 C111 1.350 1_655 S
C108 H113 0.930 . S
N109 Co104 2.057 . S
N109 C107 1.316 . S
N109 C108 1.375 1_455 S
N110 C107 1.347 . S
N110 C111 1.373 . S
C111 C108 1.350 1_455 S
C111 N110 1.373 . S
C111 H132 0.931 1_456 S
H112 C107 0.931 . S
H113 C108 0.930 . S
C114 O121 1.259 1_565 S
C114 O122 1.258 . S
N115 Co106 2.057 . S
N115 C116 1.316 . S
N115 C117 1.375 1_655 S
C116 N115 1.316 . S
C116 N118 1.347 . S
C116 H127 0.931 . S
C117 N115 1.375 1_455 S
C117 C119 1.350 . S
C117 H126 0.930 . S
N118 C116 1.347 . S
N118 C119 1.373 1_655 S
C119 C117 1.350 . S
C119 N118 1.373 1_455 S
C119 H133 0.931 . S
C120 O123 1.256 . S
C120 O124 1.255 . S
O121 Co104 2.021 . S
O121 C114 1.259 1_545 S
O122 Co106 2.117 1_455 S
O122 C114 1.258 . S
O123 Co106 2.020 1_445 S
O123 C120 1.256 . S
O124 Co104 2.062 . S
O124 C120 1.255 . S
O125 C105 1.259 1_565 S
O125 Co106 2.021 . S
H126 C117 0.930 . S
H127 C116 0.931 . S
O128 Co104 2.117 1_655 S
O128 C105 1.258 . S
O129 Co104 2.020 1_565 S
O129 C131 1.256 . S
O130 Co106 2.062 . S
O130 C131 1.255 1_655 S
C131 O129 1.256 . S
C131 O130 1.255 1_455 S
H132 C111 0.931 1_654 S
H133 C119 0.931 . S
Co134 N139 2.057 1_545 S
Co134 O151 2.021 . S
Co134 O154 2.067 . S
Co134 O158 2.117 1_545 S
Co134 O159 2.020 . S
C135 O155 1.259 . S
C135 O158 1.258 . S
Co136 N145 2.056 1_565 S
Co136 O152 2.117 1_565 S
Co136 O153 2.020 . S
Co136 O155 2.021 . S
Co136 O160 2.064 . S
C137 N139 1.308 1_545 S
C137 N140 1.347 . S
C137 H142 0.931 . S
C138 N139 1.384 . S
C138 C141 1.350 1_556 S
C138 H143 0.930 . S
N139 Co134 2.057 1_565 S
N139 C137 1.308 1_565 S
N139 C138 1.384 . S
N140 C137 1.347 . S
N140 C141 1.373 1_546 S
C141 C138 1.350 1_554 S
C141 N140 1.373 1_564 S
C141 H162 0.931 . S
H142 C137 0.931 . S
H143 C138 0.930 . S
C144 O151 1.259 . S
C144 O152 1.258 . S
N145 Co136 2.056 1_545 S
N145 C146 1.299 1_545 S
N145 C147 1.394 . S
C146 N145 1.299 1_565 S
C146 N148 1.347 . S
C146 H157 0.931 . S
C147 N145 1.394 . S
C147 C149 1.350 . S
C147 H156 0.930 . S
N148 C146 1.347 . S
N148 C149 1.373 1_565 S
C149 C147 1.350 . S
C149 N148 1.373 1_545 S
C149 H163 0.931 . S
C150 O153 1.256 . S
C150 O154 1.246 1_565 S
O151 Co134 2.021 . S
O151 C144 1.259 . S
O152 Co136 2.117 1_545 S
O152 C144 1.258 . S
O153 Co136 2.020 . S
O153 C150 1.256 . S
O154 Co134 2.067 . S
O154 C150 1.246 1_545 S
O155 C135 1.259 . S
O155 Co136 2.021 . S
H156 C147 0.930 . S
H157 C146 0.931 . S
O158 Co134 2.117 1_565 S
O158 C135 1.258 . S
O159 Co134 2.020 . S
O159 C161 1.256 . S
O160 Co136 2.064 . S
O160 C161 1.250 1_565 S
C161 O159 1.256 . S
C161 O160 1.250 1_545 S
H162 C141 0.931 . S
H163 C149 0.931 . S
Co164 N169 2.057 . S
Co164 O181 2.021 . S
Co164 O184 2.062 . S
Co164 O188 2.117 . S
Co164 O189 2.020 . S
C165 O185 1.259 . S
C165 O188 1.258 . S
Co166 N175 2.057 . S
Co166 O182 2.117 . S
Co166 O183 2.020 . S
Co166 O185 2.021 . S
Co166 O190 2.062 . S
C167 N169 1.316 . S
C167 N170 1.347 . S
C167 H172 0.931 . S
C168 N169 1.375 . S
C168 C171 1.350 . S
C168 H173 0.930 . S
N169 Co164 2.057 . S
N169 C167 1.316 . S
N169 C168 1.375 . S
N170 C167 1.347 . S
N170 C171 1.373 . S
C171 C168 1.350 . S
C171 N170 1.373 . S
C171 H192 0.931 . S
H172 C167 0.931 . S
H173 C168 0.930 . S
C174 O181 1.259 . S
C174 O182 1.258 . S
N175 Co166 2.057 . S
N175 C176 1.316 . S
N175 C177 1.375 . S
C176 N175 1.316 . S
C176 N178 1.347 . S
C176 H187 0.931 . S
C177 N175 1.375 . S
C177 C179 1.350 . S
C177 H186 0.930 . S
N178 C176 1.347 . S
N178 C179 1.373 . S
C179 C177 1.350 . S
C179 N178 1.373 . S
C179 H193 0.931 . S
C180 O183 1.256 . S
C180 O184 1.255 . S
O181 Co164 2.021 . S
O181 C174 1.259 . S
O182 Co166 2.117 . S
O182 C174 1.258 . S
O183 Co166 2.020 . S
O183 C180 1.256 . S
O184 Co164 2.062 . S
O184 C180 1.255 . S
O185 C165 1.259 . S
O185 Co166 2.021 . S
H186 C177 0.930 . S
H187 C176 0.931 . S
O188 Co164 2.117 . S
O188 C165 1.258 . S
O189 Co164 2.020 . S
O189 C191 1.256 . S
O190 Co166 2.062 . S
O190 C191 1.255 . S
C191 O189 1.256 . S
C191 O190 1.255 . S
H192 C171 0.931 . S
H193 C179 0.931 . S
Co194 N199 2.057 . S
Co194 O211 2.021 1_455 S
Co194 O214 2.062 1_455 S
Co194 O218 2.117 . S
Co194 O219 2.020 . S
C195 O215 1.259 . S
C195 O218 1.258 . S
Co196 N205 2.057 . S
Co196 O212 2.117 1_455 S
Co196 O213 2.020 1_455 S
Co196 O215 2.021 . S
Co196 O220 2.062 . S
C197 N199 1.316 1_655 S
C197 N200 1.345 1_655 S
C197 H202 0.931 . S
C198 N199 1.375 . S
C198 C201 1.350 . S
C198 H203 0.930 . S
N199 Co194 2.057 . S
N199 C197 1.316 1_455 S
N199 C198 1.375 . S
N200 C197 1.345 1_455 S
N200 C201 1.380 . S
C201 C198 1.350 . S
C201 N200 1.380 . S
C201 H222 0.931 . S
H202 C197 0.931 . S
H203 C198 0.930 . S
C204 O211 1.259 . S
C204 O212 1.258 . S
N205 Co196 2.057 . S
N205 C206 1.316 . S
N205 C207 1.375 1_455 S
C206 N205 1.316 . S
C206 N208 1.347 . S
C206 H217 0.931 . S
C207 N205 1.375 1_655 S
C207 C209 1.350 . S
C207 H216 0.930 . S
N208 C206 1.347 . S
N208 C209 1.373 1_455 S
C209 C207 1.350 . S
C209 N208 1.373 1_655 S
C209 H223 0.931 . S
C210 O213 1.256 . S
C210 O214 1.255 . S
O211 Co194 2.021 1_655 S
O211 C204 1.259 . S
O212 Co196 2.117 1_655 S
O212 C204 1.258 . S
O213 Co196 2.020 1_655 S
O213 C210 1.256 . S
O214 Co194 2.062 1_655 S
O214 C210 1.255 . S
O215 C195 1.259 . S
O215 Co196 2.021 . S
H216 C207 0.930 . S
H217 C206 0.931 . S
O218 Co194 2.117 . S
O218 C195 1.258 . S
O219 Co194 2.020 . S
O219 C221 1.256 . S
O220 Co196 2.062 . S
O220 C221 1.255 . S
C221 O219 1.256 . S
C221 O220 1.255 . S
H222 C201 0.931 . S
H223 C209 0.931 . S
C224 C225 1.351 . S
C224 C226 1.327 . S
C224 H249 0.950 . S
C225 C224 1.351 . S
C225 C241 1.347 1_565 S
C226 C224 1.327 . S
C226 C245 1.429 . S
C226 H250 0.950 . S
C227 C244 1.574 . S
C227 C246 1.368 1_545 S
C227 H251 0.949 . S
H228 C232 0.949 . S
C229 C230 1.349 1_545 S
C229 C231 1.327 . S
C229 H252 0.950 . S
C230 C229 1.349 1_565 S
C230 C242 1.349 . S
C231 C229 1.327 . S
C231 C247 1.429 1_545 S
C231 H253 0.950 . S
C232 H228 0.949 . S
C232 C240 1.574 . S
C232 C248 1.368 . S
H233 C241 0.950 . S
H234 C239 0.950 . S
H235 C240 0.949 . S
H236 C242 0.950 . S
H237 C243 0.950 . S
H238 C244 0.949 . S
C239 H234 0.950 . S
C239 C241 1.327 . S
C239 C245 1.429 1_545 S
C240 C232 1.574 . S
C240 H235 0.949 . S
C240 C246 1.368 . S
C241 C225 1.347 1_545 S
C241 H233 0.950 . S
C241 C239 1.327 . S
C242 C230 1.349 . S
C242 H236 0.950 . S
C242 C243 1.327 . S
C243 H237 0.950 . S
C243 C242 1.327 . S
C243 C247 1.429 . S
C244 C227 1.574 . S
C244 H238 0.949 . S
C244 C248 1.368 1_545 S
C245 C226 1.429 . S
C245 C239 1.429 1_565 S
C245 C246 1.523 . S
C246 C227 1.368 1_565 S
C246 C240 1.368 . S
C246 C245 1.523 . S
C247 C231 1.429 1_565 S
C247 C243 1.429 . S
C247 C248 1.523 . S
C248 C232 1.368 . S
C248 C244 1.368 1_565 S
C248 C247 1.523 . S
H249 C224 0.950 . S
H250 C226 0.950 . S
H251 C227 0.949 . S
H252 C229 0.950 . S
H253 C231 0.950 . S
C254 C255 1.349 . S
C254 C256 1.327 . S
C254 H279 0.950 . S
C255 C254 1.349 . S
C255 C271 1.349 . S
C256 C254 1.327 . S
C256 C275 1.429 . S
C256 H280 0.950 . S
C257 C274 1.574 . S
C257 C276 1.368 . S
C257 H281 0.949 . S
H258 C262 0.949 . S
C259 C260 1.349 . S
C259 C261 1.327 . S
C259 H282 0.950 . S
C260 C259 1.349 . S
C260 C272 1.349 . S
C261 C259 1.327 . S
C261 C277 1.429 . S
C261 H283 0.950 . S
C262 H258 0.949 . S
C262 C270 1.574 . S
C262 C278 1.368 . S
H263 C271 0.950 . S
H264 C269 0.950 . S
H265 C270 0.949 . S
H266 C272 0.950 . S
H267 C273 0.950 . S
H268 C274 0.949 . S
C269 H264 0.950 . S
C269 C271 1.327 . S
C269 C275 1.429 . S
C270 C262 1.574 . S
C270 H265 0.949 . S
C270 C276 1.368 . S
C271 C255 1.349 . S
C271 H263 0.950 . S
C271 C269 1.327 . S
C272 C260 1.349 . S
C272 H266 0.950 . S
C272 C273 1.327 . S
C273 H267 0.950 . S
C273 C272 1.327 . S
C273 C277 1.429 . S
C274 C257 1.574 . S
C274 H268 0.949 . S
C274 C278 1.368 . S
C275 C256 1.429 . S
C275 C269 1.429 . S
C275 C276 1.523 . S
C276 C257 1.368 . S
C276 C270 1.368 . S
C276 C275 1.523 . S
C277 C261 1.429 . S
C277 C273 1.429 . S
C277 C278 1.523 . S
C278 C262 1.368 . S
C278 C274 1.368 . S
C278 C277 1.523 . S
H279 C254 0.950 . S
H280 C256 0.950 . S
H281 C257 0.949 . S
H282 C259 0.950 . S
H283 C261 0.950 . S
C284 C285 1.349 . S
C284 C286 1.327 . S
C284 H309 0.950 . S
C285 C284 1.349 . S
C285 C301 1.349 . S
C286 C284 1.327 . S
C286 C305 1.429 . S
C286 H310 0.950 . S
C287 C304 1.574 . S
C287 C306 1.368 . S
C287 H311 0.949 . S
H288 C292 0.949 . S
C289 C290 1.349 . S
C289 C291 1.327 . S
C289 H312 0.950 . S
C290 C289 1.349 . S
C290 C302 1.349 . S
C291 C289 1.327 . S
C291 C307 1.429 . S
C291 H313 0.950 . S
C292 H288 0.949 . S
C292 C300 1.574 . S
C292 C308 1.368 . S
H293 C301 0.950 . S
H294 C299 0.950 . S
H295 C300 0.949 . S
H296 C302 0.950 . S
H297 C303 0.950 . S
H298 C304 0.949 . S
C299 H294 0.950 . S
C299 C301 1.327 . S
C299 C305 1.429 . S
C300 C292 1.574 . S
C300 H295 0.949 . S
C300 C306 1.368 . S
C301 C285 1.349 . S
C301 H293 0.950 . S
C301 C299 1.327 . S
C302 C290 1.349 . S
C302 H296 0.950 . S
C302 C303 1.327 . S
C303 H297 0.950 . S
C303 C302 1.327 . S
C303 C307 1.429 . S
C304 C287 1.574 . S
C304 H298 0.949 . S
C304 C308 1.368 . S
C305 C286 1.429 . S
C305 C299 1.429 . S
C305 C306 1.523 . S
C306 C287 1.368 . S
C306 C300 1.368 . S
C306 C305 1.523 . S
C307 C291 1.429 . S
C307 C303 1.429 . S
C307 C308 1.523 . S
C308 C292 1.368 . S
C308 C304 1.368 . S
C308 C307 1.523 . S
H309 C284 0.950 . S
H310 C286 0.950 . S
H311 C287 0.949 . S
H312 C289 0.950 . S
H313 C291 0.950 . S
C314 C315 1.349 . S
C314 C316 1.327 . S
C314 H339 0.950 . S
C315 C314 1.349 . S
C315 C331 1.349 . S
C316 C314 1.327 . S
C316 C335 1.429 . S
C316 H340 0.950 . S
C317 C334 1.574 . S
C317 C336 1.368 . S
C317 H341 0.949 . S
H318 C322 0.949 . S
C319 C320 1.349 . S
C319 C321 1.327 . S
C319 H342 0.950 . S
C320 C319 1.349 . S
C320 C332 1.349 . S
C321 C319 1.327 . S
C321 C337 1.429 . S
C321 H343 0.950 . S
C322 H318 0.949 . S
C322 C330 1.574 . S
C322 C338 1.368 . S
H323 C331 0.950 . S
H324 C329 0.950 . S
H325 C330 0.949 . S
H326 C332 0.950 . S
H327 C333 0.950 . S
H328 C334 0.949 . S
C329 H324 0.950 . S
C329 C331 1.327 . S
C329 C335 1.429 . S
C330 C322 1.574 . S
C330 H325 0.949 . S
C330 C336 1.368 . S
C331 C315 1.349 . S
C331 H323 0.950 . S
C331 C329 1.327 . S
C332 C320 1.349 . S
C332 H326 0.950 . S
C332 C333 1.327 . S
C333 H327 0.950 . S
C333 C332 1.327 . S
C333 C337 1.429 . S
C334 C317 1.574 . S
C334 H328 0.949 . S
C334 C338 1.368 . S
C335 C316 1.429 . S
C335 C329 1.429 . S
C335 C336 1.523 . S
C336 C317 1.368 . S
C336 C330 1.368 . S
C336 C335 1.523 . S
C337 C321 1.429 . S
C337 C333 1.429 . S
C337 C338 1.523 . S
C338 C322 1.368 . S
C338 C334 1.368 . S
C338 C337 1.523 . S
H339 C314 0.950 . S
H340 C316 0.950 . S
H341 C317 0.949 . S
H342 C319 0.950 . S
H343 C321 0.950 . S
C344 C345 1.362 . S
C344 C346 1.327 . S
C344 H369 0.950 . S
C345 C344 1.362 . S
C345 C361 1.335 1_544 S
C346 C344 1.327 . S
C346 C365 1.429 1_554 S
C346 H370 0.950 . S
C347 C364 1.574 . S
C347 C366 1.368 1_565 S
C347 H371 0.949 . S
H348 C352 0.949 . S
C349 C350 1.349 1_565 S
C349 C351 1.327 . S
C349 H372 0.950 . S
C350 C349 1.349 1_545 S
C350 C362 1.349 . S
C351 C349 1.327 . S
C351 C367 1.429 1_565 S
C351 H373 0.950 . S
C352 H348 0.949 . S
C352 C360 1.574 . S
C352 C368 1.368 . S
H353 C361 0.950 . S
H354 C359 0.950 . S
H355 C360 0.949 . S
H356 C362 0.950 . S
H357 C363 0.950 . S
H358 C364 0.949 . S
C359 H354 0.950 . S
C359 C361 1.327 . S
C359 C365 1.429 1_565 S
C360 C352 1.574 . S
C360 H355 0.949 . S
C360 C366 1.368 . S
C361 C345 1.335 1_566 S
C361 H353 0.950 . S
C361 C359 1.327 . S
C362 C350 1.349 . S
C362 H356 0.950 . S
C362 C363 1.327 . S
C363 H357 0.950 . S
C363 C362 1.327 . S
C363 C367 1.429 . S
C364 C347 1.574 . S
C364 H358 0.949 . S
C364 C368 1.368 1_565 S
C365 C346 1.429 1_556 S
C365 C359 1.429 1_545 S
C365 C366 1.523 . S
C366 C347 1.368 1_545 S
C366 C360 1.368 . S
C366 C365 1.523 . S
C367 C351 1.429 1_545 S
C367 C363 1.429 . S
C367 C368 1.523 . S
C368 C352 1.368 . S
C368 C364 1.368 1_545 S
C368 C367 1.523 . S
H369 C344 0.950 . S
H370 C346 0.950 . S
H371 C347 0.949 . S
H372 C349 0.950 . S
H373 C351 0.950 . S
C374 C375 1.349 . S
C374 C376 1.327 . S
C374 H399 0.950 . S
C375 C374 1.349 . S
C375 C391 1.349 . S
C376 C374 1.327 . S
C376 C395 1.429 . S
C376 H400 0.950 . S
C377 C394 1.574 . S
C377 C396 1.368 . S
C377 H401 0.949 . S
H378 C382 0.949 . S
C379 C380 1.349 . S
C379 C381 1.327 . S
C379 H402 0.950 . S
C380 C379 1.349 . S
C380 C392 1.349 . S
C381 C379 1.327 . S
C381 C397 1.429 . S
C381 H403 0.950 . S
C382 H378 0.949 . S
C382 C390 1.574 1_556 S
C382 C398 1.368 . S
H383 C391 0.955 . S
H384 C389 0.950 . S
H385 C390 0.949 . S
H386 C392 0.950 . S
H387 C393 0.950 . S
H388 C394 0.949 . S
C389 H384 0.950 . S
C389 C391 1.327 1_556 S
C389 C395 1.429 1_556 S
C390 C382 1.574 1_554 S
C390 H385 0.949 . S
C390 C396 1.368 1_554 S
C391 C375 1.349 . S
C391 H383 0.955 . S
C391 C389 1.327 1_554 S
C392 C380 1.349 . S
C392 H386 0.950 . S
C392 C393 1.327 . S
C393 H387 0.950 . S
C393 C392 1.327 . S
C393 C397 1.429 . S
C394 C377 1.574 . S
C394 H388 0.949 . S
C394 C398 1.368 . S
C395 C376 1.429 . S
C395 C389 1.429 1_554 S
C395 C396 1.523 1_554 S
C396 C377 1.368 . S
C396 C390 1.368 1_556 S
C396 C395 1.523 1_556 S
C397 C381 1.429 . S
C397 C393 1.429 . S
C397 C398 1.523 . S
C398 C382 1.368 . S
C398 C394 1.368 . S
C398 C397 1.523 . S
H399 C374 0.950 . S
H400 C376 0.950 . S
H401 C377 0.949 . S
H402 C379 0.950 . S
H403 C381 0.950 . S
C404 C405 1.349 . S
C404 C406 1.327 . S
C404 H429 0.950 . S
C405 C404 1.349 . S
C405 C421 1.349 . S
C406 C404 1.327 . S
C406 C425 1.429 . S
C406 H430 0.950 . S
C407 C424 1.574 1_554 S
C407 C426 1.368 . S
C407 H431 0.949 . S
H408 C412 0.949 . S
C409 C410 1.349 . S
C409 C411 1.327 . S
C409 H432 0.950 . S
C410 C409 1.349 . S
C410 C422 1.349 . S
C411 C409 1.327 . S
C411 C427 1.429 . S
C411 H433 0.950 . S
C412 H408 0.949 . S
C412 C420 1.574 1_556 S
C412 C428 1.368 . S
H413 C421 0.950 . S
H414 C419 0.950 . S
H415 C420 0.949 . S
H416 C422 0.950 . S
H417 C423 0.950 . S
H418 C424 0.949 . S
C419 H414 0.950 . S
C419 C421 1.327 . S
C419 C425 1.429 . S
C420 C412 1.574 1_554 S
C420 H415 0.949 . S
C420 C426 1.368 . S
C421 C405 1.349 . S
C421 H413 0.950 . S
C421 C419 1.327 . S
C422 C410 1.349 . S
C422 H416 0.950 . S
C422 C423 1.327 . S
C423 H417 0.950 . S
C423 C422 1.327 . S
C423 C427 1.429 . S
C424 C407 1.574 1_556 S
C424 H418 0.949 . S
C424 C428 1.368 . S
C425 C406 1.429 . S
C425 C419 1.429 . S
C425 C426 1.523 . S
C426 C407 1.368 . S
C426 C420 1.368 . S
C426 C425 1.523 . S
C427 C411 1.429 . S
C427 C423 1.429 . S
C427 C428 1.523 . S
C428 C412 1.368 . S
C428 C424 1.368 . S
C428 C427 1.523 . S
H429 C404 0.950 . S
H430 C406 0.950 . S
H431 C407 0.949 . S
H432 C409 0.950 . S
H433 C411 0.950 . S
C434 C435 1.349 . S
C434 C436 1.327 . S
C434 H459 0.950 . S
C435 C434 1.349 . S
C435 C451 1.349 . S
C436 C434 1.327 . S
C436 C455 1.429 . S
C436 H460 0.950 . S
C437 C454 1.574 . S
C437 C456 1.368 . S
C437 H461 0.949 . S
H438 C442 0.948 1_554 S
C439 C440 1.347 . S
C439 C441 1.326 . S
C439 H462 0.952 1_655 S
C440 C439 1.347 . S
C440 C452 1.349 . S
C441 C439 1.326 . S
C441 C457 1.429 . S
C441 H463 0.950 1_655 S
C442 H438 0.948 1_556 S
C442 C450 1.574 1_556 S
C442 C458 1.368 . S
H443 C451 0.950 . S
H444 C449 0.953 . S
H445 C450 0.949 . S
H446 C452 0.950 . S
H447 C453 0.950 . S
H448 C454 0.949 . S
C449 H444 0.953 . S
C449 C451 1.325 1_556 S
C449 C455 1.428 1_556 S
C450 C442 1.574 1_554 S
C450 H445 0.949 . S
C450 C456 1.368 1_554 S
C451 C435 1.349 . S
C451 H443 0.950 . S
C451 C449 1.325 1_554 S
C452 C440 1.349 . S
C452 H446 0.950 . S
C452 C453 1.327 . S
C453 H447 0.950 . S
C453 C452 1.327 . S
C453 C457 1.429 . S
C454 C437 1.574 . S
C454 H448 0.949 . S
C454 C458 1.368 . S
C455 C436 1.429 . S
C455 C449 1.428 1_554 S
C455 C456 1.523 1_554 S
C456 C437 1.368 . S
C456 C450 1.368 1_556 S
C456 C455 1.523 1_556 S
C457 C441 1.429 . S
C457 C453 1.429 . S
C457 C458 1.523 . S
C458 C442 1.368 . S
C458 C454 1.368 . S
C458 C457 1.523 . S
H459 C434 0.950 . S
H460 C436 0.950 . S
H461 C437 0.949 . S
H462 C439 0.952 1_455 S
H463 C441 0.950 1_455 S
C464 C465 1.349 . S
C464 C466 1.327 . S
C464 H489 0.950 . S
C465 C464 1.349 . S
C465 C481 1.349 . S
C466 C464 1.327 . S
C466 C485 1.429 . S
C466 H490 0.950 . S
C467 C484 1.574 . S
C467 C486 1.368 . S
C467 H491 0.949 . S
H468 C472 0.949 . S
C469 C470 1.349 . S
C469 C471 1.327 . S
C469 H492 0.950 1_455 S
C470 C469 1.349 . S
C470 C482 1.349 . S
C471 C469 1.327 . S
C471 C487 1.429 . S
C471 H493 0.950 . S
C472 H468 0.949 . S
C472 C480 1.574 . S
C472 C488 1.368 . S
H473 C481 0.950 . S
H474 C479 0.950 . S
H475 C480 0.949 . S
H476 C482 0.950 . S
H477 C483 0.950 . S
H478 C484 0.949 . S
C479 H474 0.950 . S
C479 C481 1.327 . S
C479 C485 1.429 . S
C480 C472 1.574 . S
C480 H475 0.949 . S
C480 C486 1.368 . S
C481 C465 1.349 . S
C481 H473 0.950 . S
C481 C479 1.327 . S
C482 C470 1.349 . S
C482 H476 0.950 . S
C482 C483 1.327 . S
C483 H477 0.950 . S
C483 C482 1.327 . S
C483 C487 1.429 . S
C484 C467 1.574 . S
C484 H478 0.949 . S
C484 C488 1.368 . S
C485 C466 1.429 . S
C485 C479 1.429 . S
C485 C486 1.523 . S
C486 C467 1.368 . S
C486 C480 1.368 . S
C486 C485 1.523 . S
C487 C471 1.429 . S
C487 C483 1.429 . S
C487 C488 1.523 . S
C488 C472 1.368 . S
C488 C484 1.368 . S
C488 C487 1.523 . S
H489 C464 0.950 . S
H490 C466 0.950 . S
H491 C467 0.949 . S
H492 C469 0.950 1_655 S
H493 C471 0.950 . S
C494 C495 1.356 . S
C494 C496 1.327 . S
C494 H519 0.950 . S
C495 C494 1.356 . S
C495 C511 1.342 1_545 S
C496 C494 1.327 . S
C496 C515 1.429 1_545 S
C496 H520 0.950 . S
C497 C514 1.574 . S
C497 C516 1.368 . S
C497 H521 0.949 . S
H498 C502 0.949 . S
C499 C500 1.349 . S
C499 C501 1.327 . S
C499 H522 0.950 . S
C500 C499 1.349 . S
C500 C512 1.349 1_565 S
C501 C499 1.327 . S
C501 C517 1.429 . S
C501 H523 0.950 . S
C502 H498 0.949 . S
C502 C510 1.574 . S
C502 C518 1.368 1_545 S
H503 C511 0.950 . S
H504 C509 0.950 . S
H505 C510 0.949 . S
H506 C512 0.950 . S
H507 C513 0.950 . S
H508 C514 0.949 . S
C509 H504 0.950 . S
C509 C511 1.327 . S
C509 C515 1.429 . S
C510 C502 1.574 . S
C510 H505 0.949 . S
C510 C516 1.368 1_545 S
C511 C495 1.342 1_565 S
C511 H503 0.950 . S
C511 C509 1.327 . S
C512 C500 1.349 1_545 S
C512 H506 0.950 . S
C512 C513 1.327 . S
C513 H507 0.950 . S
C513 C512 1.327 . S
C513 C517 1.429 1_545 S
C514 C497 1.574 . S
C514 H508 0.949 . S
C514 C518 1.368 . S
C515 C496 1.429 1_565 S
C515 C509 1.429 . S
C515 C516 1.523 . S
C516 C497 1.368 . S
C516 C510 1.368 1_565 S
C516 C515 1.523 . S
C517 C501 1.429 . S
C517 C513 1.429 1_565 S
C517 C518 1.523 . S
C518 C502 1.368 1_565 S
C518 C514 1.368 . S
C518 C517 1.523 . S
H519 C494 0.950 . S
H520 C496 0.950 . S
H521 C497 0.949 . S
H522 C499 0.950 . S
H523 C501 0.950 . S
C524 C525 1.349 . S
C524 C526 1.327 . S
C524 H549 0.950 . S
C525 C524 1.349 . S
C525 C541 1.349 . S
C526 C524 1.327 . S
C526 C545 1.429 . S
C526 H550 0.950 . S
C527 C544 1.574 . S
C527 C546 1.368 . S
C527 H551 0.949 . S
H528 C532 0.949 . S
C529 C530 1.349 . S
C529 C531 1.327 . S
C529 H552 0.950 . S
C530 C529 1.349 . S
C530 C542 1.349 . S
C531 C529 1.327 . S
C531 C547 1.429 . S
C531 H553 0.950 . S
C532 H528 0.949 . S
C532 C540 1.574 . S
C532 C548 1.368 . S
H533 C541 0.950 . S
H534 C539 0.950 . S
H535 C540 0.949 . S
H536 C542 0.950 . S
H537 C543 0.950 . S
H538 C544 0.949 . S
C539 H534 0.950 . S
C539 C541 1.327 . S
C539 C545 1.429 . S
C540 C532 1.574 . S
C540 H535 0.949 . S
C540 C546 1.368 . S
C541 C525 1.349 . S
C541 H533 0.950 . S
C541 C539 1.327 . S
C542 C530 1.349 . S
C542 H536 0.950 . S
C542 C543 1.327 . S
C543 H537 0.950 . S
C543 C542 1.327 . S
C543 C547 1.429 . S
C544 C527 1.574 . S
C544 H538 0.949 . S
C544 C548 1.368 . S
C545 C526 1.429 . S
C545 C539 1.429 . S
C545 C546 1.523 . S
C546 C527 1.368 . S
C546 C540 1.368 . S
C546 C545 1.523 . S
C547 C531 1.429 . S
C547 C543 1.429 . S
C547 C548 1.523 . S
C548 C532 1.368 . S
C548 C544 1.368 . S
C548 C547 1.523 . S
H549 C524 0.950 . S
H550 C526 0.950 . S
H551 C527 0.949 . S
H552 C529 0.950 . S
H553 C531 0.950 . S
C554 C555 1.349 . S
C554 C556 1.327 . S
C554 H579 0.950 . S
C555 C554 1.349 . S
C555 C571 1.349 . S
C556 C554 1.327 . S
C556 C575 1.429 . S
C556 H580 0.950 . S
C557 C574 1.574 . S
C557 C576 1.368 . S
C557 H581 0.949 . S
H558 C562 0.949 . S
C559 C560 1.349 . S
C559 C561 1.327 . S
C559 H582 0.950 . S
C560 C559 1.349 . S
C560 C572 1.349 . S
C561 C559 1.327 . S
C561 C577 1.429 . S
C561 H583 0.950 . S
C562 H558 0.949 . S
C562 C570 1.574 . S
C562 C578 1.368 . S
H563 C571 0.950 . S
H564 C569 0.950 . S
H565 C570 0.949 . S
H566 C572 0.950 . S
H567 C573 0.950 . S
H568 C574 0.949 . S
C569 H564 0.950 . S
C569 C571 1.327 . S
C569 C575 1.429 . S
C570 C562 1.574 . S
C570 H565 0.949 . S
C570 C576 1.368 . S
C571 C555 1.349 . S
C571 H563 0.950 . S
C571 C569 1.327 . S
C572 C560 1.349 . S
C572 H566 0.950 . S
C572 C573 1.327 . S
C573 H567 0.950 . S
C573 C572 1.327 . S
C573 C577 1.429 . S
C574 C557 1.574 . S
C574 H568 0.949 . S
C574 C578 1.368 . S
C575 C556 1.429 . S
C575 C569 1.429 . S
C575 C576 1.523 . S
C576 C557 1.368 . S
C576 C570 1.368 . S
C576 C575 1.523 . S
C577 C561 1.429 . S
C577 C573 1.429 . S
C577 C578 1.523 . S
C578 C562 1.368 . S
C578 C574 1.368 . S
C578 C577 1.523 . S
H579 C554 0.950 . S
H580 C556 0.950 . S
H581 C557 0.949 . S
H582 C559 0.950 . S
H583 C561 0.950 . S
C584 C585 1.349 . S
C584 C586 1.327 . S
C584 H609 0.950 . S
C585 C584 1.349 . S
C585 C601 1.349 . S
C586 C584 1.327 . S
C586 C605 1.429 . S
C586 H610 0.950 . S
C587 C604 1.574 . S
C587 C606 1.368 . S
C587 H611 0.949 . S
H588 C592 0.949 . S
C589 C590 1.350 . S
C589 C591 1.326 1_455 S
C589 H612 0.950 . S
C590 C589 1.350 . S
C590 C602 1.349 . S
C591 C589 1.326 1_655 S
C591 C607 1.429 . S
C591 H613 0.950 . S
C592 H588 0.949 . S
C592 C600 1.574 . S
C592 C608 1.368 1_554 S
H593 C601 0.950 1_556 S
H594 C599 0.950 . S
H595 C600 0.949 . S
H596 C602 0.950 . S
H597 C603 0.950 . S
H598 C604 0.949 . S
C599 H594 0.950 . S
C599 C601 1.327 1_556 S
C599 C605 1.429 1_556 S
C600 C592 1.574 . S
C600 H595 0.949 . S
C600 C606 1.368 1_554 S
C601 C585 1.349 . S
C601 H593 0.950 1_554 S
C601 C599 1.327 1_554 S
C602 C590 1.349 . S
C602 H596 0.950 . S
C602 C603 1.327 1_455 S
C603 H597 0.950 . S
C603 C602 1.327 1_655 S
C603 C607 1.429 . S
C604 C587 1.574 . S
C604 H598 0.949 . S
C604 C608 1.368 . S
C605 C586 1.429 . S
C605 C599 1.429 1_554 S
C605 C606 1.523 1_554 S
C606 C587 1.368 . S
C606 C600 1.368 1_556 S
C606 C605 1.523 1_556 S
C607 C591 1.429 . S
C607 C603 1.429 . S
C607 C608 1.523 . S
C608 C592 1.368 1_556 S
C608 C604 1.368 . S
C608 C607 1.523 . S
H609 C584 0.950 . S
H610 C586 0.950 . S
H611 C587 0.949 . S
H612 C589 0.950 . S
H613 C591 0.950 . S
C614 C615 1.351 1_546 S
C614 C616 1.327 . S
C614 H639 0.950 . S
C615 C614 1.351 1_564 S
C615 C631 1.347 . S
C616 C614 1.327 . S
C616 C635 1.429 . S
C616 H640 0.950 . S
C617 C634 1.574 . S
C617 C636 1.368 1_565 S
C617 H641 0.949 1_556 S
H618 C622 0.949 . S
C619 C620 1.349 1_565 S
C619 C621 1.327 . S
C619 H642 0.950 . S
C620 C619 1.349 1_545 S
C620 C632 1.349 . S
C621 C619 1.327 . S
C621 C637 1.429 1_565 S
C621 H643 0.950 . S
C622 H618 0.949 . S
C622 C630 1.574 . S
C622 C638 1.368 . S
H623 C631 0.950 . S
H624 C629 0.950 . S
H625 C630 0.949 . S
H626 C632 0.950 . S
H627 C633 0.950 . S
H628 C634 0.949 . S
C629 H624 0.950 . S
C629 C631 1.327 . S
C629 C635 1.429 1_564 S
C630 C622 1.574 . S
C630 H625 0.949 . S
C630 C636 1.368 . S
C631 C615 1.347 . S
C631 H623 0.950 . S
C631 C629 1.327 . S
C632 C620 1.349 . S
C632 H626 0.950 . S
C632 C633 1.327 . S
C633 H627 0.950 . S
C633 C632 1.327 . S
C633 C637 1.429 . S
C634 C617 1.574 . S
C634 H628 0.949 . S
C634 C638 1.368 1_565 S
C635 C616 1.429 . S
C635 C629 1.429 1_546 S
C635 C636 1.523 . S
C636 C617 1.368 1_545 S
C636 C630 1.368 . S
C636 C635 1.523 . S
C637 C621 1.429 1_545 S
C637 C633 1.429 . S
C637 C638 1.523 . S
C638 C622 1.368 . S
C638 C634 1.368 1_545 S
C638 C637 1.523 . S
H639 C614 0.950 . S
H640 C616 0.950 . S
H641 C617 0.949 1_554 S
H642 C619 0.950 . S
H643 C621 0.950 . S
C644 C645 1.349 . S
C644 C646 1.327 1_554 S
C644 H669 0.950 1_554 S
C645 C644 1.349 . S
C645 C661 1.349 . S
C646 C644 1.327 1_556 S
C646 C665 1.429 1_556 S
C646 H670 0.950 . S
C647 C664 1.574 . S
C647 C666 1.368 1_554 S
C647 H671 0.949 . S
H648 C652 0.949 . S
C649 C650 1.349 . S
C649 C651 1.327 . S
C649 H672 0.950 . S
C650 C649 1.349 . S
C650 C662 1.349 . S
C651 C649 1.327 . S
C651 C667 1.429 . S
C651 H673 0.950 . S
C652 H648 0.949 . S
C652 C660 1.574 . S
C652 C668 1.368 . S
H653 C661 0.950 . S
H654 C659 0.950 . S
H655 C660 0.949 . S
H656 C662 0.950 . S
H657 C663 0.950 . S
H658 C664 0.949 . S
C659 H654 0.950 . S
C659 C661 1.327 . S
C659 C665 1.429 . S
C660 C652 1.574 . S
C660 H655 0.949 . S
C660 C666 1.368 . S
C661 C645 1.349 . S
C661 H653 0.950 . S
C661 C659 1.327 . S
C662 C650 1.349 . S
C662 H656 0.950 . S
C662 C663 1.327 . S
C663 H657 0.950 . S
C663 C662 1.327 . S
C663 C667 1.429 . S
C664 C647 1.574 . S
C664 H658 0.949 . S
C664 C668 1.368 1_554 S
C665 C646 1.429 1_554 S
C665 C659 1.429 . S
C665 C666 1.523 1_554 S
C666 C647 1.368 1_556 S
C666 C660 1.368 . S
C666 C665 1.523 1_556 S
C667 C651 1.429 . S
C667 C663 1.429 . S
C667 C668 1.523 . S
C668 C652 1.368 . S
C668 C664 1.368 1_556 S
C668 C667 1.523 . S
H669 C644 0.950 1_556 S
H670 C646 0.950 . S
H671 C647 0.949 . S
H672 C649 0.950 . S
H673 C651 0.950 . S
C674 C675 1.349 . S
C674 C676 1.327 . S
C674 H699 0.950 . S
C675 C674 1.349 . S
C675 C691 1.349 . S
C676 C674 1.327 . S
C676 C695 1.429 . S
C676 H700 0.950 . S
C677 C694 1.574 1_554 S
C677 C696 1.368 . S
C677 H701 0.949 . S
H678 C682 0.949 . S
C679 C680 1.349 . S
C679 C681 1.327 . S
C679 H702 0.950 . S
C680 C679 1.349 . S
C680 C692 1.349 . S
C681 C679 1.327 . S
C681 C697 1.429 . S
C681 H703 0.950 . S
C682 H678 0.949 . S
C682 C690 1.574 1_556 S
C682 C698 1.368 . S
H683 C691 0.950 . S
H684 C689 0.950 . S
H685 C690 0.949 . S
H686 C692 0.950 . S
H687 C693 0.950 . S
H688 C694 0.949 . S
C689 H684 0.950 . S
C689 C691 1.327 . S
C689 C695 1.429 . S
C690 C682 1.574 1_554 S
C690 H685 0.949 . S
C690 C696 1.368 . S
C691 C675 1.349 . S
C691 H683 0.950 . S
C691 C689 1.327 . S
C692 C680 1.349 . S
C692 H686 0.950 . S
C692 C693 1.327 . S
C693 H687 0.950 . S
C693 C692 1.327 . S
C693 C697 1.429 . S
C694 C677 1.574 1_556 S
C694 H688 0.949 . S
C694 C698 1.368 . S
C695 C676 1.429 . S
C695 C689 1.429 . S
C695 C696 1.523 . S
C696 C677 1.368 . S
C696 C690 1.368 . S
C696 C695 1.523 . S
C697 C681 1.429 . S
C697 C693 1.429 . S
C697 C698 1.523 . S
C698 C682 1.368 . S
C698 C694 1.368 . S
C698 C697 1.523 . S
H699 C674 0.950 . S
H700 C676 0.950 . S
H701 C677 0.949 . S
H702 C679 0.950 . S
H703 C681 0.950 . S
C704 C705 1.349 . S
C704 C706 1.327 . S
C704 H729 0.950 . S
C705 C704 1.349 . S
C705 C721 1.349 . S
C706 C704 1.327 . S
C706 C725 1.429 . S
C706 H730 0.950 . S
C707 C724 1.574 . S
C707 C726 1.368 . S
C707 H731 0.949 . S
H708 C712 0.949 . S
C709 C710 1.349 . S
C709 C711 1.327 . S
C709 H732 0.950 1_554 S
C710 C709 1.349 . S
C710 C722 1.349 . S
C711 C709 1.327 . S
C711 C727 1.429 . S
C711 H733 0.950 . S
C712 H708 0.949 . S
C712 C720 1.574 . S
C712 C728 1.368 . S
H713 C721 0.950 . S
H714 C719 0.950 . S
H715 C720 0.949 . S
H716 C722 0.950 . S
H717 C723 0.950 . S
H718 C724 0.949 . S
C719 H714 0.950 . S
C719 C721 1.327 . S
C719 C725 1.429 . S
C720 C712 1.574 . S
C720 H715 0.949 . S
C720 C726 1.368 . S
C721 C705 1.349 . S
C721 H713 0.950 . S
C721 C719 1.327 . S
C722 C710 1.349 . S
C722 H716 0.950 . S
C722 C723 1.327 . S
C723 H717 0.950 . S
C723 C722 1.327 . S
C723 C727 1.429 . S
C724 C707 1.574 . S
C724 H718 0.949 . S
C724 C728 1.368 . S
C725 C706 1.429 . S
C725 C719 1.429 . S
C725 C726 1.523 . S
C726 C707 1.368 . S
C726 C720 1.368 . S
C726 C725 1.523 . S
C727 C711 1.429 . S
C727 C723 1.429 . S
C727 C728 1.523 . S
C728 C712 1.368 . S
C728 C724 1.368 . S
C728 C727 1.523 . S
H729 C704 0.950 . S
H730 C706 0.950 . S
H731 C707 0.949 . S
H732 C709 0.950 1_556 S
H733 C711 0.950 . S
C734 C735 1.334 1_565 S
C734 C736 1.327 . S
C734 H759 0.950 . S
C735 C734 1.334 1_545 S
C735 C751 1.363 . S
C736 C734 1.327 . S
C736 C755 1.429 1_565 S
C736 H760 0.950 . S
C737 C754 1.574 . S
C737 C756 1.368 . S
C737 H761 0.949 . S
H738 C742 0.949 . S
C739 C740 1.349 . S
C739 C741 1.327 . S
C739 H762 0.950 . S
C740 C739 1.349 . S
C740 C752 1.349 . S
C741 C739 1.327 . S
C741 C757 1.429 . S
C741 H763 0.950 . S
C742 H738 0.949 . S
C742 C750 1.574 . S
C742 C758 1.368 1_565 S
H743 C751 0.950 . S
H744 C749 0.950 . S
H745 C750 0.949 . S
H746 C752 0.950 1_566 S
H747 C753 0.951 1_565 S
H748 C754 0.949 . S
C749 H744 0.950 . S
C749 C751 1.327 . S
C749 C755 1.429 . S
C750 C742 1.574 . S
C750 H745 0.949 . S
C750 C756 1.368 1_565 S
C751 C735 1.363 . S
C751 H743 0.950 . S
C751 C749 1.327 . S
C752 C740 1.349 . S
C752 H746 0.950 1_544 S
C752 C753 1.327 . S
C753 H747 0.951 1_545 S
C753 C752 1.327 . S
C753 C757 1.427 . S
C754 C737 1.574 . S
C754 H748 0.949 . S
C754 C758 1.368 . S
C755 C736 1.429 1_545 S
C755 C749 1.429 . S
C755 C756 1.523 . S
C756 C737 1.368 . S
C756 C750 1.368 1_545 S
C756 C755 1.523 . S
C757 C741 1.429 . S
C757 C753 1.427 . S
C757 C758 1.523 . S
C758 C742 1.368 1_545 S
C758 C754 1.368 . S
C758 C757 1.523 . S
H759 C734 0.950 . S
H760 C736 0.950 . S
H761 C737 0.949 . S
H762 C739 0.950 . S
H763 C741 0.950 . S
C764 C765 1.349 . S
C764 C766 1.327 . S
C764 H789 0.950 . S
C765 C764 1.349 . S
C765 C781 1.349 . S
C766 C764 1.327 . S
C766 C785 1.429 . S
C766 H790 0.950 . S
C767 C784 1.574 . S
C767 C786 1.368 . S
C767 H791 0.949 . S
H768 C772 0.949 . S
C769 C770 1.349 . S
C769 C771 1.327 1_556 S
C769 H792 0.950 1_556 S
C770 C769 1.349 . S
C770 C782 1.349 . S
C771 C769 1.327 1_554 S
C771 C787 1.429 . S
C771 H793 0.950 . S
C772 H768 0.949 . S
C772 C780 1.574 . S
C772 C788 1.368 . S
H773 C781 0.950 . S
H774 C779 0.950 . S
H775 C780 0.949 . S
H776 C782 0.950 . S
H777 C783 0.950 . S
H778 C784 0.949 . S
C779 H774 0.950 . S
C779 C781 1.327 . S
C779 C785 1.429 . S
C780 C772 1.574 . S
C780 H775 0.949 . S
C780 C786 1.368 . S
C781 C765 1.349 . S
C781 H773 0.950 . S
C781 C779 1.327 . S
C782 C770 1.349 . S
C782 H776 0.950 . S
C782 C783 1.327 . S
C783 H777 0.950 . S
C783 C782 1.327 . S
C783 C787 1.429 1_556 S
C784 C767 1.574 . S
C784 H778 0.949 . S
C784 C788 1.368 . S
C785 C766 1.429 . S
C785 C779 1.429 . S
C785 C786 1.523 . S
C786 C767 1.368 . S
C786 C780 1.368 . S
C786 C785 1.523 . S
C787 C771 1.429 . S
C787 C783 1.429 1_554 S
C787 C788 1.523 . S
C788 C772 1.368 . S
C788 C784 1.368 . S
C788 C787 1.523 . S
H789 C764 0.950 . S
H790 C766 0.950 . S
H791 C767 0.949 . S
H792 C769 0.950 1_554 S
H793 C771 0.950 . S
C794 C795 1.349 . S
C794 C796 1.327 . S
C794 H819 0.950 . S
C795 C794 1.349 . S
C795 C811 1.349 . S
C796 C794 1.327 . S
C796 C815 1.429 . S
C796 H820 0.950 . S
C797 C814 1.574 . S
C797 C816 1.368 . S
C797 H821 0.949 . S
H798 C802 0.949 . S
C799 C800 1.349 . S
C799 C801 1.327 1_556 S
C799 H822 0.950 . S
C800 C799 1.349 . S
C800 C812 1.349 . S
C801 C799 1.327 1_554 S
C801 C817 1.429 . S
C801 H823 0.950 . S
C802 H798 0.949 . S
C802 C810 1.574 . S
C802 C818 1.368 . S
H803 C811 0.950 . S
H804 C809 0.950 . S
H805 C810 0.949 . S
H806 C812 0.950 . S
H807 C813 0.950 . S
H808 C814 0.949 . S
C809 H804 0.950 . S
C809 C811 1.327 . S
C809 C815 1.429 . S
C810 C802 1.574 . S
C810 H805 0.949 . S
C810 C816 1.368 . S
C811 C795 1.349 . S
C811 H803 0.950 . S
C811 C809 1.327 . S
C812 C800 1.349 . S
C812 H806 0.950 . S
C812 C813 1.327 . S
C813 H807 0.950 . S
C813 C812 1.327 . S
C813 C817 1.429 1_556 S
C814 C797 1.574 . S
C814 H808 0.949 . S
C814 C818 1.368 . S
C815 C796 1.429 . S
C815 C809 1.429 . S
C815 C816 1.523 . S
C816 C797 1.368 . S
C816 C810 1.368 . S
C816 C815 1.523 . S
C817 C801 1.429 . S
C817 C813 1.429 1_554 S
C817 C818 1.523 . S
C818 C802 1.368 . S
C818 C814 1.368 . S
C818 C817 1.523 . S
H819 C794 0.950 . S
H820 C796 0.950 . S
H821 C797 0.949 . S
H822 C799 0.950 . S
H823 C801 0.950 . S
C824 C825 1.349 . S
C824 C826 1.327 . S
C824 H849 0.950 . S
C825 C824 1.349 . S
C825 C841 1.349 . S
C826 C824 1.327 . S
C826 C845 1.429 . S
C826 H850 0.950 . S
C827 C844 1.574 . S
C827 C846 1.368 . S
C827 H851 0.949 . S
H828 C832 0.949 . S
C829 C830 1.349 . S
C829 C831 1.327 . S
C829 H852 0.950 . S
C830 C829 1.349 . S
C830 C842 1.349 . S
C831 C829 1.327 . S
C831 C847 1.429 . S
C831 H853 0.950 . S
C832 H828 0.949 . S
C832 C840 1.574 . S
C832 C848 1.368 . S
H833 C841 0.950 . S
H834 C839 0.950 . S
H835 C840 0.949 . S
H836 C842 0.950 . S
H837 C843 0.950 . S
H838 C844 0.949 . S
C839 H834 0.950 . S
C839 C841 1.327 . S
C839 C845 1.429 . S
C840 C832 1.574 . S
C840 H835 0.949 . S
C840 C846 1.368 . S
C841 C825 1.349 . S
C841 H833 0.950 . S
C841 C839 1.327 . S
C842 C830 1.349 . S
C842 H836 0.950 . S
C842 C843 1.327 . S
C843 H837 0.950 . S
C843 C842 1.327 . S
C843 C847 1.429 . S
C844 C827 1.574 . S
C844 H838 0.949 . S
C844 C848 1.368 . S
C845 C826 1.429 . S
C845 C839 1.429 . S
C845 C846 1.523 . S
C846 C827 1.368 . S
C846 C840 1.368 . S
C846 C845 1.523 . S
C847 C831 1.429 . S
C847 C843 1.429 . S
C847 C848 1.523 . S
C848 C832 1.368 . S
C848 C844 1.368 . S
C848 C847 1.523 . S
H849 C824 0.950 . S
H850 C826 0.950 . S
H851 C827 0.949 . S
H852 C829 0.950 . S
H853 C831 0.950 . S
C854 C855 1.364 . S
C854 C856 1.327 . S
C854 H879 0.950 . S
C855 C854 1.364 . S
C855 C871 1.333 1_565 S
C856 C854 1.327 . S
C856 C875 1.429 . S
C856 H880 0.950 . S
C857 C874 1.574 . S
C857 C876 1.368 1_545 S
C857 H881 0.949 . S
H858 C862 0.949 . S
C859 C860 1.349 1_545 S
C859 C861 1.327 . S
C859 H882 0.950 . S
C860 C859 1.349 1_565 S
C860 C872 1.349 . S
C861 C859 1.327 . S
C861 C877 1.429 1_545 S
C861 H883 0.950 . S
C862 H858 0.949 . S
C862 C870 1.574 . S
C862 C878 1.368 . S
H863 C871 0.950 . S
H864 C869 0.950 . S
H865 C870 0.949 . S
H866 C872 0.950 . S
H867 C873 0.950 . S
H868 C874 0.949 . S
C869 H864 0.950 . S
C869 C871 1.327 . S
C869 C875 1.429 1_545 S
C870 C862 1.574 . S
C870 H865 0.949 . S
C870 C876 1.368 . S
C871 C855 1.333 1_545 S
C871 H863 0.950 . S
C871 C869 1.327 . S
C872 C860 1.349 . S
C872 H866 0.950 . S
C872 C873 1.327 . S
C873 H867 0.950 . S
C873 C872 1.327 . S
C873 C877 1.429 . S
C874 C857 1.574 . S
C874 H868 0.949 . S
C874 C878 1.368 1_545 S
C875 C856 1.429 . S
C875 C869 1.429 1_565 S
C875 C876 1.523 . S
C876 C857 1.368 1_565 S
C876 C870 1.368 . S
C876 C875 1.523 . S
C877 C861 1.429 1_565 S
C877 C873 1.429 . S
C877 C878 1.523 . S
C878 C862 1.368 . S
C878 C874 1.368 1_565 S
C878 C877 1.523 . S
H879 C854 0.950 . S
H880 C856 0.950 . S
H881 C857 0.949 . S
H882 C859 0.950 . S
H883 C861 0.950 . S
C884 C885 1.349 . S
C884 C886 1.327 . S
C884 H909 0.950 . S
C885 C884 1.349 . S
C885 C901 1.349 . S
C886 C884 1.327 . S
C886 C905 1.429 . S
C886 H910 0.950 . S
C887 C904 1.574 . S
C887 C906 1.368 . S
C887 H911 0.949 . S
H888 C892 0.949 . S
C889 C890 1.349 . S
C889 C891 1.327 . S
C889 H912 0.950 . S
C890 C889 1.349 . S
C890 C902 1.349 . S
C891 C889 1.327 . S
C891 C907 1.429 . S
C891 H913 0.950 . S
C892 H888 0.949 . S
C892 C900 1.574 . S
C892 C908 1.368 . S
H893 C901 0.950 . S
H894 C899 0.950 . S
H895 C900 0.949 . S
H896 C902 0.950 . S
H897 C903 0.950 . S
H898 C904 0.949 . S
C899 H894 0.950 . S
C899 C901 1.327 . S
C899 C905 1.429 . S
C900 C892 1.574 . S
C900 H895 0.949 . S
C900 C906 1.368 . S
C901 C885 1.349 . S
C901 H893 0.950 . S
C901 C899 1.327 . S
C902 C890 1.349 . S
C902 H896 0.950 . S
C902 C903 1.327 . S
C903 H897 0.950 . S
C903 C902 1.327 . S
C903 C907 1.429 . S
C904 C887 1.574 . S
C904 H898 0.949 . S
C904 C908 1.368 . S
C905 C886 1.429 . S
C905 C899 1.429 . S
C905 C906 1.523 . S
C906 C887 1.368 . S
C906 C900 1.368 . S
C906 C905 1.523 . S
C907 C891 1.429 . S
C907 C903 1.429 . S
C907 C908 1.523 . S
C908 C892 1.368 . S
C908 C904 1.368 . S
C908 C907 1.523 . S
H909 C884 0.950 . S
H910 C886 0.950 . S
H911 C887 0.949 . S
H912 C889 0.950 . S
H913 C891 0.950 . S
C914 C915 1.349 . S
C914 C916 1.327 . S
C914 H939 0.950 . S
C915 C914 1.349 . S
C915 C931 1.349 . S
C916 C914 1.327 . S
C916 C935 1.429 . S
C916 H940 0.950 . S
C917 C934 1.574 . S
C917 C936 1.368 . S
C917 H941 0.949 . S
H918 C922 0.949 . S
C919 C920 1.349 . S
C919 C921 1.327 . S
C919 H942 0.950 . S
C920 C919 1.349 . S
C920 C932 1.349 . S
C921 C919 1.327 . S
C921 C937 1.429 . S
C921 H943 0.950 . S
C922 H918 0.949 . S
C922 C930 1.574 . S
C922 C938 1.368 . S
H923 C931 0.950 . S
H924 C929 0.950 . S
H925 C930 0.949 . S
H926 C932 0.950 . S
H927 C933 0.950 . S
H928 C934 0.949 . S
C929 H924 0.950 . S
C929 C931 1.327 . S
C929 C935 1.429 . S
C930 C922 1.574 . S
C930 H925 0.949 . S
C930 C936 1.368 . S
C931 C915 1.349 . S
C931 H923 0.950 . S
C931 C929 1.327 . S
C932 C920 1.349 . S
C932 H926 0.950 . S
C932 C933 1.327 . S
C933 H927 0.950 . S
C933 C932 1.327 . S
C933 C937 1.429 . S
C934 C917 1.574 . S
C934 H928 0.949 . S
C934 C938 1.368 . S
C935 C916 1.429 . S
C935 C929 1.429 . S
C935 C936 1.523 . S
C936 C917 1.368 . S
C936 C930 1.368 . S
C936 C935 1.523 . S
C937 C921 1.429 . S
C937 C933 1.429 . S
C937 C938 1.523 . S
C938 C922 1.368 . S
C938 C934 1.368 . S
C938 C937 1.523 . S
H939 C914 0.950 . S
H940 C916 0.950 . S
H941 C917 0.949 . S
H942 C919 0.950 . S
H943 C921 0.950 . S
C225 N80 1.665 . S
C230 C114 1.668 . S
C260 C144 1.820 . S
C255 N93 1.804 . S
C290 N178 1.370 . S
C285 N54 1.409 . S
C320 N208 1.351 . S
C315 N67 1.378 . S
C350 C105 1.668 . S
C345 N28 1.669 1_545 S
C375 N41 1.816 . S
C380 C135 1.826 . S
C405 N2 1.412 . S
C410 N170 1.371 . S
C435 N15 1.386 . S
C440 N200 1.348 1_655 S
C470 C120 0.225 . S
C465 N70 0.244 . S
C500 C150 0.468 . S
C495 N83 0.457 1_545 S
C530 C191 0.735 . S
C525 N96 0.735 . S
C555 N57 0.319 . S
C560 C221 0.337 . S
C585 N18 0.224 . S
C590 C131 0.226 . S
C620 C161 0.468 . S
C615 N31 0.457 . S
C650 C180 0.735 . S
C645 N44 0.735 . S
C675 N5 0.314 . S
C680 C210 0.337 . S
C705 N66 1.490 . S
C710 N110 1.455 1_554 S
C735 N79 1.467 1_545 S
C740 N140 1.426 1_554 S
C770 C165 1.645 . S
C765 N92 1.638 . S
C800 C195 1.595 . S
C795 N53 1.590 . S
C825 N14 1.500 . S
C830 N118 1.465 . S
C860 N148 1.426 . S
C855 N27 1.467 . S
C890 C174 1.645 . S
C885 N40 1.646 . S
C915 N1 1.592 . S
C920 C204 1.595 . S
