# Generated by pormake.
# Topology pyr, (3,6)-cn, num edge types: 1
# Building blocks:
#     Node 0, Type 0, BuildingBlock: MIDCAF_clean_linker_0, # of connection points: 3
#     Node 1, Type 0, BuildingBlock: MIDCAF_clean_linker_0, # of connection points: 3
#     Node 2, Type 0, BuildingBlock: MIDCAF_clean_linker_0, # of connection points: 3
#     Node 3, Type 0, BuildingBlock: MIDCAF_clean_linker_0, # of connection points: 3
#     Node 4, Type 0, BuildingBlock: MIDCAF_clean_linker_0, # of connection points: 3
#     Node 5, Type 0, BuildingBlock: MIDCAF_clean_linker_0, # of connection points: 3
#     Node 6, Type 0, BuildingBlock: MIDCAF_clean_linker_0, # of connection points: 3
#     Node 7, Type 0, BuildingBlock: MIDCAF_clean_linker_0, # of connection points: 3
#     Node 8, Type 1, BuildingBlock: BETFEN_clean_sbu_0, # of connection points: 6
#     Node 9, Type 1, BuildingBlock: BETFEN_clean_sbu_0, # of connection points: 6
#     Node 10, Type 1, BuildingBlock: BETFEN_clean_sbu_0, # of connection points: 6
#     Node 11, Type 1, BuildingBlock: BETFEN_clean_sbu_0, # of connection points: 6
#     Edge 12, Type (0, 1), BuildingBlock: XIVTED_clean_linker_0, # of connection points: 2
#     Edge 13, Type (0, 1), BuildingBlock: XIVTED_clean_linker_0, # of connection points: 2
#     Edge 14, Type (0, 1), BuildingBlock: XIVTED_clean_linker_0, # of connection points: 2
#     Edge 15, Type (0, 1), BuildingBlock: XIVTED_clean_linker_0, # of connection points: 2
#     Edge 16, Type (0, 1), BuildingBlock: XIVTED_clean_linker_0, # of connection points: 2
#     Edge 17, Type (0, 1), BuildingBlock: XIVTED_clean_linker_0, # of connection points: 2
#     Edge 18, Type (0, 1), BuildingBlock: XIVTED_clean_linker_0, # of connection points: 2
#     Edge 19, Type (0, 1), BuildingBlock: XIVTED_clean_linker_0, # of connection points: 2
#     Edge 20, Type (0, 1), BuildingBlock: XIVTED_clean_linker_0, # of connection points: 2
#     Edge 21, Type (0, 1), BuildingBlock: XIVTED_clean_linker_0, # of connection points: 2
#     Edge 22, Type (0, 1), BuildingBlock: XIVTED_clean_linker_0, # of connection points: 2
#     Edge 23, Type (0, 1), BuildingBlock: XIVTED_clean_linker_0, # of connection points: 2
#     Edge 24, Type (0, 1), BuildingBlock: XIVTED_clean_linker_0, # of connection points: 2
#     Edge 25, Type (0, 1), BuildingBlock: XIVTED_clean_linker_0, # of connection points: 2
#     Edge 26, Type (0, 1), BuildingBlock: XIVTED_clean_linker_0, # of connection points: 2
#     Edge 27, Type (0, 1), BuildingBlock: XIVTED_clean_linker_0, # of connection points: 2
#     Edge 28, Type (0, 1), BuildingBlock: XIVTED_clean_linker_0, # of connection points: 2
#     Edge 29, Type (0, 1), BuildingBlock: XIVTED_clean_linker_0, # of connection points: 2
#     Edge 30, Type (0, 1), BuildingBlock: XIVTED_clean_linker_0, # of connection points: 2
#     Edge 31, Type (0, 1), BuildingBlock: XIVTED_clean_linker_0, # of connection points: 2
#     Edge 32, Type (0, 1), BuildingBlock: XIVTED_clean_linker_0, # of connection points: 2
#     Edge 33, Type (0, 1), BuildingBlock: XIVTED_clean_linker_0, # of connection points: 2
#     Edge 34, Type (0, 1), BuildingBlock: XIVTED_clean_linker_0, # of connection points: 2
#     Edge 35, Type (0, 1), BuildingBlock: XIVTED_clean_linker_0, # of connection points: 2
# Relax obj value: 0.133
# Max RMSD: 0.234
# Mean RMSD: 0.112
data_MOF--net-pyr--node1-BETFEN_clean_sbu_0--node2-MIDCAF_clean_linker_0--edge1-XIVTED_clean_linker_0
_symmetry_space_group_name_H-M    P1
_symmetry_Int_Tables_number       1
_symmetry_cell_setting            triclinic
loop_
_symmetry_equiv_pos_as_xyz
'x, y, z'
_cell_length_a     45.251723
_cell_length_b     49.903245
_cell_length_c     45.998201
_cell_angle_alpha  91.638769
_cell_angle_beta   97.992102
_cell_angle_gamma 108.17306
loop_
_atom_site_label
_atom_site_type_symbol
_atom_site_fract_x
_atom_site_fract_y
_atom_site_fract_z
_atom_type_partial_charge
C0 C 0.3112 0.30846 0.37063 0.0
C1 C 0.31556 0.28282 0.37844 0.0
C2 C 0.34134 0.27604 0.37042 0.0
C3 C 0.36071 0.29326 0.35263 0.0
H4 H 0.4185 0.2856 0.29805 0.0
H5 H 0.43896 0.25559 0.2701 0.0
H6 H 0.44004 0.30869 0.19737 0.0
H7 H 0.41826 0.33837 0.22509 0.0
H8 H 0.36077 0.36608 0.21862 0.0
H9 H 0.3252 0.38765 0.19117 0.0
H10 H 0.30603 0.41847 0.27294 0.0
H11 H 0.34078 0.39618 0.30034 0.0
H12 H 0.32516 0.34433 0.34535 0.0
H13 H 0.29149 0.31417 0.37657 0.0
H14 H 0.34549 0.25658 0.3766 0.0
H15 H 0.37924 0.28646 0.34551 0.0
N16 N 0.38891 0.32041 0.30473 0.0
N17 N 0.38777 0.34915 0.26546 0.0
N18 N 0.3593 0.35136 0.30389 0.0
C19 C 0.39845 0.32929 0.27893 0.0
C20 C 0.3685 0.36055 0.27805 0.0
C21 C 0.36942 0.33132 0.31744 0.0
C22 C 0.41615 0.31421 0.26369 0.0
C23 C 0.42344 0.29123 0.27626 0.0
C24 C 0.4355 0.27404 0.26023 0.0
C25 C 0.44091 0.27948 0.23129 0.0
C26 C 0.43554 0.30353 0.21938 0.0
C27 C 0.42324 0.32068 0.23538 0.0
C28 C 0.35311 0.37896 0.26166 0.0
C29 C 0.34956 0.37804 0.23075 0.0
C30 C 0.32918 0.39047 0.21499 0.0
C31 C 0.31223 0.40425 0.22986 0.0
C32 C 0.31805 0.40731 0.2608 0.0
C33 C 0.33812 0.39467 0.27652 0.0
C34 C 0.35446 0.31748 0.34222 0.0
C35 C 0.33046 0.32565 0.35262 0.0
C36 C 0.20706 0.87741 0.67771 0.0
C37 C 0.19001 0.86918 0.64927 0.0
C38 C 0.19226 0.84533 0.63382 0.0
C39 C 0.21159 0.83024 0.64654 0.0
H40 H 0.29075 0.79357 0.63028 0.0
H41 H 0.31806 0.76562 0.60649 0.0
H42 H 0.31862 0.71709 0.68268 0.0
H43 H 0.29182 0.74494 0.70636 0.0
H44 H 0.33618 0.81314 0.75926 0.0
H45 H 0.36257 0.8323 0.80842 0.0
H46 H 0.28033 0.85323 0.82543 0.0
H47 H 0.25478 0.83557 0.77532 0.0
H48 H 0.23875 0.86939 0.7125 0.0
H49 H 0.20551 0.89548 0.6903 0.0
H50 H 0.17945 0.83861 0.61176 0.0
H51 H 0.21301 0.81205 0.63411 0.0
N52 N 0.25827 0.80431 0.67328 0.0
N53 N 0.28841 0.79654 0.71616 0.0
N54 N 0.25987 0.82808 0.7186 0.0
C55 C 0.27777 0.79086 0.68685 0.0
C56 C 0.27955 0.81507 0.73217 0.0
C57 C 0.24906 0.82288 0.68925 0.0
C58 C 0.28933 0.77148 0.6702 0.0
C59 C 0.29614 0.77651 0.64158 0.0
C60 C 0.31194 0.7607 0.6281 0.0
C61 C 0.32053 0.73926 0.6428 0.0
C62 C 0.31209 0.7333 0.6707 0.0
C63 C 0.29688 0.74935 0.68433 0.0
C64 C 0.29354 0.82311 0.76337 0.0
C65 C 0.32359 0.82151 0.77364 0.0
C66 C 0.33866 0.83238 0.80203 0.0
C67 C 0.32379 0.8446 0.82109 0.0
C68 C 0.29293 0.8447 0.81123 0.0
C69 C 0.27813 0.83438 0.78257 0.0
C70 C 0.2286 0.83852 0.67511 0.0
C71 C 0.22598 0.86225 0.6905 0.0
C72 C 0.59122 0.24576 0.89428 0.0
C73 C 0.57054 0.22193 0.87697 0.0
C74 C 0.56 0.22504 0.84731 0.0
C75 C 0.5714 0.25112 0.83496 0.0
H76 H 0.55364 0.33329 0.78374 0.0
H77 H 0.53597 0.35819 0.74286 0.0
H78 H 0.62957 0.38422 0.71996 0.0
H79 H 0.64723 0.36002 0.76084 0.0
H80 H 0.69446 0.393 0.83092 0.0
H81 H 0.74487 0.42117 0.85956 0.0
H82 H 0.73691 0.35628 0.92094 0.0
H83 H 0.68666 0.32857 0.893 0.0
H84 H 0.61894 0.28913 0.89625 0.0
H85 H 0.59912 0.24443 0.91737 0.0
H86 H 0.54395 0.20708 0.83339 0.0
H87 H 0.564 0.25262 0.81181 0.0
N88 N 0.59752 0.30968 0.81367 0.0
N89 N 0.64308 0.34963 0.81752 0.0
N90 N 0.63848 0.31722 0.8535 0.0
C91 C 0.61431 0.33408 0.80275 0.0
C92 C 0.65528 0.34138 0.843 0.0
C93 C 0.60982 0.30115 0.83925 0.0
C94 C 0.60181 0.34474 0.7755 0.0
C95 C 0.57019 0.34386 0.76956 0.0
C96 C 0.56017 0.35828 0.74634 0.0
C97 C 0.58142 0.37322 0.72823 0.0
C98 C 0.61258 0.37276 0.73332 0.0
C99 C 0.62271 0.35896 0.75682 0.0
C100 C 0.68633 0.35852 0.85965 0.0
C101 C 0.70346 0.38476 0.85054 0.0
C102 C 0.73242 0.40088 0.86689 0.0
C103 C 0.74481 0.39111 0.8927 0.0
C104 C 0.72778 0.36477 0.90156 0.0
C105 C 0.69896 0.34873 0.88531 0.0
C106 C 0.59348 0.27448 0.85211 0.0
C107 C 0.60248 0.27154 0.88209 0.0
C108 C 0.79267 0.62332 0.40941 0.0
C109 C 0.76572 0.60183 0.39546 0.0
C110 C 0.76546 0.59208 0.36626 0.0
C111 C 0.79084 0.60458 0.35108 0.0
H112 H 0.85678 0.59306 0.28903 0.0
H113 H 0.87396 0.5731 0.24783 0.0
H114 H 0.92819 0.657 0.22966 0.0
H115 H 0.91107 0.677 0.27082 0.0
H116 H 0.9067 0.73598 0.31753 0.0
H117 H 0.93009 0.78468 0.34051 0.0
H118 H 0.91844 0.75329 0.42601 0.0
H119 H 0.8949 0.70529 0.40333 0.0
H120 H 0.83758 0.65266 0.406 0.0
H121 H 0.79436 0.63089 0.43208 0.0
H122 H 0.74515 0.57555 0.35475 0.0
H123 H 0.7894 0.59738 0.32834 0.0
N124 N 0.84968 0.63282 0.32389 0.0
N125 N 0.88882 0.67648 0.32062 0.0
N126 N 0.85887 0.67068 0.35899 0.0
C127 C 0.87311 0.64907 0.30981 0.0
C128 C 0.88182 0.68732 0.34537 0.0
C129 C 0.84244 0.64366 0.34859 0.0
C130 C 0.88244 0.63678 0.28357 0.0
C131 C 0.87223 0.60736 0.27622 0.0
C132 C 0.88231 0.59583 0.25259 0.0
C133 C 0.90264 0.61332 0.23522 0.0
C134 C 0.91236 0.64277 0.24222 0.0
C135 C 0.90261 0.65427 0.26606 0.0
C136 C 0.89892 0.7167 0.35856 0.0
C137 C 0.90949 0.73954 0.34124 0.0
C138 C 0.9226 0.76742 0.35437 0.0
C139 C 0.92612 0.77289 0.38513 0.0
C140 C 0.91631 0.74989 0.40234 0.0
C141 C 0.9027 0.72232 0.38926 0.0
C142 C 0.81697 0.62714 0.36478 0.0
C143 C 0.81771 0.63576 0.39437 0.0
C144 C 0.60348 0.75537 0.79614 0.0
C145 C 0.59374 0.7481 0.82338 0.0
C146 C 0.59612 0.72271 0.83441 0.0
C147 C 0.60962 0.70589 0.81938 0.0
H148 H 0.65458 0.64644 0.83521 0.0
H149 H 0.68011 0.61763 0.86466 0.0
H150 H 0.72847 0.607 0.79266 0.0
H151 H 0.70254 0.63497 0.76311 0.0
H152 H 0.71479 0.68096 0.71609 0.0
H153 H 0.75315 0.70956 0.68742 0.0
H154 H 0.7158 0.77847 0.69663 0.0
H155 H 0.67733 0.75018 0.72486 0.0
H156 H 0.62503 0.74553 0.76073 0.0
H157 H 0.60242 0.77488 0.78705 0.0
H158 H 0.58831 0.71619 0.85506 0.0
H159 H 0.61218 0.68706 0.82908 0.0
N160 N 0.64634 0.67682 0.79184 0.0
N161 N 0.68028 0.67624 0.75779 0.0
N162 N 0.65398 0.70984 0.75612 0.0
C163 C 0.66638 0.66511 0.78101 0.0
C164 C 0.67417 0.69856 0.74516 0.0
C165 C 0.63975 0.69906 0.77925 0.0
C166 C 0.6769 0.64346 0.79693 0.0
C167 C 0.67008 0.6374 0.8254 0.0
C168 C 0.68488 0.62103 0.84239 0.0
C169 C 0.70666 0.6103 0.8312 0.0
C170 C 0.71166 0.61469 0.80198 0.0
C171 C 0.69694 0.63102 0.78505 0.0
C172 C 0.69325 0.71339 0.72322 0.0
C173 C 0.71429 0.70199 0.71149 0.0
C174 C 0.73619 0.71827 0.69501 0.0
C175 C 0.73761 0.74626 0.69028 0.0
C176 C 0.71535 0.75701 0.70033 0.0
C177 C 0.69325 0.7407 0.71643 0.0
C178 C 0.62098 0.71409 0.79297 0.0
C179 C 0.61678 0.73855 0.78109 0.0
C180 C 0.74196 0.16989 0.25222 0.0
C181 C 0.71075 0.16893 0.24227 0.0
C182 C 0.69471 0.17939 0.26158 0.0
C183 C 0.70929 0.19034 0.29001 0.0
H184 H 0.69369 0.22703 0.36058 0.0
H185 H 0.66924 0.25759 0.3825 0.0
H186 H 0.75114 0.29025 0.44942 0.0
H187 H 0.77611 0.25908 0.4273 0.0
H188 H 0.80725 0.19617 0.43163 0.0
H189 H 0.84492 0.17352 0.4535 0.0
H190 H 0.87152 0.16356 0.36827 0.0
H191 H 0.83411 0.18612 0.34642 0.0
H192 H 0.78039 0.18074 0.28806 0.0
H193 H 0.7552 0.16236 0.23787 0.0
H194 H 0.67043 0.17839 0.25513 0.0
H195 H 0.69586 0.19775 0.30428 0.0
N196 N 0.74129 0.216 0.34697 0.0
N197 N 0.778 0.21758 0.38884 0.0
N198 N 0.77979 0.19437 0.34412 0.0
C199 C 0.75277 0.2245 0.37571 0.0
C200 C 0.79163 0.20246 0.37301 0.0
C201 C 0.75455 0.20104 0.33099 0.0
C202 C 0.73718 0.24099 0.39184 0.0
C203 C 0.70667 0.2406 0.38001 0.0
C204 C 0.69259 0.25819 0.39254 0.0
C205 C 0.70857 0.27678 0.41724 0.0
C206 C 0.73838 0.27619 0.43025 0.0
C207 C 0.75263 0.25839 0.41761 0.0
C208 C 0.81747 0.1927 0.38724 0.0
C209 C 0.82156 0.18963 0.41767 0.0
C210 C 0.84296 0.1765 0.43016 0.0
C211 C 0.86098 0.16659 0.41254 0.0
C212 C 0.85812 0.17111 0.38244 0.0
C213 C 0.83651 0.18389 0.36991 0.0
C214 C 0.74018 0.19075 0.30018 0.0
C215 C 0.75647 0.18054 0.28095 0.0
C216 C 0.29584 0.62587 0.17771 0.0
C217 C 0.28204 0.63891 0.15544 0.0
C218 C 0.29741 0.66736 0.1512 0.0
C219 C 0.32587 0.68244 0.1688 0.0
H220 H 0.38368 0.76715 0.2109 0.0
H221 H 0.40418 0.81223 0.19014 0.0
H222 H 0.49504 0.7998 0.19488 0.0
H223 H 0.47447 0.75488 0.21707 0.0
H224 H 0.45181 0.71066 0.30026 0.0
H225 H 0.46577 0.68503 0.34203 0.0
H226 H 0.41235 0.60571 0.2927 0.0
H227 H 0.39811 0.63096 0.25175 0.0
H228 H 0.33431 0.63017 0.21221 0.0
H229 H 0.28477 0.60389 0.18134 0.0
H230 H 0.2872 0.67818 0.13454 0.0
H231 H 0.3369 0.70436 0.16491 0.0
N232 N 0.38467 0.71292 0.20549 0.0
N233 N 0.42582 0.71519 0.2439 0.0
N234 N 0.38326 0.67316 0.2314 0.0
C235 C 0.4125 0.72786 0.22217 0.0
C236 C 0.41097 0.68762 0.24864 0.0
C237 C 0.36995 0.68556 0.2098 0.0
C238 C 0.42745 0.75748 0.21551 0.0
C239 C 0.40825 0.77436 0.20813 0.0
C240 C 0.41996 0.80009 0.19586 0.0
C241 C 0.4511 0.80947 0.18998 0.0
C242 C 0.47096 0.79337 0.19907 0.0
C243 C 0.45925 0.76764 0.21187 0.0
C244 C 0.42348 0.67294 0.27276 0.0
C245 C 0.44342 0.68775 0.29829 0.0
C246 C 0.45138 0.67304 0.32223 0.0
C247 C 0.43962 0.64325 0.32104 0.0
C248 C 0.42106 0.62861 0.29487 0.0
C249 C 0.41305 0.64318 0.27121 0.0
C250 C 0.33971 0.66945 0.19111 0.0
C251 C 0.32435 0.64094 0.19532 0.0
C252 C 0.14806 0.26734 0.6669 0.0
C253 C 0.11868 0.25016 0.67269 0.0
C254 C 0.10338 0.26158 0.69216 0.0
C255 C 0.11719 0.28936 0.70542 0.0
H256 H 0.10559 0.35651 0.76062 0.0
H257 H 0.08511 0.37623 0.79959 0.0
H258 H 0.17428 0.44245 0.82211 0.0
H259 H 0.19478 0.42293 0.7829 0.0
H260 H 0.22786 0.43718 0.70706 0.0
H261 H 0.2715 0.46063 0.68062 0.0
H262 H 0.2882 0.38089 0.66705 0.0
H263 H 0.24469 0.35777 0.69229 0.0
H264 H 0.18432 0.30719 0.67453 0.0
H265 H 0.16041 0.25971 0.6517 0.0
H266 H 0.08082 0.24897 0.69738 0.0
H267 H 0.10476 0.29742 0.72019 0.0
N268 N 0.14989 0.3482 0.73322 0.0
N269 N 0.19142 0.39123 0.73443 0.0
N270 N 0.18837 0.35236 0.70294 0.0
C271 C 0.16467 0.37559 0.7446 0.0
C272 C 0.20337 0.37958 0.71351 0.0
C273 C 0.16175 0.33642 0.71232 0.0
C274 C 0.15195 0.38804 0.76833 0.0
C275 C 0.12092 0.37531 0.77378 0.0
C276 C 0.10905 0.38674 0.79614 0.0
C277 C 0.12795 0.41101 0.81419 0.0
C278 C 0.15904 0.42364 0.80891 0.0
C279 C 0.17076 0.41249 0.7862 0.0
C280 C 0.2324 0.39549 0.7015 0.0
C281 C 0.24117 0.42484 0.69869 0.0
C282 C 0.26621 0.43825 0.68348 0.0
C283 C 0.28312 0.42261 0.67093 0.0
C284 C 0.27525 0.39361 0.67535 0.0
C285 C 0.25029 0.3803 0.69015 0.0
C286 C 0.14656 0.30651 0.69936 0.0
C287 C 0.16172 0.29492 0.67995 0.0
Pr288 Pr 0.99336 0.99996 0.5411 0.0
Pr289 Pr 0.04757 0.02418 0.51318 0.0
C290 C 0.94463 0.97013 0.56689 0.0
C291 C 0.93064 0.94401 0.58083 0.0
C292 C 0.9172 0.946 0.6061 0.0
C293 C 0.90171 0.9217 0.61897 0.0
C294 C 0.89934 0.89478 0.60683 0.0
C295 C 0.91337 0.8928 0.58174 0.0
C296 C 0.92901 0.91728 0.56885 0.0
C297 C 0.02451 0.05683 0.56208 0.0
C298 C 0.05799 0.98507 0.56482 0.0
C299 C 0.09685 0.05237 0.48715 0.0
C300 C 0.11338 0.07823 0.47417 0.0
C301 C 0.13187 0.076 0.45285 0.0
C302 C 0.14991 0.10014 0.44139 0.0
C303 C 0.14973 0.12712 0.45096 0.0
C304 C 0.13069 0.12929 0.47208 0.0
C305 C 0.11257 0.10496 0.48361 0.0
C306 C 0.01638 0.96714 0.49303 0.0
C307 C 0.98354 0.04076 0.49081 0.0
O308 O 0.94462 0.96842 0.53848 0.0
O309 O 0.96997 0.98855 0.5815 0.0
O310 O 0.03825 0.03877 0.55807 0.0
O311 O 0.99429 0.04571 0.55522 0.0
O312 O 0.07256 1.00845 0.55342 0.0
O313 O 0.02704 0.97461 0.55949 0.0
O314 O 0.09732 0.05359 0.51562 0.0
O315 O 0.07029 0.03593 0.47238 0.0
O316 O 1.00274 0.98541 0.4962 0.0
O317 O 0.04652 0.97804 0.50062 0.0
O318 O 0.96855 0.01757 0.50229 0.0
O319 O 1.01457 0.0503 0.49526 0.0
H320 H 0.91806 0.96644 0.61553 0.0
H321 H 0.89068 0.92401 0.63791 0.0
H322 H 0.91213 0.87238 0.57203 0.0
H323 H 0.93936 0.91529 0.54936 0.0
H324 H 0.13294 0.05553 0.44551 0.0
H325 H 0.16476 0.09766 0.42565 0.0
H326 H 0.12985 0.14973 0.47971 0.0
H327 H 0.09834 0.10702 0.50012 0.0
Pr328 Pr 0.49105 0.01925 0.04058 0.0
Pr329 Pr 0.54141 1.00495 1.01754 0.0
C330 C 0.45393 0.03412 0.07447 0.0
C331 C 0.45513 0.06076 0.08983 0.0
C332 C 0.46848 0.08679 0.0783 0.0
C333 C 0.47016 0.11207 0.09334 0.0
C334 C 0.45895 0.11176 0.12036 0.0
C335 C 0.44595 0.08567 0.13201 0.0
C336 C 0.44398 0.06036 0.1168 0.0
C337 C 0.50991 0.05088 0.99308 0.0
C338 C 0.56558 0.05457 0.06902 0.0
C339 C 0.57852 0.99023 0.98352 0.0
C340 C 0.57676 0.96384 0.96735 0.0
C341 C 0.5603 0.93755 0.97668 0.0
C342 C 0.55829 0.91251 0.96099 0.0
C343 C 0.57233 0.91337 0.93548 0.0
C344 C 0.58842 0.93976 0.926 0.0
C345 C 0.59068 0.96481 0.94188 0.0
C346 C 0.52223 0.97344 0.06502 0.0
C347 C 0.46705 0.96898 0.98959 0.0
O348 O 0.47567 0.02326 0.08489 0.0
O349 O 0.44875 0.03281 0.04571 0.0
O350 O 0.52847 0.04603 1.0139 0.0
O351 O 0.48082 0.03941 0.99653 0.0
O352 O 0.57408 0.04521 0.04562 0.0
O353 O 0.5361 0.04544 0.07362 0.0
O354 O 0.55743 1.00192 0.97338 0.0
O355 O 0.58309 0.99052 1.01223 0.0
O356 O 0.50388 0.97824 0.04401 0.0
O357 O 0.55141 0.98483 0.06178 0.0
O358 O 0.45865 0.97852 1.01297 0.0
O359 O 0.49643 0.97829 0.98473 0.0
H360 H 0.47773 0.0876 0.05772 0.0
H361 H 0.48062 0.13188 0.08404 0.0
H362 H 0.4369 0.08481 0.15268 0.0
H363 H 0.43384 0.04047 0.12612 0.0
H364 H 0.54894 0.93639 0.99607 0.0
H365 H 0.54544 0.89247 0.96859 0.0
H366 H 0.59967 0.94103 0.90655 0.0
H367 H 0.60326 0.98494 0.93428 0.0
Pr368 Pr 0.52775 0.54678 0.54256 0.0
Pr369 Pr 0.51012 0.48295 0.51095 0.0
C370 C 0.52697 0.60022 0.54908 0.0
C371 C 0.5112 0.61686 0.5641 0.0
C372 C 0.49201 0.60513 0.58496 0.0
C373 C 0.47306 0.61951 0.59542 0.0
C374 C 0.47277 0.64569 0.5849 0.0
C375 C 0.49294 0.65768 0.5647 0.0
C376 C 0.51196 0.64338 0.55443 0.0
C377 C 0.54442 0.51007 0.58219 0.0
C378 C 0.46123 0.4961 0.55307 0.0
C379 C 0.50896 0.4309 0.49274 0.0
C380 C 0.53179 0.41663 0.48722 0.0
C381 C 0.52338 0.39513 0.4645 0.0
C382 C 0.545 0.38188 0.45825 0.0
C383 C 0.57542 0.38983 0.47473 0.0
C384 C 0.58368 0.41117 0.49779 0.0
C385 C 0.56208 0.42462 0.50387 0.0
C386 C 0.48736 0.5214 0.4797 0.0
C387 C 0.58007 0.53203 0.50548 0.0
O388 O 0.50846 0.5815 0.52844 0.0
O389 O 0.54775 0.59114 0.56513 0.0
O390 O 0.53264 0.50499 0.55546 0.0
O391 O 0.54883 0.53656 0.58991 0.0
O392 O 0.47033 0.47652 0.5402 0.0
O393 O 0.47674 0.52358 0.5536 0.0
O394 O 0.50904 0.43853 0.52025 0.0
O395 O 0.50554 0.44977 0.47449 0.0
O396 O 0.51403 0.52656 0.49519 0.0
O397 O 0.47118 0.49462 0.47894 0.0
O398 O 0.57173 0.55191 0.51878 0.0
O399 O 0.56247 0.50494 0.50256 0.0
H400 H 0.49088 0.58447 0.59238 0.0
H401 H 0.45821 0.60984 0.6113 0.0
H402 H 0.49305 0.67753 0.55574 0.0
H403 H 0.52627 0.65249 0.53794 0.0
H404 H 0.50012 0.38872 0.45143 0.0
H405 H 0.53787 0.36529 0.44055 0.0
H406 H 0.60704 0.4179 0.51064 0.0
H407 H 0.56914 0.44139 0.52136 0.0
Pr408 Pr 1.00856 0.53439 1.00299 0.0
Pr409 Pr 0.01966 0.49125 0.04309 0.0
C410 C 0.98459 0.56752 0.96819 0.0
C411 C 0.95304 0.56905 0.95755 0.0
C412 C 0.94573 0.57444 0.92816 0.0
C413 C 0.91535 0.57415 0.91689 0.0
C414 C 0.89177 0.5686 0.9349 0.0
C415 C 0.89921 0.56348 0.96448 0.0
C416 C 0.92958 0.56348 0.97568 0.0
C417 C 0.07049 0.54978 0.03239 0.0
C418 C 0.98675 0.53399 0.06979 0.0
C419 C 0.04075 0.45587 0.07708 0.0
C420 C 0.0701 0.44995 0.0872 0.0
C421 C 0.06862 0.42434 0.0995 0.0
C422 C 0.09614 0.41952 0.1123 0.0
C423 C 0.12564 0.44032 0.11311 0.0
C424 C 0.12712 0.46552 0.09953 0.0
C425 C 0.09951 0.47031 0.08667 0.0
C426 C 0.95774 0.47672 1.01346 0.0
C427 C 0.04161 0.49154 0.97692 0.0
O428 O 0.99039 0.54529 0.95808 0.0
O429 O 0.99558 0.57433 0.99615 0.0
O430 O 0.04628 0.53854 0.04377 0.0
O431 O 0.06318 0.55543 1.00552 0.0
O432 O 1.00542 0.51881 0.0772 0.0
O433 O 0.98027 0.53904 0.04188 0.0
O434 O 0.03917 0.48005 0.08711 0.0
O435 O 0.02859 0.4493 0.04933 0.0
O436 O 0.98216 0.48723 1.00225 0.0
O437 O 0.96468 0.47152 0.04054 0.0
O438 O 0.0216 0.50541 0.9693 0.0
O439 O 0.04936 0.48793 1.00503 0.0
H440 H 0.96346 0.57857 0.91381 0.0
H441 H 0.91038 0.57853 0.89413 0.0
H442 H 0.88141 0.55898 0.97876 0.0
H443 H 0.9346 0.55882 0.99834 0.0
H444 H 0.04609 0.40838 0.09995 0.0
H445 H 0.09428 0.39968 0.12207 0.0
H446 H 0.14945 0.482 0.09994 0.0
H447 H 0.10102 0.49023 0.07717 0.0
H448 H 0.28652 0.28929 0.42584 0.0
H449 H 0.16176 0.13435 0.39457 0.0
H450 H 0.28781 0.22784 0.35854 0.0
H451 H 0.18505 0.17804 0.48121 0.0
H452 H 0.20124 0.17353 0.37746 0.0
H453 H 0.24337 0.25298 0.44358 0.0
C454 C 0.27781 0.26817 0.41495 0.0
C455 C 0.29092 0.26137 0.39097 0.0
C456 C 0.19762 0.17459 0.4002 0.0
C457 C 0.24152 0.22035 0.41048 0.0
C458 C 0.17511 0.15222 0.41001 0.0
C459 C 0.17047 0.15262 0.43953 0.0
C460 C 0.2155 0.19778 0.4199 0.0
C461 C 0.18783 0.17682 0.45827 0.0
C462 C 0.2533 0.24756 0.42503 0.0
C463 C 0.27875 0.23381 0.37744 0.0
N464 N 0.20979 0.19842 0.44818 0.0
N465 N 0.25466 0.21439 0.38727 0.0
H466 H 0.36885 0.83055 0.85873 0.0
H467 H 0.40368 0.95978 0.97788 0.0
H468 H 0.31922 0.89194 0.84992 0.0
H469 H 0.47706 0.92966 0.95327 0.0
H470 H 0.36565 0.92616 0.93984 0.0
H471 H 0.40216 0.85846 0.90261 0.0
C472 C 0.36475 0.84973 0.86595 0.0
C473 C 0.34134 0.85901 0.85009 0.0
C474 C 0.39005 0.92683 0.94305 0.0
C475 C 0.37877 0.89038 0.90092 0.0
C476 C 0.41167 0.94585 0.96472 0.0
C477 C 0.44351 0.94759 0.96843 0.0
C478 C 0.40032 0.90906 0.92558 0.0
C479 C 0.45274 0.92916 0.95081 0.0
C480 C 0.38368 0.8655 0.89111 0.0
C481 C 0.33662 0.88363 0.86134 0.0
N482 N 0.4312 0.91057 0.93013 0.0
N483 N 0.35524 0.8985 0.88601 0.0
H484 H 0.55045 0.41179 0.73404 0.0
H485 H 0.55099 0.45848 0.56901 0.0
H486 H 0.59199 0.37562 0.67079 0.0
H487 H 0.54813 0.5133 0.64191 0.0
H488 H 0.55763 0.42336 0.60363 0.0
H489 H 0.54017 0.4443 0.69792 0.0
C490 C 0.55696 0.41039 0.71239 0.0
C491 C 0.57211 0.39096 0.70543 0.0
C492 C 0.55549 0.44307 0.612 0.0
C493 C 0.56051 0.42818 0.66401 0.0
C494 C 0.55157 0.46302 0.59226 0.0
C495 C 0.54895 0.48876 0.60263 0.0
C496 C 0.55621 0.44872 0.64226 0.0
C497 C 0.55021 0.49376 0.63303 0.0
C498 C 0.55136 0.42912 0.6919 0.0
C499 C 0.58042 0.39038 0.67713 0.0
N500 N 0.55353 0.47388 0.65174 0.0
N501 N 0.57445 0.40865 0.65744 0.0
H502 H 0.92133 0.56571 0.23353 0.0
H503 H 0.95516 0.57351 0.06613 0.0
H504 H 0.91043 0.63252 0.17994 0.0
H505 H 0.98681 0.52078 0.12751 0.0
H506 H 0.93424 0.5926 0.10565 0.0
H507 H 0.94062 0.54625 0.19332 0.0
C508 C 0.92273 0.57624 0.21326 0.0
C509 C 0.91411 0.60092 0.21038 0.0
C510 C 0.94575 0.57683 0.11045 0.0
C511 C 0.93647 0.57852 0.16379 0.0
C512 C 0.95764 0.56582 0.08782 0.0
C513 C 0.97295 0.54544 0.09331 0.0
C514 C 0.94872 0.56724 0.13888 0.0
C515 C 0.97538 0.53647 0.12206 0.0
C516 C 0.934 0.56516 0.19029 0.0
C517 C 0.91702 0.61367 0.18349 0.0
N518 N 0.96339 0.54729 0.14356 0.0
N519 N 0.92776 0.60231 0.16134 0.0
H520 H 0.42029 0.26273 0.17262 0.0
H521 H 0.4786 0.12821 0.17899 0.0
H522 H 0.48002 0.24814 0.24813 0.0
H523 H 0.44266 0.15616 0.09766 0.0
H524 H 0.47875 0.17175 0.20498 0.0
H525 H 0.42868 0.22428 0.14459 0.0
C526 C 0.43567 0.25186 0.18321 0.0
C527 C 0.44926 0.25867 0.21296 0.0
C528 C 0.47108 0.16847 0.18141 0.0
C529 C 0.4582 0.21394 0.18106 0.0
C530 C 0.47077 0.14355 0.16663 0.0
C531 C 0.46045 0.13855 0.13618 0.0
C532 C 0.46058 0.18836 0.16568 0.0
C533 C 0.45095 0.15928 0.12113 0.0
C534 C 0.44023 0.2297 0.1672 0.0
C535 C 0.46847 0.24332 0.2255 0.0
N536 N 0.45096 0.18316 0.13608 0.0
N537 N 0.47207 0.22148 0.2096 0.0
H538 H 0.1293 0.84946 0.62 0.0
H539 H 0.12066 1.00354 0.58713 0.0
H540 H 0.20547 0.92657 0.6488 0.0
H541 H 0.03839 0.92922 0.57653 0.0
H542 H 0.15261 0.9752 0.60767 0.0
H543 H 0.09626 0.87772 0.60079 0.0
C544 C 0.13911 0.87231 0.62206 0.0
C545 C 0.17011 0.88571 0.63607 0.0
C546 C 0.12753 0.9651 0.60106 0.0
C547 C 0.13252 0.9181 0.61439 0.0
C548 C 0.10926 0.98129 0.58937 0.0
C549 C 0.0768 0.96874 0.58014 0.0
C550 C 0.11336 0.93603 0.60325 0.0
C551 C 0.06331 0.9398 0.58354 0.0
C552 C 0.12019 0.88842 0.61135 0.0
C553 C 0.18158 0.91539 0.63844 0.0
N554 N 0.0817 0.92435 0.59462 0.0
N555 N 0.16283 0.93056 0.62767 0.0
H556 H 0.79918 0.42171 0.87294 0.0
H557 H 0.90248 0.45087 0.03335 0.0
H558 H 0.7605 0.39882 0.95278 0.0
H559 H 0.94016 0.48177 0.95515 0.0
H560 H 0.84979 0.43342 1.00429 0.0
H561 H 0.85044 0.44599 0.90263 0.0
C562 C 0.80134 0.42205 0.8967 0.0
C563 C 0.77552 0.4079 0.91034 0.0
C564 C 0.86953 0.44413 0.99347 0.0
C565 C 0.83426 0.43531 0.94446 0.0
C566 C 0.8996 0.45404 1.01006 0.0
C567 C 0.92566 0.46743 0.99652 0.0
C568 C 0.86554 0.44754 0.96308 0.0
C569 C 0.92065 0.47126 0.96634 0.0
C570 C 0.83068 0.43579 0.91365 0.0
C571 C 0.77987 0.40888 0.94124 0.0
N572 N 0.89119 0.46117 0.95057 0.0
N573 N 0.80867 0.42213 0.9572 0.0
H574 H 0.74204 0.63198 0.43156 0.0
H575 H 0.60364 0.49917 0.47164 0.0
H576 H 0.72545 0.54683 0.39563 0.0
H577 H 0.62236 0.58537 0.50555 0.0
H578 H 0.64843 0.51525 0.44473 0.0
H579 H 0.69863 0.61449 0.45915 0.0
C580 C 0.72944 0.6095 0.42957 0.0
C581 C 0.73793 0.59089 0.41134 0.0
C582 C 0.6428 0.5306 0.45817 0.0
C583 C 0.68725 0.57054 0.44303 0.0
C584 C 0.61725 0.52143 0.4737 0.0
C585 C 0.60898 0.54088 0.49104 0.0
C586 C 0.66037 0.5595 0.45989 0.0
C587 C 0.62762 0.56947 0.49259 0.0
C588 C 0.7044 0.59951 0.44531 0.0
C589 C 0.71986 0.56206 0.40925 0.0
N590 N 0.65221 0.57783 0.47723 0.0
N591 N 0.69552 0.55278 0.42495 0.0
H592 H 0.2545 0.39786 0.24529 0.0
H593 H 0.18503 0.45324 0.09787 0.0
H594 H 0.30979 0.4285 0.17667 0.0
H595 H 0.13169 0.4189 0.16666 0.0
H596 H 0.23184 0.44667 0.12666 0.0
H597 H 0.21036 0.40826 0.21734 0.0
C598 C 0.25758 0.40723 0.22452 0.0
C599 C 0.2861 0.41251 0.21348 0.0
C600 C 0.20984 0.44056 0.13538 0.0
C601 C 0.23497 0.42387 0.18077 0.0
C602 C 0.18318 0.44438 0.11901 0.0
C603 C 0.15433 0.43637 0.12975 0.0
C604 C 0.20762 0.42883 0.16271 0.0
C605 C 0.15323 0.42487 0.15721 0.0
C606 C 0.23215 0.4129 0.20837 0.0
C607 C 0.2882 0.42393 0.18596 0.0
N608 N 0.17942 0.42146 0.17267 0.0
N609 N 0.26294 0.42919 0.1705 0.0
H610 H 0.51182 0.18146 0.87141 0.0
H611 H 0.56962 0.08472 0.98864 0.0
H612 H 0.60817 0.19879 0.91261 0.0
H613 H 0.47228 0.06864 0.95143 0.0
H614 H 0.58456 0.12431 0.95757 0.0
H615 H 0.49717 0.13772 0.89691 0.0
C616 C 0.52993 0.17595 0.88556 0.0
C617 C 0.5612 0.19407 0.89014 0.0
C618 C 0.55992 0.11205 0.95605 0.0
C619 C 0.54463 0.14412 0.91952 0.0
C620 C 0.55142 0.0894 0.97377 0.0
C621 C 0.51965 0.07347 0.97277 0.0
C622 C 0.53651 0.1189 0.93714 0.0
C623 C 0.49705 0.08046 0.95302 0.0
C624 C 0.52154 0.15106 0.90025 0.0
C625 C 0.58365 0.18584 0.90885 0.0
N626 N 0.50587 0.10271 0.93613 0.0
N627 N 0.57493 0.16165 0.92288 0.0
H628 H 0.91109 0.82075 0.37009 0.0
H629 H 0.04007 0.92348 0.49576 0.0
H630 H 0.97155 0.79193 0.43368 0.0
H631 H 0.95934 0.94506 0.45585 0.0
H632 H 0.01814 0.87675 0.46922 0.0
H633 H 0.93154 0.86802 0.39667 0.0
C634 C 0.92886 0.82442 0.38945 0.0
C635 C 0.93961 0.80228 0.39964 0.0
C636 C 1.00508 0.89159 0.46627 0.0
C637 C 0.96309 0.8563 0.43015 0.0
C638 C 0.01762 0.91833 0.48142 0.0
C639 C 1.00154 0.93825 0.47804 0.0
C640 C 0.97636 0.88462 0.44704 0.0
C641 C 0.97247 0.93031 0.45919 0.0
C642 C 0.9403 0.85132 0.40475 0.0
C643 C 0.96242 0.80824 0.42508 0.0
N644 N 0.96093 0.9042 0.44418 0.0
N645 N 0.97345 0.83457 0.43928 0.0
H646 H 0.31275 0.68254 0.63954 0.0
H647 H 0.48233 0.70262 0.59523 0.0
H648 H 0.37406 0.76267 0.619 0.0
H649 H 0.41168 0.62089 0.59385 0.0
H650 H 0.44403 0.72511 0.60647 0.0
H651 H 0.34945 0.65952 0.62483 0.0
C652 C 0.33383 0.69522 0.63167 0.0
C653 C 0.3404 0.72454 0.63048 0.0
C654 C 0.43692 0.70225 0.60368 0.0
C655 C 0.38268 0.69846 0.614 0.0
C656 C 0.45878 0.68936 0.59721 0.0
C657 C 0.45032 0.65973 0.59353 0.0
C658 C 0.40638 0.68547 0.60675 0.0
C659 C 0.41954 0.64374 0.59694 0.0
C660 C 0.35475 0.6821 0.62328 0.0
C661 C 0.36795 0.73998 0.61999 0.0
N662 N 0.39874 0.6568 0.60338 0.0
N663 N 0.38824 0.7268 0.61242 0.0
H664 H 0.75811 0.73838 0.63812 0.0
H665 H 0.89829 0.88561 0.66509 0.0
H666 H 0.77731 0.79708 0.71429 0.0
H667 H 0.85785 0.84557 0.57793 0.0
H668 H 0.86159 0.84683 0.68575 0.0
H669 H 0.80163 0.77177 0.61782 0.0
C670 C 0.77161 0.75821 0.65055 0.0
C671 C 0.764 0.76529 0.67765 0.0
C672 C 0.86092 0.84641 0.66211 0.0
C673 C 0.81371 0.80298 0.65509 0.0
C674 C 0.88182 0.86856 0.65029 0.0
C675 C 0.88074 0.86914 0.61968 0.0
C676 C 0.83882 0.82452 0.64326 0.0
C677 C 0.85949 0.84601 0.60164 0.0
C678 C 0.7963 0.77718 0.63902 0.0
C679 C 0.78216 0.79111 0.69308 0.0
N680 N 0.8391 0.82472 0.61369 0.0
N681 N 0.80617 0.80899 0.6816 0.0
H682 H 0.71624 0.12296 0.21152 0.0
H683 H 0.55614 0.09324 0.10654 0.0
H684 H 0.66694 0.18462 0.20511 0.0
H685 H 0.62863 0.06217 0.08144 0.0
H686 H 0.59495 0.12467 0.14539 0.0
H687 H 0.68383 0.09842 0.16568 0.0
C688 C 0.69906 0.13169 0.20033 0.0
C689 C 0.69409 0.15576 0.2126 0.0
C690 C 0.60241 0.1112 0.13115 0.0
C691 C 0.65639 0.12719 0.1606 0.0
C692 C 0.58029 0.09319 0.10913 0.0
C693 C 0.58927 0.07508 0.09091 0.0
C694 C 0.63349 0.11056 0.13541 0.0
C695 C 0.62086 0.07591 0.09504 0.0
C696 C 0.68046 0.11754 0.17422 0.0
C697 C 0.67105 0.1657 0.1971 0.0
N698 N 0.64182 0.09307 0.11722 0.0
N699 N 0.65271 0.15112 0.17219 0.0
H700 H 0.39849 0.59688 0.34055 0.0
H701 H 0.5243 0.57445 0.47044 0.0
H702 H 0.49425 0.65283 0.36093 0.0
H703 H 0.43229 0.51381 0.4421 0.0
H704 H 0.51221 0.60579 0.43393 0.0
H705 H 0.4091 0.56871 0.38067 0.0
C706 C 0.42185 0.60324 0.35337 0.0
C707 C 0.44565 0.62714 0.34691 0.0
C708 C 0.49458 0.58572 0.43578 0.0
C709 C 0.45784 0.59492 0.39353 0.0
C710 C 0.5014 0.56784 0.45672 0.0
C711 C 0.47925 0.54142 0.4593 0.0
C712 C 0.46534 0.5772 0.41725 0.0
C713 C 0.45007 0.53394 0.44084 0.0
C714 C 0.42783 0.58715 0.37646 0.0
C715 C 0.47515 0.63466 0.36502 0.0
N716 N 0.444 0.55167 0.42056 0.0
N717 N 0.48045 0.61853 0.38736 0.0
H718 H 0.06992 0.41862 0.81228 0.0
H719 H 0.09262 0.47161 0.98299 0.0
H720 H 0.15669 0.43099 0.87124 0.0
H721 H 0.02166 0.48442 0.91709 0.0
H722 H 0.114 0.45241 0.94388 0.0
H723 H 0.04941 0.43808 0.85166 0.0
C724 C 0.08466 0.42528 0.83353 0.0
C725 C 0.11519 0.42307 0.83824 0.0
C726 C 0.09378 0.45947 0.93799 0.0
C727 C 0.09158 0.44544 0.88385 0.0
C728 C 0.08147 0.47038 0.96036 0.0
C729 C 0.05524 0.4798 0.9535 0.0
C730 C 0.07952 0.45741 0.90842 0.0
C731 C 0.04195 0.47762 0.92361 0.0
C732 C 0.07296 0.43657 0.85602 0.0
C733 C 0.13317 0.43245 0.86635 0.0
N734 N 0.05404 0.46657 0.90236 0.0
N735 N 0.12108 0.44299 0.88803 0.0
H736 H 0.60723 0.76067 0.88321 0.0
H737 H 0.55826 0.90016 0.87595 0.0
H738 H 0.55861 0.78222 0.80428 0.0
H739 H 0.58267 0.86628 0.95775 0.0
H740 H 0.55827 0.85708 0.84919 0.0
H741 H 0.59737 0.79841 0.91111 0.0
C742 C 0.59394 0.77292 0.87178 0.0
C743 C 0.584 0.76832 0.8412 0.0
C744 C 0.56335 0.85895 0.873 0.0
C745 C 0.57342 0.81221 0.87304 0.0
C746 C 0.56357 0.8836 0.88825 0.0
C747 C 0.57066 0.88682 0.91907 0.0
C748 C 0.5707 0.83751 0.88868 0.0
C749 C 0.57694 0.86457 0.93398 0.0
C750 C 0.58854 0.79467 0.88774 0.0
C751 C 0.56736 0.78534 0.82766 0.0
N752 N 0.57712 0.84097 0.91863 0.0
N753 N 0.56293 0.80673 0.84359 0.0
H754 H 0.92107 0.17062 0.40399 0.0
H755 H 0.92013 0.03119 0.48549 0.0
H756 H 0.84545 0.12329 0.4483 0.0
H757 H 1.00534 0.09019 0.46404 0.0
H758 H 0.89103 0.06227 0.46656 0.0
H759 H 0.95129 0.13948 0.42147 0.0
C760 C 0.91092 0.15376 0.4175 0.0
C761 C 0.88076 0.14958 0.42481 0.0
C762 C 0.91608 0.0684 0.4659 0.0
C763 C 0.91495 0.11379 0.44451 0.0
C764 C 0.93273 0.05055 0.47653 0.0
C765 C 0.96531 0.0581 0.47645 0.0
C766 C 0.93198 0.09397 0.45486 0.0
C767 C 0.98026 0.08354 0.46458 0.0
C768 C 0.92816 0.13606 0.42748 0.0
C769 C 0.86876 0.12751 0.44247 0.0
N770 N 0.96348 0.1006 0.45428 0.0
N771 N 0.88579 0.11035 0.45154 0.0
H772 H 0.22974 0.60167 0.17261 0.0
H773 H 0.12465 0.58036 1.01325 0.0
H774 H 0.26469 0.64012 0.09603 0.0
H775 H 0.08911 0.54311 0.09004 0.0
H776 H 0.17708 0.59991 0.04254 0.0
H777 H 0.17909 0.57741 0.14206 0.0
C778 C 0.22688 0.60482 0.14932 0.0
C779 C 0.25151 0.6231 0.13692 0.0
C780 C 0.15785 0.58739 0.05299 0.0
C781 C 0.19338 0.59562 0.10185 0.0
C782 C 0.12795 0.57624 0.03627 0.0
C783 C 0.10253 0.56039 0.04936 0.0
C784 C 0.16234 0.58264 0.08301 0.0
C785 C 0.10808 0.55547 0.07919 0.0
C786 C 0.19787 0.59108 0.13191 0.0
C787 C 0.24624 0.62662 0.10666 0.0
N788 N 0.13736 0.56667 0.09506 0.0
N789 N 0.21776 0.61309 0.0902 0.0
H790 H 0.32769 0.47629 0.67785 0.0
H791 H 0.41741 0.44329 0.54937 0.0
H792 H 0.29574 0.39905 0.62125 0.0
H793 H 0.44105 0.52681 0.59259 0.0
H794 H 0.37357 0.42695 0.57683 0.0
H795 H 0.36961 0.49553 0.64814 0.0
C796 C 0.32926 0.46339 0.65917 0.0
C797 C 0.30817 0.43572 0.65251 0.0
C798 C 0.38818 0.44891 0.58027 0.0
C799 C 0.35651 0.45764 0.61847 0.0
C800 C 0.41337 0.4583 0.56454 0.0
C801 C 0.43316 0.48655 0.56853 0.0
C802 C 0.38263 0.4677 0.60059 0.0
C803 C 0.42644 0.50488 0.58861 0.0
C804 C 0.35334 0.47439 0.64226 0.0
C805 C 0.31175 0.42013 0.62796 0.0
N806 N 0.40193 0.49512 0.604 0.0
N807 N 0.33538 0.43119 0.61211 0.0
H808 H 0.73359 0.6266 0.88874 0.0
H809 H 0.85596 0.5429 0.88281 0.0
H810 H 0.72656 0.5653 0.81779 0.0
H811 H 0.85482 0.59445 0.95926 0.0
H812 H 0.80558 0.54734 0.86062 0.0
H813 H 0.77402 0.61111 0.91726 0.0
C814 C 0.73997 0.60942 0.87937 0.0
C815 C 0.72686 0.5975 0.8506 0.0
C816 C 0.81611 0.55743 0.88239 0.0
C817 C 0.77388 0.58016 0.88296 0.0
C818 C 0.84495 0.55503 0.89497 0.0
C819 C 0.85972 0.56865 0.92272 0.0
C820 C 0.8021 0.57388 0.8975 0.0
C821 C 0.84421 0.58365 0.9378 0.0
C822 C 0.76332 0.60074 0.89563 0.0
C823 C 0.7365 0.57556 0.8396 0.0
N824 N 0.81642 0.58619 0.92482 0.0
N825 N 0.75972 0.56788 0.85561 0.0
H826 H 0.41683 0.82592 0.14398 0.0
H827 H 0.55886 0.95732 0.10912 0.0
H828 H 0.50972 0.8506 0.19557 0.0
H829 H 0.46248 0.93866 0.06751 0.0
H830 H 0.54199 0.91839 0.14073 0.0
H831 H 0.43372 0.86681 0.11563 0.0
C832 C 0.44072 0.84009 0.1497 0.0
C833 C 0.4617 0.83476 0.17264 0.0
C834 C 0.52451 0.92289 0.1248 0.0
C835 C 0.48154 0.88174 0.13935 0.0
C836 C 0.53411 0.94512 0.10675 0.0
C837 C 0.51205 0.95118 0.08556 0.0
C838 C 0.4926 0.90645 0.12154 0.0
C839 C 0.4803 0.93472 0.0835 0.0
C840 C 0.45043 0.86344 0.13324 0.0
C841 C 0.49269 0.85362 0.17807 0.0
N842 N 0.47159 0.91306 0.1011 0.0
N843 N 0.50166 0.87621 0.16157 0.0
H844 H 0.05627 0.22206 0.65046 0.0
H845 H 0.0871 0.08323 0.58528 0.0
H846 H 0.14792 0.21102 0.66066 0.0
H847 H 0.99606 0.09531 0.57564 0.0
H848 H 0.11007 0.12977 0.613 0.0
H849 H 0.03384 0.17525 0.62395 0.0
C850 C 0.0717 0.20977 0.64742 0.0
C851 C 0.10417 0.22082 0.65785 0.0
C852 C 0.08506 0.12222 0.60482 0.0
C853 C 0.07852 0.16694 0.62692 0.0
C854 C 0.07196 0.09566 0.58895 0.0
C855 C 0.03957 0.08525 0.57819 0.0
C856 C 0.06565 0.13856 0.60998 0.0
C857 C 0.02112 0.10237 0.58358 0.0
C858 C 0.05887 0.18303 0.63201 0.0
C859 C 0.12287 0.20378 0.65269 0.0
N860 N 0.03435 0.12801 0.59905 0.0
N861 N 0.10985 0.17786 0.63763 0.0
H862 H 0.70275 0.29054 0.47424 0.0
H863 H 0.58837 0.3794 0.42026 0.0
H864 H 0.68172 0.30991 0.38445 0.0
H865 H 0.6151 0.36961 0.51209 0.0
H866 H 0.62441 0.35512 0.40756 0.0
H867 H 0.67343 0.32112 0.48971 0.0
C868 C 0.6923 0.30148 0.45789 0.0
C869 C 0.69418 0.29735 0.42798 0.0
C870 C 0.6226 0.35833 0.43054 0.0
C871 C 0.66063 0.33202 0.44534 0.0
C872 C 0.60185 0.37206 0.43777 0.0
C873 C 0.59852 0.37626 0.46723 0.0
C874 C 0.6401 0.34844 0.4529 0.0
C875 C 0.61704 0.36681 0.48908 0.0
C876 C 0.67549 0.3188 0.46667 0.0
C877 C 0.68024 0.31199 0.40766 0.0
N878 N 0.63688 0.35309 0.48147 0.0
N879 N 0.66391 0.32844 0.41667 0.0
loop_
_geom_bond_atom_site_label_1
_geom_bond_atom_site_label_2
_geom_bond_distance
_geom_bond_site_symmetry_2
_ccdc_geom_bond_type
C0 C1 1.384 . S
C0 H13 0.947 . S
C0 C35 1.382 . S
C1 C0 1.384 . S
C1 C2 1.378 . S
C2 C1 1.378 . S
C2 C3 1.378 . S
C2 H14 0.952 . S
C3 C2 1.378 . S
C3 H15 0.950 . S
C3 C34 1.383 . S
H4 C23 0.947 . S
H5 C24 0.946 . S
H6 C26 0.953 . S
H7 C27 0.945 . S
H8 C29 0.952 . S
H9 C30 0.949 . S
H10 C32 0.950 . S
H11 C33 0.948 . S
H12 C35 0.951 . S
H13 C0 0.947 . S
H14 C2 0.952 . S
H15 C3 0.950 . S
N16 C19 1.382 . S
N16 C21 1.363 . S
N17 C19 1.371 . S
N17 C20 1.372 . S
N18 C20 1.361 . S
N18 C21 1.377 . S
C19 N16 1.382 . S
C19 N17 1.371 . S
C19 C22 1.480 . S
C20 N17 1.372 . S
C20 N18 1.361 . S
C20 C28 1.457 . S
C21 N16 1.363 . S
C21 N18 1.377 . S
C21 C34 1.479 . S
C22 C19 1.480 . S
C22 C23 1.383 . S
C22 C27 1.385 . S
C23 H4 0.947 . S
C23 C22 1.383 . S
C23 C24 1.388 . S
C24 H5 0.946 . S
C24 C23 1.388 . S
C24 C25 1.384 . S
C25 C24 1.384 . S
C25 C26 1.377 . S
C26 H6 0.953 . S
C26 C25 1.377 . S
C26 C27 1.369 . S
C27 H7 0.945 . S
C27 C22 1.385 . S
C27 C26 1.369 . S
C28 C20 1.457 . S
C28 C29 1.372 . S
C28 C33 1.364 . S
C29 H8 0.952 . S
C29 C28 1.372 . S
C29 C30 1.389 . S
C30 H9 0.949 . S
C30 C29 1.389 . S
C30 C31 1.387 . S
C31 C30 1.387 . S
C31 C32 1.372 . S
C32 H10 0.950 . S
C32 C31 1.372 . S
C32 C33 1.379 . S
C33 H11 0.948 . S
C33 C28 1.364 . S
C33 C32 1.379 . S
C34 C3 1.383 . S
C34 C21 1.479 . S
C34 C35 1.398 . S
C35 C0 1.382 . S
C35 H12 0.951 . S
C35 C34 1.398 . S
C36 C37 1.384 . S
C36 H49 0.947 . S
C36 C71 1.382 . S
C37 C36 1.384 . S
C37 C38 1.378 . S
C38 C37 1.378 . S
C38 C39 1.378 . S
C38 H50 0.952 . S
C39 C38 1.378 . S
C39 H51 0.950 . S
C39 C70 1.383 . S
H40 C59 0.947 . S
H41 C60 0.946 . S
H42 C62 0.953 . S
H43 C63 0.945 . S
H44 C65 0.952 . S
H45 C66 0.949 . S
H46 C68 0.950 . S
H47 C69 0.948 . S
H48 C71 0.951 . S
H49 C36 0.947 . S
H50 C38 0.952 . S
H51 C39 0.950 . S
N52 C55 1.382 . S
N52 C57 1.363 . S
N53 C55 1.371 . S
N53 C56 1.372 . S
N54 C56 1.361 . S
N54 C57 1.377 . S
C55 N52 1.382 . S
C55 N53 1.371 . S
C55 C58 1.480 . S
C56 N53 1.372 . S
C56 N54 1.361 . S
C56 C64 1.457 . S
C57 N52 1.363 . S
C57 N54 1.377 . S
C57 C70 1.479 . S
C58 C55 1.480 . S
C58 C59 1.383 . S
C58 C63 1.385 . S
C59 H40 0.947 . S
C59 C58 1.383 . S
C59 C60 1.388 . S
C60 H41 0.946 . S
C60 C59 1.388 . S
C60 C61 1.384 . S
C61 C60 1.384 . S
C61 C62 1.377 . S
C62 H42 0.953 . S
C62 C61 1.377 . S
C62 C63 1.369 . S
C63 H43 0.945 . S
C63 C58 1.385 . S
C63 C62 1.369 . S
C64 C56 1.457 . S
C64 C65 1.372 . S
C64 C69 1.364 . S
C65 H44 0.952 . S
C65 C64 1.372 . S
C65 C66 1.389 . S
C66 H45 0.949 . S
C66 C65 1.389 . S
C66 C67 1.387 . S
C67 C66 1.387 . S
C67 C68 1.372 . S
C68 H46 0.950 . S
C68 C67 1.372 . S
C68 C69 1.379 . S
C69 H47 0.948 . S
C69 C64 1.364 . S
C69 C68 1.379 . S
C70 C39 1.383 . S
C70 C57 1.479 . S
C70 C71 1.398 . S
C71 C36 1.382 . S
C71 H48 0.951 . S
C71 C70 1.398 . S
C72 C73 1.384 . S
C72 H85 0.947 . S
C72 C107 1.382 . S
C73 C72 1.384 . S
C73 C74 1.378 . S
C74 C73 1.378 . S
C74 C75 1.378 . S
C74 H86 0.952 . S
C75 C74 1.378 . S
C75 H87 0.950 . S
C75 C106 1.383 . S
H76 C95 0.947 . S
H77 C96 0.946 . S
H78 C98 0.953 . S
H79 C99 0.945 . S
H80 C101 0.952 . S
H81 C102 0.949 . S
H82 C104 0.950 . S
H83 C105 0.948 . S
H84 C107 0.951 . S
H85 C72 0.947 . S
H86 C74 0.952 . S
H87 C75 0.950 . S
N88 C91 1.382 . S
N88 C93 1.363 . S
N89 C91 1.371 . S
N89 C92 1.372 . S
N90 C92 1.361 . S
N90 C93 1.377 . S
C91 N88 1.382 . S
C91 N89 1.371 . S
C91 C94 1.480 . S
C92 N89 1.372 . S
C92 N90 1.361 . S
C92 C100 1.457 . S
C93 N88 1.363 . S
C93 N90 1.377 . S
C93 C106 1.479 . S
C94 C91 1.480 . S
C94 C95 1.383 . S
C94 C99 1.385 . S
C95 H76 0.947 . S
C95 C94 1.383 . S
C95 C96 1.388 . S
C96 H77 0.946 . S
C96 C95 1.388 . S
C96 C97 1.384 . S
C97 C96 1.384 . S
C97 C98 1.377 . S
C98 H78 0.953 . S
C98 C97 1.377 . S
C98 C99 1.369 . S
C99 H79 0.945 . S
C99 C94 1.385 . S
C99 C98 1.369 . S
C100 C92 1.457 . S
C100 C101 1.372 . S
C100 C105 1.364 . S
C101 H80 0.952 . S
C101 C100 1.372 . S
C101 C102 1.389 . S
C102 H81 0.949 . S
C102 C101 1.389 . S
C102 C103 1.387 . S
C103 C102 1.387 . S
C103 C104 1.372 . S
C104 H82 0.950 . S
C104 C103 1.372 . S
C104 C105 1.379 . S
C105 H83 0.948 . S
C105 C100 1.364 . S
C105 C104 1.379 . S
C106 C75 1.383 . S
C106 C93 1.479 . S
C106 C107 1.398 . S
C107 C72 1.382 . S
C107 H84 0.951 . S
C107 C106 1.398 . S
C108 C109 1.384 . S
C108 H121 0.947 . S
C108 C143 1.382 . S
C109 C108 1.384 . S
C109 C110 1.378 . S
C110 C109 1.378 . S
C110 C111 1.378 . S
C110 H122 0.952 . S
C111 C110 1.378 . S
C111 H123 0.950 . S
C111 C142 1.383 . S
H112 C131 0.947 . S
H113 C132 0.946 . S
H114 C134 0.953 . S
H115 C135 0.945 . S
H116 C137 0.952 . S
H117 C138 0.949 . S
H118 C140 0.950 . S
H119 C141 0.948 . S
H120 C143 0.951 . S
H121 C108 0.947 . S
H122 C110 0.952 . S
H123 C111 0.950 . S
N124 C127 1.382 . S
N124 C129 1.363 . S
N125 C127 1.371 . S
N125 C128 1.372 . S
N126 C128 1.361 . S
N126 C129 1.377 . S
C127 N124 1.382 . S
C127 N125 1.371 . S
C127 C130 1.480 . S
C128 N125 1.372 . S
C128 N126 1.361 . S
C128 C136 1.457 . S
C129 N124 1.363 . S
C129 N126 1.377 . S
C129 C142 1.479 . S
C130 C127 1.480 . S
C130 C131 1.383 . S
C130 C135 1.385 . S
C131 H112 0.947 . S
C131 C130 1.383 . S
C131 C132 1.388 . S
C132 H113 0.946 . S
C132 C131 1.388 . S
C132 C133 1.384 . S
C133 C132 1.384 . S
C133 C134 1.377 . S
C134 H114 0.953 . S
C134 C133 1.377 . S
C134 C135 1.369 . S
C135 H115 0.945 . S
C135 C130 1.385 . S
C135 C134 1.369 . S
C136 C128 1.457 . S
C136 C137 1.372 . S
C136 C141 1.364 . S
C137 H116 0.952 . S
C137 C136 1.372 . S
C137 C138 1.389 . S
C138 H117 0.949 . S
C138 C137 1.389 . S
C138 C139 1.387 . S
C139 C138 1.387 . S
C139 C140 1.372 . S
C140 H118 0.950 . S
C140 C139 1.372 . S
C140 C141 1.379 . S
C141 H119 0.948 . S
C141 C136 1.364 . S
C141 C140 1.379 . S
C142 C111 1.383 . S
C142 C129 1.479 . S
C142 C143 1.398 . S
C143 C108 1.382 . S
C143 H120 0.951 . S
C143 C142 1.398 . S
C144 C145 1.384 . S
C144 H157 0.947 . S
C144 C179 1.382 . S
C145 C144 1.384 . S
C145 C146 1.378 . S
C146 C145 1.378 . S
C146 C147 1.378 . S
C146 H158 0.952 . S
C147 C146 1.378 . S
C147 H159 0.950 . S
C147 C178 1.383 . S
H148 C167 0.947 . S
H149 C168 0.946 . S
H150 C170 0.953 . S
H151 C171 0.945 . S
H152 C173 0.952 . S
H153 C174 0.949 . S
H154 C176 0.950 . S
H155 C177 0.948 . S
H156 C179 0.951 . S
H157 C144 0.947 . S
H158 C146 0.952 . S
H159 C147 0.950 . S
N160 C163 1.382 . S
N160 C165 1.363 . S
N161 C163 1.371 . S
N161 C164 1.372 . S
N162 C164 1.361 . S
N162 C165 1.377 . S
C163 N160 1.382 . S
C163 N161 1.371 . S
C163 C166 1.480 . S
C164 N161 1.372 . S
C164 N162 1.361 . S
C164 C172 1.457 . S
C165 N160 1.363 . S
C165 N162 1.377 . S
C165 C178 1.479 . S
C166 C163 1.480 . S
C166 C167 1.383 . S
C166 C171 1.385 . S
C167 H148 0.947 . S
C167 C166 1.383 . S
C167 C168 1.388 . S
C168 H149 0.946 . S
C168 C167 1.388 . S
C168 C169 1.384 . S
C169 C168 1.384 . S
C169 C170 1.377 . S
C170 H150 0.953 . S
C170 C169 1.377 . S
C170 C171 1.369 . S
C171 H151 0.945 . S
C171 C166 1.385 . S
C171 C170 1.369 . S
C172 C164 1.457 . S
C172 C173 1.372 . S
C172 C177 1.364 . S
C173 H152 0.952 . S
C173 C172 1.372 . S
C173 C174 1.389 . S
C174 H153 0.949 . S
C174 C173 1.389 . S
C174 C175 1.387 . S
C175 C174 1.387 . S
C175 C176 1.372 . S
C176 H154 0.950 . S
C176 C175 1.372 . S
C176 C177 1.379 . S
C177 H155 0.948 . S
C177 C172 1.364 . S
C177 C176 1.379 . S
C178 C147 1.383 . S
C178 C165 1.479 . S
C178 C179 1.398 . S
C179 C144 1.382 . S
C179 H156 0.951 . S
C179 C178 1.398 . S
C180 C181 1.384 . S
C180 H193 0.947 . S
C180 C215 1.382 . S
C181 C180 1.384 . S
C181 C182 1.378 . S
C182 C181 1.378 . S
C182 C183 1.378 . S
C182 H194 0.952 . S
C183 C182 1.378 . S
C183 H195 0.950 . S
C183 C214 1.383 . S
H184 C203 0.947 . S
H185 C204 0.946 . S
H186 C206 0.953 . S
H187 C207 0.945 . S
H188 C209 0.952 . S
H189 C210 0.949 . S
H190 C212 0.950 . S
H191 C213 0.948 . S
H192 C215 0.951 . S
H193 C180 0.947 . S
H194 C182 0.952 . S
H195 C183 0.950 . S
N196 C199 1.382 . S
N196 C201 1.363 . S
N197 C199 1.371 . S
N197 C200 1.372 . S
N198 C200 1.361 . S
N198 C201 1.377 . S
C199 N196 1.382 . S
C199 N197 1.371 . S
C199 C202 1.480 . S
C200 N197 1.372 . S
C200 N198 1.361 . S
C200 C208 1.457 . S
C201 N196 1.363 . S
C201 N198 1.377 . S
C201 C214 1.479 . S
C202 C199 1.480 . S
C202 C203 1.383 . S
C202 C207 1.385 . S
C203 H184 0.947 . S
C203 C202 1.383 . S
C203 C204 1.388 . S
C204 H185 0.946 . S
C204 C203 1.388 . S
C204 C205 1.384 . S
C205 C204 1.384 . S
C205 C206 1.377 . S
C206 H186 0.953 . S
C206 C205 1.377 . S
C206 C207 1.369 . S
C207 H187 0.945 . S
C207 C202 1.385 . S
C207 C206 1.369 . S
C208 C200 1.457 . S
C208 C209 1.372 . S
C208 C213 1.364 . S
C209 H188 0.952 . S
C209 C208 1.372 . S
C209 C210 1.389 . S
C210 H189 0.949 . S
C210 C209 1.389 . S
C210 C211 1.387 . S
C211 C210 1.387 . S
C211 C212 1.372 . S
C212 H190 0.950 . S
C212 C211 1.372 . S
C212 C213 1.379 . S
C213 H191 0.948 . S
C213 C208 1.364 . S
C213 C212 1.379 . S
C214 C183 1.383 . S
C214 C201 1.479 . S
C214 C215 1.398 . S
C215 C180 1.382 . S
C215 H192 0.951 . S
C215 C214 1.398 . S
C216 C217 1.384 . S
C216 H229 0.947 . S
C216 C251 1.382 . S
C217 C216 1.384 . S
C217 C218 1.378 . S
C218 C217 1.378 . S
C218 C219 1.378 . S
C218 H230 0.952 . S
C219 C218 1.378 . S
C219 H231 0.950 . S
C219 C250 1.383 . S
H220 C239 0.947 . S
H221 C240 0.946 . S
H222 C242 0.953 . S
H223 C243 0.945 . S
H224 C245 0.952 . S
H225 C246 0.949 . S
H226 C248 0.950 . S
H227 C249 0.948 . S
H228 C251 0.951 . S
H229 C216 0.947 . S
H230 C218 0.952 . S
H231 C219 0.950 . S
N232 C235 1.382 . S
N232 C237 1.363 . S
N233 C235 1.371 . S
N233 C236 1.372 . S
N234 C236 1.361 . S
N234 C237 1.377 . S
C235 N232 1.382 . S
C235 N233 1.371 . S
C235 C238 1.480 . S
C236 N233 1.372 . S
C236 N234 1.361 . S
C236 C244 1.457 . S
C237 N232 1.363 . S
C237 N234 1.377 . S
C237 C250 1.479 . S
C238 C235 1.480 . S
C238 C239 1.383 . S
C238 C243 1.385 . S
C239 H220 0.947 . S
C239 C238 1.383 . S
C239 C240 1.388 . S
C240 H221 0.946 . S
C240 C239 1.388 . S
C240 C241 1.384 . S
C241 C240 1.384 . S
C241 C242 1.377 . S
C242 H222 0.953 . S
C242 C241 1.377 . S
C242 C243 1.369 . S
C243 H223 0.945 . S
C243 C238 1.385 . S
C243 C242 1.369 . S
C244 C236 1.457 . S
C244 C245 1.372 . S
C244 C249 1.364 . S
C245 H224 0.952 . S
C245 C244 1.372 . S
C245 C246 1.389 . S
C246 H225 0.949 . S
C246 C245 1.389 . S
C246 C247 1.387 . S
C247 C246 1.387 . S
C247 C248 1.372 . S
C248 H226 0.950 . S
C248 C247 1.372 . S
C248 C249 1.379 . S
C249 H227 0.948 . S
C249 C244 1.364 . S
C249 C248 1.379 . S
C250 C219 1.383 . S
C250 C237 1.479 . S
C250 C251 1.398 . S
C251 C216 1.382 . S
C251 H228 0.951 . S
C251 C250 1.398 . S
C252 C253 1.384 . S
C252 H265 0.947 . S
C252 C287 1.382 . S
C253 C252 1.384 . S
C253 C254 1.378 . S
C254 C253 1.378 . S
C254 C255 1.378 . S
C254 H266 0.952 . S
C255 C254 1.378 . S
C255 H267 0.950 . S
C255 C286 1.383 . S
H256 C275 0.947 . S
H257 C276 0.946 . S
H258 C278 0.953 . S
H259 C279 0.945 . S
H260 C281 0.952 . S
H261 C282 0.949 . S
H262 C284 0.950 . S
H263 C285 0.948 . S
H264 C287 0.951 . S
H265 C252 0.947 . S
H266 C254 0.952 . S
H267 C255 0.950 . S
N268 C271 1.382 . S
N268 C273 1.363 . S
N269 C271 1.371 . S
N269 C272 1.372 . S
N270 C272 1.361 . S
N270 C273 1.377 . S
C271 N268 1.382 . S
C271 N269 1.371 . S
C271 C274 1.480 . S
C272 N269 1.372 . S
C272 N270 1.361 . S
C272 C280 1.457 . S
C273 N268 1.363 . S
C273 N270 1.377 . S
C273 C286 1.479 . S
C274 C271 1.480 . S
C274 C275 1.383 . S
C274 C279 1.385 . S
C275 H256 0.947 . S
C275 C274 1.383 . S
C275 C276 1.388 . S
C276 H257 0.946 . S
C276 C275 1.388 . S
C276 C277 1.384 . S
C277 C276 1.384 . S
C277 C278 1.377 . S
C278 H258 0.953 . S
C278 C277 1.377 . S
C278 C279 1.369 . S
C279 H259 0.945 . S
C279 C274 1.385 . S
C279 C278 1.369 . S
C280 C272 1.457 . S
C280 C281 1.372 . S
C280 C285 1.364 . S
C281 H260 0.952 . S
C281 C280 1.372 . S
C281 C282 1.389 . S
C282 H261 0.949 . S
C282 C281 1.389 . S
C282 C283 1.387 . S
C283 C282 1.387 . S
C283 C284 1.372 . S
C284 H262 0.950 . S
C284 C283 1.372 . S
C284 C285 1.379 . S
C285 H263 0.948 . S
C285 C280 1.364 . S
C285 C284 1.379 . S
C286 C255 1.383 . S
C286 C273 1.479 . S
C286 C287 1.398 . S
C287 C252 1.382 . S
C287 H264 0.951 . S
C287 C286 1.398 . S
Pr288 C290 2.880 . S
Pr288 O308 2.562 . S
Pr288 O309 2.490 . S
Pr288 O310 2.695 1_665 S
Pr288 O311 2.512 1_665 S
Pr288 O313 2.437 1_655 S
Pr288 O316 2.436 . S
Pr288 O318 2.438 1_565 S
Pr289 C299 2.880 . S
Pr289 O310 2.436 . S
Pr289 O312 2.438 1_545 S
Pr289 O314 2.562 . S
Pr289 O315 2.490 . S
Pr289 O316 2.695 1_445 S
Pr289 O317 2.510 1_445 S
Pr289 O319 2.437 1_455 S
C290 Pr288 2.880 . S
C290 C291 1.491 . S
C290 O308 1.254 . S
C290 O309 1.225 . S
C291 C290 1.491 . S
C291 C292 1.392 . S
C291 C296 1.356 . S
C292 C291 1.392 . S
C292 C293 1.368 . S
C292 H320 0.929 . S
C293 C292 1.368 . S
C293 C294 1.386 . S
C293 H321 0.929 . S
C294 C293 1.386 . S
C294 C295 1.373 . S
C295 C294 1.373 . S
C295 C296 1.409 . S
C295 H322 0.931 . S
C296 C291 1.356 . S
C296 C295 1.409 . S
C296 H323 0.930 . S
C297 O310 1.270 . S
C297 O311 1.248 . S
C298 O312 1.267 . S
C298 O313 1.278 . S
C299 Pr289 2.880 . S
C299 C300 1.491 . S
C299 O314 1.254 . S
C299 O315 1.225 . S
C300 C299 1.491 . S
C300 C301 1.392 . S
C300 C305 1.356 . S
C301 C300 1.392 . S
C301 C302 1.368 . S
C301 H324 0.929 . S
C302 C301 1.368 . S
C302 C303 1.386 . S
C302 H325 0.929 . S
C303 C302 1.386 . S
C303 C304 1.373 . S
C304 C303 1.373 . S
C304 C305 1.409 . S
C304 H326 0.931 . S
C305 C300 1.356 . S
C305 C304 1.409 . S
C305 H327 0.930 . S
C306 O316 1.270 . S
C306 O317 1.255 . S
C307 O318 1.267 . S
C307 O319 1.278 . S
O308 Pr288 2.562 . S
O308 C290 1.254 . S
O309 Pr288 2.490 . S
O309 C290 1.225 . S
O310 Pr288 2.695 1_445 S
O310 Pr289 2.436 . S
O310 C297 1.270 . S
O311 Pr288 2.512 1_445 S
O311 C297 1.248 . S
O312 Pr289 2.438 1_565 S
O312 C298 1.267 . S
O313 Pr288 2.437 1_455 S
O313 C298 1.278 . S
O314 Pr289 2.562 . S
O314 C299 1.254 . S
O315 Pr289 2.490 . S
O315 C299 1.225 . S
O316 Pr288 2.436 . S
O316 Pr289 2.695 1_665 S
O316 C306 1.270 . S
O317 Pr289 2.510 1_665 S
O317 C306 1.255 . S
O318 Pr288 2.438 1_545 S
O318 C307 1.267 . S
O319 Pr289 2.437 1_655 S
O319 C307 1.278 . S
H320 C292 0.929 . S
H321 C293 0.929 . S
H322 C295 0.931 . S
H323 C296 0.930 . S
H324 C301 0.929 . S
H325 C302 0.929 . S
H326 C304 0.931 . S
H327 C305 0.930 . S
Pr328 C330 2.897 . S
Pr328 O348 2.585 . S
Pr328 O349 2.499 . S
Pr328 O350 2.681 1_554 S
Pr328 O351 2.496 1_554 S
Pr328 O353 2.447 . S
Pr328 O356 2.445 1_545 S
Pr328 O358 2.421 1_544 S
Pr329 C339 2.880 1_554 S
Pr329 O350 2.436 1_564 S
Pr329 O352 2.438 1_565 S
Pr329 O354 2.562 1_554 S
Pr329 O355 2.490 1_554 S
Pr329 O356 2.695 . S
Pr329 O357 2.512 . S
Pr329 O359 2.437 1_554 S
C330 Pr328 2.897 . S
C330 C331 1.491 . S
C330 O348 1.254 . S
C330 O349 1.225 . S
C331 C330 1.491 . S
C331 C332 1.392 . S
C331 C336 1.356 . S
C332 C331 1.392 . S
C332 C333 1.368 . S
C332 H360 0.929 . S
C333 C332 1.368 . S
C333 C334 1.386 . S
C333 H361 0.929 . S
C334 C333 1.386 . S
C334 C335 1.373 . S
C335 C334 1.373 . S
C335 C336 1.409 . S
C335 H362 0.931 . S
C336 C331 1.356 . S
C336 C335 1.409 . S
C336 H363 0.930 . S
C337 O350 1.270 . S
C337 O351 1.248 . S
C338 O352 1.267 . S
C338 O353 1.278 . S
C339 Pr329 2.880 1_556 S
C339 C340 1.491 . S
C339 O354 1.254 . S
C339 O355 1.225 . S
C340 C339 1.491 . S
C340 C341 1.392 . S
C340 C345 1.356 . S
C341 C340 1.392 . S
C341 C342 1.368 . S
C341 H364 0.929 . S
C342 C341 1.368 . S
C342 C343 1.386 . S
C342 H365 0.929 . S
C343 C342 1.386 . S
C343 C344 1.373 . S
C344 C343 1.373 . S
C344 C345 1.409 . S
C344 H366 0.931 . S
C345 C340 1.356 . S
C345 C344 1.409 . S
C345 H367 0.930 . S
C346 O356 1.270 . S
C346 O357 1.248 . S
C347 O358 1.267 . S
C347 O359 1.278 . S
O348 Pr328 2.585 . S
O348 C330 1.254 . S
O349 Pr328 2.499 . S
O349 C330 1.225 . S
O350 Pr328 2.681 1_556 S
O350 Pr329 2.436 1_546 S
O350 C337 1.270 . S
O351 Pr328 2.496 1_556 S
O351 C337 1.248 . S
O352 Pr329 2.438 1_545 S
O352 C338 1.267 . S
O353 Pr328 2.447 . S
O353 C338 1.278 . S
O354 Pr329 2.562 1_556 S
O354 C339 1.254 . S
O355 Pr329 2.490 1_556 S
O355 C339 1.225 . S
O356 Pr328 2.445 1_565 S
O356 Pr329 2.695 . S
O356 C346 1.270 . S
O357 Pr329 2.512 . S
O357 C346 1.248 . S
O358 Pr328 2.421 1_566 S
O358 C347 1.267 . S
O359 Pr329 2.437 1_556 S
O359 C347 1.278 . S
H360 C332 0.929 . S
H361 C333 0.929 . S
H362 C335 0.931 . S
H363 C336 0.930 . S
H364 C341 0.929 . S
H365 C342 0.929 . S
H366 C344 0.931 . S
H367 C345 0.930 . S
Pr368 C370 2.880 . S
Pr368 O388 2.562 . S
Pr368 O389 2.490 . S
Pr368 O390 2.695 . S
Pr368 O391 2.512 . S
Pr368 O393 2.437 . S
Pr368 O396 2.436 . S
Pr368 O398 2.438 . S
Pr369 C379 2.880 . S
Pr369 O390 2.436 . S
Pr369 O392 2.438 . S
Pr369 O394 2.562 . S
Pr369 O395 2.490 . S
Pr369 O396 2.695 . S
Pr369 O397 2.512 . S
Pr369 O399 2.437 . S
C370 Pr368 2.880 . S
C370 C371 1.491 . S
C370 O388 1.254 . S
C370 O389 1.225 . S
C371 C370 1.491 . S
C371 C372 1.392 . S
C371 C376 1.356 . S
C372 C371 1.392 . S
C372 C373 1.368 . S
C372 H400 0.929 . S
C373 C372 1.368 . S
C373 C374 1.386 . S
C373 H401 0.929 . S
C374 C373 1.386 . S
C374 C375 1.373 . S
C375 C374 1.373 . S
C375 C376 1.409 . S
C375 H402 0.931 . S
C376 C371 1.356 . S
C376 C375 1.409 . S
C376 H403 0.930 . S
C377 O390 1.270 . S
C377 O391 1.248 . S
C378 O392 1.267 . S
C378 O393 1.278 . S
C379 Pr369 2.880 . S
C379 C380 1.491 . S
C379 O394 1.254 . S
C379 O395 1.225 . S
C380 C379 1.491 . S
C380 C381 1.392 . S
C380 C385 1.356 . S
C381 C380 1.392 . S
C381 C382 1.368 . S
C381 H404 0.929 . S
C382 C381 1.368 . S
C382 C383 1.386 . S
C382 H405 0.929 . S
C383 C382 1.386 . S
C383 C384 1.373 . S
C384 C383 1.373 . S
C384 C385 1.409 . S
C384 H406 0.931 . S
C385 C380 1.356 . S
C385 C384 1.409 . S
C385 H407 0.930 . S
C386 O396 1.270 . S
C386 O397 1.248 . S
C387 O398 1.267 . S
C387 O399 1.278 . S
O388 Pr368 2.562 . S
O388 C370 1.254 . S
O389 Pr368 2.490 . S
O389 C370 1.225 . S
O390 Pr368 2.695 . S
O390 Pr369 2.436 . S
O390 C377 1.270 . S
O391 Pr368 2.512 . S
O391 C377 1.248 . S
O392 Pr369 2.438 . S
O392 C378 1.267 . S
O393 Pr368 2.437 . S
O393 C378 1.278 . S
O394 Pr369 2.562 . S
O394 C379 1.254 . S
O395 Pr369 2.490 . S
O395 C379 1.225 . S
O396 Pr368 2.436 . S
O396 Pr369 2.695 . S
O396 C386 1.270 . S
O397 Pr369 2.512 . S
O397 C386 1.248 . S
O398 Pr368 2.438 . S
O398 C387 1.267 . S
O399 Pr369 2.437 . S
O399 C387 1.278 . S
H400 C372 0.929 . S
H401 C373 0.929 . S
H402 C375 0.931 . S
H403 C376 0.930 . S
H404 C381 0.929 . S
H405 C382 0.929 . S
H406 C384 0.931 . S
H407 C385 0.930 . S
Pr408 C410 2.896 . S
Pr408 O428 2.583 . S
Pr408 O429 2.499 . S
Pr408 O430 2.684 1_656 S
Pr408 O431 2.500 1_656 S
Pr408 O433 2.449 1_556 S
Pr408 O436 2.443 . S
Pr408 O438 2.421 1_655 S
Pr409 C419 2.880 . S
Pr409 O430 2.436 . S
Pr409 O432 2.438 1_455 S
Pr409 O434 2.562 . S
Pr409 O435 2.490 . S
Pr409 O436 2.695 1_454 S
Pr409 O437 2.512 1_454 S
Pr409 O439 2.437 1_554 S
C410 Pr408 2.896 . S
C410 C411 1.491 . S
C410 O428 1.254 . S
C410 O429 1.225 . S
C411 C410 1.491 . S
C411 C412 1.392 . S
C411 C416 1.356 . S
C412 C411 1.392 . S
C412 C413 1.368 . S
C412 H440 0.929 . S
C413 C412 1.368 . S
C413 C414 1.386 . S
C413 H441 0.929 . S
C414 C413 1.386 . S
C414 C415 1.373 . S
C415 C414 1.373 . S
C415 C416 1.409 . S
C415 H442 0.931 . S
C416 C411 1.356 . S
C416 C415 1.409 . S
C416 H443 0.930 . S
C417 O430 1.270 . S
C417 O431 1.248 . S
C418 O432 1.267 . S
C418 O433 1.278 . S
C419 Pr409 2.880 . S
C419 C420 1.491 . S
C419 O434 1.254 . S
C419 O435 1.225 . S
C420 C419 1.491 . S
C420 C421 1.392 . S
C420 C425 1.356 . S
C421 C420 1.392 . S
C421 C422 1.368 . S
C421 H444 0.929 . S
C422 C421 1.368 . S
C422 C423 1.386 . S
C422 H445 0.929 . S
C423 C422 1.386 . S
C423 C424 1.373 . S
C424 C423 1.373 . S
C424 C425 1.409 . S
C424 H446 0.931 . S
C425 C420 1.356 . S
C425 C424 1.409 . S
C425 H447 0.930 . S
C426 O436 1.270 . S
C426 O437 1.248 . S
C427 O438 1.267 . S
C427 O439 1.278 . S
O428 Pr408 2.583 . S
O428 C410 1.254 . S
O429 Pr408 2.499 . S
O429 C410 1.225 . S
O430 Pr408 2.684 1_454 S
O430 Pr409 2.436 . S
O430 C417 1.270 . S
O431 Pr408 2.500 1_454 S
O431 C417 1.248 . S
O432 Pr409 2.438 1_655 S
O432 C418 1.267 . S
O433 Pr408 2.449 1_554 S
O433 C418 1.278 . S
O434 Pr409 2.562 . S
O434 C419 1.254 . S
O435 Pr409 2.490 . S
O435 C419 1.225 . S
O436 Pr408 2.443 . S
O436 Pr409 2.695 1_656 S
O436 C426 1.270 . S
O437 Pr409 2.512 1_656 S
O437 C426 1.248 . S
O438 Pr408 2.421 1_455 S
O438 C427 1.267 . S
O439 Pr409 2.437 1_556 S
O439 C427 1.278 . S
H440 C412 0.929 . S
H441 C413 0.929 . S
H442 C415 0.931 . S
H443 C416 0.930 . S
H444 C421 0.929 . S
H445 C422 0.929 . S
H446 C424 0.931 . S
H447 C425 0.930 . S
H448 C454 0.930 . S
H449 C458 0.930 . S
H450 C463 0.929 . S
H451 C461 0.929 . S
H452 C456 0.929 . S
H453 C462 0.929 . S
C454 H448 0.930 . S
C454 C455 1.367 . S
C454 C462 1.378 . S
C455 C454 1.367 . S
C455 C463 1.433 . S
C456 H452 0.929 . S
C456 C458 1.378 . S
C456 C460 1.350 . S
C457 C460 1.463 . S
C457 C462 1.350 . S
C457 N465 1.427 . S
C458 H449 0.930 . S
C458 C456 1.378 . S
C458 C459 1.367 . S
C459 C458 1.367 . S
C459 C461 1.433 . S
C460 C456 1.350 . S
C460 C457 1.463 . S
C460 N464 1.427 . S
C461 H451 0.929 . S
C461 C459 1.433 . S
C461 N464 1.384 . S
C462 H453 0.929 . S
C462 C454 1.378 . S
C462 C457 1.350 . S
C463 H450 0.929 . S
C463 C455 1.433 . S
C463 N465 1.384 . S
N464 C460 1.427 . S
N464 C461 1.384 . S
N465 C457 1.427 . S
N465 C463 1.384 . S
H466 C472 0.930 . S
H467 C476 0.930 . S
H468 C481 0.929 . S
H469 C479 0.929 . S
H470 C474 0.929 . S
H471 C480 0.929 . S
C472 H466 0.930 . S
C472 C473 1.367 . S
C472 C480 1.378 . S
C473 C472 1.367 . S
C473 C481 1.433 . S
C474 H470 0.929 . S
C474 C476 1.378 . S
C474 C478 1.350 . S
C475 C478 1.463 . S
C475 C480 1.350 . S
C475 N483 1.427 . S
C476 H467 0.930 . S
C476 C474 1.378 . S
C476 C477 1.367 . S
C477 C476 1.367 . S
C477 C479 1.433 . S
C478 C474 1.350 . S
C478 C475 1.463 . S
C478 N482 1.427 . S
C479 H469 0.929 . S
C479 C477 1.433 . S
C479 N482 1.384 . S
C480 H471 0.929 . S
C480 C472 1.378 . S
C480 C475 1.350 . S
C481 H468 0.929 . S
C481 C473 1.433 . S
C481 N483 1.384 . S
N482 C478 1.427 . S
N482 C479 1.384 . S
N483 C475 1.427 . S
N483 C481 1.384 . S
H484 C490 0.930 . S
H485 C494 0.930 . S
H486 C499 0.929 . S
H487 C497 0.929 . S
H488 C492 0.929 . S
H489 C498 0.929 . S
C490 H484 0.930 . S
C490 C491 1.367 . S
C490 C498 1.378 . S
C491 C490 1.367 . S
C491 C499 1.433 . S
C492 H488 0.929 . S
C492 C494 1.378 . S
C492 C496 1.350 . S
C493 C496 1.463 . S
C493 C498 1.350 . S
C493 N501 1.427 . S
C494 H485 0.930 . S
C494 C492 1.378 . S
C494 C495 1.367 . S
C495 C494 1.367 . S
C495 C497 1.433 . S
C496 C492 1.350 . S
C496 C493 1.463 . S
C496 N500 1.427 . S
C497 H487 0.929 . S
C497 C495 1.433 . S
C497 N500 1.384 . S
C498 H489 0.929 . S
C498 C490 1.378 . S
C498 C493 1.350 . S
C499 H486 0.929 . S
C499 C491 1.433 . S
C499 N501 1.384 . S
N500 C496 1.427 . S
N500 C497 1.384 . S
N501 C493 1.427 . S
N501 C499 1.384 . S
H502 C508 0.930 . S
H503 C512 0.930 . S
H504 C517 0.929 . S
H505 C515 0.929 . S
H506 C510 0.929 . S
H507 C516 0.929 . S
C508 H502 0.930 . S
C508 C509 1.367 . S
C508 C516 1.378 . S
C509 C508 1.367 . S
C509 C517 1.433 . S
C510 H506 0.929 . S
C510 C512 1.378 . S
C510 C514 1.350 . S
C511 C514 1.463 . S
C511 C516 1.350 . S
C511 N519 1.427 . S
C512 H503 0.930 . S
C512 C510 1.378 . S
C512 C513 1.367 . S
C513 C512 1.367 . S
C513 C515 1.433 . S
C514 C510 1.350 . S
C514 C511 1.463 . S
C514 N518 1.427 . S
C515 H505 0.929 . S
C515 C513 1.433 . S
C515 N518 1.384 . S
C516 H507 0.929 . S
C516 C508 1.378 . S
C516 C511 1.350 . S
C517 H504 0.929 . S
C517 C509 1.433 . S
C517 N519 1.384 . S
N518 C514 1.427 . S
N518 C515 1.384 . S
N519 C511 1.427 . S
N519 C517 1.384 . S
H520 C526 0.930 . S
H521 C530 0.930 . S
H522 C535 0.929 . S
H523 C533 0.929 . S
H524 C528 0.929 . S
H525 C534 0.929 . S
C526 H520 0.930 . S
C526 C527 1.367 . S
C526 C534 1.378 . S
C527 C526 1.367 . S
C527 C535 1.433 . S
C528 H524 0.929 . S
C528 C530 1.378 . S
C528 C532 1.350 . S
C529 C532 1.463 . S
C529 C534 1.350 . S
C529 N537 1.427 . S
C530 H521 0.930 . S
C530 C528 1.378 . S
C530 C531 1.367 . S
C531 C530 1.367 . S
C531 C533 1.433 . S
C532 C528 1.350 . S
C532 C529 1.463 . S
C532 N536 1.427 . S
C533 H523 0.929 . S
C533 C531 1.433 . S
C533 N536 1.384 . S
C534 H525 0.929 . S
C534 C526 1.378 . S
C534 C529 1.350 . S
C535 H522 0.929 . S
C535 C527 1.433 . S
C535 N537 1.384 . S
N536 C532 1.427 . S
N536 C533 1.384 . S
N537 C529 1.427 . S
N537 C535 1.384 . S
H538 C544 0.930 . S
H539 C548 0.930 . S
H540 C553 0.929 . S
H541 C551 0.929 . S
H542 C546 0.929 . S
H543 C552 0.929 . S
C544 H538 0.930 . S
C544 C545 1.367 . S
C544 C552 1.378 . S
C545 C544 1.367 . S
C545 C553 1.433 . S
C546 H542 0.929 . S
C546 C548 1.378 . S
C546 C550 1.350 . S
C547 C550 1.463 . S
C547 C552 1.350 . S
C547 N555 1.427 . S
C548 H539 0.930 . S
C548 C546 1.378 . S
C548 C549 1.367 . S
C549 C548 1.367 . S
C549 C551 1.433 . S
C550 C546 1.350 . S
C550 C547 1.463 . S
C550 N554 1.427 . S
C551 H541 0.929 . S
C551 C549 1.433 . S
C551 N554 1.384 . S
C552 H543 0.929 . S
C552 C544 1.378 . S
C552 C547 1.350 . S
C553 H540 0.929 . S
C553 C545 1.433 . S
C553 N555 1.384 . S
N554 C550 1.427 . S
N554 C551 1.384 . S
N555 C547 1.427 . S
N555 C553 1.384 . S
H556 C562 0.930 . S
H557 C566 0.930 . S
H558 C571 0.929 . S
H559 C569 0.929 . S
H560 C564 0.929 . S
H561 C570 0.929 . S
C562 H556 0.930 . S
C562 C563 1.367 . S
C562 C570 1.378 . S
C563 C562 1.367 . S
C563 C571 1.433 . S
C564 H560 0.929 . S
C564 C566 1.378 . S
C564 C568 1.350 . S
C565 C568 1.463 . S
C565 C570 1.350 . S
C565 N573 1.427 . S
C566 H557 0.930 . S
C566 C564 1.378 . S
C566 C567 1.367 . S
C567 C566 1.367 . S
C567 C569 1.433 . S
C568 C564 1.350 . S
C568 C565 1.463 . S
C568 N572 1.427 . S
C569 H559 0.929 . S
C569 C567 1.433 . S
C569 N572 1.384 . S
C570 H561 0.929 . S
C570 C562 1.378 . S
C570 C565 1.350 . S
C571 H558 0.929 . S
C571 C563 1.433 . S
C571 N573 1.384 . S
N572 C568 1.427 . S
N572 C569 1.384 . S
N573 C565 1.427 . S
N573 C571 1.384 . S
H574 C580 0.930 . S
H575 C584 0.930 . S
H576 C589 0.929 . S
H577 C587 0.929 . S
H578 C582 0.929 . S
H579 C588 0.929 . S
C580 H574 0.930 . S
C580 C581 1.367 . S
C580 C588 1.378 . S
C581 C580 1.367 . S
C581 C589 1.433 . S
C582 H578 0.929 . S
C582 C584 1.378 . S
C582 C586 1.350 . S
C583 C586 1.463 . S
C583 C588 1.350 . S
C583 N591 1.427 . S
C584 H575 0.930 . S
C584 C582 1.378 . S
C584 C585 1.367 . S
C585 C584 1.367 . S
C585 C587 1.433 . S
C586 C582 1.350 . S
C586 C583 1.463 . S
C586 N590 1.427 . S
C587 H577 0.929 . S
C587 C585 1.433 . S
C587 N590 1.384 . S
C588 H579 0.929 . S
C588 C580 1.378 . S
C588 C583 1.350 . S
C589 H576 0.929 . S
C589 C581 1.433 . S
C589 N591 1.384 . S
N590 C586 1.427 . S
N590 C587 1.384 . S
N591 C583 1.427 . S
N591 C589 1.384 . S
H592 C598 0.930 . S
H593 C602 0.930 . S
H594 C607 0.929 . S
H595 C605 0.929 . S
H596 C600 0.929 . S
H597 C606 0.929 . S
C598 H592 0.930 . S
C598 C599 1.367 . S
C598 C606 1.378 . S
C599 C598 1.367 . S
C599 C607 1.433 . S
C600 H596 0.929 . S
C600 C602 1.378 . S
C600 C604 1.350 . S
C601 C604 1.463 . S
C601 C606 1.350 . S
C601 N609 1.427 . S
C602 H593 0.930 . S
C602 C600 1.378 . S
C602 C603 1.367 . S
C603 C602 1.367 . S
C603 C605 1.433 . S
C604 C600 1.350 . S
C604 C601 1.463 . S
C604 N608 1.427 . S
C605 H595 0.929 . S
C605 C603 1.433 . S
C605 N608 1.384 . S
C606 H597 0.929 . S
C606 C598 1.378 . S
C606 C601 1.350 . S
C607 H594 0.929 . S
C607 C599 1.433 . S
C607 N609 1.384 . S
N608 C604 1.427 . S
N608 C605 1.384 . S
N609 C601 1.427 . S
N609 C607 1.384 . S
H610 C616 0.930 . S
H611 C620 0.930 . S
H612 C625 0.929 . S
H613 C623 0.929 . S
H614 C618 0.929 . S
H615 C624 0.929 . S
C616 H610 0.930 . S
C616 C617 1.367 . S
C616 C624 1.378 . S
C617 C616 1.367 . S
C617 C625 1.433 . S
C618 H614 0.929 . S
C618 C620 1.378 . S
C618 C622 1.350 . S
C619 C622 1.463 . S
C619 C624 1.350 . S
C619 N627 1.427 . S
C620 H611 0.930 . S
C620 C618 1.378 . S
C620 C621 1.367 . S
C621 C620 1.367 . S
C621 C623 1.433 . S
C622 C618 1.350 . S
C622 C619 1.463 . S
C622 N626 1.427 . S
C623 H613 0.929 . S
C623 C621 1.433 . S
C623 N626 1.384 . S
C624 H615 0.929 . S
C624 C616 1.378 . S
C624 C619 1.350 . S
C625 H612 0.929 . S
C625 C617 1.433 . S
C625 N627 1.384 . S
N626 C622 1.427 . S
N626 C623 1.384 . S
N627 C619 1.427 . S
N627 C625 1.384 . S
H628 C634 0.930 . S
H629 C638 0.930 . S
H630 C643 0.929 . S
H631 C641 0.929 . S
H632 C636 0.929 . S
H633 C642 0.929 . S
C634 H628 0.930 . S
C634 C635 1.367 . S
C634 C642 1.378 . S
C635 C634 1.367 . S
C635 C643 1.433 . S
C636 H632 0.929 . S
C636 C638 1.378 . S
C636 C640 1.350 . S
C637 C640 1.463 . S
C637 C642 1.350 . S
C637 N645 1.427 . S
C638 H629 0.930 . S
C638 C636 1.378 . S
C638 C639 1.367 . S
C639 C638 1.367 . S
C639 C641 1.433 . S
C640 C636 1.350 . S
C640 C637 1.463 . S
C640 N644 1.427 . S
C641 H631 0.929 . S
C641 C639 1.433 . S
C641 N644 1.384 . S
C642 H633 0.929 . S
C642 C634 1.378 . S
C642 C637 1.350 . S
C643 H630 0.929 . S
C643 C635 1.433 . S
C643 N645 1.384 . S
N644 C640 1.427 . S
N644 C641 1.384 . S
N645 C637 1.427 . S
N645 C643 1.384 . S
H646 C652 0.930 . S
H647 C656 0.930 . S
H648 C661 0.929 . S
H649 C659 0.929 . S
H650 C654 0.929 . S
H651 C660 0.929 . S
C652 H646 0.930 . S
C652 C653 1.367 . S
C652 C660 1.378 . S
C653 C652 1.367 . S
C653 C661 1.433 . S
C654 H650 0.929 . S
C654 C656 1.378 . S
C654 C658 1.350 . S
C655 C658 1.463 . S
C655 C660 1.350 . S
C655 N663 1.427 . S
C656 H647 0.930 . S
C656 C654 1.378 . S
C656 C657 1.367 . S
C657 C656 1.367 . S
C657 C659 1.433 . S
C658 C654 1.350 . S
C658 C655 1.463 . S
C658 N662 1.427 . S
C659 H649 0.929 . S
C659 C657 1.433 . S
C659 N662 1.384 . S
C660 H651 0.929 . S
C660 C652 1.378 . S
C660 C655 1.350 . S
C661 H648 0.929 . S
C661 C653 1.433 . S
C661 N663 1.384 . S
N662 C658 1.427 . S
N662 C659 1.384 . S
N663 C655 1.427 . S
N663 C661 1.384 . S
H664 C670 0.930 . S
H665 C674 0.930 . S
H666 C679 0.929 . S
H667 C677 0.929 . S
H668 C672 0.929 . S
H669 C678 0.929 . S
C670 H664 0.930 . S
C670 C671 1.367 . S
C670 C678 1.378 . S
C671 C670 1.367 . S
C671 C679 1.433 . S
C672 H668 0.929 . S
C672 C674 1.378 . S
C672 C676 1.350 . S
C673 C676 1.463 . S
C673 C678 1.350 . S
C673 N681 1.427 . S
C674 H665 0.930 . S
C674 C672 1.378 . S
C674 C675 1.367 . S
C675 C674 1.367 . S
C675 C677 1.433 . S
C676 C672 1.350 . S
C676 C673 1.463 . S
C676 N680 1.427 . S
C677 H667 0.929 . S
C677 C675 1.433 . S
C677 N680 1.384 . S
C678 H669 0.929 . S
C678 C670 1.378 . S
C678 C673 1.350 . S
C679 H666 0.929 . S
C679 C671 1.433 . S
C679 N681 1.384 . S
N680 C676 1.427 . S
N680 C677 1.384 . S
N681 C673 1.427 . S
N681 C679 1.384 . S
H682 C688 0.930 . S
H683 C692 0.930 . S
H684 C697 0.929 . S
H685 C695 0.929 . S
H686 C690 0.929 . S
H687 C696 0.929 . S
C688 H682 0.930 . S
C688 C689 1.367 . S
C688 C696 1.378 . S
C689 C688 1.367 . S
C689 C697 1.433 . S
C690 H686 0.929 . S
C690 C692 1.378 . S
C690 C694 1.350 . S
C691 C694 1.463 . S
C691 C696 1.350 . S
C691 N699 1.427 . S
C692 H683 0.930 . S
C692 C690 1.378 . S
C692 C693 1.367 . S
C693 C692 1.367 . S
C693 C695 1.433 . S
C694 C690 1.350 . S
C694 C691 1.463 . S
C694 N698 1.427 . S
C695 H685 0.929 . S
C695 C693 1.433 . S
C695 N698 1.384 . S
C696 H687 0.929 . S
C696 C688 1.378 . S
C696 C691 1.350 . S
C697 H684 0.929 . S
C697 C689 1.433 . S
C697 N699 1.384 . S
N698 C694 1.427 . S
N698 C695 1.384 . S
N699 C691 1.427 . S
N699 C697 1.384 . S
H700 C706 0.930 . S
H701 C710 0.930 . S
H702 C715 0.929 . S
H703 C713 0.929 . S
H704 C708 0.929 . S
H705 C714 0.929 . S
C706 H700 0.930 . S
C706 C707 1.367 . S
C706 C714 1.378 . S
C707 C706 1.367 . S
C707 C715 1.433 . S
C708 H704 0.929 . S
C708 C710 1.378 . S
C708 C712 1.350 . S
C709 C712 1.463 . S
C709 C714 1.350 . S
C709 N717 1.427 . S
C710 H701 0.930 . S
C710 C708 1.378 . S
C710 C711 1.367 . S
C711 C710 1.367 . S
C711 C713 1.433 . S
C712 C708 1.350 . S
C712 C709 1.463 . S
C712 N716 1.427 . S
C713 H703 0.929 . S
C713 C711 1.433 . S
C713 N716 1.384 . S
C714 H705 0.929 . S
C714 C706 1.378 . S
C714 C709 1.350 . S
C715 H702 0.929 . S
C715 C707 1.433 . S
C715 N717 1.384 . S
N716 C712 1.427 . S
N716 C713 1.384 . S
N717 C709 1.427 . S
N717 C715 1.384 . S
H718 C724 0.930 . S
H719 C728 0.930 . S
H720 C733 0.929 . S
H721 C731 0.929 . S
H722 C726 0.929 . S
H723 C732 0.929 . S
C724 H718 0.930 . S
C724 C725 1.367 . S
C724 C732 1.378 . S
C725 C724 1.367 . S
C725 C733 1.433 . S
C726 H722 0.929 . S
C726 C728 1.378 . S
C726 C730 1.350 . S
C727 C730 1.463 . S
C727 C732 1.350 . S
C727 N735 1.427 . S
C728 H719 0.930 . S
C728 C726 1.378 . S
C728 C729 1.367 . S
C729 C728 1.367 . S
C729 C731 1.433 . S
C730 C726 1.350 . S
C730 C727 1.463 . S
C730 N734 1.427 . S
C731 H721 0.929 . S
C731 C729 1.433 . S
C731 N734 1.384 . S
C732 H723 0.929 . S
C732 C724 1.378 . S
C732 C727 1.350 . S
C733 H720 0.929 . S
C733 C725 1.433 . S
C733 N735 1.384 . S
N734 C730 1.427 . S
N734 C731 1.384 . S
N735 C727 1.427 . S
N735 C733 1.384 . S
H736 C742 0.930 . S
H737 C746 0.930 . S
H738 C751 0.929 . S
H739 C749 0.929 . S
H740 C744 0.929 . S
H741 C750 0.929 . S
C742 H736 0.930 . S
C742 C743 1.367 . S
C742 C750 1.378 . S
C743 C742 1.367 . S
C743 C751 1.433 . S
C744 H740 0.929 . S
C744 C746 1.378 . S
C744 C748 1.350 . S
C745 C748 1.463 . S
C745 C750 1.350 . S
C745 N753 1.427 . S
C746 H737 0.930 . S
C746 C744 1.378 . S
C746 C747 1.367 . S
C747 C746 1.367 . S
C747 C749 1.433 . S
C748 C744 1.350 . S
C748 C745 1.463 . S
C748 N752 1.427 . S
C749 H739 0.929 . S
C749 C747 1.433 . S
C749 N752 1.384 . S
C750 H741 0.929 . S
C750 C742 1.378 . S
C750 C745 1.350 . S
C751 H738 0.929 . S
C751 C743 1.433 . S
C751 N753 1.384 . S
N752 C748 1.427 . S
N752 C749 1.384 . S
N753 C745 1.427 . S
N753 C751 1.384 . S
H754 C760 0.930 . S
H755 C764 0.930 . S
H756 C769 0.929 . S
H757 C767 0.929 . S
H758 C762 0.929 . S
H759 C768 0.929 . S
C760 H754 0.930 . S
C760 C761 1.367 . S
C760 C768 1.378 . S
C761 C760 1.367 . S
C761 C769 1.433 . S
C762 H758 0.929 . S
C762 C764 1.378 . S
C762 C766 1.350 . S
C763 C766 1.463 . S
C763 C768 1.350 . S
C763 N771 1.427 . S
C764 H755 0.930 . S
C764 C762 1.378 . S
C764 C765 1.367 . S
C765 C764 1.367 . S
C765 C767 1.433 . S
C766 C762 1.350 . S
C766 C763 1.463 . S
C766 N770 1.427 . S
C767 H757 0.929 . S
C767 C765 1.433 . S
C767 N770 1.384 . S
C768 H759 0.929 . S
C768 C760 1.378 . S
C768 C763 1.350 . S
C769 H756 0.929 . S
C769 C761 1.433 . S
C769 N771 1.384 . S
N770 C766 1.427 . S
N770 C767 1.384 . S
N771 C763 1.427 . S
N771 C769 1.384 . S
H772 C778 0.930 . S
H773 C782 0.930 . S
H774 C787 0.929 . S
H775 C785 0.929 . S
H776 C780 0.929 . S
H777 C786 0.929 . S
C778 H772 0.930 . S
C778 C779 1.367 . S
C778 C786 1.378 . S
C779 C778 1.367 . S
C779 C787 1.433 . S
C780 H776 0.929 . S
C780 C782 1.378 . S
C780 C784 1.350 . S
C781 C784 1.463 . S
C781 C786 1.350 . S
C781 N789 1.427 . S
C782 H773 0.930 . S
C782 C780 1.378 . S
C782 C783 1.367 . S
C783 C782 1.367 . S
C783 C785 1.433 . S
C784 C780 1.350 . S
C784 C781 1.463 . S
C784 N788 1.427 . S
C785 H775 0.929 . S
C785 C783 1.433 . S
C785 N788 1.384 . S
C786 H777 0.929 . S
C786 C778 1.378 . S
C786 C781 1.350 . S
C787 H774 0.929 . S
C787 C779 1.433 . S
C787 N789 1.384 . S
N788 C784 1.427 . S
N788 C785 1.384 . S
N789 C781 1.427 . S
N789 C787 1.384 . S
H790 C796 0.930 . S
H791 C800 0.930 . S
H792 C805 0.929 . S
H793 C803 0.929 . S
H794 C798 0.929 . S
H795 C804 0.929 . S
C796 H790 0.930 . S
C796 C797 1.367 . S
C796 C804 1.378 . S
C797 C796 1.367 . S
C797 C805 1.433 . S
C798 H794 0.929 . S
C798 C800 1.378 . S
C798 C802 1.350 . S
C799 C802 1.463 . S
C799 C804 1.350 . S
C799 N807 1.427 . S
C800 H791 0.930 . S
C800 C798 1.378 . S
C800 C801 1.367 . S
C801 C800 1.367 . S
C801 C803 1.433 . S
C802 C798 1.350 . S
C802 C799 1.463 . S
C802 N806 1.427 . S
C803 H793 0.929 . S
C803 C801 1.433 . S
C803 N806 1.384 . S
C804 H795 0.929 . S
C804 C796 1.378 . S
C804 C799 1.350 . S
C805 H792 0.929 . S
C805 C797 1.433 . S
C805 N807 1.384 . S
N806 C802 1.427 . S
N806 C803 1.384 . S
N807 C799 1.427 . S
N807 C805 1.384 . S
H808 C814 0.930 . S
H809 C818 0.930 . S
H810 C823 0.929 . S
H811 C821 0.929 . S
H812 C816 0.929 . S
H813 C822 0.929 . S
C814 H808 0.930 . S
C814 C815 1.367 . S
C814 C822 1.378 . S
C815 C814 1.367 . S
C815 C823 1.433 . S
C816 H812 0.929 . S
C816 C818 1.378 . S
C816 C820 1.350 . S
C817 C820 1.463 . S
C817 C822 1.350 . S
C817 N825 1.427 . S
C818 H809 0.930 . S
C818 C816 1.378 . S
C818 C819 1.367 . S
C819 C818 1.367 . S
C819 C821 1.433 . S
C820 C816 1.350 . S
C820 C817 1.463 . S
C820 N824 1.427 . S
C821 H811 0.929 . S
C821 C819 1.433 . S
C821 N824 1.384 . S
C822 H813 0.929 . S
C822 C814 1.378 . S
C822 C817 1.350 . S
C823 H810 0.929 . S
C823 C815 1.433 . S
C823 N825 1.384 . S
N824 C820 1.427 . S
N824 C821 1.384 . S
N825 C817 1.427 . S
N825 C823 1.384 . S
H826 C832 0.930 . S
H827 C836 0.930 . S
H828 C841 0.929 . S
H829 C839 0.929 . S
H830 C834 0.929 . S
H831 C840 0.929 . S
C832 H826 0.930 . S
C832 C833 1.367 . S
C832 C840 1.378 . S
C833 C832 1.367 . S
C833 C841 1.433 . S
C834 H830 0.929 . S
C834 C836 1.378 . S
C834 C838 1.350 . S
C835 C838 1.463 . S
C835 C840 1.350 . S
C835 N843 1.427 . S
C836 H827 0.930 . S
C836 C834 1.378 . S
C836 C837 1.367 . S
C837 C836 1.367 . S
C837 C839 1.433 . S
C838 C834 1.350 . S
C838 C835 1.463 . S
C838 N842 1.427 . S
C839 H829 0.929 . S
C839 C837 1.433 . S
C839 N842 1.384 . S
C840 H831 0.929 . S
C840 C832 1.378 . S
C840 C835 1.350 . S
C841 H828 0.929 . S
C841 C833 1.433 . S
C841 N843 1.384 . S
N842 C838 1.427 . S
N842 C839 1.384 . S
N843 C835 1.427 . S
N843 C841 1.384 . S
H844 C850 0.930 . S
H845 C854 0.930 . S
H846 C859 0.929 . S
H847 C857 0.929 . S
H848 C852 0.929 . S
H849 C858 0.929 . S
C850 H844 0.930 . S
C850 C851 1.367 . S
C850 C858 1.378 . S
C851 C850 1.367 . S
C851 C859 1.433 . S
C852 H848 0.929 . S
C852 C854 1.378 . S
C852 C856 1.350 . S
C853 C856 1.463 . S
C853 C858 1.350 . S
C853 N861 1.427 . S
C854 H845 0.930 . S
C854 C852 1.378 . S
C854 C855 1.367 . S
C855 C854 1.367 . S
C855 C857 1.433 . S
C856 C852 1.350 . S
C856 C853 1.463 . S
C856 N860 1.427 . S
C857 H847 0.929 . S
C857 C855 1.433 . S
C857 N860 1.384 . S
C858 H849 0.929 . S
C858 C850 1.378 . S
C858 C853 1.350 . S
C859 H846 0.929 . S
C859 C851 1.433 . S
C859 N861 1.384 . S
N860 C856 1.427 . S
N860 C857 1.384 . S
N861 C853 1.427 . S
N861 C859 1.384 . S
H862 C868 0.930 . S
H863 C872 0.930 . S
H864 C877 0.929 . S
H865 C875 0.929 . S
H866 C870 0.929 . S
H867 C876 0.929 . S
C868 H862 0.930 . S
C868 C869 1.367 . S
C868 C876 1.378 . S
C869 C868 1.367 . S
C869 C877 1.433 . S
C870 H866 0.929 . S
C870 C872 1.378 . S
C870 C874 1.350 . S
C871 C874 1.463 . S
C871 C876 1.350 . S
C871 N879 1.427 . S
C872 H863 0.930 . S
C872 C870 1.378 . S
C872 C873 1.367 . S
C873 C872 1.367 . S
C873 C875 1.433 . S
C874 C870 1.350 . S
C874 C871 1.463 . S
C874 N878 1.427 . S
C875 H865 0.929 . S
C875 C873 1.433 . S
C875 N878 1.384 . S
C876 H867 0.929 . S
C876 C868 1.378 . S
C876 C871 1.350 . S
C877 H864 0.929 . S
C877 C869 1.433 . S
C877 N879 1.384 . S
N878 C874 1.427 . S
N878 C875 1.384 . S
N879 C871 1.427 . S
N879 C877 1.384 . S
C455 C1 1.082 . S
C459 C303 1.072 . S
C473 C67 1.654 . S
C477 C347 1.618 . S
C495 C377 2.163 . S
C491 C97 2.144 . S
C509 C133 2.786 . S
C513 C418 2.766 . S
C531 C334 0.771 . S
C527 C25 0.766 . S
C549 C298 2.540 . S
C545 C37 2.524 . S
C567 C426 1.174 . S
C563 C103 1.174 . S
C585 C387 2.261 . S
C581 C109 2.302 . S
C599 C31 1.026 . S
C603 C423 1.023 . S
C621 C337 2.039 . S
C617 C73 2.086 . S
C635 C139 2.107 . S
C639 C306 2.072 . S
C653 C61 1.930 . S
C657 C374 1.936 . S
C675 C294 1.079 . S
C671 C175 1.054 . S
C689 C181 1.620 . S
C693 C338 1.589 . S
C707 C247 2.137 . S
C711 C386 2.181 . S
C725 C277 2.780 . S
C729 C427 2.762 . S
C743 C145 0.756 . S
C747 C343 0.764 . S
C765 C307 2.548 . S
C761 C211 2.518 . S
C783 C417 1.161 . S
C779 C217 1.153 . S
C801 C378 2.281 . S
C797 C283 2.299 . S
C815 C169 0.985 . S
C819 C414 1.020 . S
C837 C346 2.051 . S
C833 C241 2.075 . S
C855 C297 2.058 . S
C851 C253 2.104 . S
C869 C205 1.957 . S
C873 C383 1.947 . S
