# Generated by pormake.
# Topology pts, (4,4)-cn, num edge types: 1
# Building blocks:
#     Node 0, Type 0, BuildingBlock: GIZVER_clean_linker_0, # of connection points: 4
#     Node 1, Type 0, BuildingBlock: GIZVER_clean_linker_0, # of connection points: 4
#     Node 2, Type 1, BuildingBlock: AZAVOO_clean_sbu_0, # of connection points: 4
#     Node 3, Type 1, BuildingBlock: AZAVOO_clean_sbu_0, # of connection points: 4
#     Edge 4, Type (0, 1), BuildingBlock: TEMPAE_clean_linker_10, # of connection points: 2
#     Edge 5, Type (0, 1), BuildingBlock: TEMPAE_clean_linker_10, # of connection points: 2
#     Edge 6, Type (0, 1), BuildingBlock: TEMPAE_clean_linker_10, # of connection points: 2
#     Edge 7, Type (0, 1), BuildingBlock: TEMPAE_clean_linker_10, # of connection points: 2
#     Edge 8, Type (0, 1), BuildingBlock: TEMPAE_clean_linker_10, # of connection points: 2
#     Edge 9, Type (0, 1), BuildingBlock: TEMPAE_clean_linker_10, # of connection points: 2
#     Edge 10, Type (0, 1), BuildingBlock: TEMPAE_clean_linker_10, # of connection points: 2
#     Edge 11, Type (0, 1), BuildingBlock: TEMPAE_clean_linker_10, # of connection points: 2
# Relax obj value: 0.014
# Max RMSD: 0.077
# Mean RMSD: 0.070
data_MOF--net-pts--node1-AZAVOO_clean_sbu_0--node2-GIZVER_clean_linker_0--edge1-TEMPAE_clean_linker_10
_symmetry_space_group_name_H-M    P1
_symmetry_Int_Tables_number       1
_symmetry_cell_setting            triclinic
loop_
_symmetry_equiv_pos_as_xyz
'x, y, z'
_cell_length_a     25.584659
_cell_length_b     26.950526
_cell_length_c     34.650005
_cell_angle_alpha  90.4849
_cell_angle_beta   96.497584
_cell_angle_gamma 90.129783
loop_
_atom_site_label
_atom_site_type_symbol
_atom_site_fract_x
_atom_site_fract_y
_atom_site_fract_z
_atom_type_partial_charge
H0 H 0.58969 0.08404 0.05492 0.0
H1 H 0.58305 0.10306 0.93104 0.0
H2 H 0.71241 0.02531 -0.00714 0.0
H3 H 0.53441 0.15038 0.01955 0.0
H4 H 0.52621 0.15167 0.96777 0.0
H5 H 0.47949 0.09811 0.05454 0.0
H6 H 0.34982 0.02203 0.98997 0.0
H7 H 0.47068 0.08693 0.92973 0.0
C8 C 0.60575 0.07701 0.02776 0.0
C9 C 0.65347 0.05118 0.02785 0.0
C10 C 0.57951 0.0951 -0.00724 0.0
C11 C 0.602 0.08782 0.9579 0.0
C12 C 0.6497 0.06219 0.95781 0.0
C13 C 0.6745 0.04332 -0.00731 0.0
C14 C 0.53059 0.12633 -0.00689 0.0
C15 C 0.4816 0.0947 -0.00767 0.0
C16 C 0.46014 0.08435 0.02707 0.0
C17 C 0.41281 0.05771 0.0263 0.0
C18 C 0.38753 0.04071 -0.00931 0.0
C19 C 0.40777 0.05118 0.95573 0.0
C20 C 0.45514 0.07799 0.95667 0.0
H21 H 0.1187 0.5487 0.4424 0.0
H22 H 0.11094 0.55084 0.56597 0.0
H23 H 0.03008 0.66174 0.49352 0.0
H24 H 0.18152 0.50028 0.48733 0.0
H25 H 0.1749 0.49834 0.5382 0.0
H26 H 0.13185 0.4438 0.44219 0.0
H27 H 0.03556 0.33259 0.48696 0.0
H28 H 0.10192 0.4498 0.56218 0.0
C29 C 0.10349 0.56461 0.4677 0.0
C30 C 0.0712 0.6066 0.46365 0.0
C31 C 0.11726 0.54386 0.50452 0.0
C32 C 0.09924 0.56599 0.53742 0.0
C33 C 0.06729 0.60832 0.53366 0.0
C34 C 0.05263 0.62767 0.49655 0.0
C35 C 0.15234 0.49906 0.5088 0.0
C36 C 0.11938 0.45275 0.50264 0.0
C37 C 0.11233 0.42939 0.46594 0.0
C38 C 0.08125 0.38657 0.46025 0.0
C39 C 0.05696 0.3674 0.49113 0.0
C40 C 0.06462 0.38943 0.52815 0.0
C41 C 0.09543 0.43261 0.53364 0.0
Mg42 Mg 0.07245 0.97837 0.26551 0.0
O43 O 0.98912 0.98456 0.23239 0.0
O44 O 0.93318 0.97546 0.27708 0.0
Mg45 Mg 0.97899 0.96244 0.33678 0.0
C46 C 0.94228 0.98273 0.24205 0.0
C47 C 0.16352 0.01074 0.22704 0.0
O48 O 0.17991 -0.00038 0.26325 0.0
O49 O 0.064 0.05612 0.29009 0.0
O50 O 1.0117 0.04224 0.33645 0.0
O51 O 0.07288 0.89578 0.25757 0.0
O52 O 0.04419 0.93468 0.30726 0.0
C53 C 0.04006 0.07118 0.31835 0.0
C54 C 0.05217 0.89348 0.28992 0.0
O55 O 0.11448 0.00765 0.21584 0.0
Mg56 Mg 0.98657 0.98981 0.71506 0.0
O57 O 0.0698 0.99368 0.74932 0.0
O58 O 0.12632 0.97973 0.70561 0.0
Mg59 Mg 0.08159 0.96683 0.6456 0.0
C60 C 0.11682 0.98909 0.74034 0.0
C61 C 0.89621 0.02702 0.75344 0.0
O62 O 0.87895 0.01643 0.71712 0.0
O63 O 0.99988 0.06647 0.69041 0.0
O64 O 0.05415 0.04792 0.64621 0.0
O65 O 0.98186 0.90761 0.72355 0.0
O66 O 1.01422 0.94309 0.67429 0.0
C67 C 0.02667 0.07916 0.66313 0.0
C68 C 1.00429 0.90303 0.69206 0.0
O69 O 0.94513 0.0222 0.76431 0.0
C70 C 0.37357 0.0934 0.08316 0.0
C71 C 0.38576 0.05167 0.06155 0.0
C72 C 0.33937 0.08957 0.112 0.0
C73 C 0.31739 0.04282 0.11949 0.0
C74 C 0.33184 0.00017 0.09908 0.0
C75 C 0.36565 0.00517 0.07021 0.0
C76 C 0.32479 0.13587 0.13308 0.0
C77 C 0.30997 0.94952 0.10666 0.0
C78 C 0.25641 0.02081 0.21271 0.0
C79 C 0.20238 0.02268 0.19983 0.0
C80 C 0.29428 0.02841 0.18709 0.0
C81 C 0.27782 0.03848 0.14762 0.0
C82 C 0.2234 0.04196 0.13461 0.0
C83 C 0.18627 0.03386 0.16087 0.0
C84 C 0.35188 0.02414 0.20202 0.0
C85 C 0.20439 0.05306 0.09274 0.0
H86 H 0.38852 0.12948 0.07607 0.0
H87 H 0.37516 0.97292 0.05346 0.0
H88 H 0.28244 0.14399 0.12518 0.0
H89 H 0.33082 0.13027 0.16495 0.0
H90 H 0.34811 0.16866 0.12588 0.0
H91 H 0.32777 0.91973 0.0901 0.0
H92 H 0.31696 0.94091 0.13807 0.0
H93 H 0.26679 0.94916 0.09838 0.0
H94 H 0.26933 0.01228 0.24279 0.0
H95 H 0.14466 0.03555 0.15073 0.0
H96 H 0.37342 0.05798 0.19482 0.0
H97 H 0.36939 0.99231 0.18761 0.0
H98 H 0.35824 0.01866 0.23395 0.0
H99 H 0.22308 0.0876 0.08366 0.0
H100 H 0.16098 0.05735 0.08775 0.0
H101 H 0.21606 0.02258 0.07379 0.0
C102 C 0.08437 0.34996 0.59293 0.0
C103 C 0.04745 0.36179 0.56135 0.0
C104 C 0.07531 0.31044 0.61745 0.0
C105 C 0.02842 0.28225 0.60991 0.0
C106 C 0.98817 0.29849 0.58146 0.0
C107 C 0.99816 0.33828 0.55752 0.0
C108 C 0.11882 0.29503 0.64801 0.0
C109 C 0.93727 0.27004 0.57277 0.0
C110 C 0.04709 0.14328 0.61563 0.0
C111 C 0.02614 0.13144 0.6501 0.0
C112 C 0.04764 0.19213 0.60242 0.0
C113 C 0.02705 0.23055 0.62435 0.0
C114 C 1.00565 0.21912 0.65915 0.0
C115 C 1.00528 0.16954 0.67161 0.0
C116 C 0.07034 0.20251 0.56483 0.0
C117 C 0.9837 0.25919 0.68331 0.0
H118 H 0.12251 0.3681 0.59615 0.0
H119 H 0.96914 0.34805 0.53354 0.0
H120 H 0.1027 0.28185 0.67451 0.0
H121 H 0.14105 0.26392 0.63653 0.0
H122 H 0.14677 0.326 0.6561 0.0
H123 H 0.9063 0.29288 0.55642 0.0
H124 H 0.94415 0.23687 0.55483 0.0
H125 H 0.92266 0.25695 0.59986 0.0
H126 H 0.06295 0.11418 0.59862 0.0
H127 H 0.98917 0.16074 0.69835 0.0
H128 H 0.10394 0.22871 0.57022 0.0
H129 H 0.04024 0.22024 0.54383 0.0
H130 H 0.0843 0.16831 0.55114 0.0
H131 H 0.01565 0.28509 0.69468 0.0
H132 H 0.96539 0.24382 0.70825 0.0
H133 H 0.95386 0.28125 0.66519 0.0
C134 C 0.70808 0.98967 0.06798 0.0
C135 C 0.68542 0.03698 0.06448 0.0
C136 C 0.74673 0.9786 0.09872 0.0
C137 C 0.76349 0.01593 0.12639 0.0
C138 C 0.7387 0.06296 0.12415 0.0
C139 C 0.69973 0.07286 0.09326 0.0
C140 C 0.77149 0.92775 0.1004 0.0
C141 C 0.75553 0.10379 0.15302 0.0
C142 C 0.84531 0.98019 0.22053 0.0
C143 C 0.89672 0.99016 0.21204 0.0
C144 C 0.80161 0.9881 0.19293 0.0
C145 C 0.80933 0.00687 0.156 0.0
C146 C 0.86104 0.0169 0.14715 0.0
C147 C 0.9041 0.0082 0.17518 0.0
C148 C 0.74719 0.97639 0.20329 0.0
C149 C 0.87087 0.03719 0.10812 0.0
H150 H 0.69691 0.96186 0.04575 0.0
H151 H 0.68275 0.10964 0.09033 0.0
H152 H 0.81296 0.93067 0.09415 0.0
H153 H 0.77188 0.91207 0.12993 0.0
H154 H 0.75046 0.9015 0.07909 0.0
H155 H 0.72947 0.13673 0.1492 0.0
H156 H 0.75564 0.09018 0.18315 0.0
H157 H 0.7963 0.11555 0.14949 0.0
H158 H 0.83907 0.966 0.24883 0.0
H159 H 0.94353 0.01622 0.16835 0.0
H160 H 0.72775 0.94881 0.18241 0.0
H161 H 0.72264 0.01035 0.20111 0.0
H162 H 0.74789 0.96144 0.23312 0.0
H163 H 0.85524 0.01108 0.08467 0.0
H164 H 0.91336 0.04347 0.10591 0.0
H165 H 0.84978 0.07287 0.10288 0.0
C166 C 1.00467 0.65755 0.56883 0.0
C167 C 0.0548 0.63694 0.56815 0.0
C168 C 0.9958 0.69493 0.59565 0.0
C169 C 0.03814 0.71201 0.62234 0.0
C170 C 0.08738 0.68775 0.62438 0.0
C171 C 0.09517 0.6504 0.59716 0.0
C172 C 0.94249 0.7194 0.59278 0.0
C173 C 0.13335 0.70447 0.65269 0.0
C174 C 0.03668 0.85057 0.64028 0.0
C175 C 0.01719 0.85386 0.67641 0.0
C176 C 0.04509 0.80453 0.62311 0.0
C177 C 0.03359 0.76045 0.64247 0.0
C178 C 0.0154 0.76329 0.67951 0.0
C179 C 1.00727 0.81009 0.69606 0.0
C180 C 0.06468 0.8032 0.58355 0.0
C181 C 1.00298 0.71707 0.70104 0.0
H182 H 0.97321 0.6466 0.54675 0.0
H183 H 0.13407 0.63468 0.5967 0.0
H184 H 0.92996 0.72552 0.62205 0.0
H185 H 0.94484 0.75625 0.579 0.0
H186 H 0.91194 0.69698 0.57511 0.0
H187 H 0.16511 0.67626 0.65584 0.0
H188 H 0.14982 0.7393 0.64213 0.0
H189 H 0.1207 0.71241 0.68169 0.0
H190 H 0.04402 0.88405 0.62469 0.0
H191 H 0.99215 0.81235 0.724 0.0
H192 H 0.03444 0.78596 0.56205 0.0
H193 H 0.10065 0.78016 0.58439 0.0
H194 H 0.07386 0.84079 0.57319 0.0
H195 H 0.96781 0.69854 0.68557 0.0
H196 H 0.99504 0.72538 0.73129 0.0
H197 H 0.036 0.69035 0.70185 0.0
C198 C 0.35248 0.9912 0.91346 0.0
C199 C 0.37527 0.0385 0.91874 0.0
C200 C 0.31312 0.98134 0.88276 0.0
C201 C 0.29593 0.01981 0.85683 0.0
C202 C 0.32088 0.06688 0.86076 0.0
C203 C 0.36045 0.07563 0.89166 0.0
C204 C 0.28812 0.93045 0.87927 0.0
C205 C 0.30376 0.10883 0.83366 0.0
C206 C 0.21373 0.98659 0.76179 0.0
C207 C 0.16234 0.99589 0.77065 0.0
C208 C 0.25751 0.99412 0.7895 0.0
C209 C 0.24994 0.01157 0.82704 0.0
C210 C 0.19828 0.02083 0.83634 0.0
C211 C 0.1551 0.01276 0.80808 0.0
C212 C 0.3119 0.98346 0.77856 0.0
C213 C 0.18863 0.03953 0.87611 0.0
H214 H 0.36406 0.96242 0.93436 0.0
H215 H 0.37752 0.11239 0.89596 0.0
H216 H 0.24666 0.93293 0.88564 0.0
H217 H 0.2876 0.91589 0.84919 0.0
H218 H 0.30905 0.90352 0.89959 0.0
H219 H 0.32987 0.1418 0.83864 0.0
H220 H 0.30326 0.09657 0.80298 0.0
H221 H 0.26308 0.12003 0.83793 0.0
H222 H 0.21996 0.97339 0.73304 0.0
H223 H 0.1157 0.0202 0.81525 0.0
H224 H 0.33146 0.95522 0.79831 0.0
H225 H 0.3364 0.01757 0.78202 0.0
H226 H 0.31109 0.9698 0.74816 0.0
H227 H 0.20448 0.01272 0.89856 0.0
H228 H 0.14616 0.04521 0.87866 0.0
H229 H 0.20965 0.07522 0.88256 0.0
C230 C 0.0319 0.34553 0.4028 0.0
C231 C 0.08009 0.35617 0.42463 0.0
C232 C 0.02672 0.30462 0.37735 0.0
C233 C 0.07042 0.27307 0.37481 0.0
C234 C 0.12033 0.28663 0.39399 0.0
C235 C 0.12462 0.32844 0.41854 0.0
C236 C 0.97318 0.29228 0.35654 0.0
C237 C 0.16783 0.25384 0.39249 0.0
C238 C 0.03903 0.13568 0.37013 0.0
C239 C 0.04676 0.12329 0.33184 0.0
C240 C 0.04687 0.18424 0.38428 0.0
C241 C 0.06173 0.22178 0.35926 0.0
C242 C 0.0687 0.20985 0.32032 0.0
C243 C 0.06173 0.1605 0.30715 0.0
C244 C 0.03985 0.19516 0.42627 0.0
C245 C 0.08337 0.24915 0.29266 0.0
H246 H 0.99747 0.36699 0.40783 0.0
H247 H 0.16169 0.33647 0.43593 0.0
H248 H 0.97644 0.27816 0.32675 0.0
H249 H 0.9547 0.26271 0.37254 0.0
H250 H 0.9468 0.32507 0.35474 0.0
H251 H 0.20495 0.27361 0.403 0.0
H252 H 0.16416 0.22108 0.41121 0.0
H253 H 0.17045 0.24 0.36256 0.0
H254 H 0.02791 0.10706 0.38947 0.0
H255 H 0.06746 0.15115 0.27743 0.0
H256 H 1.00824 0.22294 0.42791 0.0
H257 H 0.0766 0.21125 0.44149 0.0
H258 H 0.02958 0.16146 0.44209 0.0
H259 H 0.05399 0.27951 0.29097 0.0
H260 H 0.08565 0.23411 0.26296 0.0
H261 H 0.12198 0.26578 0.30356 0.0
C262 C 0.68973 0.10231 0.9034 0.0
C263 C 0.67735 0.059 0.92258 0.0
C264 C 0.72372 0.10083 0.87428 0.0
C265 C 0.74523 0.05485 0.86394 0.0
C266 C 0.73077 0.01073 0.88202 0.0
C267 C 0.69727 0.01341 0.91131 0.0
C268 C 0.73846 0.14866 0.85584 0.0
C269 C 0.75208 0.96086 0.87135 0.0
C270 C 0.804 0.03871 0.76891 0.0
C271 C 0.85819 0.03908 0.78138 0.0
C272 C 0.7668 0.04524 0.79528 0.0
C273 C 0.78412 0.05271 0.83512 0.0
C274 C 0.83875 0.05512 0.84773 0.0
C275 C 0.87518 0.04812 0.82071 0.0
C276 C 0.70895 0.04222 0.78071 0.0
C277 C 0.85871 0.06356 0.88997 0.0
H278 H 0.67493 0.13768 0.91254 0.0
H279 H 0.68764 0.97994 0.9262 0.0
H280 H 0.78098 0.15626 0.86376 0.0
H281 H 0.73176 0.14547 0.82372 0.0
H282 H 0.71572 0.18078 0.86524 0.0
H283 H 0.73454 0.92985 0.88649 0.0
H284 H 0.74424 0.9544 0.83955 0.0
H285 H 0.79537 0.96023 0.87901 0.0
H286 H 0.7904 0.03192 0.73855 0.0
H287 H 0.91693 0.04867 0.83056 0.0
H288 H 0.68805 0.0753 0.79035 0.0
H289 H 0.69131 0.00921 0.79321 0.0
H290 H 0.70192 0.03944 0.74853 0.0
H291 H 0.8403 0.09716 0.90121 0.0
H292 H 0.90215 0.06802 0.89464 0.0
H293 H 0.84752 0.03166 0.90737 0.0
C294 C 1.01223 0.64627 0.41047 0.0
C295 C 0.0631 0.63382 0.42668 0.0
C296 C 1.00434 0.6821 0.38123 0.0
C297 C 0.04837 0.70703 0.36913 0.0
C298 C 0.09987 0.69179 0.38344 0.0
C299 C 0.10658 0.65488 0.41182 0.0
C300 C 0.94889 0.69597 0.36565 0.0
C301 C 0.14793 0.71784 0.37179 0.0
C302 C 0.04367 0.80074 0.28747 0.0
C303 C 0.04269 0.84552 0.30831 0.0
C304 C 0.04207 0.7549 0.3064 0.0
C305 C 0.04112 0.75412 0.34717 0.0
C306 C 0.03784 0.79927 0.36797 0.0
C307 C 0.03795 0.84433 0.34818 0.0
C308 C 0.04364 0.70751 0.28307 0.0
C309 C 0.03743 0.80024 0.41157 0.0
H310 H 0.97865 0.62979 0.42207 0.0
H311 H 0.14588 0.64552 0.42474 0.0
H312 H 0.93778 0.73086 0.3798 0.0
H313 H 0.94584 0.70256 0.3339 0.0
H314 H 0.92021 0.66669 0.37142 0.0
H315 H 0.18489 0.69821 0.38231 0.0
H316 H 0.14548 0.72109 0.33977 0.0
H317 H 0.14998 0.75602 0.38415 0.0
H318 H 0.04693 0.80149 0.25656 0.0
H319 H 0.03731 0.8788 0.36448 0.0
H320 H 0.01528 0.67997 0.29223 0.0
H321 H 0.08345 0.69098 0.28824 0.0
H322 H 0.03451 0.71406 0.25142 0.0
H323 H 1.00448 0.77738 0.4199 0.0
H324 H 0.03349 0.83843 0.42318 0.0
H325 H 0.0745 0.78402 0.42576 0.0
loop_
_geom_bond_atom_site_label_1
_geom_bond_atom_site_label_2
_geom_bond_distance
_geom_bond_site_symmetry_2
_ccdc_geom_bond_type
H0 C8 0.930 . S
H1 C11 0.930 . S
H2 C13 0.930 . S
H3 C14 0.970 . S
H4 C14 0.970 1_556 S
H5 C16 0.930 . S
H6 C18 0.928 . S
H7 C20 0.930 . S
C8 H0 0.930 . S
C8 C9 1.382 . S
C8 C10 1.426 . S
C9 C8 1.382 . S
C9 C13 1.389 1_545 S
C10 C8 1.426 . S
C10 C11 1.375 1_554 S
C10 C14 1.532 . S
C11 H1 0.930 . S
C11 C10 1.375 1_556 S
C11 C12 1.416 . S
C12 C11 1.416 . S
C12 C13 1.371 1_546 S
C13 H2 0.930 . S
C13 C9 1.389 1_565 S
C13 C12 1.371 1_564 S
C14 H3 0.970 . S
C14 H4 0.970 1_554 S
C14 C10 1.532 . S
C14 C15 1.499 . S
C15 C14 1.499 . S
C15 C16 1.377 . S
C15 C20 1.409 1_554 S
C16 H5 0.930 . S
C16 C15 1.377 . S
C16 C17 1.407 . S
C17 C16 1.407 . S
C17 C18 1.343 1_544 S
C18 H6 0.928 . S
C18 C17 1.343 1_566 S
C18 C19 1.417 1_565 S
C19 C18 1.417 1_545 S
C19 C20 1.387 . S
C20 H7 0.930 . S
C20 C15 1.409 1_556 S
C20 C19 1.387 . S
H21 C29 0.930 . S
H22 C32 0.930 . S
H23 C34 0.920 1_655 S
H24 C35 0.970 . S
H25 C35 0.970 . S
H26 C37 0.930 . S
H27 C39 0.930 1_655 S
H28 C41 0.930 . S
C29 H21 0.930 . S
C29 C30 1.382 . S
C29 C31 1.426 . S
C30 C29 1.382 . S
C30 C34 1.389 . S
C31 C29 1.426 . S
C31 C32 1.375 . S
C31 C35 1.532 . S
C32 H22 0.930 . S
C32 C31 1.375 . S
C32 C33 1.416 . S
C33 C32 1.416 . S
C33 C34 1.371 . S
C34 H23 0.920 1_455 S
C34 C30 1.389 . S
C34 C33 1.371 . S
C35 H24 0.970 . S
C35 H25 0.970 . S
C35 C31 1.532 . S
C35 C36 1.499 . S
C36 C35 1.499 . S
C36 C37 1.370 . S
C36 C41 1.415 . S
C37 H26 0.930 . S
C37 C36 1.370 . S
C37 C38 1.407 . S
C38 C37 1.407 . S
C38 C39 1.365 . S
C39 H27 0.930 1_455 S
C39 C38 1.365 . S
C39 C40 1.393 . S
C40 C39 1.393 . S
C40 C41 1.387 . S
C41 H28 0.930 . S
C41 C36 1.415 . S
C41 C40 1.387 . S
Mg42 O43 2.028 . S
Mg42 O49 1.986 . S
Mg42 O51 2.114 1_545 S
Mg42 O52 2.251 1_545 S
Mg42 O55 2.010 . S
O43 Mg42 2.028 . S
O43 C46 1.250 1_455 S
O44 Mg45 2.028 . S
O44 C46 1.248 . S
Mg45 O44 2.028 . S
Mg45 O50 2.032 . S
Mg45 O52 2.079 1_645 S
C46 O43 1.250 1_655 S
C46 O44 1.248 . S
C47 O48 1.264 . S
C47 O55 1.249 . S
O48 C47 1.264 . S
O49 Mg42 1.986 . S
O49 C53 1.246 . S
O50 Mg45 2.032 . S
O50 C53 1.259 1_655 S
O51 Mg42 2.114 1_565 S
O51 C54 1.252 . S
O52 Mg42 2.251 1_565 S
O52 Mg45 2.079 1_465 S
O52 C54 1.273 . S
C53 O49 1.246 . S
C53 O50 1.259 1_455 S
C54 O51 1.252 . S
C54 O52 1.273 . S
O55 Mg42 2.010 . S
O55 C47 1.249 . S
Mg56 O57 2.028 1_655 S
Mg56 O63 1.986 . S
Mg56 O65 2.114 1_545 S
Mg56 O66 2.251 1_645 S
Mg56 O69 2.010 . S
O57 Mg56 2.028 1_455 S
O57 C60 1.250 . S
O58 Mg59 2.028 . S
O58 C60 1.248 . S
Mg59 O58 2.028 . S
Mg59 O64 2.032 . S
Mg59 O66 2.079 1_545 S
C60 O57 1.250 . S
C60 O58 1.248 . S
C61 O62 1.264 . S
C61 O69 1.249 . S
O62 C61 1.264 . S
O63 Mg56 1.986 . S
O63 C67 1.246 1_655 S
O64 Mg59 2.032 . S
O64 C67 1.259 . S
O65 Mg56 2.114 1_565 S
O65 C68 1.252 1_655 S
O66 Mg56 2.251 1_465 S
O66 Mg59 2.079 1_565 S
O66 C68 1.273 . S
C67 O63 1.246 1_455 S
C67 O64 1.259 . S
C68 O65 1.252 1_455 S
C68 O66 1.273 . S
O69 Mg56 2.010 . S
O69 C61 1.249 . S
C70 C71 1.391 . S
C70 C72 1.394 . S
C70 H86 0.931 . S
C71 C70 1.391 . S
C71 C75 1.376 1_545 S
C72 C70 1.394 . S
C72 C73 1.369 . S
C72 C76 1.531 . S
C73 C72 1.369 . S
C73 C74 1.410 1_545 S
C73 C81 1.503 . S
C74 C73 1.410 1_565 S
C74 C75 1.392 . S
C74 C77 1.511 . S
C75 C71 1.376 1_565 S
C75 C74 1.392 . S
C75 H87 0.929 . S
C76 C72 1.531 . S
C76 H88 0.960 . S
C76 H89 0.962 . S
C76 H90 0.960 . S
C77 C74 1.511 . S
C77 H91 0.961 . S
C77 H92 0.961 . S
C77 H93 0.961 . S
C78 C79 1.370 1_565 S
C78 C80 1.363 . S
C78 H94 0.931 . S
C79 C78 1.370 1_545 S
C79 C83 1.408 . S
C80 C78 1.363 . S
C80 C81 1.370 1_565 S
C80 C84 1.524 . S
C81 C73 1.503 . S
C81 C80 1.370 1_545 S
C81 C82 1.403 . S
C82 C81 1.403 . S
C82 C83 1.404 . S
C82 C85 1.539 . S
C83 C79 1.408 . S
C83 C82 1.404 . S
C83 H95 0.930 . S
C84 C80 1.524 . S
C84 H96 0.956 . S
C84 H97 0.961 . S
C84 H98 0.961 . S
C85 C82 1.539 . S
C85 H99 0.958 . S
C85 H100 0.961 . S
C85 H101 0.960 . S
H86 C70 0.931 . S
H87 C75 0.929 . S
H88 C76 0.960 . S
H89 C76 0.962 . S
H90 C76 0.960 . S
H91 C77 0.961 . S
H92 C77 0.961 . S
H93 C77 0.961 . S
H94 C78 0.931 . S
H95 C83 0.930 . S
H96 C84 0.956 . S
H97 C84 0.961 . S
H98 C84 0.961 . S
H99 C85 0.958 . S
H100 C85 0.961 . S
H101 C85 0.960 . S
C102 C103 1.391 . S
C102 C104 1.394 . S
C102 H118 0.931 . S
C103 C102 1.391 . S
C103 C107 1.376 1_455 S
C104 C102 1.394 . S
C104 C105 1.369 . S
C104 C108 1.531 . S
C105 C104 1.369 . S
C105 C106 1.410 1_455 S
C105 C113 1.503 . S
C106 C105 1.410 1_655 S
C106 C107 1.392 . S
C106 C109 1.511 . S
C107 C103 1.376 1_655 S
C107 C106 1.392 . S
C107 H119 0.929 . S
C108 C104 1.531 . S
C108 H120 0.960 . S
C108 H121 0.962 . S
C108 H122 0.960 . S
C109 C106 1.511 . S
C109 H123 0.961 . S
C109 H124 0.961 . S
C109 H125 0.961 . S
C110 C111 1.370 . S
C110 C112 1.363 . S
C110 H126 0.931 . S
C111 C110 1.370 . S
C111 C115 1.408 1_455 S
C112 C110 1.363 . S
C112 C113 1.370 . S
C112 C116 1.524 . S
C113 C105 1.503 . S
C113 C112 1.370 . S
C113 C114 1.403 1_455 S
C114 C113 1.403 1_655 S
C114 C115 1.404 . S
C114 C117 1.539 . S
C115 C111 1.408 1_655 S
C115 C114 1.404 . S
C115 H127 0.930 . S
C116 C112 1.524 . S
C116 H128 0.956 . S
C116 H129 0.961 . S
C116 H130 0.961 . S
C117 C114 1.539 . S
C117 H131 0.958 . S
C117 H132 0.961 . S
C117 H133 0.960 . S
H118 C102 0.931 . S
H119 C107 0.929 . S
H120 C108 0.960 . S
H121 C108 0.962 . S
H122 C108 0.960 . S
H123 C109 0.961 . S
H124 C109 0.961 . S
H125 C109 0.961 . S
H126 C110 0.931 . S
H127 C115 0.930 . S
H128 C116 0.956 . S
H129 C116 0.961 . S
H130 C116 0.961 . S
H131 C117 0.958 . S
H132 C117 0.961 . S
H133 C117 0.960 . S
C134 C135 1.391 1_565 S
C134 C136 1.394 . S
C134 H150 0.931 . S
C135 C134 1.391 1_545 S
C135 C139 1.376 . S
C136 C134 1.394 . S
C136 C137 1.369 1_565 S
C136 C140 1.531 . S
C137 C136 1.369 1_545 S
C137 C138 1.410 . S
C137 C145 1.503 . S
C138 C137 1.410 . S
C138 C139 1.392 . S
C138 C141 1.511 . S
C139 C135 1.376 . S
C139 C138 1.392 . S
C139 H151 0.929 . S
C140 C136 1.531 . S
C140 H152 0.960 . S
C140 H153 0.962 . S
C140 H154 0.960 . S
C141 C138 1.511 . S
C141 H155 0.961 . S
C141 H156 0.961 . S
C141 H157 0.961 . S
C142 C143 1.370 . S
C142 C144 1.363 . S
C142 H158 0.931 . S
C143 C142 1.370 . S
C143 C147 1.408 1_545 S
C144 C142 1.363 . S
C144 C145 1.370 . S
C144 C148 1.524 . S
C145 C137 1.503 . S
C145 C144 1.370 . S
C145 C146 1.403 1_545 S
C146 C145 1.403 1_565 S
C146 C147 1.404 . S
C146 C149 1.539 . S
C147 C143 1.408 1_565 S
C147 C146 1.404 . S
C147 H159 0.930 . S
C148 C144 1.524 . S
C148 H160 0.956 . S
C148 H161 0.961 . S
C148 H162 0.961 . S
C149 C146 1.539 . S
C149 H163 0.958 . S
C149 H164 0.961 . S
C149 H165 0.960 . S
H150 C134 0.931 . S
H151 C139 0.929 . S
H152 C140 0.960 . S
H153 C140 0.962 . S
H154 C140 0.960 . S
H155 C141 0.961 . S
H156 C141 0.961 . S
H157 C141 0.961 . S
H158 C142 0.931 . S
H159 C147 0.930 . S
H160 C148 0.956 . S
H161 C148 0.961 . S
H162 C148 0.961 . S
H163 C149 0.958 . S
H164 C149 0.961 . S
H165 C149 0.960 . S
C166 C167 1.391 1_655 S
C166 C168 1.394 . S
C166 H182 0.931 . S
C167 C166 1.391 1_455 S
C167 C171 1.376 . S
C168 C166 1.394 . S
C168 C169 1.369 1_655 S
C168 C172 1.531 . S
C169 C168 1.369 1_455 S
C169 C170 1.410 . S
C169 C177 1.503 . S
C170 C169 1.410 . S
C170 C171 1.392 . S
C170 C173 1.511 . S
C171 C167 1.376 . S
C171 C170 1.392 . S
C171 H183 0.929 . S
C172 C168 1.531 . S
C172 H184 0.960 . S
C172 H185 0.962 . S
C172 H186 0.960 . S
C173 C170 1.511 . S
C173 H187 0.961 . S
C173 H188 0.961 . S
C173 H189 0.961 . S
C174 C175 1.370 . S
C174 C176 1.363 . S
C174 H190 0.931 . S
C175 C174 1.370 . S
C175 C179 1.408 1_455 S
C176 C174 1.363 . S
C176 C177 1.370 . S
C176 C180 1.524 . S
C177 C169 1.503 . S
C177 C176 1.370 . S
C177 C178 1.403 1_455 S
C178 C177 1.403 1_655 S
C178 C179 1.404 . S
C178 C181 1.539 . S
C179 C175 1.408 1_655 S
C179 C178 1.404 . S
C179 H191 0.930 . S
C180 C176 1.524 . S
C180 H192 0.956 . S
C180 H193 0.961 . S
C180 H194 0.961 . S
C181 C178 1.539 . S
C181 H195 0.958 . S
C181 H196 0.961 . S
C181 H197 0.960 . S
H182 C166 0.931 . S
H183 C171 0.929 . S
H184 C172 0.960 . S
H185 C172 0.962 . S
H186 C172 0.960 . S
H187 C173 0.961 . S
H188 C173 0.961 . S
H189 C173 0.961 . S
H190 C174 0.931 . S
H191 C179 0.930 . S
H192 C180 0.956 . S
H193 C180 0.961 . S
H194 C180 0.961 . S
H195 C181 0.958 . S
H196 C181 0.961 . S
H197 C181 0.960 . S
C198 C199 1.391 1_565 S
C198 C200 1.394 . S
C198 H214 0.931 . S
C199 C198 1.391 1_545 S
C199 C203 1.376 . S
C200 C198 1.394 . S
C200 C201 1.369 . S
C200 C204 1.531 . S
C201 C200 1.369 . S
C201 C202 1.410 1_565 S
C201 C209 1.503 1_565 S
C202 C201 1.410 1_545 S
C202 C203 1.392 . S
C202 C205 1.511 . S
C203 C199 1.376 . S
C203 C202 1.392 . S
C203 H215 0.929 . S
C204 C200 1.531 . S
C204 H216 0.960 . S
C204 H217 0.962 . S
C204 H218 0.960 . S
C205 C202 1.511 . S
C205 H219 0.961 . S
C205 H220 0.961 . S
C205 H221 0.961 . S
C206 C207 1.370 . S
C206 C208 1.363 . S
C206 H222 0.931 . S
C207 C206 1.370 . S
C207 C211 1.408 1_545 S
C208 C206 1.363 . S
C208 C209 1.370 . S
C208 C212 1.524 . S
C209 C201 1.503 1_545 S
C209 C208 1.370 . S
C209 C210 1.403 1_545 S
C210 C209 1.403 1_565 S
C210 C211 1.404 . S
C210 C213 1.539 . S
C211 C207 1.408 1_565 S
C211 C210 1.404 . S
C211 H223 0.930 . S
C212 C208 1.524 . S
C212 H224 0.956 . S
C212 H225 0.961 . S
C212 H226 0.961 . S
C213 C210 1.539 . S
C213 H227 0.958 . S
C213 H228 0.961 . S
C213 H229 0.960 . S
H214 C198 0.931 . S
H215 C203 0.929 . S
H216 C204 0.960 . S
H217 C204 0.962 . S
H218 C204 0.960 . S
H219 C205 0.961 . S
H220 C205 0.961 . S
H221 C205 0.961 . S
H222 C206 0.931 . S
H223 C211 0.930 . S
H224 C212 0.956 . S
H225 C212 0.961 . S
H226 C212 0.961 . S
H227 C213 0.958 . S
H228 C213 0.961 . S
H229 C213 0.960 . S
C230 C231 1.391 . S
C230 C232 1.394 . S
C230 H246 0.931 1_455 S
C231 C230 1.391 . S
C231 C235 1.376 . S
C232 C230 1.394 . S
C232 C233 1.369 . S
C232 C236 1.531 1_455 S
C233 C232 1.369 . S
C233 C234 1.410 . S
C233 C241 1.503 . S
C234 C233 1.410 . S
C234 C235 1.392 . S
C234 C237 1.511 . S
C235 C231 1.376 . S
C235 C234 1.392 . S
C235 H247 0.929 . S
C236 C232 1.531 1_655 S
C236 H248 0.960 1_655 S
C236 H249 0.962 . S
C236 H250 0.960 1_655 S
C237 C234 1.511 . S
C237 H251 0.961 . S
C237 H252 0.961 . S
C237 H253 0.961 . S
C238 C239 1.370 1_655 S
C238 C240 1.363 . S
C238 H254 0.931 . S
C239 C238 1.370 1_455 S
C239 C243 1.408 . S
C240 C238 1.363 . S
C240 C241 1.370 1_655 S
C240 C244 1.524 . S
C241 C233 1.503 . S
C241 C240 1.370 1_455 S
C241 C242 1.403 . S
C242 C241 1.403 . S
C242 C243 1.404 . S
C242 C245 1.539 . S
C243 C239 1.408 . S
C243 C242 1.404 . S
C243 H255 0.930 . S
C244 C240 1.524 . S
C244 H256 0.956 . S
C244 H257 0.961 . S
C244 H258 0.961 . S
C245 C242 1.539 . S
C245 H259 0.958 . S
C245 H260 0.961 . S
C245 H261 0.960 . S
H246 C230 0.931 1_655 S
H247 C235 0.929 . S
H248 C236 0.960 1_455 S
H249 C236 0.962 . S
H250 C236 0.960 1_455 S
H251 C237 0.961 . S
H252 C237 0.961 . S
H253 C237 0.961 . S
H254 C238 0.931 . S
H255 C243 0.930 . S
H256 C244 0.956 . S
H257 C244 0.961 . S
H258 C244 0.961 . S
H259 C245 0.958 . S
H260 C245 0.961 . S
H261 C245 0.960 . S
C262 C263 1.391 1_545 S
C262 C264 1.394 . S
C262 H278 0.931 . S
C263 C262 1.391 1_565 S
C263 C267 1.376 . S
C264 C262 1.394 . S
C264 C265 1.369 1_545 S
C264 C268 1.531 . S
C265 C264 1.369 1_565 S
C265 C266 1.410 . S
C265 C273 1.502 1_565 S
C266 C265 1.410 . S
C266 C267 1.392 . S
C266 C269 1.511 . S
C267 C263 1.376 . S
C267 C266 1.392 . S
C267 H279 0.929 . S
C268 C264 1.531 . S
C268 H280 0.960 . S
C268 H281 0.962 . S
C268 H282 0.960 . S
C269 C266 1.511 . S
C269 H283 0.961 . S
C269 H284 0.961 . S
C269 H285 0.961 . S
C270 C271 1.370 . S
C270 C272 1.363 . S
C270 H286 0.931 . S
C271 C270 1.370 . S
C271 C275 1.408 1_545 S
C272 C270 1.363 . S
C272 C273 1.379 . S
C272 C276 1.524 . S
C273 C265 1.502 1_545 S
C273 C272 1.379 . S
C273 C274 1.395 1_545 S
C274 C273 1.395 1_565 S
C274 C275 1.404 . S
C274 C277 1.539 . S
C275 C271 1.408 1_565 S
C275 C274 1.404 . S
C275 H287 0.930 . S
C276 C272 1.524 . S
C276 H288 0.956 . S
C276 H289 0.961 . S
C276 H290 0.961 . S
C277 C274 1.539 . S
C277 H291 0.958 . S
C277 H292 0.961 . S
C277 H293 0.960 . S
H278 C262 0.931 . S
H279 C267 0.929 . S
H280 C268 0.960 . S
H281 C268 0.962 . S
H282 C268 0.960 . S
H283 C269 0.961 . S
H284 C269 0.961 . S
H285 C269 0.961 . S
H286 C270 0.931 . S
H287 C275 0.930 . S
H288 C276 0.956 . S
H289 C276 0.961 . S
H290 C276 0.961 . S
H291 C277 0.958 . S
H292 C277 0.961 . S
H293 C277 0.960 . S
C294 C295 1.391 1_655 S
C294 C296 1.394 . S
C294 H310 0.931 . S
C295 C294 1.391 1_455 S
C295 C299 1.376 . S
C296 C294 1.394 . S
C296 C297 1.369 1_655 S
C296 C300 1.531 . S
C297 C296 1.369 1_455 S
C297 C298 1.410 . S
C297 C305 1.503 . S
C298 C297 1.410 . S
C298 C299 1.392 . S
C298 C301 1.511 . S
C299 C295 1.376 . S
C299 C298 1.392 . S
C299 H311 0.929 . S
C300 C296 1.531 . S
C300 H312 0.960 . S
C300 H313 0.962 . S
C300 H314 0.960 . S
C301 C298 1.511 . S
C301 H315 0.961 . S
C301 H316 0.961 . S
C301 H317 0.961 . S
C302 C303 1.370 . S
C302 C304 1.363 . S
C302 H318 0.931 . S
C303 C302 1.370 . S
C303 C307 1.408 . S
C304 C302 1.363 . S
C304 C305 1.370 . S
C304 C308 1.524 1_455 S
C305 C297 1.503 . S
C305 C304 1.370 . S
C305 C306 1.403 . S
C306 C305 1.403 . S
C306 C307 1.404 . S
C306 C309 1.539 . S
C307 C303 1.408 . S
C307 C306 1.404 . S
C307 H319 0.930 . S
C308 C304 1.524 1_655 S
C308 H320 0.956 . S
C308 H321 0.961 1_655 S
C308 H322 0.961 . S
C309 C306 1.539 . S
C309 H323 0.958 . S
C309 H324 0.961 . S
C309 H325 0.960 . S
H310 C294 0.931 . S
H311 C299 0.929 . S
H312 C300 0.960 . S
H313 C300 0.962 . S
H314 C300 0.960 . S
H315 C301 0.961 . S
H316 C301 0.961 . S
H317 C301 0.961 . S
H318 C302 0.931 . S
H319 C307 0.930 . S
H320 C308 0.956 . S
H321 C308 0.961 1_455 S
H322 C308 0.961 . S
H323 C309 0.958 . S
H324 C309 0.961 . S
H325 C309 0.960 . S
C79 C47 1.302 . S
C71 C17 1.429 . S
C111 C67 1.529 . S
C103 C40 1.506 . S
C143 C46 1.509 . S
C135 C9 1.455 . S
C175 C68 1.548 . S
C167 C33 1.488 . S
C207 C60 1.496 . S
C199 C19 1.469 . S
C239 C53 1.539 . S
C231 C38 1.456 . S
C271 C61 1.289 . S
C263 C12 1.455 1_565 S
C295 C30 1.444 . S
C303 C54 1.558 . S
