# Generated by pormake.
# Topology zzz, (3,6)-cn, num edge types: 1
# Building blocks:
#     Node 0, Type 0, BuildingBlock: BELTOD_clean_linker_0, # of connection points: 3
#     Node 1, Type 0, BuildingBlock: BELTOD_clean_linker_0, # of connection points: 3
#     Node 2, Type 0, BuildingBlock: BELTOD_clean_linker_0, # of connection points: 3
#     Node 3, Type 0, BuildingBlock: BELTOD_clean_linker_0, # of connection points: 3
#     Node 4, Type 0, BuildingBlock: BELTOD_clean_linker_0, # of connection points: 3
#     Node 5, Type 0, BuildingBlock: BELTOD_clean_linker_0, # of connection points: 3
#     Node 6, Type 0, BuildingBlock: BELTOD_clean_linker_0, # of connection points: 3
#     Node 7, Type 0, BuildingBlock: BELTOD_clean_linker_0, # of connection points: 3
#     Node 8, Type 1, BuildingBlock: BETFAJ_clean_sbu_0, # of connection points: 6
#     Node 9, Type 1, BuildingBlock: BETFAJ_clean_sbu_0, # of connection points: 6
#     Node 10, Type 1, BuildingBlock: BETFAJ_clean_sbu_0, # of connection points: 6
#     Node 11, Type 1, BuildingBlock: BETFAJ_clean_sbu_0, # of connection points: 6
#     Edge 12, Type (0, 1), BuildingBlock: ZUJKAS_clean_linker_0, # of connection points: 2
#     Edge 13, Type (0, 1), BuildingBlock: ZUJKAS_clean_linker_0, # of connection points: 2
#     Edge 14, Type (0, 1), BuildingBlock: ZUJKAS_clean_linker_0, # of connection points: 2
#     Edge 15, Type (0, 1), BuildingBlock: ZUJKAS_clean_linker_0, # of connection points: 2
#     Edge 16, Type (0, 1), BuildingBlock: ZUJKAS_clean_linker_0, # of connection points: 2
#     Edge 17, Type (0, 1), BuildingBlock: ZUJKAS_clean_linker_0, # of connection points: 2
#     Edge 18, Type (0, 1), BuildingBlock: ZUJKAS_clean_linker_0, # of connection points: 2
#     Edge 19, Type (0, 1), BuildingBlock: ZUJKAS_clean_linker_0, # of connection points: 2
#     Edge 20, Type (0, 1), BuildingBlock: ZUJKAS_clean_linker_0, # of connection points: 2
#     Edge 21, Type (0, 1), BuildingBlock: ZUJKAS_clean_linker_0, # of connection points: 2
#     Edge 22, Type (0, 1), BuildingBlock: ZUJKAS_clean_linker_0, # of connection points: 2
#     Edge 23, Type (0, 1), BuildingBlock: ZUJKAS_clean_linker_0, # of connection points: 2
#     Edge 24, Type (0, 1), BuildingBlock: ZUJKAS_clean_linker_0, # of connection points: 2
#     Edge 25, Type (0, 1), BuildingBlock: ZUJKAS_clean_linker_0, # of connection points: 2
#     Edge 26, Type (0, 1), BuildingBlock: ZUJKAS_clean_linker_0, # of connection points: 2
#     Edge 27, Type (0, 1), BuildingBlock: ZUJKAS_clean_linker_0, # of connection points: 2
#     Edge 28, Type (0, 1), BuildingBlock: ZUJKAS_clean_linker_0, # of connection points: 2
#     Edge 29, Type (0, 1), BuildingBlock: ZUJKAS_clean_linker_0, # of connection points: 2
#     Edge 30, Type (0, 1), BuildingBlock: ZUJKAS_clean_linker_0, # of connection points: 2
#     Edge 31, Type (0, 1), BuildingBlock: ZUJKAS_clean_linker_0, # of connection points: 2
#     Edge 32, Type (0, 1), BuildingBlock: ZUJKAS_clean_linker_0, # of connection points: 2
#     Edge 33, Type (0, 1), BuildingBlock: ZUJKAS_clean_linker_0, # of connection points: 2
#     Edge 34, Type (0, 1), BuildingBlock: ZUJKAS_clean_linker_0, # of connection points: 2
#     Edge 35, Type (0, 1), BuildingBlock: ZUJKAS_clean_linker_0, # of connection points: 2
# Relax obj value: 0.399
# Max RMSD: 0.261
# Mean RMSD: 0.243
data_MOF--net-zzz--node1-BETFAJ_clean_sbu_0--node2-BELTOD_clean_linker_0--edge1-ZUJKAS_clean_linker_0
_symmetry_space_group_name_H-M    P1
_symmetry_Int_Tables_number       1
_symmetry_cell_setting            triclinic
loop_
_symmetry_equiv_pos_as_xyz
'x, y, z'
_cell_length_a     71.257514
_cell_length_b     71.236072
_cell_length_c     21.358675
_cell_angle_alpha  89.979759
_cell_angle_beta   89.964278
_cell_angle_gamma 89.957728
loop_
_atom_site_label
_atom_site_type_symbol
_atom_site_fract_x
_atom_site_fract_y
_atom_site_fract_z
_atom_type_partial_charge
P0 P 0.71851 0.4768 0.3325 0.0
H1 H 0.72728 0.48672 0.4624 0.0
H2 H 0.75607 0.49877 0.50922 0.0
H3 H 0.77745 0.51183 0.32505 0.0
H4 H 0.74846 0.49998 0.27854 0.0
H5 H 0.68097 0.46371 0.30657 0.0
H6 H 0.65657 0.47413 0.23538 0.0
H7 H 0.68969 0.523 0.18858 0.0
H8 H 0.71446 0.51205 0.25959 0.0
H9 H 0.74834 0.45026 0.35785 0.0
H10 H 0.7189 0.47092 0.19534 0.0
O11 O 0.70938 0.46347 0.38911 0.0
H12 H 0.77134 0.43509 0.29024 0.0
H13 H 0.74139 0.45519 0.12744 0.0
C14 C 0.73569 0.49236 0.36686 0.0
C15 C 0.73784 0.49279 0.4321 0.0
C16 C 0.75445 0.49949 0.45886 0.0
C17 C 0.76927 0.50588 0.42086 0.0
C18 C 0.76635 0.50706 0.35579 0.0
C19 C 0.74969 0.50035 0.32906 0.0
C20 C 0.69938 0.48729 0.28954 0.0
C21 C 0.68282 0.47694 0.28232 0.0
C22 C 0.66879 0.48296 0.24141 0.0
C23 C 0.671 0.49951 0.2062 0.0
C24 C 0.68752 0.51013 0.21456 0.0
C25 C 0.70163 0.50402 0.25571 0.0
C26 C 0.73193 0.46173 0.28183 0.0
C27 C 0.74646 0.45097 0.30758 0.0
C28 C 0.75957 0.44223 0.26874 0.0
C29 C 0.75833 0.44405 0.20328 0.0
C30 C 0.74295 0.45379 0.17765 0.0
C31 C 0.72995 0.46269 0.2166 0.0
P32 P 0.02904 0.72356 0.34265 0.0
H33 H 0.02795 0.73808 0.47027 0.0
H34 H 0.01742 0.76826 0.51096 0.0
H35 H 0.98908 0.7797 0.33681 0.0
H36 H 1.00018 0.74954 0.29499 0.0
H37 H 0.04436 0.68849 0.30096 0.0
H38 H 0.0329 0.66363 0.23377 0.0
H39 H 0.97869 0.69084 0.22491 0.0
H40 H 0.99065 0.71619 0.29189 0.0
H41 H 0.06127 0.74812 0.35769 0.0
H42 H 0.026 0.72887 0.20675 0.0
O43 O 0.0436 0.71456 0.39602 0.0
H44 H 0.07597 0.77085 0.28706 0.0
H45 H 0.04053 0.75147 0.13634 0.0
C46 C 0.01465 0.74128 0.37971 0.0
C47 C 0.01888 0.74664 0.44135 0.0
C48 C 0.01298 0.76401 0.46457 0.0
C49 C 0.00255 0.77631 0.42687 0.0
C50 C 0.99698 0.77037 0.36695 0.0
C51 C 0.00316 0.75303 0.3433 0.0
C52 C 0.01831 0.70405 0.3024 0.0
C53 C 0.02985 0.68894 0.28584 0.0
C54 C 0.02322 0.67462 0.24733 0.0
C55 C 0.00476 0.67502 0.22406 0.0
C56 C 0.99301 0.69009 0.24163 0.0
C57 C 0.99977 0.70455 0.28039 0.0
C58 C 0.0428 0.73659 0.28724 0.0
C59 C 0.05713 0.74836 0.30891 0.0
C60 C 0.06542 0.76141 0.26868 0.0
C61 C 0.05941 0.76291 0.20621 0.0
C62 C 0.0457 0.75042 0.1839 0.0
C63 C 0.03735 0.73748 0.22426 0.0
P64 P 0.78232 0.02456 0.33378 0.0
H65 H 0.76845 0.02681 0.46222 0.0
H66 H 0.73936 0.01604 0.50898 0.0
H67 H 0.72871 0.9816 0.34629 0.0
H68 H 0.75771 0.99305 0.29874 0.0
H69 H 0.82301 0.02211 0.3504 0.0
H70 H 0.84795 0.01214 0.27959 0.0
H71 H 0.80655 0.98953 0.15285 0.0
H72 H 0.78161 0.99951 0.22408 0.0
H73 H 0.74376 0.0389 0.33346 0.0
H74 H 0.79209 0.04138 0.21173 0.0
O75 O 0.79258 0.03967 0.38268 0.0
H76 H 0.72453 0.05276 0.25237 0.0
H77 H 0.77284 0.05586 0.13018 0.0
C78 C 0.76547 0.01065 0.37701 0.0
C79 C 0.76027 0.0164 0.43739 0.0
C80 C 0.74347 0.01021 0.46423 0.0
C81 C 0.73141 0.99811 0.43122 0.0
C82 C 0.73742 0.9912 0.37269 0.0
C83 C 0.75424 0.99748 0.34578 0.0
C84 C 0.80037 0.01163 0.29265 0.0
C85 C 0.81926 0.01452 0.30836 0.0
C86 C 0.83355 0.00895 0.26747 0.0
C87 C 0.82924 1.00035 0.20997 0.0
C88 C 0.81037 0.99604 0.19683 0.0
C89 C 0.79606 1.00165 0.23784 0.0
C90 C 0.76917 0.03815 0.27762 0.0
C91 C 0.75033 0.04254 0.28942 0.0
C92 C 0.73934 0.05079 0.24305 0.0
C93 C 0.74707 0.05519 0.18423 0.0
C94 C 0.76637 0.05223 0.17443 0.0
C95 C 0.77737 0.04391 0.22103 0.0
P96 P 0.47131 0.78946 0.33491 0.0
H97 H 0.4743 0.77578 0.46356 0.0
H98 H 0.48676 0.74659 0.5046 0.0
H99 H 0.51495 0.73641 0.32856 0.0
H100 H 0.50175 0.7656 0.28699 0.0
H101 H 0.45236 0.82122 0.28252 0.0
H102 H 0.46221 0.84759 0.21943 0.0
H103 H 0.52017 0.8306 0.24161 0.0
H104 H 0.50975 0.80323 0.30251 0.0
H105 H 0.44443 0.75897 0.34407 0.0
H106 H 0.47347 0.78872 0.19714 0.0
O107 O 0.45525 0.79631 0.38706 0.0
H108 H 0.4327 0.73644 0.26746 0.0
H109 H 0.46107 0.76694 0.12011 0.0
C110 C 0.4871 0.77301 0.37212 0.0
C111 C 0.48371 0.76768 0.43433 0.0
C112 C 0.49088 0.75082 0.45789 0.0
C113 C 0.50166 0.73882 0.41972 0.0
C114 C 0.50638 0.74503 0.35901 0.0
C115 C 0.49913 0.76194 0.33544 0.0
C116 C 0.48031 0.81041 0.29799 0.0
C117 C 0.46724 0.82333 0.2748 0.0
C118 C 0.47299 0.83859 0.23877 0.0
C119 C 0.49211 0.8416 0.2255 0.0
C120 C 0.50532 0.82876 0.25015 0.0
C121 C 0.49944 0.81318 0.28568 0.0
C122 C 0.45959 0.77567 0.27636 0.0
C123 C 0.44775 0.76102 0.29504 0.0
C124 C 0.44099 0.74819 0.25107 0.0
C125 C 0.44598 0.74984 0.18754 0.0
C126 C 0.45716 0.76511 0.16873 0.0
C127 C 0.46409 0.77775 0.21284 0.0
P128 P 0.28092 0.46161 0.01702 0.0
H129 H 0.26716 0.46102 0.8876 0.0
H130 H 0.2379 0.4725 0.84313 0.0
H131 H 0.22804 0.50539 0.00989 0.0
H132 H 0.25712 0.49332 0.05493 0.0
H133 H 0.31864 0.44677 0.02987 0.0
H134 H 0.34589 0.45717 0.08852 0.0
H135 H 0.31777 0.50942 0.13061 0.0
H136 H 0.29027 0.49874 0.07155 0.0
H137 H 0.24589 0.44123 0.02253 0.0
H138 H 0.28547 0.46401 0.15509 0.0
O139 O 0.28638 0.44316 0.97238 0.0
H140 H 0.22247 0.43883 0.10472 0.0
H141 H 0.26233 0.46099 0.23817 0.0
C142 C 0.26453 0.47635 0.97463 0.0
C143 C 0.25912 0.47126 0.9138 0.0
C144 C 0.24223 0.47783 0.88834 0.0
C145 C 0.23033 0.48964 0.92327 0.0
C146 C 0.23663 0.49602 0.98205 0.0
C147 C 0.25353 0.48943 0.00744 0.0
C148 C 0.30245 0.47207 0.04521 0.0
C149 C 0.31849 0.46074 0.04983 0.0
C150 C 0.33414 0.46672 0.08368 0.0
C151 C 0.33409 0.48415 0.11457 0.0
C152 C 0.31825 0.49585 0.10785 0.0
C153 C 0.30257 0.48986 0.0734 0.0
C154 C 0.26726 0.45321 0.08212 0.0
C155 C 0.2498 0.44499 0.0699 0.0
C156 C 0.2364 0.44356 0.11726 0.0
C157 C 0.24037 0.45012 0.17796 0.0
C158 C 0.25867 0.4563 0.19153 0.0
C159 C 0.27198 0.45796 0.14386 0.0
P160 P 0.03995 0.28731 0.01871 0.0
H161 H 0.03378 0.27551 0.88912 0.0
H162 H 0.02167 0.24624 0.8471 0.0
H163 H 0.99959 0.2319 0.02935 0.0
H164 H 0.01223 0.26106 0.07153 0.0
H165 H 0.05611 0.32287 0.05415 0.0
H166 H 0.04667 0.34766 0.12592 0.0
H167 H 0.995 0.3181 0.16404 0.0
H168 H 0.0046 0.29318 0.0913 0.0
H169 H 0.07271 0.26464 0.98832 0.0
H170 H 0.03804 0.2756 0.14968 0.0
O171 O 0.05312 0.29685 0.96239 0.0
H172 H 0.0853 0.23667 0.03926 0.0
H173 H 0.04982 0.24739 0.19968 0.0
C174 C 0.02384 0.27074 0.98358 0.0
C175 C 0.02569 0.26649 0.91971 0.0
C176 C 0.01878 0.24958 0.8956 0.0
C177 C 0.0099 0.23646 0.93497 0.0
C178 C 0.00667 0.24148 0.99784 0.0
C179 C 0.01359 0.25842 0.02186 0.0
C180 C 0.03096 0.30627 0.06641 0.0
C181 C 0.04256 0.32184 0.0769 0.0
C182 C 0.03713 0.33607 0.11806 0.0
C183 C 0.02001 0.33497 0.15058 0.0
C184 C 0.00831 0.31934 0.13991 0.0
C185 C 0.01373 0.30512 0.09805 0.0
C186 C 0.05456 0.27228 0.06538 0.0
C187 C 0.06838 0.26147 0.03577 0.0
C188 C 0.07537 0.24531 0.06463 0.0
C189 C 0.06832 0.23953 0.12308 0.0
C190 C 0.05576 0.25143 0.15498 0.0
C191 C 0.04895 0.26766 0.12632 0.0
P192 P 0.23157 0.04615 0.10726 0.0
H193 H 0.24311 0.06402 0.98977 0.0
H194 H 0.26815 0.05611 0.91641 0.0
H195 H 0.27398 1.00178 0.00447 0.0
H196 H 0.2484 0.00957 0.07594 0.0
H197 H 0.20006 0.07012 0.14047 0.0
H198 H 0.16885 0.06298 0.17882 0.0
H199 H 0.17685 0.00463 0.13055 0.0
H200 H 0.20846 0.01202 0.09148 0.0
H201 H 0.27037 0.04741 0.14686 0.0
H202 H 0.21888 0.02306 0.21589 0.0
O203 O 0.23488 0.06933 0.11039 0.0
H204 H 0.28797 0.03015 0.22602 0.0
H205 H 0.23642 0.00576 0.2947 0.0
C206 C 0.24404 0.03752 0.03913 0.0
C207 C 0.2493 0.05014 0.9919 0.0
C208 C 0.26388 0.04568 0.95046 0.0
C209 C 0.2736 0.02851 0.95557 0.0
C210 C 0.26695 0.01516 0.99895 0.0
C211 C 0.25223 0.01959 0.04002 0.0
C212 C 0.20664 0.04163 0.11267 0.0
C213 C 0.19493 0.05589 0.13564 0.0
C214 C 0.17697 0.05176 0.15783 0.0
C215 C 0.17034 0.03319 0.15842 0.0
C216 C 0.18159 0.01907 0.13131 0.0
C217 C 0.19957 0.0233 0.10814 0.0
C218 C 0.24337 0.03629 0.1743 0.0
C219 C 0.2628 0.03864 0.17975 0.0
C220 C 0.27284 0.02881 0.2252 0.0
C221 C 0.26356 0.01646 0.26623 0.0
C222 C 0.24395 0.01494 0.26302 0.0
C223 C 0.2339 0.02486 0.21761 0.0
P224 P 0.45803 0.23105 0.04339 0.0
H225 H 0.44931 0.24123 0.91373 0.0
H226 H 0.45981 0.26758 0.84974 0.0
H227 H 0.50384 0.27899 0.98336 0.0
H228 H 0.49366 0.25221 0.04585 0.0
H229 H 0.4363 0.19971 0.08766 0.0
H230 H 0.44479 0.17032 0.13637 0.0
H231 H 0.50292 0.1798 0.08761 0.0
H232 H 0.49411 0.20993 0.03952 0.0
H233 H 0.43705 0.26226 0.09785 0.0
H234 H 0.48479 0.22807 0.14739 0.0
O235 O 0.43535 0.23118 0.02376 0.0
H236 H 0.44287 0.28218 0.18901 0.0
H237 H 0.49095 0.24802 0.23681 0.0
C238 C 0.47045 0.24485 0.98534 0.0
C239 C 0.46164 0.24897 0.92826 0.0
C240 C 0.46751 0.26428 0.89203 0.0
C241 C 0.48233 0.27587 0.91218 0.0
C242 C 0.49233 0.27051 0.96623 0.0
C243 C 0.4865 0.2551 0.00224 0.0
C244 C 0.46449 0.20694 0.0588 0.0
C245 C 0.4508 0.19523 0.08516 0.0
C246 C 0.45574 0.17827 0.11333 0.0
C247 C 0.4746 0.1725 0.1163 0.0
C248 C 0.48827 0.18382 0.08685 0.0
C249 C 0.48324 0.20093 0.05839 0.0
C250 C 0.46027 0.2435 0.11623 0.0
C251 C 0.44851 0.25877 0.12903 0.0
C252 C 0.45194 0.27022 0.18088 0.0
C253 C 0.4674 0.2667 0.22016 0.0
C254 C 0.47871 0.25093 0.20837 0.0
C255 C 0.47521 0.23949 0.1568 0.0
Sm256 Sm 0.00563 1.00089 0.73266 0.0
Sm257 Sm 0.9843 0.01513 0.60015 0.0
C258 C 0.01303 0.98695 0.84429 0.0
C259 C 0.01967 0.96849 0.86633 0.0
C260 C 0.01003 0.95195 0.85041 0.0
C261 C 0.01688 0.9345 0.86928 0.0
C262 C 0.03359 0.93321 0.90386 0.0
C263 C 0.04327 0.94972 0.91962 0.0
C264 C 0.0363 0.96723 0.90125 0.0
C265 C 0.03037 0.00758 0.63392 0.0
C266 C 0.99238 0.96977 0.62525 0.0
C267 C 0.98006 0.02895 0.48665 0.0
C268 C 0.99236 0.04135 0.45041 0.0
C269 C 0.0088 0.04829 0.47799 0.0
C270 C 0.02016 0.06093 0.44572 0.0
C271 C 0.01511 0.06715 0.38557 0.0
C272 C 0.99879 0.05982 0.35751 0.0
C273 C 0.9875 0.04697 0.38977 0.0
C274 C 0.95927 0.00729 0.6961 0.0
C275 C 0.99847 0.04569 0.70788 0.0
O276 O 0.99609 0.98755 0.82055 0.0
O277 O 0.02518 0.99701 0.81274 0.0
O278 O 0.0129 0.0096 0.63599 0.0
O279 O 0.03585 1.00171 0.68857 0.0
O280 O 0.99813 0.97307 0.68345 0.0
O281 O 0.98774 0.98317 0.58461 0.0
O282 O 0.98659 0.01202 0.497 0.0
O283 O 0.9726 0.03668 0.5365 0.0
O284 O 0.97683 0.00609 0.69581 0.0
O285 O 0.95383 0.01299 0.64109 0.0
O286 O 0.99553 0.04218 0.64752 0.0
O287 O 1.00032 0.03224 0.75045 0.0
H288 H 0.99729 0.95242 0.82282 0.0
H289 H 0.00925 0.92197 0.85597 0.0
H290 H 0.05609 0.94909 0.94673 0.0
H291 H 0.04399 0.97979 0.91385 0.0
H292 H 0.01268 0.04416 0.52505 0.0
H293 H 0.03276 0.06606 0.46831 0.0
H294 H 0.99437 0.0645 0.31158 0.0
H295 H 0.97478 0.0418 0.36803 0.0
Sm296 Sm 0.50514 0.01939 0.71999 0.0
Sm297 Sm 0.49362 0.99269 0.60871 0.0
C298 C 0.52082 0.03694 0.81549 0.0
C299 C 0.54023 0.04062 0.83506 0.0
C300 C 0.5543 0.02703 0.82712 0.0
C301 C 0.57293 0.03124 0.84169 0.0
C302 C 0.57784 0.04916 0.86401 0.0
C303 C 0.56365 0.0627 0.87199 0.0
C304 C 0.54501 0.05844 0.8577 0.0
C305 C 0.49446 0.03662 0.61028 0.0
C306 C 0.5383 1.00033 0.63053 0.0
C307 C 0.48022 0.98024 0.50165 0.0
C308 C 0.4633 0.96948 0.48692 0.0
C309 C 0.45979 0.96348 0.42568 0.0
C310 C 0.4425 0.95538 0.41064 0.0
C311 C 0.42844 0.95339 0.45661 0.0
C312 C 0.43256 0.95848 0.51873 0.0
C313 C 0.44987 0.96638 0.53374 0.0
C314 C 0.49669 0.97169 0.71748 0.0
C315 C 0.46126 0.00845 0.70767 0.0
O316 O 0.51499 0.01952 0.81855 0.0
O317 O 0.51558 0.0455 0.76429 0.0
O318 O 0.50481 0.02228 0.61443 0.0
O319 O 0.48932 0.04239 0.66539 0.0
O320 O 0.53394 0.00895 0.68355 0.0
O321 O 0.52537 0.99415 0.59122 0.0
O322 O 0.47702 0.99725 0.52268 0.0
O323 O 0.49315 0.97124 0.53338 0.0
O324 O 0.49933 0.98901 0.71098 0.0
O325 O 0.49186 0.96458 0.66401 0.0
O326 O 0.46512 0.00268 0.65 0.0
O327 O 0.47461 0.01348 0.74726 0.0
H328 H 0.55095 0.01322 0.80915 0.0
H329 H 0.58344 0.02039 0.83589 0.0
H330 H 0.56697 0.0767 0.88827 0.0
H331 H 0.53436 0.06917 0.86329 0.0
H332 H 0.47012 0.96567 0.38916 0.0
H333 H 0.43988 0.95133 0.36256 0.0
H334 H 0.42206 0.95746 0.55523 0.0
H335 H 0.45244 0.97089 0.58142 0.0
Sm336 Sm 0.49241 0.51052 0.70589 0.0
Sm337 Sm 0.51724 0.50139 0.5999 0.0
C338 C 0.47556 0.52456 0.80603 0.0
C339 C 0.46951 0.54313 0.82785 0.0
C340 C 0.47996 0.55926 0.81348 0.0
C341 C 0.47407 0.57681 0.83481 0.0
C342 C 0.45761 0.57854 0.87066 0.0
C343 C 0.44701 0.56239 0.88402 0.0
C344 C 0.45295 0.54481 0.86281 0.0
C345 C 0.47327 0.50099 0.59841 0.0
C346 C 0.50767 0.54493 0.61477 0.0
C347 C 0.53363 0.48608 0.5014 0.0
C348 C 0.53952 0.4667 0.48893 0.0
C349 C 0.53532 0.45857 0.43099 0.0
C350 C 0.53689 0.43919 0.4229 0.0
C351 C 0.54275 0.42762 0.4727 0.0
C352 C 0.54831 0.43605 0.52923 0.0
C353 C 0.54657 0.4554 0.53747 0.0
C354 C 0.53643 0.511 0.70677 0.0
C355 C 0.5021 0.46684 0.69162 0.0
O356 O 0.49367 0.5217 0.80258 0.0
O357 O 0.46642 0.51774 0.75824 0.0
O358 O 0.48737 0.51168 0.60086 0.0
O359 O 0.4688 0.49497 0.65376 0.0
O360 O 0.50197 0.54007 0.67149 0.0
O361 O 0.51217 0.53204 0.57316 0.0
O362 O 0.51547 0.48843 0.50569 0.0
O363 O 0.54291 0.49513 0.54468 0.0
O364 O 0.52229 0.50031 0.70482 0.0
O365 O 0.54101 0.51675 0.65118 0.0
O366 O 0.50861 0.47169 0.63589 0.0
O367 O 0.49674 0.47971 0.73207 0.0
H368 H 0.49271 0.55828 0.78608 0.0
H369 H 0.48239 0.58905 0.82314 0.0
H370 H 0.43437 0.56328 0.91204 0.0
H371 H 0.44469 0.5325 0.87405 0.0
H372 H 0.52968 0.46704 0.39328 0.0
H373 H 0.53222 0.43321 0.37899 0.0
H374 H 0.55313 0.42759 0.5682 0.0
H375 H 0.54974 0.46135 0.58292 0.0
Sm376 Sm 0.99224 0.49691 0.73736 0.0
Sm377 Sm 0.00557 0.51728 0.62639 0.0
C378 C 0.98309 0.48188 0.84654 0.0
C379 C 0.96602 0.47248 0.86838 0.0
C380 C 0.95113 0.46951 0.82669 0.0
C381 C 0.93454 0.4612 0.84749 0.0
C382 C 0.93255 0.45574 0.91041 0.0
C383 C 0.94769 0.45841 0.95176 0.0
C384 C 0.96432 0.46676 0.93083 0.0
C385 C 0.99472 0.4748 0.63182 0.0
C386 C 0.95975 0.51177 0.64567 0.0
C387 C 0.0154 0.52885 0.51356 0.0
C388 C 0.03102 0.52295 0.47305 0.0
C389 C 0.03585 0.50388 0.46871 0.0
C390 C 0.05243 0.49843 0.43936 0.0
C391 C 0.06457 0.51194 0.41379 0.0
C392 C 0.0593 0.53098 0.41565 0.0
C393 C 0.04264 0.53643 0.44516 0.0
C394 C 1.00202 0.53986 0.73058 0.0
C395 C 0.03735 0.50244 0.71722 0.0
O396 O 0.98128 0.49977 0.83422 0.0
O397 O 0.99257 0.4729 0.80358 0.0
O398 O 0.007 0.48646 0.64924 0.0
O399 O 0.98067 0.47445 0.67035 0.0
O400 O 0.96316 0.50589 0.70305 0.0
O401 O 0.97361 0.51575 0.6067 0.0
O402 O 0.0022 0.51641 0.52319 0.0
O403 O 0.02038 0.53758 0.5647 0.0
O404 O 0.99031 0.52764 0.71354 0.0
O405 O 0.01573 0.54106 0.69101 0.0
O406 O 0.03333 0.50408 0.65735 0.0
O407 O 0.02371 0.50255 0.75912 0.0
H408 H 0.95227 0.4738 0.77816 0.0
H409 H 0.92323 0.45913 0.81435 0.0
H410 H 0.9465 0.45455 1.00065 0.0
H411 H 0.97572 0.469 0.96354 0.0
H412 H 0.02722 0.49322 0.49035 0.0
H413 H 0.05616 0.48369 0.43956 0.0
H414 H 0.06828 0.54169 0.39568 0.0
H415 H 0.03921 0.55122 0.44837 0.0
H416 H 0.13682 0.05233 0.15959 0.0
H417 H 0.11035 0.04771 0.23116 0.0
H418 H 0.13796 0.99938 0.31046 0.0
H419 H 0.16445 0.00389 0.23914 0.0
H420 H 0.0992 0.99433 0.29611 0.0
H421 H 0.11509 0.06166 0.41624 0.0
H422 H 0.11077 0.06364 0.33368 0.0
H423 H 0.13103 0.05103 0.361 0.0
C424 C 0.13718 0.0406 0.19184 0.0
C425 C 0.15287 0.02857 0.19387 0.0
C426 C 0.12206 0.03802 0.23289 0.0
C427 C 0.12234 0.02345 0.2772 0.0
C428 C 0.13745 0.01078 0.27689 0.0
H429 H 0.06808 0.01258 0.63523 0.0
H430 H 0.08922 0.01662 0.54576 0.0
C431 C 0.15256 0.01331 0.23573 0.0
C432 C 0.10748 0.02195 0.32606 0.0
H433 H 0.08876 0.0448 0.45236 0.0
C434 C 0.09682 0.0054 0.33005 0.0
C435 C 0.10453 0.03633 0.37083 0.0
C436 C 0.11604 0.05411 0.37083 0.0
C437 C 0.08339 0.00282 0.37766 0.0
C438 C 0.08041 0.01724 0.4222 0.0
C439 C 0.09096 0.03382 0.41793 0.0
C440 C 0.0673 0.01495 0.47594 0.0
C441 C 0.07292 0.98446 0.38118 0.0
C442 C 0.0479 0.0128 0.46661 0.0
C443 C 0.03581 0.01046 0.51787 0.0
C444 C 0.04284 0.01042 0.57923 0.0
C445 C 0.06223 0.01262 0.58842 0.0
C446 C 0.07432 0.01498 0.53736 0.0
H447 H 0.07945 0.97348 0.3513 0.0
H448 H 0.07236 0.97926 0.43016 0.0
H449 H 0.05828 0.98663 0.36494 0.0
H450 H 0.0421 0.01295 0.41975 0.0
H451 H 0.02104 0.00838 0.50948 0.0
H452 H 0.4552 0.13935 0.1306 0.0
H453 H 0.46037 0.11501 0.20891 0.0
H454 H 0.51152 0.14232 0.26629 0.0
H455 H 0.50573 0.16753 0.1912 0.0
H456 H 0.48561 0.08949 0.23488 0.0
H457 H 0.4847 0.14081 0.42981 0.0
H458 H 0.47898 0.14733 0.3506 0.0
H459 H 0.50313 0.14521 0.37457 0.0
C460 C 0.46752 0.14031 0.16004 0.0
C461 C 0.47977 0.15577 0.15527 0.0
C462 C 0.47056 0.12622 0.20459 0.0
C463 C 0.48603 0.12706 0.24515 0.0
C464 C 0.49912 0.14164 0.23715 0.0
H465 H 0.51441 0.03416 0.50092 0.0
H466 H 0.51283 0.05535 0.41071 0.0
C467 C 0.49594 0.15593 0.19319 0.0
C468 C 0.48789 0.11313 0.29719 0.0
H469 H 0.49183 0.10942 0.45623 0.0
C470 C 0.48697 0.09386 0.2833 0.0
C471 C 0.4893 0.11875 0.3607 0.0
C472 C 0.48889 0.13914 0.38 0.0
C473 C 0.48739 0.08013 0.33079 0.0
C474 C 0.48939 0.08575 0.3941 0.0
C475 C 0.49041 0.10502 0.40786 0.0
C476 C 0.4899 0.07209 0.44727 0.0
C477 C 0.48499 0.05981 0.31256 0.0
C478 C 0.47784 0.07451 0.49881 0.0
C479 C 0.47905 0.06268 0.551 0.0
C480 C 0.49221 0.04802 0.5527 0.0
C481 C 0.50398 0.04523 0.50064 0.0
C482 C 0.50299 0.05729 0.44879 0.0
H483 H 0.47785 0.05841 0.26656 0.0
H484 H 0.49901 0.05314 0.3084 0.0
H485 H 0.47673 0.052 0.34814 0.0
H486 H 0.46761 0.08576 0.49906 0.0
H487 H 0.4698 0.06517 0.59042 0.0
H488 H 0.33206 0.50045 0.23074 0.0
H489 H 0.3575 0.50516 0.30585 0.0
H490 H 0.39724 0.48334 0.1721 0.0
H491 H 0.37189 0.4787 0.09646 0.0
H492 H 0.4002 0.46631 0.28714 0.0
H493 H 0.39975 0.54363 0.31552 0.0
H494 H 0.37713 0.53307 0.32685 0.0
H495 H 0.38817 0.53198 0.25118 0.0
C496 C 0.34627 0.4971 0.21659 0.0
C497 C 0.34988 0.48919 0.15738 0.0
C498 C 0.36083 0.49978 0.25974 0.0
C499 C 0.37935 0.49476 0.24455 0.0
C500 C 0.38308 0.48733 0.18494 0.0
H501 H 0.47694 0.51785 0.48369 0.0
H502 H 0.45518 0.51604 0.39472 0.0
C503 C 0.36854 0.48464 0.14178 0.0
C504 C 0.39456 0.49598 0.29225 0.0
H505 H 0.4169 0.52612 0.39196 0.0
C506 C 0.40394 0.47942 0.30967 0.0
C507 C 0.39964 0.5131 0.32125 0.0
C508 C 0.39079 0.5315 0.3024 0.0
C509 C 0.41781 0.47944 0.35646 0.0
C510 C 0.4223 0.49641 0.3874 0.0
C511 C 0.41335 0.51308 0.36867 0.0
C512 C 0.43584 0.49706 0.44045 0.0
C513 C 0.42761 0.46125 0.3722 0.0
C514 C 0.43219 0.48704 0.49577 0.0
C515 C 0.44456 0.48806 0.54652 0.0
C516 C 0.46081 0.49919 0.54316 0.0
C517 C 0.46455 0.50912 0.4876 0.0
C518 C 0.45211 0.50814 0.43683 0.0
H519 H 0.42647 0.45092 0.33344 0.0
H520 H 0.4427 0.46365 0.3825 0.0
H521 H 0.42099 0.45501 0.41437 0.0
H522 H 0.41958 0.47866 0.50013 0.0
H523 H 0.44126 0.48032 0.58876 0.0
H524 H 0.00501 0.33045 0.26802 0.0
H525 H 0.9993 0.3547 0.34724 0.0
H526 H 0.01868 0.39714 0.21864 0.0
H527 H 0.02403 0.37308 0.13891 0.0
H528 H 0.02631 0.37895 0.3986 0.0
H529 H 0.96919 0.41921 0.28386 0.0
H530 H 0.97572 0.39582 0.25956 0.0
H531 H 0.98954 0.41566 0.23564 0.0
C532 C 0.00769 0.34499 0.25616 0.0
C533 C 0.01497 0.3498 0.19703 0.0
C534 C 0.00456 0.35882 0.30166 0.0
C535 C 0.00842 0.37777 0.28878 0.0
C536 C 0.01534 0.38266 0.22944 0.0
H537 H 0.02652 0.46701 0.56428 0.0
H538 H 0.03009 0.44396 0.47959 0.0
C539 C 0.01855 0.36885 0.18406 0.0
C540 C 0.00611 0.3923 0.33831 0.0
H541 H 0.98307 0.43306 0.37385 0.0
C542 C 0.01681 0.39075 0.39328 0.0
C543 C 0.99364 0.40765 0.33154 0.0
C544 C 0.98122 0.40967 0.27475 0.0
C545 C 0.01555 0.40422 0.44127 0.0
C546 C 0.00342 0.41981 0.43385 0.0
C547 C 0.99253 0.42123 0.37923 0.0
C548 C 1.00128 0.43438 0.48333 0.0
C549 C 0.02696 0.40145 0.50005 0.0
C550 C 0.98381 0.43705 0.51239 0.0
C551 C 0.98172 0.45031 0.56023 0.0
C552 C 0.99703 0.46128 0.57969 0.0
C553 C 0.01445 0.45885 0.54992 0.0
C554 C 0.01654 0.44556 0.50198 0.0
H555 H 0.03207 0.38677 0.50462 0.0
H556 H 0.03936 0.41085 0.49868 0.0
H557 H 0.01859 0.40503 0.54227 0.0
H558 H 0.97182 0.42866 0.4987 0.0
H559 H 0.96811 0.45191 0.5822 0.0
H560 H 0.85659 0.0252 0.17694 0.0
H561 H 0.87936 0.02262 0.09215 0.0
H562 H 0.85838 0.96746 0.04739 0.0
H563 H 0.8352 0.97011 0.13199 0.0
H564 H 0.90772 0.99898 0.06784 0.0
H565 H 0.85409 0.9933 0.88025 0.0
H566 H 0.84811 0.99929 0.95982 0.0
H567 H 0.85268 0.97527 0.93875 0.0
C568 C 0.85695 0.01239 0.14969 0.0
C569 C 0.84405 0.99785 0.16132 0.0
C570 C 0.86996 0.01097 0.10094 0.0
C571 C 0.87044 0.99499 0.06254 0.0
C572 C 0.858 0.98014 0.07528 0.0
H573 H 0.96277 0.98122 0.78962 0.0
H574 H 0.94184 0.97658 0.87969 0.0
C575 C 0.84482 0.98163 0.12384 0.0
C576 C 0.88373 0.99429 0.00866 0.0
H577 H 0.88577 0.99149 0.84904 0.0
C578 C 0.90293 0.99724 0.01999 0.0
C579 C 0.87748 0.99224 0.9461 0.0
C580 C 0.85696 0.99002 0.9302 0.0
C581 C 0.91597 0.99854 0.97068 0.0
C582 C 0.90972 0.99636 0.90815 0.0
C583 C 0.89058 0.99305 0.89692 0.0
C584 C 0.92252 0.99872 0.85347 0.0
C585 C 0.93614 0.00305 0.986 0.0
C586 C 0.91837 0.01223 0.80754 0.0
C587 C 0.93029 0.0148 0.75623 0.0
C588 C 0.94672 0.00407 0.75008 0.0
C589 C 0.95069 0.99026 0.79502 0.0
C590 C 0.93865 0.98753 0.84619 0.0
H591 H 0.93763 0.00894 0.03389 0.0
H592 H 0.94461 0.98999 0.98365 0.0
H593 H 0.94206 0.01325 0.952 0.0
H594 H 0.90598 0.02096 0.81175 0.0
H595 H 0.92683 0.02544 0.72185 0.0
H596 H 0.52138 0.84315 0.14049 0.0
H597 H 0.52811 0.86781 0.06449 0.0
H598 H 0.48107 0.89984 0.13378 0.0
H599 H 0.47559 0.87643 0.2139 0.0
H600 H 0.50982 0.87756 0.97179 0.0
H601 H 0.51499 0.94199 0.11158 0.0
H602 H 0.5148 0.91913 0.1478 0.0
H603 H 0.49307 0.93103 0.12954 0.0
C604 C 0.51288 0.85575 0.14131 0.0
C605 C 0.49776 0.85752 0.18346 0.0
C606 C 0.51662 0.86982 0.09707 0.0
C607 C 0.50525 0.88595 0.0932 0.0
C608 C 0.49049 0.88794 0.13631 0.0
H609 H 0.4777 0.9402 0.74735 0.0
H610 H 0.4813 0.92045 0.83981 0.0
C611 C 0.48706 0.87417 0.18152 0.0
C612 C 0.50746 0.89964 0.04045 0.0
H613 H 0.50456 0.9463 0.00357 0.0
C614 C 0.50903 0.8926 0.97919 0.0
C615 C 0.50695 0.91939 0.04913 0.0
C616 C 0.5076 0.92827 0.11322 0.0
C617 C 0.5091 0.90454 0.92683 0.0
C618 C 0.50648 0.92412 0.93528 0.0
C619 C 0.50601 0.93129 0.99655 0.0
C620 C 0.50347 0.93713 0.88124 0.0
C621 C 0.51218 0.8959 0.8631 0.0
C622 C 0.5137 0.95397 0.87541 0.0
C623 C 0.51107 0.96575 0.82333 0.0
C624 C 0.49838 0.96072 0.77592 0.0
C625 C 0.48779 0.94425 0.78279 0.0
C626 C 0.49002 0.93282 0.83536 0.0
H627 H 0.52102 0.88308 0.86647 0.0
H628 H 0.49846 0.89161 0.84318 0.0
H629 H 0.51907 0.90587 0.83039 0.0
H630 H 0.524 0.95781 0.91039 0.0
H631 H 0.51942 0.97839 0.81901 0.0
H632 H 0.63263 0.49625 0.21425 0.0
H633 H 0.60961 0.50055 0.13083 0.0
H634 H 0.65335 0.51982 0.007 0.0
H635 H 0.67666 0.51456 0.08903 0.0
H636 H 0.59776 0.52989 0.0615 0.0
H637 H 0.63156 0.47732 0.90652 0.0
H638 H 0.63834 0.48036 0.98719 0.0
H639 H 0.64692 0.49618 0.92803 0.0
C640 C 0.63743 0.5013 0.16918 0.0
C641 C 0.65663 0.50472 0.15828 0.0
C642 C 0.62419 0.5039 0.12161 0.0
C643 C 0.62978 0.51005 0.06203 0.0
C644 C 0.64874 0.51456 0.05202 0.0
H645 H 0.57072 0.52779 0.71115 0.0
H646 H 0.59271 0.52866 0.79911 0.0
C647 C 0.66204 0.51181 0.09943 0.0
C648 C 0.61585 0.51116 0.01014 0.0
H649 H 0.60634 0.49469 0.86317 0.0
C650 C 0.59963 0.52216 0.01821 0.0
C651 C 0.61816 0.50094 0.95373 0.0
C652 C 0.63458 0.48789 0.94343 0.0
C653 C 0.58587 0.52343 0.97112 0.0
C654 C 0.58836 0.51341 0.91464 0.0
C655 C 0.60454 0.50245 0.90646 0.0
C656 C 0.57436 0.514 0.8632 0.0
C657 C 0.56889 0.53568 0.98158 0.0
C658 C 0.55669 0.50551 0.87015 0.0
C659 C 0.54411 0.50486 0.81974 0.0
C660 C 0.54901 0.51273 0.76161 0.0
C661 C 0.56654 0.5216 0.75532 0.0
C662 C 0.57913 0.52211 0.8055 0.0
H663 H 0.57066 0.54512 0.02256 0.0
H664 H 0.56599 0.54434 0.93943 0.0
H665 H 0.55646 0.52665 0.99005 0.0
H666 H 0.55282 0.49896 0.91408 0.0
H667 H 0.53072 0.49792 0.8259 0.0
H668 H 0.98248 0.67915 0.11962 0.0
H669 H 0.97584 0.65575 0.03891 0.0
H670 H 0.00766 0.61459 0.14233 0.0
H671 H 0.01322 0.63741 0.22487 0.0
H672 H 0.99965 0.64016 0.96475 0.0
H673 H 0.96498 0.58257 0.09214 0.0
H674 H 0.96824 0.60545 0.12662 0.0
H675 H 0.98678 0.5882 0.12933 0.0
C676 C 0.98753 0.66495 0.1263 0.0
C677 C 0.99851 0.66028 0.17883 0.0
C678 C 0.98386 0.65159 0.0797 0.0
C679 C 0.99107 0.63326 0.08447 0.0
C680 C 1.00151 0.62843 0.13786 0.0
H681 H 0.02769 0.56378 0.77979 0.0
H682 H 0.02334 0.58635 0.86459 0.0
C683 C 0.00497 0.64166 0.18473 0.0
C684 C 0.98943 0.6198 0.03119 0.0
H685 H 0.9807 0.57383 0.99559 0.0
C686 C 0.9952 0.62574 0.97147 0.0
C687 C 0.9833 0.60101 0.03908 0.0
C688 C 0.97528 0.59403 0.10016 0.0
C689 C 0.99588 0.6133 0.9205 0.0
C690 C 0.99131 0.59414 0.92974 0.0
C691 C 0.98461 0.58839 0.98859 0.0
C692 C 0.99399 0.57982 0.87958 0.0
C693 C 1.00143 0.62093 0.85721 0.0
C694 C 0.97925 0.56786 0.86161 0.0
C695 C 0.98185 0.5546 0.81384 0.0
C696 C 0.99923 0.55315 0.78301 0.0
C697 C 0.01406 0.56478 0.80204 0.0
C698 C 0.01154 0.57782 0.85022 0.0
H699 H 0.99793 0.63608 0.85307 0.0
H700 H 0.01684 0.6195 0.85122 0.0
H701 H 0.99435 0.61325 0.81868 0.0
H702 H 0.96564 0.56897 0.88394 0.0
H703 H 0.9702 0.54572 0.80033 0.0
H704 H 0.07002 0.20745 0.05297 0.0
H705 H 0.06808 0.17524 0.09034 0.0
H706 H 0.06975 0.19479 0.28124 0.0
H707 H 0.07274 0.22717 0.24433 0.0
H708 H 0.08856 0.16007 0.26219 0.0
H709 H 0.01672 0.16039 0.16018 0.0
H710 H 0.03529 0.1651 0.10557 0.0
H711 H 0.03055 0.18145 0.1677 0.0
C712 C 0.07074 0.20496 0.10292 0.0
C713 C 0.07131 0.22 0.1457 0.0
C714 C 0.06937 0.18649 0.12416 0.0
C715 C 0.06826 0.18272 0.18844 0.0
C716 C 0.07039 0.19746 0.23134 0.0
H717 H 0.03025 0.09847 0.439 0.0
H718 H 0.04611 0.12444 0.38705 0.0
C719 C 0.07196 0.21597 0.21016 0.0
C720 C 0.06284 0.16383 0.21082 0.0
H721 H 0.02633 0.13286 0.21126 0.0
C722 C 0.07503 0.15402 0.25073 0.0
C723 C 0.04514 0.15603 0.19581 0.0
C724 C 0.03107 0.16631 0.15543 0.0
C725 C 0.06988 0.13663 0.27655 0.0
C726 C 0.05201 0.12908 0.26267 0.0
C727 C 0.04007 0.13865 0.22139 0.0
C728 C 0.04461 0.11219 0.2945 0.0
C729 C 0.08354 0.12654 0.31871 0.0
C730 C 0.03836 0.09673 0.25958 0.0
C731 C 0.02925 0.08179 0.28922 0.0
C732 C 0.02611 0.08215 0.35423 0.0
C733 C 0.03276 0.09753 0.38909 0.0
C734 C 0.04188 0.1124 0.35948 0.0
H735 H 0.09823 0.13098 0.30946 0.0
H736 H 0.08023 0.12993 0.3682 0.0
H737 H 0.08254 0.11108 0.3127 0.0
H738 H 0.0402 0.09641 0.20924 0.0
H739 H 0.02446 0.07007 0.26117 0.0
H740 H 0.25873 0.9789 0.28636 0.0
H741 H 0.28024 0.95753 0.34025 0.0
H742 H 0.31537 0.00448 0.39039 0.0
H743 H 0.29369 0.02589 0.33852 0.0
H744 H 0.31535 0.95257 0.30098 0.0
H745 H 0.31807 0.97388 0.54823 0.0
H746 H 0.29889 0.98052 0.49748 0.0
H747 H 0.32012 0.99429 0.49975 0.0
C748 C 0.27068 0.98473 0.3109 0.0
C749 C 0.27461 0.00406 0.308 0.0
C750 C 0.28298 0.97248 0.34143 0.0
C751 C 0.29929 0.97941 0.37 0.0
C752 C 0.30265 0.99883 0.37005 0.0
H753 H 0.40949 0.96462 0.35235 0.0
H754 H 0.37601 0.9629 0.33389 0.0
C755 C 0.29039 0.01105 0.33961 0.0
C756 C 0.31434 0.9665 0.39065 0.0
H757 H 0.34799 0.96271 0.50307 0.0
C758 C 0.32215 0.9543 0.34602 0.0
C759 C 0.323 0.96829 0.44986 0.0
C760 C 0.31441 0.97981 0.5017 0.0
C761 C 0.33956 0.94566 0.35634 0.0
C762 C 0.34944 0.94963 0.41209 0.0
C763 C 0.34057 0.95994 0.45971 0.0
C764 C 0.36992 0.9466 0.41703 0.0
C765 C 0.34771 0.93332 0.30583 0.0
C766 C 0.37776 0.93771 0.46947 0.0
C767 C 0.3971 0.93858 0.4801 0.0
C768 C 0.40885 0.94862 0.43894 0.0
C769 C 0.40102 0.95647 0.38449 0.0
C770 C 0.38178 0.95549 0.37378 0.0
H771 H 0.33642 0.92573 0.28045 0.0
H772 H 0.35521 0.9422 0.27122 0.0
H773 H 0.35774 0.92292 0.32536 0.0
H774 H 0.36882 0.93087 0.50359 0.0
H775 H 0.40273 0.93216 0.52205 0.0
H776 H 0.46693 0.30481 0.21051 0.0
H777 H 0.48053 0.32751 0.28243 0.0
H778 H 0.49542 0.28289 0.40958 0.0
H779 H 0.48144 0.25989 0.33796 0.0
H780 H 0.47391 0.33511 0.41352 0.0
H781 H 0.54603 0.30895 0.36131 0.0
H782 H 0.52618 0.30288 0.31294 0.0
H783 H 0.52878 0.29243 0.38884 0.0
C784 C 0.47258 0.2998 0.25451 0.0
C785 C 0.47315 0.28052 0.26838 0.0
C786 C 0.48047 0.31279 0.29538 0.0
C787 C 0.48916 0.3068 0.35074 0.0
C788 C 0.48898 0.28771 0.36653 0.0
H789 H 0.53017 0.40364 0.5633 0.0
H790 H 0.52001 0.37121 0.5497 0.0
C791 C 0.48102 0.27463 0.3256 0.0
C792 C 0.49937 0.3207 0.3889 0.0
H793 H 0.5435 0.33753 0.41492 0.0
C794 C 0.48912 0.33549 0.41534 0.0
C795 C 0.5192 0.32105 0.39055 0.0
C796 C 0.53081 0.30557 0.36175 0.0
C797 C 0.49818 0.35131 0.43988 0.0
C798 C 0.51804 0.35211 0.43876 0.0
C799 C 0.5283 0.33677 0.41586 0.0
C800 C 0.52808 0.36978 0.45222 0.0
C801 C 0.48637 0.36758 0.46244 0.0
C802 C 0.53725 0.37917 0.40322 0.0
C803 C 0.54343 0.39759 0.4112 0.0
C804 C 0.54043 0.40695 0.46825 0.0
C805 C 0.53273 0.39688 0.51884 0.0
C806 C 0.52671 0.37839 0.51099 0.0
H807 H 0.47131 0.36587 0.45027 0.0
H808 H 0.48745 0.36864 0.51411 0.0
H809 H 0.49143 0.38098 0.44197 0.0
H810 H 0.53859 0.37267 0.35758 0.0
H811 H 0.5497 0.4048 0.37174 0.0
H812 H 0.23561 0.48035 0.25482 0.0
H813 H 0.20718 0.48949 0.3099 0.0
H814 H 0.18051 0.43793 0.253 0.0
H815 H 0.20933 0.42813 0.20033 0.0
H816 H 0.1755 0.49554 0.24399 0.0
H817 H 0.16157 0.44339 0.43087 0.0
H818 H 0.18429 0.44583 0.39419 0.0
H819 H 0.16594 0.43281 0.35602 0.0
C820 C 0.22405 0.47051 0.25623 0.0
C821 C 0.22476 0.45351 0.22272 0.0
C822 C 0.20771 0.47588 0.28732 0.0
C823 C 0.19174 0.46441 0.28554 0.0
C824 C 0.19275 0.44689 0.25576 0.0
H825 H 0.07319 0.48122 0.3423 0.0
H826 H 0.10445 0.47015 0.31219 0.0
C827 C 0.20918 0.4414 0.22503 0.0
C828 C 0.17347 0.47194 0.30684 0.0
H829 H 0.13571 0.46289 0.40038 0.0
C830 C 0.1669 0.48852 0.27878 0.0
C831 C 0.16225 0.46267 0.35184 0.0
C832 C 0.16894 0.44528 0.38543 0.0
C833 C 0.14922 0.49589 0.29351 0.0
C834 C 0.1379 0.48647 0.33769 0.0
C835 C 0.14448 0.46999 0.36625 0.0
C836 C 0.1191 0.49349 0.35453 0.0
C837 C 0.14255 0.51342 0.26059 0.0
C838 C 0.11711 0.51032 0.38787 0.0
C839 C 0.09932 0.51663 0.40537 0.0
C840 C 0.08324 0.50618 0.38986 0.0
C841 C 0.08532 0.48948 0.35543 0.0
C842 C 0.10312 0.48315 0.33817 0.0
H843 H 0.1514 0.51692 0.21938 0.0
H844 H 0.12778 0.51178 0.24489 0.0
H845 H 0.14308 0.52542 0.29367 0.0
H846 H 0.12935 0.51835 0.40145 0.0
H847 H 0.09823 0.52935 0.43289 0.0
H848 H 0.06981 0.76275 0.08249 0.0
H849 H 0.07428 0.7902 0.01474 0.0
H850 H 0.0654 0.82664 0.17341 0.0
H851 H 0.06138 0.79948 0.2409 0.0
H852 H 0.04831 0.81447 0.98922 0.0
H853 H 0.107 0.85414 0.09052 0.0
H854 H 0.10259 0.82995 0.11109 0.0
H855 H 0.09065 0.84874 0.15156 0.0
C856 C 0.06932 0.77665 0.10298 0.0
C857 C 0.06535 0.77899 0.16698 0.0
C858 C 0.07191 0.79229 0.06435 0.0
C859 C 0.0705 0.81051 0.08909 0.0
C860 C 0.06722 0.81279 0.15346 0.0
H861 H 0.01381 0.90512 0.95916 0.0
H862 H 0.02532 0.87451 0.99309 0.0
C863 C 0.06484 0.7972 0.19209 0.0
C864 C 0.06961 0.8271 0.04726 0.0
H865 H 0.08248 0.87315 0.03983 0.0
C866 C 0.05615 0.82715 0.99925 0.0
C867 C 0.0801 0.84359 0.05901 0.0
C868 C 0.09604 0.844 0.10543 0.0
C869 C 0.05178 0.84364 0.96656 0.0
C870 C 0.06067 0.86062 0.98376 0.0
C871 C 0.0753 0.86023 0.02773 0.0
C872 C 0.05383 0.87906 0.96117 0.0
C873 C 0.03731 0.84274 0.91508 0.0
C874 C 0.06618 0.89211 0.9342 0.0
C875 C 0.05966 0.90979 0.91574 0.0
C876 C 0.04069 0.91464 0.92389 0.0
C877 C 0.02842 0.90161 0.95131 0.0
C878 C 0.03496 0.88407 0.9703 0.0
H879 H 0.03737 0.82875 0.89211 0.0
H880 H 0.02315 0.8449 0.93548 0.0
H881 H 0.03979 0.85367 0.8789 0.0
H882 H 0.08083 0.88859 0.92734 0.0
H883 H 0.06939 0.91958 0.89445 0.0
H884 H 0.71678 0.07894 0.18856 0.0
H885 H 0.69199 0.08167 0.11033 0.0
H886 H 0.72431 0.04775 0.98242 0.0
H887 H 0.7487 0.04399 0.06167 0.0
H888 H 0.68765 0.09296 0.98741 0.0
H889 H 0.67813 0.0157 0.01221 0.0
H890 H 0.69331 0.02894 0.06313 0.0
H891 H 0.70082 0.02304 0.98519 0.0
C892 C 0.71871 0.07219 0.14359 0.0
C893 C 0.7345 0.06084 0.13205 0.0
C894 C 0.7046 0.07391 0.0987 0.0
C895 C 0.7061 0.06447 0.04131 0.0
C896 C 0.7227 0.05476 0.02708 0.0
H897 H 0.60974 0.03857 0.80112 0.0
H898 H 0.64234 0.04395 0.83246 0.0
C899 C 0.73674 0.05283 0.07226 0.0
C900 C 0.68942 0.06302 1.00037 0.0
H901 H 0.65648 0.03173 0.94984 0.0
C902 C 0.68096 0.07956 0.97839 0.0
C903 C 0.68067 0.04549 0.98896 0.0
C904 C 0.68856 0.02728 0.01394 0.0
C905 C 0.66368 0.07908 0.9469 0.0
C906 C 0.65467 0.06164 0.93768 0.0
C907 C 0.66353 0.04506 0.95689 0.0
C908 C 0.6352 0.06028 0.91442 0.0
C909 C 0.65499 0.09723 0.92492 0.0
C910 C 0.62046 0.06763 0.95039 0.0
C911 C 0.60186 0.06433 0.93332 0.0
C912 C 0.59764 0.0536 0.8799 0.0
C913 C 0.61249 0.04665 0.84307 0.0
C914 C 0.63111 0.04986 0.86046 0.0
H915 H 0.66572 0.1084 0.91911 0.0
H916 H 0.64751 0.09526 0.8798 0.0
H917 H 0.64466 0.10209 0.96027 0.0
H918 H 0.62334 0.07529 0.99312 0.0
H919 H 0.5908 0.06962 0.96333 0.0
H920 H 0.46833 0.73532 0.0958 0.0
H921 H 0.46232 0.70812 0.03022 0.0
H922 H 0.40753 0.70185 0.11336 0.0
H923 H 0.41323 0.72955 0.17875 0.0
H924 H 0.42998 0.66977 0.11997 0.0
H925 H 0.42908 0.69752 0.87808 0.0
H926 H 0.44873 0.70607 0.9221 0.0
H927 H 0.42528 0.71226 0.94582 0.0
C928 C 0.45472 0.72863 0.09882 0.0
C929 C 0.44123 0.73469 0.14251 0.0
C930 C 0.45131 0.71304 0.06117 0.0
C931 C 0.43438 0.70317 0.06626 0.0
C932 C 0.42063 0.70942 0.10843 0.0
H933 H 0.42238 0.59402 0.87306 0.0
H934 H 0.41311 0.62435 0.91846 0.0
C935 C 0.42398 0.72514 0.14601 0.0
C936 C 0.43229 0.68507 0.03324 0.0
H937 H 0.43788 0.66477 0.8897 0.0
C938 C 0.43117 0.66867 0.06947 0.0
C939 C 0.43384 0.68369 0.96738 0.0
C940 C 0.43411 0.70085 0.92604 0.0
C941 C 0.43294 0.65092 0.04186 0.0
C942 C 0.43586 0.64964 0.97668 0.0
C943 C 0.43574 0.66592 0.93984 0.0
C944 C 0.4412 0.63172 0.94748 0.0
C945 C 0.43276 0.63364 0.08266 0.0
C946 C 0.46003 0.62609 0.9488 0.0
C947 C 0.46535 0.6089 0.92318 0.0
C948 C 0.45189 0.59704 0.89592 0.0
C949 C 0.43301 0.60282 0.89427 0.0
C950 C 0.42771 0.62011 0.91976 0.0
H951 H 0.42802 0.63678 0.13111 0.0
H952 H 0.4234 0.6228 0.06217 0.0
H953 H 0.44713 0.62763 0.08481 0.0
H954 H 0.47058 0.63493 0.97034 0.0
H955 H 0.47995 0.60471 0.92591 0.0
H956 H 0.77987 0.41207 0.2132 0.0
H957 H 0.80914 0.40521 0.15719 0.0
H958 H 0.80194 0.45535 0.04669 0.0
H959 H 0.7731 0.46255 0.10283 0.0
H960 H 0.81569 0.42184 0.97907 0.0
H961 H 0.85555 0.43956 0.19588 0.0
H962 H 0.83753 0.42194 0.20102 0.0
H963 H 0.8312 0.44591 0.18628 0.0
C964 C 0.78443 0.42153 0.17654 0.0
C965 C 0.77418 0.43794 0.16288 0.0
C966 C 0.8011 0.41755 0.14452 0.0
C967 C 0.80772 0.42989 0.09838 0.0
C968 C 0.79698 0.44562 0.08205 0.0
H969 H 0.89746 0.46846 0.88279 0.0
H970 H 0.86764 0.45756 0.92506 0.0
C971 C 0.78041 0.44966 0.11407 0.0
C972 C 0.82662 0.42771 0.07093 0.0
H973 H 0.87274 0.43589 0.10351 0.0
C974 C 0.82823 0.42455 0.00635 0.0
C975 C 0.84292 0.43117 0.10685 0.0
C976 C 0.84187 0.43494 0.17632 0.0
C977 C 0.8457 0.42556 0.97618 0.0
C978 C 0.86182 0.43029 0.01142 0.0
C979 C 0.86035 0.43231 0.07659 0.0
C980 C 0.87983 0.43538 0.98123 0.0
C981 C 0.84663 0.42195 0.90666 0.0
C982 C 0.89668 0.42679 0.9997 0.0
C983 C 0.91384 0.43311 0.97586 0.0
C984 C 0.91441 0.44819 0.93335 0.0
C985 C 0.89748 0.45657 0.91443 0.0
C986 C 0.88039 0.4503 0.93837 0.0
H987 H 0.83535 0.41218 0.89163 0.0
H988 H 0.84455 0.43538 0.88125 0.0
H989 H 0.86042 0.41598 0.89278 0.0
H990 H 0.89656 0.41538 0.03324 0.0
H991 H 0.92665 0.42629 0.99095 0.0
H992 H 0.99662 0.2254 0.81948 0.0
H993 H 0.99321 0.19333 0.77967 0.0
H994 H 0.01109 0.17138 0.95801 0.0
H995 H 0.01481 0.20325 0.99788 0.0
H996 H 0.02165 0.16598 0.77079 0.0
H997 H 0.96347 0.141 0.92194 0.0
H998 H 0.96898 0.16558 0.91267 0.0
H999 H 0.98275 0.15113 0.96417 0.0
C1000 C 0.99974 0.21376 0.85041 0.0
C1001 C 0.00588 0.21701 0.91214 0.0
C1002 C 0.99773 0.19542 0.82758 0.0
C1003 C 1.00166 0.17991 0.86602 0.0
C1004 C 0.00755 0.18308 0.92784 0.0
H1005 H 0.00652 0.05896 0.82545 0.0
H1006 H 0.00744 0.09154 0.86078 0.0
C1007 C 0.0096 0.20138 0.95067 0.0
C1008 C 1.00059 0.16045 0.84067 0.0
H1009 H 0.97968 0.11779 0.86289 0.0
C1010 C 0.01236 0.15547 0.79054 0.0
C1011 C 0.98855 0.14671 0.86666 0.0
C1012 C 0.97509 0.15136 0.91897 0.0
C1013 C 0.01278 0.13704 0.76685 0.0
C1014 C 1.0008 0.12325 0.79306 0.0
C1015 C 0.9889 0.12831 0.8428 0.0
C1016 C 1.00058 0.10344 0.77042 0.0
C1017 C 0.02653 0.13238 0.71538 0.0
C1018 C 0.99632 0.09915 0.70779 0.0
C1019 C 0.9959 0.08047 0.68721 0.0
C1020 C 0.99952 0.0656 0.729 0.0
C1021 C 0.00369 0.06997 0.79178 0.0
C1022 C 0.00418 0.08864 0.8122 0.0
H1023 H 0.03806 0.14285 0.71268 0.0
H1024 H 0.03278 0.11825 0.72241 0.0
H1025 H 0.01909 0.13244 0.66976 0.0
H1026 H 0.99306 0.11025 0.6749 0.0
H1027 H 0.99249 0.0777 0.63868 0.0
H1028 H 0.28735 0.99567 0.90376 0.0
H1029 H 0.31812 0.99051 0.85528 0.0
H1030 H 0.33157 0.04899 0.88049 0.0
H1031 H 0.30114 0.05424 0.9296 0.0
H1032 H 0.34178 0.03531 0.76222 0.0
H1033 H 0.36789 0.98896 0.95263 0.0
H1034 H 0.34628 0.98171 0.91666 0.0
H1035 H 0.34704 0.00314 0.96087 0.0
C1036 C 0.29684 0.00744 0.89911 0.0
C1037 C 0.29162 0.02539 0.92079 0.0
C1038 C 0.31447 0.00446 0.87136 0.0
C1039 C 0.3273 0.01931 0.86492 0.0
C1040 C 0.32194 0.0373 0.88482 0.0
H1041 H 0.44766 0.02023 0.8212 0.0
H1042 H 0.41501 0.02209 0.85544 0.0
C1043 C 0.30439 0.04029 0.91258 0.0
C1044 C 0.34648 0.01623 0.83876 0.0
H1045 H 0.38823 0.99406 0.86716 0.0
C1046 C 0.35191 0.02619 0.78491 0.0
C1047 C 0.35979 0.00452 0.86881 0.0
C1048 C 0.3551 0.99407 0.92824 0.0
C1049 C 0.37023 0.02485 0.76055 0.0
C1050 C 0.3835 0.01305 0.79038 0.0
C1051 C 0.37804 0.00301 0.84401 0.0
C1052 C 0.40337 0.01166 0.76867 0.0
C1053 C 0.3754 0.03658 0.70429 0.0
C1054 C 0.40783 0.00497 0.70856 0.0
C1055 C 0.42657 0.00392 0.68863 0.0
C1056 C 0.44131 0.00945 0.72854 0.0
C1057 C 0.43676 0.01591 0.78899 0.0
C1058 C 0.41805 0.01695 0.80879 0.0
H1059 H 0.36509 0.04802 0.69591 0.0
H1060 H 0.38953 0.0429 0.71011 0.0
H1061 H 0.3757 0.02751 0.66209 0.0
H1062 H 0.39681 1.00045 0.67711 0.0
H1063 H 0.42949 0.99872 0.64197 0.0
H1064 H 0.51633 0.29341 0.89027 0.0
H1065 H 0.52164 0.32487 0.84716 0.0
H1066 H 0.46208 0.33185 0.82102 0.0
H1067 H 0.45662 0.30065 0.86424 0.0
H1068 H 0.48247 0.34476 0.71958 0.0
H1069 H 0.51097 0.37353 0.94167 0.0
H1070 H 0.52315 0.35332 0.91205 0.0
H1071 H 0.49924 0.35113 0.93777 0.0
C1072 C 0.50435 0.30163 0.87539 0.0
C1073 C 0.48603 0.29436 0.88093 0.0
C1074 C 0.50741 0.31966 0.85079 0.0
C1075 C 0.49224 0.33091 0.83163 0.0
C1076 C 0.47403 0.32349 0.83539 0.0
H1077 H 0.48519 0.45159 0.7949 0.0
H1078 H 0.48342 0.41859 0.82526 0.0
C1079 C 0.47095 0.30551 0.85985 0.0
C1080 C 0.4951 0.35055 0.809 0.0
H1081 H 0.51054 0.39389 0.85458 0.0
C1082 C 0.48869 0.35549 0.74897 0.0
C1083 C 0.50299 0.36465 0.8476 0.0
C1084 C 0.50935 0.36051 0.91357 0.0
C1085 C 0.48986 0.37407 0.72667 0.0
C1086 C 0.49793 0.38815 0.76508 0.0
C1087 C 0.50444 0.38315 0.82494 0.0
C1088 C 0.49901 0.40827 0.74541 0.0
C1089 C 0.48186 0.37855 0.66299 0.0
C1090 C 0.50851 0.41365 0.69056 0.0
C1091 C 0.50938 0.43259 0.67254 0.0
C1092 C 0.50103 0.44664 0.70966 0.0
C1093 C 0.49178 0.44122 0.76504 0.0
C1094 C 0.49077 0.4223 0.78261 0.0
H1095 H 0.4721 0.36745 0.64649 0.0
H1096 H 0.47425 0.39216 0.66357 0.0
H1097 H 0.49348 0.37962 0.62861 0.0
H1098 H 0.51543 0.40318 0.66207 0.0
H1099 H 0.51678 0.43622 0.62993 0.0
H1100 H 0.21793 0.49677 0.80317 0.0
H1101 H 0.18546 0.50023 0.76723 0.0
H1102 H 0.16584 0.49451 0.95718 0.0
H1103 H 0.19809 0.49083 0.9934 0.0
H1104 H 0.15644 0.47433 0.77969 0.0
H1105 H 0.13751 0.54097 0.89795 0.0
H1106 H 0.16152 0.53327 0.88917 0.0
H1107 H 0.14696 0.52353 0.94983 0.0
C1108 C 0.20673 0.49635 0.83742 0.0
C1109 C 0.21076 0.49364 0.90137 0.0
C1110 C 0.18815 0.49838 0.81677 0.0
C1111 C 0.17317 0.49789 0.85953 0.0
C1112 C 0.17714 0.49541 0.92338 0.0
H1113 H 0.05117 0.49898 0.83669 0.0
H1114 H 0.08407 0.49753 0.86953 0.0
C1115 C 0.19567 0.49335 0.94407 0.0
C1116 C 0.15335 0.49894 0.8372 0.0
H1117 H 0.11237 0.52348 0.85364 0.0
C1118 C 0.14685 0.48517 0.79546 0.0
C1119 C 0.14076 0.51301 0.858 0.0
C1120 C 0.14704 0.52864 0.90076 0.0
C1121 C 0.12805 0.48481 0.77518 0.0
C1122 C 0.11543 0.49885 0.79618 0.0
C1123 C 0.12198 0.51269 0.83764 0.0
C1124 C 0.09541 0.49943 0.77574 0.0
C1125 C 0.12177 0.46907 0.73286 0.0
C1126 C 0.09074 0.50114 0.71209 0.0
C1127 C 0.07194 0.50189 0.69312 0.0
C1128 C 0.05731 0.50111 0.73744 0.0
C1129 C 0.06202 0.49953 0.80122 0.0
C1130 C 0.08085 0.49875 0.82012 0.0
H1131 H 0.13145 0.45685 0.73529 0.0
H1132 H 0.10741 0.46428 0.74519 0.0
H1133 H 0.12159 0.47413 0.68373 0.0
H1134 H 0.10167 0.50213 0.67698 0.0
H1135 H 0.06889 0.50326 0.64366 0.0
H1136 H 0.02944 0.80172 0.4547 0.0
H1137 H 0.02554 0.83426 0.48826 0.0
H1138 H 0.96535 0.82785 0.48059 0.0
H1139 H 0.96937 0.79539 0.44331 0.0
H1140 H 0.97398 0.86059 0.43748 0.0
H1141 H 0.0134 0.85236 0.65782 0.0
H1142 H 0.02798 0.84623 0.59269 0.0
H1143 H 0.00728 0.83255 0.60957 0.0
C1144 C 0.01538 0.80727 0.46046 0.0
C1145 C 0.99969 0.79602 0.44732 0.0
C1146 C 0.01314 0.82584 0.48018 0.0
C1147 C 0.99514 0.83346 0.48917 0.0
C1148 C 0.9794 0.8223 0.47477 0.0
H1149 H 0.98592 0.93885 0.69766 0.0
H1150 H 0.98445 0.90605 0.6646 0.0
C1151 C 0.98167 0.80377 0.4536 0.0
C1152 C 0.9929 0.85316 0.51214 0.0
H1153 H 0.00886 0.88401 0.62236 0.0
C1154 C 0.98145 0.86565 0.47837 0.0
C1155 C 0.00223 0.85981 0.56639 0.0
C1156 C 0.01321 0.84696 0.60903 0.0
C1157 C 0.97955 0.8846 0.49605 0.0
C1158 C 0.99003 0.89156 0.54751 0.0
C1159 C 1.00103 0.87892 0.58229 0.0
C1160 C 0.98983 0.91178 0.56656 0.0
C1161 C 0.966 0.89677 0.45998 0.0
C1162 C 0.99336 0.92615 0.52284 0.0
C1163 C 0.99372 0.94501 0.54152 0.0
C1164 C 0.99119 0.9499 0.60472 0.0
C1165 C 0.98796 0.93555 0.64861 0.0
C1166 C 0.98713 0.91675 0.62968 0.0
H1167 H 0.95462 0.88823 0.4387 0.0
H1168 H 0.9595 0.90762 0.49035 0.0
H1169 H 0.97359 0.90385 0.42126 0.0
H1170 H 0.9962 0.9228 0.47434 0.0
H1171 H 0.99653 0.95572 0.50675 0.0
H1172 H 0.69882 0.99545 0.36319 0.0
H1173 H 0.66671 0.99303 0.40245 0.0
H1174 H 0.68735 0.99116 0.59184 0.0
H1175 H 0.71967 0.99292 0.55314 0.0
H1176 H 0.64974 0.96405 0.49524 0.0
H1177 H 0.65018 0.03859 0.574 0.0
H1178 H 0.66606 0.03001 0.51454 0.0
H1179 H 0.66982 0.02396 0.59504 0.0
C1180 C 0.69667 0.99401 0.41314 0.0
C1181 C 0.71198 0.99443 0.45489 0.0
C1182 C 0.67823 0.99279 0.43549 0.0
C1183 C 0.67466 0.99212 0.50001 0.0
C1184 C 0.68983 0.99187 0.54184 0.0
H1185 H 0.56924 0.00665 0.7042 0.0
H1186 H 0.6023 0.00333 0.67544 0.0
C1187 C 0.70829 0.99295 0.51956 0.0
C1188 C 0.65503 0.99253 0.52341 0.0
H1189 H 0.62246 0.02145 0.59037 0.0
C1190 C 0.64375 0.97655 0.51623 0.0
C1191 C 0.64733 0.00882 0.55112 0.0
C1192 C 0.65885 0.02642 0.55908 0.0
C1193 C 0.62492 0.97642 0.53625 0.0
C1194 C 0.617 0.99292 0.56238 0.0
C1195 C 0.62844 0.00881 0.57028 0.0
C1196 C 0.59681 0.99421 0.58052 0.0
C1197 C 0.61387 0.95845 0.53022 0.0
C1198 C 0.5826 0.99039 0.53674 0.0
C1199 C 0.56366 0.99211 0.55325 0.0
C1200 C 0.55844 0.99802 0.61368 0.0
C1201 C 0.57269 1.00204 0.65729 0.0
C1202 C 0.59164 1.00015 0.64089 0.0
H1203 H 0.62325 0.94599 0.5294 0.0
H1204 H 0.60373 0.95681 0.56933 0.0
H1205 H 0.60594 0.95866 0.48553 0.0
H1206 H 0.58615 0.98636 0.48931 0.0
H1207 H 0.55312 0.9891 0.51816 0.0
H1208 H 0.50193 0.70641 0.34982 0.0
H1209 H 0.50557 0.67414 0.3866 0.0
H1210 H 0.51397 0.6941 0.57482 0.0
H1211 H 0.51101 0.72656 0.53836 0.0
H1212 H 0.53715 0.65652 0.46455 0.0
H1213 H 0.46663 0.65718 0.57706 0.0
H1214 H 0.47297 0.67346 0.51575 0.0
H1215 H 0.48213 0.67653 0.59325 0.0
C1216 C 0.50504 0.70408 0.39881 0.0
C1217 C 0.5061 0.71926 0.44102 0.0
C1218 C 0.50696 0.68554 0.41982 0.0
C1219 C 0.5098 0.68171 0.48352 0.0
C1220 C 0.51154 0.69674 0.52554 0.0
H1221 H 0.50418 0.57583 0.69098 0.0
H1222 H 0.5059 0.60896 0.6611 0.0
C1223 C 0.50978 0.71531 0.50454 0.0
C1224 C 0.51021 0.66196 0.50619 0.0
H1225 H 0.48428 0.6294 0.58573 0.0
C1226 C 0.52563 0.65056 0.49116 0.0
C1227 C 0.49522 0.65428 0.54123 0.0
C1228 C 0.4782 0.66588 0.5577 0.0
C1229 C 0.52651 0.63168 0.51054 0.0
C1230 C 0.51127 0.6238 0.54425 0.0
C1231 C 0.49595 0.63534 0.55987 0.0
C1232 C 0.5107 0.60357 0.56264 0.0
C1233 C 0.54396 0.62052 0.49572 0.0
C1234 C 0.51257 0.58938 0.51734 0.0
C1235 C 0.51175 0.57042 0.53441 0.0
C1236 C 0.50872 0.56513 0.59711 0.0
C1237 C 0.50656 0.57934 0.64231 0.0
C1238 C 0.50754 0.59833 0.62525 0.0
H1239 H 0.5563 0.62983 0.48885 0.0
H1240 H 0.54724 0.61035 0.53355 0.0
H1241 H 0.54176 0.61263 0.45157 0.0
H1242 H 0.51443 0.59296 0.46846 0.0
H1243 H 0.51326 0.5599 0.49815 0.0
H1244 H 0.78734 0.48464 0.50847 0.0
H1245 H 0.81931 0.48817 0.5478 0.0
H1246 H 0.8268 0.5373 0.43272 0.0
H1247 H 0.79458 0.534 0.39336 0.0
H1248 H 0.85259 0.48857 0.46753 0.0
H1249 H 0.84508 0.55282 0.61367 0.0
H1250 H 0.82527 0.53834 0.59247 0.0
H1251 H 0.83563 0.55367 0.53554 0.0
C1252 C 0.79559 0.49646 0.49242 0.0
C1253 C 0.78828 0.50915 0.4481 0.0
C1254 C 0.81394 0.49836 0.51463 0.0
C1255 C 0.82539 0.51306 0.49357 0.0
C1256 C 0.81813 0.52596 0.45011 0.0
H1257 H 0.9473 0.51964 0.52715 0.0
H1258 H 0.91485 0.52073 0.48987 0.0
C1259 C 0.79975 0.524 0.42741 0.0
C1260 C 0.84521 0.51418 0.51494 0.0
H1261 H 0.87551 0.53983 0.60482 0.0
C1262 C 0.85763 0.49981 0.49733 0.0
C1263 C 0.85169 0.52878 0.5542 0.0
C1264 C 0.83877 0.54427 0.57564 0.0
C1265 C 0.87637 0.49968 0.51777 0.0
C1266 C 0.8829 0.51433 0.55675 0.0
C1267 C 0.87048 0.52867 0.57465 0.0
C1268 C 0.90253 0.51468 0.58016 0.0
C1269 C 0.88902 0.48369 0.4985 0.0
C1270 C 0.90635 0.51123 0.64358 0.0
C1271 C 0.92491 0.51051 0.66512 0.0
C1272 C 0.94002 0.51341 0.62369 0.0
C1273 C 0.93606 0.51733 0.56043 0.0
C1274 C 0.91751 0.51792 0.53891 0.0
H1275 H 0.88104 0.4719 0.47735 0.0
H1276 H 0.89932 0.48882 0.46347 0.0
H1277 H 0.89699 0.47833 0.53944 0.0
H1278 H 0.89498 0.5087 0.67618 0.0
H1279 H 0.92741 0.50749 0.71412 0.0
loop_
_geom_bond_atom_site_label_1
_geom_bond_atom_site_label_2
_geom_bond_distance
_geom_bond_site_symmetry_2
_ccdc_geom_bond_type
P0 O11 1.490 . S
P0 C14 1.812 . S
P0 C20 1.803 . S
P0 C26 1.819 . S
H1 C15 0.941 . S
H2 C16 0.939 . S
H3 C18 0.940 . S
H4 C19 0.940 . S
H5 C21 0.939 . S
H6 C22 0.942 . S
H7 C24 0.940 . S
H8 C25 0.939 . S
H9 C27 0.941 . S
H10 C31 0.939 . S
O11 P0 1.490 . S
H12 C28 0.939 . S
H13 C30 0.940 . S
C14 P0 1.812 . S
C14 C15 1.389 . S
C14 C19 1.391 . S
C15 H1 0.941 . S
C15 C14 1.389 . S
C15 C16 1.397 . S
C16 H2 0.939 . S
C16 C15 1.397 . S
C16 C17 1.378 . S
C17 C16 1.378 . S
C17 C18 1.378 . S
C18 H3 0.940 . S
C18 C17 1.378 . S
C18 C19 1.396 . S
C19 H4 0.940 . S
C19 C14 1.391 . S
C19 C18 1.396 . S
C20 P0 1.803 . S
C20 C21 1.378 . S
C20 C25 1.400 . S
C21 H5 0.939 . S
C21 C20 1.378 . S
C21 C22 1.361 . S
C22 H6 0.942 . S
C22 C21 1.361 . S
C22 C23 1.369 . S
C23 C22 1.369 . S
C23 C24 1.404 . S
C24 H7 0.940 . S
C24 C23 1.404 . S
C24 C25 1.389 . S
C25 H8 0.939 . S
C25 C20 1.400 . S
C25 C24 1.389 . S
C26 P0 1.819 . S
C26 C27 1.391 . S
C26 C31 1.391 . S
C27 H9 0.941 . S
C27 C26 1.391 . S
C27 C28 1.396 . S
C28 H12 0.939 . S
C28 C27 1.396 . S
C28 C29 1.397 . S
C29 C28 1.397 . S
C29 C30 1.385 . S
C30 H13 0.940 . S
C30 C29 1.385 . S
C30 C31 1.388 . S
C31 H10 0.939 . S
C31 C26 1.391 . S
C31 C30 1.388 . S
P32 O43 1.490 . S
P32 C46 1.812 . S
P32 C52 1.803 . S
P32 C58 1.819 . S
H33 C47 0.941 . S
H34 C48 0.939 . S
H35 C50 0.940 . S
H36 C51 0.940 . S
H37 C53 0.939 . S
H38 C54 0.942 . S
H39 C56 0.940 . S
H40 C57 0.939 . S
H41 C59 0.941 . S
H42 C63 0.939 1_655 S
O43 P32 1.490 . S
H44 C60 0.939 . S
H45 C62 0.940 . S
C46 P32 1.812 . S
C46 C47 1.389 . S
C46 C51 1.391 1_455 S
C47 H33 0.941 . S
C47 C46 1.389 . S
C47 C48 1.397 . S
C48 H34 0.939 . S
C48 C47 1.397 . S
C48 C49 1.378 . S
C49 C48 1.378 . S
C49 C50 1.378 1_455 S
C50 H35 0.940 . S
C50 C49 1.378 1_655 S
C50 C51 1.396 . S
C51 H36 0.940 . S
C51 C46 1.391 1_655 S
C51 C50 1.396 . S
C52 P32 1.803 . S
C52 C53 1.378 . S
C52 C57 1.400 1_455 S
C53 H37 0.939 . S
C53 C52 1.378 . S
C53 C54 1.361 . S
C54 H38 0.942 . S
C54 C53 1.361 . S
C54 C55 1.369 . S
C55 C54 1.369 . S
C55 C56 1.404 1_455 S
C56 H39 0.940 . S
C56 C55 1.404 1_655 S
C56 C57 1.389 . S
C57 H40 0.939 . S
C57 C52 1.400 1_655 S
C57 C56 1.389 . S
C58 P32 1.819 . S
C58 C59 1.391 . S
C58 C63 1.391 . S
C59 H41 0.941 . S
C59 C58 1.391 . S
C59 C60 1.396 . S
C60 H44 0.939 . S
C60 C59 1.396 . S
C60 C61 1.397 . S
C61 C60 1.397 . S
C61 C62 1.385 1_455 S
C62 H45 0.940 . S
C62 C61 1.385 1_655 S
C62 C63 1.388 1_655 S
C63 H42 0.939 1_455 S
C63 C58 1.391 . S
C63 C62 1.388 1_455 S
P64 O75 1.490 . S
P64 C78 1.812 . S
P64 C84 1.803 . S
P64 C90 1.819 . S
H65 C79 0.941 . S
H66 C80 0.939 . S
H67 C82 0.940 . S
H68 C83 0.950 . S
H69 C85 0.939 . S
H70 C86 0.942 . S
H71 C88 0.940 . S
H72 C89 0.959 . S
H73 C91 0.941 . S
H74 C95 0.929 1_565 S
O75 P64 1.490 . S
H76 C92 0.939 . S
H77 C94 0.940 . S
C78 P64 1.812 . S
C78 C79 1.389 . S
C78 C83 1.375 1_545 S
C79 H65 0.941 . S
C79 C78 1.389 . S
C79 C80 1.397 . S
C80 H66 0.939 . S
C80 C79 1.397 . S
C80 C81 1.378 . S
C81 C80 1.378 . S
C81 C82 1.378 1_545 S
C82 H67 0.940 . S
C82 C81 1.378 1_565 S
C82 C83 1.403 . S
C83 H68 0.950 . S
C83 C78 1.375 1_565 S
C83 C82 1.403 . S
C84 P64 1.803 . S
C84 C85 1.378 . S
C84 C89 1.368 1_545 S
C85 H69 0.939 . S
C85 C84 1.378 . S
C85 C86 1.361 . S
C86 H70 0.942 . S
C86 C85 1.361 . S
C86 C87 1.369 . S
C87 C86 1.369 . S
C87 C88 1.404 1_545 S
C88 H71 0.940 . S
C88 C87 1.404 1_565 S
C88 C89 1.402 . S
C89 H72 0.959 . S
C89 C84 1.368 1_565 S
C89 C88 1.402 . S
C90 P64 1.819 . S
C90 C91 1.391 . S
C90 C95 1.391 . S
C91 H73 0.941 . S
C91 C90 1.391 . S
C91 C92 1.396 . S
C92 H76 0.939 . S
C92 C91 1.396 . S
C92 C93 1.397 . S
C93 C92 1.397 . S
C93 C94 1.385 1_545 S
C94 H77 0.940 . S
C94 C93 1.385 1_565 S
C94 C95 1.388 1_565 S
C95 H74 0.929 1_545 S
C95 C90 1.391 . S
C95 C94 1.388 1_545 S
P96 O107 1.490 . S
P96 C110 1.812 . S
P96 C116 1.803 . S
P96 C122 1.819 . S
H97 C111 0.941 . S
H98 C112 0.939 . S
H99 C114 0.940 . S
H100 C115 0.940 . S
H101 C117 0.939 . S
H102 C118 0.942 . S
H103 C120 0.940 . S
H104 C121 0.939 . S
H105 C123 0.941 . S
H106 C127 0.939 . S
O107 P96 1.490 . S
H108 C124 0.939 . S
H109 C126 0.940 . S
C110 P96 1.812 . S
C110 C111 1.389 . S
C110 C115 1.391 . S
C111 H97 0.941 . S
C111 C110 1.389 . S
C111 C112 1.397 . S
C112 H98 0.939 . S
C112 C111 1.397 . S
C112 C113 1.378 . S
C113 C112 1.378 . S
C113 C114 1.378 . S
C114 H99 0.940 . S
C114 C113 1.378 . S
C114 C115 1.396 . S
C115 H100 0.940 . S
C115 C110 1.391 . S
C115 C114 1.396 . S
C116 P96 1.803 . S
C116 C117 1.378 . S
C116 C121 1.400 . S
C117 H101 0.939 . S
C117 C116 1.378 . S
C117 C118 1.361 . S
C118 H102 0.942 . S
C118 C117 1.361 . S
C118 C119 1.369 . S
C119 C118 1.369 . S
C119 C120 1.404 . S
C120 H103 0.940 . S
C120 C119 1.404 . S
C120 C121 1.389 . S
C121 H104 0.939 . S
C121 C116 1.400 . S
C121 C120 1.389 . S
C122 P96 1.819 . S
C122 C123 1.391 . S
C122 C127 1.391 . S
C123 H105 0.941 . S
C123 C122 1.391 . S
C123 C124 1.396 . S
C124 H108 0.939 . S
C124 C123 1.396 . S
C124 C125 1.397 . S
C125 C124 1.397 . S
C125 C126 1.385 . S
C126 H109 0.940 . S
C126 C125 1.385 . S
C126 C127 1.388 . S
C127 H106 0.939 . S
C127 C122 1.391 . S
C127 C126 1.388 . S
P128 O139 1.490 . S
P128 C142 1.812 1_554 S
P128 C148 1.803 . S
P128 C154 1.819 . S
H129 C143 0.941 . S
H130 C144 0.939 . S
H131 C146 0.940 . S
H132 C147 0.940 . S
H133 C149 0.939 . S
H134 C150 0.942 . S
H135 C152 0.940 . S
H136 C153 0.939 . S
H137 C155 0.941 . S
H138 C159 0.939 . S
O139 P128 1.490 . S
H140 C156 0.939 . S
H141 C158 0.940 . S
C142 P128 1.812 1_556 S
C142 C143 1.389 . S
C142 C147 1.391 . S
C143 H129 0.941 . S
C143 C142 1.389 . S
C143 C144 1.397 . S
C144 H130 0.939 . S
C144 C143 1.397 . S
C144 C145 1.378 . S
C145 C144 1.378 . S
C145 C146 1.378 . S
C146 H131 0.940 . S
C146 C145 1.378 . S
C146 C147 1.396 . S
C147 H132 0.940 . S
C147 C142 1.391 . S
C147 C146 1.396 . S
C148 P128 1.803 . S
C148 C149 1.378 . S
C148 C153 1.400 . S
C149 H133 0.939 . S
C149 C148 1.378 . S
C149 C150 1.361 . S
C150 H134 0.942 . S
C150 C149 1.361 . S
C150 C151 1.369 . S
C151 C150 1.369 . S
C151 C152 1.404 . S
C152 H135 0.940 . S
C152 C151 1.404 . S
C152 C153 1.389 . S
C153 H136 0.939 . S
C153 C148 1.400 . S
C153 C152 1.389 . S
C154 P128 1.819 . S
C154 C155 1.391 . S
C154 C159 1.391 . S
C155 H137 0.941 . S
C155 C154 1.391 . S
C155 C156 1.396 . S
C156 H140 0.939 . S
C156 C155 1.396 . S
C156 C157 1.397 . S
C157 C156 1.397 . S
C157 C158 1.385 . S
C158 H141 0.940 . S
C158 C157 1.385 . S
C158 C159 1.388 . S
C159 H138 0.939 . S
C159 C154 1.391 . S
C159 C158 1.388 . S
P160 O171 1.490 . S
P160 C174 1.812 1_554 S
P160 C180 1.803 . S
P160 C186 1.819 . S
H161 C175 0.941 . S
H162 C176 0.939 . S
H163 C178 0.940 . S
H164 C179 0.940 1_655 S
H165 C181 0.939 . S
H166 C182 0.942 . S
H167 C184 0.940 . S
H168 C185 0.939 1_655 S
H169 C187 0.941 . S
H170 C191 0.939 . S
O171 P160 1.490 . S
H172 C188 0.939 . S
H173 C190 0.980 . S
C174 P160 1.812 1_556 S
C174 C175 1.389 . S
C174 C179 1.391 . S
C175 H161 0.941 . S
C175 C174 1.389 . S
C175 C176 1.397 . S
C176 H162 0.939 . S
C176 C175 1.397 . S
C176 C177 1.378 . S
C177 C176 1.378 . S
C177 C178 1.378 1_455 S
C178 H163 0.940 . S
C178 C177 1.378 1_655 S
C178 C179 1.396 1_655 S
C179 H164 0.940 1_455 S
C179 C174 1.391 . S
C179 C178 1.396 1_455 S
C180 P160 1.803 . S
C180 C181 1.378 . S
C180 C185 1.400 . S
C181 H165 0.939 . S
C181 C180 1.378 . S
C181 C182 1.361 . S
C182 H166 0.942 . S
C182 C181 1.361 . S
C182 C183 1.369 . S
C183 C182 1.369 . S
C183 C184 1.404 1_455 S
C184 H167 0.940 . S
C184 C183 1.404 1_655 S
C184 C185 1.389 1_655 S
C185 H168 0.939 1_455 S
C185 C180 1.400 . S
C185 C184 1.389 1_455 S
C186 P160 1.819 . S
C186 C187 1.391 . S
C186 C191 1.391 . S
C187 H169 0.941 . S
C187 C186 1.391 . S
C187 C188 1.396 . S
C188 H172 0.939 . S
C188 C187 1.396 . S
C188 C189 1.397 . S
C189 C188 1.397 . S
C189 C190 1.366 1_455 S
C190 H173 0.980 . S
C190 C189 1.366 1_655 S
C190 C191 1.370 1_655 S
C191 H170 0.939 . S
C191 C186 1.391 . S
C191 C190 1.370 1_455 S
P192 O203 1.490 . S
P192 C206 1.812 1_554 S
P192 C212 1.803 . S
P192 C218 1.819 . S
H193 C207 0.941 . S
H194 C208 0.939 . S
H195 C210 0.940 . S
H196 C211 0.942 . S
H197 C213 0.939 . S
H198 C214 0.942 . S
H199 C216 0.940 . S
H200 C217 0.951 . S
H201 C219 0.941 . S
H202 C223 0.934 1_565 S
O203 P192 1.490 . S
H204 C220 0.939 . S
H205 C222 0.940 . S
C206 P192 1.812 1_556 S
C206 C207 1.389 . S
C206 C211 1.388 1_545 S
C207 H193 0.941 . S
C207 C206 1.389 . S
C207 C208 1.397 . S
C208 H194 0.939 . S
C208 C207 1.397 . S
C208 C209 1.378 . S
C209 C208 1.378 . S
C209 C210 1.378 1_545 S
C210 H195 0.940 . S
C210 C209 1.378 1_565 S
C210 C211 1.398 . S
C211 H196 0.942 . S
C211 C206 1.388 1_565 S
C211 C210 1.398 . S
C212 P192 1.803 . S
C212 C213 1.378 . S
C212 C217 1.381 1_545 S
C213 H197 0.939 . S
C213 C212 1.378 . S
C213 C214 1.361 . S
C214 H198 0.942 . S
C214 C213 1.361 . S
C214 C215 1.369 . S
C215 C214 1.369 . S
C215 C216 1.404 1_545 S
C216 H199 0.940 . S
C216 C215 1.404 1_565 S
C216 C217 1.396 . S
C217 H200 0.951 . S
C217 C212 1.381 1_565 S
C217 C216 1.396 . S
C218 P192 1.819 . S
C218 C219 1.391 . S
C218 C223 1.391 . S
C219 H201 0.941 . S
C219 C218 1.391 . S
C219 C220 1.396 . S
C220 H204 0.939 . S
C220 C219 1.396 . S
C220 C221 1.397 . S
C221 C220 1.397 . S
C221 C222 1.385 1_545 S
C222 H205 0.940 . S
C222 C221 1.385 1_565 S
C222 C223 1.388 1_565 S
C223 H202 0.934 1_545 S
C223 C218 1.391 . S
C223 C222 1.388 1_545 S
P224 O235 1.490 . S
P224 C238 1.812 1_554 S
P224 C244 1.803 . S
P224 C250 1.819 . S
H225 C239 0.941 . S
H226 C240 0.939 . S
H227 C242 0.940 . S
H228 C243 0.940 . S
H229 C245 0.939 . S
H230 C246 0.942 . S
H231 C248 0.940 . S
H232 C249 0.939 . S
H233 C251 0.941 . S
H234 C255 0.939 . S
O235 P224 1.490 . S
H236 C252 0.939 . S
H237 C254 0.940 . S
C238 P224 1.812 1_556 S
C238 C239 1.389 . S
C238 C243 1.391 . S
C239 H225 0.941 . S
C239 C238 1.389 . S
C239 C240 1.397 . S
C240 H226 0.939 . S
C240 C239 1.397 . S
C240 C241 1.378 . S
C241 C240 1.378 . S
C241 C242 1.378 . S
C242 H227 0.940 . S
C242 C241 1.378 . S
C242 C243 1.396 . S
C243 H228 0.940 . S
C243 C238 1.391 . S
C243 C242 1.396 . S
C244 P224 1.803 . S
C244 C245 1.378 . S
C244 C249 1.400 . S
C245 H229 0.939 . S
C245 C244 1.378 . S
C245 C246 1.361 . S
C246 H230 0.942 . S
C246 C245 1.361 . S
C246 C247 1.369 . S
C247 C246 1.369 . S
C247 C248 1.404 . S
C248 H231 0.940 . S
C248 C247 1.404 . S
C248 C249 1.389 . S
C249 H232 0.939 . S
C249 C244 1.400 . S
C249 C248 1.389 . S
C250 P224 1.819 . S
C250 C251 1.391 . S
C250 C255 1.391 . S
C251 H233 0.941 . S
C251 C250 1.391 . S
C251 C252 1.396 . S
C252 H236 0.939 . S
C252 C251 1.396 . S
C252 C253 1.397 . S
C253 C252 1.397 . S
C253 C254 1.385 . S
C254 H237 0.940 . S
C254 C253 1.385 . S
C254 C255 1.388 . S
C255 H234 0.939 . S
C255 C250 1.391 . S
C255 C254 1.388 . S
Sm256 C258 2.846 . S
Sm256 O276 2.543 . S
Sm256 O277 2.450 . S
Sm256 O278 2.681 1_565 S
Sm256 O279 2.464 . S
Sm256 O280 2.396 . S
Sm256 O284 2.386 1_455 S
Sm256 O287 2.408 1_565 S
Sm257 C267 2.846 . S
Sm257 O278 2.386 1_655 S
Sm257 O281 2.408 1_545 S
Sm257 O282 2.567 . S
Sm257 O283 2.450 . S
Sm257 O284 2.681 1_545 S
Sm257 O285 2.464 . S
Sm257 O286 2.396 . S
C258 Sm256 2.846 . S
C258 C259 1.506 . S
C258 O276 1.261 . S
C258 O277 1.242 . S
C259 C258 1.506 . S
C259 C260 1.358 . S
C259 C264 1.382 . S
C260 C259 1.358 . S
C260 C261 1.385 . S
C260 H288 0.930 1_455 S
C261 C260 1.385 . S
C261 C262 1.395 . S
C261 H289 0.929 1_455 S
C262 C261 1.395 . S
C262 C263 1.335 . S
C263 C262 1.335 . S
C263 C264 1.398 . S
C263 H290 0.930 . S
C264 C259 1.382 . S
C264 C263 1.398 . S
C264 H291 0.929 . S
C265 O278 1.254 1_565 S
C265 O279 1.282 . S
C266 O280 1.252 1_655 S
C266 O281 1.272 . S
C267 Sm257 2.846 . S
C267 C268 1.506 . S
C267 O282 1.320 . S
C267 O283 1.242 . S
C268 C267 1.506 . S
C268 C269 1.358 . S
C268 C273 1.382 . S
C269 C268 1.358 . S
C269 C270 1.385 . S
C269 H292 0.930 1_655 S
C270 C269 1.385 . S
C270 C271 1.395 . S
C270 H293 0.929 1_655 S
C271 C270 1.395 . S
C271 C272 1.335 . S
C272 C271 1.335 . S
C272 C273 1.398 . S
C272 H294 0.930 . S
C273 C268 1.382 . S
C273 C272 1.398 . S
C273 H295 0.929 . S
C274 O284 1.271 1_545 S
C274 O285 1.251 . S
C275 O286 1.252 1_455 S
C275 O287 1.272 . S
O276 Sm256 2.543 . S
O276 C258 1.261 . S
O277 Sm256 2.450 . S
O277 C258 1.242 . S
O278 Sm256 2.681 1_545 S
O278 Sm257 2.386 1_455 S
O278 C265 1.254 1_545 S
O279 Sm256 2.464 . S
O279 C265 1.282 . S
O280 Sm256 2.396 . S
O280 C266 1.252 1_455 S
O281 Sm257 2.408 1_565 S
O281 C266 1.272 . S
O282 Sm257 2.567 . S
O282 C267 1.320 . S
O283 Sm257 2.450 . S
O283 C267 1.242 . S
O284 Sm256 2.386 1_655 S
O284 Sm257 2.681 1_565 S
O284 C274 1.271 1_565 S
O285 Sm257 2.464 . S
O285 C274 1.251 . S
O286 Sm257 2.396 . S
O286 C275 1.252 1_655 S
O287 Sm256 2.408 1_545 S
O287 C275 1.272 . S
H288 C260 0.930 1_655 S
H289 C261 0.929 1_655 S
H290 C263 0.930 . S
H291 C264 0.929 . S
H292 C269 0.930 1_455 S
H293 C270 0.929 1_455 S
H294 C272 0.930 . S
H295 C273 0.929 . S
Sm296 C298 2.846 . S
Sm296 O316 2.543 . S
Sm296 O317 2.450 . S
Sm296 O318 2.681 . S
Sm296 O319 2.464 . S
Sm296 O320 2.396 . S
Sm296 O324 2.386 1_545 S
Sm296 O327 2.408 . S
Sm297 C307 2.846 . S
Sm297 O318 2.386 1_565 S
Sm297 O321 2.408 . S
Sm297 O322 2.543 . S
Sm297 O323 2.450 . S
Sm297 O324 2.681 . S
Sm297 O325 2.464 . S
Sm297 O326 2.396 . S
C298 Sm296 2.846 . S
C298 C299 1.506 . S
C298 O316 1.261 . S
C298 O317 1.242 . S
C299 C298 1.506 . S
C299 C300 1.358 . S
C299 C304 1.382 . S
C300 C299 1.358 . S
C300 C301 1.385 . S
C300 H328 0.930 1_545 S
C301 C300 1.385 . S
C301 C302 1.395 . S
C301 H329 0.929 1_545 S
C302 C301 1.395 . S
C302 C303 1.335 . S
C303 C302 1.335 . S
C303 C304 1.398 . S
C303 H330 0.930 . S
C304 C299 1.382 . S
C304 C303 1.398 . S
C304 H331 0.929 . S
C305 O318 1.271 . S
C305 O319 1.251 . S
C306 O320 1.252 1_565 S
C306 O321 1.272 . S
C307 Sm297 2.846 . S
C307 C308 1.506 . S
C307 O322 1.261 . S
C307 O323 1.242 . S
C308 C307 1.506 . S
C308 C309 1.358 . S
C308 C313 1.382 . S
C309 C308 1.358 . S
C309 C310 1.385 . S
C309 H332 0.930 1_565 S
C310 C309 1.385 . S
C310 C311 1.395 . S
C310 H333 0.929 1_565 S
C311 C310 1.395 . S
C311 C312 1.335 . S
C312 C311 1.335 . S
C312 C313 1.398 . S
C312 H334 0.930 . S
C313 C308 1.382 . S
C313 C312 1.398 . S
C313 H335 0.929 . S
C314 O324 1.271 . S
C314 O325 1.251 . S
C315 O326 1.252 1_545 S
C315 O327 1.272 . S
O316 Sm296 2.543 . S
O316 C298 1.261 . S
O317 Sm296 2.450 . S
O317 C298 1.242 . S
O318 Sm296 2.681 . S
O318 Sm297 2.386 1_545 S
O318 C305 1.271 . S
O319 Sm296 2.464 . S
O319 C305 1.251 . S
O320 Sm296 2.396 . S
O320 C306 1.252 1_545 S
O321 Sm297 2.408 . S
O321 C306 1.272 . S
O322 Sm297 2.543 . S
O322 C307 1.261 . S
O323 Sm297 2.450 . S
O323 C307 1.242 . S
O324 Sm296 2.386 1_565 S
O324 Sm297 2.681 . S
O324 C314 1.271 . S
O325 Sm297 2.464 . S
O325 C314 1.251 . S
O326 Sm297 2.396 . S
O326 C315 1.252 1_565 S
O327 Sm296 2.408 . S
O327 C315 1.272 . S
H328 C300 0.930 1_565 S
H329 C301 0.929 1_565 S
H330 C303 0.930 . S
H331 C304 0.929 . S
H332 C309 0.930 1_545 S
H333 C310 0.929 1_545 S
H334 C312 0.930 . S
H335 C313 0.929 . S
Sm336 C338 2.846 . S
Sm336 O356 2.543 . S
Sm336 O357 2.450 . S
Sm336 O358 2.681 . S
Sm336 O359 2.464 . S
Sm336 O360 2.396 . S
Sm336 O364 2.386 . S
Sm336 O367 2.408 . S
Sm337 C347 2.846 . S
Sm337 O358 2.386 . S
Sm337 O361 2.408 . S
Sm337 O362 2.543 . S
Sm337 O363 2.450 . S
Sm337 O364 2.681 . S
Sm337 O365 2.464 . S
Sm337 O366 2.396 . S
C338 Sm336 2.846 . S
C338 C339 1.506 . S
C338 O356 1.261 . S
C338 O357 1.242 . S
C339 C338 1.506 . S
C339 C340 1.358 . S
C339 C344 1.382 . S
C340 C339 1.358 . S
C340 C341 1.385 . S
C340 H368 0.930 . S
C341 C340 1.385 . S
C341 C342 1.395 . S
C341 H369 0.929 . S
C342 C341 1.395 . S
C342 C343 1.335 . S
C343 C342 1.335 . S
C343 C344 1.398 . S
C343 H370 0.930 . S
C344 C339 1.382 . S
C344 C343 1.398 . S
C344 H371 0.929 . S
C345 O358 1.271 . S
C345 O359 1.251 . S
C346 O360 1.252 . S
C346 O361 1.272 . S
C347 Sm337 2.846 . S
C347 C348 1.506 . S
C347 O362 1.261 . S
C347 O363 1.242 . S
C348 C347 1.506 . S
C348 C349 1.358 . S
C348 C353 1.382 . S
C349 C348 1.358 . S
C349 C350 1.385 . S
C349 H372 0.930 . S
C350 C349 1.385 . S
C350 C351 1.395 . S
C350 H373 0.929 . S
C351 C350 1.395 . S
C351 C352 1.335 . S
C352 C351 1.335 . S
C352 C353 1.398 . S
C352 H374 0.930 . S
C353 C348 1.382 . S
C353 C352 1.398 . S
C353 H375 0.929 . S
C354 O364 1.271 . S
C354 O365 1.251 . S
C355 O366 1.252 . S
C355 O367 1.272 . S
O356 Sm336 2.543 . S
O356 C338 1.261 . S
O357 Sm336 2.450 . S
O357 C338 1.242 . S
O358 Sm336 2.681 . S
O358 Sm337 2.386 . S
O358 C345 1.271 . S
O359 Sm336 2.464 . S
O359 C345 1.251 . S
O360 Sm336 2.396 . S
O360 C346 1.252 . S
O361 Sm337 2.408 . S
O361 C346 1.272 . S
O362 Sm337 2.543 . S
O362 C347 1.261 . S
O363 Sm337 2.450 . S
O363 C347 1.242 . S
O364 Sm336 2.386 . S
O364 Sm337 2.681 . S
O364 C354 1.271 . S
O365 Sm337 2.464 . S
O365 C354 1.251 . S
O366 Sm337 2.396 . S
O366 C355 1.252 . S
O367 Sm336 2.408 . S
O367 C355 1.272 . S
H368 C340 0.930 . S
H369 C341 0.929 . S
H370 C343 0.930 . S
H371 C344 0.929 . S
H372 C349 0.930 . S
H373 C350 0.929 . S
H374 C352 0.930 . S
H375 C353 0.929 . S
Sm376 C378 2.846 . S
Sm376 O396 2.543 . S
Sm376 O397 2.450 . S
Sm376 O398 2.681 1_655 S
Sm376 O399 2.464 . S
Sm376 O400 2.396 . S
Sm376 O404 2.386 . S
Sm376 O407 2.408 1_655 S
Sm377 C387 2.846 . S
Sm377 O398 2.386 . S
Sm377 O401 2.408 1_455 S
Sm377 O402 2.543 . S
Sm377 O403 2.450 . S
Sm377 O404 2.681 1_455 S
Sm377 O405 2.464 . S
Sm377 O406 2.396 . S
C378 Sm376 2.846 . S
C378 C379 1.506 . S
C378 O396 1.261 . S
C378 O397 1.242 . S
C379 C378 1.506 . S
C379 C380 1.358 . S
C379 C384 1.382 . S
C380 C379 1.358 . S
C380 C381 1.385 . S
C380 H408 0.930 . S
C381 C380 1.385 . S
C381 C382 1.395 . S
C381 H409 0.929 . S
C382 C381 1.395 . S
C382 C383 1.335 . S
C383 C382 1.335 . S
C383 C384 1.398 . S
C383 H410 0.930 . S
C384 C379 1.382 . S
C384 C383 1.398 . S
C384 H411 0.929 . S
C385 O398 1.260 1_655 S
C385 O399 1.271 . S
C386 O400 1.252 . S
C386 O401 1.272 . S
C387 Sm377 2.846 . S
C387 C388 1.506 . S
C387 O402 1.261 . S
C387 O403 1.242 . S
C388 C387 1.506 . S
C388 C389 1.358 . S
C388 C393 1.382 . S
C389 C388 1.358 . S
C389 C390 1.385 . S
C389 H412 0.930 . S
C390 C389 1.385 . S
C390 C391 1.395 . S
C390 H413 0.929 . S
C391 C390 1.395 . S
C391 C392 1.335 . S
C392 C391 1.335 . S
C392 C393 1.398 . S
C392 H414 0.930 . S
C393 C388 1.382 . S
C393 C392 1.398 . S
C393 H415 0.929 . S
C394 O404 1.256 1_455 S
C394 O405 1.279 . S
C395 O406 1.252 . S
C395 O407 1.272 . S
O396 Sm376 2.543 . S
O396 C378 1.261 . S
O397 Sm376 2.450 . S
O397 C378 1.242 . S
O398 Sm376 2.681 1_455 S
O398 Sm377 2.386 . S
O398 C385 1.260 1_455 S
O399 Sm376 2.464 . S
O399 C385 1.271 . S
O400 Sm376 2.396 . S
O400 C386 1.252 . S
O401 Sm377 2.408 1_655 S
O401 C386 1.272 . S
O402 Sm377 2.543 . S
O402 C387 1.261 . S
O403 Sm377 2.450 . S
O403 C387 1.242 . S
O404 Sm376 2.386 . S
O404 Sm377 2.681 1_655 S
O404 C394 1.256 1_655 S
O405 Sm377 2.464 . S
O405 C394 1.279 . S
O406 Sm377 2.396 . S
O406 C395 1.252 . S
O407 Sm376 2.408 1_455 S
O407 C395 1.272 . S
H408 C380 0.930 . S
H409 C381 0.929 . S
H410 C383 0.930 . S
H411 C384 0.929 . S
H412 C389 0.930 . S
H413 C390 0.929 . S
H414 C392 0.930 . S
H415 C393 0.929 . S
H416 C424 0.929 . S
H417 C426 0.930 . S
H418 C428 0.930 . S
H419 C431 0.929 . S
H420 C434 0.934 . S
H421 C436 0.960 . S
H422 C436 0.960 . S
H423 C436 0.960 1_565 S
C424 H416 0.929 . S
C424 C425 1.397 . S
C424 C426 1.384 . S
C425 C424 1.397 . S
C425 C431 1.371 1_545 S
C426 H417 0.930 . S
C426 C424 1.384 . S
C426 C427 1.372 . S
C427 C426 1.372 . S
C427 C428 1.400 1_545 S
C427 C432 1.490 . S
C428 H418 0.930 . S
C428 C427 1.400 1_565 S
C428 C431 1.386 . S
H429 C445 0.930 . S
H430 C446 0.931 . S
C431 H419 0.929 . S
C431 C425 1.371 1_565 S
C431 C428 1.386 . S
C432 C427 1.490 . S
C432 C434 1.391 1_545 S
C432 C435 1.403 . S
H433 C439 0.930 . S
C434 H420 0.934 . S
C434 C432 1.391 1_565 S
C434 C437 1.403 . S
C435 C432 1.403 . S
C435 C436 1.524 . S
C435 C439 1.400 . S
C436 H421 0.960 . S
C436 H422 0.960 . S
C436 H423 0.960 1_545 S
C436 C435 1.524 . S
C437 C434 1.403 . S
C437 C438 1.386 1_565 S
C437 C441 1.505 . S
C438 C437 1.386 1_545 S
C438 C439 1.392 . S
C438 C440 1.477 . S
C439 H433 0.930 . S
C439 C435 1.400 . S
C439 C438 1.392 . S
C440 C438 1.477 . S
C440 C442 1.401 . S
C440 C446 1.363 1_545 S
C441 C437 1.505 . S
C441 H447 0.959 . S
C441 H448 0.961 . S
C441 H449 0.960 1_565 S
C442 C440 1.401 . S
C442 C443 1.394 . S
C442 H450 0.930 . S
C443 C442 1.394 . S
C443 C444 1.422 . S
C443 H451 0.929 . S
C444 C443 1.422 . S
C444 C445 1.339 1_545 S
C445 H429 0.930 . S
C445 C444 1.339 1_565 S
C445 C446 1.379 . S
C446 H430 0.931 . S
C446 C440 1.363 1_565 S
C446 C445 1.379 . S
H447 C441 0.959 . S
H448 C441 0.961 . S
H449 C441 0.960 1_545 S
H450 C442 0.930 . S
H451 C443 0.929 . S
H452 C460 0.929 . S
H453 C462 0.930 . S
H454 C464 0.930 . S
H455 C467 0.929 . S
H456 C470 0.930 . S
H457 C472 0.960 . S
H458 C472 0.960 . S
H459 C472 0.960 . S
C460 H452 0.929 . S
C460 C461 1.377 . S
C460 C462 1.384 . S
C461 C460 1.377 . S
C461 C467 1.390 . S
C462 H453 0.930 . S
C462 C460 1.384 . S
C462 C463 1.372 . S
C463 C462 1.372 . S
C463 C464 1.400 . S
C463 C468 1.490 . S
C464 H454 0.930 . S
C464 C463 1.400 . S
C464 C467 1.386 . S
H465 C481 0.930 . S
H466 C482 0.931 . S
C467 H455 0.929 . S
C467 C461 1.390 . S
C467 C464 1.386 . S
C468 C463 1.490 . S
C468 C470 1.395 . S
C468 C471 1.403 . S
H469 C475 0.930 . S
C470 H456 0.930 . S
C470 C468 1.395 . S
C470 C473 1.403 . S
C471 C468 1.403 . S
C471 C472 1.524 . S
C471 C475 1.400 . S
C472 H457 0.960 . S
C472 H458 0.960 . S
C472 H459 0.960 . S
C472 C471 1.524 . S
C473 C470 1.403 . S
C473 C474 1.392 . S
C473 C477 1.495 . S
C474 C473 1.392 . S
C474 C475 1.385 . S
C474 C476 1.478 . S
C475 H469 0.930 . S
C475 C471 1.400 . S
C475 C474 1.385 . S
C476 C474 1.478 . S
C476 C478 1.381 . S
C476 C482 1.383 . S
C477 C473 1.495 . S
C477 H483 0.959 . S
C477 H484 0.961 . S
C477 H485 0.960 . S
C478 C476 1.381 . S
C478 C479 1.394 . S
C478 H486 0.930 . S
C479 C478 1.394 . S
C479 C480 1.383 . S
C479 H487 0.929 . S
C480 C479 1.383 . S
C480 C481 1.377 . S
C481 H465 0.930 . S
C481 C480 1.377 . S
C481 C482 1.379 . S
C482 H466 0.931 . S
C482 C476 1.383 . S
C482 C481 1.379 . S
H483 C477 0.959 . S
H484 C477 0.961 . S
H485 C477 0.960 . S
H486 C478 0.930 . S
H487 C479 0.929 . S
H488 C496 0.929 . S
H489 C498 0.930 . S
H490 C500 0.930 . S
H491 C503 0.929 . S
H492 C506 0.930 . S
H493 C508 0.960 . S
H494 C508 0.960 . S
H495 C508 0.960 . S
C496 H488 0.929 . S
C496 C497 1.377 . S
C496 C498 1.384 . S
C497 C496 1.377 . S
C497 C503 1.390 . S
C498 H489 0.930 . S
C498 C496 1.384 . S
C498 C499 1.372 . S
C499 C498 1.372 . S
C499 C500 1.400 . S
C499 C504 1.490 . S
C500 H490 0.930 . S
C500 C499 1.400 . S
C500 C503 1.386 . S
H501 C517 0.930 . S
H502 C518 0.931 . S
C503 H491 0.929 . S
C503 C497 1.390 . S
C503 C500 1.386 . S
C504 C499 1.490 . S
C504 C506 1.395 . S
C504 C507 1.403 . S
H505 C511 0.930 . S
C506 H492 0.930 . S
C506 C504 1.395 . S
C506 C509 1.403 . S
C507 C504 1.403 . S
C507 C508 1.524 . S
C507 C511 1.400 . S
C508 H493 0.960 . S
C508 H494 0.960 . S
C508 H495 0.960 . S
C508 C507 1.524 . S
C509 C506 1.403 . S
C509 C510 1.392 . S
C509 C513 1.495 . S
C510 C509 1.392 . S
C510 C511 1.385 . S
C510 C512 1.478 . S
C511 H505 0.930 . S
C511 C507 1.400 . S
C511 C510 1.385 . S
C512 C510 1.478 . S
C512 C514 1.381 . S
C512 C518 1.383 . S
C513 C509 1.495 . S
C513 H519 0.959 . S
C513 H520 0.961 . S
C513 H521 0.960 . S
C514 C512 1.381 . S
C514 C515 1.394 . S
C514 H522 0.930 . S
C515 C514 1.394 . S
C515 C516 1.383 . S
C515 H523 0.929 . S
C516 C515 1.383 . S
C516 C517 1.377 . S
C517 H501 0.930 . S
C517 C516 1.377 . S
C517 C518 1.379 . S
C518 H502 0.931 . S
C518 C512 1.383 . S
C518 C517 1.379 . S
H519 C513 0.959 . S
H520 C513 0.961 . S
H521 C513 0.960 . S
H522 C514 0.930 . S
H523 C515 0.929 . S
H524 C532 0.929 . S
H525 C534 0.930 . S
H526 C536 0.930 . S
H527 C539 0.929 . S
H528 C542 0.937 . S
H529 C544 0.960 . S
H530 C544 0.960 1_655 S
H531 C544 0.960 . S
C532 H524 0.929 . S
C532 C533 1.377 1_655 S
C532 C534 1.384 . S
C533 C532 1.377 1_455 S
C533 C539 1.390 . S
C534 H525 0.930 . S
C534 C532 1.384 . S
C534 C535 1.331 1_655 S
C535 C534 1.331 1_455 S
C535 C536 1.442 . S
C535 C540 1.490 . S
C536 H526 0.930 . S
C536 C535 1.442 . S
C536 C539 1.386 . S
H537 C553 0.930 . S
H538 C554 0.931 . S
C539 H527 0.929 . S
C539 C533 1.390 . S
C539 C536 1.386 . S
C540 C535 1.490 . S
C540 C542 1.389 1_455 S
C540 C543 1.407 . S
H541 C547 0.930 . S
C542 H528 0.937 . S
C542 C540 1.389 1_655 S
C542 C545 1.403 . S
C543 C540 1.407 . S
C543 C544 1.524 . S
C543 C547 1.400 . S
C544 H529 0.960 . S
C544 H530 0.960 1_455 S
C544 H531 0.960 . S
C544 C543 1.524 . S
C545 C542 1.403 . S
C545 C546 1.387 1_655 S
C545 C549 1.500 . S
C546 C545 1.387 1_455 S
C546 C547 1.390 . S
C546 C548 1.480 . S
C547 H541 0.930 . S
C547 C543 1.400 . S
C547 C546 1.390 . S
C548 C546 1.480 . S
C548 C550 1.381 1_455 S
C548 C554 1.383 . S
C549 C545 1.500 . S
C549 H555 0.959 . S
C549 H556 0.961 1_655 S
C549 H557 0.960 . S
C550 C548 1.381 1_655 S
C550 C551 1.394 . S
C550 H558 0.930 . S
C551 C550 1.394 . S
C551 C552 1.383 1_655 S
C551 H559 0.929 . S
C552 C551 1.383 1_455 S
C552 C553 1.377 . S
C553 H537 0.930 . S
C553 C552 1.377 . S
C553 C554 1.379 . S
C554 H538 0.931 . S
C554 C548 1.383 . S
C554 C553 1.379 . S
H555 C549 0.959 . S
H556 C549 0.961 1_455 S
H557 C549 0.960 . S
H558 C550 0.930 . S
H559 C551 0.929 . S
H560 C568 0.929 . S
H561 C570 0.930 . S
H562 C572 0.930 . S
H563 C575 0.929 . S
H564 C578 0.930 . S
H565 C580 0.960 . S
H566 C580 0.960 . S
H567 C580 0.960 . S
C568 H560 0.929 . S
C568 C569 1.377 1_545 S
C568 C570 1.384 . S
C569 C568 1.377 1_565 S
C569 C575 1.391 . S
C570 H561 0.930 . S
C570 C568 1.384 . S
C570 C571 1.370 . S
C571 C570 1.370 . S
C571 C572 1.402 1_545 S
C571 C576 1.489 . S
C572 H562 0.930 . S
C572 C571 1.402 1_565 S
C572 C575 1.386 . S
H573 C589 0.930 . S
H574 C590 0.931 . S
C575 H563 0.929 . S
C575 C569 1.391 . S
C575 C572 1.386 . S
C576 C571 1.489 . S
C576 C578 1.426 . S
C576 C579 1.373 1_545 S
H577 C583 0.930 . S
C578 H564 0.930 . S
C578 C576 1.426 . S
C578 C581 1.403 1_554 S
C579 C576 1.373 1_565 S
C579 C580 1.524 . S
C579 C583 1.400 1_554 S
C580 H565 0.960 . S
C580 H566 0.960 . S
C580 H567 0.960 . S
C580 C579 1.524 . S
C581 C578 1.403 1_556 S
C581 C582 1.392 . S
C581 C585 1.495 . S
C582 C581 1.392 . S
C582 C583 1.385 1_545 S
C582 C584 1.478 . S
C583 H577 0.930 . S
C583 C579 1.400 1_556 S
C583 C582 1.385 1_565 S
C584 C582 1.478 . S
C584 C586 1.381 . S
C584 C590 1.383 1_545 S
C585 C581 1.495 . S
C585 H591 0.959 . S
C585 H592 0.961 . S
C585 H593 0.960 . S
C586 C584 1.381 . S
C586 C587 1.394 . S
C586 H594 0.930 . S
C587 C586 1.394 . S
C587 C588 1.392 . S
C587 H595 0.929 . S
C588 C587 1.392 . S
C588 C589 1.370 1_545 S
C589 H573 0.930 . S
C589 C588 1.370 1_565 S
C589 C590 1.379 . S
C590 H574 0.931 . S
C590 C584 1.383 1_565 S
C590 C589 1.379 . S
H591 C585 0.959 . S
H592 C585 0.961 . S
H593 C585 0.960 . S
H594 C586 0.930 . S
H595 C587 0.929 . S
H596 C604 0.929 . S
H597 C606 0.930 . S
H598 C608 0.930 . S
H599 C611 0.929 . S
H600 C614 0.930 . S
H601 C616 0.960 . S
H602 C616 0.960 . S
H603 C616 0.960 . S
C604 H596 0.929 . S
C604 C605 1.377 . S
C604 C606 1.384 . S
C605 C604 1.377 . S
C605 C611 1.390 . S
C606 H597 0.930 . S
C606 C604 1.384 . S
C606 C607 1.372 . S
C607 C606 1.372 . S
C607 C608 1.400 . S
C607 C612 1.490 . S
C608 H598 0.930 . S
C608 C607 1.400 . S
C608 C611 1.386 . S
H609 C625 0.930 . S
H610 C626 0.931 . S
C611 H599 0.929 . S
C611 C605 1.390 . S
C611 C608 1.386 . S
C612 C607 1.490 . S
C612 C614 1.395 1_554 S
C612 C615 1.403 . S
H613 C619 0.930 . S
C614 H600 0.930 . S
C614 C612 1.395 1_556 S
C614 C617 1.403 . S
C615 C612 1.403 . S
C615 C616 1.524 . S
C615 C619 1.400 1_554 S
C616 H601 0.960 . S
C616 H602 0.960 . S
C616 H603 0.960 . S
C616 C615 1.524 . S
C617 C614 1.403 . S
C617 C618 1.392 . S
C617 C621 1.495 . S
C618 C617 1.392 . S
C618 C619 1.385 . S
C618 C620 1.478 . S
C619 H613 0.930 . S
C619 C615 1.400 1_556 S
C619 C618 1.385 . S
C620 C618 1.478 . S
C620 C622 1.381 . S
C620 C626 1.383 . S
C621 C617 1.495 . S
C621 H627 0.959 . S
C621 H628 0.961 . S
C621 H629 0.960 . S
C622 C620 1.381 . S
C622 C623 1.394 . S
C622 H630 0.930 . S
C623 C622 1.394 . S
C623 C624 1.383 . S
C623 H631 0.929 . S
C624 C623 1.383 . S
C624 C625 1.377 . S
C625 H609 0.930 . S
C625 C624 1.377 . S
C625 C626 1.379 . S
C626 H610 0.931 . S
C626 C620 1.383 . S
C626 C625 1.379 . S
H627 C621 0.959 . S
H628 C621 0.961 . S
H629 C621 0.960 . S
H630 C622 0.930 . S
H631 C623 0.929 . S
H632 C640 0.929 . S
H633 C642 0.930 . S
H634 C644 0.930 . S
H635 C647 0.929 . S
H636 C650 0.930 . S
H637 C652 0.960 . S
H638 C652 0.960 1_554 S
H639 C652 0.960 . S
C640 H632 0.929 . S
C640 C641 1.377 . S
C640 C642 1.384 . S
C641 C640 1.377 . S
C641 C647 1.390 . S
C642 H633 0.930 . S
C642 C640 1.384 . S
C642 C643 1.372 . S
C643 C642 1.372 . S
C643 C644 1.400 . S
C643 C648 1.490 . S
C644 H634 0.930 . S
C644 C643 1.400 . S
C644 C647 1.386 . S
H645 C661 0.930 . S
H646 C662 0.931 . S
C647 H635 0.929 . S
C647 C641 1.390 . S
C647 C644 1.386 . S
C648 C643 1.490 . S
C648 C650 1.395 . S
C648 C651 1.403 1_554 S
H649 C655 0.930 . S
C650 H636 0.930 . S
C650 C648 1.395 . S
C650 C653 1.403 . S
C651 C648 1.403 1_556 S
C651 C652 1.524 . S
C651 C655 1.400 . S
C652 H637 0.960 . S
C652 H638 0.960 1_556 S
C652 H639 0.960 . S
C652 C651 1.524 . S
C653 C650 1.403 . S
C653 C654 1.392 1_554 S
C653 C657 1.495 . S
C654 C653 1.392 1_556 S
C654 C655 1.385 . S
C654 C656 1.478 . S
C655 H649 0.930 . S
C655 C651 1.400 . S
C655 C654 1.385 . S
C656 C654 1.478 . S
C656 C658 1.381 . S
C656 C662 1.383 . S
C657 C653 1.495 . S
C657 H663 0.959 . S
C657 H664 0.969 . S
C657 H665 0.960 . S
C658 C656 1.381 . S
C658 C659 1.394 . S
C658 H666 0.930 . S
C659 C658 1.394 . S
C659 C660 1.383 . S
C659 H667 0.929 . S
C660 C659 1.383 . S
C660 C661 1.377 . S
C661 H645 0.930 . S
C661 C660 1.377 . S
C661 C662 1.379 . S
C662 H646 0.931 . S
C662 C656 1.383 . S
C662 C661 1.379 . S
H663 C657 0.959 . S
H664 C657 0.969 . S
H665 C657 0.960 . S
H666 C658 0.930 . S
H667 C659 0.929 . S
H668 C676 0.929 . S
H669 C678 0.930 . S
H670 C680 0.930 . S
H671 C683 0.929 . S
H672 C686 0.930 . S
H673 C688 0.960 . S
H674 C688 0.960 . S
H675 C688 0.960 . S
C676 H668 0.929 . S
C676 C677 1.377 . S
C676 C678 1.384 . S
C677 C676 1.377 . S
C677 C683 1.390 1_655 S
C678 H669 0.930 . S
C678 C676 1.384 . S
C678 C679 1.372 . S
C679 C678 1.372 . S
C679 C680 1.400 1_655 S
C679 C684 1.490 . S
C680 H670 0.930 . S
C680 C679 1.400 1_455 S
C680 C683 1.386 . S
H681 C697 0.930 . S
H682 C698 0.931 . S
C683 H671 0.929 . S
C683 C677 1.390 1_455 S
C683 C680 1.386 . S
C684 C679 1.490 . S
C684 C686 1.395 1_554 S
C684 C687 1.403 1_655 S
H685 C691 0.930 . S
C686 H672 0.930 . S
C686 C684 1.395 1_556 S
C686 C689 1.403 . S
C687 C684 1.403 1_455 S
C687 C688 1.524 . S
C687 C691 1.400 1_554 S
C688 H673 0.960 . S
C688 H674 0.960 . S
C688 H675 0.960 . S
C688 C687 1.524 . S
C689 C686 1.403 . S
C689 C690 1.392 . S
C689 C693 1.495 . S
C690 C689 1.392 . S
C690 C691 1.385 1_655 S
C690 C692 1.478 . S
C691 H685 0.930 . S
C691 C687 1.400 1_556 S
C691 C690 1.385 1_455 S
C692 C690 1.478 . S
C692 C694 1.381 . S
C692 C698 1.383 1_655 S
C693 C689 1.495 . S
C693 H699 0.959 . S
C693 H700 0.961 . S
C693 H701 0.960 . S
C694 C692 1.381 . S
C694 C695 1.394 . S
C694 H702 0.930 . S
C695 C694 1.394 . S
C695 C696 1.383 . S
C695 H703 0.929 . S
C696 C695 1.383 . S
C696 C697 1.377 1_655 S
C697 H681 0.930 . S
C697 C696 1.377 1_455 S
C697 C698 1.379 . S
C698 H682 0.931 . S
C698 C692 1.383 1_455 S
C698 C697 1.379 . S
H699 C693 0.959 . S
H700 C693 0.961 . S
H701 C693 0.960 . S
H702 C694 0.930 . S
H703 C695 0.929 . S
H704 C712 0.934 . S
H705 C714 0.930 . S
H706 C716 0.930 . S
H707 C719 0.929 . S
H708 C722 0.930 . S
H709 C724 0.960 . S
H710 C724 0.960 . S
H711 C724 0.960 . S
C712 H704 0.934 . S
C712 C713 1.386 . S
C712 C714 1.374 1_455 S
C713 C712 1.386 . S
C713 C719 1.390 . S
C714 H705 0.930 . S
C714 C712 1.374 1_655 S
C714 C715 1.372 . S
C715 C714 1.372 . S
C715 C716 1.400 . S
C715 C720 1.490 . S
C716 H706 0.930 . S
C716 C715 1.400 . S
C716 C719 1.386 1_655 S
H717 C733 0.930 . S
H718 C734 0.931 . S
C719 H707 0.929 . S
C719 C713 1.390 . S
C719 C716 1.386 1_455 S
C720 C715 1.490 . S
C720 C722 1.395 1_655 S
C720 C723 1.403 . S
H721 C727 0.930 . S
C722 H708 0.930 . S
C722 C720 1.395 1_455 S
C722 C725 1.403 . S
C723 C720 1.403 . S
C723 C724 1.524 . S
C723 C727 1.400 . S
C724 H709 0.960 . S
C724 H710 0.960 . S
C724 H711 0.960 . S
C724 C723 1.524 . S
C725 C722 1.403 . S
C725 C726 1.392 1_455 S
C725 C729 1.495 . S
C726 C725 1.392 1_655 S
C726 C727 1.385 . S
C726 C728 1.478 . S
C727 H721 0.930 . S
C727 C723 1.400 . S
C727 C726 1.385 . S
C728 C726 1.478 . S
C728 C730 1.381 . S
C728 C734 1.383 . S
C729 C725 1.495 . S
C729 H735 0.959 . S
C729 H736 0.961 . S
C729 H737 0.960 . S
C730 C728 1.381 . S
C730 C731 1.394 . S
C730 H738 0.930 . S
C731 C730 1.394 . S
C731 C732 1.383 . S
C731 H739 0.929 . S
C732 C731 1.383 . S
C732 C733 1.377 . S
C733 H717 0.930 . S
C733 C732 1.377 . S
C733 C734 1.379 . S
C734 H718 0.931 . S
C734 C728 1.383 . S
C734 C733 1.379 . S
H735 C729 0.959 . S
H736 C729 0.961 . S
H737 C729 0.960 . S
H738 C730 0.930 . S
H739 C731 0.929 . S
H740 C748 0.929 . S
H741 C750 0.930 . S
H742 C752 0.930 . S
H743 C755 0.929 . S
H744 C758 0.930 . S
H745 C760 0.960 . S
H746 C760 0.960 . S
H747 C760 0.960 1_545 S
C748 H740 0.929 . S
C748 C749 1.377 1_565 S
C748 C750 1.384 . S
C749 C748 1.377 1_545 S
C749 C755 1.390 . S
C750 H741 0.930 . S
C750 C748 1.384 . S
C750 C751 1.372 . S
C751 C750 1.372 . S
C751 C752 1.400 1_565 S
C751 C756 1.490 . S
C752 H742 0.930 . S
C752 C751 1.400 1_545 S
C752 C755 1.386 . S
H753 C769 0.930 . S
H754 C770 0.931 1_545 S
C755 H743 0.929 . S
C755 C749 1.390 . S
C755 C752 1.386 . S
C756 C751 1.490 . S
C756 C758 1.395 . S
C756 C759 1.403 . S
H757 C763 0.930 . S
C758 H744 0.930 . S
C758 C756 1.395 . S
C758 C761 1.403 . S
C759 C756 1.403 . S
C759 C760 1.524 . S
C759 C763 1.400 . S
C760 H745 0.960 . S
C760 H746 0.960 . S
C760 H747 0.960 1_565 S
C760 C759 1.524 . S
C761 C758 1.403 . S
C761 C762 1.392 . S
C761 C765 1.495 . S
C762 C761 1.392 . S
C762 C763 1.385 . S
C762 C764 1.478 . S
C763 H757 0.930 . S
C763 C759 1.400 . S
C763 C762 1.385 . S
C764 C762 1.478 . S
C764 C766 1.381 . S
C764 C770 1.383 . S
C765 C761 1.495 . S
C765 H771 0.959 . S
C765 H772 0.961 . S
C765 H773 0.960 . S
C766 C764 1.381 . S
C766 C767 1.394 . S
C766 H774 0.930 . S
C767 C766 1.394 . S
C767 C768 1.383 . S
C767 H775 0.929 . S
C768 C767 1.383 . S
C768 C769 1.377 . S
C769 H753 0.930 . S
C769 C768 1.377 . S
C769 C770 1.379 . S
C770 H754 0.931 1_565 S
C770 C764 1.383 . S
C770 C769 1.379 . S
H771 C765 0.959 . S
H772 C765 0.961 . S
H773 C765 0.960 . S
H774 C766 0.930 . S
H775 C767 0.929 . S
H776 C784 0.929 . S
H777 C786 0.930 . S
H778 C788 0.930 . S
H779 C791 0.929 . S
H780 C794 0.930 . S
H781 C796 0.960 . S
H782 C796 0.960 . S
H783 C796 0.960 . S
C784 H776 0.929 . S
C784 C785 1.377 . S
C784 C786 1.384 . S
C785 C784 1.377 . S
C785 C791 1.390 . S
C786 H777 0.930 . S
C786 C784 1.384 . S
C786 C787 1.372 . S
C787 C786 1.372 . S
C787 C788 1.400 . S
C787 C792 1.490 . S
C788 H778 0.930 . S
C788 C787 1.400 . S
C788 C791 1.386 . S
H789 C805 0.930 . S
H790 C806 0.931 . S
C791 H779 0.929 . S
C791 C785 1.390 . S
C791 C788 1.386 . S
C792 C787 1.490 . S
C792 C794 1.395 . S
C792 C795 1.403 . S
H793 C799 0.930 . S
C794 H780 0.930 . S
C794 C792 1.395 . S
C794 C797 1.403 . S
C795 C792 1.403 . S
C795 C796 1.524 . S
C795 C799 1.400 . S
C796 H781 0.960 . S
C796 H782 0.960 . S
C796 H783 0.960 . S
C796 C795 1.524 . S
C797 C794 1.403 . S
C797 C798 1.392 . S
C797 C801 1.495 . S
C798 C797 1.392 . S
C798 C799 1.385 . S
C798 C800 1.478 . S
C799 H793 0.930 . S
C799 C795 1.400 . S
C799 C798 1.385 . S
C800 C798 1.478 . S
C800 C802 1.381 . S
C800 C806 1.383 . S
C801 C797 1.495 . S
C801 H807 0.959 . S
C801 H808 0.961 . S
C801 H809 0.960 . S
C802 C800 1.381 . S
C802 C803 1.394 . S
C802 H810 0.930 . S
C803 C802 1.394 . S
C803 C804 1.383 . S
C803 H811 0.929 . S
C804 C803 1.383 . S
C804 C805 1.377 . S
C805 H789 0.930 . S
C805 C804 1.377 . S
C805 C806 1.379 . S
C806 H790 0.931 . S
C806 C800 1.383 . S
C806 C805 1.379 . S
H807 C801 0.959 . S
H808 C801 0.961 . S
H809 C801 0.960 . S
H810 C802 0.930 . S
H811 C803 0.929 . S
H812 C820 0.929 . S
H813 C822 0.930 . S
H814 C824 0.930 . S
H815 C827 0.929 . S
H816 C830 0.930 . S
H817 C832 0.960 . S
H818 C832 0.960 . S
H819 C832 0.960 . S
C820 H812 0.929 . S
C820 C821 1.377 . S
C820 C822 1.384 . S
C821 C820 1.377 . S
C821 C827 1.390 . S
C822 H813 0.930 . S
C822 C820 1.384 . S
C822 C823 1.372 . S
C823 C822 1.372 . S
C823 C824 1.400 . S
C823 C828 1.490 . S
C824 H814 0.930 . S
C824 C823 1.400 . S
C824 C827 1.386 . S
H825 C841 0.930 . S
H826 C842 0.931 . S
C827 H815 0.929 . S
C827 C821 1.390 . S
C827 C824 1.386 . S
C828 C823 1.490 . S
C828 C830 1.395 . S
C828 C831 1.403 . S
H829 C835 0.930 . S
C830 H816 0.930 . S
C830 C828 1.395 . S
C830 C833 1.403 . S
C831 C828 1.403 . S
C831 C832 1.524 . S
C831 C835 1.400 . S
C832 H817 0.960 . S
C832 H818 0.960 . S
C832 H819 0.960 . S
C832 C831 1.524 . S
C833 C830 1.403 . S
C833 C834 1.392 . S
C833 C837 1.495 . S
C834 C833 1.392 . S
C834 C835 1.385 . S
C834 C836 1.478 . S
C835 H829 0.930 . S
C835 C831 1.400 . S
C835 C834 1.385 . S
C836 C834 1.478 . S
C836 C838 1.381 . S
C836 C842 1.383 . S
C837 C833 1.495 . S
C837 H843 0.959 . S
C837 H844 0.961 . S
C837 H845 0.960 . S
C838 C836 1.381 . S
C838 C839 1.394 . S
C838 H846 0.930 . S
C839 C838 1.394 . S
C839 C840 1.383 . S
C839 H847 0.929 . S
C840 C839 1.383 . S
C840 C841 1.377 . S
C841 H825 0.930 . S
C841 C840 1.377 . S
C841 C842 1.379 . S
C842 H826 0.931 . S
C842 C836 1.383 . S
C842 C841 1.379 . S
H843 C837 0.959 . S
H844 C837 0.961 . S
H845 C837 0.960 . S
H846 C838 0.930 . S
H847 C839 0.929 . S
H848 C856 0.929 . S
H849 C858 0.930 . S
H850 C860 0.930 . S
H851 C863 0.929 . S
H852 C866 0.930 . S
H853 C868 0.960 . S
H854 C868 0.960 . S
H855 C868 0.960 . S
C856 H848 0.929 . S
C856 C857 1.377 1_455 S
C856 C858 1.384 . S
C857 C856 1.377 1_655 S
C857 C863 1.390 . S
C858 H849 0.930 . S
C858 C856 1.384 . S
C858 C859 1.372 . S
C859 C858 1.372 . S
C859 C860 1.400 1_455 S
C859 C864 1.490 . S
C860 H850 0.930 . S
C860 C859 1.400 1_655 S
C860 C863 1.386 . S
H861 C877 0.930 . S
H862 C878 0.931 1_554 S
C863 H851 0.929 . S
C863 C857 1.390 . S
C863 C860 1.386 . S
C864 C859 1.490 . S
C864 C866 1.395 1_454 S
C864 C867 1.403 . S
H865 C871 0.930 . S
C866 H852 0.930 . S
C866 C864 1.395 1_656 S
C866 C869 1.397 1_655 S
C867 C864 1.403 . S
C867 C868 1.524 . S
C867 C871 1.400 . S
C868 H853 0.960 . S
C868 H854 0.960 . S
C868 H855 0.960 . S
C868 C867 1.524 . S
C869 C866 1.397 1_455 S
C869 C870 1.433 . S
C869 C873 1.463 1_455 S
C870 C869 1.433 . S
C870 C871 1.385 1_556 S
C870 C872 1.478 . S
C871 H865 0.930 . S
C871 C867 1.400 . S
C871 C870 1.385 1_554 S
C872 C870 1.478 . S
C872 C874 1.381 . S
C872 C878 1.383 . S
C873 C869 1.463 1_655 S
C873 H879 0.959 . S
C873 H880 0.961 . S
C873 H881 0.960 . S
C874 C872 1.381 . S
C874 C875 1.394 . S
C874 H882 0.930 . S
C875 C874 1.394 . S
C875 C876 1.383 . S
C875 H883 0.929 . S
C876 C875 1.383 . S
C876 C877 1.377 . S
C877 H861 0.930 . S
C877 C876 1.377 . S
C877 C878 1.379 . S
C878 H862 0.931 1_556 S
C878 C872 1.383 . S
C878 C877 1.379 . S
H879 C873 0.959 . S
H880 C873 0.961 . S
H881 C873 0.960 . S
H882 C874 0.930 . S
H883 C875 0.929 . S
H884 C892 0.929 . S
H885 C894 0.930 . S
H886 C896 0.930 . S
H887 C899 0.929 . S
H888 C902 0.930 1_556 S
H889 C904 0.960 . S
H890 C904 0.960 . S
H891 C904 0.960 . S
C892 H884 0.929 . S
C892 C893 1.377 1_545 S
C892 C894 1.384 . S
C893 C892 1.377 1_565 S
C893 C899 1.390 . S
C894 H885 0.930 . S
C894 C892 1.384 . S
C894 C895 1.372 . S
C895 C894 1.372 . S
C895 C896 1.400 1_545 S
C895 C900 1.490 . S
C896 H886 0.930 . S
C896 C895 1.400 1_565 S
C896 C899 1.386 . S
H897 C913 0.930 . S
H898 C914 0.931 1_565 S
C899 H887 0.929 . S
C899 C893 1.390 . S
C899 C896 1.386 . S
C900 C895 1.490 . S
C900 C902 1.395 . S
C900 C903 1.403 . S
H901 C907 0.930 . S
C902 H888 0.930 1_554 S
C902 C900 1.395 . S
C902 C905 1.403 1_554 S
C903 C900 1.403 . S
C903 C904 1.524 1_545 S
C903 C907 1.400 . S
C904 H889 0.960 . S
C904 H890 0.960 . S
C904 H891 0.960 . S
C904 C903 1.524 1_565 S
C905 C902 1.403 1_556 S
C905 C906 1.392 . S
C905 C909 1.495 . S
C906 C905 1.392 . S
C906 C907 1.385 1_556 S
C906 C908 1.478 . S
C907 H901 0.930 . S
C907 C903 1.400 . S
C907 C906 1.385 1_554 S
C908 C906 1.478 . S
C908 C910 1.381 . S
C908 C914 1.383 . S
C909 C905 1.495 . S
C909 H915 0.959 . S
C909 H916 0.961 . S
C909 H917 0.960 . S
C910 C908 1.381 . S
C910 C911 1.394 . S
C910 H918 0.930 . S
C911 C910 1.394 . S
C911 C912 1.383 . S
C911 H919 0.929 . S
C912 C911 1.383 . S
C912 C913 1.377 . S
C913 H897 0.930 . S
C913 C912 1.377 . S
C913 C914 1.379 . S
C914 H898 0.931 1_545 S
C914 C908 1.383 . S
C914 C913 1.379 . S
H915 C909 0.959 . S
H916 C909 0.961 . S
H917 C909 0.960 . S
H918 C910 0.930 . S
H919 C911 0.929 . S
H920 C928 0.929 . S
H921 C930 0.930 . S
H922 C932 0.930 . S
H923 C935 0.929 . S
H924 C938 0.930 . S
H925 C940 0.960 . S
H926 C940 0.960 . S
H927 C940 0.960 . S
C928 H920 0.929 . S
C928 C929 1.377 . S
C928 C930 1.384 . S
C929 C928 1.377 . S
C929 C935 1.390 . S
C930 H921 0.930 . S
C930 C928 1.384 . S
C930 C931 1.372 . S
C931 C930 1.372 . S
C931 C932 1.400 . S
C931 C936 1.490 . S
C932 H922 0.930 . S
C932 C931 1.400 . S
C932 C935 1.386 . S
H933 C949 0.930 . S
H934 C950 0.931 . S
C935 H923 0.929 . S
C935 C929 1.390 . S
C935 C932 1.386 . S
C936 C931 1.490 . S
C936 C938 1.395 . S
C936 C939 1.403 1_554 S
H937 C943 0.930 . S
C938 H924 0.930 . S
C938 C936 1.395 . S
C938 C941 1.403 . S
C939 C936 1.403 1_556 S
C939 C940 1.524 . S
C939 C943 1.400 . S
C940 H925 0.960 . S
C940 H926 0.960 . S
C940 H927 0.960 . S
C940 C939 1.524 . S
C941 C938 1.403 . S
C941 C942 1.392 1_554 S
C941 C945 1.495 . S
C942 C941 1.392 1_556 S
C942 C943 1.385 . S
C942 C944 1.478 . S
C943 H937 0.930 . S
C943 C939 1.400 . S
C943 C942 1.385 . S
C944 C942 1.478 . S
C944 C946 1.381 . S
C944 C950 1.383 . S
C945 C941 1.495 . S
C945 H951 0.959 . S
C945 H952 0.961 . S
C945 H953 0.960 . S
C946 C944 1.381 . S
C946 C947 1.394 . S
C946 H954 0.930 . S
C947 C946 1.394 . S
C947 C948 1.383 . S
C947 H955 0.929 . S
C948 C947 1.383 . S
C948 C949 1.377 . S
C949 H933 0.930 . S
C949 C948 1.377 . S
C949 C950 1.379 . S
C950 H934 0.931 . S
C950 C944 1.383 . S
C950 C949 1.379 . S
H951 C945 0.959 . S
H952 C945 0.961 . S
H953 C945 0.960 . S
H954 C946 0.930 . S
H955 C947 0.929 . S
H956 C964 0.929 . S
H957 C966 0.930 . S
H958 C968 0.930 . S
H959 C971 0.929 . S
H960 C974 0.930 . S
H961 C976 0.960 . S
H962 C976 0.960 . S
H963 C976 0.960 . S
C964 H956 0.929 . S
C964 C965 1.377 . S
C964 C966 1.384 . S
C965 C964 1.377 . S
C965 C971 1.390 . S
C966 H957 0.930 . S
C966 C964 1.384 . S
C966 C967 1.372 . S
C967 C966 1.372 . S
C967 C968 1.400 . S
C967 C972 1.490 . S
C968 H958 0.930 . S
C968 C967 1.400 . S
C968 C971 1.386 . S
H969 C985 0.930 . S
H970 C986 0.931 . S
C971 H959 0.929 . S
C971 C965 1.390 . S
C971 C968 1.386 . S
C972 C967 1.490 . S
C972 C974 1.395 1_554 S
C972 C975 1.403 . S
H973 C979 0.930 . S
C974 H960 0.930 . S
C974 C972 1.395 1_556 S
C974 C977 1.403 . S
C975 C972 1.403 . S
C975 C976 1.524 . S
C975 C979 1.400 . S
C976 H961 0.960 . S
C976 H962 0.960 . S
C976 H963 0.960 . S
C976 C975 1.524 . S
C977 C974 1.403 . S
C977 C978 1.392 . S
C977 C981 1.495 . S
C978 C977 1.392 . S
C978 C979 1.385 1_556 S
C978 C980 1.478 . S
C979 H973 0.930 . S
C979 C975 1.400 . S
C979 C978 1.385 1_554 S
C980 C978 1.478 . S
C980 C982 1.381 . S
C980 C986 1.383 . S
C981 C977 1.495 . S
C981 H987 0.959 . S
C981 H988 0.961 . S
C981 H989 0.960 . S
C982 C980 1.381 . S
C982 C983 1.394 . S
C982 H990 0.930 . S
C983 C982 1.394 . S
C983 C984 1.383 . S
C983 H991 0.929 . S
C984 C983 1.383 . S
C984 C985 1.377 . S
C985 H969 0.930 . S
C985 C984 1.377 . S
C985 C986 1.379 . S
C986 H970 0.931 . S
C986 C980 1.383 . S
C986 C985 1.379 . S
H987 C981 0.959 . S
H988 C981 0.961 . S
H989 C981 0.960 . S
H990 C982 0.930 . S
H991 C983 0.929 . S
H992 C1000 0.929 . S
H993 C1002 0.942 . S
H994 C1004 0.930 . S
H995 C1007 0.929 . S
H996 C1010 0.930 . S
H997 C1012 0.960 . S
H998 C1012 0.960 . S
H999 C1012 0.960 . S
C1000 H992 0.929 . S
C1000 C1001 1.377 1_655 S
C1000 C1002 1.387 . S
C1001 C1000 1.377 1_455 S
C1001 C1007 1.390 . S
C1002 H993 0.942 . S
C1002 C1000 1.387 . S
C1002 C1003 1.360 1_655 S
C1003 C1002 1.360 1_455 S
C1003 C1004 1.400 . S
C1003 C1008 1.490 . S
C1004 H994 0.930 . S
C1004 C1003 1.400 . S
C1004 C1007 1.386 . S
H1005 C1021 0.930 . S
H1006 C1022 0.931 . S
C1007 H995 0.929 . S
C1007 C1001 1.390 . S
C1007 C1004 1.386 . S
C1008 C1003 1.490 . S
C1008 C1010 1.395 . S
C1008 C1011 1.403 1_455 S
H1009 C1015 0.930 . S
C1010 H996 0.930 . S
C1010 C1008 1.395 . S
C1010 C1013 1.403 . S
C1011 C1008 1.403 1_655 S
C1011 C1012 1.524 . S
C1011 C1015 1.400 . S
C1012 H997 0.960 . S
C1012 H998 0.960 . S
C1012 H999 0.960 . S
C1012 C1011 1.524 . S
C1013 C1010 1.403 . S
C1013 C1014 1.392 . S
C1013 C1017 1.495 . S
C1014 C1013 1.392 . S
C1014 C1015 1.385 1_455 S
C1014 C1016 1.478 . S
C1015 H1009 0.930 . S
C1015 C1011 1.400 . S
C1015 C1014 1.385 1_655 S
C1016 C1014 1.478 . S
C1016 C1018 1.381 . S
C1016 C1022 1.383 . S
C1017 C1013 1.495 . S
C1017 H1023 0.959 . S
C1017 H1024 0.961 . S
C1017 H1025 0.960 . S
C1018 C1016 1.381 . S
C1018 C1019 1.394 . S
C1018 H1026 0.930 . S
C1019 C1018 1.394 . S
C1019 C1020 1.383 . S
C1019 H1027 0.923 1_455 S
C1020 C1019 1.383 . S
C1020 C1021 1.377 . S
C1021 H1005 0.930 . S
C1021 C1020 1.377 . S
C1021 C1022 1.379 . S
C1022 H1006 0.931 . S
C1022 C1016 1.383 . S
C1022 C1021 1.379 . S
H1023 C1017 0.959 . S
H1024 C1017 0.961 . S
H1025 C1017 0.960 . S
H1026 C1018 0.930 . S
H1027 C1019 0.923 1_655 S
H1028 C1036 0.929 . S
H1029 C1038 0.930 . S
H1030 C1040 0.930 . S
H1031 C1043 0.929 . S
H1032 C1046 0.930 . S
H1033 C1048 0.960 . S
H1034 C1048 0.960 . S
H1035 C1048 0.934 1_545 S
C1036 H1028 0.929 . S
C1036 C1037 1.343 1_565 S
C1036 C1038 1.384 . S
C1037 C1036 1.343 1_545 S
C1037 C1043 1.428 . S
C1038 H1029 0.930 . S
C1038 C1036 1.384 . S
C1038 C1039 1.372 1_565 S
C1039 C1038 1.372 1_545 S
C1039 C1040 1.400 . S
C1039 C1044 1.490 . S
C1040 H1030 0.930 . S
C1040 C1039 1.400 . S
C1040 C1043 1.386 . S
H1041 C1057 0.930 . S
H1042 C1058 0.931 . S
C1043 H1031 0.929 . S
C1043 C1037 1.428 . S
C1043 C1040 1.386 . S
C1044 C1039 1.490 . S
C1044 C1046 1.395 . S
C1044 C1047 1.403 1_545 S
H1045 C1051 0.921 1_565 S
C1046 H1032 0.930 . S
C1046 C1044 1.395 . S
C1046 C1049 1.403 . S
C1047 C1044 1.403 1_565 S
C1047 C1048 1.524 . S
C1047 C1051 1.396 1_565 S
C1048 H1033 0.960 . S
C1048 H1034 0.960 . S
C1048 H1035 0.934 1_565 S
C1048 C1047 1.524 . S
C1049 C1046 1.403 . S
C1049 C1050 1.392 . S
C1049 C1053 1.495 . S
C1050 C1049 1.392 . S
C1050 C1051 1.401 . S
C1050 C1052 1.478 . S
C1051 H1045 0.921 1_545 S
C1051 C1047 1.396 1_545 S
C1051 C1050 1.401 . S
C1052 C1050 1.478 . S
C1052 C1054 1.381 1_545 S
C1052 C1058 1.383 . S
C1053 C1049 1.495 . S
C1053 H1059 0.959 . S
C1053 H1060 0.961 . S
C1053 H1061 0.960 . S
C1054 C1052 1.381 1_565 S
C1054 C1055 1.394 . S
C1054 H1062 0.930 . S
C1055 C1054 1.394 . S
C1055 C1056 1.383 1_565 S
C1055 H1063 0.929 . S
C1056 C1055 1.383 1_545 S
C1056 C1057 1.377 . S
C1057 H1041 0.930 . S
C1057 C1056 1.377 . S
C1057 C1058 1.379 . S
C1058 H1042 0.931 . S
C1058 C1052 1.383 . S
C1058 C1057 1.379 . S
H1059 C1053 0.959 . S
H1060 C1053 0.961 . S
H1061 C1053 0.960 . S
H1062 C1054 0.930 . S
H1063 C1055 0.929 . S
H1064 C1072 0.929 . S
H1065 C1074 0.930 . S
H1066 C1076 0.930 . S
H1067 C1079 0.929 . S
H1068 C1082 0.930 . S
H1069 C1084 0.960 . S
H1070 C1084 0.960 . S
H1071 C1084 0.960 . S
C1072 H1064 0.929 . S
C1072 C1073 1.377 . S
C1072 C1074 1.384 . S
C1073 C1072 1.377 . S
C1073 C1079 1.390 . S
C1074 H1065 0.930 . S
C1074 C1072 1.384 . S
C1074 C1075 1.372 . S
C1075 C1074 1.372 . S
C1075 C1076 1.400 . S
C1075 C1080 1.490 . S
C1076 H1066 0.930 . S
C1076 C1075 1.400 . S
C1076 C1079 1.386 . S
H1077 C1093 0.930 . S
H1078 C1094 0.931 . S
C1079 H1067 0.929 . S
C1079 C1073 1.390 . S
C1079 C1076 1.386 . S
C1080 C1075 1.490 . S
C1080 C1082 1.395 . S
C1080 C1083 1.403 . S
H1081 C1087 0.930 . S
C1082 H1068 0.930 . S
C1082 C1080 1.395 . S
C1082 C1085 1.403 . S
C1083 C1080 1.403 . S
C1083 C1084 1.524 . S
C1083 C1087 1.400 . S
C1084 H1069 0.960 . S
C1084 H1070 0.960 . S
C1084 H1071 0.960 . S
C1084 C1083 1.524 . S
C1085 C1082 1.403 . S
C1085 C1086 1.392 . S
C1085 C1089 1.495 . S
C1086 C1085 1.392 . S
C1086 C1087 1.385 . S
C1086 C1088 1.478 . S
C1087 H1081 0.930 . S
C1087 C1083 1.400 . S
C1087 C1086 1.385 . S
C1088 C1086 1.478 . S
C1088 C1090 1.381 . S
C1088 C1094 1.383 . S
C1089 C1085 1.495 . S
C1089 H1095 0.959 . S
C1089 H1096 0.961 . S
C1089 H1097 0.960 . S
C1090 C1088 1.381 . S
C1090 C1091 1.394 . S
C1090 H1098 0.930 . S
C1091 C1090 1.394 . S
C1091 C1092 1.383 . S
C1091 H1099 0.929 . S
C1092 C1091 1.383 . S
C1092 C1093 1.377 . S
C1093 H1077 0.930 . S
C1093 C1092 1.377 . S
C1093 C1094 1.379 . S
C1094 H1078 0.931 . S
C1094 C1088 1.383 . S
C1094 C1093 1.379 . S
H1095 C1089 0.959 . S
H1096 C1089 0.961 . S
H1097 C1089 0.960 . S
H1098 C1090 0.930 . S
H1099 C1091 0.929 . S
H1100 C1108 0.929 . S
H1101 C1110 0.930 . S
H1102 C1112 0.930 . S
H1103 C1115 0.929 . S
H1104 C1118 0.930 . S
H1105 C1120 0.960 . S
H1106 C1120 0.960 . S
H1107 C1120 0.960 . S
C1108 H1100 0.929 . S
C1108 C1109 1.377 . S
C1108 C1110 1.384 . S
C1109 C1108 1.377 . S
C1109 C1115 1.390 . S
C1110 H1101 0.930 . S
C1110 C1108 1.384 . S
C1110 C1111 1.372 . S
C1111 C1110 1.372 . S
C1111 C1112 1.400 . S
C1111 C1116 1.490 . S
C1112 H1102 0.930 . S
C1112 C1111 1.400 . S
C1112 C1115 1.386 . S
H1113 C1129 0.930 . S
H1114 C1130 0.931 . S
C1115 H1103 0.929 . S
C1115 C1109 1.390 . S
C1115 C1112 1.386 . S
C1116 C1111 1.490 . S
C1116 C1118 1.395 . S
C1116 C1119 1.403 . S
H1117 C1123 0.930 . S
C1118 H1104 0.930 . S
C1118 C1116 1.395 . S
C1118 C1121 1.403 . S
C1119 C1116 1.403 . S
C1119 C1120 1.524 . S
C1119 C1123 1.400 . S
C1120 H1105 0.960 . S
C1120 H1106 0.960 . S
C1120 H1107 0.960 . S
C1120 C1119 1.524 . S
C1121 C1118 1.403 . S
C1121 C1122 1.392 . S
C1121 C1125 1.495 . S
C1122 C1121 1.392 . S
C1122 C1123 1.385 . S
C1122 C1124 1.478 . S
C1123 H1117 0.930 . S
C1123 C1119 1.400 . S
C1123 C1122 1.385 . S
C1124 C1122 1.478 . S
C1124 C1126 1.381 . S
C1124 C1130 1.383 . S
C1125 C1121 1.495 . S
C1125 H1131 0.959 . S
C1125 H1132 0.961 . S
C1125 H1133 0.960 . S
C1126 C1124 1.381 . S
C1126 C1127 1.394 . S
C1126 H1134 0.930 . S
C1127 C1126 1.394 . S
C1127 C1128 1.383 . S
C1127 H1135 0.929 . S
C1128 C1127 1.383 . S
C1128 C1129 1.377 . S
C1129 H1113 0.930 . S
C1129 C1128 1.377 . S
C1129 C1130 1.379 . S
C1130 H1114 0.931 . S
C1130 C1124 1.383 . S
C1130 C1129 1.379 . S
H1131 C1125 0.959 . S
H1132 C1125 0.961 . S
H1133 C1125 0.960 . S
H1134 C1126 0.930 . S
H1135 C1127 0.929 . S
H1136 C1144 0.929 . S
H1137 C1146 0.930 . S
H1138 C1148 0.930 . S
H1139 C1151 0.929 . S
H1140 C1154 0.930 . S
H1141 C1156 0.960 . S
H1142 C1156 0.960 1_455 S
H1143 C1156 0.960 . S
C1144 H1136 0.929 . S
C1144 C1145 1.377 1_455 S
C1144 C1146 1.384 . S
C1145 C1144 1.377 1_655 S
C1145 C1151 1.390 . S
C1146 H1137 0.930 . S
C1146 C1144 1.384 . S
C1146 C1147 1.372 1_455 S
C1147 C1146 1.372 1_655 S
C1147 C1148 1.400 . S
C1147 C1152 1.490 . S
C1148 H1138 0.930 . S
C1148 C1147 1.400 . S
C1148 C1151 1.386 . S
H1149 C1165 0.930 . S
H1150 C1166 0.931 . S
C1151 H1139 0.929 . S
C1151 C1145 1.390 . S
C1151 C1148 1.386 . S
C1152 C1147 1.490 . S
C1152 C1154 1.395 . S
C1152 C1155 1.403 . S
H1153 C1159 0.930 . S
C1154 H1140 0.930 . S
C1154 C1152 1.395 . S
C1154 C1157 1.403 . S
C1155 C1152 1.403 . S
C1155 C1156 1.524 . S
C1155 C1159 1.400 . S
C1156 H1141 0.960 . S
C1156 H1142 0.960 1_655 S
C1156 H1143 0.960 . S
C1156 C1155 1.524 . S
C1157 C1154 1.403 . S
C1157 C1158 1.392 . S
C1157 C1161 1.495 . S
C1158 C1157 1.392 . S
C1158 C1159 1.385 . S
C1158 C1160 1.478 . S
C1159 H1153 0.930 . S
C1159 C1155 1.400 . S
C1159 C1158 1.385 . S
C1160 C1158 1.478 . S
C1160 C1162 1.381 1_655 S
C1160 C1166 1.383 . S
C1161 C1157 1.495 . S
C1161 H1167 0.959 . S
C1161 H1168 0.961 . S
C1161 H1169 0.960 1_655 S
C1162 C1160 1.381 1_455 S
C1162 C1163 1.394 . S
C1162 H1170 0.930 . S
C1163 C1162 1.394 . S
C1163 C1164 1.383 1_455 S
C1163 H1171 0.929 . S
C1164 C1163 1.383 1_655 S
C1164 C1165 1.377 . S
C1165 H1149 0.930 . S
C1165 C1164 1.377 . S
C1165 C1166 1.379 . S
C1166 H1150 0.931 . S
C1166 C1160 1.383 . S
C1166 C1165 1.379 . S
H1167 C1161 0.959 . S
H1168 C1161 0.961 . S
H1169 C1161 0.960 1_455 S
H1170 C1162 0.930 . S
H1171 C1163 0.929 . S
H1172 C1180 0.929 . S
H1173 C1182 0.930 . S
H1174 C1184 0.933 . S
H1175 C1187 0.928 1_545 S
H1176 C1190 0.930 . S
H1177 C1192 0.960 . S
H1178 C1192 0.960 . S
H1179 C1192 0.960 . S
C1180 H1172 0.929 . S
C1180 C1181 1.381 . S
C1180 C1182 1.384 . S
C1181 C1180 1.381 . S
C1181 C1187 1.390 . S
C1182 H1173 0.930 . S
C1182 C1180 1.384 . S
C1182 C1183 1.372 . S
C1183 C1182 1.372 . S
C1183 C1184 1.400 . S
C1183 C1188 1.490 . S
C1184 H1174 0.933 . S
C1184 C1183 1.400 . S
C1184 C1187 1.387 . S
H1185 C1201 0.930 . S
H1186 C1202 0.931 . S
C1187 H1175 0.928 1_565 S
C1187 C1181 1.390 . S
C1187 C1184 1.387 . S
C1188 C1183 1.490 . S
C1188 C1190 1.395 . S
C1188 C1191 1.403 1_565 S
H1189 C1195 0.930 . S
C1190 H1176 0.930 . S
C1190 C1188 1.395 . S
C1190 C1193 1.403 . S
C1191 C1188 1.403 1_545 S
C1191 C1192 1.524 . S
C1191 C1195 1.400 . S
C1192 H1177 0.960 . S
C1192 H1178 0.960 . S
C1192 H1179 0.960 . S
C1192 C1191 1.524 . S
C1193 C1190 1.403 . S
C1193 C1194 1.392 . S
C1193 C1197 1.495 . S
C1194 C1193 1.392 . S
C1194 C1195 1.385 1_565 S
C1194 C1196 1.478 . S
C1195 H1189 0.930 . S
C1195 C1191 1.400 . S
C1195 C1194 1.385 1_545 S
C1196 C1194 1.478 . S
C1196 C1198 1.381 . S
C1196 C1202 1.383 . S
C1197 C1193 1.495 . S
C1197 H1203 0.959 . S
C1197 H1204 0.961 . S
C1197 H1205 0.960 . S
C1198 C1196 1.381 . S
C1198 C1199 1.394 . S
C1198 H1206 0.930 . S
C1199 C1198 1.394 . S
C1199 C1200 1.383 . S
C1199 H1207 0.929 . S
C1200 C1199 1.383 . S
C1200 C1201 1.377 . S
C1201 H1185 0.930 . S
C1201 C1200 1.377 . S
C1201 C1202 1.379 . S
C1202 H1186 0.931 . S
C1202 C1196 1.383 . S
C1202 C1201 1.379 . S
H1203 C1197 0.959 . S
H1204 C1197 0.961 . S
H1205 C1197 0.960 . S
H1206 C1198 0.930 . S
H1207 C1199 0.929 . S
H1208 C1216 0.929 . S
H1209 C1218 0.930 . S
H1210 C1220 0.930 . S
H1211 C1223 0.929 . S
H1212 C1226 0.930 . S
H1213 C1228 0.960 . S
H1214 C1228 0.960 . S
H1215 C1228 0.960 . S
C1216 H1208 0.929 . S
C1216 C1217 1.377 . S
C1216 C1218 1.384 . S
C1217 C1216 1.377 . S
C1217 C1223 1.390 . S
C1218 H1209 0.930 . S
C1218 C1216 1.384 . S
C1218 C1219 1.372 . S
C1219 C1218 1.372 . S
C1219 C1220 1.400 . S
C1219 C1224 1.490 . S
C1220 H1210 0.930 . S
C1220 C1219 1.400 . S
C1220 C1223 1.386 . S
H1221 C1237 0.930 . S
H1222 C1238 0.931 . S
C1223 H1211 0.929 . S
C1223 C1217 1.390 . S
C1223 C1220 1.386 . S
C1224 C1219 1.490 . S
C1224 C1226 1.395 . S
C1224 C1227 1.403 . S
H1225 C1231 0.930 . S
C1226 H1212 0.930 . S
C1226 C1224 1.395 . S
C1226 C1229 1.403 . S
C1227 C1224 1.403 . S
C1227 C1228 1.524 . S
C1227 C1231 1.400 . S
C1228 H1213 0.960 . S
C1228 H1214 0.960 . S
C1228 H1215 0.960 . S
C1228 C1227 1.524 . S
C1229 C1226 1.403 . S
C1229 C1230 1.392 . S
C1229 C1233 1.495 . S
C1230 C1229 1.392 . S
C1230 C1231 1.385 . S
C1230 C1232 1.478 . S
C1231 H1225 0.930 . S
C1231 C1227 1.400 . S
C1231 C1230 1.385 . S
C1232 C1230 1.478 . S
C1232 C1234 1.381 . S
C1232 C1238 1.383 . S
C1233 C1229 1.495 . S
C1233 H1239 0.959 . S
C1233 H1240 0.961 . S
C1233 H1241 0.960 . S
C1234 C1232 1.381 . S
C1234 C1235 1.394 . S
C1234 H1242 0.930 . S
C1235 C1234 1.394 . S
C1235 C1236 1.383 . S
C1235 H1243 0.929 . S
C1236 C1235 1.383 . S
C1236 C1237 1.377 . S
C1237 H1221 0.930 . S
C1237 C1236 1.377 . S
C1237 C1238 1.379 . S
C1238 H1222 0.931 . S
C1238 C1232 1.383 . S
C1238 C1237 1.379 . S
H1239 C1233 0.959 . S
H1240 C1233 0.961 . S
H1241 C1233 0.960 . S
H1242 C1234 0.930 . S
H1243 C1235 0.929 . S
H1244 C1252 0.929 . S
H1245 C1254 0.930 . S
H1246 C1256 0.930 . S
H1247 C1259 0.929 . S
H1248 C1262 0.930 . S
H1249 C1264 0.960 . S
H1250 C1264 0.960 . S
H1251 C1264 0.960 . S
C1252 H1244 0.929 . S
C1252 C1253 1.377 . S
C1252 C1254 1.384 . S
C1253 C1252 1.377 . S
C1253 C1259 1.390 . S
C1254 H1245 0.930 . S
C1254 C1252 1.384 . S
C1254 C1255 1.372 . S
C1255 C1254 1.372 . S
C1255 C1256 1.400 . S
C1255 C1260 1.490 . S
C1256 H1246 0.930 . S
C1256 C1255 1.400 . S
C1256 C1259 1.386 . S
H1257 C1273 0.930 . S
H1258 C1274 0.931 . S
C1259 H1247 0.929 . S
C1259 C1253 1.390 . S
C1259 C1256 1.386 . S
C1260 C1255 1.490 . S
C1260 C1262 1.395 . S
C1260 C1263 1.403 . S
H1261 C1267 0.930 . S
C1262 H1248 0.930 . S
C1262 C1260 1.395 . S
C1262 C1265 1.403 . S
C1263 C1260 1.403 . S
C1263 C1264 1.524 . S
C1263 C1267 1.400 . S
C1264 H1249 0.960 . S
C1264 H1250 0.960 . S
C1264 H1251 0.960 . S
C1264 C1263 1.524 . S
C1265 C1262 1.403 . S
C1265 C1266 1.392 . S
C1265 C1269 1.495 . S
C1266 C1265 1.392 . S
C1266 C1267 1.385 . S
C1266 C1268 1.478 . S
C1267 H1261 0.930 . S
C1267 C1263 1.400 . S
C1267 C1266 1.385 . S
C1268 C1266 1.478 . S
C1268 C1270 1.381 . S
C1268 C1274 1.383 . S
C1269 C1265 1.495 . S
C1269 H1275 0.959 . S
C1269 H1276 0.961 . S
C1269 H1277 0.960 . S
C1270 C1268 1.381 . S
C1270 C1271 1.394 . S
C1270 H1278 0.930 . S
C1271 C1270 1.394 . S
C1271 C1272 1.383 . S
C1271 H1279 0.929 . S
C1272 C1271 1.383 . S
C1272 C1273 1.377 . S
C1273 H1257 0.930 . S
C1273 C1272 1.377 . S
C1273 C1274 1.379 . S
C1274 H1258 0.931 . S
C1274 C1268 1.383 . S
C1274 C1273 1.379 . S
H1275 C1269 0.959 . S
H1276 C1269 0.961 . S
H1277 C1269 0.960 . S
H1278 C1270 0.930 . S
H1279 C1271 0.929 . S
C425 C215 1.789 . S
C444 C265 1.888 1_545 S
C480 C305 1.898 . S
C461 C247 1.780 . S
C516 C345 1.895 . S
C497 C151 1.791 . S
C552 C385 1.886 1_455 S
C533 C183 1.796 . S
C588 C274 1.883 . S
C569 C87 1.785 1_565 S
C605 C119 1.796 . S
C624 C314 1.898 . S
C641 C23 1.789 . S
C660 C354 1.897 . S
C677 C55 1.797 1_655 S
C696 C394 1.889 1_655 S
C732 C271 0.190 . S
C713 C189 0.241 . S
C768 C311 0.280 . S
C749 C221 0.257 . S
C804 C351 0.185 . S
C785 C253 0.234 . S
C821 C157 0.257 . S
C840 C391 0.309 . S
C857 C61 0.428 1_655 S
C876 C262 0.231 . S
C912 C302 0.347 . S
C893 C93 0.412 1_565 S
C948 C342 0.273 . S
C929 C125 0.464 . S
C965 C29 0.418 . S
C984 C382 0.298 . S
C1001 C177 2.233 . S
C1020 C275 2.463 . S
C1037 C209 2.236 . S
C1056 C315 2.467 . S
C1092 C355 2.455 . S
C1073 C241 2.225 . S
C1128 C395 2.468 . S
C1109 C145 2.230 . S
C1145 C49 2.245 1_655 S
C1164 C266 2.469 . S
C1200 C306 2.471 . S
C1181 C81 2.232 1_565 S
C1236 C346 2.471 . S
C1217 C113 2.238 . S
C1253 C17 2.249 . S
C1272 C386 2.455 . S
