# Generated by pormake.
# Topology apo, (3,6)-cn, num edge types: 1
# Building blocks:
#     Node 0, Type 0, BuildingBlock: ESEHIV_clean_linker_0, # of connection points: 3
#     Node 1, Type 0, BuildingBlock: ESEHIV_clean_linker_0, # of connection points: 3
#     Node 2, Type 0, BuildingBlock: ESEHIV_clean_linker_0, # of connection points: 3
#     Node 3, Type 0, BuildingBlock: ESEHIV_clean_linker_0, # of connection points: 3
#     Node 4, Type 0, BuildingBlock: ESEHIV_clean_linker_0, # of connection points: 3
#     Node 5, Type 0, BuildingBlock: ESEHIV_clean_linker_0, # of connection points: 3
#     Node 6, Type 0, BuildingBlock: ESEHIV_clean_linker_0, # of connection points: 3
#     Node 7, Type 0, BuildingBlock: ESEHIV_clean_linker_0, # of connection points: 3
#     Node 8, Type 1, BuildingBlock: KUMBUR_clean_sbu_1, # of connection points: 6
#     Node 9, Type 1, BuildingBlock: KUMBUR_clean_sbu_1, # of connection points: 6
#     Node 10, Type 1, BuildingBlock: KUMBUR_clean_sbu_1, # of connection points: 6
#     Node 11, Type 1, BuildingBlock: KUMBUR_clean_sbu_1, # of connection points: 6
#     Edge 12, Type (0, 1), BuildingBlock: EZIPEK_clean_linker_0, # of connection points: 2
#     Edge 13, Type (0, 1), BuildingBlock: EZIPEK_clean_linker_0, # of connection points: 2
#     Edge 14, Type (0, 1), BuildingBlock: EZIPEK_clean_linker_0, # of connection points: 2
#     Edge 15, Type (0, 1), BuildingBlock: EZIPEK_clean_linker_0, # of connection points: 2
#     Edge 16, Type (0, 1), BuildingBlock: EZIPEK_clean_linker_0, # of connection points: 2
#     Edge 17, Type (0, 1), BuildingBlock: EZIPEK_clean_linker_0, # of connection points: 2
#     Edge 18, Type (0, 1), BuildingBlock: EZIPEK_clean_linker_0, # of connection points: 2
#     Edge 19, Type (0, 1), BuildingBlock: EZIPEK_clean_linker_0, # of connection points: 2
#     Edge 20, Type (0, 1), BuildingBlock: EZIPEK_clean_linker_0, # of connection points: 2
#     Edge 21, Type (0, 1), BuildingBlock: EZIPEK_clean_linker_0, # of connection points: 2
#     Edge 22, Type (0, 1), BuildingBlock: EZIPEK_clean_linker_0, # of connection points: 2
#     Edge 23, Type (0, 1), BuildingBlock: EZIPEK_clean_linker_0, # of connection points: 2
#     Edge 24, Type (0, 1), BuildingBlock: EZIPEK_clean_linker_0, # of connection points: 2
#     Edge 25, Type (0, 1), BuildingBlock: EZIPEK_clean_linker_0, # of connection points: 2
#     Edge 26, Type (0, 1), BuildingBlock: EZIPEK_clean_linker_0, # of connection points: 2
#     Edge 27, Type (0, 1), BuildingBlock: EZIPEK_clean_linker_0, # of connection points: 2
#     Edge 28, Type (0, 1), BuildingBlock: EZIPEK_clean_linker_0, # of connection points: 2
#     Edge 29, Type (0, 1), BuildingBlock: EZIPEK_clean_linker_0, # of connection points: 2
#     Edge 30, Type (0, 1), BuildingBlock: EZIPEK_clean_linker_0, # of connection points: 2
#     Edge 31, Type (0, 1), BuildingBlock: EZIPEK_clean_linker_0, # of connection points: 2
#     Edge 32, Type (0, 1), BuildingBlock: EZIPEK_clean_linker_0, # of connection points: 2
#     Edge 33, Type (0, 1), BuildingBlock: EZIPEK_clean_linker_0, # of connection points: 2
#     Edge 34, Type (0, 1), BuildingBlock: EZIPEK_clean_linker_0, # of connection points: 2
#     Edge 35, Type (0, 1), BuildingBlock: EZIPEK_clean_linker_0, # of connection points: 2
# Relax obj value: 0.006
# Max RMSD: 0.142
# Mean RMSD: 0.105
data_MOF--net-apo--node1-KUMBUR_clean_sbu_1--node2-ESEHIV_clean_linker_0--edge1-EZIPEK_clean_linker_0
_symmetry_space_group_name_H-M    P1
_symmetry_Int_Tables_number       1
_symmetry_cell_setting            triclinic
loop_
_symmetry_equiv_pos_as_xyz
'x, y, z'
_cell_length_a     16.321583
_cell_length_b     28.082434
_cell_length_c     38.809813
_cell_angle_alpha  89.9842
_cell_angle_beta   89.77957
_cell_angle_gamma 92.062002
loop_
_atom_site_label
_atom_site_type_symbol
_atom_site_fract_x
_atom_site_fract_y
_atom_site_fract_z
_atom_type_partial_charge
H0 H 0.36585 0.44875 0.43026 0.0
H1 H 0.18429 0.41836 0.35514 0.0
H2 H 0.26446 0.30636 0.42204 0.0
C3 C 0.32465 0.42298 0.4179 0.0
C4 C 0.30896 0.37784 0.43261 0.0
C5 C 0.28645 0.43513 0.38718 0.0
C6 C 0.22425 0.40444 0.37429 0.0
C7 C 0.22025 0.35591 0.38383 0.0
C8 C 0.26609 0.34285 0.413 0.0
H9 H 0.17038 0.05613 0.9299 0.0
H10 H 0.28556 0.10993 0.83734 0.0
H11 H 0.27181 0.2 0.92633 0.0
C12 C 0.20331 0.08463 0.91629 0.0
C13 C 0.22257 0.12805 0.93315 0.0
C14 C 0.22345 0.07856 0.88144 0.0
C15 C 0.26862 0.11466 0.86416 0.0
C16 C 0.28554 0.15839 0.88023 0.0
C17 C 0.25991 0.16566 0.91423 0.0
H18 H 0.83744 0.05822 0.59638 0.0
H19 H 0.75088 0.11036 0.69341 0.0
H20 H 0.77306 0.20548 0.60768 0.0
C21 C 0.81599 0.08752 0.61166 0.0
C22 C 0.80362 0.13254 0.59631 0.0
C23 C 0.80345 0.0806 0.64732 0.0
C24 C 0.76592 0.1164 0.66648 0.0
C25 C 0.75245 0.16097 0.65182 0.0
C26 C 0.77837 0.16983 0.6179 0.0
H27 H 0.67755 0.44996 0.09748 0.0
H28 H 0.74163 0.38886 0.19469 0.0
H29 H 0.75081 0.30366 0.10374 0.0
C30 C 0.69623 0.41936 0.11207 0.0
C31 C 0.71344 0.37605 0.0951 0.0
C32 C 0.70084 0.42284 0.14831 0.0
C33 C 0.73343 0.38527 0.16708 0.0
C34 C 0.75622 0.34333 0.15061 0.0
C35 C 0.73917 0.3377 0.11551 0.0
H36 H 0.69424 0.55118 0.59011 0.0
H37 H 0.77118 0.69894 0.59473 0.0
H38 H 0.75389 0.61607 0.68758 0.0
C39 C 0.71316 0.58197 0.60535 0.0
C40 C 0.71598 0.57861 0.64149 0.0
C41 C 0.73026 0.62566 0.58872 0.0
C42 C 0.75777 0.66544 0.60783 0.0
C43 C 0.77202 0.66136 0.64337 0.0
C44 C 0.74784 0.61839 0.65992 0.0
H45 H 0.86136 0.95321 0.09847 0.0
H46 H 0.78909 0.8784 0.19095 0.0
H47 H 0.70229 0.82838 0.09275 0.0
C48 C 0.829 0.92397 0.11123 0.0
C49 C 0.78792 0.88904 0.09089 0.0
C50 C 0.82619 0.92261 0.14753 0.0
C51 C 0.78722 0.88255 0.16321 0.0
C52 C 0.74012 0.84951 0.14383 0.0
C53 C 0.73924 0.85359 0.10772 0.0
H54 H 0.16311 0.95097 0.42848 0.0
H55 H 0.25915 0.81075 0.42648 0.0
H56 H 0.26036 0.89608 0.33405 0.0
C57 C 0.19096 0.9225 0.41423 0.0
C58 C 0.20667 0.92777 0.37881 0.0
C59 C 0.2098 0.88055 0.4314 0.0
C60 C 0.24536 0.8434 0.41312 0.0
C61 C 0.26654 0.84904 0.37814 0.0
C62 C 0.24576 0.89131 0.36112 0.0
H63 H 0.32892 0.55417 0.92965 0.0
H64 H 0.26381 0.619 0.83382 0.0
H65 H 0.25226 0.69882 0.92756 0.0
C66 C 0.30905 0.5845 0.91504 0.0
C67 C 0.29329 0.62697 0.93257 0.0
C68 C 0.30366 0.582 0.87888 0.0
C69 C 0.2709 0.62073 0.8614 0.0
C70 C 0.24771 0.66213 0.87857 0.0
C71 C 0.26421 0.66599 0.91406 0.0
Tb72 Tb 0.10852 0.14517 0.22858 0.0
C73 C 0.73196 0.12148 0.27601 0.0
N74 N 0.78368 0.16039 0.27607 0.0
C75 C 0.68424 0.2044 0.24529 0.0
C76 C 0.65638 0.12143 0.25873 0.0
C77 C 0.75825 0.20261 0.26327 0.0
C78 C 0.63477 0.16308 0.24174 0.0
C79 C 0.69984 0.04244 0.29814 0.0
C80 C 0.75428 0.08221 0.29447 0.0
C81 C 0.62561 0.04115 0.27991 0.0
C82 C 0.60464 0.0803 0.25968 0.0
Tb83 Tb 0.91124 0.14974 0.29861 0.0
N84 N 0.82859 0.08395 0.30991 0.0
C85 C 0.72146 0.00569 0.32034 0.0
C86 C 0.84808 0.04949 0.33285 0.0
C87 C 0.79541 0.00971 0.3383 0.0
H88 H 0.79529 0.2349 0.26649 0.0
H89 H 0.81244 0.98197 0.35598 0.0
H90 H 0.25682 0.07012 0.24334 0.0
H91 H 0.13262 0.32651 0.18019 0.0
H92 H 0.90443 0.05216 0.34648 0.0
H93 H 0.68129 0.97455 0.3241 0.0
H94 H 0.06626 0.24687 0.18745 0.0
H95 H 0.66578 0.23752 0.23394 0.0
H96 H 0.58376 0.01039 0.28158 0.0
H97 H 0.54735 0.07897 0.24575 0.0
H98 H 0.40273 0.07588 0.25915 0.0
H99 H 0.5789 0.1643 0.2269 0.0
H100 H 0.27057 0.34382 0.2046 0.0
N101 N 0.24569 0.14519 0.23867 0.0
C102 C 0.28525 0.18843 0.23844 0.0
C103 C 0.37054 0.10792 0.25337 0.0
C104 C 0.36821 0.19359 0.24792 0.0
C105 C 0.28779 0.10479 0.24424 0.0
C106 C 0.4099 0.15266 0.25668 0.0
N107 N 0.16356 0.21985 0.21735 0.0
C108 C 0.12602 0.25384 0.19843 0.0
C109 C 0.28325 0.27211 0.22387 0.0
C110 C 0.24287 0.22717 0.22719 0.0
C111 C 0.24181 0.30869 0.20773 0.0
C112 C 0.16391 0.29903 0.19393 0.0
H113 H 0.47246 0.15514 0.2656 0.0
H114 H 0.47041 0.24396 0.25528 0.0
H115 H 0.39612 0.31288 0.23385 0.0
O116 O 0.12108 0.15411 0.17469 0.0
O117 O 0.13728 0.18297 0.27693 0.0
O118 O 0.00871 0.20304 0.28948 0.0
O119 O 0.15204 0.08769 0.19951 0.0
O120 O 0.99174 0.17771 0.21282 0.0
O121 O 0.93815 0.20817 0.26281 0.0
O122 O 0.93602 0.15113 0.35178 0.0
O123 O 0.89287 0.10359 0.25283 0.0
O124 O 0.02404 0.0855 0.23928 0.0
O125 O 0.84544 0.19572 0.33014 0.0
O126 O 0.00959 0.10175 0.31265 0.0
O127 O 0.1238 0.09987 0.27499 0.0
C128 C 0.08532 0.20098 0.29879 0.0
C129 C 0.17474 0.09258 0.13748 0.0
C130 C 0.18511 0.09837 0.07493 0.0
C131 C 0.22628 0.05538 0.07434 0.0
C132 C 0.21595 0.04958 0.13627 0.0
C133 C 0.24146 0.03114 0.10483 0.0
C134 C 0.15883 0.11694 0.10655 0.0
C135 C 0.94043 0.20555 0.229 0.0
C136 C 0.15028 0.11201 0.17109 0.0
C137 C 0.40694 0.23909 0.24752 0.0
C138 C 0.36459 0.27832 0.23536 0.0
C139 C 0.94581 0.08265 0.23259 0.0
C140 C 0.82178 0.16711 0.38686 0.0
C141 C 0.79612 0.15346 0.44827 0.0
C142 C 0.71257 0.14495 0.44087 0.0
C143 C 0.73792 0.15842 0.38031 0.0
C144 C 0.8509 0.16466 0.42104 0.0
C145 C 0.68383 0.14763 0.40723 0.0
C146 C 0.08476 0.08893 0.30446 0.0
C147 C 0.87826 0.18045 0.35839 0.0
H148 H 0.24779 0.04095 0.05017 0.0
H149 H 0.22931 0.03038 0.15968 0.0
H150 H 0.27391 0.99822 0.10413 0.0
H151 H 0.12764 0.15037 0.10699 0.0
H152 H 0.66901 0.13718 0.46144 0.0
H153 H 0.71378 0.16042 0.35441 0.0
H154 H 0.91512 0.17237 0.42648 0.0
H155 H 0.61914 0.14176 0.40205 0.0
Tb156 Tb 0.40725 0.36059 0.72837 0.0
C157 C 0.78708 0.39246 0.78381 0.0
N158 N 0.73482 0.35396 0.78158 0.0
C159 C 0.84327 0.30787 0.75847 0.0
C160 C 0.86807 0.39121 0.77122 0.0
C161 C 0.76328 0.31108 0.77114 0.0
C162 C 0.89493 0.34853 0.75732 0.0
C163 C 0.81457 0.47183 0.8062 0.0
C164 C 0.76067 0.43213 0.80089 0.0
C165 C 0.89361 0.47214 0.79174 0.0
C166 C 0.92017 0.43194 0.77409 0.0
Tb167 Tb 0.60238 0.36567 0.79844 0.0
N168 N 0.6832 0.43084 0.81368 0.0
C169 C 0.78756 0.50973 0.82614 0.0
C170 C 0.65838 0.46656 0.8349 0.0
C171 C 0.70954 0.5067 0.841 0.0
H172 H 0.72481 0.27905 0.77239 0.0
H173 H 0.6886 0.53531 0.85711 0.0
H174 H 0.26663 0.43933 0.75286 0.0
H175 H 0.34829 0.18172 0.68177 0.0
H176 H 0.59887 0.46474 0.84698 0.0
H177 H 0.82688 0.54099 0.83072 0.0
H178 H 0.42466 0.25927 0.68668 0.0
H179 H 0.86484 0.27406 0.74944 0.0
H180 H 0.93522 0.50278 0.79474 0.0
H181 H 0.98188 0.43217 0.76374 0.0
H182 H 0.13346 0.43728 0.78249 0.0
H183 H 0.95626 0.34607 0.74692 0.0
H184 H 0.21588 0.16885 0.71237 0.0
N185 N 0.27513 0.36428 0.75006 0.0
C186 C 0.231 0.32247 0.75147 0.0
C187 C 0.16064 0.40445 0.77449 0.0
C188 C 0.15178 0.31946 0.76625 0.0
C189 C 0.23758 0.40551 0.75854 0.0
C190 C 0.11852 0.36092 0.77937 0.0
N191 N 0.33816 0.28887 0.72076 0.0
C192 C 0.36732 0.25369 0.70032 0.0
C193 C 0.2172 0.24007 0.73376 0.0
C194 C 0.26309 0.28345 0.73572 0.0
C195 C 0.24932 0.20273 0.71471 0.0
C196 C 0.32403 0.20989 0.69739 0.0
H197 H 0.05894 0.36005 0.79177 0.0
H198 H 0.04684 0.27254 0.77776 0.0
H199 H 0.10403 0.20283 0.74902 0.0
O200 O 0.40785 0.35126 0.67409 0.0
O201 O 0.41882 0.29897 0.76226 0.0
O202 O 0.47535 0.34162 0.80537 0.0
O203 O 0.34118 0.40795 0.69837 0.0
O204 O 0.5245 0.33042 0.7122 0.0
O205 O 0.58963 0.30562 0.7622 0.0
O206 O 0.58746 0.37113 0.85187 0.0
O207 O 0.62632 0.40182 0.74875 0.0
O208 O 0.49666 0.42147 0.72998 0.0
O209 O 0.64516 0.31079 0.83023 0.0
O210 O 0.52299 0.42689 0.80026 0.0
O211 O 0.397 0.40844 0.77335 0.0
C212 C 0.4446 0.30123 0.79406 0.0
C213 C 0.33434 0.40445 0.63621 0.0
C214 C 0.33507 0.4004 0.5737 0.0
C215 C 0.28335 0.43927 0.57253 0.0
C216 C 0.28227 0.4432 0.63457 0.0
C217 C 0.25713 0.4605 0.60283 0.0
C218 C 0.36102 0.38311 0.60557 0.0
C219 C 0.57803 0.30447 0.72859 0.0
C220 C 0.36203 0.38762 0.66989 0.0
C221 C 0.10742 0.27566 0.76626 0.0
C222 C 0.13996 0.23602 0.74988 0.0
C223 C 0.57741 0.4237 0.72714 0.0
C224 C 0.68842 0.33818 0.88558 0.0
C225 C 0.7236 0.35247 0.94603 0.0
C226 C 0.80686 0.35589 0.93636 0.0
C227 C 0.77191 0.34104 0.87684 0.0
C228 C 0.66427 0.3434 0.92035 0.0
C229 C 0.83067 0.34968 0.90218 0.0
C230 C 0.44402 0.43295 0.79532 0.0
C231 C 0.62585 0.33275 0.85854 0.0
H232 H 0.2618 0.45244 0.54804 0.0
H233 H 0.26093 0.46021 0.65781 0.0
H234 H 0.21663 0.49014 0.60173 0.0
H235 H 0.40043 0.35287 0.60638 0.0
H236 H 0.85395 0.36237 0.95557 0.0
H237 H 0.79182 0.33704 0.8504 0.0
H238 H 0.5999 0.34044 0.92733 0.0
H239 H 0.89503 0.35167 0.89532 0.0
Tb240 Tb 0.10837 0.86866 0.7266 0.0
C241 C 0.73431 0.83917 0.78078 0.0
N242 N 0.78713 0.87721 0.77687 0.0
C243 C 0.68272 0.9196 0.74762 0.0
C244 C 0.65485 0.83882 0.7666 0.0
C245 C 0.76047 0.91828 0.76256 0.0
C246 C 0.63035 0.87925 0.74887 0.0
C247 C 0.70445 0.76234 0.80708 0.0
C248 C 0.75905 0.80141 0.80042 0.0
C249 C 0.62644 0.76077 0.79184 0.0
C250 C 0.60193 0.7988 0.7714 0.0
Tb251 Tb 0.91725 0.86838 0.7975 0.0
N252 N 0.83571 0.80375 0.81394 0.0
C253 C 0.72978 0.72622 0.82899 0.0
C254 C 0.85898 0.76964 0.83678 0.0
C255 C 0.807 0.73024 0.84425 0.0
H256 H 0.79803 0.95051 0.76311 0.0
H257 H 0.82663 0.70297 0.86179 0.0
H258 H 0.25083 0.7922 0.75212 0.0
H259 H 0.15235 0.04978 0.68165 0.0
H260 H 0.91777 0.77232 0.84931 0.0
H261 H 0.68986 0.69554 0.83467 0.0
H262 H 0.07936 0.97153 0.68774 0.0
H263 H 0.66292 0.95193 0.7355 0.0
H264 H 0.58429 0.73061 0.79606 0.0
H265 H 0.54124 0.79745 0.76017 0.0
H266 H 0.38753 0.79649 0.77821 0.0
H267 H 0.57016 0.88036 0.73729 0.0
H268 H 0.28891 0.06339 0.70818 0.0
N269 N 0.24104 0.86707 0.74718 0.0
C270 C 0.28419 0.90931 0.74692 0.0
C271 C 0.35874 0.82876 0.77014 0.0
C272 C 0.36473 0.91344 0.76003 0.0
C273 C 0.27994 0.82651 0.75615 0.0
C274 C 0.40064 0.87268 0.77292 0.0
N275 N 0.17268 0.94167 0.7182 0.0
C276 C 0.13892 0.9771 0.69938 0.0
C277 C 0.29338 0.99174 0.72852 0.0
C278 C 0.2495 0.94777 0.73127 0.0
C279 C 0.25722 0.02901 0.7109 0.0
C280 C 0.18015 0.02143 0.69586 0.0
H281 H 0.46186 0.87439 0.78362 0.0
H282 H 0.46952 0.96151 0.76869 0.0
H283 H 0.40683 0.03029 0.74117 0.0
O284 O 0.11144 0.87792 0.67222 0.0
O285 O 0.10295 0.92865 0.76145 0.0
O286 O 0.04477 0.89181 0.80818 0.0
O287 O 0.17458 0.82052 0.69717 0.0
O288 O 0.99142 0.89993 0.71121 0.0
O289 O 0.94095 0.92842 0.76247 0.0
O290 O 0.91972 0.86631 0.85144 0.0
O291 O 0.89153 0.8325 0.748 0.0
O292 O 0.01915 0.80821 0.73004 0.0
O293 O 0.87021 0.92609 0.82517 0.0
O294 O 0.99683 0.80758 0.80245 0.0
O295 O 0.12008 0.82253 0.77229 0.0
C296 C 0.08623 0.92794 0.79435 0.0
C297 C 0.18831 0.82468 0.63514 0.0
C298 C 0.20009 0.83166 0.57281 0.0
C299 C 0.25431 0.79402 0.57253 0.0
C300 C 0.24258 0.78692 0.63432 0.0
C301 C 0.27509 0.77166 0.60314 0.0
C302 C 0.16611 0.84663 0.60413 0.0
C303 C 0.94325 0.92836 0.7286 0.0
C304 C 0.15783 0.84165 0.66852 0.0
C305 C 0.40782 0.95761 0.75859 0.0
C306 C 0.37223 0.9967 0.74282 0.0
C307 C 0.93863 0.80738 0.72761 0.0
C308 C 0.81876 0.90691 0.88154 0.0
C309 C 0.78062 0.8994 0.94223 0.0
C310 C 0.70219 0.91493 0.93425 0.0
C311 C 0.73982 0.92222 0.87405 0.0
C312 C 0.8387 0.89503 0.91575 0.0
C313 C 0.6819 0.92605 0.90037 0.0
C314 C 0.07482 0.80013 0.7961 0.0
C315 C 0.88324 0.90621 0.85491 0.0
H316 H 0.28076 0.78209 0.54852 0.0
H317 H 0.26067 0.76941 0.65783 0.0
H318 H 0.3171 0.74271 0.60273 0.0
H319 H 0.1242 0.87572 0.60428 0.0
H320 H 0.65726 0.91954 0.9545 0.0
H321 H 0.72322 0.93194 0.84806 0.0
H322 H 0.90008 0.8843 0.92198 0.0
H323 H 0.62157 0.93863 0.89461 0.0
Tb324 Tb 0.41426 0.64421 0.22634 0.0
C325 C 0.78609 0.67771 0.26737 0.0
N326 N 0.73734 0.63738 0.26858 0.0
C327 C 0.84491 0.59258 0.24347 0.0
C328 C 0.86586 0.67707 0.25332 0.0
C329 C 0.76688 0.59472 0.25823 0.0
C330 C 0.89412 0.63403 0.24052 0.0
C331 C 0.80603 0.76184 0.28056 0.0
C332 C 0.75597 0.71979 0.28051 0.0
C333 C 0.88552 0.76125 0.26661 0.0
C334 C 0.91518 0.71907 0.25288 0.0
Tb335 Tb 0.61225 0.64566 0.29389 0.0
N336 N 0.67837 0.71924 0.29371 0.0
C337 C 0.77545 0.80307 0.29524 0.0
C338 C 0.65017 0.75904 0.30962 0.0
C339 C 0.69753 0.8015 0.31008 0.0
H340 H 0.73096 0.56206 0.26166 0.0
H341 H 0.67423 0.83289 0.32238 0.0
H342 H 0.268 0.72009 0.24743 0.0
H343 H 0.37427 0.46843 0.17089 0.0
H344 H 0.592 0.75883 0.32274 0.0
H345 H 0.81215 0.836 0.29593 0.0
H346 H 0.4462 0.54595 0.18127 0.0
H347 H 0.86728 0.55886 0.23463 0.0
H348 H 0.92482 0.79319 0.26656 0.0
H349 H 0.97678 0.71917 0.24236 0.0
H350 H 0.1283 0.71465 0.27159 0.0
H351 H 0.95429 0.63224 0.22885 0.0
H352 H 0.23536 0.45238 0.19517 0.0
N353 N 0.27703 0.64579 0.24021 0.0
C354 C 0.23435 0.60362 0.23859 0.0
C355 C 0.15775 0.68288 0.26286 0.0
C356 C 0.15291 0.59865 0.25068 0.0
C357 C 0.23784 0.68584 0.24986 0.0
C358 C 0.1159 0.63872 0.26429 0.0
N359 N 0.34974 0.5733 0.21158 0.0
C360 C 0.38568 0.5395 0.19192 0.0
C361 C 0.22831 0.52235 0.21815 0.0
C362 C 0.27153 0.56612 0.22298 0.0
C363 C 0.26643 0.48657 0.19959 0.0
C364 C 0.34488 0.49553 0.18586 0.0
H365 H 0.05429 0.63635 0.27472 0.0
H366 H 0.04846 0.54956 0.25738 0.0
H367 H 0.11439 0.48259 0.22854 0.0
O368 O 0.43205 0.6422 0.17226 0.0
O369 O 0.40057 0.59105 0.26724 0.0
O370 O 0.50348 0.60132 0.3093 0.0
O371 O 0.36528 0.69789 0.19615 0.0
O372 O 0.52902 0.60759 0.21417 0.0
O373 O 0.58493 0.58011 0.26493 0.0
O374 O 0.63583 0.66356 0.34587 0.0
O375 O 0.62714 0.67751 0.24236 0.0
O376 O 0.49888 0.70334 0.23725 0.0
O377 O 0.68901 0.60264 0.32271 0.0
O378 O 0.51327 0.69211 0.3086 0.0
O379 O 0.39883 0.68937 0.27226 0.0
C380 C 0.43346 0.58216 0.29748 0.0
C381 C 0.3333 0.6812 0.13752 0.0
C382 C 0.30649 0.66913 0.07608 0.0
C383 C 0.23509 0.69508 0.07929 0.0
C384 C 0.26101 0.70692 0.13995 0.0
C385 C 0.21253 0.71376 0.11101 0.0
C386 C 0.3559 0.66222 0.10525 0.0
C387 C 0.57054 0.57608 0.23163 0.0
C388 C 0.39006 0.68006 0.16721 0.0
C389 C 0.11077 0.55431 0.2479 0.0
C390 C 0.14829 0.51623 0.23145 0.0
C391 C 0.5745 0.70399 0.22671 0.0
C392 C 0.66645 0.59961 0.38305 0.0
C393 C 0.67422 0.59627 0.44576 0.0
C394 C 0.65931 0.54682 0.44447 0.0
C395 C 0.65108 0.54999 0.38233 0.0
C396 C 0.67675 0.62277 0.41502 0.0
C397 C 0.64742 0.5239 0.41293 0.0
C398 C 0.43882 0.7045 0.30016 0.0
C399 C 0.68034 0.62683 0.35089 0.0
H400 H 0.19681 0.70099 0.05704 0.0
H401 H 0.24265 0.72288 0.16404 0.0
H402 H 0.15765 0.7341 0.1131 0.0
H403 H 0.41208 0.64307 0.10263 0.0
H404 H 0.65789 0.52589 0.46794 0.0
H405 H 0.64359 0.53114 0.35814 0.0
H406 H 0.68979 0.66088 0.41596 0.0
H407 H 0.63676 0.48565 0.41217 0.0
C408 C 0.23754 1.00242 0.34283 0.0
C409 C 0.18029 0.97157 0.36072 0.0
C410 C 0.07915 0.03227 0.35549 0.0
C411 C 0.12497 0.05518 0.3291 0.0
N412 N 0.26338 0.08087 0.31776 0.0
N413 N 0.03889 0.95627 0.37872 0.0
C414 C 0.20939 0.04534 0.32758 0.0
C415 C 0.09862 0.98601 0.36518 0.0
N416 N 0.31833 0.99155 0.341 0.0
N417 N 0.03078 0.05773 0.37664 0.0
H418 H 0.04802 0.92047 0.38413 0.0
H419 H 0.97832 0.96673 0.38103 0.0
H420 H 0.02931 0.09462 0.37493 0.0
H421 H 1.00206 0.0427 0.39837 0.0
H422 H 0.36006 0.00854 0.3243 0.0
H423 H 0.34356 0.96474 0.35569 0.0
H424 H 0.32666 0.0789 0.32 0.0
H425 H 0.24386 0.11497 0.31206 0.0
C426 C 0.40423 0.51488 0.87003 0.0
C427 C 0.3354 0.54055 0.85877 0.0
C428 C 0.34961 0.50166 0.80303 0.0
C429 C 0.40482 0.46935 0.81696 0.0
N430 N 0.4523 0.43518 0.87009 0.0
N431 N 0.22286 0.5372 0.81755 0.0
C432 C 0.42249 0.47261 0.85252 0.0
C433 C 0.3015 0.52774 0.82607 0.0
N434 N 0.45665 0.53175 0.8948 0.0
N435 N 0.34595 0.51007 0.76855 0.0
H436 H 0.18157 0.55035 0.83549 0.0
H437 H 0.19752 0.52635 0.79403 0.0
H438 H 0.38503 0.49404 0.75102 0.0
H439 H 0.30815 0.53578 0.75839 0.0
H440 H 0.50825 0.51316 0.9019 0.0
H441 H 0.456 0.56657 0.90401 0.0
H442 H 0.46369 0.43676 0.89653 0.0
H443 H 0.45297 0.40142 0.85902 0.0
C444 C 0.72284 0.52081 0.69165 0.0
C445 C 0.68449 0.53462 0.66058 0.0
C446 C 0.58889 0.46599 0.66908 0.0
C447 C 0.61516 0.46095 0.70363 0.0
N448 N 0.68484 0.50262 0.74973 0.0
N449 N 0.55987 0.52483 0.62624 0.0
C450 C 0.67677 0.49326 0.71564 0.0
C451 C 0.6115 0.50836 0.65073 0.0
N452 N 0.80255 0.53321 0.69856 0.0
N453 N 0.54492 0.43028 0.65333 0.0
H454 H 0.56579 0.5589 0.61576 0.0
H455 H 0.50458 0.50698 0.62021 0.0
H456 H 0.53621 0.39717 0.66503 0.0
H457 H 0.52847 0.43179 0.62741 0.0
H458 H 0.83109 0.52211 0.72108 0.0
H459 H 0.84114 0.54956 0.68023 0.0
H460 H 0.72553 0.52929 0.75872 0.0
H461 H 0.64125 0.48974 0.76736 0.0
C462 C 0.92742 0.9936 0.15864 0.0
C463 C 0.85878 0.96403 0.1691 0.0
C464 C 0.86289 0.00629 0.22386 0.0
C465 C 0.91575 0.04236 0.21039 0.0
N466 N 0.97692 0.07544 0.15858 0.0
N467 N 0.74177 0.96179 0.20847 0.0
C468 C 0.94194 0.03777 0.17576 0.0
C469 C 0.82035 0.97584 0.20087 0.0
N470 N 0.9823 0.97893 0.1347 0.0
N471 N 0.85818 0.99794 0.2582 0.0
H472 H 0.70249 0.94788 0.18973 0.0
H473 H 0.71363 0.97136 0.23155 0.0
H474 H 0.89976 0.01456 0.275 0.0
H475 H 0.82313 0.96925 0.26815 0.0
H476 H 0.0343 0.99968 0.12799 0.0
H477 H 0.98173 0.94402 0.12551 0.0
H478 H 0.99172 0.07363 0.13242 0.0
H479 H 0.98094 0.10925 0.16955 0.0
C480 C 0.89239 0.05016 0.69404 0.0
C481 C 0.8389 0.0396 0.66627 0.0
C482 C 0.85219 0.95419 0.679 0.0
C483 C 0.89892 0.96605 0.70906 0.0
N484 N 0.91991 0.02868 0.75212 0.0
N485 N 0.75383 0.98086 0.63673 0.0
C486 C 0.90633 0.01484 0.71888 0.0
C487 C 0.81494 0.99127 0.65975 0.0
N488 N 0.9309 0.09398 0.69688 0.0
N489 N 0.8402 0.9076 0.66967 0.0
H490 H 0.72403 0.00713 0.62312 0.0
H491 H 0.72788 0.94676 0.6334 0.0
H492 H 0.85675 0.8794 0.68532 0.0
H493 H 0.81561 0.8971 0.64602 0.0
H494 H 0.97476 0.10153 0.7158 0.0
H495 H 0.92631 0.12046 0.67819 0.0
H496 H 0.91915 0.06436 0.7596 0.0
H497 H 0.92121 0.00561 0.77297 0.0
C498 C 0.70498 0.51023 0.16624 0.0
C499 C 0.66726 0.46392 0.16782 0.0
C500 C 0.58518 0.48904 0.21712 0.0
C501 C 0.61092 0.53715 0.21185 0.0
N502 N 0.70039 0.59362 0.18196 0.0
N503 N 0.55718 0.41291 0.19009 0.0
C504 C 0.67174 0.54785 0.18621 0.0
C505 C 0.60285 0.45457 0.19178 0.0
N506 N 0.77498 0.51769 0.14725 0.0
N507 N 0.54821 0.47524 0.2472 0.0
H508 H 0.5662 0.38722 0.17116 0.0
H509 H 0.50486 0.4065 0.20514 0.0
H510 H 0.54133 0.49841 0.26783 0.0
H511 H 0.5343 0.43965 0.25319 0.0
H512 H 0.81079 0.54911 0.14803 0.0
H513 H 0.80121 0.49093 0.13273 0.0
H514 H 0.73723 0.60498 0.16137 0.0
H515 H 0.68579 0.62053 0.19905 0.0
C516 C 0.3263 0.5223 0.37583 0.0
C517 C 0.32179 0.47414 0.36483 0.0
C518 C 0.37459 0.49837 0.30813 0.0
C519 C 0.38972 0.54575 0.32004 0.0
N520 N 0.38114 0.60263 0.36638 0.0
N521 N 0.3682 0.41564 0.32413 0.0
C522 C 0.3666 0.55749 0.35443 0.0
C523 C 0.35289 0.462 0.33196 0.0
N524 N 0.28901 0.53476 0.40592 0.0
N525 N 0.38108 0.48716 0.27415 0.0
H526 H 0.36088 0.38781 0.34178 0.0
H527 H 0.39775 0.40559 0.30155 0.0
H528 H 0.40427 0.5107 0.25581 0.0
H529 H 0.35918 0.45474 0.26404 0.0
H530 H 0.28365 0.56984 0.41403 0.0
H531 H 0.25724 0.51009 0.42154 0.0
H532 H 0.37803 0.61181 0.39234 0.0
H533 H 0.39826 0.63069 0.35011 0.0
C534 C 0.20786 0.99051 0.86693 0.0
C535 C 0.18669 0.03842 0.86108 0.0
C536 C 0.11411 0.01465 0.8087 0.0
C537 C 0.12497 0.96578 0.81654 0.0
N538 N 0.18588 0.90681 0.85291 0.0
N539 N 0.10037 0.09345 0.83183 0.0
C540 C 0.17213 0.95353 0.84591 0.0
C541 C 0.13419 0.04961 0.83359 0.0
N542 N 0.26531 0.98074 0.89122 0.0
N543 N 0.08686 0.02871 0.77727 0.0
H544 H 0.10964 0.11967 0.85058 0.0
H545 H 0.05558 0.10173 0.81393 0.0
H546 H 0.06709 0.00553 0.75809 0.0
H547 H 0.09012 0.06416 0.7692 0.0
H548 H 0.28967 0.94733 0.89463 0.0
H549 H 0.29339 0.00702 0.90656 0.0
H550 H 0.20847 0.89504 0.87634 0.0
H551 H 0.1736 0.87941 0.83538 0.0
C552 C 0.12367 0.11994 0.98307 0.0
C553 C 0.20315 0.13365 0.97055 0.0
C554 C 0.24495 0.15099 0.02984 0.0
C555 C 0.17621 0.12412 0.04189 0.0
N556 N 0.04546 0.08523 0.03073 0.0
N557 N 0.3442 0.15769 0.98406 0.0
C558 C 0.11321 0.10996 0.01876 0.0
C559 C 0.26481 0.14928 0.99435 0.0
N560 N 0.05874 0.1168 0.96099 0.0
N561 N 0.29325 0.17595 0.05261 0.0
H562 H 0.36524 0.15146 0.95919 0.0
H563 H 0.39156 0.16546 1.00132 0.0
H564 H 0.27935 0.17701 0.07887 0.0
H565 H 0.34062 0.19948 0.04479 0.0
H566 H 0.99858 0.10993 0.96915 0.0
H567 H 0.06417 0.12605 0.93501 0.0
H568 H 1.00189 0.06896 0.01461 0.0
H569 H 0.03526 0.07948 0.05701 0.0
C570 C 0.26908 0.35113 0.49285 0.0
C571 C 0.33015 0.36935 0.46948 0.0
C572 C 0.41455 0.39445 0.51864 0.0
C573 C 0.35285 0.37578 0.54104 0.0
N574 N 0.24295 0.31786 0.54942 0.0
N575 N 0.47298 0.39237 0.46112 0.0
C576 C 0.28931 0.34619 0.52786 0.0
C577 C 0.4075 0.38538 0.48272 0.0
N578 N 0.18892 0.34588 0.48334 0.0
N579 N 0.47674 0.42286 0.53144 0.0
H580 H 0.46961 0.38412 0.43493 0.0
H581 H 0.5317 0.40164 0.46987 0.0
H582 H 0.48389 0.42863 0.55786 0.0
H583 H 0.51812 0.44204 0.51576 0.0
H584 H 0.14258 0.33467 0.50038 0.0
H585 H 0.16686 0.36071 0.46081 0.0
H586 H 0.19797 0.29372 0.54035 0.0
H587 H 0.25627 0.31521 0.57563 0.0
C588 C 0.76367 0.33945 0.03921 0.0
C589 C 0.70845 0.36994 0.05625 0.0
C590 C 0.65516 0.38997 0.99879 0.0
C591 C 0.70304 0.35412 0.98365 0.0
N592 N 0.77241 0.28126 0.99399 0.0
N593 N 0.58059 0.41115 0.05022 0.0
C594 C 0.74571 0.32383 1.00559 0.0
C595 C 0.64763 0.39165 0.03554 0.0
N596 N 0.83744 0.32895 0.05317 0.0
N597 N 0.61892 0.423 0.97873 0.0
H598 H 0.56648 0.40729 0.0763 0.0
H599 H 0.53358 0.42516 0.03566 0.0
H600 H 0.62365 0.42315 0.95194 0.0
H601 H 0.59004 0.45228 0.98915 0.0
H602 H 0.87944 0.30821 0.04017 0.0
H603 H 0.86078 0.34613 0.07504 0.0
H604 H 0.80055 0.25729 1.01032 0.0
H605 H 0.75794 0.2684 0.96941 0.0
C606 C 0.76086 0.17307 0.54063 0.0
C607 C 0.81317 0.1411 0.55786 0.0
C608 C 0.86777 0.11958 0.50083 0.0
C609 C 0.8208 0.15522 0.48527 0.0
N610 N 0.75402 0.22922 0.49382 0.0
N611 N 0.93959 0.09834 0.55271 0.0
C612 C 0.77977 0.18713 0.50662 0.0
C613 C 0.87399 0.11847 0.53756 0.0
N614 N 0.68796 0.18587 0.55454 0.0
N615 N 0.90433 0.0862 0.48109 0.0
H616 H 0.95215 0.1022 0.5789 0.0
H617 H 0.98678 0.08362 0.53852 0.0
H618 H 0.90173 0.08638 0.45424 0.0
H619 H 0.9322 0.05679 0.49174 0.0
H620 H 0.64791 0.20762 0.54146 0.0
H621 H 0.66215 0.16931 0.57625 0.0
H622 H 0.72733 0.25461 0.50951 0.0
H623 H 0.76793 0.2402 0.46868 0.0
C624 C 0.80548 0.84791 0.03248 0.0
C625 C 0.79485 0.89043 0.05206 0.0
C626 C 0.81449 0.93591 0.9987 0.0
C627 C 0.80289 0.89409 0.97908 0.0
N628 N 0.78275 0.80871 0.97741 0.0
N629 N 0.76639 0.97477 0.04938 0.0
C630 C 0.79701 0.84941 0.99596 0.0
C631 C 0.79408 0.93466 0.03406 0.0
N632 N 0.82832 0.80702 0.0482 0.0
N633 N 0.8427 0.97709 0.98344 0.0
H634 H 0.73813 0.97433 0.07352 0.0
H635 H 0.76145 0.00682 0.03609 0.0
H636 H 0.85909 0.97861 0.95742 0.0
H637 H 0.85829 0.0076 0.99767 0.0
H638 H 0.84093 0.77607 0.03465 0.0
H639 H 0.84551 0.80617 0.07397 0.0
H640 H 0.76928 0.77581 0.98896 0.0
H641 H 0.7796 0.8087 0.95055 0.0
C642 C 0.78593 0.62224 0.5284 0.0
C643 C 0.71879 0.62936 0.5509 0.0
C644 C 0.6244 0.62911 0.50187 0.0
C645 C 0.69084 0.61873 0.4798 0.0
N646 N 0.83628 0.62061 0.46949 0.0
N647 N 0.57876 0.6512 0.55927 0.0
C648 C 0.77228 0.6206 0.49228 0.0
C649 C 0.63937 0.63686 0.5376 0.0
N650 N 0.86174 0.61439 0.54168 0.0
N651 N 0.54697 0.62984 0.48863 0.0
H652 H 0.58803 0.65659 0.58559 0.0
H653 H 0.52118 0.66106 0.55106 0.0
H654 H 0.53549 0.62691 0.46226 0.0
H655 H 0.4941 0.63211 0.50351 0.0
H656 H 0.91107 0.6035 0.52694 0.0
H657 H 0.87424 0.61585 0.56799 0.0
H658 H 0.89721 0.62665 0.4766 0.0
H659 H 0.82776 0.61913 0.44289 0.0
C660 C 0.36987 0.66577 0.982 0.0
C661 C 0.3102 0.63139 0.97028 0.0
C662 C 0.28178 0.6085 0.03027 0.0
C663 C 0.32633 0.64962 0.04152 0.0
N664 N 0.41675 0.71696 0.02891 0.0
N665 N 0.20516 0.57117 0.98377 0.0
C666 C 0.3727 0.67777 0.01763 0.0
C667 C 0.26609 0.60229 0.99453 0.0
N668 N 0.42452 0.68621 0.95914 0.0
N669 N 0.25356 0.57588 0.05397 0.0
H670 H 0.18864 0.56697 0.95802 0.0
H671 H 0.16591 0.55259 1.00066 0.0
H672 H 0.2648 0.58 0.08029 0.0
H673 H 0.2272 0.54284 0.0473 0.0
H674 H 0.47374 0.70849 0.96648 0.0
H675 H 0.42538 0.67721 0.93306 0.0
H676 H 0.44389 0.74228 0.01246 0.0
H677 H 0.42306 0.72511 0.05502 0.0
C678 C 0.24159 0.90259 0.4929 0.0
C679 C 0.19334 0.87563 0.46892 0.0
C680 C 0.12829 0.83004 0.51611 0.0
C681 C 0.18098 0.85459 0.53955 0.0
N682 N 0.26565 0.92396 0.55271 0.0
N683 N 0.07621 0.82336 0.45763 0.0
C684 C 0.2298 0.89445 0.52871 0.0
C685 C 0.13157 0.84248 0.48058 0.0
N686 N 0.30255 0.93346 0.4815 0.0
N687 N 0.07733 0.79391 0.52795 0.0
H688 H 0.07685 0.83236 0.43154 0.0
H689 H 0.02604 0.80151 0.46459 0.0
H690 H 0.07044 0.78643 0.55419 0.0
H691 H 0.04354 0.77075 0.51212 0.0
H692 H 0.3453 0.95022 0.49769 0.0
H693 H 0.31485 0.93983 0.45551 0.0
H694 H 0.29512 0.95639 0.54663 0.0
H695 H 0.25875 0.91828 0.57912 0.0
C696 C 0.17397 0.32196 0.3255 0.0
C697 C 0.17489 0.31861 0.36215 0.0
C698 C 0.12563 0.23489 0.35662 0.0
C699 C 0.11788 0.24053 0.32069 0.0
N700 N 0.113 0.29516 0.27306 0.0
N701 N 0.11655 0.27547 0.411 0.0
C702 C 0.13576 0.28558 0.30586 0.0
C703 C 0.14085 0.27592 0.37741 0.0
N704 N 0.21101 0.35907 0.30843 0.0
N705 N 0.11923 0.19063 0.37101 0.0
H706 H 0.11522 0.30668 0.42534 0.0
H707 H 0.08687 0.24607 0.42258 0.0
H708 H 0.11074 0.16002 0.35611 0.0
H709 H 0.13108 0.18442 0.39698 0.0
H710 H 0.24337 0.35247 0.28574 0.0
H711 H 0.17966 0.3906 0.30619 0.0
H712 H 0.11922 0.32911 0.26217 0.0
H713 H 0.08021 0.27035 0.25849 0.0
C714 C 0.28424 0.23608 0.84859 0.0
C715 C 0.32844 0.19702 0.86069 0.0
C716 C 0.45041 0.2261 0.82932 0.0
C717 C 0.40755 0.26682 0.81897 0.0
N718 N 0.29238 0.31709 0.82782 0.0
N719 N 0.45793 0.16026 0.86943 0.0
C720 C 0.32707 0.27387 0.83138 0.0
C721 C 0.413 0.19367 0.85315 0.0
N722 N 0.20095 0.23633 0.85229 0.0
N723 N 0.5259 0.21763 0.81595 0.0
H724 H 0.43238 0.13603 0.88719 0.0
H725 H 0.52158 0.15943 0.86781 0.0
H726 H 0.55683 0.24124 0.79955 0.0
H727 H 0.55539 0.18567 0.81927 0.0
H728 H 0.16502 0.26151 0.84047 0.0
H729 H 0.16699 0.2091 0.8646 0.0
H730 H 0.23693 0.32534 0.83937 0.0
H731 H 0.32272 0.34622 0.81628 0.0
C732 C 0.74674 0.24303 0.67866 0.0
C733 C 0.7083 0.19799 0.67156 0.0
C734 C 0.58922 0.22081 0.70553 0.0
C735 C 0.62234 0.26806 0.70844 0.0
N736 N 0.7275 0.32622 0.69166 0.0
N737 N 0.58266 0.14971 0.67055 0.0
C738 C 0.69945 0.27989 0.69297 0.0
C739 C 0.62646 0.18848 0.68274 0.0
N740 N 0.82898 0.25009 0.67312 0.0
N741 N 0.52393 0.20594 0.72527 0.0
H742 H 0.60632 0.12608 0.65266 0.0
H743 H 0.52013 0.14419 0.67536 0.0
H744 H 0.49614 0.22806 0.74295 0.0
H745 H 0.50238 0.17055 0.72618 0.0
H746 H 0.86157 0.28077 0.68093 0.0
H747 H 0.86604 0.22333 0.66395 0.0
H748 H 0.78011 0.33723 0.67813 0.0
H749 H 0.69459 0.35407 0.70178 0.0
C750 C 0.8736 0.32171 0.1887 0.0
C751 C 0.80342 0.30689 0.16965 0.0
C752 C 0.83091 0.22404 0.18519 0.0
C753 C 0.89246 0.24039 0.2087 0.0
N754 N 0.9413 0.30915 0.24213 0.0
N755 N 0.70373 0.24357 0.15731 0.0
C756 C 0.90513 0.29042 0.21334 0.0
C757 C 0.77888 0.25777 0.1697 0.0
N758 N 0.91141 0.36524 0.18322 0.0
N759 N 0.81898 0.17648 0.1789 0.0
H760 H 0.66147 0.26755 0.14827 0.0
H761 H 0.67982 0.20882 0.15974 0.0
H762 H 0.85113 0.15042 0.19163 0.0
H763 H 0.78026 0.16333 0.15956 0.0
H764 H 0.96632 0.37542 0.1953 0.0
H765 H 0.89373 0.38832 0.16377 0.0
H766 H 0.94733 0.3458 0.24635 0.0
H767 H 0.95185 0.28932 0.26409 0.0
C768 C 0.78626 0.71165 0.69743 0.0
C769 C 0.8134 0.70119 0.66354 0.0
C770 C 0.91691 0.76631 0.66969 0.0
C771 C 0.89805 0.7702 0.70528 0.0
N772 N 0.83993 0.72762 0.75375 0.0
N773 N 0.92633 0.71074 0.62266 0.0
C774 C 0.8395 0.73768 0.71954 0.0
C775 C 0.88502 0.72633 0.6509 0.0
N776 N 0.70974 0.69796 0.70863 0.0
N777 N 0.96326 0.80086 0.65352 0.0
H778 H 0.91169 0.67858 0.61044 0.0
H779 H 0.98173 0.72665 0.61442 0.0
H780 H 0.98194 0.832 0.66609 0.0
H781 H 0.97391 0.80087 0.62699 0.0
H782 H 0.68863 0.70678 0.73315 0.0
H783 H 0.66542 0.68293 0.69222 0.0
H784 H 0.80233 0.70047 0.76429 0.0
H785 H 0.88626 0.7412 0.76974 0.0
C786 C 0.62989 0.82538 0.18676 0.0
C787 C 0.68914 0.81198 0.16205 0.0
C788 C 0.64761 0.72897 0.17238 0.0
C789 C 0.60576 0.74187 0.20278 0.0
N790 N 0.56366 0.80502 0.24074 0.0
N791 N 0.76325 0.74829 0.13573 0.0
C792 C 0.59833 0.79092 0.21056 0.0
C793 C 0.70041 0.76294 0.1559 0.0
N794 N 0.60053 0.8702 0.18632 0.0
N795 N 0.63308 0.68541 0.15789 0.0
H796 H 0.8073 0.77192 0.12534 0.0
H797 H 0.7763 0.71241 0.13282 0.0
H798 H 0.58886 0.66146 0.16774 0.0
H799 H 0.6573 0.67606 0.13402 0.0
H800 H 0.55342 0.88084 0.20249 0.0
H801 H 0.61557 0.89415 0.16654 0.0
H802 H 0.5647 0.8405 0.24869 0.0
H803 H 0.54058 0.78114 0.25916 0.0
C804 C 0.28907 0.7984 0.32543 0.0
C805 C 0.31187 0.81138 0.35935 0.0
C806 C 0.41642 0.75059 0.35706 0.0
C807 C 0.40011 0.7429 0.32121 0.0
N808 N 0.3514 0.78444 0.27084 0.0
N809 N 0.42046 0.81056 0.40177 0.0
C810 C 0.34516 0.7739 0.30502 0.0
C811 C 0.38244 0.79067 0.3737 0.0
N812 N 0.21426 0.80865 0.31241 0.0
N813 N 0.46218 0.72029 0.37586 0.0
H814 H 0.40249 0.84235 0.41288 0.0
H815 H 0.47611 0.79879 0.41104 0.0
H816 H 0.48683 0.68949 0.3662 0.0
H817 H 0.46845 0.72348 0.4025 0.0
H818 H 0.19626 0.79766 0.28778 0.0
H819 H 0.16807 0.82293 0.32746 0.0
H820 H 0.31505 0.80978 0.25932 0.0
H821 H 0.39735 0.77153 0.25509 0.0
C822 C 0.13692 0.72404 0.87275 0.0
C823 C 0.20524 0.70023 0.85881 0.0
C824 C 0.17074 0.73267 0.80259 0.0
C825 C 0.116 0.76435 0.81779 0.0
N826 N 0.06886 0.79856 0.87137 0.0
N827 N 0.30283 0.70012 0.8113 0.0
C828 C 0.10526 0.76271 0.85415 0.0
C829 C 0.22729 0.71005 0.82392 0.0
N830 N 0.09838 0.70866 0.90218 0.0
N831 N 0.16681 0.72209 0.76837 0.0
H832 H 0.34971 0.68851 0.82711 0.0
H833 H 0.32051 0.70889 0.78614 0.0
H834 H 0.12242 0.73585 0.75225 0.0
H835 H 0.20361 0.69656 0.75724 0.0
H836 H 0.04551 0.72426 0.9114 0.0
H837 H 0.11177 0.67691 0.91446 0.0
H838 H 0.06471 0.79934 0.8982 0.0
H839 H 0.05305 0.82986 0.85922 0.0
loop_
_geom_bond_atom_site_label_1
_geom_bond_atom_site_label_2
_geom_bond_distance
_geom_bond_site_symmetry_2
_ccdc_geom_bond_type
H0 C3 0.931 . S
H1 C6 0.928 . S
H2 C8 0.930 . S
C3 H0 0.931 . S
C3 C4 1.413 . S
C3 C5 1.360 . S
C4 C3 1.413 . S
C4 C8 1.429 . S
C5 C3 1.360 . S
C5 C6 1.372 . S
C6 H1 0.928 . S
C6 C5 1.372 . S
C6 C7 1.404 . S
C7 C6 1.404 . S
C7 C8 1.391 . S
C8 H2 0.930 . S
C8 C4 1.429 . S
C8 C7 1.391 . S
H9 C12 0.931 . S
H10 C15 0.928 . S
H11 C17 0.930 . S
C12 H9 0.931 . S
C12 C13 1.413 . S
C12 C14 1.360 . S
C13 C12 1.413 . S
C13 C17 1.429 . S
C14 C12 1.360 . S
C14 C15 1.372 . S
C15 H10 0.928 . S
C15 C14 1.372 . S
C15 C16 1.404 . S
C16 C15 1.404 . S
C16 C17 1.391 . S
C17 H11 0.930 . S
C17 C13 1.429 . S
C17 C16 1.391 . S
H18 C21 0.931 . S
H19 C24 0.928 . S
H20 C26 0.930 . S
C21 H18 0.931 . S
C21 C22 1.413 . S
C21 C23 1.360 . S
C22 C21 1.413 . S
C22 C26 1.429 . S
C23 C21 1.360 . S
C23 C24 1.372 . S
C24 H19 0.928 . S
C24 C23 1.372 . S
C24 C25 1.404 . S
C25 C24 1.404 . S
C25 C26 1.391 . S
C26 H20 0.930 . S
C26 C22 1.429 . S
C26 C25 1.391 . S
H27 C30 0.931 . S
H28 C33 0.928 . S
H29 C35 0.930 . S
C30 H27 0.931 . S
C30 C31 1.413 . S
C30 C32 1.360 . S
C31 C30 1.413 . S
C31 C35 1.429 . S
C32 C30 1.360 . S
C32 C33 1.372 . S
C33 H28 0.928 . S
C33 C32 1.372 . S
C33 C34 1.404 . S
C34 C33 1.404 . S
C34 C35 1.391 . S
C35 H29 0.930 . S
C35 C31 1.429 . S
C35 C34 1.391 . S
H36 C39 0.931 . S
H37 C42 0.928 . S
H38 C44 0.930 . S
C39 H36 0.931 . S
C39 C40 1.413 . S
C39 C41 1.360 . S
C40 C39 1.413 . S
C40 C44 1.429 . S
C41 C39 1.360 . S
C41 C42 1.372 . S
C42 H37 0.928 . S
C42 C41 1.372 . S
C42 C43 1.404 . S
C43 C42 1.404 . S
C43 C44 1.391 . S
C44 H38 0.930 . S
C44 C40 1.429 . S
C44 C43 1.391 . S
H45 C48 0.931 . S
H46 C51 0.928 . S
H47 C53 0.930 . S
C48 H45 0.931 . S
C48 C49 1.413 . S
C48 C50 1.360 . S
C49 C48 1.413 . S
C49 C53 1.429 . S
C50 C48 1.360 . S
C50 C51 1.372 . S
C51 H46 0.928 . S
C51 C50 1.372 . S
C51 C52 1.404 . S
C52 C51 1.404 . S
C52 C53 1.391 . S
C53 H47 0.930 . S
C53 C49 1.429 . S
C53 C52 1.391 . S
H54 C57 0.931 . S
H55 C60 0.928 . S
H56 C62 0.930 . S
C57 H54 0.931 . S
C57 C58 1.413 . S
C57 C59 1.360 . S
C58 C57 1.413 . S
C58 C62 1.429 . S
C59 C57 1.360 . S
C59 C60 1.372 . S
C60 H55 0.928 . S
C60 C59 1.372 . S
C60 C61 1.404 . S
C61 C60 1.404 . S
C61 C62 1.391 . S
C62 H56 0.930 . S
C62 C58 1.429 . S
C62 C61 1.391 . S
H63 C66 0.931 . S
H64 C69 0.928 . S
H65 C71 0.930 . S
C66 H63 0.931 . S
C66 C67 1.413 . S
C66 C68 1.360 . S
C67 C66 1.413 . S
C67 C71 1.429 . S
C68 C66 1.360 . S
C68 C69 1.372 . S
C69 H64 0.928 . S
C69 C68 1.372 . S
C69 C70 1.404 . S
C70 C69 1.404 . S
C70 C71 1.391 . S
C71 H65 0.930 . S
C71 C67 1.429 . S
C71 C70 1.391 . S
Tb72 N101 2.617 . S
Tb72 N107 2.572 . S
Tb72 O116 2.465 . S
Tb72 O117 2.387 . S
Tb72 O119 2.428 . S
Tb72 O120 2.308 1_455 S
Tb72 O124 2.349 1_455 S
Tb72 O127 2.393 . S
Tb72 C136 2.802 . S
C73 N74 1.379 . S
C73 C76 1.416 . S
C73 C80 1.424 . S
N74 C73 1.379 . S
N74 C77 1.334 . S
N74 Tb83 2.617 . S
C75 C77 1.390 . S
C75 C78 1.339 . S
C75 H95 0.930 . S
C76 C73 1.416 . S
C76 C78 1.416 . S
C76 C82 1.448 . S
C77 N74 1.334 . S
C77 C75 1.390 . S
C77 H88 0.930 . S
C78 C75 1.339 . S
C78 C76 1.416 . S
C78 H99 0.930 . S
C79 C80 1.413 . S
C79 C81 1.427 . S
C79 C85 1.416 1_545 S
C80 C73 1.424 . S
C80 C79 1.413 . S
C80 N84 1.361 . S
C81 C79 1.427 . S
C81 C82 1.328 . S
C81 H96 0.929 1_545 S
C82 C76 1.448 . S
C82 C81 1.328 . S
C82 H97 0.930 . S
Tb83 N74 2.617 . S
Tb83 N84 2.572 . S
Tb83 O118 2.349 1_655 S
Tb83 O121 2.393 . S
Tb83 O122 2.465 . S
Tb83 O123 2.387 . S
Tb83 O125 2.428 . S
Tb83 O126 2.308 1_655 S
Tb83 C147 2.802 . S
N84 C80 1.361 . S
N84 Tb83 2.572 . S
N84 C86 1.340 . S
C85 C79 1.416 1_565 S
C85 C87 1.332 . S
C85 H93 0.931 . S
C86 N84 1.340 . S
C86 C87 1.407 1_545 S
C86 H92 0.930 . S
C87 C85 1.332 . S
C87 C86 1.407 1_565 S
C87 H89 0.929 . S
H88 C77 0.930 . S
H89 C87 0.929 . S
H90 C105 0.930 . S
H91 C112 0.929 . S
H92 C86 0.930 . S
H93 C85 0.931 . S
H94 C108 0.930 . S
H95 C75 0.930 . S
H96 C81 0.929 1_565 S
H97 C82 0.930 . S
H98 C103 0.930 . S
H99 C78 0.930 . S
H100 C111 0.931 . S
N101 Tb72 2.617 . S
N101 C102 1.379 . S
N101 C105 1.334 . S
C102 N101 1.379 . S
C102 C104 1.416 . S
C102 C110 1.424 . S
C103 H98 0.930 . S
C103 C105 1.390 . S
C103 C106 1.339 . S
C104 C102 1.416 . S
C104 C106 1.416 . S
C104 C137 1.448 . S
C105 H90 0.930 . S
C105 N101 1.334 . S
C105 C103 1.390 . S
C106 C103 1.339 . S
C106 C104 1.416 . S
C106 H113 0.930 . S
N107 Tb72 2.572 . S
N107 C108 1.340 . S
N107 C110 1.361 . S
C108 H94 0.930 . S
C108 N107 1.340 . S
C108 C112 1.407 . S
C109 C110 1.413 . S
C109 C111 1.416 . S
C109 C138 1.427 . S
C110 C102 1.424 . S
C110 N107 1.361 . S
C110 C109 1.413 . S
C111 H100 0.931 . S
C111 C109 1.416 . S
C111 C112 1.332 . S
C112 H91 0.929 . S
C112 C108 1.407 . S
C112 C111 1.332 . S
H113 C106 0.930 . S
H114 C137 0.930 . S
H115 C138 0.929 . S
O116 Tb72 2.465 . S
O116 C136 1.264 . S
O117 Tb72 2.387 . S
O117 C128 1.264 . S
O118 Tb83 2.349 1_455 S
O118 C128 1.243 . S
O119 Tb72 2.428 . S
O119 C136 1.256 . S
O120 Tb72 2.308 1_655 S
O120 C135 1.266 . S
O121 Tb83 2.393 . S
O121 C135 1.248 . S
O122 Tb83 2.465 . S
O122 C147 1.264 . S
O123 Tb83 2.387 . S
O123 C139 1.264 . S
O124 Tb72 2.349 1_655 S
O124 C139 1.243 . S
O125 Tb83 2.428 . S
O125 C147 1.256 . S
O126 Tb83 2.308 1_455 S
O126 C146 1.266 . S
O127 Tb72 2.393 . S
O127 C146 1.248 . S
C128 O117 1.264 . S
C128 O118 1.243 . S
C129 C132 1.399 . S
C129 C134 1.383 . S
C129 C136 1.496 . S
C130 C131 1.399 . S
C130 C134 1.389 . S
C131 C130 1.399 . S
C131 C133 1.380 . S
C131 H148 0.929 . S
C132 C129 1.399 . S
C132 C133 1.392 . S
C132 H149 0.929 . S
C133 C131 1.380 . S
C133 C132 1.392 . S
C133 H150 0.929 . S
C134 C129 1.383 . S
C134 C130 1.389 . S
C134 H151 0.931 . S
C135 O120 1.266 . S
C135 O121 1.248 . S
C136 Tb72 2.802 . S
C136 O116 1.264 . S
C136 O119 1.256 . S
C136 C129 1.496 . S
C137 C104 1.448 . S
C137 H114 0.930 . S
C137 C138 1.328 . S
C138 C109 1.427 . S
C138 H115 0.929 . S
C138 C137 1.328 . S
C139 O123 1.264 . S
C139 O124 1.243 . S
C140 C143 1.399 . S
C140 C144 1.383 . S
C140 C147 1.496 . S
C141 C142 1.399 . S
C141 C144 1.389 . S
C142 C141 1.399 . S
C142 C145 1.380 . S
C142 H152 0.929 . S
C143 C140 1.399 . S
C143 C145 1.392 . S
C143 H153 0.929 . S
C144 C140 1.383 . S
C144 C141 1.389 . S
C144 H154 0.931 . S
C145 C142 1.380 . S
C145 C143 1.392 . S
C145 H155 0.929 . S
C146 O126 1.266 . S
C146 O127 1.248 . S
C147 Tb83 2.802 . S
C147 O122 1.264 . S
C147 O125 1.256 . S
C147 C140 1.496 . S
H148 C131 0.929 . S
H149 C132 0.929 . S
H150 C133 0.929 . S
H151 C134 0.931 . S
H152 C142 0.929 . S
H153 C143 0.929 . S
H154 C144 0.931 . S
H155 C145 0.929 . S
Tb156 N185 2.617 . S
Tb156 N191 2.572 . S
Tb156 O200 2.465 . S
Tb156 O201 2.387 . S
Tb156 O203 2.428 . S
Tb156 O204 2.308 . S
Tb156 O208 2.349 . S
Tb156 O211 2.393 . S
Tb156 C220 2.802 . S
C157 N158 1.379 . S
C157 C160 1.416 . S
C157 C164 1.424 . S
N158 C157 1.379 . S
N158 C161 1.334 . S
N158 Tb167 2.617 . S
C159 C161 1.390 . S
C159 C162 1.339 . S
C159 H179 0.930 . S
C160 C157 1.416 . S
C160 C162 1.416 . S
C160 C166 1.448 . S
C161 N158 1.334 . S
C161 C159 1.390 . S
C161 H172 0.930 . S
C162 C159 1.339 . S
C162 C160 1.416 . S
C162 H183 0.930 . S
C163 C164 1.413 . S
C163 C165 1.427 . S
C163 C169 1.416 . S
C164 C157 1.424 . S
C164 C163 1.413 . S
C164 N168 1.361 . S
C165 C163 1.427 . S
C165 C166 1.328 . S
C165 H180 0.929 . S
C166 C160 1.448 . S
C166 C165 1.328 . S
C166 H181 0.930 . S
Tb167 N158 2.617 . S
Tb167 N168 2.572 . S
Tb167 O202 2.349 . S
Tb167 O205 2.393 . S
Tb167 O206 2.465 . S
Tb167 O207 2.387 . S
Tb167 O209 2.428 . S
Tb167 O210 2.308 . S
Tb167 C231 2.802 . S
N168 C164 1.361 . S
N168 Tb167 2.572 . S
N168 C170 1.340 . S
C169 C163 1.416 . S
C169 C171 1.332 . S
C169 H177 0.931 . S
C170 N168 1.340 . S
C170 C171 1.407 . S
C170 H176 0.930 . S
C171 C169 1.332 . S
C171 C170 1.407 . S
C171 H173 0.929 . S
H172 C161 0.930 . S
H173 C171 0.929 . S
H174 C189 0.930 . S
H175 C196 0.929 . S
H176 C170 0.930 . S
H177 C169 0.931 . S
H178 C192 0.930 . S
H179 C159 0.930 . S
H180 C165 0.929 . S
H181 C166 0.930 . S
H182 C187 0.930 . S
H183 C162 0.930 . S
H184 C195 0.931 . S
N185 Tb156 2.617 . S
N185 C186 1.379 . S
N185 C189 1.334 . S
C186 N185 1.379 . S
C186 C188 1.416 . S
C186 C194 1.424 . S
C187 H182 0.930 . S
C187 C189 1.390 . S
C187 C190 1.339 . S
C188 C186 1.416 . S
C188 C190 1.416 . S
C188 C221 1.448 . S
C189 H174 0.930 . S
C189 N185 1.334 . S
C189 C187 1.390 . S
C190 C187 1.339 . S
C190 C188 1.416 . S
C190 H197 0.930 . S
N191 Tb156 2.572 . S
N191 C192 1.340 . S
N191 C194 1.361 . S
C192 H178 0.930 . S
C192 N191 1.340 . S
C192 C196 1.407 . S
C193 C194 1.413 . S
C193 C195 1.416 . S
C193 C222 1.427 . S
C194 C186 1.424 . S
C194 N191 1.361 . S
C194 C193 1.413 . S
C195 H184 0.931 . S
C195 C193 1.416 . S
C195 C196 1.332 . S
C196 H175 0.929 . S
C196 C192 1.407 . S
C196 C195 1.332 . S
H197 C190 0.930 . S
H198 C221 0.930 . S
H199 C222 0.929 . S
O200 Tb156 2.465 . S
O200 C220 1.264 . S
O201 Tb156 2.387 . S
O201 C212 1.264 . S
O202 Tb167 2.349 . S
O202 C212 1.243 . S
O203 Tb156 2.428 . S
O203 C220 1.256 . S
O204 Tb156 2.308 . S
O204 C219 1.266 . S
O205 Tb167 2.393 . S
O205 C219 1.248 . S
O206 Tb167 2.465 . S
O206 C231 1.264 . S
O207 Tb167 2.387 . S
O207 C223 1.264 . S
O208 Tb156 2.349 . S
O208 C223 1.243 . S
O209 Tb167 2.428 . S
O209 C231 1.256 . S
O210 Tb167 2.308 . S
O210 C230 1.266 . S
O211 Tb156 2.393 . S
O211 C230 1.248 . S
C212 O201 1.264 . S
C212 O202 1.243 . S
C213 C216 1.399 . S
C213 C218 1.383 . S
C213 C220 1.496 . S
C214 C215 1.399 . S
C214 C218 1.389 . S
C215 C214 1.399 . S
C215 C217 1.380 . S
C215 H232 0.929 . S
C216 C213 1.399 . S
C216 C217 1.392 . S
C216 H233 0.929 . S
C217 C215 1.380 . S
C217 C216 1.392 . S
C217 H234 0.929 . S
C218 C213 1.383 . S
C218 C214 1.389 . S
C218 H235 0.931 . S
C219 O204 1.266 . S
C219 O205 1.248 . S
C220 Tb156 2.802 . S
C220 O200 1.264 . S
C220 O203 1.256 . S
C220 C213 1.496 . S
C221 C188 1.448 . S
C221 H198 0.930 . S
C221 C222 1.328 . S
C222 C193 1.427 . S
C222 H199 0.929 . S
C222 C221 1.328 . S
C223 O207 1.264 . S
C223 O208 1.243 . S
C224 C227 1.399 . S
C224 C228 1.383 . S
C224 C231 1.496 . S
C225 C226 1.399 . S
C225 C228 1.389 . S
C226 C225 1.399 . S
C226 C229 1.380 . S
C226 H236 0.929 . S
C227 C224 1.399 . S
C227 C229 1.392 . S
C227 H237 0.929 . S
C228 C224 1.383 . S
C228 C225 1.389 . S
C228 H238 0.931 . S
C229 C226 1.380 . S
C229 C227 1.392 . S
C229 H239 0.929 . S
C230 O210 1.266 . S
C230 O211 1.248 . S
C231 Tb167 2.802 . S
C231 O206 1.264 . S
C231 O209 1.256 . S
C231 C224 1.496 . S
H232 C215 0.929 . S
H233 C216 0.929 . S
H234 C217 0.929 . S
H235 C218 0.931 . S
H236 C226 0.929 . S
H237 C227 0.929 . S
H238 C228 0.931 . S
H239 C229 0.929 . S
Tb240 N269 2.617 . S
Tb240 N275 2.572 . S
Tb240 O284 2.465 . S
Tb240 O285 2.387 . S
Tb240 O287 2.428 . S
Tb240 O288 2.308 . S
Tb240 O292 2.349 . S
Tb240 O295 2.393 . S
Tb240 C304 2.802 . S
C241 N242 1.379 . S
C241 C244 1.416 . S
C241 C248 1.424 . S
N242 C241 1.379 . S
N242 C245 1.334 . S
N242 Tb251 2.617 . S
C243 C245 1.390 . S
C243 C246 1.339 . S
C243 H263 0.930 . S
C244 C241 1.416 . S
C244 C246 1.416 . S
C244 C250 1.448 . S
C245 N242 1.334 . S
C245 C243 1.390 . S
C245 H256 0.930 . S
C246 C243 1.339 . S
C246 C244 1.416 . S
C246 H267 0.930 . S
C247 C248 1.413 . S
C247 C249 1.427 . S
C247 C253 1.416 . S
C248 C241 1.424 . S
C248 C247 1.413 . S
C248 N252 1.361 . S
C249 C247 1.427 . S
C249 C250 1.328 . S
C249 H264 0.929 . S
C250 C244 1.448 . S
C250 C249 1.328 . S
C250 H265 0.930 . S
Tb251 N242 2.617 . S
Tb251 N252 2.572 . S
Tb251 O286 2.349 1_655 S
Tb251 O289 2.393 . S
Tb251 O290 2.465 . S
Tb251 O291 2.387 . S
Tb251 O293 2.428 . S
Tb251 O294 2.308 1_655 S
Tb251 C315 2.802 . S
N252 C248 1.361 . S
N252 Tb251 2.572 . S
N252 C254 1.340 . S
C253 C247 1.416 . S
C253 C255 1.332 . S
C253 H261 0.931 . S
C254 N252 1.340 . S
C254 C255 1.407 . S
C254 H260 0.930 . S
C255 C253 1.332 . S
C255 C254 1.407 . S
C255 H257 0.929 . S
H256 C245 0.930 . S
H257 C255 0.929 . S
H258 C273 0.930 . S
H259 C280 0.929 . S
H260 C254 0.930 . S
H261 C253 0.931 . S
H262 C276 0.930 . S
H263 C243 0.930 . S
H264 C249 0.929 . S
H265 C250 0.930 . S
H266 C271 0.930 . S
H267 C246 0.930 . S
H268 C279 0.931 . S
N269 Tb240 2.617 . S
N269 C270 1.379 . S
N269 C273 1.334 . S
C270 N269 1.379 . S
C270 C272 1.416 . S
C270 C278 1.424 . S
C271 H266 0.930 . S
C271 C273 1.390 . S
C271 C274 1.339 . S
C272 C270 1.416 . S
C272 C274 1.416 . S
C272 C305 1.448 . S
C273 H258 0.930 . S
C273 N269 1.334 . S
C273 C271 1.390 . S
C274 C271 1.339 . S
C274 C272 1.416 . S
C274 H281 0.930 . S
N275 Tb240 2.572 . S
N275 C276 1.340 . S
N275 C278 1.361 . S
C276 H262 0.930 . S
C276 N275 1.340 . S
C276 C280 1.407 1_565 S
C277 C278 1.413 . S
C277 C279 1.416 1_565 S
C277 C306 1.427 . S
C278 C270 1.424 . S
C278 N275 1.361 . S
C278 C277 1.413 . S
C279 H268 0.931 . S
C279 C277 1.416 1_545 S
C279 C280 1.332 . S
C280 H259 0.929 . S
C280 C276 1.407 1_545 S
C280 C279 1.332 . S
H281 C274 0.930 . S
H282 C305 0.930 . S
H283 C306 0.929 1_545 S
O284 Tb240 2.465 . S
O284 C304 1.264 . S
O285 Tb240 2.387 . S
O285 C296 1.264 . S
O286 Tb251 2.349 1_455 S
O286 C296 1.243 . S
O287 Tb240 2.428 . S
O287 C304 1.256 . S
O288 Tb240 2.308 . S
O288 C303 1.266 1_455 S
O289 Tb251 2.393 . S
O289 C303 1.248 . S
O290 Tb251 2.465 . S
O290 C315 1.264 . S
O291 Tb251 2.387 . S
O291 C307 1.264 . S
O292 Tb240 2.349 . S
O292 C307 1.243 1_455 S
O293 Tb251 2.428 . S
O293 C315 1.256 . S
O294 Tb251 2.308 1_455 S
O294 C314 1.266 . S
O295 Tb240 2.393 . S
O295 C314 1.248 . S
C296 O285 1.264 . S
C296 O286 1.243 . S
C297 C300 1.399 . S
C297 C302 1.383 . S
C297 C304 1.496 . S
C298 C299 1.399 . S
C298 C302 1.389 . S
C299 C298 1.399 . S
C299 C301 1.380 . S
C299 H316 0.929 . S
C300 C297 1.399 . S
C300 C301 1.392 . S
C300 H317 0.929 . S
C301 C299 1.380 . S
C301 C300 1.392 . S
C301 H318 0.929 . S
C302 C297 1.383 . S
C302 C298 1.389 . S
C302 H319 0.931 . S
C303 O288 1.266 1_655 S
C303 O289 1.248 . S
C304 Tb240 2.802 . S
C304 O284 1.264 . S
C304 O287 1.256 . S
C304 C297 1.496 . S
C305 C272 1.448 . S
C305 H282 0.930 . S
C305 C306 1.328 . S
C306 C277 1.427 . S
C306 H283 0.929 1_565 S
C306 C305 1.328 . S
C307 O291 1.264 . S
C307 O292 1.243 1_655 S
C308 C311 1.399 . S
C308 C312 1.383 . S
C308 C315 1.496 . S
C309 C310 1.399 . S
C309 C312 1.389 . S
C310 C309 1.399 . S
C310 C313 1.380 . S
C310 H320 0.929 . S
C311 C308 1.399 . S
C311 C313 1.392 . S
C311 H321 0.929 . S
C312 C308 1.383 . S
C312 C309 1.389 . S
C312 H322 0.931 . S
C313 C310 1.380 . S
C313 C311 1.392 . S
C313 H323 0.929 . S
C314 O294 1.266 . S
C314 O295 1.248 . S
C315 Tb251 2.802 . S
C315 O290 1.264 . S
C315 O293 1.256 . S
C315 C308 1.496 . S
H316 C299 0.929 . S
H317 C300 0.929 . S
H318 C301 0.929 . S
H319 C302 0.931 . S
H320 C310 0.929 . S
H321 C311 0.929 . S
H322 C312 0.931 . S
H323 C313 0.929 . S
Tb324 N353 2.617 . S
Tb324 N359 2.572 . S
Tb324 O368 2.465 . S
Tb324 O369 2.387 . S
Tb324 O371 2.428 . S
Tb324 O372 2.308 . S
Tb324 O376 2.349 . S
Tb324 O379 2.393 . S
Tb324 C388 2.802 . S
C325 N326 1.379 . S
C325 C328 1.416 . S
C325 C332 1.424 . S
N326 C325 1.379 . S
N326 C329 1.334 . S
N326 Tb335 2.617 . S
C327 C329 1.390 . S
C327 C330 1.339 . S
C327 H347 0.930 . S
C328 C325 1.416 . S
C328 C330 1.416 . S
C328 C334 1.448 . S
C329 N326 1.334 . S
C329 C327 1.390 . S
C329 H340 0.930 . S
C330 C327 1.339 . S
C330 C328 1.416 . S
C330 H351 0.930 . S
C331 C332 1.413 . S
C331 C333 1.427 . S
C331 C337 1.416 . S
C332 C325 1.424 . S
C332 C331 1.413 . S
C332 N336 1.361 . S
C333 C331 1.427 . S
C333 C334 1.328 . S
C333 H348 0.929 . S
C334 C328 1.448 . S
C334 C333 1.328 . S
C334 H349 0.930 . S
Tb335 N326 2.617 . S
Tb335 N336 2.572 . S
Tb335 O370 2.349 . S
Tb335 O373 2.393 . S
Tb335 O374 2.465 . S
Tb335 O375 2.387 . S
Tb335 O377 2.428 . S
Tb335 O378 2.308 . S
Tb335 C399 2.802 . S
N336 C332 1.361 . S
N336 Tb335 2.572 . S
N336 C338 1.340 . S
C337 C331 1.416 . S
C337 C339 1.332 . S
C337 H345 0.931 . S
C338 N336 1.340 . S
C338 C339 1.407 . S
C338 H344 0.930 . S
C339 C337 1.332 . S
C339 C338 1.407 . S
C339 H341 0.929 . S
H340 C329 0.930 . S
H341 C339 0.929 . S
H342 C357 0.930 . S
H343 C364 0.929 . S
H344 C338 0.930 . S
H345 C337 0.931 . S
H346 C360 0.930 . S
H347 C327 0.930 . S
H348 C333 0.929 . S
H349 C334 0.930 . S
H350 C355 0.930 . S
H351 C330 0.930 . S
H352 C363 0.931 . S
N353 Tb324 2.617 . S
N353 C354 1.379 . S
N353 C357 1.334 . S
C354 N353 1.379 . S
C354 C356 1.416 . S
C354 C362 1.424 . S
C355 H350 0.930 . S
C355 C357 1.390 . S
C355 C358 1.339 . S
C356 C354 1.416 . S
C356 C358 1.416 . S
C356 C389 1.448 . S
C357 H342 0.930 . S
C357 N353 1.334 . S
C357 C355 1.390 . S
C358 C355 1.339 . S
C358 C356 1.416 . S
C358 H365 0.930 . S
N359 Tb324 2.572 . S
N359 C360 1.340 . S
N359 C362 1.361 . S
C360 H346 0.930 . S
C360 N359 1.340 . S
C360 C364 1.407 . S
C361 C362 1.413 . S
C361 C363 1.416 . S
C361 C390 1.427 . S
C362 C354 1.424 . S
C362 N359 1.361 . S
C362 C361 1.413 . S
C363 H352 0.931 . S
C363 C361 1.416 . S
C363 C364 1.332 . S
C364 H343 0.929 . S
C364 C360 1.407 . S
C364 C363 1.332 . S
H365 C358 0.930 . S
H366 C389 0.930 . S
H367 C390 0.929 . S
O368 Tb324 2.465 . S
O368 C388 1.264 . S
O369 Tb324 2.387 . S
O369 C380 1.264 . S
O370 Tb335 2.349 . S
O370 C380 1.243 . S
O371 Tb324 2.428 . S
O371 C388 1.256 . S
O372 Tb324 2.308 . S
O372 C387 1.266 . S
O373 Tb335 2.393 . S
O373 C387 1.248 . S
O374 Tb335 2.465 . S
O374 C399 1.264 . S
O375 Tb335 2.387 . S
O375 C391 1.264 . S
O376 Tb324 2.349 . S
O376 C391 1.243 . S
O377 Tb335 2.428 . S
O377 C399 1.256 . S
O378 Tb335 2.308 . S
O378 C398 1.266 . S
O379 Tb324 2.393 . S
O379 C398 1.248 . S
C380 O369 1.264 . S
C380 O370 1.243 . S
C381 C384 1.399 . S
C381 C386 1.383 . S
C381 C388 1.496 . S
C382 C383 1.399 . S
C382 C386 1.389 . S
C383 C382 1.399 . S
C383 C385 1.380 . S
C383 H400 0.929 . S
C384 C381 1.399 . S
C384 C385 1.392 . S
C384 H401 0.929 . S
C385 C383 1.380 . S
C385 C384 1.392 . S
C385 H402 0.929 . S
C386 C381 1.383 . S
C386 C382 1.389 . S
C386 H403 0.931 . S
C387 O372 1.266 . S
C387 O373 1.248 . S
C388 Tb324 2.802 . S
C388 O368 1.264 . S
C388 O371 1.256 . S
C388 C381 1.496 . S
C389 C356 1.448 . S
C389 H366 0.930 . S
C389 C390 1.328 . S
C390 C361 1.427 . S
C390 H367 0.929 . S
C390 C389 1.328 . S
C391 O375 1.264 . S
C391 O376 1.243 . S
C392 C395 1.399 . S
C392 C396 1.383 . S
C392 C399 1.496 . S
C393 C394 1.399 . S
C393 C396 1.389 . S
C394 C393 1.399 . S
C394 C397 1.380 . S
C394 H404 0.929 . S
C395 C392 1.399 . S
C395 C397 1.392 . S
C395 H405 0.929 . S
C396 C392 1.383 . S
C396 C393 1.389 . S
C396 H406 0.931 . S
C397 C394 1.380 . S
C397 C395 1.392 . S
C397 H407 0.929 . S
C398 O378 1.266 . S
C398 O379 1.248 . S
C399 Tb335 2.802 . S
C399 O374 1.264 . S
C399 O377 1.256 . S
C399 C392 1.496 . S
H400 C383 0.929 . S
H401 C384 0.929 . S
H402 C385 0.929 . S
H403 C386 0.931 . S
H404 C394 0.929 . S
H405 C395 0.929 . S
H406 C396 0.931 . S
H407 C397 0.929 . S
C408 C409 1.363 . S
C408 C414 1.379 1_565 S
C408 N416 1.356 . S
C409 C408 1.363 . S
C409 C415 1.363 . S
C410 C411 1.363 . S
C410 C415 1.379 1_545 S
C410 N417 1.356 1_455 S
C411 C410 1.363 . S
C411 C414 1.363 . S
N412 C414 1.356 . S
N412 H424 0.984 . S
N412 H425 0.985 . S
N413 C415 1.356 . S
N413 H418 0.984 . S
N413 H419 0.985 . S
C414 C408 1.379 1_545 S
C414 C411 1.363 . S
C414 N412 1.356 . S
C415 C409 1.363 . S
C415 C410 1.379 1_565 S
C415 N413 1.356 . S
N416 C408 1.356 . S
N416 H422 0.984 . S
N416 H423 0.984 . S
N417 C410 1.356 1_655 S
N417 H420 0.984 . S
N417 H421 0.985 . S
H418 N413 0.984 . S
H419 N413 0.985 . S
H420 N417 0.984 . S
H421 N417 0.985 . S
H422 N416 0.984 . S
H423 N416 0.984 . S
H424 N412 0.984 . S
H425 N412 0.985 . S
C426 C427 1.363 . S
C426 C432 1.379 . S
C426 N434 1.356 . S
C427 C426 1.363 . S
C427 C433 1.363 . S
C428 C429 1.363 . S
C428 C433 1.379 . S
C428 N435 1.356 . S
C429 C428 1.363 . S
C429 C432 1.363 . S
N430 C432 1.356 . S
N430 H442 0.984 . S
N430 H443 0.985 . S
N431 C433 1.356 . S
N431 H436 0.984 . S
N431 H437 0.985 . S
C432 C426 1.379 . S
C432 C429 1.363 . S
C432 N430 1.356 . S
C433 C427 1.363 . S
C433 C428 1.379 . S
C433 N431 1.356 . S
N434 C426 1.356 . S
N434 H440 0.984 . S
N434 H441 0.984 . S
N435 C428 1.356 . S
N435 H438 0.984 . S
N435 H439 0.985 . S
H436 N431 0.984 . S
H437 N431 0.985 . S
H438 N435 0.984 . S
H439 N435 0.985 . S
H440 N434 0.984 . S
H441 N434 0.984 . S
H442 N430 0.984 . S
H443 N430 0.985 . S
C444 C445 1.363 . S
C444 C450 1.379 . S
C444 N452 1.356 . S
C445 C444 1.363 . S
C445 C451 1.363 . S
C446 C447 1.363 . S
C446 C451 1.379 . S
C446 N453 1.356 . S
C447 C446 1.363 . S
C447 C450 1.363 . S
N448 C450 1.356 . S
N448 H460 0.984 . S
N448 H461 0.985 . S
N449 C451 1.356 . S
N449 H454 0.984 . S
N449 H455 0.985 . S
C450 C444 1.379 . S
C450 C447 1.363 . S
C450 N448 1.356 . S
C451 C445 1.363 . S
C451 C446 1.379 . S
C451 N449 1.356 . S
N452 C444 1.356 . S
N452 H458 0.984 . S
N452 H459 0.984 . S
N453 C446 1.356 . S
N453 H456 0.984 . S
N453 H457 0.985 . S
H454 N449 0.984 . S
H455 N449 0.985 . S
H456 N453 0.984 . S
H457 N453 0.985 . S
H458 N452 0.984 . S
H459 N452 0.984 . S
H460 N448 0.984 . S
H461 N448 0.985 . S
C462 C463 1.363 . S
C462 C468 1.379 1_565 S
C462 N470 1.356 . S
C463 C462 1.363 . S
C463 C469 1.363 . S
C464 C465 1.363 . S
C464 C469 1.379 1_545 S
C464 N471 1.356 . S
C465 C464 1.363 . S
C465 C468 1.363 . S
N466 C468 1.356 . S
N466 H478 0.984 . S
N466 H479 0.985 . S
N467 C469 1.356 . S
N467 H472 0.984 . S
N467 H473 0.985 . S
C468 C462 1.379 1_545 S
C468 C465 1.363 . S
C468 N466 1.356 . S
C469 C463 1.363 . S
C469 C464 1.379 1_565 S
C469 N467 1.356 . S
N470 C462 1.356 . S
N470 H476 0.984 . S
N470 H477 0.984 . S
N471 C464 1.356 . S
N471 H474 0.984 . S
N471 H475 0.985 . S
H472 N467 0.984 . S
H473 N467 0.985 . S
H474 N471 0.984 . S
H475 N471 0.985 . S
H476 N470 0.984 . S
H477 N470 0.984 . S
H478 N466 0.984 . S
H479 N466 0.985 . S
C480 C481 1.363 . S
C480 C486 1.379 . S
C480 N488 1.356 . S
C481 C480 1.363 . S
C481 C487 1.363 1_545 S
C482 C483 1.363 . S
C482 C487 1.379 . S
C482 N489 1.356 . S
C483 C482 1.363 . S
C483 C486 1.363 1_565 S
N484 C486 1.356 . S
N484 H496 0.984 . S
N484 H497 0.985 1_545 S
N485 C487 1.356 . S
N485 H490 0.984 1_565 S
N485 H491 0.985 . S
C486 C480 1.379 . S
C486 C483 1.363 1_545 S
C486 N484 1.356 . S
C487 C481 1.363 1_565 S
C487 C482 1.379 . S
C487 N485 1.356 . S
N488 C480 1.356 . S
N488 H494 0.984 . S
N488 H495 0.984 . S
N489 C482 1.356 . S
N489 H492 0.984 . S
N489 H493 0.985 . S
H490 N485 0.984 1_545 S
H491 N485 0.985 . S
H492 N489 0.984 . S
H493 N489 0.985 . S
H494 N488 0.984 . S
H495 N488 0.984 . S
H496 N484 0.984 . S
H497 N484 0.985 1_565 S
C498 C499 1.363 . S
C498 C504 1.379 . S
C498 N506 1.356 . S
C499 C498 1.363 . S
C499 C505 1.363 . S
C500 C501 1.363 . S
C500 C505 1.379 . S
C500 N507 1.356 . S
C501 C500 1.363 . S
C501 C504 1.363 . S
N502 C504 1.356 . S
N502 H514 0.984 . S
N502 H515 0.985 . S
N503 C505 1.356 . S
N503 H508 0.984 . S
N503 H509 0.985 . S
C504 C498 1.379 . S
C504 C501 1.363 . S
C504 N502 1.356 . S
C505 C499 1.363 . S
C505 C500 1.379 . S
C505 N503 1.356 . S
N506 C498 1.356 . S
N506 H512 0.984 . S
N506 H513 0.984 . S
N507 C500 1.356 . S
N507 H510 0.984 . S
N507 H511 0.985 . S
H508 N503 0.984 . S
H509 N503 0.985 . S
H510 N507 0.984 . S
H511 N507 0.985 . S
H512 N506 0.984 . S
H513 N506 0.984 . S
H514 N502 0.984 . S
H515 N502 0.985 . S
C516 C517 1.363 . S
C516 C522 1.379 . S
C516 N524 1.356 . S
C517 C516 1.363 . S
C517 C523 1.363 . S
C518 C519 1.363 . S
C518 C523 1.379 . S
C518 N525 1.356 . S
C519 C518 1.363 . S
C519 C522 1.363 . S
N520 C522 1.356 . S
N520 H532 0.984 . S
N520 H533 0.985 . S
N521 C523 1.356 . S
N521 H526 0.984 . S
N521 H527 0.985 . S
C522 C516 1.379 . S
C522 C519 1.363 . S
C522 N520 1.356 . S
C523 C517 1.363 . S
C523 C518 1.379 . S
C523 N521 1.356 . S
N524 C516 1.356 . S
N524 H530 0.984 . S
N524 H531 0.984 . S
N525 C518 1.356 . S
N525 H528 0.984 . S
N525 H529 0.985 . S
H526 N521 0.984 . S
H527 N521 0.985 . S
H528 N525 0.984 . S
H529 N525 0.985 . S
H530 N524 0.984 . S
H531 N524 0.984 . S
H532 N520 0.984 . S
H533 N520 0.985 . S
C534 C535 1.363 1_565 S
C534 C540 1.379 . S
C534 N542 1.356 . S
C535 C534 1.363 1_545 S
C535 C541 1.363 . S
C536 C537 1.363 1_545 S
C536 C541 1.379 . S
C536 N543 1.356 . S
C537 C536 1.363 1_565 S
C537 C540 1.363 . S
N538 C540 1.356 . S
N538 H550 0.984 . S
N538 H551 0.985 . S
N539 C541 1.356 . S
N539 H544 0.984 . S
N539 H545 0.985 . S
C540 C534 1.379 . S
C540 C537 1.363 . S
C540 N538 1.356 . S
C541 C535 1.363 . S
C541 C536 1.379 . S
C541 N539 1.356 . S
N542 C534 1.356 . S
N542 H548 0.984 . S
N542 H549 0.984 1_565 S
N543 C536 1.356 . S
N543 H546 0.984 1_545 S
N543 H547 0.985 . S
H544 N539 0.984 . S
H545 N539 0.985 . S
H546 N543 0.984 1_565 S
H547 N543 0.985 . S
H548 N542 0.984 . S
H549 N542 0.984 1_545 S
H550 N538 0.984 . S
H551 N538 0.985 . S
C552 C553 1.363 . S
C552 C558 1.379 1_556 S
C552 N560 1.356 . S
C553 C552 1.363 . S
C553 C559 1.363 . S
C554 C555 1.363 . S
C554 C559 1.379 1_554 S
C554 N561 1.356 . S
C555 C554 1.363 . S
C555 C558 1.363 . S
N556 C558 1.356 . S
N556 H568 0.984 . S
N556 H569 0.985 . S
N557 C559 1.356 . S
N557 H562 0.984 . S
N557 H563 0.985 . S
C558 C552 1.379 1_554 S
C558 C555 1.363 . S
C558 N556 1.356 . S
C559 C553 1.363 . S
C559 C554 1.379 1_556 S
C559 N557 1.356 . S
N560 C552 1.356 . S
N560 H566 0.984 . S
N560 H567 0.984 . S
N561 C554 1.356 . S
N561 H564 0.984 . S
N561 H565 0.985 . S
H562 N557 0.984 . S
H563 N557 0.985 . S
H564 N561 0.984 . S
H565 N561 0.985 . S
H566 N560 0.984 . S
H567 N560 0.984 . S
H568 N556 0.984 . S
H569 N556 0.985 . S
C570 C571 1.363 . S
C570 C576 1.379 . S
C570 N578 1.356 . S
C571 C570 1.363 . S
C571 C577 1.363 . S
C572 C573 1.363 . S
C572 C577 1.379 . S
C572 N579 1.356 . S
C573 C572 1.363 . S
C573 C576 1.363 . S
N574 C576 1.356 . S
N574 H586 0.984 . S
N574 H587 0.985 . S
N575 C577 1.356 . S
N575 H580 0.984 . S
N575 H581 0.985 . S
C576 C570 1.379 . S
C576 C573 1.363 . S
C576 N574 1.356 . S
C577 C571 1.363 . S
C577 C572 1.379 . S
C577 N575 1.356 . S
N578 C570 1.356 . S
N578 H584 0.984 . S
N578 H585 0.984 . S
N579 C572 1.356 . S
N579 H582 0.984 . S
N579 H583 0.985 . S
H580 N575 0.984 . S
H581 N575 0.985 . S
H582 N579 0.984 . S
H583 N579 0.985 . S
H584 N578 0.984 . S
H585 N578 0.984 . S
H586 N574 0.984 . S
H587 N574 0.985 . S
C588 C589 1.363 . S
C588 C594 1.379 1_554 S
C588 N596 1.356 . S
C589 C588 1.363 . S
C589 C595 1.363 . S
C590 C591 1.363 . S
C590 C595 1.379 1_556 S
C590 N597 1.356 . S
C591 C590 1.363 . S
C591 C594 1.363 . S
N592 C594 1.356 . S
N592 H604 0.984 . S
N592 H605 0.985 . S
N593 C595 1.356 . S
N593 H598 0.984 . S
N593 H599 0.985 . S
C594 C588 1.379 1_556 S
C594 C591 1.363 . S
C594 N592 1.356 . S
C595 C589 1.363 . S
C595 C590 1.379 1_554 S
C595 N593 1.356 . S
N596 C588 1.356 . S
N596 H602 0.984 . S
N596 H603 0.984 . S
N597 C590 1.356 . S
N597 H600 0.984 . S
N597 H601 0.985 . S
H598 N593 0.984 . S
H599 N593 0.985 . S
H600 N597 0.984 . S
H601 N597 0.985 . S
H602 N596 0.984 . S
H603 N596 0.984 . S
H604 N592 0.984 . S
H605 N592 0.985 . S
C606 C607 1.363 . S
C606 C612 1.379 . S
C606 N614 1.356 . S
C607 C606 1.363 . S
C607 C613 1.363 . S
C608 C609 1.363 . S
C608 C613 1.379 . S
C608 N615 1.356 . S
C609 C608 1.363 . S
C609 C612 1.363 . S
N610 C612 1.356 . S
N610 H622 0.984 . S
N610 H623 0.985 . S
N611 C613 1.356 . S
N611 H616 0.984 . S
N611 H617 0.985 . S
C612 C606 1.379 . S
C612 C609 1.363 . S
C612 N610 1.356 . S
C613 C607 1.363 . S
C613 C608 1.379 . S
C613 N611 1.356 . S
N614 C606 1.356 . S
N614 H620 0.984 . S
N614 H621 0.984 . S
N615 C608 1.356 . S
N615 H618 0.984 . S
N615 H619 0.985 . S
H616 N611 0.984 . S
H617 N611 0.985 . S
H618 N615 0.984 . S
H619 N615 0.985 . S
H620 N614 0.984 . S
H621 N614 0.984 . S
H622 N610 0.984 . S
H623 N610 0.985 . S
C624 C625 1.363 . S
C624 C630 1.379 1_554 S
C624 N632 1.356 . S
C625 C624 1.363 . S
C625 C631 1.363 . S
C626 C627 1.363 . S
C626 C631 1.379 1_556 S
C626 N633 1.356 . S
C627 C626 1.363 . S
C627 C630 1.363 . S
N628 C630 1.356 . S
N628 H640 0.984 . S
N628 H641 0.985 . S
N629 C631 1.356 . S
N629 H634 0.984 . S
N629 H635 0.985 . S
C630 C624 1.379 1_556 S
C630 C627 1.363 . S
C630 N628 1.356 . S
C631 C625 1.363 . S
C631 C626 1.379 1_554 S
C631 N629 1.356 . S
N632 C624 1.356 . S
N632 H638 0.984 . S
N632 H639 0.984 . S
N633 C626 1.356 . S
N633 H636 0.984 . S
N633 H637 0.985 . S
H634 N629 0.984 . S
H635 N629 0.985 . S
H636 N633 0.984 . S
H637 N633 0.985 . S
H638 N632 0.984 . S
H639 N632 0.984 . S
H640 N628 0.984 . S
H641 N628 0.985 . S
C642 C643 1.363 . S
C642 C648 1.379 . S
C642 N650 1.356 . S
C643 C642 1.363 . S
C643 C649 1.363 . S
C644 C645 1.363 . S
C644 C649 1.379 . S
C644 N651 1.356 . S
C645 C644 1.363 . S
C645 C648 1.363 . S
N646 C648 1.356 . S
N646 H658 0.984 . S
N646 H659 0.985 . S
N647 C649 1.356 . S
N647 H652 0.984 . S
N647 H653 0.985 . S
C648 C642 1.379 . S
C648 C645 1.363 . S
C648 N646 1.356 . S
C649 C643 1.363 . S
C649 C644 1.379 . S
C649 N647 1.356 . S
N650 C642 1.356 . S
N650 H656 0.984 . S
N650 H657 0.984 . S
N651 C644 1.356 . S
N651 H654 0.984 . S
N651 H655 0.985 . S
H652 N647 0.984 . S
H653 N647 0.985 . S
H654 N651 0.984 . S
H655 N651 0.985 . S
H656 N650 0.984 . S
H657 N650 0.984 . S
H658 N646 0.984 . S
H659 N646 0.985 . S
C660 C661 1.363 . S
C660 C666 1.379 . S
C660 N668 1.356 . S
C661 C660 1.363 . S
C661 C667 1.363 . S
C662 C663 1.363 . S
C662 C667 1.379 1_554 S
C662 N669 1.356 . S
C663 C662 1.363 . S
C663 C666 1.363 1_554 S
N664 C666 1.356 1_554 S
N664 H676 0.984 . S
N664 H677 0.985 . S
N665 C667 1.356 . S
N665 H670 0.984 . S
N665 H671 0.985 . S
C666 C660 1.379 . S
C666 C663 1.363 1_556 S
C666 N664 1.356 1_556 S
C667 C661 1.363 . S
C667 C662 1.379 1_556 S
C667 N665 1.356 . S
N668 C660 1.356 . S
N668 H674 0.984 . S
N668 H675 0.984 . S
N669 C662 1.356 . S
N669 H672 0.984 . S
N669 H673 0.985 . S
H670 N665 0.984 . S
H671 N665 0.985 . S
H672 N669 0.984 . S
H673 N669 0.985 . S
H674 N668 0.984 . S
H675 N668 0.984 . S
H676 N664 0.984 . S
H677 N664 0.985 . S
C678 C679 1.363 . S
C678 C684 1.379 . S
C678 N686 1.356 . S
C679 C678 1.363 . S
C679 C685 1.363 . S
C680 C681 1.363 . S
C680 C685 1.379 . S
C680 N687 1.356 . S
C681 C680 1.363 . S
C681 C684 1.363 . S
N682 C684 1.356 . S
N682 H694 0.984 . S
N682 H695 0.985 . S
N683 C685 1.356 . S
N683 H688 0.984 . S
N683 H689 0.985 . S
C684 C678 1.379 . S
C684 C681 1.363 . S
C684 N682 1.356 . S
C685 C679 1.363 . S
C685 C680 1.379 . S
C685 N683 1.356 . S
N686 C678 1.356 . S
N686 H692 0.984 . S
N686 H693 0.984 . S
N687 C680 1.356 . S
N687 H690 0.984 . S
N687 H691 0.985 . S
H688 N683 0.984 . S
H689 N683 0.985 . S
H690 N687 0.984 . S
H691 N687 0.985 . S
H692 N686 0.984 . S
H693 N686 0.984 . S
H694 N682 0.984 . S
H695 N682 0.985 . S
C696 C697 1.363 . S
C696 C702 1.379 . S
C696 N704 1.356 . S
C697 C696 1.363 . S
C697 C703 1.363 . S
C698 C699 1.363 . S
C698 C703 1.379 . S
C698 N705 1.356 . S
C699 C698 1.363 . S
C699 C702 1.363 . S
N700 C702 1.356 . S
N700 H712 0.984 . S
N700 H713 0.985 . S
N701 C703 1.356 . S
N701 H706 0.984 . S
N701 H707 0.985 . S
C702 C696 1.379 . S
C702 C699 1.363 . S
C702 N700 1.356 . S
C703 C697 1.363 . S
C703 C698 1.379 . S
C703 N701 1.356 . S
N704 C696 1.356 . S
N704 H710 0.984 . S
N704 H711 0.984 . S
N705 C698 1.356 . S
N705 H708 0.984 . S
N705 H709 0.985 . S
H706 N701 0.984 . S
H707 N701 0.985 . S
H708 N705 0.984 . S
H709 N705 0.985 . S
H710 N704 0.984 . S
H711 N704 0.984 . S
H712 N700 0.984 . S
H713 N700 0.985 . S
C714 C715 1.363 . S
C714 C720 1.379 . S
C714 N722 1.356 . S
C715 C714 1.363 . S
C715 C721 1.363 . S
C716 C717 1.363 . S
C716 C721 1.379 . S
C716 N723 1.356 . S
C717 C716 1.363 . S
C717 C720 1.363 . S
N718 C720 1.356 . S
N718 H730 0.984 . S
N718 H731 0.985 . S
N719 C721 1.356 . S
N719 H724 0.984 . S
N719 H725 0.985 . S
C720 C714 1.379 . S
C720 C717 1.363 . S
C720 N718 1.356 . S
C721 C715 1.363 . S
C721 C716 1.379 . S
C721 N719 1.356 . S
N722 C714 1.356 . S
N722 H728 0.984 . S
N722 H729 0.984 . S
N723 C716 1.356 . S
N723 H726 0.984 . S
N723 H727 0.985 . S
H724 N719 0.984 . S
H725 N719 0.985 . S
H726 N723 0.984 . S
H727 N723 0.985 . S
H728 N722 0.984 . S
H729 N722 0.984 . S
H730 N718 0.984 . S
H731 N718 0.985 . S
C732 C733 1.363 . S
C732 C738 1.379 . S
C732 N740 1.356 . S
C733 C732 1.363 . S
C733 C739 1.363 . S
C734 C735 1.363 . S
C734 C739 1.379 . S
C734 N741 1.356 . S
C735 C734 1.363 . S
C735 C738 1.363 . S
N736 C738 1.356 . S
N736 H748 0.984 . S
N736 H749 0.985 . S
N737 C739 1.356 . S
N737 H742 0.984 . S
N737 H743 0.985 . S
C738 C732 1.379 . S
C738 C735 1.363 . S
C738 N736 1.356 . S
C739 C733 1.363 . S
C739 C734 1.379 . S
C739 N737 1.356 . S
N740 C732 1.356 . S
N740 H746 0.984 . S
N740 H747 0.984 . S
N741 C734 1.356 . S
N741 H744 0.984 . S
N741 H745 0.985 . S
H742 N737 0.984 . S
H743 N737 0.985 . S
H744 N741 0.984 . S
H745 N741 0.985 . S
H746 N740 0.984 . S
H747 N740 0.984 . S
H748 N736 0.984 . S
H749 N736 0.985 . S
C750 C751 1.363 . S
C750 C756 1.379 . S
C750 N758 1.356 . S
C751 C750 1.363 . S
C751 C757 1.363 . S
C752 C753 1.363 . S
C752 C757 1.379 . S
C752 N759 1.356 . S
C753 C752 1.363 . S
C753 C756 1.363 . S
N754 C756 1.356 . S
N754 H766 0.984 1_655 S
N754 H767 0.985 . S
N755 C757 1.356 . S
N755 H760 0.984 . S
N755 H761 0.985 . S
C756 C750 1.379 . S
C756 C753 1.363 . S
C756 N754 1.356 . S
C757 C751 1.363 . S
C757 C752 1.379 . S
C757 N755 1.356 . S
N758 C750 1.356 . S
N758 H764 0.984 . S
N758 H765 0.984 . S
N759 C752 1.356 . S
N759 H762 0.984 . S
N759 H763 0.985 . S
H760 N755 0.984 . S
H761 N755 0.985 . S
H762 N759 0.984 . S
H763 N759 0.985 . S
H764 N758 0.984 . S
H765 N758 0.984 . S
H766 N754 0.984 1_455 S
H767 N754 0.985 . S
C768 C769 1.363 . S
C768 C774 1.379 . S
C768 N776 1.356 . S
C769 C768 1.363 . S
C769 C775 1.363 . S
C770 C771 1.363 . S
C770 C775 1.379 . S
C770 N777 1.356 . S
C771 C770 1.363 . S
C771 C774 1.363 . S
N772 C774 1.356 . S
N772 H784 0.984 . S
N772 H785 0.985 . S
N773 C775 1.356 . S
N773 H778 0.984 . S
N773 H779 0.985 . S
C774 C768 1.379 . S
C774 C771 1.363 . S
C774 N772 1.356 . S
C775 C769 1.363 . S
C775 C770 1.379 . S
C775 N773 1.356 . S
N776 C768 1.356 . S
N776 H782 0.984 . S
N776 H783 0.984 . S
N777 C770 1.356 . S
N777 H780 0.984 . S
N777 H781 0.985 1_655 S
H778 N773 0.984 . S
H779 N773 0.985 . S
H780 N777 0.984 . S
H781 N777 0.985 1_455 S
H782 N776 0.984 . S
H783 N776 0.984 . S
H784 N772 0.984 . S
H785 N772 0.985 . S
C786 C787 1.363 . S
C786 C792 1.379 . S
C786 N794 1.356 . S
C787 C786 1.363 . S
C787 C793 1.363 . S
C788 C789 1.363 . S
C788 C793 1.379 . S
C788 N795 1.356 . S
C789 C788 1.363 . S
C789 C792 1.363 . S
N790 C792 1.356 . S
N790 H802 0.984 . S
N790 H803 0.985 . S
N791 C793 1.356 . S
N791 H796 0.984 . S
N791 H797 0.985 . S
C792 C786 1.379 . S
C792 C789 1.363 . S
C792 N790 1.356 . S
C793 C787 1.363 . S
C793 C788 1.379 . S
C793 N791 1.356 . S
N794 C786 1.356 . S
N794 H800 0.984 . S
N794 H801 0.984 . S
N795 C788 1.356 . S
N795 H798 0.984 . S
N795 H799 0.985 . S
H796 N791 0.984 . S
H797 N791 0.985 . S
H798 N795 0.984 . S
H799 N795 0.985 . S
H800 N794 0.984 . S
H801 N794 0.984 . S
H802 N790 0.984 . S
H803 N790 0.985 . S
C804 C805 1.363 . S
C804 C810 1.379 . S
C804 N812 1.356 . S
C805 C804 1.363 . S
C805 C811 1.363 . S
C806 C807 1.363 . S
C806 C811 1.379 . S
C806 N813 1.356 . S
C807 C806 1.363 . S
C807 C810 1.363 . S
N808 C810 1.356 . S
N808 H820 0.984 . S
N808 H821 0.985 . S
N809 C811 1.356 . S
N809 H814 0.984 . S
N809 H815 0.985 . S
C810 C804 1.379 . S
C810 C807 1.363 . S
C810 N808 1.356 . S
C811 C805 1.363 . S
C811 C806 1.379 . S
C811 N809 1.356 . S
N812 C804 1.356 . S
N812 H818 0.984 . S
N812 H819 0.984 . S
N813 C806 1.356 . S
N813 H816 0.984 . S
N813 H817 0.985 . S
H814 N809 0.984 . S
H815 N809 0.985 . S
H816 N813 0.984 . S
H817 N813 0.985 . S
H818 N812 0.984 . S
H819 N812 0.984 . S
H820 N808 0.984 . S
H821 N808 0.985 . S
C822 C823 1.363 . S
C822 C828 1.379 . S
C822 N830 1.356 . S
C823 C822 1.363 . S
C823 C829 1.363 . S
C824 C825 1.363 . S
C824 C829 1.379 . S
C824 N831 1.356 . S
C825 C824 1.363 . S
C825 C828 1.363 . S
N826 C828 1.356 . S
N826 H838 0.984 . S
N826 H839 0.985 . S
N827 C829 1.356 . S
N827 H832 0.984 . S
N827 H833 0.985 . S
C828 C822 1.379 . S
C828 C825 1.363 . S
C828 N826 1.356 . S
C829 C823 1.363 . S
C829 C824 1.379 . S
C829 N827 1.356 . S
N830 C822 1.356 . S
N830 H836 0.984 . S
N830 H837 0.984 . S
N831 C824 1.356 . S
N831 H834 0.984 . S
N831 H835 0.985 . S
H832 N827 0.984 . S
H833 N827 0.985 . S
H834 N831 0.984 . S
H835 N831 0.985 . S
H836 N830 0.984 . S
H837 N830 0.984 . S
H838 N826 0.984 . S
H839 N826 0.985 . S
C409 C58 1.478 . S
C411 C146 1.456 . S
C429 C230 1.457 . S
C427 C68 1.478 . S
C447 C223 1.468 . S
C445 C40 1.469 . S
C463 C50 1.468 . S
C465 C139 1.469 . S
C483 C303 1.458 . S
C481 C23 1.481 . S
C501 C387 1.457 . S
C499 C32 1.480 . S
C517 C5 1.471 . S
C519 C380 1.470 . S
C535 C14 1.470 . S
C537 C296 1.469 . S
C555 C130 1.324 . S
C553 C13 1.502 . S
C573 C214 1.324 . S
C571 C4 1.502 . S
C591 C225 1.406 . S
C589 C31 1.521 . S
C609 C141 1.406 . S
C607 C22 1.521 . S
C627 C309 1.326 . S
C625 C49 1.502 . S
C643 C41 1.504 . S
C645 C393 1.325 . S
C663 C382 1.407 . S
C661 C67 1.521 . S
C679 C59 1.523 . S
C681 C298 1.407 . S
C699 C128 1.519 . S
C697 C7 1.516 . S
C717 C212 1.518 . S
C715 C16 1.515 . S
C733 C25 1.513 . S
C735 C219 1.499 . S
C753 C135 1.498 . S
C751 C34 1.511 . S
C771 C307 1.519 . S
C769 C43 1.518 . S
C787 C52 1.515 . S
C789 C391 1.520 . S
C805 C61 1.515 . S
C807 C398 1.500 . S
C823 C70 1.513 . S
C825 C314 1.501 . S
