# Generated by pormake.
# Topology zzz, (3,6)-cn, num edge types: 1
# Building blocks:
#     Node 0, Type 0, BuildingBlock: QEWDON_clean_linker_0, # of connection points: 3
#     Node 1, Type 0, BuildingBlock: QEWDON_clean_linker_0, # of connection points: 3
#     Node 2, Type 0, BuildingBlock: QEWDON_clean_linker_0, # of connection points: 3
#     Node 3, Type 0, BuildingBlock: QEWDON_clean_linker_0, # of connection points: 3
#     Node 4, Type 0, BuildingBlock: QEWDON_clean_linker_0, # of connection points: 3
#     Node 5, Type 0, BuildingBlock: QEWDON_clean_linker_0, # of connection points: 3
#     Node 6, Type 0, BuildingBlock: QEWDON_clean_linker_0, # of connection points: 3
#     Node 7, Type 0, BuildingBlock: QEWDON_clean_linker_0, # of connection points: 3
#     Node 8, Type 1, BuildingBlock: CUKXOW_clean_sbu_0, # of connection points: 6
#     Node 9, Type 1, BuildingBlock: CUKXOW_clean_sbu_0, # of connection points: 6
#     Node 10, Type 1, BuildingBlock: CUKXOW_clean_sbu_0, # of connection points: 6
#     Node 11, Type 1, BuildingBlock: CUKXOW_clean_sbu_0, # of connection points: 6
#     Edge 12, Type (0, 1), BuildingBlock: AJUNOK_clean_linker_0, # of connection points: 2
#     Edge 13, Type (0, 1), BuildingBlock: AJUNOK_clean_linker_0, # of connection points: 2
#     Edge 14, Type (0, 1), BuildingBlock: AJUNOK_clean_linker_0, # of connection points: 2
#     Edge 15, Type (0, 1), BuildingBlock: AJUNOK_clean_linker_0, # of connection points: 2
#     Edge 16, Type (0, 1), BuildingBlock: AJUNOK_clean_linker_0, # of connection points: 2
#     Edge 17, Type (0, 1), BuildingBlock: AJUNOK_clean_linker_0, # of connection points: 2
#     Edge 18, Type (0, 1), BuildingBlock: AJUNOK_clean_linker_0, # of connection points: 2
#     Edge 19, Type (0, 1), BuildingBlock: AJUNOK_clean_linker_0, # of connection points: 2
#     Edge 20, Type (0, 1), BuildingBlock: AJUNOK_clean_linker_0, # of connection points: 2
#     Edge 21, Type (0, 1), BuildingBlock: AJUNOK_clean_linker_0, # of connection points: 2
#     Edge 22, Type (0, 1), BuildingBlock: AJUNOK_clean_linker_0, # of connection points: 2
#     Edge 23, Type (0, 1), BuildingBlock: AJUNOK_clean_linker_0, # of connection points: 2
#     Edge 24, Type (0, 1), BuildingBlock: AJUNOK_clean_linker_0, # of connection points: 2
#     Edge 25, Type (0, 1), BuildingBlock: AJUNOK_clean_linker_0, # of connection points: 2
#     Edge 26, Type (0, 1), BuildingBlock: AJUNOK_clean_linker_0, # of connection points: 2
#     Edge 27, Type (0, 1), BuildingBlock: AJUNOK_clean_linker_0, # of connection points: 2
#     Edge 28, Type (0, 1), BuildingBlock: AJUNOK_clean_linker_0, # of connection points: 2
#     Edge 29, Type (0, 1), BuildingBlock: AJUNOK_clean_linker_0, # of connection points: 2
#     Edge 30, Type (0, 1), BuildingBlock: AJUNOK_clean_linker_0, # of connection points: 2
#     Edge 31, Type (0, 1), BuildingBlock: AJUNOK_clean_linker_0, # of connection points: 2
#     Edge 32, Type (0, 1), BuildingBlock: AJUNOK_clean_linker_0, # of connection points: 2
#     Edge 33, Type (0, 1), BuildingBlock: AJUNOK_clean_linker_0, # of connection points: 2
#     Edge 34, Type (0, 1), BuildingBlock: AJUNOK_clean_linker_0, # of connection points: 2
#     Edge 35, Type (0, 1), BuildingBlock: AJUNOK_clean_linker_0, # of connection points: 2
# Relax obj value: 0.022
# Max RMSD: 0.092
# Mean RMSD: 0.034
data_MOF--net-zzz--node1-CUKXOW_clean_sbu_0--node2-QEWDON_clean_linker_0--edge1-AJUNOK_clean_linker_0
_symmetry_space_group_name_H-M    P1
_symmetry_Int_Tables_number       1
_symmetry_cell_setting            triclinic
loop_
_symmetry_equiv_pos_as_xyz
'x, y, z'
_cell_length_a     39.652189
_cell_length_b     41.955174
_cell_length_c     12.02781
_cell_angle_alpha  94.450354
_cell_angle_beta   85.809109
_cell_angle_gamma 93.378686
loop_
_atom_site_label
_atom_site_type_symbol
_atom_site_fract_x
_atom_site_fract_y
_atom_site_fract_z
_atom_type_partial_charge
H0 H 0.80118 0.53952 0.97184 0.0
C1 C 0.80597 0.53227 0.0535 0.0
C2 C 0.83729 0.51991 0.0707 0.0
C3 C 0.78194 0.53743 0.14513 0.0
H4 H 0.86829 0.50293 0.18993 0.0
C5 C 0.84359 0.51138 0.1766 0.0
C6 C 0.82161 0.5191 0.26893 0.0
C7 C 0.79057 0.53174 0.25351 0.0
C8 C 0.74974 0.55271 0.13244 0.0
H9 H 0.77389 0.53839 0.326 0.0
C10 C 0.72516 0.53836 0.06239 0.0
C11 C 0.69328 0.5517 0.06212 0.0
C12 C 0.74257 0.58102 0.19806 0.0
H13 H 0.76111 0.59258 0.25193 0.0
C14 C 0.71136 0.59452 0.19598 0.0
H15 H 0.73024 0.51637 0.01213 0.0
C16 C 0.68675 0.57984 0.12937 0.0
H17 H 0.66254 0.59059 0.12982 0.0
H18 H 0.70609 0.61627 0.24718 0.0
H19 H 0.99604 0.81061 0.86212 0.0
C20 C 1.00177 0.81647 0.94829 0.0
C21 C 0.01629 0.84692 0.98019 0.0
C22 C 0.99181 0.79476 0.0304 0.0
H23 H 0.03204 0.87881 0.11698 0.0
C24 C 0.022 0.85483 0.09228 0.0
C25 C 1.00883 0.83523 0.17501 0.0
C26 C 0.9942 0.80488 0.14439 0.0
C27 C 0.97176 0.76483 0.00056 0.0
H28 H 0.98284 0.79008 0.2086 0.0
C29 C 0.98711 0.73618 0.96065 0.0
C30 C 0.9668 0.70812 0.93488 0.0
C31 C 0.93636 0.76504 0.01556 0.0
H32 H 0.9242 0.78675 0.04669 0.0
C33 C 0.91635 0.73734 -0.00902 0.0
H34 H 1.01445 0.7358 0.94913 0.0
C35 C 0.93138 0.70911 0.95104 0.0
H36 H 0.91525 0.68785 0.93306 0.0
H37 H 0.88905 0.73774 0.00308 0.0
H38 H 0.72561 0.99715 0.97555 0.0
C39 C 0.71913 1.00386 0.06298 0.0
C40 C 0.68864 0.01875 0.09486 0.0
C41 C 0.73961 0.99508 0.1459 0.0
H42 H 0.65689 0.03848 0.23188 0.0
C43 C 0.68043 0.02696 0.2078 0.0
C44 C 0.699 0.01649 0.29062 0.0
C45 C 0.72864 1.00044 0.25984 0.0
C46 C 0.76928 0.97553 0.11535 0.0
H47 H 0.74253 0.99134 0.3239 0.0
C48 C 0.79935 0.98827 0.06131 0.0
C49 C 0.82756 0.96913 0.03769 0.0
C50 C 0.76762 0.94372 0.14478 0.0
H51 H 0.7448 0.93355 0.18656 0.0
C52 C 0.79526 0.92474 0.12065 0.0
H53 H 0.80082 0.01282 0.03847 0.0
C54 C 0.82498 0.93729 0.06767 0.0
H55 H 0.84624 0.92212 0.0511 0.0
H56 H 0.7937 0.90024 0.14368 0.0
H57 H 0.5471 0.7244 0.92819 0.0
C58 C 0.54824 0.71582 0.01047 0.0
C59 C 0.53145 0.68648 0.03522 0.0
C60 C 0.56906 0.73247 0.08859 0.0
H61 H 0.52286 0.6514 0.15665 0.0
C62 C 0.53457 0.67471 0.13912 0.0
C63 C 0.55659 0.68984 0.21408 0.0
C64 C 0.57353 0.71896 0.19008 0.0
C65 C 0.58969 0.76152 0.05818 0.0
H66 H 0.59105 0.73037 0.24789 0.0
C67 C 0.57467 0.78806 0.02117 0.0
C68 C 0.59489 0.81519 -0.00909 0.0
C69 C 0.625 0.76248 0.06458 0.0
H70 H 0.63717 0.74227 0.09191 0.0
C71 C 0.64503 0.78922 0.03367 0.0
H72 H 0.54746 0.78764 0.01616 0.0
C73 C 0.63013 0.8154 -0.00332 0.0
H74 H 0.6461 0.83604 0.97368 0.0
H75 H 0.67221 0.78965 0.03829 0.0
H76 H 0.22055 0.52458 0.50945 0.0
C77 C 0.21549 0.51762 0.42336 0.0
C78 C 0.18344 0.50385 0.39783 0.0
C79 C 0.23997 0.52498 0.3365 0.0
H80 H 0.15177 0.48755 0.26562 0.0
C81 C 0.17704 0.49631 0.2859 0.0
C82 C 0.20033 0.50442 0.19868 0.0
C83 C 0.23197 0.51879 0.22406 0.0
C84 C 0.27069 0.54526 0.36185 0.0
H85 H 0.24957 0.52663 0.15714 0.0
C86 C 0.29872 0.53313 0.40756 0.0
C87 C 0.32797 0.55324 0.42662 0.0
C88 C 0.27188 0.57748 0.3374 0.0
H89 H 0.25059 0.5872 0.30247 0.0
C90 C 0.30037 0.59747 0.35801 0.0
H91 H 0.29811 0.50813 0.42482 0.0
C92 C 0.32819 0.58551 0.402 0.0
H93 H 0.35002 0.60162 0.41716 0.0
H94 H 0.30096 0.62234 0.33935 0.0
H95 H 1.00485 0.21827 0.58589 0.0
C96 C 0.02006 0.21126 0.5104 0.0
C97 C 0.03177 0.18009 0.49423 0.0
C98 C 0.02596 0.2324 0.42416 0.0
H99 H 0.05621 0.14571 0.38046 0.0
C100 C 0.04928 0.17045 0.39365 0.0
C101 C 0.05335 0.19009 0.30473 0.0
C102 C 0.04264 0.22152 0.32154 0.0
C103 C 1.00813 0.26267 0.42877 0.0
H104 H 0.04503 0.23677 0.25232 0.0
C105 C 0.01616 0.28963 0.5023 0.0
C106 C 0.99898 0.31818 0.49895 0.0
C107 C 0.98294 0.26452 0.35361 0.0
H108 H 0.97636 0.24415 0.29675 0.0
C109 C 0.96607 0.29251 0.35034 0.0
H110 H 0.03553 0.28843 0.56065 0.0
C111 C 0.97404 0.3191 0.42186 0.0
H112 H 0.96075 0.3407 0.41621 0.0
H113 H 0.94683 0.29366 0.29162 0.0
H114 H 0.32578 0.01768 0.51859 0.0
C115 C 0.33683 0.02603 0.44027 0.0
C116 C 0.37154 0.03565 0.42969 0.0
C117 C 0.31741 0.02374 0.34606 0.0
H118 H 0.41269 0.05128 0.31665 0.0
C119 C 0.38567 0.04536 0.32699 0.0
C120 C 0.36721 0.04199 0.23214 0.0
C121 C 0.33308 0.03125 0.24153 0.0
C122 C 0.28335 1.00706 0.35032 0.0
H123 H 0.31931 0.02695 0.16668 0.0
C124 C 0.25548 0.01946 0.41639 0.0
C125 C 0.2232 1.00345 0.41232 0.0
C126 C 0.27879 0.9782 0.28433 0.0
H127 H 0.29989 0.96811 0.2339 0.0
C128 C 0.24715 0.96201 0.28278 0.0
H129 H 0.25862 0.04181 0.46704 0.0
C130 C 0.21951 0.97457 0.3458 0.0
H131 H 0.19504 0.96172 0.34238 0.0
H132 H 0.24396 0.93977 0.23179 0.0
H133 H 0.52046 0.30945 0.43283 0.0
C134 C 0.50688 0.32019 0.37167 0.0
C135 C 0.50177 0.35319 0.3847 0.0
C136 C 0.49547 0.3017 0.27665 0.0
H137 H 0.48467 0.39355 0.31049 0.0
C138 C 0.48631 0.36771 0.30275 0.0
C139 C 0.47559 0.35029 0.20745 0.0
C140 C 0.4789 0.31712 0.19682 0.0
C141 C 0.50302 0.26714 0.2539 0.0
H142 H 0.46953 0.30368 0.12389 0.0
C143 C 0.50401 0.24624 0.34055 0.0
C144 C 0.51079 0.21366 0.31505 0.0
C145 C 0.50976 0.25487 0.14242 0.0
H146 H 0.511 0.27015 0.07363 0.0
C147 C 0.51545 0.22267 0.11716 0.0
H148 H 0.49984 0.25524 0.42697 0.0
C149 C 0.51565 0.20217 0.20231 0.0
H150 H 0.52007 0.17718 0.17973 0.0
H151 H 0.52005 0.21359 0.03096 0.0
Tb152 Tb 0.01799 0.99087 0.63547 0.0
C153 C 0.09244 0.02073 0.63943 0.0
Tb154 Tb 0.03641 0.03614 0.84269 0.0
O155 O 0.01965 0.03131 0.5277 0.0
O156 O 1.00969 0.03798 0.70008 0.0
O157 O 0.07098 1.00038 0.58711 0.0
C158 C 0.05084 0.09145 0.95845 0.0
O159 O 0.08454 0.03682 0.737 0.0
C160 C 0.03614 0.97498 0.8657 0.0
C161 C 0.96187 1.00477 0.83679 0.0
O162 O 0.06412 0.06442 0.97139 0.0
O163 O 0.02892 0.08688 0.88327 0.0
O164 O 0.02999 0.99597 0.9497 0.0
O165 O 0.04485 0.9892 0.77903 0.0
O166 O 0.98199 0.0277 0.88433 0.0
O167 O 0.97193 0.98648 0.74635 0.0
C168 C 1.00766 0.93462 0.52052 0.0
O169 O 0.99121 0.96015 0.51029 0.0
O170 O 0.02994 0.94117 0.59361 0.0
C171 C 0.01665 0.05242 0.61305 0.0
Tb172 Tb 0.53024 0.05996 0.7155 0.0
C173 C 0.59087 0.01898 0.62093 0.0
Tb174 Tb 0.53289 0.98976 0.78387 0.0
O175 O 0.5765 0.07597 0.79821 0.0
O176 O 0.54711 0.03659 0.84968 0.0
O177 O 0.57097 0.04198 0.60216 0.0
C178 C 0.54762 0.93304 0.84986 0.0
O179 O 0.58241 0.99747 0.69457 0.0
C180 C 0.48636 0.99802 0.64623 0.0
C181 C 0.47513 0.03301 0.89266 0.0
O182 O 0.55192 0.94182 0.74848 0.0
O183 O 0.53507 0.95631 0.91442 0.0
O184 O 0.48631 0.97363 0.70592 0.0
O185 O 0.51474 0.01324 0.65211 0.0
O186 O 0.49405 1.00847 0.90551 0.0
O187 O 0.48277 0.05425 0.81707 0.0
C188 C 0.52007 0.11174 0.60876 0.0
O189 O 0.51454 0.10964 0.71606 0.0
O190 O 0.53052 0.0848 0.56302 0.0
C191 C 0.57522 0.0518 0.85979 0.0
Tb192 Tb 0.53412 0.538 0.61384 0.0
C193 C 0.45338 0.5238 0.6137 0.0
Tb194 Tb 0.49653 0.50099 0.80091 0.0
O195 O 0.55433 0.49389 0.53045 0.0
O196 O 0.50895 0.4929 0.62877 0.0
O197 O 0.48116 0.53932 0.57164 0.0
C198 C 0.47956 0.44878 0.90925 0.0
O199 O 0.4541 0.50473 0.69678 0.0
C200 C 0.49979 0.56347 0.83592 0.0
C201 C 0.57706 0.51749 0.80548 0.0
O202 O 0.46503 0.4759 0.92839 0.0
O203 O 0.50412 0.45177 0.8331 0.0
O204 O 0.47639 0.54514 0.88478 0.0
O205 O 0.52151 0.54596 0.78573 0.0
O206 O 0.54948 0.50185 0.84897 0.0
O207 O 0.5762 0.53521 0.71892 0.0
C208 C 0.55129 0.59031 0.50611 0.0
O209 O 0.56504 0.56286 0.48442 0.0
O210 O 0.52738 0.58761 0.58445 0.0
C211 C 0.5309 0.47554 0.57894 0.0
Tb212 Tb 0.98373 0.51323 0.65146 0.0
C213 C 1.01303 0.44792 0.68962 0.0
Tb214 Tb 0.03762 0.51354 0.82577 0.0
O215 O 0.02274 0.50172 0.51673 0.0
O216 O 0.03498 0.52797 0.66386 0.0
O217 O 0.98701 0.46216 0.65588 0.0
C218 C 0.09788 0.50951 0.9072 0.0
O219 O 0.03771 0.46395 0.74419 0.0
C220 C 0.9741 0.51154 0.90326 0.0
C221 C 1.00409 0.57812 0.7971 0.0
O222 O 0.07053 0.49254 0.9357 0.0
O223 O 0.09098 0.52948 0.83622 0.0
O224 O 0.99861 0.5237 0.96279 0.0
O225 O 0.98657 0.49895 0.81317 0.0
O226 O 0.03042 0.56504 0.83491 0.0
O227 O 0.98145 0.56124 0.73692 0.0
C228 C 0.92511 0.5183 0.56143 0.0
O229 O 0.95298 0.53497 0.53701 0.0
O230 O 0.9306 0.498 0.63294 0.0
C231 C 0.04722 0.51462 0.57465 0.0
C232 C 0.18785 0.01651 0.59058 0.0
C233 C 0.19238 0.01629 0.47331 0.0
C234 C 0.15566 0.02058 0.64632 0.0
C235 C 0.12716 0.02421 0.58602 0.0
H236 H 0.2087 1.01135 0.63851 0.0
H237 H 0.15264 0.01856 0.73578 0.0
S238 S 0.12702 0.03067 0.28045 0.0
N239 N 0.1667 0.02421 0.30109 0.0
N240 N 0.10649 0.03147 0.40507 0.0
C241 C 0.13206 0.02653 0.47007 0.0
C242 C 0.16463 0.02267 0.41388 0.0
C243 C 0.54117 0.17022 0.38874 0.0
C244 C 0.51437 0.19109 0.4029 0.0
C245 C 0.54297 0.14526 0.45807 0.0
C246 C 0.51863 0.14055 0.54671 0.0
H247 H 0.56051 0.17258 0.32098 0.0
H248 H 0.56346 0.1292 0.44103 0.0
S249 S 0.44463 0.18936 0.62609 0.0
N250 N 0.46342 0.20589 0.51581 0.0
N251 N 0.4679 0.15951 0.6499 0.0
C252 C 0.49276 0.16215 0.56676 0.0
C253 C 0.49042 0.18737 0.49415 0.0
C254 C 0.39089 0.54928 0.41637 0.0
C255 C 0.35899 0.5414 0.46948 0.0
C256 C 0.421 0.54262 0.46204 0.0
C257 C 0.42071 0.52765 0.56295 0.0
H258 H 0.39264 0.56142 0.33979 0.0
H259 H 0.44474 0.5499 0.4183 0.0
S260 S 0.34366 0.50057 0.73251 0.0
N261 N 0.32878 0.51672 0.62637 0.0
N262 N 0.38533 0.50374 0.71209 0.0
C263 C 0.3889 0.51836 0.61474 0.0
C264 C 0.35812 0.5253 0.56795 0.0
C265 C 0.97821 0.36328 0.62823 0.0
C266 C 1.00589 0.34774 0.57303 0.0
C267 C 0.98157 0.39503 0.67276 0.0
C268 C 1.01289 0.4126 0.66602 0.0
H269 H 0.95315 0.35144 0.63052 0.0
H270 H 0.95898 0.40645 0.708 0.0
S271 S 0.0944 0.38167 0.54595 0.0
N272 N 0.06652 0.35133 0.5244 0.0
N273 N 0.07307 0.41087 0.61281 0.0
C274 C 0.04151 0.3965 0.62119 0.0
C275 C 0.03796 0.36408 0.57366 0.0
C276 C 0.87468 0.9634 0.88907 0.0
C277 C 0.86 0.98138 0.98166 0.0
C278 C 0.90711 0.97164 0.84235 0.0
C279 C 0.92665 0.99824 0.88632 0.0
H280 H 0.86116 0.94227 0.8535 0.0
H281 H 0.91711 0.95641 0.77235 0.0
S282 S 0.89915 0.05397 0.12692 0.0
N283 N 0.86685 0.02753 0.11442 0.0
N284 N 0.92792 0.04332 0.02671 0.0
C285 C 0.91185 0.01702 0.97744 0.0
C286 C 0.87854 1.0086 0.02483 0.0
C287 C 0.58949 0.85405 0.84707 0.0
C288 C 0.57979 0.84366 0.95361 0.0
C289 C 0.57817 0.88261 0.81337 0.0
C290 C 0.55728 0.9021 0.88584 0.0
H291 H 0.60633 0.84017 0.78991 0.0
H292 H 0.5866 0.88984 0.73091 0.0
S293 S 0.52446 0.88524 0.1733 0.0
N294 N 0.54758 0.85455 0.13062 0.0
N295 N 0.52672 0.9086 0.06828 0.0
C296 C 0.54703 0.89175 -0.00785 0.0
C297 C 0.55816 0.86239 0.02576 0.0
C298 C 0.63448 0.52761 0.04604 0.0
C299 C 0.66607 0.53683 -0.00642 0.0
C300 C 0.60629 0.51908 0.98376 0.0
C301 C 0.60847 0.52011 0.86674 0.0
H302 H 0.63123 0.52826 0.13641 0.0
H303 H 0.5822 0.51356 0.02843 0.0
S304 S 0.68627 0.54013 0.68909 0.0
N305 N 0.69859 0.54425 0.81793 0.0
N306 N 0.64563 0.52877 0.70037 0.0
C307 C 0.6404 0.52777 0.813 0.0
C308 C 0.66919 0.53598 0.87651 0.0
C309 C 1.0021 0.66096 0.95431 0.0
C310 C 0.98139 0.67738 0.8903 0.0
C311 C 1.01064 0.62923 0.92173 0.0
C312 C 0.99861 0.61283 0.82437 0.0
H313 H 1.01033 0.67211 0.03271 0.0
H314 H 0.02547 0.61703 0.97578 0.0
S315 S 0.94775 0.64729 0.61999 0.0
N316 N 0.9522 0.67625 0.71965 0.0
N317 N 0.96803 0.61713 0.65821 0.0
C318 C 0.97956 0.62986 0.75666 0.0
C319 C 0.97103 0.66198 0.78965 0.0
C320 C 0.9928 0.13452 0.54352 0.0
C321 C 0.02182 0.15409 0.56819 0.0
C322 C 0.99067 0.10176 0.56248 0.0
C323 C 0.01735 0.0876 0.60751 0.0
H324 H 0.97328 0.14377 0.49837 0.0
H325 H 0.96884 0.0871 0.53635 0.0
S326 S 0.09722 0.12921 0.696 0.0
N327 N 0.07622 0.15758 0.64868 0.0
N328 N 0.07252 0.09625 0.68324 0.0
C329 C 0.04524 0.10745 0.64028 0.0
C330 C 0.04724 0.14073 0.62184 0.0
C331 C 0.42307 0.0502 0.53497 0.0
C332 C 0.3958 0.02819 0.51137 0.0
C333 C 0.45232 0.04046 0.57882 0.0
C334 C 0.45525 1.00854 0.60219 0.0
H335 H 0.42264 0.0747 0.51276 0.0
H336 H 0.47282 0.05794 0.59301 0.0
S337 S 0.38992 0.94214 0.5659 0.0
N338 N 0.37295 0.97336 0.5213 0.0
N339 N 0.42731 0.95543 0.60728 0.0
C340 C 0.42729 0.98681 0.58626 0.0
C341 C 0.39766 0.99658 0.54058 0.0
C342 C 0.54616 0.39103 0.45741 0.0
C343 C 0.51422 0.37518 0.47625 0.0
C344 C 0.55218 0.42308 0.49747 0.0
C345 C 0.52637 0.4403 0.55685 0.0
H346 H 0.5652 0.3799 0.40043 0.0
H347 H 0.57636 0.43508 0.47466 0.0
S348 S 0.43994 0.40762 0.64146 0.0
N349 N 0.45842 0.37722 0.57165 0.0
N350 N 0.46869 0.4377 0.64186 0.0
C351 C 0.49547 0.42359 0.58543 0.0
C352 C 0.48983 0.39081 0.54744 0.0
C353 C 0.12909 0.4773 0.46913 0.0
C354 C 0.15325 0.50331 0.47919 0.0
C355 C 0.09475 0.48109 0.50043 0.0
C356 C 0.08366 0.51032 0.54963 0.0
H357 H 0.13621 0.45486 0.42547 0.0
H358 H 0.07662 0.46135 0.48272 0.0
S359 S 0.13715 0.58368 0.61728 0.0
N360 N 0.16389 0.55816 0.55478 0.0
N361 N 0.09968 0.56426 0.62239 0.0
C362 C 0.10792 0.53525 0.57304 0.0
C363 C 0.14276 0.53185 0.53709 0.0
C364 C 0.9917 0.89635 0.93543 0.0
C365 C 0.01723 0.87442 0.90999 0.0
C366 C 0.99761 0.9288 0.91695 0.0
C367 C 0.02875 0.9402 0.8682 0.0
H368 H 0.96834 0.88902 0.98133 0.0
H369 H 0.97825 0.94528 0.94567 0.0
S370 S 0.10173 0.89189 0.76935 0.0
N371 N 0.07357 0.86588 0.82424 0.0
N372 N 0.08381 0.9267 0.7815 0.0
C373 C 0.05312 0.91806 0.83119 0.0
C374 C 0.04753 0.88512 0.85367 0.0
C375 C 0.66583 0.04391 0.93494 0.0
C376 C 0.66175 0.02185 0.01748 0.0
C377 C 0.63767 0.05308 0.88264 0.0
C378 C 0.60461 0.04075 0.91229 0.0
H379 H 0.69051 0.05533 0.91504 0.0
H380 H 0.64172 0.07056 0.82064 0.0
S381 S 0.58097 0.98193 0.12267 0.0
N382 N 0.6226 0.98646 0.1215 0.0
N383 N 0.56979 1.00558 0.02974 0.0
C384 C 0.60052 0.01806 -0.0077 0.0
C385 C 0.62909 1.00806 0.04291 0.0
C386 C 0.48676 0.64745 0.96595 0.0
C387 C 0.51904 0.66281 0.94806 0.0
C388 C 0.47995 0.61581 0.923 0.0
C389 C 0.50528 0.59846 0.86166 0.0
H390 H 0.46784 0.65878 0.02286 0.0
H391 H 0.45547 0.60422 0.9445 0.0
S392 S 0.59267 0.62954 0.78093 0.0
N393 N 0.57506 0.65987 0.85397 0.0
N394 N 0.56301 0.60029 0.77703 0.0
C395 C 0.53666 0.61464 0.83511 0.0
C396 C 0.54325 0.64698 0.87669 0.0
C397 C 0.89156 0.54728 0.01302 0.0
C398 C 0.86742 0.52192 -0.00863 0.0
C399 C 0.92611 0.54401 0.98299 0.0
C400 C 0.93754 0.51556 0.92794 0.0
H401 H 0.88407 0.56858 0.06342 0.0
H402 H 0.94404 0.56347 0.00602 0.0
S403 S 0.88437 0.44357 0.84083 0.0
N404 N 0.85718 0.46844 0.90489 0.0
N405 N 0.92196 0.46271 0.84366 0.0
C406 C 0.91345 0.49109 0.89745 0.0
C407 C 0.87836 0.49421 0.92997 0.0
C408 C 0.08573 0.15104 0.17828 0.0
C409 C 0.06082 0.17395 0.19184 0.0
C410 C 0.08355 0.12513 0.0978 0.0
C411 C 0.05709 0.1219 0.0257 0.0
H412 H 0.10485 0.1512 0.2383 0.0
H413 H 0.10147 0.10656 0.09676 0.0
S414 S 0.99083 0.1797 0.00688 0.0
N415 N 1.01234 0.19451 0.11327 0.0
N416 N 1.00955 0.1469 0.95767 0.0
C417 C 0.035 0.14699 0.02754 0.0
C418 C 0.03672 0.17296 0.11125 0.0
C419 C 0.396 0.01169 0.07239 0.0
C420 C 0.38705 0.04156 0.12356 0.0
C421 C 0.42409 1.00922 -0.00484 0.0
C422 C 0.44378 0.03659 0.96528 0.0
H423 H 0.3829 0.98989 0.09911 0.0
H424 H 0.43109 0.98564 0.96136 0.0
S425 S 0.42889 0.12054 0.06829 0.0
N426 N 0.39867 0.09908 0.13478 0.0
N427 N 0.45079 0.09469 -0.0141 0.0
C428 C 0.43358 0.06678 0.00959 0.0
C429 C 0.40535 0.06921 0.0898 0.0
C430 C 0.44686 0.39519 0.13575 0.0
C431 C 0.46722 0.36866 0.11343 0.0
C432 C 0.4492 0.42039 0.0651 0.0
C433 C 0.47165 0.41963 0.96932 0.0
H434 H 0.43138 0.39784 0.21364 0.0
H435 H 0.43511 0.44144 0.08981 0.0
S436 S 0.52415 0.35232 0.85925 0.0
N437 N 0.50622 0.34093 0.979 0.0
N438 N 0.50964 0.38769 0.84423 0.0
C439 C 0.48882 0.39153 0.93869 0.0
C440 C 0.48669 0.36604 0.01105 0.0
C441 C 0.16804 0.4758 0.04924 0.0
C442 C 0.18674 0.50369 0.08675 0.0
C443 C 0.14013 0.47764 -0.01446 0.0
C444 C 0.13111 0.50714 0.95249 0.0
H445 H 0.17218 0.4531 0.0819 0.0
H446 H 0.12436 0.45613 0.96779 0.0
S447 S 0.17729 0.58567 0.00274 0.0
N448 N 0.19782 0.56074 0.06957 0.0
N449 N 0.14677 0.56375 0.94245 0.0
C450 C 0.15267 0.53433 0.97435 0.0
C451 C 0.18047 0.53265 0.04248 0.0
C452 C 0.976 0.8717 0.30509 0.0
C453 C 1.00314 0.8513 0.28766 0.0
C454 C 0.97671 0.8978 0.38515 0.0
C455 C 1.00434 0.90401 0.45165 0.0
H456 H 0.9557 0.86934 0.24883 0.0
H457 H 0.95642 0.91417 0.39056 0.0
S458 S 0.07918 0.85476 0.44978 0.0
N459 N 0.05664 0.83711 0.34995 0.0
N460 N 0.05745 0.88523 0.50472 0.0
C461 C 0.03 0.88191 0.44263 0.0
C462 C 0.02953 0.85572 0.35946 0.0
C463 C 0.6663 0.98855 0.44095 0.0
C464 C 0.68214 0.01716 0.40429 0.0
C465 C 0.63789 0.98913 0.51799 0.0
C466 C 0.62438 0.01833 0.55896 0.0
H467 H 0.67367 0.96569 0.40138 0.0
H468 H 0.62489 0.96666 0.53822 0.0
S469 S 0.66116 0.09959 0.50692 0.0
N470 N 0.68582 0.07514 0.42866 0.0
N471 N 0.63241 0.07639 0.57252 0.0
C472 C 0.64226 0.04697 0.53221 0.0
C473 C 0.67131 0.04633 0.45542 0.0
C474 C 0.58375 0.64409 0.28011 0.0
C475 C 0.56478 0.67132 0.30661 0.0
C476 C 0.5811 0.61856 0.34923 0.0
C477 C 0.55933 0.61955 0.4467 0.0
H478 H 0.59827 0.64129 0.20036 0.0
H479 H 0.59431 0.59713 0.32209 0.0
S480 S 0.5093 0.68807 0.56257 0.0
N481 N 0.52717 0.69961 0.44282 0.0
N482 N 0.52266 0.65205 0.57515 0.0
C483 C 0.543 0.64804 0.47972 0.0
C484 C 0.54563 0.67391 0.40891 0.0
C485 C 0.84359 0.49392 0.42677 0.0
C486 C 0.83684 0.52194 0.37739 0.0
C487 C 0.8709 0.49353 0.49452 0.0
C488 C 0.89276 0.52085 0.51119 0.0
H489 H 0.82973 0.47159 0.40446 0.0
H490 H 0.87661 0.47106 0.5258 0.0
S491 S 0.88282 0.60109 0.41342 0.0
N492 N 0.85126 0.57853 0.36198 0.0
N493 N 0.90334 0.5775 0.48565 0.0
C494 C 0.88448 0.54959 0.47047 0.0
C495 C 0.85615 0.55022 0.40473 0.0
loop_
_geom_bond_atom_site_label_1
_geom_bond_atom_site_label_2
_geom_bond_distance
_geom_bond_site_symmetry_2
_ccdc_geom_bond_type
H0 C1 0.949 . S
C1 H0 0.949 . S
C1 C2 1.395 . S
C1 C3 1.391 1_556 S
C2 C1 1.395 . S
C2 C5 1.390 1_556 S
C3 C1 1.391 1_554 S
C3 C7 1.387 . S
C3 C8 1.491 . S
H4 C5 0.950 . S
C5 C2 1.390 1_554 S
C5 H4 0.950 . S
C5 C6 1.378 . S
C6 C5 1.378 . S
C6 C7 1.409 . S
C7 C3 1.387 . S
C7 C6 1.409 . S
C7 H9 0.951 . S
C8 C3 1.491 . S
C8 C10 1.382 . S
C8 C12 1.404 . S
H9 C7 0.951 . S
C10 C8 1.382 . S
C10 C11 1.390 . S
C10 H15 0.949 1_554 S
C11 C10 1.390 . S
C11 C16 1.399 . S
C12 C8 1.404 . S
C12 H13 0.950 . S
C12 C14 1.375 . S
H13 C12 0.950 . S
C14 C12 1.375 . S
C14 C16 1.382 . S
C14 H18 0.950 . S
H15 C10 0.949 1_556 S
C16 C11 1.399 . S
C16 C14 1.382 . S
C16 H17 0.952 . S
H17 C16 0.952 . S
H18 C14 0.950 . S
H19 C20 0.949 . S
C20 H19 0.949 . S
C20 C21 1.395 . S
C20 C22 1.391 1_556 S
C21 C20 1.395 . S
C21 C24 1.390 1_556 S
C22 C20 1.391 1_554 S
C22 C26 1.387 . S
C22 C27 1.491 . S
H23 C24 0.950 . S
C24 C21 1.390 1_554 S
C24 H23 0.950 . S
C24 C25 1.378 . S
C25 C24 1.378 . S
C25 C26 1.409 . S
C26 C22 1.387 . S
C26 C25 1.409 . S
C26 H28 0.951 . S
C27 C22 1.491 . S
C27 C29 1.382 1_554 S
C27 C31 1.404 . S
H28 C26 0.951 . S
C29 C27 1.382 1_556 S
C29 C30 1.390 . S
C29 H34 0.949 . S
C30 C29 1.390 . S
C30 C35 1.399 1_556 S
C31 C27 1.404 . S
C31 H32 0.950 . S
C31 C33 1.375 . S
H32 C31 0.950 . S
C33 C31 1.375 . S
C33 C35 1.382 . S
C33 H37 0.950 . S
H34 C29 0.949 . S
C35 C30 1.399 1_554 S
C35 C33 1.382 . S
C35 H36 0.952 . S
H36 C35 0.952 . S
H37 C33 0.950 . S
H38 C39 0.949 1_556 S
C39 H38 0.949 1_554 S
C39 C40 1.395 . S
C39 C41 1.391 . S
C40 C39 1.395 . S
C40 C43 1.390 . S
C41 C39 1.391 . S
C41 C45 1.387 . S
C41 C46 1.491 . S
H42 C43 0.950 . S
C43 C40 1.390 . S
C43 H42 0.950 . S
C43 C44 1.378 . S
C44 C43 1.378 . S
C44 C45 1.409 . S
C45 C41 1.387 . S
C45 C44 1.409 . S
C45 H47 0.951 . S
C46 C41 1.491 . S
C46 C48 1.382 . S
C46 C50 1.404 . S
H47 C45 0.951 . S
C48 C46 1.382 . S
C48 C49 1.390 . S
C48 H53 0.949 1_554 S
C49 C48 1.390 . S
C49 C54 1.399 . S
C50 C46 1.404 . S
C50 H51 0.950 . S
C50 C52 1.375 . S
H51 C50 0.950 . S
C52 C50 1.375 . S
C52 C54 1.382 . S
C52 H56 0.950 . S
H53 C48 0.949 1_556 S
C54 C49 1.399 . S
C54 C52 1.382 . S
C54 H55 0.952 . S
H55 C54 0.952 . S
H56 C52 0.950 . S
H57 C58 0.949 1_556 S
C58 H57 0.949 1_554 S
C58 C59 1.395 . S
C58 C60 1.391 . S
C59 C58 1.395 . S
C59 C62 1.390 . S
C60 C58 1.391 . S
C60 C64 1.387 . S
C60 C65 1.491 . S
H61 C62 0.950 . S
C62 C59 1.390 . S
C62 H61 0.950 . S
C62 C63 1.378 . S
C63 C62 1.378 . S
C63 C64 1.409 . S
C64 C60 1.387 . S
C64 C63 1.409 . S
C64 H66 0.951 . S
C65 C60 1.491 . S
C65 C67 1.382 . S
C65 C69 1.404 . S
H66 C64 0.951 . S
C67 C65 1.382 . S
C67 C68 1.390 . S
C67 H72 0.949 1_554 S
C68 C67 1.390 . S
C68 C73 1.399 . S
C69 C65 1.404 . S
C69 H70 0.950 . S
C69 C71 1.375 . S
H70 C69 0.950 . S
C71 C69 1.375 . S
C71 C73 1.382 . S
C71 H75 0.950 . S
H72 C67 0.949 1_556 S
C73 C68 1.399 . S
C73 C71 1.382 . S
C73 H74 0.952 . S
H74 C73 0.952 . S
H75 C71 0.950 . S
H76 C77 0.949 . S
C77 H76 0.949 . S
C77 C78 1.395 . S
C77 C79 1.391 . S
C78 C77 1.395 . S
C78 C81 1.390 . S
C79 C77 1.391 . S
C79 C83 1.387 . S
C79 C84 1.491 . S
H80 C81 0.950 . S
C81 C78 1.390 . S
C81 H80 0.950 . S
C81 C82 1.378 . S
C82 C81 1.378 . S
C82 C83 1.409 . S
C83 C79 1.387 . S
C83 C82 1.409 . S
C83 H85 0.951 . S
C84 C79 1.491 . S
C84 C86 1.382 . S
C84 C88 1.404 . S
H85 C83 0.951 . S
C86 C84 1.382 . S
C86 C87 1.390 . S
C86 H91 0.949 . S
C87 C86 1.390 . S
C87 C92 1.399 . S
C88 C84 1.404 . S
C88 H89 0.950 . S
C88 C90 1.375 . S
H89 C88 0.950 . S
C90 C88 1.375 . S
C90 C92 1.382 . S
C90 H94 0.950 . S
H91 C86 0.949 . S
C92 C87 1.399 . S
C92 C90 1.382 . S
C92 H93 0.952 . S
H93 C92 0.952 . S
H94 C90 0.950 . S
H95 C96 0.949 . S
C96 H95 0.949 . S
C96 C97 1.395 . S
C96 C98 1.391 . S
C97 C96 1.395 . S
C97 C100 1.390 . S
C98 C96 1.391 . S
C98 C102 1.387 . S
C98 C103 1.491 . S
H99 C100 0.950 . S
C100 C97 1.390 . S
C100 H99 0.950 . S
C100 C101 1.378 . S
C101 C100 1.378 . S
C101 C102 1.409 . S
C102 C98 1.387 . S
C102 C101 1.409 . S
C102 H104 0.951 . S
C103 C98 1.491 . S
C103 C105 1.382 . S
C103 C107 1.404 . S
H104 C102 0.951 . S
C105 C103 1.382 . S
C105 C106 1.390 . S
C105 H110 0.949 . S
C106 C105 1.390 . S
C106 C111 1.399 . S
C107 C103 1.404 . S
C107 H108 0.950 1_455 S
C107 C109 1.367 1_455 S
H108 C107 0.950 1_655 S
C109 C107 1.367 1_655 S
C109 C111 1.369 1_655 S
C109 H113 0.972 . S
H110 C105 0.949 . S
C111 C106 1.399 . S
C111 C109 1.369 1_455 S
C111 H112 0.952 . S
H112 C111 0.952 . S
H113 C109 0.972 . S
H114 C115 0.949 . S
C115 H114 0.949 . S
C115 C116 1.395 . S
C115 C117 1.391 . S
C116 C115 1.395 . S
C116 C119 1.390 . S
C117 C115 1.391 . S
C117 C121 1.387 . S
C117 C122 1.491 . S
H118 C119 0.950 . S
C119 C116 1.390 . S
C119 H118 0.950 . S
C119 C120 1.378 . S
C120 C119 1.378 . S
C120 C121 1.409 . S
C121 C117 1.387 . S
C121 C120 1.409 . S
C121 H123 0.951 . S
C122 C117 1.491 . S
C122 C124 1.382 . S
C122 C126 1.404 . S
H123 C121 0.951 . S
C124 C122 1.382 . S
C124 C125 1.390 . S
C124 H129 0.949 . S
C125 C124 1.390 . S
C125 C130 1.399 . S
C126 C122 1.404 . S
C126 H127 0.950 . S
C126 C128 1.375 . S
H127 C126 0.950 . S
C128 C126 1.375 . S
C128 C130 1.382 . S
C128 H132 0.950 1_545 S
H129 C124 0.949 . S
C130 C125 1.399 . S
C130 C128 1.382 . S
C130 H131 0.952 . S
H131 C130 0.952 . S
H132 C128 0.950 1_565 S
H133 C134 0.949 . S
C134 H133 0.949 . S
C134 C135 1.395 . S
C134 C136 1.391 . S
C135 C134 1.395 . S
C135 C138 1.390 . S
C136 C134 1.391 . S
C136 C140 1.387 . S
C136 C141 1.491 . S
H137 C138 0.950 . S
C138 C135 1.390 . S
C138 H137 0.950 . S
C138 C139 1.378 . S
C139 C138 1.378 . S
C139 C140 1.409 . S
C140 C136 1.387 . S
C140 C139 1.409 . S
C140 H142 0.951 . S
C141 C136 1.491 . S
C141 C143 1.382 . S
C141 C145 1.404 . S
H142 C140 0.951 . S
C143 C141 1.382 . S
C143 C144 1.390 . S
C143 H148 0.949 . S
C144 C143 1.390 . S
C144 C149 1.399 . S
C145 C141 1.404 . S
C145 H146 0.950 . S
C145 C147 1.375 . S
H146 C145 0.950 . S
C147 C145 1.375 . S
C147 C149 1.382 . S
C147 H151 0.950 . S
H148 C143 0.949 . S
C149 C144 1.399 . S
C149 C147 1.382 . S
C149 H150 0.952 . S
H150 C149 0.952 . S
H151 C147 0.950 . S
Tb152 O155 2.453 1_565 S
Tb152 O156 2.596 1_665 S
Tb152 O157 2.374 1_665 S
Tb152 O165 2.343 1_655 S
Tb152 O167 2.353 1_565 S
Tb152 O169 2.427 . S
Tb152 O170 2.513 1_655 S
C153 O157 1.251 . S
C153 O159 1.263 . S
Tb154 O156 2.343 . S
Tb154 O159 2.353 . S
Tb154 O162 2.427 . S
Tb154 O163 2.513 1_455 S
Tb154 O164 2.453 1_545 S
Tb154 O165 2.596 1_545 S
Tb154 O166 2.374 1_455 S
O155 Tb152 2.453 1_545 S
O155 C171 1.245 1_655 S
O156 Tb152 2.596 1_445 S
O156 Tb154 2.343 . S
O156 C171 1.259 . S
O157 Tb152 2.374 1_445 S
O157 C153 1.251 . S
C158 O162 1.275 . S
C158 O163 1.246 1_455 S
O159 C153 1.263 . S
O159 Tb154 2.353 . S
C160 O164 1.245 . S
C160 O165 1.259 . S
C161 O166 1.250 . S
C161 O167 1.263 . S
O162 Tb154 2.427 . S
O162 C158 1.275 . S
O163 Tb154 2.513 1_655 S
O163 C158 1.246 1_655 S
O164 Tb154 2.453 1_565 S
O164 C160 1.245 . S
O165 Tb152 2.343 1_455 S
O165 Tb154 2.596 1_565 S
O165 C160 1.259 . S
O166 Tb154 2.374 1_655 S
O166 C161 1.250 . S
O167 Tb152 2.353 1_545 S
O167 C161 1.263 . S
C168 O169 1.275 . S
C168 O170 1.246 1_655 S
O169 Tb152 2.427 . S
O169 C168 1.275 . S
O170 Tb152 2.513 1_455 S
O170 C168 1.246 1_455 S
C171 O155 1.245 1_455 S
C171 O156 1.259 . S
Tb172 O175 2.453 . S
Tb172 O176 2.596 1_545 S
Tb172 O177 2.374 . S
Tb172 O185 2.343 . S
Tb172 O187 2.353 . S
Tb172 O189 2.427 . S
Tb172 O190 2.513 . S
C173 O177 1.251 1_565 S
C173 O179 1.263 . S
Tb174 O176 2.343 . S
Tb174 O179 2.353 . S
Tb174 O182 2.427 . S
Tb174 O183 2.513 . S
Tb174 O184 2.453 . S
Tb174 O185 2.596 1_565 S
Tb174 O186 2.374 . S
O175 Tb172 2.453 . S
O175 C191 1.245 . S
O176 Tb172 2.596 1_565 S
O176 Tb174 2.343 . S
O176 C191 1.259 1_565 S
O177 Tb172 2.374 . S
O177 C173 1.251 1_545 S
C178 O182 1.275 . S
C178 O183 1.246 . S
O179 C173 1.263 . S
O179 Tb174 2.353 . S
C180 O184 1.245 1_545 S
C180 O185 1.259 . S
C181 O186 1.250 1_545 S
C181 O187 1.263 . S
O182 Tb174 2.427 . S
O182 C178 1.275 . S
O183 Tb174 2.513 . S
O183 C178 1.246 . S
O184 Tb174 2.453 . S
O184 C180 1.245 1_565 S
O185 Tb172 2.343 . S
O185 Tb174 2.596 1_545 S
O185 C180 1.259 . S
O186 Tb174 2.374 . S
O186 C181 1.250 1_565 S
O187 Tb172 2.353 . S
O187 C181 1.263 . S
C188 O189 1.275 . S
C188 O190 1.246 . S
O189 Tb172 2.427 . S
O189 C188 1.275 . S
O190 Tb172 2.513 . S
O190 C188 1.246 . S
C191 O175 1.245 . S
C191 O176 1.259 1_545 S
Tb192 O195 2.453 . S
Tb192 O196 2.596 . S
Tb192 O197 2.374 . S
Tb192 O205 2.343 . S
Tb192 O207 2.353 . S
Tb192 O209 2.427 . S
Tb192 O210 2.513 . S
C193 O197 1.251 . S
C193 O199 1.263 . S
Tb194 O196 2.343 . S
Tb194 O199 2.353 . S
Tb194 O202 2.427 . S
Tb194 O203 2.513 . S
Tb194 O204 2.453 . S
Tb194 O205 2.596 . S
Tb194 O206 2.374 . S
O195 Tb192 2.453 . S
O195 C211 1.245 . S
O196 Tb192 2.596 . S
O196 Tb194 2.343 . S
O196 C211 1.259 . S
O197 Tb192 2.374 . S
O197 C193 1.251 . S
C198 O202 1.275 . S
C198 O203 1.246 . S
O199 C193 1.263 . S
O199 Tb194 2.353 . S
C200 O204 1.245 . S
C200 O205 1.259 . S
C201 O206 1.250 . S
C201 O207 1.263 . S
O202 Tb194 2.427 . S
O202 C198 1.275 . S
O203 Tb194 2.513 . S
O203 C198 1.246 . S
O204 Tb194 2.453 . S
O204 C200 1.245 . S
O205 Tb192 2.343 . S
O205 Tb194 2.596 . S
O205 C200 1.259 . S
O206 Tb194 2.374 . S
O206 C201 1.250 . S
O207 Tb192 2.353 . S
O207 C201 1.263 . S
C208 O209 1.275 . S
C208 O210 1.246 . S
O209 Tb192 2.427 . S
O209 C208 1.275 . S
O210 Tb192 2.513 . S
O210 C208 1.246 . S
C211 O195 1.245 . S
C211 O196 1.259 . S
Tb212 O215 2.453 1_655 S
Tb212 O216 2.596 1_655 S
Tb212 O217 2.373 1_655 S
Tb212 O225 2.343 . S
Tb212 O227 2.353 1_655 S
Tb212 O229 2.427 . S
Tb212 O230 2.513 . S
C213 O217 1.253 . S
C213 O219 1.263 . S
Tb214 O216 2.343 . S
Tb214 O219 2.353 . S
Tb214 O222 2.427 . S
Tb214 O223 2.513 . S
Tb214 O224 2.453 1_455 S
Tb214 O225 2.596 1_455 S
Tb214 O226 2.374 . S
O215 Tb212 2.453 1_455 S
O215 C231 1.245 . S
O216 Tb212 2.596 1_455 S
O216 Tb214 2.343 . S
O216 C231 1.259 . S
O217 Tb212 2.373 1_455 S
O217 C213 1.253 . S
C218 O222 1.275 . S
C218 O223 1.246 . S
O219 C213 1.263 . S
O219 Tb214 2.353 . S
C220 O224 1.245 . S
C220 O225 1.259 . S
C221 O226 1.250 . S
C221 O227 1.263 . S
O222 Tb214 2.427 . S
O222 C218 1.275 . S
O223 Tb214 2.513 . S
O223 C218 1.246 . S
O224 Tb214 2.453 1_655 S
O224 C220 1.245 . S
O225 Tb212 2.343 . S
O225 Tb214 2.596 1_655 S
O225 C220 1.259 . S
O226 Tb214 2.374 . S
O226 C221 1.250 . S
O227 Tb212 2.353 1_455 S
O227 C221 1.263 . S
C228 O229 1.275 . S
C228 O230 1.246 . S
O229 Tb212 2.427 . S
O229 C228 1.275 . S
O230 Tb212 2.513 . S
O230 C228 1.246 . S
C231 O215 1.245 . S
C231 O216 1.259 . S
C232 C233 1.369 . S
C232 C234 1.419 . S
C232 H236 0.935 . S
C233 C232 1.369 . S
C233 C242 1.429 . S
C234 C232 1.419 . S
C234 C235 1.363 . S
C234 H237 0.929 1_545 S
C235 C234 1.363 . S
C235 C241 1.428 . S
H236 C232 0.935 . S
H237 C234 0.929 1_565 S
S238 N239 1.613 . S
S238 N240 1.610 . S
N239 S238 1.613 . S
N239 C242 1.350 . S
N240 S238 1.610 . S
N240 C241 1.351 . S
C241 C235 1.428 . S
C241 N240 1.351 . S
C241 C242 1.434 . S
C242 C233 1.429 . S
C242 N239 1.350 . S
C242 C241 1.434 . S
C243 C244 1.369 . S
C243 C245 1.419 . S
C243 H247 0.930 . S
C244 C243 1.369 . S
C244 C253 1.429 . S
C245 C243 1.419 . S
C245 C246 1.363 . S
C245 H248 0.929 . S
C246 C245 1.363 . S
C246 C252 1.428 . S
H247 C243 0.930 . S
H248 C245 0.929 . S
S249 N250 1.613 . S
S249 N251 1.610 . S
N250 S249 1.613 . S
N250 C253 1.350 . S
N251 S249 1.610 . S
N251 C252 1.351 . S
C252 C246 1.428 . S
C252 N251 1.351 . S
C252 C253 1.434 . S
C253 C244 1.429 . S
C253 N250 1.350 . S
C253 C252 1.434 . S
C254 C255 1.369 . S
C254 C256 1.419 . S
C254 H258 0.930 . S
C255 C254 1.369 . S
C255 C264 1.429 . S
C256 C254 1.419 . S
C256 C257 1.363 . S
C256 H259 0.929 . S
C257 C256 1.363 . S
C257 C263 1.428 . S
H258 C254 0.930 . S
H259 C256 0.929 . S
S260 N261 1.613 . S
S260 N262 1.610 . S
N261 S260 1.613 . S
N261 C264 1.350 . S
N262 S260 1.610 . S
N262 C263 1.351 . S
C263 C257 1.428 . S
C263 N262 1.351 . S
C263 C264 1.434 . S
C264 C255 1.429 . S
C264 N261 1.350 . S
C264 C263 1.434 . S
C265 C266 1.369 . S
C265 C267 1.419 . S
C265 H269 0.930 . S
C266 C265 1.369 . S
C266 C275 1.429 . S
C267 C265 1.419 . S
C267 C268 1.363 . S
C267 H270 0.929 1_455 S
C268 C267 1.363 . S
C268 C274 1.428 . S
H269 C265 0.930 . S
H270 C267 0.929 1_655 S
S271 N272 1.613 . S
S271 N273 1.610 . S
N272 S271 1.613 . S
N272 C275 1.350 . S
N273 S271 1.610 . S
N273 C274 1.351 . S
C274 C268 1.428 . S
C274 N273 1.351 . S
C274 C275 1.434 . S
C275 C266 1.429 . S
C275 N272 1.350 . S
C275 C274 1.434 . S
C276 C277 1.369 . S
C276 C278 1.419 . S
C276 H280 0.930 . S
C277 C276 1.369 . S
C277 C286 1.463 . S
C278 C276 1.419 . S
C278 C279 1.363 . S
C278 H281 0.929 . S
C279 C278 1.363 . S
C279 C285 1.428 1_565 S
H280 C276 0.930 . S
H281 C278 0.929 . S
S282 N283 1.613 . S
S282 N284 1.610 . S
N283 S282 1.613 . S
N283 C286 1.324 1_545 S
N284 S282 1.610 . S
N284 C285 1.351 . S
C285 C279 1.428 1_545 S
C285 N284 1.351 . S
C285 C286 1.424 1_545 S
C286 C277 1.463 . S
C286 N283 1.324 1_565 S
C286 C285 1.424 1_565 S
C287 C288 1.369 . S
C287 C289 1.419 . S
C287 H291 0.930 . S
C288 C287 1.369 . S
C288 C297 1.429 1_556 S
C289 C287 1.419 . S
C289 C290 1.363 . S
C289 H292 0.929 . S
C290 C289 1.363 . S
C290 C296 1.428 . S
H291 C287 0.930 . S
H292 C289 0.929 . S
S293 N294 1.613 . S
S293 N295 1.610 . S
N294 S293 1.613 . S
N294 C297 1.350 . S
N295 S293 1.610 . S
N295 C296 1.351 1_554 S
C296 C290 1.428 . S
C296 N295 1.351 1_556 S
C296 C297 1.434 1_556 S
C297 C288 1.429 1_554 S
C297 N294 1.350 . S
C297 C296 1.434 1_554 S
C298 C299 1.369 . S
C298 C300 1.419 . S
C298 H302 0.930 1_556 S
C299 C298 1.369 . S
C299 C308 1.429 . S
C300 C298 1.419 . S
C300 C301 1.363 . S
C300 H303 0.929 . S
C301 C300 1.363 . S
C301 C307 1.428 . S
H302 C298 0.930 1_554 S
H303 C300 0.929 . S
S304 N305 1.613 . S
S304 N306 1.610 . S
N305 S304 1.613 . S
N305 C308 1.350 . S
N306 S304 1.610 . S
N306 C307 1.351 . S
C307 C301 1.428 . S
C307 N306 1.351 . S
C307 C308 1.434 . S
C308 C299 1.429 . S
C308 N305 1.350 . S
C308 C307 1.434 . S
C309 C310 1.369 . S
C309 C311 1.419 . S
C309 H313 0.930 1_556 S
C310 C309 1.369 . S
C310 C319 1.429 . S
C311 C309 1.419 . S
C311 C312 1.363 . S
C311 H314 0.929 . S
C312 C311 1.363 . S
C312 C318 1.428 . S
H313 C309 0.930 1_554 S
H314 C311 0.929 . S
S315 N316 1.613 1_455 S
S315 N317 1.610 . S
N316 S315 1.613 1_655 S
N316 C319 1.350 . S
N317 S315 1.610 . S
N317 C318 1.351 1_455 S
C318 C312 1.428 . S
C318 N317 1.351 1_655 S
C318 C319 1.434 . S
C319 C310 1.429 . S
C319 N316 1.350 . S
C319 C318 1.434 . S
C320 C321 1.369 . S
C320 C322 1.419 . S
C320 H324 0.930 . S
C321 C320 1.369 . S
C321 C330 1.429 . S
C322 C320 1.419 . S
C322 C323 1.363 . S
C322 H325 0.929 1_455 S
C323 C322 1.363 . S
C323 C329 1.428 . S
H324 C320 0.930 . S
H325 C322 0.929 1_655 S
S326 N327 1.613 . S
S326 N328 1.610 . S
N327 S326 1.613 . S
N327 C330 1.350 . S
N328 S326 1.610 . S
N328 C329 1.351 . S
C329 C323 1.428 . S
C329 N328 1.351 . S
C329 C330 1.434 . S
C330 C321 1.429 . S
C330 N327 1.350 . S
C330 C329 1.434 . S
C331 C332 1.369 . S
C331 C333 1.419 . S
C331 H335 0.930 . S
C332 C331 1.369 . S
C332 C341 1.429 . S
C333 C331 1.419 . S
C333 C334 1.363 . S
C333 H336 0.929 . S
C334 C333 1.363 . S
C334 C340 1.428 . S
H335 C331 0.930 . S
H336 C333 0.929 . S
S337 N338 1.613 1_565 S
S337 N339 1.610 . S
N338 S337 1.613 1_545 S
N338 C341 1.350 . S
N339 S337 1.610 . S
N339 C340 1.351 1_565 S
C340 C334 1.428 . S
C340 N339 1.351 1_545 S
C340 C341 1.434 . S
C341 C332 1.429 . S
C341 N338 1.350 . S
C341 C340 1.434 . S
C342 C343 1.369 . S
C342 C344 1.419 . S
C342 H346 0.930 . S
C343 C342 1.369 . S
C343 C352 1.429 . S
C344 C342 1.419 . S
C344 C345 1.363 . S
C344 H347 0.929 . S
C345 C344 1.363 . S
C345 C351 1.428 . S
H346 C342 0.930 . S
H347 C344 0.929 . S
S348 N349 1.613 . S
S348 N350 1.610 . S
N349 S348 1.613 . S
N349 C352 1.350 . S
N350 S348 1.610 . S
N350 C351 1.351 . S
C351 C345 1.428 . S
C351 N350 1.351 . S
C351 C352 1.434 . S
C352 C343 1.429 . S
C352 N349 1.350 . S
C352 C351 1.434 . S
C353 C354 1.369 . S
C353 C355 1.419 . S
C353 H357 0.930 . S
C354 C353 1.369 . S
C354 C363 1.429 . S
C355 C353 1.419 . S
C355 C356 1.363 . S
C355 H358 0.929 . S
C356 C355 1.363 . S
C356 C362 1.428 . S
H357 C353 0.930 . S
H358 C355 0.929 . S
S359 N360 1.613 . S
S359 N361 1.610 . S
N360 S359 1.613 . S
N360 C363 1.350 . S
N361 S359 1.610 . S
N361 C362 1.351 . S
C362 C356 1.428 . S
C362 N361 1.351 . S
C362 C363 1.434 . S
C363 C354 1.429 . S
C363 N360 1.350 . S
C363 C362 1.434 . S
C364 C365 1.369 . S
C364 C366 1.419 . S
C364 H368 0.930 . S
C365 C364 1.369 . S
C365 C374 1.429 . S
C366 C364 1.419 . S
C366 C367 1.363 . S
C366 H369 0.929 . S
C367 C366 1.363 . S
C367 C373 1.428 1_655 S
H368 C364 0.930 . S
H369 C366 0.929 . S
S370 N371 1.613 . S
S370 N372 1.610 . S
N371 S370 1.613 . S
N371 C374 1.350 1_455 S
N372 S370 1.610 . S
N372 C373 1.351 . S
C373 C367 1.428 1_455 S
C373 N372 1.351 . S
C373 C374 1.434 1_455 S
C374 C365 1.429 . S
C374 N371 1.350 1_655 S
C374 C373 1.434 1_655 S
C375 C376 1.369 . S
C375 C377 1.407 1_565 S
C375 H379 0.920 1_565 S
C376 C375 1.369 . S
C376 C385 1.429 . S
C377 C375 1.407 1_545 S
C377 C378 1.352 1_545 S
C377 H380 0.954 . S
C378 C377 1.352 1_565 S
C378 C384 1.428 . S
H379 C375 0.920 1_545 S
H380 C377 0.954 . S
S381 N382 1.613 . S
S381 N383 1.610 1_554 S
N382 S381 1.613 . S
N382 C385 1.350 1_554 S
N383 S381 1.610 1_556 S
N383 C384 1.351 . S
C384 C378 1.428 . S
C384 N383 1.351 . S
C384 C385 1.434 . S
C385 C376 1.429 . S
C385 N382 1.350 1_556 S
C385 C384 1.434 . S
C386 C387 1.369 . S
C386 C388 1.419 . S
C386 H390 0.930 . S
C387 C386 1.369 . S
C387 C396 1.429 . S
C388 C386 1.419 . S
C388 C389 1.363 . S
C388 H391 0.929 . S
C389 C388 1.363 . S
C389 C395 1.428 . S
H390 C386 0.930 . S
H391 C388 0.929 . S
S392 N393 1.613 . S
S392 N394 1.610 . S
N393 S392 1.613 . S
N393 C396 1.350 . S
N394 S392 1.610 . S
N394 C395 1.351 . S
C395 C389 1.428 . S
C395 N394 1.351 . S
C395 C396 1.434 . S
C396 C387 1.429 . S
C396 N393 1.350 . S
C396 C395 1.434 . S
C397 C398 1.369 . S
C397 C399 1.419 . S
C397 H401 0.930 . S
C398 C397 1.369 . S
C398 C407 1.429 . S
C399 C397 1.419 . S
C399 C400 1.363 . S
C399 H402 0.929 . S
C400 C399 1.363 . S
C400 C406 1.428 . S
H401 C397 0.930 . S
H402 C399 0.929 . S
S403 N404 1.613 . S
S403 N405 1.610 . S
N404 S403 1.613 . S
N404 C407 1.350 . S
N405 S403 1.610 . S
N405 C406 1.351 . S
C406 C400 1.428 . S
C406 N405 1.351 . S
C406 C407 1.434 . S
C407 C398 1.429 . S
C407 N404 1.350 . S
C407 C406 1.434 . S
C408 C409 1.369 . S
C408 C410 1.419 . S
C408 H412 0.930 . S
C409 C408 1.369 . S
C409 C418 1.429 . S
C410 C408 1.419 . S
C410 C411 1.363 . S
C410 H413 0.929 1_554 S
C411 C410 1.363 . S
C411 C417 1.428 . S
H412 C408 0.930 . S
H413 C410 0.929 1_556 S
S414 N415 1.613 1_655 S
S414 N416 1.610 . S
N415 S414 1.613 1_455 S
N415 C418 1.350 . S
N416 S414 1.610 . S
N416 C417 1.351 1_655 S
C417 C411 1.428 . S
C417 N416 1.351 1_455 S
C417 C418 1.434 . S
C418 C409 1.429 . S
C418 N415 1.350 . S
C418 C417 1.434 . S
C419 C420 1.369 . S
C419 C421 1.419 . S
C419 H423 0.930 1_545 S
C420 C419 1.369 . S
C420 C429 1.429 . S
C421 C419 1.419 . S
C421 C422 1.363 . S
C421 H424 0.929 1_545 S
C422 C421 1.363 . S
C422 C428 1.428 . S
H423 C419 0.930 1_565 S
H424 C421 0.929 1_565 S
S425 N426 1.613 . S
S425 N427 1.610 1_554 S
N426 S425 1.613 . S
N426 C429 1.350 . S
N427 S425 1.610 1_556 S
N427 C428 1.351 1_556 S
C428 C422 1.428 . S
C428 N427 1.351 1_554 S
C428 C429 1.434 . S
C429 C420 1.429 . S
C429 N426 1.350 . S
C429 C428 1.434 . S
C430 C431 1.369 . S
C430 C432 1.422 . S
C430 H434 0.930 . S
C431 C430 1.369 . S
C431 C440 1.429 . S
C432 C430 1.422 . S
C432 C433 1.364 . S
C432 H435 0.924 1_554 S
C433 C432 1.364 . S
C433 C439 1.428 . S
H434 C430 0.930 . S
H435 C432 0.924 1_556 S
S436 N437 1.613 . S
S436 N438 1.610 . S
N437 S436 1.613 . S
N437 C440 1.350 . S
N438 S436 1.610 . S
N438 C439 1.351 . S
C439 C433 1.428 . S
C439 N438 1.351 . S
C439 C440 1.434 . S
C440 C431 1.429 . S
C440 N437 1.350 . S
C440 C439 1.434 . S
C441 C442 1.369 . S
C441 C443 1.419 . S
C441 H445 0.930 . S
C442 C441 1.369 . S
C442 C451 1.429 . S
C443 C441 1.419 . S
C443 C444 1.363 . S
C443 H446 0.929 . S
C444 C443 1.363 . S
C444 C450 1.428 . S
H445 C441 0.930 . S
H446 C443 0.929 . S
S447 N448 1.613 . S
S447 N449 1.610 . S
N448 S447 1.613 . S
N448 C451 1.350 . S
N449 S447 1.610 . S
N449 C450 1.351 . S
C450 C444 1.428 . S
C450 N449 1.351 . S
C450 C451 1.434 . S
C451 C442 1.429 . S
C451 N448 1.350 . S
C451 C450 1.434 . S
C452 C453 1.369 . S
C452 C454 1.419 . S
C452 H456 0.930 . S
C453 C452 1.369 . S
C453 C462 1.429 . S
C454 C452 1.419 . S
C454 C455 1.363 . S
C454 H457 0.929 . S
C455 C454 1.363 . S
C455 C461 1.428 1_655 S
H456 C452 0.930 . S
H457 C454 0.929 . S
S458 N459 1.613 . S
S458 N460 1.610 . S
N459 S458 1.613 . S
N459 C462 1.350 1_455 S
N460 S458 1.610 . S
N460 C461 1.351 . S
C461 C455 1.428 1_455 S
C461 N460 1.351 . S
C461 C462 1.434 1_455 S
C462 C453 1.429 . S
C462 N459 1.350 1_655 S
C462 C461 1.434 1_655 S
C463 C464 1.369 . S
C463 C465 1.419 . S
C463 H467 0.930 . S
C464 C463 1.369 . S
C464 C473 1.429 . S
C465 C463 1.419 . S
C465 C466 1.363 . S
C465 H468 0.929 . S
C466 C465 1.363 . S
C466 C472 1.428 . S
H467 C463 0.930 . S
H468 C465 0.929 . S
S469 N470 1.613 1_545 S
S469 N471 1.610 . S
N470 S469 1.613 1_565 S
N470 C473 1.350 . S
N471 S469 1.610 . S
N471 C472 1.351 1_545 S
C472 C466 1.428 . S
C472 N471 1.351 1_565 S
C472 C473 1.434 . S
C473 C464 1.429 . S
C473 N470 1.350 . S
C473 C472 1.434 . S
C474 C475 1.369 . S
C474 C476 1.419 . S
C474 H478 0.930 . S
C475 C474 1.369 . S
C475 C484 1.429 . S
C476 C474 1.419 . S
C476 C477 1.363 . S
C476 H479 0.929 . S
C477 C476 1.363 . S
C477 C483 1.428 . S
H478 C474 0.930 . S
H479 C476 0.929 . S
S480 N481 1.613 . S
S480 N482 1.610 . S
N481 S480 1.613 . S
N481 C484 1.350 . S
N482 S480 1.610 . S
N482 C483 1.351 . S
C483 C477 1.428 . S
C483 N482 1.351 . S
C483 C484 1.434 . S
C484 C475 1.429 . S
C484 N481 1.350 . S
C484 C483 1.434 . S
C485 C486 1.369 . S
C485 C487 1.419 . S
C485 H489 0.930 . S
C486 C485 1.369 . S
C486 C495 1.429 . S
C487 C485 1.419 . S
C487 C488 1.363 . S
C487 H490 0.929 . S
C488 C487 1.363 . S
C488 C494 1.428 . S
H489 C485 0.930 . S
H490 C487 0.929 . S
S491 N492 1.613 . S
S491 N493 1.610 . S
N492 S491 1.613 . S
N492 C495 1.350 . S
N493 S491 1.610 . S
N493 C494 1.351 . S
C494 C488 1.428 . S
C494 N493 1.351 . S
C494 C495 1.434 . S
C495 C486 1.429 . S
C495 N492 1.350 . S
C495 C494 1.434 . S
C233 C125 1.480 . S
C235 C153 1.643 . S
C246 C188 1.587 . S
C244 C144 1.411 . S
C257 C193 1.420 . S
C255 C87 1.316 . S
C268 C213 1.559 . S
C266 C106 1.374 . S
C279 C161 1.642 1_565 S
C277 C49 1.597 1_556 S
C288 C68 1.555 1_556 S
C290 C178 1.586 . S
C299 C11 1.385 1_556 S
C301 C201 1.420 . S
C310 C30 1.479 . S
C312 C221 1.559 1_655 S
C323 C171 1.505 . S
C321 C97 1.424 . S
C334 C180 1.296 . S
C332 C116 1.245 . S
C345 C211 1.505 . S
C343 C135 1.440 . S
C354 C78 1.167 . S
C356 C231 1.201 . S
C365 C21 1.422 . S
C367 C160 1.504 1_655 S
C378 C191 1.300 1_565 S
C376 C40 1.243 1_556 S
C389 C200 1.504 . S
C387 C59 1.442 1_556 S
C398 C2 1.160 . S
C400 C220 1.196 . S
C409 C101 1.445 . S
C411 C158 1.444 1_554 S
C420 C120 1.515 . S
C422 C181 1.570 1_554 S
C433 C198 1.539 1_554 S
C431 C139 1.495 . S
C444 C218 1.563 1_554 S
C442 C82 1.549 . S
C453 C25 1.449 . S
C455 C168 1.445 . S
C466 C173 1.571 . S
C464 C44 1.521 . S
C477 C208 1.542 . S
C475 C63 1.506 . S
C486 C6 1.551 . S
C488 C228 1.562 . S
