# Generated by pormake.
# Topology sit, (3,6)-cn, num edge types: 1
# Building blocks:
#     Node 0, Type 0, BuildingBlock: ESEHIV_clean_linker_0, # of connection points: 3
#     Node 1, Type 0, BuildingBlock: ESEHIV_clean_linker_0, # of connection points: 3
#     Node 2, Type 0, BuildingBlock: ESEHIV_clean_linker_0, # of connection points: 3
#     Node 3, Type 0, BuildingBlock: ESEHIV_clean_linker_0, # of connection points: 3
#     Node 4, Type 1, BuildingBlock: MIDCAF_clean_sbu_0, # of connection points: 6
#     Node 5, Type 1, BuildingBlock: MIDCAF_clean_sbu_0, # of connection points: 6
#     Edge 6, Type (0, 1), BuildingBlock: FUNLAD_clean_linker_1, # of connection points: 2
#     Edge 7, Type (0, 1), BuildingBlock: FUNLAD_clean_linker_1, # of connection points: 2
#     Edge 8, Type (0, 1), BuildingBlock: FUNLAD_clean_linker_1, # of connection points: 2
#     Edge 9, Type (0, 1), BuildingBlock: FUNLAD_clean_linker_1, # of connection points: 2
#     Edge 10, Type (0, 1), BuildingBlock: FUNLAD_clean_linker_1, # of connection points: 2
#     Edge 11, Type (0, 1), BuildingBlock: FUNLAD_clean_linker_1, # of connection points: 2
#     Edge 12, Type (0, 1), BuildingBlock: FUNLAD_clean_linker_1, # of connection points: 2
#     Edge 13, Type (0, 1), BuildingBlock: FUNLAD_clean_linker_1, # of connection points: 2
#     Edge 14, Type (0, 1), BuildingBlock: FUNLAD_clean_linker_1, # of connection points: 2
#     Edge 15, Type (0, 1), BuildingBlock: FUNLAD_clean_linker_1, # of connection points: 2
#     Edge 16, Type (0, 1), BuildingBlock: FUNLAD_clean_linker_1, # of connection points: 2
#     Edge 17, Type (0, 1), BuildingBlock: FUNLAD_clean_linker_1, # of connection points: 2
# Relax obj value: 0.110
# Max RMSD: 0.193
# Mean RMSD: 0.106
data_MOF--net-sit--node1-MIDCAF_clean_sbu_0--node2-ESEHIV_clean_linker_0--edge1-FUNLAD_clean_linker_1
_symmetry_space_group_name_H-M    P1
_symmetry_Int_Tables_number       1
_symmetry_cell_setting            triclinic
loop_
_symmetry_equiv_pos_as_xyz
'x, y, z'
_cell_length_a     23.172834
_cell_length_b     30.343271
_cell_length_c     34.599594
_cell_angle_alpha  89.772895
_cell_angle_beta   89.42168
_cell_angle_gamma 84.410129
loop_
_atom_site_label
_atom_site_type_symbol
_atom_site_fract_x
_atom_site_fract_y
_atom_site_fract_z
_atom_type_partial_charge
H0 H 0.08543 0.40108 0.98234 0.0
H1 H 0.16515 0.28864 0.04471 0.0
H2 H -0.01154 0.33809 0.06956 0.0
C3 C 0.08316 0.37578 0.00443 0.0
C4 C 0.03167 0.3739 0.02547 0.0
C5 C 0.13182 0.3459 0.01147 0.0
C6 C 0.12811 0.31234 0.03936 0.0
C7 C 0.07621 0.30947 0.06041 0.0
C8 C 0.02859 0.34089 0.05382 0.0
H9 H 0.02468 0.62786 0.99306 0.0
H10 H 0.9401 0.7415 0.05125 0.0
H11 H 0.12024 0.70019 0.07267 0.0
C12 C 0.02599 0.65425 0.01397 0.0
C13 C 0.0777 0.65962 0.03319 0.0
C14 C 0.97616 0.68319 0.02055 0.0
C15 C 0.97848 0.71893 0.04612 0.0
C16 C 0.03065 0.72546 0.0649 0.0
C17 C 0.07987 0.69544 0.05838 0.0
H18 H 0.58075 0.93594 0.51233 0.0
H19 H 0.66397 0.82509 0.57423 0.0
H20 H 0.47796 0.85157 0.57834 0.0
C21 C 0.57755 0.90841 0.53199 0.0
C22 C 0.52313 0.89771 0.54502 0.0
C23 C 0.62823 0.8819 0.54166 0.0
C24 C 0.62465 0.84462 0.56561 0.0
C25 C 0.57032 0.83349 0.57909 0.0
C26 C 0.52004 0.86034 0.56865 0.0
H27 H 0.5147 0.15197 0.49182 0.0
H28 H 0.44347 0.26932 0.55115 0.0
H29 H 0.62626 0.22799 0.55694 0.0
C30 C 0.51996 0.17899 0.51132 0.0
C31 C 0.57564 0.18538 0.52454 0.0
C32 C 0.47194 0.20908 0.52107 0.0
C33 C 0.48052 0.24638 0.54345 0.0
C34 C 0.53616 0.25352 0.55644 0.0
C35 C 0.58319 0.22262 0.54711 0.0
Zn36 Zn 0.01063 0.10342 0.35177 0.0
Zn37 Zn 0.10436 0.93394 0.34774 0.0
Zn38 Zn 0.05274 1.01708 0.34741 0.0
C39 C 0.06929 0.95748 0.27116 0.0
C40 C 0.00245 0.93548 0.39227 0.0
O41 O 0.11247 0.05521 0.3795 0.0
O42 O 0.07183 0.12404 0.38576 0.0
C43 C 0.03174 0.08103 0.27315 0.0
O44 O 0.05394 0.99541 0.2866 0.0
O45 O 0.09189 0.92584 0.29159 0.0
O46 O 0.04857 0.91113 0.38511 0.0
O47 O -0.00481 0.97557 0.37935 0.0
O48 O 0.01612 0.11316 0.29526 0.0
O49 O 0.04458 0.042 0.28726 0.0
O50 O 0.96989 0.02066 0.38034 0.0
O51 O 0.93585 0.09125 0.37561 0.0
C52 C 0.92996 0.05237 0.38715 0.0
O53 O 0.14122 1.01312 0.37225 0.0
O54 O 0.18186 0.94428 0.36664 0.0
C55 C 0.11291 0.09475 0.3929 0.0
C56 C 0.18498 0.98392 0.37659 0.0
Zn57 Zn 0.49516 0.60026 0.85806 0.0
Zn58 Zn 0.61058 0.44371 0.84389 0.0
Zn59 Zn 0.55097 0.52096 0.85201 0.0
C60 C 0.58016 0.47125 0.76999 0.0
C61 C 0.50891 0.43084 0.88548 0.0
O62 O 0.60355 0.56163 0.88799 0.0
O63 O 0.54564 0.62306 0.89808 0.0
C64 C 0.53126 0.59106 0.78126 0.0
O65 O 0.56033 0.50587 0.78921 0.0
O66 O 0.60524 0.43822 0.7874 0.0
O67 O 0.55757 0.41099 0.87657 0.0
O68 O 0.49688 0.47214 0.87711 0.0
O69 O 0.50652 0.6195 0.80405 0.0
O70 O 0.5477 0.55173 0.7936 0.0
O71 O 0.46596 0.51509 0.88059 0.0
O72 O 0.41984 0.58216 0.8754 0.0
C73 C 0.42045 0.54232 0.88619 0.0
O74 O 0.63161 0.51747 0.88613 0.0
O75 O 0.6837 0.45596 0.86793 0.0
C76 C 0.59302 0.59998 0.90391 0.0
C77 C 0.678 0.49052 0.88833 0.0
H78 H 0.0404 0.2829 0.11408 0.0
C79 C 0.07046 0.27482 0.09021 0.0
H80 H 0.1252 0.22321 0.06377 0.0
H81 H 0.1027 0.17196 0.25137 0.0
H82 H 0.16714 0.22932 0.26092 0.0
H83 H 0.19805 0.27365 0.20586 0.0
H84 H 0.16444 0.26095 0.14096 0.0
C85 C 0.09815 0.23374 0.08849 0.0
C86 C 0.08943 0.20125 0.1199 0.0
C87 C 0.1106 0.20835 0.1574 0.0
C88 C 0.09317 0.18256 0.18898 0.0
C89 C 0.11412 0.19089 0.22634 0.0
C90 C 0.15139 0.22355 0.2322 0.0
C91 C 0.16877 0.24851 0.20122 0.0
C92 C 0.14886 0.24109 0.16418 0.0
H93 H 0.0706 0.0665 0.2151 0.0
C94 C 0.04283 0.0904 0.23185 0.0
H95 H -8e-05 0.15479 0.23464 0.0
H96 H 0.05013 0.17397 0.05062 0.0
H97 H -0.009 0.11314 0.0404 0.0
H98 H 0.96061 0.06841 0.09535 0.0
H99 H -0.01089 0.08418 0.16092 0.0
C100 C 0.02666 0.13086 0.21723 0.0
C101 C 0.05509 0.14941 0.18296 0.0
C102 C 0.03874 0.13929 0.14494 0.0
C103 C 0.05619 0.16521 0.11326 0.0
C104 C 0.0381 0.15526 0.07563 0.0
C105 C 0.00421 0.12049 0.06941 0.0
C106 C -0.01292 0.09529 0.10036 0.0
C107 C 0.00371 0.10462 0.13782 0.0
H108 H 0.0676 0.75675 0.1152 0.0
C109 C 0.03493 0.76196 0.09283 0.0
H110 H 0.97184 0.8091 0.06839 0.0
H111 H 0.00786 0.8629 0.2537 0.0
H112 H 0.95303 0.80043 0.26773 0.0
H113 H 0.9216 0.75385 0.21511 0.0
H114 H 0.94515 0.76938 0.14816 0.0
C115 C 0.00216 0.80109 0.09167 0.0
C116 C 0.00901 0.83483 0.12201 0.0
C117 C -0.00664 0.82612 0.16077 0.0
C118 C 0.01093 0.85322 0.19097 0.0
C119 C -0.00402 0.84314 0.22961 0.0
C120 C 0.96426 0.80753 0.23805 0.0
C121 C 0.94659 0.78129 0.20844 0.0
C122 C 0.96074 0.79037 0.17019 0.0
H123 H 0.02094 0.97039 0.21656 0.0
C124 C 0.05399 0.94834 0.23076 0.0
H125 H 0.10588 0.88739 0.22924 0.0
H126 H 0.03543 0.86552 0.05027 0.0
H127 H 0.08387 0.9314 0.03591 0.0
H128 H 0.11413 0.97864 0.08845 0.0
H129 H 0.09627 0.96029 0.15576 0.0
C130 C 0.07368 0.90956 0.21434 0.0
C131 C 0.0434 0.88933 0.18229 0.0
C132 C 0.05335 0.90098 0.14331 0.0
C133 C 0.03591 0.87367 0.11301 0.0
C134 C 0.04775 0.8852 0.0743 0.0
C135 C 0.07546 0.92287 0.06571 0.0
C136 C 0.09253 0.94948 0.09531 0.0
C137 C 0.08205 0.93864 0.13376 0.0
H138 H 0.5242 0.79539 0.62198 0.0
C139 C 0.56376 0.79477 0.60467 0.0
H140 H 0.64209 0.75602 0.58995 0.0
H141 H 0.63585 0.66202 0.75548 0.0
H142 H 0.72146 0.7018 0.76086 0.0
H143 H 0.74927 0.751 0.70832 0.0
H144 H 0.69163 0.76083 0.65014 0.0
C145 C 0.60227 0.75866 0.60689 0.0
C146 C 0.59228 0.72246 0.63468 0.0
C147 C 0.62747 0.71613 0.66786 0.0
C148 C 0.61135 0.68788 0.69818 0.0
C149 C 0.64605 0.68327 0.73168 0.0
C150 C 0.69533 0.7058 0.73509 0.0
C151 C 0.71101 0.73349 0.70549 0.0
C152 C 0.67755 0.73884 0.67226 0.0
H153 H 0.57149 0.58126 0.72292 0.0
C154 C 0.54642 0.60477 0.74162 0.0
H155 H 0.5114 0.67112 0.7495 0.0
H156 H 0.52356 0.71931 0.57118 0.0
H157 H 0.44018 0.67709 0.56484 0.0
H158 H 0.41113 0.62932 0.6181 0.0
H159 H 0.46565 0.62315 0.67796 0.0
C160 C 0.53514 0.64726 0.73045 0.0
C161 C 0.56038 0.66587 0.69508 0.0
C162 C 0.52848 0.66883 0.66038 0.0
C163 C 0.54469 0.69693 0.62997 0.0
C164 C 0.5122 0.69921 0.59549 0.0
C165 C 0.46453 0.67498 0.59143 0.0
C166 C 0.4482 0.64805 0.62141 0.0
C167 C 0.47964 0.6449 0.6556 0.0
H168 H 0.58396 0.28797 0.60007 0.0
C169 C 0.5467 0.29186 0.58104 0.0
H170 H 0.47679 0.33659 0.56175 0.0
H171 H 0.47146 0.42803 0.72786 0.0
H172 H 0.37699 0.4005 0.72574 0.0
H173 H 0.34848 0.35765 0.66981 0.0
H174 H 0.4147 0.34184 0.61577 0.0
C175 C 0.5138 0.33097 0.58072 0.0
C176 C 0.52502 0.3661 0.60886 0.0
C177 C 0.4848 0.37681 0.63929 0.0
C178 C 0.50112 0.40192 0.67135 0.0
C179 C 0.46139 0.40969 0.70254 0.0
C180 C 0.40688 0.39399 0.70172 0.0
C181 C 0.39083 0.36985 0.67025 0.0
C182 C 0.42926 0.36104 0.63941 0.0
H183 H 0.539 0.49334 0.71457 0.0
C184 C 0.56703 0.4673 0.72847 0.0
H185 H 0.61045 0.40301 0.72366 0.0
H186 H 0.60553 0.36134 0.55042 0.0
H187 H 0.69841 0.39249 0.55069 0.0
H188 H 0.72723 0.43533 0.60662 0.0
H189 H 0.66307 0.44758 0.66254 0.0
C190 C 0.58192 0.42888 0.70994 0.0
C191 C 0.55733 0.41677 0.67241 0.0
C192 C 0.59468 0.41041 0.6399 0.0
C193 C 0.57839 0.38528 0.60793 0.0
C194 C 0.61657 0.37936 0.5758 0.0
C195 C 0.66972 0.39728 0.57552 0.0
C196 C 0.68594 0.42142 0.60701 0.0
C197 C 0.649 0.42802 0.63894 0.0
H198 H 0.17968 0.37107 0.96207 0.0
C199 C 0.18486 0.35125 0.98835 0.0
H200 H 0.24693 0.32035 0.02681 0.0
H201 H 0.37834 0.35912 0.85699 0.0
H202 H 0.32434 0.30138 0.83115 0.0
H203 H 0.25505 0.26517 0.87222 0.0
H204 H 0.23895 0.2868 0.93929 0.0
C205 C 0.23893 0.33736 -0.00054 0.0
C206 C 0.28885 0.35212 0.97718 0.0
C207 C 0.29903 0.33816 0.93843 0.0
C208 C 0.33969 0.35845 0.91499 0.0
C209 C 0.34795 0.34473 0.87609 0.0
C210 C 0.31737 0.31156 0.86093 0.0
C211 C 0.27831 0.29121 0.88403 0.0
C212 C 0.26917 0.30413 0.92238 0.0
H213 H 0.48662 0.38075 0.92785 0.0
C214 C 0.46854 0.4065 0.90827 0.0
H215 H 0.39235 0.43729 0.88346 0.0
H216 H 0.28194 0.38473 0.05101 0.0
H217 H 0.33835 0.44045 0.07753 0.0
H218 H 0.41187 0.47346 0.0377 0.0
H219 H 0.42839 0.45191 0.971 0.0
C220 C 0.41103 0.41468 0.90541 0.0
C221 C 0.37142 0.39159 0.93073 0.0
C222 C 0.36387 0.40364 0.97021 0.0
C223 C 0.32217 0.38406 0.99338 0.0
C224 C 0.31347 0.39813 0.03219 0.0
C225 C 0.34555 0.43011 0.04782 0.0
C226 C 0.38686 0.44876 0.02538 0.0
C227 C 0.39597 0.43595 0.98704 0.0
H228 H 0.92908 0.65673 0.97222 0.0
C229 C 0.92329 0.67513 -0.00086 0.0
H230 H 0.86161 0.70027 0.04095 0.0
H231 H 0.71812 0.66777 0.87705 0.0
H232 H 0.76646 0.72884 0.85073 0.0
H233 H 0.83797 0.76436 0.88928 0.0
H234 H 0.86209 0.73861 0.95419 0.0
C235 C 0.86924 0.68516 0.01273 0.0
C236 C 0.81966 0.66893 0.99193 0.0
C237 C 0.8047 0.68538 0.95457 0.0
C238 C 0.76263 0.66555 0.93271 0.0
C239 C 0.74969 0.68171 0.89499 0.0
C240 C 0.777 0.71683 0.87956 0.0
C241 C 0.8173 0.73679 0.90124 0.0
C242 C 0.83103 0.72149 0.93836 0.0
H243 H 0.61898 0.64212 0.95115 0.0
C244 C 0.63519 0.61796 0.92955 0.0
H245 H 0.70951 0.58778 0.90114 0.0
H246 H 0.83916 0.62884 0.06235 0.0
H247 H 0.78917 0.56896 0.08916 0.0
H248 H 0.71065 0.53858 0.05324 0.0
H249 H 0.68228 0.56756 0.99017 0.0
C250 C 0.69244 0.60851 0.92494 0.0
C251 C 0.73395 0.63057 0.94886 0.0
C252 C 0.74657 0.61575 0.98705 0.0
C253 C 0.79044 0.6343 0.00829 0.0
C254 C 0.80536 0.61661 0.04522 0.0
C255 C 0.77706 0.58218 0.06096 0.0
C256 C 0.73297 0.565 0.04071 0.0
C257 C 0.71745 0.58169 0.00432 0.0
H258 H 0.98045 0.41599 0.98402 0.0
C259 C 0.98068 0.40401 0.01373 0.0
H260 H 0.9323 0.4046 0.06606 0.0
H261 H 0.81689 0.54182 0.92595 0.0
H262 H 0.89074 0.5897 0.9432 0.0
H263 H 0.95967 0.56876 0.99572 0.0
H264 H 0.95554 0.49925 0.03084 0.0
C265 C 0.93409 0.41554 0.03622 0.0
C266 C 0.88097 0.43708 0.01771 0.0
C267 C 0.88233 0.47847 -0.00124 0.0
C268 C 0.84194 0.49091 0.96913 0.0
C269 C 0.84623 0.53111 0.949 0.0
C270 C 0.88839 0.55885 0.95866 0.0
C271 C 0.92723 0.54705 0.98819 0.0
C272 C 0.92462 0.50718 0.00799 0.0
H273 H 0.70839 0.51923 0.94189 0.0
C274 C 0.72025 0.49587 0.91902 0.0
H275 H 0.7786 0.44227 0.90075 0.0
H276 H 0.85745 0.36174 0.05614 0.0
H277 H 0.77773 0.31759 0.04349 0.0
H278 H 0.70647 0.33973 0.99274 0.0
H279 H 0.71477 0.40602 0.95422 0.0
C280 C 0.76793 0.4675 0.92257 0.0
C281 C 0.79988 0.46215 0.9594 0.0
C282 C 0.79311 0.42427 0.98246 0.0
C283 C 0.83373 0.41176 0.01186 0.0
C284 C 0.82762 0.37273 0.03345 0.0
C285 C 0.78199 0.34719 0.02655 0.0
C286 C 0.74189 0.35964 -0.00203 0.0
C287 C 0.74725 0.39764 0.976 0.0
H288 H 0.17123 0.64657 0.0211 0.0
C289 C 0.13116 0.63083 0.02377 0.0
H290 H 0.09115 0.57166 0.01822 0.0
H291 H 0.24961 0.52282 0.87162 0.0
H292 H 0.1525 0.51398 0.84845 0.0
H293 H 0.06736 0.52775 0.89173 0.0
H294 H 0.07852 0.55015 0.95818 0.0
C295 C 0.13079 0.58768 0.01481 0.0
C296 C 0.18083 0.5643 0.99359 0.0
C297 C 0.17307 0.54988 0.95524 0.0
C298 C 0.2219 0.54232 0.93017 0.0
C299 C 0.2135 0.52944 0.89155 0.0
C300 C 0.1582 0.52411 0.87802 0.0
C301 C 0.11026 0.53184 0.9024 0.0
C302 C 0.11729 0.54481 0.94053 0.0
H303 H 0.37554 0.49809 0.92486 0.0
C304 C 0.37107 0.52904 0.90921 0.0
H305 H 0.31797 0.58846 0.89938 0.0
H306 H 0.21038 0.57443 0.06874 0.0
H307 H 0.30818 0.57733 0.09338 0.0
H308 H 0.39292 0.56835 0.04931 0.0
H309 H 0.38085 0.55542 0.9809 0.0
C310 C 0.32365 0.55728 0.91509 0.0
C311 C 0.27775 0.54908 0.94361 0.0
C312 C 0.28626 0.55662 0.98348 0.0
C313 C 0.23749 0.56337 0.00867 0.0
C314 C 0.24636 0.57044 0.04844 0.0
C315 C 0.30204 0.57195 0.06285 0.0
C316 C 0.34975 0.56685 0.03803 0.0
C317 C 0.34221 0.55944 -0.00125 0.0
H318 H 0.68555 0.92817 0.51579 0.0
C319 C 0.68358 0.89391 0.52479 0.0
H320 H 0.72584 0.82908 0.52086 0.0
H321 H 0.85693 0.87782 0.3673 0.0
H322 H 0.79171 0.82633 0.34375 0.0
H323 H 0.71848 0.79794 0.38702 0.0
H324 H 0.71021 0.82064 0.45408 0.0
C325 C 0.72807 0.86412 0.51533 0.0
C326 C 0.77611 0.87788 0.49064 0.0
C327 C 0.78054 0.86397 0.45156 0.0
C328 C 0.82224 0.88074 0.42649 0.0
C329 C 0.82564 0.86645 0.38752 0.0
C330 C 0.78853 0.83685 0.37362 0.0
C331 C 0.74735 0.82084 0.39799 0.0
C332 C 0.74313 0.83414 0.43649 0.0
H333 H 0.97419 0.89339 0.43938 0.0
C334 C 0.95908 0.91766 0.41762 0.0
H335 H 0.88621 0.94987 0.38993 0.0
H336 H 0.78249 0.90786 0.56484 0.0
H337 H 0.84588 0.96088 0.5881 0.0
H338 H 0.91626 0.9918 0.54422 0.0
H339 H 0.92365 0.9701 0.47704 0.0
C340 C 0.90221 0.92911 0.41393 0.0
C341 C 0.85959 0.91114 0.44061 0.0
C342 C 0.85578 0.92459 0.4799 0.0
C343 C 0.81433 0.90756 0.50502 0.0
C344 C 0.81205 0.92078 0.54427 0.0
C345 C 0.84845 0.95095 0.55807 0.0
C346 C 0.88812 0.96829 0.53339 0.0
C347 C 0.89198 0.95541 0.49479 0.0
H348 H 0.38199 0.23335 0.50526 0.0
C349 C 0.41295 0.20403 0.5063 0.0
H350 H 0.42386 0.13462 0.4972 0.0
H351 H 0.1555 0.11361 0.49494 0.0
H352 H 0.18149 0.08099 0.55726 0.0
H353 H 0.27931 0.08495 0.5837 0.0
H354 H 0.35151 0.12194 0.54818 0.0
C355 C 0.3961 0.16532 0.49402 0.0
C356 C 0.33752 0.16258 0.47765 0.0
C357 C 0.29634 0.13997 0.4984 0.0
C358 C 0.24042 0.13679 0.48274 0.0
C359 C 0.19927 0.11566 0.50485 0.0
C360 C 0.21345 0.09715 0.54083 0.0
C361 C 0.26849 0.09943 0.55575 0.0
C362 C 0.30957 0.12067 0.53499 0.0
H363 H 0.19256 0.07807 0.42596 0.0
C364 C 0.162 0.10521 0.41672 0.0
H365 H 0.14201 0.17457 0.41716 0.0
H366 H 0.40793 0.20548 0.42893 0.0
H367 H 0.38213 0.23771 0.36662 0.0
H368 H 0.28482 0.23278 0.3397 0.0
H369 H 0.21291 0.19545 0.37492 0.0
C370 C 0.17131 0.14659 0.42668 0.0
C371 C 0.22648 0.15502 0.44576 0.0
C372 C 0.2674 0.17825 0.42527 0.0
C373 C 0.32321 0.18167 0.44105 0.0
C374 C 0.36428 0.20304 0.41901 0.0
C375 C 0.35021 0.22141 0.38297 0.0
C376 C 0.29548 0.21859 0.3678 0.0
C377 C 0.25452 0.1971 0.38843 0.0
H378 H 0.43104 0.90248 0.52896 0.0
C379 C 0.46864 0.92129 0.53029 0.0
H380 H 0.50059 0.98276 0.51677 0.0
H381 H 0.34613 0.98358 0.3657 0.0
H382 H 0.44278 0.98798 0.33914 0.0
H383 H 0.52712 0.9887 0.38202 0.0
H384 H 0.51534 0.98496 0.45168 0.0
C385 C 0.46451 0.96259 0.51548 0.0
C386 C 0.41367 0.97805 0.49145 0.0
C387 C 0.42121 0.98252 0.45096 0.0
C388 C 0.37255 0.98254 0.42626 0.0
C389 C 0.38149 0.98406 0.38578 0.0
C390 C 0.43676 0.98653 0.37017 0.0
C391 C 0.48426 0.98693 0.39431 0.0
C392 C 0.47691 0.98467 0.43426 0.0
H393 H 0.24997 0.0295 0.39259 0.0
C394 C 0.23777 0.99603 0.39547 0.0
H395 H 0.25461 0.93394 0.42251 0.0
H396 H 0.38396 0.98313 0.56783 0.0
H397 H 0.28623 0.98506 0.59489 0.0
H398 H 0.20152 0.98507 0.55218 0.0
H399 H 0.21386 0.98339 0.48227 0.0
C400 C 0.26868 0.96676 0.41804 0.0
C401 C 0.31677 0.97907 0.44243 0.0
C402 C 0.3085 0.98112 0.48301 0.0
C403 C 0.35713 0.98082 0.5076 0.0
C404 C 0.34815 0.98239 0.54807 0.0
C405 C 0.29244 0.98372 0.56385 0.0
C406 C 0.24474 0.98374 0.5398 0.0
C407 C 0.25239 0.98258 0.49979 0.0
H408 H 0.66829 0.17148 0.50972 0.0
C409 C 0.62764 0.15642 0.51191 0.0
H410 H 0.58734 0.09739 0.50413 0.0
H411 H 0.76125 0.04887 0.36388 0.0
H412 H 0.6668 0.04612 0.33428 0.0
H413 H 0.57681 0.06326 0.37235 0.0
H414 H 0.58052 0.08287 0.44014 0.0
C415 C 0.62689 0.11368 0.50171 0.0
C416 C 0.67866 0.09006 0.48241 0.0
C417 C 0.6753 0.07752 0.44318 0.0
C418 C 0.72707 0.06812 0.42113 0.0
C419 C 0.72298 0.05686 0.38168 0.0
C420 C 0.66918 0.055 0.36445 0.0
C421 C 0.61851 0.06459 0.38591 0.0
C422 C 0.62124 0.07592 0.42479 0.0
H423 H 0.87749 1.01456 0.42701 0.0
C424 C 0.87803 0.04463 0.41034 0.0
H425 H 0.83201 0.10576 0.39582 0.0
H426 H 0.69843 0.09722 0.55949 0.0
H427 H 0.79273 0.09456 0.59041 0.0
H428 H 0.88293 0.0823 0.55176 0.0
H429 H 0.87968 0.07165 0.48247 0.0
C430 C 0.83292 0.07577 0.41317 0.0
C431 C 0.78164 0.07118 0.43842 0.0
C432 C 0.78494 0.07751 0.47889 0.0
C433 C 0.7331 0.08617 0.50102 0.0
C434 C 0.73688 0.09188 0.54143 0.0
C435 C 0.79054 0.0902 0.55944 0.0
C436 C 0.84132 0.08323 0.53768 0.0
C437 C 0.83884 0.07711 0.49784 0.0
loop_
_geom_bond_atom_site_label_1
_geom_bond_atom_site_label_2
_geom_bond_distance
_geom_bond_site_symmetry_2
_ccdc_geom_bond_type
H0 C3 0.931 . S
H1 C6 0.928 . S
H2 C8 0.930 . S
C3 H0 0.931 . S
C3 C4 1.413 1_556 S
C3 C5 1.360 1_556 S
C4 C3 1.413 1_554 S
C4 C8 1.429 . S
C5 C3 1.360 1_554 S
C5 C6 1.372 . S
C6 H1 0.928 . S
C6 C5 1.372 . S
C6 C7 1.404 . S
C7 C6 1.404 . S
C7 C8 1.391 . S
C8 H2 0.930 . S
C8 C4 1.429 . S
C8 C7 1.391 . S
H9 C12 0.931 . S
H10 C15 0.928 . S
H11 C17 0.930 . S
C12 H9 0.931 . S
C12 C13 1.413 1_556 S
C12 C14 1.360 1_456 S
C13 C12 1.413 1_554 S
C13 C17 1.429 . S
C14 C12 1.360 1_654 S
C14 C15 1.372 . S
C15 H10 0.928 . S
C15 C14 1.372 . S
C15 C16 1.404 1_655 S
C16 C15 1.404 1_455 S
C16 C17 1.391 . S
C17 H11 0.930 . S
C17 C13 1.429 . S
C17 C16 1.391 . S
H18 C21 0.931 . S
H19 C24 0.928 . S
H20 C26 0.930 . S
C21 H18 0.931 . S
C21 C22 1.413 . S
C21 C23 1.360 . S
C22 C21 1.413 . S
C22 C26 1.429 . S
C23 C21 1.360 . S
C23 C24 1.372 . S
C24 H19 0.928 . S
C24 C23 1.372 . S
C24 C25 1.404 . S
C25 C24 1.404 . S
C25 C26 1.391 . S
C26 H20 0.930 . S
C26 C22 1.429 . S
C26 C25 1.391 . S
H27 C30 0.931 . S
H28 C33 0.928 . S
H29 C35 0.930 . S
C30 H27 0.931 . S
C30 C31 1.413 . S
C30 C32 1.360 . S
C31 C30 1.413 . S
C31 C35 1.429 . S
C32 C30 1.360 . S
C32 C33 1.372 . S
C33 H28 0.928 . S
C33 C32 1.372 . S
C33 C34 1.404 . S
C34 C33 1.404 . S
C34 C35 1.391 . S
C35 H29 0.930 . S
C35 C31 1.429 . S
C35 C34 1.391 . S
Zn36 O42 1.920 . S
Zn36 O48 1.898 . S
Zn36 O51 1.905 1_455 S
Zn37 O45 1.905 . S
Zn37 O46 1.898 . S
Zn37 O54 1.920 . S
Zn38 O41 2.080 . S
Zn38 O44 2.114 1_545 S
Zn38 O47 2.120 1_545 S
Zn38 O49 2.120 . S
Zn38 O50 2.114 1_455 S
Zn38 O53 2.080 1_545 S
C39 O44 1.166 . S
C39 O45 1.182 . S
C40 O46 1.167 . S
C40 O47 1.299 . S
O41 Zn38 2.080 . S
O41 C55 1.305 . S
O42 Zn36 1.920 . S
O42 C55 1.234 . S
C43 O48 1.167 . S
C43 O49 1.299 . S
O44 Zn38 2.114 1_565 S
O44 C39 1.166 . S
O45 Zn37 1.905 . S
O45 C39 1.182 . S
O46 Zn37 1.898 . S
O46 C40 1.167 . S
O47 Zn38 2.120 1_565 S
O47 C40 1.299 . S
O48 Zn36 1.898 . S
O48 C43 1.167 . S
O49 Zn38 2.120 . S
O49 C43 1.299 . S
O50 Zn38 2.114 1_655 S
O50 C52 1.166 . S
O51 Zn36 1.905 1_655 S
O51 C52 1.182 . S
C52 O50 1.166 . S
C52 O51 1.182 . S
O53 Zn38 2.080 1_565 S
O53 C56 1.305 . S
O54 Zn37 1.920 . S
O54 C56 1.234 . S
C55 O41 1.305 . S
C55 O42 1.234 . S
C56 O53 1.305 . S
C56 O54 1.234 . S
Zn57 O63 1.920 . S
Zn57 O69 1.898 . S
Zn57 O72 1.905 . S
Zn58 O66 1.905 . S
Zn58 O67 1.898 . S
Zn58 O75 1.920 . S
Zn59 O62 2.080 . S
Zn59 O65 2.114 . S
Zn59 O68 2.120 . S
Zn59 O70 2.120 . S
Zn59 O71 2.114 . S
Zn59 O74 2.080 . S
C60 O65 1.166 . S
C60 O66 1.182 . S
C61 O67 1.167 . S
C61 O68 1.299 . S
O62 Zn59 2.080 . S
O62 C76 1.305 . S
O63 Zn57 1.920 . S
O63 C76 1.234 . S
C64 O69 1.167 . S
C64 O70 1.299 . S
O65 Zn59 2.114 . S
O65 C60 1.166 . S
O66 Zn58 1.905 . S
O66 C60 1.182 . S
O67 Zn58 1.898 . S
O67 C61 1.167 . S
O68 Zn59 2.120 . S
O68 C61 1.299 . S
O69 Zn57 1.898 . S
O69 C64 1.167 . S
O70 Zn59 2.120 . S
O70 C64 1.299 . S
O71 Zn59 2.114 . S
O71 C73 1.166 . S
O72 Zn57 1.905 . S
O72 C73 1.182 . S
C73 O71 1.166 . S
C73 O72 1.182 . S
O74 Zn59 2.080 . S
O74 C77 1.305 . S
O75 Zn58 1.920 . S
O75 C77 1.234 . S
C76 O62 1.305 . S
C76 O63 1.234 . S
C77 O74 1.305 . S
C77 O75 1.234 . S
H78 C79 0.951 . S
C79 H78 0.951 . S
C79 C85 1.265 . S
H80 C85 0.950 . S
H81 C89 0.949 . S
H82 C90 0.950 . S
H83 C91 0.951 . S
H84 C92 0.951 . S
C85 C79 1.265 . S
C85 H80 0.950 . S
C85 C86 1.478 . S
C86 C85 1.478 . S
C86 C87 1.397 . S
C86 C103 1.394 . S
C87 C86 1.397 . S
C87 C88 1.438 . S
C87 C92 1.429 . S
C88 C87 1.438 . S
C88 C89 1.428 . S
C88 C101 1.394 . S
C89 H81 0.949 . S
C89 C88 1.428 . S
C89 C90 1.345 . S
C90 H82 0.950 . S
C90 C89 1.345 . S
C90 C91 1.424 . S
C91 H83 0.951 . S
C91 C90 1.424 . S
C91 C92 1.347 . S
C92 H84 0.951 . S
C92 C87 1.429 . S
C92 C91 1.347 . S
H93 C94 0.951 . S
C94 H93 0.951 . S
C94 C100 1.265 . S
H95 C100 0.950 . S
H96 C104 0.949 . S
H97 C105 0.950 . S
H98 C106 0.951 . S
H99 C107 0.951 . S
C100 C94 1.265 . S
C100 H95 0.950 . S
C100 C101 1.478 . S
C101 C88 1.394 . S
C101 C100 1.478 . S
C101 C102 1.397 . S
C102 C101 1.397 . S
C102 C103 1.438 . S
C102 C107 1.429 . S
C103 C86 1.394 . S
C103 C102 1.438 . S
C103 C104 1.428 . S
C104 H96 0.949 . S
C104 C103 1.428 . S
C104 C105 1.345 . S
C105 H97 0.950 . S
C105 C104 1.345 . S
C105 C106 1.424 . S
C106 H98 0.951 . S
C106 C105 1.424 . S
C106 C107 1.347 . S
C107 H99 0.951 . S
C107 C102 1.429 . S
C107 C106 1.347 . S
H108 C109 0.951 . S
C109 H108 0.951 . S
C109 C115 1.265 1_455 S
H110 C115 0.950 . S
H111 C119 0.949 . S
H112 C120 0.950 . S
H113 C121 0.951 . S
H114 C122 0.948 1_655 S
C115 C109 1.265 1_655 S
C115 H110 0.950 . S
C115 C116 1.478 1_655 S
C116 C115 1.478 1_455 S
C116 C117 1.397 . S
C116 C133 1.394 . S
C117 C116 1.397 . S
C117 C118 1.438 . S
C117 C122 1.429 . S
C118 C117 1.438 . S
C118 C119 1.428 . S
C118 C131 1.394 . S
C119 H111 0.949 . S
C119 C118 1.428 . S
C119 C120 1.345 . S
C120 H112 0.950 . S
C120 C119 1.345 . S
C120 C121 1.424 . S
C121 H113 0.951 . S
C121 C120 1.424 . S
C121 C122 1.347 . S
C122 H114 0.948 1_455 S
C122 C117 1.429 . S
C122 C121 1.347 . S
H123 C124 0.951 1_655 S
C124 H123 0.951 1_455 S
C124 C130 1.265 . S
H125 C130 0.950 . S
H126 C134 0.949 . S
H127 C135 0.948 1_655 S
H128 C136 0.951 . S
H129 C137 0.951 . S
C130 C124 1.265 . S
C130 H125 0.950 . S
C130 C131 1.478 . S
C131 C118 1.394 . S
C131 C130 1.478 . S
C131 C132 1.397 . S
C132 C131 1.397 . S
C132 C133 1.438 . S
C132 C137 1.429 . S
C133 C116 1.394 . S
C133 C132 1.438 . S
C133 C134 1.428 1_455 S
C134 H126 0.949 . S
C134 C133 1.428 1_655 S
C134 C135 1.345 1_655 S
C135 H127 0.948 1_455 S
C135 C134 1.345 1_455 S
C135 C136 1.424 . S
C136 H128 0.951 . S
C136 C135 1.424 . S
C136 C137 1.347 . S
C137 H129 0.951 . S
C137 C132 1.429 . S
C137 C136 1.347 . S
H138 C139 0.951 . S
C139 H138 0.951 . S
C139 C145 1.265 . S
H140 C145 0.950 . S
H141 C149 0.949 . S
H142 C150 0.950 . S
H143 C151 0.951 . S
H144 C152 0.951 . S
C145 C139 1.265 . S
C145 H140 0.950 . S
C145 C146 1.478 . S
C146 C145 1.478 . S
C146 C147 1.397 . S
C146 C163 1.394 . S
C147 C146 1.397 . S
C147 C148 1.438 . S
C147 C152 1.429 . S
C148 C147 1.438 . S
C148 C149 1.428 . S
C148 C161 1.394 . S
C149 H141 0.949 . S
C149 C148 1.428 . S
C149 C150 1.345 . S
C150 H142 0.950 . S
C150 C149 1.345 . S
C150 C151 1.424 . S
C151 H143 0.951 . S
C151 C150 1.424 . S
C151 C152 1.347 . S
C152 H144 0.951 . S
C152 C147 1.429 . S
C152 C151 1.347 . S
H153 C154 0.951 . S
C154 H153 0.951 . S
C154 C160 1.265 . S
H155 C160 0.950 . S
H156 C164 0.949 . S
H157 C165 0.950 . S
H158 C166 0.951 . S
H159 C167 0.951 . S
C160 C154 1.265 . S
C160 H155 0.950 . S
C160 C161 1.478 . S
C161 C148 1.394 . S
C161 C160 1.478 . S
C161 C162 1.397 . S
C162 C161 1.397 . S
C162 C163 1.438 . S
C162 C167 1.429 . S
C163 C146 1.394 . S
C163 C162 1.438 . S
C163 C164 1.428 . S
C164 H156 0.949 . S
C164 C163 1.428 . S
C164 C165 1.345 . S
C165 H157 0.950 . S
C165 C164 1.345 . S
C165 C166 1.424 . S
C166 H158 0.951 . S
C166 C165 1.424 . S
C166 C167 1.347 . S
C167 H159 0.951 . S
C167 C162 1.429 . S
C167 C166 1.347 . S
H168 C169 0.951 . S
C169 H168 0.951 . S
C169 C175 1.265 . S
H170 C175 0.950 . S
H171 C179 0.949 . S
H172 C180 0.950 . S
H173 C181 0.951 . S
H174 C182 0.951 . S
C175 C169 1.265 . S
C175 H170 0.950 . S
C175 C176 1.478 . S
C176 C175 1.478 . S
C176 C177 1.397 . S
C176 C193 1.394 . S
C177 C176 1.397 . S
C177 C178 1.438 . S
C177 C182 1.429 . S
C178 C177 1.438 . S
C178 C179 1.428 . S
C178 C191 1.394 . S
C179 H171 0.949 . S
C179 C178 1.428 . S
C179 C180 1.345 . S
C180 H172 0.950 . S
C180 C179 1.345 . S
C180 C181 1.424 . S
C181 H173 0.951 . S
C181 C180 1.424 . S
C181 C182 1.347 . S
C182 H174 0.951 . S
C182 C177 1.429 . S
C182 C181 1.347 . S
H183 C184 0.951 . S
C184 H183 0.951 . S
C184 C190 1.265 . S
H185 C190 0.950 . S
H186 C194 0.949 . S
H187 C195 0.950 . S
H188 C196 0.951 . S
H189 C197 0.951 . S
C190 C184 1.265 . S
C190 H185 0.950 . S
C190 C191 1.478 . S
C191 C178 1.394 . S
C191 C190 1.478 . S
C191 C192 1.397 . S
C192 C191 1.397 . S
C192 C193 1.438 . S
C192 C197 1.429 . S
C193 C176 1.394 . S
C193 C192 1.438 . S
C193 C194 1.428 . S
C194 H186 0.949 . S
C194 C193 1.428 . S
C194 C195 1.345 . S
C195 H187 0.950 . S
C195 C194 1.345 . S
C195 C196 1.424 . S
C196 H188 0.951 . S
C196 C195 1.424 . S
C196 C197 1.347 . S
C197 H189 0.951 . S
C197 C192 1.429 . S
C197 C196 1.347 . S
H198 C199 0.951 . S
C199 H198 0.951 . S
C199 C205 1.266 . S
H200 C205 0.945 1_554 S
H201 C209 0.949 . S
H202 C210 0.950 . S
H203 C211 0.951 . S
H204 C212 0.951 . S
C205 C199 1.266 . S
C205 H200 0.945 1_556 S
C205 C206 1.481 . S
C206 C205 1.481 . S
C206 C207 1.397 . S
C206 C223 1.394 . S
C207 C206 1.397 . S
C207 C208 1.438 . S
C207 C212 1.429 . S
C208 C207 1.438 . S
C208 C209 1.428 . S
C208 C221 1.394 . S
C209 H201 0.949 . S
C209 C208 1.428 . S
C209 C210 1.345 . S
C210 H202 0.950 . S
C210 C209 1.345 . S
C210 C211 1.424 . S
C211 H203 0.951 . S
C211 C210 1.424 . S
C211 C212 1.347 . S
C212 H204 0.951 . S
C212 C207 1.429 . S
C212 C211 1.347 . S
H213 C214 0.951 . S
C214 H213 0.951 . S
C214 C220 1.265 . S
H215 C220 0.950 . S
H216 C224 0.949 . S
H217 C225 0.950 . S
H218 C226 0.951 . S
H219 C227 0.951 . S
C220 C214 1.265 . S
C220 H215 0.950 . S
C220 C221 1.478 . S
C221 C208 1.394 . S
C221 C220 1.478 . S
C221 C222 1.397 . S
C222 C221 1.397 . S
C222 C223 1.438 . S
C222 C227 1.429 . S
C223 C206 1.394 . S
C223 C222 1.438 . S
C223 C224 1.428 1_556 S
C224 H216 0.949 . S
C224 C223 1.428 1_554 S
C224 C225 1.345 . S
C225 H217 0.950 . S
C225 C224 1.345 . S
C225 C226 1.424 . S
C226 H218 0.951 . S
C226 C225 1.424 . S
C226 C227 1.347 1_554 S
C227 H219 0.951 . S
C227 C222 1.429 . S
C227 C226 1.347 1_556 S
H228 C229 0.951 . S
C229 H228 0.951 . S
C229 C235 1.265 . S
H230 C235 0.950 1_554 S
H231 C239 0.949 . S
H232 C240 0.950 . S
H233 C241 0.951 . S
H234 C242 0.951 . S
C235 C229 1.265 . S
C235 H230 0.950 1_556 S
C235 C236 1.478 . S
C236 C235 1.478 . S
C236 C237 1.397 . S
C236 C253 1.394 1_556 S
C237 C236 1.397 . S
C237 C238 1.438 . S
C237 C242 1.429 . S
C238 C237 1.438 . S
C238 C239 1.428 . S
C238 C251 1.394 . S
C239 H231 0.949 . S
C239 C238 1.428 . S
C239 C240 1.345 . S
C240 H232 0.950 . S
C240 C239 1.345 . S
C240 C241 1.424 . S
C241 H233 0.951 . S
C241 C240 1.424 . S
C241 C242 1.347 . S
C242 H234 0.951 . S
C242 C237 1.429 . S
C242 C241 1.347 . S
H243 C244 0.951 . S
C244 H243 0.951 . S
C244 C250 1.265 . S
H245 C250 0.950 . S
H246 C254 0.949 . S
H247 C255 0.950 . S
H248 C256 0.951 . S
H249 C257 0.951 1_556 S
C250 C244 1.265 . S
C250 H245 0.950 . S
C250 C251 1.478 . S
C251 C238 1.394 . S
C251 C250 1.478 . S
C251 C252 1.397 . S
C252 C251 1.397 . S
C252 C253 1.438 1_556 S
C252 C257 1.429 1_556 S
C253 C236 1.394 1_554 S
C253 C252 1.438 1_554 S
C253 C254 1.428 . S
C254 H246 0.949 . S
C254 C253 1.428 . S
C254 C255 1.345 . S
C255 H247 0.950 . S
C255 C254 1.345 . S
C255 C256 1.424 . S
C256 H248 0.951 . S
C256 C255 1.424 . S
C256 C257 1.347 . S
C257 H249 0.951 1_554 S
C257 C252 1.429 1_554 S
C257 C256 1.347 . S
H258 C259 0.951 . S
C259 H258 0.951 . S
C259 C265 1.265 1_455 S
H260 C265 0.950 1_554 S
H261 C269 0.949 . S
H262 C270 0.950 . S
H263 C271 0.951 . S
H264 C272 0.951 . S
C265 C259 1.265 1_655 S
C265 H260 0.950 1_556 S
C265 C266 1.478 . S
C266 C265 1.478 . S
C266 C267 1.397 . S
C266 C283 1.394 . S
C267 C266 1.397 . S
C267 C268 1.438 . S
C267 C272 1.429 1_556 S
C268 C267 1.438 . S
C268 C269 1.428 . S
C268 C281 1.394 . S
C269 H261 0.949 . S
C269 C268 1.428 . S
C269 C270 1.345 1_556 S
C270 H262 0.950 . S
C270 C269 1.345 1_554 S
C270 C271 1.424 . S
C271 H263 0.951 . S
C271 C270 1.424 . S
C271 C272 1.347 . S
C272 H264 0.951 . S
C272 C267 1.429 1_554 S
C272 C271 1.347 . S
H273 C274 0.951 . S
C274 H273 0.951 . S
C274 C280 1.265 . S
H275 C280 0.950 . S
H276 C284 0.949 . S
H277 C285 0.950 . S
H278 C286 0.951 . S
H279 C287 0.951 . S
C280 C274 1.265 . S
C280 H275 0.950 . S
C280 C281 1.478 . S
C281 C268 1.394 . S
C281 C280 1.478 . S
C281 C282 1.397 . S
C282 C281 1.397 . S
C282 C283 1.438 . S
C282 C287 1.429 . S
C283 C266 1.394 . S
C283 C282 1.438 . S
C283 C284 1.428 . S
C284 H276 0.949 . S
C284 C283 1.428 . S
C284 C285 1.345 . S
C285 H277 0.950 . S
C285 C284 1.345 . S
C285 C286 1.424 . S
C286 H278 0.951 . S
C286 C285 1.424 . S
C286 C287 1.347 . S
C287 H279 0.951 . S
C287 C282 1.429 . S
C287 C286 1.347 . S
H288 C289 0.951 1_554 S
C289 H288 0.951 1_556 S
C289 C295 1.265 . S
H290 C295 0.950 . S
H291 C299 0.949 . S
H292 C300 0.950 . S
H293 C301 0.951 . S
H294 C302 0.951 . S
C295 C289 1.265 . S
C295 H290 0.950 . S
C295 C296 1.478 . S
C296 C295 1.478 . S
C296 C297 1.397 . S
C296 C313 1.394 . S
C297 C296 1.397 . S
C297 C298 1.438 . S
C297 C302 1.429 . S
C298 C297 1.438 . S
C298 C299 1.428 . S
C298 C311 1.394 . S
C299 H291 0.949 . S
C299 C298 1.428 . S
C299 C300 1.345 . S
C300 H292 0.950 . S
C300 C299 1.345 . S
C300 C301 1.424 . S
C301 H293 0.951 . S
C301 C300 1.424 . S
C301 C302 1.347 . S
C302 H294 0.951 . S
C302 C297 1.429 . S
C302 C301 1.347 . S
H303 C304 0.951 . S
C304 H303 0.951 . S
C304 C310 1.265 . S
H305 C310 0.950 . S
H306 C314 0.949 . S
H307 C315 0.950 . S
H308 C316 0.951 . S
H309 C317 0.951 . S
C310 C304 1.265 . S
C310 H305 0.950 . S
C310 C311 1.478 . S
C311 C298 1.394 . S
C311 C310 1.478 . S
C311 C312 1.397 . S
C312 C311 1.397 . S
C312 C313 1.438 . S
C312 C317 1.429 . S
C313 C296 1.394 . S
C313 C312 1.438 . S
C313 C314 1.428 1_556 S
C314 H306 0.949 . S
C314 C313 1.428 1_554 S
C314 C315 1.345 . S
C315 H307 0.950 . S
C315 C314 1.345 . S
C315 C316 1.424 . S
C316 H308 0.951 . S
C316 C315 1.424 . S
C316 C317 1.347 1_554 S
C317 H309 0.951 . S
C317 C312 1.429 . S
C317 C316 1.347 1_556 S
H318 C319 0.951 . S
C319 H318 0.951 . S
C319 C325 1.265 . S
H320 C325 0.950 . S
H321 C329 0.949 . S
H322 C330 0.950 . S
H323 C331 0.951 . S
H324 C332 0.951 . S
C325 C319 1.265 . S
C325 H320 0.950 . S
C325 C326 1.478 . S
C326 C325 1.478 . S
C326 C327 1.397 . S
C326 C343 1.394 . S
C327 C326 1.397 . S
C327 C328 1.438 . S
C327 C332 1.429 . S
C328 C327 1.438 . S
C328 C329 1.428 . S
C328 C341 1.394 . S
C329 H321 0.949 . S
C329 C328 1.428 . S
C329 C330 1.345 . S
C330 H322 0.950 . S
C330 C329 1.345 . S
C330 C331 1.424 . S
C331 H323 0.951 . S
C331 C330 1.424 . S
C331 C332 1.347 . S
C332 H324 0.951 . S
C332 C327 1.429 . S
C332 C331 1.347 . S
H333 C334 0.951 . S
C334 H333 0.951 . S
C334 C340 1.265 . S
H335 C340 0.950 . S
H336 C344 0.949 . S
H337 C345 0.950 . S
H338 C346 0.951 . S
H339 C347 0.951 . S
C340 C334 1.265 . S
C340 H335 0.950 . S
C340 C341 1.478 . S
C341 C328 1.394 . S
C341 C340 1.478 . S
C341 C342 1.397 . S
C342 C341 1.397 . S
C342 C343 1.438 . S
C342 C347 1.429 . S
C343 C326 1.394 . S
C343 C342 1.438 . S
C343 C344 1.428 . S
C344 H336 0.949 . S
C344 C343 1.428 . S
C344 C345 1.345 . S
C345 H337 0.950 . S
C345 C344 1.345 . S
C345 C346 1.424 . S
C346 H338 0.951 . S
C346 C345 1.424 . S
C346 C347 1.347 . S
C347 H339 0.951 . S
C347 C342 1.429 . S
C347 C346 1.347 . S
H348 C349 0.951 . S
C349 H348 0.951 . S
C349 C355 1.265 . S
H350 C355 0.950 . S
H351 C359 0.949 . S
H352 C360 0.950 . S
H353 C361 0.951 . S
H354 C362 0.951 . S
C355 C349 1.265 . S
C355 H350 0.950 . S
C355 C356 1.478 . S
C356 C355 1.478 . S
C356 C357 1.397 . S
C356 C373 1.394 . S
C357 C356 1.397 . S
C357 C358 1.438 . S
C357 C362 1.429 . S
C358 C357 1.438 . S
C358 C359 1.428 . S
C358 C371 1.394 . S
C359 H351 0.949 . S
C359 C358 1.428 . S
C359 C360 1.345 . S
C360 H352 0.950 . S
C360 C359 1.345 . S
C360 C361 1.424 . S
C361 H353 0.951 . S
C361 C360 1.424 . S
C361 C362 1.347 . S
C362 H354 0.951 . S
C362 C357 1.429 . S
C362 C361 1.347 . S
H363 C364 0.951 . S
C364 H363 0.951 . S
C364 C370 1.265 . S
H365 C370 0.950 . S
H366 C374 0.949 . S
H367 C375 0.950 . S
H368 C376 0.951 . S
H369 C377 0.951 . S
C370 C364 1.265 . S
C370 H365 0.950 . S
C370 C371 1.478 . S
C371 C358 1.394 . S
C371 C370 1.478 . S
C371 C372 1.397 . S
C372 C371 1.397 . S
C372 C373 1.438 . S
C372 C377 1.429 . S
C373 C356 1.394 . S
C373 C372 1.438 . S
C373 C374 1.428 . S
C374 H366 0.949 . S
C374 C373 1.428 . S
C374 C375 1.345 . S
C375 H367 0.950 . S
C375 C374 1.345 . S
C375 C376 1.424 . S
C376 H368 0.951 . S
C376 C375 1.424 . S
C376 C377 1.347 . S
C377 H369 0.951 . S
C377 C372 1.429 . S
C377 C376 1.347 . S
H378 C379 0.951 . S
C379 H378 0.951 . S
C379 C385 1.265 . S
H380 C385 0.950 . S
H381 C389 0.949 . S
H382 C390 0.950 . S
H383 C391 0.951 . S
H384 C392 0.951 . S
C385 C379 1.265 . S
C385 H380 0.950 . S
C385 C386 1.478 . S
C386 C385 1.478 . S
C386 C387 1.397 . S
C386 C403 1.394 . S
C387 C386 1.397 . S
C387 C388 1.438 . S
C387 C392 1.429 . S
C388 C387 1.438 . S
C388 C389 1.428 . S
C388 C401 1.394 . S
C389 H381 0.949 . S
C389 C388 1.428 . S
C389 C390 1.345 . S
C390 H382 0.950 . S
C390 C389 1.345 . S
C390 C391 1.424 . S
C391 H383 0.951 . S
C391 C390 1.424 . S
C391 C392 1.347 . S
C392 H384 0.951 . S
C392 C387 1.429 . S
C392 C391 1.347 . S
H393 C394 0.951 . S
C394 H393 0.951 . S
C394 C400 1.265 . S
H395 C400 0.950 . S
H396 C404 0.949 . S
H397 C405 0.950 . S
H398 C406 0.951 . S
H399 C407 0.951 . S
C400 C394 1.265 . S
C400 H395 0.950 . S
C400 C401 1.478 . S
C401 C388 1.394 . S
C401 C400 1.478 . S
C401 C402 1.397 . S
C402 C401 1.397 . S
C402 C403 1.438 . S
C402 C407 1.429 . S
C403 C386 1.394 . S
C403 C402 1.438 . S
C403 C404 1.428 . S
C404 H396 0.949 . S
C404 C403 1.428 . S
C404 C405 1.345 . S
C405 H397 0.950 . S
C405 C404 1.345 . S
C405 C406 1.424 . S
C406 H398 0.951 . S
C406 C405 1.424 . S
C406 C407 1.347 . S
C407 H399 0.951 . S
C407 C402 1.429 . S
C407 C406 1.347 . S
H408 C409 0.951 . S
C409 H408 0.951 . S
C409 C415 1.265 . S
H410 C415 0.950 . S
H411 C419 0.949 . S
H412 C420 0.950 . S
H413 C421 0.951 . S
H414 C422 0.951 . S
C415 C409 1.265 . S
C415 H410 0.950 . S
C415 C416 1.478 . S
C416 C415 1.478 . S
C416 C417 1.397 . S
C416 C433 1.394 . S
C417 C416 1.397 . S
C417 C418 1.438 . S
C417 C422 1.429 . S
C418 C417 1.438 . S
C418 C419 1.428 . S
C418 C431 1.394 . S
C419 H411 0.949 . S
C419 C418 1.428 . S
C419 C420 1.345 . S
C420 H412 0.950 . S
C420 C419 1.345 . S
C420 C421 1.424 . S
C421 H413 0.951 . S
C421 C420 1.424 . S
C421 C422 1.347 . S
C422 H414 0.951 . S
C422 C417 1.429 . S
C422 C421 1.347 . S
H423 C424 0.951 . S
C424 H423 0.951 . S
C424 C430 1.265 . S
H425 C430 0.950 . S
H426 C434 0.949 . S
H427 C435 0.950 . S
H428 C436 0.951 . S
H429 C437 0.951 . S
C430 C424 1.265 . S
C430 H425 0.950 . S
C430 C431 1.478 . S
C431 C418 1.394 . S
C431 C430 1.478 . S
C431 C432 1.397 . S
C432 C431 1.397 . S
C432 C433 1.438 . S
C432 C437 1.429 . S
C433 C416 1.394 . S
C433 C432 1.438 . S
C433 C434 1.428 . S
C434 H426 0.949 . S
C434 C433 1.428 . S
C434 C435 1.345 . S
C435 H427 0.950 . S
C435 C434 1.345 . S
C435 C436 1.424 . S
C436 H428 0.951 . S
C436 C435 1.424 . S
C436 C437 1.347 . S
C437 H429 0.951 . S
C437 C432 1.429 . S
C437 C436 1.347 . S
C94 C43 1.369 . S
C79 C7 1.472 . S
C124 C39 1.354 . S
C109 C16 1.475 . S
C154 C64 1.365 . S
C139 C25 1.473 . S
C169 C34 1.471 . S
C184 C60 1.373 . S
C199 C5 1.201 1_556 S
C214 C61 1.072 . S
C244 C76 1.072 . S
C229 C14 1.216 1_556 S
C259 C4 1.626 1_556 S
C274 C77 1.470 . S
C304 C73 1.568 . S
C289 C13 1.652 1_556 S
C334 C40 1.007 1_655 S
C319 C23 1.188 . S
C349 C32 1.259 . S
C364 C55 1.175 . S
C394 C56 1.543 . S
C379 C22 1.638 . S
C424 C52 1.590 . S
C409 C31 1.656 . S
