# Generated by pormake.
# Topology pyr, (3,6)-cn, num edge types: 1
# Building blocks:
#     Node 0, Type 0, BuildingBlock: BELTOD_clean_linker_0, # of connection points: 3
#     Node 1, Type 0, BuildingBlock: BELTOD_clean_linker_0, # of connection points: 3
#     Node 2, Type 0, BuildingBlock: BELTOD_clean_linker_0, # of connection points: 3
#     Node 3, Type 0, BuildingBlock: BELTOD_clean_linker_0, # of connection points: 3
#     Node 4, Type 0, BuildingBlock: BELTOD_clean_linker_0, # of connection points: 3
#     Node 5, Type 0, BuildingBlock: BELTOD_clean_linker_0, # of connection points: 3
#     Node 6, Type 0, BuildingBlock: BELTOD_clean_linker_0, # of connection points: 3
#     Node 7, Type 0, BuildingBlock: BELTOD_clean_linker_0, # of connection points: 3
#     Node 8, Type 1, BuildingBlock: BETGAK_clean_sbu_0, # of connection points: 6
#     Node 9, Type 1, BuildingBlock: BETGAK_clean_sbu_0, # of connection points: 6
#     Node 10, Type 1, BuildingBlock: BETGAK_clean_sbu_0, # of connection points: 6
#     Node 11, Type 1, BuildingBlock: BETGAK_clean_sbu_0, # of connection points: 6
#     Edge 12, Type (0, 1), BuildingBlock: ZUJKAS_clean_linker_0, # of connection points: 2
#     Edge 13, Type (0, 1), BuildingBlock: ZUJKAS_clean_linker_0, # of connection points: 2
#     Edge 14, Type (0, 1), BuildingBlock: ZUJKAS_clean_linker_0, # of connection points: 2
#     Edge 15, Type (0, 1), BuildingBlock: ZUJKAS_clean_linker_0, # of connection points: 2
#     Edge 16, Type (0, 1), BuildingBlock: ZUJKAS_clean_linker_0, # of connection points: 2
#     Edge 17, Type (0, 1), BuildingBlock: ZUJKAS_clean_linker_0, # of connection points: 2
#     Edge 18, Type (0, 1), BuildingBlock: ZUJKAS_clean_linker_0, # of connection points: 2
#     Edge 19, Type (0, 1), BuildingBlock: ZUJKAS_clean_linker_0, # of connection points: 2
#     Edge 20, Type (0, 1), BuildingBlock: ZUJKAS_clean_linker_0, # of connection points: 2
#     Edge 21, Type (0, 1), BuildingBlock: ZUJKAS_clean_linker_0, # of connection points: 2
#     Edge 22, Type (0, 1), BuildingBlock: ZUJKAS_clean_linker_0, # of connection points: 2
#     Edge 23, Type (0, 1), BuildingBlock: ZUJKAS_clean_linker_0, # of connection points: 2
#     Edge 24, Type (0, 1), BuildingBlock: ZUJKAS_clean_linker_0, # of connection points: 2
#     Edge 25, Type (0, 1), BuildingBlock: ZUJKAS_clean_linker_0, # of connection points: 2
#     Edge 26, Type (0, 1), BuildingBlock: ZUJKAS_clean_linker_0, # of connection points: 2
#     Edge 27, Type (0, 1), BuildingBlock: ZUJKAS_clean_linker_0, # of connection points: 2
#     Edge 28, Type (0, 1), BuildingBlock: ZUJKAS_clean_linker_0, # of connection points: 2
#     Edge 29, Type (0, 1), BuildingBlock: ZUJKAS_clean_linker_0, # of connection points: 2
#     Edge 30, Type (0, 1), BuildingBlock: ZUJKAS_clean_linker_0, # of connection points: 2
#     Edge 31, Type (0, 1), BuildingBlock: ZUJKAS_clean_linker_0, # of connection points: 2
#     Edge 32, Type (0, 1), BuildingBlock: ZUJKAS_clean_linker_0, # of connection points: 2
#     Edge 33, Type (0, 1), BuildingBlock: ZUJKAS_clean_linker_0, # of connection points: 2
#     Edge 34, Type (0, 1), BuildingBlock: ZUJKAS_clean_linker_0, # of connection points: 2
#     Edge 35, Type (0, 1), BuildingBlock: ZUJKAS_clean_linker_0, # of connection points: 2
# Relax obj value: 0.077
# Max RMSD: 0.118
# Mean RMSD: 0.054
data_MOF--net-pyr--node1-BETGAK_clean_sbu_0--node2-BELTOD_clean_linker_0--edge1-ZUJKAS_clean_linker_0
_symmetry_space_group_name_H-M    P1
_symmetry_Int_Tables_number       1
_symmetry_cell_setting            triclinic
loop_
_symmetry_equiv_pos_as_xyz
'x, y, z'
_cell_length_a     54.288622
_cell_length_b     57.193802
_cell_length_c     51.232787
_cell_angle_alpha  90.905351
_cell_angle_beta   88.764252
_cell_angle_gamma 99.354247
loop_
_atom_site_label
_atom_site_type_symbol
_atom_site_fract_x
_atom_site_fract_y
_atom_site_fract_z
_atom_type_partial_charge
P0 P 0.33738 0.3034 0.25091 0.0
H1 H 0.37024 0.30331 0.20484 0.0
H2 H 0.39033 0.27233 0.18374 0.0
H3 H 0.35584 0.22221 0.24117 0.0
H4 H 0.33613 0.25303 0.26216 0.0
H5 H 0.32856 0.35211 0.25506 0.0
H6 H 0.30562 0.37572 0.22801 0.0
H7 H 0.29402 0.31861 0.1711 0.0
H8 H 0.31722 0.29524 0.19814 0.0
H9 H 0.33452 0.29094 0.30627 0.0
H10 H 0.28466 0.28578 0.24128 0.0
O11 O 0.35915 0.31994 0.26876 0.0
H12 H 0.30086 0.26987 0.33367 0.0
H13 H 0.25082 0.26575 0.26862 0.0
C14 C 0.35126 0.28041 0.23473 0.0
C15 C 0.36686 0.28559 0.21271 0.0
C16 C 0.37829 0.26788 0.20067 0.0
C17 C 0.37463 0.24482 0.21078 0.0
C18 C 0.35921 0.23984 0.23304 0.0
C19 C 0.34772 0.25748 0.24494 0.0
C20 C 0.32504 0.32215 0.22836 0.0
C21 C 0.32166 0.34494 0.23642 0.0
C22 C 0.30834 0.35831 0.22106 0.0
C23 C 0.29792 0.349 0.19745 0.0
C24 C 0.30212 0.32644 0.18898 0.0
C25 C 0.31543 0.31306 0.20441 0.0
C26 C 0.31199 0.29032 0.27188 0.0
C27 C 0.3162 0.28574 0.29806 0.0
C28 C 0.29691 0.27374 0.31371 0.0
C29 C 0.2731 0.26609 0.30336 0.0
C30 C 0.26898 0.27107 0.27716 0.0
C31 C 0.2883 0.28283 0.26153 0.0
P32 P 0.36922 0.93416 0.57343 0.0
H33 H 0.41249 0.95306 0.60511 0.0
H34 H 0.4182 0.95677 0.65242 0.0
H35 H 0.34131 0.92437 0.66503 0.0
H36 H 0.3359 0.92043 0.61795 0.0
H37 H 0.37809 0.91556 0.52133 0.0
H38 H 0.38314 0.87601 0.5051 0.0
H39 H 0.37456 0.84988 0.58405 0.0
H40 H 0.36895 0.8889 0.59984 0.0
H41 H 0.3462 0.97612 0.58036 0.0
H42 H 0.32369 0.90373 0.55465 0.0
O43 O 0.38963 0.95467 0.55817 0.0
H44 H 0.3031 0.98312 0.57707 0.0
H45 H 0.28064 0.91067 0.55124 0.0
C46 C 0.37367 0.9369 0.60809 0.0
C47 C 0.39689 0.94683 0.61811 0.0
C48 C 0.4001 0.94897 0.6451 0.0
C49 C 0.38017 0.94094 0.66244 0.0
C50 C 0.35708 0.93054 0.65222 0.0
C51 C 0.35389 0.92851 0.6253 0.0
C52 C 0.3736 0.90527 0.56181 0.0
C53 C 0.37737 0.90126 0.53507 0.0
C54 C 0.38024 0.87868 0.52584 0.0
C55 C 0.37919 0.85977 0.54326 0.0
C56 C 0.37505 0.86391 0.57001 0.0
C57 C 0.37214 0.8864 0.57916 0.0
C58 C 0.33819 0.93957 0.5674 0.0
C59 C 0.33204 0.96186 0.57363 0.0
C60 C 0.30742 0.96576 0.572 0.0
C61 C 0.28856 0.94739 0.56401 0.0
C62 C 0.29487 0.92518 0.55725 0.0
C63 C 0.3195 0.92123 0.55913 0.0
P64 P 0.66946 0.3412 0.85078 0.0
H65 H 0.71736 0.32955 0.86583 0.0
H66 H 0.75231 0.35048 0.89032 0.0
H67 H 0.71104 0.40794 0.90573 0.0
H68 H 0.6761 0.38683 0.8805 0.0
H69 H 0.63722 0.2978 0.83441 0.0
H70 H 0.61527 0.26364 0.85794 0.0
H71 H 0.63673 0.29875 0.93121 0.0
H72 H 0.65905 0.33284 0.90733 0.0
H73 H 0.68558 0.38716 0.82627 0.0
H74 H 0.6172 0.33741 0.83353 0.0
O75 O 0.68371 0.32717 0.82759 0.0
H76 H 0.66595 0.41019 0.79552 0.0
H77 H 0.59765 0.35978 0.80194 0.0
C78 C 0.69427 0.3568 0.8708 0.0
C79 C 0.71577 0.34666 0.87445 0.0
C80 C 0.73576 0.35864 0.88873 0.0
C81 C 0.73473 0.38107 0.90005 0.0
C82 C 0.71277 0.39092 0.89697 0.0
C83 C 0.69268 0.37882 0.88263 0.0
C84 C 0.64984 0.31797 0.869 0.0
C85 C 0.6369 0.29834 0.85556 0.0
C86 C 0.62425 0.27874 0.86913 0.0
C87 C 0.6242 0.27819 0.89662 0.0
C88 C 0.63661 0.29828 0.91008 0.0
C89 C 0.64924 0.31796 0.89642 0.0
C90 C 0.65279 0.3608 0.83292 0.0
C91 C 0.66612 0.38144 0.82175 0.0
C92 C 0.65493 0.39443 0.80369 0.0
C93 C 0.63014 0.38687 0.79583 0.0
C94 C 0.61661 0.36646 0.80761 0.0
C95 C 0.62783 0.35355 0.82581 0.0
P96 P 0.82995 0.69763 0.34583 0.0
H97 H 0.86749 0.73641 0.32745 0.0
H98 H 0.89109 0.77109 0.34904 0.0
H99 H 0.85965 0.74564 0.42353 0.0
H100 H 0.83684 0.71059 0.40182 0.0
H101 H 0.81212 0.65889 0.31019 0.0
H102 H 0.83303 0.63539 0.27925 0.0
H103 H 0.90463 0.66965 0.30716 0.0
H104 H 0.88347 0.69325 0.33801 0.0
H105 H 0.78749 0.71271 0.37267 0.0
H106 H 0.81919 0.64848 0.36597 0.0
O107 O 0.81507 0.71154 0.32424 0.0
H108 H 0.75267 0.69212 0.39867 0.0
H109 H 0.78392 0.62741 0.3914 0.0
C110 C 0.85036 0.72085 0.36293 0.0
C111 C 0.86605 0.73808 0.3485 0.0
C112 C 0.87933 0.75809 0.36089 0.0
C113 C 0.87708 0.76149 0.38808 0.0
C114 C 0.86204 0.74366 0.40262 0.0
C115 C 0.84884 0.72355 0.39017 0.0
C116 C 0.84614 0.67779 0.32654 0.0
C117 C 0.83232 0.66105 0.30999 0.0
C118 C 0.84435 0.64757 0.29228 0.0
C119 C 0.87059 0.65062 0.29053 0.0
C120 C 0.88442 0.66703 0.30767 0.0
C121 C 0.87231 0.68046 0.32551 0.0
C122 C 0.80579 0.68211 0.36707 0.0
C123 C 0.78693 0.69412 0.37681 0.0
C124 C 0.76688 0.68222 0.39153 0.0
C125 C 0.76514 0.65792 0.39686 0.0
C126 C 0.7846 0.6461 0.38779 0.0
C127 C 0.80476 0.65811 0.37308 0.0
P128 P 0.73157 0.82108 0.86703 0.0
H129 H 0.70403 0.81859 0.91632 0.0
H130 H 0.6642 0.83071 0.92854 0.0
H131 H 0.64857 0.83817 0.84703 0.0
H132 H 0.68841 0.82617 0.83497 0.0
H133 H 0.78135 0.81639 0.88222 0.0
H134 H 0.79988 0.78332 0.8976 0.0
H135 H 0.72746 0.73881 0.897 0.0
H136 H 0.709 0.77228 0.88101 0.0
H137 H 0.73627 0.85877 0.82917 0.0
H138 H 0.74019 0.78403 0.82873 0.0
O139 O 0.74741 0.84607 0.87951 0.0
H140 H 0.75003 0.86113 0.78351 0.0
H141 H 0.75406 0.78628 0.78294 0.0
C142 C 0.69925 0.82157 0.8748 0.0
C143 C 0.69161 0.82198 0.90106 0.0
C144 C 0.6688 0.8289 0.90801 0.0
C145 C 0.65341 0.8357 0.88872 0.0
C146 C 0.66023 0.83335 0.86231 0.0
C147 C 0.68301 0.82638 0.8554 0.0
C148 C 0.74374 0.79691 0.88118 0.0
C149 C 0.76934 0.79966 0.88586 0.0
C150 C 0.77991 0.78071 0.8947 0.0
C151 C 0.76509 0.7585 0.89887 0.0
C152 C 0.73935 0.75571 0.89398 0.0
C153 C 0.72874 0.77483 0.88511 0.0
C154 C 0.73782 0.8214 0.83245 0.0
C155 C 0.73975 0.8428 0.8191 0.0
C156 C 0.74737 0.84406 0.79292 0.0
C157 C 0.75325 0.82389 0.7797 0.0
C158 C 0.74988 0.80213 0.79275 0.0
C159 C 0.74203 0.80086 0.81893 0.0
P160 P 0.77936 0.25652 0.41574 0.0
H161 H 0.78197 0.29279 0.4568 0.0
H162 H 0.75181 0.30186 0.49003 0.0
H163 H 0.69943 0.2411 0.46434 0.0
H164 H 0.72939 0.23263 0.43074 0.0
H165 H 0.83148 0.25152 0.40585 0.0
H166 H 0.85681 0.22261 0.42044 0.0
H167 H 0.79386 0.18761 0.46581 0.0
H168 H 0.76872 0.21632 0.45111 0.0
H169 H 0.75261 0.27787 0.3763 0.0
H170 H 0.76733 0.20806 0.39423 0.0
O171 O 0.79747 0.28182 0.40733 0.0
H172 H 0.72707 0.2613 0.33952 0.0
H173 H 0.74157 0.1914 0.3581 0.0
C174 C 0.75759 0.2625 0.44087 0.0
C175 C 0.76397 0.28148 0.45834 0.0
C176 C 0.74683 0.28643 0.47755 0.0
C177 C 0.72314 0.27227 0.47973 0.0
C178 C 0.71733 0.25259 0.46287 0.0
C179 C 0.73442 0.24777 0.44361 0.0
C180 C 0.7984 0.23632 0.42779 0.0
C181 C 0.82326 0.23778 0.41917 0.0
C182 C 0.83769 0.22129 0.42751 0.0
C183 C 0.82728 0.2029 0.44426 0.0
C184 C 0.80231 0.20149 0.45274 0.0
C185 C 0.788 0.21805 0.44455 0.0
C186 C 0.76226 0.24431 0.38766 0.0
C187 C 0.75052 0.25903 0.37216 0.0
C188 C 0.73575 0.2495 0.35135 0.0
C189 C 0.73237 0.22504 0.34582 0.0
C190 C 0.74416 0.21037 0.36151 0.0
C191 C 0.7589 0.21991 0.38228 0.0
P192 P 0.36312 0.6874 0.20528 0.0
H193 H 0.34545 0.67177 0.1536 0.0
H194 H 0.30494 0.65414 0.1368 0.0
H195 H 0.27158 0.66046 0.21341 0.0
H196 H 0.31266 0.67774 0.23024 0.0
H197 H 0.41099 0.71902 0.20166 0.0
H198 H 0.42323 0.75978 0.18713 0.0
H199 H 0.34552 0.76615 0.17942 0.0
H200 H 0.33345 0.72517 0.19383 0.0
H201 H 0.34615 0.64372 0.23386 0.0
H202 H 0.39256 0.71087 0.24925 0.0
O203 O 0.3831 0.67441 0.18719 0.0
H204 H 0.35856 0.62854 0.27499 0.0
H205 H 0.40509 0.69581 0.29052 0.0
C206 C 0.33227 0.67562 0.19332 0.0
C207 C 0.32946 0.66934 0.16685 0.0
C208 C 0.30611 0.65941 0.15718 0.0
C209 C 0.28479 0.65569 0.17369 0.0
C210 C 0.28757 0.66263 0.20017 0.0
C211 C 0.31106 0.67262 0.20984 0.0
C212 C 0.3713 0.71892 0.19891 0.0
C213 C 0.39654 0.72931 0.1973 0.0
C214 C 0.40352 0.75273 0.18898 0.0
C215 C 0.38541 0.7664 0.18189 0.0
C216 C 0.36003 0.75613 0.18432 0.0
C217 C 0.35306 0.73268 0.1928 0.0
C218 C 0.36785 0.67869 0.23855 0.0
C219 C 0.35841 0.6555 0.24645 0.0
C220 C 0.36565 0.64677 0.27005 0.0
C221 C 0.38293 0.66087 0.28623 0.0
C222 C 0.39196 0.68431 0.27852 0.0
C223 C 0.38456 0.69308 0.25495 0.0
P224 P 0.17698 0.34959 0.73728 0.0
H225 H 0.19543 0.31176 0.70857 0.0
H226 H 0.17547 0.27771 0.68323 0.0
H227 H 0.10389 0.30013 0.69621 0.0
H228 H 0.12416 0.33425 0.72189 0.0
H229 H 0.21881 0.38564 0.75207 0.0
H230 H 0.25272 0.40917 0.72713 0.0
H231 H 0.21901 0.38075 0.65533 0.0
H232 H 0.1851 0.3573 0.68043 0.0
H233 H 0.13922 0.33278 0.77684 0.0
H234 H 0.16992 0.39983 0.7426 0.0
O235 O 0.19364 0.33701 0.75839 0.0
H236 H 0.116 0.35308 0.80899 0.0
H237 H 0.14732 0.42036 0.77509 0.0
C238 C 0.16132 0.3255 0.71727 0.0
C239 C 0.17544 0.30943 0.70587 0.0
C240 C 0.16398 0.29 0.69121 0.0
C241 C 0.13801 0.28608 0.68758 0.0
C242 C 0.12388 0.30242 0.69882 0.0
C243 C 0.13546 0.32202 0.71344 0.0
C244 C 0.19951 0.36953 0.7182 0.0
C245 C 0.21852 0.38474 0.73094 0.0
C246 C 0.23789 0.39825 0.71663 0.0
C247 C 0.23875 0.39673 0.68919 0.0
C248 C 0.21914 0.38208 0.67644 0.0
C249 C 0.19964 0.36871 0.69081 0.0
C250 C 0.15629 0.36469 0.75721 0.0
C251 C 0.14068 0.35187 0.77599 0.0
C252 C 0.12763 0.36357 0.7946 0.0
C253 C 0.12997 0.38847 0.79498 0.0
C254 C 0.14487 0.4012 0.77539 0.0
C255 C 0.15792 0.38943 0.75674 0.0
La256 La 0.01559 0.03578 0.50609 0.0
La257 La 1.00764 1.01434 0.55902 0.0
C258 C 0.0176 0.06237 0.46705 0.0
C259 C 0.03532 0.08291 0.45795 0.0
C260 C 0.03585 0.08915 0.43162 0.0
C261 C 0.05424 0.10715 0.42213 0.0
C262 C 0.07239 0.11927 0.43889 0.0
C263 C 0.07127 0.11335 0.46549 0.0
C264 C 0.05301 0.09521 0.47488 0.0
C265 C 0.05137 1.0133 0.52129 0.0
C266 C 0.03406 0.06651 0.55743 0.0
C267 C 1.00392 0.98713 0.59755 0.0
C268 C 0.985 0.96661 0.60412 0.0
C269 C 0.96649 0.95804 0.5861 0.0
C270 C 0.94679 0.94033 0.5931 0.0
C271 C 0.94491 0.93116 0.61848 0.0
C272 C 0.96396 0.93928 0.63626 0.0
C273 C 0.98388 0.95688 0.62909 0.0
C274 C 0.97192 0.03673 0.54333 0.0
C275 C 0.98941 0.9835 0.5079 0.0
O276 O 0.0264 0.04242 0.46703 0.0
O277 O 1.00492 0.06544 0.48851 0.0
O278 O 0.04495 1.01464 0.4973 0.0
O279 O 0.03967 1.02609 0.53535 0.0
O280 O 0.02669 0.06632 0.53285 0.0
O281 O 0.03234 0.04655 0.57059 0.0
O282 O 0.99558 1.00731 0.59765 0.0
O283 O 0.01797 0.98466 0.57692 0.0
O284 O 0.9785 0.0361 0.56734 0.0
O285 O 0.98381 1.02383 0.52975 0.0
O286 O 0.99728 0.98379 0.53224 0.0
O287 O 0.99081 1.00345 0.4948 0.0
H288 H 0.02249 0.07964 0.41823 0.0
H289 H 0.05475 0.11094 0.40146 0.0
H290 H 0.0847 0.1225 0.47903 0.0
H291 H 0.05309 0.09046 0.49523 0.0
H292 H 0.96672 0.96559 0.56688 0.0
H293 H 0.93266 0.93428 0.57882 0.0
H294 H 0.96291 0.93284 0.65608 0.0
H295 H 0.99787 0.96349 0.64333 0.0
La296 La 0.5223 0.03227 0.06042 0.0
La297 La 0.47111 1.02167 0.03325 0.0
C298 C 0.56191 0.04921 0.08317 0.0
C299 C 0.57196 0.06987 0.09938 0.0
C300 C 0.55783 0.07783 0.11999 0.0
C301 C 0.56896 0.09514 0.13752 0.0
C302 C 0.5944 0.10478 0.13472 0.0
C303 C 0.60804 0.09775 0.11314 0.0
C304 C 0.59692 0.0804 0.09568 0.0
C305 C 0.49423 0.99098 0.07085 0.0
C306 C 0.47655 0.05673 0.08067 0.0
C307 C 0.43025 1.00071 1.0164 0.0
C308 C 0.42278 0.99528 0.98936 0.0
C309 C 0.44005 1.00197 0.96901 0.0
C310 C 0.43346 0.99699 0.94315 0.0
C311 C 0.40946 0.98518 0.93711 0.0
C312 C 0.39222 0.97829 0.95759 0.0
C313 C 0.39885 0.98337 0.98359 0.0
C314 C 0.49991 0.05936 1.01178 0.0
C315 C 0.51867 1.00194 1.00944 0.0
O316 O 0.54396 0.034 0.09376 0.0
O317 O 0.55806 0.05302 0.05853 0.0
O318 O 0.51834 0.99449 0.06868 0.0
O319 O 0.48655 1.01051 0.06823 0.0
O320 O 0.5011 0.05772 0.07882 0.0
O321 O 0.46082 0.04117 0.06728 0.0
O322 O 0.43437 1.02335 1.02256 0.0
O323 O 0.44796 0.98962 1.02446 0.0
O324 O 0.4777 0.05056 1.00417 0.0
O325 O 0.50445 0.04639 1.02999 0.0
O326 O 0.49403 0.99951 1.01174 0.0
O327 O 0.53382 1.01677 1.02426 0.0
H328 H 0.53849 0.06997 0.12322 0.0
H329 H 0.55797 0.10004 0.154 0.0
H330 H 0.62754 0.10516 0.11016 0.0
H331 H 0.60809 0.07457 0.07983 0.0
H332 H 0.45871 1.01099 0.97316 0.0
H333 H 0.44731 1.00212 0.92789 0.0
H334 H 0.37356 0.96925 0.95348 0.0
H335 H 0.38535 0.97805 0.99913 0.0
La336 La 0.50667 0.50697 0.52709 0.0
La337 La 0.49956 0.54558 0.56315 0.0
C338 C 0.52458 0.47524 0.50214 0.0
C339 C 0.53681 0.45547 0.51042 0.0
C340 C 0.52671 0.43221 0.50315 0.0
C341 C 0.53742 0.41315 0.51169 0.0
C342 C 0.55857 0.41702 0.52754 0.0
C343 C 0.56857 0.44036 0.53491 0.0
C344 C 0.55778 0.45939 0.52649 0.0
C345 C 0.46228 0.50182 0.55032 0.0
C346 C 0.52389 0.50563 0.58685 0.0
C347 C 0.48076 0.57685 0.588 0.0
C348 C 0.4719 0.59825 0.57923 0.0
C349 C 0.47991 0.60815 0.55499 0.0
C350 C 0.47093 0.6281 0.54625 0.0
C351 C 0.45382 0.63853 0.56165 0.0
C352 C 0.44569 0.6284 0.58585 0.0
C353 C 0.45466 0.60838 0.59454 0.0
C354 C 0.544 0.55112 0.53976 0.0
C355 C 0.48269 0.54707 0.50312 0.0
O356 O 0.50094 0.47354 0.50861 0.0
O357 O 0.53677 0.49668 0.50602 0.0
O358 O 0.46617 0.49596 0.52624 0.0
O359 O 0.48294 0.50936 0.56071 0.0
O360 O 0.52658 0.49864 0.56227 0.0
O361 O 0.51058 0.52249 0.5926 0.0
O362 O 0.5048 0.57696 0.58551 0.0
O363 O 0.46778 0.55687 0.5799 0.0
O364 O 0.53994 0.5576 0.56359 0.0
O365 O 0.52335 0.54325 0.52955 0.0
O366 O 0.48063 0.55458 0.52759 0.0
O367 O 0.49514 0.52957 0.49746 0.0
H368 H 0.5104 0.42878 0.49099 0.0
H369 H 0.52908 0.39538 0.50591 0.0
H370 H 0.58507 0.44401 0.54675 0.0
H371 H 0.5659 0.47713 0.53262 0.0
H372 H 0.49319 0.60049 0.54283 0.0
H373 H 0.47776 0.63561 0.52768 0.0
H374 H 0.43227 0.63586 0.59799 0.0
H375 H 0.44808 0.60077 0.61315 0.0
La376 La 1.00816 0.49616 0.05722 0.0
La377 La 1.00055 0.54518 0.03515 0.0
C378 C 0.02399 0.45921 0.07052 0.0
C379 C 0.04839 0.45247 0.07564 0.0
C380 C 0.0498 0.43515 0.09431 0.0
C381 C 0.07288 0.42943 0.10093 0.0
C382 C 0.095 0.44092 0.08892 0.0
C383 C 0.09352 0.45801 0.06982 0.0
C384 C 0.07036 0.46386 0.06333 0.0
C385 C 0.98096 0.5216 0.08586 0.0
C386 C 0.05115 0.54177 0.063 0.0
C387 C 0.98432 0.58374 0.03285 0.0
C388 C 0.96676 0.59384 1.01681 0.0
C389 C 0.96234 0.61683 1.02233 0.0
C390 C 0.94367 0.62588 1.00937 0.0
C391 C 0.92903 0.612 0.9907 0.0
C392 C 0.9341 0.58917 0.98458 0.0
C393 C 0.95283 0.58012 0.99761 0.0
C394 C 0.02076 0.51961 0.99896 0.0
C395 C 0.96047 0.49839 1.02401 0.0
O396 O 0.0168 0.47448 0.08716 0.0
O397 O 0.01943 0.46394 0.0463 0.0
O398 O 0.97675 0.49865 0.08429 0.0
O399 O 1.00027 0.52919 0.07252 0.0
O400 O 0.04495 0.51827 0.06294 0.0
O401 O 0.03574 0.55586 0.05505 0.0
O402 O 1.00527 0.58007 1.02142 0.0
O403 O 0.97411 0.56594 0.04739 0.0
O404 O 0.015 0.54042 0.99488 0.0
O405 O 0.0147 0.51481 1.02228 0.0
O406 O 0.96546 0.52193 1.02543 0.0
O407 O 0.97583 0.48464 0.03295 0.0
H408 H 0.03304 0.42625 0.10405 0.0
H409 H 0.07343 0.41599 0.11547 0.0
H410 H 0.11029 0.46726 0.06041 0.0
H411 H 0.06967 0.47749 0.04904 0.0
H412 H 0.97292 0.6276 0.03715 0.0
H413 H 0.9405 0.64368 1.01417 0.0
H414 H 0.92306 0.57803 0.9704 0.0
H415 H 0.95597 0.56223 0.99326 0.0
H416 H 0.239 0.22809 0.28795 0.0
H417 H 0.20527 0.2057 0.31381 0.0
H418 H 0.22834 0.24904 0.38138 0.0
H419 H 0.26149 0.27243 0.35523 0.0
H420 H 0.20811 0.17935 0.35642 0.0
H421 H 0.15417 0.25174 0.38027 0.0
H422 H 0.17881 0.25467 0.35575 0.0
H423 H 0.18624 0.25776 0.38979 0.0
C424 C 0.23667 0.23321 0.30818 0.0
C425 C 0.25282 0.25227 0.31941 0.0
C426 C 0.21749 0.22023 0.32301 0.0
C427 C 0.21405 0.22592 0.34942 0.0
C428 C 0.23033 0.24466 0.36088 0.0
H429 H 0.12158 0.12619 0.45262 0.0
H430 H 0.15619 0.15341 0.43329 0.0
C431 C 0.24947 0.25781 0.34599 0.0
C432 C 0.19378 0.21165 0.3649 0.0
H433 H 0.14037 0.21475 0.40034 0.0
C434 C 0.19332 0.18709 0.36607 0.0
C435 C 0.17437 0.22178 0.37722 0.0
C436 C 0.17319 0.24789 0.37556 0.0
C437 C 0.1739 0.17231 0.37905 0.0
C438 C 0.15474 0.18248 0.39181 0.0
C439 C 0.15523 0.20706 0.39076 0.0
C440 C 0.13347 0.16769 0.40533 0.0
C441 C 0.17369 0.14588 0.3782 0.0
C442 C 0.10904 0.16753 0.39687 0.0
C443 C 0.08908 0.15232 0.40825 0.0
C444 C 0.0932 0.13697 0.42832 0.0
C445 C 0.11764 0.13787 0.43738 0.0
C446 C 0.13753 0.1532 0.42611 0.0
H447 H 0.18586 0.14063 0.36216 0.0
H448 H 0.18076 0.1403 0.39689 0.0
H449 H 0.15448 0.1361 0.37556 0.0
H450 H 0.10548 0.17874 0.38099 0.0
H451 H 0.07046 0.15243 0.40114 0.0
H452 H 0.40338 0.97976 0.68917 0.0
H453 H 0.40654 0.98521 0.73654 0.0
H454 H 0.36607 0.91462 0.74779 0.0
H455 H 0.36332 0.90881 0.70043 0.0
H456 H 0.36517 0.98176 0.77271 0.0
H457 H 0.4285 0.91727 0.79342 0.0
H458 H 0.42524 0.92836 0.76107 0.0
H459 H 0.40151 0.90601 0.77453 0.0
C460 C 0.39553 0.96526 0.70172 0.0
C461 C 0.38315 0.94384 0.69108 0.0
C462 C 0.3972 0.96846 0.72874 0.0
C463 C 0.38672 0.95025 0.74558 0.0
C464 C 0.37455 0.92877 0.73508 0.0
H465 H 0.3844 0.94397 0.91606 0.0
H466 H 0.37604 0.93494 0.86981 0.0
C467 C 0.37281 0.92557 0.70805 0.0
C468 C 0.38773 0.95414 0.77416 0.0
H469 H 0.41213 0.93601 0.82976 0.0
C470 C 0.37542 0.97176 0.78522 0.0
C471 C 0.40093 0.9409 0.79037 0.0
C472 C 0.41499 0.92218 0.77932 0.0
C473 C 0.37603 0.9766 0.81214 0.0
C474 C 0.38972 0.96375 0.82828 0.0
C475 C 0.40162 0.94579 0.8173 0.0
C476 C 0.39316 0.96958 0.85634 0.0
C477 C 0.36191 0.99531 0.82307 0.0
C478 C 0.4055 0.99202 0.86401 0.0
C479 C 0.41017 0.99724 0.8903 0.0
C480 C 0.40277 0.98003 0.90945 0.0
C481 C 0.39007 0.95765 0.90178 0.0
C482 C 0.38543 0.95243 0.8754 0.0
H483 H 0.3467 0.99829 0.80997 0.0
H484 H 0.3537 0.99035 0.84265 0.0
H485 H 0.37493 1.0123 0.82506 0.0
H486 H 0.41201 1.00537 0.84957 0.0
H487 H 0.4198 1.0147 0.89562 0.0
H488 H 0.58142 0.39462 0.7913 0.0
H489 H 0.56338 0.41435 0.75604 0.0
H490 H 0.63525 0.42797 0.71699 0.0
H491 H 0.65337 0.40793 0.75177 0.0
H492 H 0.61108 0.46761 0.71871 0.0
H493 H 0.54782 0.38848 0.6819 0.0
H494 H 0.54432 0.39446 0.71619 0.0
H495 H 0.57301 0.38638 0.70373 0.0
C496 C 0.59341 0.40156 0.77512 0.0
C497 C 0.61897 0.39954 0.77462 0.0
C498 C 0.58301 0.41289 0.7549 0.0
C499 C 0.59783 0.42246 0.73357 0.0
C500 C 0.62336 0.42077 0.73316 0.0
H501 H 0.54825 0.46705 0.58337 0.0
H502 H 0.56639 0.4474 0.61864 0.0
C503 C 0.63376 0.40939 0.75328 0.0
C504 C 0.58691 0.43446 0.71184 0.0
H505 H 0.54351 0.42541 0.66362 0.0
C506 C 0.5963 0.45836 0.70669 0.0
C507 C 0.56785 0.42239 0.6958 0.0
C508 C 0.55776 0.39646 0.69944 0.0
C509 C 0.58693 0.47055 0.68636 0.0
C510 C 0.5674 0.45866 0.67078 0.0
C511 C 0.5583 0.43465 0.67564 0.0
C512 C 0.55632 0.47078 0.64925 0.0
C513 C 0.59837 0.49598 0.68144 0.0
C514 C 0.5443 0.49038 0.65455 0.0
C515 C 0.53387 0.50168 0.63437 0.0
C516 C 0.53513 0.49365 0.60831 0.0
C517 C 0.54703 0.47389 0.60309 0.0
C518 C 0.55737 0.46254 0.62331 0.0
H519 H 0.61703 0.50057 0.69037 0.0
H520 H 0.60031 0.49951 0.66018 0.0
H521 H 0.58607 0.50784 0.69017 0.0
H522 H 0.54278 0.49686 0.6744 0.0
H523 H 0.52478 0.51673 0.63926 0.0
H524 H 0.85785 0.6042 0.27441 0.0
H525 H 0.87718 0.58338 0.23945 0.0
H526 H 0.93113 0.64618 0.22518 0.0
H527 H 0.91188 0.66715 0.26007 0.0
H528 H 0.88239 0.59394 0.18725 0.0
H529 H 0.97577 0.59602 0.22995 0.0
H530 H 0.94937 0.60285 0.24888 0.0
H531 H 0.96653 0.62464 0.22759 0.0
C532 C 0.87385 0.61362 0.26389 0.0
C533 C 0.8833 0.6374 0.27022 0.0
C534 C 0.88495 0.60164 0.24391 0.0
C535 C 0.90585 0.61305 0.22981 0.0
C536 C 0.91541 0.63675 0.23612 0.0
H537 H 0.99466 0.56847 0.09892 0.0
H538 H 0.97585 0.59127 0.13271 0.0
C539 C 0.90436 0.64874 0.25615 0.0
C540 C 0.91698 0.60039 0.20794 0.0
H541 H 0.97099 0.58238 0.1861 0.0
C542 C 0.90174 0.59135 0.18707 0.0
C543 C 0.94229 0.59706 0.20754 0.0
C544 C 0.95942 0.60545 0.22978 0.0
C545 C 0.91111 0.57934 0.16581 0.0
C546 C 0.93636 0.57586 0.16551 0.0
C547 C 0.95166 0.58506 0.18625 0.0
C548 C 0.9471 0.56227 0.14419 0.0
C549 C 0.89399 0.57087 0.14359 0.0
C550 C 0.93729 0.53834 0.13935 0.0
C551 C 0.94797 0.52532 0.12001 0.0
C552 C 0.96876 0.5359 0.10515 0.0
C553 C 0.97851 0.55987 0.10989 0.0
C554 C 0.96784 0.57289 0.12928 0.0
H555 H 0.87783 0.58054 0.14317 0.0
H556 H 0.90412 0.57309 0.1245 0.0
H557 H 0.88659 0.55177 0.14607 0.0
H558 H 0.92164 0.52957 0.1509 0.0
H559 H 0.94015 0.50684 0.11695 0.0
H560 H 0.39803 0.21243 0.23482 0.0
H561 H 0.41695 0.18049 0.21447 0.0
H562 H 0.39745 0.20234 0.13847 0.0
H563 H 0.37861 0.23444 0.1587 0.0
H564 H 0.39497 0.14325 0.18476 0.0
H565 H 0.47093 0.19787 0.12823 0.0
H566 H 0.45324 0.21019 0.1537 0.0
H567 H 0.44055 0.20465 0.12162 0.0
C568 C 0.39778 0.21043 0.21377 0.0
C569 C 0.38686 0.22597 0.19834 0.0
C570 C 0.40866 0.19223 0.20218 0.0
C571 C 0.4089 0.18923 0.17495 0.0
C572 C 0.398 0.20468 0.15948 0.0
H573 H 0.42787 0.06338 0.08623 0.0
H574 H 0.41188 0.09486 0.1107 0.0
C575 C 0.38721 0.22298 0.17105 0.0
C576 C 0.41977 0.1694 0.16285 0.0
H577 H 0.46317 0.15657 0.11799 0.0
C578 C 0.41 0.14615 0.17027 0.0
C579 C 0.43961 0.17325 0.14426 0.0
C580 C 0.45189 0.19785 0.13665 0.0
C581 C 0.41914 0.1266 0.15915 0.0
C582 C 0.43822 0.1304 0.13971 0.0
C583 C 0.44838 0.15367 0.13274 0.0
C584 C 0.44773 0.11053 0.12605 0.0
C585 C 0.40848 0.10209 0.16857 0.0
C586 C 0.47327 0.10906 0.12623 0.0
C587 C 0.48256 0.09122 0.11203 0.0
C588 C 0.46645 0.0745 0.09732 0.0
C589 C 0.44081 0.07583 0.09752 0.0
C590 C 0.43157 0.09375 0.11161 0.0
H591 H 0.39984 0.10267 0.18838 0.0
H592 H 0.39374 0.09388 0.15506 0.0
H593 H 0.42309 0.0906 0.16905 0.0
H594 H 0.48609 0.1219 0.13715 0.0
H595 H 0.5024 0.09084 0.11225 0.0
H596 H 0.25528 0.93502 0.52499 0.0
H597 H 0.21255 0.94346 0.52279 0.0
H598 H 0.21984 0.97655 0.5991 0.0
H599 H 0.26267 0.9685 0.60123 0.0
H600 H 0.17059 0.93092 0.55453 0.0
H601 H 0.20059 0.02861 0.55455 0.0
H602 H 0.22233 1.00812 0.54981 0.0
H603 H 0.21084 1.01394 0.58205 0.0
C604 C 0.24768 0.94397 0.54134 0.0
C605 C 0.26234 0.9514 0.56312 0.0
C606 C 0.22332 0.94877 0.54007 0.0
C607 C 0.21324 0.961 0.56058 0.0
C608 C 0.22751 0.96762 0.58279 0.0
H609 H 0.07255 1.01676 0.56927 0.0
H610 H 0.11034 1.00168 0.58191 0.0
C611 C 0.25193 0.96302 0.58398 0.0
C612 C 0.18805 0.9674 0.5583 0.0
H613 H 0.15727 1.01472 0.55491 0.0
C614 C 0.16764 0.94923 0.5547 0.0
C615 C 0.1843 0.99132 0.55858 0.0
C616 C 0.20567 1.01165 0.56122 0.0
C617 C 0.14354 0.95437 0.55114 0.0
C618 C 0.13992 0.97828 0.55096 0.0
C619 C 0.16018 0.9964 0.55522 0.0
C620 C 0.11572 0.98508 0.54443 0.0
C621 C 0.12215 0.93426 0.54748 0.0
C622 C 0.10632 0.98063 0.51924 0.0
C623 C 0.08496 0.98935 0.51195 0.0
C624 C 0.07272 1.00267 0.52974 0.0
C625 C 0.08171 1.00655 0.5552 0.0
C626 C 0.1032 0.99794 0.56245 0.0
H627 H 0.1266 0.91731 0.55491 0.0
H628 H 0.10495 0.93818 0.5576 0.0
H629 H 0.11823 0.93187 0.52636 0.0
H630 H 0.11601 0.97111 0.50494 0.0
H631 H 0.07835 0.98611 0.49221 0.0
H632 H 0.75326 0.42896 0.90038 0.0
H633 H 0.79069 0.44956 0.9219 0.0
H634 H 0.80378 0.38345 0.95363 0.0
H635 H 0.76629 0.36279 0.93265 0.0
H636 H 0.80438 0.45245 0.97561 0.0
H637 H 0.87005 0.4085 0.91525 0.0
H638 H 0.83795 0.40804 0.90643 0.0
H639 H 0.84553 0.38848 0.93107 0.0
C640 C 0.76388 0.4188 0.9122 0.0
C641 C 0.75672 0.39408 0.91446 0.0
C642 C 0.78541 0.43062 0.92439 0.0
C643 C 0.80041 0.41802 0.93899 0.0
C644 C 0.79292 0.39351 0.94196 0.0
H645 H 0.94087 0.45099 1.02105 0.0
H646 H 0.9019 0.43245 1.00106 0.0
C647 C 0.77141 0.3817 0.92987 0.0
C648 C 0.8239 0.43039 0.95106 0.0
H649 H 0.88714 0.4317 0.95122 0.0
C650 C 0.8225 0.44802 0.97019 0.0
C651 C 0.84759 0.42461 0.94405 0.0
C652 C 0.85053 0.40653 0.92292 0.0
C653 C 0.84397 0.45954 0.98295 0.0
C654 C 0.8677 0.45371 0.97599 0.0
C655 C 0.86906 0.43619 0.95669 0.0
C656 C 0.89131 0.46534 0.98856 0.0
C657 C 0.84087 0.47732 1.00435 0.0
C658 C 0.89869 0.49006 0.98806 0.0
C659 C 0.92098 0.50078 0.99967 0.0
C660 C 0.93665 0.48701 1.01181 0.0
C661 C 0.92936 0.46223 1.01197 0.0
C662 C 0.90701 0.45156 1.00049 0.0
H663 H 0.82147 0.47471 1.01242 0.0
H664 H 0.85386 0.47613 1.02055 0.0
H665 H 0.84502 0.49545 0.99628 0.0
H666 H 0.88737 0.50113 0.97842 0.0
H667 H 0.92599 0.51987 0.99889 0.0
H668 H 0.7161 0.66334 0.39246 0.0
H669 H 0.67976 0.64347 0.41689 0.0
H670 H 0.72661 0.60293 0.45793 0.0
H671 H 0.76331 0.62302 0.43379 0.0
H672 H 0.68122 0.57564 0.44007 0.0
H673 H 0.66407 0.65639 0.49425 0.0
H674 H 0.66624 0.65971 0.45943 0.0
H675 H 0.69312 0.65466 0.47707 0.0
C676 C 0.71884 0.65041 0.40689 0.0
C677 C 0.74283 0.64507 0.41132 0.0
C678 C 0.69795 0.639 0.42081 0.0
C679 C 0.70045 0.62196 0.43957 0.0
C680 C 0.72421 0.61608 0.44362 0.0
H681 H 0.58828 0.57289 0.55921 0.0
H682 H 0.62668 0.58838 0.53498 0.0
C683 C 0.74519 0.62754 0.42971 0.0
C684 C 0.67826 0.61049 0.45499 0.0
H685 H 0.63249 0.62257 0.49757 0.0
C686 C 0.67061 0.58587 0.45272 0.0
C687 C 0.66455 0.62377 0.47176 0.0
C688 C 0.67248 0.65006 0.47604 0.0
C689 C 0.64935 0.5743 0.46633 0.0
C690 C 0.63518 0.58773 0.48244 0.0
C691 C 0.64316 0.61227 0.48507 0.0
C692 C 0.61222 0.57678 0.49709 0.0
C693 C 0.64247 0.54775 0.46364 0.0
C694 C 0.59122 0.56496 0.48393 0.0
C695 C 0.56919 0.55604 0.4978 0.0
C696 C 0.5677 0.55891 0.52507 0.0
C697 C 0.58883 0.57041 0.53821 0.0
C698 C 0.6108 0.5793 0.52437 0.0
H699 H 0.65852 0.5395 0.45639 0.0
H700 H 0.63576 0.53968 0.48259 0.0
H701 H 0.62721 0.54351 0.44942 0.0
H702 H 0.59162 0.56317 0.46286 0.0
H703 H 0.55317 0.54738 0.48711 0.0
H704 H 0.26146 0.37202 0.21755 0.0
H705 H 0.23173 0.39097 0.19384 0.0
H706 H 0.26601 0.37396 0.12075 0.0
H707 H 0.29591 0.35478 0.14445 0.0
H708 H 0.23837 0.42833 0.15932 0.0
H709 H 0.19298 0.34489 0.11124 0.0
H710 H 0.21429 0.34504 0.1378 0.0
H711 H 0.22603 0.35263 0.10546 0.0
C712 C 0.26295 0.37259 0.19644 0.0
C713 C 0.28105 0.36188 0.18287 0.0
C714 C 0.24586 0.38335 0.18291 0.0
C715 C 0.24643 0.38359 0.15554 0.0
C716 C 0.26491 0.37353 0.14187 0.0
H717 H 0.13389 0.43201 0.05735 0.0
H718 H 0.17334 0.42046 0.07087 0.0
C719 C 0.28199 0.36263 0.15542 0.0
C720 C 0.22718 0.39394 0.14161 0.0
H721 H 0.17662 0.37952 0.10255 0.0
C722 C 0.22501 0.41772 0.14671 0.0
C723 C 0.2098 0.38006 0.12511 0.0
C724 C 0.21065 0.35419 0.11967 0.0
C725 C 0.20554 0.42783 0.1363 0.0
C726 C 0.1877 0.41373 0.12059 0.0
C727 C 0.19042 0.39026 0.11457 0.0
C728 C 0.16483 0.42226 0.11223 0.0
C729 C 0.20397 0.45342 0.14251 0.0
C730 C 0.14707 0.42699 0.13102 0.0
C731 C 0.12461 0.43342 0.12339 0.0
C732 C 0.11946 0.43525 0.0968 0.0
C733 C 0.13747 0.43091 0.07797 0.0
C734 C 0.15991 0.42426 0.08564 0.0
H735 H 0.22231 0.46343 0.14847 0.0
H736 H 0.19736 0.46225 0.12545 0.0
H737 H 0.19045 0.45426 0.15892 0.0
H738 H 0.15036 0.4252 0.15162 0.0
H739 H 0.11117 0.43686 0.13832 0.0
H740 H 0.58046 0.24843 0.88514 0.0
H741 H 0.56208 0.2117 0.90672 0.0
H742 H 0.62167 0.22145 0.96204 0.0
H743 H 0.64037 0.25813 0.94041 0.0
H744 H 0.58309 0.17105 0.91302 0.0
H745 H 0.56006 0.20765 1.00991 0.0
H746 H 0.56772 0.22609 0.98166 0.0
H747 H 0.59202 0.21575 0.9993 0.0
C748 C 0.58975 0.24283 0.90188 0.0
C749 C 0.61201 0.25644 0.91092 0.0
C750 C 0.57911 0.22179 0.91431 0.0
C751 C 0.59025 0.21379 0.93626 0.0
C752 C 0.61233 0.2274 0.94552 0.0
H753 H 0.54363 0.08517 0.03078 0.0
H754 H 0.56756 0.1219 1.01283 0.0
C755 C 0.62303 0.24847 0.93309 0.0
C756 C 0.57924 0.19076 0.9486 0.0
H757 H 0.55324 0.16589 1.00527 0.0
C758 C 0.57658 0.16998 0.9332 0.0
C759 C 0.57093 0.18915 0.97504 0.0
C760 C 0.57259 0.21084 0.99245 0.0
C761 C 0.56582 0.14782 0.94336 0.0
C762 C 0.55687 0.14628 0.96958 0.0
C763 C 0.56005 0.16696 0.98519 0.0
C764 C 0.54287 0.12369 0.98055 0.0
C765 C 0.5644 0.12618 0.92587 0.0
C766 C 0.52087 0.11252 0.96872 0.0
C767 C 0.5074 0.09155 0.97884 0.0
C768 C 0.5154 0.08117 1.00118 0.0
C769 C 0.53726 0.09242 1.01328 0.0
C770 C 0.55083 0.11353 1.00311 0.0
H771 H 0.57879 0.12883 0.90998 0.0
H772 H 0.56686 0.11029 0.93709 0.0
H773 H 0.54583 0.12271 0.91665 0.0
H774 H 0.51388 0.12019 0.95175 0.0
H775 H 0.49048 0.08353 0.96918 0.0
H776 H 0.88272 0.80678 0.36925 0.0
H777 H 0.90252 0.84353 0.39007 0.0
H778 H 0.91801 0.80455 0.45747 0.0
H779 H 0.89912 0.76747 0.43632 0.0
H780 H 0.88972 0.86446 0.43543 0.0
H781 H 0.98575 0.8439 0.44249 0.0
H782 H 0.96232 0.82649 0.42264 0.0
H783 H 0.96217 0.82229 0.45736 0.0
C784 C 0.89075 0.80586 0.38829 0.0
C785 C 0.88948 0.78396 0.40091 0.0
C786 C 0.90189 0.827 0.4003 0.0
C787 C 0.91214 0.82689 0.42522 0.0
C788 C 0.91073 0.80513 0.43802 0.0
H789 H 0.98329 0.93918 0.52922 0.0
H790 H 0.96406 0.90156 0.50955 0.0
C791 C 0.89962 0.78392 0.42599 0.0
C792 C 0.92358 0.84964 0.43795 0.0
H793 H 0.97766 0.87898 0.46398 0.0
C794 C 0.90898 0.86764 0.44158 0.0
C795 C 0.94872 0.85386 0.44608 0.0
C796 C 0.96576 0.83572 0.44176 0.0
C797 C 0.91867 0.88954 0.45332 0.0
C798 C 0.94383 0.8938 0.46131 0.0
C799 C 0.95839 0.87575 0.45786 0.0
C800 C 0.9554 0.91686 0.4732 0.0
C801 C 0.90171 0.90775 0.45753 0.0
C802 C 0.95724 0.93806 0.45925 0.0
C803 C 0.96822 0.95968 0.47047 0.0
C804 C 0.97774 0.96058 0.49587 0.0
C805 C 0.97608 0.93926 0.50968 0.0
C806 C 0.96512 0.91767 0.49844 0.0
H807 H 0.88169 0.89963 0.45681 0.0
H808 H 0.90519 0.91704 0.47662 0.0
H809 H 0.90538 0.92115 0.44189 0.0
H810 H 0.95035 0.93788 0.43956 0.0
H811 H 0.96929 0.97567 0.45917 0.0
H812 H 0.41363 0.84909 0.50699 0.0
H813 H 0.42449 0.81007 0.49678 0.0
H814 H 0.36636 0.77797 0.54982 0.0
H815 H 0.35461 0.81661 0.55905 0.0
H816 H 0.44269 0.78498 0.53169 0.0
H817 H 0.35886 0.72952 0.49231 0.0
H818 H 0.36215 0.76144 0.49398 0.0
H819 H 0.3509 0.7438 0.52196 0.0
C820 C 0.40259 0.83362 0.51577 0.0
C821 C 0.38342 0.83597 0.53405 0.0
C822 C 0.4089 0.81134 0.50999 0.0
C823 C 0.3961 0.79103 0.52233 0.0
C824 C 0.37615 0.79324 0.53957 0.0
H825 H 0.44823 0.67752 0.59105 0.0
H826 H 0.4351 0.71397 0.57673 0.0
C827 C 0.36973 0.81544 0.5452 0.0
C828 C 0.40583 0.76829 0.52051 0.0
H829 H 0.38713 0.70844 0.51596 0.0
C830 C 0.43067 0.7683 0.5276 0.0
C831 C 0.39035 0.74649 0.51482 0.0
C832 C 0.36417 0.74536 0.50506 0.0
C833 C 0.43984 0.74708 0.53109 0.0
C834 C 0.4236 0.72532 0.52796 0.0
C835 C 0.39939 0.72521 0.51887 0.0
C836 C 0.43079 0.70279 0.5363 0.0
C837 C 0.46665 0.74818 0.53892 0.0
C838 C 0.4319 0.68415 0.51843 0.0
C839 C 0.43916 0.66311 0.52664 0.0
C840 C 0.44518 0.66038 0.5529 0.0
C841 C 0.4435 0.67896 0.57077 0.0
C842 C 0.43629 0.69991 0.56256 0.0
H843 H 0.47838 0.76492 0.53246 0.0
H844 H 0.46749 0.74755 0.56052 0.0
H845 H 0.4747 0.73298 0.53057 0.0
H846 H 0.42746 0.68599 0.49813 0.0
H847 H 0.43997 0.64897 0.51249 0.0
H848 H 0.74095 0.84834 0.73765 0.0
H849 H 0.76752 0.8602 0.69935 0.0
H850 H 0.82115 0.81821 0.7257 0.0
H851 H 0.79468 0.80618 0.76368 0.0
H852 H 0.81229 0.88615 0.7072 0.0
H853 H 0.82554 0.80747 0.64794 0.0
H854 H 0.80005 0.8071 0.67127 0.0
H855 H 0.8305 0.80314 0.68189 0.0
C856 C 0.75806 0.8411 0.73481 0.0
C857 C 0.76585 0.82649 0.75373 0.0
C858 C 0.77316 0.84779 0.71289 0.0
C859 C 0.79625 0.83997 0.70956 0.0
C860 C 0.80316 0.824 0.72746 0.0
H861 H 0.9416 0.89254 0.65031 0.0
H862 H 0.9035 0.86905 0.66848 0.0
C863 C 0.78802 0.81719 0.74928 0.0
C864 C 0.81504 0.85179 0.69063 0.0
H865 H 0.85867 0.84145 0.64471 0.0
C866 C 0.82203 0.87644 0.69309 0.0
C867 C 0.8279 0.83905 0.67245 0.0
C868 C 0.82042 0.81275 0.66804 0.0
C869 C 0.84233 0.88855 0.67888 0.0
C870 C 0.85577 0.8757 0.66142 0.0
C871 C 0.84832 0.85118 0.65821 0.0
C872 C 0.87842 0.88749 0.64756 0.0
C873 C 0.85 0.91484 0.68365 0.0
C874 C 0.87681 0.90514 0.62933 0.0
C875 C 0.89845 0.91877 0.61923 0.0
C876 C 0.92214 0.91484 0.62702 0.0
C877 C 0.92366 0.89625 0.64425 0.0
C878 C 0.90194 0.88267 0.65443 0.0
H879 H 0.84072 0.92112 0.70135 0.0
H880 H 0.87054 0.91935 0.68588 0.0
H881 H 0.84478 0.92465 0.66666 0.0
H882 H 0.85878 0.90899 0.6237 0.0
H883 H 0.89654 0.93309 0.60623 0.0
H884 H 0.68722 0.23587 0.33139 0.0
H885 H 0.6605 0.21765 0.29615 0.0
H886 H 0.71464 0.17262 0.27594 0.0
H887 H 0.74155 0.19087 0.31076 0.0
H888 H 0.67178 0.21422 0.24125 0.0
H889 H 0.64863 0.12615 0.28746 0.0
H890 H 0.66155 0.15257 0.30543 0.0
H891 H 0.68153 0.13714 0.2855 0.0
C892 C 0.69353 0.22225 0.31927 0.0
C893 C 0.71643 0.21469 0.32399 0.0
C894 C 0.6782 0.2118 0.29927 0.0
C895 C 0.68544 0.19355 0.28381 0.0
C896 C 0.70849 0.18634 0.28807 0.0
H897 H 0.64012 0.10325 0.15491 0.0
H898 H 0.66033 0.12677 0.19088 0.0
C899 C 0.72382 0.19676 0.30799 0.0
C900 C 0.66912 0.18199 0.26301 0.0
H901 H 0.63944 0.12795 0.24226 0.0
C902 C 0.66438 0.19543 0.24154 0.0
C903 C 0.65941 0.15753 0.26365 0.0
C904 C 0.6628 0.14251 0.28686 0.0
C905 C 0.65124 0.18473 0.21999 0.0
C906 C 0.64246 0.16007 0.2202 0.0
C907 C 0.64638 0.14684 0.24212 0.0
C908 C 0.63052 0.14724 0.19731 0.0
C909 C 0.64778 0.1996 0.19671 0.0
C910 C 0.6071 0.15111 0.1889 0.0
C911 C 0.59553 0.13778 0.16809 0.0
C912 C 0.60721 0.12036 0.15544 0.0
C913 C 0.63082 0.11682 0.16382 0.0
C914 C 0.64231 0.1301 0.18454 0.0
H915 H 0.65938 0.21747 0.19781 0.0
H916 H 0.65262 0.19068 0.17834 0.0
H917 H 0.6279 0.20186 0.19581 0.0
H918 H 0.59757 0.16406 0.19875 0.0
H919 H 0.57738 0.14097 0.16205 0.0
H920 H 0.43091 0.66748 0.3045 0.0
H921 H 0.44681 0.64902 0.34202 0.0
H922 H 0.3726 0.61272 0.36002 0.0
H923 H 0.35657 0.63099 0.32243 0.0
H924 H 0.43723 0.65002 0.39405 0.0
H925 H 0.41095 0.55797 0.35711 0.0
H926 H 0.40987 0.5834 0.33705 0.0
H927 H 0.38497 0.57368 0.3601 0.0
C928 C 0.41787 0.65577 0.31656 0.0
C929 C 0.39241 0.65068 0.31019 0.0
C930 C 0.42705 0.6451 0.33802 0.0
C931 C 0.41108 0.62902 0.3537 0.0
C932 C 0.38552 0.62449 0.3479 0.0
H933 H 0.45207 0.58093 0.50712 0.0
H934 H 0.4345 0.60093 0.47182 0.0
C935 C 0.37634 0.63504 0.32636 0.0
C936 C 0.42122 0.61698 0.37595 0.0
H937 H 0.4256 0.56249 0.40046 0.0
C938 C 0.43469 0.63087 0.39542 0.0
C939 C 0.41832 0.59196 0.3777 0.0
C940 C 0.40547 0.57585 0.35676 0.0
C941 C 0.44508 0.62054 0.41654 0.0
C942 C 0.44152 0.5955 0.4187 0.0
C943 C 0.42821 0.58164 0.3991 0.0
C944 C 0.45205 0.58324 0.44056 0.0
C945 C 0.46036 0.63664 0.4359 0.0
C946 C 0.46718 0.56593 0.43507 0.0
C947 C 0.47696 0.55415 0.45528 0.0
C948 C 0.4719 0.55936 0.48162 0.0
C949 C 0.45658 0.57656 0.48713 0.0
C950 C 0.44664 0.5882 0.46687 0.0
H951 H 0.46744 0.65429 0.42747 0.0
H952 H 0.44846 0.63941 0.4532 0.0
H953 H 0.47652 0.62879 0.44254 0.0
H954 H 0.47164 0.56162 0.41504 0.0
H955 H 0.48866 0.54107 0.45021 0.0
H956 H 0.10726 0.42806 0.79161 0.0
H957 H 0.0888 0.44917 0.82707 0.0
H958 H 0.10618 0.39834 0.88216 0.0
H959 H 0.12531 0.37759 0.84709 0.0
H960 H 0.04902 0.43305 0.86138 0.0
H961 H 0.13605 0.46125 0.91631 0.0
H962 H 0.13622 0.45013 0.88315 0.0
H963 H 0.12905 0.42995 0.90983 0.0
C964 C 0.10739 0.42147 0.8113 0.0
C965 C 0.11789 0.40108 0.81637 0.0
C966 C 0.09668 0.4335 0.83156 0.0
C967 C 0.0964 0.4256 0.85742 0.0
C968 C 0.10654 0.40509 0.8625 0.0
H969 H 0.04242 0.47982 1.00586 0.0
H970 H 0.05954 0.45577 0.97198 0.0
C971 C 0.11721 0.39303 0.84228 0.0
C972 C 0.08517 0.43857 0.87897 0.0
H973 H 0.09838 0.46846 0.93671 0.0
C974 C 0.05984 0.44085 0.8778 0.0
C975 C 0.0992 0.44865 0.90056 0.0
C976 C 0.12669 0.4476 0.90254 0.0
C977 C 0.04814 0.45268 0.89764 0.0
C978 C 0.06224 0.46301 0.91908 0.0
C979 C 0.08751 0.46053 0.92037 0.0
C980 C 0.05134 0.47718 0.9398 0.0
C981 C 0.02063 0.4536 0.89565 0.0
C982 C 0.04136 0.49742 0.9332 0.0
C983 C 0.03138 0.51095 0.95252 0.0
C984 C 0.03119 0.50466 0.97895 0.0
C985 C 0.04158 0.48467 0.98567 0.0
C986 C 0.05161 0.47108 0.96629 0.0
H987 H 0.01115 0.43911 0.88294 0.0
H988 H 0.01127 0.4523 0.91518 0.0
H989 H 0.01819 0.4707 0.88693 0.0
H990 H 0.04152 0.50296 0.91308 0.0
H991 H 0.0238 0.52643 0.94671 0.0
H992 H 0.61775 0.82465 0.92734 0.0
H993 H 0.58821 0.84971 0.94408 0.0
H994 H 0.61392 0.90132 0.88489 0.0
H995 H 0.64299 0.87634 0.86795 0.0
H996 H 0.60197 0.89215 0.96497 0.0
H997 H 0.54029 0.90149 0.88277 0.0
H998 H 0.55994 0.87889 0.88315 0.0
H999 H 0.57251 0.90854 0.873 0.0
C1000 C 0.61664 0.84109 0.91757 0.0
C1001 C 0.6326 0.84847 0.89627 0.0
C1002 C 0.59975 0.85537 0.9271 0.0
C1003 C 0.5986 0.87727 0.91553 0.0
C1004 C 0.61389 0.88421 0.89367 0.0
H1005 H 0.56794 1.00267 0.99624 0.0
H1006 H 0.58606 0.97225 0.972 0.0
C1007 C 0.63058 0.86989 0.88402 0.0
C1008 C 0.58397 0.89423 0.92818 0.0
H1009 H 0.54326 0.93225 0.91602 0.0
C1010 C 0.58886 0.90065 0.95435 0.0
C1011 C 0.5667 0.9052 0.91443 0.0
C1012 C 0.55936 0.89797 0.88687 0.0
C1013 C 0.57765 0.9183 0.96685 0.0
C1014 C 0.56167 0.93037 0.95258 0.0
C1015 C 0.55596 0.92333 0.92674 0.0
C1016 C 0.55058 0.95015 0.96439 0.0
C1017 C 0.58299 0.92376 0.9953 0.0
C1018 C 0.52458 0.94847 0.96678 0.0
C1019 C 0.51414 0.96599 0.9803 0.0
C1020 C 0.52955 0.98548 0.99173 0.0
C1021 C 0.55555 0.98776 0.98798 0.0
C1022 C 0.56595 0.97032 0.97427 0.0
H1023 H 0.58943 0.9087 1.00509 0.0
H1024 H 0.59802 0.93935 0.99684 0.0
H1025 H 0.56618 0.92795 1.00594 0.0
H1026 H 0.51239 0.93315 0.95907 0.0
H1027 H 0.49401 0.9637 0.9827 0.0
H1028 H 0.87497 0.21066 0.46217 0.0
H1029 H 0.89907 0.18113 0.47761 0.0
H1030 H 0.83749 0.1255 0.46089 0.0
H1031 H 0.81322 0.15494 0.44569 0.0
H1032 H 0.85602 0.12157 0.50918 0.0
H1033 H 0.93298 0.13444 0.43527 0.0
H1034 H 0.92873 0.16132 0.45205 0.0
H1035 H 0.90444 0.14633 0.43158 0.0
C1036 C 0.86672 0.1921 0.4615 0.0
C1037 C 0.84226 0.18506 0.45274 0.0
C1038 C 0.88051 0.17527 0.47025 0.0
C1039 C 0.87018 0.15112 0.47002 0.0
C1040 C 0.8458 0.14405 0.46116 0.0
H1041 H 0.95397 0.03639 0.4942 0.0
H1042 H 0.9279 0.06325 0.47644 0.0
C1043 C 0.83196 0.16087 0.45258 0.0
C1044 C 0.88436 0.13328 0.48005 0.0
H1045 H 0.93883 0.11126 0.47221 0.0
C1046 C 0.87406 0.1192 0.50101 0.0
C1047 C 0.90772 0.13003 0.4691 0.0
C1048 C 0.91903 0.14366 0.44559 0.0
C1049 C 0.88674 0.10223 0.5117 0.0
C1050 C 0.91057 0.09969 0.50147 0.0
C1051 C 0.92065 0.11343 0.48017 0.0
C1052 C 0.92544 0.08292 0.51259 0.0
C1053 C 0.87433 0.08698 0.53357 0.0
C1054 C 0.93271 0.08516 0.53876 0.0
C1055 C 0.94743 0.06975 0.54896 0.0
C1056 C 0.95536 0.05213 0.53302 0.0
C1057 C 0.94806 0.04986 0.50686 0.0
C1058 C 0.93323 0.06518 0.49671 0.0
H1059 H 0.85375 0.0863 0.53392 0.0
H1060 H 0.8784 0.06861 0.53179 0.0
H1061 H 0.88152 0.09457 0.55252 0.0
H1062 H 0.92737 0.09907 0.55117 0.0
H1063 H 0.95303 0.07195 0.56913 0.0
H1064 H 0.2483 0.62349 0.1977 0.0
H1065 H 0.20891 0.6035 0.17954 0.0
H1066 H 0.22571 0.64162 0.10778 0.0
H1067 H 0.26484 0.66194 0.12583 0.0
H1068 H 0.16791 0.62167 0.16004 0.0
H1069 H 0.21173 0.57222 0.08278 0.0
H1070 H 0.22897 0.58655 0.10997 0.0
H1071 H 0.2223 0.60365 0.08262 0.0
C1072 C 0.24355 0.62787 0.17816 0.0
C1073 C 0.26004 0.64427 0.16322 0.0
C1074 C 0.22103 0.61627 0.16773 0.0
C1075 C 0.2145 0.62065 0.14207 0.0
C1076 C 0.23056 0.63744 0.12737 0.0
H1077 H 0.06929 0.58909 0.06966 0.0
H1078 H 0.10856 0.60732 0.0891 0.0
C1079 C 0.25302 0.64907 0.13777 0.0
C1080 C 0.19084 0.60787 0.13073 0.0
H1081 H 0.16788 0.5713 0.08029 0.0
C1082 C 0.16792 0.61059 0.14266 0.0
C1083 C 0.19077 0.5931 0.10824 0.0
C1084 C 0.21474 0.58847 0.09525 0.0
C1085 C 0.14503 0.59951 0.13237 0.0
C1086 C 0.14494 0.58546 0.10932 0.0
C1087 C 0.16787 0.58222 0.09778 0.0
C1088 C 0.12124 0.57419 0.0968 0.0
C1089 C 0.1211 0.60273 0.14647 0.0
C1090 C 0.11547 0.54943 0.09381 0.0
C1091 C 0.09294 0.53886 0.08254 0.0
C1092 C 0.07573 0.55284 0.07377 0.0
C1093 C 0.08191 0.57767 0.07624 0.0
C1094 C 0.10436 0.58818 0.08756 0.0
H1095 H 0.12443 0.60848 0.16709 0.0
H1096 H 0.11274 0.61659 0.13657 0.0
H1097 H 0.10739 0.58606 0.14619 0.0
H1098 H 0.12825 0.53824 0.1006 0.0
H1099 H 0.08895 0.51972 0.08095 0.0
H1100 H 0.26396 0.37994 0.64787 0.0
H1101 H 0.30123 0.39995 0.62473 0.0
H1102 H 0.30083 0.46204 0.67339 0.0
H1103 H 0.26333 0.44225 0.69651 0.0
H1104 H 0.30914 0.47077 0.6173 0.0
H1105 H 0.37202 0.41347 0.65791 0.0
H1106 H 0.34402 0.39806 0.6434 0.0
H1107 H 0.34185 0.41573 0.67238 0.0
C1108 C 0.27158 0.39796 0.65347 0.0
C1109 C 0.26063 0.40945 0.67413 0.0
C1110 C 0.29304 0.4093 0.64036 0.0
C1111 C 0.304 0.43238 0.64753 0.0
C1112 C 0.29278 0.44417 0.66764 0.0
H1113 H 0.45396 0.50299 0.60317 0.0
H1114 H 0.41522 0.48775 0.62724 0.0
C1115 C 0.27141 0.43278 0.68091 0.0
C1116 C 0.32734 0.44407 0.63426 0.0
H1117 H 0.38903 0.44 0.62468 0.0
C1118 C 0.32663 0.4641 0.61895 0.0
C1119 C 0.35022 0.43553 0.63668 0.0
C1120 C 0.35228 0.41463 0.65363 0.0
C1121 C 0.34807 0.47545 0.60552 0.0
C1122 C 0.37078 0.46648 0.60736 0.0
C1123 C 0.3716 0.4468 0.62316 0.0
C1124 C 0.39382 0.47698 0.59271 0.0
C1125 C 0.34632 0.49706 0.5896 0.0
C1126 C 0.39468 0.47603 0.5653 0.0
C1127 C 0.4168 0.48461 0.55154 0.0
C1128 C 0.43851 0.49431 0.56491 0.0
C1129 C 0.43752 0.49566 0.59233 0.0
C1130 C 0.41542 0.48692 0.6061 0.0
H1131 H 0.32953 0.50498 0.5951 0.0
H1132 H 0.36319 0.51072 0.59205 0.0
H1133 H 0.34509 0.49194 0.56863 0.0
H1134 H 0.37839 0.46814 0.55455 0.0
H1135 H 0.41702 0.48328 0.53042 0.0
H1136 H 0.80054 0.75928 0.93591 0.0
H1137 H 0.82385 0.7277 0.94649 0.0
H1138 H 0.77984 0.68048 0.89261 0.0
H1139 H 0.75665 0.7123 0.8813 0.0
H1140 H 0.79074 0.66305 0.94879 0.0
H1141 H 0.87243 0.70238 0.88776 0.0
H1142 H 0.85883 0.72288 0.90833 0.0
H1143 H 0.84109 0.70779 0.88213 0.0
C1144 C 0.79577 0.7422 0.92627 0.0
C1145 C 0.77696 0.73838 0.90751 0.0
C1146 C 0.80903 0.72418 0.93243 0.0
C1147 C 0.80369 0.70197 0.92008 0.0
C1148 C 0.7842 0.69761 0.90224 0.0
H1149 H 0.91587 0.60919 0.93919 0.0
H1150 H 0.88238 0.62634 0.91904 0.0
C1151 C 0.77092 0.71573 0.89594 0.0
C1152 C 0.81935 0.68384 0.92537 0.0
H1153 H 0.87941 0.67384 0.91895 0.0
C1154 C 0.81 0.66507 0.94193 0.0
C1155 C 0.8443 0.6864 0.91602 0.0
C1156 C 0.85482 0.70583 0.89739 0.0
C1157 C 0.82555 0.64958 0.95073 0.0
C1158 C 0.85106 0.65328 0.94297 0.0
C1159 C 0.8599 0.67112 0.92502 0.0
C1160 C 0.86947 0.64065 0.95524 0.0
C1161 C 0.81468 0.62977 0.96872 0.0
C1162 C 0.8733 0.64308 0.98219 0.0
C1163 C 0.89232 0.63337 0.99368 0.0
C1164 C 0.90807 0.62118 0.97842 0.0
C1165 C 0.90392 0.61835 0.95147 0.0
C1166 C 0.88486 0.62815 0.93994 0.0
H1167 H 0.79433 0.62437 0.96568 0.0
H1168 H 0.82407 0.61404 0.96576 0.0
H1169 H 0.81724 0.63596 0.98926 0.0
H1170 H 0.86203 0.6531 0.99428 0.0
H1171 H 0.89483 0.63559 1.01454 0.0
H1172 H 0.42384 0.80106 0.19743 0.0
H1173 H 0.43805 0.83971 0.17776 0.0
H1174 H 0.37879 0.82611 0.12219 0.0
H1175 H 0.36484 0.7871 0.14129 0.0
H1176 H 0.42397 0.84298 0.09867 0.0
H1177 H 0.40831 0.90052 0.1833 0.0
H1178 H 0.427 0.87847 0.1909 0.0
H1179 H 0.39501 0.86948 0.18177 0.0
C1180 C 0.41376 0.80624 0.18104 0.0
C1181 C 0.3931 0.79081 0.17105 0.0
C1182 C 0.42177 0.82854 0.16997 0.0
C1183 C 0.40932 0.83612 0.14867 0.0
C1184 C 0.38864 0.82084 0.13872 0.0
H1185 H 0.44483 0.98193 0.08722 0.0
H1186 H 0.42193 0.94446 0.10463 0.0
C1187 C 0.38055 0.79854 0.14983 0.0
C1188 C 0.41864 0.8594 0.13602 0.0
H1189 H 0.43381 0.919 0.14829 0.0
C1190 C 0.4259 0.8596 0.1095 0.0
C1191 C 0.42088 0.88126 0.14991 0.0
C1192 C 0.41216 0.88254 0.17797 0.0
C1193 C 0.43614 0.88078 0.09687 0.0
C1194 C 0.43956 0.90246 0.11112 0.0
C1195 C 0.43142 0.90242 0.13735 0.0
C1196 C 0.45281 0.92505 0.09957 0.0
C1197 C 0.44325 0.87972 0.06829 0.0
C1198 C 0.47776 0.92673 0.09098 0.0
C1199 C 0.49079 0.94801 0.08116 0.0
C1200 C 0.47927 0.96826 0.07971 0.0
C1201 C 0.45418 0.96661 0.08799 0.0
C1202 C 0.44113 0.94523 0.09802 0.0
H1203 H 0.43284 0.86375 0.05851 0.0
H1204 H 0.43962 0.89572 0.05798 0.0
H1205 H 0.46347 0.87883 0.06635 0.0
H1206 H 0.4874 0.91165 0.09238 0.0
H1207 H 0.51011 0.94868 0.07502 0.0
H1208 H 0.15494 0.26678 0.64255 0.0
H1209 H 0.13663 0.23051 0.61961 0.0
H1210 H 0.07557 0.22038 0.67565 0.0
H1211 H 0.09381 0.25667 0.69876 0.0
H1212 H 0.12773 0.18536 0.63743 0.0
H1213 H 0.03876 0.21153 0.6072 0.0
H1214 H 0.06448 0.23269 0.6192 0.0
H1215 H 0.04391 0.21473 0.64165 0.0
C1216 C 0.13759 0.25688 0.65003 0.0
C1217 C 0.1259 0.26474 0.67258 0.0
C1218 C 0.12708 0.23614 0.6368 0.0
C1219 C 0.10454 0.22274 0.64566 0.0
C1220 C 0.09267 0.23062 0.66803 0.0
H1221 H 0.0521 0.07394 0.60703 0.0
H1222 H 0.06921 0.11159 0.62804 0.0
C1223 C 0.10315 0.25143 0.68125 0.0
C1224 C 0.09414 0.20006 0.63211 0.0
H1225 H 0.04239 0.17083 0.60159 0.0
C1226 C 0.10909 0.18223 0.62953 0.0
C1227 C 0.06992 0.196 0.62145 0.0
C1228 C 0.0534 0.21481 0.62224 0.0
C1229 C 0.10042 0.16044 0.61704 0.0
C1230 C 0.07589 0.15605 0.60719 0.0
C1231 C 0.06108 0.17402 0.60935 0.0
C1232 C 0.06536 0.13304 0.5944 0.0
C1233 C 0.11784 0.14248 0.61408 0.0
C1234 C 0.05685 0.13246 0.56865 0.0
C1235 C 0.04687 0.11091 0.5566 0.0
C1236 C 0.04505 0.08939 0.57006 0.0
C1237 C 0.05339 0.09006 0.59594 0.0
C1238 C 0.06332 0.11163 0.60798 0.0
H1239 H 0.13769 0.15087 0.61589 0.0
H1240 H 0.11357 0.12913 0.6297 0.0
H1241 H 0.11553 0.13312 0.59492 0.0
H1242 H 0.05807 0.14871 0.55778 0.0
H1243 H 0.04047 0.11118 0.53675 0.0
H1244 H 0.72873 0.28949 0.53006 0.0
H1245 H 0.69802 0.30686 0.5566 0.0
H1246 H 0.64372 0.28883 0.49627 0.0
H1247 H 0.674 0.27167 0.46988 0.0
H1248 H 0.6801 0.34449 0.54108 0.0
H1249 H 0.59972 0.27468 0.55962 0.0
H1250 H 0.63012 0.26793 0.55032 0.0
H1251 H 0.60853 0.27364 0.5258 0.0
C1252 C 0.71006 0.28885 0.52274 0.0
C1253 C 0.70382 0.27928 0.49782 0.0
C1254 C 0.6925 0.29858 0.53801 0.0
C1255 C 0.66841 0.29877 0.52866 0.0
C1256 C 0.66186 0.28819 0.50435 0.0
H1257 H 0.56622 0.37906 0.49737 0.0
H1258 H 0.59086 0.34856 0.50755 0.0
C1259 C 0.67932 0.27847 0.48915 0.0
C1260 C 0.65155 0.31355 0.5415 0.0
H1261 H 0.58946 0.31468 0.55152 0.0
C1262 C 0.66041 0.33789 0.54441 0.0
C1263 C 0.62593 0.30491 0.5461 0.0
C1264 C 0.61565 0.27879 0.54556 0.0
C1265 C 0.64391 0.35409 0.54861 0.0
C1266 C 0.61798 0.3456 0.55014 0.0
C1267 C 0.60936 0.32112 0.55003 0.0
C1268 C 0.59978 0.36179 0.54657 0.0
C1269 C 0.65407 0.38028 0.54881 0.0
C1270 C 0.59612 0.37893 0.56548 0.0
C1271 C 0.58185 0.39642 0.55976 0.0
C1272 C 0.57113 0.39699 0.53502 0.0
C1273 C 0.57391 0.37902 0.51669 0.0
C1274 C 0.58804 0.36158 0.52246 0.0
H1275 H 0.67466 0.38392 0.54583 0.0
H1276 H 0.64532 0.38924 0.53323 0.0
H1277 H 0.64942 0.38823 0.56781 0.0
H1278 H 0.60493 0.37923 0.58428 0.0
H1279 H 0.57967 0.40978 0.57447 0.0
loop_
_geom_bond_atom_site_label_1
_geom_bond_atom_site_label_2
_geom_bond_distance
_geom_bond_site_symmetry_2
_ccdc_geom_bond_type
P0 O11 1.490 . S
P0 C14 1.812 . S
P0 C20 1.803 . S
P0 C26 1.819 . S
H1 C15 0.941 . S
H2 C16 0.939 . S
H3 C18 0.940 . S
H4 C19 0.940 . S
H5 C21 0.939 . S
H6 C22 0.942 . S
H7 C24 0.940 . S
H8 C25 0.939 . S
H9 C27 0.941 . S
H10 C31 0.939 . S
O11 P0 1.490 . S
H12 C28 0.939 . S
H13 C30 0.940 . S
C14 P0 1.812 . S
C14 C15 1.389 . S
C14 C19 1.391 . S
C15 H1 0.941 . S
C15 C14 1.389 . S
C15 C16 1.397 . S
C16 H2 0.939 . S
C16 C15 1.397 . S
C16 C17 1.378 . S
C17 C16 1.378 . S
C17 C18 1.378 . S
C18 H3 0.940 . S
C18 C17 1.378 . S
C18 C19 1.396 . S
C19 H4 0.940 . S
C19 C14 1.391 . S
C19 C18 1.396 . S
C20 P0 1.803 . S
C20 C21 1.378 . S
C20 C25 1.400 . S
C21 H5 0.939 . S
C21 C20 1.378 . S
C21 C22 1.361 . S
C22 H6 0.942 . S
C22 C21 1.361 . S
C22 C23 1.369 . S
C23 C22 1.369 . S
C23 C24 1.404 . S
C24 H7 0.940 . S
C24 C23 1.404 . S
C24 C25 1.389 . S
C25 H8 0.939 . S
C25 C20 1.400 . S
C25 C24 1.389 . S
C26 P0 1.819 . S
C26 C27 1.391 . S
C26 C31 1.391 . S
C27 H9 0.941 . S
C27 C26 1.391 . S
C27 C28 1.396 . S
C28 H12 0.939 . S
C28 C27 1.396 . S
C28 C29 1.397 . S
C29 C28 1.397 . S
C29 C30 1.385 . S
C30 H13 0.940 . S
C30 C29 1.385 . S
C30 C31 1.388 . S
C31 H10 0.939 . S
C31 C26 1.391 . S
C31 C30 1.388 . S
P32 O43 1.490 . S
P32 C46 1.812 . S
P32 C52 1.803 . S
P32 C58 1.819 . S
H33 C47 0.941 . S
H34 C48 0.939 . S
H35 C50 0.940 . S
H36 C51 0.940 . S
H37 C53 0.939 . S
H38 C54 0.942 . S
H39 C56 0.940 . S
H40 C57 0.939 . S
H41 C59 0.941 . S
H42 C63 0.939 . S
O43 P32 1.490 . S
H44 C60 0.939 . S
H45 C62 0.940 . S
C46 P32 1.812 . S
C46 C47 1.389 . S
C46 C51 1.391 . S
C47 H33 0.941 . S
C47 C46 1.389 . S
C47 C48 1.397 . S
C48 H34 0.939 . S
C48 C47 1.397 . S
C48 C49 1.378 . S
C49 C48 1.378 . S
C49 C50 1.378 . S
C50 H35 0.940 . S
C50 C49 1.378 . S
C50 C51 1.396 . S
C51 H36 0.940 . S
C51 C46 1.391 . S
C51 C50 1.396 . S
C52 P32 1.803 . S
C52 C53 1.378 . S
C52 C57 1.400 . S
C53 H37 0.939 . S
C53 C52 1.378 . S
C53 C54 1.361 . S
C54 H38 0.942 . S
C54 C53 1.361 . S
C54 C55 1.369 . S
C55 C54 1.369 . S
C55 C56 1.404 . S
C56 H39 0.940 . S
C56 C55 1.404 . S
C56 C57 1.389 . S
C57 H40 0.939 . S
C57 C52 1.400 . S
C57 C56 1.389 . S
C58 P32 1.819 . S
C58 C59 1.391 . S
C58 C63 1.391 . S
C59 H41 0.941 . S
C59 C58 1.391 . S
C59 C60 1.396 . S
C60 H44 0.939 . S
C60 C59 1.396 . S
C60 C61 1.397 . S
C61 C60 1.397 . S
C61 C62 1.385 . S
C62 H45 0.940 . S
C62 C61 1.385 . S
C62 C63 1.388 . S
C63 H42 0.939 . S
C63 C58 1.391 . S
C63 C62 1.388 . S
P64 O75 1.490 . S
P64 C78 1.812 . S
P64 C84 1.803 . S
P64 C90 1.819 . S
H65 C79 0.941 . S
H66 C80 0.939 . S
H67 C82 0.940 . S
H68 C83 0.940 . S
H69 C85 0.939 . S
H70 C86 0.942 . S
H71 C88 0.940 . S
H72 C89 0.939 . S
H73 C91 0.941 . S
H74 C95 0.939 . S
O75 P64 1.490 . S
H76 C92 0.939 . S
H77 C94 0.940 . S
C78 P64 1.812 . S
C78 C79 1.389 . S
C78 C83 1.391 . S
C79 H65 0.941 . S
C79 C78 1.389 . S
C79 C80 1.397 . S
C80 H66 0.939 . S
C80 C79 1.397 . S
C80 C81 1.378 . S
C81 C80 1.378 . S
C81 C82 1.378 . S
C82 H67 0.940 . S
C82 C81 1.378 . S
C82 C83 1.396 . S
C83 H68 0.940 . S
C83 C78 1.391 . S
C83 C82 1.396 . S
C84 P64 1.803 . S
C84 C85 1.378 . S
C84 C89 1.400 . S
C85 H69 0.939 . S
C85 C84 1.378 . S
C85 C86 1.361 . S
C86 H70 0.942 . S
C86 C85 1.361 . S
C86 C87 1.369 . S
C87 C86 1.369 . S
C87 C88 1.404 . S
C88 H71 0.940 . S
C88 C87 1.404 . S
C88 C89 1.389 . S
C89 H72 0.939 . S
C89 C84 1.400 . S
C89 C88 1.389 . S
C90 P64 1.819 . S
C90 C91 1.391 . S
C90 C95 1.391 . S
C91 H73 0.941 . S
C91 C90 1.391 . S
C91 C92 1.396 . S
C92 H76 0.939 . S
C92 C91 1.396 . S
C92 C93 1.397 . S
C93 C92 1.397 . S
C93 C94 1.385 . S
C94 H77 0.940 . S
C94 C93 1.385 . S
C94 C95 1.388 . S
C95 H74 0.939 . S
C95 C90 1.391 . S
C95 C94 1.388 . S
P96 O107 1.490 . S
P96 C110 1.812 . S
P96 C116 1.803 . S
P96 C122 1.819 . S
H97 C111 0.941 . S
H98 C112 0.939 . S
H99 C114 0.940 . S
H100 C115 0.940 . S
H101 C117 0.939 . S
H102 C118 0.942 . S
H103 C120 0.940 . S
H104 C121 0.939 . S
H105 C123 0.941 . S
H106 C127 0.939 . S
O107 P96 1.490 . S
H108 C124 0.939 . S
H109 C126 0.940 . S
C110 P96 1.812 . S
C110 C111 1.389 . S
C110 C115 1.391 . S
C111 H97 0.941 . S
C111 C110 1.389 . S
C111 C112 1.397 . S
C112 H98 0.939 . S
C112 C111 1.397 . S
C112 C113 1.378 . S
C113 C112 1.378 . S
C113 C114 1.378 . S
C114 H99 0.940 . S
C114 C113 1.378 . S
C114 C115 1.396 . S
C115 H100 0.940 . S
C115 C110 1.391 . S
C115 C114 1.396 . S
C116 P96 1.803 . S
C116 C117 1.378 . S
C116 C121 1.400 . S
C117 H101 0.939 . S
C117 C116 1.378 . S
C117 C118 1.361 . S
C118 H102 0.942 . S
C118 C117 1.361 . S
C118 C119 1.369 . S
C119 C118 1.369 . S
C119 C120 1.404 . S
C120 H103 0.940 . S
C120 C119 1.404 . S
C120 C121 1.389 . S
C121 H104 0.939 . S
C121 C116 1.400 . S
C121 C120 1.389 . S
C122 P96 1.819 . S
C122 C123 1.391 . S
C122 C127 1.391 . S
C123 H105 0.941 . S
C123 C122 1.391 . S
C123 C124 1.396 . S
C124 H108 0.939 . S
C124 C123 1.396 . S
C124 C125 1.397 . S
C125 C124 1.397 . S
C125 C126 1.385 . S
C126 H109 0.940 . S
C126 C125 1.385 . S
C126 C127 1.388 . S
C127 H106 0.939 . S
C127 C122 1.391 . S
C127 C126 1.388 . S
P128 O139 1.490 . S
P128 C142 1.812 . S
P128 C148 1.803 . S
P128 C154 1.819 . S
H129 C143 0.941 . S
H130 C144 0.939 . S
H131 C146 0.940 . S
H132 C147 0.940 . S
H133 C149 0.939 . S
H134 C150 0.942 . S
H135 C152 0.940 . S
H136 C153 0.939 . S
H137 C155 0.941 . S
H138 C159 0.939 . S
O139 P128 1.490 . S
H140 C156 0.939 . S
H141 C158 0.940 . S
C142 P128 1.812 . S
C142 C143 1.389 . S
C142 C147 1.391 . S
C143 H129 0.941 . S
C143 C142 1.389 . S
C143 C144 1.397 . S
C144 H130 0.939 . S
C144 C143 1.397 . S
C144 C145 1.378 . S
C145 C144 1.378 . S
C145 C146 1.378 . S
C146 H131 0.940 . S
C146 C145 1.378 . S
C146 C147 1.396 . S
C147 H132 0.940 . S
C147 C142 1.391 . S
C147 C146 1.396 . S
C148 P128 1.803 . S
C148 C149 1.378 . S
C148 C153 1.400 . S
C149 H133 0.939 . S
C149 C148 1.378 . S
C149 C150 1.361 . S
C150 H134 0.942 . S
C150 C149 1.361 . S
C150 C151 1.369 . S
C151 C150 1.369 . S
C151 C152 1.404 . S
C152 H135 0.940 . S
C152 C151 1.404 . S
C152 C153 1.389 . S
C153 H136 0.939 . S
C153 C148 1.400 . S
C153 C152 1.389 . S
C154 P128 1.819 . S
C154 C155 1.391 . S
C154 C159 1.391 . S
C155 H137 0.941 . S
C155 C154 1.391 . S
C155 C156 1.396 . S
C156 H140 0.939 . S
C156 C155 1.396 . S
C156 C157 1.397 . S
C157 C156 1.397 . S
C157 C158 1.385 . S
C158 H141 0.940 . S
C158 C157 1.385 . S
C158 C159 1.388 . S
C159 H138 0.939 . S
C159 C154 1.391 . S
C159 C158 1.388 . S
P160 O171 1.490 . S
P160 C174 1.812 . S
P160 C180 1.803 . S
P160 C186 1.819 . S
H161 C175 0.941 . S
H162 C176 0.939 . S
H163 C178 0.940 . S
H164 C179 0.940 . S
H165 C181 0.939 . S
H166 C182 0.942 . S
H167 C184 0.940 . S
H168 C185 0.939 . S
H169 C187 0.941 . S
H170 C191 0.939 . S
O171 P160 1.490 . S
H172 C188 0.939 . S
H173 C190 0.940 . S
C174 P160 1.812 . S
C174 C175 1.389 . S
C174 C179 1.391 . S
C175 H161 0.941 . S
C175 C174 1.389 . S
C175 C176 1.397 . S
C176 H162 0.939 . S
C176 C175 1.397 . S
C176 C177 1.378 . S
C177 C176 1.378 . S
C177 C178 1.378 . S
C178 H163 0.940 . S
C178 C177 1.378 . S
C178 C179 1.396 . S
C179 H164 0.940 . S
C179 C174 1.391 . S
C179 C178 1.396 . S
C180 P160 1.803 . S
C180 C181 1.378 . S
C180 C185 1.400 . S
C181 H165 0.939 . S
C181 C180 1.378 . S
C181 C182 1.361 . S
C182 H166 0.942 . S
C182 C181 1.361 . S
C182 C183 1.369 . S
C183 C182 1.369 . S
C183 C184 1.404 . S
C184 H167 0.940 . S
C184 C183 1.404 . S
C184 C185 1.389 . S
C185 H168 0.939 . S
C185 C180 1.400 . S
C185 C184 1.389 . S
C186 P160 1.819 . S
C186 C187 1.391 . S
C186 C191 1.391 . S
C187 H169 0.941 . S
C187 C186 1.391 . S
C187 C188 1.396 . S
C188 H172 0.939 . S
C188 C187 1.396 . S
C188 C189 1.397 . S
C189 C188 1.397 . S
C189 C190 1.385 . S
C190 H173 0.940 . S
C190 C189 1.385 . S
C190 C191 1.388 . S
C191 H170 0.939 . S
C191 C186 1.391 . S
C191 C190 1.388 . S
P192 O203 1.490 . S
P192 C206 1.812 . S
P192 C212 1.803 . S
P192 C218 1.819 . S
H193 C207 0.941 . S
H194 C208 0.939 . S
H195 C210 0.940 . S
H196 C211 0.940 . S
H197 C213 0.939 . S
H198 C214 0.942 . S
H199 C216 0.940 . S
H200 C217 0.939 . S
H201 C219 0.941 . S
H202 C223 0.939 . S
O203 P192 1.490 . S
H204 C220 0.939 . S
H205 C222 0.940 . S
C206 P192 1.812 . S
C206 C207 1.389 . S
C206 C211 1.391 . S
C207 H193 0.941 . S
C207 C206 1.389 . S
C207 C208 1.397 . S
C208 H194 0.939 . S
C208 C207 1.397 . S
C208 C209 1.378 . S
C209 C208 1.378 . S
C209 C210 1.378 . S
C210 H195 0.940 . S
C210 C209 1.378 . S
C210 C211 1.396 . S
C211 H196 0.940 . S
C211 C206 1.391 . S
C211 C210 1.396 . S
C212 P192 1.803 . S
C212 C213 1.378 . S
C212 C217 1.400 . S
C213 H197 0.939 . S
C213 C212 1.378 . S
C213 C214 1.361 . S
C214 H198 0.942 . S
C214 C213 1.361 . S
C214 C215 1.369 . S
C215 C214 1.369 . S
C215 C216 1.404 . S
C216 H199 0.940 . S
C216 C215 1.404 . S
C216 C217 1.389 . S
C217 H200 0.939 . S
C217 C212 1.400 . S
C217 C216 1.389 . S
C218 P192 1.819 . S
C218 C219 1.391 . S
C218 C223 1.391 . S
C219 H201 0.941 . S
C219 C218 1.391 . S
C219 C220 1.396 . S
C220 H204 0.939 . S
C220 C219 1.396 . S
C220 C221 1.397 . S
C221 C220 1.397 . S
C221 C222 1.385 . S
C222 H205 0.940 . S
C222 C221 1.385 . S
C222 C223 1.388 . S
C223 H202 0.939 . S
C223 C218 1.391 . S
C223 C222 1.388 . S
P224 O235 1.490 . S
P224 C238 1.812 . S
P224 C244 1.803 . S
P224 C250 1.819 . S
H225 C239 0.941 . S
H226 C240 0.939 . S
H227 C242 0.940 . S
H228 C243 0.940 . S
H229 C245 0.939 . S
H230 C246 0.942 . S
H231 C248 0.940 . S
H232 C249 0.939 . S
H233 C251 0.941 . S
H234 C255 0.939 . S
O235 P224 1.490 . S
H236 C252 0.939 . S
H237 C254 0.940 . S
C238 P224 1.812 . S
C238 C239 1.389 . S
C238 C243 1.391 . S
C239 H225 0.941 . S
C239 C238 1.389 . S
C239 C240 1.397 . S
C240 H226 0.939 . S
C240 C239 1.397 . S
C240 C241 1.378 . S
C241 C240 1.378 . S
C241 C242 1.378 . S
C242 H227 0.940 . S
C242 C241 1.378 . S
C242 C243 1.396 . S
C243 H228 0.940 . S
C243 C238 1.391 . S
C243 C242 1.396 . S
C244 P224 1.803 . S
C244 C245 1.378 . S
C244 C249 1.400 . S
C245 H229 0.939 . S
C245 C244 1.378 . S
C245 C246 1.361 . S
C246 H230 0.942 . S
C246 C245 1.361 . S
C246 C247 1.369 . S
C247 C246 1.369 . S
C247 C248 1.404 . S
C248 H231 0.940 . S
C248 C247 1.404 . S
C248 C249 1.389 . S
C249 H232 0.939 . S
C249 C244 1.400 . S
C249 C248 1.389 . S
C250 P224 1.819 . S
C250 C251 1.391 . S
C250 C255 1.391 . S
C251 H233 0.941 . S
C251 C250 1.391 . S
C251 C252 1.396 . S
C252 H236 0.939 . S
C252 C251 1.396 . S
C252 C253 1.397 . S
C253 C252 1.397 . S
C253 C254 1.385 . S
C254 H237 0.940 . S
C254 C253 1.385 . S
C254 C255 1.388 . S
C255 H234 0.939 . S
C255 C250 1.391 . S
C255 C254 1.388 . S
La256 C258 2.928 . S
La256 O276 2.521 . S
La256 O277 2.628 . S
La256 O278 2.554 1_545 S
La256 O279 2.757 1_545 S
La256 O280 2.470 . S
La256 O285 2.482 1_455 S
La256 O287 2.503 1_445 S
La257 C267 2.933 1_545 S
La257 O279 2.484 1_645 S
La257 O281 2.498 1_655 S
La257 O282 2.523 1_545 S
La257 O283 2.633 1_545 S
La257 O284 2.550 . S
La257 O285 2.754 . S
La257 O286 2.474 1_545 S
C258 La256 2.928 . S
C258 C259 1.503 . S
C258 O276 1.261 . S
C258 O277 1.243 . S
C259 C258 1.503 . S
C259 C260 1.394 . S
C259 C264 1.373 . S
C260 C259 1.394 . S
C260 C261 1.380 . S
C260 H288 0.930 . S
C261 C260 1.380 . S
C261 C262 1.376 . S
C261 H289 0.930 . S
C262 C261 1.376 . S
C262 C263 1.370 . S
C263 C262 1.370 . S
C263 C264 1.396 . S
C263 H290 0.929 . S
C264 C259 1.373 . S
C264 C263 1.396 . S
C264 H291 0.929 . S
C265 O278 1.240 . S
C265 O279 1.289 . S
C266 O280 1.258 . S
C266 O281 1.256 . S
C267 La257 2.933 1_565 S
C267 C268 1.503 . S
C267 O282 1.261 . S
C267 O283 1.243 . S
C268 C267 1.503 . S
C268 C269 1.394 . S
C268 C273 1.373 . S
C269 C268 1.394 . S
C269 C270 1.380 . S
C269 H292 0.930 . S
C270 C269 1.380 . S
C270 C271 1.376 . S
C270 H293 0.930 . S
C271 C270 1.376 . S
C271 C272 1.370 . S
C272 C271 1.370 . S
C272 C273 1.396 . S
C272 H294 0.929 . S
C273 C268 1.373 . S
C273 C272 1.396 . S
C273 H295 0.929 . S
C274 O284 1.240 . S
C274 O285 1.289 . S
C275 O286 1.258 . S
C275 O287 1.256 . S
O276 La256 2.521 . S
O276 C258 1.261 . S
O277 La256 2.628 . S
O277 C258 1.243 . S
O278 La256 2.554 1_565 S
O278 C265 1.240 . S
O279 La256 2.757 1_565 S
O279 La257 2.484 1_465 S
O279 C265 1.289 . S
O280 La256 2.470 . S
O280 C266 1.258 . S
O281 La257 2.498 1_455 S
O281 C266 1.256 . S
O282 La257 2.523 1_565 S
O282 C267 1.261 . S
O283 La257 2.633 1_565 S
O283 C267 1.243 . S
O284 La257 2.550 . S
O284 C274 1.240 . S
O285 La256 2.482 1_655 S
O285 La257 2.754 . S
O285 C274 1.289 . S
O286 La257 2.474 1_565 S
O286 C275 1.258 . S
O287 La256 2.503 1_665 S
O287 C275 1.256 . S
H288 C260 0.930 . S
H289 C261 0.930 . S
H290 C263 0.929 . S
H291 C264 0.929 . S
H292 C269 0.930 . S
H293 C270 0.930 . S
H294 C272 0.929 . S
H295 C273 0.929 . S
La296 C298 2.928 . S
La296 O316 2.521 . S
La296 O317 2.628 . S
La296 O318 2.554 1_545 S
La296 O319 2.757 1_545 S
La296 O320 2.470 . S
La296 O325 2.482 . S
La296 O327 2.503 1_544 S
La297 C307 2.928 1_545 S
La297 O319 2.482 1_546 S
La297 O321 2.503 1_556 S
La297 O322 2.521 . S
La297 O323 2.628 1_545 S
La297 O324 2.554 . S
La297 O325 2.757 1_556 S
La297 O326 2.470 1_545 S
C298 La296 2.928 . S
C298 C299 1.503 . S
C298 O316 1.261 . S
C298 O317 1.243 . S
C299 C298 1.503 . S
C299 C300 1.394 . S
C299 C304 1.373 . S
C300 C299 1.394 . S
C300 C301 1.380 . S
C300 H328 0.930 . S
C301 C300 1.380 . S
C301 C302 1.376 . S
C301 H329 0.930 . S
C302 C301 1.376 . S
C302 C303 1.370 . S
C303 C302 1.370 . S
C303 C304 1.396 . S
C303 H330 0.929 . S
C304 C299 1.373 . S
C304 C303 1.396 . S
C304 H331 0.929 . S
C305 O318 1.240 . S
C305 O319 1.289 . S
C306 O320 1.258 . S
C306 O321 1.256 . S
C307 La297 2.928 1_565 S
C307 C308 1.503 . S
C307 O322 1.261 1_565 S
C307 O323 1.243 . S
C308 C307 1.503 . S
C308 C309 1.394 . S
C308 C313 1.373 . S
C309 C308 1.394 . S
C309 C310 1.380 . S
C309 H332 0.930 . S
C310 C309 1.380 . S
C310 C311 1.376 . S
C310 H333 0.930 . S
C311 C310 1.376 . S
C311 C312 1.370 . S
C312 C311 1.370 . S
C312 C313 1.396 . S
C312 H334 0.929 . S
C313 C308 1.373 . S
C313 C312 1.396 . S
C313 H335 0.929 . S
C314 O324 1.240 . S
C314 O325 1.289 1_556 S
C315 O326 1.258 . S
C315 O327 1.256 . S
O316 La296 2.521 . S
O316 C298 1.261 . S
O317 La296 2.628 . S
O317 C298 1.243 . S
O318 La296 2.554 1_565 S
O318 C305 1.240 . S
O319 La296 2.757 1_565 S
O319 La297 2.482 1_564 S
O319 C305 1.289 . S
O320 La296 2.470 . S
O320 C306 1.258 . S
O321 La297 2.503 1_554 S
O321 C306 1.256 . S
O322 La297 2.521 . S
O322 C307 1.261 1_545 S
O323 La297 2.628 1_565 S
O323 C307 1.243 . S
O324 La297 2.554 . S
O324 C314 1.240 . S
O325 La296 2.482 . S
O325 La297 2.757 1_554 S
O325 C314 1.289 1_554 S
O326 La297 2.470 1_565 S
O326 C315 1.258 . S
O327 La296 2.503 1_566 S
O327 C315 1.256 . S
H328 C300 0.930 . S
H329 C301 0.930 . S
H330 C303 0.929 . S
H331 C304 0.929 . S
H332 C309 0.930 . S
H333 C310 0.930 . S
H334 C312 0.929 . S
H335 C313 0.929 . S
La336 C338 2.928 . S
La336 O356 2.521 . S
La336 O357 2.628 . S
La336 O358 2.554 . S
La336 O359 2.757 . S
La336 O360 2.470 . S
La336 O365 2.482 . S
La336 O367 2.503 . S
La337 C347 2.928 . S
La337 O359 2.482 . S
La337 O361 2.503 . S
La337 O362 2.521 . S
La337 O363 2.628 . S
La337 O364 2.554 . S
La337 O365 2.757 . S
La337 O366 2.470 . S
C338 La336 2.928 . S
C338 C339 1.503 . S
C338 O356 1.261 . S
C338 O357 1.243 . S
C339 C338 1.503 . S
C339 C340 1.394 . S
C339 C344 1.373 . S
C340 C339 1.394 . S
C340 C341 1.380 . S
C340 H368 0.930 . S
C341 C340 1.380 . S
C341 C342 1.376 . S
C341 H369 0.930 . S
C342 C341 1.376 . S
C342 C343 1.370 . S
C343 C342 1.370 . S
C343 C344 1.396 . S
C343 H370 0.929 . S
C344 C339 1.373 . S
C344 C343 1.396 . S
C344 H371 0.929 . S
C345 O358 1.240 . S
C345 O359 1.289 . S
C346 O360 1.258 . S
C346 O361 1.256 . S
C347 La337 2.928 . S
C347 C348 1.503 . S
C347 O362 1.261 . S
C347 O363 1.243 . S
C348 C347 1.503 . S
C348 C349 1.394 . S
C348 C353 1.373 . S
C349 C348 1.394 . S
C349 C350 1.380 . S
C349 H372 0.930 . S
C350 C349 1.380 . S
C350 C351 1.376 . S
C350 H373 0.930 . S
C351 C350 1.376 . S
C351 C352 1.370 . S
C352 C351 1.370 . S
C352 C353 1.396 . S
C352 H374 0.929 . S
C353 C348 1.373 . S
C353 C352 1.396 . S
C353 H375 0.929 . S
C354 O364 1.240 . S
C354 O365 1.289 . S
C355 O366 1.258 . S
C355 O367 1.256 . S
O356 La336 2.521 . S
O356 C338 1.261 . S
O357 La336 2.628 . S
O357 C338 1.243 . S
O358 La336 2.554 . S
O358 C345 1.240 . S
O359 La336 2.757 . S
O359 La337 2.482 . S
O359 C345 1.289 . S
O360 La336 2.470 . S
O360 C346 1.258 . S
O361 La337 2.503 . S
O361 C346 1.256 . S
O362 La337 2.521 . S
O362 C347 1.261 . S
O363 La337 2.628 . S
O363 C347 1.243 . S
O364 La337 2.554 . S
O364 C354 1.240 . S
O365 La336 2.482 . S
O365 La337 2.757 . S
O365 C354 1.289 . S
O366 La337 2.470 . S
O366 C355 1.258 . S
O367 La336 2.503 . S
O367 C355 1.256 . S
H368 C340 0.930 . S
H369 C341 0.930 . S
H370 C343 0.929 . S
H371 C344 0.929 . S
H372 C349 0.930 . S
H373 C350 0.930 . S
H374 C352 0.929 . S
H375 C353 0.929 . S
La376 C378 2.928 . S
La376 O396 2.521 . S
La376 O397 2.628 . S
La376 O398 2.554 1_455 S
La376 O399 2.757 1_455 S
La376 O400 2.470 . S
La376 O405 2.482 1_554 S
La376 O407 2.477 1_454 S
La377 C387 2.928 . S
La377 O399 2.482 1_556 S
La377 O401 2.503 1_656 S
La377 O402 2.521 . S
La377 O403 2.628 . S
La377 O404 2.554 1_655 S
La377 O405 2.757 1_655 S
La377 O406 2.470 . S
C378 La376 2.928 . S
C378 C379 1.503 . S
C378 O396 1.261 . S
C378 O397 1.243 . S
C379 C378 1.503 . S
C379 C380 1.394 . S
C379 C384 1.373 . S
C380 C379 1.394 . S
C380 C381 1.380 . S
C380 H408 0.930 . S
C381 C380 1.380 . S
C381 C382 1.376 . S
C381 H409 0.930 . S
C382 C381 1.376 . S
C382 C383 1.370 . S
C383 C382 1.370 . S
C383 C384 1.396 . S
C383 H410 0.929 . S
C384 C379 1.373 . S
C384 C383 1.396 . S
C384 H411 0.929 . S
C385 O398 1.240 . S
C385 O399 1.289 . S
C386 O400 1.258 . S
C386 O401 1.256 . S
C387 La377 2.928 . S
C387 C388 1.503 . S
C387 O402 1.261 . S
C387 O403 1.243 . S
C388 C387 1.503 . S
C388 C389 1.394 . S
C388 C393 1.373 . S
C389 C388 1.394 . S
C389 C390 1.380 . S
C389 H412 0.930 . S
C390 C389 1.380 . S
C390 C391 1.376 . S
C390 H413 0.930 . S
C391 C390 1.376 . S
C391 C392 1.370 . S
C392 C391 1.370 . S
C392 C393 1.396 . S
C392 H414 0.929 . S
C393 C388 1.373 . S
C393 C392 1.396 . S
C393 H415 0.929 . S
C394 O404 1.240 . S
C394 O405 1.289 . S
C395 O406 1.258 . S
C395 O407 1.288 . S
O396 La376 2.521 . S
O396 C378 1.261 . S
O397 La376 2.628 . S
O397 C378 1.243 . S
O398 La376 2.554 1_655 S
O398 C385 1.240 . S
O399 La376 2.757 1_655 S
O399 La377 2.482 1_554 S
O399 C385 1.289 . S
O400 La376 2.470 . S
O400 C386 1.258 . S
O401 La377 2.503 1_454 S
O401 C386 1.256 . S
O402 La377 2.521 . S
O402 C387 1.261 . S
O403 La377 2.628 . S
O403 C387 1.243 . S
O404 La377 2.554 1_455 S
O404 C394 1.240 . S
O405 La376 2.482 1_556 S
O405 La377 2.757 1_455 S
O405 C394 1.289 . S
O406 La377 2.470 . S
O406 C395 1.258 . S
O407 La376 2.477 1_656 S
O407 C395 1.288 . S
H408 C380 0.930 . S
H409 C381 0.930 . S
H410 C383 0.929 . S
H411 C384 0.929 . S
H412 C389 0.930 . S
H413 C390 0.930 . S
H414 C392 0.929 . S
H415 C393 0.929 . S
H416 C424 0.929 . S
H417 C426 0.930 . S
H418 C428 0.930 . S
H419 C431 0.929 . S
H420 C434 0.930 . S
H421 C436 0.960 . S
H422 C436 0.960 . S
H423 C436 0.960 . S
C424 H416 0.929 . S
C424 C425 1.377 . S
C424 C426 1.384 . S
C425 C424 1.377 . S
C425 C431 1.390 . S
C426 H417 0.930 . S
C426 C424 1.384 . S
C426 C427 1.372 . S
C427 C426 1.372 . S
C427 C428 1.400 . S
C427 C432 1.490 . S
C428 H418 0.930 . S
C428 C427 1.400 . S
C428 C431 1.386 . S
H429 C445 0.930 . S
H430 C446 0.931 . S
C431 H419 0.929 . S
C431 C425 1.390 . S
C431 C428 1.386 . S
C432 C427 1.490 . S
C432 C434 1.395 . S
C432 C435 1.403 . S
H433 C439 0.930 . S
C434 H420 0.930 . S
C434 C432 1.395 . S
C434 C437 1.403 . S
C435 C432 1.403 . S
C435 C436 1.524 . S
C435 C439 1.400 . S
C436 H421 0.960 . S
C436 H422 0.960 . S
C436 H423 0.960 . S
C436 C435 1.524 . S
C437 C434 1.403 . S
C437 C438 1.392 . S
C437 C441 1.495 . S
C438 C437 1.392 . S
C438 C439 1.385 . S
C438 C440 1.478 . S
C439 H433 0.930 . S
C439 C435 1.400 . S
C439 C438 1.385 . S
C440 C438 1.478 . S
C440 C442 1.381 . S
C440 C446 1.383 . S
C441 C437 1.495 . S
C441 H447 0.959 . S
C441 H448 0.961 . S
C441 H449 0.960 . S
C442 C440 1.381 . S
C442 C443 1.394 . S
C442 H450 0.930 . S
C443 C442 1.394 . S
C443 C444 1.383 . S
C443 H451 0.929 . S
C444 C443 1.383 . S
C444 C445 1.377 . S
C445 H429 0.930 . S
C445 C444 1.377 . S
C445 C446 1.379 . S
C446 H430 0.931 . S
C446 C440 1.383 . S
C446 C445 1.379 . S
H447 C441 0.959 . S
H448 C441 0.961 . S
H449 C441 0.960 . S
H450 C442 0.930 . S
H451 C443 0.929 . S
H452 C460 0.929 . S
H453 C462 0.930 . S
H454 C464 0.930 . S
H455 C467 0.929 . S
H456 C470 0.930 . S
H457 C472 0.960 . S
H458 C472 0.960 . S
H459 C472 0.960 . S
C460 H452 0.929 . S
C460 C461 1.377 . S
C460 C462 1.384 . S
C461 C460 1.377 . S
C461 C467 1.390 . S
C462 H453 0.930 . S
C462 C460 1.384 . S
C462 C463 1.372 . S
C463 C462 1.372 . S
C463 C464 1.400 . S
C463 C468 1.490 . S
C464 H454 0.930 . S
C464 C463 1.400 . S
C464 C467 1.386 . S
H465 C481 0.930 . S
H466 C482 0.931 . S
C467 H455 0.929 . S
C467 C461 1.390 . S
C467 C464 1.386 . S
C468 C463 1.490 . S
C468 C470 1.395 . S
C468 C471 1.403 . S
H469 C475 0.930 . S
C470 H456 0.930 . S
C470 C468 1.395 . S
C470 C473 1.403 . S
C471 C468 1.403 . S
C471 C472 1.524 . S
C471 C475 1.400 . S
C472 H457 0.960 . S
C472 H458 0.960 . S
C472 H459 0.960 . S
C472 C471 1.524 . S
C473 C470 1.403 . S
C473 C474 1.392 . S
C473 C477 1.495 . S
C474 C473 1.392 . S
C474 C475 1.385 . S
C474 C476 1.478 . S
C475 H469 0.930 . S
C475 C471 1.400 . S
C475 C474 1.385 . S
C476 C474 1.478 . S
C476 C478 1.381 . S
C476 C482 1.383 . S
C477 C473 1.495 . S
C477 H483 0.959 . S
C477 H484 0.961 . S
C477 H485 0.960 . S
C478 C476 1.381 . S
C478 C479 1.394 . S
C478 H486 0.930 . S
C479 C478 1.394 . S
C479 C480 1.383 . S
C479 H487 0.929 . S
C480 C479 1.383 . S
C480 C481 1.377 . S
C481 H465 0.930 . S
C481 C480 1.377 . S
C481 C482 1.379 . S
C482 H466 0.931 . S
C482 C476 1.383 . S
C482 C481 1.379 . S
H483 C477 0.959 . S
H484 C477 0.961 . S
H485 C477 0.960 . S
H486 C478 0.930 . S
H487 C479 0.929 . S
H488 C496 0.929 . S
H489 C498 0.930 . S
H490 C500 0.930 . S
H491 C503 0.929 . S
H492 C506 0.930 . S
H493 C508 0.960 . S
H494 C508 0.960 . S
H495 C508 0.960 . S
C496 H488 0.929 . S
C496 C497 1.377 . S
C496 C498 1.384 . S
C497 C496 1.377 . S
C497 C503 1.390 . S
C498 H489 0.930 . S
C498 C496 1.384 . S
C498 C499 1.372 . S
C499 C498 1.372 . S
C499 C500 1.400 . S
C499 C504 1.490 . S
C500 H490 0.930 . S
C500 C499 1.400 . S
C500 C503 1.386 . S
H501 C517 0.930 . S
H502 C518 0.931 . S
C503 H491 0.929 . S
C503 C497 1.390 . S
C503 C500 1.386 . S
C504 C499 1.490 . S
C504 C506 1.395 . S
C504 C507 1.403 . S
H505 C511 0.930 . S
C506 H492 0.930 . S
C506 C504 1.395 . S
C506 C509 1.403 . S
C507 C504 1.403 . S
C507 C508 1.524 . S
C507 C511 1.400 . S
C508 H493 0.960 . S
C508 H494 0.960 . S
C508 H495 0.960 . S
C508 C507 1.524 . S
C509 C506 1.403 . S
C509 C510 1.392 . S
C509 C513 1.495 . S
C510 C509 1.392 . S
C510 C511 1.385 . S
C510 C512 1.478 . S
C511 H505 0.930 . S
C511 C507 1.400 . S
C511 C510 1.385 . S
C512 C510 1.478 . S
C512 C514 1.381 . S
C512 C518 1.383 . S
C513 C509 1.495 . S
C513 H519 0.959 . S
C513 H520 0.961 . S
C513 H521 0.960 . S
C514 C512 1.381 . S
C514 C515 1.394 . S
C514 H522 0.930 . S
C515 C514 1.394 . S
C515 C516 1.383 . S
C515 H523 0.929 . S
C516 C515 1.383 . S
C516 C517 1.377 . S
C517 H501 0.930 . S
C517 C516 1.377 . S
C517 C518 1.379 . S
C518 H502 0.931 . S
C518 C512 1.383 . S
C518 C517 1.379 . S
H519 C513 0.959 . S
H520 C513 0.961 . S
H521 C513 0.960 . S
H522 C514 0.930 . S
H523 C515 0.929 . S
H524 C532 0.929 . S
H525 C534 0.930 . S
H526 C536 0.930 . S
H527 C539 0.929 . S
H528 C542 0.930 . S
H529 C544 0.960 . S
H530 C544 0.960 . S
H531 C544 0.960 . S
C532 H524 0.929 . S
C532 C533 1.377 . S
C532 C534 1.384 . S
C533 C532 1.377 . S
C533 C539 1.390 . S
C534 H525 0.930 . S
C534 C532 1.384 . S
C534 C535 1.372 . S
C535 C534 1.372 . S
C535 C536 1.400 . S
C535 C540 1.490 . S
C536 H526 0.930 . S
C536 C535 1.400 . S
C536 C539 1.386 . S
H537 C553 0.930 . S
H538 C554 0.931 . S
C539 H527 0.929 . S
C539 C533 1.390 . S
C539 C536 1.386 . S
C540 C535 1.490 . S
C540 C542 1.395 . S
C540 C543 1.403 . S
H541 C547 0.930 . S
C542 H528 0.930 . S
C542 C540 1.395 . S
C542 C545 1.403 . S
C543 C540 1.403 . S
C543 C544 1.524 . S
C543 C547 1.400 . S
C544 H529 0.960 . S
C544 H530 0.960 . S
C544 H531 0.960 . S
C544 C543 1.524 . S
C545 C542 1.403 . S
C545 C546 1.392 . S
C545 C549 1.495 . S
C546 C545 1.392 . S
C546 C547 1.385 . S
C546 C548 1.478 . S
C547 H541 0.930 . S
C547 C543 1.400 . S
C547 C546 1.385 . S
C548 C546 1.478 . S
C548 C550 1.381 . S
C548 C554 1.383 . S
C549 C545 1.495 . S
C549 H555 0.959 . S
C549 H556 0.961 . S
C549 H557 0.960 . S
C550 C548 1.381 . S
C550 C551 1.394 . S
C550 H558 0.930 . S
C551 C550 1.394 . S
C551 C552 1.383 . S
C551 H559 0.929 . S
C552 C551 1.383 . S
C552 C553 1.377 . S
C553 H537 0.930 . S
C553 C552 1.377 . S
C553 C554 1.379 . S
C554 H538 0.931 . S
C554 C548 1.383 . S
C554 C553 1.379 . S
H555 C549 0.959 . S
H556 C549 0.961 . S
H557 C549 0.960 . S
H558 C550 0.930 . S
H559 C551 0.929 . S
H560 C568 0.929 . S
H561 C570 0.930 . S
H562 C572 0.930 . S
H563 C575 0.929 . S
H564 C578 0.930 . S
H565 C580 0.960 . S
H566 C580 0.960 . S
H567 C580 0.960 . S
C568 H560 0.929 . S
C568 C569 1.377 . S
C568 C570 1.384 . S
C569 C568 1.377 . S
C569 C575 1.390 . S
C570 H561 0.930 . S
C570 C568 1.384 . S
C570 C571 1.372 . S
C571 C570 1.372 . S
C571 C572 1.400 . S
C571 C576 1.490 . S
C572 H562 0.930 . S
C572 C571 1.400 . S
C572 C575 1.386 . S
H573 C589 0.930 . S
H574 C590 0.931 . S
C575 H563 0.929 . S
C575 C569 1.390 . S
C575 C572 1.386 . S
C576 C571 1.490 . S
C576 C578 1.395 . S
C576 C579 1.403 . S
H577 C583 0.930 . S
C578 H564 0.930 . S
C578 C576 1.395 . S
C578 C581 1.403 . S
C579 C576 1.403 . S
C579 C580 1.524 . S
C579 C583 1.400 . S
C580 H565 0.960 . S
C580 H566 0.960 . S
C580 H567 0.960 . S
C580 C579 1.524 . S
C581 C578 1.403 . S
C581 C582 1.392 . S
C581 C585 1.495 . S
C582 C581 1.392 . S
C582 C583 1.385 . S
C582 C584 1.478 . S
C583 H577 0.930 . S
C583 C579 1.400 . S
C583 C582 1.385 . S
C584 C582 1.478 . S
C584 C586 1.381 . S
C584 C590 1.383 . S
C585 C581 1.495 . S
C585 H591 0.959 . S
C585 H592 0.961 . S
C585 H593 0.960 . S
C586 C584 1.381 . S
C586 C587 1.394 . S
C586 H594 0.930 . S
C587 C586 1.394 . S
C587 C588 1.383 . S
C587 H595 0.929 . S
C588 C587 1.383 . S
C588 C589 1.377 . S
C589 H573 0.930 . S
C589 C588 1.377 . S
C589 C590 1.379 . S
C590 H574 0.931 . S
C590 C584 1.383 . S
C590 C589 1.379 . S
H591 C585 0.959 . S
H592 C585 0.961 . S
H593 C585 0.960 . S
H594 C586 0.930 . S
H595 C587 0.929 . S
H596 C604 0.929 . S
H597 C606 0.930 . S
H598 C608 0.930 . S
H599 C611 0.929 . S
H600 C614 0.930 . S
H601 C616 0.960 . S
H602 C616 0.960 . S
H603 C616 0.960 . S
C604 H596 0.929 . S
C604 C605 1.377 . S
C604 C606 1.384 . S
C605 C604 1.377 . S
C605 C611 1.390 . S
C606 H597 0.930 . S
C606 C604 1.384 . S
C606 C607 1.372 . S
C607 C606 1.372 . S
C607 C608 1.400 . S
C607 C612 1.490 . S
C608 H598 0.930 . S
C608 C607 1.400 . S
C608 C611 1.386 . S
H609 C625 0.930 . S
H610 C626 0.931 . S
C611 H599 0.929 . S
C611 C605 1.390 . S
C611 C608 1.386 . S
C612 C607 1.490 . S
C612 C614 1.395 . S
C612 C615 1.403 . S
H613 C619 0.930 . S
C614 H600 0.930 . S
C614 C612 1.395 . S
C614 C617 1.403 . S
C615 C612 1.403 . S
C615 C616 1.524 . S
C615 C619 1.400 . S
C616 H601 0.960 . S
C616 H602 0.960 . S
C616 H603 0.960 . S
C616 C615 1.524 . S
C617 C614 1.403 . S
C617 C618 1.392 . S
C617 C621 1.495 . S
C618 C617 1.392 . S
C618 C619 1.385 . S
C618 C620 1.478 . S
C619 H613 0.930 . S
C619 C615 1.400 . S
C619 C618 1.385 . S
C620 C618 1.478 . S
C620 C622 1.381 . S
C620 C626 1.383 . S
C621 C617 1.495 . S
C621 H627 0.959 . S
C621 H628 0.961 . S
C621 H629 0.960 . S
C622 C620 1.381 . S
C622 C623 1.394 . S
C622 H630 0.930 . S
C623 C622 1.394 . S
C623 C624 1.383 . S
C623 H631 0.929 . S
C624 C623 1.383 . S
C624 C625 1.377 . S
C625 H609 0.930 . S
C625 C624 1.377 . S
C625 C626 1.379 . S
C626 H610 0.931 . S
C626 C620 1.383 . S
C626 C625 1.379 . S
H627 C621 0.959 . S
H628 C621 0.961 . S
H629 C621 0.960 . S
H630 C622 0.930 . S
H631 C623 0.929 . S
H632 C640 0.929 . S
H633 C642 0.930 . S
H634 C644 0.930 . S
H635 C647 0.929 . S
H636 C650 0.930 . S
H637 C652 0.960 . S
H638 C652 0.960 . S
H639 C652 0.960 . S
C640 H632 0.929 . S
C640 C641 1.377 . S
C640 C642 1.384 . S
C641 C640 1.377 . S
C641 C647 1.390 . S
C642 H633 0.930 . S
C642 C640 1.384 . S
C642 C643 1.372 . S
C643 C642 1.372 . S
C643 C644 1.400 . S
C643 C648 1.490 . S
C644 H634 0.930 . S
C644 C643 1.400 . S
C644 C647 1.386 . S
H645 C661 0.930 . S
H646 C662 0.931 . S
C647 H635 0.929 . S
C647 C641 1.390 . S
C647 C644 1.386 . S
C648 C643 1.490 . S
C648 C650 1.395 . S
C648 C651 1.403 . S
H649 C655 0.930 . S
C650 H636 0.930 . S
C650 C648 1.395 . S
C650 C653 1.403 . S
C651 C648 1.403 . S
C651 C652 1.524 . S
C651 C655 1.400 . S
C652 H637 0.960 . S
C652 H638 0.960 . S
C652 H639 0.960 . S
C652 C651 1.524 . S
C653 C650 1.403 . S
C653 C654 1.392 . S
C653 C657 1.495 . S
C654 C653 1.392 . S
C654 C655 1.385 . S
C654 C656 1.478 . S
C655 H649 0.930 . S
C655 C651 1.400 . S
C655 C654 1.385 . S
C656 C654 1.478 . S
C656 C658 1.381 . S
C656 C662 1.383 . S
C657 C653 1.495 . S
C657 H663 0.959 . S
C657 H664 0.961 . S
C657 H665 0.960 . S
C658 C656 1.381 . S
C658 C659 1.394 . S
C658 H666 0.930 . S
C659 C658 1.394 . S
C659 C660 1.383 . S
C659 H667 0.929 . S
C660 C659 1.383 . S
C660 C661 1.377 . S
C661 H645 0.930 . S
C661 C660 1.377 . S
C661 C662 1.379 . S
C662 H646 0.931 . S
C662 C656 1.383 . S
C662 C661 1.379 . S
H663 C657 0.959 . S
H664 C657 0.961 . S
H665 C657 0.960 . S
H666 C658 0.930 . S
H667 C659 0.929 . S
H668 C676 0.929 . S
H669 C678 0.930 . S
H670 C680 0.930 . S
H671 C683 0.929 . S
H672 C686 0.930 . S
H673 C688 0.960 . S
H674 C688 0.960 . S
H675 C688 0.960 . S
C676 H668 0.929 . S
C676 C677 1.377 . S
C676 C678 1.384 . S
C677 C676 1.377 . S
C677 C683 1.390 . S
C678 H669 0.930 . S
C678 C676 1.384 . S
C678 C679 1.372 . S
C679 C678 1.372 . S
C679 C680 1.400 . S
C679 C684 1.490 . S
C680 H670 0.930 . S
C680 C679 1.400 . S
C680 C683 1.386 . S
H681 C697 0.930 . S
H682 C698 0.931 . S
C683 H671 0.929 . S
C683 C677 1.390 . S
C683 C680 1.386 . S
C684 C679 1.490 . S
C684 C686 1.395 . S
C684 C687 1.403 . S
H685 C691 0.930 . S
C686 H672 0.930 . S
C686 C684 1.395 . S
C686 C689 1.403 . S
C687 C684 1.403 . S
C687 C688 1.524 . S
C687 C691 1.400 . S
C688 H673 0.960 . S
C688 H674 0.960 . S
C688 H675 0.960 . S
C688 C687 1.524 . S
C689 C686 1.403 . S
C689 C690 1.392 . S
C689 C693 1.495 . S
C690 C689 1.392 . S
C690 C691 1.385 . S
C690 C692 1.478 . S
C691 H685 0.930 . S
C691 C687 1.400 . S
C691 C690 1.385 . S
C692 C690 1.478 . S
C692 C694 1.381 . S
C692 C698 1.383 . S
C693 C689 1.495 . S
C693 H699 0.959 . S
C693 H700 0.961 . S
C693 H701 0.960 . S
C694 C692 1.381 . S
C694 C695 1.394 . S
C694 H702 0.930 . S
C695 C694 1.394 . S
C695 C696 1.383 . S
C695 H703 0.929 . S
C696 C695 1.383 . S
C696 C697 1.377 . S
C697 H681 0.930 . S
C697 C696 1.377 . S
C697 C698 1.379 . S
C698 H682 0.931 . S
C698 C692 1.383 . S
C698 C697 1.379 . S
H699 C693 0.959 . S
H700 C693 0.961 . S
H701 C693 0.960 . S
H702 C694 0.930 . S
H703 C695 0.929 . S
H704 C712 0.929 . S
H705 C714 0.930 . S
H706 C716 0.930 . S
H707 C719 0.929 . S
H708 C722 0.930 . S
H709 C724 0.960 . S
H710 C724 0.960 . S
H711 C724 0.960 . S
C712 H704 0.929 . S
C712 C713 1.377 . S
C712 C714 1.384 . S
C713 C712 1.377 . S
C713 C719 1.390 . S
C714 H705 0.930 . S
C714 C712 1.384 . S
C714 C715 1.372 . S
C715 C714 1.372 . S
C715 C716 1.400 . S
C715 C720 1.490 . S
C716 H706 0.930 . S
C716 C715 1.400 . S
C716 C719 1.386 . S
H717 C733 0.930 . S
H718 C734 0.931 . S
C719 H707 0.929 . S
C719 C713 1.390 . S
C719 C716 1.386 . S
C720 C715 1.490 . S
C720 C722 1.395 . S
C720 C723 1.403 . S
H721 C727 0.930 . S
C722 H708 0.930 . S
C722 C720 1.395 . S
C722 C725 1.403 . S
C723 C720 1.403 . S
C723 C724 1.524 . S
C723 C727 1.400 . S
C724 H709 0.960 . S
C724 H710 0.960 . S
C724 H711 0.960 . S
C724 C723 1.524 . S
C725 C722 1.403 . S
C725 C726 1.392 . S
C725 C729 1.495 . S
C726 C725 1.392 . S
C726 C727 1.385 . S
C726 C728 1.478 . S
C727 H721 0.930 . S
C727 C723 1.400 . S
C727 C726 1.385 . S
C728 C726 1.478 . S
C728 C730 1.381 . S
C728 C734 1.383 . S
C729 C725 1.495 . S
C729 H735 0.959 . S
C729 H736 0.961 . S
C729 H737 0.960 . S
C730 C728 1.381 . S
C730 C731 1.394 . S
C730 H738 0.930 . S
C731 C730 1.394 . S
C731 C732 1.383 . S
C731 H739 0.929 . S
C732 C731 1.383 . S
C732 C733 1.377 . S
C733 H717 0.930 . S
C733 C732 1.377 . S
C733 C734 1.379 . S
C734 H718 0.931 . S
C734 C728 1.383 . S
C734 C733 1.379 . S
H735 C729 0.959 . S
H736 C729 0.961 . S
H737 C729 0.960 . S
H738 C730 0.930 . S
H739 C731 0.929 . S
H740 C748 0.929 . S
H741 C750 0.930 . S
H742 C752 0.930 . S
H743 C755 0.929 . S
H744 C758 0.930 . S
H745 C760 0.960 . S
H746 C760 0.960 . S
H747 C760 0.960 . S
C748 H740 0.929 . S
C748 C749 1.377 . S
C748 C750 1.384 . S
C749 C748 1.377 . S
C749 C755 1.390 . S
C750 H741 0.930 . S
C750 C748 1.384 . S
C750 C751 1.372 . S
C751 C750 1.372 . S
C751 C752 1.400 . S
C751 C756 1.490 . S
C752 H742 0.930 . S
C752 C751 1.400 . S
C752 C755 1.386 . S
H753 C769 0.930 . S
H754 C770 0.931 . S
C755 H743 0.929 . S
C755 C749 1.390 . S
C755 C752 1.386 . S
C756 C751 1.490 . S
C756 C758 1.395 . S
C756 C759 1.403 . S
H757 C763 0.930 . S
C758 H744 0.930 . S
C758 C756 1.395 . S
C758 C761 1.403 . S
C759 C756 1.403 . S
C759 C760 1.524 . S
C759 C763 1.400 . S
C760 H745 0.960 . S
C760 H746 0.960 . S
C760 H747 0.960 . S
C760 C759 1.524 . S
C761 C758 1.403 . S
C761 C762 1.392 . S
C761 C765 1.495 . S
C762 C761 1.392 . S
C762 C763 1.385 . S
C762 C764 1.478 . S
C763 H757 0.930 . S
C763 C759 1.400 . S
C763 C762 1.385 . S
C764 C762 1.478 . S
C764 C766 1.381 . S
C764 C770 1.383 . S
C765 C761 1.495 . S
C765 H771 0.959 . S
C765 H772 0.961 . S
C765 H773 0.960 . S
C766 C764 1.381 . S
C766 C767 1.394 . S
C766 H774 0.930 . S
C767 C766 1.394 . S
C767 C768 1.383 . S
C767 H775 0.929 . S
C768 C767 1.383 . S
C768 C769 1.377 . S
C769 H753 0.930 . S
C769 C768 1.377 . S
C769 C770 1.379 . S
C770 H754 0.931 . S
C770 C764 1.383 . S
C770 C769 1.379 . S
H771 C765 0.959 . S
H772 C765 0.961 . S
H773 C765 0.960 . S
H774 C766 0.930 . S
H775 C767 0.929 . S
H776 C784 0.929 . S
H777 C786 0.930 . S
H778 C788 0.930 . S
H779 C791 0.929 . S
H780 C794 0.930 . S
H781 C796 0.960 . S
H782 C796 0.960 . S
H783 C796 0.960 . S
C784 H776 0.929 . S
C784 C785 1.377 . S
C784 C786 1.384 . S
C785 C784 1.377 . S
C785 C791 1.390 . S
C786 H777 0.930 . S
C786 C784 1.384 . S
C786 C787 1.372 . S
C787 C786 1.372 . S
C787 C788 1.400 . S
C787 C792 1.490 . S
C788 H778 0.930 . S
C788 C787 1.400 . S
C788 C791 1.386 . S
H789 C805 0.930 . S
H790 C806 0.931 . S
C791 H779 0.929 . S
C791 C785 1.390 . S
C791 C788 1.386 . S
C792 C787 1.490 . S
C792 C794 1.395 . S
C792 C795 1.403 . S
H793 C799 0.930 . S
C794 H780 0.930 . S
C794 C792 1.395 . S
C794 C797 1.403 . S
C795 C792 1.403 . S
C795 C796 1.524 . S
C795 C799 1.400 . S
C796 H781 0.960 . S
C796 H782 0.960 . S
C796 H783 0.960 . S
C796 C795 1.524 . S
C797 C794 1.403 . S
C797 C798 1.392 . S
C797 C801 1.495 . S
C798 C797 1.392 . S
C798 C799 1.385 . S
C798 C800 1.478 . S
C799 H793 0.930 . S
C799 C795 1.400 . S
C799 C798 1.385 . S
C800 C798 1.478 . S
C800 C802 1.381 . S
C800 C806 1.383 . S
C801 C797 1.495 . S
C801 H807 0.959 . S
C801 H808 0.961 . S
C801 H809 0.960 . S
C802 C800 1.381 . S
C802 C803 1.394 . S
C802 H810 0.930 . S
C803 C802 1.394 . S
C803 C804 1.383 . S
C803 H811 0.929 . S
C804 C803 1.383 . S
C804 C805 1.377 . S
C805 H789 0.930 . S
C805 C804 1.377 . S
C805 C806 1.379 . S
C806 H790 0.931 . S
C806 C800 1.383 . S
C806 C805 1.379 . S
H807 C801 0.959 . S
H808 C801 0.961 . S
H809 C801 0.960 . S
H810 C802 0.930 . S
H811 C803 0.929 . S
H812 C820 0.929 . S
H813 C822 0.930 . S
H814 C824 0.930 . S
H815 C827 0.929 . S
H816 C830 0.930 . S
H817 C832 0.960 . S
H818 C832 0.960 . S
H819 C832 0.960 . S
C820 H812 0.929 . S
C820 C821 1.377 . S
C820 C822 1.384 . S
C821 C820 1.377 . S
C821 C827 1.390 . S
C822 H813 0.930 . S
C822 C820 1.384 . S
C822 C823 1.372 . S
C823 C822 1.372 . S
C823 C824 1.400 . S
C823 C828 1.490 . S
C824 H814 0.930 . S
C824 C823 1.400 . S
C824 C827 1.386 . S
H825 C841 0.930 . S
H826 C842 0.931 . S
C827 H815 0.929 . S
C827 C821 1.390 . S
C827 C824 1.386 . S
C828 C823 1.490 . S
C828 C830 1.395 . S
C828 C831 1.403 . S
H829 C835 0.930 . S
C830 H816 0.930 . S
C830 C828 1.395 . S
C830 C833 1.403 . S
C831 C828 1.403 . S
C831 C832 1.524 . S
C831 C835 1.400 . S
C832 H817 0.960 . S
C832 H818 0.960 . S
C832 H819 0.960 . S
C832 C831 1.524 . S
C833 C830 1.403 . S
C833 C834 1.392 . S
C833 C837 1.495 . S
C834 C833 1.392 . S
C834 C835 1.385 . S
C834 C836 1.478 . S
C835 H829 0.930 . S
C835 C831 1.400 . S
C835 C834 1.385 . S
C836 C834 1.478 . S
C836 C838 1.381 . S
C836 C842 1.383 . S
C837 C833 1.495 . S
C837 H843 0.959 . S
C837 H844 0.961 . S
C837 H845 0.960 . S
C838 C836 1.381 . S
C838 C839 1.394 . S
C838 H846 0.930 . S
C839 C838 1.394 . S
C839 C840 1.383 . S
C839 H847 0.929 . S
C840 C839 1.383 . S
C840 C841 1.377 . S
C841 H825 0.930 . S
C841 C840 1.377 . S
C841 C842 1.379 . S
C842 H826 0.931 . S
C842 C836 1.383 . S
C842 C841 1.379 . S
H843 C837 0.959 . S
H844 C837 0.961 . S
H845 C837 0.960 . S
H846 C838 0.930 . S
H847 C839 0.929 . S
H848 C856 0.929 . S
H849 C858 0.930 . S
H850 C860 0.930 . S
H851 C863 0.929 . S
H852 C866 0.930 . S
H853 C868 0.960 . S
H854 C868 0.960 . S
H855 C868 0.960 . S
C856 H848 0.929 . S
C856 C857 1.377 . S
C856 C858 1.384 . S
C857 C856 1.377 . S
C857 C863 1.390 . S
C858 H849 0.930 . S
C858 C856 1.384 . S
C858 C859 1.372 . S
C859 C858 1.372 . S
C859 C860 1.400 . S
C859 C864 1.490 . S
C860 H850 0.930 . S
C860 C859 1.400 . S
C860 C863 1.386 . S
H861 C877 0.930 . S
H862 C878 0.931 . S
C863 H851 0.929 . S
C863 C857 1.390 . S
C863 C860 1.386 . S
C864 C859 1.490 . S
C864 C866 1.395 . S
C864 C867 1.403 . S
H865 C871 0.930 . S
C866 H852 0.930 . S
C866 C864 1.395 . S
C866 C869 1.403 . S
C867 C864 1.403 . S
C867 C868 1.524 . S
C867 C871 1.400 . S
C868 H853 0.960 . S
C868 H854 0.960 . S
C868 H855 0.960 . S
C868 C867 1.524 . S
C869 C866 1.403 . S
C869 C870 1.392 . S
C869 C873 1.495 . S
C870 C869 1.392 . S
C870 C871 1.385 . S
C870 C872 1.478 . S
C871 H865 0.930 . S
C871 C867 1.400 . S
C871 C870 1.385 . S
C872 C870 1.478 . S
C872 C874 1.381 . S
C872 C878 1.383 . S
C873 C869 1.495 . S
C873 H879 0.959 . S
C873 H880 0.961 . S
C873 H881 0.960 . S
C874 C872 1.381 . S
C874 C875 1.394 . S
C874 H882 0.930 . S
C875 C874 1.394 . S
C875 C876 1.383 . S
C875 H883 0.929 . S
C876 C875 1.383 . S
C876 C877 1.377 . S
C877 H861 0.930 . S
C877 C876 1.377 . S
C877 C878 1.379 . S
C878 H862 0.931 . S
C878 C872 1.383 . S
C878 C877 1.379 . S
H879 C873 0.959 . S
H880 C873 0.961 . S
H881 C873 0.960 . S
H882 C874 0.930 . S
H883 C875 0.929 . S
H884 C892 0.929 . S
H885 C894 0.930 . S
H886 C896 0.930 . S
H887 C899 0.929 . S
H888 C902 0.930 . S
H889 C904 0.960 . S
H890 C904 0.960 . S
H891 C904 0.960 . S
C892 H884 0.929 . S
C892 C893 1.377 . S
C892 C894 1.384 . S
C893 C892 1.377 . S
C893 C899 1.390 . S
C894 H885 0.930 . S
C894 C892 1.384 . S
C894 C895 1.372 . S
C895 C894 1.372 . S
C895 C896 1.400 . S
C895 C900 1.490 . S
C896 H886 0.930 . S
C896 C895 1.400 . S
C896 C899 1.386 . S
H897 C913 0.930 . S
H898 C914 0.931 . S
C899 H887 0.929 . S
C899 C893 1.390 . S
C899 C896 1.386 . S
C900 C895 1.490 . S
C900 C902 1.395 . S
C900 C903 1.403 . S
H901 C907 0.930 . S
C902 H888 0.930 . S
C902 C900 1.395 . S
C902 C905 1.403 . S
C903 C900 1.403 . S
C903 C904 1.524 . S
C903 C907 1.400 . S
C904 H889 0.960 . S
C904 H890 0.960 . S
C904 H891 0.960 . S
C904 C903 1.524 . S
C905 C902 1.403 . S
C905 C906 1.392 . S
C905 C909 1.495 . S
C906 C905 1.392 . S
C906 C907 1.385 . S
C906 C908 1.478 . S
C907 H901 0.930 . S
C907 C903 1.400 . S
C907 C906 1.385 . S
C908 C906 1.478 . S
C908 C910 1.381 . S
C908 C914 1.383 . S
C909 C905 1.495 . S
C909 H915 0.959 . S
C909 H916 0.961 . S
C909 H917 0.960 . S
C910 C908 1.381 . S
C910 C911 1.394 . S
C910 H918 0.930 . S
C911 C910 1.394 . S
C911 C912 1.383 . S
C911 H919 0.929 . S
C912 C911 1.383 . S
C912 C913 1.377 . S
C913 H897 0.930 . S
C913 C912 1.377 . S
C913 C914 1.379 . S
C914 H898 0.931 . S
C914 C908 1.383 . S
C914 C913 1.379 . S
H915 C909 0.959 . S
H916 C909 0.961 . S
H917 C909 0.960 . S
H918 C910 0.930 . S
H919 C911 0.929 . S
H920 C928 0.929 . S
H921 C930 0.930 . S
H922 C932 0.930 . S
H923 C935 0.929 . S
H924 C938 0.930 . S
H925 C940 0.960 . S
H926 C940 0.960 . S
H927 C940 0.960 . S
C928 H920 0.929 . S
C928 C929 1.377 . S
C928 C930 1.384 . S
C929 C928 1.377 . S
C929 C935 1.390 . S
C930 H921 0.930 . S
C930 C928 1.384 . S
C930 C931 1.372 . S
C931 C930 1.372 . S
C931 C932 1.400 . S
C931 C936 1.490 . S
C932 H922 0.930 . S
C932 C931 1.400 . S
C932 C935 1.386 . S
H933 C949 0.930 . S
H934 C950 0.931 . S
C935 H923 0.929 . S
C935 C929 1.390 . S
C935 C932 1.386 . S
C936 C931 1.490 . S
C936 C938 1.395 . S
C936 C939 1.403 . S
H937 C943 0.930 . S
C938 H924 0.930 . S
C938 C936 1.395 . S
C938 C941 1.403 . S
C939 C936 1.403 . S
C939 C940 1.524 . S
C939 C943 1.400 . S
C940 H925 0.960 . S
C940 H926 0.960 . S
C940 H927 0.960 . S
C940 C939 1.524 . S
C941 C938 1.403 . S
C941 C942 1.392 . S
C941 C945 1.495 . S
C942 C941 1.392 . S
C942 C943 1.385 . S
C942 C944 1.478 . S
C943 H937 0.930 . S
C943 C939 1.400 . S
C943 C942 1.385 . S
C944 C942 1.478 . S
C944 C946 1.381 . S
C944 C950 1.383 . S
C945 C941 1.495 . S
C945 H951 0.959 . S
C945 H952 0.961 . S
C945 H953 0.960 . S
C946 C944 1.381 . S
C946 C947 1.394 . S
C946 H954 0.930 . S
C947 C946 1.394 . S
C947 C948 1.383 . S
C947 H955 0.929 . S
C948 C947 1.383 . S
C948 C949 1.377 . S
C949 H933 0.930 . S
C949 C948 1.377 . S
C949 C950 1.379 . S
C950 H934 0.931 . S
C950 C944 1.383 . S
C950 C949 1.379 . S
H951 C945 0.959 . S
H952 C945 0.961 . S
H953 C945 0.960 . S
H954 C946 0.930 . S
H955 C947 0.929 . S
H956 C964 0.929 . S
H957 C966 0.930 . S
H958 C968 0.930 . S
H959 C971 0.929 . S
H960 C974 0.930 . S
H961 C976 0.960 . S
H962 C976 0.960 . S
H963 C976 0.960 . S
C964 H956 0.929 . S
C964 C965 1.377 . S
C964 C966 1.384 . S
C965 C964 1.377 . S
C965 C971 1.390 . S
C966 H957 0.930 . S
C966 C964 1.384 . S
C966 C967 1.372 . S
C967 C966 1.372 . S
C967 C968 1.400 . S
C967 C972 1.490 . S
C968 H958 0.930 . S
C968 C967 1.400 . S
C968 C971 1.386 . S
H969 C985 0.930 . S
H970 C986 0.931 . S
C971 H959 0.929 . S
C971 C965 1.390 . S
C971 C968 1.386 . S
C972 C967 1.490 . S
C972 C974 1.395 . S
C972 C975 1.403 . S
H973 C979 0.930 . S
C974 H960 0.930 . S
C974 C972 1.395 . S
C974 C977 1.403 . S
C975 C972 1.403 . S
C975 C976 1.524 . S
C975 C979 1.400 . S
C976 H961 0.960 . S
C976 H962 0.960 . S
C976 H963 0.960 . S
C976 C975 1.524 . S
C977 C974 1.403 . S
C977 C978 1.392 . S
C977 C981 1.495 . S
C978 C977 1.392 . S
C978 C979 1.385 . S
C978 C980 1.478 . S
C979 H973 0.930 . S
C979 C975 1.400 . S
C979 C978 1.385 . S
C980 C978 1.478 . S
C980 C982 1.381 . S
C980 C986 1.383 . S
C981 C977 1.495 . S
C981 H987 0.959 . S
C981 H988 0.961 . S
C981 H989 0.960 . S
C982 C980 1.381 . S
C982 C983 1.394 . S
C982 H990 0.930 . S
C983 C982 1.394 . S
C983 C984 1.383 . S
C983 H991 0.929 . S
C984 C983 1.383 . S
C984 C985 1.377 . S
C985 H969 0.930 . S
C985 C984 1.377 . S
C985 C986 1.379 . S
C986 H970 0.931 . S
C986 C980 1.383 . S
C986 C985 1.379 . S
H987 C981 0.959 . S
H988 C981 0.961 . S
H989 C981 0.960 . S
H990 C982 0.930 . S
H991 C983 0.929 . S
H992 C1000 0.929 . S
H993 C1002 0.930 . S
H994 C1004 0.930 . S
H995 C1007 0.929 . S
H996 C1010 0.930 . S
H997 C1012 0.960 . S
H998 C1012 0.960 . S
H999 C1012 0.960 . S
C1000 H992 0.929 . S
C1000 C1001 1.377 . S
C1000 C1002 1.384 . S
C1001 C1000 1.377 . S
C1001 C1007 1.390 . S
C1002 H993 0.930 . S
C1002 C1000 1.384 . S
C1002 C1003 1.372 . S
C1003 C1002 1.372 . S
C1003 C1004 1.400 . S
C1003 C1008 1.490 . S
C1004 H994 0.930 . S
C1004 C1003 1.400 . S
C1004 C1007 1.386 . S
H1005 C1021 0.930 . S
H1006 C1022 0.931 . S
C1007 H995 0.929 . S
C1007 C1001 1.390 . S
C1007 C1004 1.386 . S
C1008 C1003 1.490 . S
C1008 C1010 1.395 . S
C1008 C1011 1.403 . S
H1009 C1015 0.930 . S
C1010 H996 0.930 . S
C1010 C1008 1.395 . S
C1010 C1013 1.403 . S
C1011 C1008 1.403 . S
C1011 C1012 1.524 . S
C1011 C1015 1.400 . S
C1012 H997 0.960 . S
C1012 H998 0.960 . S
C1012 H999 0.960 . S
C1012 C1011 1.524 . S
C1013 C1010 1.403 . S
C1013 C1014 1.392 . S
C1013 C1017 1.495 . S
C1014 C1013 1.392 . S
C1014 C1015 1.385 . S
C1014 C1016 1.478 . S
C1015 H1009 0.930 . S
C1015 C1011 1.400 . S
C1015 C1014 1.385 . S
C1016 C1014 1.478 . S
C1016 C1018 1.381 . S
C1016 C1022 1.383 . S
C1017 C1013 1.495 . S
C1017 H1023 0.959 . S
C1017 H1024 0.961 . S
C1017 H1025 0.960 . S
C1018 C1016 1.381 . S
C1018 C1019 1.394 . S
C1018 H1026 0.930 . S
C1019 C1018 1.394 . S
C1019 C1020 1.383 . S
C1019 H1027 0.929 . S
C1020 C1019 1.383 . S
C1020 C1021 1.377 . S
C1021 H1005 0.930 . S
C1021 C1020 1.377 . S
C1021 C1022 1.379 . S
C1022 H1006 0.931 . S
C1022 C1016 1.383 . S
C1022 C1021 1.379 . S
H1023 C1017 0.959 . S
H1024 C1017 0.961 . S
H1025 C1017 0.960 . S
H1026 C1018 0.930 . S
H1027 C1019 0.929 . S
H1028 C1036 0.929 . S
H1029 C1038 0.930 . S
H1030 C1040 0.930 . S
H1031 C1043 0.929 . S
H1032 C1046 0.930 . S
H1033 C1048 0.960 . S
H1034 C1048 0.960 . S
H1035 C1048 0.960 . S
C1036 H1028 0.929 . S
C1036 C1037 1.377 . S
C1036 C1038 1.384 . S
C1037 C1036 1.377 . S
C1037 C1043 1.390 . S
C1038 H1029 0.930 . S
C1038 C1036 1.384 . S
C1038 C1039 1.372 . S
C1039 C1038 1.372 . S
C1039 C1040 1.400 . S
C1039 C1044 1.490 . S
C1040 H1030 0.930 . S
C1040 C1039 1.400 . S
C1040 C1043 1.386 . S
H1041 C1057 0.930 . S
H1042 C1058 0.931 . S
C1043 H1031 0.929 . S
C1043 C1037 1.390 . S
C1043 C1040 1.386 . S
C1044 C1039 1.490 . S
C1044 C1046 1.395 . S
C1044 C1047 1.403 . S
H1045 C1051 0.930 . S
C1046 H1032 0.930 . S
C1046 C1044 1.395 . S
C1046 C1049 1.403 . S
C1047 C1044 1.403 . S
C1047 C1048 1.524 . S
C1047 C1051 1.400 . S
C1048 H1033 0.960 . S
C1048 H1034 0.960 . S
C1048 H1035 0.960 . S
C1048 C1047 1.524 . S
C1049 C1046 1.403 . S
C1049 C1050 1.392 . S
C1049 C1053 1.495 . S
C1050 C1049 1.392 . S
C1050 C1051 1.385 . S
C1050 C1052 1.478 . S
C1051 H1045 0.930 . S
C1051 C1047 1.400 . S
C1051 C1050 1.385 . S
C1052 C1050 1.478 . S
C1052 C1054 1.381 . S
C1052 C1058 1.383 . S
C1053 C1049 1.495 . S
C1053 H1059 0.959 . S
C1053 H1060 0.961 . S
C1053 H1061 0.960 . S
C1054 C1052 1.381 . S
C1054 C1055 1.394 . S
C1054 H1062 0.930 . S
C1055 C1054 1.394 . S
C1055 C1056 1.383 . S
C1055 H1063 0.929 . S
C1056 C1055 1.383 . S
C1056 C1057 1.377 . S
C1057 H1041 0.930 . S
C1057 C1056 1.377 . S
C1057 C1058 1.379 . S
C1058 H1042 0.931 . S
C1058 C1052 1.383 . S
C1058 C1057 1.379 . S
H1059 C1053 0.959 . S
H1060 C1053 0.961 . S
H1061 C1053 0.960 . S
H1062 C1054 0.930 . S
H1063 C1055 0.929 . S
H1064 C1072 0.929 . S
H1065 C1074 0.930 . S
H1066 C1076 0.930 . S
H1067 C1079 0.929 . S
H1068 C1082 0.930 . S
H1069 C1084 0.960 . S
H1070 C1084 0.960 . S
H1071 C1084 0.960 . S
C1072 H1064 0.929 . S
C1072 C1073 1.377 . S
C1072 C1074 1.384 . S
C1073 C1072 1.377 . S
C1073 C1079 1.390 . S
C1074 H1065 0.930 . S
C1074 C1072 1.384 . S
C1074 C1075 1.372 . S
C1075 C1074 1.372 . S
C1075 C1076 1.400 . S
C1075 C1080 1.490 . S
C1076 H1066 0.930 . S
C1076 C1075 1.400 . S
C1076 C1079 1.386 . S
H1077 C1093 0.930 . S
H1078 C1094 0.931 . S
C1079 H1067 0.929 . S
C1079 C1073 1.390 . S
C1079 C1076 1.386 . S
C1080 C1075 1.490 . S
C1080 C1082 1.395 . S
C1080 C1083 1.403 . S
H1081 C1087 0.930 . S
C1082 H1068 0.930 . S
C1082 C1080 1.395 . S
C1082 C1085 1.403 . S
C1083 C1080 1.403 . S
C1083 C1084 1.524 . S
C1083 C1087 1.400 . S
C1084 H1069 0.960 . S
C1084 H1070 0.960 . S
C1084 H1071 0.960 . S
C1084 C1083 1.524 . S
C1085 C1082 1.403 . S
C1085 C1086 1.392 . S
C1085 C1089 1.495 . S
C1086 C1085 1.392 . S
C1086 C1087 1.385 . S
C1086 C1088 1.478 . S
C1087 H1081 0.930 . S
C1087 C1083 1.400 . S
C1087 C1086 1.385 . S
C1088 C1086 1.478 . S
C1088 C1090 1.381 . S
C1088 C1094 1.383 . S
C1089 C1085 1.495 . S
C1089 H1095 0.959 . S
C1089 H1096 0.961 . S
C1089 H1097 0.960 . S
C1090 C1088 1.381 . S
C1090 C1091 1.394 . S
C1090 H1098 0.930 . S
C1091 C1090 1.394 . S
C1091 C1092 1.383 . S
C1091 H1099 0.929 . S
C1092 C1091 1.383 . S
C1092 C1093 1.377 . S
C1093 H1077 0.930 . S
C1093 C1092 1.377 . S
C1093 C1094 1.379 . S
C1094 H1078 0.931 . S
C1094 C1088 1.383 . S
C1094 C1093 1.379 . S
H1095 C1089 0.959 . S
H1096 C1089 0.961 . S
H1097 C1089 0.960 . S
H1098 C1090 0.930 . S
H1099 C1091 0.929 . S
H1100 C1108 0.929 . S
H1101 C1110 0.930 . S
H1102 C1112 0.930 . S
H1103 C1115 0.929 . S
H1104 C1118 0.930 . S
H1105 C1120 0.960 . S
H1106 C1120 0.960 . S
H1107 C1120 0.960 . S
C1108 H1100 0.929 . S
C1108 C1109 1.377 . S
C1108 C1110 1.384 . S
C1109 C1108 1.377 . S
C1109 C1115 1.390 . S
C1110 H1101 0.930 . S
C1110 C1108 1.384 . S
C1110 C1111 1.372 . S
C1111 C1110 1.372 . S
C1111 C1112 1.400 . S
C1111 C1116 1.490 . S
C1112 H1102 0.930 . S
C1112 C1111 1.400 . S
C1112 C1115 1.386 . S
H1113 C1129 0.930 . S
H1114 C1130 0.931 . S
C1115 H1103 0.929 . S
C1115 C1109 1.390 . S
C1115 C1112 1.386 . S
C1116 C1111 1.490 . S
C1116 C1118 1.395 . S
C1116 C1119 1.403 . S
H1117 C1123 0.930 . S
C1118 H1104 0.930 . S
C1118 C1116 1.395 . S
C1118 C1121 1.403 . S
C1119 C1116 1.403 . S
C1119 C1120 1.524 . S
C1119 C1123 1.400 . S
C1120 H1105 0.960 . S
C1120 H1106 0.960 . S
C1120 H1107 0.960 . S
C1120 C1119 1.524 . S
C1121 C1118 1.403 . S
C1121 C1122 1.392 . S
C1121 C1125 1.495 . S
C1122 C1121 1.392 . S
C1122 C1123 1.385 . S
C1122 C1124 1.478 . S
C1123 H1117 0.930 . S
C1123 C1119 1.400 . S
C1123 C1122 1.385 . S
C1124 C1122 1.478 . S
C1124 C1126 1.381 . S
C1124 C1130 1.383 . S
C1125 C1121 1.495 . S
C1125 H1131 0.959 . S
C1125 H1132 0.961 . S
C1125 H1133 0.960 . S
C1126 C1124 1.381 . S
C1126 C1127 1.394 . S
C1126 H1134 0.930 . S
C1127 C1126 1.394 . S
C1127 C1128 1.383 . S
C1127 H1135 0.929 . S
C1128 C1127 1.383 . S
C1128 C1129 1.377 . S
C1129 H1113 0.930 . S
C1129 C1128 1.377 . S
C1129 C1130 1.379 . S
C1130 H1114 0.931 . S
C1130 C1124 1.383 . S
C1130 C1129 1.379 . S
H1131 C1125 0.959 . S
H1132 C1125 0.961 . S
H1133 C1125 0.960 . S
H1134 C1126 0.930 . S
H1135 C1127 0.929 . S
H1136 C1144 0.929 . S
H1137 C1146 0.930 . S
H1138 C1148 0.930 . S
H1139 C1151 0.929 . S
H1140 C1154 0.930 . S
H1141 C1156 0.960 . S
H1142 C1156 0.960 . S
H1143 C1156 0.960 . S
C1144 H1136 0.929 . S
C1144 C1145 1.377 . S
C1144 C1146 1.384 . S
C1145 C1144 1.377 . S
C1145 C1151 1.390 . S
C1146 H1137 0.930 . S
C1146 C1144 1.384 . S
C1146 C1147 1.372 . S
C1147 C1146 1.372 . S
C1147 C1148 1.400 . S
C1147 C1152 1.490 . S
C1148 H1138 0.930 . S
C1148 C1147 1.400 . S
C1148 C1151 1.386 . S
H1149 C1165 0.930 . S
H1150 C1166 0.931 . S
C1151 H1139 0.929 . S
C1151 C1145 1.390 . S
C1151 C1148 1.386 . S
C1152 C1147 1.490 . S
C1152 C1154 1.395 . S
C1152 C1155 1.403 . S
H1153 C1159 0.930 . S
C1154 H1140 0.930 . S
C1154 C1152 1.395 . S
C1154 C1157 1.403 . S
C1155 C1152 1.403 . S
C1155 C1156 1.524 . S
C1155 C1159 1.400 . S
C1156 H1141 0.960 . S
C1156 H1142 0.960 . S
C1156 H1143 0.960 . S
C1156 C1155 1.524 . S
C1157 C1154 1.403 . S
C1157 C1158 1.392 . S
C1157 C1161 1.495 . S
C1158 C1157 1.392 . S
C1158 C1159 1.385 . S
C1158 C1160 1.478 . S
C1159 H1153 0.930 . S
C1159 C1155 1.400 . S
C1159 C1158 1.385 . S
C1160 C1158 1.478 . S
C1160 C1162 1.381 . S
C1160 C1166 1.383 . S
C1161 C1157 1.495 . S
C1161 H1167 0.959 . S
C1161 H1168 0.961 . S
C1161 H1169 0.960 . S
C1162 C1160 1.381 . S
C1162 C1163 1.394 . S
C1162 H1170 0.930 . S
C1163 C1162 1.394 . S
C1163 C1164 1.383 . S
C1163 H1171 0.929 . S
C1164 C1163 1.383 . S
C1164 C1165 1.377 . S
C1165 H1149 0.930 . S
C1165 C1164 1.377 . S
C1165 C1166 1.379 . S
C1166 H1150 0.931 . S
C1166 C1160 1.383 . S
C1166 C1165 1.379 . S
H1167 C1161 0.959 . S
H1168 C1161 0.961 . S
H1169 C1161 0.960 . S
H1170 C1162 0.930 . S
H1171 C1163 0.929 . S
H1172 C1180 0.929 . S
H1173 C1182 0.930 . S
H1174 C1184 0.930 . S
H1175 C1187 0.929 . S
H1176 C1190 0.930 . S
H1177 C1192 0.960 . S
H1178 C1192 0.960 . S
H1179 C1192 0.960 . S
C1180 H1172 0.929 . S
C1180 C1181 1.377 . S
C1180 C1182 1.384 . S
C1181 C1180 1.377 . S
C1181 C1187 1.390 . S
C1182 H1173 0.930 . S
C1182 C1180 1.384 . S
C1182 C1183 1.372 . S
C1183 C1182 1.372 . S
C1183 C1184 1.400 . S
C1183 C1188 1.490 . S
C1184 H1174 0.930 . S
C1184 C1183 1.400 . S
C1184 C1187 1.386 . S
H1185 C1201 0.930 . S
H1186 C1202 0.931 . S
C1187 H1175 0.929 . S
C1187 C1181 1.390 . S
C1187 C1184 1.386 . S
C1188 C1183 1.490 . S
C1188 C1190 1.395 . S
C1188 C1191 1.403 . S
H1189 C1195 0.930 . S
C1190 H1176 0.930 . S
C1190 C1188 1.395 . S
C1190 C1193 1.403 . S
C1191 C1188 1.403 . S
C1191 C1192 1.524 . S
C1191 C1195 1.400 . S
C1192 H1177 0.960 . S
C1192 H1178 0.960 . S
C1192 H1179 0.960 . S
C1192 C1191 1.524 . S
C1193 C1190 1.403 . S
C1193 C1194 1.392 . S
C1193 C1197 1.495 . S
C1194 C1193 1.392 . S
C1194 C1195 1.385 . S
C1194 C1196 1.478 . S
C1195 H1189 0.930 . S
C1195 C1191 1.400 . S
C1195 C1194 1.385 . S
C1196 C1194 1.478 . S
C1196 C1198 1.381 . S
C1196 C1202 1.383 . S
C1197 C1193 1.495 . S
C1197 H1203 0.959 . S
C1197 H1204 0.961 . S
C1197 H1205 0.960 . S
C1198 C1196 1.381 . S
C1198 C1199 1.394 . S
C1198 H1206 0.930 . S
C1199 C1198 1.394 . S
C1199 C1200 1.383 . S
C1199 H1207 0.929 . S
C1200 C1199 1.383 . S
C1200 C1201 1.377 . S
C1201 H1185 0.930 . S
C1201 C1200 1.377 . S
C1201 C1202 1.379 . S
C1202 H1186 0.931 . S
C1202 C1196 1.383 . S
C1202 C1201 1.379 . S
H1203 C1197 0.959 . S
H1204 C1197 0.961 . S
H1205 C1197 0.960 . S
H1206 C1198 0.930 . S
H1207 C1199 0.929 . S
H1208 C1216 0.929 . S
H1209 C1218 0.930 . S
H1210 C1220 0.930 . S
H1211 C1223 0.929 . S
H1212 C1226 0.930 . S
H1213 C1228 0.960 . S
H1214 C1228 0.960 . S
H1215 C1228 0.960 . S
C1216 H1208 0.929 . S
C1216 C1217 1.377 . S
C1216 C1218 1.384 . S
C1217 C1216 1.377 . S
C1217 C1223 1.390 . S
C1218 H1209 0.930 . S
C1218 C1216 1.384 . S
C1218 C1219 1.372 . S
C1219 C1218 1.372 . S
C1219 C1220 1.400 . S
C1219 C1224 1.490 . S
C1220 H1210 0.930 . S
C1220 C1219 1.400 . S
C1220 C1223 1.386 . S
H1221 C1237 0.930 . S
H1222 C1238 0.931 . S
C1223 H1211 0.929 . S
C1223 C1217 1.390 . S
C1223 C1220 1.386 . S
C1224 C1219 1.490 . S
C1224 C1226 1.395 . S
C1224 C1227 1.403 . S
H1225 C1231 0.930 . S
C1226 H1212 0.930 . S
C1226 C1224 1.395 . S
C1226 C1229 1.403 . S
C1227 C1224 1.403 . S
C1227 C1228 1.524 . S
C1227 C1231 1.400 . S
C1228 H1213 0.960 . S
C1228 H1214 0.960 . S
C1228 H1215 0.960 . S
C1228 C1227 1.524 . S
C1229 C1226 1.403 . S
C1229 C1230 1.392 . S
C1229 C1233 1.495 . S
C1230 C1229 1.392 . S
C1230 C1231 1.385 . S
C1230 C1232 1.478 . S
C1231 H1225 0.930 . S
C1231 C1227 1.400 . S
C1231 C1230 1.385 . S
C1232 C1230 1.478 . S
C1232 C1234 1.381 . S
C1232 C1238 1.383 . S
C1233 C1229 1.495 . S
C1233 H1239 0.959 . S
C1233 H1240 0.961 . S
C1233 H1241 0.960 . S
C1234 C1232 1.381 . S
C1234 C1235 1.394 . S
C1234 H1242 0.930 . S
C1235 C1234 1.394 . S
C1235 C1236 1.383 . S
C1235 H1243 0.929 . S
C1236 C1235 1.383 . S
C1236 C1237 1.377 . S
C1237 H1221 0.930 . S
C1237 C1236 1.377 . S
C1237 C1238 1.379 . S
C1238 H1222 0.931 . S
C1238 C1232 1.383 . S
C1238 C1237 1.379 . S
H1239 C1233 0.959 . S
H1240 C1233 0.961 . S
H1241 C1233 0.960 . S
H1242 C1234 0.930 . S
H1243 C1235 0.929 . S
H1244 C1252 0.929 . S
H1245 C1254 0.930 . S
H1246 C1256 0.930 . S
H1247 C1259 0.929 . S
H1248 C1262 0.930 . S
H1249 C1264 0.960 . S
H1250 C1264 0.960 . S
H1251 C1264 0.960 . S
C1252 H1244 0.929 . S
C1252 C1253 1.377 . S
C1252 C1254 1.384 . S
C1253 C1252 1.377 . S
C1253 C1259 1.390 . S
C1254 H1245 0.930 . S
C1254 C1252 1.384 . S
C1254 C1255 1.372 . S
C1255 C1254 1.372 . S
C1255 C1256 1.400 . S
C1255 C1260 1.490 . S
C1256 H1246 0.930 . S
C1256 C1255 1.400 . S
C1256 C1259 1.386 . S
H1257 C1273 0.930 . S
H1258 C1274 0.931 . S
C1259 H1247 0.929 . S
C1259 C1253 1.390 . S
C1259 C1256 1.386 . S
C1260 C1255 1.490 . S
C1260 C1262 1.395 . S
C1260 C1263 1.403 . S
H1261 C1267 0.930 . S
C1262 H1248 0.930 . S
C1262 C1260 1.395 . S
C1262 C1265 1.403 . S
C1263 C1260 1.403 . S
C1263 C1264 1.524 . S
C1263 C1267 1.400 . S
C1264 H1249 0.960 . S
C1264 H1250 0.960 . S
C1264 H1251 0.960 . S
C1264 C1263 1.524 . S
C1265 C1262 1.403 . S
C1265 C1266 1.392 . S
C1265 C1269 1.495 . S
C1266 C1265 1.392 . S
C1266 C1267 1.385 . S
C1266 C1268 1.478 . S
C1267 H1261 0.930 . S
C1267 C1263 1.400 . S
C1267 C1266 1.385 . S
C1268 C1266 1.478 . S
C1268 C1270 1.381 . S
C1268 C1274 1.383 . S
C1269 C1265 1.495 . S
C1269 H1275 0.959 . S
C1269 H1276 0.961 . S
C1269 H1277 0.960 . S
C1270 C1268 1.381 . S
C1270 C1271 1.394 . S
C1270 H1278 0.930 . S
C1271 C1270 1.394 . S
C1271 C1272 1.383 . S
C1271 H1279 0.929 . S
C1272 C1271 1.383 . S
C1272 C1273 1.377 . S
C1273 H1257 0.930 . S
C1273 C1272 1.377 . S
C1273 C1274 1.379 . S
C1274 H1258 0.931 . S
C1274 C1268 1.383 . S
C1274 C1273 1.379 . S
H1275 C1269 0.959 . S
H1276 C1269 0.961 . S
H1277 C1269 0.960 . S
H1278 C1270 0.930 . S
H1279 C1271 0.929 . S
C425 C29 1.179 . S
C444 C262 1.165 . S
C461 C49 0.845 . S
C480 C311 0.836 . S
C516 C346 2.501 . S
C497 C93 2.510 . S
C533 C119 2.254 . S
C552 C385 2.253 . S
C588 C306 2.289 . S
C569 C17 2.296 . S
C624 C265 0.921 . S
C605 C61 0.907 . S
C660 C395 1.862 . S
C641 C81 1.878 . S
C696 C354 1.606 . S
C677 C125 1.583 . S
C713 C23 1.607 . S
C732 C382 1.606 . S
C768 C314 2.293 . S
C749 C87 2.335 . S
C785 C113 2.336 . S
C804 C275 2.359 . S
C821 C55 0.726 . S
C840 C351 0.729 . S
C876 C271 1.146 . S
C857 C157 1.054 . S
C893 C189 0.915 . S
C912 C302 0.935 . S
C929 C221 2.457 . S
C948 C355 2.445 . S
C965 C253 2.333 . S
C984 C394 2.326 . S
C1001 C145 2.208 . S
C1020 C315 2.382 . S
C1056 C274 0.775 . S
C1037 C183 0.831 . S
C1092 C386 1.874 . S
C1073 C209 1.907 . S
C1128 C345 1.547 . S
C1109 C247 1.532 . S
C1145 C151 1.494 . S
C1164 C391 1.617 . S
C1200 C305 2.274 . S
C1181 C215 2.330 . S
C1236 C266 2.303 . S
C1217 C241 2.280 . S
C1253 C177 0.722 . S
C1272 C342 0.699 . S
