# Generated by pormake.
# Topology anh, (6,3)-cn, num edge types: 1
# Building blocks:
#     Node 0, Type 0, BuildingBlock: NUHQIS_clean_sbu_0, # of connection points: 6
#     Node 1, Type 0, BuildingBlock: NUHQIS_clean_sbu_0, # of connection points: 6
#     Node 2, Type 0, BuildingBlock: NUHQIS_clean_sbu_0, # of connection points: 6
#     Node 3, Type 1, BuildingBlock: BETDIP_clean_linker_0, # of connection points: 3
#     Node 4, Type 1, BuildingBlock: BETDIP_clean_linker_0, # of connection points: 3
#     Node 5, Type 1, BuildingBlock: BETDIP_clean_linker_0, # of connection points: 3
#     Node 6, Type 1, BuildingBlock: BETDIP_clean_linker_0, # of connection points: 3
#     Node 7, Type 1, BuildingBlock: BETDIP_clean_linker_0, # of connection points: 3
#     Node 8, Type 1, BuildingBlock: BETDIP_clean_linker_0, # of connection points: 3
#     Edge 9, Type (0, 1), BuildingBlock: MIFKUJ_clean_linker_0, # of connection points: 2
#     Edge 10, Type (0, 1), BuildingBlock: MIFKUJ_clean_linker_0, # of connection points: 2
#     Edge 11, Type (0, 1), BuildingBlock: MIFKUJ_clean_linker_0, # of connection points: 2
#     Edge 12, Type (0, 1), BuildingBlock: MIFKUJ_clean_linker_0, # of connection points: 2
#     Edge 13, Type (0, 1), BuildingBlock: MIFKUJ_clean_linker_0, # of connection points: 2
#     Edge 14, Type (0, 1), BuildingBlock: MIFKUJ_clean_linker_0, # of connection points: 2
#     Edge 15, Type (0, 1), BuildingBlock: MIFKUJ_clean_linker_0, # of connection points: 2
#     Edge 16, Type (0, 1), BuildingBlock: MIFKUJ_clean_linker_0, # of connection points: 2
#     Edge 17, Type (0, 1), BuildingBlock: MIFKUJ_clean_linker_0, # of connection points: 2
#     Edge 18, Type (0, 1), BuildingBlock: MIFKUJ_clean_linker_0, # of connection points: 2
#     Edge 19, Type (0, 1), BuildingBlock: MIFKUJ_clean_linker_0, # of connection points: 2
#     Edge 20, Type (0, 1), BuildingBlock: MIFKUJ_clean_linker_0, # of connection points: 2
#     Edge 21, Type (0, 1), BuildingBlock: MIFKUJ_clean_linker_0, # of connection points: 2
#     Edge 22, Type (0, 1), BuildingBlock: MIFKUJ_clean_linker_0, # of connection points: 2
#     Edge 23, Type (0, 1), BuildingBlock: MIFKUJ_clean_linker_0, # of connection points: 2
#     Edge 24, Type (0, 1), BuildingBlock: MIFKUJ_clean_linker_0, # of connection points: 2
#     Edge 25, Type (0, 1), BuildingBlock: MIFKUJ_clean_linker_0, # of connection points: 2
#     Edge 26, Type (0, 1), BuildingBlock: MIFKUJ_clean_linker_0, # of connection points: 2
# Relax obj value: 0.185
# Max RMSD: 0.169
# Mean RMSD: 0.120
data_MOF--net-anh--node1-NUHQIS_clean_sbu_0--node2-BETDIP_clean_linker_0--edge1-MIFKUJ_clean_linker_0
_symmetry_space_group_name_H-M    P1
_symmetry_Int_Tables_number       1
_symmetry_cell_setting            triclinic
loop_
_symmetry_equiv_pos_as_xyz
'x, y, z'
_cell_length_a     42.203746
_cell_length_b     42.225158
_cell_length_c     64.918695
_cell_angle_alpha  93.241481
_cell_angle_beta   93.552544
_cell_angle_gamma 119.89476
loop_
_atom_site_label
_atom_site_type_symbol
_atom_site_fract_x
_atom_site_fract_y
_atom_site_fract_z
_atom_type_partial_charge
Tb0 Tb 0.09358 0.55846 0.15126 0.0
Eu1 Eu 0.05147 0.60214 0.15146 0.0
C2 C 0.0779 0.5837 0.19325 0.0
C3 C 1.00307 0.50974 0.15357 0.0
C4 C 0.1672 0.53468 0.15683 0.0
C5 C 0.21394 0.51737 0.158 0.0
C6 C 0.17765 0.50847 0.15295 0.0
C7 C 0.19322 0.56981 0.16626 0.0
C8 C 0.22967 0.57881 0.17133 0.0
C9 C 0.24049 0.55272 0.16709 0.0
C10 C 0.12958 0.52546 0.14999 0.0
O11 O 0.06636 0.54874 0.11973 0.0
O12 O 0.07062 0.60405 0.11963 0.0
O13 O 0.1131 0.65034 0.15801 0.0
O14 O 0.1413 0.61748 0.15055 0.0
C15 C 0.06787 0.57513 0.10939 0.0
O16 O 1.01052 0.61266 0.13629 0.0
O17 O 0.04148 0.64409 0.1654 0.0
O18 O 0.05043 0.58424 0.18325 0.0
O19 O 0.10314 0.58227 0.18318 0.0
O20 O 1.03608 0.51234 0.15645 0.0
O21 O 1.00271 0.54021 0.14925 0.0
C22 C 0.14413 0.65028 0.15517 0.0
O23 O 0.10888 0.5232 0.16457 0.0
O24 O 0.12643 0.54354 0.13514 0.0
C25 C 0.97913 0.62877 0.15969 0.0
C26 C 0.91005 0.60954 0.17326 0.0
C27 C 0.91697 0.61734 0.15266 0.0
C28 C 0.95118 0.62704 0.14601 0.0
C29 C 0.97273 0.62183 0.1804 0.0
C30 C 0.93858 0.6125 0.18714 0.0
C31 C 1.01375 0.6357 0.15171 0.0
H32 H 0.22143 0.49685 0.15408 0.0
H33 H 0.15792 0.48132 0.14555 0.0
H34 H 0.18548 0.5904 0.16935 0.0
H35 H 0.2494 0.6062 0.17838 0.0
H36 H 0.89555 0.61462 0.14138 0.0
H37 H 0.95547 0.63211 0.12996 0.0
H38 H 0.99379 0.62288 0.19132 0.0
H39 H 0.9344 0.60712 0.20315 0.0
Tb40 Tb 0.60501 0.09697 0.48895 0.0
Eu41 Eu 0.51852 0.0543 0.48169 0.0
C42 C 0.55873 0.07455 0.52628 0.0
C43 C 0.56124 1.00485 0.48712 0.0
C44 C 0.69641 0.16801 0.51105 0.0
C45 C 0.74909 0.20852 0.53573 0.0
C46 C 0.72726 0.17448 0.52403 0.0
C47 C 0.68674 0.19529 0.51057 0.0
C48 C 0.70837 0.2291 0.52214 0.0
C49 C 0.74023 0.23647 0.53458 0.0
C50 C 0.67341 0.13252 0.49862 0.0
O51 O 0.59526 0.08329 0.45506 0.0
O52 O 0.53464 0.06672 0.44949 0.0
O53 O 0.5332 0.11626 0.48732 0.0
O54 O 0.5956 0.14585 0.48797 0.0
C55 C 0.56595 0.07491 0.44239 0.0
O56 O 0.46497 1.01296 0.46621 0.0
O57 O 0.46874 0.05085 0.49165 0.0
O58 O 0.5331 0.04721 0.51395 0.0
O59 O 0.58513 0.10226 0.51845 0.0
O60 O 0.59244 0.03755 0.48987 0.0
O61 O 0.52977 1.00484 0.48304 0.0
C62 C 0.56501 0.14792 0.48854 0.0
O63 O 0.65069 0.1061 0.50879 0.0
O64 O 0.65759 0.13352 0.48094 0.0
C65 C 0.41811 0.99141 0.48881 0.0
C66 C 0.36177 0.93463 0.50764 0.0
C67 C 0.35987 0.96598 0.50341 0.0
C68 C 0.38776 0.99405 0.49401 0.0
C69 C 0.42099 0.96096 0.49376 0.0
C70 C 0.39292 0.93268 0.50301 0.0
C71 C 0.44714 1.02147 0.47911 0.0
H72 H 0.77333 0.21326 0.54525 0.0
H73 H 0.73474 0.15346 0.52489 0.0
H74 H 0.66293 0.19092 0.50082 0.0
H75 H 0.70098 0.25004 0.52043 0.0
H76 H 0.33651 0.96855 0.50709 0.0
H77 H 0.38553 1.01777 0.49067 0.0
H78 H 0.44464 0.9588 0.49022 0.0
H79 H 0.39505 0.90874 0.50583 0.0
Tb80 Tb 0.5954 0.6003 0.82224 0.0
Eu81 Eu 0.55097 0.51401 0.81444 0.0
C82 C 0.57538 0.55282 0.85952 0.0
C83 C 0.64419 0.55785 0.82095 0.0
C84 C 0.61477 0.69054 0.84211 0.0
C85 C 0.6109 0.74578 0.8464 0.0
C86 C 0.62795 0.72721 0.83861 0.0
C87 C 0.58574 0.67322 0.85446 0.0
C88 C 0.56866 0.6917 0.86221 0.0
C89 C 0.58028 0.72776 0.85768 0.0
C90 C 0.62743 0.66876 0.83064 0.0
O91 O 0.59785 0.58915 0.78899 0.0
O92 O 0.54634 0.53286 0.78324 0.0
O93 O 0.50388 0.52745 0.82006 0.0
O94 O 0.53653 0.5899 0.82036 0.0
C95 C 0.57195 0.56219 0.7761 0.0
O96 O 0.53751 0.46304 0.79636 0.0
O97 O 0.50987 0.46147 0.82372 0.0
O98 O 0.57523 0.52713 0.84741 0.0
O99 O 0.57478 0.5803 0.8516 0.0
O100 O 0.64281 0.5886 0.82499 0.0
O101 O 0.61238 0.52672 0.81538 0.0
C102 C 0.50409 0.55925 0.82098 0.0
O103 O 0.63428 0.64732 0.84144 0.0
O104 O 0.60773 0.65174 0.81308 0.0
C105 C 0.5247 0.41556 0.81732 0.0
C106 C 0.54247 0.36382 0.83105 0.0
C107 C 0.50921 0.35236 0.81874 0.0
C108 C 0.50041 0.37809 0.81193 0.0
C109 C 0.55758 0.42721 0.82991 0.0
C110 C 0.56646 0.40152 0.8367 0.0
C111 C 0.51607 0.44255 0.80959 0.0
H112 H 0.62007 0.77336 0.84234 0.0
H113 H 0.65004 0.7408 0.82893 0.0
H114 H 0.57499 0.64476 0.8572 0.0
H115 H 0.54523 0.6772 0.87089 0.0
H116 H 0.49047 0.32356 0.81381 0.0
H117 H 0.47496 0.36876 0.8022 0.0
H118 H 0.57655 0.45619 0.83427 0.0
H119 H 0.59213 0.41114 0.84626 0.0
H120 H 0.54083 0.04776 0.15627 0.0
H121 H 0.60589 0.10812 0.21428 0.0
H122 H 0.50385 1.0074 0.21509 0.0
H123 H 0.65541 0.13449 0.19649 0.0
C124 C 0.64652 0.14202 0.1825 0.0
C125 C 0.54513 0.05039 0.17302 0.0
C126 C 0.51667 1.02138 0.18428 0.0
C127 C 0.57901 0.08311 0.18367 0.0
C128 C 0.58229 0.08491 0.20557 0.0
C129 C 0.55572 0.05783 0.21678 0.0
C130 C 0.52399 0.02724 0.20606 0.0
N131 N 0.60818 0.11423 0.17325 0.0
H132 H 0.56681 0.54575 0.4904 0.0
H133 H 0.56839 0.60412 0.548 0.0
H134 H 0.56671 0.5015 0.54893 0.0
H135 H 0.54027 0.62921 0.52881 0.0
C136 C 0.55653 0.63797 0.51578 0.0
C137 C 0.56669 0.54763 0.50708 0.0
C138 C 0.56695 0.51803 0.51835 0.0
C139 C 0.56624 0.5797 0.51759 0.0
C140 C 0.56687 0.58064 0.5394 0.0
C141 C 0.56743 0.55306 0.55067 0.0
C142 C 0.56713 0.52264 0.54003 0.0
N143 N 0.56707 0.61114 0.50716 0.0
H144 H 0.04319 0.5625 0.82428 0.0
H145 H 0.10246 0.56283 0.88168 0.0
H146 H 0.99812 0.55507 0.88336 0.0
H147 H 0.12907 0.53888 0.86368 0.0
C148 C 0.13665 0.55278 0.84975 0.0
C149 C 0.04494 0.56106 0.84086 0.0
C150 C 1.01506 0.56013 0.85242 0.0
C151 C 0.07751 0.56074 0.85112 0.0
C152 C 0.0788 0.56083 0.87292 0.0
C153 C 0.05039 0.55869 0.88414 0.0
C154 C 1.01933 0.55744 0.87391 0.0
N155 N 0.10902 0.562 0.84059 0.0
H156 H 1.03126 0.58837 0.46872 0.0
H157 H 0.99902 0.53465 0.40665 0.0
H158 H 0.10743 0.62857 0.4228 0.0
H159 H 0.96287 0.57355 0.45827 0.0
C160 C 0.95801 0.54568 0.4577 0.0
C161 C 1.0377 0.58626 0.45297 0.0
C162 C 0.07241 0.61123 0.44749 0.0
C163 C 1.01112 0.55893 0.43817 0.0
C164 C 1.01983 0.55579 0.41799 0.0
C165 C 0.05442 0.5812 0.41216 0.0
C166 C 0.08058 0.60892 0.42705 0.0
N167 N 0.97561 0.53432 0.44356 0.0
H168 H 0.48058 1.00247 0.79674 0.0
H169 H 0.46716 0.96219 0.73261 0.0
H170 H 0.53982 0.07696 0.7528 0.0
H171 H 0.4247 0.95023 0.79735 0.0
C172 C 0.43022 0.93159 0.78811 0.0
C173 C 0.48679 1.00722 0.7809 0.0
C174 C 0.51246 0.04267 0.77659 0.0
C175 C 0.46998 0.97819 0.76493 0.0
C176 C 0.47951 0.98493 0.74469 0.0
C177 C 0.50501 1.02047 0.74007 0.0
C178 C 0.52128 0.04914 0.7562 0.0
N179 N 0.44522 0.94157 0.76893 0.0
H180 H 0.51324 0.46289 0.13058 0.0
H181 H 0.54426 0.44338 0.07169 0.0
H182 H 0.51346 0.52586 0.08073 0.0
H183 H 0.51857 0.38721 0.13404 0.0
C184 C 0.53676 0.4144 0.12955 0.0
C185 C 0.51803 0.46954 0.11479 0.0
C186 C 0.51273 0.4974 0.1074 0.0
C187 C 0.52881 0.44973 0.10174 0.0
C188 C 0.53524 0.45846 0.08139 0.0
C189 C 0.53072 0.4866 0.07371 0.0
C190 C 0.5191 0.50562 0.08683 0.0
N191 N 0.53233 0.42009 0.10846 0.0
H192 H 0.30175 0.61669 0.15982 0.0
H193 H 0.36401 0.62713 0.15872 0.0
H194 H 0.32945 0.52079 0.17999 0.0
H195 H 0.26782 0.511 0.18215 0.0
H196 H 0.40037 0.56716 0.19327 0.0
H197 H 0.32145 0.53138 0.12772 0.0
H198 H 0.28382 0.54045 0.10067 0.0
H199 H 0.3767 0.64454 0.09152 0.0
H200 H 0.41474 0.63621 0.11872 0.0
H201 H 0.46041 0.4672 0.13438 0.0
H202 H 0.43126 0.49591 0.15278 0.0
H203 H 0.50069 0.59814 0.12791 0.0
H204 H 0.53117 0.56992 0.1099 0.0
H205 H 0.42711 0.57381 0.11976 0.0
H206 H 0.50963 0.59641 0.17856 0.0
H207 H 0.5453 0.58261 0.20431 0.0
H208 H 0.4454 0.50023 0.2256 0.0
H209 H 0.40904 0.513 0.19971 0.0
C210 C 0.30772 0.5961 0.16499 0.0
C211 C 0.27959 0.56256 0.17057 0.0
C212 C 0.34331 0.60203 0.16423 0.0
C213 C 0.35112 0.57433 0.16874 0.0
C214 C 0.32402 0.54245 0.17627 0.0
C215 C 0.28863 0.53667 0.17723 0.0
C216 C 0.38494 0.57542 0.16266 0.0
C217 C 0.40647 0.56885 0.17725 0.0
C218 C 0.39347 0.57856 0.14184 0.0
C219 C 0.37076 0.5834 0.12538 0.0
C220 C 0.33375 0.55627 0.12 0.0
C221 C 0.31237 0.56127 0.10465 0.0
C222 C 0.32783 0.5931 0.09443 0.0
C223 C 0.36474 0.61994 0.09949 0.0
C224 C 0.38622 0.61511 0.11487 0.0
C225 C 0.47044 0.49611 0.13331 0.0
C226 C 0.49806 0.51615 0.12053 0.0
C227 C 0.45366 0.5125 0.14385 0.0
C228 C 0.46398 0.54922 0.14181 0.0
C229 C 0.49242 0.56978 0.12971 0.0
C230 C 0.50954 0.55349 0.11931 0.0
C231 C 0.44171 0.56415 0.15019 0.0
C232 C 0.42215 0.57354 0.13598 0.0
C233 C 0.43488 0.56321 0.17127 0.0
C234 C 0.45656 0.55562 0.1871 0.0
C235 C 0.49522 0.57518 0.18863 0.0
C236 C 0.51558 0.56755 0.20327 0.0
C237 C 0.49763 0.54055 0.21657 0.0
C238 C 0.45927 0.52116 0.21529 0.0
C239 C 0.43876 0.52863 0.20065 0.0
H240 H 0.51344 0.53467 0.22789 0.0
H241 H 0.31123 0.59693 0.08255 0.0
H242 H 0.72499 0.28724 0.55261 0.0
H243 H 0.76445 0.35371 0.55329 0.0
H244 H 0.85432 0.33899 0.5374 0.0
H245 H 0.81503 0.27293 0.53588 0.0
H246 H 0.87854 0.40744 0.55878 0.0
H247 H 0.79382 0.32606 0.50091 0.0
H248 H 0.73328 0.2805 0.48294 0.0
H249 H 0.69455 0.35622 0.49271 0.0
H250 H 0.75444 0.40172 0.51173 0.0
H251 H 0.95815 0.48486 0.4697 0.0
H252 H 0.92283 0.44571 0.49565 0.0
H253 H 0.87336 0.51249 0.50615 0.0
H254 H 0.90965 0.55268 0.48042 0.0
H255 H 0.82442 0.43108 0.49553 0.0
H256 H 0.92324 0.51905 0.54403 0.0
H257 H 0.98826 0.56064 0.55716 0.0
H258 H 1.0055 0.46878 0.55867 0.0
H259 H 0.94074 0.42666 0.54524 0.0
C260 C 0.75352 0.29825 0.54994 0.0
C261 C 0.76647 0.27478 0.54336 0.0
C262 C 0.77609 0.33624 0.55054 0.0
C263 C 0.81188 0.35101 0.54482 0.0
C264 C 0.82663 0.32802 0.54173 0.0
C265 C 0.80401 0.29006 0.54088 0.0
C266 C 0.83051 0.38744 0.53695 0.0
C267 C 0.86661 0.41302 0.54517 0.0
C268 C 0.81471 0.39452 0.51915 0.0
C269 C 0.77831 0.36692 0.50826 0.0
C270 C 0.77215 0.33272 0.49967 0.0
C271 C 0.73796 0.30692 0.48929 0.0
C272 C 0.70992 0.3153 0.48695 0.0
C273 C 0.71611 0.34958 0.49489 0.0
C274 C 0.75012 0.37532 0.50556 0.0
C275 C 0.93981 0.49128 0.47753 0.0
C276 C 0.93618 0.52148 0.47296 0.0
C277 C 0.92 0.46916 0.49249 0.0
C278 C 0.89597 0.47663 0.50291 0.0
C279 C 0.89214 0.50668 0.49836 0.0
C280 C 0.9126 0.52934 0.48366 0.0
C281 C 0.87266 0.45064 0.51707 0.0
C282 C 0.83574 0.42667 0.50983 0.0
C283 C 0.88811 0.44452 0.53529 0.0
C284 C 0.92708 0.46968 0.54356 0.0
C285 C 0.94093 0.50772 0.54703 0.0
C286 C 0.97775 0.5314 0.55455 0.0
C287 C 1.001 0.51736 0.55874 0.0
C288 C 0.98745 0.47961 0.55544 0.0
C289 C 0.95066 0.45581 0.54791 0.0
H290 H 1.0295 0.53574 0.56455 0.0
H291 H 0.68353 0.29537 0.47879 0.0
H292 H 0.50574 0.6947 0.85099 0.0
H293 H 0.4703 0.72552 0.84736 0.0
H294 H 0.56705 0.82934 0.86873 0.0
H295 H 0.60291 0.7986 0.87256 0.0
H296 H 0.45218 0.77486 0.86512 0.0
H297 H 0.5804 0.88493 0.83206 0.0
H298 H 0.63767 0.89238 0.81968 0.0
H299 H 0.58365 0.77667 0.80078 0.0
H300 H 0.52596 0.7687 0.81272 0.0
H301 H 0.42906 0.92137 0.829 0.0
H302 H 0.44392 0.87955 0.84627 0.0
H303 H 0.44964 0.83295 0.78667 0.0
H304 H 0.43571 0.87515 0.76947 0.0
H305 H 0.51062 0.85655 0.8103 0.0
H306 H 0.38319 0.78185 0.81804 0.0
H307 H 0.32235 0.76768 0.82793 0.0
H308 H 0.36689 0.80215 0.89174 0.0
H309 H 0.42814 0.817 0.88219 0.0
C310 C 0.51921 0.72386 0.8558 0.0
C311 C 0.55734 0.74447 0.86158 0.0
C312 C 0.49882 0.74144 0.85368 0.0
C313 C 0.51633 0.77977 0.85713 0.0
C314 C 0.55324 0.79973 0.86564 0.0
C315 C 0.57373 0.78222 0.86768 0.0
C316 C 0.49889 0.79899 0.84753 0.0
C317 C 0.46499 0.79306 0.85329 0.0
C318 C 0.51496 0.82145 0.83149 0.0
C319 C 0.54907 0.82622 0.82347 0.0
C320 C 0.58073 0.86116 0.82513 0.0
C321 C 0.61325 0.86545 0.81821 0.0
C322 C 0.61432 0.835 0.8095 0.0
C323 C 0.5828 0.80022 0.80755 0.0
C324 C 0.5502 0.79581 0.81438 0.0
C325 C 0.43264 0.90155 0.81963 0.0
C326 C 0.43184 0.90178 0.79799 0.0
C327 C 0.44098 0.8776 0.82948 0.0
C328 C 0.44808 0.85327 0.81775 0.0
C329 C 0.44455 0.85172 0.79601 0.0
C330 C 0.43661 0.87584 0.78621 0.0
C331 C 0.46389 0.83305 0.828 0.0
C332 C 0.49769 0.83872 0.82227 0.0
C333 C 0.44706 0.80964 0.84357 0.0
C334 C 0.41034 0.80091 0.84936 0.0
C335 C 0.38009 0.78675 0.83416 0.0
C336 C 0.34551 0.77851 0.8397 0.0
C337 C 0.34078 0.78411 0.86044 0.0
C338 C 0.37061 0.79788 0.87568 0.0
C339 C 0.40526 0.80617 0.87021 0.0
H340 H 0.31398 0.77771 0.8647 0.0
H341 H 0.63956 0.83836 0.80424 0.0
H342 H 0.87385 0.55643 0.19928 0.0
H343 H 0.80908 0.52709 0.20495 0.0
H344 H 0.79544 0.5999 0.16608 0.0
H345 H 0.8607 0.63119 0.1616 0.0
H346 H 0.74954 0.58256 0.19484 0.0
H347 H 0.78148 0.514 0.1451 0.0
H348 H 0.81652 0.48398 0.13528 0.0
H349 H 0.77616 0.41418 0.1843 0.0
H350 H 0.74057 0.44359 0.19425 0.0
H351 H 0.59323 0.48387 0.12392 0.0
H352 H 0.65272 0.51853 0.14409 0.0
H353 H 0.62113 0.4328 0.18484 0.0
H354 H 0.56038 0.39789 0.16489 0.0
H355 H 0.68637 0.45171 0.1662 0.0
H356 H 0.63676 0.51063 0.20589 0.0
H357 H 0.60119 0.54147 0.21208 0.0
H358 H 0.67443 0.63109 0.17942 0.0
H359 H 0.71011 0.60054 0.1727 0.0
C360 C 0.85747 0.56714 0.19253 0.0
C361 C 0.87242 0.59572 0.17957 0.0
C362 C 0.82027 0.55004 0.19564 0.0
C363 C 0.79716 0.56058 0.18546 0.0
C364 C 0.81262 0.59103 0.17395 0.0
C365 C 0.8499 0.60855 0.17114 0.0
C366 C 0.75658 0.53736 0.18433 0.0
C367 C 0.73564 0.55391 0.18869 0.0
C368 C 0.73837 0.49967 0.17682 0.0
C369 C 0.7587 0.48115 0.17051 0.0
C370 C 0.78007 0.49219 0.15374 0.0
C371 C 0.79994 0.47527 0.14813 0.0
C372 C 0.79853 0.44719 0.15915 0.0
C373 C 0.77712 0.43586 0.17575 0.0
C374 C 0.75697 0.45253 0.18132 0.0
C375 C 0.59823 0.47249 0.13739 0.0
C376 C 0.57189 0.43791 0.14277 0.0
C377 C 0.63242 0.49256 0.149 0.0
C378 C 0.64117 0.47835 0.16604 0.0
C379 C 0.61471 0.44433 0.17183 0.0
C380 C 0.58015 0.42446 0.16041 0.0
C381 C 0.67942 0.4973 0.17594 0.0
C382 C 0.70001 0.47995 0.17312 0.0
C383 C 0.69717 0.53432 0.18454 0.0
C384 C 0.67608 0.55316 0.18873 0.0
C385 C 0.64518 0.5368 0.1999 0.0
C386 C 0.62499 0.55425 0.20352 0.0
C387 C 0.63552 0.5882 0.19613 0.0
C388 C 0.66632 0.6048 0.18515 0.0
C389 C 0.68658 0.58745 0.18146 0.0
H390 H 0.61984 0.60165 0.19893 0.0
H391 H 0.81402 0.43424 0.15479 0.0
H392 H 0.28973 0.90736 0.49457 0.0
H393 H 0.23797 0.84956 0.5012 0.0
H394 H 0.30882 0.82986 0.54274 0.0
H395 H 0.36148 0.88855 0.53609 0.0
H396 H 0.27351 0.7749 0.51476 0.0
H397 H 0.23311 0.83206 0.56087 0.0
H398 H 0.22017 0.87859 0.57625 0.0
H399 H 0.14065 0.85502 0.52451 0.0
H400 H 0.15347 0.80879 0.50861 0.0
H401 H 0.0995 0.60465 0.48526 0.0
H402 H 0.14533 0.65478 0.51068 0.0
H403 H 0.15017 0.73398 0.46991 0.0
H404 H 0.10534 0.68422 0.44442 0.0
H405 H 0.14525 0.74885 0.5153 0.0
H406 H 0.21092 0.71255 0.4662 0.0
H407 H 0.22503 0.66659 0.45112 0.0
H408 H 0.2569 0.65086 0.5121 0.0
H409 H 0.2425 0.69646 0.52751 0.0
C410 C 0.29427 0.89156 0.50574 0.0
C411 C 0.32978 0.90252 0.51473 0.0
C412 C 0.26445 0.8584 0.50963 0.0
C413 C 0.2693 0.83547 0.52273 0.0
C414 C 0.30441 0.84722 0.53269 0.0
C415 C 0.33445 0.88057 0.52875 0.0
C416 C 0.23897 0.7971 0.52265 0.0
C417 C 0.24553 0.76896 0.51574 0.0
C418 C 0.2024 0.78901 0.52412 0.0
C419 C 0.19423 0.81675 0.53357 0.0
C420 C 0.21297 0.83687 0.55271 0.0
C421 C 0.20564 0.86322 0.56153 0.0
C422 C 0.17957 0.86972 0.55138 0.0
C423 C 0.16076 0.84987 0.53239 0.0
C424 C 0.16798 0.82348 0.52349 0.0
C425 C 0.11039 0.63285 0.48188 0.0
C426 C 0.09941 0.64088 0.46293 0.0
C427 C 0.13624 0.66126 0.49637 0.0
C428 C 0.15065 0.69786 0.49216 0.0
C429 C 0.13894 0.70581 0.47346 0.0
C430 C 0.11376 0.67752 0.45886 0.0
C431 C 0.1803 0.72837 0.50609 0.0
C432 C 0.17337 0.75465 0.51555 0.0
C433 C 0.21651 0.73468 0.50729 0.0
C434 C 0.22518 0.70744 0.498 0.0
C435 C 0.22062 0.69903 0.47638 0.0
C436 C 0.22874 0.67311 0.46777 0.0
C437 C 0.24173 0.65571 0.48065 0.0
C438 C 0.24673 0.66428 0.50215 0.0
C439 C 0.2386 0.69014 0.51082 0.0
H440 H 0.24802 0.63567 0.47396 0.0
H441 H 0.17396 0.89015 0.55823 0.0
H442 H 0.49904 0.29677 0.84462 0.0
H443 H 0.51286 0.24746 0.84711 0.0
H444 H 0.62357 0.31979 0.83297 0.0
H445 H 0.60946 0.36894 0.82972 0.0
H446 H 0.59055 0.26117 0.80642 0.0
H447 H 0.60794 0.28082 0.87942 0.0
H448 H 0.59556 0.29268 0.91478 0.0
H449 H 0.49384 0.1899 0.90726 0.0
H450 H 0.50527 0.17762 0.87173 0.0
H451 H 0.58457 0.09522 0.78619 0.0
H452 H 0.60839 0.15351 0.8078 0.0
H453 H 0.49931 0.11897 0.82462 0.0
H454 H 0.47567 0.0605 0.80352 0.0
H455 H 0.55185 0.16589 0.85565 0.0
H456 H 0.52653 0.15924 0.78031 0.0
H457 H 0.53583 0.14642 0.74432 0.0
H458 H 0.65084 0.22606 0.75646 0.0
H459 H 0.64226 0.23884 0.79266 0.0
C460 C 0.52651 0.30234 0.84239 0.0
C461 C 0.55296 0.3365 0.83664 0.0
C462 C 0.53459 0.2743 0.84414 0.0
C463 C 0.56935 0.27998 0.84034 0.0
C464 C 0.59664 0.31489 0.83606 0.0
C465 C 0.58854 0.34297 0.83427 0.0
C466 C 0.57458 0.24794 0.83711 0.0
C467 C 0.58337 0.24095 0.81752 0.0
C468 C 0.56455 0.22123 0.85141 0.0
C469 C 0.55747 0.22834 0.87283 0.0
C470 C 0.5828 0.26083 0.88524 0.0
C471 C 0.57597 0.26762 0.90534 0.0
C472 C 0.54393 0.24207 0.91326 0.0
C473 C 0.51868 0.20965 0.90111 0.0
C474 C 0.52536 0.20272 0.881 0.0
C475 C 0.56598 0.09977 0.79502 0.0
C476 C 0.52822 0.07383 0.79294 0.0
C477 C 0.5796 0.1329 0.80741 0.0
C478 C 0.55545 0.14079 0.81744 0.0
C479 C 0.51841 0.11342 0.81701 0.0
C480 C 0.50488 0.0801 0.80486 0.0
C481 C 0.56654 0.17903 0.82484 0.0
C482 C 0.56058 0.18696 0.84503 0.0
C483 C 0.57887 0.2067 0.81107 0.0
C484 C 0.58386 0.19966 0.78921 0.0
C485 C 0.55382 0.17388 0.77531 0.0
C486 C 0.55896 0.1666 0.75489 0.0
C487 C 0.59393 0.18534 0.74813 0.0
C488 C 0.6238 0.2115 0.76175 0.0
C489 C 0.61882 0.21875 0.78221 0.0
H490 H 0.59787 0.17965 0.73232 0.0
H491 H 0.53869 0.24739 0.92882 0.0
H492 H 0.50287 0.9312 0.48912 0.0
H493 H 0.50308 0.87356 0.49238 0.0
H494 H 0.62046 0.93136 0.4926 0.0
H495 H 0.62025 0.98923 0.48952 0.0
H496 H 0.5998 0.86549 0.47304 0.0
H497 H 0.56447 0.88993 0.53832 0.0
H498 H 0.52676 0.90237 0.56137 0.0
H499 H 0.43074 0.80159 0.53597 0.0
H500 H 0.46782 0.78876 0.5126 0.0
H501 H 0.61404 0.70339 0.4992 0.0
H502 H 0.61714 0.76229 0.49439 0.0
H503 H 0.50694 0.71795 0.51111 0.0
H504 H 0.50505 0.66055 0.51702 0.0
H505 H 0.52561 0.77902 0.52209 0.0
H506 H 0.55674 0.75498 0.45527 0.0
H507 H 0.59155 0.742 0.43027 0.0
H508 H 0.69098 0.83942 0.45583 0.0
H509 H 0.65677 0.85279 0.4811 0.0
C510 C 0.52911 0.93232 0.48989 0.0
C511 C 0.56153 0.96709 0.48899 0.0
C512 C 0.52929 0.8983 0.49196 0.0
C513 C 0.56189 0.8956 0.49317 0.0
C514 C 0.59425 0.93028 0.49188 0.0
C515 C 0.59413 0.96445 0.49011 0.0
C516 C 0.56223 0.85782 0.49573 0.0
C517 C 0.58361 0.84714 0.48405 0.0
C518 C 0.54112 0.83108 0.50949 0.0
C519 C 0.51885 0.83857 0.52359 0.0
C520 C 0.53527 0.87053 0.53758 0.0
C521 C 0.51402 0.87764 0.55071 0.0
C522 C 0.47637 0.85283 0.5501 0.0
C523 C 0.4599 0.8208 0.5364 0.0
C524 C 0.48103 0.81359 0.52322 0.0
C525 C 0.58984 0.70538 0.50135 0.0
C526 C 0.55864 0.67448 0.50801 0.0
C527 C 0.59151 0.74029 0.4985 0.0
C528 C 0.56196 0.74739 0.5017 0.0
C529 C 0.53099 0.71615 0.50822 0.0
C530 C 0.52963 0.68185 0.5114 0.0
C531 C 0.56278 0.78592 0.49912 0.0
C532 C 0.54168 0.79697 0.51092 0.0
C533 C 0.58363 0.81264 0.48518 0.0
C534 C 0.60431 0.80461 0.47021 0.0
C535 C 0.58607 0.77349 0.45562 0.0
C536 C 0.60568 0.76609 0.4414 0.0
C537 C 0.64348 0.7898 0.44151 0.0
C538 C 0.66173 0.82103 0.45581 0.0
C539 C 0.64225 0.82854 0.47007 0.0
H540 H 0.65861 0.78403 0.43049 0.0
H541 H 0.45996 0.85839 0.56026 0.0
H542 H 0.71841 0.61712 0.82422 0.0
H543 H 0.77697 0.61811 0.82664 0.0
H544 H 0.71933 0.50054 0.82583 0.0
H545 H 0.66047 0.4996 0.82206 0.0
H546 H 0.77466 0.50725 0.81292 0.0
H547 H 0.87008 0.6622 0.83781 0.0
H548 H 0.86986 0.71307 0.85838 0.0
H549 H 0.78593 0.63584 0.89274 0.0
H550 H 0.78593 0.58457 0.8725 0.0
H551 H 0.96005 0.52759 0.81592 0.0
H552 H 0.90193 0.52756 0.80883 0.0
H553 H 0.92584 0.59554 0.86603 0.0
H554 H 0.98428 0.5982 0.87197 0.0
H555 H 0.88602 0.61193 0.85122 0.0
H556 H 0.84629 0.4835 0.84514 0.0
H557 H 0.84271 0.42596 0.83142 0.0
H558 H 0.81047 0.44024 0.77018 0.0
H559 H 0.81416 0.49804 0.78353 0.0
C560 C 0.71759 0.59113 0.82459 0.0
C561 C 0.68255 0.5583 0.82293 0.0
C562 C 0.75233 0.59167 0.82635 0.0
C563 C 0.75557 0.55951 0.82729 0.0
C564 C 0.72033 0.5266 0.82539 0.0
C565 C 0.68552 0.52601 0.82324 0.0
C566 C 0.79431 0.56001 0.82994 0.0
C567 C 0.79869 0.53064 0.82131 0.0
C568 C 0.82781 0.58899 0.84128 0.0
C569 C 0.82771 0.6196 0.85348 0.0
C570 C 0.85164 0.65612 0.84978 0.0
C571 C 0.85155 0.685 0.86137 0.0
C572 C 0.8278 0.67768 0.8768 0.0
C573 C 0.80421 0.64147 0.88073 0.0
C574 C 0.80423 0.61249 0.8692 0.0
C575 C 0.95366 0.54325 0.82695 0.0
C576 C 0.97921 0.56268 0.84489 0.0
C577 C 0.91876 0.54254 0.82309 0.0
C578 C 0.90585 0.56051 0.83701 0.0
C579 C 0.93219 0.58071 0.85444 0.0
C580 C 0.96689 0.58193 0.85806 0.0
C581 C 0.86677 0.55937 0.83397 0.0
C582 C 0.86222 0.58861 0.84265 0.0
C583 C 0.83285 0.52961 0.8234 0.0
C584 C 0.83095 0.49525 0.81528 0.0
C585 C 0.83865 0.47444 0.82873 0.0
C586 C 0.83657 0.44179 0.82103 0.0
C587 C 0.82649 0.42952 0.79993 0.0
C588 C 0.81837 0.44983 0.7865 0.0
C589 C 0.82045 0.48253 0.79413 0.0
H590 H 0.82488 0.40423 0.794 0.0
H591 H 0.82775 0.70008 0.88574 0.0
H592 H 0.21592 0.66598 0.14582 0.0
H593 H 0.2746 0.72384 0.14807 0.0
H594 H 0.22321 0.78194 0.17224 0.0
H595 H 0.16404 0.72409 0.16888 0.0
H596 H 0.27187 0.83225 0.15645 0.0
H597 H 0.30161 0.75869 0.19895 0.0
H598 H 0.30606 0.70425 0.20634 0.0
H599 H 0.37344 0.72107 0.15652 0.0
H600 H 0.36911 0.77544 0.14872 0.0
H601 H 0.44431 1.00249 0.19103 0.0
H602 H 0.38634 0.94404 0.18585 0.0
H603 H 0.44007 0.89344 0.15574 0.0
H604 H 0.49881 0.95256 0.16136 0.0
H605 H 0.39119 0.83925 0.17361 0.0
H606 H 0.36322 0.91387 0.13204 0.0
H607 H 0.35762 0.96739 0.12399 0.0
H608 H 0.28622 0.94796 0.17196 0.0
H609 H 0.29172 0.89455 0.18045 0.0
C610 C 0.21654 0.69079 0.15173 0.0
C611 C 0.183 0.68809 0.15714 0.0
C612 C 0.25146 0.72512 0.15337 0.0
C613 C 0.25658 0.76012 0.16108 0.0
C614 C 0.22279 0.75726 0.1663 0.0
C615 C 0.18778 0.72301 0.1644 0.0
C616 C 0.29548 0.79866 0.16337 0.0
C617 C 0.2975 0.83296 0.16056 0.0
C618 C 0.33142 0.80296 0.16822 0.0
C619 C 0.33474 0.77088 0.17313 0.0
C620 C 0.31732 0.75072 0.18956 0.0
C621 C 0.3198 0.71988 0.19381 0.0
C622 C 0.33993 0.70915 0.18187 0.0
C623 C 0.35781 0.72938 0.16573 0.0
C624 C 0.35538 0.76023 0.1614 0.0
C625 C 0.4442 0.97957 0.18258 0.0
C626 C 0.47816 0.98509 0.1759 0.0
C627 C 0.40984 0.94485 0.17957 0.0
C628 C 0.40578 0.91166 0.16973 0.0
C629 C 0.43985 0.9169 0.16319 0.0
C630 C 0.47441 0.95195 0.16614 0.0
C631 C 0.36737 0.87272 0.1669 0.0
C632 C 0.36547 0.83844 0.16959 0.0
C633 C 0.33149 0.8684 0.162 0.0
C634 C 0.3282 0.90047 0.15701 0.0
C635 C 0.34652 0.92117 0.14096 0.0
C636 C 0.34333 0.95145 0.1363 0.0
C637 C 0.32166 0.96113 0.1475 0.0
C638 C 0.30305 0.94047 0.16333 0.0
C639 C 0.30617 0.91018 0.16806 0.0
H640 H 0.31923 0.98458 0.14387 0.0
H641 H 0.34173 0.6852 0.18514 0.0
H642 H 0.62523 0.22254 0.49471 0.0
H643 H 0.62637 0.28141 0.49823 0.0
H644 H 0.50838 0.22384 0.49104 0.0
H645 H 0.50729 0.16495 0.48743 0.0
H646 H 0.52335 0.28269 0.47428 0.0
H647 H 0.57819 0.27807 0.53973 0.0
H648 H 0.62292 0.27375 0.56394 0.0
H649 H 0.7106 0.37209 0.54432 0.0
H650 H 0.6665 0.3767 0.51972 0.0
H651 H 0.50864 0.44598 0.50334 0.0
H652 H 0.50795 0.38758 0.4984 0.0
H653 H 0.62536 0.44485 0.51204 0.0
H654 H 0.62555 0.50308 0.51764 0.0
H655 H 0.61097 0.38599 0.52533 0.0
H656 H 0.55858 0.38819 0.45815 0.0
H657 H 0.5152 0.39219 0.43264 0.0
H658 H 0.42481 0.29958 0.45513 0.0
H659 H 0.46765 0.29527 0.48091 0.0
C660 C 0.59915 0.22173 0.49389 0.0
C661 C 0.56611 0.18668 0.49072 0.0
C662 C 0.59979 0.25655 0.49612 0.0
C663 C 0.56745 0.25976 0.49541 0.0
C664 C 0.53448 0.22467 0.4919 0.0
C665 C 0.53383 0.18987 0.48982 0.0
C666 C 0.56771 0.2983 0.49808 0.0
C667 C 0.54256 0.30471 0.48577 0.0
C668 C 0.59257 0.3297 0.51251 0.0
C669 C 0.61908 0.32729 0.52752 0.0
C670 C 0.60705 0.29859 0.54041 0.0
C671 C 0.63231 0.2961 0.55423 0.0
C672 C 0.66962 0.32247 0.55555 0.0
C673 C 0.68172 0.35154 0.54318 0.0
C674 C 0.6566 0.35408 0.52928 0.0
C675 C 0.53479 0.4469 0.50453 0.0
C676 C 0.56741 0.48177 0.50984 0.0
C677 C 0.53446 0.41228 0.50171 0.0
C678 C 0.56676 0.40901 0.50404 0.0
C679 C 0.59931 0.44395 0.50963 0.0
C680 C 0.59955 0.47849 0.51254 0.0
C681 C 0.56674 0.3705 0.50143 0.0
C682 C 0.59186 0.36403 0.51379 0.0
C683 C 0.54206 0.33911 0.48695 0.0
C684 C 0.51626 0.34168 0.47159 0.0
C685 C 0.52943 0.36883 0.45773 0.0
C686 C 0.50494 0.37113 0.44321 0.0
C687 C 0.46726 0.34622 0.44231 0.0
C688 C 0.45399 0.3189 0.45588 0.0
C689 C 0.47836 0.3165 0.47044 0.0
H690 H 0.44835 0.34805 0.43106 0.0
H691 H 0.68914 0.32051 0.56625 0.0
H692 H 0.49135 0.61916 0.82998 0.0
H693 H 0.43445 0.62045 0.83362 0.0
H694 H 0.37169 0.50323 0.81931 0.0
H695 H 0.42884 0.50196 0.81674 0.0
H696 H 0.32915 0.50894 0.83947 0.0
H697 H 0.37859 0.66337 0.83573 0.0
H698 H 0.42337 0.7168 0.81922 0.0
H699 H 0.42958 0.64486 0.77227 0.0
H700 H 0.38377 0.59097 0.78802 0.0
H701 H 0.18098 0.53266 0.87106 0.0
H702 H 0.23867 0.53571 0.86558 0.0
H703 H 0.24165 0.58409 0.80878 0.0
H704 H 0.18287 0.58187 0.8147 0.0
H705 H 0.31207 0.61189 0.82092 0.0
H706 H 0.22397 0.48472 0.81625 0.0
H707 H 0.17404 0.42701 0.8267 0.0
H708 H 0.2412 0.43891 0.88234 0.0
H709 H 0.2914 0.49694 0.87232 0.0
C710 C 0.46563 0.59333 0.82744 0.0
C711 C 0.46682 0.56042 0.8228 0.0
C712 C 0.43183 0.59407 0.82935 0.0
C713 C 0.39578 0.56204 0.82634 0.0
C714 C 0.39724 0.52918 0.82187 0.0
C715 C 0.43103 0.52839 0.82024 0.0
C716 C 0.35764 0.56216 0.82819 0.0
C717 C 0.32644 0.53207 0.83542 0.0
C718 C 0.35038 0.59093 0.82277 0.0
C719 C 0.37821 0.6231 0.8133 0.0
C720 C 0.38946 0.65893 0.82187 0.0
C721 C 0.41496 0.6893 0.81261 0.0
C722 C 0.42963 0.68423 0.79486 0.0
C723 C 0.41841 0.64875 0.78613 0.0
C724 C 0.39256 0.61827 0.79517 0.0
C725 C 0.19315 0.54397 0.85712 0.0
C726 C 0.17469 0.55656 0.84351 0.0
C727 C 0.22726 0.54538 0.8538 0.0
C728 C 0.24674 0.5592 0.83625 0.0
C729 C 0.22894 0.57269 0.82256 0.0
C730 C 0.19425 0.57132 0.82597 0.0
C731 C 0.2845 0.55931 0.83284 0.0
C732 C 0.31532 0.58917 0.82523 0.0
C733 C 0.29133 0.53009 0.83751 0.0
C734 C 0.26129 0.49534 0.84363 0.0
C735 C 0.22799 0.47513 0.83077 0.0
C736 C 0.19966 0.44236 0.83661 0.0
C737 C 0.20441 0.42936 0.8552 0.0
C738 C 0.23754 0.44906 0.86796 0.0
C739 C 0.26596 0.48187 0.86221 0.0
H740 H 0.18245 0.40397 0.85969 0.0
H741 H 0.44954 0.70779 0.7878 0.0
H742 H 0.99039 0.44309 0.1697 0.0
H743 H 0.93385 0.38608 0.17369 0.0
H744 H 0.87008 0.42865 0.14524 0.0
H745 H 0.92701 0.48686 0.14252 0.0
H746 H 0.82238 0.38471 0.16437 0.0
H747 H 0.88992 0.34329 0.12585 0.0
H748 H 0.94199 0.33531 0.11764 0.0
H749 H 0.93844 0.28764 0.17477 0.0
H750 H 0.88655 0.29566 0.1834 0.0
H751 H 0.65205 0.1995 0.15603 0.0
H752 H 0.7071 0.25805 0.15008 0.0
H753 H 0.7753 0.23021 0.18765 0.0
H754 H 0.72111 0.17267 0.19348 0.0
H755 H 0.81917 0.26601 0.16228 0.0
H756 H 0.74779 0.30812 0.19883 0.0
H757 H 0.69409 0.31522 0.2039 0.0
H758 H 0.70224 0.35916 0.14513 0.0
H759 H 0.75588 0.35216 0.13969 0.0
C760 C 0.9646 0.44086 0.16407 0.0
C761 C 0.96559 0.47176 0.15549 0.0
C762 C 0.93093 0.40675 0.16614 0.0
C763 C 0.89467 0.39948 0.15926 0.0
C764 C 0.89577 0.43071 0.15088 0.0
C765 C 0.92949 0.46515 0.14915 0.0
C766 C 0.85688 0.361 0.16103 0.0
C767 C 0.82247 0.35911 0.16351 0.0
C768 C 0.85343 0.32511 0.16037 0.0
C769 C 0.88469 0.32048 0.15537 0.0
C770 C 0.90041 0.3313 0.1367 0.0
C771 C 0.92986 0.32675 0.13198 0.0
C772 C 0.94359 0.31109 0.14571 0.0
C773 C 0.92783 0.29985 0.16418 0.0
C774 C 0.89839 0.30438 0.16899 0.0
C775 C 0.6786 0.20515 0.1629 0.0
C776 C 0.68009 0.17874 0.17521 0.0
C777 C 0.71116 0.24001 0.15969 0.0
C778 C 0.74802 0.2515 0.16844 0.0
C779 C 0.74905 0.22455 0.18027 0.0
C780 C 0.71687 0.19039 0.18365 0.0
C781 C 0.78493 0.2899 0.16563 0.0
C782 C 0.81919 0.29172 0.16304 0.0
C783 C 0.78795 0.32549 0.16565 0.0
C784 C 0.75554 0.32924 0.16877 0.0
C785 C 0.73794 0.31905 0.18694 0.0
C786 C 0.70758 0.32312 0.18989 0.0
C787 C 0.69468 0.3375 0.17481 0.0
C788 C 0.71214 0.34785 0.15675 0.0
C789 C 0.74255 0.3439 0.15374 0.0
H790 H 0.67123 0.34072 0.17715 0.0
H791 H 0.96639 0.30759 0.14202 0.0
H792 H 0.09257 0.63107 0.08441 0.0
H793 H 0.09051 0.62729 0.04666 0.0
H794 H 1.0356 0.50909 0.04379 0.0
H795 H 0.03978 0.51309 0.08179 0.0
H796 H 0.07787 0.52625 0.01606 0.0
H797 H 0.99111 0.56259 0.03115 0.0
H798 H 0.96722 0.59925 0.04779 0.0
H799 H 0.04636 0.69485 0.0214 0.0
H800 H 0.07106 0.65887 0.00482 0.0
H801 H 1.00397 0.50627 0.90775 0.0
H802 H 1.00773 0.5078 0.94583 0.0
H803 H 0.10624 0.61389 0.95087 0.0
H804 H 0.10325 0.61187 0.91279 0.0
H805 H 0.03987 0.60108 0.97653 0.0
H806 H 0.12482 0.55838 0.9614 0.0
H807 H 0.14107 0.51617 0.9435 0.0
H808 H 0.05397 0.42496 0.96897 0.0
H809 H 1.03683 0.46662 0.98676 0.0
C810 C 0.07999 0.60423 0.07576 0.0
C811 C 0.06611 0.57237 0.08621 0.0
C812 C 0.07854 0.60203 0.05402 0.0
C813 C 0.06199 0.56781 0.04196 0.0
C814 C 0.04844 0.53593 0.05247 0.0
C815 C 0.05072 0.5382 0.07428 0.0
C816 C 0.05926 0.56541 0.01855 0.0
C817 C 0.06908 0.54238 0.00756 0.0
C818 C 0.04793 0.58633 0.00698 0.0
C819 C 1.03317 0.6081 0.01691 0.0
C820 C 1.00359 0.59149 0.02902 0.0
C821 C 0.98988 0.61214 0.03842 0.0
C822 C 1.00533 0.64938 0.0357 0.0
C823 C 1.03446 0.66602 0.02352 0.0
C824 C 0.04831 0.6455 0.0141 0.0
C825 C 1.02659 0.52975 0.917 0.0
C826 C 0.05344 0.55886 0.90727 0.0
C827 C 1.0287 0.53062 0.93875 0.0
C828 C 0.05725 0.56097 0.95126 0.0
C829 C 0.08397 0.59017 0.94157 0.0
C830 C 0.08235 0.58892 0.91983 0.0
C831 C 0.05889 0.56247 0.97443 0.0
C832 C 0.04866 0.58514 0.98525 0.0
C833 C 0.06882 0.54052 0.98576 0.0
C834 C 0.07928 0.51555 0.9752 0.0
C835 C 0.10889 0.52928 0.963 0.0
C836 C 0.11832 0.50547 0.95292 0.0
C837 C 0.09849 0.46789 0.95505 0.0
C838 C 0.06926 0.45407 0.96731 0.0
C839 C 0.05969 0.47777 0.9774 0.0
H840 H 0.10584 0.44949 0.94724 0.0
H841 H 0.99467 0.66532 0.04299 0.0
H842 H 0.62639 0.09542 0.42046 0.0
H843 H 0.62848 0.09555 0.38275 0.0
H844 H 0.51146 0.05228 0.37424 0.0
H845 H 0.50932 0.05286 0.41168 0.0
H846 H 0.60091 0.04578 0.35083 0.0
H847 H 0.48648 0.08133 0.33243 0.0
H848 H 0.46086 0.11644 0.34902 0.0
H849 H 0.56332 0.18435 0.38669 0.0
H850 H 0.5897 0.14999 0.37014 0.0
H851 H 0.54068 1.00381 0.24297 0.0
H852 H 0.54553 1.00915 0.2808 0.0
H853 H 0.58797 0.12571 0.2821 0.0
H854 H 0.58149 0.12026 0.24414 0.0
H855 H 0.54199 0.10141 0.30952 0.0
H856 H 0.64358 0.08694 0.29508 0.0
H857 H 0.67564 0.05822 0.27883 0.0
H858 H 0.61035 0.95958 0.30736 0.0
H859 H 0.57754 0.98754 0.32357 0.0
C860 C 0.60109 0.08599 0.41058 0.0
C861 C 0.56774 0.07439 0.41933 0.0
C862 C 0.60229 0.08598 0.38892 0.0
C863 C 0.57023 0.07447 0.3754 0.0
C864 C 0.53684 0.06215 0.38414 0.0
C865 C 0.53564 0.06233 0.40571 0.0
C866 C 0.57143 0.07515 0.35226 0.0
C867 C 0.58799 0.05797 0.34185 0.0
C868 C 0.55541 0.09171 0.34029 0.0
C869 C 0.53992 0.11283 0.35017 0.0
C870 C 0.50358 0.10385 0.34419 0.0
C871 C 0.48892 0.1236 0.3536 0.0
C872 C 0.51041 0.15253 0.36894 0.0
C873 C 0.54666 0.16185 0.37486 0.0
C874 C 0.56146 0.14222 0.36548 0.0
C875 C 0.55083 0.03063 0.25122 0.0
C876 C 0.56062 0.06158 0.24022 0.0
C877 C 0.55404 0.03373 0.27301 0.0
C878 C 0.56762 0.06795 0.28462 0.0
C879 C 0.57751 0.09893 0.27371 0.0
C880 C 0.57414 0.09583 0.25188 0.0
C881 C 0.57066 0.07123 0.30801 0.0
C882 C 0.5549 0.08919 0.31848 0.0
C883 C 0.58817 0.05613 0.32005 0.0
C884 C 0.60789 0.03924 0.31039 0.0
C885 C 0.63588 0.05903 0.29777 0.0
C886 C 0.65421 0.0429 0.28859 0.0
C887 C 0.64498 1.00707 0.29203 0.0
C888 C 0.61745 0.98732 0.3047 0.0
C889 C 0.599 1.00331 0.3139 0.0
H890 H 0.6592 0.99463 0.2849 0.0
H891 H 0.499 0.16776 0.37621 0.0
H892 H 0.62665 0.61109 0.75396 0.0
H893 H 0.6267 0.61134 0.7162 0.0
H894 H 0.5168 0.51773 0.70818 0.0
H895 H 0.51712 0.51664 0.74571 0.0
H896 H 0.55223 0.50653 0.68135 0.0
H897 H 0.53947 0.61073 0.70085 0.0
H898 H 0.55651 0.67011 0.71998 0.0
H899 H 0.65983 0.72113 0.69406 0.0
H900 H 0.64357 0.66194 0.67497 0.0
H901 H 0.53232 0.57844 0.57575 0.0
H902 H 0.53391 0.58231 0.61362 0.0
H903 H 0.60644 0.53811 0.61686 0.0
H904 H 0.60585 0.53503 0.57915 0.0
H905 H 0.58773 0.61853 0.64564 0.0
H906 H 0.58471 0.48172 0.65603 0.0
H907 H 0.56126 0.42105 0.63656 0.0
H908 H 0.47824 0.43315 0.60227 0.0
H909 H 0.50084 0.49359 0.62173 0.0
C910 C 0.60241 0.59066 0.74417 0.0
C911 C 0.57188 0.56388 0.75306 0.0
C912 C 0.60238 0.5909 0.72246 0.0
C913 C 0.57157 0.56477 0.70902 0.0
C914 C 0.54106 0.53819 0.71796 0.0
C915 C 0.54123 0.53769 0.73957 0.0
C916 C 0.57105 0.56442 0.68573 0.0
C917 C 0.56015 0.53117 0.67366 0.0
C918 C 0.58073 0.59621 0.67529 0.0
C919 C 0.59044 0.63184 0.68664 0.0
C920 C 0.56592 0.63457 0.69934 0.0
C921 C 0.57542 0.66819 0.71016 0.0
C922 C 0.60927 0.69935 0.70828 0.0
C923 C 0.63364 0.69697 0.69552 0.0
C924 C 0.62428 0.6634 0.68469 0.0
C925 C 0.54904 0.56995 0.58446 0.0
C926 C 0.56873 0.55614 0.57407 0.0
C927 C 0.54982 0.5721 0.60622 0.0
C928 C 0.56999 0.56018 0.61828 0.0
C929 C 0.59014 0.54697 0.60803 0.0
C930 C 0.58958 0.54502 0.58632 0.0
C931 C 0.56942 0.56082 0.64146 0.0
C932 C 0.58006 0.59404 0.65344 0.0
C933 C 0.5588 0.52887 0.65182 0.0
C934 C 0.54477 0.49237 0.64019 0.0
C935 C 0.56139 0.47137 0.64438 0.0
C936 C 0.54824 0.43703 0.63334 0.0
C937 C 0.51837 0.42332 0.61813 0.0
C938 C 0.50148 0.44386 0.61399 0.0
C939 C 0.51447 0.47818 0.625 0.0
H940 H 0.50826 0.39674 0.6096 0.0
H941 H 0.61659 0.72535 0.71667 0.0
H942 H 0.50143 0.02701 0.54615 0.0
H943 H 0.49771 1.02484 0.58335 0.0
H944 H 0.60743 0.1183 0.59509 0.0
H945 H 0.61149 0.12078 0.55754 0.0
H946 H 0.59405 0.05916 0.61894 0.0
H947 H 0.54022 0.13241 0.60326 0.0
H948 H 0.49901 0.14819 0.58358 0.0
H949 H 0.40504 0.05011 0.59883 0.0
H950 H 0.44572 0.03345 0.61835 0.0
H951 H 0.57173 0.06789 0.72683 0.0
H952 H 0.58513 0.08324 0.69155 0.0
H953 H 0.47257 1.00464 0.66883 0.0
H954 H 0.45835 0.99085 0.70419 0.0
H955 H 0.49357 0.06517 0.65145 0.0
H956 H 0.54589 0.9882 0.66361 0.0
H957 H 0.58587 0.96961 0.68213 0.0
H958 H 0.6811 0.07166 0.67268 0.0
H959 H 0.64162 0.09105 0.65432 0.0
C960 C 0.52483 0.04723 0.55658 0.0
C961 C 0.55677 0.07415 0.5489 0.0
C962 C 0.52257 0.046 0.57785 0.0
C963 C 0.55215 0.07161 0.59192 0.0
C964 C 0.58427 0.0984 0.58441 0.0
C965 C 0.58648 0.09985 0.56301 0.0
C966 C 0.54919 0.06953 0.61445 0.0
C967 C 0.5726 0.06123 0.62622 0.0
C968 C 0.52067 0.07144 0.62371 0.0
C969 C 0.49606 0.08157 0.61217 0.0
C970 C 0.51078 0.11408 0.60231 0.0
C971 C 0.48751 0.1232 0.59119 0.0
C972 C 0.44943 0.10014 0.58993 0.0
C973 C 0.43455 0.06795 0.59982 0.0
C974 C 0.4577 0.05868 0.61094 0.0
C975 C 0.54969 0.05406 0.71437 0.0
C976 C 0.51389 0.0281 0.71842 0.0
C977 C 0.55755 0.06258 0.69415 0.0
C978 C 0.52997 0.04482 0.67748 0.0
C979 C 0.49433 1.01868 0.68143 0.0
C980 C 0.48634 1.01047 0.70167 0.0
C981 C 0.53784 0.05381 0.65593 0.0
C982 C 0.51535 0.06353 0.64432 0.0
C983 C 0.56704 0.05288 0.64679 0.0
C984 C 0.59078 0.04124 0.65781 0.0
C985 C 0.57533 1.00679 0.66563 0.0
C986 C 0.5979 0.99609 0.67607 0.0
C987 C 0.63599 1.01949 0.67864 0.0
C988 C 0.65159 0.0536 0.67072 0.0
C989 C 0.62914 0.06444 0.66028 0.0
H990 H 0.65342 1.01116 0.68673 0.0
H991 H 0.43146 0.10724 0.58131 0.0
H992 H 0.58261 0.60361 0.89052 0.0
H993 H 0.57664 0.59554 0.9275 0.0
H994 H 0.55656 0.48514 0.916 0.0
H995 H 0.56274 0.49294 0.87925 0.0
H996 H 0.50533 0.49093 0.93948 0.0
H997 H 0.63708 0.54852 0.9378 0.0
H998 H 0.69762 0.59758 0.92997 0.0
H999 H 0.68715 0.67629 0.96941 0.0
H1000 H 0.62627 0.62775 0.97724 0.0
H1001 H 0.51605 0.43914 0.03898 0.0
H1002 H 0.5261 0.45369 0.0034 0.0
H1003 H 0.56713 0.56806 0.02282 0.0
H1004 H 0.55995 0.55421 0.0588 0.0
H1005 H 0.60667 0.56396 -0.00466 0.0
H1006 H 0.47737 0.50898 -0.00161 0.0
H1007 H 0.41562 0.46218 0.00603 0.0
H1008 H 0.41892 0.38194 0.96394 0.0
H1009 H 0.48092 0.42814 0.95625 0.0
C1010 C 0.57711 0.5777 0.8959 0.0
C1011 C 0.57318 0.54894 0.88196 0.0
C1012 C 0.57377 0.57317 0.91701 0.0
C1013 C 0.56621 0.53975 0.92442 0.0
C1014 C 0.56234 0.5111 0.91054 0.0
C1015 C 0.56604 0.5157 0.88956 0.0
C1016 C 0.5616 0.53411 0.94658 0.0
C1017 C 0.52754 0.50663 0.95172 0.0
C1018 C 0.59025 0.55549 0.9625 0.0
C1019 C 0.62696 0.58459 0.95793 0.0
C1020 C 0.64755 0.57635 0.94466 0.0
C1021 C 0.68195 0.60404 0.94025 0.0
C1022 C 0.69618 0.64005 0.94914 0.0
C1023 C 0.67608 0.6484 0.96251 0.0
C1024 C 0.64164 0.6208 0.96695 0.0
C1025 C 0.52786 0.46753 0.03584 0.0
C1026 C 0.53702 0.49544 0.05189 0.0
C1027 C 0.53305 0.47574 0.01536 0.0
C1028 C 0.54656 0.51187 0.0103 0.0
C1029 C 0.55637 0.53992 0.02628 0.0
C1030 C 0.5518 0.53184 0.04685 0.0
C1031 C 0.5504 0.52027 0.98835 0.0
C1032 C 0.58428 0.54834 0.9832 0.0
C1033 C 0.52134 0.49979 0.9724 0.0
C1034 C 0.48393 0.47197 0.97687 0.0
C1035 C 0.46503 0.48129 0.99086 0.0
C1036 C 0.42996 0.45488 -0.00481 0.0
C1037 C 0.41339 0.41909 0.98551 0.0
C1038 C 0.43181 0.40967 0.97144 0.0
C1039 C 0.46689 0.43597 0.96707 0.0
H1040 H 0.38625 0.39868 0.98889 0.0
H1041 H 0.72281 0.66145 0.9457 0.0
H1042 H 1.035 0.59494 0.21887 0.0
H1043 H 1.03593 0.5931 0.25631 0.0
H1044 H 0.12467 0.56993 0.25682 0.0
H1045 H 0.12444 0.57248 0.2192 0.0
H1046 H 1.02228 0.53889 0.27889 0.0
H1047 H 0.17752 0.6063 0.30394 0.0
H1048 H 0.2367 0.65094 0.29208 0.0
H1049 H 0.18477 0.70312 0.26122 0.0
H1050 H 0.12544 0.65911 0.27311 0.0
H1051 H 0.04075 0.52145 0.38616 0.0
H1052 H 0.05037 0.51982 0.34935 0.0
H1053 H 0.09494 0.63698 0.35212 0.0
H1054 H 0.08589 0.6388 0.38884 0.0
H1055 H 0.13269 0.6177 0.32846 0.0
H1056 H 1.00458 0.576 0.3346 0.0
H1057 H 0.94379 0.53628 0.34642 0.0
H1058 H 0.93848 0.44157 0.31453 0.0
H1059 H 0.99951 0.48072 0.30276 0.0
C1060 C 0.05488 0.58962 0.22691 0.0
C1061 C 0.07969 0.58389 0.21606 0.0
C1062 C 0.05526 0.58843 0.24832 0.0
C1063 C 0.08038 0.58143 0.25937 0.0
C1064 C 0.10532 0.57579 0.24863 0.0
C1065 C 0.10512 0.57721 0.22714 0.0
C1066 C 0.07987 0.57977 0.2821 0.0
C1067 C 0.04651 0.55596 0.28971 0.0
C1068 C 0.11138 0.60222 0.29623 0.0
C1069 C 0.14699 0.62914 0.28921 0.0
C1070 C 0.17879 0.62738 0.29467 0.0
C1071 C 0.21234 0.65256 0.28794 0.0
C1072 C 0.21446 0.67976 0.27584 0.0
C1073 C 0.18306 0.68194 0.27052 0.0
C1074 C 0.14946 0.65686 0.27723 0.0
C1075 C 0.05278 0.54683 0.37889 0.0
C1076 C 0.0624 0.58021 0.39031 0.0
C1077 C 0.05833 0.5459 0.35791 0.0
C1078 C 0.07299 0.57823 0.34794 0.0
C1079 C 0.08374 0.61173 0.35951 0.0
C1080 C 0.07852 0.61272 0.38049 0.0
C1081 C 0.075 0.57712 0.32522 0.0
C1082 C 0.10863 0.60027 0.31761 0.0
C1083 C 0.04351 0.55474 0.31105 0.0
C1084 C 1.00675 0.53121 0.31801 0.0
C1085 C 0.99055 0.54667 0.33024 0.0
C1086 C 0.95604 0.52427 0.33691 0.0
C1087 C 0.93733 0.48641 0.33128 0.0
C1088 C 0.95304 0.47089 0.31892 0.0
C1089 C 0.98757 0.49317 0.31223 0.0
H1090 H 0.91062 0.46911 0.33646 0.0
H1091 H 0.24046 0.6992 0.27062 0.0
loop_
_geom_bond_atom_site_label_1
_geom_bond_atom_site_label_2
_geom_bond_distance
_geom_bond_site_symmetry_2
_ccdc_geom_bond_type
Tb0 C10 2.825 . S
Tb0 O11 2.347 . S
Tb0 O14 2.366 . S
Tb0 O19 2.418 . S
Tb0 O20 2.384 . S
Tb0 O23 2.479 . S
Tb0 O24 2.471 . S
Eu1 O12 2.418 . S
Eu1 O13 2.384 . S
Eu1 O16 2.479 1_455 S
Eu1 O17 2.471 1_455 S
Eu1 O18 2.347 . S
Eu1 O21 2.366 1_455 S
Eu1 C31 2.825 1_455 S
C2 O18 1.259 . S
C2 O19 1.265 . S
C3 O20 1.255 1_655 S
C3 O21 1.265 . S
C4 C6 1.380 . S
C4 C7 1.374 . S
C4 C10 1.507 . S
C5 C6 1.384 . S
C5 C9 1.387 . S
C5 H32 0.930 . S
C6 C4 1.380 . S
C6 C5 1.384 . S
C6 H33 0.931 . S
C7 C4 1.374 . S
C7 C8 1.390 . S
C7 H34 0.930 . S
C8 C7 1.390 . S
C8 C9 1.391 . S
C8 H35 0.930 . S
C9 C5 1.387 . S
C9 C8 1.391 . S
C10 Tb0 2.825 . S
C10 C4 1.507 . S
C10 O23 1.238 . S
C10 O24 1.247 . S
O11 Tb0 2.347 . S
O11 C15 1.259 . S
O12 Eu1 2.418 . S
O12 C15 1.265 . S
O13 Eu1 2.384 . S
O13 C22 1.255 . S
O14 Tb0 2.366 . S
O14 C22 1.265 . S
C15 O11 1.259 . S
C15 O12 1.265 . S
O16 Eu1 2.479 1_655 S
O16 C31 1.238 . S
O17 Eu1 2.471 1_655 S
O17 C31 1.247 . S
O18 Eu1 2.347 . S
O18 C2 1.259 . S
O19 Tb0 2.418 . S
O19 C2 1.265 . S
O20 Tb0 2.384 . S
O20 C3 1.255 1_455 S
O21 Eu1 2.366 1_655 S
O21 C3 1.265 . S
C22 O13 1.255 . S
C22 O14 1.265 . S
O23 Tb0 2.479 . S
O23 C10 1.238 . S
O24 Tb0 2.471 . S
O24 C10 1.247 . S
C25 C28 1.380 . S
C25 C29 1.374 . S
C25 C31 1.507 . S
C26 C27 1.387 . S
C26 C30 1.391 . S
C27 C26 1.387 . S
C27 C28 1.384 . S
C27 H36 0.930 . S
C28 C25 1.380 . S
C28 C27 1.384 . S
C28 H37 0.931 . S
C29 C25 1.374 . S
C29 C30 1.390 . S
C29 H38 0.930 . S
C30 C26 1.391 . S
C30 C29 1.390 . S
C30 H39 0.930 . S
C31 Eu1 2.825 1_655 S
C31 O16 1.238 . S
C31 O17 1.247 . S
C31 C25 1.507 . S
H32 C5 0.930 . S
H33 C6 0.931 . S
H34 C7 0.930 . S
H35 C8 0.930 . S
H36 C27 0.930 . S
H37 C28 0.931 . S
H38 C29 0.930 . S
H39 C30 0.930 . S
Tb40 C50 2.825 . S
Tb40 O51 2.347 . S
Tb40 O54 2.366 . S
Tb40 O59 2.418 . S
Tb40 O60 2.384 . S
Tb40 O63 2.479 . S
Tb40 O64 2.471 . S
Eu41 O52 2.418 . S
Eu41 O53 2.384 . S
Eu41 O56 2.479 1_545 S
Eu41 O57 2.471 1_545 S
Eu41 O58 2.347 . S
Eu41 O61 2.366 1_545 S
Eu41 C71 2.825 1_545 S
C42 O58 1.259 . S
C42 O59 1.265 . S
C43 O60 1.255 1_565 S
C43 O61 1.265 . S
C44 C46 1.380 . S
C44 C47 1.374 . S
C44 C50 1.507 . S
C45 C46 1.384 . S
C45 C49 1.387 . S
C45 H72 0.930 . S
C46 C44 1.380 . S
C46 C45 1.384 . S
C46 H73 0.931 . S
C47 C44 1.374 . S
C47 C48 1.390 . S
C47 H74 0.930 . S
C48 C47 1.390 . S
C48 C49 1.391 . S
C48 H75 0.930 . S
C49 C45 1.387 . S
C49 C48 1.391 . S
C50 Tb40 2.825 . S
C50 C44 1.507 . S
C50 O63 1.238 . S
C50 O64 1.247 . S
O51 Tb40 2.347 . S
O51 C55 1.259 . S
O52 Eu41 2.418 . S
O52 C55 1.265 . S
O53 Eu41 2.384 . S
O53 C62 1.255 . S
O54 Tb40 2.366 . S
O54 C62 1.265 . S
C55 O51 1.259 . S
C55 O52 1.265 . S
O56 Eu41 2.479 1_565 S
O56 C71 1.238 . S
O57 Eu41 2.471 1_565 S
O57 C71 1.247 . S
O58 Eu41 2.347 . S
O58 C42 1.259 . S
O59 Tb40 2.418 . S
O59 C42 1.265 . S
O60 Tb40 2.384 . S
O60 C43 1.255 1_545 S
O61 Eu41 2.366 1_565 S
O61 C43 1.265 . S
C62 O53 1.255 . S
C62 O54 1.265 . S
O63 Tb40 2.479 . S
O63 C50 1.238 . S
O64 Tb40 2.471 . S
O64 C50 1.247 . S
C65 C68 1.380 . S
C65 C69 1.374 . S
C65 C71 1.507 . S
C66 C67 1.387 . S
C66 C70 1.391 . S
C67 C66 1.387 . S
C67 C68 1.384 . S
C67 H76 0.930 . S
C68 C65 1.380 . S
C68 C67 1.384 . S
C68 H77 0.931 . S
C69 C65 1.374 . S
C69 C70 1.390 . S
C69 H78 0.930 . S
C70 C66 1.391 . S
C70 C69 1.390 . S
C70 H79 0.930 . S
C71 Eu41 2.825 1_565 S
C71 O56 1.238 . S
C71 O57 1.247 . S
C71 C65 1.507 . S
H72 C45 0.930 . S
H73 C46 0.931 . S
H74 C47 0.930 . S
H75 C48 0.930 . S
H76 C67 0.930 . S
H77 C68 0.931 . S
H78 C69 0.930 . S
H79 C70 0.930 . S
Tb80 C90 2.825 . S
Tb80 O91 2.347 . S
Tb80 O94 2.366 . S
Tb80 O99 2.418 . S
Tb80 O100 2.384 . S
Tb80 O103 2.479 . S
Tb80 O104 2.471 . S
Eu81 O92 2.418 . S
Eu81 O93 2.384 . S
Eu81 O96 2.479 . S
Eu81 O97 2.471 . S
Eu81 O98 2.347 . S
Eu81 O101 2.366 . S
Eu81 C111 2.825 . S
C82 O98 1.259 . S
C82 O99 1.265 . S
C83 O100 1.255 . S
C83 O101 1.265 . S
C84 C86 1.380 . S
C84 C87 1.374 . S
C84 C90 1.507 . S
C85 C86 1.384 . S
C85 C89 1.387 . S
C85 H112 0.930 . S
C86 C84 1.380 . S
C86 C85 1.384 . S
C86 H113 0.931 . S
C87 C84 1.374 . S
C87 C88 1.390 . S
C87 H114 0.930 . S
C88 C87 1.390 . S
C88 C89 1.391 . S
C88 H115 0.930 . S
C89 C85 1.387 . S
C89 C88 1.391 . S
C90 Tb80 2.825 . S
C90 C84 1.507 . S
C90 O103 1.238 . S
C90 O104 1.247 . S
O91 Tb80 2.347 . S
O91 C95 1.259 . S
O92 Eu81 2.418 . S
O92 C95 1.265 . S
O93 Eu81 2.384 . S
O93 C102 1.255 . S
O94 Tb80 2.366 . S
O94 C102 1.265 . S
C95 O91 1.259 . S
C95 O92 1.265 . S
O96 Eu81 2.479 . S
O96 C111 1.238 . S
O97 Eu81 2.471 . S
O97 C111 1.247 . S
O98 Eu81 2.347 . S
O98 C82 1.259 . S
O99 Tb80 2.418 . S
O99 C82 1.265 . S
O100 Tb80 2.384 . S
O100 C83 1.255 . S
O101 Eu81 2.366 . S
O101 C83 1.265 . S
C102 O93 1.255 . S
C102 O94 1.265 . S
O103 Tb80 2.479 . S
O103 C90 1.238 . S
O104 Tb80 2.471 . S
O104 C90 1.247 . S
C105 C108 1.380 . S
C105 C109 1.374 . S
C105 C111 1.507 . S
C106 C107 1.387 . S
C106 C110 1.391 . S
C107 C106 1.387 . S
C107 C108 1.384 . S
C107 H116 0.930 . S
C108 C105 1.380 . S
C108 C107 1.384 . S
C108 H117 0.931 . S
C109 C105 1.374 . S
C109 C110 1.390 . S
C109 H118 0.930 . S
C110 C106 1.391 . S
C110 C109 1.390 . S
C110 H119 0.930 . S
C111 Eu81 2.825 . S
C111 O96 1.238 . S
C111 O97 1.247 . S
C111 C105 1.507 . S
H112 C85 0.930 . S
H113 C86 0.931 . S
H114 C87 0.930 . S
H115 C88 0.930 . S
H116 C107 0.930 . S
H117 C108 0.931 . S
H118 C109 0.930 . S
H119 C110 0.930 . S
H120 C125 0.930 . S
H121 C128 0.930 . S
H122 C130 0.930 . S
H123 C124 1.016 . S
C124 H123 1.016 . S
C124 N131 1.286 . S
C125 H120 0.930 . S
C125 C126 1.397 . S
C125 C127 1.361 . S
C126 C125 1.397 . S
C126 C130 1.390 . S
C127 C125 1.361 . S
C127 C128 1.393 . S
C127 N131 1.413 . S
C128 H121 0.930 . S
C128 C127 1.393 . S
C128 C129 1.399 . S
C129 C128 1.399 . S
C129 C130 1.381 . S
C130 H122 0.930 . S
C130 C126 1.390 . S
C130 C129 1.381 . S
N131 C124 1.286 . S
N131 C127 1.413 . S
H132 C137 0.930 . S
H133 C140 0.930 . S
H134 C142 0.930 . S
H135 C136 1.016 . S
C136 H135 1.016 . S
C136 N143 1.286 . S
C137 H132 0.930 . S
C137 C138 1.397 . S
C137 C139 1.361 . S
C138 C137 1.397 . S
C138 C142 1.390 . S
C139 C137 1.361 . S
C139 C140 1.393 . S
C139 N143 1.413 . S
C140 H133 0.930 . S
C140 C139 1.393 . S
C140 C141 1.399 . S
C141 C140 1.399 . S
C141 C142 1.381 . S
C142 H134 0.930 . S
C142 C138 1.390 . S
C142 C141 1.381 . S
N143 C136 1.286 . S
N143 C139 1.413 . S
H144 C149 0.930 . S
H145 C152 0.930 . S
H146 C154 0.930 . S
H147 C148 1.016 . S
C148 H147 1.016 . S
C148 N155 1.286 . S
C149 H144 0.930 . S
C149 C150 1.397 . S
C149 C151 1.361 1_655 S
C150 C149 1.397 . S
C150 C154 1.390 . S
C151 C149 1.361 1_455 S
C151 C152 1.393 . S
C151 N155 1.413 . S
C152 H145 0.930 . S
C152 C151 1.393 . S
C152 C153 1.399 . S
C153 C152 1.399 . S
C153 C154 1.381 1_455 S
C154 H146 0.930 . S
C154 C150 1.390 . S
C154 C153 1.381 1_655 S
N155 C148 1.286 . S
N155 C151 1.413 . S
H156 C161 0.930 . S
H157 C164 0.943 . S
H158 C166 0.930 . S
H159 C160 1.016 . S
C160 H159 1.016 . S
C160 N167 1.286 . S
C161 H156 0.930 . S
C161 C162 1.397 . S
C161 C163 1.361 . S
C162 C161 1.397 . S
C162 C166 1.390 . S
C163 C161 1.361 . S
C163 C164 1.394 1_455 S
C163 N167 1.413 1_455 S
C164 H157 0.943 . S
C164 C163 1.394 1_655 S
C164 C165 1.387 1_655 S
C165 C164 1.387 1_455 S
C165 C166 1.381 . S
C166 H158 0.930 . S
C166 C162 1.390 . S
C166 C165 1.381 . S
N167 C160 1.286 . S
N167 C163 1.413 1_655 S
H168 C173 0.930 . S
H169 C176 0.930 . S
H170 C178 0.930 . S
H171 C172 1.016 . S
C172 H171 1.016 . S
C172 N179 1.286 . S
C173 H168 0.930 . S
C173 C174 1.397 . S
C173 C175 1.361 . S
C174 C173 1.397 . S
C174 C178 1.390 . S
C175 C173 1.361 . S
C175 C176 1.393 1_545 S
C175 N179 1.413 1_545 S
C176 H169 0.930 . S
C176 C175 1.393 1_565 S
C176 C177 1.399 1_565 S
C177 C176 1.399 1_545 S
C177 C178 1.381 . S
C178 H170 0.930 . S
C178 C174 1.390 . S
C178 C177 1.381 . S
N179 C172 1.286 . S
N179 C175 1.413 1_565 S
H180 C185 0.930 . S
H181 C188 0.930 . S
H182 C190 0.930 . S
H183 C184 1.016 . S
C184 H183 1.016 . S
C184 N191 1.286 . S
C185 H180 0.930 . S
C185 C186 1.397 . S
C185 C187 1.361 . S
C186 C185 1.397 . S
C186 C190 1.390 . S
C187 C185 1.361 . S
C187 C188 1.393 . S
C187 N191 1.413 . S
C188 H181 0.930 . S
C188 C187 1.393 . S
C188 C189 1.399 . S
C189 C188 1.399 . S
C189 C190 1.381 . S
C190 H182 0.930 . S
C190 C186 1.390 . S
C190 C189 1.381 . S
N191 C184 1.286 . S
N191 C187 1.413 . S
H192 C210 0.951 . S
H193 C212 0.951 . S
H194 C214 0.950 . S
H195 C215 0.950 . S
H196 C217 0.950 . S
H197 C220 0.950 . S
H198 C221 0.950 . S
H199 C223 0.950 . S
H200 C224 0.950 . S
H201 C225 0.951 . S
H202 C227 0.951 . S
H203 C229 0.950 . S
H204 C230 0.950 . S
H205 C232 0.950 . S
H206 C235 0.950 . S
H207 C236 0.950 . S
H208 C238 0.950 . S
H209 C239 0.950 . S
C210 H192 0.951 . S
C210 C211 1.366 . S
C210 C212 1.388 . S
C211 C210 1.366 . S
C211 C215 1.385 . S
C212 H193 0.951 . S
C212 C210 1.388 . S
C212 C213 1.366 . S
C213 C212 1.366 . S
C213 C214 1.414 . S
C213 C216 1.499 . S
C214 H194 0.950 . S
C214 C213 1.414 . S
C214 C215 1.374 . S
C215 H195 0.950 . S
C215 C211 1.385 . S
C215 C214 1.374 . S
C216 C213 1.499 . S
C216 C217 1.373 . S
C216 C218 1.389 . S
C217 H196 0.950 . S
C217 C216 1.373 . S
C217 C233 1.377 . S
C218 C216 1.389 . S
C218 C219 1.524 . S
C218 C232 1.377 . S
C219 C218 1.524 . S
C219 C220 1.397 . S
C219 C224 1.363 . S
C220 H197 0.950 . S
C220 C219 1.397 . S
C220 C221 1.334 . S
C221 H198 0.950 . S
C221 C220 1.334 . S
C221 C222 1.287 . S
C222 C221 1.287 . S
C222 C223 1.524 . S
C222 H241 0.913 . S
C223 H199 0.950 . S
C223 C222 1.524 . S
C223 C224 1.415 . S
C224 H200 0.950 . S
C224 C219 1.363 . S
C224 C223 1.415 . S
C225 H201 0.951 . S
C225 C226 1.366 . S
C225 C227 1.388 . S
C226 C225 1.366 . S
C226 C230 1.385 . S
C227 H202 0.951 . S
C227 C225 1.388 . S
C227 C228 1.366 . S
C228 C227 1.366 . S
C228 C229 1.414 . S
C228 C231 1.499 . S
C229 H203 0.950 . S
C229 C228 1.414 . S
C229 C230 1.374 . S
C230 H204 0.950 . S
C230 C226 1.385 . S
C230 C229 1.374 . S
C231 C228 1.499 . S
C231 C232 1.373 . S
C231 C233 1.389 . S
C232 H205 0.950 . S
C232 C218 1.377 . S
C232 C231 1.373 . S
C233 C217 1.377 . S
C233 C231 1.389 . S
C233 C234 1.524 . S
C234 C233 1.524 . S
C234 C235 1.397 . S
C234 C239 1.363 . S
C235 H206 0.950 . S
C235 C234 1.397 . S
C235 C236 1.334 . S
C236 H207 0.950 . S
C236 C235 1.334 . S
C236 C237 1.287 . S
C237 C236 1.287 . S
C237 C238 1.524 . S
C237 H240 0.999 . S
C238 H208 0.950 . S
C238 C237 1.524 . S
C238 C239 1.415 . S
C239 H209 0.950 . S
C239 C234 1.363 . S
C239 C238 1.415 . S
H240 C237 0.999 . S
H241 C222 0.913 . S
H242 C260 0.951 . S
H243 C262 0.951 . S
H244 C264 0.950 . S
H245 C265 0.950 . S
H246 C267 0.950 . S
H247 C270 0.950 . S
H248 C271 0.950 . S
H249 C273 0.950 . S
H250 C274 0.950 . S
H251 C275 0.951 . S
H252 C277 0.951 . S
H253 C279 0.950 . S
H254 C280 0.950 . S
H255 C282 0.950 . S
H256 C285 0.950 . S
H257 C286 0.950 . S
H258 C288 0.950 . S
H259 C289 0.950 . S
C260 H242 0.951 . S
C260 C261 1.366 . S
C260 C262 1.388 . S
C261 C260 1.366 . S
C261 C265 1.385 . S
C262 H243 0.951 . S
C262 C260 1.388 . S
C262 C263 1.366 . S
C263 C262 1.366 . S
C263 C264 1.414 . S
C263 C266 1.499 . S
C264 H244 0.950 . S
C264 C263 1.414 . S
C264 C265 1.374 . S
C265 H245 0.950 . S
C265 C261 1.385 . S
C265 C264 1.374 . S
C266 C263 1.499 . S
C266 C267 1.373 . S
C266 C268 1.389 . S
C267 H246 0.950 . S
C267 C266 1.373 . S
C267 C283 1.377 . S
C268 C266 1.389 . S
C268 C269 1.524 . S
C268 C282 1.377 . S
C269 C268 1.524 . S
C269 C270 1.397 . S
C269 C274 1.363 . S
C270 H247 0.950 . S
C270 C269 1.397 . S
C270 C271 1.334 . S
C271 H248 0.950 . S
C271 C270 1.334 . S
C271 C272 1.287 . S
C272 C271 1.287 . S
C272 C273 1.524 . S
C272 H291 0.913 . S
C273 H249 0.950 . S
C273 C272 1.524 . S
C273 C274 1.415 . S
C274 H250 0.950 . S
C274 C269 1.363 . S
C274 C273 1.415 . S
C275 H251 0.951 . S
C275 C276 1.366 . S
C275 C277 1.388 . S
C276 C275 1.366 . S
C276 C280 1.385 . S
C277 H252 0.951 . S
C277 C275 1.388 . S
C277 C278 1.366 . S
C278 C277 1.366 . S
C278 C279 1.414 . S
C278 C281 1.499 . S
C279 H253 0.950 . S
C279 C278 1.414 . S
C279 C280 1.374 . S
C280 H254 0.950 . S
C280 C276 1.385 . S
C280 C279 1.374 . S
C281 C278 1.499 . S
C281 C282 1.373 . S
C281 C283 1.389 . S
C282 H255 0.950 . S
C282 C268 1.377 . S
C282 C281 1.373 . S
C283 C267 1.377 . S
C283 C281 1.389 . S
C283 C284 1.524 . S
C284 C283 1.524 . S
C284 C285 1.397 . S
C284 C289 1.363 . S
C285 H256 0.950 . S
C285 C284 1.397 . S
C285 C286 1.334 . S
C286 H257 0.950 . S
C286 C285 1.334 . S
C286 C287 1.287 . S
C287 C286 1.287 . S
C287 C288 1.524 . S
C287 H290 0.999 . S
C288 H258 0.950 . S
C288 C287 1.524 . S
C288 C289 1.415 . S
C289 H259 0.950 . S
C289 C284 1.363 . S
C289 C288 1.415 . S
H290 C287 0.999 . S
H291 C272 0.913 . S
H292 C310 0.951 . S
H293 C312 0.951 . S
H294 C314 0.950 . S
H295 C315 0.950 . S
H296 C317 0.950 . S
H297 C320 0.950 . S
H298 C321 0.950 . S
H299 C323 0.950 . S
H300 C324 0.950 . S
H301 C325 0.951 . S
H302 C327 0.951 . S
H303 C329 0.950 . S
H304 C330 0.950 . S
H305 C332 0.950 . S
H306 C335 0.950 . S
H307 C336 0.950 . S
H308 C338 0.950 . S
H309 C339 0.950 . S
C310 H292 0.951 . S
C310 C311 1.366 . S
C310 C312 1.388 . S
C311 C310 1.366 . S
C311 C315 1.385 . S
C312 H293 0.951 . S
C312 C310 1.388 . S
C312 C313 1.366 . S
C313 C312 1.366 . S
C313 C314 1.414 . S
C313 C316 1.499 . S
C314 H294 0.950 . S
C314 C313 1.414 . S
C314 C315 1.374 . S
C315 H295 0.950 . S
C315 C311 1.385 . S
C315 C314 1.374 . S
C316 C313 1.499 . S
C316 C317 1.373 . S
C316 C318 1.389 . S
C317 H296 0.950 . S
C317 C316 1.373 . S
C317 C333 1.377 . S
C318 C316 1.389 . S
C318 C319 1.524 . S
C318 C332 1.377 . S
C319 C318 1.524 . S
C319 C320 1.397 . S
C319 C324 1.363 . S
C320 H297 0.950 . S
C320 C319 1.397 . S
C320 C321 1.334 . S
C321 H298 0.950 . S
C321 C320 1.334 . S
C321 C322 1.287 . S
C322 C321 1.287 . S
C322 C323 1.524 . S
C322 H341 0.913 . S
C323 H299 0.950 . S
C323 C322 1.524 . S
C323 C324 1.415 . S
C324 H300 0.950 . S
C324 C319 1.363 . S
C324 C323 1.415 . S
C325 H301 0.951 . S
C325 C326 1.366 . S
C325 C327 1.388 . S
C326 C325 1.366 . S
C326 C330 1.385 . S
C327 H302 0.951 . S
C327 C325 1.388 . S
C327 C328 1.366 . S
C328 C327 1.366 . S
C328 C329 1.414 . S
C328 C331 1.499 . S
C329 H303 0.950 . S
C329 C328 1.414 . S
C329 C330 1.374 . S
C330 H304 0.950 . S
C330 C326 1.385 . S
C330 C329 1.374 . S
C331 C328 1.499 . S
C331 C332 1.373 . S
C331 C333 1.389 . S
C332 H305 0.950 . S
C332 C318 1.377 . S
C332 C331 1.373 . S
C333 C317 1.377 . S
C333 C331 1.389 . S
C333 C334 1.524 . S
C334 C333 1.524 . S
C334 C335 1.397 . S
C334 C339 1.363 . S
C335 H306 0.950 . S
C335 C334 1.397 . S
C335 C336 1.334 . S
C336 H307 0.950 . S
C336 C335 1.334 . S
C336 C337 1.287 . S
C337 C336 1.287 . S
C337 C338 1.524 . S
C337 H340 0.999 . S
C338 H308 0.950 . S
C338 C337 1.524 . S
C338 C339 1.415 . S
C339 H309 0.950 . S
C339 C334 1.363 . S
C339 C338 1.415 . S
H340 C337 0.999 . S
H341 C322 0.913 . S
H342 C360 0.951 . S
H343 C362 0.951 . S
H344 C364 0.950 . S
H345 C365 0.950 . S
H346 C367 0.950 . S
H347 C370 0.950 . S
H348 C371 0.950 . S
H349 C373 0.950 . S
H350 C374 0.950 . S
H351 C375 0.951 . S
H352 C377 0.951 . S
H353 C379 0.950 . S
H354 C380 0.950 . S
H355 C382 0.950 . S
H356 C385 0.950 . S
H357 C386 0.950 . S
H358 C388 0.950 . S
H359 C389 0.950 . S
C360 H342 0.951 . S
C360 C361 1.366 . S
C360 C362 1.388 . S
C361 C360 1.366 . S
C361 C365 1.385 . S
C362 H343 0.951 . S
C362 C360 1.388 . S
C362 C363 1.366 . S
C363 C362 1.366 . S
C363 C364 1.414 . S
C363 C366 1.499 . S
C364 H344 0.950 . S
C364 C363 1.414 . S
C364 C365 1.374 . S
C365 H345 0.950 . S
C365 C361 1.385 . S
C365 C364 1.374 . S
C366 C363 1.499 . S
C366 C367 1.373 . S
C366 C368 1.389 . S
C367 H346 0.950 . S
C367 C366 1.373 . S
C367 C383 1.377 . S
C368 C366 1.389 . S
C368 C369 1.524 . S
C368 C382 1.377 . S
C369 C368 1.524 . S
C369 C370 1.397 . S
C369 C374 1.363 . S
C370 H347 0.950 . S
C370 C369 1.397 . S
C370 C371 1.334 . S
C371 H348 0.950 . S
C371 C370 1.334 . S
C371 C372 1.287 . S
C372 C371 1.287 . S
C372 C373 1.524 . S
C372 H391 0.913 . S
C373 H349 0.950 . S
C373 C372 1.524 . S
C373 C374 1.415 . S
C374 H350 0.950 . S
C374 C369 1.363 . S
C374 C373 1.415 . S
C375 H351 0.951 . S
C375 C376 1.366 . S
C375 C377 1.388 . S
C376 C375 1.366 . S
C376 C380 1.385 . S
C377 H352 0.951 . S
C377 C375 1.388 . S
C377 C378 1.366 . S
C378 C377 1.366 . S
C378 C379 1.414 . S
C378 C381 1.499 . S
C379 H353 0.950 . S
C379 C378 1.414 . S
C379 C380 1.374 . S
C380 H354 0.950 . S
C380 C376 1.385 . S
C380 C379 1.374 . S
C381 C378 1.499 . S
C381 C382 1.373 . S
C381 C383 1.389 . S
C382 H355 0.950 . S
C382 C368 1.377 . S
C382 C381 1.373 . S
C383 C367 1.377 . S
C383 C381 1.389 . S
C383 C384 1.524 . S
C384 C383 1.524 . S
C384 C385 1.397 . S
C384 C389 1.363 . S
C385 H356 0.950 . S
C385 C384 1.397 . S
C385 C386 1.334 . S
C386 H357 0.950 . S
C386 C385 1.334 . S
C386 C387 1.287 . S
C387 C386 1.287 . S
C387 C388 1.524 . S
C387 H390 0.999 . S
C388 H358 0.950 . S
C388 C387 1.524 . S
C388 C389 1.415 . S
C389 H359 0.950 . S
C389 C384 1.363 . S
C389 C388 1.415 . S
H390 C387 0.999 . S
H391 C372 0.913 . S
H392 C410 0.951 . S
H393 C412 0.951 . S
H394 C414 0.950 . S
H395 C415 0.950 . S
H396 C417 0.950 . S
H397 C420 0.950 . S
H398 C421 0.950 . S
H399 C423 0.950 . S
H400 C424 0.950 . S
H401 C425 0.951 . S
H402 C427 0.951 . S
H403 C429 0.950 . S
H404 C430 0.950 . S
H405 C432 0.950 . S
H406 C435 0.950 . S
H407 C436 0.950 . S
H408 C438 0.950 . S
H409 C439 0.950 . S
C410 H392 0.951 . S
C410 C411 1.366 . S
C410 C412 1.388 . S
C411 C410 1.366 . S
C411 C415 1.385 . S
C412 H393 0.951 . S
C412 C410 1.388 . S
C412 C413 1.366 . S
C413 C412 1.366 . S
C413 C414 1.414 . S
C413 C416 1.499 . S
C414 H394 0.950 . S
C414 C413 1.414 . S
C414 C415 1.374 . S
C415 H395 0.950 . S
C415 C411 1.385 . S
C415 C414 1.374 . S
C416 C413 1.499 . S
C416 C417 1.373 . S
C416 C418 1.389 . S
C417 H396 0.950 . S
C417 C416 1.373 . S
C417 C433 1.377 . S
C418 C416 1.389 . S
C418 C419 1.524 . S
C418 C432 1.377 . S
C419 C418 1.524 . S
C419 C420 1.397 . S
C419 C424 1.363 . S
C420 H397 0.950 . S
C420 C419 1.397 . S
C420 C421 1.334 . S
C421 H398 0.950 . S
C421 C420 1.334 . S
C421 C422 1.287 . S
C422 C421 1.287 . S
C422 C423 1.524 . S
C422 H441 0.913 . S
C423 H399 0.950 . S
C423 C422 1.524 . S
C423 C424 1.415 . S
C424 H400 0.950 . S
C424 C419 1.363 . S
C424 C423 1.415 . S
C425 H401 0.951 . S
C425 C426 1.366 . S
C425 C427 1.388 . S
C426 C425 1.366 . S
C426 C430 1.385 . S
C427 H402 0.951 . S
C427 C425 1.388 . S
C427 C428 1.366 . S
C428 C427 1.366 . S
C428 C429 1.414 . S
C428 C431 1.499 . S
C429 H403 0.950 . S
C429 C428 1.414 . S
C429 C430 1.374 . S
C430 H404 0.950 . S
C430 C426 1.385 . S
C430 C429 1.374 . S
C431 C428 1.499 . S
C431 C432 1.373 . S
C431 C433 1.389 . S
C432 H405 0.950 . S
C432 C418 1.377 . S
C432 C431 1.373 . S
C433 C417 1.377 . S
C433 C431 1.389 . S
C433 C434 1.524 . S
C434 C433 1.524 . S
C434 C435 1.397 . S
C434 C439 1.363 . S
C435 H406 0.950 . S
C435 C434 1.397 . S
C435 C436 1.334 . S
C436 H407 0.950 . S
C436 C435 1.334 . S
C436 C437 1.287 . S
C437 C436 1.287 . S
C437 C438 1.524 . S
C437 H440 0.999 . S
C438 H408 0.950 . S
C438 C437 1.524 . S
C438 C439 1.415 . S
C439 H409 0.950 . S
C439 C434 1.363 . S
C439 C438 1.415 . S
H440 C437 0.999 . S
H441 C422 0.913 . S
H442 C460 0.951 . S
H443 C462 0.951 . S
H444 C464 0.950 . S
H445 C465 0.950 . S
H446 C467 0.950 . S
H447 C470 0.950 . S
H448 C471 0.950 . S
H449 C473 0.950 . S
H450 C474 0.950 . S
H451 C475 0.951 . S
H452 C477 0.951 . S
H453 C479 0.950 . S
H454 C480 0.950 . S
H455 C482 0.950 . S
H456 C485 0.950 . S
H457 C486 0.950 . S
H458 C488 0.950 . S
H459 C489 0.950 . S
C460 H442 0.951 . S
C460 C461 1.366 . S
C460 C462 1.388 . S
C461 C460 1.366 . S
C461 C465 1.385 . S
C462 H443 0.951 . S
C462 C460 1.388 . S
C462 C463 1.366 . S
C463 C462 1.366 . S
C463 C464 1.414 . S
C463 C466 1.499 . S
C464 H444 0.950 . S
C464 C463 1.414 . S
C464 C465 1.374 . S
C465 H445 0.950 . S
C465 C461 1.385 . S
C465 C464 1.374 . S
C466 C463 1.499 . S
C466 C467 1.373 . S
C466 C468 1.389 . S
C467 H446 0.950 . S
C467 C466 1.373 . S
C467 C483 1.377 . S
C468 C466 1.389 . S
C468 C469 1.524 . S
C468 C482 1.377 . S
C469 C468 1.524 . S
C469 C470 1.397 . S
C469 C474 1.363 . S
C470 H447 0.950 . S
C470 C469 1.397 . S
C470 C471 1.334 . S
C471 H448 0.950 . S
C471 C470 1.334 . S
C471 C472 1.287 . S
C472 C471 1.287 . S
C472 C473 1.524 . S
C472 H491 0.913 . S
C473 H449 0.950 . S
C473 C472 1.524 . S
C473 C474 1.415 . S
C474 H450 0.950 . S
C474 C469 1.363 . S
C474 C473 1.415 . S
C475 H451 0.951 . S
C475 C476 1.366 . S
C475 C477 1.388 . S
C476 C475 1.366 . S
C476 C480 1.385 . S
C477 H452 0.951 . S
C477 C475 1.388 . S
C477 C478 1.366 . S
C478 C477 1.366 . S
C478 C479 1.414 . S
C478 C481 1.499 . S
C479 H453 0.950 . S
C479 C478 1.414 . S
C479 C480 1.374 . S
C480 H454 0.950 . S
C480 C476 1.385 . S
C480 C479 1.374 . S
C481 C478 1.499 . S
C481 C482 1.373 . S
C481 C483 1.389 . S
C482 H455 0.950 . S
C482 C468 1.377 . S
C482 C481 1.373 . S
C483 C467 1.377 . S
C483 C481 1.389 . S
C483 C484 1.524 . S
C484 C483 1.524 . S
C484 C485 1.397 . S
C484 C489 1.363 . S
C485 H456 0.950 . S
C485 C484 1.397 . S
C485 C486 1.334 . S
C486 H457 0.950 . S
C486 C485 1.334 . S
C486 C487 1.287 . S
C487 C486 1.287 . S
C487 C488 1.524 . S
C487 H490 0.999 . S
C488 H458 0.950 . S
C488 C487 1.524 . S
C488 C489 1.415 . S
C489 H459 0.950 . S
C489 C484 1.363 . S
C489 C488 1.415 . S
H490 C487 0.999 . S
H491 C472 0.913 . S
H492 C510 0.951 . S
H493 C512 0.951 . S
H494 C514 0.950 . S
H495 C515 0.950 . S
H496 C517 0.950 . S
H497 C520 0.950 . S
H498 C521 0.950 . S
H499 C523 0.950 . S
H500 C524 0.950 . S
H501 C525 0.951 . S
H502 C527 0.951 . S
H503 C529 0.950 . S
H504 C530 0.950 . S
H505 C532 0.950 . S
H506 C535 0.950 . S
H507 C536 0.950 . S
H508 C538 0.950 . S
H509 C539 0.950 . S
C510 H492 0.951 . S
C510 C511 1.366 . S
C510 C512 1.388 . S
C511 C510 1.366 . S
C511 C515 1.385 . S
C512 H493 0.951 . S
C512 C510 1.388 . S
C512 C513 1.366 . S
C513 C512 1.366 . S
C513 C514 1.414 . S
C513 C516 1.499 . S
C514 H494 0.950 . S
C514 C513 1.414 . S
C514 C515 1.374 . S
C515 H495 0.950 . S
C515 C511 1.385 . S
C515 C514 1.374 . S
C516 C513 1.499 . S
C516 C517 1.373 . S
C516 C518 1.389 . S
C517 H496 0.950 . S
C517 C516 1.373 . S
C517 C533 1.377 . S
C518 C516 1.389 . S
C518 C519 1.524 . S
C518 C532 1.377 . S
C519 C518 1.524 . S
C519 C520 1.397 . S
C519 C524 1.363 . S
C520 H497 0.950 . S
C520 C519 1.397 . S
C520 C521 1.334 . S
C521 H498 0.950 . S
C521 C520 1.334 . S
C521 C522 1.287 . S
C522 C521 1.287 . S
C522 C523 1.524 . S
C522 H541 0.913 . S
C523 H499 0.950 . S
C523 C522 1.524 . S
C523 C524 1.415 . S
C524 H500 0.950 . S
C524 C519 1.363 . S
C524 C523 1.415 . S
C525 H501 0.951 . S
C525 C526 1.366 . S
C525 C527 1.388 . S
C526 C525 1.366 . S
C526 C530 1.385 . S
C527 H502 0.951 . S
C527 C525 1.388 . S
C527 C528 1.366 . S
C528 C527 1.366 . S
C528 C529 1.414 . S
C528 C531 1.499 . S
C529 H503 0.950 . S
C529 C528 1.414 . S
C529 C530 1.374 . S
C530 H504 0.950 . S
C530 C526 1.385 . S
C530 C529 1.374 . S
C531 C528 1.499 . S
C531 C532 1.373 . S
C531 C533 1.389 . S
C532 H505 0.950 . S
C532 C518 1.377 . S
C532 C531 1.373 . S
C533 C517 1.377 . S
C533 C531 1.389 . S
C533 C534 1.524 . S
C534 C533 1.524 . S
C534 C535 1.397 . S
C534 C539 1.363 . S
C535 H506 0.950 . S
C535 C534 1.397 . S
C535 C536 1.334 . S
C536 H507 0.950 . S
C536 C535 1.334 . S
C536 C537 1.287 . S
C537 C536 1.287 . S
C537 C538 1.524 . S
C537 H540 0.999 . S
C538 H508 0.950 . S
C538 C537 1.524 . S
C538 C539 1.415 . S
C539 H509 0.950 . S
C539 C534 1.363 . S
C539 C538 1.415 . S
H540 C537 0.999 . S
H541 C522 0.913 . S
H542 C560 0.951 . S
H543 C562 0.951 . S
H544 C564 0.950 . S
H545 C565 0.950 . S
H546 C567 0.950 . S
H547 C570 0.950 . S
H548 C571 0.950 . S
H549 C573 0.950 . S
H550 C574 0.950 . S
H551 C575 0.951 . S
H552 C577 0.951 . S
H553 C579 0.950 . S
H554 C580 0.950 . S
H555 C582 0.950 . S
H556 C585 0.950 . S
H557 C586 0.950 . S
H558 C588 0.950 . S
H559 C589 0.950 . S
C560 H542 0.951 . S
C560 C561 1.366 . S
C560 C562 1.388 . S
C561 C560 1.366 . S
C561 C565 1.385 . S
C562 H543 0.951 . S
C562 C560 1.388 . S
C562 C563 1.366 . S
C563 C562 1.366 . S
C563 C564 1.414 . S
C563 C566 1.499 . S
C564 H544 0.950 . S
C564 C563 1.414 . S
C564 C565 1.374 . S
C565 H545 0.950 . S
C565 C561 1.385 . S
C565 C564 1.374 . S
C566 C563 1.499 . S
C566 C567 1.373 . S
C566 C568 1.389 . S
C567 H546 0.950 . S
C567 C566 1.373 . S
C567 C583 1.377 . S
C568 C566 1.389 . S
C568 C569 1.524 . S
C568 C582 1.377 . S
C569 C568 1.524 . S
C569 C570 1.397 . S
C569 C574 1.363 . S
C570 H547 0.950 . S
C570 C569 1.397 . S
C570 C571 1.334 . S
C571 H548 0.950 . S
C571 C570 1.334 . S
C571 C572 1.287 . S
C572 C571 1.287 . S
C572 C573 1.524 . S
C572 H591 0.913 . S
C573 H549 0.950 . S
C573 C572 1.524 . S
C573 C574 1.415 . S
C574 H550 0.950 . S
C574 C569 1.363 . S
C574 C573 1.415 . S
C575 H551 0.951 . S
C575 C576 1.366 . S
C575 C577 1.388 . S
C576 C575 1.366 . S
C576 C580 1.385 . S
C577 H552 0.951 . S
C577 C575 1.388 . S
C577 C578 1.366 . S
C578 C577 1.366 . S
C578 C579 1.414 . S
C578 C581 1.499 . S
C579 H553 0.950 . S
C579 C578 1.414 . S
C579 C580 1.374 . S
C580 H554 0.950 . S
C580 C576 1.385 . S
C580 C579 1.374 . S
C581 C578 1.499 . S
C581 C582 1.373 . S
C581 C583 1.389 . S
C582 H555 0.950 . S
C582 C568 1.377 . S
C582 C581 1.373 . S
C583 C567 1.377 . S
C583 C581 1.389 . S
C583 C584 1.524 . S
C584 C583 1.524 . S
C584 C585 1.397 . S
C584 C589 1.363 . S
C585 H556 0.950 . S
C585 C584 1.397 . S
C585 C586 1.334 . S
C586 H557 0.950 . S
C586 C585 1.334 . S
C586 C587 1.287 . S
C587 C586 1.287 . S
C587 C588 1.524 . S
C587 H590 0.999 . S
C588 H558 0.950 . S
C588 C587 1.524 . S
C588 C589 1.415 . S
C589 H559 0.950 . S
C589 C584 1.363 . S
C589 C588 1.415 . S
H590 C587 0.999 . S
H591 C572 0.913 . S
H592 C610 0.951 . S
H593 C612 0.951 . S
H594 C614 0.950 . S
H595 C615 0.950 . S
H596 C617 0.950 . S
H597 C620 0.950 . S
H598 C621 0.950 . S
H599 C623 0.950 . S
H600 C624 0.950 . S
H601 C625 0.951 . S
H602 C627 0.951 . S
H603 C629 0.950 . S
H604 C630 0.950 . S
H605 C632 0.950 . S
H606 C635 0.950 . S
H607 C636 0.950 . S
H608 C638 0.950 . S
H609 C639 0.950 . S
C610 H592 0.951 . S
C610 C611 1.366 . S
C610 C612 1.388 . S
C611 C610 1.366 . S
C611 C615 1.385 . S
C612 H593 0.951 . S
C612 C610 1.388 . S
C612 C613 1.366 . S
C613 C612 1.366 . S
C613 C614 1.414 . S
C613 C616 1.499 . S
C614 H594 0.950 . S
C614 C613 1.414 . S
C614 C615 1.374 . S
C615 H595 0.950 . S
C615 C611 1.385 . S
C615 C614 1.374 . S
C616 C613 1.499 . S
C616 C617 1.373 . S
C616 C618 1.389 . S
C617 H596 0.950 . S
C617 C616 1.373 . S
C617 C633 1.377 . S
C618 C616 1.389 . S
C618 C619 1.524 . S
C618 C632 1.377 . S
C619 C618 1.524 . S
C619 C620 1.397 . S
C619 C624 1.363 . S
C620 H597 0.950 . S
C620 C619 1.397 . S
C620 C621 1.334 . S
C621 H598 0.950 . S
C621 C620 1.334 . S
C621 C622 1.287 . S
C622 C621 1.287 . S
C622 C623 1.524 . S
C622 H641 0.913 . S
C623 H599 0.950 . S
C623 C622 1.524 . S
C623 C624 1.415 . S
C624 H600 0.950 . S
C624 C619 1.363 . S
C624 C623 1.415 . S
C625 H601 0.951 . S
C625 C626 1.366 . S
C625 C627 1.388 . S
C626 C625 1.366 . S
C626 C630 1.385 . S
C627 H602 0.951 . S
C627 C625 1.388 . S
C627 C628 1.366 . S
C628 C627 1.366 . S
C628 C629 1.414 . S
C628 C631 1.499 . S
C629 H603 0.950 . S
C629 C628 1.414 . S
C629 C630 1.374 . S
C630 H604 0.950 . S
C630 C626 1.385 . S
C630 C629 1.374 . S
C631 C628 1.499 . S
C631 C632 1.373 . S
C631 C633 1.389 . S
C632 H605 0.950 . S
C632 C618 1.377 . S
C632 C631 1.373 . S
C633 C617 1.377 . S
C633 C631 1.389 . S
C633 C634 1.524 . S
C634 C633 1.524 . S
C634 C635 1.397 . S
C634 C639 1.363 . S
C635 H606 0.950 . S
C635 C634 1.397 . S
C635 C636 1.334 . S
C636 H607 0.950 . S
C636 C635 1.334 . S
C636 C637 1.287 . S
C637 C636 1.287 . S
C637 C638 1.524 . S
C637 H640 0.999 . S
C638 H608 0.950 . S
C638 C637 1.524 . S
C638 C639 1.415 . S
C639 H609 0.950 . S
C639 C634 1.363 . S
C639 C638 1.415 . S
H640 C637 0.999 . S
H641 C622 0.913 . S
H642 C660 0.951 . S
H643 C662 0.951 . S
H644 C664 0.950 . S
H645 C665 0.950 . S
H646 C667 0.950 . S
H647 C670 0.950 . S
H648 C671 0.950 . S
H649 C673 0.950 . S
H650 C674 0.950 . S
H651 C675 0.951 . S
H652 C677 0.951 . S
H653 C679 0.950 . S
H654 C680 0.950 . S
H655 C682 0.950 . S
H656 C685 0.950 . S
H657 C686 0.950 . S
H658 C688 0.950 . S
H659 C689 0.950 . S
C660 H642 0.951 . S
C660 C661 1.366 . S
C660 C662 1.388 . S
C661 C660 1.366 . S
C661 C665 1.385 . S
C662 H643 0.951 . S
C662 C660 1.388 . S
C662 C663 1.366 . S
C663 C662 1.366 . S
C663 C664 1.414 . S
C663 C666 1.499 . S
C664 H644 0.950 . S
C664 C663 1.414 . S
C664 C665 1.374 . S
C665 H645 0.950 . S
C665 C661 1.385 . S
C665 C664 1.374 . S
C666 C663 1.499 . S
C666 C667 1.373 . S
C666 C668 1.389 . S
C667 H646 0.950 . S
C667 C666 1.373 . S
C667 C683 1.377 . S
C668 C666 1.389 . S
C668 C669 1.524 . S
C668 C682 1.377 . S
C669 C668 1.524 . S
C669 C670 1.397 . S
C669 C674 1.363 . S
C670 H647 0.950 . S
C670 C669 1.397 . S
C670 C671 1.334 . S
C671 H648 0.950 . S
C671 C670 1.334 . S
C671 C672 1.287 . S
C672 C671 1.287 . S
C672 C673 1.524 . S
C672 H691 0.913 . S
C673 H649 0.950 . S
C673 C672 1.524 . S
C673 C674 1.415 . S
C674 H650 0.950 . S
C674 C669 1.363 . S
C674 C673 1.415 . S
C675 H651 0.951 . S
C675 C676 1.366 . S
C675 C677 1.388 . S
C676 C675 1.366 . S
C676 C680 1.385 . S
C677 H652 0.951 . S
C677 C675 1.388 . S
C677 C678 1.366 . S
C678 C677 1.366 . S
C678 C679 1.414 . S
C678 C681 1.499 . S
C679 H653 0.950 . S
C679 C678 1.414 . S
C679 C680 1.374 . S
C680 H654 0.950 . S
C680 C676 1.385 . S
C680 C679 1.374 . S
C681 C678 1.499 . S
C681 C682 1.373 . S
C681 C683 1.389 . S
C682 H655 0.950 . S
C682 C668 1.377 . S
C682 C681 1.373 . S
C683 C667 1.377 . S
C683 C681 1.389 . S
C683 C684 1.524 . S
C684 C683 1.524 . S
C684 C685 1.397 . S
C684 C689 1.363 . S
C685 H656 0.950 . S
C685 C684 1.397 . S
C685 C686 1.334 . S
C686 H657 0.950 . S
C686 C685 1.334 . S
C686 C687 1.287 . S
C687 C686 1.287 . S
C687 C688 1.524 . S
C687 H690 0.999 . S
C688 H658 0.950 . S
C688 C687 1.524 . S
C688 C689 1.415 . S
C689 H659 0.950 . S
C689 C684 1.363 . S
C689 C688 1.415 . S
H690 C687 0.999 . S
H691 C672 0.913 . S
H692 C710 0.951 . S
H693 C712 0.951 . S
H694 C714 0.950 . S
H695 C715 0.950 . S
H696 C717 0.950 . S
H697 C720 0.950 . S
H698 C721 0.950 . S
H699 C723 0.950 . S
H700 C724 0.950 . S
H701 C725 0.951 . S
H702 C727 0.951 . S
H703 C729 0.950 . S
H704 C730 0.950 . S
H705 C732 0.950 . S
H706 C735 0.950 . S
H707 C736 0.950 . S
H708 C738 0.950 . S
H709 C739 0.950 . S
C710 H692 0.951 . S
C710 C711 1.366 . S
C710 C712 1.388 . S
C711 C710 1.366 . S
C711 C715 1.385 . S
C712 H693 0.951 . S
C712 C710 1.388 . S
C712 C713 1.366 . S
C713 C712 1.366 . S
C713 C714 1.414 . S
C713 C716 1.499 . S
C714 H694 0.950 . S
C714 C713 1.414 . S
C714 C715 1.374 . S
C715 H695 0.950 . S
C715 C711 1.385 . S
C715 C714 1.374 . S
C716 C713 1.499 . S
C716 C717 1.373 . S
C716 C718 1.389 . S
C717 H696 0.950 . S
C717 C716 1.373 . S
C717 C733 1.377 . S
C718 C716 1.389 . S
C718 C719 1.524 . S
C718 C732 1.377 . S
C719 C718 1.524 . S
C719 C720 1.397 . S
C719 C724 1.363 . S
C720 H697 0.950 . S
C720 C719 1.397 . S
C720 C721 1.334 . S
C721 H698 0.950 . S
C721 C720 1.334 . S
C721 C722 1.287 . S
C722 C721 1.287 . S
C722 C723 1.524 . S
C722 H741 0.913 . S
C723 H699 0.950 . S
C723 C722 1.524 . S
C723 C724 1.415 . S
C724 H700 0.950 . S
C724 C719 1.363 . S
C724 C723 1.415 . S
C725 H701 0.951 . S
C725 C726 1.366 . S
C725 C727 1.388 . S
C726 C725 1.366 . S
C726 C730 1.385 . S
C727 H702 0.951 . S
C727 C725 1.388 . S
C727 C728 1.366 . S
C728 C727 1.366 . S
C728 C729 1.414 . S
C728 C731 1.499 . S
C729 H703 0.950 . S
C729 C728 1.414 . S
C729 C730 1.374 . S
C730 H704 0.950 . S
C730 C726 1.385 . S
C730 C729 1.374 . S
C731 C728 1.499 . S
C731 C732 1.373 . S
C731 C733 1.389 . S
C732 H705 0.950 . S
C732 C718 1.377 . S
C732 C731 1.373 . S
C733 C717 1.377 . S
C733 C731 1.389 . S
C733 C734 1.524 . S
C734 C733 1.524 . S
C734 C735 1.397 . S
C734 C739 1.363 . S
C735 H706 0.950 . S
C735 C734 1.397 . S
C735 C736 1.334 . S
C736 H707 0.950 . S
C736 C735 1.334 . S
C736 C737 1.287 . S
C737 C736 1.287 . S
C737 C738 1.524 . S
C737 H740 0.999 . S
C738 H708 0.950 . S
C738 C737 1.524 . S
C738 C739 1.415 . S
C739 H709 0.950 . S
C739 C734 1.363 . S
C739 C738 1.415 . S
H740 C737 0.999 . S
H741 C722 0.913 . S
H742 C760 0.951 . S
H743 C762 0.951 . S
H744 C764 0.950 . S
H745 C765 0.950 . S
H746 C767 0.950 . S
H747 C770 0.950 . S
H748 C771 0.950 . S
H749 C773 0.950 . S
H750 C774 0.950 . S
H751 C775 0.951 . S
H752 C777 0.951 . S
H753 C779 0.950 . S
H754 C780 0.950 . S
H755 C782 0.950 . S
H756 C785 0.950 . S
H757 C786 0.950 . S
H758 C788 0.950 . S
H759 C789 0.950 . S
C760 H742 0.951 . S
C760 C761 1.366 . S
C760 C762 1.388 . S
C761 C760 1.366 . S
C761 C765 1.385 . S
C762 H743 0.951 . S
C762 C760 1.388 . S
C762 C763 1.366 . S
C763 C762 1.366 . S
C763 C764 1.414 . S
C763 C766 1.499 . S
C764 H744 0.950 . S
C764 C763 1.414 . S
C764 C765 1.374 . S
C765 H745 0.950 . S
C765 C761 1.385 . S
C765 C764 1.374 . S
C766 C763 1.499 . S
C766 C767 1.373 . S
C766 C768 1.389 . S
C767 H746 0.950 . S
C767 C766 1.373 . S
C767 C783 1.377 . S
C768 C766 1.389 . S
C768 C769 1.524 . S
C768 C782 1.377 . S
C769 C768 1.524 . S
C769 C770 1.397 . S
C769 C774 1.363 . S
C770 H747 0.950 . S
C770 C769 1.397 . S
C770 C771 1.334 . S
C771 H748 0.950 . S
C771 C770 1.334 . S
C771 C772 1.287 . S
C772 C771 1.287 . S
C772 C773 1.524 . S
C772 H791 0.913 . S
C773 H749 0.950 . S
C773 C772 1.524 . S
C773 C774 1.415 . S
C774 H750 0.950 . S
C774 C769 1.363 . S
C774 C773 1.415 . S
C775 H751 0.951 . S
C775 C776 1.366 . S
C775 C777 1.388 . S
C776 C775 1.366 . S
C776 C780 1.385 . S
C777 H752 0.951 . S
C777 C775 1.388 . S
C777 C778 1.366 . S
C778 C777 1.366 . S
C778 C779 1.414 . S
C778 C781 1.499 . S
C779 H753 0.950 . S
C779 C778 1.414 . S
C779 C780 1.374 . S
C780 H754 0.950 . S
C780 C776 1.385 . S
C780 C779 1.374 . S
C781 C778 1.499 . S
C781 C782 1.373 . S
C781 C783 1.389 . S
C782 H755 0.950 . S
C782 C768 1.377 . S
C782 C781 1.373 . S
C783 C767 1.377 . S
C783 C781 1.389 . S
C783 C784 1.524 . S
C784 C783 1.524 . S
C784 C785 1.397 . S
C784 C789 1.363 . S
C785 H756 0.950 . S
C785 C784 1.397 . S
C785 C786 1.334 . S
C786 H757 0.950 . S
C786 C785 1.334 . S
C786 C787 1.287 . S
C787 C786 1.287 . S
C787 C788 1.524 . S
C787 H790 0.999 . S
C788 H758 0.950 . S
C788 C787 1.524 . S
C788 C789 1.415 . S
C789 H759 0.950 . S
C789 C784 1.363 . S
C789 C788 1.415 . S
H790 C787 0.999 . S
H791 C772 0.913 . S
H792 C810 0.951 . S
H793 C812 0.951 . S
H794 C814 0.958 . S
H795 C815 0.950 . S
H796 C817 0.950 . S
H797 C820 0.950 1_655 S
H798 C821 0.950 1_655 S
H799 C823 0.950 . S
H800 C824 0.950 . S
H801 C825 0.951 . S
H802 C827 0.947 1_655 S
H803 C829 0.950 . S
H804 C830 0.950 . S
H805 C832 0.924 1_556 S
H806 C835 0.950 . S
H807 C836 0.950 . S
H808 C838 0.950 1_655 S
H809 C839 0.953 1_654 S
C810 H792 0.951 . S
C810 C811 1.366 . S
C810 C812 1.388 . S
C811 C810 1.366 . S
C811 C815 1.385 . S
C812 H793 0.951 . S
C812 C810 1.388 . S
C812 C813 1.366 . S
C813 C812 1.366 . S
C813 C814 1.414 . S
C813 C816 1.499 . S
C814 H794 0.958 . S
C814 C813 1.414 . S
C814 C815 1.374 . S
C815 H795 0.950 . S
C815 C811 1.385 . S
C815 C814 1.374 . S
C816 C813 1.499 . S
C816 C817 1.373 . S
C816 C818 1.389 . S
C817 H796 0.950 . S
C817 C816 1.373 . S
C817 C833 1.377 . S
C818 C816 1.389 . S
C818 C819 1.524 . S
C818 C832 1.377 . S
C819 C818 1.524 . S
C819 C820 1.397 . S
C819 C824 1.363 . S
C820 H797 0.950 1_455 S
C820 C819 1.397 . S
C820 C821 1.334 . S
C821 H798 0.950 1_455 S
C821 C820 1.334 . S
C821 C822 1.287 . S
C822 C821 1.287 . S
C822 C823 1.524 . S
C822 H841 0.913 . S
C823 H799 0.950 . S
C823 C822 1.524 . S
C823 C824 1.415 . S
C824 H800 0.950 . S
C824 C819 1.363 . S
C824 C823 1.415 . S
C825 H801 0.951 . S
C825 C826 1.366 1_655 S
C825 C827 1.387 1_655 S
C826 C825 1.366 1_455 S
C826 C830 1.385 . S
C827 H802 0.947 1_455 S
C827 C825 1.387 1_455 S
C827 C828 1.369 . S
C828 C827 1.369 . S
C828 C829 1.414 . S
C828 C831 1.499 . S
C829 H803 0.950 . S
C829 C828 1.414 . S
C829 C830 1.374 . S
C830 H804 0.950 . S
C830 C826 1.385 . S
C830 C829 1.374 . S
C831 C828 1.499 . S
C831 C832 1.373 1_556 S
C831 C833 1.389 1_556 S
C832 H805 0.924 1_554 S
C832 C818 1.377 . S
C832 C831 1.373 1_554 S
C833 C817 1.377 . S
C833 C831 1.389 1_554 S
C833 C834 1.524 1_554 S
C834 C833 1.524 1_556 S
C834 C835 1.397 . S
C834 C839 1.361 . S
C835 H806 0.950 . S
C835 C834 1.397 . S
C835 C836 1.334 . S
C836 H807 0.950 . S
C836 C835 1.334 . S
C836 C837 1.287 . S
C837 C836 1.287 . S
C837 C838 1.524 . S
C837 H840 0.999 . S
C838 H808 0.950 1_455 S
C838 C837 1.524 . S
C838 C839 1.413 . S
C839 H809 0.953 1_456 S
C839 C834 1.361 . S
C839 C838 1.413 . S
H840 C837 0.999 . S
H841 C822 0.913 . S
H842 C860 0.951 . S
H843 C862 0.951 . S
H844 C864 0.950 . S
H845 C865 0.950 . S
H846 C867 0.950 . S
H847 C870 0.950 . S
H848 C871 0.950 . S
H849 C873 0.950 . S
H850 C874 0.950 . S
H851 C875 0.951 . S
H852 C877 0.951 . S
H853 C879 0.950 . S
H854 C880 0.950 . S
H855 C882 0.950 . S
H856 C885 0.950 . S
H857 C886 0.950 . S
H858 C888 0.950 . S
H859 C889 0.950 . S
C860 H842 0.951 . S
C860 C861 1.366 . S
C860 C862 1.388 . S
C861 C860 1.366 . S
C861 C865 1.385 . S
C862 H843 0.951 . S
C862 C860 1.388 . S
C862 C863 1.366 . S
C863 C862 1.366 . S
C863 C864 1.414 . S
C863 C866 1.499 . S
C864 H844 0.950 . S
C864 C863 1.414 . S
C864 C865 1.374 . S
C865 H845 0.950 . S
C865 C861 1.385 . S
C865 C864 1.374 . S
C866 C863 1.499 . S
C866 C867 1.373 . S
C866 C868 1.389 . S
C867 H846 0.950 . S
C867 C866 1.373 . S
C867 C883 1.377 . S
C868 C866 1.389 . S
C868 C869 1.524 . S
C868 C882 1.377 . S
C869 C868 1.524 . S
C869 C870 1.397 . S
C869 C874 1.363 . S
C870 H847 0.950 . S
C870 C869 1.397 . S
C870 C871 1.334 . S
C871 H848 0.950 . S
C871 C870 1.334 . S
C871 C872 1.287 . S
C872 C871 1.287 . S
C872 C873 1.524 . S
C872 H891 0.913 . S
C873 H849 0.950 . S
C873 C872 1.524 . S
C873 C874 1.415 . S
C874 H850 0.950 . S
C874 C869 1.363 . S
C874 C873 1.415 . S
C875 H851 0.951 . S
C875 C876 1.366 . S
C875 C877 1.388 . S
C876 C875 1.366 . S
C876 C880 1.385 . S
C877 H852 0.951 . S
C877 C875 1.388 . S
C877 C878 1.366 . S
C878 C877 1.366 . S
C878 C879 1.414 . S
C878 C881 1.499 . S
C879 H853 0.950 . S
C879 C878 1.414 . S
C879 C880 1.374 . S
C880 H854 0.950 . S
C880 C876 1.385 . S
C880 C879 1.374 . S
C881 C878 1.499 . S
C881 C882 1.373 . S
C881 C883 1.389 . S
C882 H855 0.950 . S
C882 C868 1.377 . S
C882 C881 1.373 . S
C883 C867 1.377 . S
C883 C881 1.389 . S
C883 C884 1.524 1_545 S
C884 C883 1.524 1_565 S
C884 C885 1.397 1_565 S
C884 C889 1.363 . S
C885 H856 0.950 . S
C885 C884 1.397 1_545 S
C885 C886 1.334 1_545 S
C886 H857 0.950 . S
C886 C885 1.334 1_565 S
C886 C887 1.287 . S
C887 C886 1.287 . S
C887 C888 1.524 . S
C887 H890 0.999 . S
C888 H858 0.950 . S
C888 C887 1.524 . S
C888 C889 1.415 . S
C889 H859 0.950 . S
C889 C884 1.363 . S
C889 C888 1.415 . S
H890 C887 0.999 . S
H891 C872 0.913 . S
H892 C910 0.951 . S
H893 C912 0.951 . S
H894 C914 0.950 . S
H895 C915 0.950 . S
H896 C917 0.950 . S
H897 C920 0.950 . S
H898 C921 0.950 . S
H899 C923 0.950 . S
H900 C924 0.950 . S
H901 C925 0.951 . S
H902 C927 0.951 . S
H903 C929 0.950 . S
H904 C930 0.950 . S
H905 C932 0.950 . S
H906 C935 0.950 . S
H907 C936 0.950 . S
H908 C938 0.950 . S
H909 C939 0.950 . S
C910 H892 0.951 . S
C910 C911 1.366 . S
C910 C912 1.388 . S
C911 C910 1.366 . S
C911 C915 1.385 . S
C912 H893 0.951 . S
C912 C910 1.388 . S
C912 C913 1.366 . S
C913 C912 1.366 . S
C913 C914 1.414 . S
C913 C916 1.499 . S
C914 H894 0.950 . S
C914 C913 1.414 . S
C914 C915 1.374 . S
C915 H895 0.950 . S
C915 C911 1.385 . S
C915 C914 1.374 . S
C916 C913 1.499 . S
C916 C917 1.373 . S
C916 C918 1.389 . S
C917 H896 0.950 . S
C917 C916 1.373 . S
C917 C933 1.377 . S
C918 C916 1.389 . S
C918 C919 1.524 . S
C918 C932 1.377 . S
C919 C918 1.524 . S
C919 C920 1.397 . S
C919 C924 1.363 . S
C920 H897 0.950 . S
C920 C919 1.397 . S
C920 C921 1.334 . S
C921 H898 0.950 . S
C921 C920 1.334 . S
C921 C922 1.287 . S
C922 C921 1.287 . S
C922 C923 1.524 . S
C922 H941 0.913 . S
C923 H899 0.950 . S
C923 C922 1.524 . S
C923 C924 1.415 . S
C924 H900 0.950 . S
C924 C919 1.363 . S
C924 C923 1.415 . S
C925 H901 0.951 . S
C925 C926 1.366 . S
C925 C927 1.388 . S
C926 C925 1.366 . S
C926 C930 1.385 . S
C927 H902 0.951 . S
C927 C925 1.388 . S
C927 C928 1.366 . S
C928 C927 1.366 . S
C928 C929 1.414 . S
C928 C931 1.499 . S
C929 H903 0.950 . S
C929 C928 1.414 . S
C929 C930 1.374 . S
C930 H904 0.950 . S
C930 C926 1.385 . S
C930 C929 1.374 . S
C931 C928 1.499 . S
C931 C932 1.373 . S
C931 C933 1.389 . S
C932 H905 0.950 . S
C932 C918 1.377 . S
C932 C931 1.373 . S
C933 C917 1.377 . S
C933 C931 1.389 . S
C933 C934 1.524 . S
C934 C933 1.524 . S
C934 C935 1.397 . S
C934 C939 1.363 . S
C935 H906 0.950 . S
C935 C934 1.397 . S
C935 C936 1.334 . S
C936 H907 0.950 . S
C936 C935 1.334 . S
C936 C937 1.287 . S
C937 C936 1.287 . S
C937 C938 1.524 . S
C937 H940 0.999 . S
C938 H908 0.950 . S
C938 C937 1.524 . S
C938 C939 1.415 . S
C939 H909 0.950 . S
C939 C934 1.363 . S
C939 C938 1.415 . S
H940 C937 0.999 . S
H941 C922 0.913 . S
H942 C960 0.951 . S
H943 C962 0.951 1_565 S
H944 C964 0.950 . S
H945 C965 0.950 . S
H946 C967 0.950 . S
H947 C970 0.950 . S
H948 C971 0.950 . S
H949 C973 0.950 . S
H950 C974 0.950 . S
H951 C975 0.951 . S
H952 C977 0.951 . S
H953 C979 0.950 . S
H954 C980 0.950 . S
H955 C982 0.954 . S
H956 C985 0.950 . S
H957 C986 0.950 . S
H958 C988 0.950 . S
H959 C989 0.950 . S
C960 H942 0.951 . S
C960 C961 1.366 . S
C960 C962 1.388 . S
C961 C960 1.366 . S
C961 C965 1.385 . S
C962 H943 0.951 1_545 S
C962 C960 1.388 . S
C962 C963 1.366 . S
C963 C962 1.366 . S
C963 C964 1.414 . S
C963 C966 1.499 . S
C964 H944 0.950 . S
C964 C963 1.414 . S
C964 C965 1.374 . S
C965 H945 0.950 . S
C965 C961 1.385 . S
C965 C964 1.374 . S
C966 C963 1.499 . S
C966 C967 1.373 . S
C966 C968 1.389 . S
C967 H946 0.950 . S
C967 C966 1.373 . S
C967 C983 1.377 . S
C968 C966 1.389 . S
C968 C969 1.524 . S
C968 C982 1.377 . S
C969 C968 1.524 . S
C969 C970 1.397 . S
C969 C974 1.363 1_545 S
C970 H947 0.950 . S
C970 C969 1.397 . S
C970 C971 1.334 . S
C971 H948 0.950 . S
C971 C970 1.334 . S
C971 C972 1.287 1_545 S
C972 C971 1.287 1_565 S
C972 C973 1.524 . S
C972 H991 0.913 . S
C973 H949 0.950 . S
C973 C972 1.524 . S
C973 C974 1.415 . S
C974 H950 0.950 . S
C974 C969 1.363 1_565 S
C974 C973 1.415 . S
C975 H951 0.951 . S
C975 C976 1.366 . S
C975 C977 1.388 . S
C976 C975 1.366 . S
C976 C980 1.385 1_545 S
C977 H952 0.951 . S
C977 C975 1.388 . S
C977 C978 1.366 . S
C978 C977 1.366 . S
C978 C979 1.414 1_545 S
C978 C981 1.499 . S
C979 H953 0.950 . S
C979 C978 1.414 1_565 S
C979 C980 1.374 . S
C980 H954 0.950 . S
C980 C976 1.385 1_565 S
C980 C979 1.374 . S
C981 C978 1.499 . S
C981 C982 1.373 . S
C981 C983 1.389 . S
C982 H955 0.954 . S
C982 C968 1.377 . S
C982 C981 1.373 . S
C983 C967 1.377 . S
C983 C981 1.389 . S
C983 C984 1.524 . S
C984 C983 1.524 . S
C984 C985 1.397 . S
C984 C989 1.363 . S
C985 H956 0.950 . S
C985 C984 1.397 . S
C985 C986 1.334 . S
C986 H957 0.950 . S
C986 C985 1.334 . S
C986 C987 1.287 . S
C987 C986 1.287 . S
C987 C988 1.524 . S
C987 H990 0.999 . S
C988 H958 0.950 . S
C988 C987 1.524 . S
C988 C989 1.415 . S
C989 H959 0.950 . S
C989 C984 1.363 . S
C989 C988 1.415 . S
H990 C987 0.999 . S
H991 C972 0.913 . S
H992 C1010 0.951 . S
H993 C1012 0.951 . S
H994 C1014 0.950 . S
H995 C1015 0.950 . S
H996 C1017 0.950 . S
H997 C1020 0.950 . S
H998 C1021 0.950 . S
H999 C1023 0.950 . S
H1000 C1024 0.950 . S
H1001 C1025 0.951 . S
H1002 C1027 0.951 . S
H1003 C1029 0.950 . S
H1004 C1030 0.950 . S
H1005 C1032 0.950 1_554 S
H1006 C1035 0.950 . S
H1007 C1036 0.950 . S
H1008 C1038 0.950 . S
H1009 C1039 0.950 . S
C1010 H992 0.951 . S
C1010 C1011 1.366 . S
C1010 C1012 1.388 . S
C1011 C1010 1.366 . S
C1011 C1015 1.385 . S
C1012 H993 0.951 . S
C1012 C1010 1.388 . S
C1012 C1013 1.366 . S
C1013 C1012 1.366 . S
C1013 C1014 1.414 . S
C1013 C1016 1.499 . S
C1014 H994 0.950 . S
C1014 C1013 1.414 . S
C1014 C1015 1.374 . S
C1015 H995 0.950 . S
C1015 C1011 1.385 . S
C1015 C1014 1.374 . S
C1016 C1013 1.499 . S
C1016 C1017 1.373 . S
C1016 C1018 1.389 . S
C1017 H996 0.950 . S
C1017 C1016 1.373 . S
C1017 C1033 1.377 . S
C1018 C1016 1.389 . S
C1018 C1019 1.524 . S
C1018 C1032 1.377 . S
C1019 C1018 1.524 . S
C1019 C1020 1.397 . S
C1019 C1024 1.363 . S
C1020 H997 0.950 . S
C1020 C1019 1.397 . S
C1020 C1021 1.334 . S
C1021 H998 0.950 . S
C1021 C1020 1.334 . S
C1021 C1022 1.287 . S
C1022 C1021 1.287 . S
C1022 C1023 1.524 . S
C1022 H1041 0.913 . S
C1023 H999 0.950 . S
C1023 C1022 1.524 . S
C1023 C1024 1.415 . S
C1024 H1000 0.950 . S
C1024 C1019 1.363 . S
C1024 C1023 1.415 . S
C1025 H1001 0.951 . S
C1025 C1026 1.366 . S
C1025 C1027 1.388 . S
C1026 C1025 1.366 . S
C1026 C1030 1.385 . S
C1027 H1002 0.951 . S
C1027 C1025 1.388 . S
C1027 C1028 1.366 . S
C1028 C1027 1.366 . S
C1028 C1029 1.414 . S
C1028 C1031 1.499 . S
C1029 H1003 0.950 . S
C1029 C1028 1.414 . S
C1029 C1030 1.374 . S
C1030 H1004 0.950 . S
C1030 C1026 1.385 . S
C1030 C1029 1.374 . S
C1031 C1028 1.499 . S
C1031 C1032 1.373 1_554 S
C1031 C1033 1.389 1_554 S
C1032 H1005 0.950 1_556 S
C1032 C1018 1.377 . S
C1032 C1031 1.373 1_556 S
C1033 C1017 1.377 . S
C1033 C1031 1.389 1_556 S
C1033 C1034 1.524 . S
C1034 C1033 1.524 . S
C1034 C1035 1.397 1_556 S
C1034 C1039 1.363 . S
C1035 H1006 0.950 . S
C1035 C1034 1.397 1_554 S
C1035 C1036 1.334 . S
C1036 H1007 0.950 . S
C1036 C1035 1.334 . S
C1036 C1037 1.287 . S
C1037 C1036 1.287 . S
C1037 C1038 1.524 1_554 S
C1037 H1040 0.999 . S
C1038 H1008 0.950 . S
C1038 C1037 1.524 1_556 S
C1038 C1039 1.415 . S
C1039 H1009 0.950 . S
C1039 C1034 1.363 . S
C1039 C1038 1.415 . S
H1040 C1037 0.999 . S
H1041 C1022 0.913 . S
H1042 C1060 0.951 . S
H1043 C1062 0.951 . S
H1044 C1064 0.950 . S
H1045 C1065 0.950 . S
H1046 C1067 0.950 . S
H1047 C1070 0.950 . S
H1048 C1071 0.950 . S
H1049 C1073 0.950 . S
H1050 C1074 0.950 . S
H1051 C1075 0.951 . S
H1052 C1077 0.951 . S
H1053 C1079 0.950 . S
H1054 C1080 0.950 . S
H1055 C1082 0.950 . S
H1056 C1085 0.950 . S
H1057 C1086 0.950 . S
H1058 C1088 0.950 . S
H1059 C1089 0.950 . S
C1060 H1042 0.951 . S
C1060 C1061 1.366 . S
C1060 C1062 1.388 . S
C1061 C1060 1.366 . S
C1061 C1065 1.385 . S
C1062 H1043 0.951 . S
C1062 C1060 1.388 . S
C1062 C1063 1.366 . S
C1063 C1062 1.366 . S
C1063 C1064 1.414 . S
C1063 C1066 1.499 . S
C1064 H1044 0.950 . S
C1064 C1063 1.414 . S
C1064 C1065 1.374 . S
C1065 H1045 0.950 . S
C1065 C1061 1.385 . S
C1065 C1064 1.374 . S
C1066 C1063 1.499 . S
C1066 C1067 1.373 . S
C1066 C1068 1.389 . S
C1067 H1046 0.950 . S
C1067 C1066 1.373 . S
C1067 C1083 1.377 . S
C1068 C1066 1.389 . S
C1068 C1069 1.524 . S
C1068 C1082 1.377 . S
C1069 C1068 1.524 . S
C1069 C1070 1.397 . S
C1069 C1074 1.363 . S
C1070 H1047 0.950 . S
C1070 C1069 1.397 . S
C1070 C1071 1.334 . S
C1071 H1048 0.950 . S
C1071 C1070 1.334 . S
C1071 C1072 1.287 . S
C1072 C1071 1.287 . S
C1072 C1073 1.524 . S
C1072 H1091 0.913 . S
C1073 H1049 0.950 . S
C1073 C1072 1.524 . S
C1073 C1074 1.415 . S
C1074 H1050 0.950 . S
C1074 C1069 1.363 . S
C1074 C1073 1.415 . S
C1075 H1051 0.951 . S
C1075 C1076 1.366 . S
C1075 C1077 1.388 . S
C1076 C1075 1.366 . S
C1076 C1080 1.385 . S
C1077 H1052 0.951 . S
C1077 C1075 1.388 . S
C1077 C1078 1.366 . S
C1078 C1077 1.366 . S
C1078 C1079 1.414 . S
C1078 C1081 1.499 . S
C1079 H1053 0.950 . S
C1079 C1078 1.414 . S
C1079 C1080 1.374 . S
C1080 H1054 0.950 . S
C1080 C1076 1.385 . S
C1080 C1079 1.374 . S
C1081 C1078 1.499 . S
C1081 C1082 1.373 . S
C1081 C1083 1.389 . S
C1082 H1055 0.950 . S
C1082 C1068 1.377 . S
C1082 C1081 1.373 . S
C1083 C1067 1.377 . S
C1083 C1081 1.389 . S
C1083 C1084 1.524 1_455 S
C1084 C1083 1.524 1_655 S
C1084 C1085 1.397 . S
C1084 C1089 1.363 . S
C1085 H1056 0.950 . S
C1085 C1084 1.397 . S
C1085 C1086 1.334 . S
C1086 H1057 0.950 . S
C1086 C1085 1.334 . S
C1086 C1087 1.287 . S
C1087 C1086 1.287 . S
C1087 C1088 1.524 . S
C1087 H1090 0.999 . S
C1088 H1058 0.950 . S
C1088 C1087 1.524 . S
C1088 C1089 1.415 . S
C1089 H1059 0.950 . S
C1089 C1084 1.363 . S
C1089 C1088 1.415 . S
H1090 C1087 0.999 . S
H1091 C1072 0.913 . S
C211 C9 0.680 . S
C226 C186 0.675 . S
C261 C49 0.357 . S
C276 C160 0.379 . S
C311 C89 0.321 . S
C326 C172 0.368 . S
C361 C26 0.299 . S
C376 C184 0.383 . S
C426 C162 0.205 . S
C411 C66 0.270 . S
C476 C174 0.213 . S
C461 C106 0.296 . S
C511 C43 3.007 . S
C526 C136 2.933 . S
C561 C83 3.355 . S
C576 C150 3.331 . S
C611 C22 2.999 . S
C626 C126 2.950 1_565 S
C676 C138 2.950 . S
C661 C62 2.997 . S
C726 C148 2.567 . S
C711 C102 2.670 . S
C761 C3 3.001 . S
C776 C124 2.931 . S
C826 C153 1.752 . S
C811 C15 1.694 . S
C861 C55 1.733 . S
C876 C129 1.749 . S
C911 C95 1.709 . S
C926 C141 1.727 . S
C976 C177 1.280 . S
C961 C42 1.247 . S
C1026 C189 1.289 . S
C1011 C82 1.260 . S
C1061 C2 1.233 . S
C1076 C165 1.253 . S
