# Generated by pormake.
# Topology bwt, (3,3)-cn, num edge types: 1
# Building blocks:
#     Node 0, Type 0, BuildingBlock: WUSLED_clean_sbu_0, # of connection points: 3
#     Node 1, Type 0, BuildingBlock: WUSLED_clean_sbu_0, # of connection points: 3
#     Node 2, Type 0, BuildingBlock: WUSLED_clean_sbu_0, # of connection points: 3
#     Node 3, Type 0, BuildingBlock: WUSLED_clean_sbu_0, # of connection points: 3
#     Node 4, Type 0, BuildingBlock: WUSLED_clean_sbu_0, # of connection points: 3
#     Node 5, Type 0, BuildingBlock: WUSLED_clean_sbu_0, # of connection points: 3
#     Node 6, Type 0, BuildingBlock: WUSLED_clean_sbu_0, # of connection points: 3
#     Node 7, Type 0, BuildingBlock: WUSLED_clean_sbu_0, # of connection points: 3
#     Node 8, Type 0, BuildingBlock: WUSLED_clean_sbu_0, # of connection points: 3
#     Node 9, Type 0, BuildingBlock: WUSLED_clean_sbu_0, # of connection points: 3
#     Node 10, Type 0, BuildingBlock: WUSLED_clean_sbu_0, # of connection points: 3
#     Node 11, Type 0, BuildingBlock: WUSLED_clean_sbu_0, # of connection points: 3
#     Node 12, Type 0, BuildingBlock: WUSLED_clean_sbu_0, # of connection points: 3
#     Node 13, Type 0, BuildingBlock: WUSLED_clean_sbu_0, # of connection points: 3
#     Node 14, Type 0, BuildingBlock: WUSLED_clean_sbu_0, # of connection points: 3
#     Node 15, Type 0, BuildingBlock: WUSLED_clean_sbu_0, # of connection points: 3
#     Node 16, Type 0, BuildingBlock: WUSLED_clean_sbu_0, # of connection points: 3
#     Node 17, Type 0, BuildingBlock: WUSLED_clean_sbu_0, # of connection points: 3
#     Node 18, Type 0, BuildingBlock: WUSLED_clean_sbu_0, # of connection points: 3
#     Node 19, Type 0, BuildingBlock: WUSLED_clean_sbu_0, # of connection points: 3
#     Node 20, Type 0, BuildingBlock: WUSLED_clean_sbu_0, # of connection points: 3
#     Node 21, Type 0, BuildingBlock: WUSLED_clean_sbu_0, # of connection points: 3
#     Node 22, Type 0, BuildingBlock: WUSLED_clean_sbu_0, # of connection points: 3
#     Node 23, Type 0, BuildingBlock: WUSLED_clean_sbu_0, # of connection points: 3
#     Node 24, Type 1, BuildingBlock: BETDIP_clean_linker_0, # of connection points: 3
#     Node 25, Type 1, BuildingBlock: BETDIP_clean_linker_0, # of connection points: 3
#     Node 26, Type 1, BuildingBlock: BETDIP_clean_linker_0, # of connection points: 3
#     Node 27, Type 1, BuildingBlock: BETDIP_clean_linker_0, # of connection points: 3
#     Node 28, Type 1, BuildingBlock: BETDIP_clean_linker_0, # of connection points: 3
#     Node 29, Type 1, BuildingBlock: BETDIP_clean_linker_0, # of connection points: 3
#     Node 30, Type 1, BuildingBlock: BETDIP_clean_linker_0, # of connection points: 3
#     Node 31, Type 1, BuildingBlock: BETDIP_clean_linker_0, # of connection points: 3
#     Node 32, Type 1, BuildingBlock: BETDIP_clean_linker_0, # of connection points: 3
#     Node 33, Type 1, BuildingBlock: BETDIP_clean_linker_0, # of connection points: 3
#     Node 34, Type 1, BuildingBlock: BETDIP_clean_linker_0, # of connection points: 3
#     Node 35, Type 1, BuildingBlock: BETDIP_clean_linker_0, # of connection points: 3
#     Node 36, Type 1, BuildingBlock: BETDIP_clean_linker_0, # of connection points: 3
#     Node 37, Type 1, BuildingBlock: BETDIP_clean_linker_0, # of connection points: 3
#     Node 38, Type 1, BuildingBlock: BETDIP_clean_linker_0, # of connection points: 3
#     Node 39, Type 1, BuildingBlock: BETDIP_clean_linker_0, # of connection points: 3
#     Node 40, Type 1, BuildingBlock: BETDIP_clean_linker_0, # of connection points: 3
#     Node 41, Type 1, BuildingBlock: BETDIP_clean_linker_0, # of connection points: 3
#     Node 42, Type 1, BuildingBlock: BETDIP_clean_linker_0, # of connection points: 3
#     Node 43, Type 1, BuildingBlock: BETDIP_clean_linker_0, # of connection points: 3
#     Node 44, Type 1, BuildingBlock: BETDIP_clean_linker_0, # of connection points: 3
#     Node 45, Type 1, BuildingBlock: BETDIP_clean_linker_0, # of connection points: 3
#     Node 46, Type 1, BuildingBlock: BETDIP_clean_linker_0, # of connection points: 3
#     Node 47, Type 1, BuildingBlock: BETDIP_clean_linker_0, # of connection points: 3
#     Edge 48, Type (0, 1), None
#     Edge 49, Type (0, 1), None
#     Edge 50, Type (0, 1), None
#     Edge 51, Type (0, 1), None
#     Edge 52, Type (0, 1), None
#     Edge 53, Type (0, 1), None
#     Edge 54, Type (0, 1), None
#     Edge 55, Type (0, 1), None
#     Edge 56, Type (0, 1), None
#     Edge 57, Type (0, 1), None
#     Edge 58, Type (0, 1), None
#     Edge 59, Type (0, 1), None
#     Edge 60, Type (0, 1), None
#     Edge 61, Type (0, 1), None
#     Edge 62, Type (0, 1), None
#     Edge 63, Type (0, 1), None
#     Edge 64, Type (0, 1), None
#     Edge 65, Type (0, 1), None
#     Edge 66, Type (0, 1), None
#     Edge 67, Type (0, 1), None
#     Edge 68, Type (0, 1), None
#     Edge 69, Type (0, 1), None
#     Edge 70, Type (0, 1), None
#     Edge 71, Type (0, 1), None
#     Edge 72, Type (0, 1), None
#     Edge 73, Type (0, 1), None
#     Edge 74, Type (0, 1), None
#     Edge 75, Type (0, 1), None
#     Edge 76, Type (0, 1), None
#     Edge 77, Type (0, 1), None
#     Edge 78, Type (0, 1), None
#     Edge 79, Type (0, 1), None
#     Edge 80, Type (0, 1), None
#     Edge 81, Type (0, 1), None
#     Edge 82, Type (0, 1), None
#     Edge 83, Type (0, 1), None
#     Edge 84, Type (0, 1), None
#     Edge 85, Type (0, 1), None
#     Edge 86, Type (0, 1), None
#     Edge 87, Type (0, 1), None
#     Edge 88, Type (0, 1), None
#     Edge 89, Type (0, 1), None
#     Edge 90, Type (0, 1), None
#     Edge 91, Type (0, 1), None
#     Edge 92, Type (0, 1), None
#     Edge 93, Type (0, 1), None
#     Edge 94, Type (0, 1), None
#     Edge 95, Type (0, 1), None
#     Edge 96, Type (0, 1), None
#     Edge 97, Type (0, 1), None
#     Edge 98, Type (0, 1), None
#     Edge 99, Type (0, 1), None
#     Edge 100, Type (0, 1), None
#     Edge 101, Type (0, 1), None
#     Edge 102, Type (0, 1), None
#     Edge 103, Type (0, 1), None
#     Edge 104, Type (0, 1), None
#     Edge 105, Type (0, 1), None
#     Edge 106, Type (0, 1), None
#     Edge 107, Type (0, 1), None
#     Edge 108, Type (0, 1), None
#     Edge 109, Type (0, 1), None
#     Edge 110, Type (0, 1), None
#     Edge 111, Type (0, 1), None
#     Edge 112, Type (0, 1), None
#     Edge 113, Type (0, 1), None
#     Edge 114, Type (0, 1), None
#     Edge 115, Type (0, 1), None
#     Edge 116, Type (0, 1), None
#     Edge 117, Type (0, 1), None
#     Edge 118, Type (0, 1), None
#     Edge 119, Type (0, 1), None
# Relax obj value: 0.111
# Max RMSD: 0.184
# Mean RMSD: 0.091
data_MOF--net-bwt--node1-WUSLED_clean_sbu_0--node2-BETDIP_clean_linker_0--edge1-none
_symmetry_space_group_name_H-M    P1
_symmetry_Int_Tables_number       1
_symmetry_cell_setting            triclinic
loop_
_symmetry_equiv_pos_as_xyz
'x, y, z'
_cell_length_a     38.57672
_cell_length_b     38.575806
_cell_length_c     38.576316
_cell_angle_alpha  95.4007
_cell_angle_beta   95.398926
_cell_angle_gamma 95.40797
loop_
_atom_site_label
_atom_site_type_symbol
_atom_site_fract_x
_atom_site_fract_y
_atom_site_fract_z
_atom_type_partial_charge
C0 C 0.3653 0.65106 0.34738 0.0
C1 C 0.38991 0.64399 0.37435 0.0
C2 C 0.43533 0.64113 0.33401 0.0
C3 C 0.42436 0.63881 0.36763 0.0
C4 C 0.411 0.64938 0.3073 0.0
C5 C 0.37634 0.65412 0.31393 0.0
U6 U 0.28516 0.64233 0.40136 0.0
O7 O 0.24498 0.67902 0.41037 0.0
O8 O 0.22935 0.62607 0.38426 0.0
C9 C 0.21898 0.65609 0.39605 0.0
C10 C 0.32819 0.65519 0.3534 0.0
C11 C 0.18759 0.66835 0.37695 0.0
C12 C 0.14839 0.67001 0.32355 0.0
C13 C 0.18157 0.66533 0.3402 0.0
C14 C 0.12752 0.68336 0.37987 0.0
C15 C 0.12054 0.67799 0.34321 0.0
C16 C 0.16051 0.67854 0.39644 0.0
C17 C 0.30404 0.6015 0.49049 0.0
C18 C 0.26523 0.58661 0.53418 0.0
C19 C 0.32641 0.57696 0.54313 0.0
C20 C 0.33179 0.59013 0.51125 0.0
C21 C 0.29314 0.57522 0.55507 0.0
C22 C 0.27059 0.59954 0.50207 0.0
C23 C 0.31127 0.6147 0.45688 0.0
O24 O 0.30685 0.62632 0.35181 0.0
O25 O 0.32336 0.67787 0.37954 0.0
O26 O 0.31188 0.64861 0.45511 0.0
O27 O 0.29651 0.59604 0.42813 0.0
H28 H 0.38237 0.64195 0.4005 0.0
H29 H 0.44251 0.63268 0.38882 0.0
H30 H 0.41841 0.65116 0.28108 0.0
H31 H 0.35796 0.6598 0.29273 0.0
H32 H 0.14368 0.66481 0.29533 0.0
H33 H 0.20176 0.6573 0.32442 0.0
H34 H 0.10651 0.6881 0.39592 0.0
H35 H 0.1641 0.68047 0.42479 0.0
H36 H 0.23925 0.5856 0.5428 0.0
H37 H 0.34845 0.56903 0.5589 0.0
H38 H 0.35785 0.59161 0.50282 0.0
H39 H 0.24879 0.60811 0.48646 0.0
C40 C 0.17821 0.30206 0.7691 0.0
C41 C 0.15211 0.31845 0.78471 0.0
C42 C 0.10752 0.29573 0.73436 0.0
C43 C 0.11752 0.31448 0.7686 0.0
C44 C 0.13423 0.27576 0.72222 0.0
C45 C 0.16852 0.2792 0.7388 0.0
U46 U 0.25808 0.35165 0.82954 0.0
O47 O 0.30731 0.37528 0.81391 0.0
O48 O 0.30864 0.33226 0.84738 0.0
C49 C 0.32681 0.35547 0.83154 0.0
C50 C 0.21585 0.30993 0.78215 0.0
C51 C 0.3593 0.34693 0.8167 0.0
C52 C 0.38988 0.33386 0.76552 0.0
C53 C 0.35922 0.33092 0.7825 0.0
C54 C 0.42139 0.36605 0.8174 0.0
C55 C 0.42045 0.3538 0.78187 0.0
C56 C 0.39114 0.36244 0.83469 0.0
C57 C 0.25155 0.42393 0.90213 0.0
C58 C 0.29692 0.44374 0.94954 0.0
C59 C 0.2595 0.48519 0.92713 0.0
C60 C 0.24118 0.45801 0.90372 0.0
C61 C 0.28839 0.47867 0.94974 0.0
C62 C 0.27946 0.41709 0.92556 0.0
C63 C 0.23428 0.39628 0.87501 0.0
O64 O 0.2304 0.34082 0.77657 0.0
O65 O 0.22615 0.30099 0.81328 0.0
O66 O 0.23822 0.36365 0.88059 0.0
O67 O 0.23801 0.40241 0.8426 0.0
H68 H 0.15856 0.33503 0.80921 0.0
H69 H 0.1004 0.3272 0.78471 0.0
H70 H 0.12934 0.25834 0.69819 0.0
H71 H 0.18798 0.26495 0.72685 0.0
H72 H 0.38868 0.32364 0.73855 0.0
H73 H 0.33502 0.31875 0.76802 0.0
H74 H 0.44431 0.38202 0.8306 0.0
H75 H 0.39181 0.37515 0.86106 0.0
H76 H 0.31747 0.43659 0.96777 0.0
H77 H 0.25163 0.51134 0.92665 0.0
H78 H 0.21942 0.46382 0.88612 0.0
H79 H 0.28811 0.39115 0.92529 0.0
C80 C 0.75142 0.988 0.66965 0.0
C81 C 0.77871 0.98521 0.64809 0.0
C82 C 0.82132 0.99741 0.69956 0.0
C83 C 0.81369 0.98987 0.66306 0.0
C84 C 0.79383 1.00025 0.72058 0.0
C85 C 0.75927 0.99559 0.70578 0.0
U86 U 0.67513 0.97857 0.59632 0.0
O87 O 0.62562 0.94414 0.5923 0.0
O88 O 0.62539 1.00225 0.59698 0.0
C89 C 0.60736 0.97127 0.59418 0.0
C90 C 0.71437 0.98304 0.65599 0.0
C91 C 0.56915 0.96717 0.59297 0.0
C92 C 0.52065 0.9513 0.62568 0.0
C93 C 0.55332 0.94514 0.6151 0.0
C94 C 0.51688 0.99722 0.58722 0.0
C95 C 0.50408 0.97987 0.61457 0.0
C96 C 0.54972 0.99132 0.5769 0.0
C97 C 0.69429 0.98287 0.50142 0.0
C98 C 0.65256 0.96763 0.44991 0.0
C99 C 0.71337 0.98703 0.44432 0.0
C100 C 0.72062 0.99111 0.48033 0.0
C101 C 0.67948 0.97504 0.42882 0.0
C102 C 0.65995 0.97166 0.48638 0.0
C103 C 0.70456 0.98381 0.53871 0.0
O104 O 0.70169 0.01021 0.64333 0.0
O105 O 0.70342 0.95312 0.63724 0.0
O106 O 0.69854 0.95396 0.55203 0.0
O107 O 0.69685 0.0112 0.55827 0.0
H108 H 0.77296 0.97948 0.61998 0.0
H109 H 0.83453 0.9878 0.64625 0.0
H110 H 0.79907 1.00619 0.74872 0.0
H111 H 0.73853 0.99791 0.72269 0.0
H112 H 0.51139 0.93751 0.64681 0.0
H113 H 0.56798 0.92639 0.6278 0.0
H114 H 0.50436 0.01915 0.5781 0.0
H115 H 0.56149 0.00831 0.55944 0.0
H116 H 0.62624 0.9585 0.43824 0.0
H117 H 0.73461 0.99242 0.42846 0.0
H118 H 0.74716 0.99969 0.49171 0.0
H119 H 0.63935 0.96532 0.5027 0.0
C120 C 0.75445 0.03817 0.29991 0.0
C121 C 0.7172 0.02143 0.26376 0.0
C122 C 0.65843 0.04762 0.31626 0.0
C123 C 0.66925 0.02557 0.27207 0.0
C124 C 0.69556 0.06556 0.35179 0.0
C125 C 0.74327 0.05968 0.34473 0.0
U126 U 0.84304 0.02531 0.25675 0.0
O127 O 0.88899 0.06416 0.27102 0.0
O128 O 0.88842 0.01208 0.2896 0.0
C129 C 0.90648 0.04243 0.28821 0.0
C130 C 0.79126 0.03715 0.29413 0.0
C131 C 0.94297 0.04044 0.28144 0.0
C132 C 1.00252 0.03613 0.30564 0.0
C133 C 0.9685 0.04368 0.31017 0.0
C134 C 0.98632 0.02416 0.24308 0.0
C135 C 0.01137 0.02494 0.27225 0.0
C136 C 0.9522 0.0318 0.24765 0.0
C137 C 0.81461 0.98499 0.15881 0.0
C138 C 0.81198 0.9657 0.09683 0.0
C139 C 0.75834 0.96932 0.12451 0.0
C140 C 0.77792 0.98084 0.15671 0.0
C141 C 0.77538 0.96204 0.09442 0.0
C142 C 0.83142 0.97693 0.12884 0.0
C143 C 0.83677 0.99879 0.19103 0.0
O144 O 0.80456 0.05966 0.27415 0.0
O145 O 0.8042 0.0068 0.29137 0.0
O146 O 0.83771 0.97943 0.21733 0.0
O147 O 0.83802 0.03254 0.20067 0.0
H148 H 0.72319 0.0096 0.23878 0.0
H149 H 0.64833 0.01528 0.25208 0.0
H150 H 0.68947 0.07779 0.37658 0.0
H151 H 0.76366 0.06787 0.36595 0.0
H152 H 0.02105 0.03628 0.32859 0.0
H153 H 0.96159 0.05011 0.33644 0.0
H154 H 0.99257 0.01549 0.21707 0.0
H155 H 0.93269 0.02915 0.22518 0.0
H156 H 0.82546 0.96094 0.0737 0.0
H157 H 0.73001 0.96745 0.12274 0.0
H158 H 0.76456 0.98725 0.17958 0.0
H159 H 0.85974 0.98022 0.13002 0.0
C160 C 0.34852 0.36478 0.65044 0.0
C161 C 0.3755 0.38939 0.64338 0.0
C162 C 0.33515 0.43481 0.64052 0.0
C163 C 0.36878 0.42384 0.6382 0.0
C164 C 0.30844 0.41047 0.64875 0.0
C165 C 0.31507 0.37581 0.65349 0.0
U166 U 0.4025 0.28464 0.64172 0.0
O167 O 0.41152 0.24446 0.67841 0.0
O168 O 0.3854 0.22883 0.62546 0.0
C169 C 0.39719 0.21846 0.65548 0.0
C170 C 0.35454 0.32767 0.65458 0.0
C171 C 0.37809 0.18707 0.66775 0.0
C172 C 0.32468 0.14787 0.66942 0.0
C173 C 0.34134 0.18106 0.66473 0.0
C174 C 0.381 0.127 0.68277 0.0
C175 C 0.34434 0.12003 0.6774 0.0
C176 C 0.39758 0.15999 0.67794 0.0
C177 C 0.49163 0.30351 0.60089 0.0
C178 C 0.53532 0.2647 0.586 0.0
C179 C 0.54428 0.32588 0.57634 0.0
C180 C 0.5124 0.33126 0.58951 0.0
C181 C 0.55622 0.29261 0.57461 0.0
C182 C 0.50321 0.27006 0.59893 0.0
C183 C 0.45803 0.31075 0.61408 0.0
O184 O 0.35296 0.30632 0.6257 0.0
O185 O 0.38068 0.32284 0.67726 0.0
O186 O 0.45626 0.31136 0.64799 0.0
O187 O 0.42928 0.29599 0.59542 0.0
H188 H 0.40165 0.38186 0.64135 0.0
H189 H 0.38996 0.442 0.63209 0.0
H190 H 0.28222 0.41787 0.65053 0.0
H191 H 0.29387 0.35742 0.65917 0.0
H192 H 0.29646 0.14317 0.66421 0.0
H193 H 0.32556 0.20124 0.65669 0.0
H194 H 0.39704 0.10599 0.68752 0.0
H195 H 0.42592 0.16358 0.67987 0.0
H196 H 0.54394 0.23872 0.585 0.0
H197 H 0.56006 0.34793 0.56841 0.0
H198 H 0.50397 0.35733 0.59098 0.0
H199 H 0.4876 0.24826 0.6075 0.0
C200 C 0.30086 0.75365 0.03776 0.0
C201 C 0.26475 0.71638 0.02106 0.0
C202 C 0.31736 0.65765 0.04705 0.0
C203 C 0.27313 0.66845 0.02512 0.0
C204 C 0.35287 0.69478 0.06497 0.0
C205 C 0.34576 0.7425 0.05919 0.0
U206 U 0.25791 0.84228 0.02452 0.0
O207 O 0.27227 0.88823 0.06332 0.0
O208 O 0.29088 0.88762 0.01126 0.0
C209 C 0.28945 0.90572 0.04159 0.0
C210 C 0.29514 0.79041 0.03636 0.0
C211 C 0.28266 0.94224 0.03962 0.0
C212 C 0.30683 1.00187 0.03547 0.0
C213 C 0.31137 0.96781 0.04296 0.0
C214 C 0.24428 0.98566 0.02347 0.0
C215 C 0.27345 0.01074 0.02427 0.0
C216 C 0.24885 0.95151 0.03105 0.0
C217 C 0.15993 0.81408 0.98441 0.0
C218 C 0.09798 0.81148 0.96508 0.0
C219 C 0.12564 0.75783 0.96871 0.0
C220 C 0.15784 0.77739 0.98024 0.0
C221 C 0.09557 0.77489 0.96143 0.0
C222 C 0.12999 0.83091 0.97633 0.0
C223 C 0.19215 0.83621 0.9982 0.0
O224 O 0.27562 0.80412 0.05909 0.0
O225 O 0.29184 0.80287 0.0058 0.0
O226 O 0.21838 0.83717 0.97875 0.0
O227 O 0.20187 0.83732 0.03192 0.0
H228 H 0.23977 0.72234 0.00921 0.0
H229 H 0.25316 0.64751 0.01479 0.0
H230 H 0.3777 0.68868 0.07713 0.0
H231 H 0.36697 0.7629 0.06735 0.0
H232 H 0.32977 0.02043 0.03569 0.0
H233 H 0.33763 0.96093 0.04941 0.0
H234 H 0.21827 0.99192 0.01484 0.0
H235 H 0.22638 0.932 0.02841 0.0
H236 H 0.07486 0.82497 0.96031 0.0
H237 H 0.12386 0.7295 0.96683 0.0
H238 H 0.18071 0.76404 0.98665 0.0
H239 H 0.13119 0.85923 0.97961 0.0
C240 C 0.77034 0.17764 0.30151 0.0
C241 C 0.78598 0.15156 0.31793 0.0
C242 C 0.73573 0.10687 0.29514 0.0
C243 C 0.76994 0.11694 0.31393 0.0
C244 C 0.72356 0.13357 0.27517 0.0
C245 C 0.74007 0.16788 0.27862 0.0
U246 U 0.8307 0.25756 0.35106 0.0
O247 O 0.81505 0.30678 0.37467 0.0
O248 O 0.84854 0.30812 0.33166 0.0
C249 C 0.83269 0.32628 0.35486 0.0
C250 C 0.78334 0.21529 0.30934 0.0
C251 C 0.81785 0.35878 0.34632 0.0
C252 C 0.76666 0.38935 0.33325 0.0
C253 C 0.78364 0.35869 0.33031 0.0
C254 C 0.81855 0.42087 0.36542 0.0
C255 C 0.78302 0.41992 0.35318 0.0
C256 C 0.83584 0.39062 0.36182 0.0
C257 C 0.9033 0.25104 0.42334 0.0
C258 C 0.95071 0.29641 0.44315 0.0
C259 C 0.9283 0.25899 0.4846 0.0
C260 C 0.90489 0.24066 0.45742 0.0
C261 C 0.95091 0.28788 0.47808 0.0
C262 C 0.92673 0.27895 0.4165 0.0
C263 C 0.87617 0.23377 0.3957 0.0
O264 O 0.77774 0.22985 0.34022 0.0
O265 O 0.81446 0.22562 0.3004 0.0
O266 O 0.88175 0.23771 0.36307 0.0
O267 O 0.84376 0.23749 0.40182 0.0
H268 H 0.81046 0.15806 0.33453 0.0
H269 H 0.78608 0.09985 0.32666 0.0
H270 H 0.69955 0.12865 0.25771 0.0
H271 H 0.72809 0.18732 0.26435 0.0
H272 H 0.73969 0.38815 0.32303 0.0
H273 H 0.76917 0.33448 0.31816 0.0
H274 H 0.83175 0.4438 0.38138 0.0
H275 H 0.86221 0.3913 0.37452 0.0
H276 H 0.96894 0.31696 0.436 0.0
H277 H 0.92782 0.25111 0.51075 0.0
H278 H 0.88728 0.21891 0.46324 0.0
H279 H 0.92646 0.28761 0.39057 0.0
C280 C 0.67084 0.75073 0.98721 0.0
C281 C 0.64926 0.77801 0.98445 0.0
C282 C 0.7007 0.82067 0.99676 0.0
C283 C 0.66421 0.81301 0.98918 0.0
C284 C 0.72175 0.79319 0.99956 0.0
C285 C 0.70697 0.75861 0.99483 0.0
U286 U 0.59737 0.67465 0.97799 0.0
O287 O 0.59313 0.62504 0.94401 0.0
O288 O 0.59769 0.62495 1.00214 0.0
C289 C 0.59481 0.60684 0.97119 0.0
C290 C 0.65717 0.71367 0.98233 0.0
C291 C 0.59393 0.56867 0.96679 0.0
C292 C 0.62712 0.52056 0.95083 0.0
C293 C 0.61641 0.55322 0.94488 0.0
C294 C 0.58828 0.51609 0.99636 0.0
C295 C 0.61584 0.50364 0.97913 0.0
C296 C 0.57776 0.54889 0.9906 0.0
C297 C 0.50262 0.69409 0.98211 0.0
C298 C 0.45113 0.65229 0.96712 0.0
C299 C 0.44552 0.71313 0.98643 0.0
C300 C 0.48153 0.72041 0.99038 0.0
C301 C 0.43002 0.67921 0.97455 0.0
C302 C 0.48758 0.65973 0.97102 0.0
C303 C 0.5399 0.70436 0.98296 0.0
O304 O 0.64445 0.70112 0.00955 0.0
O305 O 0.63844 0.70263 0.95243 0.0
O306 O 0.5532 0.69807 0.95314 0.0
O307 O 0.55945 0.69685 0.01044 0.0
H308 H 0.62116 0.77225 0.97872 0.0
H309 H 0.64739 0.83384 0.98714 0.0
H310 H 0.74987 0.79845 1.00554 0.0
H311 H 0.72389 0.73788 0.99714 0.0
H312 H 0.64844 0.51157 0.93716 0.0
H313 H 0.62921 0.56815 0.92638 0.0
H314 H 0.57907 0.50332 0.01811 0.0
H315 H 0.56007 0.56037 0.00751 0.0
H316 H 0.43946 0.62595 0.95806 0.0
H317 H 0.42967 0.73436 0.99181 0.0
H318 H 0.49291 0.74697 0.99888 0.0
H319 H 0.5039 0.63913 0.96467 0.0
C320 C 0.65158 0.34799 0.36416 0.0
C321 C 0.64452 0.37497 0.38877 0.0
C322 C 0.64166 0.33463 0.43419 0.0
C323 C 0.63934 0.36825 0.42322 0.0
C324 C 0.6499 0.30791 0.40986 0.0
C325 C 0.65464 0.31455 0.3752 0.0
U326 U 0.64286 0.40198 0.28402 0.0
O327 O 0.67956 0.41099 0.24384 0.0
O328 O 0.62661 0.38487 0.22821 0.0
C329 C 0.65662 0.39666 0.21784 0.0
C330 C 0.65572 0.35402 0.32705 0.0
C331 C 0.6689 0.37756 0.18645 0.0
C332 C 0.67057 0.32415 0.14727 0.0
C333 C 0.66588 0.34081 0.18045 0.0
C334 C 0.68392 0.38047 0.12639 0.0
C335 C 0.67856 0.34381 0.11942 0.0
C336 C 0.67909 0.39705 0.15937 0.0
C337 C 0.60203 0.4911 0.30289 0.0
C338 C 0.58714 0.5348 0.26408 0.0
C339 C 0.57748 0.54375 0.32526 0.0
C340 C 0.59065 0.51186 0.33064 0.0
C341 C 0.57575 0.55569 0.292 0.0
C342 C 0.60007 0.50269 0.26944 0.0
C343 C 0.61523 0.4575 0.31012 0.0
O344 O 0.62684 0.35243 0.30571 0.0
O345 O 0.6784 0.38016 0.32222 0.0
O346 O 0.64913 0.45574 0.31073 0.0
O347 O 0.59657 0.42875 0.29537 0.0
H348 H 0.64248 0.40112 0.38124 0.0
H349 H 0.63322 0.38943 0.44137 0.0
H350 H 0.65168 0.2817 0.41726 0.0
H351 H 0.66032 0.29335 0.35681 0.0
H352 H 0.66537 0.29593 0.14257 0.0
H353 H 0.65784 0.32503 0.20063 0.0
H354 H 0.68867 0.39651 0.10537 0.0
H355 H 0.68102 0.42539 0.16295 0.0
H356 H 0.58614 0.54342 0.23811 0.0
H357 H 0.56956 0.55952 0.34731 0.0
H358 H 0.59213 0.50344 0.35671 0.0
H359 H 0.60864 0.48708 0.24764 0.0
C360 C 0.03887 0.30038 0.75302 0.0
C361 C 0.02221 0.26426 0.71575 0.0
C362 C 0.04821 0.3169 0.65704 0.0
C363 C 0.0263 0.27265 0.66783 0.0
C364 C 0.0661 0.35242 0.69418 0.0
C365 C 0.06028 0.34529 0.74189 0.0
U366 U 0.02565 0.25739 0.84165 0.0
O367 O 0.06446 0.27175 0.88759 0.0
O368 O 0.0124 0.29036 0.88698 0.0
C369 C 0.04273 0.28893 0.90508 0.0
C370 C 0.03748 0.29464 0.78978 0.0
C371 C 0.04076 0.28215 0.94161 0.0
C372 C 0.03661 0.30632 1.00123 0.0
C373 C 0.0441 0.31086 0.96718 0.0
C374 C 0.02459 0.24377 0.98503 0.0
C375 C 0.02538 0.27295 0.0101 0.0
C376 C 0.03217 0.24834 0.95088 0.0
C377 C 0.98555 0.15941 0.81345 0.0
C378 C 0.96624 0.09745 0.81086 0.0
C379 C 0.96986 0.12512 0.7572 0.0
C380 C 0.98139 0.15732 0.77677 0.0
C381 C 0.96259 0.09504 0.77426 0.0
C382 C 0.97748 0.12946 0.83029 0.0
C383 C 0.99933 0.19163 0.83558 0.0
O384 O 0.06022 0.27512 0.80348 0.0
O385 O 0.00692 0.29134 0.80226 0.0
O386 O 0.97988 0.21786 0.83654 0.0
O387 O 0.03305 0.20136 0.8367 0.0
H388 H 0.01037 0.23927 0.72171 0.0
H389 H 0.01599 0.25269 0.64688 0.0
H390 H 0.07827 0.37725 0.6881 0.0
H391 H 0.06842 0.36651 0.76229 0.0
H392 H 0.03683 0.32927 0.01978 0.0
H393 H 0.05057 0.33712 0.96028 0.0
H394 H 0.01594 0.21777 0.9913 0.0
H395 H 0.02953 0.22586 0.93138 0.0
H396 H 0.96148 0.07432 0.82434 0.0
H397 H 0.96798 0.12334 0.72888 0.0
H398 H 0.98778 0.18019 0.76341 0.0
H399 H 0.98076 0.13065 0.85861 0.0
C400 C 0.30265 0.76966 0.17714 0.0
C401 C 0.31893 0.78531 0.15099 0.0
C402 C 0.29625 0.7349 0.10644 0.0
C403 C 0.31493 0.76919 0.1164 0.0
C404 C 0.27642 0.72269 0.13321 0.0
C405 C 0.27988 0.73928 0.1675 0.0
U406 U 0.35223 0.83018 0.25697 0.0
O407 O 0.37586 0.81458 0.3062 0.0
O408 O 0.33282 0.84802 0.30752 0.0
C409 C 0.35603 0.8322 0.32569 0.0
C410 C 0.31053 0.78275 0.21476 0.0
C411 C 0.34747 0.81734 0.35818 0.0
C412 C 0.33439 0.76613 0.38872 0.0
C413 C 0.33146 0.78313 0.35807 0.0
C414 C 0.36656 0.81801 0.42026 0.0
C415 C 0.35432 0.78248 0.4193 0.0
C416 C 0.36297 0.83532 0.39003 0.0
C417 C 0.42451 0.90279 0.25043 0.0
C418 C 0.44432 0.95021 0.2958 0.0
C419 C 0.48577 0.92781 0.25838 0.0
C420 C 0.45859 0.90439 0.24006 0.0
C421 C 0.47925 0.95042 0.28727 0.0
C422 C 0.41766 0.92623 0.27834 0.0
C423 C 0.39686 0.87565 0.23316 0.0
O424 O 0.34142 0.77719 0.22931 0.0
O425 O 0.30158 0.81388 0.22504 0.0
O426 O 0.36423 0.88122 0.23709 0.0
O427 O 0.40299 0.84324 0.2369 0.0
H428 H 0.33543 0.80986 0.1574 0.0
H429 H 0.32757 0.78533 0.09925 0.0
H430 H 0.25906 0.6986 0.12838 0.0
H431 H 0.26572 0.72728 0.187 0.0
H432 H 0.32417 0.73916 0.3875 0.0
H433 H 0.31931 0.76867 0.33386 0.0
H434 H 0.38252 0.8312 0.4432 0.0
H435 H 0.37567 0.86169 0.39072 0.0
H436 H 0.43716 0.96843 0.31635 0.0
H437 H 0.51192 0.92733 0.25051 0.0
H438 H 0.46441 0.88678 0.21831 0.0
H439 H 0.39173 0.92595 0.28699 0.0
C440 C 0.98853 0.67029 0.75028 0.0
C441 C 0.98574 0.64872 0.77757 0.0
C442 C 0.99794 0.70019 0.82019 0.0
C443 C 0.9904 0.66369 0.81256 0.0
C444 C 1.00077 0.72122 0.7927 0.0
C445 C 0.99612 0.70642 0.75814 0.0
U446 U 0.9791 0.59698 0.67398 0.0
O447 O 0.94462 0.59298 0.62449 0.0
O448 O 1.00272 0.59766 0.62423 0.0
C449 C 0.97174 0.59487 0.60622 0.0
C450 C 0.98357 0.65664 0.71324 0.0
C451 C 0.96768 0.59362 0.568 0.0
C452 C 0.95182 0.62631 0.51948 0.0
C453 C 0.94565 0.61573 0.55215 0.0
C454 C 0.99775 0.58786 0.51575 0.0
C455 C 0.9804 0.61519 0.50293 0.0
C456 C 0.99184 0.57755 0.5486 0.0
C457 C 0.98339 0.50207 0.69316 0.0
C458 C 0.96819 0.45053 0.65146 0.0
C459 C 0.98756 0.44498 0.71229 0.0
C460 C 0.99162 0.48099 0.71951 0.0
C461 C 0.97561 0.42945 0.6784 0.0
C462 C 0.97221 0.487 0.65883 0.0
C463 C 0.98434 0.53936 0.7034 0.0
O464 O 0.01075 0.64399 0.70054 0.0
O465 O 0.95366 0.63789 0.70229 0.0
O466 O 0.95449 0.55268 0.69738 0.0
O467 O 0.01172 0.55892 0.69568 0.0
H468 H 0.98 0.62061 0.77182 0.0
H469 H 0.98832 0.64688 0.83339 0.0
H470 H 1.00671 0.74935 0.79795 0.0
H471 H 0.99844 0.72334 0.7374 0.0
H472 H 0.93804 0.64743 0.51021 0.0
H473 H 0.92688 0.62843 0.56679 0.0
H474 H 0.01968 0.57872 0.50323 0.0
H475 H 0.00882 0.5601 0.56038 0.0
H476 H 0.95909 0.43883 0.62514 0.0
H477 H 0.99293 0.42914 0.73355 0.0
H478 H 1.00017 0.49239 0.74605 0.0
H479 H 0.96587 0.50329 0.63821 0.0
C480 C 0.65066 0.37093 0.66868 0.0
C481 C 0.62781 0.38461 0.6442 0.0
C482 C 0.58009 0.37738 0.6814 0.0
C483 C 0.59294 0.3879 0.65059 0.0
C484 C 0.60294 0.36337 0.70566 0.0
C485 C 0.63785 0.36019 0.69931 0.0
U486 U 0.73058 0.37819 0.61457 0.0
O487 O 0.78721 0.38783 0.63086 0.0
O488 O 0.76571 0.33735 0.60201 0.0
C489 C 0.79379 0.35686 0.61724 0.0
C490 C 0.68718 0.36565 0.66204 0.0
C491 C 0.82296 0.33994 0.6348 0.0
C492 C 0.86844 0.34103 0.68348 0.0
C493 C 0.83478 0.34816 0.67049 0.0
C494 C 0.87757 0.31417 0.62645 0.0
C495 C 0.89123 0.32629 0.66093 0.0
C496 C 0.84384 0.32092 0.61357 0.0
C497 C 0.71581 0.42236 0.52775 0.0
C498 C 0.75594 0.43272 0.48411 0.0
C499 C 0.69614 0.44684 0.47439 0.0
C500 C 0.68946 0.43532 0.5066 0.0
C501 C 0.72935 0.44546 0.46262 0.0
C502 C 0.74922 0.42122 0.51646 0.0
C503 C 0.70699 0.40991 0.56103 0.0
O504 O 0.69026 0.34416 0.63445 0.0
O505 O 0.7101 0.39354 0.66505 0.0
O506 O 0.72372 0.42669 0.58993 0.0
O507 O 0.70268 0.37583 0.56181 0.0
H508 H 0.63687 0.3926 0.62013 0.0
H509 H 0.57594 0.39871 0.63133 0.0
H510 H 0.59398 0.35503 0.72962 0.0
H511 H 0.65487 0.3491 0.71833 0.0
H512 H 0.87838 0.35141 0.71001 0.0
H513 H 0.81943 0.36284 0.6876 0.0
H514 H 0.89454 0.30363 0.60818 0.0
H515 H 0.83555 0.31439 0.58591 0.0
H516 H 0.78193 0.4316 0.47586 0.0
H517 H 0.67501 0.45596 0.45829 0.0
H518 H 0.66345 0.43618 0.51487 0.0
H519 H 0.76989 0.41128 0.53247 0.0
C520 C 0.83817 0.70429 0.24207 0.0
C521 C 0.86214 0.67906 0.23975 0.0
C522 C 0.90535 0.71684 0.2808 0.0
C523 C 0.89555 0.68534 0.25885 0.0
C524 C 0.88202 0.74267 0.28086 0.0
C525 C 0.84905 0.73659 0.26161 0.0
U526 U 0.75541 0.656 0.18385 0.0
O527 O 0.70548 0.63556 0.20036 0.0
O528 O 0.70628 0.67831 0.16666 0.0
C529 C 0.68712 0.65687 0.18351 0.0
C530 C 0.80046 0.69658 0.22922 0.0
C531 C 0.65793 0.66967 0.20147 0.0
C532 C 0.63391 0.68012 0.2568 0.0
C533 C 0.66261 0.68151 0.23716 0.0
C534 C 0.59503 0.65961 0.20485 0.0
C535 C 0.60024 0.6666 0.24143 0.0
C536 C 0.62371 0.66112 0.18501 0.0
C537 C 0.75489 0.5812 0.11396 0.0
C538 C 0.70223 0.56076 0.07539 0.0
C539 C 0.747 0.52181 0.08498 0.0
C540 C 0.76725 0.54854 0.10716 0.0
C541 C 0.7141 0.5274 0.06825 0.0
C542 C 0.72195 0.58686 0.09841 0.0
C543 C 0.77528 0.60837 0.13912 0.0
O544 O 0.7899 0.70546 0.19814 0.0
O545 O 0.78485 0.66653 0.23594 0.0
O546 O 0.77251 0.60377 0.17206 0.0
O547 O 0.77306 0.64099 0.13241 0.0
H548 H 0.85439 0.65384 0.22483 0.0
H549 H 0.91211 0.66441 0.25824 0.0
H550 H 0.88858 0.76714 0.29741 0.0
H551 H 0.83111 0.75649 0.26382 0.0
H552 H 0.63906 0.68543 0.28453 0.0
H553 H 0.68871 0.68811 0.25055 0.0
H554 H 0.56961 0.64857 0.19218 0.0
H555 H 0.61948 0.65173 0.15743 0.0
H556 H 0.67814 0.56791 0.06285 0.0
H557 H 0.75752 0.49693 0.08142 0.0
H558 H 0.79246 0.54351 0.11942 0.0
H559 H 0.7115 0.6117 0.10375 0.0
C560 C 0.26789 0.0062 0.3517 0.0
C561 C 0.24595 0.99365 0.37586 0.0
C562 C 0.19441 1.00194 0.33749 0.0
C563 C 0.20961 0.99123 0.36865 0.0
C564 C 0.21624 0.0152 0.31354 0.0
C565 C 0.25281 0.01719 0.32059 0.0
U566 U 0.33988 0.01145 0.42285 0.0
O567 O 0.39096 0.99083 0.43156 0.0
O568 O 0.3876 0.04756 0.43839 0.0
C569 C 0.40808 0.02219 0.43916 0.0
C570 C 0.30623 0.00989 0.36059 0.0
C571 C 0.44188 0.02779 0.42462 0.0
C572 C 0.47746 0.04942 0.3811 0.0
C573 C 0.44637 0.04854 0.3971 0.0
C574 C 0.50088 0.0112 0.42165 0.0
C575 C 0.50391 0.0287 0.39161 0.0
C576 C 0.47004 0.01076 0.43802 0.0
C577 C 0.30747 0.00802 0.51198 0.0
C578 C 0.34795 0.02182 0.5645 0.0
C579 C 0.28536 0.02214 0.56747 0.0
C580 C 0.27928 0.0122 0.53168 0.0
C581 C 0.31966 0.02774 0.58382 0.0
C582 C 0.34187 0.01222 0.52847 0.0
C583 C 0.30079 1.00474 0.47404 0.0
O584 O 0.31861 0.03924 0.37966 0.0
O585 O 0.3192 0.98222 0.37215 0.0
O586 O 0.31255 0.97788 0.45701 0.0
O587 O 0.30742 0.03434 0.46057 0.0
H588 H 0.25696 0.98569 0.40038 0.0
H589 H 0.19331 0.981 0.38752 0.0
H590 H 0.20511 0.0233 0.28914 0.0
H591 H 0.26928 0.02736 0.30184 0.0
H592 H 0.47878 0.0624 0.35745 0.0
H593 H 0.42514 0.06218 0.38652 0.0
H594 H 0.52046 0.9944 0.42976 0.0
H595 H 0.46725 0.99506 0.45965 0.0
H596 H 0.37456 0.02573 0.57704 0.0
H597 H 0.26332 0.02601 0.58237 0.0
H598 H 0.25268 0.00921 0.51914 0.0
H599 H 0.36391 0.0094 0.51332 0.0
C600 C 0.27002 0.0089 0.69911 0.0
C601 C 0.30653 0.02074 0.73678 0.0
C602 C 0.35829 0.97159 0.69284 0.0
C603 C 0.35138 1.00301 0.73304 0.0
C604 C 0.31998 0.95706 0.6568 0.0
C605 C 0.27684 0.97756 0.65935 0.0
U606 U 0.1828 0.01165 0.74499 0.0
O607 O 0.14124 0.96897 0.72775 0.0
O608 O 0.13467 0.02246 0.71488 0.0
C609 C 0.12075 0.98979 0.71285 0.0
C610 C 0.23372 0.00948 0.70516 0.0
C611 C 0.08403 0.98524 0.71891 0.0
C612 C 0.02411 0.98616 0.69462 0.0
C613 C 0.05906 0.9834 0.6899 0.0
C614 C 0.03845 0.989 0.75752 0.0
C615 C 0.01394 0.99105 0.72851 0.0
C616 C 0.07357 0.9864 0.75276 0.0
C617 C 0.20812 0.04246 0.84661 0.0
C618 C 0.20477 0.0599 0.90819 0.0
C619 C 0.26126 0.05404 0.88672 0.0
C620 C 0.24475 0.0445 0.8527 0.0
C621 C 0.24118 0.06132 0.9146 0.0
C622 C 0.18842 0.05072 0.87442 0.0
C623 C 0.18857 0.02983 0.8126 0.0
O624 O 0.22109 0.98268 0.72033 0.0
O625 O 0.22091 0.039 0.71433 0.0
O626 O 0.18395 0.0523 0.78939 0.0
O627 O 0.19186 0.99788 0.79896 0.0
H628 H 0.30166 0.03607 0.76045 0.0
H629 H 0.37257 0.01062 0.75354 0.0
H630 H 0.32341 0.93897 0.6345 0.0
H631 H 0.25519 0.96915 0.63952 0.0
H632 H 1.00585 0.98809 0.67193 0.0
H633 H 0.067 0.98237 0.66364 0.0
H634 H 0.031 0.99261 0.78391 0.0
H635 H 0.0927 0.98758 0.77541 0.0
H636 H 0.18894 0.06502 0.9295 0.0
H637 H 0.28945 0.0546 0.89152 0.0
H638 H 0.26032 0.038 0.83152 0.0
H639 H 0.16011 0.04907 0.87016 0.0
C640 C 0.66984 0.65014 0.37032 0.0
C641 C 0.64536 0.62728 0.38399 0.0
C642 C 0.68256 0.57957 0.37676 0.0
C643 C 0.65175 0.59241 0.38728 0.0
C644 C 0.70683 0.60243 0.36276 0.0
C645 C 0.70047 0.63733 0.35958 0.0
U646 U 0.61572 0.73004 0.37756 0.0
O647 O 0.63201 0.78667 0.38721 0.0
O648 O 0.60316 0.76517 0.33673 0.0
C649 C 0.61839 0.79325 0.35624 0.0
C650 C 0.66319 0.68665 0.36504 0.0
C651 C 0.63597 0.82241 0.33931 0.0
C652 C 0.68469 0.86786 0.34041 0.0
C653 C 0.67168 0.83421 0.34753 0.0
C654 C 0.62767 0.877 0.31352 0.0
C655 C 0.66215 0.89065 0.32566 0.0
C656 C 0.61476 0.84329 0.32027 0.0
C657 C 0.52888 0.71525 0.42172 0.0
C658 C 0.48524 0.75538 0.43208 0.0
C659 C 0.47551 0.69557 0.44619 0.0
C660 C 0.50772 0.6889 0.43467 0.0
C661 C 0.46375 0.72879 0.44482 0.0
C662 C 0.5176 0.74867 0.42058 0.0
C663 C 0.56217 0.70644 0.40927 0.0
O664 O 0.63561 0.68973 0.34354 0.0
O665 O 0.6662 0.70957 0.39293 0.0
O666 O 0.59107 0.72317 0.42606 0.0
O667 O 0.56295 0.70214 0.37519 0.0
H668 H 0.62129 0.63633 0.39198 0.0
H669 H 0.63249 0.5754 0.39808 0.0
H670 H 0.73079 0.59348 0.35443 0.0
H671 H 0.7195 0.65437 0.3485 0.0
H672 H 0.71122 0.87779 0.3508 0.0
H673 H 0.68877 0.81885 0.36223 0.0
H674 H 0.60942 0.89399 0.30298 0.0
H675 H 0.58711 0.83501 0.31375 0.0
H676 H 0.477 0.78137 0.43097 0.0
H677 H 0.4594 0.67445 0.4553 0.0
H678 H 0.51599 0.66289 0.43552 0.0
H679 H 0.53361 0.76935 0.41066 0.0
C680 C 0.7003 0.26949 0.0083 0.0
C681 C 0.73797 0.30602 0.02014 0.0
C682 C 0.69401 0.35775 0.97098 0.0
C683 C 0.73421 0.35087 1.0024 0.0
C684 C 0.65798 0.31943 0.95646 0.0
C685 C 0.66054 0.27629 0.97696 0.0
U686 U 0.74615 0.18223 0.01104 0.0
O687 O 0.72887 0.14068 0.96835 0.0
O688 O 0.71598 0.13411 0.02183 0.0
C689 C 0.71395 0.12019 0.98917 0.0
C690 C 0.70638 0.23319 0.00888 0.0
C691 C 0.72001 0.08347 0.98462 0.0
C692 C 0.6957 0.02353 0.98554 0.0
C693 C 0.69099 0.05849 0.98278 0.0
C694 C 0.7586 0.03788 0.98837 0.0
C695 C 0.72959 0.01336 0.99042 0.0
C696 C 0.75385 0.073 0.98577 0.0
C697 C 0.84775 0.20751 0.04185 0.0
C698 C 0.90934 0.20423 0.05929 0.0
C699 C 0.88782 0.26069 0.05341 0.0
C700 C 0.85381 0.24415 0.04388 0.0
C701 C 0.91572 0.24063 0.0607 0.0
C702 C 0.87558 0.18785 0.05012 0.0
C703 C 0.81375 0.18794 0.02921 0.0
O704 O 0.72155 0.22057 0.98208 0.0
O705 O 0.71552 0.22036 0.0384 0.0
O706 O 0.79054 0.18333 0.05168 0.0
O707 O 0.80012 0.19123 0.99727 0.0
H708 H 0.76164 0.30116 0.03546 0.0
H709 H 0.7547 0.37206 0.01 0.0
H710 H 0.63567 0.32284 0.93836 0.0
H711 H 0.64072 0.25463 0.96856 0.0
H712 H 0.67301 1.00528 0.98747 0.0
H713 H 0.66473 0.06643 0.98175 0.0
H714 H 0.785 0.03043 0.99198 0.0
H715 H 0.7765 0.09213 0.98695 0.0
H716 H 0.93067 0.18841 0.06442 0.0
H717 H 0.89261 0.28888 0.05396 0.0
H718 H 0.83262 0.25969 0.03736 0.0
H719 H 0.87135 0.15953 0.04847 0.0
C720 C 0.24322 0.83764 0.70371 0.0
C721 C 0.24091 0.86162 0.67847 0.0
C722 C 0.28196 0.90483 0.71625 0.0
C723 C 0.26001 0.89502 0.68476 0.0
C724 C 0.28201 0.88149 0.74209 0.0
C725 C 0.26276 0.84852 0.73601 0.0
U726 U 0.185 0.75489 0.6554 0.0
O727 O 0.20151 0.70496 0.63495 0.0
O728 O 0.16781 0.70574 0.6777 0.0
C729 C 0.18466 0.68659 0.65626 0.0
C730 C 0.23037 0.79993 0.69599 0.0
C731 C 0.20263 0.65741 0.66906 0.0
C732 C 0.25796 0.6334 0.67948 0.0
C733 C 0.23833 0.66209 0.68088 0.0
C734 C 0.20601 0.59451 0.65902 0.0
C735 C 0.24259 0.59972 0.66598 0.0
C736 C 0.18617 0.62318 0.66053 0.0
C737 C 0.11512 0.75437 0.58061 0.0
C738 C 0.07655 0.7017 0.56017 0.0
C739 C 0.08615 0.74648 0.52122 0.0
C740 C 0.10831 0.76674 0.54795 0.0
C741 C 0.06942 0.71357 0.52681 0.0
C742 C 0.09957 0.72143 0.58627 0.0
C743 C 0.14027 0.77477 0.60778 0.0
O744 O 0.19929 0.78937 0.70486 0.0
O745 O 0.2371 0.78433 0.66594 0.0
O746 O 0.17321 0.772 0.60318 0.0
O747 O 0.13356 0.77254 0.6404 0.0
H748 H 0.226 0.85386 0.65326 0.0
H749 H 0.25942 0.91159 0.66383 0.0
H750 H 0.29855 0.88805 0.76656 0.0
H751 H 0.26495 0.83058 0.75591 0.0
H752 H 0.28569 0.63856 0.68476 0.0
H753 H 0.25172 0.6882 0.68746 0.0
H754 H 0.19333 0.56908 0.64799 0.0
H755 H 0.15858 0.61895 0.65115 0.0
H756 H 0.06401 0.67761 0.56731 0.0
H757 H 0.08259 0.75701 0.49634 0.0
H758 H 0.12057 0.79196 0.54293 0.0
H759 H 0.10491 0.71097 0.61111 0.0
C760 C 0.35287 0.26739 1.00557 0.0
C761 C 0.37703 0.24546 0.99302 0.0
C762 C 0.33866 0.1939 1.00128 0.0
C763 C 0.36982 0.20912 0.99059 0.0
C764 C 0.31471 0.21572 0.01454 0.0
C765 C 0.32175 0.2523 0.01655 0.0
U766 U 0.42402 0.3394 0.01085 0.0
O767 O 0.43272 0.39049 0.99023 0.0
O768 O 0.43954 0.38712 0.04696 0.0
C769 C 0.44031 0.40761 0.0216 0.0
C770 C 0.36175 0.30574 0.00927 0.0
C771 C 0.42575 0.4414 0.02718 0.0
C772 C 0.38221 0.47694 0.0488 0.0
C773 C 0.39823 0.44587 0.04793 0.0
C774 C 0.42276 0.50039 0.01058 0.0
C775 C 0.39271 0.50338 0.02806 0.0
C776 C 0.43914 0.46956 0.01015 0.0
C777 C 0.51315 0.30699 0.00742 0.0
C778 C 0.56569 0.34745 0.02121 0.0
C779 C 0.56862 0.28485 0.02153 0.0
C780 C 0.53283 0.27879 0.01159 0.0
C781 C 0.58499 0.31915 0.02713 0.0
C782 C 0.52966 0.34139 0.01162 0.0
C783 C 0.4752 0.30032 1.00415 0.0
O784 O 0.38082 0.31812 0.03863 0.0
O785 O 0.37331 0.31872 0.9816 0.0
O786 O 0.45818 0.31208 0.97728 0.0
O787 O 0.46173 0.30695 0.03374 0.0
H788 H 0.40156 0.25648 0.98507 0.0
H789 H 0.3887 0.19282 0.98036 0.0
H790 H 0.2903 0.20459 0.02263 0.0
H791 H 0.30301 0.26875 0.02672 0.0
H792 H 0.35856 0.47826 0.06177 0.0
H793 H 0.38766 0.42464 0.06158 0.0
H794 H 0.43086 0.51997 0.99377 0.0
H795 H 0.46078 0.46678 0.99445 0.0
H796 H 0.57824 0.37406 0.02513 0.0
H797 H 0.58351 0.26281 0.02539 0.0
H798 H 0.52027 0.25219 0.0086 0.0
H799 H 0.51452 0.36343 0.00881 0.0
C800 C 0.37145 0.66929 0.64952 0.0
C801 C 0.38514 0.64481 0.62667 0.0
C802 C 0.37789 0.682 0.57894 0.0
C803 C 0.38843 0.65119 0.5918 0.0
C804 C 0.36388 0.70626 0.60179 0.0
C805 C 0.3607 0.69991 0.63669 0.0
U806 U 0.37872 0.6152 0.72945 0.0
O807 O 0.38837 0.6315 0.78607 0.0
O808 O 0.33789 0.60262 0.76459 0.0
C809 C 0.3574 0.61785 0.79267 0.0
C810 C 0.36617 0.66265 0.68604 0.0
C811 C 0.3405 0.63536 0.82187 0.0
C812 C 0.34161 0.684 0.86741 0.0
C813 C 0.34871 0.67105 0.83372 0.0
C814 C 0.31479 0.62694 0.87649 0.0
C815 C 0.32689 0.66141 0.89018 0.0
C816 C 0.3215 0.6141 0.84274 0.0
C817 C 0.42292 0.52839 0.71468 0.0
C818 C 0.43326 0.48474 0.75481 0.0
C819 C 0.44741 0.47504 0.69501 0.0
C820 C 0.43589 0.50724 0.68834 0.0
C821 C 0.44601 0.46326 0.72822 0.0
C822 C 0.42176 0.51709 0.74809 0.0
C823 C 0.41047 0.56167 0.70586 0.0
O824 O 0.34469 0.63505 0.68913 0.0
O825 O 0.39406 0.66568 0.70895 0.0
O826 O 0.42723 0.59058 0.72259 0.0
O827 O 0.37638 0.56243 0.70156 0.0
H828 H 0.39314 0.62075 0.63573 0.0
H829 H 0.39924 0.63194 0.57479 0.0
H830 H 0.35553 0.73021 0.59283 0.0
H831 H 0.34961 0.71893 0.65372 0.0
H832 H 0.35199 0.71053 0.87736 0.0
H833 H 0.36338 0.68819 0.81839 0.0
H834 H 0.30426 0.60864 0.89346 0.0
H835 H 0.31498 0.58645 0.83441 0.0
H836 H 0.43213 0.47649 0.78079 0.0
H837 H 0.45653 0.45894 0.67389 0.0
H838 H 0.43677 0.51552 0.66234 0.0
H839 H 0.41182 0.53309 0.76876 0.0
C840 C 0.00941 0.69962 0.26886 0.0
C841 C 0.02127 0.73733 0.30533 0.0
C842 C 0.97212 0.69346 0.35715 0.0
C843 C 1.00354 0.73364 0.3502 0.0
C844 C 0.95757 0.65738 0.31888 0.0
C845 C 0.97806 0.65987 0.27573 0.0
U846 U 0.01218 0.74557 0.18172 0.0
O847 O 0.96952 0.7284 0.14012 0.0
O848 O 0.02301 0.71556 0.13354 0.0
C849 C 0.99035 0.71353 0.11962 0.0
C850 C 0.00999 0.70563 0.23255 0.0
C851 C 0.9858 0.7196 0.0829 0.0
C852 C 0.98669 0.69529 0.02298 0.0
C853 C 0.98395 0.69058 0.05794 0.0
C854 C 0.98954 0.75819 0.03731 0.0
C855 C 0.99157 0.72918 0.0128 0.0
C856 C 0.98695 0.75345 0.07243 0.0
C857 C 0.04297 0.84722 0.2071 0.0
C858 C 0.06033 0.9088 0.20365 0.0
C859 C 0.05462 0.8874 0.2602 0.0
C860 C 0.04507 0.85335 0.24374 0.0
C861 C 0.06184 0.91525 0.24006 0.0
C862 C 0.05116 0.87501 0.18735 0.0
C863 C 0.03034 0.81318 0.18761 0.0
O864 O 0.98319 0.72079 0.21992 0.0
O865 O 0.03952 0.71485 0.21976 0.0
O866 O 0.05283 0.78999 0.18296 0.0
O867 O 0.9984 0.79953 0.19089 0.0
H868 H 0.0366 0.76098 0.30043 0.0
H869 H 0.01116 0.75415 0.37137 0.0
H870 H 0.93947 0.63509 0.32233 0.0
H871 H 0.96964 0.64003 0.25409 0.0
H872 H 0.98861 0.6726 1.00472 0.0
H873 H 0.98292 0.66432 0.06587 0.0
H874 H 0.99314 0.78459 0.02985 0.0
H875 H 0.98814 0.77609 0.09156 0.0
H876 H 0.0654 0.93009 0.18778 0.0
H877 H 0.05524 0.89224 0.28839 0.0
H878 H 0.03862 0.8322 0.25935 0.0
H879 H 0.04945 0.87072 0.15904 0.0
C880 C 0.70485 0.24269 0.83703 0.0
C881 C 0.67961 0.24039 0.86101 0.0
C882 C 0.71741 0.28142 0.90422 0.0
C883 C 0.6859 0.25949 0.89441 0.0
C884 C 0.74324 0.28147 0.88088 0.0
C885 C 0.73715 0.26222 0.84791 0.0
U886 U 0.65654 0.18447 0.75428 0.0
O887 O 0.63609 0.20099 0.70435 0.0
O888 O 0.67884 0.16728 0.70514 0.0
C889 C 0.6574 0.18414 0.68599 0.0
C890 C 0.69713 0.22984 0.79933 0.0
C891 C 0.6702 0.2021 0.6568 0.0
C892 C 0.68064 0.25742 0.63278 0.0
C893 C 0.68204 0.2378 0.66147 0.0
C894 C 0.66014 0.20547 0.59389 0.0
C895 C 0.66712 0.24205 0.59911 0.0
C896 C 0.66166 0.18564 0.62257 0.0
C897 C 0.58174 0.11458 0.75375 0.0
C898 C 0.56131 0.07601 0.70109 0.0
C899 C 0.52235 0.08561 0.74585 0.0
C900 C 0.54908 0.10777 0.76611 0.0
C901 C 0.52795 0.06888 0.71294 0.0
C902 C 0.58741 0.09903 0.72081 0.0
C903 C 0.60892 0.13973 0.77415 0.0
O904 O 0.706 0.19877 0.78876 0.0
O905 O 0.66707 0.23657 0.78372 0.0
O906 O 0.60431 0.17267 0.77138 0.0
O907 O 0.64153 0.13303 0.77193 0.0
H908 H 0.65439 0.22548 0.85326 0.0
H909 H 0.66497 0.25889 0.91098 0.0
H910 H 0.76772 0.29801 0.88744 0.0
H911 H 0.75705 0.26441 0.82997 0.0
H912 H 0.68594 0.28516 0.63792 0.0
H913 H 0.68863 0.25119 0.68757 0.0
H914 H 0.6491 0.1928 0.56848 0.0
H915 H 0.65227 0.15805 0.61835 0.0
H916 H 0.56846 0.06347 0.67699 0.0
H917 H 0.49746 0.08205 0.75636 0.0
H918 H 0.54405 0.12003 0.79132 0.0
H919 H 0.61226 0.10436 0.71036 0.0
C920 C 1.0067 0.35231 0.26677 0.0
C921 C 0.99415 0.37648 0.24485 0.0
C922 C 1.0024 0.33813 0.19327 0.0
C923 C 0.99172 0.36928 0.2085 0.0
C924 C 0.01566 0.31416 0.21508 0.0
C925 C 0.01768 0.32119 0.25166 0.0
U926 U 0.01197 0.42344 0.33876 0.0
O927 O 0.99136 0.43215 0.38985 0.0
O928 O 0.04809 0.43899 0.38646 0.0
C929 C 0.02273 0.43976 0.40696 0.0
C930 C 0.0104 0.36118 0.30511 0.0
C931 C 0.02832 0.42523 0.44076 0.0
C932 C 0.04995 0.38171 0.47633 0.0
C933 C 0.04907 0.39771 0.44524 0.0
C934 C 0.01172 0.42226 0.49975 0.0
C935 C 0.02921 0.39222 0.50276 0.0
C936 C 0.01129 0.43863 0.46891 0.0
C937 C 0.00853 0.51256 0.30634 0.0
C938 C 0.02233 0.56508 0.34682 0.0
C939 C 0.02266 0.56805 0.28423 0.0
C940 C 0.01271 0.53226 0.27816 0.0
C941 C 0.02826 0.58439 0.31853 0.0
C942 C 0.01273 0.52905 0.34075 0.0
C943 C 1.00525 0.47461 0.29966 0.0
O944 O 0.03976 0.38025 0.31749 0.0
O945 O 0.98273 0.37272 0.31809 0.0
O946 O 0.9784 0.45759 0.31143 0.0
O947 O 0.03485 0.46115 0.30629 0.0
H948 H 0.98621 0.401 0.25587 0.0
H949 H 0.98149 0.38817 0.19222 0.0
H950 H 0.02375 0.28976 0.20394 0.0
H951 H 0.02784 0.30244 0.26811 0.0
H952 H 0.06292 0.35807 0.47765 0.0
H953 H 0.06272 0.38713 0.42401 0.0
H954 H 0.99492 0.43037 0.51933 0.0
H955 H 0.99559 0.46026 0.46612 0.0
H956 H 0.02625 0.57762 0.37343 0.0
H957 H 0.02653 0.58294 0.26219 0.0
H958 H 0.00972 0.51971 0.25155 0.0
H959 H 0.00991 0.5139 0.36278 0.0
H960 H 0.26744 0.53623 0.68152 0.0
H961 H 0.31158 0.51607 0.58347 0.0
H962 H 0.26297 0.61016 0.60485 0.0
H963 H 0.34743 0.48464 0.61765 0.0
C964 C 0.32855 0.47094 0.6321 0.0
C965 C 0.27376 0.54418 0.65647 0.0
C966 C 0.26371 0.5762 0.64591 0.0
C967 C 0.29202 0.52238 0.63449 0.0
C968 C 0.29902 0.53288 0.60139 0.0
C969 C 0.28797 0.56429 0.59039 0.0
C970 C 0.27113 0.58578 0.61311 0.0
N971 N 0.30112 0.48938 0.64516 0.0
H972 H 0.3667 0.56537 0.05031 0.0
H973 H 0.27146 0.54357 0.98025 0.0
H974 H 0.35718 0.48106 0.96926 0.0
H975 H 0.35164 0.61807 0.06067 0.0
C976 C 0.32632 0.62142 0.04751 0.0
C977 C 0.35159 0.55103 0.02758 0.0
C978 C 0.36447 0.52138 0.01167 0.0
C979 C 0.31897 0.56097 0.01396 0.0
C980 C 0.2978 0.5378 0.98811 0.0
C981 C 0.3106 0.50732 0.97306 0.0
C982 C 0.34553 0.5025 0.98235 0.0
N983 N 0.30648 0.59346 0.02535 0.0
H984 H 0.68461 0.95031 0.29156 0.0
H985 H 0.69756 0.01961 0.38715 0.0
H986 H 0.6556 0.91553 0.38921 0.0
H987 H 0.68634 0.08396 0.28355 0.0
C988 C 0.70869 0.07237 0.29625 0.0
C989 C 0.68037 0.95616 0.31874 0.0
C990 C 0.66857 0.9286 0.33846 0.0
C991 C 0.68788 0.9912 0.33516 0.0
C992 C 0.68609 0.99615 0.37153 0.0
C993 C 0.67374 0.96962 0.39047 0.0
C994 C 0.66387 0.93637 0.37377 0.0
N995 N 0.70516 0.0195 0.31754 0.0
H996 H 0.69906 0.94627 0.96958 0.0
H997 H 0.73758 0.90242 0.0627 0.0
H998 H 0.76896 0.00942 0.04991 0.0
H999 H 0.74628 0.86012 0.01077 0.0
C1000 C 0.71821 0.85666 1.003 0.0
C1001 C 0.71515 0.94899 0.99447 0.0
C1002 C 0.73448 0.98116 0.00706 0.0
C1003 C 0.71718 0.92015 0.01386 0.0
C1004 C 0.7368 0.92422 0.04696 0.0
C1005 C 0.75548 0.95641 0.05967 0.0
C1006 C 0.75495 0.98436 0.03937 0.0
N1007 N 0.70037 0.88687 0.99969 0.0
H1008 H 0.68266 0.26691 0.53562 0.0
H1009 H 0.58462 0.31105 0.51545 0.0
H1010 H 0.60599 0.26244 0.60955 0.0
H1011 H 0.61879 0.3469 0.48402 0.0
C1012 C 0.63325 0.32802 0.47032 0.0
C1013 C 0.65761 0.27324 0.54357 0.0
C1014 C 0.64705 0.26318 0.57559 0.0
C1015 C 0.63563 0.2915 0.52176 0.0
C1016 C 0.60253 0.29849 0.53227 0.0
C1017 C 0.59154 0.28744 0.56368 0.0
C1018 C 0.61425 0.2706 0.58516 0.0
N1019 N 0.64631 0.30059 0.48876 0.0
H1020 H 0.9707 0.69861 0.94574 0.0
H1021 H 0.06384 0.73702 0.90186 0.0
H1022 H 0.05107 0.76854 0.00883 0.0
H1023 H 0.01177 0.74579 0.85962 0.0
C1024 C 1.00407 0.71771 0.85616 0.0
C1025 C 0.9956 0.71469 0.94845 0.0
C1026 C 0.0082 0.73406 0.98059 0.0
C1027 C 0.015 0.71667 0.91962 0.0
C1028 C 0.0481 0.73628 0.92366 0.0
C1029 C 0.06082 0.75499 0.95582 0.0
C1030 C 0.04052 0.75451 0.98378 0.0
N1031 N 1.00083 0.69985 0.88636 0.0
H1032 H 0.05148 0.36622 0.56474 0.0
H1033 H 0.98144 0.27096 0.54298 0.0
H1034 H 0.97041 0.35668 0.48046 0.0
H1035 H 0.06182 0.3512 0.61746 0.0
C1036 C 0.04869 0.32586 0.62081 0.0
C1037 C 0.02874 0.3511 0.55041 0.0
C1038 C 0.01282 0.36399 0.52077 0.0
C1039 C 0.01514 0.31848 0.56037 0.0
C1040 C 0.98928 0.2973 0.53721 0.0
C1041 C 0.97423 0.3101 0.50673 0.0
C1042 C 0.9835 0.34503 0.5019 0.0
N1043 N 0.02654 0.306 0.59286 0.0
H1044 H 0.29266 0.68376 0.9498 0.0
H1045 H 0.38827 0.69765 0.01902 0.0
H1046 H 0.39041 0.65491 0.91517 0.0
H1047 H 0.28473 0.68547 0.08354 0.0
C1048 C 0.29735 0.70785 0.07194 0.0
C1049 C 0.31987 0.67966 0.95567 0.0
C1050 C 0.33963 0.66786 0.92815 0.0
C1051 C 0.33629 0.68734 0.9907 0.0
C1052 C 0.37271 0.68589 0.99562 0.0
C1053 C 0.39168 0.67342 0.96916 0.0
C1054 C 0.37496 0.66326 0.93596 0.0
N1055 N 0.31853 0.70443 0.01899 0.0
H1056 H 0.53676 0.68213 0.26629 0.0
H1057 H 0.51659 0.58409 0.31045 0.0
H1058 H 0.61069 0.60547 0.26182 0.0
H1059 H 0.48516 0.61826 0.34628 0.0
C1060 C 0.47146 0.63271 0.32741 0.0
C1061 C 0.54471 0.65708 0.27262 0.0
C1062 C 0.57673 0.64653 0.26256 0.0
C1063 C 0.52291 0.6351 0.29088 0.0
C1064 C 0.53341 0.602 0.29788 0.0
C1065 C 0.56482 0.59101 0.28683 0.0
C1066 C 0.5863 0.61373 0.26999 0.0
N1067 N 0.4899 0.64577 0.29998 0.0
H1068 H 0.94687 0.97019 0.69796 0.0
H1069 H 0.903 0.06331 0.73643 0.0
H1070 H 0.00998 0.05054 0.76788 0.0
H1071 H 0.86074 0.01125 0.74517 0.0
C1072 C 0.85729 1.00355 0.71708 0.0
C1073 C 0.94959 0.99508 0.71405 0.0
C1074 C 0.98174 0.00768 0.7334 0.0
C1075 C 0.92075 0.01448 0.71605 0.0
C1076 C 0.92481 0.04757 0.73567 0.0
C1077 C 0.95697 0.06029 0.75437 0.0
C1078 C 0.98493 0.03999 0.75386 0.0
N1079 N 0.88749 1.0003 0.69923 0.0
H1080 H 0.56599 0.05097 0.36564 0.0
H1081 H 0.54418 0.98096 0.27037 0.0
H1082 H 0.48163 0.96992 0.35605 0.0
H1083 H 0.61881 0.06131 0.35055 0.0
C1084 C 0.62215 0.04813 0.32523 0.0
C1085 C 0.55164 0.02825 0.35051 0.0
C1086 C 0.52196 0.01234 0.36338 0.0
C1087 C 0.5616 0.01465 0.31789 0.0
C1088 C 0.53841 0.98881 0.29671 0.0
C1089 C 0.50791 0.97375 0.30949 0.0
C1090 C 0.50308 0.98302 0.34442 0.0
N1091 N 0.59413 0.02601 0.30541 0.0
H1092 H 0.95091 0.29213 0.68331 0.0
H1093 H 0.02014 0.38776 0.69667 0.0
H1094 H 0.91615 0.38982 0.6544 0.0
H1095 H 0.08475 0.28436 0.68487 0.0
C1096 C 0.07308 0.2969 0.70726 0.0
C1097 C 0.95675 0.31933 0.67913 0.0
C1098 C 0.92919 0.33906 0.66736 0.0
C1099 C 0.9918 0.33576 0.68668 0.0
C1100 C 0.99671 0.37216 0.68507 0.0
C1101 C 0.9702 0.3911 0.67268 0.0
C1102 C 0.93697 0.37439 0.6627 0.0
N1103 N 0.02012 0.31804 0.70379 0.0
H1104 H 0.75518 0.4812 0.33503 0.0
H1105 H 0.70983 0.50253 0.43203 0.0
H1106 H 0.76305 0.41073 0.4148 0.0
H1107 H 0.6702 0.52729 0.39483 0.0
C1108 C 0.68901 0.54268 0.38168 0.0
C1109 C 0.74937 0.47395 0.36047 0.0
C1110 C 0.7614 0.44335 0.37263 0.0
C1111 C 0.72975 0.4952 0.38146 0.0
C1112 C 0.72336 0.48578 0.41496 0.0
C1113 C 0.7357 0.45557 0.42732 0.0
C1114 C 0.7541 0.43448 0.40574 0.0
N1115 N 0.71824 0.52668 0.36948 0.0
H1116 H 0.64526 0.44485 0.95811 0.0
H1117 H 0.73537 0.46721 0.03322 0.0
H1118 H 0.64454 0.52323 0.04333 0.0
H1119 H 0.66603 0.39515 0.94354 0.0
C1120 C 0.68905 0.39247 0.96102 0.0
C1121 C 0.65788 0.4583 0.98253 0.0
C1122 C 0.64207 0.48562 0.99886 0.0
C1123 C 0.69079 0.45044 0.99671 0.0
C1124 C 0.7089 0.47219 0.02513 0.0
C1125 C 0.69335 0.50001 0.04187 0.0
C1126 C 0.65835 0.50363 0.0303 0.0
N1127 N 0.70692 0.42134 0.98297 0.0
H1128 H 0.34246 0.06637 0.71811 0.0
H1129 H 0.35418 0.99884 0.63315 0.0
H1130 H 0.31228 0.0912 0.61559 0.0
H1131 H 0.33344 0.93227 0.73744 0.0
C1132 C 0.30964 0.93537 0.72107 0.0
C1133 C 0.33241 0.05568 0.69168 0.0
C1134 C 0.32871 0.08273 0.66888 0.0
C1135 C 0.32539 0.01635 0.68029 0.0
C1136 C 0.33822 0.01753 0.64494 0.0
C1137 C 0.32508 0.0393 0.62128 0.0
C1138 C 0.31835 0.07232 0.63383 0.0
N1139 N 0.30541 0.96981 0.70866 0.0
H1140 H 0.2994 0.07897 0.04754 0.0
H1141 H 0.27581 0.1208 0.94933 0.0
H1142 H 0.24268 0.01344 0.95975 0.0
H1143 H 0.34446 0.14064 0.97707 0.0
C1144 C 0.33095 0.15538 0.99611 0.0
C1145 C 0.28705 0.07563 0.02085 0.0
C1146 C 0.27048 0.04268 0.00623 0.0
C1147 C 0.28908 0.10389 1.00034 0.0
C1148 C 0.2744 0.09912 0.96527 0.0
C1149 C 0.25734 0.06666 0.95096 0.0
C1150 C 0.25507 0.03878 0.97151 0.0
N1151 N 0.30633 0.13696 0.01469 0.0
H1152 H 0.33617 0.75462 0.48057 0.0
H1153 H 0.43315 0.70925 0.50187 0.0
H1154 H 0.41593 0.7625 0.41009 0.0
H1155 H 0.39597 0.66963 0.52666 0.0
C1156 C 0.38281 0.68843 0.54204 0.0
C1157 C 0.36161 0.74881 0.47331 0.0
C1158 C 0.37376 0.76084 0.44271 0.0
C1159 C 0.38259 0.72918 0.49456 0.0
C1160 C 0.41609 0.72278 0.48513 0.0
C1161 C 0.42844 0.73514 0.45493 0.0
C1162 C 0.40687 0.75355 0.43384 0.0
N1163 N 0.3706 0.71766 0.52604 0.0
H1164 H 0.04865 0.29891 0.07833 0.0
H1165 H 0.95045 0.27529 0.12016 0.0
H1166 H 0.96086 0.24218 0.01281 0.0
H1167 H 0.97819 0.34394 0.14002 0.0
C1168 C 0.99723 0.33044 0.15475 0.0
C1169 C 0.02196 0.28656 0.07499 0.0
C1170 C 0.00734 0.26999 0.04205 0.0
C1171 C 1.00146 0.28858 0.10325 0.0
C1172 C 0.96639 0.27389 0.09849 0.0
C1173 C 0.95208 0.25683 0.06602 0.0
C1174 C 0.97263 0.25457 0.03815 0.0
N1175 N 0.01581 0.30583 0.13632 0.0
H1176 H 0.95944 0.64459 0.44412 0.0
H1177 H 0.03436 0.73486 0.46664 0.0
H1178 H 0.0446 0.644 0.52261 0.0
H1179 H 0.94464 0.66556 0.3946 0.0
C1180 C 0.96218 0.68854 0.39188 0.0
C1181 C 0.98383 0.65726 0.45761 0.0
C1182 C 1.00014 0.64146 0.48495 0.0
C1183 C 0.99795 0.69022 0.44981 0.0
C1184 C 0.02632 0.70836 0.47159 0.0
C1185 C 0.04307 0.69281 0.4994 0.0
C1186 C 0.03155 0.65778 0.503 0.0
N1187 N 0.98419 0.70637 0.42073 0.0
H1188 H 0.71928 0.34191 0.06577 0.0
H1189 H 0.63433 0.35365 0.99823 0.0
H1190 H 0.61675 0.31176 0.09058 0.0
H1191 H 0.7386 0.33291 0.93164 0.0
C1192 C 0.72223 0.30911 0.93476 0.0
C1193 C 0.69285 0.33186 0.05507 0.0
C1194 C 0.67004 0.32817 0.08212 0.0
C1195 C 0.68147 0.32485 0.01575 0.0
C1196 C 0.64612 0.33769 0.01692 0.0
C1197 C 0.62245 0.32455 0.03869 0.0
C1198 C 0.63499 0.31782 0.07171 0.0
N1199 N 0.70985 0.30488 0.96921 0.0
H1200 H 0.48171 0.33565 0.75402 0.0
H1201 H 0.50307 0.43266 0.70868 0.0
H1202 H 0.41127 0.41543 0.76191 0.0
H1203 H 0.52782 0.39546 0.66904 0.0
C1204 C 0.5432 0.3823 0.68784 0.0
C1205 C 0.47447 0.36109 0.74821 0.0
C1206 C 0.44387 0.37325 0.76025 0.0
C1207 C 0.49572 0.38208 0.72859 0.0
C1208 C 0.48631 0.41559 0.72221 0.0
C1209 C 0.45611 0.42795 0.73456 0.0
C1210 C 0.43501 0.40637 0.75296 0.0
N1211 N 0.5272 0.37009 0.71707 0.0
H1212 H 0.07954 0.04821 0.29819 0.0
H1213 H 0.12133 0.94999 0.27466 0.0
H1214 H 0.014 0.96042 0.24152 0.0
H1215 H 0.14114 0.97775 0.34329 0.0
C1216 C 0.15589 0.99679 0.32979 0.0
C1217 C 0.07621 0.02152 0.28585 0.0
C1218 C 0.04328 0.0069 0.26928 0.0
C1219 C 0.10444 1.00101 0.2879 0.0
C1220 C 0.09966 0.96593 0.27324 0.0
C1221 C 0.0672 0.95162 0.25619 0.0
C1222 C 0.03935 0.97218 0.25389 0.0
N1223 N 0.1375 0.01537 0.30516 0.0
H1224 H 0.44527 0.95889 0.64396 0.0
H1225 H 0.46779 0.0338 0.73422 0.0
H1226 H 0.52375 0.04407 0.64337 0.0
H1227 H 0.3957 0.94413 0.66489 0.0
C1228 C 0.39301 0.96165 0.68789 0.0
C1229 C 0.45876 0.98328 0.65663 0.0
C1230 C 0.4861 0.9996 0.64083 0.0
C1231 C 0.45095 0.99739 0.68958 0.0
C1232 C 0.47273 0.02577 0.70773 0.0
C1233 C 0.50054 0.04253 0.69218 0.0
C1234 C 0.50414 0.03101 0.65716 0.0
N1235 N 0.42187 0.98363 0.70573 0.0
H1236 H 0.06688 0.71869 0.34132 0.0
H1237 H 0.99935 0.63372 0.35305 0.0
H1238 H 0.09172 0.61618 0.31117 0.0
H1239 H 0.9328 0.73803 0.33228 0.0
C1240 C 0.9359 0.72165 0.30848 0.0
C1241 C 0.05619 0.69226 0.33128 0.0
C1242 C 0.08325 0.66946 0.32759 0.0
C1243 C 0.01687 0.68086 0.32425 0.0
C1244 C 0.01804 0.64551 0.33708 0.0
C1245 C 0.03982 0.62186 0.32395 0.0
C1246 C 0.07284 0.63441 0.31723 0.0
N1247 N 0.97033 0.70922 0.30425 0.0
loop_
_geom_bond_atom_site_label_1
_geom_bond_atom_site_label_2
_geom_bond_distance
_geom_bond_site_symmetry_2
_ccdc_geom_bond_type
C0 C1 1.264 . S
C0 C5 1.479 . S
C0 C10 1.465 . S
C1 C0 1.264 . S
C1 C3 1.339 . S
C1 H28 0.931 . S
C2 C3 1.395 . S
C2 C4 1.320 . S
C3 C1 1.339 . S
C3 C2 1.395 . S
C3 H29 0.929 . S
C4 C2 1.320 . S
C4 C5 1.405 . S
C4 H30 0.930 . S
C5 C0 1.479 . S
C5 C4 1.405 . S
C5 H31 0.931 . S
U6 O7 2.454 . S
U6 O8 2.458 . S
U6 C9 2.984 . S
U6 C10 2.847 . S
U6 C23 2.882 . S
U6 O24 2.441 . S
U6 O25 2.420 . S
U6 O26 2.455 . S
U6 O27 2.449 . S
O7 U6 2.454 . S
O7 C9 1.353 . S
O8 U6 2.458 . S
O8 C9 1.286 . S
C9 U6 2.984 . S
C9 O7 1.353 . S
C9 O8 1.286 . S
C9 C11 1.363 . S
C10 C0 1.465 . S
C10 U6 2.847 . S
C10 O24 1.249 . S
C10 O25 1.202 . S
C11 C9 1.363 . S
C11 C13 1.408 . S
C11 C16 1.342 . S
C12 C13 1.310 . S
C12 C15 1.461 . S
C12 H32 0.932 . S
C13 C11 1.408 . S
C13 C12 1.310 . S
C13 H33 0.930 . S
C14 C15 1.474 . S
C14 C16 1.285 . S
C14 H34 0.929 . S
C15 C12 1.461 . S
C15 C14 1.474 . S
C16 C11 1.342 . S
C16 C14 1.285 . S
C16 H35 0.930 . S
C17 C20 1.424 . S
C17 C22 1.245 . S
C17 C23 1.428 . S
C18 C21 1.260 . S
C18 C22 1.477 . S
C18 H36 0.932 . S
C19 C20 1.384 . S
C19 C21 1.479 . S
C19 H37 0.929 . S
C20 C17 1.424 . S
C20 C19 1.384 . S
C20 H38 0.928 . S
C21 C18 1.260 . S
C21 C19 1.479 . S
C22 C17 1.245 . S
C22 C18 1.477 . S
C22 H39 0.932 . S
C23 U6 2.882 . S
C23 C17 1.428 . S
C23 O26 1.301 . S
C23 O27 1.282 . S
O24 U6 2.441 . S
O24 C10 1.249 . S
O25 U6 2.420 . S
O25 C10 1.202 . S
O26 U6 2.455 . S
O26 C23 1.301 . S
O27 U6 2.449 . S
O27 C23 1.282 . S
H28 C1 0.931 . S
H29 C3 0.929 . S
H30 C4 0.930 . S
H31 C5 0.931 . S
H32 C12 0.932 . S
H33 C13 0.930 . S
H34 C14 0.929 . S
H35 C16 0.930 . S
H36 C18 0.932 . S
H37 C19 0.929 . S
H38 C20 0.928 . S
H39 C22 0.932 . S
C40 C41 1.264 . S
C40 C45 1.479 . S
C40 C50 1.465 . S
C41 C40 1.264 . S
C41 C43 1.339 . S
C41 H68 0.931 . S
C42 C43 1.395 . S
C42 C44 1.320 . S
C43 C41 1.339 . S
C43 C42 1.395 . S
C43 H69 0.929 . S
C44 C42 1.320 . S
C44 C45 1.405 . S
C44 H70 0.930 . S
C45 C40 1.479 . S
C45 C44 1.405 . S
C45 H71 0.931 . S
U46 O47 2.454 . S
U46 O48 2.458 . S
U46 C49 2.984 . S
U46 C50 2.847 . S
U46 C63 2.882 . S
U46 O64 2.441 . S
U46 O65 2.420 . S
U46 O66 2.455 . S
U46 O67 2.449 . S
O47 U46 2.454 . S
O47 C49 1.353 . S
O48 U46 2.458 . S
O48 C49 1.286 . S
C49 U46 2.984 . S
C49 O47 1.353 . S
C49 O48 1.286 . S
C49 C51 1.363 . S
C50 C40 1.465 . S
C50 U46 2.847 . S
C50 O64 1.249 . S
C50 O65 1.202 . S
C51 C49 1.363 . S
C51 C53 1.408 . S
C51 C56 1.342 . S
C52 C53 1.310 . S
C52 C55 1.461 . S
C52 H72 0.932 . S
C53 C51 1.408 . S
C53 C52 1.310 . S
C53 H73 0.930 . S
C54 C55 1.474 . S
C54 C56 1.285 . S
C54 H74 0.929 . S
C55 C52 1.461 . S
C55 C54 1.474 . S
C56 C51 1.342 . S
C56 C54 1.285 . S
C56 H75 0.930 . S
C57 C60 1.424 . S
C57 C62 1.245 . S
C57 C63 1.428 . S
C58 C61 1.260 . S
C58 C62 1.477 . S
C58 H76 0.932 . S
C59 C60 1.384 . S
C59 C61 1.479 . S
C59 H77 0.929 . S
C60 C57 1.424 . S
C60 C59 1.384 . S
C60 H78 0.928 . S
C61 C58 1.260 . S
C61 C59 1.479 . S
C62 C57 1.245 . S
C62 C58 1.477 . S
C62 H79 0.932 . S
C63 U46 2.882 . S
C63 C57 1.428 . S
C63 O66 1.301 . S
C63 O67 1.282 . S
O64 U46 2.441 . S
O64 C50 1.249 . S
O65 U46 2.420 . S
O65 C50 1.202 . S
O66 U46 2.455 . S
O66 C63 1.301 . S
O67 U46 2.449 . S
O67 C63 1.282 . S
H68 C41 0.931 . S
H69 C43 0.929 . S
H70 C44 0.930 . S
H71 C45 0.931 . S
H72 C52 0.932 . S
H73 C53 0.930 . S
H74 C54 0.929 . S
H75 C56 0.930 . S
H76 C58 0.932 . S
H77 C59 0.929 . S
H78 C60 0.928 . S
H79 C62 0.932 . S
C80 C81 1.264 . S
C80 C85 1.479 . S
C80 C90 1.465 . S
C81 C80 1.264 . S
C81 C83 1.339 . S
C81 H108 0.931 . S
C82 C83 1.395 . S
C82 C84 1.320 . S
C83 C81 1.339 . S
C83 C82 1.395 . S
C83 H109 0.929 . S
C84 C82 1.320 . S
C84 C85 1.405 . S
C84 H110 0.930 1_565 S
C85 C80 1.479 . S
C85 C84 1.405 . S
C85 H111 0.931 . S
U86 O87 2.454 . S
U86 O88 2.458 . S
U86 C89 2.984 . S
U86 C90 2.847 . S
U86 C103 2.882 . S
U86 O104 2.441 . S
U86 O105 2.420 . S
U86 O106 2.455 . S
U86 O107 2.449 . S
O87 U86 2.454 . S
O87 C89 1.353 . S
O88 U86 2.458 . S
O88 C89 1.286 . S
C89 U86 2.984 . S
C89 O87 1.353 . S
C89 O88 1.286 . S
C89 C91 1.363 . S
C90 C80 1.465 . S
C90 U86 2.847 . S
C90 O104 1.249 . S
C90 O105 1.202 . S
C91 C89 1.363 . S
C91 C93 1.408 . S
C91 C96 1.342 . S
C92 C93 1.310 . S
C92 C95 1.462 . S
C92 H112 0.932 . S
C93 C91 1.408 . S
C93 C92 1.310 . S
C93 H113 0.930 . S
C94 C95 1.472 1_545 S
C94 C96 1.284 1_545 S
C94 H114 0.932 . S
C95 C92 1.462 . S
C95 C94 1.472 1_565 S
C96 C91 1.342 . S
C96 C94 1.284 1_565 S
C96 H115 0.930 . S
C97 C100 1.424 . S
C97 C102 1.245 . S
C97 C103 1.428 . S
C98 C101 1.260 . S
C98 C102 1.477 . S
C98 H116 0.932 . S
C99 C100 1.384 . S
C99 C101 1.479 . S
C99 H117 0.929 . S
C100 C97 1.424 . S
C100 C99 1.384 . S
C100 H118 0.928 . S
C101 C98 1.260 . S
C101 C99 1.479 . S
C102 C97 1.245 . S
C102 C98 1.477 . S
C102 H119 0.932 . S
C103 U86 2.882 . S
C103 C97 1.428 . S
C103 O106 1.301 . S
C103 O107 1.282 . S
O104 U86 2.441 . S
O104 C90 1.249 . S
O105 U86 2.420 . S
O105 C90 1.202 . S
O106 U86 2.455 . S
O106 C103 1.301 . S
O107 U86 2.449 . S
O107 C103 1.282 . S
H108 C81 0.931 . S
H109 C83 0.929 . S
H110 C84 0.930 1_545 S
H111 C85 0.931 . S
H112 C92 0.932 . S
H113 C93 0.930 . S
H114 C94 0.932 . S
H115 C96 0.930 . S
H116 C98 0.932 . S
H117 C99 0.929 . S
H118 C100 0.928 . S
H119 C102 0.932 . S
C120 C121 1.264 . S
C120 C125 1.479 . S
C120 C130 1.465 . S
C121 C120 1.264 . S
C121 C123 1.339 . S
C121 H148 0.931 . S
C122 C123 1.395 . S
C122 C124 1.320 . S
C123 C121 1.339 . S
C123 C122 1.395 . S
C123 H149 0.929 . S
C124 C122 1.320 . S
C124 C125 1.405 . S
C124 H150 0.930 . S
C125 C120 1.479 . S
C125 C124 1.405 . S
C125 H151 0.931 . S
U126 O127 2.454 . S
U126 O128 2.458 . S
U126 C129 2.984 . S
U126 C130 2.847 . S
U126 C143 2.882 . S
U126 O144 2.441 . S
U126 O145 2.420 . S
U126 O146 2.455 . S
U126 O147 2.449 . S
O127 U126 2.454 . S
O127 C129 1.353 . S
O128 U126 2.458 . S
O128 C129 1.286 . S
C129 U126 2.984 . S
C129 O127 1.353 . S
C129 O128 1.286 . S
C129 C131 1.363 . S
C130 C120 1.465 . S
C130 U126 2.847 . S
C130 O144 1.249 . S
C130 O145 1.202 . S
C131 C129 1.363 . S
C131 C133 1.408 . S
C131 C136 1.342 . S
C132 C133 1.310 . S
C132 C135 1.461 . S
C132 H152 0.932 . S
C133 C131 1.408 . S
C133 C132 1.310 . S
C133 H153 0.930 . S
C134 C135 1.474 . S
C134 C136 1.285 . S
C134 H154 0.929 . S
C135 C132 1.461 . S
C135 C134 1.474 . S
C136 C131 1.342 . S
C136 C134 1.285 . S
C136 H155 0.930 . S
C137 C140 1.424 . S
C137 C142 1.245 . S
C137 C143 1.428 1_565 S
C138 C141 1.260 . S
C138 C142 1.477 . S
C138 H156 0.932 . S
C139 C140 1.384 . S
C139 C141 1.479 . S
C139 H157 0.929 . S
C140 C137 1.424 . S
C140 C139 1.384 . S
C140 H158 0.928 . S
C141 C138 1.260 . S
C141 C139 1.479 . S
C142 C137 1.245 . S
C142 C138 1.477 . S
C142 H159 0.932 . S
C143 U126 2.882 . S
C143 C137 1.428 1_545 S
C143 O146 1.301 . S
C143 O147 1.282 . S
O144 U126 2.441 . S
O144 C130 1.249 . S
O145 U126 2.420 . S
O145 C130 1.202 . S
O146 U126 2.455 . S
O146 C143 1.301 . S
O147 U126 2.449 . S
O147 C143 1.282 . S
H148 C121 0.931 . S
H149 C123 0.929 . S
H150 C124 0.930 . S
H151 C125 0.931 . S
H152 C132 0.932 . S
H153 C133 0.930 . S
H154 C134 0.929 . S
H155 C136 0.930 . S
H156 C138 0.932 . S
H157 C139 0.929 . S
H158 C140 0.928 . S
H159 C142 0.932 . S
C160 C161 1.264 . S
C160 C165 1.479 . S
C160 C170 1.465 . S
C161 C160 1.264 . S
C161 C163 1.339 . S
C161 H188 0.931 . S
C162 C163 1.395 . S
C162 C164 1.320 . S
C163 C161 1.339 . S
C163 C162 1.395 . S
C163 H189 0.929 . S
C164 C162 1.320 . S
C164 C165 1.405 . S
C164 H190 0.930 . S
C165 C160 1.479 . S
C165 C164 1.405 . S
C165 H191 0.931 . S
U166 O167 2.454 . S
U166 O168 2.458 . S
U166 C169 2.984 . S
U166 C170 2.847 . S
U166 C183 2.882 . S
U166 O184 2.441 . S
U166 O185 2.420 . S
U166 O186 2.455 . S
U166 O187 2.449 . S
O167 U166 2.454 . S
O167 C169 1.353 . S
O168 U166 2.458 . S
O168 C169 1.286 . S
C169 U166 2.984 . S
C169 O167 1.353 . S
C169 O168 1.286 . S
C169 C171 1.363 . S
C170 C160 1.465 . S
C170 U166 2.847 . S
C170 O184 1.249 . S
C170 O185 1.202 . S
C171 C169 1.363 . S
C171 C173 1.408 . S
C171 C176 1.342 . S
C172 C173 1.310 . S
C172 C175 1.461 . S
C172 H192 0.932 . S
C173 C171 1.408 . S
C173 C172 1.310 . S
C173 H193 0.930 . S
C174 C175 1.474 . S
C174 C176 1.285 . S
C174 H194 0.929 . S
C175 C172 1.461 . S
C175 C174 1.474 . S
C176 C171 1.342 . S
C176 C174 1.285 . S
C176 H195 0.930 . S
C177 C180 1.424 . S
C177 C182 1.245 . S
C177 C183 1.428 . S
C178 C181 1.260 . S
C178 C182 1.477 . S
C178 H196 0.932 . S
C179 C180 1.384 . S
C179 C181 1.479 . S
C179 H197 0.929 . S
C180 C177 1.424 . S
C180 C179 1.384 . S
C180 H198 0.928 . S
C181 C178 1.260 . S
C181 C179 1.479 . S
C182 C177 1.245 . S
C182 C178 1.477 . S
C182 H199 0.932 . S
C183 U166 2.882 . S
C183 C177 1.428 . S
C183 O186 1.301 . S
C183 O187 1.282 . S
O184 U166 2.441 . S
O184 C170 1.249 . S
O185 U166 2.420 . S
O185 C170 1.202 . S
O186 U166 2.455 . S
O186 C183 1.301 . S
O187 U166 2.449 . S
O187 C183 1.282 . S
H188 C161 0.931 . S
H189 C163 0.929 . S
H190 C164 0.930 . S
H191 C165 0.931 . S
H192 C172 0.932 . S
H193 C173 0.930 . S
H194 C174 0.929 . S
H195 C176 0.930 . S
H196 C178 0.932 . S
H197 C179 0.929 . S
H198 C180 0.928 . S
H199 C182 0.932 . S
C200 C201 1.264 . S
C200 C205 1.479 . S
C200 C210 1.465 . S
C201 C200 1.264 . S
C201 C203 1.339 . S
C201 H228 0.931 . S
C202 C203 1.395 . S
C202 C204 1.320 . S
C203 C201 1.339 . S
C203 C202 1.395 . S
C203 H229 0.929 . S
C204 C202 1.320 . S
C204 C205 1.405 . S
C204 H230 0.930 . S
C205 C200 1.479 . S
C205 C204 1.405 . S
C205 H231 0.931 . S
U206 O207 2.454 . S
U206 O208 2.458 . S
U206 C209 2.984 . S
U206 C210 2.847 . S
U206 C223 2.882 . S
U206 O224 2.441 . S
U206 O225 2.420 . S
U206 O226 2.455 . S
U206 O227 2.449 . S
O207 U206 2.454 . S
O207 C209 1.353 . S
O208 U206 2.458 . S
O208 C209 1.286 . S
C209 U206 2.984 . S
C209 O207 1.353 . S
C209 O208 1.286 . S
C209 C211 1.363 . S
C210 C200 1.465 . S
C210 U206 2.847 . S
C210 O224 1.249 . S
C210 O225 1.202 . S
C211 C209 1.363 . S
C211 C213 1.408 . S
C211 C216 1.342 . S
C212 C213 1.310 . S
C212 C215 1.461 . S
C212 H232 0.932 . S
C213 C211 1.408 . S
C213 C212 1.310 . S
C213 H233 0.930 . S
C214 C215 1.474 . S
C214 C216 1.285 . S
C214 H234 0.929 . S
C215 C212 1.461 . S
C215 C214 1.474 . S
C216 C211 1.342 . S
C216 C214 1.285 . S
C216 H235 0.930 . S
C217 C220 1.424 . S
C217 C222 1.245 . S
C217 C223 1.428 1_556 S
C218 C221 1.260 . S
C218 C222 1.477 . S
C218 H236 0.932 . S
C219 C220 1.384 . S
C219 C221 1.479 . S
C219 H237 0.929 . S
C220 C217 1.424 . S
C220 C219 1.384 . S
C220 H238 0.928 . S
C221 C218 1.260 . S
C221 C219 1.479 . S
C222 C217 1.245 . S
C222 C218 1.477 . S
C222 H239 0.932 . S
C223 U206 2.882 . S
C223 C217 1.428 1_554 S
C223 O226 1.301 . S
C223 O227 1.282 . S
O224 U206 2.441 . S
O224 C210 1.249 . S
O225 U206 2.420 . S
O225 C210 1.202 . S
O226 U206 2.455 . S
O226 C223 1.301 . S
O227 U206 2.449 . S
O227 C223 1.282 . S
H228 C201 0.931 . S
H229 C203 0.929 . S
H230 C204 0.930 . S
H231 C205 0.931 . S
H232 C212 0.932 . S
H233 C213 0.930 . S
H234 C214 0.929 . S
H235 C216 0.930 . S
H236 C218 0.932 . S
H237 C219 0.929 . S
H238 C220 0.928 . S
H239 C222 0.932 . S
C240 C241 1.264 . S
C240 C245 1.479 . S
C240 C250 1.465 . S
C241 C240 1.264 . S
C241 C243 1.339 . S
C241 H268 0.931 . S
C242 C243 1.395 . S
C242 C244 1.320 . S
C243 C241 1.339 . S
C243 C242 1.395 . S
C243 H269 0.929 . S
C244 C242 1.320 . S
C244 C245 1.405 . S
C244 H270 0.930 . S
C245 C240 1.479 . S
C245 C244 1.405 . S
C245 H271 0.931 . S
U246 O247 2.454 . S
U246 O248 2.458 . S
U246 C249 2.984 . S
U246 C250 2.847 . S
U246 C263 2.882 . S
U246 O264 2.441 . S
U246 O265 2.420 . S
U246 O266 2.455 . S
U246 O267 2.449 . S
O247 U246 2.454 . S
O247 C249 1.353 . S
O248 U246 2.458 . S
O248 C249 1.286 . S
C249 U246 2.984 . S
C249 O247 1.353 . S
C249 O248 1.286 . S
C249 C251 1.363 . S
C250 C240 1.465 . S
C250 U246 2.847 . S
C250 O264 1.249 . S
C250 O265 1.202 . S
C251 C249 1.363 . S
C251 C253 1.408 . S
C251 C256 1.342 . S
C252 C253 1.310 . S
C252 C255 1.461 . S
C252 H272 0.932 . S
C253 C251 1.408 . S
C253 C252 1.310 . S
C253 H273 0.930 . S
C254 C255 1.474 . S
C254 C256 1.285 . S
C254 H274 0.929 . S
C255 C252 1.461 . S
C255 C254 1.474 . S
C256 C251 1.342 . S
C256 C254 1.285 . S
C256 H275 0.930 . S
C257 C260 1.424 . S
C257 C262 1.245 . S
C257 C263 1.428 . S
C258 C261 1.260 . S
C258 C262 1.477 . S
C258 H276 0.932 . S
C259 C260 1.384 . S
C259 C261 1.479 . S
C259 H277 0.929 . S
C260 C257 1.424 . S
C260 C259 1.384 . S
C260 H278 0.928 . S
C261 C258 1.260 . S
C261 C259 1.479 . S
C262 C257 1.245 . S
C262 C258 1.477 . S
C262 H279 0.932 . S
C263 U246 2.882 . S
C263 C257 1.428 . S
C263 O266 1.301 . S
C263 O267 1.282 . S
O264 U246 2.441 . S
O264 C250 1.249 . S
O265 U246 2.420 . S
O265 C250 1.202 . S
O266 U246 2.455 . S
O266 C263 1.301 . S
O267 U246 2.449 . S
O267 C263 1.282 . S
H268 C241 0.931 . S
H269 C243 0.929 . S
H270 C244 0.930 . S
H271 C245 0.931 . S
H272 C252 0.932 . S
H273 C253 0.930 . S
H274 C254 0.929 . S
H275 C256 0.930 . S
H276 C258 0.932 . S
H277 C259 0.929 . S
H278 C260 0.928 . S
H279 C262 0.932 . S
C280 C281 1.264 . S
C280 C285 1.479 . S
C280 C290 1.465 . S
C281 C280 1.264 . S
C281 C283 1.339 . S
C281 H308 0.931 . S
C282 C283 1.395 . S
C282 C284 1.320 . S
C283 C281 1.339 . S
C283 C282 1.395 . S
C283 H309 0.929 . S
C284 C282 1.320 . S
C284 C285 1.405 . S
C284 H310 0.930 1_556 S
C285 C280 1.479 . S
C285 C284 1.405 . S
C285 H311 0.931 . S
U286 O287 2.454 . S
U286 O288 2.458 . S
U286 C289 2.984 . S
U286 C290 2.847 . S
U286 C303 2.882 . S
U286 O304 2.441 . S
U286 O305 2.420 . S
U286 O306 2.455 . S
U286 O307 2.449 . S
O287 U286 2.454 . S
O287 C289 1.353 . S
O288 U286 2.458 . S
O288 C289 1.286 . S
C289 U286 2.984 . S
C289 O287 1.353 . S
C289 O288 1.286 . S
C289 C291 1.363 . S
C290 C280 1.465 . S
C290 U286 2.847 . S
C290 O304 1.249 . S
C290 O305 1.202 . S
C291 C289 1.363 . S
C291 C293 1.408 . S
C291 C296 1.342 . S
C292 C293 1.310 . S
C292 C295 1.462 . S
C292 H312 0.932 . S
C293 C291 1.408 . S
C293 C292 1.310 . S
C293 H313 0.930 . S
C294 C295 1.472 1_554 S
C294 C296 1.284 1_554 S
C294 H314 0.932 . S
C295 C292 1.462 . S
C295 C294 1.472 1_556 S
C296 C291 1.342 . S
C296 C294 1.284 1_556 S
C296 H315 0.930 . S
C297 C300 1.424 . S
C297 C302 1.245 . S
C297 C303 1.428 . S
C298 C301 1.260 . S
C298 C302 1.477 . S
C298 H316 0.932 . S
C299 C300 1.384 . S
C299 C301 1.479 . S
C299 H317 0.929 . S
C300 C297 1.424 . S
C300 C299 1.384 . S
C300 H318 0.928 . S
C301 C298 1.260 . S
C301 C299 1.479 . S
C302 C297 1.245 . S
C302 C298 1.477 . S
C302 H319 0.932 . S
C303 U286 2.882 . S
C303 C297 1.428 . S
C303 O306 1.301 . S
C303 O307 1.282 . S
O304 U286 2.441 . S
O304 C290 1.249 . S
O305 U286 2.420 . S
O305 C290 1.202 . S
O306 U286 2.455 . S
O306 C303 1.301 . S
O307 U286 2.449 . S
O307 C303 1.282 . S
H308 C281 0.931 . S
H309 C283 0.929 . S
H310 C284 0.930 1_554 S
H311 C285 0.931 . S
H312 C292 0.932 . S
H313 C293 0.930 . S
H314 C294 0.932 . S
H315 C296 0.930 . S
H316 C298 0.932 . S
H317 C299 0.929 . S
H318 C300 0.928 . S
H319 C302 0.932 . S
C320 C321 1.264 . S
C320 C325 1.479 . S
C320 C330 1.465 . S
C321 C320 1.264 . S
C321 C323 1.339 . S
C321 H348 0.931 . S
C322 C323 1.395 . S
C322 C324 1.320 . S
C323 C321 1.339 . S
C323 C322 1.395 . S
C323 H349 0.929 . S
C324 C322 1.320 . S
C324 C325 1.405 . S
C324 H350 0.930 . S
C325 C320 1.479 . S
C325 C324 1.405 . S
C325 H351 0.931 . S
U326 O327 2.454 . S
U326 O328 2.458 . S
U326 C329 2.984 . S
U326 C330 2.847 . S
U326 C343 2.882 . S
U326 O344 2.441 . S
U326 O345 2.420 . S
U326 O346 2.455 . S
U326 O347 2.449 . S
O327 U326 2.454 . S
O327 C329 1.353 . S
O328 U326 2.458 . S
O328 C329 1.286 . S
C329 U326 2.984 . S
C329 O327 1.353 . S
C329 O328 1.286 . S
C329 C331 1.363 . S
C330 C320 1.465 . S
C330 U326 2.847 . S
C330 O344 1.249 . S
C330 O345 1.202 . S
C331 C329 1.363 . S
C331 C333 1.408 . S
C331 C336 1.342 . S
C332 C333 1.310 . S
C332 C335 1.461 . S
C332 H352 0.932 . S
C333 C331 1.408 . S
C333 C332 1.310 . S
C333 H353 0.930 . S
C334 C335 1.474 . S
C334 C336 1.285 . S
C334 H354 0.929 . S
C335 C332 1.461 . S
C335 C334 1.474 . S
C336 C331 1.342 . S
C336 C334 1.285 . S
C336 H355 0.930 . S
C337 C340 1.424 . S
C337 C342 1.245 . S
C337 C343 1.428 . S
C338 C341 1.260 . S
C338 C342 1.477 . S
C338 H356 0.932 . S
C339 C340 1.384 . S
C339 C341 1.479 . S
C339 H357 0.929 . S
C340 C337 1.424 . S
C340 C339 1.384 . S
C340 H358 0.928 . S
C341 C338 1.260 . S
C341 C339 1.479 . S
C342 C337 1.245 . S
C342 C338 1.477 . S
C342 H359 0.932 . S
C343 U326 2.882 . S
C343 C337 1.428 . S
C343 O346 1.301 . S
C343 O347 1.282 . S
O344 U326 2.441 . S
O344 C330 1.249 . S
O345 U326 2.420 . S
O345 C330 1.202 . S
O346 U326 2.455 . S
O346 C343 1.301 . S
O347 U326 2.449 . S
O347 C343 1.282 . S
H348 C321 0.931 . S
H349 C323 0.929 . S
H350 C324 0.930 . S
H351 C325 0.931 . S
H352 C332 0.932 . S
H353 C333 0.930 . S
H354 C334 0.929 . S
H355 C336 0.930 . S
H356 C338 0.932 . S
H357 C339 0.929 . S
H358 C340 0.928 . S
H359 C342 0.932 . S
C360 C361 1.264 . S
C360 C365 1.479 . S
C360 C370 1.465 . S
C361 C360 1.264 . S
C361 C363 1.339 . S
C361 H388 0.931 . S
C362 C363 1.395 . S
C362 C364 1.320 . S
C363 C361 1.339 . S
C363 C362 1.395 . S
C363 H389 0.929 . S
C364 C362 1.320 . S
C364 C365 1.405 . S
C364 H390 0.930 . S
C365 C360 1.479 . S
C365 C364 1.405 . S
C365 H391 0.931 . S
U366 O367 2.454 . S
U366 O368 2.458 . S
U366 C369 2.984 . S
U366 C370 2.847 . S
U366 C383 2.882 . S
U366 O384 2.441 . S
U366 O385 2.420 . S
U366 O386 2.455 . S
U366 O387 2.449 . S
O367 U366 2.454 . S
O367 C369 1.353 . S
O368 U366 2.458 . S
O368 C369 1.286 . S
C369 U366 2.984 . S
C369 O367 1.353 . S
C369 O368 1.286 . S
C369 C371 1.363 . S
C370 C360 1.465 . S
C370 U366 2.847 . S
C370 O384 1.249 . S
C370 O385 1.202 . S
C371 C369 1.363 . S
C371 C373 1.408 . S
C371 C376 1.342 . S
C372 C373 1.310 . S
C372 C375 1.461 . S
C372 H392 0.932 . S
C373 C371 1.408 . S
C373 C372 1.310 . S
C373 H393 0.930 . S
C374 C375 1.474 . S
C374 C376 1.285 . S
C374 H394 0.929 . S
C375 C372 1.461 . S
C375 C374 1.474 . S
C376 C371 1.342 . S
C376 C374 1.285 . S
C376 H395 0.930 . S
C377 C380 1.424 . S
C377 C382 1.245 . S
C377 C383 1.428 1_655 S
C378 C381 1.260 . S
C378 C382 1.477 . S
C378 H396 0.932 . S
C379 C380 1.384 . S
C379 C381 1.479 . S
C379 H397 0.929 . S
C380 C377 1.424 . S
C380 C379 1.384 . S
C380 H398 0.928 . S
C381 C378 1.260 . S
C381 C379 1.479 . S
C382 C377 1.245 . S
C382 C378 1.477 . S
C382 H399 0.932 . S
C383 U366 2.882 . S
C383 C377 1.428 1_455 S
C383 O386 1.301 . S
C383 O387 1.282 . S
O384 U366 2.441 . S
O384 C370 1.249 . S
O385 U366 2.420 . S
O385 C370 1.202 . S
O386 U366 2.455 . S
O386 C383 1.301 . S
O387 U366 2.449 . S
O387 C383 1.282 . S
H388 C361 0.931 . S
H389 C363 0.929 . S
H390 C364 0.930 . S
H391 C365 0.931 . S
H392 C372 0.932 . S
H393 C373 0.930 . S
H394 C374 0.929 . S
H395 C376 0.930 . S
H396 C378 0.932 . S
H397 C379 0.929 . S
H398 C380 0.928 . S
H399 C382 0.932 . S
C400 C401 1.264 . S
C400 C405 1.479 . S
C400 C410 1.465 . S
C401 C400 1.264 . S
C401 C403 1.339 . S
C401 H428 0.931 . S
C402 C403 1.395 . S
C402 C404 1.320 . S
C403 C401 1.339 . S
C403 C402 1.395 . S
C403 H429 0.929 . S
C404 C402 1.320 . S
C404 C405 1.405 . S
C404 H430 0.930 . S
C405 C400 1.479 . S
C405 C404 1.405 . S
C405 H431 0.931 . S
U406 O407 2.454 . S
U406 O408 2.458 . S
U406 C409 2.984 . S
U406 C410 2.847 . S
U406 C423 2.882 . S
U406 O424 2.441 . S
U406 O425 2.420 . S
U406 O426 2.455 . S
U406 O427 2.449 . S
O407 U406 2.454 . S
O407 C409 1.353 . S
O408 U406 2.458 . S
O408 C409 1.286 . S
C409 U406 2.984 . S
C409 O407 1.353 . S
C409 O408 1.286 . S
C409 C411 1.363 . S
C410 C400 1.465 . S
C410 U406 2.847 . S
C410 O424 1.249 . S
C410 O425 1.202 . S
C411 C409 1.363 . S
C411 C413 1.408 . S
C411 C416 1.342 . S
C412 C413 1.310 . S
C412 C415 1.461 . S
C412 H432 0.932 . S
C413 C411 1.408 . S
C413 C412 1.310 . S
C413 H433 0.930 . S
C414 C415 1.474 . S
C414 C416 1.285 . S
C414 H434 0.929 . S
C415 C412 1.461 . S
C415 C414 1.474 . S
C416 C411 1.342 . S
C416 C414 1.285 . S
C416 H435 0.930 . S
C417 C420 1.424 . S
C417 C422 1.245 . S
C417 C423 1.428 . S
C418 C421 1.260 . S
C418 C422 1.477 . S
C418 H436 0.932 . S
C419 C420 1.384 . S
C419 C421 1.479 . S
C419 H437 0.929 . S
C420 C417 1.424 . S
C420 C419 1.384 . S
C420 H438 0.928 . S
C421 C418 1.260 . S
C421 C419 1.479 . S
C422 C417 1.245 . S
C422 C418 1.477 . S
C422 H439 0.932 . S
C423 U406 2.882 . S
C423 C417 1.428 . S
C423 O426 1.301 . S
C423 O427 1.282 . S
O424 U406 2.441 . S
O424 C410 1.249 . S
O425 U406 2.420 . S
O425 C410 1.202 . S
O426 U406 2.455 . S
O426 C423 1.301 . S
O427 U406 2.449 . S
O427 C423 1.282 . S
H428 C401 0.931 . S
H429 C403 0.929 . S
H430 C404 0.930 . S
H431 C405 0.931 . S
H432 C412 0.932 . S
H433 C413 0.930 . S
H434 C414 0.929 . S
H435 C416 0.930 . S
H436 C418 0.932 . S
H437 C419 0.929 . S
H438 C420 0.928 . S
H439 C422 0.932 . S
C440 C441 1.264 . S
C440 C445 1.479 . S
C440 C450 1.465 . S
C441 C440 1.264 . S
C441 C443 1.339 . S
C441 H468 0.931 . S
C442 C443 1.395 . S
C442 C444 1.320 . S
C443 C441 1.339 . S
C443 C442 1.395 . S
C443 H469 0.929 . S
C444 C442 1.320 . S
C444 C445 1.405 . S
C444 H470 0.930 1_655 S
C445 C440 1.479 . S
C445 C444 1.405 . S
C445 H471 0.931 . S
U446 O447 2.454 . S
U446 O448 2.458 . S
U446 C449 2.984 . S
U446 C450 2.847 . S
U446 C463 2.882 . S
U446 O464 2.441 . S
U446 O465 2.420 . S
U446 O466 2.455 . S
U446 O467 2.449 . S
O447 U446 2.454 . S
O447 C449 1.353 . S
O448 U446 2.458 . S
O448 C449 1.286 . S
C449 U446 2.984 . S
C449 O447 1.353 . S
C449 O448 1.286 . S
C449 C451 1.363 . S
C450 C440 1.465 . S
C450 U446 2.847 . S
C450 O464 1.249 . S
C450 O465 1.202 . S
C451 C449 1.363 . S
C451 C453 1.408 . S
C451 C456 1.342 . S
C452 C453 1.310 . S
C452 C455 1.462 . S
C452 H472 0.932 . S
C453 C451 1.408 . S
C453 C452 1.310 . S
C453 H473 0.930 . S
C454 C455 1.472 1_455 S
C454 C456 1.284 1_455 S
C454 H474 0.932 . S
C455 C452 1.462 . S
C455 C454 1.472 1_655 S
C456 C451 1.342 . S
C456 C454 1.284 1_655 S
C456 H475 0.930 . S
C457 C460 1.424 . S
C457 C462 1.245 . S
C457 C463 1.428 . S
C458 C461 1.260 . S
C458 C462 1.477 . S
C458 H476 0.932 . S
C459 C460 1.384 . S
C459 C461 1.479 . S
C459 H477 0.929 . S
C460 C457 1.424 . S
C460 C459 1.384 . S
C460 H478 0.928 . S
C461 C458 1.260 . S
C461 C459 1.479 . S
C462 C457 1.245 . S
C462 C458 1.477 . S
C462 H479 0.932 . S
C463 U446 2.882 . S
C463 C457 1.428 . S
C463 O466 1.301 . S
C463 O467 1.282 . S
O464 U446 2.441 . S
O464 C450 1.249 . S
O465 U446 2.420 . S
O465 C450 1.202 . S
O466 U446 2.455 . S
O466 C463 1.301 . S
O467 U446 2.449 . S
O467 C463 1.282 . S
H468 C441 0.931 . S
H469 C443 0.929 . S
H470 C444 0.930 1_455 S
H471 C445 0.931 . S
H472 C452 0.932 . S
H473 C453 0.930 . S
H474 C454 0.932 . S
H475 C456 0.930 . S
H476 C458 0.932 . S
H477 C459 0.929 . S
H478 C460 0.928 . S
H479 C462 0.932 . S
C480 C481 1.264 . S
C480 C485 1.479 . S
C480 C490 1.465 . S
C481 C480 1.264 . S
C481 C483 1.339 . S
C481 H508 0.931 . S
C482 C483 1.395 . S
C482 C484 1.320 . S
C483 C481 1.339 . S
C483 C482 1.395 . S
C483 H509 0.929 . S
C484 C482 1.320 . S
C484 C485 1.405 . S
C484 H510 0.930 . S
C485 C480 1.479 . S
C485 C484 1.405 . S
C485 H511 0.931 . S
U486 O487 2.454 . S
U486 O488 2.458 . S
U486 C489 2.984 . S
U486 C490 2.847 . S
U486 C503 2.882 . S
U486 O504 2.441 . S
U486 O505 2.420 . S
U486 O506 2.455 . S
U486 O507 2.449 . S
O487 U486 2.454 . S
O487 C489 1.353 . S
O488 U486 2.458 . S
O488 C489 1.286 . S
C489 U486 2.984 . S
C489 O487 1.353 . S
C489 O488 1.286 . S
C489 C491 1.363 . S
C490 C480 1.465 . S
C490 U486 2.847 . S
C490 O504 1.249 . S
C490 O505 1.202 . S
C491 C489 1.363 . S
C491 C493 1.408 . S
C491 C496 1.342 . S
C492 C493 1.310 . S
C492 C495 1.461 . S
C492 H512 0.932 . S
C493 C491 1.408 . S
C493 C492 1.310 . S
C493 H513 0.930 . S
C494 C495 1.474 . S
C494 C496 1.285 . S
C494 H514 0.929 . S
C495 C492 1.461 . S
C495 C494 1.474 . S
C496 C491 1.342 . S
C496 C494 1.285 . S
C496 H515 0.930 . S
C497 C500 1.424 . S
C497 C502 1.245 . S
C497 C503 1.428 . S
C498 C501 1.260 . S
C498 C502 1.477 . S
C498 H516 0.932 . S
C499 C500 1.384 . S
C499 C501 1.479 . S
C499 H517 0.929 . S
C500 C497 1.424 . S
C500 C499 1.384 . S
C500 H518 0.928 . S
C501 C498 1.260 . S
C501 C499 1.479 . S
C502 C497 1.245 . S
C502 C498 1.477 . S
C502 H519 0.932 . S
C503 U486 2.882 . S
C503 C497 1.428 . S
C503 O506 1.301 . S
C503 O507 1.282 . S
O504 U486 2.441 . S
O504 C490 1.249 . S
O505 U486 2.420 . S
O505 C490 1.202 . S
O506 U486 2.455 . S
O506 C503 1.301 . S
O507 U486 2.449 . S
O507 C503 1.282 . S
H508 C481 0.931 . S
H509 C483 0.929 . S
H510 C484 0.930 . S
H511 C485 0.931 . S
H512 C492 0.932 . S
H513 C493 0.930 . S
H514 C494 0.929 . S
H515 C496 0.930 . S
H516 C498 0.932 . S
H517 C499 0.929 . S
H518 C500 0.928 . S
H519 C502 0.932 . S
C520 C521 1.264 . S
C520 C525 1.479 . S
C520 C530 1.465 . S
C521 C520 1.264 . S
C521 C523 1.339 . S
C521 H548 0.931 . S
C522 C523 1.395 . S
C522 C524 1.320 . S
C523 C521 1.339 . S
C523 C522 1.395 . S
C523 H549 0.929 . S
C524 C522 1.320 . S
C524 C525 1.405 . S
C524 H550 0.930 . S
C525 C520 1.479 . S
C525 C524 1.405 . S
C525 H551 0.931 . S
U526 O527 2.454 . S
U526 O528 2.458 . S
U526 C529 2.984 . S
U526 C530 2.847 . S
U526 C543 2.882 . S
U526 O544 2.441 . S
U526 O545 2.420 . S
U526 O546 2.455 . S
U526 O547 2.449 . S
O527 U526 2.454 . S
O527 C529 1.353 . S
O528 U526 2.458 . S
O528 C529 1.286 . S
C529 U526 2.984 . S
C529 O527 1.353 . S
C529 O528 1.286 . S
C529 C531 1.363 . S
C530 C520 1.465 . S
C530 U526 2.847 . S
C530 O544 1.249 . S
C530 O545 1.202 . S
C531 C529 1.363 . S
C531 C533 1.408 . S
C531 C536 1.342 . S
C532 C533 1.310 . S
C532 C535 1.461 . S
C532 H552 0.932 . S
C533 C531 1.408 . S
C533 C532 1.310 . S
C533 H553 0.930 . S
C534 C535 1.474 . S
C534 C536 1.285 . S
C534 H554 0.929 . S
C535 C532 1.461 . S
C535 C534 1.474 . S
C536 C531 1.342 . S
C536 C534 1.285 . S
C536 H555 0.930 . S
C537 C540 1.424 . S
C537 C542 1.245 . S
C537 C543 1.428 . S
C538 C541 1.260 . S
C538 C542 1.477 . S
C538 H556 0.932 . S
C539 C540 1.384 . S
C539 C541 1.479 . S
C539 H557 0.929 . S
C540 C537 1.424 . S
C540 C539 1.384 . S
C540 H558 0.928 . S
C541 C538 1.260 . S
C541 C539 1.479 . S
C542 C537 1.245 . S
C542 C538 1.477 . S
C542 H559 0.932 . S
C543 U526 2.882 . S
C543 C537 1.428 . S
C543 O546 1.301 . S
C543 O547 1.282 . S
O544 U526 2.441 . S
O544 C530 1.249 . S
O545 U526 2.420 . S
O545 C530 1.202 . S
O546 U526 2.455 . S
O546 C543 1.301 . S
O547 U526 2.449 . S
O547 C543 1.282 . S
H548 C521 0.931 . S
H549 C523 0.929 . S
H550 C524 0.930 . S
H551 C525 0.931 . S
H552 C532 0.932 . S
H553 C533 0.930 . S
H554 C534 0.929 . S
H555 C536 0.930 . S
H556 C538 0.932 . S
H557 C539 0.929 . S
H558 C540 0.928 . S
H559 C542 0.932 . S
C560 C561 1.264 . S
C560 C565 1.479 . S
C560 C570 1.465 . S
C561 C560 1.264 . S
C561 C563 1.339 . S
C561 H588 0.931 . S
C562 C563 1.395 . S
C562 C564 1.320 . S
C563 C561 1.339 . S
C563 C562 1.395 . S
C563 H589 0.929 . S
C564 C562 1.320 . S
C564 C565 1.405 . S
C564 H590 0.930 1_565 S
C565 C560 1.479 . S
C565 C564 1.405 . S
C565 H591 0.931 . S
U566 O567 2.454 . S
U566 O568 2.458 . S
U566 C569 2.984 . S
U566 C570 2.847 . S
U566 C583 2.882 . S
U566 O584 2.441 . S
U566 O585 2.420 . S
U566 O586 2.455 . S
U566 O587 2.449 . S
O567 U566 2.454 . S
O567 C569 1.353 . S
O568 U566 2.458 . S
O568 C569 1.286 . S
C569 U566 2.984 . S
C569 O567 1.353 . S
C569 O568 1.286 . S
C569 C571 1.363 . S
C570 C560 1.465 . S
C570 U566 2.847 . S
C570 O584 1.249 . S
C570 O585 1.202 . S
C571 C569 1.363 . S
C571 C573 1.408 . S
C571 C576 1.342 . S
C572 C573 1.310 . S
C572 C575 1.460 . S
C572 H592 0.932 . S
C573 C571 1.408 . S
C573 C572 1.310 . S
C573 H593 0.930 . S
C574 C575 1.475 1_545 S
C574 C576 1.285 1_545 S
C574 H594 0.929 . S
C575 C572 1.460 . S
C575 C574 1.475 1_565 S
C576 C571 1.342 . S
C576 C574 1.285 1_565 S
C576 H595 0.930 . S
C577 C580 1.424 . S
C577 C582 1.245 . S
C577 C583 1.428 . S
C578 C581 1.260 . S
C578 C582 1.477 . S
C578 H596 0.932 . S
C579 C580 1.384 . S
C579 C581 1.479 . S
C579 H597 0.929 . S
C580 C577 1.424 . S
C580 C579 1.384 . S
C580 H598 0.928 . S
C581 C578 1.260 . S
C581 C579 1.479 . S
C582 C577 1.245 . S
C582 C578 1.477 . S
C582 H599 0.932 . S
C583 U566 2.882 . S
C583 C577 1.428 . S
C583 O586 1.301 . S
C583 O587 1.282 . S
O584 U566 2.441 . S
O584 C570 1.249 . S
O585 U566 2.420 . S
O585 C570 1.202 . S
O586 U566 2.455 . S
O586 C583 1.301 . S
O587 U566 2.449 . S
O587 C583 1.282 . S
H588 C561 0.931 . S
H589 C563 0.929 . S
H590 C564 0.930 1_545 S
H591 C565 0.931 . S
H592 C572 0.932 . S
H593 C573 0.930 . S
H594 C574 0.929 . S
H595 C576 0.930 . S
H596 C578 0.932 . S
H597 C579 0.929 . S
H598 C580 0.928 . S
H599 C582 0.932 . S
C600 C601 1.265 . S
C600 C605 1.473 1_545 S
C600 C610 1.471 . S
C601 C600 1.265 . S
C601 C603 1.339 1_545 S
C601 H628 0.931 . S
C602 C603 1.395 . S
C602 C604 1.320 . S
C603 C601 1.339 1_565 S
C603 C602 1.395 . S
C603 H629 0.929 1_565 S
C604 C602 1.320 . S
C604 C605 1.405 . S
C604 H630 0.930 . S
C605 C600 1.473 1_565 S
C605 C604 1.405 . S
C605 H631 0.931 . S
U606 O607 2.454 1_545 S
U606 O608 2.458 . S
U606 C609 2.983 1_545 S
U606 C610 2.847 . S
U606 C623 2.882 . S
U606 O624 2.441 . S
U606 O625 2.420 . S
U606 O626 2.455 . S
U606 O627 2.449 . S
O607 U606 2.454 1_565 S
O607 C609 1.355 . S
O608 U606 2.458 . S
O608 C609 1.284 1_545 S
C609 U606 2.983 1_565 S
C609 O607 1.355 . S
C609 O608 1.284 1_565 S
C609 C611 1.364 . S
C610 C600 1.471 . S
C610 U606 2.847 . S
C610 O624 1.249 . S
C610 O625 1.202 . S
C611 C609 1.364 . S
C611 C613 1.408 . S
C611 C616 1.342 . S
C612 C613 1.310 . S
C612 C615 1.461 . S
C612 H632 0.932 . S
C613 C611 1.408 . S
C613 C612 1.310 . S
C613 H633 0.930 . S
C614 C615 1.474 . S
C614 C616 1.285 . S
C614 H634 0.929 . S
C615 C612 1.461 . S
C615 C614 1.474 . S
C616 C611 1.342 . S
C616 C614 1.285 . S
C616 H635 0.930 . S
C617 C620 1.424 . S
C617 C622 1.245 . S
C617 C623 1.428 . S
C618 C621 1.260 . S
C618 C622 1.477 . S
C618 H636 0.932 . S
C619 C620 1.384 . S
C619 C621 1.479 . S
C619 H637 0.929 . S
C620 C617 1.424 . S
C620 C619 1.384 . S
C620 H638 0.928 . S
C621 C618 1.260 . S
C621 C619 1.479 . S
C622 C617 1.245 . S
C622 C618 1.477 . S
C622 H639 0.932 . S
C623 U606 2.882 . S
C623 C617 1.428 . S
C623 O626 1.301 . S
C623 O627 1.282 . S
O624 U606 2.441 . S
O624 C610 1.249 . S
O625 U606 2.420 . S
O625 C610 1.202 . S
O626 U606 2.455 . S
O626 C623 1.301 . S
O627 U606 2.449 . S
O627 C623 1.282 . S
H628 C601 0.931 . S
H629 C603 0.929 1_545 S
H630 C604 0.930 . S
H631 C605 0.931 . S
H632 C612 0.932 . S
H633 C613 0.930 . S
H634 C614 0.929 . S
H635 C616 0.930 . S
H636 C618 0.932 . S
H637 C619 0.929 . S
H638 C620 0.928 . S
H639 C622 0.932 . S
C640 C641 1.264 . S
C640 C645 1.479 . S
C640 C650 1.465 . S
C641 C640 1.264 . S
C641 C643 1.339 . S
C641 H668 0.931 . S
C642 C643 1.395 . S
C642 C644 1.320 . S
C643 C641 1.339 . S
C643 C642 1.395 . S
C643 H669 0.929 . S
C644 C642 1.320 . S
C644 C645 1.405 . S
C644 H670 0.930 . S
C645 C640 1.479 . S
C645 C644 1.405 . S
C645 H671 0.931 . S
U646 O647 2.454 . S
U646 O648 2.458 . S
U646 C649 2.984 . S
U646 C650 2.847 . S
U646 C663 2.882 . S
U646 O664 2.441 . S
U646 O665 2.420 . S
U646 O666 2.455 . S
U646 O667 2.449 . S
O647 U646 2.454 . S
O647 C649 1.353 . S
O648 U646 2.458 . S
O648 C649 1.286 . S
C649 U646 2.984 . S
C649 O647 1.353 . S
C649 O648 1.286 . S
C649 C651 1.363 . S
C650 C640 1.465 . S
C650 U646 2.847 . S
C650 O664 1.249 . S
C650 O665 1.202 . S
C651 C649 1.363 . S
C651 C653 1.408 . S
C651 C656 1.342 . S
C652 C653 1.310 . S
C652 C655 1.461 . S
C652 H672 0.932 . S
C653 C651 1.408 . S
C653 C652 1.310 . S
C653 H673 0.930 . S
C654 C655 1.474 . S
C654 C656 1.285 . S
C654 H674 0.929 . S
C655 C652 1.461 . S
C655 C654 1.474 . S
C656 C651 1.342 . S
C656 C654 1.285 . S
C656 H675 0.930 . S
C657 C660 1.424 . S
C657 C662 1.245 . S
C657 C663 1.428 . S
C658 C661 1.260 . S
C658 C662 1.477 . S
C658 H676 0.932 . S
C659 C660 1.384 . S
C659 C661 1.479 . S
C659 H677 0.929 . S
C660 C657 1.424 . S
C660 C659 1.384 . S
C660 H678 0.928 . S
C661 C658 1.260 . S
C661 C659 1.479 . S
C662 C657 1.245 . S
C662 C658 1.477 . S
C662 H679 0.932 . S
C663 U646 2.882 . S
C663 C657 1.428 . S
C663 O666 1.301 . S
C663 O667 1.282 . S
O664 U646 2.441 . S
O664 C650 1.249 . S
O665 U646 2.420 . S
O665 C650 1.202 . S
O666 U646 2.455 . S
O666 C663 1.301 . S
O667 U646 2.449 . S
O667 C663 1.282 . S
H668 C641 0.931 . S
H669 C643 0.929 . S
H670 C644 0.930 . S
H671 C645 0.931 . S
H672 C652 0.932 . S
H673 C653 0.930 . S
H674 C654 0.929 . S
H675 C656 0.930 . S
H676 C658 0.932 . S
H677 C659 0.929 . S
H678 C660 0.928 . S
H679 C662 0.932 . S
C680 C681 1.265 . S
C680 C685 1.473 1_554 S
C680 C690 1.471 . S
C681 C680 1.265 . S
C681 C683 1.339 1_554 S
C681 H708 0.931 . S
C682 C683 1.395 . S
C682 C684 1.320 . S
C683 C681 1.339 1_556 S
C683 C682 1.395 . S
C683 H709 0.929 1_556 S
C684 C682 1.320 . S
C684 C685 1.405 . S
C684 H710 0.930 . S
C685 C680 1.473 1_556 S
C685 C684 1.405 . S
C685 H711 0.931 . S
U686 O687 2.454 1_554 S
U686 O688 2.458 . S
U686 C689 2.983 1_554 S
U686 C690 2.847 . S
U686 C703 2.882 . S
U686 O704 2.441 . S
U686 O705 2.420 . S
U686 O706 2.455 . S
U686 O707 2.449 . S
O687 U686 2.454 1_556 S
O687 C689 1.355 . S
O688 U686 2.458 . S
O688 C689 1.284 1_554 S
C689 U686 2.983 1_556 S
C689 O687 1.355 . S
C689 O688 1.284 1_556 S
C689 C691 1.364 . S
C690 C680 1.471 . S
C690 U686 2.847 . S
C690 O704 1.249 . S
C690 O705 1.202 . S
C691 C689 1.364 . S
C691 C693 1.408 . S
C691 C696 1.342 . S
C692 C693 1.310 . S
C692 C695 1.461 . S
C692 H712 0.932 . S
C693 C691 1.408 . S
C693 C692 1.310 . S
C693 H713 0.930 . S
C694 C695 1.474 . S
C694 C696 1.285 . S
C694 H714 0.929 . S
C695 C692 1.461 . S
C695 C694 1.474 . S
C696 C691 1.342 . S
C696 C694 1.285 . S
C696 H715 0.930 . S
C697 C700 1.424 . S
C697 C702 1.245 . S
C697 C703 1.428 . S
C698 C701 1.260 . S
C698 C702 1.477 . S
C698 H716 0.932 . S
C699 C700 1.384 . S
C699 C701 1.479 . S
C699 H717 0.929 . S
C700 C697 1.424 . S
C700 C699 1.384 . S
C700 H718 0.928 . S
C701 C698 1.260 . S
C701 C699 1.479 . S
C702 C697 1.245 . S
C702 C698 1.477 . S
C702 H719 0.932 . S
C703 U686 2.882 . S
C703 C697 1.428 . S
C703 O706 1.301 . S
C703 O707 1.282 . S
O704 U686 2.441 . S
O704 C690 1.249 . S
O705 U686 2.420 . S
O705 C690 1.202 . S
O706 U686 2.455 . S
O706 C703 1.301 . S
O707 U686 2.449 . S
O707 C703 1.282 . S
H708 C681 0.931 . S
H709 C683 0.929 1_554 S
H710 C684 0.930 . S
H711 C685 0.931 . S
H712 C692 0.932 . S
H713 C693 0.930 . S
H714 C694 0.929 . S
H715 C696 0.930 . S
H716 C698 0.932 . S
H717 C699 0.929 . S
H718 C700 0.928 . S
H719 C702 0.932 . S
C720 C721 1.264 . S
C720 C725 1.479 . S
C720 C730 1.465 . S
C721 C720 1.264 . S
C721 C723 1.339 . S
C721 H748 0.931 . S
C722 C723 1.395 . S
C722 C724 1.320 . S
C723 C721 1.339 . S
C723 C722 1.395 . S
C723 H749 0.929 . S
C724 C722 1.320 . S
C724 C725 1.405 . S
C724 H750 0.930 . S
C725 C720 1.479 . S
C725 C724 1.405 . S
C725 H751 0.931 . S
U726 O727 2.454 . S
U726 O728 2.458 . S
U726 C729 2.984 . S
U726 C730 2.847 . S
U726 C743 2.882 . S
U726 O744 2.441 . S
U726 O745 2.420 . S
U726 O746 2.455 . S
U726 O747 2.449 . S
O727 U726 2.454 . S
O727 C729 1.353 . S
O728 U726 2.458 . S
O728 C729 1.286 . S
C729 U726 2.984 . S
C729 O727 1.353 . S
C729 O728 1.286 . S
C729 C731 1.363 . S
C730 C720 1.465 . S
C730 U726 2.847 . S
C730 O744 1.249 . S
C730 O745 1.202 . S
C731 C729 1.363 . S
C731 C733 1.408 . S
C731 C736 1.342 . S
C732 C733 1.310 . S
C732 C735 1.461 . S
C732 H752 0.932 . S
C733 C731 1.408 . S
C733 C732 1.310 . S
C733 H753 0.930 . S
C734 C735 1.474 . S
C734 C736 1.285 . S
C734 H754 0.929 . S
C735 C732 1.461 . S
C735 C734 1.474 . S
C736 C731 1.342 . S
C736 C734 1.285 . S
C736 H755 0.930 . S
C737 C740 1.424 . S
C737 C742 1.245 . S
C737 C743 1.428 . S
C738 C741 1.260 . S
C738 C742 1.477 . S
C738 H756 0.932 . S
C739 C740 1.384 . S
C739 C741 1.479 . S
C739 H757 0.929 . S
C740 C737 1.424 . S
C740 C739 1.384 . S
C740 H758 0.928 . S
C741 C738 1.260 . S
C741 C739 1.479 . S
C742 C737 1.245 . S
C742 C738 1.477 . S
C742 H759 0.932 . S
C743 U726 2.882 . S
C743 C737 1.428 . S
C743 O746 1.301 . S
C743 O747 1.282 . S
O744 U726 2.441 . S
O744 C730 1.249 . S
O745 U726 2.420 . S
O745 C730 1.202 . S
O746 U726 2.455 . S
O746 C743 1.301 . S
O747 U726 2.449 . S
O747 C743 1.282 . S
H748 C721 0.931 . S
H749 C723 0.929 . S
H750 C724 0.930 . S
H751 C725 0.931 . S
H752 C732 0.932 . S
H753 C733 0.930 . S
H754 C734 0.929 . S
H755 C736 0.930 . S
H756 C738 0.932 . S
H757 C739 0.929 . S
H758 C740 0.928 . S
H759 C742 0.932 . S
C760 C761 1.264 . S
C760 C765 1.479 . S
C760 C770 1.465 . S
C761 C760 1.264 . S
C761 C763 1.339 . S
C761 H788 0.931 . S
C762 C763 1.395 . S
C762 C764 1.320 . S
C763 C761 1.339 . S
C763 C762 1.395 . S
C763 H789 0.929 . S
C764 C762 1.320 . S
C764 C765 1.405 . S
C764 H790 0.930 1_556 S
C765 C760 1.479 . S
C765 C764 1.405 . S
C765 H791 0.931 . S
U766 O767 2.454 . S
U766 O768 2.458 . S
U766 C769 2.984 . S
U766 C770 2.847 . S
U766 C783 2.882 . S
U766 O784 2.441 . S
U766 O785 2.420 . S
U766 O786 2.455 . S
U766 O787 2.449 . S
O767 U766 2.454 . S
O767 C769 1.353 . S
O768 U766 2.458 . S
O768 C769 1.286 . S
C769 U766 2.984 . S
C769 O767 1.353 . S
C769 O768 1.286 . S
C769 C771 1.363 . S
C770 C760 1.465 . S
C770 U766 2.847 . S
C770 O784 1.249 . S
C770 O785 1.202 . S
C771 C769 1.363 . S
C771 C773 1.408 . S
C771 C776 1.342 . S
C772 C773 1.310 . S
C772 C775 1.460 . S
C772 H792 0.932 . S
C773 C771 1.408 . S
C773 C772 1.310 . S
C773 H793 0.930 . S
C774 C775 1.475 1_554 S
C774 C776 1.285 1_554 S
C774 H794 0.929 . S
C775 C772 1.460 . S
C775 C774 1.475 1_556 S
C776 C771 1.342 . S
C776 C774 1.285 1_556 S
C776 H795 0.930 . S
C777 C780 1.424 . S
C777 C782 1.245 . S
C777 C783 1.428 . S
C778 C781 1.260 . S
C778 C782 1.477 . S
C778 H796 0.932 . S
C779 C780 1.384 . S
C779 C781 1.479 . S
C779 H797 0.929 . S
C780 C777 1.424 . S
C780 C779 1.384 . S
C780 H798 0.928 . S
C781 C778 1.260 . S
C781 C779 1.479 . S
C782 C777 1.245 . S
C782 C778 1.477 . S
C782 H799 0.932 . S
C783 U766 2.882 . S
C783 C777 1.428 . S
C783 O786 1.301 . S
C783 O787 1.282 . S
O784 U766 2.441 . S
O784 C770 1.249 . S
O785 U766 2.420 . S
O785 C770 1.202 . S
O786 U766 2.455 . S
O786 C783 1.301 . S
O787 U766 2.449 . S
O787 C783 1.282 . S
H788 C761 0.931 . S
H789 C763 0.929 . S
H790 C764 0.930 1_554 S
H791 C765 0.931 . S
H792 C772 0.932 . S
H793 C773 0.930 . S
H794 C774 0.929 . S
H795 C776 0.930 . S
H796 C778 0.932 . S
H797 C779 0.929 . S
H798 C780 0.928 . S
H799 C782 0.932 . S
C800 C801 1.264 . S
C800 C805 1.479 . S
C800 C810 1.465 . S
C801 C800 1.264 . S
C801 C803 1.339 . S
C801 H828 0.931 . S
C802 C803 1.395 . S
C802 C804 1.320 . S
C803 C801 1.339 . S
C803 C802 1.395 . S
C803 H829 0.929 . S
C804 C802 1.320 . S
C804 C805 1.405 . S
C804 H830 0.930 . S
C805 C800 1.479 . S
C805 C804 1.405 . S
C805 H831 0.931 . S
U806 O807 2.454 . S
U806 O808 2.458 . S
U806 C809 2.984 . S
U806 C810 2.847 . S
U806 C823 2.882 . S
U806 O824 2.441 . S
U806 O825 2.420 . S
U806 O826 2.455 . S
U806 O827 2.449 . S
O807 U806 2.454 . S
O807 C809 1.353 . S
O808 U806 2.458 . S
O808 C809 1.286 . S
C809 U806 2.984 . S
C809 O807 1.353 . S
C809 O808 1.286 . S
C809 C811 1.363 . S
C810 C800 1.465 . S
C810 U806 2.847 . S
C810 O824 1.249 . S
C810 O825 1.202 . S
C811 C809 1.363 . S
C811 C813 1.408 . S
C811 C816 1.342 . S
C812 C813 1.310 . S
C812 C815 1.461 . S
C812 H832 0.932 . S
C813 C811 1.408 . S
C813 C812 1.310 . S
C813 H833 0.930 . S
C814 C815 1.474 . S
C814 C816 1.285 . S
C814 H834 0.929 . S
C815 C812 1.461 . S
C815 C814 1.474 . S
C816 C811 1.342 . S
C816 C814 1.285 . S
C816 H835 0.930 . S
C817 C820 1.424 . S
C817 C822 1.245 . S
C817 C823 1.428 . S
C818 C821 1.260 . S
C818 C822 1.477 . S
C818 H836 0.932 . S
C819 C820 1.384 . S
C819 C821 1.479 . S
C819 H837 0.929 . S
C820 C817 1.424 . S
C820 C819 1.384 . S
C820 H838 0.928 . S
C821 C818 1.260 . S
C821 C819 1.479 . S
C822 C817 1.245 . S
C822 C818 1.477 . S
C822 H839 0.932 . S
C823 U806 2.882 . S
C823 C817 1.428 . S
C823 O826 1.301 . S
C823 O827 1.282 . S
O824 U806 2.441 . S
O824 C810 1.249 . S
O825 U806 2.420 . S
O825 C810 1.202 . S
O826 U806 2.455 . S
O826 C823 1.301 . S
O827 U806 2.449 . S
O827 C823 1.282 . S
H828 C801 0.931 . S
H829 C803 0.929 . S
H830 C804 0.930 . S
H831 C805 0.931 . S
H832 C812 0.932 . S
H833 C813 0.930 . S
H834 C814 0.929 . S
H835 C816 0.930 . S
H836 C818 0.932 . S
H837 C819 0.929 . S
H838 C820 0.928 . S
H839 C822 0.932 . S
C840 C841 1.265 . S
C840 C845 1.473 1_455 S
C840 C850 1.471 . S
C841 C840 1.265 . S
C841 C843 1.339 1_455 S
C841 H868 0.931 . S
C842 C843 1.395 . S
C842 C844 1.320 . S
C843 C841 1.339 1_655 S
C843 C842 1.395 . S
C843 H869 0.929 1_655 S
C844 C842 1.320 . S
C844 C845 1.405 . S
C844 H870 0.930 . S
C845 C840 1.473 1_655 S
C845 C844 1.405 . S
C845 H871 0.931 . S
U846 O847 2.454 1_455 S
U846 O848 2.458 . S
U846 C849 2.983 1_455 S
U846 C850 2.847 . S
U846 C863 2.882 . S
U846 O864 2.441 . S
U846 O865 2.420 . S
U846 O866 2.455 . S
U846 O867 2.449 . S
O847 U846 2.454 1_655 S
O847 C849 1.355 . S
O848 U846 2.458 . S
O848 C849 1.284 1_455 S
C849 U846 2.983 1_655 S
C849 O847 1.355 . S
C849 O848 1.284 1_655 S
C849 C851 1.364 . S
C850 C840 1.471 . S
C850 U846 2.847 . S
C850 O864 1.249 . S
C850 O865 1.202 . S
C851 C849 1.364 . S
C851 C853 1.408 . S
C851 C856 1.342 . S
C852 C853 1.310 . S
C852 C855 1.461 . S
C852 H872 0.932 . S
C853 C851 1.408 . S
C853 C852 1.310 . S
C853 H873 0.930 . S
C854 C855 1.474 . S
C854 C856 1.285 . S
C854 H874 0.929 . S
C855 C852 1.461 . S
C855 C854 1.474 . S
C856 C851 1.342 . S
C856 C854 1.285 . S
C856 H875 0.930 . S
C857 C860 1.424 . S
C857 C862 1.245 . S
C857 C863 1.428 . S
C858 C861 1.260 . S
C858 C862 1.477 . S
C858 H876 0.932 . S
C859 C860 1.384 . S
C859 C861 1.479 . S
C859 H877 0.929 . S
C860 C857 1.424 . S
C860 C859 1.384 . S
C860 H878 0.928 . S
C861 C858 1.260 . S
C861 C859 1.479 . S
C862 C857 1.245 . S
C862 C858 1.477 . S
C862 H879 0.932 . S
C863 U846 2.882 . S
C863 C857 1.428 . S
C863 O866 1.301 . S
C863 O867 1.282 . S
O864 U846 2.441 . S
O864 C850 1.249 . S
O865 U846 2.420 . S
O865 C850 1.202 . S
O866 U846 2.455 . S
O866 C863 1.301 . S
O867 U846 2.449 . S
O867 C863 1.282 . S
H868 C841 0.931 . S
H869 C843 0.929 1_455 S
H870 C844 0.930 . S
H871 C845 0.931 . S
H872 C852 0.932 . S
H873 C853 0.930 . S
H874 C854 0.929 . S
H875 C856 0.930 . S
H876 C858 0.932 . S
H877 C859 0.929 . S
H878 C860 0.928 . S
H879 C862 0.932 . S
C880 C881 1.264 . S
C880 C885 1.479 . S
C880 C890 1.465 . S
C881 C880 1.264 . S
C881 C883 1.339 . S
C881 H908 0.931 . S
C882 C883 1.395 . S
C882 C884 1.320 . S
C883 C881 1.339 . S
C883 C882 1.395 . S
C883 H909 0.929 . S
C884 C882 1.320 . S
C884 C885 1.405 . S
C884 H910 0.930 . S
C885 C880 1.479 . S
C885 C884 1.405 . S
C885 H911 0.931 . S
U886 O887 2.454 . S
U886 O888 2.458 . S
U886 C889 2.984 . S
U886 C890 2.847 . S
U886 C903 2.882 . S
U886 O904 2.441 . S
U886 O905 2.420 . S
U886 O906 2.455 . S
U886 O907 2.449 . S
O887 U886 2.454 . S
O887 C889 1.353 . S
O888 U886 2.458 . S
O888 C889 1.286 . S
C889 U886 2.984 . S
C889 O887 1.353 . S
C889 O888 1.286 . S
C889 C891 1.363 . S
C890 C880 1.465 . S
C890 U886 2.847 . S
C890 O904 1.249 . S
C890 O905 1.202 . S
C891 C889 1.363 . S
C891 C893 1.408 . S
C891 C896 1.342 . S
C892 C893 1.310 . S
C892 C895 1.461 . S
C892 H912 0.932 . S
C893 C891 1.408 . S
C893 C892 1.310 . S
C893 H913 0.930 . S
C894 C895 1.474 . S
C894 C896 1.285 . S
C894 H914 0.929 . S
C895 C892 1.461 . S
C895 C894 1.474 . S
C896 C891 1.342 . S
C896 C894 1.285 . S
C896 H915 0.930 . S
C897 C900 1.424 . S
C897 C902 1.245 . S
C897 C903 1.428 . S
C898 C901 1.260 . S
C898 C902 1.477 . S
C898 H916 0.932 . S
C899 C900 1.384 . S
C899 C901 1.479 . S
C899 H917 0.929 . S
C900 C897 1.424 . S
C900 C899 1.384 . S
C900 H918 0.928 . S
C901 C898 1.260 . S
C901 C899 1.479 . S
C902 C897 1.245 . S
C902 C898 1.477 . S
C902 H919 0.932 . S
C903 U886 2.882 . S
C903 C897 1.428 . S
C903 O906 1.301 . S
C903 O907 1.282 . S
O904 U886 2.441 . S
O904 C890 1.249 . S
O905 U886 2.420 . S
O905 C890 1.202 . S
O906 U886 2.455 . S
O906 C903 1.301 . S
O907 U886 2.449 . S
O907 C903 1.282 . S
H908 C881 0.931 . S
H909 C883 0.929 . S
H910 C884 0.930 . S
H911 C885 0.931 . S
H912 C892 0.932 . S
H913 C893 0.930 . S
H914 C894 0.929 . S
H915 C896 0.930 . S
H916 C898 0.932 . S
H917 C899 0.929 . S
H918 C900 0.928 . S
H919 C902 0.932 . S
C920 C921 1.264 . S
C920 C925 1.479 . S
C920 C930 1.465 . S
C921 C920 1.264 . S
C921 C923 1.339 . S
C921 H948 0.931 . S
C922 C923 1.395 . S
C922 C924 1.320 . S
C923 C921 1.339 . S
C923 C922 1.395 . S
C923 H949 0.929 . S
C924 C922 1.320 . S
C924 C925 1.405 . S
C924 H950 0.930 1_655 S
C925 C920 1.479 . S
C925 C924 1.405 . S
C925 H951 0.931 . S
U926 O927 2.454 . S
U926 O928 2.458 . S
U926 C929 2.984 . S
U926 C930 2.847 . S
U926 C943 2.882 . S
U926 O944 2.441 . S
U926 O945 2.420 . S
U926 O946 2.455 . S
U926 O947 2.449 . S
O927 U926 2.454 . S
O927 C929 1.353 . S
O928 U926 2.458 . S
O928 C929 1.286 . S
C929 U926 2.984 . S
C929 O927 1.353 . S
C929 O928 1.286 . S
C929 C931 1.363 . S
C930 C920 1.465 . S
C930 U926 2.847 . S
C930 O944 1.249 . S
C930 O945 1.202 . S
C931 C929 1.363 . S
C931 C933 1.408 . S
C931 C936 1.342 . S
C932 C933 1.310 . S
C932 C935 1.460 . S
C932 H952 0.932 . S
C933 C931 1.408 . S
C933 C932 1.310 . S
C933 H953 0.930 . S
C934 C935 1.475 1_455 S
C934 C936 1.285 1_455 S
C934 H954 0.929 . S
C935 C932 1.460 . S
C935 C934 1.475 1_655 S
C936 C931 1.342 . S
C936 C934 1.285 1_655 S
C936 H955 0.930 . S
C937 C940 1.424 . S
C937 C942 1.245 . S
C937 C943 1.428 . S
C938 C941 1.260 . S
C938 C942 1.477 . S
C938 H956 0.932 . S
C939 C940 1.384 . S
C939 C941 1.479 . S
C939 H957 0.929 . S
C940 C937 1.424 . S
C940 C939 1.384 . S
C940 H958 0.928 . S
C941 C938 1.260 . S
C941 C939 1.479 . S
C942 C937 1.245 . S
C942 C938 1.477 . S
C942 H959 0.932 . S
C943 U926 2.882 . S
C943 C937 1.428 . S
C943 O946 1.301 . S
C943 O947 1.282 . S
O944 U926 2.441 . S
O944 C930 1.249 . S
O945 U926 2.420 . S
O945 C930 1.202 . S
O946 U926 2.455 . S
O946 C943 1.301 . S
O947 U926 2.449 . S
O947 C943 1.282 . S
H948 C921 0.931 . S
H949 C923 0.929 . S
H950 C924 0.930 1_455 S
H951 C925 0.931 . S
H952 C932 0.932 . S
H953 C933 0.930 . S
H954 C934 0.929 . S
H955 C936 0.930 . S
H956 C938 0.932 . S
H957 C939 0.929 . S
H958 C940 0.928 . S
H959 C942 0.932 . S
H960 C965 0.930 . S
H961 C968 0.930 . S
H962 C970 0.930 . S
H963 C964 1.016 . S
C964 H963 1.016 . S
C964 N971 1.286 . S
C965 H960 0.930 . S
C965 C966 1.397 . S
C965 C967 1.361 . S
C966 C965 1.397 . S
C966 C970 1.390 . S
C967 C965 1.361 . S
C967 C968 1.393 . S
C967 N971 1.413 . S
C968 H961 0.930 . S
C968 C967 1.393 . S
C968 C969 1.399 . S
C969 C968 1.399 . S
C969 C970 1.381 . S
C970 H962 0.930 . S
C970 C966 1.390 . S
C970 C969 1.381 . S
N971 C964 1.286 . S
N971 C967 1.413 . S
H972 C977 0.930 . S
H973 C980 0.930 . S
H974 C982 0.930 . S
H975 C976 1.016 1_556 S
C976 H975 1.016 1_554 S
C976 N983 1.286 . S
C977 H972 0.930 . S
C977 C978 1.397 . S
C977 C979 1.361 . S
C978 C977 1.397 . S
C978 C982 1.390 1_554 S
C979 C977 1.361 . S
C979 C980 1.393 1_554 S
C979 N983 1.413 . S
C980 H973 0.930 . S
C980 C979 1.393 1_556 S
C980 C981 1.399 . S
C981 C980 1.399 . S
C981 C982 1.381 . S
C982 H974 0.930 . S
C982 C978 1.390 1_556 S
C982 C981 1.381 . S
N983 C976 1.286 . S
N983 C979 1.413 . S
H984 C989 0.930 . S
H985 C992 0.930 . S
H986 C994 0.930 . S
H987 C988 1.016 . S
C988 H987 1.016 . S
C988 N995 1.286 . S
C989 H984 0.930 . S
C989 C990 1.397 . S
C989 C991 1.361 1_565 S
C990 C989 1.397 . S
C990 C994 1.390 . S
C991 C989 1.361 1_545 S
C991 C992 1.393 . S
C991 N995 1.413 . S
C992 H985 0.930 . S
C992 C991 1.393 . S
C992 C993 1.399 1_545 S
C993 C992 1.399 1_565 S
C993 C994 1.381 . S
C994 H986 0.930 . S
C994 C990 1.390 . S
C994 C993 1.381 . S
N995 C988 1.286 . S
N995 C991 1.413 . S
H996 C1001 0.930 . S
H997 C1004 0.930 . S
H998 C1006 0.930 . S
H999 C1000 1.016 . S
C1000 H999 1.016 . S
C1000 N1007 1.286 . S
C1001 H996 0.930 . S
C1001 C1002 1.397 . S
C1001 C1003 1.361 . S
C1002 C1001 1.397 . S
C1002 C1006 1.390 1_556 S
C1003 C1001 1.361 . S
C1003 C1004 1.393 1_556 S
C1003 N1007 1.413 . S
C1004 H997 0.930 . S
C1004 C1003 1.393 1_554 S
C1004 C1005 1.399 . S
C1005 C1004 1.399 . S
C1005 C1006 1.381 . S
C1006 H998 0.930 . S
C1006 C1002 1.390 1_554 S
C1006 C1005 1.381 . S
N1007 C1000 1.286 . S
N1007 C1003 1.413 . S
H1008 C1013 0.930 . S
H1009 C1016 0.930 . S
H1010 C1018 0.930 . S
H1011 C1012 1.016 . S
C1012 H1011 1.016 . S
C1012 N1019 1.286 . S
C1013 H1008 0.930 . S
C1013 C1014 1.397 . S
C1013 C1015 1.361 . S
C1014 C1013 1.397 . S
C1014 C1018 1.390 . S
C1015 C1013 1.361 . S
C1015 C1016 1.393 . S
C1015 N1019 1.413 . S
C1016 H1009 0.930 . S
C1016 C1015 1.393 . S
C1016 C1017 1.399 . S
C1017 C1016 1.399 . S
C1017 C1018 1.381 . S
C1018 H1010 0.930 . S
C1018 C1014 1.390 . S
C1018 C1017 1.381 . S
N1019 C1012 1.286 . S
N1019 C1015 1.413 . S
H1020 C1025 0.930 . S
H1021 C1028 0.930 . S
H1022 C1030 0.930 . S
H1023 C1024 1.016 . S
C1024 H1023 1.016 . S
C1024 N1031 1.286 . S
C1025 H1020 0.930 . S
C1025 C1026 1.397 . S
C1025 C1027 1.361 . S
C1026 C1025 1.397 . S
C1026 C1030 1.390 1_655 S
C1027 C1025 1.361 . S
C1027 C1028 1.393 1_655 S
C1027 N1031 1.413 . S
C1028 H1021 0.930 . S
C1028 C1027 1.393 1_455 S
C1028 C1029 1.399 . S
C1029 C1028 1.399 . S
C1029 C1030 1.381 . S
C1030 H1022 0.930 . S
C1030 C1026 1.390 1_455 S
C1030 C1029 1.381 . S
N1031 C1024 1.286 . S
N1031 C1027 1.413 . S
H1032 C1037 0.930 . S
H1033 C1040 0.930 . S
H1034 C1042 0.930 . S
H1035 C1036 1.016 1_655 S
C1036 H1035 1.016 1_455 S
C1036 N1043 1.286 . S
C1037 H1032 0.930 . S
C1037 C1038 1.397 . S
C1037 C1039 1.361 . S
C1038 C1037 1.397 . S
C1038 C1042 1.390 1_455 S
C1039 C1037 1.361 . S
C1039 C1040 1.393 1_455 S
C1039 N1043 1.413 . S
C1040 H1033 0.930 . S
C1040 C1039 1.393 1_655 S
C1040 C1041 1.399 . S
C1041 C1040 1.399 . S
C1041 C1042 1.381 . S
C1042 H1034 0.930 . S
C1042 C1038 1.390 1_655 S
C1042 C1041 1.381 . S
N1043 C1036 1.286 . S
N1043 C1039 1.413 . S
H1044 C1049 0.930 . S
H1045 C1052 0.930 . S
H1046 C1054 0.930 . S
H1047 C1048 1.016 . S
C1048 H1047 1.016 . S
C1048 N1055 1.286 . S
C1049 H1044 0.930 . S
C1049 C1050 1.397 . S
C1049 C1051 1.361 1_556 S
C1050 C1049 1.397 . S
C1050 C1054 1.390 . S
C1051 C1049 1.361 1_554 S
C1051 C1052 1.393 . S
C1051 N1055 1.413 . S
C1052 H1045 0.930 . S
C1052 C1051 1.393 . S
C1052 C1053 1.399 1_554 S
C1053 C1052 1.399 1_556 S
C1053 C1054 1.381 . S
C1054 H1046 0.930 . S
C1054 C1050 1.390 . S
C1054 C1053 1.381 . S
N1055 C1048 1.286 . S
N1055 C1051 1.413 . S
H1056 C1061 0.930 . S
H1057 C1064 0.930 . S
H1058 C1066 0.930 . S
H1059 C1060 1.016 . S
C1060 H1059 1.016 . S
C1060 N1067 1.286 . S
C1061 H1056 0.930 . S
C1061 C1062 1.397 . S
C1061 C1063 1.361 . S
C1062 C1061 1.397 . S
C1062 C1066 1.390 . S
C1063 C1061 1.361 . S
C1063 C1064 1.393 . S
C1063 N1067 1.413 . S
C1064 H1057 0.930 . S
C1064 C1063 1.393 . S
C1064 C1065 1.399 . S
C1065 C1064 1.399 . S
C1065 C1066 1.381 . S
C1066 H1058 0.930 . S
C1066 C1062 1.390 . S
C1066 C1065 1.381 . S
N1067 C1060 1.286 . S
N1067 C1063 1.413 . S
H1068 C1073 0.930 . S
H1069 C1076 0.930 . S
H1070 C1078 0.930 . S
H1071 C1072 1.016 . S
C1072 H1071 1.016 . S
C1072 N1079 1.286 . S
C1073 H1068 0.930 . S
C1073 C1074 1.397 . S
C1073 C1075 1.361 . S
C1074 C1073 1.397 . S
C1074 C1078 1.390 1_565 S
C1075 C1073 1.361 . S
C1075 C1076 1.393 1_565 S
C1075 N1079 1.413 . S
C1076 H1069 0.930 . S
C1076 C1075 1.393 1_545 S
C1076 C1077 1.399 . S
C1077 C1076 1.399 . S
C1077 C1078 1.381 . S
C1078 H1070 0.930 . S
C1078 C1074 1.390 1_545 S
C1078 C1077 1.381 . S
N1079 C1072 1.286 . S
N1079 C1075 1.413 . S
H1080 C1085 0.930 . S
H1081 C1088 0.930 . S
H1082 C1090 0.930 . S
H1083 C1084 1.016 1_565 S
C1084 H1083 1.016 1_545 S
C1084 N1091 1.286 . S
C1085 H1080 0.930 . S
C1085 C1086 1.397 . S
C1085 C1087 1.361 . S
C1086 C1085 1.397 . S
C1086 C1090 1.390 1_545 S
C1087 C1085 1.361 . S
C1087 C1088 1.393 1_545 S
C1087 N1091 1.413 . S
C1088 H1081 0.930 . S
C1088 C1087 1.393 1_565 S
C1088 C1089 1.399 . S
C1089 C1088 1.399 . S
C1089 C1090 1.381 . S
C1090 H1082 0.930 . S
C1090 C1086 1.390 1_565 S
C1090 C1089 1.381 . S
N1091 C1084 1.286 . S
N1091 C1087 1.413 . S
H1092 C1097 0.930 . S
H1093 C1100 0.930 . S
H1094 C1102 0.930 . S
H1095 C1096 1.016 . S
C1096 H1095 1.016 . S
C1096 N1103 1.286 . S
C1097 H1092 0.930 . S
C1097 C1098 1.397 . S
C1097 C1099 1.361 1_655 S
C1098 C1097 1.397 . S
C1098 C1102 1.390 . S
C1099 C1097 1.361 1_455 S
C1099 C1100 1.393 . S
C1099 N1103 1.413 . S
C1100 H1093 0.930 . S
C1100 C1099 1.393 . S
C1100 C1101 1.399 1_455 S
C1101 C1100 1.399 1_655 S
C1101 C1102 1.381 . S
C1102 H1094 0.930 . S
C1102 C1098 1.390 . S
C1102 C1101 1.381 . S
N1103 C1096 1.286 . S
N1103 C1099 1.413 . S
H1104 C1109 0.930 . S
H1105 C1112 0.930 . S
H1106 C1114 0.930 . S
H1107 C1108 1.016 . S
C1108 H1107 1.016 . S
C1108 N1115 1.286 . S
C1109 H1104 0.930 . S
C1109 C1110 1.397 . S
C1109 C1111 1.361 . S
C1110 C1109 1.397 . S
C1110 C1114 1.390 . S
C1111 C1109 1.361 . S
C1111 C1112 1.393 . S
C1111 N1115 1.413 . S
C1112 H1105 0.930 . S
C1112 C1111 1.393 . S
C1112 C1113 1.399 . S
C1113 C1112 1.399 . S
C1113 C1114 1.381 . S
C1114 H1106 0.930 . S
C1114 C1110 1.390 . S
C1114 C1113 1.381 . S
N1115 C1108 1.286 . S
N1115 C1111 1.413 . S
H1116 C1121 0.930 . S
H1117 C1124 0.930 . S
H1118 C1126 0.930 . S
H1119 C1120 1.016 1_554 S
C1120 H1119 1.016 1_556 S
C1120 N1127 1.286 . S
C1121 H1116 0.930 . S
C1121 C1122 1.397 . S
C1121 C1123 1.361 . S
C1122 C1121 1.397 . S
C1122 C1126 1.390 1_556 S
C1123 C1121 1.361 . S
C1123 C1124 1.393 1_556 S
C1123 N1127 1.413 . S
C1124 H1117 0.930 . S
C1124 C1123 1.393 1_554 S
C1124 C1125 1.399 . S
C1125 C1124 1.399 . S
C1125 C1126 1.381 . S
C1126 H1118 0.930 . S
C1126 C1122 1.390 1_554 S
C1126 C1125 1.381 . S
N1127 C1120 1.286 . S
N1127 C1123 1.413 . S
H1128 C1133 0.930 . S
H1129 C1136 0.930 . S
H1130 C1138 0.930 . S
H1131 C1132 1.016 . S
C1132 H1131 1.016 . S
C1132 N1139 1.286 . S
C1133 H1128 0.930 . S
C1133 C1134 1.397 . S
C1133 C1135 1.361 1_545 S
C1134 C1133 1.397 . S
C1134 C1138 1.390 . S
C1135 C1133 1.361 1_565 S
C1135 C1136 1.393 . S
C1135 N1139 1.413 . S
C1136 H1129 0.930 . S
C1136 C1135 1.393 . S
C1136 C1137 1.399 1_565 S
C1137 C1136 1.399 1_545 S
C1137 C1138 1.381 . S
C1138 H1130 0.930 . S
C1138 C1134 1.390 . S
C1138 C1137 1.381 . S
N1139 C1132 1.286 . S
N1139 C1135 1.413 . S
H1140 C1145 0.930 . S
H1141 C1148 0.930 . S
H1142 C1150 0.930 . S
H1143 C1144 1.016 1_556 S
C1144 H1143 1.016 1_554 S
C1144 N1151 1.286 . S
C1145 H1140 0.930 . S
C1145 C1146 1.397 . S
C1145 C1147 1.361 . S
C1146 C1145 1.397 . S
C1146 C1150 1.390 1_554 S
C1147 C1145 1.361 . S
C1147 C1148 1.393 1_554 S
C1147 N1151 1.413 . S
C1148 H1141 0.930 . S
C1148 C1147 1.393 1_556 S
C1148 C1149 1.399 . S
C1149 C1148 1.399 . S
C1149 C1150 1.381 . S
C1150 H1142 0.930 . S
C1150 C1146 1.390 1_556 S
C1150 C1149 1.381 . S
N1151 C1144 1.286 . S
N1151 C1147 1.413 . S
H1152 C1157 0.930 . S
H1153 C1160 0.930 . S
H1154 C1162 0.930 . S
H1155 C1156 1.016 . S
C1156 H1155 1.016 . S
C1156 N1163 1.286 . S
C1157 H1152 0.930 . S
C1157 C1158 1.397 . S
C1157 C1159 1.361 . S
C1158 C1157 1.397 . S
C1158 C1162 1.390 . S
C1159 C1157 1.361 . S
C1159 C1160 1.393 . S
C1159 N1163 1.413 . S
C1160 H1153 0.930 . S
C1160 C1159 1.393 . S
C1160 C1161 1.399 . S
C1161 C1160 1.399 . S
C1161 C1162 1.381 . S
C1162 H1154 0.930 . S
C1162 C1158 1.390 . S
C1162 C1161 1.381 . S
N1163 C1156 1.286 . S
N1163 C1159 1.413 . S
H1164 C1169 0.930 . S
H1165 C1172 0.930 . S
H1166 C1174 0.930 . S
H1167 C1168 1.016 1_655 S
C1168 H1167 1.016 1_455 S
C1168 N1175 1.286 . S
C1169 H1164 0.930 . S
C1169 C1170 1.397 . S
C1169 C1171 1.361 . S
C1170 C1169 1.397 . S
C1170 C1174 1.390 1_455 S
C1171 C1169 1.361 . S
C1171 C1172 1.393 1_455 S
C1171 N1175 1.413 . S
C1172 H1165 0.930 . S
C1172 C1171 1.393 1_655 S
C1172 C1173 1.399 . S
C1173 C1172 1.399 . S
C1173 C1174 1.381 . S
C1174 H1166 0.930 . S
C1174 C1170 1.390 1_655 S
C1174 C1173 1.381 . S
N1175 C1168 1.286 . S
N1175 C1171 1.413 . S
H1176 C1181 0.930 . S
H1177 C1184 0.930 . S
H1178 C1186 0.930 . S
H1179 C1180 1.016 1_455 S
C1180 H1179 1.016 1_655 S
C1180 N1187 1.286 . S
C1181 H1176 0.930 . S
C1181 C1182 1.397 . S
C1181 C1183 1.361 . S
C1182 C1181 1.397 . S
C1182 C1186 1.390 1_655 S
C1183 C1181 1.361 . S
C1183 C1184 1.393 1_655 S
C1183 N1187 1.413 . S
C1184 H1177 0.930 . S
C1184 C1183 1.393 1_455 S
C1184 C1185 1.399 . S
C1185 C1184 1.399 . S
C1185 C1186 1.381 . S
C1186 H1178 0.930 . S
C1186 C1182 1.390 1_455 S
C1186 C1185 1.381 . S
N1187 C1180 1.286 . S
N1187 C1183 1.413 . S
H1188 C1193 0.930 . S
H1189 C1196 0.930 . S
H1190 C1198 0.930 . S
H1191 C1192 1.016 . S
C1192 H1191 1.016 . S
C1192 N1199 1.286 . S
C1193 H1188 0.930 . S
C1193 C1194 1.397 . S
C1193 C1195 1.361 1_554 S
C1194 C1193 1.397 . S
C1194 C1198 1.390 . S
C1195 C1193 1.361 1_556 S
C1195 C1196 1.393 . S
C1195 N1199 1.413 . S
C1196 H1189 0.930 . S
C1196 C1195 1.393 . S
C1196 C1197 1.399 1_556 S
C1197 C1196 1.399 1_554 S
C1197 C1198 1.381 . S
C1198 H1190 0.930 . S
C1198 C1194 1.390 . S
C1198 C1197 1.381 . S
N1199 C1192 1.286 . S
N1199 C1195 1.413 . S
H1200 C1205 0.930 . S
H1201 C1208 0.930 . S
H1202 C1210 0.930 . S
H1203 C1204 1.016 . S
C1204 H1203 1.016 . S
C1204 N1211 1.286 . S
C1205 H1200 0.930 . S
C1205 C1206 1.397 . S
C1205 C1207 1.361 . S
C1206 C1205 1.397 . S
C1206 C1210 1.390 . S
C1207 C1205 1.361 . S
C1207 C1208 1.393 . S
C1207 N1211 1.413 . S
C1208 H1201 0.930 . S
C1208 C1207 1.393 . S
C1208 C1209 1.399 . S
C1209 C1208 1.399 . S
C1209 C1210 1.381 . S
C1210 H1202 0.930 . S
C1210 C1206 1.390 . S
C1210 C1209 1.381 . S
N1211 C1204 1.286 . S
N1211 C1207 1.413 . S
H1212 C1217 0.930 . S
H1213 C1220 0.930 . S
H1214 C1222 0.930 . S
H1215 C1216 1.016 1_565 S
C1216 H1215 1.016 1_545 S
C1216 N1223 1.286 . S
C1217 H1212 0.930 . S
C1217 C1218 1.397 . S
C1217 C1219 1.361 . S
C1218 C1217 1.397 . S
C1218 C1222 1.390 1_545 S
C1219 C1217 1.361 . S
C1219 C1220 1.393 1_545 S
C1219 N1223 1.413 . S
C1220 H1213 0.930 . S
C1220 C1219 1.393 1_565 S
C1220 C1221 1.399 . S
C1221 C1220 1.399 . S
C1221 C1222 1.381 . S
C1222 H1214 0.930 . S
C1222 C1218 1.390 1_565 S
C1222 C1221 1.381 . S
N1223 C1216 1.286 . S
N1223 C1219 1.413 . S
H1224 C1229 0.930 . S
H1225 C1232 0.930 . S
H1226 C1234 0.930 . S
H1227 C1228 1.016 1_545 S
C1228 H1227 1.016 1_565 S
C1228 N1235 1.286 . S
C1229 H1224 0.930 . S
C1229 C1230 1.397 . S
C1229 C1231 1.361 . S
C1230 C1229 1.397 . S
C1230 C1234 1.390 1_565 S
C1231 C1229 1.361 . S
C1231 C1232 1.393 1_565 S
C1231 N1235 1.413 . S
C1232 H1225 0.930 . S
C1232 C1231 1.393 1_545 S
C1232 C1233 1.399 . S
C1233 C1232 1.399 . S
C1233 C1234 1.381 . S
C1234 H1226 0.930 . S
C1234 C1230 1.390 1_545 S
C1234 C1233 1.381 . S
N1235 C1228 1.286 . S
N1235 C1231 1.413 . S
H1236 C1241 0.930 . S
H1237 C1244 0.930 . S
H1238 C1246 0.930 . S
H1239 C1240 1.016 . S
C1240 H1239 1.016 . S
C1240 N1247 1.286 . S
C1241 H1236 0.930 . S
C1241 C1242 1.397 . S
C1241 C1243 1.361 1_455 S
C1242 C1241 1.397 . S
C1242 C1246 1.390 . S
C1243 C1241 1.361 1_655 S
C1243 C1244 1.393 . S
C1243 N1247 1.413 . S
C1244 H1237 0.930 . S
C1244 C1243 1.393 . S
C1244 C1245 1.399 1_655 S
C1245 C1244 1.399 1_455 S
C1245 C1246 1.381 . S
C1246 H1238 0.930 . S
C1246 C1242 1.390 . S
C1246 C1245 1.381 . S
N1247 C1240 1.286 . S
N1247 C1243 1.413 . S
C1242 C15 1.918 . S
C1206 C55 2.710 . S
C1230 C95 1.104 . S
C1218 C135 2.284 1_455 S
C1134 C175 1.919 . S
C215 C1146 2.284 1_565 S
C1110 C255 2.710 . S
C295 C1122 1.104 . S
C1194 C335 1.918 . S
C375 C1170 2.284 1_556 S
C415 C1158 2.710 . S
C1182 C455 1.104 . S
C1098 C495 1.876 . S
C535 C1062 2.658 . S
C1086 C575 1.118 1_545 S
C615 C1074 2.190 1_455 S
C990 C655 1.876 . S
C1002 C695 2.190 1_565 S
C735 C966 2.658 . S
C775 C978 1.118 1_556 S
C815 C1050 1.876 . S
C855 C1026 2.190 1_554 S
C1014 C895 2.658 . S
C935 C1038 1.118 1_655 S
C969 C21 1.863 . S
C981 C61 3.270 . S
C101 C993 0.866 . S
C141 C1005 0.991 . S
C1017 C181 1.863 . S
C221 C1029 0.991 . S
C1041 C261 3.270 . S
C1053 C301 0.866 . S
C1065 C341 1.863 . S
C381 C1077 0.991 . S
C421 C1089 3.270 . S
C461 C1101 0.866 . S
C501 C1113 1.696 . S
C541 C1125 2.978 . S
C581 C1137 0.977 1_565 S
C621 C1149 0.874 . S
C661 C1161 1.696 . S
C1173 C701 0.874 . S
C1185 C741 2.978 . S
C1197 C781 0.977 1_554 S
C1209 C821 1.696 . S
C861 C1221 0.874 . S
C901 C1233 2.978 . S
C941 C1245 0.977 1_655 S
C2 C1060 1.888 . S
C1096 C42 2.410 . S
C82 C1072 1.650 . S
C1084 C122 2.360 . S
C162 C964 1.888 . S
C202 C976 2.360 . S
C242 C988 2.410 . S
C282 C1000 1.650 . S
C1012 C322 1.888 . S
C1036 C362 2.360 . S
C402 C1048 2.410 . S
C442 C1024 1.650 . S
C1204 C482 1.808 . S
C1240 C522 2.131 . S
C562 C1216 1.791 1_565 S
C1228 C602 2.358 . S
C642 C1108 1.808 . S
C682 C1120 2.358 . S
C722 C1132 2.131 . S
C1144 C762 1.791 1_554 S
C1156 C802 1.808 . S
C1180 C842 2.358 . S
C882 C1192 2.131 . S
C1168 C922 1.791 1_455 S
