# Generated by pormake.
# Topology pyr, (3,6)-cn, num edge types: 1
# Building blocks:
#     Node 0, Type 0, BuildingBlock: BELTOD_clean_linker_0, # of connection points: 3
#     Node 1, Type 0, BuildingBlock: BELTOD_clean_linker_0, # of connection points: 3
#     Node 2, Type 0, BuildingBlock: BELTOD_clean_linker_0, # of connection points: 3
#     Node 3, Type 0, BuildingBlock: BELTOD_clean_linker_0, # of connection points: 3
#     Node 4, Type 0, BuildingBlock: BELTOD_clean_linker_0, # of connection points: 3
#     Node 5, Type 0, BuildingBlock: BELTOD_clean_linker_0, # of connection points: 3
#     Node 6, Type 0, BuildingBlock: BELTOD_clean_linker_0, # of connection points: 3
#     Node 7, Type 0, BuildingBlock: BELTOD_clean_linker_0, # of connection points: 3
#     Node 8, Type 1, BuildingBlock: MIDCAF_clean_sbu_0, # of connection points: 6
#     Node 9, Type 1, BuildingBlock: MIDCAF_clean_sbu_0, # of connection points: 6
#     Node 10, Type 1, BuildingBlock: MIDCAF_clean_sbu_0, # of connection points: 6
#     Node 11, Type 1, BuildingBlock: MIDCAF_clean_sbu_0, # of connection points: 6
#     Edge 12, Type (0, 1), BuildingBlock: KIFKEQ_clean_linker_1, # of connection points: 2
#     Edge 13, Type (0, 1), BuildingBlock: KIFKEQ_clean_linker_1, # of connection points: 2
#     Edge 14, Type (0, 1), BuildingBlock: KIFKEQ_clean_linker_1, # of connection points: 2
#     Edge 15, Type (0, 1), BuildingBlock: KIFKEQ_clean_linker_1, # of connection points: 2
#     Edge 16, Type (0, 1), BuildingBlock: KIFKEQ_clean_linker_1, # of connection points: 2
#     Edge 17, Type (0, 1), BuildingBlock: KIFKEQ_clean_linker_1, # of connection points: 2
#     Edge 18, Type (0, 1), BuildingBlock: KIFKEQ_clean_linker_1, # of connection points: 2
#     Edge 19, Type (0, 1), BuildingBlock: KIFKEQ_clean_linker_1, # of connection points: 2
#     Edge 20, Type (0, 1), BuildingBlock: KIFKEQ_clean_linker_1, # of connection points: 2
#     Edge 21, Type (0, 1), BuildingBlock: KIFKEQ_clean_linker_1, # of connection points: 2
#     Edge 22, Type (0, 1), BuildingBlock: KIFKEQ_clean_linker_1, # of connection points: 2
#     Edge 23, Type (0, 1), BuildingBlock: KIFKEQ_clean_linker_1, # of connection points: 2
#     Edge 24, Type (0, 1), BuildingBlock: KIFKEQ_clean_linker_1, # of connection points: 2
#     Edge 25, Type (0, 1), BuildingBlock: KIFKEQ_clean_linker_1, # of connection points: 2
#     Edge 26, Type (0, 1), BuildingBlock: KIFKEQ_clean_linker_1, # of connection points: 2
#     Edge 27, Type (0, 1), BuildingBlock: KIFKEQ_clean_linker_1, # of connection points: 2
#     Edge 28, Type (0, 1), BuildingBlock: KIFKEQ_clean_linker_1, # of connection points: 2
#     Edge 29, Type (0, 1), BuildingBlock: KIFKEQ_clean_linker_1, # of connection points: 2
#     Edge 30, Type (0, 1), BuildingBlock: KIFKEQ_clean_linker_1, # of connection points: 2
#     Edge 31, Type (0, 1), BuildingBlock: KIFKEQ_clean_linker_1, # of connection points: 2
#     Edge 32, Type (0, 1), BuildingBlock: KIFKEQ_clean_linker_1, # of connection points: 2
#     Edge 33, Type (0, 1), BuildingBlock: KIFKEQ_clean_linker_1, # of connection points: 2
#     Edge 34, Type (0, 1), BuildingBlock: KIFKEQ_clean_linker_1, # of connection points: 2
#     Edge 35, Type (0, 1), BuildingBlock: KIFKEQ_clean_linker_1, # of connection points: 2
# Relax obj value: 0.020
# Max RMSD: 0.062
# Mean RMSD: 0.033
data_MOF--net-pyr--node1-MIDCAF_clean_sbu_0--node2-BELTOD_clean_linker_0--edge1-KIFKEQ_clean_linker_1
_symmetry_space_group_name_H-M    P1
_symmetry_Int_Tables_number       1
_symmetry_cell_setting            triclinic
loop_
_symmetry_equiv_pos_as_xyz
'x, y, z'
_cell_length_a     41.093045
_cell_length_b     41.369511
_cell_length_c     40.684909
_cell_angle_alpha  89.534363
_cell_angle_beta   90.043487
_cell_angle_gamma 90.252027
loop_
_atom_site_label
_atom_site_type_symbol
_atom_site_fract_x
_atom_site_fract_y
_atom_site_fract_z
_atom_type_partial_charge
P0 P 0.25859 0.26663 0.2632 0.0
H1 H 0.32764 0.27313 0.24625 0.0
H2 H 0.36527 0.23867 0.21605 0.0
H3 H 0.28715 0.17072 0.19826 0.0
H4 H 0.24961 0.20565 0.22799 0.0
H5 H 0.22532 0.32694 0.27691 0.0
H6 H 0.19618 0.36584 0.24258 0.0
H7 H 0.21448 0.30683 0.15739 0.0
H8 H 0.24261 0.26749 0.19223 0.0
H9 H 0.27155 0.20953 0.30294 0.0
H10 H 0.18834 0.2687 0.27984 0.0
O11 O 0.28092 0.28861 0.28909 0.0
H12 H 0.23803 0.17619 0.3394 0.0
H13 H 0.15456 0.23533 0.3164 0.0
C14 C 0.28593 0.24172 0.23973 0.0
C15 C 0.31863 0.2508 0.23585 0.0
C16 C 0.34019 0.23095 0.21875 0.0
C17 C 0.32936 0.20174 0.20492 0.0
C18 C 0.29633 0.19311 0.20837 0.0
C19 C 0.27483 0.21297 0.22551 0.0
C20 C 0.2364 0.29445 0.23716 0.0
C21 C 0.22302 0.32238 0.25083 0.0
C22 C 0.20656 0.34477 0.23105 0.0
C23 C 0.20321 0.3398 0.19701 0.0
C24 C 0.21633 0.31144 0.18348 0.0
C25 C 0.23264 0.28892 0.2034 0.0
C26 C 0.2324 0.24124 0.28811 0.0
C27 C 0.24594 0.21511 0.30538 0.0
C28 C 0.22672 0.19604 0.32624 0.0
C29 C 0.19353 0.20295 0.33068 0.0
C30 C 0.18006 0.22946 0.31364 0.0
C31 C 0.19934 0.24843 0.29252 0.0
P32 P 0.31513 0.8363 0.70433 0.0
H33 H 0.37574 0.86895 0.72094 0.0
H34 H 0.40024 0.88467 0.77282 0.0
H35 H 0.31951 0.84095 0.82526 0.0
H36 H 0.29441 0.82655 0.77269 0.0
H37 H 0.31157 0.80142 0.64273 0.0
H38 H 0.33092 0.74811 0.62611 0.0
H39 H 0.35944 0.72775 0.72635 0.0
H40 H 0.34016 0.78093 0.74279 0.0
H41 H 0.27804 0.8941 0.71755 0.0
H42 H 0.25768 0.79552 0.69027 0.0
O43 O 0.3312 0.86014 0.67525 0.0
H44 H 0.22145 0.90848 0.70661 0.0
H45 H 0.20101 0.80964 0.67959 0.0
C46 C 0.33297 0.84724 0.74303 0.0
C47 C 0.3632 0.86291 0.74358 0.0
C48 C 0.37743 0.87148 0.7734 0.0
C49 C 0.36195 0.86401 0.80339 0.0
C50 C 0.3319 0.84751 0.80269 0.0
C51 C 0.31753 0.83922 0.7727 0.0
C52 C 0.32493 0.79533 0.69382 0.0
C53 C 0.32157 0.78525 0.66119 0.0
C54 C 0.33239 0.75473 0.65177 0.0
C55 C 0.34692 0.73391 0.67491 0.0
C56 C 0.34869 0.74349 0.70795 0.0
C57 C 0.33765 0.77393 0.71736 0.0
C58 C 0.27212 0.84391 0.70435 0.0
C59 C 0.26114 0.87536 0.7101 0.0
C60 C 0.22873 0.8835 0.70402 0.0
C61 C 0.20683 0.86025 0.6919 0.0
C62 C 0.21745 0.82816 0.68847 0.0
C63 C 0.24988 0.82006 0.69461 0.0
P64 P 0.76819 0.27867 0.77616 0.0
H65 H 0.83879 0.28622 0.78428 0.0
H66 H 0.87203 0.32005 0.82017 0.0
H67 H 0.78478 0.36213 0.86037 0.0
H68 H 0.75169 0.3281 0.82444 0.0
H69 H 0.77576 0.21072 0.79565 0.0
H70 H 0.74375 0.17476 0.83132 0.0
H71 H 0.67682 0.25263 0.85023 0.0
H72 H 0.7087 0.28831 0.81429 0.0
H73 H 0.77007 0.34595 0.75228 0.0
H74 H 0.70987 0.26141 0.73916 0.0
O75 O 0.7924 0.25646 0.75248 0.0
H76 H 0.73583 0.37614 0.71399 0.0
H77 H 0.67596 0.29116 0.69997 0.0
C78 C 0.79273 0.3045 0.80181 0.0
C79 C 0.82678 0.30279 0.8007 0.0
C80 C 0.8458 0.3223 0.82113 0.0
C81 C 0.83107 0.34376 0.8432 0.0
C82 C 0.79688 0.34557 0.84397 0.0
C83 C 0.77792 0.32615 0.82341 0.0
C84 C 0.74444 0.25211 0.80213 0.0
C85 C 0.75411 0.22 0.80733 0.0
C86 C 0.73579 0.19945 0.82769 0.0
C87 C 0.7078 0.21087 0.8436 0.0
C88 C 0.69847 0.24323 0.8386 0.0
C89 C 0.7166 0.26362 0.81799 0.0
C90 C 0.74202 0.30166 0.74925 0.0
C91 C 0.74932 0.33392 0.74137 0.0
C92 C 0.72991 0.35107 0.71907 0.0
C93 C 0.70306 0.33613 0.70381 0.0
C94 C 0.69607 0.30362 0.71161 0.0
C95 C 0.71547 0.28655 0.734 0.0
P96 P 0.75925 0.77972 0.26717 0.0
H97 H 0.79603 0.83764 0.25019 0.0
H98 H 0.8294 0.87511 0.28246 0.0
H99 H 0.80939 0.81905 0.3701 0.0
H100 H 0.77719 0.78095 0.33764 0.0
H101 H 0.76598 0.76964 0.19611 0.0
H102 H 0.80201 0.73549 0.16366 0.0
H103 H 0.84872 0.70239 0.25289 0.0
H104 H 0.8124 0.73653 0.2852 0.0
H105 H 0.71413 0.79537 0.31987 0.0
H106 H 0.74441 0.70974 0.26861 0.0
O107 O 0.73587 0.80177 0.24214 0.0
H108 H 0.67907 0.76231 0.35543 0.0
H109 H 0.70937 0.67665 0.304 0.0
C110 C 0.78336 0.80703 0.29161 0.0
C111 C 0.79873 0.83348 0.27637 0.0
C112 C 0.81779 0.8548 0.29476 0.0
C113 C 0.82151 0.85015 0.3288 0.0
C114 C 0.80635 0.82347 0.344 0.0
C115 C 0.78786 0.80176 0.32544 0.0
C116 C 0.78653 0.75553 0.24307 0.0
C117 C 0.78407 0.75517 0.20869 0.0
C118 C 0.80481 0.73576 0.19013 0.0
C119 C 0.82819 0.71618 0.20568 0.0
C120 C 0.83073 0.71691 0.24018 0.0
C121 C 0.81013 0.7365 0.25868 0.0
C122 C 0.73269 0.75497 0.29229 0.0
C123 C 0.71333 0.76945 0.31635 0.0
C124 C 0.69333 0.75056 0.33664 0.0
C125 C 0.69174 0.71686 0.3327 0.0
C126 C 0.71008 0.70256 0.30759 0.0
C127 C 0.73039 0.72148 0.28753 0.0
P128 P 0.93409 0.94167 0.94188 0.0
H129 H 0.88381 0.93501 0.99166 0.0
H130 H 0.82885 0.95663 0.99654 0.0
H131 H 0.8387 0.00233 0.90115 0.0
H132 H 0.89353 0.98019 0.89623 0.0
H133 H 0.97663 0.91038 0.99012 0.0
H134 H 0.97918 0.8557 0.01236 0.0
H135 H 0.90055 0.82715 0.94786 0.0
H136 H 0.89684 0.8827 0.92739 0.0
H137 H 0.97266 0.99292 0.91157 0.0
H138 H 0.93131 0.90172 0.88188 0.0
O139 O 0.95533 0.96522 0.96728 0.0
H140 H 0.99164 0.00273 0.85564 0.0
H141 H 0.95 0.91162 0.82549 0.0
C142 C 0.89258 0.95544 0.94339 0.0
C143 C 0.874 0.94936 0.97162 0.0
C144 C 0.84271 0.96208 0.97453 0.0
C145 C 0.82943 0.98141 0.9493 0.0
C146 C 0.84808 0.98731 0.92088 0.0
C147 C 0.87948 0.9746 0.91805 0.0
C148 C 0.93665 0.9006 0.95695 0.0
C149 C 0.95983 0.8924 0.98083 0.0
C150 C 0.96141 0.8609 0.99341 0.0
C151 C 0.94017 0.83666 0.98194 0.0
C152 C 0.91699 0.8451 0.95781 0.0
C153 C 0.91512 0.8768 0.94564 0.0
C154 C 0.95097 0.94636 0.90114 0.0
C155 C 0.96806 0.97473 0.89315 0.0
C156 C 0.9787 0.98044 0.86104 0.0
C157 C 0.97224 0.95799 0.83607 0.0
C158 C 0.95569 0.92919 0.84425 0.0
C159 C 0.94492 0.92354 0.8765 0.0
P160 P 0.65396 0.16839 0.37818 0.0
H161 H 0.68292 0.22597 0.40669 0.0
H162 H 0.66371 0.26427 0.44735 0.0
H163 H 0.57914 0.20402 0.46505 0.0
H164 H 0.59808 0.16636 0.42333 0.0
H165 H 0.70996 0.1354 0.35066 0.0
H166 H 0.74655 0.0944 0.37263 0.0
H167 H 0.6866 0.08604 0.45965 0.0
H168 H 0.65076 0.12809 0.43788 0.0
H169 H 0.62326 0.19008 0.31744 0.0
H170 H 0.60862 0.11427 0.38931 0.0
O171 O 0.67691 0.19058 0.35265 0.0
H172 H 0.58252 0.16572 0.28207 0.0
H173 H 0.56643 0.09035 0.3547 0.0
C174 C 0.64139 0.19394 0.41126 0.0
C175 C 0.66032 0.22092 0.41944 0.0
C176 C 0.64949 0.24261 0.44308 0.0
C177 C 0.61967 0.23743 0.45928 0.0
C178 C 0.60188 0.20908 0.45255 0.0
C179 C 0.61266 0.18752 0.42868 0.0
C180 C 0.67831 0.13546 0.39313 0.0
C181 C 0.70463 0.12465 0.37442 0.0
C182 C 0.72531 0.10082 0.38685 0.0
C183 C 0.71973 0.08709 0.41809 0.0
C184 C 0.69198 0.09658 0.4358 0.0
C185 C 0.67145 0.12062 0.42341 0.0
C186 C 0.61967 0.15338 0.35545 0.0
C187 C 0.61076 0.16849 0.32591 0.0
C188 C 0.58698 0.15471 0.30588 0.0
C189 C 0.57133 0.12574 0.31527 0.0
C190 C 0.57846 0.11226 0.34634 0.0
C191 C 0.60258 0.1259 0.36619 0.0
P192 P 0.4288 0.61636 0.10644 0.0
H193 H 0.3996 0.57869 0.05373 0.0
H194 H 0.34377 0.56182 0.04217 0.0
H195 H 0.31182 0.60685 0.13195 0.0
H196 H 0.36793 0.62314 0.14363 0.0
H197 H 0.47751 0.649 0.0655 0.0
H198 H 0.48193 0.70388 0.04366 0.0
H199 H 0.39063 0.72815 0.08987 0.0
H200 H 0.38703 0.67342 0.11257 0.0
H201 H 0.40946 0.57371 0.1608 0.0
H202 H 0.47564 0.65361 0.14537 0.0
O203 O 0.45449 0.59269 0.08606 0.0
H204 H 0.42747 0.56913 0.21782 0.0
H205 H 0.4943 0.64864 0.20249 0.0
C206 C 0.38799 0.6017 0.09979 0.0
C207 C 0.38068 0.58449 0.0712 0.0
C208 C 0.3487 0.57504 0.06451 0.0
C209 C 0.32334 0.58296 0.08616 0.0
C210 C 0.33085 0.5999 0.11505 0.0
C211 C 0.36289 0.60935 0.12169 0.0
C212 C 0.4317 0.65694 0.09025 0.0
C213 C 0.45836 0.66606 0.0708 0.0
C214 C 0.4607 0.69746 0.05808 0.0
C215 C 0.4364 0.72043 0.0646 0.0
C216 C 0.40983 0.71118 0.08442 0.0
C217 C 0.40763 0.67977 0.09726 0.0
C218 C 0.4403 0.6148 0.14916 0.0
C219 C 0.42737 0.59073 0.16984 0.0
C220 C 0.43779 0.58803 0.20241 0.0
C221 C 0.46202 0.60878 0.21467 0.0
C222 C 0.4755 0.63244 0.1937 0.0
C223 C 0.46467 0.63543 0.16118 0.0
P224 P 0.17596 0.35316 0.68404 0.0
H225 H 0.19721 0.29764 0.64658 0.0
H226 H 0.17136 0.26529 0.60412 0.0
H227 H 0.09029 0.33154 0.60185 0.0
H228 H 0.11596 0.36325 0.64519 0.0
H229 H 0.24559 0.36348 0.69387 0.0
H230 H 0.28402 0.40227 0.67206 0.0
H231 H 0.2054 0.45174 0.62176 0.0
H232 H 0.16803 0.40987 0.64026 0.0
H233 H 0.1526 0.33112 0.74836 0.0
H234 H 0.13131 0.40916 0.68084 0.0
O235 O 0.19768 0.32596 0.70512 0.0
H236 H 0.11443 0.3535 0.78782 0.0
H237 H 0.09242 0.43097 0.71957 0.0
C238 C 0.15804 0.33225 0.64982 0.0
C239 C 0.17391 0.3053 0.63687 0.0
C240 C 0.15925 0.287 0.61223 0.0
C241 C 0.12852 0.29557 0.59973 0.0
C242 C 0.11364 0.32386 0.61139 0.0
C243 C 0.12833 0.34208 0.63621 0.0
C244 C 0.20364 0.38402 0.66936 0.0
C245 C 0.23655 0.38265 0.67812 0.0
C246 C 0.25864 0.40547 0.66588 0.0
C247 C 0.24825 0.431 0.64526 0.0
C248 C 0.21489 0.43251 0.63709 0.0
C249 C 0.19305 0.40885 0.64839 0.0
C250 C 0.14563 0.36882 0.71179 0.0
C251 C 0.13963 0.35296 0.74181 0.0
C252 C 0.11744 0.3656 0.7643 0.0
C253 C 0.10052 0.39425 0.75706 0.0
C254 C 0.10554 0.40926 0.7263 0.0
C255 C 0.12791 0.39672 0.70398 0.0
Zn256 Zn 0.96713 0.06618 0.55726 0.0
Zn257 Zn 0.04083 0.98831 0.48634 0.0
Zn258 Zn 0.0038 0.02781 0.52264 0.0
C259 C 0.06445 0.05142 0.47672 0.0
C260 C 0.97732 0.9828 0.46283 0.0
O261 O 0.00869 0.01392 0.57554 0.0
O262 O 0.98279 0.05295 0.60141 0.0
C263 C 0.00978 0.10605 0.52348 0.0
O264 O 0.03963 0.05789 0.49487 0.0
O265 O 0.07191 0.0224 0.47102 0.0
O266 O 0.0059 0.97443 0.45554 0.0
O267 O 0.97214 1.00161 0.48738 0.0
O268 O 0.98342 0.10791 0.53925 0.0
O269 O 0.02145 0.07818 0.51596 0.0
O270 O 0.95271 0.02176 0.50652 0.0
O271 O 0.92429 0.04944 0.54279 0.0
C272 C 0.9252 0.03096 0.5183 0.0
O273 O 0.02791 0.99358 0.55633 0.0
O274 O 0.05285 0.95905 0.52362 0.0
C275 C 0.99965 0.02754 0.60241 0.0
C276 C 0.04508 0.96798 0.55217 0.0
Zn277 Zn 0.48511 0.05986 0.99321 0.0
Zn278 Zn 0.56294 0.98022 0.05516 0.0
Zn279 Zn 0.52399 0.02025 0.02574 0.0
C280 C 0.6019 0.01217 0.01136 0.0
C281 C 0.51578 0.9416 0.0285 0.0
O282 O 0.49776 0.05108 0.06224 0.0
O283 O 0.46247 0.07808 0.03139 0.0
C284 C 0.54843 0.07578 0.97428 0.0
O285 O 0.57486 0.02733 0.00664 0.0
O286 O 0.6034 0.98891 0.03144 0.0
O287 O 0.54107 0.93915 0.04585 0.0
O288 O 0.50612 0.96959 0.01826 0.0
O289 O 0.5197 0.08621 0.97184 0.0
O290 O 0.55452 0.05051 0.99206 0.0
O291 O 0.48968 0.99049 0.99669 0.0
O292 O 0.46177 0.0264 0.96769 0.0
C293 C 0.46797 0.9973 0.97483 0.0
O294 O 0.52085 0.03167 0.07887 0.0
O295 O 0.55809 0.99866 0.09927 0.0
C296 C 0.47391 0.07114 0.0593 0.0
C297 C 0.53735 0.02065 0.10347 0.0
Zn298 Zn 0.55562 0.55529 0.56063 0.0
Zn299 Zn 0.48223 0.48662 0.47934 0.0
Zn300 Zn 0.51759 0.52271 0.51838 0.0
C301 C 0.52362 0.44461 0.51048 0.0
C302 C 0.51182 0.53246 0.43928 0.0
O303 O 0.48533 0.54818 0.55259 0.0
O304 O 0.51907 0.57643 0.58386 0.0
C305 C 0.57189 0.4916 0.56914 0.0
O306 O 0.53387 0.47173 0.52206 0.0
O307 O 0.49974 0.44376 0.49104 0.0
O308 O 0.49489 0.50707 0.43721 0.0
O309 O 0.52221 0.54234 0.46742 0.0
O310 O 0.57705 0.5184 0.58275 0.0
O311 O 0.55201 0.48946 0.54465 0.0
O312 O 0.54469 0.55873 0.48843 0.0
O313 O 0.5793 0.57878 0.52482 0.0
C314 C 0.56897 0.57727 0.49559 0.0
O315 O 0.46607 0.52542 0.53553 0.0
O316 O 0.43945 0.49721 0.4982 0.0
C317 C 0.49044 0.56864 0.57576 0.0
C318 C 0.43921 0.5137 0.52417 0.0
Zn319 Zn 0.03576 0.56972 0.97788 0.0
Zn320 Zn 0.98455 0.49423 0.06667 0.0
Zn321 Zn 0.01421 0.53239 0.02281 0.0
C322 C 0.05192 0.48726 0.07578 0.0
C323 C 0.96512 0.47328 0.00428 0.0
O324 O 0.99287 0.58237 0.02745 0.0
O325 O 0.00631 0.60657 0.98068 0.0
C326 C 0.08778 0.55531 0.02155 0.0
O327 O 0.05314 0.50959 0.05343 0.0
O328 O 0.02496 0.47597 0.08539 0.0
O329 O 0.95922 0.46809 0.03435 0.0
O330 O 0.98586 0.49531 0.99575 0.0
O331 O 0.0793 0.57412 0.9985 0.0
O332 O 0.06707 0.53491 0.03358 0.0
O333 O 0.00751 0.50972 0.97341 0.0
O334 O 0.03199 0.54311 0.93857 0.0
C335 C 0.01726 0.51686 0.94405 0.0
O336 O 0.98038 0.56237 0.05248 0.0
O337 O 0.96277 0.52908 0.09156 0.0
C338 C 0.99131 0.60689 0.00764 0.0
C339 C 0.9638 0.55703 0.07892 0.0
H340 H 0.14835 0.22222 0.37629 0.0
H341 H 0.19294 0.13717 0.33556 0.0
H342 H 0.11737 0.18812 0.41464 0.0
H343 H 0.16191 0.10323 0.37328 0.0
H344 H 0.12907 0.05107 0.46349 0.0
H345 H 0.15993 0.08957 0.43027 0.0
H346 H 0.07381 0.1481 0.41832 0.0
H347 H 0.04306 0.10955 0.45226 0.0
C348 C 0.15129 0.19624 0.3753 0.0
C349 C 0.17334 0.18243 0.35306 0.0
C350 C 0.13356 0.1767 0.39729 0.0
C351 C 0.13742 0.14291 0.39743 0.0
C352 C 0.15893 0.12918 0.37459 0.0
C353 C 0.17668 0.14865 0.35281 0.0
C354 C 0.11685 0.07241 0.45415 0.0
C355 C 0.0837 0.07737 0.46057 0.0
C356 C 0.13446 0.09438 0.43486 0.0
C357 C 0.11927 0.1217 0.42103 0.0
C358 C 0.08637 0.12743 0.42866 0.0
C359 C 0.06874 0.10542 0.4482 0.0
H360 H 0.42649 0.86596 0.82069 0.0
H361 H 0.33042 0.88719 0.85769 0.0
H362 H 0.45056 0.89299 0.86757 0.0
H363 H 0.35451 0.91208 0.90589 0.0
H364 H 0.40725 1.00056 0.94929 0.0
H365 H 0.38064 0.96217 0.91338 0.0
H366 H 0.4621 0.89708 0.92439 0.0
H367 H 0.48971 0.93695 0.95861 0.0
C368 C 0.41046 0.87594 0.8391 0.0
C369 C 0.37648 0.87508 0.83491 0.0
C370 C 0.42431 0.89099 0.86637 0.0
C371 C 0.40451 0.9052 0.89038 0.0
C372 C 0.37052 0.90205 0.8875 0.0
C373 C 0.35666 0.88736 0.86 0.0
C374 C 0.41931 0.97788 0.94434 0.0
C375 C 0.45043 0.97161 0.95702 0.0
C376 C 0.40387 0.9556 0.92403 0.0
C377 C 0.41912 0.92636 0.91594 0.0
C378 C 0.44973 0.91946 0.92986 0.0
C379 C 0.46535 0.94201 0.94998 0.0
H380 H 0.72273 0.3798 0.65672 0.0
H381 H 0.63664 0.33397 0.69679 0.0
H382 H 0.68888 0.41281 0.62079 0.0
H383 H 0.60283 0.36587 0.65963 0.0
H384 H 0.55618 0.463 0.62659 0.0
H385 H 0.58657 0.42134 0.65604 0.0
H386 H 0.65298 0.41432 0.57403 0.0
H387 H 0.62289 0.45713 0.54527 0.0
C388 C 0.69658 0.3766 0.65774 0.0
C389 C 0.68245 0.35447 0.68001 0.0
C390 C 0.67715 0.39519 0.63671 0.0
C391 C 0.64306 0.3921 0.63729 0.0
C392 C 0.62898 0.36918 0.65877 0.0
C393 C 0.64841 0.35064 0.67989 0.0
C394 C 0.57688 0.45195 0.61469 0.0
C395 C 0.58701 0.46269 0.58359 0.0
C396 C 0.59425 0.428 0.63144 0.0
C397 C 0.62233 0.41444 0.61748 0.0
C398 C 0.6317 0.42448 0.58567 0.0
C399 C 0.61429 0.4486 0.56897 0.0
H400 H 0.84314 0.65334 0.21916 0.0
H401 H 0.86022 0.72934 0.14781 0.0
H402 H 0.87697 0.617 0.18751 0.0
H403 H 0.89477 0.69299 0.11615 0.0
H404 H 0.92524 0.60448 0.05234 0.0
H405 H 0.89368 0.64496 0.08216 0.0
H406 H 0.93234 0.60828 0.17397 0.0
H407 H 0.96323 0.56799 0.14412 0.0
C408 C 0.85451 0.66242 0.19689 0.0
C409 C 0.84918 0.6943 0.18616 0.0
C410 C 0.874 0.64159 0.17871 0.0
C411 C 0.88895 0.65211 0.14938 0.0
C412 C 0.88343 0.68397 0.13844 0.0
C413 C 0.86369 0.70482 0.15661 0.0
C414 C 0.92747 0.60575 0.0788 0.0
C415 C 0.94683 0.58342 0.09595 0.0
C416 C 0.9093 0.62876 0.09595 0.0
C417 C 0.91012 0.62967 0.13057 0.0
C418 C 0.93044 0.60785 0.14742 0.0
C419 C 0.94833 0.58488 0.13034 0.0
H420 H 0.39271 0.18649 0.22036 0.0
H421 H 0.31799 0.16922 0.1478 0.0
H422 H 0.42996 0.15176 0.18995 0.0
H423 H 0.35497 0.13479 0.11757 0.0
H424 H 0.41492 0.05399 0.08188 0.0
H425 H 0.38126 0.08317 0.12098 0.0
H426 H 0.46052 0.14998 0.13816 0.0
H427 H 0.49446 0.11984 0.09943 0.0
C428 C 0.38426 0.17543 0.19786 0.0
C429 C 0.35225 0.18056 0.18662 0.0
C430 C 0.40561 0.15549 0.18047 0.0
C431 C 0.39542 0.14017 0.15147 0.0
C432 C 0.36346 0.14549 0.14024 0.0
C433 C 0.3422 0.16534 0.15756 0.0
C434 C 0.42534 0.0744 0.09477 0.0
C435 C 0.45719 0.08464 0.08798 0.0
C436 C 0.406 0.09136 0.11686 0.0
C437 C 0.41791 0.11937 0.13223 0.0
C438 C 0.45058 0.1285 0.12684 0.0
C439 C 0.47005 0.1113 0.10474 0.0
H440 H 0.16238 0.9022 0.7185 0.0
H441 H 0.17995 0.84245 0.63387 0.0
H442 H 0.11456 0.92518 0.69124 0.0
H443 H 0.13336 0.86563 0.60649 0.0
H444 H 0.04689 0.90297 0.55991 0.0
H445 H 0.07753 0.87259 0.60103 0.0
H446 H 0.10527 0.96223 0.64765 0.0
H447 H 0.07295 0.99217 0.60749 0.0
C448 C 0.15575 0.89367 0.69429 0.0
C449 C 0.17492 0.8705 0.67835 0.0
C450 C 0.12846 0.90689 0.67861 0.0
C451 C 0.12002 0.89743 0.64654 0.0
C452 C 0.13844 0.87312 0.63141 0.0
C453 C 0.16539 0.85977 0.64714 0.0
C454 C 0.05887 0.91597 0.57956 0.0
C455 C 0.05793 0.9498 0.5805 0.0
C456 C 0.07663 0.89866 0.60298 0.0
C457 C 0.09471 0.91494 0.6272 0.0
C458 C 0.09163 0.94876 0.62953 0.0
C459 C 0.07321 0.96602 0.60645 0.0
H460 H 0.88741 0.3771 0.8295 0.0
H461 H 0.82044 0.35494 0.90838 0.0
H462 H 0.92124 0.40812 0.86755 0.0
H463 H 0.85374 0.38646 0.94608 0.0
H464 H 0.93894 0.4132 0.01196 0.0
H465 H 0.90749 0.38217 0.9723 0.0
H466 H 0.91945 0.45881 0.90056 0.0
H467 H 0.95037 0.49021 0.94062 0.0
C468 C 0.87992 0.37885 0.85494 0.0
C469 C 0.85125 0.36351 0.86592 0.0
C470 C 0.89914 0.39685 0.87664 0.0
C471 C 0.89025 0.39963 0.90986 0.0
C472 C 0.86148 0.38446 0.92074 0.0
C473 C 0.8422 0.36669 0.89904 0.0
C474 C 0.93496 0.42341 0.98769 0.0
C475 C 0.94763 0.45398 0.97926 0.0
C476 C 0.91684 0.40567 0.965 0.0
C477 C 0.91088 0.41805 0.9333 0.0
C478 C 0.92398 0.44841 0.92464 0.0
C479 C 0.94195 0.4663 0.9475 0.0
H480 H 0.68952 0.72047 0.39944 0.0
H481 H 0.6497 0.66743 0.31764 0.0
H482 H 0.65875 0.68634 0.43758 0.0
H483 H 0.61888 0.63302 0.35602 0.0
H484 H 0.54366 0.60551 0.4402 0.0
H485 H 0.57245 0.63806 0.39869 0.0
H486 H 0.66136 0.62762 0.45432 0.0
H487 H 0.63283 0.59406 0.49462 0.0
C488 C 0.67396 0.70167 0.38961 0.0
C489 C 0.67202 0.69661 0.35557 0.0
C490 C 0.65656 0.68196 0.41146 0.0
C491 C 0.63656 0.65692 0.39977 0.0
C492 C 0.63403 0.65222 0.36568 0.0
C493 C 0.65181 0.67173 0.34379 0.0
C494 C 0.5695 0.60915 0.44269 0.0
C495 C 0.58606 0.59648 0.47002 0.0
C496 C 0.58594 0.62816 0.4193 0.0
C497 C 0.61916 0.63541 0.42333 0.0
C498 C 0.63569 0.62271 0.45073 0.0
C499 C 0.61935 0.60346 0.47376 0.0
H500 H 0.20451 0.40608 0.20144 0.0
H501 H 0.16231 0.32854 0.14475 0.0
H502 H 0.17316 0.4453 0.16962 0.0
H503 H 0.13156 0.36788 0.11258 0.0
H504 H 0.09482 0.44752 0.04564 0.0
H505 H 0.13612 0.41367 0.07251 0.0
H506 H 0.1144 0.45858 0.16539 0.0
H507 H 0.07328 0.49213 0.1384 0.0
C508 C 0.18858 0.39732 0.18223 0.0
C509 C 0.18578 0.36398 0.17599 0.0
C510 C 0.17075 0.41988 0.16386 0.0
C511 C 0.14984 0.40975 0.13857 0.0
C512 C 0.14781 0.37656 0.13157 0.0
C513 C 0.16547 0.35396 0.15008 0.0
C514 C 0.09971 0.45071 0.07159 0.0
C515 C 0.08144 0.47272 0.08995 0.0
C516 C 0.12302 0.43116 0.08704 0.0
C517 C 0.12843 0.43331 0.12114 0.0
C518 C 0.11114 0.45655 0.13907 0.0
C519 C 0.08764 0.4758 0.12368 0.0
H520 H 0.68791 0.14888 0.83138 0.0
H521 H 0.68329 0.22382 0.9044 0.0
H522 H 0.65212 0.11483 0.86491 0.0
H523 H 0.64824 0.18963 0.93836 0.0
H524 H 0.55262 0.14056 0.96652 0.0
H525 H 0.59346 0.17161 0.93669 0.0
H526 H 0.64477 0.08343 0.91437 0.0
H527 H 0.60216 0.05226 0.94256 0.0
C528 C 0.67967 0.15784 0.85487 0.0
C529 C 0.6881 0.18916 0.86509 0.0
C530 C 0.65925 0.13828 0.87418 0.0
C531 C 0.64699 0.14954 0.90426 0.0
C532 C 0.65657 0.18042 0.915 0.0
C533 C 0.6767 0.20003 0.89558 0.0
C534 C 0.57271 0.12783 0.95535 0.0
C535 C 0.57473 0.09402 0.95758 0.0
C536 C 0.59637 0.14566 0.93852 0.0
C537 C 0.62276 0.13016 0.92341 0.0
C538 C 0.62481 0.09622 0.92569 0.0
C539 C 0.60087 0.07834 0.94245 0.0
H540 H 0.80509 0.88306 0.38431 0.0
H541 H 0.88425 0.86725 0.31694 0.0
H542 H 0.83924 0.92001 0.41601 0.0
H543 H 0.91911 0.90232 0.34932 0.0
H544 H 0.97205 0.98231 0.39664 0.0
H545 H 0.9314 0.95444 0.36368 0.0
H546 H 0.88251 0.92306 0.45267 0.0
H547 H 0.92227 0.95302 0.48525 0.0
C548 C 0.82993 0.88739 0.3765 0.0
C549 C 0.84207 0.8725 0.34817 0.0
C550 C 0.84961 0.90842 0.39472 0.0
C551 C 0.88209 0.91449 0.38533 0.0
C552 C 0.89408 0.89919 0.35699 0.0
C553 C 0.87422 0.87878 0.33848 0.0
C554 C 0.95217 0.96993 0.40897 0.0
C555 C 0.95017 0.9697 0.44334 0.0
C556 C 0.92903 0.95358 0.39017 0.0
C557 C 0.90391 0.93565 0.40535 0.0
C558 C 0.90124 0.93666 0.4399 0.0
C559 C 0.92406 0.95373 0.45869 0.0
H560 H 0.40737 0.71365 0.69152 0.0
H561 H 0.32388 0.68743 0.6329 0.0
H562 H 0.43731 0.66845 0.66964 0.0
H563 H 0.35361 0.64096 0.61149 0.0
H564 H 0.43588 0.59436 0.54807 0.0
H565 H 0.39674 0.62992 0.57471 0.0
H566 H 0.44427 0.61275 0.66814 0.0
H567 H 0.48432 0.57905 0.64091 0.0
C568 C 0.3951 0.69759 0.67459 0.0
C569 C 0.36327 0.70401 0.66401 0.0
C570 C 0.41224 0.67147 0.66206 0.0
C571 C 0.39789 0.65075 0.63885 0.0
C572 C 0.36558 0.6566 0.629 0.0
C573 C 0.3485 0.6831 0.64133 0.0
C574 C 0.43746 0.59792 0.57437 0.0
C575 C 0.46324 0.58455 0.59246 0.0
C576 C 0.41498 0.61812 0.58974 0.0
C577 C 0.41772 0.62486 0.62354 0.0
C578 C 0.44202 0.60905 0.64192 0.0
C579 C 0.46483 0.58954 0.62644 0.0
H580 H 0.96338 0.01509 0.80394 0.0
H581 H 1.00001 0.91859 0.7896 0.0
H582 H 0.97672 0.02893 0.74759 0.0
H583 H 0.01414 0.93268 0.73265 0.0
H584 H 0.99223 0.96464 0.62247 0.0
H585 H 0.99004 0.94537 0.67959 0.0
H586 H 0.02122 0.03968 0.71248 0.0
H587 H 0.02175 0.05897 0.65582 0.0
C588 C 0.97485 0.99695 0.78884 0.0
C589 C 0.98095 0.96586 0.8014 0.0
C590 C 0.98268 0.00492 0.75644 0.0
C591 C 0.99711 0.98213 0.73556 0.0
C592 C 0.00301 0.95082 0.74798 0.0
C593 C 0.99493 0.94275 0.78057 0.0
C594 C 0.9994 0.98085 0.64199 0.0
C595 C 0.00681 0.01333 0.63495 0.0
C596 C 0.99814 0.96988 0.67471 0.0
C597 C 0.00453 0.99125 0.70078 0.0
C598 C 0.01502 0.02285 0.69318 0.0
C599 C 0.01571 0.03386 0.66071 0.0
H600 H 0.52921 0.14904 0.26784 0.0
H601 H 0.57071 0.06044 0.30607 0.0
H602 H 0.51261 0.12055 0.21807 0.0
H603 H 0.55285 0.03218 0.25734 0.0
H604 H 0.58494 0.02408 0.14872 0.0
H605 H 0.58252 0.046 0.20361 0.0
H606 H 0.48158 0.07098 0.189 0.0
H607 H 0.48364 0.0469 0.13386 0.0
C608 C 0.5339 0.12336 0.26616 0.0
C609 C 0.55218 0.1073 0.2906 0.0
C610 C 0.52402 0.10703 0.23783 0.0
C611 C 0.53215 0.07442 0.2337 0.0
C612 C 0.54673 0.0575 0.25983 0.0
C613 C 0.55675 0.07376 0.28794 0.0
C614 C 0.56205 0.03391 0.15717 0.0
C615 C 0.53461 0.03456 0.13663 0.0
C616 C 0.56065 0.04635 0.18872 0.0
C617 C 0.53178 0.05989 0.20063 0.0
C618 C 0.50414 0.0607 0.18027 0.0
C619 C 0.50546 0.04761 0.14858 0.0
H620 H 0.52485 0.60533 0.23688 0.0
H621 H 0.42505 0.60319 0.26986 0.0
H622 H 0.54323 0.59379 0.29314 0.0
H623 H 0.44324 0.59156 0.32574 0.0
H624 H 0.4816 0.58892 0.42702 0.0
H625 H 0.4738 0.61445 0.37313 0.0
H626 H 0.53787 0.54417 0.32976 0.0
H627 H 0.54572 0.51893 0.38385 0.0
C628 C 0.50692 0.60292 0.25626 0.0
C629 C 0.47352 0.60496 0.24905 0.0
C630 C 0.51742 0.59616 0.28835 0.0
C631 C 0.4947 0.59185 0.31385 0.0
C632 C 0.46138 0.59518 0.30674 0.0
C633 C 0.45092 0.60151 0.2747 0.0
C634 C 0.49497 0.57983 0.40611 0.0
C635 C 0.51478 0.55249 0.40948 0.0
C636 C 0.49028 0.59418 0.37528 0.0
C637 C 0.50502 0.58116 0.34719 0.0
C638 C 0.52648 0.55498 0.35098 0.0
C639 C 0.53103 0.54054 0.38186 0.0
H640 H 0.05842 0.36517 0.80121 0.0
H641 H 0.09597 0.45841 0.77068 0.0
H642 H 0.02787 0.39112 0.84536 0.0
H643 H 0.06564 0.48402 0.8141 0.0
H644 H 0.00116 0.53072 0.88116 0.0
H645 H 0.01215 0.49747 0.83335 0.0
H646 H 0.04069 0.41865 0.89736 0.0
H647 H 0.0282 0.45178 0.94531 0.0
C648 C 0.06001 0.39116 0.80374 0.0
C649 C 0.07961 0.4097 0.78228 0.0
C650 C 0.04243 0.406 0.82896 0.0
C651 C 0.044 0.43967 0.83311 0.0
C652 C 0.06308 0.45814 0.81117 0.0
C653 C 0.0806 0.44339 0.78617 0.0
C654 C 0.00868 0.50588 0.88494 0.0
C655 C 0.01438 0.49388 0.91675 0.0
C656 C 0.01524 0.48692 0.85761 0.0
C657 C 0.02836 0.45581 0.86153 0.0
C658 C 0.03074 0.44258 0.89346 0.0
C659 C 0.02362 0.4615 0.92094 0.0
H660 H 0.80235 0.00862 0.0038 0.0
H661 H 0.78124 0.98528 0.90271 0.0
H662 H 0.74612 0.02492 0.01175 0.0
H663 H 0.72505 0.00274 0.91034 0.0
H664 H 0.62485 0.97747 0.96117 0.0
H665 H 0.68035 0.97801 0.9403 0.0
H666 H 0.70174 0.06197 0.99921 0.0
H667 H 0.64579 0.0609 0.02036 0.0
C668 C 0.78577 0.00734 0.98314 0.0
C669 C 0.79616 0.99508 0.9528 0.0
C670 C 0.75361 0.01721 0.98754 0.0
C671 C 0.73097 0.01507 0.9617 0.0
C672 C 0.74179 0.00443 0.93083 0.0
C673 C 0.77404 0.99459 0.92641 0.0
C674 C 0.64113 0.99676 0.96859 0.0
C675 C 0.63124 0.01927 0.99208 0.0
C676 C 0.67295 0.99714 0.95665 0.0
C677 C 0.69568 0.01981 0.96836 0.0
C678 C 0.68493 0.04394 0.99004 0.0
C679 C 0.65291 0.0436 0.00189 0.0
H680 H 0.75666 0.03954 0.3894 0.0
H681 H 0.74032 0.08788 0.48168 0.0
H682 H 0.80446 0.01292 0.41294 0.0
H683 H 0.78735 0.0615 0.50494 0.0
H684 H 0.91204 0.03179 0.45274 0.0
H685 H 0.85801 0.03362 0.42788 0.0
H686 H 0.81477 0.0137 0.52279 0.0
H687 H 0.86882 0.01307 0.5476 0.0
C688 C 0.76291 0.04408 0.41482 0.0
C689 C 0.74479 0.06609 0.43355 0.0
C690 C 0.79023 0.02879 0.42828 0.0
C691 C 0.79985 0.03513 0.46077 0.0
C692 C 0.78042 0.05548 0.48003 0.0
C693 C 0.75329 0.07074 0.46662 0.0
C694 C 0.89099 0.02667 0.46796 0.0
C695 C 0.89435 0.02273 0.50205 0.0
C696 C 0.86 0.02763 0.45376 0.0
C697 C 0.83201 0.02458 0.47353 0.0
C698 C 0.8358 0.01698 0.50706 0.0
C699 C 0.86668 0.01646 0.52125 0.0
H700 H 0.29421 0.58951 0.02632 0.0
H701 H 0.27469 0.55989 0.12648 0.0
H702 H 0.23744 0.58034 0.01223 0.0
H703 H 0.21727 0.5515 0.11243 0.0
H704 H 0.12251 0.51263 0.06042 0.0
H705 H 0.1795 0.51696 0.07743 0.0
H706 H 0.18683 0.60869 0.02653 0.0
H707 H 0.13041 0.60434 0.00991 0.0
C708 C 0.27787 0.58068 0.04527 0.0
C709 C 0.28898 0.57548 0.07754 0.0
C710 C 0.24524 0.57575 0.03727 0.0
C711 C 0.22283 0.56552 0.06131 0.0
C712 C 0.23402 0.55932 0.09339 0.0
C713 C 0.26678 0.5644 0.10147 0.0
C714 C 0.13613 0.53377 0.05335 0.0
C715 C 0.12174 0.5579 0.0338 0.0
C716 C 0.16882 0.53629 0.06297 0.0
C717 C 0.18776 0.563 0.05294 0.0
C718 C 0.17312 0.58747 0.03408 0.0
C719 C 0.14063 0.58497 0.02465 0.0
H720 H 0.24446 0.466 0.58695 0.0
H721 H 0.30753 0.45063 0.67086 0.0
H722 H 0.2858 0.49882 0.56138 0.0
H723 H 0.35065 0.47894 0.64288 0.0
H724 H 0.42982 0.52674 0.58979 0.0
H725 H 0.38 0.51933 0.62108 0.0
H726 H 0.3302 0.49115 0.53179 0.0
H727 H 0.37851 0.50266 0.50068 0.0
C728 C 0.26698 0.46947 0.60023 0.0
C729 C 0.2725 0.4544 0.63089 0.0
C730 C 0.29131 0.48792 0.58497 0.0
C731 C 0.32252 0.49075 0.59908 0.0
C732 C 0.32729 0.47755 0.63072 0.0
C733 C 0.3025 0.46027 0.6466 0.0
C734 C 0.40773 0.52074 0.57673 0.0
C735 C 0.40822 0.51554 0.54268 0.0
C736 C 0.37915 0.51551 0.59482 0.0
C737 C 0.35071 0.50367 0.57947 0.0
C738 C 0.35096 0.50055 0.54501 0.0
C739 C 0.3791 0.50681 0.52694 0.0
H740 H 0.99552 0.80383 0.99976 0.0
H741 H 0.89117 0.79185 0.99214 0.0
H742 H 1.00063 0.74757 0.01631 0.0
H743 H 0.89676 0.73489 0.00737 0.0
H744 H 0.00251 0.64809 0.0583 0.0
H745 H 0.98508 0.7048 0.06017 0.0
H746 H 0.92397 0.68917 0.97534 0.0
H747 H 0.94188 0.63307 0.97325 0.0
C748 C 0.97353 0.78952 0.00223 0.0
C749 C 0.94291 0.80264 0.99432 0.0
C750 C 0.97652 0.75715 0.01179 0.0
C751 C 0.94908 0.73685 0.01328 0.0
C752 C 0.91834 0.74999 0.00636 0.0
C753 C 0.91525 0.78257 0.99726 0.0
C754 C 0.98437 0.6566 0.04097 0.0
C755 C 0.97339 0.63644 0.01569 0.0
C756 C 0.97462 0.68901 0.04183 0.0
C757 C 0.95342 0.70145 0.01769 0.0
C758 C 0.94012 0.68028 0.99439 0.0
C759 C 0.95033 0.64817 0.99319 0.0
H760 H 0.42148 0.77685 0.0961 0.0
H761 H 0.45887 0.74059 0.00429 0.0
H762 H 0.43335 0.83191 0.07804 0.0
H763 H 0.47135 0.79579 0.98661 0.0
H764 H 0.54073 0.88511 0.0083 0.0
H765 H 0.51428 0.8324 0.00956 0.0
H766 H 0.42352 0.87738 0.03637 0.0
H767 H 0.45032 0.93067 0.03459 0.0
C768 C 0.43148 0.7806 0.07175 0.0
C769 C 0.43969 0.75417 0.05189 0.0
C770 C 0.43819 0.81224 0.06135 0.0
C771 C 0.45343 0.81815 0.03097 0.0
C772 C 0.45989 0.79191 0.01029 0.0
C773 C 0.45298 0.7603 0.02057 0.0
C774 C 0.51488 0.8838 0.01343 0.0
C775 C 0.49753 0.91175 0.02152 0.0
C776 C 0.49967 0.85365 0.01403 0.0
C777 C 0.46688 0.85072 0.02334 0.0
C778 C 0.44889 0.87896 0.02933 0.0
C779 C 0.46409 0.90938 0.02812 0.0
H780 H 0.15307 0.26005 0.54843 0.0
H781 H 0.064 0.27987 0.60081 0.0
H782 H 0.12536 0.21712 0.51818 0.0
H783 H 0.03655 0.23756 0.5707 0.0
H784 H 0.98674 0.16649 0.51176 0.0
H785 H 0.0163 0.21713 0.51936 0.0
H786 H 0.10526 0.16366 0.53434 0.0
H787 H 0.07572 0.11317 0.52599 0.0
C788 C 0.12751 0.25557 0.5532 0.0
C789 C 0.11085 0.27329 0.57729 0.0
C790 C 0.11165 0.23103 0.53581 0.0
C791 C 0.07876 0.2238 0.54203 0.0
C792 C 0.06172 0.24278 0.56476 0.0
C793 C 0.07754 0.26716 0.58214 0.0
C794 C 0.01282 0.1657 0.51559 0.0
C795 C 0.02892 0.13596 0.51857 0.0
C796 C 0.02972 0.19466 0.52015 0.0
C797 C 0.06298 0.19443 0.52827 0.0
C798 C 0.07968 0.16479 0.52805 0.0
C799 C 0.06277 0.13578 0.52324 0.0
H800 H 0.55649 0.25688 0.46105 0.0
H801 H 0.65087 0.2774 0.50318 0.0
H802 H 0.53488 0.30513 0.48574 0.0
H803 H 0.62902 0.32641 0.52795 0.0
H804 H 0.49613 0.38938 0.53317 0.0
H805 H 0.5206 0.33567 0.53355 0.0
H806 H 0.61228 0.37768 0.50279 0.0
H807 H 0.58767 0.43131 0.50316 0.0
C808 C 0.57243 0.27108 0.47653 0.0
C809 C 0.60552 0.26336 0.47983 0.0
C810 C 0.55997 0.29891 0.49079 0.0
C811 C 0.58028 0.31979 0.5087 0.0
C812 C 0.61289 0.31102 0.5139 0.0
C813 C 0.62538 0.28301 0.49966 0.0
C814 C 0.52179 0.38706 0.52759 0.0
C815 C 0.54021 0.4142 0.51827 0.0
C816 C 0.53577 0.3564 0.52766 0.0
C817 C 0.56823 0.35233 0.51766 0.0
C818 C 0.58731 0.37994 0.51092 0.0
C819 C 0.57332 0.41068 0.51115 0.0
loop_
_geom_bond_atom_site_label_1
_geom_bond_atom_site_label_2
_geom_bond_distance
_geom_bond_site_symmetry_2
_ccdc_geom_bond_type
P0 O11 1.490 . S
P0 C14 1.812 . S
P0 C20 1.803 . S
P0 C26 1.819 . S
H1 C15 0.941 . S
H2 C16 0.939 . S
H3 C18 0.940 . S
H4 C19 0.940 . S
H5 C21 0.939 . S
H6 C22 0.942 . S
H7 C24 0.940 . S
H8 C25 0.939 . S
H9 C27 0.941 . S
H10 C31 0.939 . S
O11 P0 1.490 . S
H12 C28 0.939 . S
H13 C30 0.940 . S
C14 P0 1.812 . S
C14 C15 1.389 . S
C14 C19 1.391 . S
C15 H1 0.941 . S
C15 C14 1.389 . S
C15 C16 1.397 . S
C16 H2 0.939 . S
C16 C15 1.397 . S
C16 C17 1.378 . S
C17 C16 1.378 . S
C17 C18 1.378 . S
C18 H3 0.940 . S
C18 C17 1.378 . S
C18 C19 1.396 . S
C19 H4 0.940 . S
C19 C14 1.391 . S
C19 C18 1.396 . S
C20 P0 1.803 . S
C20 C21 1.378 . S
C20 C25 1.400 . S
C21 H5 0.939 . S
C21 C20 1.378 . S
C21 C22 1.361 . S
C22 H6 0.942 . S
C22 C21 1.361 . S
C22 C23 1.369 . S
C23 C22 1.369 . S
C23 C24 1.404 . S
C24 H7 0.940 . S
C24 C23 1.404 . S
C24 C25 1.389 . S
C25 H8 0.939 . S
C25 C20 1.400 . S
C25 C24 1.389 . S
C26 P0 1.819 . S
C26 C27 1.391 . S
C26 C31 1.391 . S
C27 H9 0.941 . S
C27 C26 1.391 . S
C27 C28 1.396 . S
C28 H12 0.939 . S
C28 C27 1.396 . S
C28 C29 1.397 . S
C29 C28 1.397 . S
C29 C30 1.385 . S
C30 H13 0.940 . S
C30 C29 1.385 . S
C30 C31 1.388 . S
C31 H10 0.939 . S
C31 C26 1.391 . S
C31 C30 1.388 . S
P32 O43 1.490 . S
P32 C46 1.812 . S
P32 C52 1.803 . S
P32 C58 1.819 . S
H33 C47 0.941 . S
H34 C48 0.939 . S
H35 C50 0.940 . S
H36 C51 0.940 . S
H37 C53 0.939 . S
H38 C54 0.942 . S
H39 C56 0.940 . S
H40 C57 0.939 . S
H41 C59 0.941 . S
H42 C63 0.939 . S
O43 P32 1.490 . S
H44 C60 0.939 . S
H45 C62 0.940 . S
C46 P32 1.812 . S
C46 C47 1.389 . S
C46 C51 1.391 . S
C47 H33 0.941 . S
C47 C46 1.389 . S
C47 C48 1.397 . S
C48 H34 0.939 . S
C48 C47 1.397 . S
C48 C49 1.378 . S
C49 C48 1.378 . S
C49 C50 1.378 . S
C50 H35 0.940 . S
C50 C49 1.378 . S
C50 C51 1.396 . S
C51 H36 0.940 . S
C51 C46 1.391 . S
C51 C50 1.396 . S
C52 P32 1.803 . S
C52 C53 1.378 . S
C52 C57 1.400 . S
C53 H37 0.939 . S
C53 C52 1.378 . S
C53 C54 1.361 . S
C54 H38 0.942 . S
C54 C53 1.361 . S
C54 C55 1.369 . S
C55 C54 1.369 . S
C55 C56 1.404 . S
C56 H39 0.940 . S
C56 C55 1.404 . S
C56 C57 1.389 . S
C57 H40 0.939 . S
C57 C52 1.400 . S
C57 C56 1.389 . S
C58 P32 1.819 . S
C58 C59 1.391 . S
C58 C63 1.391 . S
C59 H41 0.941 . S
C59 C58 1.391 . S
C59 C60 1.396 . S
C60 H44 0.939 . S
C60 C59 1.396 . S
C60 C61 1.397 . S
C61 C60 1.397 . S
C61 C62 1.385 . S
C62 H45 0.940 . S
C62 C61 1.385 . S
C62 C63 1.388 . S
C63 H42 0.939 . S
C63 C58 1.391 . S
C63 C62 1.388 . S
P64 O75 1.490 . S
P64 C78 1.812 . S
P64 C84 1.803 . S
P64 C90 1.819 . S
H65 C79 0.941 . S
H66 C80 0.939 . S
H67 C82 0.940 . S
H68 C83 0.940 . S
H69 C85 0.939 . S
H70 C86 0.942 . S
H71 C88 0.940 . S
H72 C89 0.939 . S
H73 C91 0.941 . S
H74 C95 0.939 . S
O75 P64 1.490 . S
H76 C92 0.939 . S
H77 C94 0.940 . S
C78 P64 1.812 . S
C78 C79 1.389 . S
C78 C83 1.391 . S
C79 H65 0.941 . S
C79 C78 1.389 . S
C79 C80 1.397 . S
C80 H66 0.939 . S
C80 C79 1.397 . S
C80 C81 1.378 . S
C81 C80 1.378 . S
C81 C82 1.378 . S
C82 H67 0.940 . S
C82 C81 1.378 . S
C82 C83 1.396 . S
C83 H68 0.940 . S
C83 C78 1.391 . S
C83 C82 1.396 . S
C84 P64 1.803 . S
C84 C85 1.378 . S
C84 C89 1.400 . S
C85 H69 0.939 . S
C85 C84 1.378 . S
C85 C86 1.361 . S
C86 H70 0.942 . S
C86 C85 1.361 . S
C86 C87 1.369 . S
C87 C86 1.369 . S
C87 C88 1.404 . S
C88 H71 0.940 . S
C88 C87 1.404 . S
C88 C89 1.389 . S
C89 H72 0.939 . S
C89 C84 1.400 . S
C89 C88 1.389 . S
C90 P64 1.819 . S
C90 C91 1.391 . S
C90 C95 1.391 . S
C91 H73 0.941 . S
C91 C90 1.391 . S
C91 C92 1.396 . S
C92 H76 0.939 . S
C92 C91 1.396 . S
C92 C93 1.397 . S
C93 C92 1.397 . S
C93 C94 1.385 . S
C94 H77 0.940 . S
C94 C93 1.385 . S
C94 C95 1.388 . S
C95 H74 0.939 . S
C95 C90 1.391 . S
C95 C94 1.388 . S
P96 O107 1.490 . S
P96 C110 1.812 . S
P96 C116 1.803 . S
P96 C122 1.819 . S
H97 C111 0.941 . S
H98 C112 0.939 . S
H99 C114 0.940 . S
H100 C115 0.940 . S
H101 C117 0.939 . S
H102 C118 0.942 . S
H103 C120 0.940 . S
H104 C121 0.939 . S
H105 C123 0.941 . S
H106 C127 0.939 . S
O107 P96 1.490 . S
H108 C124 0.939 . S
H109 C126 0.940 . S
C110 P96 1.812 . S
C110 C111 1.389 . S
C110 C115 1.391 . S
C111 H97 0.941 . S
C111 C110 1.389 . S
C111 C112 1.397 . S
C112 H98 0.939 . S
C112 C111 1.397 . S
C112 C113 1.378 . S
C113 C112 1.378 . S
C113 C114 1.378 . S
C114 H99 0.940 . S
C114 C113 1.378 . S
C114 C115 1.396 . S
C115 H100 0.940 . S
C115 C110 1.391 . S
C115 C114 1.396 . S
C116 P96 1.803 . S
C116 C117 1.378 . S
C116 C121 1.400 . S
C117 H101 0.939 . S
C117 C116 1.378 . S
C117 C118 1.361 . S
C118 H102 0.942 . S
C118 C117 1.361 . S
C118 C119 1.369 . S
C119 C118 1.369 . S
C119 C120 1.404 . S
C120 H103 0.940 . S
C120 C119 1.404 . S
C120 C121 1.389 . S
C121 H104 0.939 . S
C121 C116 1.400 . S
C121 C120 1.389 . S
C122 P96 1.819 . S
C122 C123 1.391 . S
C122 C127 1.391 . S
C123 H105 0.941 . S
C123 C122 1.391 . S
C123 C124 1.396 . S
C124 H108 0.939 . S
C124 C123 1.396 . S
C124 C125 1.397 . S
C125 C124 1.397 . S
C125 C126 1.385 . S
C126 H109 0.940 . S
C126 C125 1.385 . S
C126 C127 1.388 . S
C127 H106 0.939 . S
C127 C122 1.391 . S
C127 C126 1.388 . S
P128 O139 1.490 . S
P128 C142 1.812 . S
P128 C148 1.803 . S
P128 C154 1.819 . S
H129 C143 0.941 . S
H130 C144 0.939 . S
H131 C146 0.940 . S
H132 C147 0.940 . S
H133 C149 0.939 1_455 S
H134 C150 0.954 . S
H135 C152 0.940 . S
H136 C153 0.939 . S
H137 C155 0.916 1_545 S
H138 C159 0.939 . S
O139 P128 1.490 . S
H140 C156 0.939 . S
H141 C158 0.940 . S
C142 P128 1.812 . S
C142 C143 1.389 1_556 S
C142 C147 1.391 . S
C143 H129 0.941 . S
C143 C142 1.389 1_554 S
C143 C144 1.397 . S
C144 H130 0.939 . S
C144 C143 1.397 . S
C144 C145 1.378 1_554 S
C145 C144 1.378 1_556 S
C145 C146 1.378 . S
C146 H131 0.940 . S
C146 C145 1.378 . S
C146 C147 1.396 . S
C147 H132 0.940 . S
C147 C142 1.391 . S
C147 C146 1.396 . S
C148 P128 1.803 . S
C148 C149 1.378 . S
C148 C153 1.400 . S
C149 H133 0.939 1_655 S
C149 C148 1.378 . S
C149 C150 1.357 1_655 S
C150 H134 0.954 . S
C150 C149 1.357 1_455 S
C150 C151 1.360 1_455 S
C151 C150 1.360 1_655 S
C151 C152 1.404 . S
C152 H135 0.940 . S
C152 C151 1.404 . S
C152 C153 1.389 . S
C153 H136 0.939 . S
C153 C148 1.400 . S
C153 C152 1.389 . S
C154 P128 1.819 . S
C154 C155 1.426 . S
C154 C159 1.391 . S
C155 H137 0.916 1_565 S
C155 C154 1.426 . S
C155 C156 1.388 1_565 S
C156 H140 0.939 . S
C156 C155 1.388 1_545 S
C156 C157 1.397 1_545 S
C157 C156 1.397 1_565 S
C157 C158 1.385 . S
C158 H141 0.940 . S
C158 C157 1.385 . S
C158 C159 1.388 . S
C159 H138 0.939 . S
C159 C154 1.391 . S
C159 C158 1.388 . S
P160 O171 1.490 . S
P160 C174 1.812 . S
P160 C180 1.803 . S
P160 C186 1.819 . S
H161 C175 0.941 . S
H162 C176 0.939 . S
H163 C178 0.940 . S
H164 C179 0.940 . S
H165 C181 0.939 . S
H166 C182 0.942 . S
H167 C184 0.940 . S
H168 C185 0.939 . S
H169 C187 0.941 . S
H170 C191 0.939 . S
O171 P160 1.490 . S
H172 C188 0.939 . S
H173 C190 0.940 . S
C174 P160 1.812 . S
C174 C175 1.389 . S
C174 C179 1.391 . S
C175 H161 0.941 . S
C175 C174 1.389 . S
C175 C176 1.397 . S
C176 H162 0.939 . S
C176 C175 1.397 . S
C176 C177 1.378 . S
C177 C176 1.378 . S
C177 C178 1.378 . S
C178 H163 0.940 . S
C178 C177 1.378 . S
C178 C179 1.396 . S
C179 H164 0.940 . S
C179 C174 1.391 . S
C179 C178 1.396 . S
C180 P160 1.803 . S
C180 C181 1.378 . S
C180 C185 1.400 . S
C181 H165 0.939 . S
C181 C180 1.378 . S
C181 C182 1.361 . S
C182 H166 0.942 . S
C182 C181 1.361 . S
C182 C183 1.369 . S
C183 C182 1.369 . S
C183 C184 1.404 . S
C184 H167 0.940 . S
C184 C183 1.404 . S
C184 C185 1.389 . S
C185 H168 0.939 . S
C185 C180 1.400 . S
C185 C184 1.389 . S
C186 P160 1.819 . S
C186 C187 1.391 . S
C186 C191 1.391 . S
C187 H169 0.941 . S
C187 C186 1.391 . S
C187 C188 1.396 . S
C188 H172 0.939 . S
C188 C187 1.396 . S
C188 C189 1.397 . S
C189 C188 1.397 . S
C189 C190 1.385 . S
C190 H173 0.940 . S
C190 C189 1.385 . S
C190 C191 1.388 . S
C191 H170 0.939 . S
C191 C186 1.391 . S
C191 C190 1.388 . S
P192 O203 1.490 . S
P192 C206 1.812 . S
P192 C212 1.803 . S
P192 C218 1.819 . S
H193 C207 0.941 . S
H194 C208 0.939 . S
H195 C210 0.940 . S
H196 C211 0.940 . S
H197 C213 0.939 . S
H198 C214 0.942 . S
H199 C216 0.940 . S
H200 C217 0.939 . S
H201 C219 0.941 . S
H202 C223 0.939 . S
O203 P192 1.490 . S
H204 C220 0.939 . S
H205 C222 0.940 . S
C206 P192 1.812 . S
C206 C207 1.389 . S
C206 C211 1.391 . S
C207 H193 0.941 . S
C207 C206 1.389 . S
C207 C208 1.397 . S
C208 H194 0.939 . S
C208 C207 1.397 . S
C208 C209 1.378 . S
C209 C208 1.378 . S
C209 C210 1.378 . S
C210 H195 0.940 . S
C210 C209 1.378 . S
C210 C211 1.396 . S
C211 H196 0.940 . S
C211 C206 1.391 . S
C211 C210 1.396 . S
C212 P192 1.803 . S
C212 C213 1.378 . S
C212 C217 1.400 . S
C213 H197 0.939 . S
C213 C212 1.378 . S
C213 C214 1.361 . S
C214 H198 0.942 . S
C214 C213 1.361 . S
C214 C215 1.369 . S
C215 C214 1.369 . S
C215 C216 1.404 . S
C216 H199 0.940 . S
C216 C215 1.404 . S
C216 C217 1.389 . S
C217 H200 0.939 . S
C217 C212 1.400 . S
C217 C216 1.389 . S
C218 P192 1.819 . S
C218 C219 1.391 . S
C218 C223 1.391 . S
C219 H201 0.941 . S
C219 C218 1.391 . S
C219 C220 1.396 . S
C220 H204 0.939 . S
C220 C219 1.396 . S
C220 C221 1.397 . S
C221 C220 1.397 . S
C221 C222 1.385 . S
C222 H205 0.940 . S
C222 C221 1.385 . S
C222 C223 1.388 . S
C223 H202 0.939 . S
C223 C218 1.391 . S
C223 C222 1.388 . S
P224 O235 1.490 . S
P224 C238 1.812 . S
P224 C244 1.803 . S
P224 C250 1.819 . S
H225 C239 0.941 . S
H226 C240 0.939 . S
H227 C242 0.940 . S
H228 C243 0.940 . S
H229 C245 0.939 . S
H230 C246 0.942 . S
H231 C248 0.940 . S
H232 C249 0.939 . S
H233 C251 0.941 . S
H234 C255 0.939 . S
O235 P224 1.490 . S
H236 C252 0.939 . S
H237 C254 0.940 . S
C238 P224 1.812 . S
C238 C239 1.389 . S
C238 C243 1.391 . S
C239 H225 0.941 . S
C239 C238 1.389 . S
C239 C240 1.397 . S
C240 H226 0.939 . S
C240 C239 1.397 . S
C240 C241 1.378 . S
C241 C240 1.378 . S
C241 C242 1.378 . S
C242 H227 0.940 . S
C242 C241 1.378 . S
C242 C243 1.396 . S
C243 H228 0.940 . S
C243 C238 1.391 . S
C243 C242 1.396 . S
C244 P224 1.803 . S
C244 C245 1.378 . S
C244 C249 1.400 . S
C245 H229 0.939 . S
C245 C244 1.378 . S
C245 C246 1.361 . S
C246 H230 0.942 . S
C246 C245 1.361 . S
C246 C247 1.369 . S
C247 C246 1.369 . S
C247 C248 1.404 . S
C248 H231 0.940 . S
C248 C247 1.404 . S
C248 C249 1.389 . S
C249 H232 0.939 . S
C249 C244 1.400 . S
C249 C248 1.389 . S
C250 P224 1.819 . S
C250 C251 1.391 . S
C250 C255 1.391 . S
C251 H233 0.941 . S
C251 C250 1.391 . S
C251 C252 1.396 . S
C252 H236 0.939 . S
C252 C251 1.396 . S
C252 C253 1.397 . S
C253 C252 1.397 . S
C253 C254 1.385 . S
C254 H237 0.940 . S
C254 C253 1.385 . S
C254 C255 1.388 . S
C255 H234 0.939 . S
C255 C250 1.391 . S
C255 C254 1.388 . S
Zn256 O262 1.920 . S
Zn256 O268 1.898 . S
Zn256 O271 1.905 . S
Zn257 O265 1.905 1_565 S
Zn257 O266 1.898 . S
Zn257 O274 1.920 . S
Zn258 O261 2.080 1_455 S
Zn258 O264 2.114 . S
Zn258 O267 2.120 1_445 S
Zn258 O269 2.120 . S
Zn258 O270 2.114 1_455 S
Zn258 O273 2.080 . S
C259 O264 1.166 . S
C259 O265 1.182 . S
C260 O266 1.167 1_655 S
C260 O267 1.299 . S
O261 Zn258 2.080 1_655 S
O261 C275 1.305 . S
O262 Zn256 1.920 . S
O262 C275 1.234 . S
C263 O268 1.167 1_455 S
C263 O269 1.299 . S
O264 Zn258 2.114 . S
O264 C259 1.166 . S
O265 Zn257 1.905 1_545 S
O265 C259 1.182 . S
O266 Zn257 1.898 . S
O266 C260 1.167 1_455 S
O267 Zn258 2.120 1_665 S
O267 C260 1.299 . S
O268 Zn256 1.898 . S
O268 C263 1.167 1_655 S
O269 Zn258 2.120 . S
O269 C263 1.299 . S
O270 Zn258 2.114 1_655 S
O270 C272 1.166 . S
O271 Zn256 1.905 . S
O271 C272 1.182 . S
C272 O270 1.166 . S
C272 O271 1.182 . S
O273 Zn258 2.080 . S
O273 C276 1.305 1_545 S
O274 Zn257 1.920 . S
O274 C276 1.234 . S
C275 O261 1.305 . S
C275 O262 1.234 . S
C276 O273 1.305 1_565 S
C276 O274 1.234 . S
Zn277 O283 1.920 1_556 S
Zn277 O289 1.898 . S
Zn277 O292 1.905 . S
Zn278 O286 1.905 . S
Zn278 O287 1.898 . S
Zn278 O295 1.920 . S
Zn279 O282 2.080 . S
Zn279 O285 2.114 1_545 S
Zn279 O288 2.120 1_545 S
Zn279 O290 2.120 . S
Zn279 O291 2.117 1_554 S
Zn279 O294 2.080 . S
C280 O285 1.166 . S
C280 O286 1.182 . S
C281 O287 1.167 . S
C281 O288 1.299 . S
O282 Zn279 2.080 . S
O282 C296 1.305 . S
O283 Zn277 1.920 1_554 S
O283 C296 1.234 . S
C284 O289 1.167 . S
C284 O290 1.299 1_556 S
O285 Zn279 2.114 1_565 S
O285 C280 1.166 . S
O286 Zn278 1.905 . S
O286 C280 1.182 . S
O287 Zn278 1.898 . S
O287 C281 1.167 . S
O288 Zn279 2.120 1_565 S
O288 C281 1.299 . S
O289 Zn277 1.898 . S
O289 C284 1.167 . S
O290 Zn279 2.120 . S
O290 C284 1.299 1_554 S
O291 Zn279 2.117 1_556 S
O291 C293 1.166 . S
O292 Zn277 1.905 . S
O292 C293 1.205 . S
C293 O291 1.166 . S
C293 O292 1.205 . S
O294 Zn279 2.080 . S
O294 C297 1.305 . S
O295 Zn278 1.920 . S
O295 C297 1.234 1_565 S
C296 O282 1.305 . S
C296 O283 1.234 . S
C297 O294 1.305 . S
C297 O295 1.234 1_545 S
Zn298 O304 1.920 . S
Zn298 O310 1.898 . S
Zn298 O313 1.905 . S
Zn299 O307 1.905 . S
Zn299 O308 1.898 . S
Zn299 O316 1.920 . S
Zn300 O303 2.080 . S
Zn300 O306 2.114 . S
Zn300 O309 2.120 . S
Zn300 O311 2.120 . S
Zn300 O312 2.114 . S
Zn300 O315 2.080 . S
C301 O306 1.166 . S
C301 O307 1.182 . S
C302 O308 1.167 . S
C302 O309 1.299 . S
O303 Zn300 2.080 . S
O303 C317 1.305 . S
O304 Zn298 1.920 . S
O304 C317 1.234 . S
C305 O310 1.167 . S
C305 O311 1.299 . S
O306 Zn300 2.114 . S
O306 C301 1.166 . S
O307 Zn299 1.905 . S
O307 C301 1.182 . S
O308 Zn299 1.898 . S
O308 C302 1.167 . S
O309 Zn300 2.120 . S
O309 C302 1.299 . S
O310 Zn298 1.898 . S
O310 C305 1.167 . S
O311 Zn300 2.120 . S
O311 C305 1.299 . S
O312 Zn300 2.114 . S
O312 C314 1.166 . S
O313 Zn298 1.905 . S
O313 C314 1.182 . S
C314 O312 1.166 . S
C314 O313 1.182 . S
O315 Zn300 2.080 . S
O315 C318 1.305 . S
O316 Zn299 1.920 . S
O316 C318 1.234 . S
C317 O303 1.305 . S
C317 O304 1.234 . S
C318 O315 1.305 . S
C318 O316 1.234 . S
Zn319 O325 1.920 . S
Zn319 O331 1.898 . S
Zn319 O334 1.905 . S
Zn320 O328 1.905 1_655 S
Zn320 O329 1.898 . S
Zn320 O337 1.920 . S
Zn321 O324 2.080 1_554 S
Zn321 O327 2.114 . S
Zn321 O330 2.120 1_454 S
Zn321 O332 2.120 . S
Zn321 O333 2.114 1_554 S
Zn321 O336 2.080 . S
C322 O327 1.166 . S
C322 O328 1.182 . S
C323 O329 1.167 1_556 S
C323 O330 1.299 . S
O324 Zn321 2.080 1_556 S
O324 C338 1.305 . S
O325 Zn319 1.920 . S
O325 C338 1.234 . S
C326 O331 1.167 1_554 S
C326 O332 1.299 . S
O327 Zn321 2.114 . S
O327 C322 1.166 . S
O328 Zn320 1.905 1_455 S
O328 C322 1.182 . S
O329 Zn320 1.898 . S
O329 C323 1.167 1_554 S
O330 Zn321 2.120 1_656 S
O330 C323 1.299 . S
O331 Zn319 1.898 . S
O331 C326 1.167 1_556 S
O332 Zn321 2.120 . S
O332 C326 1.299 . S
O333 Zn321 2.114 1_556 S
O333 C335 1.166 . S
O334 Zn319 1.905 . S
O334 C335 1.182 . S
C335 O333 1.166 . S
C335 O334 1.182 . S
O336 Zn321 2.080 . S
O336 C339 1.305 1_455 S
O337 Zn320 1.920 . S
O337 C339 1.234 . S
C338 O324 1.305 . S
C338 O325 1.234 . S
C339 O336 1.305 1_655 S
C339 O337 1.234 . S
H340 C348 0.950 . S
H341 C353 0.950 . S
H342 C350 0.950 . S
H343 C352 0.950 . S
H344 C354 0.950 . S
H345 C356 0.950 . S
H346 C358 0.950 . S
H347 C359 0.950 . S
C348 H340 0.950 . S
C348 C349 1.386 . S
C348 C350 1.391 . S
C349 C348 1.386 . S
C349 C353 1.393 . S
C350 H342 0.950 . S
C350 C348 1.391 . S
C350 C351 1.400 . S
C351 C350 1.400 . S
C351 C352 1.398 . S
C351 C357 1.491 . S
C352 H343 0.950 . S
C352 C351 1.398 . S
C352 C353 1.391 . S
C353 H341 0.950 . S
C353 C349 1.393 . S
C353 C352 1.391 . S
C354 H344 0.950 . S
C354 C355 1.386 . S
C354 C356 1.391 . S
C355 C354 1.386 . S
C355 C359 1.393 . S
C356 H345 0.950 . S
C356 C354 1.391 . S
C356 C357 1.400 . S
C357 C351 1.491 . S
C357 C356 1.400 . S
C357 C358 1.398 . S
C358 H346 0.950 . S
C358 C357 1.398 . S
C358 C359 1.391 . S
C359 H347 0.950 . S
C359 C355 1.393 . S
C359 C358 1.391 . S
H360 C368 0.950 . S
H361 C373 0.950 . S
H362 C370 0.950 . S
H363 C372 0.950 . S
H364 C374 0.950 1_545 S
H365 C376 0.950 . S
H366 C378 0.950 . S
H367 C379 0.950 . S
C368 H360 0.950 . S
C368 C369 1.386 . S
C368 C370 1.391 . S
C369 C368 1.386 . S
C369 C373 1.393 . S
C370 H362 0.950 . S
C370 C368 1.391 . S
C370 C371 1.400 . S
C371 C370 1.400 . S
C371 C372 1.398 . S
C371 C377 1.491 . S
C372 H363 0.950 . S
C372 C371 1.398 . S
C372 C373 1.391 . S
C373 H361 0.950 . S
C373 C369 1.393 . S
C373 C372 1.391 . S
C374 H364 0.950 1_565 S
C374 C375 1.386 . S
C374 C376 1.391 . S
C375 C374 1.386 . S
C375 C379 1.393 . S
C376 H365 0.950 . S
C376 C374 1.391 . S
C376 C377 1.400 . S
C377 C371 1.491 . S
C377 C376 1.400 . S
C377 C378 1.398 . S
C378 H366 0.950 . S
C378 C377 1.398 . S
C378 C379 1.391 . S
C379 H367 0.950 . S
C379 C375 1.393 . S
C379 C378 1.391 . S
H380 C388 0.950 . S
H381 C393 0.950 . S
H382 C390 0.950 . S
H383 C392 0.950 . S
H384 C394 0.950 . S
H385 C396 0.950 . S
H386 C398 0.950 . S
H387 C399 0.950 . S
C388 H380 0.950 . S
C388 C389 1.386 . S
C388 C390 1.391 . S
C389 C388 1.386 . S
C389 C393 1.393 . S
C390 H382 0.950 . S
C390 C388 1.391 . S
C390 C391 1.400 . S
C391 C390 1.400 . S
C391 C392 1.398 . S
C391 C397 1.491 . S
C392 H383 0.950 . S
C392 C391 1.398 . S
C392 C393 1.391 . S
C393 H381 0.950 . S
C393 C389 1.393 . S
C393 C392 1.391 . S
C394 H384 0.950 . S
C394 C395 1.386 . S
C394 C396 1.391 . S
C395 C394 1.386 . S
C395 C399 1.393 . S
C396 H385 0.950 . S
C396 C394 1.391 . S
C396 C397 1.400 . S
C397 C391 1.491 . S
C397 C396 1.400 . S
C397 C398 1.398 . S
C398 H386 0.950 . S
C398 C397 1.398 . S
C398 C399 1.391 . S
C399 H387 0.950 . S
C399 C395 1.393 . S
C399 C398 1.391 . S
H400 C408 0.950 . S
H401 C413 0.950 . S
H402 C410 0.950 . S
H403 C412 0.950 . S
H404 C414 0.950 . S
H405 C416 0.950 . S
H406 C418 0.950 . S
H407 C419 0.950 1_455 S
C408 H400 0.950 . S
C408 C409 1.386 . S
C408 C410 1.391 . S
C409 C408 1.386 . S
C409 C413 1.393 . S
C410 H402 0.950 . S
C410 C408 1.391 . S
C410 C411 1.400 . S
C411 C410 1.400 . S
C411 C412 1.398 . S
C411 C417 1.491 . S
C412 H403 0.950 . S
C412 C411 1.398 . S
C412 C413 1.391 . S
C413 H401 0.950 . S
C413 C409 1.393 . S
C413 C412 1.391 . S
C414 H404 0.950 . S
C414 C415 1.386 . S
C414 C416 1.391 . S
C415 C414 1.386 . S
C415 C419 1.393 . S
C416 H405 0.950 . S
C416 C414 1.391 . S
C416 C417 1.400 . S
C417 C411 1.491 . S
C417 C416 1.400 . S
C417 C418 1.398 . S
C418 H406 0.950 . S
C418 C417 1.398 . S
C418 C419 1.391 . S
C419 H407 0.950 1_655 S
C419 C415 1.393 . S
C419 C418 1.391 . S
H420 C428 0.950 . S
H421 C433 0.950 . S
H422 C430 0.950 . S
H423 C432 0.950 . S
H424 C434 0.950 . S
H425 C436 0.950 . S
H426 C438 0.950 . S
H427 C439 0.950 . S
C428 H420 0.950 . S
C428 C429 1.386 . S
C428 C430 1.391 . S
C429 C428 1.386 . S
C429 C433 1.393 . S
C430 H422 0.950 . S
C430 C428 1.391 . S
C430 C431 1.400 . S
C431 C430 1.400 . S
C431 C432 1.398 . S
C431 C437 1.491 . S
C432 H423 0.950 . S
C432 C431 1.398 . S
C432 C433 1.391 . S
C433 H421 0.950 . S
C433 C429 1.393 . S
C433 C432 1.391 . S
C434 H424 0.950 . S
C434 C435 1.386 . S
C434 C436 1.391 . S
C435 C434 1.386 . S
C435 C439 1.393 . S
C436 H425 0.950 . S
C436 C434 1.391 . S
C436 C437 1.400 . S
C437 C431 1.491 . S
C437 C436 1.400 . S
C437 C438 1.398 . S
C438 H426 0.950 . S
C438 C437 1.398 . S
C438 C439 1.391 . S
C439 H427 0.950 . S
C439 C435 1.393 . S
C439 C438 1.391 . S
H440 C448 0.950 . S
H441 C453 0.950 . S
H442 C450 0.950 . S
H443 C452 0.950 . S
H444 C454 0.950 . S
H445 C456 0.950 . S
H446 C458 0.950 . S
H447 C459 0.950 . S
C448 H440 0.950 . S
C448 C449 1.386 . S
C448 C450 1.391 . S
C449 C448 1.386 . S
C449 C453 1.393 . S
C450 H442 0.950 . S
C450 C448 1.391 . S
C450 C451 1.400 . S
C451 C450 1.400 . S
C451 C452 1.398 . S
C451 C457 1.491 . S
C452 H443 0.950 . S
C452 C451 1.398 . S
C452 C453 1.391 . S
C453 H441 0.950 . S
C453 C449 1.393 . S
C453 C452 1.391 . S
C454 H444 0.950 . S
C454 C455 1.386 . S
C454 C456 1.391 . S
C455 C454 1.386 . S
C455 C459 1.393 1_565 S
C456 H445 0.950 . S
C456 C454 1.391 . S
C456 C457 1.400 . S
C457 C451 1.491 . S
C457 C456 1.400 . S
C457 C458 1.398 . S
C458 H446 0.950 . S
C458 C457 1.398 . S
C458 C459 1.391 1_565 S
C459 H447 0.950 . S
C459 C455 1.393 1_545 S
C459 C458 1.391 1_545 S
H460 C468 0.950 . S
H461 C473 0.950 . S
H462 C470 0.950 . S
H463 C472 0.950 . S
H464 C474 0.950 1_554 S
H465 C476 0.950 . S
H466 C478 0.950 . S
H467 C479 0.950 . S
C468 H460 0.950 . S
C468 C469 1.386 . S
C468 C470 1.391 . S
C469 C468 1.386 . S
C469 C473 1.393 . S
C470 H462 0.950 . S
C470 C468 1.391 . S
C470 C471 1.400 . S
C471 C470 1.400 . S
C471 C472 1.398 . S
C471 C477 1.491 . S
C472 H463 0.950 . S
C472 C471 1.398 . S
C472 C473 1.391 . S
C473 H461 0.950 . S
C473 C469 1.393 . S
C473 C472 1.391 . S
C474 H464 0.950 1_556 S
C474 C475 1.386 . S
C474 C476 1.391 . S
C475 C474 1.386 . S
C475 C479 1.393 . S
C476 H465 0.950 . S
C476 C474 1.391 . S
C476 C477 1.400 . S
C477 C471 1.491 . S
C477 C476 1.400 . S
C477 C478 1.398 . S
C478 H466 0.950 . S
C478 C477 1.398 . S
C478 C479 1.391 . S
C479 H467 0.950 . S
C479 C475 1.393 . S
C479 C478 1.391 . S
H480 C488 0.950 . S
H481 C493 0.950 . S
H482 C490 0.950 . S
H483 C492 0.950 . S
H484 C494 0.950 . S
H485 C496 0.950 . S
H486 C498 0.950 . S
H487 C499 0.950 . S
C488 H480 0.950 . S
C488 C489 1.386 . S
C488 C490 1.391 . S
C489 C488 1.386 . S
C489 C493 1.393 . S
C490 H482 0.950 . S
C490 C488 1.391 . S
C490 C491 1.400 . S
C491 C490 1.400 . S
C491 C492 1.398 . S
C491 C497 1.491 . S
C492 H483 0.950 . S
C492 C491 1.398 . S
C492 C493 1.391 . S
C493 H481 0.950 . S
C493 C489 1.393 . S
C493 C492 1.391 . S
C494 H484 0.950 . S
C494 C495 1.386 . S
C494 C496 1.391 . S
C495 C494 1.386 . S
C495 C499 1.393 . S
C496 H485 0.950 . S
C496 C494 1.391 . S
C496 C497 1.400 . S
C497 C491 1.491 . S
C497 C496 1.400 . S
C497 C498 1.398 . S
C498 H486 0.950 . S
C498 C497 1.398 . S
C498 C499 1.391 . S
C499 H487 0.950 . S
C499 C495 1.393 . S
C499 C498 1.391 . S
H500 C508 0.950 . S
H501 C513 0.950 . S
H502 C510 0.950 . S
H503 C512 0.950 . S
H504 C514 0.950 . S
H505 C516 0.950 . S
H506 C518 0.950 . S
H507 C519 0.950 . S
C508 H500 0.950 . S
C508 C509 1.386 . S
C508 C510 1.391 . S
C509 C508 1.386 . S
C509 C513 1.393 . S
C510 H502 0.950 . S
C510 C508 1.391 . S
C510 C511 1.400 . S
C511 C510 1.400 . S
C511 C512 1.398 . S
C511 C517 1.491 . S
C512 H503 0.950 . S
C512 C511 1.398 . S
C512 C513 1.391 . S
C513 H501 0.950 . S
C513 C509 1.393 . S
C513 C512 1.391 . S
C514 H504 0.950 . S
C514 C515 1.386 . S
C514 C516 1.391 . S
C515 C514 1.386 . S
C515 C519 1.393 . S
C516 H505 0.950 . S
C516 C514 1.391 . S
C516 C517 1.400 . S
C517 C511 1.491 . S
C517 C516 1.400 . S
C517 C518 1.398 . S
C518 H506 0.950 . S
C518 C517 1.398 . S
C518 C519 1.391 . S
C519 H507 0.950 . S
C519 C515 1.393 . S
C519 C518 1.391 . S
H520 C528 0.950 . S
H521 C533 0.950 . S
H522 C530 0.950 . S
H523 C532 0.950 . S
H524 C534 0.950 1_554 S
H525 C536 0.950 . S
H526 C538 0.950 . S
H527 C539 0.950 . S
C528 H520 0.950 . S
C528 C529 1.386 . S
C528 C530 1.391 . S
C529 C528 1.386 . S
C529 C533 1.393 . S
C530 H522 0.950 . S
C530 C528 1.391 . S
C530 C531 1.400 . S
C531 C530 1.400 . S
C531 C532 1.398 . S
C531 C537 1.491 . S
C532 H523 0.950 . S
C532 C531 1.398 . S
C532 C533 1.391 . S
C533 H521 0.950 . S
C533 C529 1.393 . S
C533 C532 1.391 . S
C534 H524 0.950 1_556 S
C534 C535 1.386 . S
C534 C536 1.391 . S
C535 C534 1.386 . S
C535 C539 1.393 . S
C536 H525 0.950 . S
C536 C534 1.391 . S
C536 C537 1.400 . S
C537 C531 1.491 . S
C537 C536 1.400 . S
C537 C538 1.398 . S
C538 H526 0.950 . S
C538 C537 1.398 . S
C538 C539 1.391 . S
C539 H527 0.950 . S
C539 C535 1.393 . S
C539 C538 1.391 . S
H540 C548 0.950 . S
H541 C553 0.950 . S
H542 C550 0.950 . S
H543 C552 0.950 . S
H544 C554 0.950 . S
H545 C556 0.950 . S
H546 C558 0.950 . S
H547 C559 0.950 . S
C548 H540 0.950 . S
C548 C549 1.386 . S
C548 C550 1.391 . S
C549 C548 1.386 . S
C549 C553 1.393 . S
C550 H542 0.950 . S
C550 C548 1.391 . S
C550 C551 1.400 . S
C551 C550 1.400 . S
C551 C552 1.398 . S
C551 C557 1.491 . S
C552 H543 0.950 . S
C552 C551 1.398 . S
C552 C553 1.391 . S
C553 H541 0.950 . S
C553 C549 1.393 . S
C553 C552 1.391 . S
C554 H544 0.950 . S
C554 C555 1.386 . S
C554 C556 1.391 . S
C555 C554 1.386 . S
C555 C559 1.393 . S
C556 H545 0.950 . S
C556 C554 1.391 . S
C556 C557 1.400 . S
C557 C551 1.491 . S
C557 C556 1.400 . S
C557 C558 1.398 . S
C558 H546 0.950 . S
C558 C557 1.398 . S
C558 C559 1.391 . S
C559 H547 0.950 . S
C559 C555 1.393 . S
C559 C558 1.391 . S
H560 C568 0.950 . S
H561 C573 0.950 . S
H562 C570 0.950 . S
H563 C572 0.950 . S
H564 C574 0.950 . S
H565 C576 0.950 . S
H566 C578 0.950 . S
H567 C579 0.950 . S
C568 H560 0.950 . S
C568 C569 1.386 . S
C568 C570 1.391 . S
C569 C568 1.386 . S
C569 C573 1.393 . S
C570 H562 0.950 . S
C570 C568 1.391 . S
C570 C571 1.400 . S
C571 C570 1.400 . S
C571 C572 1.398 . S
C571 C577 1.491 . S
C572 H563 0.950 . S
C572 C571 1.398 . S
C572 C573 1.391 . S
C573 H561 0.950 . S
C573 C569 1.393 . S
C573 C572 1.391 . S
C574 H564 0.950 . S
C574 C575 1.386 . S
C574 C576 1.391 . S
C575 C574 1.386 . S
C575 C579 1.393 . S
C576 H565 0.950 . S
C576 C574 1.391 . S
C576 C577 1.400 . S
C577 C571 1.491 . S
C577 C576 1.400 . S
C577 C578 1.398 . S
C578 H566 0.950 . S
C578 C577 1.398 . S
C578 C579 1.391 . S
C579 H567 0.950 . S
C579 C575 1.393 . S
C579 C578 1.391 . S
H580 C588 0.950 . S
H581 C593 0.950 . S
H582 C590 0.950 . S
H583 C592 0.950 . S
H584 C594 0.950 . S
H585 C596 0.950 . S
H586 C598 0.950 . S
H587 C599 0.950 . S
C588 H580 0.950 . S
C588 C589 1.386 1_545 S
C588 C590 1.391 . S
C589 C588 1.386 1_565 S
C589 C593 1.393 . S
C590 H582 0.950 . S
C590 C588 1.391 . S
C590 C591 1.419 . S
C591 C590 1.419 . S
C591 C592 1.376 1_545 S
C591 C597 1.494 . S
C592 H583 0.950 . S
C592 C591 1.376 1_565 S
C592 C593 1.391 . S
C593 H581 0.950 . S
C593 C589 1.393 . S
C593 C592 1.391 . S
C594 H584 0.950 . S
C594 C595 1.386 1_565 S
C594 C596 1.391 . S
C595 C594 1.386 1_545 S
C595 C599 1.393 . S
C596 H585 0.950 . S
C596 C594 1.391 . S
C596 C597 1.400 1_565 S
C597 C591 1.494 . S
C597 C596 1.400 1_545 S
C597 C598 1.398 . S
C598 H586 0.950 . S
C598 C597 1.398 . S
C598 C599 1.391 . S
C599 H587 0.950 . S
C599 C595 1.393 . S
C599 C598 1.391 . S
H600 C608 0.950 . S
H601 C613 0.950 . S
H602 C610 0.950 . S
H603 C612 0.950 . S
H604 C614 0.950 . S
H605 C616 0.950 . S
H606 C618 0.950 . S
H607 C619 0.950 . S
C608 H600 0.950 . S
C608 C609 1.386 . S
C608 C610 1.391 . S
C609 C608 1.386 . S
C609 C613 1.393 . S
C610 H602 0.950 . S
C610 C608 1.391 . S
C610 C611 1.400 . S
C611 C610 1.400 . S
C611 C612 1.398 . S
C611 C617 1.491 . S
C612 H603 0.950 . S
C612 C611 1.398 . S
C612 C613 1.391 . S
C613 H601 0.950 . S
C613 C609 1.393 . S
C613 C612 1.391 . S
C614 H604 0.950 . S
C614 C615 1.386 . S
C614 C616 1.391 . S
C615 C614 1.386 . S
C615 C619 1.393 . S
C616 H605 0.950 . S
C616 C614 1.391 . S
C616 C617 1.400 . S
C617 C611 1.491 . S
C617 C616 1.400 . S
C617 C618 1.398 . S
C618 H606 0.950 . S
C618 C617 1.398 . S
C618 C619 1.391 . S
C619 H607 0.950 . S
C619 C615 1.393 . S
C619 C618 1.391 . S
H620 C628 0.950 . S
H621 C633 0.950 . S
H622 C630 0.950 . S
H623 C632 0.950 . S
H624 C634 0.950 . S
H625 C636 0.950 . S
H626 C638 0.950 . S
H627 C639 0.950 . S
C628 H620 0.950 . S
C628 C629 1.386 . S
C628 C630 1.391 . S
C629 C628 1.386 . S
C629 C633 1.393 . S
C630 H622 0.950 . S
C630 C628 1.391 . S
C630 C631 1.400 . S
C631 C630 1.400 . S
C631 C632 1.398 . S
C631 C637 1.491 . S
C632 H623 0.950 . S
C632 C631 1.398 . S
C632 C633 1.391 . S
C633 H621 0.950 . S
C633 C629 1.393 . S
C633 C632 1.391 . S
C634 H624 0.950 . S
C634 C635 1.386 . S
C634 C636 1.391 . S
C635 C634 1.386 . S
C635 C639 1.393 . S
C636 H625 0.950 . S
C636 C634 1.391 . S
C636 C637 1.400 . S
C637 C631 1.491 . S
C637 C636 1.400 . S
C637 C638 1.398 . S
C638 H626 0.950 . S
C638 C637 1.398 . S
C638 C639 1.391 . S
C639 H627 0.950 . S
C639 C635 1.393 . S
C639 C638 1.391 . S
H640 C648 0.950 . S
H641 C653 0.950 . S
H642 C650 0.950 . S
H643 C652 0.950 . S
H644 C654 0.950 . S
H645 C656 0.950 . S
H646 C658 0.950 . S
H647 C659 0.950 . S
C648 H640 0.950 . S
C648 C649 1.386 . S
C648 C650 1.391 . S
C649 C648 1.386 . S
C649 C653 1.393 . S
C650 H642 0.950 . S
C650 C648 1.391 . S
C650 C651 1.400 . S
C651 C650 1.400 . S
C651 C652 1.398 . S
C651 C657 1.491 . S
C652 H643 0.950 . S
C652 C651 1.398 . S
C652 C653 1.391 . S
C653 H641 0.950 . S
C653 C649 1.393 . S
C653 C652 1.391 . S
C654 H644 0.950 . S
C654 C655 1.386 . S
C654 C656 1.391 . S
C655 C654 1.386 . S
C655 C659 1.393 . S
C656 H645 0.950 . S
C656 C654 1.391 . S
C656 C657 1.400 . S
C657 C651 1.491 . S
C657 C656 1.400 . S
C657 C658 1.398 . S
C658 H646 0.950 . S
C658 C657 1.398 . S
C658 C659 1.391 . S
C659 H647 0.950 . S
C659 C655 1.393 . S
C659 C658 1.391 . S
H660 C668 0.950 1_545 S
H661 C673 0.950 . S
H662 C670 0.938 1_545 S
H663 C672 0.950 . S
H664 C674 0.950 . S
H665 C676 0.950 . S
H666 C678 0.950 . S
H667 C679 0.950 . S
C668 H660 0.950 1_565 S
C668 C669 1.386 1_554 S
C668 C670 1.394 . S
C669 C668 1.386 1_556 S
C669 C673 1.393 . S
C670 H662 0.938 1_565 S
C670 C668 1.394 . S
C670 C671 1.427 . S
C671 C670 1.427 . S
C671 C672 1.378 1_554 S
C671 C677 1.495 . S
C672 H663 0.950 . S
C672 C671 1.378 1_556 S
C672 C673 1.391 . S
C673 H661 0.950 . S
C673 C669 1.393 . S
C673 C672 1.391 . S
C674 H664 0.950 . S
C674 C675 1.386 1_556 S
C674 C676 1.391 . S
C675 C674 1.386 1_554 S
C675 C679 1.393 1_565 S
C676 H665 0.950 . S
C676 C674 1.391 . S
C676 C677 1.400 1_556 S
C677 C671 1.495 . S
C677 C676 1.400 1_554 S
C677 C678 1.398 1_565 S
C678 H666 0.950 . S
C678 C677 1.398 1_545 S
C678 C679 1.391 . S
C679 H667 0.950 . S
C679 C675 1.393 1_545 S
C679 C678 1.391 . S
H680 C688 0.950 . S
H681 C693 0.950 . S
H682 C690 0.950 . S
H683 C692 0.950 . S
H684 C694 0.950 . S
H685 C696 0.950 . S
H686 C698 0.950 . S
H687 C699 0.950 . S
C688 H680 0.950 . S
C688 C689 1.386 . S
C688 C690 1.391 . S
C689 C688 1.386 . S
C689 C693 1.393 . S
C690 H682 0.950 . S
C690 C688 1.391 . S
C690 C691 1.400 . S
C691 C690 1.400 . S
C691 C692 1.398 . S
C691 C697 1.491 . S
C692 H683 0.950 . S
C692 C691 1.398 . S
C692 C693 1.391 . S
C693 H681 0.950 . S
C693 C689 1.393 . S
C693 C692 1.391 . S
C694 H684 0.950 . S
C694 C695 1.386 . S
C694 C696 1.391 . S
C695 C694 1.386 . S
C695 C699 1.393 . S
C696 H685 0.950 . S
C696 C694 1.391 . S
C696 C697 1.400 . S
C697 C691 1.491 . S
C697 C696 1.400 . S
C697 C698 1.398 . S
C698 H686 0.950 . S
C698 C697 1.398 . S
C698 C699 1.391 . S
C699 H687 0.950 . S
C699 C695 1.393 . S
C699 C698 1.391 . S
H700 C708 0.950 . S
H701 C713 0.950 . S
H702 C710 0.950 . S
H703 C712 0.950 . S
H704 C714 0.950 . S
H705 C716 0.950 . S
H706 C718 0.950 . S
H707 C719 0.950 . S
C708 H700 0.950 . S
C708 C709 1.386 . S
C708 C710 1.391 . S
C709 C708 1.386 . S
C709 C713 1.393 . S
C710 H702 0.950 . S
C710 C708 1.391 . S
C710 C711 1.400 . S
C711 C710 1.400 . S
C711 C712 1.398 . S
C711 C717 1.491 . S
C712 H703 0.950 . S
C712 C711 1.398 . S
C712 C713 1.391 . S
C713 H701 0.950 . S
C713 C709 1.393 . S
C713 C712 1.391 . S
C714 H704 0.950 . S
C714 C715 1.386 . S
C714 C716 1.391 . S
C715 C714 1.386 . S
C715 C719 1.393 . S
C716 H705 0.950 . S
C716 C714 1.391 . S
C716 C717 1.400 . S
C717 C711 1.491 . S
C717 C716 1.400 . S
C717 C718 1.398 . S
C718 H706 0.950 . S
C718 C717 1.398 . S
C718 C719 1.391 . S
C719 H707 0.950 . S
C719 C715 1.393 . S
C719 C718 1.391 . S
H720 C728 0.950 . S
H721 C733 0.950 . S
H722 C730 0.950 . S
H723 C732 0.950 . S
H724 C734 0.950 . S
H725 C736 0.950 . S
H726 C738 0.950 . S
H727 C739 0.950 . S
C728 H720 0.950 . S
C728 C729 1.386 . S
C728 C730 1.391 . S
C729 C728 1.386 . S
C729 C733 1.393 . S
C730 H722 0.950 . S
C730 C728 1.391 . S
C730 C731 1.400 . S
C731 C730 1.400 . S
C731 C732 1.398 . S
C731 C737 1.491 . S
C732 H723 0.950 . S
C732 C731 1.398 . S
C732 C733 1.391 . S
C733 H721 0.950 . S
C733 C729 1.393 . S
C733 C732 1.391 . S
C734 H724 0.950 . S
C734 C735 1.386 . S
C734 C736 1.391 . S
C735 C734 1.386 . S
C735 C739 1.393 . S
C736 H725 0.950 . S
C736 C734 1.391 . S
C736 C737 1.400 . S
C737 C731 1.491 . S
C737 C736 1.400 . S
C737 C738 1.398 . S
C738 H726 0.950 . S
C738 C737 1.398 . S
C738 C739 1.391 . S
C739 H727 0.950 . S
C739 C735 1.393 . S
C739 C738 1.391 . S
H740 C748 0.950 . S
H741 C753 0.950 1_554 S
H742 C750 0.950 . S
H743 C752 0.950 1_554 S
H744 C754 0.950 1_554 S
H745 C756 0.950 1_554 S
H746 C758 0.950 . S
H747 C759 0.950 . S
C748 H740 0.950 . S
C748 C749 1.386 1_455 S
C748 C750 1.391 . S
C749 C748 1.386 1_655 S
C749 C753 1.393 . S
C750 H742 0.950 . S
C750 C748 1.391 . S
C750 C751 1.400 1_455 S
C751 C750 1.400 1_655 S
C751 C752 1.398 . S
C751 C757 1.493 . S
C752 H743 0.950 1_556 S
C752 C751 1.398 . S
C752 C753 1.391 . S
C753 H741 0.950 1_556 S
C753 C749 1.393 . S
C753 C752 1.391 . S
C754 H744 0.950 1_556 S
C754 C755 1.385 1_655 S
C754 C756 1.391 . S
C755 C754 1.385 1_455 S
C755 C759 1.393 . S
C756 H745 0.950 1_556 S
C756 C754 1.391 . S
C756 C757 1.414 . S
C757 C751 1.493 . S
C757 C756 1.414 . S
C757 C758 1.382 1_655 S
C758 H746 0.950 . S
C758 C757 1.382 1_455 S
C758 C759 1.391 . S
C759 H747 0.950 . S
C759 C755 1.393 . S
C759 C758 1.391 . S
H760 C768 0.950 . S
H761 C773 0.950 . S
H762 C770 0.950 . S
H763 C772 0.950 . S
H764 C774 0.950 . S
H765 C776 0.950 . S
H766 C778 0.950 . S
H767 C779 0.950 . S
C768 H760 0.950 . S
C768 C769 1.386 . S
C768 C770 1.391 . S
C769 C768 1.386 . S
C769 C773 1.393 . S
C770 H762 0.950 . S
C770 C768 1.391 . S
C770 C771 1.400 . S
C771 C770 1.400 . S
C771 C772 1.398 . S
C771 C777 1.491 . S
C772 H763 0.950 . S
C772 C771 1.398 . S
C772 C773 1.391 . S
C773 H761 0.950 . S
C773 C769 1.393 . S
C773 C772 1.391 . S
C774 H764 0.950 . S
C774 C775 1.386 . S
C774 C776 1.391 . S
C775 C774 1.386 . S
C775 C779 1.393 . S
C776 H765 0.950 . S
C776 C774 1.391 . S
C776 C777 1.400 . S
C777 C771 1.491 . S
C777 C776 1.400 . S
C777 C778 1.398 . S
C778 H766 0.950 . S
C778 C777 1.398 . S
C778 C779 1.391 . S
C779 H767 0.950 . S
C779 C775 1.393 . S
C779 C778 1.391 . S
H780 C788 0.950 . S
H781 C793 0.950 . S
H782 C790 0.950 . S
H783 C792 0.950 1_655 S
H784 C794 0.964 . S
H785 C796 0.950 1_655 S
H786 C798 0.950 . S
H787 C799 0.950 . S
C788 H780 0.950 . S
C788 C789 1.386 . S
C788 C790 1.391 . S
C789 C788 1.386 . S
C789 C793 1.393 . S
C790 H782 0.950 . S
C790 C788 1.391 . S
C790 C791 1.400 . S
C791 C790 1.400 . S
C791 C792 1.398 . S
C791 C797 1.491 . S
C792 H783 0.950 1_455 S
C792 C791 1.398 . S
C792 C793 1.391 . S
C793 H781 0.950 . S
C793 C789 1.393 . S
C793 C792 1.391 . S
C794 H784 0.964 . S
C794 C795 1.373 1_655 S
C794 C796 1.389 1_655 S
C795 C794 1.373 1_455 S
C795 C799 1.393 . S
C796 H785 0.950 1_455 S
C796 C794 1.389 1_455 S
C796 C797 1.400 . S
C797 C791 1.491 . S
C797 C796 1.400 . S
C797 C798 1.398 . S
C798 H786 0.950 . S
C798 C797 1.398 . S
C798 C799 1.391 . S
C799 H787 0.950 . S
C799 C795 1.393 . S
C799 C798 1.391 . S
H800 C808 0.950 . S
H801 C813 0.950 . S
H802 C810 0.950 . S
H803 C812 0.950 . S
H804 C814 0.950 . S
H805 C816 0.950 . S
H806 C818 0.950 . S
H807 C819 0.950 . S
C808 H800 0.950 . S
C808 C809 1.386 . S
C808 C810 1.391 . S
C809 C808 1.386 . S
C809 C813 1.393 . S
C810 H802 0.950 . S
C810 C808 1.391 . S
C810 C811 1.400 . S
C811 C810 1.400 . S
C811 C812 1.398 . S
C811 C817 1.491 . S
C812 H803 0.950 . S
C812 C811 1.398 . S
C812 C813 1.391 . S
C813 H801 0.950 . S
C813 C809 1.393 . S
C813 C812 1.391 . S
C814 H804 0.950 . S
C814 C815 1.386 . S
C814 C816 1.391 . S
C815 C814 1.386 . S
C815 C819 1.393 . S
C816 H805 0.950 . S
C816 C814 1.391 . S
C816 C817 1.400 . S
C817 C811 1.491 . S
C817 C816 1.400 . S
C817 C818 1.398 . S
C818 H806 0.950 . S
C818 C817 1.398 . S
C818 C819 1.391 . S
C819 H807 0.950 . S
C819 C815 1.393 . S
C819 C818 1.391 . S
C349 C29 1.560 . S
C355 C259 1.492 . S
C369 C49 1.450 . S
C375 C293 1.355 1_565 S
C395 C305 1.404 . S
C389 C93 1.495 . S
C409 C119 1.444 . S
C415 C339 1.381 . S
C435 C296 1.405 . S
C429 C17 1.495 . S
C455 C276 1.448 . S
C449 C61 1.502 . S
C475 C323 1.375 . S
C469 C81 1.455 . S
C495 C314 1.432 . S
C489 C125 1.505 . S
C509 C23 1.485 . S
C515 C322 1.391 . S
C535 C284 1.350 . S
C529 C87 1.451 . S
C549 C113 1.524 . S
C555 C260 1.448 . S
C569 C55 1.492 . S
C575 C317 1.390 . S
C595 C275 1.536 . S
C589 C157 1.680 . S
C609 C189 1.521 . S
C615 C297 1.545 . S
C629 C221 1.704 . S
C635 C302 1.558 . S
C649 C253 1.543 . S
C655 C335 1.602 . S
C669 C145 1.737 . S
C675 C280 1.593 . S
C695 C272 1.537 . S
C689 C183 1.526 . S
C715 C326 1.594 . S
C709 C209 1.721 . S
C735 C318 1.554 . S
C729 C247 1.526 . S
C749 C151 1.684 . S
C755 C338 1.550 . S
C775 C281 1.581 . S
C769 C215 1.707 . S
C795 C263 1.574 . S
C789 C241 1.559 . S
C809 C177 1.603 . S
C815 C301 1.611 . S
