# Generated by pormake.
# Topology ctn, (3,4)-cn, num edge types: 1
# Building blocks:
#     Node 0, Type 0, BuildingBlock: KAKCAD_clean_linker_0, # of connection points: 3
#     Node 1, Type 0, BuildingBlock: KAKCAD_clean_linker_0, # of connection points: 3
#     Node 2, Type 0, BuildingBlock: KAKCAD_clean_linker_0, # of connection points: 3
#     Node 3, Type 0, BuildingBlock: KAKCAD_clean_linker_0, # of connection points: 3
#     Node 4, Type 0, BuildingBlock: KAKCAD_clean_linker_0, # of connection points: 3
#     Node 5, Type 0, BuildingBlock: KAKCAD_clean_linker_0, # of connection points: 3
#     Node 6, Type 0, BuildingBlock: KAKCAD_clean_linker_0, # of connection points: 3
#     Node 7, Type 0, BuildingBlock: KAKCAD_clean_linker_0, # of connection points: 3
#     Node 8, Type 0, BuildingBlock: KAKCAD_clean_linker_0, # of connection points: 3
#     Node 9, Type 0, BuildingBlock: KAKCAD_clean_linker_0, # of connection points: 3
#     Node 10, Type 0, BuildingBlock: KAKCAD_clean_linker_0, # of connection points: 3
#     Node 11, Type 0, BuildingBlock: KAKCAD_clean_linker_0, # of connection points: 3
#     Node 12, Type 0, BuildingBlock: KAKCAD_clean_linker_0, # of connection points: 3
#     Node 13, Type 0, BuildingBlock: KAKCAD_clean_linker_0, # of connection points: 3
#     Node 14, Type 0, BuildingBlock: KAKCAD_clean_linker_0, # of connection points: 3
#     Node 15, Type 0, BuildingBlock: KAKCAD_clean_linker_0, # of connection points: 3
#     Node 16, Type 1, BuildingBlock: TATPOV_clean_sbu_0, # of connection points: 4
#     Node 17, Type 1, BuildingBlock: TATPOV_clean_sbu_0, # of connection points: 4
#     Node 18, Type 1, BuildingBlock: TATPOV_clean_sbu_0, # of connection points: 4
#     Node 19, Type 1, BuildingBlock: TATPOV_clean_sbu_0, # of connection points: 4
#     Node 20, Type 1, BuildingBlock: TATPOV_clean_sbu_0, # of connection points: 4
#     Node 21, Type 1, BuildingBlock: TATPOV_clean_sbu_0, # of connection points: 4
#     Node 22, Type 1, BuildingBlock: TATPOV_clean_sbu_0, # of connection points: 4
#     Node 23, Type 1, BuildingBlock: TATPOV_clean_sbu_0, # of connection points: 4
#     Node 24, Type 1, BuildingBlock: TATPOV_clean_sbu_0, # of connection points: 4
#     Node 25, Type 1, BuildingBlock: TATPOV_clean_sbu_0, # of connection points: 4
#     Node 26, Type 1, BuildingBlock: TATPOV_clean_sbu_0, # of connection points: 4
#     Node 27, Type 1, BuildingBlock: TATPOV_clean_sbu_0, # of connection points: 4
#     Edge 28, Type (0, 1), BuildingBlock: AJUNOK_clean_linker_0, # of connection points: 2
#     Edge 29, Type (0, 1), BuildingBlock: AJUNOK_clean_linker_0, # of connection points: 2
#     Edge 30, Type (0, 1), BuildingBlock: AJUNOK_clean_linker_0, # of connection points: 2
#     Edge 31, Type (0, 1), BuildingBlock: AJUNOK_clean_linker_0, # of connection points: 2
#     Edge 32, Type (0, 1), BuildingBlock: AJUNOK_clean_linker_0, # of connection points: 2
#     Edge 33, Type (0, 1), BuildingBlock: AJUNOK_clean_linker_0, # of connection points: 2
#     Edge 34, Type (0, 1), BuildingBlock: AJUNOK_clean_linker_0, # of connection points: 2
#     Edge 35, Type (0, 1), BuildingBlock: AJUNOK_clean_linker_0, # of connection points: 2
#     Edge 36, Type (0, 1), BuildingBlock: AJUNOK_clean_linker_0, # of connection points: 2
#     Edge 37, Type (0, 1), BuildingBlock: AJUNOK_clean_linker_0, # of connection points: 2
#     Edge 38, Type (0, 1), BuildingBlock: AJUNOK_clean_linker_0, # of connection points: 2
#     Edge 39, Type (0, 1), BuildingBlock: AJUNOK_clean_linker_0, # of connection points: 2
#     Edge 40, Type (0, 1), BuildingBlock: AJUNOK_clean_linker_0, # of connection points: 2
#     Edge 41, Type (0, 1), BuildingBlock: AJUNOK_clean_linker_0, # of connection points: 2
#     Edge 42, Type (0, 1), BuildingBlock: AJUNOK_clean_linker_0, # of connection points: 2
#     Edge 43, Type (0, 1), BuildingBlock: AJUNOK_clean_linker_0, # of connection points: 2
#     Edge 44, Type (0, 1), BuildingBlock: AJUNOK_clean_linker_0, # of connection points: 2
#     Edge 45, Type (0, 1), BuildingBlock: AJUNOK_clean_linker_0, # of connection points: 2
#     Edge 46, Type (0, 1), BuildingBlock: AJUNOK_clean_linker_0, # of connection points: 2
#     Edge 47, Type (0, 1), BuildingBlock: AJUNOK_clean_linker_0, # of connection points: 2
#     Edge 48, Type (0, 1), BuildingBlock: AJUNOK_clean_linker_0, # of connection points: 2
#     Edge 49, Type (0, 1), BuildingBlock: AJUNOK_clean_linker_0, # of connection points: 2
#     Edge 50, Type (0, 1), BuildingBlock: AJUNOK_clean_linker_0, # of connection points: 2
#     Edge 51, Type (0, 1), BuildingBlock: AJUNOK_clean_linker_0, # of connection points: 2
#     Edge 52, Type (0, 1), BuildingBlock: AJUNOK_clean_linker_0, # of connection points: 2
#     Edge 53, Type (0, 1), BuildingBlock: AJUNOK_clean_linker_0, # of connection points: 2
#     Edge 54, Type (0, 1), BuildingBlock: AJUNOK_clean_linker_0, # of connection points: 2
#     Edge 55, Type (0, 1), BuildingBlock: AJUNOK_clean_linker_0, # of connection points: 2
#     Edge 56, Type (0, 1), BuildingBlock: AJUNOK_clean_linker_0, # of connection points: 2
#     Edge 57, Type (0, 1), BuildingBlock: AJUNOK_clean_linker_0, # of connection points: 2
#     Edge 58, Type (0, 1), BuildingBlock: AJUNOK_clean_linker_0, # of connection points: 2
#     Edge 59, Type (0, 1), BuildingBlock: AJUNOK_clean_linker_0, # of connection points: 2
#     Edge 60, Type (0, 1), BuildingBlock: AJUNOK_clean_linker_0, # of connection points: 2
#     Edge 61, Type (0, 1), BuildingBlock: AJUNOK_clean_linker_0, # of connection points: 2
#     Edge 62, Type (0, 1), BuildingBlock: AJUNOK_clean_linker_0, # of connection points: 2
#     Edge 63, Type (0, 1), BuildingBlock: AJUNOK_clean_linker_0, # of connection points: 2
#     Edge 64, Type (0, 1), BuildingBlock: AJUNOK_clean_linker_0, # of connection points: 2
#     Edge 65, Type (0, 1), BuildingBlock: AJUNOK_clean_linker_0, # of connection points: 2
#     Edge 66, Type (0, 1), BuildingBlock: AJUNOK_clean_linker_0, # of connection points: 2
#     Edge 67, Type (0, 1), BuildingBlock: AJUNOK_clean_linker_0, # of connection points: 2
#     Edge 68, Type (0, 1), BuildingBlock: AJUNOK_clean_linker_0, # of connection points: 2
#     Edge 69, Type (0, 1), BuildingBlock: AJUNOK_clean_linker_0, # of connection points: 2
#     Edge 70, Type (0, 1), BuildingBlock: AJUNOK_clean_linker_0, # of connection points: 2
#     Edge 71, Type (0, 1), BuildingBlock: AJUNOK_clean_linker_0, # of connection points: 2
#     Edge 72, Type (0, 1), BuildingBlock: AJUNOK_clean_linker_0, # of connection points: 2
#     Edge 73, Type (0, 1), BuildingBlock: AJUNOK_clean_linker_0, # of connection points: 2
#     Edge 74, Type (0, 1), BuildingBlock: AJUNOK_clean_linker_0, # of connection points: 2
#     Edge 75, Type (0, 1), BuildingBlock: AJUNOK_clean_linker_0, # of connection points: 2
# Relax obj value: 0.003
# Max RMSD: 0.046
# Mean RMSD: 0.020
data_MOF--net-ctn--node1-TATPOV_clean_sbu_0--node2-KAKCAD_clean_linker_0--edge1-AJUNOK_clean_linker_0
_symmetry_space_group_name_H-M    P1
_symmetry_Int_Tables_number       1
_symmetry_cell_setting            triclinic
loop_
_symmetry_equiv_pos_as_xyz
'x, y, z'
_cell_length_a     52.748591
_cell_length_b     52.679092
_cell_length_c     52.687469
_cell_angle_alpha  91.118867
_cell_angle_beta   91.514141
_cell_angle_gamma 91.422443
loop_
_atom_site_label
_atom_site_type_symbol
_atom_site_fract_x
_atom_site_fract_y
_atom_site_fract_z
_atom_type_partial_charge
C0 C 0.02531 0.0798 0.94959 0.0
C1 C 0.01802 0.1043 0.95698 0.0
C2 C 0.02859 0.0609 0.96763 0.0
C3 C 0.02472 0.06601 0.99354 0.0
C4 C 0.0177 0.09062 0.00094 0.0
C5 C 0.01447 0.10954 0.98289 0.0
C6 C 0.02784 0.04572 0.01273 0.0
C7 C 0.04788 0.02862 0.01115 0.0
C8 C 0.05081 0.00921 0.02893 0.0
C9 C 0.03325 0.00707 0.04851 0.0
C10 C 0.01312 0.02398 0.05056 0.0
C11 C 0.01064 0.04324 0.03259 0.0
C12 C 0.99457 0.02137 0.07135 0.0
C13 C 0.98519 0.99728 0.07821 0.0
C14 C 0.98606 0.04292 0.08451 0.0
C15 C 0.96876 0.04042 0.1041 0.0
C16 C 0.95952 0.01633 0.111 0.0
C17 C 0.07219 0.99119 0.02711 0.0
C18 C 0.07973 0.98166 0.00338 0.0
C19 C 0.08517 0.98322 0.04913 0.0
C20 C 0.10486 0.96597 0.0475 0.0
C21 C 0.1121 0.9562 0.02383 0.0
C22 C 0.09949 0.96444 0.00177 0.0
C23 C 0.96783 0.99481 0.09772 0.0
H24 H 0.02865 0.07528 0.92984 0.0
H25 H 0.03383 0.04214 0.96119 0.0
H26 H 0.01489 0.09536 0.02074 0.0
H27 H 0.00889 0.12823 0.98918 0.0
H28 H 0.06161 0.03083 0.99637 0.0
H29 H 0.99479 0.05589 0.03362 0.0
H30 H 0.03524 0.99216 0.06223 0.0
H31 H 0.99105 0.98031 0.06828 0.0
H32 H 0.99298 0.06174 0.07985 0.0
H33 H 0.96241 0.0574 0.11369 0.0
H34 H 0.07004 0.98712 0.98603 0.0
H35 H 0.08032 0.99054 0.06768 0.0
H36 H 0.96104 0.976 0.10258 0.0
H37 H 0.10462 0.9572 0.98327 0.0
H38 H 0.11461 0.96046 0.06481 0.0
C39 C 0.34846 0.75085 0.27705 0.0
C40 C 0.36029 0.72975 0.2877 0.0
C41 C 0.32598 0.74791 0.26258 0.0
C42 C 0.31483 0.72368 0.25782 0.0
C43 C 0.32664 0.70253 0.26852 0.0
C44 C 0.3489 0.70556 0.2835 0.0
C45 C 0.2911 0.7206 0.24171 0.0
C46 C 0.28653 0.73679 0.22123 0.0
C47 C 0.26416 0.73437 0.20612 0.0
C48 C 0.24651 0.71478 0.21116 0.0
C49 C 0.25087 0.69804 0.23122 0.0
C50 C 0.27295 0.70144 0.24662 0.0
C51 C 0.23272 0.67664 0.23597 0.0
C52 C 0.20634 0.67998 0.23447 0.0
C53 C 0.2418 0.6526 0.24219 0.0
C54 C 0.22499 0.63246 0.24695 0.0
C55 C 0.19865 0.63576 0.2454 0.0
C56 C 0.25984 0.75202 0.18472 0.0
C57 C 0.26645 0.77799 0.18761 0.0
C58 C 0.25024 0.74299 0.16096 0.0
C59 C 0.24848 0.75928 0.14032 0.0
C60 C 0.25638 0.78488 0.14299 0.0
C61 C 0.26477 0.79421 0.16699 0.0
C62 C 0.18949 0.65976 0.23923 0.0
H63 H 0.35671 0.76978 0.2797 0.0
H64 H 0.31731 0.76478 0.25527 0.0
H65 H 0.31892 0.6835 0.26515 0.0
H66 H 0.35704 0.68893 0.29189 0.0
H67 H 0.30074 0.75099 0.21652 0.0
H68 H 0.27574 0.6893 0.26275 0.0
H69 H 0.22947 0.71243 0.19934 0.0
H70 H 0.19871 0.6983 0.23 0.0
H71 H 0.26198 0.64927 0.24325 0.0
H72 H 0.23265 0.61434 0.25217 0.0
H73 H 0.27336 0.78572 0.20578 0.0
H74 H 0.24511 0.7231 0.158 0.0
H75 H 0.16927 0.66285 0.23797 0.0
H76 H 0.27061 0.81396 0.16964 0.0
H77 H 0.24207 0.7516 0.12197 0.0
C78 C 0.00302 0.45535 0.14384 0.0
C79 C 0.02959 0.45419 0.14419 0.0
C80 C 0.98903 0.45118 0.12121 0.0
C81 C 0.00132 0.44551 0.09853 0.0
C82 C 0.02793 0.44438 0.09889 0.0
C83 C 0.04195 0.44876 0.12152 0.0
C84 C 0.98633 0.44071 0.07462 0.0
C85 C 0.96647 0.45678 0.0679 0.0
C86 C 0.95225 0.45254 0.04525 0.0
C87 C 0.95769 0.43163 0.02955 0.0
C88 C 0.97738 0.41531 0.03603 0.0
C89 C 0.99178 0.4201 0.05849 0.0
C90 C 0.98322 0.3937 0.01887 0.0
C91 C 0.96364 0.37766 0.00873 0.0
C92 C 0.00825 0.38976 0.01151 0.0
C93 C 0.01344 0.37084 0.99354 0.0
C94 C 0.99376 0.35526 0.98293 0.0
C95 C 0.93232 0.47044 0.03752 0.0
C96 C 0.91458 0.479 0.05499 0.0
C97 C 0.93108 0.47922 0.01254 0.0
C98 C 0.91249 0.49616 0.00514 0.0
C99 C 0.89462 0.50463 0.0225 0.0
C100 C 0.8958 0.49583 0.04751 0.0
C101 C 0.96888 0.35854 0.991 0.0
H102 H 0.99308 0.45947 0.16111 0.0
H103 H 0.96853 0.45196 0.12155 0.0
H104 H 0.03791 0.44024 0.08164 0.0
H105 H 0.06241 0.44744 0.12139 0.0
H106 H 0.96263 0.47311 0.07989 0.0
H107 H 0.00685 0.40743 0.06369 0.0
H108 H 0.94675 0.42823 0.01205 0.0
H109 H 0.9442 0.38017 0.01423 0.0
H110 H 0.02368 0.40196 0.01889 0.0
H111 H 0.03276 0.36873 0.98748 0.0
H112 H 0.91495 0.47232 0.07431 0.0
H113 H 0.94474 0.47325 0.99877 0.0
H114 H 0.95333 0.34701 0.98282 0.0
H115 H 0.88196 0.50158 0.06117 0.0
H116 H 0.9122 0.50279 0.9858 0.0
C117 C 0.71839 0.70466 0.12991 0.0
C118 C 0.74364 0.69843 0.12545 0.0
C119 C 0.71274 0.72218 0.14909 0.0
C120 C 0.73223 0.7338 0.16428 0.0
C121 C 0.75746 0.72712 0.16016 0.0
C122 C 0.76309 0.70956 0.141 0.0
C123 C 0.72625 0.75328 0.1839 0.0
C124 C 0.7052 0.74982 0.1994 0.0
C125 C 0.69872 0.76856 0.21729 0.0
C126 C 0.7137 0.79102 0.21956 0.0
C127 C 0.73497 0.7947 0.20439 0.0
C128 C 0.74115 0.7757 0.18671 0.0
C129 C 0.75075 0.81842 0.207 0.0
C130 C 0.73937 0.84228 0.20775 0.0
C131 C 0.77731 0.81731 0.20926 0.0
C132 C 0.79211 0.83952 0.21313 0.0
C133 C 0.78066 0.86327 0.21446 0.0
C134 C 0.67599 0.76489 0.23315 0.0
C135 C 0.65333 0.75428 0.22242 0.0
C136 C 0.67657 0.77231 0.25897 0.0
C137 C 0.65484 0.76979 0.2735 0.0
C138 C 0.63205 0.75993 0.26249 0.0
C139 C 0.63165 0.75177 0.23693 0.0
C140 C 0.75422 0.86452 0.21126 0.0
H141 H 0.70303 0.69647 0.11813 0.0
H142 H 0.69314 0.72711 0.15157 0.0
H143 H 0.77286 0.7354 0.17182 0.0
H144 H 0.78269 0.70468 0.13834 0.0
H145 H 0.69405 0.73228 0.19777 0.0
H146 H 0.75715 0.77877 0.17454 0.0
H147 H 0.70877 0.80572 0.23309 0.0
H148 H 0.71896 0.84371 0.20577 0.0
H149 H 0.78659 0.7992 0.20884 0.0
H150 H 0.81249 0.83814 0.21559 0.0
H151 H 0.65213 0.7485 0.20257 0.0
H152 H 0.69382 0.78018 0.26794 0.0
H153 H 0.74498 0.88263 0.2124 0.0
H154 H 0.61441 0.74379 0.22805 0.0
H155 H 0.65566 0.77622 0.29317 0.0
C156 C 0.97055 0.9945 0.39549 0.0
C157 C 0.977 0.99161 0.36988 0.0
C158 C 0.98872 0.99183 0.41489 0.0
C159 C 0.01389 0.98648 0.40918 0.0
C160 C 0.02068 0.98445 0.38361 0.0
C161 C 0.00234 0.98681 0.3641 0.0
C162 C 0.03262 0.9823 0.43007 0.0
C163 C 0.02643 0.96592 0.44984 0.0
C164 C 0.04362 0.96218 0.47017 0.0
C165 C 0.06699 0.9755 0.4709 0.0
C166 C 0.07337 0.99198 0.45133 0.0
C167 C 0.05636 0.99498 0.43072 0.0
C168 C 0.09764 0.0065 0.4528 0.0
C169 C 0.10274 0.02381 0.47295 0.0
C170 C 0.11584 0.003 0.43425 0.0
C171 C 0.13912 0.01624 0.43614 0.0
C172 C 0.14443 0.03358 0.45638 0.0
C173 C 0.03718 0.94405 0.49035 0.0
C174 C 0.01316 0.94422 0.50121 0.0
C175 C 0.05457 0.92575 0.49808 0.0
C176 C 0.04773 0.9074 0.51567 0.0
C177 C 0.02347 0.90722 0.5261 0.0
C178 C 0.00643 0.92608 0.51896 0.0
C179 C 0.12577 0.0375 0.47454 0.0
H180 H 0.95128 0.99856 0.40057 0.0
H181 H 0.98307 0.99387 0.43443 0.0
H182 H 0.03996 0.98018 0.37874 0.0
H183 H 0.00783 0.98406 0.34461 0.0
H184 H 0.00838 0.95559 0.44907 0.0
H185 H 0.06122 0.0079 0.41573 0.0
H186 H 0.08022 0.97313 0.48673 0.0
H187 H 0.08874 0.02698 0.48729 0.0
H188 H 0.11223 0.98965 0.41859 0.0
H189 H 0.15311 0.01264 0.4219 0.0
H190 H 0.9995 0.9583 0.49583 0.0
H191 H 0.07312 0.92503 0.48979 0.0
H192 H 0.12883 0.0513 0.48988 0.0
H193 H 0.98768 0.92657 0.52684 0.0
H194 H 0.06108 0.89282 0.52034 0.0
C195 C 0.14254 0.73052 0.70503 0.0
C196 C 0.13822 0.75626 0.7005 0.0
C197 C 0.16276 0.72344 0.72083 0.0
C198 C 0.17895 0.74198 0.73264 0.0
C199 C 0.17473 0.76774 0.72793 0.0
C200 C 0.15459 0.77481 0.71197 0.0
C201 C 0.19952 0.73442 0.75058 0.0
C202 C 0.21478 0.71367 0.74479 0.0
C203 C 0.23335 0.70554 0.76225 0.0
C204 C 0.23644 0.71842 0.78582 0.0
C205 C 0.22131 0.73916 0.79197 0.0
C206 C 0.20311 0.7472 0.77412 0.0
C207 C 0.22378 0.75179 0.81742 0.0
C208 C 0.2247 0.73721 0.83945 0.0
C209 C 0.22506 0.77842 0.81992 0.0
C210 C 0.2281 0.79018 0.84392 0.0
C211 C 0.22977 0.77555 0.86591 0.0
C212 C 0.24859 0.6828 0.75647 0.0
C213 C 0.23677 0.66072 0.7458 0.0
C214 C 0.27472 0.68254 0.76256 0.0
C215 C 0.28854 0.66046 0.75876 0.0
C216 C 0.27645 0.63817 0.74897 0.0
C217 C 0.25052 0.63865 0.74221 0.0
C218 C 0.22745 0.74895 0.86342 0.0
H219 H 0.13017 0.71586 0.69642 0.0
H220 H 0.16531 0.70346 0.72431 0.0
H221 H 0.18695 0.78245 0.73667 0.0
H222 H 0.15148 0.7948 0.70906 0.0
H223 H 0.2123 0.70394 0.72655 0.0
H224 H 0.19095 0.76273 0.77905 0.0
H225 H 0.25035 0.71201 0.79962 0.0
H226 H 0.22316 0.71668 0.83815 0.0
H227 H 0.22437 0.79014 0.80326 0.0
H228 H 0.2299 0.8107 0.84522 0.0
H229 H 0.21665 0.66018 0.74111 0.0
H230 H 0.28442 0.69931 0.7706 0.0
H231 H 0.22794 0.73717 0.88003 0.0
H232 H 0.24073 0.62168 0.73471 0.0
H233 H 0.30842 0.66052 0.76447 0.0
C234 C 0.97424 0.64205 0.52124 0.0
C235 C 0.96607 0.64175 0.54632 0.0
C236 C 0.9698 0.62099 0.50513 0.0
C237 C 0.95736 0.599 0.51386 0.0
C238 C 0.94979 0.59855 0.53928 0.0
C239 C 0.9539 0.61984 0.55528 0.0
C240 C 0.95186 0.57698 0.49622 0.0
C241 C 0.96924 0.57065 0.47748 0.0
C242 C 0.96382 0.55096 0.45968 0.0
C243 C 0.94088 0.537 0.4613 0.0
C244 C 0.92359 0.54236 0.48042 0.0
C245 C 0.92911 0.56258 0.49763 0.0
C246 C 0.9004 0.52601 0.48289 0.0
C247 C 0.88658 0.51718 0.46115 0.0
C248 C 0.89318 0.51736 0.50682 0.0
C249 C 0.87366 0.49904 0.50877 0.0
C250 C 0.86114 0.48902 0.48684 0.0
C251 C 0.98233 0.54472 0.43972 0.0
C252 C 0.99685 0.56398 0.42832 0.0
C253 C 0.9858 0.51937 0.43203 0.0
C254 C 0.00308 0.51345 0.41337 0.0
C255 C 0.01774 0.53264 0.40215 0.0
C256 C 0.01451 0.55799 0.40993 0.0
C257 C 0.86718 0.49885 0.46311 0.0
H258 H 0.98317 0.65898 0.51378 0.0
H259 H 0.97543 0.62233 0.48558 0.0
H260 H 0.94058 0.58184 0.54682 0.0
H261 H 0.94735 0.6193 0.57459 0.0
H262 H 0.98732 0.58079 0.47707 0.0
H263 H 0.91537 0.56737 0.51176 0.0
H264 H 0.93656 0.52162 0.44782 0.0
H265 H 0.89128 0.52387 0.4425 0.0
H266 H 0.9035 0.52368 0.52392 0.0
H267 H 0.86937 0.49166 0.52726 0.0
H268 H 0.99453 0.58376 0.43351 0.0
H269 H 0.97541 0.50394 0.44064 0.0
H270 H 0.85752 0.49162 0.44596 0.0
H271 H 0.02584 0.57318 0.40206 0.0
H272 H 0.00494 0.49373 0.40769 0.0
C273 C 0.85082 0.75686 0.89838 0.0
C274 C 0.82645 0.74771 0.90414 0.0
C275 C 0.8539 0.77931 0.88494 0.0
C276 C 0.83263 0.79294 0.87686 0.0
C277 C 0.80834 0.7842 0.88364 0.0
C278 C 0.80532 0.76192 0.89725 0.0
C279 C 0.83533 0.81471 0.85944 0.0
C280 C 0.85215 0.81341 0.83923 0.0
C281 C 0.85211 0.83182 0.82029 0.0
C282 C 0.8349 0.85173 0.82177 0.0
C283 C 0.81759 0.85317 0.84156 0.0
C284 C 0.81879 0.83516 0.86088 0.0
C285 C 0.79598 0.87088 0.83989 0.0
C286 C 0.79865 0.89483 0.82867 0.0
C287 C 0.77166 0.86263 0.84703 0.0
C288 C 0.75055 0.87732 0.84215 0.0
C289 C 0.753 0.90046 0.82957 0.0
C290 C 0.8678 0.82843 0.79744 0.0
C291 C 0.89246 0.81889 0.79946 0.0
C292 C 0.85757 0.83336 0.77316 0.0
C293 C 0.87133 0.82834 0.7515 0.0
C294 C 0.89544 0.81773 0.75346 0.0
C295 C 0.90615 0.81357 0.77766 0.0
C296 C 0.77735 0.90937 0.82336 0.0
H297 H 0.86743 0.74635 0.90383 0.0
H298 H 0.87288 0.78569 0.88037 0.0
H299 H 0.79147 0.79384 0.87738 0.0
H300 H 0.78633 0.75513 0.90132 0.0
H301 H 0.86402 0.79704 0.83723 0.0
H302 H 0.80602 0.83642 0.87659 0.0
H303 H 0.83409 0.86534 0.80667 0.0
H304 H 0.81708 0.90203 0.82324 0.0
H305 H 0.76854 0.84418 0.85526 0.0
H306 H 0.73207 0.87008 0.84746 0.0
H307 H 0.90104 0.81519 0.81787 0.0
H308 H 0.83855 0.84034 0.77071 0.0
H309 H 0.77987 0.927 0.81341 0.0
H310 H 0.92479 0.80555 0.7797 0.0
H311 H 0.86286 0.83236 0.73311 0.0
C312 C 0.34121 0.25606 0.38968 0.0
C313 C 0.31705 0.24638 0.39538 0.0
C314 C 0.3438 0.27799 0.37534 0.0
C315 C 0.32223 0.29042 0.36608 0.0
C316 C 0.29805 0.28075 0.37215 0.0
C317 C 0.29551 0.25906 0.38674 0.0
C318 C 0.32475 0.31246 0.34896 0.0
C319 C 0.34304 0.31259 0.33001 0.0
C320 C 0.34391 0.33196 0.31201 0.0
C321 C 0.32639 0.35161 0.31343 0.0
C322 C 0.30755 0.35133 0.33169 0.0
C323 C 0.30729 0.33215 0.34979 0.0
C324 C 0.2859 0.36859 0.3294 0.0
C325 C 0.28962 0.3948 0.32598 0.0
C326 C 0.2611 0.35829 0.32882 0.0
C327 C 0.24044 0.37372 0.32457 0.0
C328 C 0.24398 0.39993 0.32104 0.0
C329 C 0.36075 0.32972 0.28987 0.0
C330 C 0.3852 0.31977 0.2925 0.0
C331 C 0.35159 0.33571 0.26546 0.0
C332 C 0.36605 0.33107 0.2442 0.0
C333 C 0.38982 0.31983 0.2467 0.0
C334 C 0.3996 0.31486 0.27109 0.0
C335 C 0.2688 0.4104 0.32207 0.0
H336 H 0.35808 0.24653 0.39619 0.0
H337 H 0.36269 0.28505 0.3713 0.0
H338 H 0.28098 0.28936 0.36487 0.0
H339 H 0.27667 0.25163 0.39049 0.0
H340 H 0.35547 0.29664 0.32818 0.0
H341 H 0.29286 0.33221 0.36405 0.0
H342 H 0.3264 0.36635 0.29937 0.0
H343 H 0.3086 0.40316 0.32635 0.0
H344 H 0.25769 0.33807 0.33085 0.0
H345 H 0.22162 0.36497 0.32352 0.0
H346 H 0.39299 0.31529 0.31105 0.0
H347 H 0.33277 0.34304 0.26251 0.0
H348 H 0.27213 0.4306 0.31994 0.0
H349 H 0.41799 0.30639 0.27352 0.0
H350 H 0.35832 0.3357 0.22566 0.0
C351 C 0.51429 0.96477 0.64547 0.0
C352 C 0.54054 0.9612 0.64749 0.0
C353 C 0.50155 0.96224 0.62197 0.0
C354 C 0.51481 0.95607 0.59999 0.0
C355 C 0.54122 0.95311 0.60193 0.0
C356 C 0.55399 0.95579 0.62548 0.0
C357 C 0.50092 0.95218 0.5753 0.0
C358 C 0.48177 0.96888 0.56798 0.0
C359 C 0.46797 0.96493 0.54506 0.0
C360 C 0.47314 0.9438 0.52958 0.0
C361 C 0.4921 0.92689 0.53661 0.0
C362 C 0.50616 0.93135 0.55933 0.0
C363 C 0.49701 0.9046 0.52005 0.0
C364 C 0.47677 0.88877 0.51104 0.0
C365 C 0.52165 0.89984 0.512 0.0
C366 C 0.52577 0.88034 0.49428 0.0
C367 C 0.50539 0.86498 0.48476 0.0
C368 C 0.44815 0.98282 0.53713 0.0
C369 C 0.42975 0.99072 0.55419 0.0
C370 C 0.44723 0.9917 0.51217 0.0
C371 C 0.42813 0.00787 0.50432 0.0
C372 C 0.40941 0.01543 0.52119 0.0
C373 C 0.41045 0.00674 0.54625 0.0
C374 C 0.48095 0.86907 0.49365 0.0
H375 H 0.50356 0.96924 0.66216 0.0
H376 H 0.48119 0.96448 0.62113 0.0
H377 H 0.55197 0.94865 0.58526 0.0
H378 H 0.57427 0.95298 0.62662 0.0
H379 H 0.47796 0.98528 0.57989 0.0
H380 H 0.52054 0.91808 0.56498 0.0
H381 H 0.46236 0.9405 0.51197 0.0
H382 H 0.45762 0.89197 0.51709 0.0
H383 H 0.53754 0.91187 0.51859 0.0
H384 H 0.54476 0.87761 0.48755 0.0
H385 H 0.42987 0.98392 0.57347 0.0
H386 H 0.46137 0.98617 0.49872 0.0
H387 H 0.46487 0.85773 0.48628 0.0
H388 H 0.39599 0.01176 0.55953 0.0
H389 H 0.42795 0.01444 0.48496 0.0
C390 C 0.22398 0.19208 0.63527 0.0
C391 C 0.24904 0.18839 0.62788 0.0
C392 C 0.21882 0.20941 0.65478 0.0
C393 C 0.2386 0.2235 0.66727 0.0
C394 C 0.2637 0.21955 0.66005 0.0
C395 C 0.26885 0.20223 0.64053 0.0
C396 C 0.23297 0.24284 0.68715 0.0
C397 C 0.21435 0.23788 0.70519 0.0
C398 C 0.20833 0.25639 0.72348 0.0
C399 C 0.2211 0.28015 0.72345 0.0
C400 C 0.23975 0.28547 0.7056 0.0
C401 C 0.24571 0.26665 0.68767 0.0
C402 C 0.25259 0.3109 0.70556 0.0
C403 C 0.23833 0.33297 0.70756 0.0
C404 C 0.27916 0.31332 0.70446 0.0
C405 C 0.29125 0.33729 0.70657 0.0
C406 C 0.27698 0.3593 0.70951 0.0
C407 C 0.18817 0.25142 0.74214 0.0
C408 C 0.16492 0.23965 0.7344 0.0
C409 C 0.19148 0.25973 0.76757 0.0
C410 C 0.17159 0.25758 0.78448 0.0
C411 C 0.14791 0.24718 0.77631 0.0
C412 C 0.145 0.23754 0.75134 0.0
C413 C 0.25037 0.35687 0.70942 0.0
H414 H 0.20829 0.18211 0.62547 0.0
H415 H 0.19925 0.2123 0.65957 0.0
H416 H 0.27939 0.22985 0.66949 0.0
H417 H 0.28835 0.19967 0.63527 0.0
H418 H 0.20478 0.21944 0.70523 0.0
H419 H 0.25963 0.27093 0.6735 0.0
H420 H 0.21636 0.29469 0.73724 0.0
H421 H 0.21782 0.33173 0.708 0.0
H422 H 0.29063 0.2966 0.70305 0.0
H423 H 0.31179 0.33845 0.70708 0.0
H424 H 0.16171 0.23314 0.71493 0.0
H425 H 0.20932 0.26837 0.77429 0.0
H426 H 0.23884 0.37349 0.71143 0.0
H427 H 0.1269 0.22954 0.74453 0.0
H428 H 0.17448 0.26476 0.80377 0.0
C429 C 0.85469 0.24471 0.7713 0.0
C430 C 0.86954 0.22363 0.77695 0.0
C431 C 0.83152 0.24162 0.75799 0.0
C432 C 0.82254 0.21735 0.75005 0.0
C433 C 0.83714 0.19617 0.7561 0.0
C434 C 0.86044 0.19929 0.76933 0.0
C435 C 0.79827 0.21424 0.73511 0.0
C436 C 0.79262 0.23072 0.71514 0.0
C437 C 0.77005 0.22757 0.70047 0.0
C438 C 0.75283 0.20787 0.70631 0.0
C439 C 0.75808 0.19123 0.7262 0.0
C440 C 0.78088 0.19454 0.74045 0.0
C441 C 0.73999 0.17008 0.73172 0.0
C442 C 0.71373 0.17406 0.73194 0.0
C443 C 0.74886 0.14564 0.73653 0.0
C444 C 0.73185 0.12561 0.74124 0.0
C445 C 0.7056 0.12955 0.74125 0.0
C446 C 0.76513 0.24392 0.67821 0.0
C447 C 0.7704 0.27025 0.67956 0.0
C448 C 0.75605 0.23305 0.65503 0.0
C449 C 0.75302 0.24795 0.63356 0.0
C450 C 0.75883 0.27412 0.63476 0.0
C451 C 0.76722 0.28521 0.65806 0.0
C452 C 0.69673 0.15404 0.73675 0.0
H453 H 0.86108 0.2637 0.77712 0.0
H454 H 0.82058 0.25827 0.75396 0.0
H455 H 0.8309 0.17724 0.74998 0.0
H456 H 0.87165 0.18273 0.77294 0.0
H457 H 0.80632 0.24542 0.71035 0.0
H458 H 0.78489 0.18204 0.75607 0.0
H459 H 0.73543 0.20524 0.69506 0.0
H460 H 0.70634 0.19276 0.7287 0.0
H461 H 0.76894 0.14187 0.7362 0.0
H462 H 0.73923 0.10692 0.74452 0.0
H463 H 0.77724 0.27923 0.69719 0.0
H464 H 0.7521 0.21281 0.65321 0.0
H465 H 0.67665 0.15779 0.73723 0.0
H466 H 0.77219 0.30527 0.65944 0.0
H467 H 0.74659 0.23891 0.61582 0.0
C468 C 0.52736 0.58785 0.44888 0.0
C469 C 0.52189 0.61258 0.45722 0.0
C470 C 0.52997 0.56823 0.46625 0.0
C471 C 0.527 0.57282 0.49241 0.0
C472 C 0.52145 0.59758 0.5007 0.0
C473 C 0.51887 0.61718 0.48333 0.0
C474 C 0.52943 0.55186 0.51095 0.0
C475 C 0.54844 0.53378 0.50849 0.0
C476 C 0.55087 0.51397 0.52588 0.0
C477 C 0.53392 0.51244 0.54604 0.0
C478 C 0.51468 0.53028 0.54886 0.0
C479 C 0.51264 0.54986 0.53117 0.0
C480 C 0.49641 0.52842 0.56999 0.0
C481 C 0.48608 0.50477 0.57705 0.0
C482 C 0.48869 0.55043 0.58291 0.0
C483 C 0.47079 0.54891 0.602 0.0
C484 C 0.46004 0.52535 0.60863 0.0
C485 C 0.57109 0.49488 0.52284 0.0
C486 C 0.57632 0.48474 0.49868 0.0
C487 C 0.58543 0.48675 0.54394 0.0
C488 C 0.60453 0.46898 0.54093 0.0
C489 C 0.60955 0.45872 0.5168 0.0
C490 C 0.5953 0.46689 0.49571 0.0
C491 C 0.46815 0.50326 0.59618 0.0
H492 H 0.52974 0.58371 0.42888 0.0
H493 H 0.53392 0.54935 0.45913 0.0
H494 H 0.51924 0.60188 0.52069 0.0
H495 H 0.51417 0.6359 0.49033 0.0
H496 H 0.56182 0.53548 0.49331 0.0
H497 H 0.49744 0.56321 0.53272 0.0
H498 H 0.53565 0.49727 0.55952 0.0
H499 H 0.49137 0.48745 0.56738 0.0
H500 H 0.49661 0.56891 0.57837 0.0
H501 H 0.46544 0.56621 0.61169 0.0
H502 H 0.56555 0.49042 0.48204 0.0
H503 H 0.58213 0.49438 0.56276 0.0
H504 H 0.4602 0.48484 0.60086 0.0
H505 H 0.59899 0.45965 0.47682 0.0
H506 H 0.61525 0.46308 0.55751 0.0
C507 C 0.46665 0.48979 0.88903 0.0
C508 C 0.4738 0.48795 0.86359 0.0
C509 C 0.48478 0.48902 0.90869 0.0
C510 C 0.51058 0.4867 0.90342 0.0
C511 C 0.51799 0.4861 0.87797 0.0
C512 C 0.4997 0.48669 0.85817 0.0
C513 C 0.52928 0.48429 0.92472 0.0
C514 C 0.52401 0.46757 0.94444 0.0
C515 C 0.54023 0.46626 0.96596 0.0
C516 C 0.56222 0.48191 0.96735 0.0
C517 C 0.56818 0.49817 0.94741 0.0
C518 C 0.55173 0.49915 0.92605 0.0
C519 C 0.59164 0.51416 0.94894 0.0
C520 C 0.59711 0.52989 0.97031 0.0
C521 C 0.60897 0.51332 0.92923 0.0
C522 C 0.63159 0.52768 0.93101 0.0
C523 C 0.63707 0.54368 0.95226 0.0
C524 C 0.53399 0.44859 0.98681 0.0
C525 C 0.50859 0.44396 0.99318 0.0
C526 C 0.55312 0.43561 -2e-05 0.0
C527 C 0.54693 0.41824 0.01877 0.0
C528 C 0.52147 0.41333 0.02472 0.0
C529 C 0.50241 0.42633 0.01157 0.0
C530 C 0.61954 0.54463 0.97189 0.0
H531 H 0.44691 0.49161 0.89377 0.0
H532 H 0.47858 0.49015 0.92812 0.0
H533 H 0.53778 0.48439 0.87341 0.0
H534 H 0.50571 0.48543 0.8387 0.0
H535 H 0.50723 0.4553 0.94275 0.0
H536 H 0.55595 0.51215 0.91094 0.0
H537 H 0.57482 0.48149 0.98392 0.0
H538 H 0.58394 0.5309 0.98571 0.0
H539 H 0.60532 0.50103 0.91275 0.0
H540 H 0.64503 0.52575 0.91596 0.0
H541 H 0.49331 0.45384 0.98385 0.0
H542 H 0.57287 0.43838 0.9954 0.0
H543 H 0.62315 0.55679 0.98847 0.0
H544 H 0.48255 0.42249 0.01502 0.0
H545 H 0.56207 0.4085 0.02851 0.0
C546 C 0.63459 0.22019 0.2042 0.0
C547 C 0.6289 0.24554 0.19914 0.0
C548 C 0.6546 0.21454 0.22094 0.0
C549 C 0.66937 0.23414 0.2329 0.0
C550 C 0.66423 0.25947 0.22702 0.0
C551 C 0.64425 0.26509 0.2103 0.0
C552 C 0.68917 0.22831 0.25241 0.0
C553 C 0.70559 0.20799 0.24882 0.0
C554 C 0.7237 0.20183 0.26771 0.0
C555 C 0.72509 0.21647 0.29043 0.0
C556 C 0.70917 0.23716 0.29409 0.0
C557 C 0.69126 0.24285 0.27503 0.0
C558 C 0.71145 0.2532 0.31762 0.0
C559 C 0.71322 0.24215 0.34166 0.0
C560 C 0.7123 0.27984 0.31608 0.0
C561 C 0.71564 0.29505 0.338 0.0
C562 C 0.71796 0.28397 0.36194 0.0
C563 C 0.74104 0.18011 0.26382 0.0
C564 C 0.73253 0.15781 0.25067 0.0
C565 C 0.76615 0.18126 0.27368 0.0
C566 C 0.78191 0.16043 0.27128 0.0
C567 C 0.77317 0.13814 0.25853 0.0
C568 C 0.74847 0.13713 0.24793 0.0
C569 C 0.71627 0.25741 0.36364 0.0
H570 H 0.62303 0.20476 0.19584 0.0
H571 H 0.65794 0.19485 0.22521 0.0
H572 H 0.67558 0.27498 0.23551 0.0
H573 H 0.64067 0.28478 0.20624 0.0
H574 H 0.70455 0.19732 0.23102 0.0
H575 H 0.67843 0.25829 0.27816 0.0
H576 H 0.73867 0.2119 0.30534 0.0
H577 H 0.71236 0.22169 0.34344 0.0
H578 H 0.71111 0.2889 0.29782 0.0
H579 H 0.71689 0.3155 0.33625 0.0
H580 H 0.71327 0.15595 0.24314 0.0
H581 H 0.77367 0.19822 0.28339 0.0
H582 H 0.71818 0.24845 0.3819 0.0
H583 H 0.74117 0.11996 0.2384 0.0
H584 H 0.80091 0.16163 0.27961 0.0
C585 C 0.46962 0.14577 0.01445 0.0
C586 C 0.45962 0.14699 0.0388 0.0
C587 C 0.46669 0.1236 0.99961 0.0
C588 C 0.45403 0.10201 0.00897 0.0
C589 C 0.44471 0.1031 0.03375 0.0
C590 C 0.44736 0.12544 0.04847 0.0
C591 C 0.45014 0.07878 0.99263 0.0
C592 C 0.46904 0.07139 0.97587 0.0
C593 C 0.46515 0.05053 0.95909 0.0
C594 C 0.44214 0.03653 0.95978 0.0
C595 C 0.42335 0.04295 0.97703 0.0
C596 C 0.4274 0.06425 0.99322 0.0
C597 C 0.40004 0.02664 0.97865 0.0
C598 C 0.38777 0.0167 0.95647 0.0
C599 C 0.39118 0.01911 0.00239 0.0
C600 C 0.37163 0.00078 0.00386 0.0
C601 C 0.36065 0.98963 0.98164 0.0
C602 C 0.48513 0.04331 0.94094 0.0
C603 C 0.50047 0.06198 0.92966 0.0
C604 C 0.48895 0.01765 0.93462 0.0
C605 C 0.50712 0.0109 0.91712 0.0
C606 C 0.52236 0.02954 0.90578 0.0
C607 C 0.51905 0.05516 0.91253 0.0
C608 C 0.36828 0.9984 0.95796 0.0
H609 H 0.4789 0.16229 0.00655 0.0
H610 H 0.47374 0.12369 0.98049 0.0
H611 H 0.4353 0.08674 0.04179 0.0
H612 H 0.43964 0.12598 0.06732 0.0
H613 H 0.48706 0.08172 0.97621 0.0
H614 H 0.41254 0.06979 0.00585 0.0
H615 H 0.43888 0.02034 0.94703 0.0
H616 H 0.39377 0.02252 0.93791 0.0
H617 H 0.4003 0.02633 0.01982 0.0
H618 H 0.36612 0.99427 0.02234 0.0
H619 H 0.49799 0.08196 0.9338 0.0
H620 H 0.47801 0.00264 0.94327 0.0
H621 H 0.35978 0.99037 0.94056 0.0
H622 H 0.53088 0.06999 0.90469 0.0
H623 H 0.50907 0.99097 0.91229 0.0
Zn624 Zn 0.28984 0.84609 0.00162 0.0
Zn625 Zn 0.24681 0.87013 0.00281 0.0
O626 O 0.24874 0.85156 0.03766 0.0
O627 O 0.2865 0.83468 0.03736 0.0
O628 O 0.2145 0.89075 0.00421 0.0
O629 O 0.30971 0.87767 0.99431 0.0
O630 O 0.27442 0.89867 0.99793 0.0
C631 C 0.26615 0.83901 0.04865 0.0
C632 C 0.25524 0.82835 0.96209 0.0
O633 O 0.24145 0.84582 0.9711 0.0
O634 O 0.27659 0.82425 0.97251 0.0
C635 C 0.19566 0.88532 0.01791 0.0
O636 O 0.19633 0.86471 0.0315 0.0
C637 C 0.29822 0.89843 0.99408 0.0
Zn638 Zn 0.09687 0.45261 0.29274 0.0
Zn639 Zn 0.11903 0.49673 0.27907 0.0
O640 O 0.0966 0.50793 0.3088 0.0
O641 O 0.07996 0.47136 0.32078 0.0
O642 O 0.13763 0.52853 0.26792 0.0
O643 O 0.13078 0.43791 0.30048 0.0
O644 O 0.14889 0.47401 0.28939 0.0
C645 C 0.0826 0.4952 0.32358 0.0
C646 C 0.08414 0.46592 0.2414 0.0
O647 O 0.09869 0.48503 0.24687 0.0
O648 O 0.08017 0.44917 0.25786 0.0
C649 C 0.13191 0.55134 0.27305 0.0
O650 O 0.11206 0.55568 0.28688 0.0
C651 C 0.15057 0.45147 0.29755 0.0
Zn652 Zn 0.7891 0.59586 0.94338 0.0
Zn653 Zn 0.78197 0.61735 0.98943 0.0
O654 O 0.80873 0.59083 0.99771 0.0
O655 O 0.81281 0.57151 0.96066 0.0
O656 O 0.7772 0.63644 0.02244 0.0
O657 O 0.80289 0.62899 0.93011 0.0
O658 O 0.79427 0.64647 0.96699 0.0
C659 C 0.81865 0.57364 0.98411 0.0
C660 C 0.73747 0.59138 0.95955 0.0
O661 O 0.7467 0.60178 0.97992 0.0
O662 O 0.75141 0.58766 0.9407 0.0
C663 C 0.76216 0.63012 0.0398 0.0
O664 O 0.74868 0.60888 0.03708 0.0
C665 C 0.8024 0.64844 0.94455 0.0
Zn666 Zn 0.83984 0.9968 0.28489 0.0
Zn667 Zn 0.86712 0.00471 0.24389 0.0
O668 O 0.84476 0.03686 0.24593 0.0
O669 O 0.82366 0.03062 0.2809 0.0
O670 O 0.89003 0.01103 0.21385 0.0
O671 O 0.87079 0.99396 0.30699 0.0
O672 O 0.89383 0.00169 0.27365 0.0
C673 C 0.82884 0.04432 0.26217 0.0
C674 C 0.83133 0.95752 0.24735 0.0
O675 O 0.84715 0.97078 0.23491 0.0
O676 O 0.82473 0.96483 0.26915 0.0
C677 C 0.88611 0.00229 0.19135 0.0
O678 O 0.86546 0.98846 0.18626 0.0
C679 C 0.89228 0.99706 0.29728 0.0
Zn680 Zn 0.29381 0.09449 0.44169 0.0
Zn681 Zn 0.28614 0.11614 0.48784 0.0
O682 O 0.31597 0.09295 0.4954 0.0
O683 O 0.32108 0.07363 0.45853 0.0
O684 O 0.28027 0.13424 0.52115 0.0
O685 O 0.30283 0.1289 0.42761 0.0
O686 O 0.29409 0.14603 0.46466 0.0
C687 C 0.32741 0.07685 0.48177 0.0
C688 C 0.24372 0.08455 0.46025 0.0
O689 O 0.25253 0.09682 0.47974 0.0
O690 O 0.25719 0.08172 0.44089 0.0
C691 C 0.26878 0.12422 0.53949 0.0
O692 O 0.26062 0.10051 0.53717 0.0
C693 C 0.3007 0.14841 0.44174 0.0
Zn694 Zn 0.33794 0.49467 0.77731 0.0
Zn695 Zn 0.3656 0.50058 0.7371 0.0
O696 O 0.34482 0.53407 0.73874 0.0
O697 O 0.32238 0.52849 0.7729 0.0
O698 O 0.38856 0.50428 0.70669 0.0
O699 O 0.36847 0.49038 0.7999 0.0
O700 O 0.39215 0.49685 0.76674 0.0
C701 C 0.32842 0.54198 0.75429 0.0
C702 C 0.3267 0.45555 0.74073 0.0
O703 O 0.34391 0.46733 0.72859 0.0
O704 O 0.3204 0.46393 0.76225 0.0
C705 C 0.38472 0.51896 0.68814 0.0
O706 O 0.3643 0.53272 0.68783 0.0
C707 C 0.39014 0.4923 0.79031 0.0
Zn708 Zn 0.78595 0.34553 0.49507 0.0
Zn709 Zn 0.74456 0.37164 0.50311 0.0
O710 O 0.74748 0.34903 0.53518 0.0
O711 O 0.78103 0.32648 0.52719 0.0
O712 O 0.71366 0.39334 0.50931 0.0
O713 O 0.80767 0.37705 0.4945 0.0
O714 O 0.77334 0.39924 0.49978 0.0
C715 C 0.76295 0.33182 0.54153 0.0
C716 C 0.74914 0.3372 0.45519 0.0
O717 O 0.73587 0.35155 0.46913 0.0
O718 O 0.77151 0.3319 0.46201 0.0
C719 C 0.69107 0.38678 0.50244 0.0
O720 O 0.68704 0.36451 0.49122 0.0
C721 C 0.79717 0.3983 0.49627 0.0
Zn722 Zn 0.60492 0.95002 0.79739 0.0
Zn723 Zn 0.62673 0.99457 0.78577 0.0
O724 O 0.60325 0.00448 0.81482 0.0
O725 O 0.5887 0.96723 0.82715 0.0
O726 O 0.64541 0.02731 0.77778 0.0
O727 O 0.63886 0.93417 0.80207 0.0
O728 O 0.65649 0.97178 0.79609 0.0
C729 C 0.59005 0.99117 0.82979 0.0
C730 C 0.59171 0.96575 0.74686 0.0
O731 O 0.6072 0.9841 0.75253 0.0
O732 O 0.58715 0.94891 0.76305 0.0
C733 C 0.63829 0.04299 0.76115 0.0
O734 O 0.61693 0.0384 0.74832 0.0
C735 C 0.65849 0.9484 0.80138 0.0
Zn736 Zn 0.00859 0.28129 0.84108 0.0
Zn737 Zn 0.01131 0.2382 0.86624 0.0
O738 O 0.04496 0.23949 0.84591 0.0
O739 O 0.04266 0.27614 0.82663 0.0
O740 O 0.01464 0.20674 0.88801 0.0
O741 O 0.00631 0.30208 0.87306 0.0
O742 O 0.00839 0.26648 0.89409 0.0
C743 C 0.05464 0.25626 0.83159 0.0
C744 C 0.96741 0.2464 0.8276 0.0
O745 O 0.97819 0.23251 0.84409 0.0
O746 O 0.97704 0.26795 0.8227 0.0
C747 C 0.0043 0.18501 0.88328 0.0
O748 O 0.99045 0.18164 0.86235 0.0
C749 C 0.00664 0.2906 0.89392 0.0
Zn750 Zn 0.49879 0.78986 0.34329 0.0
Zn751 Zn 0.50783 0.74702 0.36698 0.0
O752 O 0.53738 0.74926 0.34154 0.0
O753 O 0.52705 0.78277 0.31958 0.0
O754 O 0.51514 0.71591 0.38812 0.0
O755 O 0.50574 0.81114 0.37469 0.0
O756 O 0.50857 0.77528 0.39515 0.0
C757 C 0.54155 0.76436 0.32334 0.0
C758 C 0.4569 0.7545 0.33848 0.0
O759 O 0.47234 0.73981 0.34963 0.0
O760 O 0.46318 0.77743 0.33474 0.0
C761 C 0.50512 0.69381 0.38488 0.0
O762 O 0.48902 0.68962 0.36572 0.0
C763 C 0.50837 0.7995 0.39532 0.0
Zn764 Zn 0.94887 0.7891 0.60573 0.0
Zn765 Zn 0.99419 0.78389 0.62935 0.0
O766 O 0.00112 0.81393 0.60567 0.0
O767 O 0.96424 0.81766 0.58578 0.0
O768 O 0.02741 0.7782 0.64822 0.0
O769 O 0.93279 0.79573 0.63915 0.0
O770 O 0.96991 0.7916 0.65857 0.0
C771 C 0.98716 0.82492 0.58931 0.0
C772 C 0.96885 0.74002 0.59732 0.0
O773 O 0.98743 0.74942 0.61067 0.0
O774 O 0.9496 0.75316 0.59262 0.0
C775 C 0.04926 0.7834 0.63978 0.0
O776 O 0.05105 0.79352 0.61729 0.0
C777 C 0.94619 0.7955 0.65941 0.0
Zn778 Zn 0.44546 0.29615 0.09963 0.0
Zn779 Zn 0.49 0.28684 0.12336 0.0
O780 O 0.49918 0.31722 0.10094 0.0
O781 O 0.46201 0.32686 0.08402 0.0
O782 O 0.52251 0.28021 0.14295 0.0
O783 O 0.42857 0.29975 0.13298 0.0
O784 O 0.4655 0.29459 0.15244 0.0
C785 C 0.48558 0.3314 0.0871 0.0
C786 C 0.46349 0.24624 0.08854 0.0
O787 O 0.48177 0.25333 0.10356 0.0
O788 O 0.44593 0.26135 0.08317 0.0
C789 C 0.54028 0.26653 0.135 0.0
O790 O 0.53802 0.25592 0.11225 0.0
C791 C 0.44179 0.29857 0.15327 0.0
C792 C 0.22175 0.8092 0.89924 0.0
C793 C 0.2353 0.78791 0.89119 0.0
C794 C 0.22762 0.8217 0.92259 0.0
C795 C 0.24743 0.81352 0.93867 0.0
H796 H 0.20658 0.81634 0.88733 0.0
H797 H 0.21698 0.83827 0.92773 0.0
S798 S 0.28848 0.75841 0.92634 0.0
N799 N 0.26933 0.75921 0.90113 0.0
N800 N 0.28006 0.78209 0.94498 0.0
C801 C 0.26076 0.79188 0.93097 0.0
C802 C 0.25478 0.77926 0.90727 0.0
C803 C 0.05159 0.50439 0.38657 0.0
C804 C 0.03651 0.52572 0.38275 0.0
C805 C 0.06728 0.49539 0.36761 0.0
C806 C 0.06898 0.50765 0.34427 0.0
H807 H 0.05082 0.49413 0.40417 0.0
H808 H 0.0778 0.47833 0.37107 0.0
S809 S 0.03463 0.56489 0.32489 0.0
N810 N 0.02485 0.55929 0.35383 0.0
N811 N 0.05533 0.54277 0.31855 0.0
C812 C 0.05516 0.52975 0.34056 0.0
C813 C 0.03871 0.53872 0.35974 0.0
C814 C 0.80787 0.71994 0.93725 0.0
C815 C 0.82264 0.7225 0.91559 0.0
C816 C 0.80207 0.69595 0.94695 0.0
C817 C 0.81046 0.67362 0.93505 0.0
H818 H 0.80047 0.73661 0.94655 0.0
H819 H 0.7903 0.69491 0.96346 0.0
S820 S 0.85032 0.67029 0.87807 0.0
N821 N 0.84605 0.70094 0.88284 0.0
N822 N 0.83513 0.65582 0.90089 0.0
C823 C 0.8257 0.67603 0.91363 0.0
C824 C 0.83181 0.70047 0.90397 0.0
C825 C 0.93371 0.97885 0.35337 0.0
C826 C 0.95672 0.99216 0.34972 0.0
C827 C 0.9134 0.9802 0.33594 0.0
C828 C 0.9152 0.9947 0.31389 0.0
H829 H 0.93124 0.9674 0.37003 0.0
H830 H 0.896 0.96985 0.33996 0.0
S831 S 0.97153 0.03256 0.29483 0.0
N832 N 0.98035 0.02004 0.32208 0.0
N833 N 0.94215 0.02208 0.28887 0.0
C834 C 0.93837 0.00742 0.30942 0.0
C835 C 0.95912 0.00625 0.32742 0.0
C836 C 0.26965 0.17995 0.58647 0.0
C837 C 0.25445 0.17116 0.60614 0.0
C838 C 0.2743 0.16455 0.56521 0.0
C839 C 0.26406 0.13963 0.56277 0.0
H840 H 0.27762 0.19911 0.58725 0.0
H841 H 0.2859 0.17241 0.55048 0.0
S842 S 0.22403 0.10716 0.60989 0.0
N843 N 0.22997 0.1357 0.62249 0.0
N844 N 0.23855 0.10666 0.58251 0.0
C845 C 0.24916 0.13044 0.5826 0.0
C846 C 0.24436 0.14623 0.60424 0.0
C847 C 0.44272 0.50648 0.6483 0.0
C848 C 0.44041 0.52383 0.62845 0.0
C849 C 0.42467 0.50503 0.6674 0.0
C850 C 0.4034 0.52074 0.66738 0.0
H851 H 0.45884 0.49415 0.64929 0.0
H852 H 0.42751 0.49147 0.68233 0.0
S853 S 0.3879 0.56851 0.61869 0.0
N854 N 0.41472 0.55635 0.60931 0.0
N855 N 0.3809 0.55384 0.6451 0.0
C856 C 0.40072 0.53796 0.64737 0.0
C857 C 0.41917 0.53947 0.62799 0.0
C858 C 0.77151 0.28021 0.59002 0.0
C859 C 0.75843 0.28912 0.61115 0.0
C860 C 0.77249 0.29409 0.5677 0.0
C861 C 0.76024 0.31744 0.56537 0.0
H862 H 0.78154 0.26253 0.59089 0.0
H863 H 0.78309 0.28638 0.55212 0.0
S864 S 0.72254 0.34866 0.61503 0.0
N865 N 0.73238 0.32239 0.62834 0.0
N866 N 0.73403 0.34856 0.58615 0.0
C867 C 0.74663 0.32639 0.58622 0.0
C868 C 0.74586 0.31227 0.60917 0.0
C869 C 0.57475 0.97832 0.67758 0.0
C870 C 0.55359 0.96201 0.67274 0.0
C871 C 0.58693 0.97953 0.70161 0.0
C872 C 0.57862 0.96419 0.72153 0.0
H873 H 0.58169 0.99045 0.66278 0.0
H874 H 0.60305 0.99251 0.70453 0.0
S875 S 0.52442 0.9176 0.7179 0.0
N876 N 0.52518 0.92981 0.68932 0.0
N877 N 0.54789 0.93188 0.73438 0.0
C878 C 0.55759 0.94757 0.71668 0.0
C879 C 0.54513 0.94655 0.69233 0.0
C880 C 0.91152 0.24654 0.78078 0.0
C881 C 0.89498 0.22753 0.78957 0.0
C882 C 0.93504 0.25182 0.79284 0.0
C883 C 0.94322 0.23833 0.81426 0.0
H884 H 0.90618 0.25758 0.76445 0.0
H885 H 0.9468 0.26692 0.78534 0.0
S886 S 0.90723 0.18617 0.84458 0.0
N887 N 0.88849 0.19476 0.8208 0.0
N888 N 0.93299 0.20454 0.8434 0.0
C889 C 0.92719 0.21873 0.82289 0.0
C890 C 0.90305 0.21337 0.81057 0.0
C891 C 0.51902 0.85554 0.44078 0.0
C892 C 0.50897 0.84673 0.4635 0.0
C893 C 0.51949 0.83978 0.41911 0.0
C894 C 0.51028 0.81448 0.41942 0.0
H895 H 0.52556 0.87512 0.43941 0.0
H896 H 0.52666 0.8477 0.4018 0.0
S897 S 0.48397 0.7817 0.47497 0.0
N898 N 0.49089 0.81083 0.48561 0.0
N899 N 0.49217 0.78091 0.44492 0.0
C900 C 0.50131 0.80504 0.4424 0.0
C901 C 0.50049 0.82127 0.46441 0.0
C902 C 0.10984 0.22746 0.79704 0.0
C903 C 0.12558 0.2489 0.79283 0.0
C904 C 0.08747 0.22953 0.81087 0.0
C905 C 0.07988 0.25321 0.8204 0.0
H906 H 0.11467 0.20907 0.78926 0.0
H907 H 0.07552 0.21275 0.81313 0.0
S908 S 0.1149 0.31484 0.81534 0.0
N909 N 0.13235 0.29429 0.80004 0.0
N910 N 0.09051 0.29822 0.82576 0.0
C911 C 0.09585 0.27458 0.81689 0.0
C912 C 0.11864 0.27242 0.80317 0.0
C913 C 0.50292 0.62951 0.41691 0.0
C914 C 0.5187 0.63336 0.43866 0.0
C915 C 0.4989 0.64903 0.39958 0.0
C916 C 0.5106 0.67324 0.40318 0.0
H917 H 0.49317 0.61138 0.41348 0.0
H918 H 0.48629 0.64509 0.38335 0.0
S919 S 0.55511 0.69252 0.45638 0.0
N920 N 0.54712 0.66276 0.46225 0.0
N921 N 0.53955 0.69949 0.42993 0.0
C922 C 0.52686 0.67716 0.42466 0.0
C923 C 0.53088 0.65726 0.44232 0.0
C924 C 0.93443 0.81774 0.72702 0.0
C925 C 0.90887 0.81039 0.73014 0.0
C926 C 0.94677 0.81226 0.70431 0.0
C927 C 0.93384 0.79947 0.68396 0.0
H928 H 0.94474 0.82839 0.74193 0.0
H929 H 0.96625 0.81879 0.70239 0.0
S930 S 0.86804 0.77286 0.68404 0.0
N931 N 0.8721 0.78708 0.7121 0.0
N932 N 0.89496 0.77742 0.66932 0.0
C933 C 0.90864 0.79113 0.68728 0.0
C934 C 0.89624 0.79643 0.71039 0.0
C935 C 0.99133 0.87433 0.53806 0.0
C936 C 0.01506 0.88643 0.54288 0.0
C937 C 0.98267 0.85459 0.55319 0.0
C938 C 0.99737 0.84594 0.57383 0.0
H939 H 0.97939 0.87993 0.52219 0.0
H940 H 0.96427 0.84595 0.54843 0.0
S941 S 0.06077 0.87177 0.595 0.0
N942 N 0.05301 0.88884 0.57014 0.0
N943 N 0.03689 0.85137 0.5985 0.0
C944 C 0.02123 0.85784 0.57891 0.0
C945 C 0.03004 0.87812 0.56346 0.0
C946 C 0.09168 0.75402 0.6901 0.0
C947 C 0.11599 0.76365 0.68467 0.0
C948 C 0.07029 0.76074 0.67565 0.0
C949 C 0.07235 0.77714 0.65495 0.0
H950 H 0.08914 0.74136 0.70584 0.0
H951 H 0.05201 0.75277 0.68065 0.0
S952 S 0.13199 0.80723 0.63272 0.0
N953 N 0.14108 0.79023 0.65718 0.0
N954 N 0.10093 0.80286 0.62985 0.0
C955 C 0.09664 0.78686 0.64928 0.0
C956 C 0.11841 0.78015 0.66419 0.0
C957 C 0.94565 0.67622 0.57057 0.0
C958 C 0.96795 0.66524 0.5621 0.0
C959 C 0.94631 0.70016 0.58256 0.0
C960 C 0.96936 0.7138 0.5869 0.0
H961 H 0.92742 0.66671 0.56693 0.0
H962 H 0.92854 0.70823 0.58809 0.0
S963 S 0.03328 0.69227 0.57 0.0
N964 N 0.01382 0.66896 0.55985 0.0
N965 N 0.01521 0.71389 0.58299 0.0
C966 C 0.99196 0.70247 0.57958 0.0
C967 C 0.99121 0.67822 0.56696 0.0
C968 C 0.79631 0.90769 0.20574 0.0
C969 C 0.79589 0.88646 0.22159 0.0
C970 C 0.80912 0.93044 0.21344 0.0
C971 C 0.82126 0.93275 0.23748 0.0
H972 H 0.78638 0.90678 0.18747 0.0
H973 H 0.80855 0.9466 0.20105 0.0
S974 S 0.82622 0.88253 0.28559 0.0
N975 N 0.80948 0.86899 0.26188 0.0
N976 N 0.83288 0.91174 0.27659 0.0
C977 C 0.82138 0.91149 0.25318 0.0
C978 C 0.80885 0.88833 0.24518 0.0
C979 C 0.79681 0.10499 0.28167 0.0
C980 C 0.78893 0.11521 0.25843 0.0
C981 C 0.81009 0.08233 0.2825 0.0
C982 C 0.81647 0.06919 0.2601 0.0
H983 H 0.79201 0.11421 0.2994 0.0
H984 H 0.81526 0.07493 0.30091 0.0
S985 S 0.80131 0.0888 0.19433 0.0
N986 N 0.78897 0.11104 0.21243 0.0
N987 N 0.8146 0.06861 0.21395 0.0
C988 C 0.80944 0.07965 0.23668 0.0
C989 C 0.79543 0.10257 0.23585 0.0
C990 C 0.32169 0.96739 0.9979 0.0
C991 C 0.34355 0.96695 0.98315 0.0
C992 C 0.3064 0.94539 0.00063 0.0
C993 C 0.31285 0.92214 0.98919 0.0
H994 H 0.31652 0.9848 0.00752 0.0
H995 H 0.28994 0.9464 0.01245 0.0
S996 S 0.36797 0.91122 0.94828 0.0
N997 N 0.37057 0.94154 0.95664 0.0
N998 N 0.34214 0.90034 0.96184 0.0
C999 C 0.33446 0.92166 0.97409 0.0
C1000 C 0.34974 0.94402 0.97106 0.0
C1001 C 0.1996 0.41171 0.33045 0.0
C1002 C 0.22148 0.41579 0.31622 0.0
C1003 C 0.177 0.42383 0.32452 0.0
C1004 C 0.17544 0.4409 0.30442 0.0
H1005 H 0.19976 0.3986 0.34604 0.0
H1006 H 0.16051 0.41957 0.33567 0.0
S1007 S 0.22733 0.4591 0.2618 0.0
N1008 N 0.24021 0.43854 0.28126 0.0
N1009 N 0.19778 0.46213 0.27079 0.0
C1010 C 0.19737 0.44613 0.2907 0.0
C1011 C 0.2204 0.43341 0.29647 0.0
C1012 C 0.18011 0.05745 0.43627 0.0
C1013 C 0.16934 0.04754 0.45827 0.0
C1014 C 0.20401 0.06967 0.43719 0.0
C1015 C 0.21793 0.07287 0.4602 0.0
H1016 H 0.17003 0.05574 0.41812 0.0
H1017 H 0.21163 0.07672 0.41969 0.0
S1018 S 0.19879 0.0499 0.52315 0.0
N1019 N 0.175 0.04108 0.50369 0.0
N1020 N 0.21946 0.06501 0.5055 0.0
C1021 C 0.20729 0.06349 0.48243 0.0
C1022 C 0.18311 0.05062 0.48145 0.0
C1023 C 0.69232 0.09211 0.76678 0.0
C1024 C 0.68766 0.10809 0.74619 0.0
C1025 C 0.6761 0.07138 0.77157 0.0
C1026 C 0.65452 0.0657 0.75595 0.0
H1027 H 0.70862 0.09571 0.77939 0.0
H1028 H 0.68064 0.05968 0.78766 0.0
S1029 S 0.63433 0.10134 0.69901 0.0
N1030 N 0.66031 0.11659 0.70967 0.0
N1031 N 0.6296 0.07783 0.71874 0.0
C1032 C 0.64958 0.08164 0.73532 0.0
C1033 C 0.66617 0.10277 0.73044 0.0
C1034 C 0.3758 0.02521 0.48881 0.0
C1035 C 0.38831 0.03138 0.51209 0.0
C1036 C 0.35615 0.03998 0.47935 0.0
C1037 C 0.34804 0.06151 0.49281 0.0
H1038 H 0.38113 0.00868 0.47782 0.0
H1039 H 0.34719 0.0343 0.46132 0.0
S1040 S 0.37508 0.08627 0.55449 0.0
N1041 N 0.39167 0.06083 0.5482 0.0
N1042 N 0.35434 0.08844 0.53065 0.0
C1043 C 0.36027 0.06785 0.51626 0.0
C1044 C 0.38046 0.05282 0.52584 0.0
C1045 C 0.65438 0.44468 0.52378 0.0
C1046 C 0.62979 0.43975 0.51356 0.0
C1047 C 0.67396 0.42745 0.52021 0.0
C1048 C 0.66973 0.40442 0.50645 0.0
H1049 H 0.65865 0.46224 0.53425 0.0
H1050 H 0.69259 0.43233 0.52824 0.0
S1051 S 0.60812 0.38192 0.4771 0.0
N1052 N 0.60195 0.4098 0.49005 0.0
N1053 N 0.63851 0.37742 0.48326 0.0
C1054 C 0.64502 0.39909 0.49655 0.0
C1055 C 0.62515 0.41673 0.50008 0.0
C1056 C 0.70902 0.29932 0.40627 0.0
C1057 C 0.72442 0.29988 0.38483 0.0
C1058 C 0.7162 0.31285 0.42874 0.0
C1059 C 0.73928 0.32679 0.43055 0.0
H1060 H 0.69157 0.28802 0.40577 0.0
H1061 H 0.70429 0.31139 0.44511 0.0
S1062 S 0.78579 0.33495 0.37959 0.0
N1063 N 0.76315 0.31635 0.3666 0.0
N1064 N 0.7769 0.34117 0.40883 0.0
C1065 C 0.75444 0.32796 0.40905 0.0
C1066 C 0.74695 0.31465 0.38617 0.0
C1067 C 0.55618 1.0004 0.89143 0.0
C1068 C 0.5415 0.02192 0.88699 0.0
C1069 C 0.57248 0.99113 0.87311 0.0
C1070 C 0.57522 0.0033 0.84982 0.0
H1071 H 0.55472 0.99031 0.90907 0.0
H1072 H 0.58279 0.97405 0.87707 0.0
S1073 S 0.54172 0.06048 0.82869 0.0
N1074 N 0.53093 0.05516 0.85729 0.0
N1075 N 0.56256 0.03825 0.82334 0.0
C1076 C 0.56158 0.02541 0.84543 0.0
C1077 C 0.54451 0.03461 0.8639 0.0
C1078 C 0.32477 0.20006 0.39863 0.0
C1079 C 0.31413 0.2221 0.40876 0.0
C1080 C 0.3205 0.17638 0.40959 0.0
C1081 C 0.30572 0.17393 0.43133 0.0
H1082 H 0.33589 0.20101 0.38165 0.0
H1083 H 0.32876 0.15986 0.40085 0.0
S1084 S 0.2747 0.22638 0.46579 0.0
N1085 N 0.28891 0.24037 0.44204 0.0
N1086 N 0.28107 0.19593 0.46301 0.0
C1087 C 0.29555 0.19603 0.44205 0.0
C1088 C 0.29967 0.22009 0.43065 0.0
C1089 C 0.45503 0.50332 0.82236 0.0
C1090 C 0.45392 0.48683 0.84306 0.0
C1091 C 0.43479 0.5043 0.80449 0.0
C1092 C 0.41279 0.48898 0.80694 0.0
H1093 H 0.47117 0.51622 0.82055 0.0
H1094 H 0.43588 0.51791 0.78938 0.0
S1095 S 0.4025 0.43964 0.85515 0.0
N1096 N 0.43054 0.45254 0.8629 0.0
N1097 N 0.39242 0.45482 0.82985 0.0
C1098 C 0.41216 0.47145 0.8267 0.0
C1099 C 0.43275 0.47027 0.84462 0.0
C1100 C 0.73626 0.65745 0.10102 0.0
C1101 C 0.74957 0.68081 0.10417 0.0
C1102 C 0.74083 0.64099 0.08048 0.0
C1103 C 0.75877 0.64731 0.06214 0.0
H1104 H 0.72217 0.65184 0.11456 0.0
H1105 H 0.72992 0.62331 0.07885 0.0
S1106 S 0.79838 0.70668 0.06164 0.0
N1107 N 0.78119 0.70967 0.08719 0.0
N1108 N 0.79003 0.67882 0.04873 0.0
C1109 C 0.77238 0.67061 0.06525 0.0
C1110 C 0.76773 0.68731 0.08621 0.0
C1111 C 0.91875 0.99853 0.12769 0.0
C1112 C 0.94099 0.01352 0.13173 0.0
C1113 C 0.9011 0.99531 0.14692 0.0
C1114 C 0.90498 0.00679 0.17116 0.0
H1115 H 0.91485 0.98931 0.10939 0.0
H1116 H 0.88433 0.98354 0.14271 0.0
S1117 S 0.96072 0.04741 0.19171 0.0
N1118 N 0.96625 0.03959 0.1619 0.0
N1119 N 0.93318 0.0337 0.19806 0.0
C1120 C 0.92722 0.02186 0.17546 0.0
C1121 C 0.94515 0.0252 0.15577 0.0
C1122 C 0.23713 0.80397 0.10369 0.0
C1123 C 0.25817 0.80111 0.12032 0.0
C1124 C 0.23934 0.81763 0.08111 0.0
C1125 C 0.26281 0.82834 0.07419 0.0
H1126 H 0.21897 0.79525 0.10798 0.0
H1127 H 0.22289 0.81879 0.06847 0.0
S1128 S 0.32332 0.82705 0.11168 0.0
N1129 N 0.30289 0.81092 0.12872 0.0
N1130 N 0.30712 0.83621 0.08638 0.0
C1131 C 0.28375 0.82618 0.09104 0.0
C1132 C 0.28142 0.81265 0.11407 0.0
C1133 C 0.03754 0.44282 0.18936 0.0
C1134 C 0.04415 0.45756 0.1685 0.0
C1135 C 0.05079 0.44555 0.21264 0.0
C1136 C 0.07103 0.46333 0.21615 0.0
H1137 H 0.02209 0.42891 0.18759 0.0
H1138 H 0.04484 0.43371 0.22811 0.0
S1139 S 0.09553 0.50679 0.16728 0.0
N1140 N 0.07206 0.49063 0.1526 0.0
N1141 N 0.09701 0.49597 0.19648 0.0
C1142 C 0.07783 0.47826 0.19536 0.0
C1143 C 0.06441 0.47527 0.17152 0.0
C1144 C 0.38734 0.75453 0.3198 0.0
C1145 C 0.38438 0.73342 0.30304 0.0
C1146 C 0.41063 0.76046 0.33214 0.0
C1147 C 0.43177 0.74518 0.3288 0.0
H1148 H 0.37168 0.76702 0.32295 0.0
H1149 H 0.41227 0.77751 0.34397 0.0
S1150 S 0.43431 0.68728 0.28805 0.0
N1151 N 0.40492 0.69693 0.2842 0.0
N1152 N 0.44834 0.70758 0.30852 0.0
C1153 C 0.42892 0.7233 0.31328 0.0
C1154 C 0.4053 0.71751 0.30017 0.0
C1155 C 0.01011 0.34694 0.93976 0.0
C1156 C 0.99872 0.33752 0.96157 0.0
C1157 C 0.01299 0.33139 0.91825 0.0
C1158 C 0.00493 0.3057 0.91781 0.0
H1159 H 0.0161 0.36673 0.939 0.0
H1160 H 0.02139 0.33971 0.9017 0.0
S1161 S 0.9753 0.2715 0.97078 0.0
N1162 N 0.98018 0.30078 0.98197 0.0
N1163 N 0.98598 0.27128 0.94157 0.0
C1164 C 0.99431 0.29578 0.93985 0.0
C1165 C 0.99103 0.31179 0.96169 0.0
C1166 C 0.60772 0.74872 0.30136 0.0
C1167 C 0.60838 0.75961 0.27718 0.0
C1168 C 0.58572 0.74938 0.31587 0.0
C1169 C 0.56377 0.76136 0.30687 0.0
H1170 H 0.62438 0.73974 0.30916 0.0
H1171 H 0.5862 0.74115 0.33455 0.0
S1172 S 0.55569 0.79229 0.24447 0.0
N1173 N 0.58511 0.78235 0.24477 0.0
N1174 N 0.54391 0.78358 0.27177 0.0
C1175 C 0.56413 0.77191 0.2825 0.0
C1176 C 0.58638 0.77104 0.26773 0.0
C1177 C 0.02565 0.1487 0.94175 0.0
C1178 C 0.0143 0.12444 0.9378 0.0
C1179 C 0.02244 0.16799 0.924 0.0
C1180 C 0.0076 0.16393 0.90155 0.0
H1181 H 0.03735 0.15276 0.95862 0.0
H1182 H 0.03169 0.18627 0.92801 0.0
S1183 S 0.9728 0.10395 0.88284 0.0
N1184 N 0.98695 0.0976 0.91022 0.0
N1185 N 0.98096 0.13363 0.8768 0.0
C1186 C 0.996 0.13973 0.89748 0.0
C1187 C 0.99935 0.12008 0.91556 0.0
C1188 C 0.4294 0.31947 0.22113 0.0
C1189 C 0.40367 0.31246 0.22367 0.0
C1190 C 0.44204 0.31417 0.19857 0.0
C1191 C 0.42927 0.30188 0.17782 0.0
H1192 H 0.43957 0.32979 0.23637 0.0
H1193 H 0.46162 0.32053 0.19703 0.0
S1194 S 0.36314 0.27609 0.17642 0.0
N1195 N 0.3669 0.28986 0.20472 0.0
N1196 N 0.39038 0.28049 0.16224 0.0
C1197 C 0.40394 0.29375 0.18062 0.0
C1198 C 0.39122 0.29888 0.20356 0.0
C1199 C 0.52613 0.36988 0.04298 0.0
C1200 C 0.51452 0.39372 0.04348 0.0
C1201 C 0.51761 0.35002 0.05826 0.0
C1202 C 0.49698 0.35326 0.0742 0.0
H1203 H 0.54114 0.36615 0.02989 0.0
H1204 H 0.52634 0.33169 0.05661 0.0
S1205 S 0.46271 0.41274 0.08571 0.0
N1206 N 0.48362 0.42019 0.06411 0.0
N1207 N 0.46685 0.38245 0.0917 0.0
C1208 C 0.48607 0.37721 0.07588 0.0
C1209 C 0.49504 0.39756 0.06081 0.0
C1210 C 0.60273 0.23975 0.15888 0.0
C1211 C 0.60648 0.25156 0.18289 0.0
C1212 C 0.58147 0.24494 0.14344 0.0
C1213 C 0.56299 0.26198 0.15151 0.0
H1214 H 0.61643 0.22649 0.15191 0.0
H1215 H 0.57947 0.23532 0.12512 0.0
S1216 S 0.56372 0.2972 0.21338 0.0
N1217 N 0.58979 0.28053 0.21436 0.0
N1218 N 0.54994 0.29046 0.18548 0.0
C1219 C 0.56656 0.27387 0.17559 0.0
C1220 C 0.58826 0.26863 0.19122 0.0
C1221 C 0.48384 0.18381 0.0592 0.0
C1222 C 0.46049 0.17134 0.05324 0.0
C1223 C 0.48478 0.20778 0.07139 0.0
C1224 C 0.46237 0.22026 0.07738 0.0
H1225 H 0.50145 0.17505 0.05423 0.0
H1226 H 0.50311 0.2169 0.07544 0.0
S1227 S 0.39653 0.19515 0.06625 0.0
N1228 N 0.4146 0.17274 0.0548 0.0
N1229 N 0.41622 0.21788 0.07725 0.0
C1230 C 0.43894 0.20774 0.0718 0.0
C1231 C 0.43804 0.18324 0.05984 0.0
C1232 C 0.28108 0.39878 0.73627 0.0
C1233 C 0.28956 0.38439 0.71559 0.0
C1234 C 0.29294 0.42184 0.74363 0.0
C1235 C 0.31395 0.43173 0.73072 0.0
H1236 H 0.26543 0.39187 0.74735 0.0
H1237 H 0.28562 0.43181 0.75994 0.0
S1238 S 0.34283 0.40206 0.67427 0.0
N1239 N 0.3196 0.38207 0.68144 0.0
N1240 N 0.34221 0.42557 0.69547 0.0
C1241 C 0.32239 0.41783 0.70958 0.0
C1242 C 0.31021 0.39412 0.70206 0.0
C1243 C 0.27939 0.5929 0.76111 0.0
C1244 C 0.28991 0.61372 0.7485 0.0
C1245 C 0.29194 0.56987 0.76243 0.0
C1246 C 0.31548 0.56649 0.75095 0.0
H1247 H 0.26152 0.59458 0.77061 0.0
H1248 H 0.28304 0.55459 0.77271 0.0
S1249 S 0.3506 0.61488 0.71449 0.0
N1250 N 0.32489 0.62947 0.72361 0.0
N1251 N 0.34847 0.58587 0.72578 0.0
C1252 C 0.32598 0.58697 0.73768 0.0
C1253 C 0.31326 0.61068 0.73662 0.0
C1254 C 0.82261 0.46648 0.50366 0.0
C1255 C 0.84408 0.46634 0.48836 0.0
C1256 C 0.80699 0.4446 0.50573 0.0
C1257 C 0.81277 0.42175 0.49308 0.0
H1258 H 0.81788 0.4836 0.51404 0.0
H1259 H 0.79069 0.44539 0.51777 0.0
S1260 S 0.86692 0.41178 0.45061 0.0
N1261 N 0.87018 0.4417 0.46026 0.0
N1262 N 0.84123 0.40067 0.46425 0.0
C1263 C 0.83417 0.42155 0.47764 0.0
C1264 C 0.84973 0.44381 0.47527 0.0
C1265 C 0.70933 0.89977 0.81018 0.0
C1266 C 0.72983 0.91391 0.82136 0.0
C1267 C 0.68664 0.91127 0.80336 0.0
C1268 C 0.68353 0.93749 0.8071 0.0
H1269 H 0.71076 0.87952 0.80674 0.0
H1270 H 0.67133 0.89942 0.79516 0.0
S1271 S 0.73148 0.98326 0.83525 0.0
N1272 N 0.74564 0.95565 0.83575 0.0
N1273 N 0.70303 0.97749 0.82224 0.0
C1274 C 0.70409 0.95209 0.81755 0.0
C1275 C 0.72723 0.94026 0.82481 0.0
C1276 C 0.67582 0.55886 0.97744 0.0
C1277 C 0.66154 0.55837 0.95443 0.0
C1278 C 0.69995 0.57067 0.97933 0.0
C1279 C 0.71082 0.58207 0.95817 0.0
H1280 H 0.66873 0.54924 0.9939 0.0
H1281 H 0.71061 0.56986 0.99715 0.0
S1282 S 0.68001 0.5894 0.89477 0.0
N1283 N 0.65893 0.57322 0.91101 0.0
N1284 N 0.7047 0.59439 0.9143 0.0
C1285 C 0.69639 0.58271 0.93542 0.0
C1286 C 0.67167 0.57112 0.9336 0.0
C1287 C 0.16124 0.61777 0.26808 0.0
C1288 C 0.18089 0.61431 0.2509 0.0
C1289 C 0.14524 0.59743 0.27477 0.0
C1290 C 0.14825 0.5728 0.26455 0.0
H1291 H 0.15862 0.63621 0.27695 0.0
H1292 H 0.13074 0.60099 0.28847 0.0
S1293 S 0.19525 0.5544 0.21662 0.0
N1294 N 0.20124 0.58492 0.22227 0.0
N1295 N 0.17146 0.54664 0.23493 0.0
C1296 C 0.16738 0.5693 0.24671 0.0
C1297 C 0.18361 0.59004 0.23989 0.0
C1298 C 0.86121 0.51707 0.99097 0.0
C1299 C 0.87452 0.5221 0.01406 0.0
C1300 C 0.84301 0.53367 0.98175 0.0
C1301 C 0.83721 0.55601 0.99528 0.0
H1302 H 0.86492 0.50012 0.97984 0.0
H1303 H 0.83346 0.52891 0.96377 0.0
S1304 S 0.86688 0.5781 0.05676 0.0
N1305 N 0.88088 0.55114 0.05024 0.0
N1306 N 0.84627 0.58223 0.03315 0.0
C1307 C 0.85007 0.5611 0.01867 0.0
C1308 C 0.86878 0.54419 0.028 0.0
C1309 C 0.15288 0.94144 0.00548 0.0
C1310 C 0.13282 0.93752 0.02216 0.0
C1311 C 0.17294 0.92444 0.00412 0.0
C1312 C 0.1737 0.90264 0.01923 0.0
H1313 H 0.15332 0.95806 0.99369 0.0
H1314 H 0.18805 0.92855 0.99117 0.0
S1315 S 0.12473 0.88292 0.06488 0.0
N1316 N 0.11428 0.9097 0.05326 0.0
N1317 N 0.15179 0.87778 0.05085 0.0
C1318 C 0.15342 0.89828 0.03566 0.0
C1319 C 0.13308 0.91569 0.0371 0.0
loop_
_geom_bond_atom_site_label_1
_geom_bond_atom_site_label_2
_geom_bond_distance
_geom_bond_site_symmetry_2
_ccdc_geom_bond_type
C0 C1 1.386 . S
C0 C2 1.397 . S
C0 H24 0.931 . S
C1 C0 1.386 . S
C1 C5 1.397 1_556 S
C2 C0 1.397 . S
C2 C3 1.384 1_556 S
C2 H25 0.930 . S
C3 C2 1.384 1_554 S
C3 C4 1.377 . S
C3 C6 1.481 . S
C4 C3 1.377 . S
C4 C5 1.389 . S
C4 H26 0.929 . S
C5 C1 1.397 1_554 S
C5 C4 1.389 . S
C5 H27 0.931 . S
C6 C3 1.481 . S
C6 C7 1.387 . S
C6 C11 1.390 . S
C7 C6 1.387 . S
C7 C8 1.401 . S
C7 H28 0.930 . S
C8 C7 1.401 . S
C8 C9 1.376 . S
C8 C17 1.511 . S
C9 C8 1.376 . S
C9 C10 1.392 . S
C9 H30 0.931 . S
C10 C9 1.392 . S
C10 C11 1.361 . S
C10 C12 1.500 . S
C11 C6 1.390 . S
C11 C10 1.361 . S
C11 H29 0.931 . S
C12 C10 1.500 . S
C12 C13 1.371 . S
C12 C14 1.365 1_455 S
C13 C12 1.371 . S
C13 C23 1.386 1_455 S
C13 H31 0.931 1_545 S
C14 C12 1.365 1_655 S
C14 C15 1.409 . S
C14 H32 0.929 1_655 S
C15 C14 1.409 . S
C15 C16 1.380 . S
C15 H33 0.930 . S
C16 C15 1.380 . S
C16 C23 1.357 . S
C17 C8 1.511 . S
C17 C18 1.341 . S
C17 C19 1.371 1_545 S
C18 C17 1.341 . S
C18 C22 1.394 1_545 S
C18 H34 0.930 1_554 S
C19 C17 1.371 1_565 S
C19 C20 1.392 . S
C19 H35 0.931 . S
C20 C19 1.392 . S
C20 C21 1.331 . S
C20 H38 0.932 . S
C21 C20 1.331 . S
C21 C22 1.336 . S
C22 C18 1.394 1_565 S
C22 C21 1.336 . S
C22 H37 0.929 1_554 S
C23 C13 1.386 1_655 S
C23 C16 1.357 . S
C23 H36 0.928 1_545 S
H24 C0 0.931 . S
H25 C2 0.930 . S
H26 C4 0.929 . S
H27 C5 0.931 . S
H28 C7 0.930 . S
H29 C11 0.931 . S
H30 C9 0.931 . S
H31 C13 0.931 1_565 S
H32 C14 0.929 1_455 S
H33 C15 0.930 . S
H34 C18 0.930 1_556 S
H35 C19 0.931 . S
H36 C23 0.928 1_565 S
H37 C22 0.929 1_556 S
H38 C20 0.932 . S
C39 C40 1.386 . S
C39 C41 1.397 . S
C39 H63 0.931 . S
C40 C39 1.386 . S
C40 C44 1.397 . S
C41 C39 1.397 . S
C41 C42 1.384 . S
C41 H64 0.930 . S
C42 C41 1.384 . S
C42 C43 1.377 . S
C42 C45 1.481 . S
C43 C42 1.377 . S
C43 C44 1.389 . S
C43 H65 0.929 . S
C44 C40 1.397 . S
C44 C43 1.389 . S
C44 H66 0.931 . S
C45 C42 1.481 . S
C45 C46 1.387 . S
C45 C50 1.390 . S
C46 C45 1.387 . S
C46 C47 1.401 . S
C46 H67 0.930 . S
C47 C46 1.401 . S
C47 C48 1.376 . S
C47 C56 1.511 . S
C48 C47 1.376 . S
C48 C49 1.392 . S
C48 H69 0.931 . S
C49 C48 1.392 . S
C49 C50 1.361 . S
C49 C51 1.500 . S
C50 C45 1.390 . S
C50 C49 1.361 . S
C50 H68 0.931 . S
C51 C49 1.500 . S
C51 C52 1.371 . S
C51 C53 1.365 . S
C52 C51 1.371 . S
C52 C62 1.386 . S
C52 H70 0.931 . S
C53 C51 1.365 . S
C53 C54 1.409 . S
C53 H71 0.929 . S
C54 C53 1.409 . S
C54 C55 1.380 . S
C54 H72 0.930 . S
C55 C54 1.380 . S
C55 C62 1.357 . S
C56 C47 1.511 . S
C56 C57 1.341 . S
C56 C58 1.371 . S
C57 C56 1.341 . S
C57 C61 1.394 . S
C57 H73 0.930 . S
C58 C56 1.371 . S
C58 C59 1.392 . S
C58 H74 0.931 . S
C59 C58 1.392 . S
C59 C60 1.331 . S
C59 H77 0.932 . S
C60 C59 1.331 . S
C60 C61 1.336 . S
C61 C57 1.394 . S
C61 C60 1.336 . S
C61 H76 0.929 . S
C62 C52 1.386 . S
C62 C55 1.357 . S
C62 H75 0.928 . S
H63 C39 0.931 . S
H64 C41 0.930 . S
H65 C43 0.929 . S
H66 C44 0.931 . S
H67 C46 0.930 . S
H68 C50 0.931 . S
H69 C48 0.931 . S
H70 C52 0.931 . S
H71 C53 0.929 . S
H72 C54 0.930 . S
H73 C57 0.930 . S
H74 C58 0.931 . S
H75 C62 0.928 . S
H76 C61 0.929 . S
H77 C59 0.932 . S
C78 C79 1.386 1_655 S
C78 C80 1.397 . S
C78 H102 0.931 . S
C79 C78 1.386 1_455 S
C79 C83 1.397 . S
C80 C78 1.397 . S
C80 C81 1.384 . S
C80 H103 0.930 . S
C81 C80 1.384 . S
C81 C82 1.377 1_655 S
C81 C84 1.481 . S
C82 C81 1.377 1_455 S
C82 C83 1.389 . S
C82 H104 0.929 . S
C83 C79 1.397 . S
C83 C82 1.389 . S
C83 H105 0.931 . S
C84 C81 1.481 . S
C84 C85 1.387 . S
C84 C89 1.390 . S
C85 C84 1.387 . S
C85 C86 1.401 . S
C85 H106 0.930 . S
C86 C85 1.401 . S
C86 C87 1.376 . S
C86 C95 1.511 . S
C87 C86 1.376 . S
C87 C88 1.392 . S
C87 H108 0.931 . S
C88 C87 1.392 . S
C88 C89 1.361 . S
C88 C90 1.500 . S
C89 C84 1.390 . S
C89 C88 1.361 . S
C89 H107 0.931 . S
C90 C88 1.500 . S
C90 C91 1.371 . S
C90 C92 1.365 . S
C91 C90 1.371 . S
C91 C101 1.386 1_554 S
C91 H109 0.931 . S
C92 C90 1.365 . S
C92 C93 1.430 . S
C92 H110 0.929 . S
C93 C92 1.430 . S
C93 C94 1.366 1_554 S
C93 H111 0.926 1_654 S
C94 C93 1.366 1_556 S
C94 C101 1.357 . S
C95 C86 1.511 . S
C95 C96 1.341 . S
C95 C97 1.371 . S
C96 C95 1.341 . S
C96 C100 1.394 . S
C96 H112 0.930 . S
C97 C95 1.371 . S
C97 C98 1.392 . S
C97 H113 0.931 . S
C98 C97 1.392 . S
C98 C99 1.331 . S
C98 H116 0.932 . S
C99 C98 1.331 . S
C99 C100 1.336 . S
C100 C96 1.394 . S
C100 C99 1.336 . S
C100 H115 0.929 . S
C101 C91 1.386 1_556 S
C101 C94 1.357 . S
C101 H114 0.928 . S
H102 C78 0.931 . S
H103 C80 0.930 . S
H104 C82 0.929 . S
H105 C83 0.931 . S
H106 C85 0.930 . S
H107 C89 0.931 . S
H108 C87 0.931 . S
H109 C91 0.931 . S
H110 C92 0.929 . S
H111 C93 0.926 1_456 S
H112 C96 0.930 . S
H113 C97 0.931 . S
H114 C101 0.928 . S
H115 C100 0.929 . S
H116 C98 0.932 . S
C117 C118 1.386 . S
C117 C119 1.397 . S
C117 H141 0.931 . S
C118 C117 1.386 . S
C118 C122 1.397 . S
C119 C117 1.397 . S
C119 C120 1.384 . S
C119 H142 0.930 . S
C120 C119 1.384 . S
C120 C121 1.377 . S
C120 C123 1.481 . S
C121 C120 1.377 . S
C121 C122 1.389 . S
C121 H143 0.929 . S
C122 C118 1.397 . S
C122 C121 1.389 . S
C122 H144 0.931 . S
C123 C120 1.481 . S
C123 C124 1.387 . S
C123 C128 1.390 . S
C124 C123 1.387 . S
C124 C125 1.401 . S
C124 H145 0.930 . S
C125 C124 1.401 . S
C125 C126 1.376 . S
C125 C134 1.511 . S
C126 C125 1.376 . S
C126 C127 1.392 . S
C126 H147 0.931 . S
C127 C126 1.392 . S
C127 C128 1.361 . S
C127 C129 1.500 . S
C128 C123 1.390 . S
C128 C127 1.361 . S
C128 H146 0.931 . S
C129 C127 1.500 . S
C129 C130 1.371 . S
C129 C131 1.365 . S
C130 C129 1.371 . S
C130 C140 1.386 . S
C130 H148 0.931 . S
C131 C129 1.365 . S
C131 C132 1.409 . S
C131 H149 0.929 . S
C132 C131 1.409 . S
C132 C133 1.380 . S
C132 H150 0.930 . S
C133 C132 1.380 . S
C133 C140 1.357 . S
C134 C125 1.511 . S
C134 C135 1.341 . S
C134 C136 1.371 . S
C135 C134 1.341 . S
C135 C139 1.394 . S
C135 H151 0.930 . S
C136 C134 1.371 . S
C136 C137 1.392 . S
C136 H152 0.931 . S
C137 C136 1.392 . S
C137 C138 1.331 . S
C137 H155 0.932 . S
C138 C137 1.331 . S
C138 C139 1.336 . S
C139 C135 1.394 . S
C139 C138 1.336 . S
C139 H154 0.929 . S
C140 C130 1.386 . S
C140 C133 1.357 . S
C140 H153 0.928 . S
H141 C117 0.931 . S
H142 C119 0.930 . S
H143 C121 0.929 . S
H144 C122 0.931 . S
H145 C124 0.930 . S
H146 C128 0.931 . S
H147 C126 0.931 . S
H148 C130 0.931 . S
H149 C131 0.929 . S
H150 C132 0.930 . S
H151 C135 0.930 . S
H152 C136 0.931 . S
H153 C140 0.928 . S
H154 C139 0.929 . S
H155 C137 0.932 . S
C156 C157 1.386 . S
C156 C158 1.397 . S
C156 H180 0.931 . S
C157 C156 1.386 . S
C157 C161 1.397 1_655 S
C158 C156 1.397 . S
C158 C159 1.384 1_655 S
C158 H181 0.930 . S
C159 C158 1.384 1_455 S
C159 C160 1.377 . S
C159 C162 1.481 . S
C160 C159 1.377 . S
C160 C161 1.389 . S
C160 H182 0.929 . S
C161 C157 1.397 1_455 S
C161 C160 1.389 . S
C161 H183 0.931 . S
C162 C159 1.481 . S
C162 C163 1.387 . S
C162 C167 1.390 . S
C163 C162 1.387 . S
C163 C164 1.401 . S
C163 H184 0.930 . S
C164 C163 1.401 . S
C164 C165 1.376 . S
C164 C173 1.511 . S
C165 C164 1.376 . S
C165 C166 1.392 . S
C165 H186 0.931 . S
C166 C165 1.392 . S
C166 C167 1.361 . S
C166 C168 1.500 . S
C167 C162 1.390 . S
C167 C166 1.361 . S
C167 H185 0.931 . S
C168 C166 1.500 . S
C168 C169 1.371 . S
C168 C170 1.365 . S
C169 C168 1.371 . S
C169 C179 1.386 1_565 S
C169 H187 0.931 . S
C170 C168 1.365 . S
C170 C171 1.409 1_565 S
C170 H188 0.929 . S
C171 C170 1.409 1_545 S
C171 C172 1.380 . S
C171 H189 0.930 . S
C172 C171 1.380 . S
C172 C179 1.357 . S
C173 C164 1.511 . S
C173 C174 1.341 . S
C173 C175 1.371 . S
C174 C173 1.341 . S
C174 C178 1.394 . S
C174 H190 0.930 . S
C175 C173 1.371 . S
C175 C176 1.392 . S
C175 H191 0.931 . S
C176 C175 1.392 . S
C176 C177 1.331 . S
C176 H194 0.932 . S
C177 C176 1.331 . S
C177 C178 1.336 . S
C178 C174 1.394 . S
C178 C177 1.336 . S
C178 H193 0.929 . S
C179 C169 1.386 1_545 S
C179 C172 1.357 . S
C179 H192 0.928 . S
H180 C156 0.931 . S
H181 C158 0.930 . S
H182 C160 0.929 . S
H183 C161 0.931 . S
H184 C163 0.930 . S
H185 C167 0.931 . S
H186 C165 0.931 . S
H187 C169 0.931 . S
H188 C170 0.929 . S
H189 C171 0.930 . S
H190 C174 0.930 . S
H191 C175 0.931 . S
H192 C179 0.928 . S
H193 C178 0.929 . S
H194 C176 0.932 . S
C195 C196 1.386 . S
C195 C197 1.397 . S
C195 H219 0.931 . S
C196 C195 1.386 . S
C196 C200 1.397 . S
C197 C195 1.397 . S
C197 C198 1.384 . S
C197 H220 0.930 . S
C198 C197 1.384 . S
C198 C199 1.377 . S
C198 C201 1.481 . S
C199 C198 1.377 . S
C199 C200 1.389 . S
C199 H221 0.929 . S
C200 C196 1.397 . S
C200 C199 1.389 . S
C200 H222 0.931 . S
C201 C198 1.481 . S
C201 C202 1.387 . S
C201 C206 1.390 . S
C202 C201 1.387 . S
C202 C203 1.401 . S
C202 H223 0.930 . S
C203 C202 1.401 . S
C203 C204 1.376 . S
C203 C212 1.511 . S
C204 C203 1.376 . S
C204 C205 1.392 . S
C204 H225 0.931 . S
C205 C204 1.392 . S
C205 C206 1.361 . S
C205 C207 1.500 . S
C206 C201 1.390 . S
C206 C205 1.361 . S
C206 H224 0.931 . S
C207 C205 1.500 . S
C207 C208 1.371 . S
C207 C209 1.365 . S
C208 C207 1.371 . S
C208 C218 1.386 . S
C208 H226 0.931 . S
C209 C207 1.365 . S
C209 C210 1.409 . S
C209 H227 0.929 . S
C210 C209 1.409 . S
C210 C211 1.380 . S
C210 H228 0.930 . S
C211 C210 1.380 . S
C211 C218 1.357 . S
C212 C203 1.511 . S
C212 C213 1.341 . S
C212 C214 1.371 . S
C213 C212 1.341 . S
C213 C217 1.394 . S
C213 H229 0.930 . S
C214 C212 1.371 . S
C214 C215 1.392 . S
C214 H230 0.931 . S
C215 C214 1.392 . S
C215 C216 1.331 . S
C215 H233 0.932 . S
C216 C215 1.331 . S
C216 C217 1.336 . S
C217 C213 1.394 . S
C217 C216 1.336 . S
C217 H232 0.929 . S
C218 C208 1.386 . S
C218 C211 1.357 . S
C218 H231 0.928 . S
H219 C195 0.931 . S
H220 C197 0.930 . S
H221 C199 0.929 . S
H222 C200 0.931 . S
H223 C202 0.930 . S
H224 C206 0.931 . S
H225 C204 0.931 . S
H226 C208 0.931 . S
H227 C209 0.929 . S
H228 C210 0.930 . S
H229 C213 0.930 . S
H230 C214 0.931 . S
H231 C218 0.928 . S
H232 C217 0.929 . S
H233 C215 0.932 . S
C234 C235 1.386 . S
C234 C236 1.397 . S
C234 H258 0.931 . S
C235 C234 1.386 . S
C235 C239 1.397 . S
C236 C234 1.397 . S
C236 C237 1.384 . S
C236 H259 0.930 . S
C237 C236 1.384 . S
C237 C238 1.377 . S
C237 C240 1.481 . S
C238 C237 1.377 . S
C238 C239 1.389 . S
C238 H260 0.929 . S
C239 C235 1.397 . S
C239 C238 1.389 . S
C239 H261 0.931 . S
C240 C237 1.481 . S
C240 C241 1.387 . S
C240 C245 1.390 . S
C241 C240 1.387 . S
C241 C242 1.401 . S
C241 H262 0.930 . S
C242 C241 1.401 . S
C242 C243 1.376 . S
C242 C251 1.511 . S
C243 C242 1.376 . S
C243 C244 1.392 . S
C243 H264 0.931 . S
C244 C243 1.392 . S
C244 C245 1.361 . S
C244 C246 1.500 . S
C245 C240 1.390 . S
C245 C244 1.361 . S
C245 H263 0.931 . S
C246 C244 1.500 . S
C246 C247 1.371 . S
C246 C248 1.365 . S
C247 C246 1.371 . S
C247 C257 1.386 . S
C247 H265 0.931 . S
C248 C246 1.365 . S
C248 C249 1.409 . S
C248 H266 0.929 . S
C249 C248 1.409 . S
C249 C250 1.380 . S
C249 H267 0.930 . S
C250 C249 1.380 . S
C250 C257 1.357 . S
C251 C242 1.511 . S
C251 C252 1.341 1_655 S
C251 C253 1.371 . S
C252 C251 1.341 1_455 S
C252 C256 1.394 . S
C252 H268 0.930 . S
C253 C251 1.371 . S
C253 C254 1.392 1_655 S
C253 H269 0.931 . S
C254 C253 1.392 1_455 S
C254 C255 1.331 . S
C254 H272 0.932 . S
C255 C254 1.331 . S
C255 C256 1.336 . S
C256 C252 1.394 . S
C256 C255 1.336 . S
C256 H271 0.929 . S
C257 C247 1.386 . S
C257 C250 1.357 . S
C257 H270 0.928 . S
H258 C234 0.931 . S
H259 C236 0.930 . S
H260 C238 0.929 . S
H261 C239 0.931 . S
H262 C241 0.930 . S
H263 C245 0.931 . S
H264 C243 0.931 . S
H265 C247 0.931 . S
H266 C248 0.929 . S
H267 C249 0.930 . S
H268 C252 0.930 . S
H269 C253 0.931 . S
H270 C257 0.928 . S
H271 C256 0.929 . S
H272 C254 0.932 . S
C273 C274 1.386 . S
C273 C275 1.397 . S
C273 H297 0.931 . S
C274 C273 1.386 . S
C274 C278 1.397 . S
C275 C273 1.397 . S
C275 C276 1.384 . S
C275 H298 0.930 . S
C276 C275 1.384 . S
C276 C277 1.377 . S
C276 C279 1.481 . S
C277 C276 1.377 . S
C277 C278 1.389 . S
C277 H299 0.929 . S
C278 C274 1.397 . S
C278 C277 1.389 . S
C278 H300 0.931 . S
C279 C276 1.481 . S
C279 C280 1.387 . S
C279 C284 1.390 . S
C280 C279 1.387 . S
C280 C281 1.401 . S
C280 H301 0.930 . S
C281 C280 1.401 . S
C281 C282 1.376 . S
C281 C290 1.511 . S
C282 C281 1.376 . S
C282 C283 1.392 . S
C282 H303 0.931 . S
C283 C282 1.392 . S
C283 C284 1.361 . S
C283 C285 1.500 . S
C284 C279 1.390 . S
C284 C283 1.361 . S
C284 H302 0.931 . S
C285 C283 1.500 . S
C285 C286 1.371 . S
C285 C287 1.365 . S
C286 C285 1.371 . S
C286 C296 1.386 . S
C286 H304 0.931 . S
C287 C285 1.365 . S
C287 C288 1.409 . S
C287 H305 0.929 . S
C288 C287 1.409 . S
C288 C289 1.380 . S
C288 H306 0.930 . S
C289 C288 1.380 . S
C289 C296 1.357 . S
C290 C281 1.511 . S
C290 C291 1.341 . S
C290 C292 1.371 . S
C291 C290 1.341 . S
C291 C295 1.394 . S
C291 H307 0.930 . S
C292 C290 1.371 . S
C292 C293 1.392 . S
C292 H308 0.931 . S
C293 C292 1.392 . S
C293 C294 1.331 . S
C293 H311 0.932 . S
C294 C293 1.331 . S
C294 C295 1.336 . S
C295 C291 1.394 . S
C295 C294 1.336 . S
C295 H310 0.929 . S
C296 C286 1.386 . S
C296 C289 1.357 . S
C296 H309 0.928 . S
H297 C273 0.931 . S
H298 C275 0.930 . S
H299 C277 0.929 . S
H300 C278 0.931 . S
H301 C280 0.930 . S
H302 C284 0.931 . S
H303 C282 0.931 . S
H304 C286 0.931 . S
H305 C287 0.929 . S
H306 C288 0.930 . S
H307 C291 0.930 . S
H308 C292 0.931 . S
H309 C296 0.928 . S
H310 C295 0.929 . S
H311 C293 0.932 . S
C312 C313 1.386 . S
C312 C314 1.397 . S
C312 H336 0.931 . S
C313 C312 1.386 . S
C313 C317 1.397 . S
C314 C312 1.397 . S
C314 C315 1.384 . S
C314 H337 0.930 . S
C315 C314 1.384 . S
C315 C316 1.377 . S
C315 C318 1.481 . S
C316 C315 1.377 . S
C316 C317 1.389 . S
C316 H338 0.929 . S
C317 C313 1.397 . S
C317 C316 1.389 . S
C317 H339 0.931 . S
C318 C315 1.481 . S
C318 C319 1.387 . S
C318 C323 1.390 . S
C319 C318 1.387 . S
C319 C320 1.401 . S
C319 H340 0.930 . S
C320 C319 1.401 . S
C320 C321 1.376 . S
C320 C329 1.511 . S
C321 C320 1.376 . S
C321 C322 1.392 . S
C321 H342 0.931 . S
C322 C321 1.392 . S
C322 C323 1.361 . S
C322 C324 1.500 . S
C323 C318 1.390 . S
C323 C322 1.361 . S
C323 H341 0.931 . S
C324 C322 1.500 . S
C324 C325 1.371 . S
C324 C326 1.365 . S
C325 C324 1.371 . S
C325 C335 1.386 . S
C325 H343 0.931 . S
C326 C324 1.365 . S
C326 C327 1.409 . S
C326 H344 0.929 . S
C327 C326 1.409 . S
C327 C328 1.380 . S
C327 H345 0.930 . S
C328 C327 1.380 . S
C328 C335 1.357 . S
C329 C320 1.511 . S
C329 C330 1.341 . S
C329 C331 1.371 . S
C330 C329 1.341 . S
C330 C334 1.394 . S
C330 H346 0.930 . S
C331 C329 1.371 . S
C331 C332 1.392 . S
C331 H347 0.931 . S
C332 C331 1.392 . S
C332 C333 1.331 . S
C332 H350 0.932 . S
C333 C332 1.331 . S
C333 C334 1.336 . S
C334 C330 1.394 . S
C334 C333 1.336 . S
C334 H349 0.929 . S
C335 C325 1.386 . S
C335 C328 1.357 . S
C335 H348 0.928 . S
H336 C312 0.931 . S
H337 C314 0.930 . S
H338 C316 0.929 . S
H339 C317 0.931 . S
H340 C319 0.930 . S
H341 C323 0.931 . S
H342 C321 0.931 . S
H343 C325 0.931 . S
H344 C326 0.929 . S
H345 C327 0.930 . S
H346 C330 0.930 . S
H347 C331 0.931 . S
H348 C335 0.928 . S
H349 C334 0.929 . S
H350 C332 0.932 . S
C351 C352 1.386 . S
C351 C353 1.397 . S
C351 H375 0.931 . S
C352 C351 1.386 . S
C352 C356 1.397 . S
C353 C351 1.397 . S
C353 C354 1.384 . S
C353 H376 0.930 . S
C354 C353 1.384 . S
C354 C355 1.377 . S
C354 C357 1.481 . S
C355 C354 1.377 . S
C355 C356 1.389 . S
C355 H377 0.929 . S
C356 C352 1.397 . S
C356 C355 1.389 . S
C356 H378 0.931 . S
C357 C354 1.481 . S
C357 C358 1.387 . S
C357 C362 1.390 . S
C358 C357 1.387 . S
C358 C359 1.401 . S
C358 H379 0.930 . S
C359 C358 1.401 . S
C359 C360 1.376 . S
C359 C368 1.511 . S
C360 C359 1.376 . S
C360 C361 1.392 . S
C360 H381 0.931 . S
C361 C360 1.392 . S
C361 C362 1.361 . S
C361 C363 1.500 . S
C362 C357 1.390 . S
C362 C361 1.361 . S
C362 H380 0.931 . S
C363 C361 1.500 . S
C363 C364 1.371 . S
C363 C365 1.365 . S
C364 C363 1.371 . S
C364 C374 1.386 . S
C364 H382 0.931 . S
C365 C363 1.365 . S
C365 C366 1.409 . S
C365 H383 0.929 . S
C366 C365 1.409 . S
C366 C367 1.380 . S
C366 H384 0.930 . S
C367 C366 1.380 . S
C367 C374 1.357 . S
C368 C359 1.511 . S
C368 C369 1.341 1_565 S
C368 C370 1.371 . S
C369 C368 1.341 1_545 S
C369 C373 1.394 . S
C369 H385 0.930 . S
C370 C368 1.371 . S
C370 C371 1.392 1_565 S
C370 H386 0.931 . S
C371 C370 1.392 1_545 S
C371 C372 1.331 . S
C371 H389 0.932 . S
C372 C371 1.331 . S
C372 C373 1.336 . S
C373 C369 1.394 . S
C373 C372 1.336 . S
C373 H388 0.929 . S
C374 C364 1.386 . S
C374 C367 1.357 . S
C374 H387 0.928 . S
H375 C351 0.931 . S
H376 C353 0.930 . S
H377 C355 0.929 . S
H378 C356 0.931 . S
H379 C358 0.930 . S
H380 C362 0.931 . S
H381 C360 0.931 . S
H382 C364 0.931 . S
H383 C365 0.929 . S
H384 C366 0.930 . S
H385 C369 0.930 . S
H386 C370 0.931 . S
H387 C374 0.928 . S
H388 C373 0.929 . S
H389 C371 0.932 . S
C390 C391 1.386 . S
C390 C392 1.397 . S
C390 H414 0.931 . S
C391 C390 1.386 . S
C391 C395 1.397 . S
C392 C390 1.397 . S
C392 C393 1.384 . S
C392 H415 0.930 . S
C393 C392 1.384 . S
C393 C394 1.377 . S
C393 C396 1.481 . S
C394 C393 1.377 . S
C394 C395 1.389 . S
C394 H416 0.929 . S
C395 C391 1.397 . S
C395 C394 1.389 . S
C395 H417 0.931 . S
C396 C393 1.481 . S
C396 C397 1.387 . S
C396 C401 1.390 . S
C397 C396 1.387 . S
C397 C398 1.401 . S
C397 H418 0.930 . S
C398 C397 1.401 . S
C398 C399 1.376 . S
C398 C407 1.511 . S
C399 C398 1.376 . S
C399 C400 1.392 . S
C399 H420 0.931 . S
C400 C399 1.392 . S
C400 C401 1.361 . S
C400 C402 1.500 . S
C401 C396 1.390 . S
C401 C400 1.361 . S
C401 H419 0.931 . S
C402 C400 1.500 . S
C402 C403 1.371 . S
C402 C404 1.365 . S
C403 C402 1.371 . S
C403 C413 1.386 . S
C403 H421 0.931 . S
C404 C402 1.365 . S
C404 C405 1.409 . S
C404 H422 0.929 . S
C405 C404 1.409 . S
C405 C406 1.380 . S
C405 H423 0.930 . S
C406 C405 1.380 . S
C406 C413 1.357 . S
C407 C398 1.511 . S
C407 C408 1.341 . S
C407 C409 1.371 . S
C408 C407 1.341 . S
C408 C412 1.394 . S
C408 H424 0.930 . S
C409 C407 1.371 . S
C409 C410 1.392 . S
C409 H425 0.931 . S
C410 C409 1.392 . S
C410 C411 1.331 . S
C410 H428 0.932 . S
C411 C410 1.331 . S
C411 C412 1.336 . S
C412 C408 1.394 . S
C412 C411 1.336 . S
C412 H427 0.929 . S
C413 C403 1.386 . S
C413 C406 1.357 . S
C413 H426 0.928 . S
H414 C390 0.931 . S
H415 C392 0.930 . S
H416 C394 0.929 . S
H417 C395 0.931 . S
H418 C397 0.930 . S
H419 C401 0.931 . S
H420 C399 0.931 . S
H421 C403 0.931 . S
H422 C404 0.929 . S
H423 C405 0.930 . S
H424 C408 0.930 . S
H425 C409 0.931 . S
H426 C413 0.928 . S
H427 C412 0.929 . S
H428 C410 0.932 . S
C429 C430 1.386 . S
C429 C431 1.397 . S
C429 H453 0.931 . S
C430 C429 1.386 . S
C430 C434 1.397 . S
C431 C429 1.397 . S
C431 C432 1.384 . S
C431 H454 0.930 . S
C432 C431 1.384 . S
C432 C433 1.377 . S
C432 C435 1.481 . S
C433 C432 1.377 . S
C433 C434 1.389 . S
C433 H455 0.929 . S
C434 C430 1.397 . S
C434 C433 1.389 . S
C434 H456 0.931 . S
C435 C432 1.481 . S
C435 C436 1.387 . S
C435 C440 1.390 . S
C436 C435 1.387 . S
C436 C437 1.401 . S
C436 H457 0.930 . S
C437 C436 1.401 . S
C437 C438 1.376 . S
C437 C446 1.511 . S
C438 C437 1.376 . S
C438 C439 1.392 . S
C438 H459 0.931 . S
C439 C438 1.392 . S
C439 C440 1.361 . S
C439 C441 1.500 . S
C440 C435 1.390 . S
C440 C439 1.361 . S
C440 H458 0.931 . S
C441 C439 1.500 . S
C441 C442 1.371 . S
C441 C443 1.365 . S
C442 C441 1.371 . S
C442 C452 1.386 . S
C442 H460 0.931 . S
C443 C441 1.365 . S
C443 C444 1.409 . S
C443 H461 0.929 . S
C444 C443 1.409 . S
C444 C445 1.380 . S
C444 H462 0.930 . S
C445 C444 1.380 . S
C445 C452 1.357 . S
C446 C437 1.511 . S
C446 C447 1.341 . S
C446 C448 1.371 . S
C447 C446 1.341 . S
C447 C451 1.394 . S
C447 H463 0.930 . S
C448 C446 1.371 . S
C448 C449 1.392 . S
C448 H464 0.931 . S
C449 C448 1.392 . S
C449 C450 1.331 . S
C449 H467 0.932 . S
C450 C449 1.331 . S
C450 C451 1.336 . S
C451 C447 1.394 . S
C451 C450 1.336 . S
C451 H466 0.929 . S
C452 C442 1.386 . S
C452 C445 1.357 . S
C452 H465 0.928 . S
H453 C429 0.931 . S
H454 C431 0.930 . S
H455 C433 0.929 . S
H456 C434 0.931 . S
H457 C436 0.930 . S
H458 C440 0.931 . S
H459 C438 0.931 . S
H460 C442 0.931 . S
H461 C443 0.929 . S
H462 C444 0.930 . S
H463 C447 0.930 . S
H464 C448 0.931 . S
H465 C452 0.928 . S
H466 C451 0.929 . S
H467 C449 0.932 . S
C468 C469 1.386 . S
C468 C470 1.397 . S
C468 H492 0.931 . S
C469 C468 1.386 . S
C469 C473 1.397 . S
C470 C468 1.397 . S
C470 C471 1.384 . S
C470 H493 0.930 . S
C471 C470 1.384 . S
C471 C472 1.377 . S
C471 C474 1.481 . S
C472 C471 1.377 . S
C472 C473 1.389 . S
C472 H494 0.929 . S
C473 C469 1.397 . S
C473 C472 1.389 . S
C473 H495 0.931 . S
C474 C471 1.481 . S
C474 C475 1.387 . S
C474 C479 1.390 . S
C475 C474 1.387 . S
C475 C476 1.401 . S
C475 H496 0.930 . S
C476 C475 1.401 . S
C476 C477 1.376 . S
C476 C485 1.511 . S
C477 C476 1.376 . S
C477 C478 1.392 . S
C477 H498 0.931 . S
C478 C477 1.392 . S
C478 C479 1.361 . S
C478 C480 1.500 . S
C479 C474 1.390 . S
C479 C478 1.361 . S
C479 H497 0.931 . S
C480 C478 1.500 . S
C480 C481 1.371 . S
C480 C482 1.365 . S
C481 C480 1.371 . S
C481 C491 1.386 . S
C481 H499 0.931 . S
C482 C480 1.365 . S
C482 C483 1.409 . S
C482 H500 0.929 . S
C483 C482 1.409 . S
C483 C484 1.380 . S
C483 H501 0.930 . S
C484 C483 1.380 . S
C484 C491 1.357 . S
C485 C476 1.511 . S
C485 C486 1.341 . S
C485 C487 1.371 . S
C486 C485 1.341 . S
C486 C490 1.394 . S
C486 H502 0.930 . S
C487 C485 1.371 . S
C487 C488 1.392 . S
C487 H503 0.931 . S
C488 C487 1.392 . S
C488 C489 1.331 . S
C488 H506 0.932 . S
C489 C488 1.331 . S
C489 C490 1.336 . S
C490 C486 1.394 . S
C490 C489 1.336 . S
C490 H505 0.929 . S
C491 C481 1.386 . S
C491 C484 1.357 . S
C491 H504 0.928 . S
H492 C468 0.931 . S
H493 C470 0.930 . S
H494 C472 0.929 . S
H495 C473 0.931 . S
H496 C475 0.930 . S
H497 C479 0.931 . S
H498 C477 0.931 . S
H499 C481 0.931 . S
H500 C482 0.929 . S
H501 C483 0.930 . S
H502 C486 0.930 . S
H503 C487 0.931 . S
H504 C491 0.928 . S
H505 C490 0.929 . S
H506 C488 0.932 . S
C507 C508 1.386 . S
C507 C509 1.397 . S
C507 H531 0.931 . S
C508 C507 1.386 . S
C508 C512 1.397 . S
C509 C507 1.397 . S
C509 C510 1.384 . S
C509 H532 0.930 . S
C510 C509 1.384 . S
C510 C511 1.377 . S
C510 C513 1.481 . S
C511 C510 1.377 . S
C511 C512 1.389 . S
C511 H533 0.929 . S
C512 C508 1.397 . S
C512 C511 1.389 . S
C512 H534 0.931 . S
C513 C510 1.481 . S
C513 C514 1.387 . S
C513 C518 1.390 . S
C514 C513 1.387 . S
C514 C515 1.401 . S
C514 H535 0.930 . S
C515 C514 1.401 . S
C515 C516 1.376 . S
C515 C524 1.511 . S
C516 C515 1.376 . S
C516 C517 1.392 . S
C516 H537 0.931 . S
C517 C516 1.392 . S
C517 C518 1.361 . S
C517 C519 1.500 . S
C518 C513 1.390 . S
C518 C517 1.361 . S
C518 H536 0.931 . S
C519 C517 1.500 . S
C519 C520 1.371 . S
C519 C521 1.365 . S
C520 C519 1.371 . S
C520 C530 1.386 . S
C520 H538 0.931 1_556 S
C521 C519 1.365 . S
C521 C522 1.409 . S
C521 H539 0.929 . S
C522 C521 1.409 . S
C522 C523 1.380 . S
C522 H540 0.930 . S
C523 C522 1.380 . S
C523 C530 1.357 . S
C524 C515 1.511 . S
C524 C525 1.341 . S
C524 C526 1.371 1_556 S
C525 C524 1.341 . S
C525 C529 1.394 1_556 S
C525 H541 0.930 . S
C526 C524 1.371 1_554 S
C526 C527 1.392 . S
C526 H542 0.931 . S
C527 C526 1.392 . S
C527 C528 1.331 . S
C527 H545 0.932 . S
C528 C527 1.331 . S
C528 C529 1.336 . S
C529 C525 1.394 1_554 S
C529 C528 1.336 . S
C529 H544 0.929 . S
C530 C520 1.386 . S
C530 C523 1.357 . S
C530 H543 0.928 1_556 S
H531 C507 0.931 . S
H532 C509 0.930 . S
H533 C511 0.929 . S
H534 C512 0.931 . S
H535 C514 0.930 . S
H536 C518 0.931 . S
H537 C516 0.931 . S
H538 C520 0.931 1_554 S
H539 C521 0.929 . S
H540 C522 0.930 . S
H541 C525 0.930 . S
H542 C526 0.931 . S
H543 C530 0.928 1_554 S
H544 C529 0.929 . S
H545 C527 0.932 . S
C546 C547 1.386 . S
C546 C548 1.397 . S
C546 H570 0.931 . S
C547 C546 1.386 . S
C547 C551 1.397 . S
C548 C546 1.397 . S
C548 C549 1.384 . S
C548 H571 0.930 . S
C549 C548 1.384 . S
C549 C550 1.377 . S
C549 C552 1.481 . S
C550 C549 1.377 . S
C550 C551 1.389 . S
C550 H572 0.929 . S
C551 C547 1.397 . S
C551 C550 1.389 . S
C551 H573 0.931 . S
C552 C549 1.481 . S
C552 C553 1.387 . S
C552 C557 1.390 . S
C553 C552 1.387 . S
C553 C554 1.401 . S
C553 H574 0.930 . S
C554 C553 1.401 . S
C554 C555 1.376 . S
C554 C563 1.511 . S
C555 C554 1.376 . S
C555 C556 1.392 . S
C555 H576 0.931 . S
C556 C555 1.392 . S
C556 C557 1.361 . S
C556 C558 1.500 . S
C557 C552 1.390 . S
C557 C556 1.361 . S
C557 H575 0.931 . S
C558 C556 1.500 . S
C558 C559 1.371 . S
C558 C560 1.365 . S
C559 C558 1.371 . S
C559 C569 1.386 . S
C559 H577 0.931 . S
C560 C558 1.365 . S
C560 C561 1.409 . S
C560 H578 0.929 . S
C561 C560 1.409 . S
C561 C562 1.380 . S
C561 H579 0.930 . S
C562 C561 1.380 . S
C562 C569 1.357 . S
C563 C554 1.511 . S
C563 C564 1.341 . S
C563 C565 1.371 . S
C564 C563 1.341 . S
C564 C568 1.394 . S
C564 H580 0.930 . S
C565 C563 1.371 . S
C565 C566 1.392 . S
C565 H581 0.931 . S
C566 C565 1.392 . S
C566 C567 1.331 . S
C566 H584 0.932 . S
C567 C566 1.331 . S
C567 C568 1.336 . S
C568 C564 1.394 . S
C568 C567 1.336 . S
C568 H583 0.929 . S
C569 C559 1.386 . S
C569 C562 1.357 . S
C569 H582 0.928 . S
H570 C546 0.931 . S
H571 C548 0.930 . S
H572 C550 0.929 . S
H573 C551 0.931 . S
H574 C553 0.930 . S
H575 C557 0.931 . S
H576 C555 0.931 . S
H577 C559 0.931 . S
H578 C560 0.929 . S
H579 C561 0.930 . S
H580 C564 0.930 . S
H581 C565 0.931 . S
H582 C569 0.928 . S
H583 C568 0.929 . S
H584 C566 0.932 . S
C585 C586 1.386 1_556 S
C585 C587 1.397 . S
C585 H609 0.931 . S
C586 C585 1.386 1_554 S
C586 C590 1.397 . S
C587 C585 1.397 . S
C587 C588 1.384 . S
C587 H610 0.930 . S
C588 C587 1.384 . S
C588 C589 1.377 1_556 S
C588 C591 1.481 . S
C589 C588 1.377 1_554 S
C589 C590 1.389 . S
C589 H611 0.929 . S
C590 C586 1.397 . S
C590 C589 1.389 . S
C590 H612 0.931 . S
C591 C588 1.481 . S
C591 C592 1.387 . S
C591 C596 1.390 . S
C592 C591 1.387 . S
C592 C593 1.401 . S
C592 H613 0.930 . S
C593 C592 1.401 . S
C593 C594 1.376 . S
C593 C602 1.511 . S
C594 C593 1.376 . S
C594 C595 1.392 . S
C594 H615 0.931 . S
C595 C594 1.392 . S
C595 C596 1.361 . S
C595 C597 1.500 . S
C596 C591 1.390 . S
C596 C595 1.361 . S
C596 H614 0.931 . S
C597 C595 1.500 . S
C597 C598 1.371 . S
C597 C599 1.365 . S
C598 C597 1.371 . S
C598 C608 1.386 1_545 S
C598 H616 0.931 . S
C599 C597 1.365 . S
C599 C600 1.408 1_545 S
C599 H617 0.929 . S
C600 C599 1.408 1_565 S
C600 C601 1.381 . S
C600 H618 0.930 1_556 S
C601 C600 1.381 . S
C601 C608 1.357 . S
C602 C593 1.511 . S
C602 C603 1.341 . S
C602 C604 1.371 . S
C603 C602 1.341 . S
C603 C607 1.394 . S
C603 H619 0.930 . S
C604 C602 1.371 . S
C604 C605 1.392 . S
C604 H620 0.931 . S
C605 C604 1.392 . S
C605 C606 1.331 . S
C605 H623 0.932 . S
C606 C605 1.331 . S
C606 C607 1.336 . S
C607 C603 1.394 . S
C607 C606 1.336 . S
C607 H622 0.929 . S
C608 C598 1.386 1_565 S
C608 C601 1.357 . S
C608 H621 0.928 . S
H609 C585 0.931 . S
H610 C587 0.930 . S
H611 C589 0.929 . S
H612 C590 0.931 . S
H613 C592 0.930 . S
H614 C596 0.931 . S
H615 C594 0.931 . S
H616 C598 0.931 . S
H617 C599 0.929 . S
H618 C600 0.930 1_554 S
H619 C603 0.930 . S
H620 C604 0.931 . S
H621 C608 0.928 . S
H622 C607 0.929 . S
H623 C605 0.932 . S
Zn624 O627 2.031 1_556 S
Zn624 O629 2.050 . S
Zn624 O634 2.068 . S
Zn625 O626 1.962 . S
Zn625 O628 1.986 . S
Zn625 O630 1.996 . S
Zn625 O633 1.943 1_554 S
O626 Zn625 1.962 . S
O626 C631 1.254 . S
O627 Zn624 2.031 1_554 S
O627 C631 1.269 . S
O628 Zn625 1.986 . S
O628 C635 1.262 . S
O629 Zn624 2.050 . S
O629 C637 1.260 . S
O630 Zn625 1.996 . S
O630 C637 1.257 1_554 S
C631 O626 1.254 . S
C631 O627 1.269 . S
C632 O633 1.249 . S
C632 O634 1.270 . S
O633 Zn625 1.943 1_556 S
O633 C632 1.249 . S
O634 Zn624 2.068 . S
O634 C632 1.270 . S
C635 O628 1.262 . S
C635 O636 1.232 . S
O636 C635 1.232 . S
C637 O629 1.260 . S
C637 O630 1.257 1_556 S
Zn638 O641 2.031 . S
Zn638 O643 2.049 . S
Zn638 O648 2.067 . S
Zn639 O640 1.962 . S
Zn639 O642 1.986 . S
Zn639 O644 1.996 . S
Zn639 O647 1.943 . S
O640 Zn639 1.962 . S
O640 C645 1.254 . S
O641 Zn638 2.031 . S
O641 C645 1.269 . S
O642 Zn639 1.986 . S
O642 C649 1.262 . S
O643 Zn638 2.049 . S
O643 C651 1.260 . S
O644 Zn639 1.996 . S
O644 C651 1.257 . S
C645 O640 1.254 . S
C645 O641 1.269 . S
C646 O647 1.249 . S
C646 O648 1.270 . S
O647 Zn639 1.943 . S
O647 C646 1.249 . S
O648 Zn638 2.067 . S
O648 C646 1.270 . S
C649 O642 1.262 . S
C649 O650 1.232 . S
O650 C649 1.232 . S
C651 O643 1.260 . S
C651 O644 1.257 . S
Zn652 O655 2.031 . S
Zn652 O657 2.049 . S
Zn652 O662 2.067 . S
Zn653 O654 1.962 . S
Zn653 O656 1.986 . S
Zn653 O658 1.996 1_554 S
Zn653 O661 1.943 . S
O654 Zn653 1.962 . S
O654 C659 1.254 . S
O655 Zn652 2.031 . S
O655 C659 1.269 1_556 S
O656 Zn653 1.986 . S
O656 C663 1.262 . S
O657 Zn652 2.049 . S
O657 C665 1.260 . S
O658 Zn653 1.996 1_556 S
O658 C665 1.257 . S
C659 O654 1.254 . S
C659 O655 1.269 1_554 S
C660 O661 1.249 1_556 S
C660 O662 1.270 . S
O661 Zn653 1.943 . S
O661 C660 1.249 1_554 S
O662 Zn652 2.067 . S
O662 C660 1.270 . S
C663 O656 1.262 . S
C663 O664 1.232 . S
O664 C663 1.232 . S
C665 O657 1.260 . S
C665 O658 1.257 . S
Zn666 O669 2.034 . S
Zn666 O671 2.047 1_545 S
Zn666 O676 2.064 1_545 S
Zn667 O668 1.962 . S
Zn667 O670 1.986 . S
Zn667 O672 1.996 . S
Zn667 O675 1.943 1_545 S
O668 Zn667 1.962 . S
O668 C673 1.254 . S
O669 Zn666 2.034 . S
O669 C673 1.269 . S
O670 Zn667 1.986 . S
O670 C677 1.262 . S
O671 Zn666 2.047 1_565 S
O671 C679 1.260 . S
O672 Zn667 1.996 . S
O672 C679 1.257 1_545 S
C673 O668 1.254 . S
C673 O669 1.269 . S
C674 O675 1.249 . S
C674 O676 1.270 . S
O675 Zn667 1.943 1_565 S
O675 C674 1.249 . S
O676 Zn666 2.064 1_565 S
O676 C674 1.270 . S
C677 O670 1.262 . S
C677 O678 1.232 . S
O678 C677 1.232 . S
C679 O671 1.260 . S
C679 O672 1.257 1_565 S
Zn680 O683 2.031 . S
Zn680 O685 2.049 . S
Zn680 O690 2.067 . S
Zn681 O682 1.962 . S
Zn681 O684 1.986 . S
Zn681 O686 1.996 . S
Zn681 O689 1.943 . S
O682 Zn681 1.962 . S
O682 C687 1.254 . S
O683 Zn680 2.031 . S
O683 C687 1.269 . S
O684 Zn681 1.986 . S
O684 C691 1.262 . S
O685 Zn680 2.049 . S
O685 C693 1.260 . S
O686 Zn681 1.996 . S
O686 C693 1.257 . S
C687 O682 1.254 . S
C687 O683 1.269 . S
C688 O689 1.249 . S
C688 O690 1.270 . S
O689 Zn681 1.943 . S
O689 C688 1.249 . S
O690 Zn680 2.067 . S
O690 C688 1.270 . S
C691 O684 1.262 . S
C691 O692 1.232 . S
O692 C691 1.232 . S
C693 O685 1.260 . S
C693 O686 1.257 . S
Zn694 O697 2.031 . S
Zn694 O699 2.049 . S
Zn694 O704 2.067 . S
Zn695 O696 1.962 . S
Zn695 O698 1.986 . S
Zn695 O700 1.996 . S
Zn695 O703 1.943 . S
O696 Zn695 1.962 . S
O696 C701 1.254 . S
O697 Zn694 2.031 . S
O697 C701 1.269 . S
O698 Zn695 1.986 . S
O698 C705 1.262 . S
O699 Zn694 2.049 . S
O699 C707 1.260 . S
O700 Zn695 1.996 . S
O700 C707 1.257 . S
C701 O696 1.254 . S
C701 O697 1.269 . S
C702 O703 1.249 . S
C702 O704 1.270 . S
O703 Zn695 1.943 . S
O703 C702 1.249 . S
O704 Zn694 2.067 . S
O704 C702 1.270 . S
C705 O698 1.262 . S
C705 O706 1.232 . S
O706 C705 1.232 . S
C707 O699 1.260 . S
C707 O700 1.257 . S
Zn708 O711 2.031 . S
Zn708 O713 2.049 . S
Zn708 O718 2.067 . S
Zn709 O710 1.962 . S
Zn709 O712 1.986 . S
Zn709 O714 1.996 . S
Zn709 O717 1.943 . S
O710 Zn709 1.962 . S
O710 C715 1.254 . S
O711 Zn708 2.031 . S
O711 C715 1.269 . S
O712 Zn709 1.986 . S
O712 C719 1.262 . S
O713 Zn708 2.049 . S
O713 C721 1.260 . S
O714 Zn709 1.996 . S
O714 C721 1.257 . S
C715 O710 1.254 . S
C715 O711 1.269 . S
C716 O717 1.249 . S
C716 O718 1.270 . S
O717 Zn709 1.943 . S
O717 C716 1.249 . S
O718 Zn708 2.067 . S
O718 C716 1.270 . S
C719 O712 1.262 . S
C719 O720 1.232 . S
O720 C719 1.232 . S
C721 O713 1.260 . S
C721 O714 1.257 . S
Zn722 O725 2.031 . S
Zn722 O727 2.049 . S
Zn722 O732 2.067 . S
Zn723 O724 1.962 . S
Zn723 O726 1.986 . S
Zn723 O728 1.996 1_545 S
Zn723 O731 1.943 . S
O724 Zn723 1.962 . S
O724 C729 1.254 . S
O725 Zn722 2.031 . S
O725 C729 1.269 1_565 S
O726 Zn723 1.986 . S
O726 C733 1.262 . S
O727 Zn722 2.049 . S
O727 C735 1.260 . S
O728 Zn723 1.996 1_565 S
O728 C735 1.257 . S
C729 O724 1.254 . S
C729 O725 1.269 1_545 S
C730 O731 1.249 1_565 S
C730 O732 1.270 . S
O731 Zn723 1.943 . S
O731 C730 1.249 1_545 S
O732 Zn722 2.067 . S
O732 C730 1.270 . S
C733 O726 1.262 . S
C733 O734 1.232 . S
O734 C733 1.232 . S
C735 O727 1.260 . S
C735 O728 1.257 . S
Zn736 O739 2.016 1_655 S
Zn736 O741 2.061 . S
Zn736 O746 2.089 . S
Zn737 O738 1.962 . S
Zn737 O740 1.986 . S
Zn737 O742 1.996 . S
Zn737 O745 1.943 1_455 S
O738 Zn737 1.962 . S
O738 C743 1.254 . S
O739 Zn736 2.016 1_455 S
O739 C743 1.269 . S
O740 Zn737 1.986 . S
O740 C747 1.262 . S
O741 Zn736 2.061 . S
O741 C749 1.260 . S
O742 Zn737 1.996 . S
O742 C749 1.257 1_455 S
C743 O738 1.254 . S
C743 O739 1.269 . S
C744 O745 1.249 . S
C744 O746 1.270 . S
O745 Zn737 1.943 1_655 S
O745 C744 1.249 . S
O746 Zn736 2.089 . S
O746 C744 1.270 . S
C747 O740 1.262 . S
C747 O748 1.232 . S
O748 C747 1.232 . S
C749 O741 1.260 . S
C749 O742 1.257 1_655 S
Zn750 O753 2.031 . S
Zn750 O755 2.049 . S
Zn750 O760 2.067 . S
Zn751 O752 1.962 . S
Zn751 O754 1.986 . S
Zn751 O756 1.996 . S
Zn751 O759 1.943 . S
O752 Zn751 1.962 . S
O752 C757 1.254 . S
O753 Zn750 2.031 . S
O753 C757 1.269 . S
O754 Zn751 1.986 . S
O754 C761 1.262 . S
O755 Zn750 2.049 . S
O755 C763 1.260 . S
O756 Zn751 1.996 . S
O756 C763 1.257 . S
C757 O752 1.254 . S
C757 O753 1.269 . S
C758 O759 1.249 . S
C758 O760 1.270 . S
O759 Zn751 1.943 . S
O759 C758 1.249 . S
O760 Zn750 2.067 . S
O760 C758 1.270 . S
C761 O754 1.262 . S
C761 O762 1.232 . S
O762 C761 1.232 . S
C763 O755 1.260 . S
C763 O756 1.257 . S
Zn764 O767 2.031 . S
Zn764 O769 2.049 . S
Zn764 O774 2.067 . S
Zn765 O766 1.962 . S
Zn765 O768 1.986 . S
Zn765 O770 1.996 1_455 S
Zn765 O773 1.943 . S
O766 Zn765 1.962 . S
O766 C771 1.254 . S
O767 Zn764 2.031 . S
O767 C771 1.269 1_655 S
O768 Zn765 1.986 . S
O768 C775 1.262 . S
O769 Zn764 2.049 . S
O769 C777 1.260 . S
O770 Zn765 1.996 1_655 S
O770 C777 1.257 . S
C771 O766 1.254 . S
C771 O767 1.269 1_455 S
C772 O773 1.249 1_655 S
C772 O774 1.270 . S
O773 Zn765 1.943 . S
O773 C772 1.249 1_455 S
O774 Zn764 2.067 . S
O774 C772 1.270 . S
C775 O768 1.262 . S
C775 O776 1.232 . S
O776 C775 1.232 . S
C777 O769 1.260 . S
C777 O770 1.257 . S
Zn778 O781 2.031 . S
Zn778 O783 2.049 . S
Zn778 O788 2.067 . S
Zn779 O780 1.962 . S
Zn779 O782 1.986 . S
Zn779 O784 1.996 . S
Zn779 O787 1.943 . S
O780 Zn779 1.962 . S
O780 C785 1.254 . S
O781 Zn778 2.031 . S
O781 C785 1.269 . S
O782 Zn779 1.986 . S
O782 C789 1.262 . S
O783 Zn778 2.049 . S
O783 C791 1.260 . S
O784 Zn779 1.996 . S
O784 C791 1.257 . S
C785 O780 1.254 . S
C785 O781 1.269 . S
C786 O787 1.249 . S
C786 O788 1.270 . S
O787 Zn779 1.943 . S
O787 C786 1.249 . S
O788 Zn778 2.067 . S
O788 C786 1.270 . S
C789 O782 1.262 . S
C789 O790 1.232 . S
O790 C789 1.232 . S
C791 O783 1.260 . S
C791 O784 1.257 . S
C792 C793 1.369 . S
C792 C794 1.419 . S
C792 H796 0.930 . S
C793 C792 1.369 . S
C793 C802 1.429 . S
C794 C792 1.419 . S
C794 C795 1.363 . S
C794 H797 0.929 . S
C795 C794 1.363 . S
C795 C801 1.428 . S
H796 C792 0.930 . S
H797 C794 0.929 . S
S798 N799 1.613 . S
S798 N800 1.610 . S
N799 S798 1.613 . S
N799 C802 1.350 . S
N800 S798 1.610 . S
N800 C801 1.351 . S
C801 C795 1.428 . S
C801 N800 1.351 . S
C801 C802 1.434 . S
C802 C793 1.429 . S
C802 N799 1.350 . S
C802 C801 1.434 . S
C803 C804 1.369 . S
C803 C805 1.419 . S
C803 H807 0.930 . S
C804 C803 1.369 . S
C804 C813 1.429 . S
C805 C803 1.419 . S
C805 C806 1.363 . S
C805 H808 0.929 . S
C806 C805 1.363 . S
C806 C812 1.428 . S
H807 C803 0.930 . S
H808 C805 0.929 . S
S809 N810 1.613 . S
S809 N811 1.610 . S
N810 S809 1.613 . S
N810 C813 1.350 . S
N811 S809 1.610 . S
N811 C812 1.351 . S
C812 C806 1.428 . S
C812 N811 1.351 . S
C812 C813 1.434 . S
C813 C804 1.429 . S
C813 N810 1.350 . S
C813 C812 1.434 . S
C814 C815 1.369 . S
C814 C816 1.419 . S
C814 H818 0.930 . S
C815 C814 1.369 . S
C815 C824 1.429 . S
C816 C814 1.419 . S
C816 C817 1.363 . S
C816 H819 0.929 . S
C817 C816 1.363 . S
C817 C823 1.428 . S
H818 C814 0.930 . S
H819 C816 0.929 . S
S820 N821 1.613 . S
S820 N822 1.610 . S
N821 S820 1.613 . S
N821 C824 1.350 . S
N822 S820 1.610 . S
N822 C823 1.351 . S
C823 C817 1.428 . S
C823 N822 1.351 . S
C823 C824 1.434 . S
C824 C815 1.429 . S
C824 N821 1.350 . S
C824 C823 1.434 . S
C825 C826 1.369 . S
C825 C827 1.419 . S
C825 H829 0.930 . S
C826 C825 1.369 . S
C826 C835 1.429 . S
C827 C825 1.419 . S
C827 C828 1.363 . S
C827 H830 0.929 . S
C828 C827 1.363 . S
C828 C834 1.428 . S
H829 C825 0.930 . S
H830 C827 0.929 . S
S831 N832 1.613 1_645 S
S831 N833 1.610 . S
N832 S831 1.613 1_465 S
N832 C835 1.350 1_455 S
N833 S831 1.610 . S
N833 C834 1.351 1_545 S
C834 C828 1.428 . S
C834 N833 1.351 1_565 S
C834 C835 1.434 . S
C835 C826 1.429 . S
C835 N832 1.350 1_655 S
C835 C834 1.434 . S
C836 C837 1.369 . S
C836 C838 1.419 . S
C836 H840 0.930 . S
C837 C836 1.369 . S
C837 C846 1.429 . S
C838 C836 1.419 . S
C838 C839 1.363 . S
C838 H841 0.929 . S
C839 C838 1.363 . S
C839 C845 1.428 . S
H840 C836 0.930 . S
H841 C838 0.929 . S
S842 N843 1.613 . S
S842 N844 1.610 . S
N843 S842 1.613 . S
N843 C846 1.350 . S
N844 S842 1.610 . S
N844 C845 1.351 . S
C845 C839 1.428 . S
C845 N844 1.351 . S
C845 C846 1.434 . S
C846 C837 1.429 . S
C846 N843 1.350 . S
C846 C845 1.434 . S
C847 C848 1.369 . S
C847 C849 1.419 . S
C847 H851 0.930 . S
C848 C847 1.369 . S
C848 C857 1.429 . S
C849 C847 1.419 . S
C849 C850 1.363 . S
C849 H852 0.929 . S
C850 C849 1.363 . S
C850 C856 1.428 . S
H851 C847 0.930 . S
H852 C849 0.929 . S
S853 N854 1.613 . S
S853 N855 1.610 . S
N854 S853 1.613 . S
N854 C857 1.350 . S
N855 S853 1.610 . S
N855 C856 1.351 . S
C856 C850 1.428 . S
C856 N855 1.351 . S
C856 C857 1.434 . S
C857 C848 1.429 . S
C857 N854 1.350 . S
C857 C856 1.434 . S
C858 C859 1.369 . S
C858 C860 1.419 . S
C858 H862 0.930 . S
C859 C858 1.369 . S
C859 C868 1.429 . S
C860 C858 1.419 . S
C860 C861 1.363 . S
C860 H863 0.929 . S
C861 C860 1.363 . S
C861 C867 1.428 . S
H862 C858 0.930 . S
H863 C860 0.929 . S
S864 N865 1.613 . S
S864 N866 1.610 . S
N865 S864 1.613 . S
N865 C868 1.350 . S
N866 S864 1.610 . S
N866 C867 1.351 . S
C867 C861 1.428 . S
C867 N866 1.351 . S
C867 C868 1.434 . S
C868 C859 1.429 . S
C868 N865 1.350 . S
C868 C867 1.434 . S
C869 C870 1.369 . S
C869 C871 1.419 . S
C869 H873 0.930 . S
C870 C869 1.369 . S
C870 C879 1.429 . S
C871 C869 1.419 . S
C871 C872 1.363 . S
C871 H874 0.929 . S
C872 C871 1.363 . S
C872 C878 1.428 . S
H873 C869 0.930 . S
H874 C871 0.929 . S
S875 N876 1.613 . S
S875 N877 1.610 . S
N876 S875 1.613 . S
N876 C879 1.350 . S
N877 S875 1.610 . S
N877 C878 1.351 . S
C878 C872 1.428 . S
C878 N877 1.351 . S
C878 C879 1.434 . S
C879 C870 1.429 . S
C879 N876 1.350 . S
C879 C878 1.434 . S
C880 C881 1.369 . S
C880 C882 1.419 . S
C880 H884 0.930 . S
C881 C880 1.369 . S
C881 C890 1.429 . S
C882 C880 1.419 . S
C882 C883 1.363 . S
C882 H885 0.929 . S
C883 C882 1.363 . S
C883 C889 1.428 . S
H884 C880 0.930 . S
H885 C882 0.929 . S
S886 N887 1.613 . S
S886 N888 1.610 . S
N887 S886 1.613 . S
N887 C890 1.350 . S
N888 S886 1.610 . S
N888 C889 1.351 . S
C889 C883 1.428 . S
C889 N888 1.351 . S
C889 C890 1.434 . S
C890 C881 1.429 . S
C890 N887 1.350 . S
C890 C889 1.434 . S
C891 C892 1.369 . S
C891 C893 1.419 . S
C891 H895 0.930 . S
C892 C891 1.369 . S
C892 C901 1.429 . S
C893 C891 1.419 . S
C893 C894 1.363 . S
C893 H896 0.929 . S
C894 C893 1.363 . S
C894 C900 1.428 . S
H895 C891 0.930 . S
H896 C893 0.929 . S
S897 N898 1.613 . S
S897 N899 1.610 . S
N898 S897 1.613 . S
N898 C901 1.350 . S
N899 S897 1.610 . S
N899 C900 1.351 . S
C900 C894 1.428 . S
C900 N899 1.351 . S
C900 C901 1.434 . S
C901 C892 1.429 . S
C901 N898 1.350 . S
C901 C900 1.434 . S
C902 C903 1.369 . S
C902 C904 1.419 . S
C902 H906 0.930 . S
C903 C902 1.369 . S
C903 C912 1.429 . S
C904 C902 1.419 . S
C904 C905 1.363 . S
C904 H907 0.929 . S
C905 C904 1.363 . S
C905 C911 1.428 . S
H906 C902 0.930 . S
H907 C904 0.929 . S
S908 N909 1.613 . S
S908 N910 1.610 . S
N909 S908 1.613 . S
N909 C912 1.350 . S
N910 S908 1.610 . S
N910 C911 1.351 . S
C911 C905 1.428 . S
C911 N910 1.351 . S
C911 C912 1.434 . S
C912 C903 1.429 . S
C912 N909 1.350 . S
C912 C911 1.434 . S
C913 C914 1.369 . S
C913 C915 1.419 . S
C913 H917 0.930 . S
C914 C913 1.369 . S
C914 C923 1.429 . S
C915 C913 1.419 . S
C915 C916 1.363 . S
C915 H918 0.929 . S
C916 C915 1.363 . S
C916 C922 1.428 . S
H917 C913 0.930 . S
H918 C915 0.929 . S
S919 N920 1.613 . S
S919 N921 1.610 . S
N920 S919 1.613 . S
N920 C923 1.350 . S
N921 S919 1.610 . S
N921 C922 1.351 . S
C922 C916 1.428 . S
C922 N921 1.351 . S
C922 C923 1.434 . S
C923 C914 1.429 . S
C923 N920 1.350 . S
C923 C922 1.434 . S
C924 C925 1.369 . S
C924 C926 1.419 . S
C924 H928 0.930 . S
C925 C924 1.369 . S
C925 C934 1.429 . S
C926 C924 1.419 . S
C926 C927 1.363 . S
C926 H929 0.929 . S
C927 C926 1.363 . S
C927 C933 1.428 . S
H928 C924 0.930 . S
H929 C926 0.929 . S
S930 N931 1.613 . S
S930 N932 1.610 . S
N931 S930 1.613 . S
N931 C934 1.350 . S
N932 S930 1.610 . S
N932 C933 1.351 . S
C933 C927 1.428 . S
C933 N932 1.351 . S
C933 C934 1.434 . S
C934 C925 1.429 . S
C934 N931 1.350 . S
C934 C933 1.434 . S
C935 C936 1.369 . S
C935 C937 1.419 . S
C935 H939 0.930 . S
C936 C935 1.369 . S
C936 C945 1.429 . S
C937 C935 1.419 . S
C937 C938 1.363 . S
C937 H940 0.929 . S
C938 C937 1.363 . S
C938 C944 1.428 . S
H939 C935 0.930 . S
H940 C937 0.929 . S
S941 N942 1.613 . S
S941 N943 1.610 . S
N942 S941 1.613 . S
N942 C945 1.350 . S
N943 S941 1.610 . S
N943 C944 1.351 . S
C944 C938 1.428 . S
C944 N943 1.351 . S
C944 C945 1.434 . S
C945 C936 1.429 . S
C945 N942 1.350 . S
C945 C944 1.434 . S
C946 C947 1.369 . S
C946 C948 1.419 . S
C946 H950 0.930 . S
C947 C946 1.369 . S
C947 C956 1.429 . S
C948 C946 1.419 . S
C948 C949 1.363 . S
C948 H951 0.929 . S
C949 C948 1.363 . S
C949 C955 1.428 . S
H950 C946 0.930 . S
H951 C948 0.929 . S
S952 N953 1.613 . S
S952 N954 1.610 . S
N953 S952 1.613 . S
N953 C956 1.350 . S
N954 S952 1.610 . S
N954 C955 1.351 . S
C955 C949 1.428 . S
C955 N954 1.351 . S
C955 C956 1.434 . S
C956 C947 1.429 . S
C956 N953 1.350 . S
C956 C955 1.434 . S
C957 C958 1.369 . S
C957 C959 1.419 . S
C957 H961 0.930 . S
C958 C957 1.369 . S
C958 C967 1.429 1_655 S
C959 C957 1.419 . S
C959 C960 1.363 . S
C959 H962 0.929 . S
C960 C959 1.363 . S
C960 C966 1.428 1_655 S
H961 C957 0.930 . S
H962 C959 0.929 . S
S963 N964 1.613 . S
S963 N965 1.610 . S
N964 S963 1.613 . S
N964 C967 1.350 . S
N965 S963 1.610 . S
N965 C966 1.351 . S
C966 C960 1.428 1_455 S
C966 N965 1.351 . S
C966 C967 1.434 . S
C967 C958 1.429 1_455 S
C967 N964 1.350 . S
C967 C966 1.434 . S
C968 C969 1.369 . S
C968 C970 1.419 . S
C968 H972 0.930 . S
C969 C968 1.369 . S
C969 C978 1.429 . S
C970 C968 1.419 . S
C970 C971 1.363 . S
C970 H973 0.929 . S
C971 C970 1.363 . S
C971 C977 1.428 . S
H972 C968 0.930 . S
H973 C970 0.929 . S
S974 N975 1.613 . S
S974 N976 1.610 . S
N975 S974 1.613 . S
N975 C978 1.350 . S
N976 S974 1.610 . S
N976 C977 1.351 . S
C977 C971 1.428 . S
C977 N976 1.351 . S
C977 C978 1.434 . S
C978 C969 1.429 . S
C978 N975 1.350 . S
C978 C977 1.434 . S
C979 C980 1.369 . S
C979 C981 1.419 . S
C979 H983 0.930 . S
C980 C979 1.369 . S
C980 C989 1.429 . S
C981 C979 1.419 . S
C981 C982 1.363 . S
C981 H984 0.929 . S
C982 C981 1.363 . S
C982 C988 1.428 . S
H983 C979 0.930 . S
H984 C981 0.929 . S
S985 N986 1.613 . S
S985 N987 1.610 . S
N986 S985 1.613 . S
N986 C989 1.350 . S
N987 S985 1.610 . S
N987 C988 1.351 . S
C988 C982 1.428 . S
C988 N987 1.351 . S
C988 C989 1.434 . S
C989 C980 1.429 . S
C989 N986 1.350 . S
C989 C988 1.434 . S
C990 C991 1.369 . S
C990 C992 1.419 . S
C990 H994 0.930 . S
C991 C990 1.369 . S
C991 C1000 1.429 . S
C992 C990 1.419 . S
C992 C993 1.363 . S
C992 H995 0.929 1_556 S
C993 C992 1.363 . S
C993 C999 1.428 . S
H994 C990 0.930 . S
H995 C992 0.929 1_554 S
S996 N997 1.613 . S
S996 N998 1.610 . S
N997 S996 1.613 . S
N997 C1000 1.350 . S
N998 S996 1.610 . S
N998 C999 1.351 . S
C999 C993 1.428 . S
C999 N998 1.351 . S
C999 C1000 1.434 . S
C1000 C991 1.429 . S
C1000 N997 1.350 . S
C1000 C999 1.434 . S
C1001 C1002 1.369 . S
C1001 C1003 1.419 . S
C1001 H1005 0.930 . S
C1002 C1001 1.369 . S
C1002 C1011 1.429 . S
C1003 C1001 1.419 . S
C1003 C1004 1.363 . S
C1003 H1006 0.929 . S
C1004 C1003 1.363 . S
C1004 C1010 1.428 . S
H1005 C1001 0.930 . S
H1006 C1003 0.929 . S
S1007 N1008 1.613 . S
S1007 N1009 1.610 . S
N1008 S1007 1.613 . S
N1008 C1011 1.350 . S
N1009 S1007 1.610 . S
N1009 C1010 1.351 . S
C1010 C1004 1.428 . S
C1010 N1009 1.351 . S
C1010 C1011 1.434 . S
C1011 C1002 1.429 . S
C1011 N1008 1.350 . S
C1011 C1010 1.434 . S
C1012 C1013 1.369 . S
C1012 C1014 1.419 . S
C1012 H1016 0.930 . S
C1013 C1012 1.369 . S
C1013 C1022 1.429 . S
C1014 C1012 1.419 . S
C1014 C1015 1.363 . S
C1014 H1017 0.929 . S
C1015 C1014 1.363 . S
C1015 C1021 1.428 . S
H1016 C1012 0.930 . S
H1017 C1014 0.929 . S
S1018 N1019 1.613 . S
S1018 N1020 1.610 . S
N1019 S1018 1.613 . S
N1019 C1022 1.350 . S
N1020 S1018 1.610 . S
N1020 C1021 1.351 . S
C1021 C1015 1.428 . S
C1021 N1020 1.351 . S
C1021 C1022 1.434 . S
C1022 C1013 1.429 . S
C1022 N1019 1.350 . S
C1022 C1021 1.434 . S
C1023 C1024 1.369 . S
C1023 C1025 1.419 . S
C1023 H1027 0.930 . S
C1024 C1023 1.369 . S
C1024 C1033 1.429 . S
C1025 C1023 1.419 . S
C1025 C1026 1.363 . S
C1025 H1028 0.929 . S
C1026 C1025 1.363 . S
C1026 C1032 1.428 . S
H1027 C1023 0.930 . S
H1028 C1025 0.929 . S
S1029 N1030 1.613 . S
S1029 N1031 1.610 . S
N1030 S1029 1.613 . S
N1030 C1033 1.350 . S
N1031 S1029 1.610 . S
N1031 C1032 1.351 . S
C1032 C1026 1.428 . S
C1032 N1031 1.351 . S
C1032 C1033 1.434 . S
C1033 C1024 1.429 . S
C1033 N1030 1.350 . S
C1033 C1032 1.434 . S
C1034 C1035 1.369 . S
C1034 C1036 1.419 . S
C1034 H1038 0.930 . S
C1035 C1034 1.369 . S
C1035 C1044 1.429 . S
C1036 C1034 1.419 . S
C1036 C1037 1.363 . S
C1036 H1039 0.929 . S
C1037 C1036 1.363 . S
C1037 C1043 1.428 . S
H1038 C1034 0.930 . S
H1039 C1036 0.929 . S
S1040 N1041 1.613 . S
S1040 N1042 1.610 . S
N1041 S1040 1.613 . S
N1041 C1044 1.350 . S
N1042 S1040 1.610 . S
N1042 C1043 1.351 . S
C1043 C1037 1.428 . S
C1043 N1042 1.351 . S
C1043 C1044 1.434 . S
C1044 C1035 1.429 . S
C1044 N1041 1.350 . S
C1044 C1043 1.434 . S
C1045 C1046 1.369 . S
C1045 C1047 1.419 . S
C1045 H1049 0.930 . S
C1046 C1045 1.369 . S
C1046 C1055 1.429 . S
C1047 C1045 1.419 . S
C1047 C1048 1.363 . S
C1047 H1050 0.929 . S
C1048 C1047 1.363 . S
C1048 C1054 1.428 . S
H1049 C1045 0.930 . S
H1050 C1047 0.929 . S
S1051 N1052 1.613 . S
S1051 N1053 1.610 . S
N1052 S1051 1.613 . S
N1052 C1055 1.350 . S
N1053 S1051 1.610 . S
N1053 C1054 1.351 . S
C1054 C1048 1.428 . S
C1054 N1053 1.351 . S
C1054 C1055 1.434 . S
C1055 C1046 1.429 . S
C1055 N1052 1.350 . S
C1055 C1054 1.434 . S
C1056 C1057 1.369 . S
C1056 C1058 1.419 . S
C1056 H1060 0.930 . S
C1057 C1056 1.369 . S
C1057 C1066 1.429 . S
C1058 C1056 1.419 . S
C1058 C1059 1.363 . S
C1058 H1061 0.929 . S
C1059 C1058 1.363 . S
C1059 C1065 1.428 . S
H1060 C1056 0.930 . S
H1061 C1058 0.929 . S
S1062 N1063 1.613 . S
S1062 N1064 1.610 . S
N1063 S1062 1.613 . S
N1063 C1066 1.350 . S
N1064 S1062 1.610 . S
N1064 C1065 1.351 . S
C1065 C1059 1.428 . S
C1065 N1064 1.351 . S
C1065 C1066 1.434 . S
C1066 C1057 1.429 . S
C1066 N1063 1.350 . S
C1066 C1065 1.434 . S
C1067 C1068 1.369 . S
C1067 C1069 1.419 . S
C1067 H1071 0.930 . S
C1068 C1067 1.369 . S
C1068 C1077 1.429 . S
C1069 C1067 1.419 . S
C1069 C1070 1.363 . S
C1069 H1072 0.929 1_545 S
C1070 C1069 1.363 . S
C1070 C1076 1.428 . S
H1071 C1067 0.930 . S
H1072 C1069 0.929 1_565 S
S1073 N1074 1.613 . S
S1073 N1075 1.610 . S
N1074 S1073 1.613 . S
N1074 C1077 1.350 . S
N1075 S1073 1.610 . S
N1075 C1076 1.351 . S
C1076 C1070 1.428 . S
C1076 N1075 1.351 . S
C1076 C1077 1.434 . S
C1077 C1068 1.429 . S
C1077 N1074 1.350 . S
C1077 C1076 1.434 . S
C1078 C1079 1.369 . S
C1078 C1080 1.419 . S
C1078 H1082 0.930 . S
C1079 C1078 1.369 . S
C1079 C1088 1.429 . S
C1080 C1078 1.419 . S
C1080 C1081 1.363 . S
C1080 H1083 0.929 . S
C1081 C1080 1.363 . S
C1081 C1087 1.428 . S
H1082 C1078 0.930 . S
H1083 C1080 0.929 . S
S1084 N1085 1.613 . S
S1084 N1086 1.610 . S
N1085 S1084 1.613 . S
N1085 C1088 1.350 . S
N1086 S1084 1.610 . S
N1086 C1087 1.351 . S
C1087 C1081 1.428 . S
C1087 N1086 1.351 . S
C1087 C1088 1.434 . S
C1088 C1079 1.429 . S
C1088 N1085 1.350 . S
C1088 C1087 1.434 . S
C1089 C1090 1.369 . S
C1089 C1091 1.419 . S
C1089 H1093 0.930 . S
C1090 C1089 1.369 . S
C1090 C1099 1.429 . S
C1091 C1089 1.419 . S
C1091 C1092 1.363 . S
C1091 H1094 0.929 . S
C1092 C1091 1.363 . S
C1092 C1098 1.428 . S
H1093 C1089 0.930 . S
H1094 C1091 0.929 . S
S1095 N1096 1.613 . S
S1095 N1097 1.610 . S
N1096 S1095 1.613 . S
N1096 C1099 1.350 . S
N1097 S1095 1.610 . S
N1097 C1098 1.351 . S
C1098 C1092 1.428 . S
C1098 N1097 1.351 . S
C1098 C1099 1.434 . S
C1099 C1090 1.429 . S
C1099 N1096 1.350 . S
C1099 C1098 1.434 . S
C1100 C1101 1.369 . S
C1100 C1102 1.419 . S
C1100 H1104 0.930 . S
C1101 C1100 1.369 . S
C1101 C1110 1.429 . S
C1102 C1100 1.419 . S
C1102 C1103 1.363 . S
C1102 H1105 0.929 . S
C1103 C1102 1.363 . S
C1103 C1109 1.428 . S
H1104 C1100 0.930 . S
H1105 C1102 0.929 . S
S1106 N1107 1.613 . S
S1106 N1108 1.610 . S
N1107 S1106 1.613 . S
N1107 C1110 1.350 . S
N1108 S1106 1.610 . S
N1108 C1109 1.351 . S
C1109 C1103 1.428 . S
C1109 N1108 1.351 . S
C1109 C1110 1.434 . S
C1110 C1101 1.429 . S
C1110 N1107 1.350 . S
C1110 C1109 1.434 . S
C1111 C1112 1.369 . S
C1111 C1113 1.419 . S
C1111 H1115 0.930 1_545 S
C1112 C1111 1.369 . S
C1112 C1121 1.429 . S
C1113 C1111 1.419 . S
C1113 C1114 1.363 . S
C1113 H1116 0.929 1_545 S
C1114 C1113 1.363 . S
C1114 C1120 1.428 . S
H1115 C1111 0.930 1_565 S
H1116 C1113 0.929 1_565 S
S1117 N1118 1.613 . S
S1117 N1119 1.610 . S
N1118 S1117 1.613 . S
N1118 C1121 1.350 . S
N1119 S1117 1.610 . S
N1119 C1120 1.351 . S
C1120 C1114 1.428 . S
C1120 N1119 1.351 . S
C1120 C1121 1.434 . S
C1121 C1112 1.429 . S
C1121 N1118 1.350 . S
C1121 C1120 1.434 . S
C1122 C1123 1.369 . S
C1122 C1124 1.419 . S
C1122 H1126 0.930 . S
C1123 C1122 1.369 . S
C1123 C1132 1.429 . S
C1124 C1122 1.419 . S
C1124 C1125 1.363 . S
C1124 H1127 0.929 . S
C1125 C1124 1.363 . S
C1125 C1131 1.428 . S
H1126 C1122 0.930 . S
H1127 C1124 0.929 . S
S1128 N1129 1.613 . S
S1128 N1130 1.610 . S
N1129 S1128 1.613 . S
N1129 C1132 1.350 . S
N1130 S1128 1.610 . S
N1130 C1131 1.351 . S
C1131 C1125 1.428 . S
C1131 N1130 1.351 . S
C1131 C1132 1.434 . S
C1132 C1123 1.429 . S
C1132 N1129 1.350 . S
C1132 C1131 1.434 . S
C1133 C1134 1.369 . S
C1133 C1135 1.419 . S
C1133 H1137 0.930 . S
C1134 C1133 1.369 . S
C1134 C1143 1.429 . S
C1135 C1133 1.419 . S
C1135 C1136 1.363 . S
C1135 H1138 0.929 . S
C1136 C1135 1.363 . S
C1136 C1142 1.428 . S
H1137 C1133 0.930 . S
H1138 C1135 0.929 . S
S1139 N1140 1.613 . S
S1139 N1141 1.610 . S
N1140 S1139 1.613 . S
N1140 C1143 1.350 . S
N1141 S1139 1.610 . S
N1141 C1142 1.351 . S
C1142 C1136 1.428 . S
C1142 N1141 1.351 . S
C1142 C1143 1.434 . S
C1143 C1134 1.429 . S
C1143 N1140 1.350 . S
C1143 C1142 1.434 . S
C1144 C1145 1.369 . S
C1144 C1146 1.419 . S
C1144 H1148 0.930 . S
C1145 C1144 1.369 . S
C1145 C1154 1.429 . S
C1146 C1144 1.419 . S
C1146 C1147 1.363 . S
C1146 H1149 0.929 . S
C1147 C1146 1.363 . S
C1147 C1153 1.428 . S
H1148 C1144 0.930 . S
H1149 C1146 0.929 . S
S1150 N1151 1.613 . S
S1150 N1152 1.610 . S
N1151 S1150 1.613 . S
N1151 C1154 1.350 . S
N1152 S1150 1.610 . S
N1152 C1153 1.351 . S
C1153 C1147 1.428 . S
C1153 N1152 1.351 . S
C1153 C1154 1.434 . S
C1154 C1145 1.429 . S
C1154 N1151 1.350 . S
C1154 C1153 1.434 . S
C1155 C1156 1.369 . S
C1155 C1157 1.419 . S
C1155 H1159 0.930 . S
C1156 C1155 1.369 . S
C1156 C1165 1.429 . S
C1157 C1155 1.419 . S
C1157 C1158 1.363 . S
C1157 H1160 0.929 . S
C1158 C1157 1.363 . S
C1158 C1164 1.428 . S
H1159 C1155 0.930 . S
H1160 C1157 0.929 . S
S1161 N1162 1.612 1_556 S
S1161 N1163 1.610 . S
N1162 S1161 1.612 1_554 S
N1162 C1165 1.339 1_554 S
N1163 S1161 1.610 . S
N1163 C1164 1.351 . S
C1164 C1158 1.428 . S
C1164 N1163 1.351 . S
C1164 C1165 1.434 . S
C1165 C1156 1.429 . S
C1165 N1162 1.339 1_556 S
C1165 C1164 1.434 . S
C1166 C1167 1.369 . S
C1166 C1168 1.419 . S
C1166 H1170 0.930 . S
C1167 C1166 1.369 . S
C1167 C1176 1.429 . S
C1168 C1166 1.419 . S
C1168 C1169 1.363 . S
C1168 H1171 0.929 . S
C1169 C1168 1.363 . S
C1169 C1175 1.428 . S
H1170 C1166 0.930 . S
H1171 C1168 0.929 . S
S1172 N1173 1.613 . S
S1172 N1174 1.610 . S
N1173 S1172 1.613 . S
N1173 C1176 1.350 . S
N1174 S1172 1.610 . S
N1174 C1175 1.351 . S
C1175 C1169 1.428 . S
C1175 N1174 1.351 . S
C1175 C1176 1.434 . S
C1176 C1167 1.429 . S
C1176 N1173 1.350 . S
C1176 C1175 1.434 . S
C1177 C1178 1.369 . S
C1177 C1179 1.419 . S
C1177 H1181 0.930 . S
C1178 C1177 1.369 . S
C1178 C1187 1.398 1_455 S
C1179 C1177 1.419 . S
C1179 C1180 1.363 . S
C1179 H1182 0.929 . S
C1180 C1179 1.363 . S
C1180 C1186 1.428 1_455 S
H1181 C1177 0.930 . S
H1182 C1179 0.929 . S
S1183 N1184 1.613 . S
S1183 N1185 1.610 . S
N1184 S1183 1.613 . S
N1184 C1187 1.379 . S
N1185 S1183 1.610 . S
N1185 C1186 1.351 . S
C1186 C1180 1.428 1_655 S
C1186 N1185 1.351 . S
C1186 C1187 1.438 . S
C1187 C1178 1.398 1_655 S
C1187 N1184 1.379 . S
C1187 C1186 1.438 . S
C1188 C1189 1.369 . S
C1188 C1190 1.419 . S
C1188 H1192 0.930 . S
C1189 C1188 1.369 . S
C1189 C1198 1.429 . S
C1190 C1188 1.419 . S
C1190 C1191 1.363 . S
C1190 H1193 0.929 . S
C1191 C1190 1.363 . S
C1191 C1197 1.428 . S
H1192 C1188 0.930 . S
H1193 C1190 0.929 . S
S1194 N1195 1.613 . S
S1194 N1196 1.610 . S
N1195 S1194 1.613 . S
N1195 C1198 1.350 . S
N1196 S1194 1.610 . S
N1196 C1197 1.351 . S
C1197 C1191 1.428 . S
C1197 N1196 1.351 . S
C1197 C1198 1.434 . S
C1198 C1189 1.429 . S
C1198 N1195 1.350 . S
C1198 C1197 1.434 . S
C1199 C1200 1.369 . S
C1199 C1201 1.419 . S
C1199 H1203 0.930 . S
C1200 C1199 1.369 . S
C1200 C1209 1.429 . S
C1201 C1199 1.419 . S
C1201 C1202 1.363 . S
C1201 H1204 0.929 . S
C1202 C1201 1.363 . S
C1202 C1208 1.428 . S
H1203 C1199 0.930 . S
H1204 C1201 0.929 . S
S1205 N1206 1.613 . S
S1205 N1207 1.610 . S
N1206 S1205 1.613 . S
N1206 C1209 1.350 . S
N1207 S1205 1.610 . S
N1207 C1208 1.351 . S
C1208 C1202 1.428 . S
C1208 N1207 1.351 . S
C1208 C1209 1.434 . S
C1209 C1200 1.429 . S
C1209 N1206 1.350 . S
C1209 C1208 1.434 . S
C1210 C1211 1.369 . S
C1210 C1212 1.419 . S
C1210 H1214 0.930 . S
C1211 C1210 1.369 . S
C1211 C1220 1.429 . S
C1212 C1210 1.419 . S
C1212 C1213 1.363 . S
C1212 H1215 0.929 . S
C1213 C1212 1.363 . S
C1213 C1219 1.428 . S
H1214 C1210 0.930 . S
H1215 C1212 0.929 . S
S1216 N1217 1.613 . S
S1216 N1218 1.610 . S
N1217 S1216 1.613 . S
N1217 C1220 1.350 . S
N1218 S1216 1.610 . S
N1218 C1219 1.351 . S
C1219 C1213 1.428 . S
C1219 N1218 1.351 . S
C1219 C1220 1.434 . S
C1220 C1211 1.429 . S
C1220 N1217 1.350 . S
C1220 C1219 1.434 . S
C1221 C1222 1.369 . S
C1221 C1223 1.419 . S
C1221 H1225 0.930 . S
C1222 C1221 1.369 . S
C1222 C1231 1.429 . S
C1223 C1221 1.419 . S
C1223 C1224 1.363 . S
C1223 H1226 0.929 . S
C1224 C1223 1.363 . S
C1224 C1230 1.428 . S
H1225 C1221 0.930 . S
H1226 C1223 0.929 . S
S1227 N1228 1.613 . S
S1227 N1229 1.610 . S
N1228 S1227 1.613 . S
N1228 C1231 1.350 . S
N1229 S1227 1.610 . S
N1229 C1230 1.351 . S
C1230 C1224 1.428 . S
C1230 N1229 1.351 . S
C1230 C1231 1.434 . S
C1231 C1222 1.429 . S
C1231 N1228 1.350 . S
C1231 C1230 1.434 . S
C1232 C1233 1.369 . S
C1232 C1234 1.419 . S
C1232 H1236 0.930 . S
C1233 C1232 1.369 . S
C1233 C1242 1.429 . S
C1234 C1232 1.419 . S
C1234 C1235 1.363 . S
C1234 H1237 0.929 . S
C1235 C1234 1.363 . S
C1235 C1241 1.428 . S
H1236 C1232 0.930 . S
H1237 C1234 0.929 . S
S1238 N1239 1.613 . S
S1238 N1240 1.610 . S
N1239 S1238 1.613 . S
N1239 C1242 1.350 . S
N1240 S1238 1.610 . S
N1240 C1241 1.351 . S
C1241 C1235 1.428 . S
C1241 N1240 1.351 . S
C1241 C1242 1.434 . S
C1242 C1233 1.429 . S
C1242 N1239 1.350 . S
C1242 C1241 1.434 . S
C1243 C1244 1.369 . S
C1243 C1245 1.419 . S
C1243 H1247 0.930 . S
C1244 C1243 1.369 . S
C1244 C1253 1.429 . S
C1245 C1243 1.419 . S
C1245 C1246 1.363 . S
C1245 H1248 0.929 . S
C1246 C1245 1.363 . S
C1246 C1252 1.428 . S
H1247 C1243 0.930 . S
H1248 C1245 0.929 . S
S1249 N1250 1.613 . S
S1249 N1251 1.610 . S
N1250 S1249 1.613 . S
N1250 C1253 1.350 . S
N1251 S1249 1.610 . S
N1251 C1252 1.351 . S
C1252 C1246 1.428 . S
C1252 N1251 1.351 . S
C1252 C1253 1.434 . S
C1253 C1244 1.429 . S
C1253 N1250 1.350 . S
C1253 C1252 1.434 . S
C1254 C1255 1.369 . S
C1254 C1256 1.419 . S
C1254 H1258 0.930 . S
C1255 C1254 1.369 . S
C1255 C1264 1.429 . S
C1256 C1254 1.419 . S
C1256 C1257 1.363 . S
C1256 H1259 0.929 . S
C1257 C1256 1.363 . S
C1257 C1263 1.428 . S
H1258 C1254 0.930 . S
H1259 C1256 0.929 . S
S1260 N1261 1.613 . S
S1260 N1262 1.610 . S
N1261 S1260 1.613 . S
N1261 C1264 1.350 . S
N1262 S1260 1.610 . S
N1262 C1263 1.351 . S
C1263 C1257 1.428 . S
C1263 N1262 1.351 . S
C1263 C1264 1.434 . S
C1264 C1255 1.429 . S
C1264 N1261 1.350 . S
C1264 C1263 1.434 . S
C1265 C1266 1.369 . S
C1265 C1267 1.419 . S
C1265 H1269 0.930 . S
C1266 C1265 1.369 . S
C1266 C1275 1.429 . S
C1267 C1265 1.419 . S
C1267 C1268 1.363 . S
C1267 H1270 0.929 . S
C1268 C1267 1.363 . S
C1268 C1274 1.428 . S
H1269 C1265 0.930 . S
H1270 C1267 0.929 . S
S1271 N1272 1.613 . S
S1271 N1273 1.610 . S
N1272 S1271 1.613 . S
N1272 C1275 1.350 . S
N1273 S1271 1.610 . S
N1273 C1274 1.351 . S
C1274 C1268 1.428 . S
C1274 N1273 1.351 . S
C1274 C1275 1.434 . S
C1275 C1266 1.429 . S
C1275 N1272 1.350 . S
C1275 C1274 1.434 . S
C1276 C1277 1.369 . S
C1276 C1278 1.419 . S
C1276 H1280 0.930 . S
C1277 C1276 1.369 . S
C1277 C1286 1.429 . S
C1278 C1276 1.419 . S
C1278 C1279 1.363 . S
C1278 H1281 0.929 . S
C1279 C1278 1.363 . S
C1279 C1285 1.428 . S
H1280 C1276 0.930 . S
H1281 C1278 0.929 . S
S1282 N1283 1.613 . S
S1282 N1284 1.610 . S
N1283 S1282 1.613 . S
N1283 C1286 1.350 . S
N1284 S1282 1.610 . S
N1284 C1285 1.351 . S
C1285 C1279 1.428 . S
C1285 N1284 1.351 . S
C1285 C1286 1.434 . S
C1286 C1277 1.429 . S
C1286 N1283 1.350 . S
C1286 C1285 1.434 . S
C1287 C1288 1.369 . S
C1287 C1289 1.419 . S
C1287 H1291 0.930 . S
C1288 C1287 1.369 . S
C1288 C1297 1.429 . S
C1289 C1287 1.419 . S
C1289 C1290 1.363 . S
C1289 H1292 0.929 . S
C1290 C1289 1.363 . S
C1290 C1296 1.428 . S
H1291 C1287 0.930 . S
H1292 C1289 0.929 . S
S1293 N1294 1.613 . S
S1293 N1295 1.610 . S
N1294 S1293 1.613 . S
N1294 C1297 1.350 . S
N1295 S1293 1.610 . S
N1295 C1296 1.351 . S
C1296 C1290 1.428 . S
C1296 N1295 1.351 . S
C1296 C1297 1.434 . S
C1297 C1288 1.429 . S
C1297 N1294 1.350 . S
C1297 C1296 1.434 . S
C1298 C1299 1.369 . S
C1298 C1300 1.419 . S
C1298 H1302 0.930 . S
C1299 C1298 1.369 . S
C1299 C1308 1.429 . S
C1300 C1298 1.419 . S
C1300 C1301 1.363 . S
C1300 H1303 0.929 . S
C1301 C1300 1.363 . S
C1301 C1307 1.428 . S
H1302 C1298 0.930 . S
H1303 C1300 0.929 . S
S1304 N1305 1.613 . S
S1304 N1306 1.610 . S
N1305 S1304 1.613 . S
N1305 C1308 1.350 . S
N1306 S1304 1.610 . S
N1306 C1307 1.351 . S
C1307 C1301 1.428 . S
C1307 N1306 1.351 . S
C1307 C1308 1.434 . S
C1308 C1299 1.429 . S
C1308 N1305 1.350 . S
C1308 C1307 1.434 . S
C1309 C1310 1.366 1_556 S
C1309 C1311 1.419 . S
C1309 H1313 0.933 . S
C1310 C1309 1.366 1_554 S
C1310 C1319 1.429 . S
C1311 C1309 1.419 . S
C1311 C1312 1.363 1_556 S
C1311 H1314 0.929 . S
C1312 C1311 1.363 1_554 S
C1312 C1318 1.428 . S
H1313 C1309 0.933 . S
H1314 C1311 0.929 . S
S1315 N1316 1.613 . S
S1315 N1317 1.610 . S
N1316 S1315 1.613 . S
N1316 C1319 1.350 . S
N1317 S1315 1.610 . S
N1317 C1318 1.351 . S
C1318 C1312 1.428 . S
C1318 N1317 1.351 . S
C1318 C1319 1.434 . S
C1319 C1310 1.429 . S
C1319 N1316 1.350 . S
C1319 C1318 1.434 . S
C795 C632 1.483 . S
C793 C211 1.509 . S
C806 C645 1.487 . S
C804 C255 1.492 . S
C815 C274 1.643 . S
C817 C665 1.518 . S
C828 C679 1.403 . S
C826 C157 1.460 . S
C839 C691 1.516 . S
C837 C391 1.521 . S
C850 C705 1.440 . S
C848 C484 1.441 . S
C859 C450 1.486 . S
C861 C715 1.476 . S
C872 C730 1.517 . S
C870 C352 1.550 . S
C881 C430 1.511 . S
C883 C744 1.488 . S
C894 C763 1.408 . S
C892 C367 1.466 . S
C903 C411 1.507 . S
C905 C743 1.494 . S
C916 C761 1.441 . S
C914 C469 1.442 . S
C925 C294 1.636 . S
C927 C777 1.519 . S
C936 C177 1.493 . S
C938 C771 1.494 . S
C947 C196 1.512 . S
C949 C775 1.506 . S
C958 C235 1.542 . S
C960 C772 1.511 . S
C969 C133 1.516 . S
C971 C674 1.488 . S
C980 C567 1.487 . S
C982 C673 1.477 . S
C993 C637 1.389 . S
C991 C601 1.452 . S
C1004 C651 1.526 . S
C1002 C328 1.643 . S
C1013 C172 1.545 . S
C1015 C688 1.511 . S
C1026 C733 1.509 . S
C1024 C445 1.514 . S
C1037 C687 1.507 . S
C1035 C372 1.511 . S
C1048 C719 1.433 . S
C1046 C489 1.436 . S
C1059 C716 1.480 . S
C1057 C562 1.508 . S
C1068 C606 1.492 . S
C1070 C729 1.488 . S
C1079 C313 1.641 . S
C1081 C693 1.527 . S
C1092 C707 1.397 . S
C1090 C508 1.459 . S
C1101 C118 1.521 . S
C1103 C663 1.517 . S
C1114 C677 1.441 . S
C1112 C16 1.441 . S
C1125 C631 1.476 . S
C1123 C60 1.486 . S
C1136 C646 1.517 . S
C1134 C79 1.549 . S
C1145 C40 1.511 . S
C1147 C758 1.488 . S
C1156 C94 1.465 . S
C1158 C749 1.408 . S
C1167 C138 1.507 . S
C1169 C757 1.495 . S
C1178 C1 1.443 . S
C1180 C747 1.441 . S
C1191 C791 1.514 . S
C1189 C333 1.637 . S
C1202 C785 1.493 . S
C1200 C528 1.493 . S
C1213 C789 1.508 . S
C1211 C547 1.512 . S
C1222 C586 1.542 . S
C1224 C786 1.506 . S
C1233 C406 1.517 . S
C1235 C702 1.493 . S
C1246 C701 1.477 . S
C1244 C216 1.488 . S
C1257 C721 1.389 . S
C1255 C250 1.452 . S
C1268 C735 1.523 . S
C1266 C289 1.642 . S
C1277 C523 1.543 . S
C1279 C660 1.510 . S
C1290 C649 1.510 . S
C1288 C55 1.514 . S
C1299 C99 1.510 . S
C1301 C659 1.507 . S
C1312 C635 1.433 . S
C1310 C21 1.435 . S
