# Generated by pormake.
# Topology llk, (3,12)-cn, num edge types: 1
# Building blocks:
#     Node 0, Type 0, BuildingBlock: CUQRIR_clean_linker_1, # of connection points: 3
#     Node 1, Type 0, BuildingBlock: CUQRIR_clean_linker_1, # of connection points: 3
#     Node 2, Type 0, BuildingBlock: CUQRIR_clean_linker_1, # of connection points: 3
#     Node 3, Type 0, BuildingBlock: CUQRIR_clean_linker_1, # of connection points: 3
#     Node 4, Type 0, BuildingBlock: CUQRIR_clean_linker_1, # of connection points: 3
#     Node 5, Type 0, BuildingBlock: CUQRIR_clean_linker_1, # of connection points: 3
#     Node 6, Type 0, BuildingBlock: CUQRIR_clean_linker_1, # of connection points: 3
#     Node 7, Type 0, BuildingBlock: CUQRIR_clean_linker_1, # of connection points: 3
#     Node 8, Type 0, BuildingBlock: CUQRIR_clean_linker_1, # of connection points: 3
#     Node 9, Type 0, BuildingBlock: CUQRIR_clean_linker_1, # of connection points: 3
#     Node 10, Type 0, BuildingBlock: CUQRIR_clean_linker_1, # of connection points: 3
#     Node 11, Type 0, BuildingBlock: CUQRIR_clean_linker_1, # of connection points: 3
#     Node 12, Type 0, BuildingBlock: CUQRIR_clean_linker_1, # of connection points: 3
#     Node 13, Type 0, BuildingBlock: CUQRIR_clean_linker_1, # of connection points: 3
#     Node 14, Type 0, BuildingBlock: CUQRIR_clean_linker_1, # of connection points: 3
#     Node 15, Type 0, BuildingBlock: CUQRIR_clean_linker_1, # of connection points: 3
#     Node 16, Type 0, BuildingBlock: CUQRIR_clean_linker_1, # of connection points: 3
#     Node 17, Type 0, BuildingBlock: CUQRIR_clean_linker_1, # of connection points: 3
#     Node 18, Type 0, BuildingBlock: CUQRIR_clean_linker_1, # of connection points: 3
#     Node 19, Type 0, BuildingBlock: CUQRIR_clean_linker_1, # of connection points: 3
#     Node 20, Type 0, BuildingBlock: CUQRIR_clean_linker_1, # of connection points: 3
#     Node 21, Type 0, BuildingBlock: CUQRIR_clean_linker_1, # of connection points: 3
#     Node 22, Type 0, BuildingBlock: CUQRIR_clean_linker_1, # of connection points: 3
#     Node 23, Type 0, BuildingBlock: CUQRIR_clean_linker_1, # of connection points: 3
#     Node 24, Type 1, BuildingBlock: EZIPEK_clean_sbu_0, # of connection points: 12
#     Node 25, Type 1, BuildingBlock: EZIPEK_clean_sbu_0, # of connection points: 12
#     Node 26, Type 1, BuildingBlock: EZIPEK_clean_sbu_0, # of connection points: 12
#     Node 27, Type 1, BuildingBlock: EZIPEK_clean_sbu_0, # of connection points: 12
#     Node 28, Type 1, BuildingBlock: EZIPEK_clean_sbu_0, # of connection points: 12
#     Node 29, Type 1, BuildingBlock: EZIPEK_clean_sbu_0, # of connection points: 12
#     Edge 30, Type (0, 1), BuildingBlock: CIFDUS_clean_linker_0, # of connection points: 2
#     Edge 31, Type (0, 1), BuildingBlock: CIFDUS_clean_linker_0, # of connection points: 2
#     Edge 32, Type (0, 1), BuildingBlock: CIFDUS_clean_linker_0, # of connection points: 2
#     Edge 33, Type (0, 1), BuildingBlock: CIFDUS_clean_linker_0, # of connection points: 2
#     Edge 34, Type (0, 1), BuildingBlock: CIFDUS_clean_linker_0, # of connection points: 2
#     Edge 35, Type (0, 1), BuildingBlock: CIFDUS_clean_linker_0, # of connection points: 2
#     Edge 36, Type (0, 1), BuildingBlock: CIFDUS_clean_linker_0, # of connection points: 2
#     Edge 37, Type (0, 1), BuildingBlock: CIFDUS_clean_linker_0, # of connection points: 2
#     Edge 38, Type (0, 1), BuildingBlock: CIFDUS_clean_linker_0, # of connection points: 2
#     Edge 39, Type (0, 1), BuildingBlock: CIFDUS_clean_linker_0, # of connection points: 2
#     Edge 40, Type (0, 1), BuildingBlock: CIFDUS_clean_linker_0, # of connection points: 2
#     Edge 41, Type (0, 1), BuildingBlock: CIFDUS_clean_linker_0, # of connection points: 2
#     Edge 42, Type (0, 1), BuildingBlock: CIFDUS_clean_linker_0, # of connection points: 2
#     Edge 43, Type (0, 1), BuildingBlock: CIFDUS_clean_linker_0, # of connection points: 2
#     Edge 44, Type (0, 1), BuildingBlock: CIFDUS_clean_linker_0, # of connection points: 2
#     Edge 45, Type (0, 1), BuildingBlock: CIFDUS_clean_linker_0, # of connection points: 2
#     Edge 46, Type (0, 1), BuildingBlock: CIFDUS_clean_linker_0, # of connection points: 2
#     Edge 47, Type (0, 1), BuildingBlock: CIFDUS_clean_linker_0, # of connection points: 2
#     Edge 48, Type (0, 1), BuildingBlock: CIFDUS_clean_linker_0, # of connection points: 2
#     Edge 49, Type (0, 1), BuildingBlock: CIFDUS_clean_linker_0, # of connection points: 2
#     Edge 50, Type (0, 1), BuildingBlock: CIFDUS_clean_linker_0, # of connection points: 2
#     Edge 51, Type (0, 1), BuildingBlock: CIFDUS_clean_linker_0, # of connection points: 2
#     Edge 52, Type (0, 1), BuildingBlock: CIFDUS_clean_linker_0, # of connection points: 2
#     Edge 53, Type (0, 1), BuildingBlock: CIFDUS_clean_linker_0, # of connection points: 2
#     Edge 54, Type (0, 1), BuildingBlock: CIFDUS_clean_linker_0, # of connection points: 2
#     Edge 55, Type (0, 1), BuildingBlock: CIFDUS_clean_linker_0, # of connection points: 2
#     Edge 56, Type (0, 1), BuildingBlock: CIFDUS_clean_linker_0, # of connection points: 2
#     Edge 57, Type (0, 1), BuildingBlock: CIFDUS_clean_linker_0, # of connection points: 2
#     Edge 58, Type (0, 1), BuildingBlock: CIFDUS_clean_linker_0, # of connection points: 2
#     Edge 59, Type (0, 1), BuildingBlock: CIFDUS_clean_linker_0, # of connection points: 2
#     Edge 60, Type (0, 1), BuildingBlock: CIFDUS_clean_linker_0, # of connection points: 2
#     Edge 61, Type (0, 1), BuildingBlock: CIFDUS_clean_linker_0, # of connection points: 2
#     Edge 62, Type (0, 1), BuildingBlock: CIFDUS_clean_linker_0, # of connection points: 2
#     Edge 63, Type (0, 1), BuildingBlock: CIFDUS_clean_linker_0, # of connection points: 2
#     Edge 64, Type (0, 1), BuildingBlock: CIFDUS_clean_linker_0, # of connection points: 2
#     Edge 65, Type (0, 1), BuildingBlock: CIFDUS_clean_linker_0, # of connection points: 2
#     Edge 66, Type (0, 1), BuildingBlock: CIFDUS_clean_linker_0, # of connection points: 2
#     Edge 67, Type (0, 1), BuildingBlock: CIFDUS_clean_linker_0, # of connection points: 2
#     Edge 68, Type (0, 1), BuildingBlock: CIFDUS_clean_linker_0, # of connection points: 2
#     Edge 69, Type (0, 1), BuildingBlock: CIFDUS_clean_linker_0, # of connection points: 2
#     Edge 70, Type (0, 1), BuildingBlock: CIFDUS_clean_linker_0, # of connection points: 2
#     Edge 71, Type (0, 1), BuildingBlock: CIFDUS_clean_linker_0, # of connection points: 2
#     Edge 72, Type (0, 1), BuildingBlock: CIFDUS_clean_linker_0, # of connection points: 2
#     Edge 73, Type (0, 1), BuildingBlock: CIFDUS_clean_linker_0, # of connection points: 2
#     Edge 74, Type (0, 1), BuildingBlock: CIFDUS_clean_linker_0, # of connection points: 2
#     Edge 75, Type (0, 1), BuildingBlock: CIFDUS_clean_linker_0, # of connection points: 2
#     Edge 76, Type (0, 1), BuildingBlock: CIFDUS_clean_linker_0, # of connection points: 2
#     Edge 77, Type (0, 1), BuildingBlock: CIFDUS_clean_linker_0, # of connection points: 2
#     Edge 78, Type (0, 1), BuildingBlock: CIFDUS_clean_linker_0, # of connection points: 2
#     Edge 79, Type (0, 1), BuildingBlock: CIFDUS_clean_linker_0, # of connection points: 2
#     Edge 80, Type (0, 1), BuildingBlock: CIFDUS_clean_linker_0, # of connection points: 2
#     Edge 81, Type (0, 1), BuildingBlock: CIFDUS_clean_linker_0, # of connection points: 2
#     Edge 82, Type (0, 1), BuildingBlock: CIFDUS_clean_linker_0, # of connection points: 2
#     Edge 83, Type (0, 1), BuildingBlock: CIFDUS_clean_linker_0, # of connection points: 2
#     Edge 84, Type (0, 1), BuildingBlock: CIFDUS_clean_linker_0, # of connection points: 2
#     Edge 85, Type (0, 1), BuildingBlock: CIFDUS_clean_linker_0, # of connection points: 2
#     Edge 86, Type (0, 1), BuildingBlock: CIFDUS_clean_linker_0, # of connection points: 2
#     Edge 87, Type (0, 1), BuildingBlock: CIFDUS_clean_linker_0, # of connection points: 2
#     Edge 88, Type (0, 1), BuildingBlock: CIFDUS_clean_linker_0, # of connection points: 2
#     Edge 89, Type (0, 1), BuildingBlock: CIFDUS_clean_linker_0, # of connection points: 2
#     Edge 90, Type (0, 1), BuildingBlock: CIFDUS_clean_linker_0, # of connection points: 2
#     Edge 91, Type (0, 1), BuildingBlock: CIFDUS_clean_linker_0, # of connection points: 2
#     Edge 92, Type (0, 1), BuildingBlock: CIFDUS_clean_linker_0, # of connection points: 2
#     Edge 93, Type (0, 1), BuildingBlock: CIFDUS_clean_linker_0, # of connection points: 2
#     Edge 94, Type (0, 1), BuildingBlock: CIFDUS_clean_linker_0, # of connection points: 2
#     Edge 95, Type (0, 1), BuildingBlock: CIFDUS_clean_linker_0, # of connection points: 2
#     Edge 96, Type (0, 1), BuildingBlock: CIFDUS_clean_linker_0, # of connection points: 2
#     Edge 97, Type (0, 1), BuildingBlock: CIFDUS_clean_linker_0, # of connection points: 2
#     Edge 98, Type (0, 1), BuildingBlock: CIFDUS_clean_linker_0, # of connection points: 2
#     Edge 99, Type (0, 1), BuildingBlock: CIFDUS_clean_linker_0, # of connection points: 2
#     Edge 100, Type (0, 1), BuildingBlock: CIFDUS_clean_linker_0, # of connection points: 2
#     Edge 101, Type (0, 1), BuildingBlock: CIFDUS_clean_linker_0, # of connection points: 2
# Relax obj value: 0.089
# Max RMSD: 0.207
# Mean RMSD: 0.156
data_MOF--net-llk--node1-EZIPEK_clean_sbu_0--node2-CUQRIR_clean_linker_1--edge1-CIFDUS_clean_linker_0
_symmetry_space_group_name_H-M    P1
_symmetry_Int_Tables_number       1
_symmetry_cell_setting            triclinic
loop_
_symmetry_equiv_pos_as_xyz
'x, y, z'
_cell_length_a     38.800274
_cell_length_b     38.359128
_cell_length_c     37.849142
_cell_angle_alpha  89.9963
_cell_angle_beta   89.902777
_cell_angle_gamma 90.133907
loop_
_atom_site_label
_atom_site_type_symbol
_atom_site_fract_x
_atom_site_fract_y
_atom_site_fract_z
_atom_type_partial_charge
C0 C 1.01553 0.24956 0.23859 0.0
N1 N 1.01313 0.28477 0.24112 0.0
N2 N 1.00418 0.23412 0.26875 0.0
C3 C 0.03297 0.23075 0.20881 0.0
C4 C 0.99446 0.2613 0.28919 0.0
N5 N 1.00038 0.29199 0.27281 0.0
C6 C 0.98224 0.25791 0.32684 0.0
H7 H 0.0232 0.24048 0.18312 0.0
H8 H 0.02872 0.20219 0.21065 0.0
H9 H 0.06104 0.23627 0.20982 0.0
H10 H 0.96772 0.2332 0.3305 0.0
H11 H 0.96568 0.28034 0.33418 0.0
H12 H 1.00482 0.25755 0.34478 0.0
C13 C 0.79477 1.00972 0.23973 0.0
N14 N 0.75961 0.01152 0.23968 0.0
N15 N 0.80755 0.01829 0.27198 0.0
C16 C 0.81689 0.99989 0.20873 0.0
C17 C 0.77927 0.02604 0.29126 0.0
N18 N 0.75027 0.02174 0.27194 0.0
C19 C 0.77985 0.03563 0.33003 0.0
H20 H 0.81968 0.97113 0.20797 0.0
H21 H 0.84301 0.01142 0.21122 0.0
H22 H 0.80508 1.00878 0.18363 0.0
H23 H 0.80628 0.0385 0.34063 0.0
H24 H 0.76571 0.01559 0.34552 0.0
H25 H 0.76684 0.06097 0.33409 0.0
C26 C 1.01282 0.7742 0.24024 0.0
N27 N 1.01236 0.77581 0.27615 0.0
N28 N 1.00445 0.74164 0.22895 0.0
C29 C 0.02009 0.8044 0.2161 0.0
C30 C 0.99907 0.72358 0.25918 0.0
N31 N 1.00363 0.74426 0.28765 0.0
C32 C 0.99299 0.68462 0.26098 0.0
H33 H 1.01092 0.82913 0.22803 0.0
H34 H 1.00748 0.80044 0.1901 0.0
H35 H 0.0483 0.80647 0.21174 0.0
H36 H 1.01116 0.67085 0.24314 0.0
H37 H 0.96638 0.67876 0.25217 0.0
H38 H 0.99574 0.67387 0.28797 0.0
C39 C 0.27124 0.9698 0.24225 0.0
N40 N 0.30568 0.96306 0.24313 0.0
N41 N 0.25621 0.96104 0.27344 0.0
C42 C 0.25229 0.98574 0.21177 0.0
C43 C 0.2825 0.94815 0.29273 0.0
N44 N 0.31258 0.95023 0.27497 0.0
C45 C 0.27961 0.93736 0.33094 0.0
H46 H 0.25513 0.0145 0.21297 0.0
H47 H 0.22443 0.97931 0.21312 0.0
H48 H 0.26306 0.97641 0.18631 0.0
H49 H 0.25331 0.92754 0.33696 0.0
H50 H 0.28502 0.96015 0.34812 0.0
H51 H 0.29881 0.91684 0.33708 0.0
C52 C 0.05183 0.77888 0.77128 0.0
N53 N 0.05377 0.74347 0.77203 0.0
N54 N 0.0609 0.79125 0.73902 0.0
C55 C 0.03779 0.80108 0.80063 0.0
C56 C 0.0687 0.76225 0.72046 0.0
N57 N 0.06396 0.73325 0.7401 0.0
C58 C 0.07874 0.76211 0.68198 0.0
H59 H 0.0202 0.78582 0.81789 0.0
H60 H 0.0239 0.824 0.78989 0.0
H61 H 0.05959 0.81084 0.81682 0.0
H62 H 0.09533 0.73934 0.67594 0.0
H63 H 0.09254 0.78653 0.67491 0.0
H64 H 0.05518 0.76024 0.6655 0.0
C65 C 0.26521 0.01817 0.77262 0.0
N66 N 0.30017 0.01517 0.7736 0.0
N67 N 0.2528 1.00824 0.74068 0.0
C68 C 0.24347 0.03315 0.8017 0.0
C69 C 0.28117 0.99821 0.72273 0.0
N70 N 0.30994 1.00305 0.74217 0.0
C71 C 0.28107 0.98611 0.68473 0.0
H72 H 0.23175 0.01144 0.81697 0.0
H73 H 0.22221 0.04899 0.79054 0.0
H74 H 0.25921 0.0494 0.81982 0.0
H75 H 0.29051 1.00751 0.66747 0.0
H76 H 0.25498 0.97804 0.676 0.0
H77 H 0.29853 0.96354 0.68135 0.0
C78 C 0.05712 0.24718 0.76718 0.0
N79 N 0.05962 0.24565 0.73142 0.0
N80 N 0.07107 0.27713 0.77956 0.0
C81 C 0.03763 0.22148 0.78962 0.0
C82 C 0.0827 0.29325 0.75011 0.0
N83 N 0.07489 0.27489 0.72071 0.0
C84 C 0.09787 0.32946 0.74969 0.0
H85 H 0.02294 0.23515 0.81062 0.0
H86 H 0.05632 0.2039 0.80274 0.0
H87 H 0.01966 0.20561 0.77345 0.0
H88 H 0.11174 0.33485 0.77474 0.0
H89 H 0.07693 0.34889 0.74678 0.0
H90 H 0.11578 0.33249 0.72698 0.0
C91 C 0.79351 0.01802 0.76784 0.0
N92 N 0.75851 0.01425 0.77037 0.0
N93 N 0.8046 0.01148 0.73433 0.0
C94 C 0.81696 0.02799 0.79772 0.0
C95 C 0.77549 1.00274 0.71689 0.0
N96 N 0.74762 1.00465 0.73843 0.0
C97 C 0.77403 0.99337 0.67805 0.0
H98 H 0.81805 0.05682 0.79967 0.0
H99 H 0.84351 0.01842 0.79304 0.0
H100 H 0.80723 0.01733 0.8231 0.0
H101 H 0.76227 0.96727 0.67473 0.0
H102 H 0.7997 0.99201 0.6654 0.0
H103 H 0.75784 0.01257 0.66378 0.0
C104 C 0.26926 0.25013 1.00298 0.0
N105 N 0.30437 0.24755 1.00087 0.0
N106 N 0.25855 0.283 0.99498 0.0
C107 C 0.2457 0.22169 0.01571 0.0
C108 C 0.28814 0.29984 0.98707 0.0
N109 N 0.31581 0.27897 0.99144 0.0
C110 C 0.29025 0.33723 0.97485 0.0
H111 H 0.23481 0.20788 0.9925 0.0
H112 H 0.22393 0.23281 0.03103 0.0
H113 H 0.25983 0.20264 0.03229 0.0
H114 H 0.2933 0.35462 0.99807 0.0
H115 H 0.26649 0.34482 0.96052 0.0
H116 H 0.31289 0.3411 0.9573 0.0
C117 C 0.2687 0.77192 0.99462 0.0
N118 N 0.30349 0.77126 0.98926 0.0
N119 N 0.25331 0.74294 0.98082 0.0
C120 C 0.25048 0.799 0.01617 0.0
C121 C 0.27996 0.72554 0.96616 0.0
N122 N 0.3104 0.74161 0.97249 0.0
C123 C 0.27655 0.69074 0.94795 0.0
H124 H 0.26507 0.80405 0.04085 0.0
H125 H 0.22374 0.79088 0.02259 0.0
H126 H 0.24969 0.82373 1.001 0.0
H127 H 0.25169 0.68917 0.93355 0.0
H128 H 0.277 0.66951 0.96784 0.0
H129 H 0.29822 0.68665 0.92923 0.0
C130 C 0.74216 0.26245 0.99651 0.0
N131 N 0.76296 0.29085 0.99731 0.0
N132 N 0.75971 0.23339 0.00541 0.0
C133 C 0.704 0.26338 0.98827 0.0
C134 C 0.79235 0.24501 0.01114 0.0
N135 N 0.79435 0.28028 0.00663 0.0
C136 C 0.82191 0.22176 0.02094 0.0
H137 H 0.69071 0.28113 0.007 0.0
H138 H 0.69155 0.23744 0.98914 0.0
H139 H 0.70001 0.27349 0.96119 0.0
H140 H 0.81746 0.19474 0.01156 0.0
H141 H 0.82429 0.22102 0.05013 0.0
H142 H 0.84641 0.23175 0.00961 0.0
C143 C 0.74469 0.75603 0.02487 0.0
N144 N 0.7653 0.72828 0.01887 0.0
N145 N 0.76115 0.7862 0.01741 0.0
C146 C 0.70692 0.75348 0.03475 0.0
C147 C 0.79328 0.77566 0.00758 0.0
N148 N 0.79601 0.7402 0.0088 0.0
C149 C 0.82156 0.79987 0.99589 0.0
H150 H 0.69094 0.76456 0.01321 0.0
H151 H 0.70188 0.76868 0.05907 0.0
H152 H 0.69852 0.72638 0.04019 0.0
H153 H 0.83688 0.80772 0.0193 0.0
H154 H 0.81101 0.82393 0.98388 0.0
H155 H 0.83893 0.78669 0.9768 0.0
C156 C 0.53591 0.74596 0.7373 0.0
N157 N 0.53741 0.78139 0.73748 0.0
N158 N 0.54266 0.7332 0.76989 0.0
C159 C 0.52781 0.72363 0.70578 0.0
C160 C 0.54884 0.7618 0.78974 0.0
N161 N 0.54555 0.79104 0.77018 0.0
C162 C 0.5555 0.76133 0.82909 0.0
H163 H 0.49948 0.72016 0.70391 0.0
H164 H 0.53962 0.69747 0.70856 0.0
H165 H 0.53727 0.73602 0.68111 0.0
H166 H 0.55773 0.7346 0.83987 0.0
H167 H 0.53449 0.77536 0.843 0.0
H168 H 0.58003 0.77492 0.83498 0.0
C169 C 0.29541 0.51819 0.74216 0.0
N170 N 0.26062 0.52234 0.74034 0.0
N171 N 0.30792 0.53116 0.77292 0.0
C172 C 0.31673 0.49873 0.71557 0.0
C173 C 0.27971 0.54411 0.7891 0.0
N174 N 0.25084 0.5378 0.7702 0.0
C175 C 0.27995 0.56079 0.82518 0.0
H176 H 0.3004 0.48145 0.69905 0.0
H177 H 0.33678 0.48301 0.72903 0.0
H178 H 0.33003 0.51782 0.69822 0.0
H179 H 0.30477 0.57447 0.82986 0.0
H180 H 0.27679 0.54044 0.84577 0.0
H181 H 0.25831 0.57951 0.82776 0.0
C182 C 0.52756 0.2755 0.74362 0.0
N183 N 0.53074 0.27442 0.7793 0.0
N184 N 0.51968 0.24336 0.73077 0.0
C185 C 0.53404 0.30719 0.72134 0.0
C186 C 0.51845 0.22289 0.75989 0.0
N187 N 0.52518 0.24175 0.78913 0.0
C188 C 0.51222 0.18395 0.75943 0.0
H189 H 0.52241 0.33056 0.73376 0.0
H190 H 0.52348 0.30375 0.69434 0.0
H191 H 0.56225 0.31166 0.71949 0.0
H192 H 0.5294 0.17141 0.73973 0.0
H193 H 0.4852 0.17871 0.75157 0.0
H194 H 0.51608 0.17146 0.78546 0.0
C195 C 0.7625 0.50921 0.73562 0.0
N196 N 0.79752 0.50796 0.73504 0.0
N197 N 0.75071 0.50734 0.76928 0.0
C198 C 0.74 0.51467 0.70389 0.0
C199 C 0.77947 0.50407 0.78899 0.0
N200 N 0.80779 0.50485 0.76841 0.0
C201 C 0.78 0.50102 0.82879 0.0
H202 H 0.75417 0.52882 0.68278 0.0
H203 H 0.71644 0.52938 0.71118 0.0
H204 H 0.73193 0.48888 0.69349 0.0
H205 H 0.75537 0.49034 0.83909 0.0
H206 H 0.78437 0.52722 0.8404 0.0
H207 H 0.80112 0.48378 0.83774 0.0
C208 C 0.53018 0.27775 0.27207 0.0
N209 N 0.53059 0.24229 0.27257 0.0
N210 N 0.53538 0.28964 0.23876 0.0
C211 C 0.52459 0.30079 0.30363 0.0
C212 C 0.53954 0.26047 0.21922 0.0
N213 N 0.53655 0.23183 0.23965 0.0
C214 C 0.54425 0.25991 0.17959 0.0
H215 H 0.49651 0.30476 0.3074 0.0
H216 H 0.5367 0.3267 0.29962 0.0
H217 H 0.53526 0.28861 0.32782 0.0
H218 H 0.55297 0.2855 0.16926 0.0
H219 H 0.51939 0.25282 0.167 0.0
H220 H 0.5636 0.24028 0.17163 0.0
C221 C 0.76787 0.51376 0.27073 0.0
N222 N 0.80267 0.50892 0.27116 0.0
N223 N 0.7544 0.50323 0.23948 0.0
C224 C 0.74678 0.52878 0.30032 0.0
C225 C 0.78182 0.49108 0.2213 0.0
N226 N 0.81127 0.49505 0.24009 0.0
C227 C 0.77995 0.47799 0.18361 0.0
H228 H 0.7576 0.52126 0.32633 0.0
H229 H 0.71966 0.51974 0.29865 0.0
H230 H 0.74689 0.55762 0.29817 0.0
H231 H 0.79473 0.49567 0.16596 0.0
H232 H 0.75316 0.47572 0.17381 0.0
H233 H 0.79124 0.45157 0.18181 0.0
C234 C 0.55406 0.74583 0.27146 0.0
N235 N 0.55631 0.74403 0.23567 0.0
N236 N 0.56442 0.77754 0.28315 0.0
C237 C 0.53837 0.71819 0.2946 0.0
C238 C 0.57356 0.79454 0.2533 0.0
N239 N 0.56806 0.77468 0.22439 0.0
C240 C 0.58496 0.83212 0.25204 0.0
H241 H 0.52092 0.70099 0.27924 0.0
H242 H 0.52389 0.73012 0.31681 0.0
H243 H 0.55933 0.70212 0.306 0.0
H244 H 0.59809 0.83958 0.27697 0.0
H245 H 0.56213 0.84913 0.24855 0.0
H246 H 0.60258 0.8365 0.22933 0.0
C247 C 0.29327 0.51601 0.26785 0.0
N248 N 0.25817 0.51441 0.26906 0.0
N249 N 0.30492 0.50958 0.23465 0.0
C250 C 0.31634 0.52347 0.29878 0.0
C251 C 0.27596 0.50342 0.21587 0.0
N252 N 0.24766 0.50623 0.23661 0.0
C253 C 0.27511 0.49589 0.17665 0.0
H254 H 0.31945 0.55209 0.30155 0.0
H255 H 0.34225 0.512 0.29471 0.0
H256 H 0.30501 0.51299 0.32355 0.0
H257 H 0.30089 0.49635 0.16413 0.0
H258 H 0.25816 0.51498 0.16318 0.0
H259 H 0.26431 0.46951 0.17213 0.0
C260 C 0.76887 0.75122 0.51684 0.0
N261 N 0.80383 0.74845 0.52046 0.0
N262 N 0.75762 0.78319 0.52723 0.0
C263 C 0.74612 0.72412 0.50022 0.0
C264 C 0.78669 0.79925 0.53811 0.0
N265 N 0.81478 0.77898 0.53307 0.0
C266 C 0.78797 0.83586 0.55261 0.0
H267 H 0.76129 0.70621 0.48324 0.0
H268 H 0.72562 0.73666 0.48428 0.0
H269 H 0.73341 0.70876 0.52141 0.0
H270 H 0.81008 0.83894 0.57094 0.0
H271 H 0.76367 0.84224 0.56668 0.0
H272 H 0.79134 0.85466 0.53059 0.0
C273 C 0.7697 0.27299 0.50876 0.0
N274 N 0.80485 0.27525 0.51062 0.0
N275 N 0.75854 0.24035 0.51719 0.0
C276 C 0.74651 0.30149 0.49577 0.0
C277 C 0.78792 0.22329 0.52507 0.0
N278 N 0.81592 0.24378 0.5202 0.0
C279 C 0.78946 0.18599 0.53763 0.0
H280 H 0.73542 0.31534 0.51885 0.0
H281 H 0.72485 0.29039 0.48027 0.0
H282 H 0.76097 0.32047 0.47927 0.0
H283 H 0.79191 0.16831 0.51457 0.0
H284 H 0.7657 0.17892 0.55236 0.0
H285 H 0.81222 0.18197 0.55489 0.0
C286 C 0.24793 0.7644 0.47542 0.0
N287 N 0.2664 0.79365 0.48168 0.0
N288 N 0.26291 0.73616 0.49004 0.0
C289 C 0.21298 0.76411 0.45808 0.0
C290 C 0.29242 0.749 0.50419 0.0
N291 N 0.29463 0.78405 0.49898 0.0
C292 C 0.31821 0.72741 0.52393 0.0
H293 H 0.19274 0.76859 0.47832 0.0
H294 H 0.20799 0.73857 0.44526 0.0
H295 H 0.21123 0.78525 0.43814 0.0
H296 H 0.31598 0.69951 0.51655 0.0
H297 H 0.3132 0.72985 0.55269 0.0
H298 H 0.34479 0.73671 0.51846 0.0
C299 C 0.24415 0.25832 0.5211 0.0
N300 N 0.26496 0.2304 0.51697 0.0
N301 N 0.26213 0.28833 0.51803 0.0
C302 C 0.20548 0.25644 0.52628 0.0
C303 C 0.29508 0.27753 0.51232 0.0
N304 N 0.29698 0.24199 0.51213 0.0
C305 C 0.32502 0.30166 0.50604 0.0
H306 H 0.19241 0.26952 0.50385 0.0
H307 H 0.19809 0.27025 0.55082 0.0
H308 H 0.19566 0.22945 0.5289 0.0
H309 H 0.33703 0.30813 0.5318 0.0
H310 H 0.31654 0.32643 0.49379 0.0
H311 H 0.34467 0.28908 0.48898 0.0
C312 C 0.03062 0.93447 0.59525 0.0
C313 C 0.0296 0.92167 0.42423 0.0
C314 C 0.03409 0.10305 0.58151 0.0
C315 C 0.03736 0.09004 0.41059 0.0
C316 C 0.95367 0.09843 0.49445 0.0
C317 C 0.95096 0.9276 0.50829 0.0
C318 C 0.12069 0.0934 0.49617 0.0
C319 C 0.11759 0.9281 0.50938 0.0
C320 C 0.11831 1.00636 0.41786 0.0
C321 C 0.95194 1.00506 0.41567 0.0
C322 C 0.11555 0.01971 0.59033 0.0
C323 C 0.94919 0.02142 0.58768 0.0
Eu324 Eu 0.03374 0.94658 0.50832 0.0
O325 O 1.0041 0.97982 0.47401 0.0
O326 O 0.0643 0.98313 0.53782 0.0
Eu327 Eu 0.96872 0.013 0.50185 0.0
Eu328 Eu 0.0992 0.01132 0.50392 0.0
O329 O 1.00248 0.98405 0.53625 0.0
O330 O 0.06492 0.97845 0.47399 0.0
Eu331 Eu 0.03298 0.01703 0.57001 0.0
Eu332 Eu 0.03494 1.00723 0.43579 0.0
O333 O 1.0041 0.04543 0.53097 0.0
O334 O 1.00449 0.04129 0.46862 0.0
O335 O 0.06583 0.04008 0.46935 0.0
O336 O 0.06484 0.04494 0.53264 0.0
Eu337 Eu 0.03602 0.07785 0.49765 0.0
O338 O 0.03058 0.92162 0.56247 0.0
O339 O 0.02935 0.91374 0.4586 0.0
O340 O 0.03532 0.11103 0.54719 0.0
O341 O 0.03791 0.10286 0.44339 0.0
O342 O 0.94198 0.06553 0.4949 0.0
O343 O 0.94032 0.96064 0.50444 0.0
O344 O 0.1301 0.06051 0.50094 0.0
O345 O 0.12817 0.96092 0.50633 0.0
O346 O 0.0858 1.00392 0.40675 0.0
O347 O 0.98474 1.00609 0.40515 0.0
O348 O 0.08275 0.01909 0.60077 0.0
O349 O 0.98169 0.01968 0.59908 0.0
O350 O 0.08832 0.10513 0.49383 0.0
O351 O 0.98652 0.10838 0.49599 0.0
O352 O 0.08481 0.9173 0.51122 0.0
O353 O 0.98352 0.91717 0.5112 0.0
O354 O 0.03264 0.95358 0.4105 0.0
O355 O 0.03566 0.05632 0.40197 0.0
O356 O 0.03229 0.96815 0.60391 0.0
O357 O 0.03336 0.07087 0.59503 0.0
O358 O 0.93923 0.02005 0.5538 0.0
O359 O 0.94093 1.00654 0.44919 0.0
O360 O 0.12667 0.0174 0.55689 0.0
O361 O 0.12834 1.00979 0.45152 0.0
C362 C 0.52444 0.91495 0.08254 0.0
C363 C 0.5325 0.08134 0.10336 0.0
C364 C 0.53439 0.93552 0.91338 0.0
C365 C 0.54082 0.10227 0.93459 0.0
C366 C 0.61488 0.01054 0.92311 0.0
C367 C 0.60916 1.003 0.09597 0.0
C368 C 0.44837 0.02239 0.91936 0.0
C369 C 0.44131 1.00327 0.08975 0.0
C370 C 0.44807 0.09761 0.01496 0.0
C371 C 0.61571 0.09021 0.02015 0.0
C372 C 0.44153 0.92752 0.99657 0.0
C373 C 0.61095 0.92307 0.00713 0.0
Eu374 Eu 0.52587 1.00114 0.07384 0.0
O375 O 0.55885 0.03438 0.0428 0.0
O376 O 0.49558 0.97591 0.03375 0.0
Eu377 Eu 0.5946 1.00717 0.00926 0.0
Eu378 Eu 0.46292 0.01192 0.00526 0.0
O379 O 0.55758 0.97393 0.03607 0.0
O380 O 0.49744 0.03757 0.04176 0.0
Eu381 Eu 0.52688 0.94307 1.00038 0.0
Eu382 Eu 0.53103 0.07451 0.01601 0.0
O383 O 0.55949 0.98076 0.9743 0.0
O384 O 0.56174 0.04263 0.98115 0.0
O385 O 0.50021 0.04486 0.97918 0.0
O386 O 0.49824 0.98275 0.97224 0.0
Eu387 Eu 0.53124 0.01659 0.94166 0.0
O388 O 0.52432 0.94668 0.097 0.0
O389 O 0.52715 0.04775 0.11021 0.0
O390 O 0.53134 0.96932 0.90607 0.0
O391 O 0.54064 0.07066 0.91991 0.0
O392 O 0.62504 1.00891 0.95693 0.0
O393 O 0.62131 1.00438 0.0629 0.0
O394 O 0.4362 0.0172 0.95201 0.0
O395 O 0.43207 1.00936 0.05634 0.0
O396 O 0.48134 0.1058 0.01935 0.0
O397 O 0.58314 0.10141 0.02256 0.0
O398 O 0.47408 0.91557 0.99645 0.0
O399 O 0.57791 0.91289 0.00485 0.0
O400 O 0.48171 0.02409 0.91047 0.0
O401 O 0.58224 0.01308 0.91231 0.0
O402 O 0.47354 0.99853 0.10125 0.0
O403 O 0.57591 1.00128 0.10522 0.0
O404 O 0.53493 0.09599 0.07151 0.0
O405 O 0.53577 0.10967 0.96856 0.0
O406 O 0.52532 0.90774 0.04814 0.0
O407 O 0.53392 0.92092 0.94538 0.0
O408 O 0.62228 0.95578 0.00804 0.0
O409 O 0.62534 0.0574 0.01396 0.0
O410 O 0.43252 0.96116 0.99911 0.0
O411 O 0.43607 0.06536 0.00853 0.0
C412 C 0.02147 0.42687 0.08873 0.0
C413 C 0.0317 0.42378 0.91857 0.0
C414 C 0.01745 0.59713 0.08398 0.0
C415 C 0.02787 0.59269 0.91393 0.0
C416 C 0.94157 0.59325 0.99541 0.0
C417 C 0.94351 0.42425 0.99734 0.0
C418 C 0.11024 0.59666 0.00564 0.0
C419 C 0.11162 0.42584 0.00871 0.0
C420 C 0.11352 0.51042 0.91984 0.0
C421 C 0.94917 0.50253 0.9123 0.0
C422 C 0.10565 0.50891 0.0922 0.0
C423 C 0.94185 0.50466 0.08471 0.0
Eu424 Eu 0.02765 0.44353 1.00324 0.0
O425 O 0.99834 0.47795 0.97016 0.0
O426 O 0.05646 0.48 0.0351 0.0
Eu427 Eu 0.96173 0.50886 0.99899 0.0
Eu428 Eu 0.09257 0.51088 0.00524 0.0
O429 O 0.9958 0.47942 0.03227 0.0
O430 O 0.0596 0.47871 0.97292 0.0
Eu431 Eu 0.02439 0.51168 0.06843 0.0
Eu432 Eu 0.03015 0.50884 0.93579 0.0
O433 O 0.9949 0.54138 0.03076 0.0
O434 O 0.9973 0.54027 0.96862 0.0
O435 O 0.05901 0.54103 0.97165 0.0
O436 O 0.05634 0.54287 0.03404 0.0
Eu437 Eu 0.02642 0.5768 1.00009 0.0
O438 O 0.02256 0.4158 0.0554 0.0
O439 O 0.03096 0.41334 0.95213 0.0
O440 O 0.02228 0.60737 0.05075 0.0
O441 O 0.02863 0.60458 0.94708 0.0
O442 O 0.932 0.55972 0.99579 0.0
O443 O 0.93318 0.45737 0.99572 0.0
O444 O 0.12059 0.56337 0.008 0.0
O445 O 0.12156 0.45932 0.00833 0.0
O446 O 0.0813 0.51123 0.90796 0.0
O447 O 0.98217 0.50441 0.90327 0.0
O448 O 0.07277 0.51298 0.10125 0.0
O449 O 0.97378 0.5089 0.09641 0.0
O450 O 0.07749 0.60702 1.00181 0.0
O451 O 0.97417 0.6049 0.99722 0.0
O452 O 0.07899 0.41456 0.00685 0.0
O453 O 0.97624 0.41362 1.00075 0.0
O454 O 0.03165 0.4568 0.90738 0.0
O455 O 0.02746 0.55917 0.90445 0.0
O456 O 0.02304 0.46017 0.09932 0.0
O457 O 0.01687 0.5642 0.09561 0.0
O458 O 0.93185 0.50358 0.05089 0.0
O459 O 0.93624 0.50415 0.945 0.0
O460 O 0.11805 0.50694 0.05928 0.0
O461 O 0.12317 0.50936 0.95377 0.0
C462 C 0.53189 0.43208 0.09347 0.0
C463 C 0.53226 0.60096 0.08595 0.0
C464 C 0.53029 0.42519 0.92175 0.0
C465 C 0.52533 0.59196 0.91495 0.0
C466 C 0.61294 0.51662 0.91688 0.0
C467 C 0.61745 0.51951 0.08955 0.0
C468 C 0.44751 0.50537 0.92156 0.0
C469 C 0.45201 0.51801 0.0929 0.0
C470 C 0.44818 0.59422 1.00243 0.0
C471 C 0.61568 0.59741 0.998 0.0
C472 C 0.45438 0.42401 0.01231 0.0
C473 C 0.62071 0.43209 1.00097 0.0
Eu474 Eu 0.53466 0.51529 0.07146 0.0
O475 O 0.56354 0.54598 0.03414 0.0
O476 O 0.50511 0.4817 0.03754 0.0
Eu477 Eu 0.59812 0.51437 1.00365 0.0
Eu478 Eu 0.46805 0.50989 0.00683 0.0
O479 O 0.56601 0.48289 0.03737 0.0
O480 O 0.50284 0.54355 0.03505 0.0
Eu481 Eu 0.53615 0.44609 0.00684 0.0
Eu482 Eu 0.53167 0.57847 1.0014 0.0
O483 O 0.56438 0.48116 0.97344 0.0
O484 O 0.56206 0.54266 0.97138 0.0
O485 O 0.5008 0.54094 0.97321 0.0
O486 O 0.50294 0.47888 0.97574 0.0
Eu487 Eu 0.53117 0.50959 0.93823 0.0
O488 O 0.53314 0.46545 0.10312 0.0
O489 O 0.53454 0.56841 0.09839 0.0
O490 O 0.52876 0.45794 0.91036 0.0
O491 O 0.52852 0.55868 0.90571 0.0
O492 O 0.6244 0.51932 0.95008 0.0
O493 O 0.62756 0.51923 0.0557 0.0
O494 O 0.43793 0.50452 0.95553 0.0
O495 O 0.44064 0.51612 0.05964 0.0
O496 O 0.48046 0.60605 1.0011 0.0
O497 O 0.58286 0.60795 0.99559 0.0
O498 O 0.48711 0.41462 0.0079 0.0
O499 O 0.58855 0.41954 1.00262 0.0
O500 O 0.47982 0.50824 0.90986 0.0
O501 O 0.58053 0.51082 0.90705 0.0
O502 O 0.4849 0.51699 0.10298 0.0
O503 O 0.58504 0.51715 0.10085 0.0
O504 O 0.53082 0.60997 0.05192 0.0
O505 O 0.52548 0.60446 0.94789 0.0
O506 O 0.5334 0.41973 0.06047 0.0
O507 O 0.53391 0.41503 0.95535 0.0
O508 O 0.62985 0.46548 1.00201 0.0
O509 O 0.62633 0.56491 1.00255 0.0
O510 O 0.44245 0.45671 0.01415 0.0
O511 O 0.43842 0.56081 0.00442 0.0
C512 C 0.02895 0.42151 0.58506 0.0
C513 C 0.03662 0.43484 0.41576 0.0
C514 C 0.02841 0.58925 0.59893 0.0
C515 C 0.03556 0.60297 0.4292 0.0
C516 C 0.94696 0.59763 0.50693 0.0
C517 C 0.94907 0.42552 0.49847 0.0
C518 C 0.11436 0.59781 0.51497 0.0
C519 C 0.11716 0.43035 0.50892 0.0
C520 C 0.11587 0.51348 0.42156 0.0
C521 C 0.94897 0.51366 0.419 0.0
C522 C 0.11301 0.50581 0.59442 0.0
C523 C 0.94602 0.51172 0.59097 0.0
Eu524 Eu 0.03263 0.44697 0.50218 0.0
O525 O 1.00146 0.48367 0.47329 0.0
O526 O 0.06198 0.4804 0.53611 0.0
Eu527 Eu 0.96463 0.51155 0.50544 0.0
Eu528 Eu 0.09728 0.51373 0.50783 0.0
O529 O 0.99972 0.47875 0.53514 0.0
O530 O 0.06326 0.4845 0.4739 0.0
Eu531 Eu 0.02981 0.50733 0.57321 0.0
Eu532 Eu 0.03229 0.51715 0.44032 0.0
O533 O 0.99924 0.54016 0.53947 0.0
O534 O 1.00032 0.545 0.47738 0.0
O535 O 0.06229 0.54609 0.47829 0.0
O536 O 0.06125 0.54129 0.5411 0.0
Eu537 Eu 0.03046 0.57779 0.51205 0.0
O538 O 0.03172 0.41339 0.55101 0.0
O539 O 0.03855 0.42219 0.44849 0.0
O540 O 0.0258 0.60224 0.56633 0.0
O541 O 0.03297 0.61109 0.46325 0.0
O542 O 0.93571 0.56442 0.50593 0.0
O543 O 0.93721 0.45815 0.50286 0.0
O544 O 0.12546 0.56528 0.51031 0.0
O545 O 0.12736 0.46347 0.50786 0.0
O546 O 0.08309 0.51429 0.41101 0.0
O547 O 0.98206 0.51592 0.40936 0.0
O548 O 0.07988 0.50277 0.60362 0.0
O549 O 0.97871 0.51092 0.60186 0.0
O550 O 0.08128 0.60749 0.51738 0.0
O551 O 0.97998 0.60728 0.50929 0.0
O552 O 0.08449 0.41902 0.50768 0.0
O553 O 0.98239 0.41669 0.49663 0.0
O554 O 0.03252 0.46821 0.40694 0.0
O555 O 0.03591 0.57093 0.41538 0.0
O556 O 0.02668 0.45367 0.5984 0.0
O557 O 0.03207 0.55573 0.60727 0.0
O558 O 0.93526 0.51072 0.55747 0.0
O559 O 0.93714 0.5123 0.45218 0.0
O560 O 0.12463 0.51118 0.56147 0.0
O561 O 0.12669 0.51424 0.45515 0.0
C562 C 0.53276 0.93294 0.59523 0.0
C563 C 0.52814 0.92225 0.42472 0.0
C564 C 0.52051 0.10156 0.58478 0.0
C565 C 0.5296 0.09116 0.41525 0.0
C566 C 0.44208 0.09488 0.50019 0.0
C567 C 0.44482 0.92592 0.5046 0.0
C568 C 0.61085 0.09798 0.5018 0.0
C569 C 0.61289 0.9278 0.50517 0.0
C570 C 0.60983 0.01425 0.41891 0.0
C571 C 0.44539 1.00586 0.41967 0.0
C572 C 0.60953 0.01287 0.59147 0.0
C573 C 0.44615 1.0067 0.59145 0.0
Eu574 Eu 0.52872 0.94516 0.50886 0.0
O575 O 0.49771 0.97846 0.4761 0.0
O576 O 0.55831 0.98333 0.5375 0.0
Eu577 Eu 0.46241 0.01072 0.50524 0.0
Eu578 Eu 0.59324 0.01273 0.5051 0.0
O579 O 0.49779 0.98205 0.53796 0.0
O580 O 0.55935 0.97896 0.47551 0.0
Eu581 Eu 0.52779 0.01605 0.57123 0.0
Eu582 Eu 0.52793 1.00779 0.4391 0.0
O583 O 0.49628 0.04454 0.53464 0.0
O584 O 0.49678 0.04079 0.47225 0.0
O585 O 0.55736 0.04113 0.47307 0.0
O586 O 0.55863 0.04587 0.53479 0.0
Eu587 Eu 0.52677 0.07843 0.50157 0.0
O588 O 0.5293 0.91976 0.56282 0.0
O589 O 0.52968 0.91296 0.45864 0.0
O590 O 0.52451 0.11077 0.55116 0.0
O591 O 0.5274 0.10417 0.44783 0.0
O592 O 0.43245 0.06146 0.5024 0.0
O593 O 0.43432 0.95895 0.50229 0.0
O594 O 0.62139 0.06483 0.5042 0.0
O595 O 0.62242 0.96125 0.50176 0.0
O596 O 0.57772 1.0077 0.40871 0.0
O597 O 0.47808 1.00461 0.40923 0.0
O598 O 0.57745 0.01999 0.60142 0.0
O599 O 0.47867 0.0101 0.6017 0.0
O600 O 0.57795 0.1085 0.50077 0.0
O601 O 0.47468 0.10651 0.49983 0.0
O602 O 0.58046 0.9166 0.50973 0.0
O603 O 0.47747 0.91533 0.50842 0.0
O604 O 0.52712 0.95488 0.41252 0.0
O605 O 0.53026 0.05742 0.4066 0.0
O606 O 0.53385 0.96672 0.60366 0.0
O607 O 0.52016 0.069 0.59736 0.0
O608 O 0.43451 1.0069 0.55822 0.0
O609 O 0.43408 1.00905 0.45282 0.0
O610 O 0.62045 1.00813 0.55827 0.0
O611 O 0.62076 0.01791 0.45217 0.0
H612 H 0.22858 0.21054 0.46184 0.0
H613 H 0.27097 0.17464 0.56001 0.0
H614 H 0.23094 0.12478 0.56001 0.0
H615 H 0.17708 0.0986 0.53731 0.0
H616 H 0.12812 0.14299 0.44578 0.0
H617 H 0.17646 0.18342 0.43809 0.0
C618 C 0.2297 0.19084 0.48238 0.0
C619 C 0.25227 0.1958 0.51087 0.0
C620 C 0.20432 0.16501 0.48404 0.0
C621 C 0.25376 0.17089 0.53784 0.0
C622 C 0.23044 0.14299 0.53812 0.0
C623 C 0.1772 0.11713 0.51571 0.0
C624 C 0.14907 0.11843 0.49239 0.0
C625 C 0.2044 0.14103 0.51239 0.0
C626 C 0.14923 0.14228 0.46438 0.0
C627 C 0.17701 0.16498 0.45979 0.0
H628 H 0.83119 0.20164 0.46751 0.0
H629 H 0.874 0.25129 0.55925 0.0
H630 H 0.92397 0.21176 0.55702 0.0
H631 H 0.95031 0.15737 0.53378 0.0
H632 H 0.90035 0.10235 0.44865 0.0
H633 H 0.85755 0.14887 0.44372 0.0
C634 C 0.85212 0.20427 0.4863 0.0
C635 C 0.84937 0.22918 0.51334 0.0
C636 C 0.87861 0.17965 0.48662 0.0
C637 C 0.87603 0.23247 0.53804 0.0
C638 C 0.90412 0.2095 0.53704 0.0
C639 C 0.93012 0.15586 0.51404 0.0
C640 C 0.92815 0.12659 0.49165 0.0
C641 C 0.90486 0.18204 0.51235 0.0
C642 C 0.90193 0.12451 0.46634 0.0
C643 C 0.87772 0.15117 0.46337 0.0
H644 H 0.82977 0.82204 0.4811 0.0
H645 H 0.87257 0.77275 0.57292 0.0
H646 H 0.92167 0.81372 0.57169 0.0
H647 H 0.94759 0.8687 0.5486 0.0
H648 H 0.89625 0.92357 0.46456 0.0
H649 H 0.85457 0.87619 0.45883 0.0
C650 C 0.85053 0.81981 0.50014 0.0
C651 C 0.84804 0.79448 0.52682 0.0
C652 C 0.87626 0.84534 0.50125 0.0
C653 C 0.87442 0.79182 0.55191 0.0
C654 C 0.90198 0.81563 0.55151 0.0
C655 C 0.9272 0.87016 0.52913 0.0
C656 C 0.92481 0.89963 0.50699 0.0
C657 C 0.90236 0.8434 0.52715 0.0
C658 C 0.89833 0.90137 0.48196 0.0
C659 C 0.87471 0.87415 0.47854 0.0
H660 H 0.22362 0.807 0.53402 0.0
H661 H 0.26799 0.85095 0.43986 0.0
H662 H 0.22665 0.8993 0.44212 0.0
H663 H 0.1734 0.92456 0.46713 0.0
H664 H 0.12316 0.87364 0.55484 0.0
H665 H 0.17045 0.83154 0.55855 0.0
C666 C 0.22468 0.82791 0.51474 0.0
C667 C 0.24913 0.82624 0.48739 0.0
C668 C 0.19897 0.85338 0.51444 0.0
C669 C 0.25002 0.85248 0.46168 0.0
C670 C 0.22595 0.8796 0.46264 0.0
C671 C 0.17299 0.90422 0.48707 0.0
C672 C 0.14503 0.90187 0.51066 0.0
C673 C 0.1996 0.87957 0.4882 0.0
C674 C 0.14433 0.87547 0.53622 0.0
C675 C 0.17145 0.85172 0.53851 0.0
H676 H 0.58544 0.19405 0.20911 0.0
H677 H 0.47888 0.19288 0.23991 0.0
H678 H 0.46862 0.14097 0.20327 0.0
H679 H 0.48837 0.10268 0.15451 0.0
H680 H 0.59348 0.11024 0.11844 0.0
H681 H 0.60632 0.15306 0.16444 0.0
C682 C 0.56026 0.18174 0.20817 0.0
C683 C 0.53279 0.19702 0.22634 0.0
C684 C 0.55433 0.15368 0.18542 0.0
C685 C 0.50021 0.18119 0.22578 0.0
C686 C 0.49435 0.15193 0.20458 0.0
C687 C 0.5141 0.11346 0.15732 0.0
C688 C 0.53999 0.10397 0.13336 0.0
C689 C 0.52087 0.139 0.18298 0.0
C690 C 0.57326 0.11783 0.13665 0.0
C691 C 0.58059 0.14209 0.16292 0.0
H692 H 0.84492 0.44579 0.20326 0.0
H693 H 0.85172 0.55216 0.23857 0.0
H694 H 0.89526 0.56452 0.19344 0.0
H695 H 0.9239 0.54747 0.13779 0.0
H696 H 0.90641 0.44495 0.09492 0.0
H697 H 0.87209 0.42914 0.14703 0.0
C698 C 0.85608 0.4716 0.20095 0.0
C699 C 0.84454 0.49824 0.22342 0.0
C700 C 0.87754 0.47959 0.17227 0.0
C701 C 0.86029 0.53119 0.22158 0.0
C702 C 0.88446 0.53849 0.19519 0.0
C703 C 0.91195 0.52194 0.13975 0.0
C704 C 0.91654 0.49765 0.11245 0.0
C705 C 0.89174 0.51345 0.16925 0.0
C706 C 0.90196 0.46431 0.11527 0.0
C707 C 0.883 0.45513 0.14527 0.0
H708 H 0.51312 0.81218 0.21026 0.0
H709 H 0.60666 0.77269 0.1647 0.0
H710 H 0.5986 0.81029 0.11249 0.0
H711 H 0.5685 0.86026 0.08444 0.0
H712 H 0.47952 0.90446 0.13584 0.0
H713 H 0.48171 0.85926 0.18131 0.0
C714 C 0.53112 0.81137 0.1883 0.0
C715 C 0.56025 0.78997 0.19074 0.0
C716 C 0.52725 0.83429 0.15993 0.0
C717 C 0.58396 0.78896 0.16284 0.0
C718 C 0.57945 0.81063 0.13337 0.0
C719 C 0.54937 0.85945 0.10535 0.0
C720 C 0.52389 0.8854 0.10712 0.0
C721 C 0.5518 0.8343 0.13227 0.0
C722 C 0.49936 0.88468 0.13432 0.0
C723 C 0.50061 0.85891 0.16019 0.0
H724 H 0.21384 0.45584 0.20269 0.0
H725 H 0.20492 0.56148 0.23915 0.0
H726 H 0.15615 0.57119 0.19904 0.0
H727 H 0.123 0.55219 0.14624 0.0
H728 H 0.14038 0.44961 0.10355 0.0
H729 H 0.17993 0.43624 0.15193 0.0
C730 C 0.20069 0.48074 0.20208 0.0
C731 C 0.21303 0.50809 0.22314 0.0
C732 C 0.17523 0.48694 0.1767 0.0
C733 C 0.1956 0.54009 0.2231 0.0
C734 C 0.16827 0.54578 0.19969 0.0
C735 C 0.13557 0.52701 0.14776 0.0
C736 C 0.12967 0.50209 0.12124 0.0
C737 C 0.15909 0.51995 0.17508 0.0
C738 C 0.14551 0.46936 0.12333 0.0
C739 C 0.16771 0.46161 0.15114 0.0
H740 H 0.59298 0.82659 0.80615 0.0
H741 H 0.48905 0.83159 0.76749 0.0
H742 H 0.47721 0.88168 0.80596 0.0
H743 H 0.49392 0.91714 0.85803 0.0
H744 H 0.5947 0.90332 0.90348 0.0
H745 H 0.61038 0.86297 0.85613 0.0
C746 C 0.56792 0.83903 0.80611 0.0
C747 C 0.54171 0.82537 0.78486 0.0
C748 C 0.56063 0.86552 0.83033 0.0
C749 C 0.50953 0.84195 0.78383 0.0
C750 C 0.50267 0.87013 0.80618 0.0
C751 C 0.51931 0.90537 0.85714 0.0
C752 C 0.54318 0.91265 0.8839 0.0
C753 C 0.52752 0.881 0.83076 0.0
C754 C 0.576 0.89752 0.88304 0.0
C755 C 0.58498 0.87469 0.85599 0.0
H756 H 0.23937 0.48896 0.81775 0.0
H757 H 0.19144 0.57426 0.76323 0.0
H758 H 0.14201 0.57156 0.80424 0.0
H759 H 0.1164 0.5488 0.85983 0.0
H760 H 0.17056 0.46994 0.91891 0.0
H761 H 0.21454 0.46669 0.87263 0.0
C762 C 0.21761 0.5064 0.81462 0.0
C763 C 0.21856 0.53166 0.78778 0.0
C764 C 0.19125 0.50644 0.83976 0.0
C765 C 0.19079 0.55452 0.78367 0.0
C766 C 0.16298 0.55321 0.80736 0.0
C767 C 0.13788 0.53092 0.86239 0.0
C768 C 0.14058 0.50972 0.89265 0.0
C769 C 0.16358 0.53005 0.83623 0.0
C770 C 0.16841 0.48677 0.89602 0.0
C771 C 0.19327 0.48469 0.86948 0.0
H772 H 0.5763 0.20122 0.80924 0.0
H773 H 0.48391 0.25126 0.84547 0.0
H774 H 0.48402 0.21525 0.89928 0.0
H775 H 0.50475 0.16213 0.92944 0.0
H776 H 0.59219 0.10695 0.88695 0.0
H777 H 0.60011 0.15197 0.84196 0.0
C778 C 0.55692 0.20464 0.82964 0.0
C779 C 0.52992 0.22797 0.82387 0.0
C780 C 0.556 0.18235 0.85872 0.0
C781 C 0.50468 0.23296 0.84983 0.0
C782 C 0.50463 0.21221 0.88018 0.0
C783 C 0.52585 0.16054 0.91066 0.0
C784 C 0.54769 0.13147 0.91088 0.0
C785 C 0.52918 0.18561 0.88394 0.0
C786 C 0.5749 0.12911 0.88661 0.0
C787 C 0.57948 0.15479 0.86109 0.0
H788 H 0.84847 0.45449 0.79224 0.0
H789 H 0.83963 0.56536 0.77986 0.0
H790 H 0.88599 0.57482 0.82245 0.0
H791 H 0.92222 0.55154 0.87016 0.0
H792 H 0.92536 0.44085 0.88849 0.0
H793 H 0.88738 0.4308 0.8377 0.0
C794 C 0.85808 0.48047 0.79784 0.0
C795 C 0.84189 0.50917 0.78216 0.0
C796 C 0.88237 0.48561 0.82475 0.0
C797 C 0.85301 0.54299 0.79057 0.0
C798 C 0.87877 0.54836 0.81559 0.0
C799 C 0.91434 0.52534 0.86289 0.0
C800 C 0.92534 0.49698 0.88312 0.0
C801 C 0.89242 0.51994 0.83403 0.0
C802 C 0.91603 0.46297 0.87351 0.0
C803 C 0.89477 0.45726 0.84435 0.0
H804 H 0.72629 0.71231 0.96434 0.0
H805 H 0.77095 0.67052 0.05902 0.0
H806 H 0.72823 0.62305 0.05921 0.0
H807 H 0.67243 0.60066 0.03816 0.0
H808 H 0.62189 0.65004 0.9501 0.0
H809 H 0.6716 0.68896 0.94221 0.0
C810 C 0.72728 0.69179 0.98405 0.0
C811 C 0.75141 0.69441 0.01157 0.0
C812 C 0.70048 0.66749 0.98611 0.0
C813 C 0.75266 0.66851 0.03755 0.0
C814 C 0.72779 0.64206 0.03803 0.0
C815 C 0.67239 0.62002 0.0173 0.0
C816 C 0.64358 0.62307 0.99502 0.0
C817 C 0.70053 0.64259 0.01359 0.0
C818 C 0.64356 0.648 0.968 0.0
C819 C 0.67211 0.66975 0.9632 0.0
H820 H 0.31756 0.68904 0.01661 0.0
H821 H 0.37212 0.7503 0.93949 0.0
H822 H 0.42216 0.71086 0.94416 0.0
H823 H 0.44762 0.65607 0.96732 0.0
H824 H 0.38734 0.59111 0.03721 0.0
H825 H 0.34158 0.63452 0.03801 0.0
C826 C 0.34053 0.6936 1.00087 0.0
C827 C 0.34143 0.72188 0.97743 0.0
C828 C 0.36766 0.66995 1.00221 0.0
C829 C 0.37118 0.72838 0.95749 0.0
C830 C 0.39945 0.70579 0.96007 0.0
C831 C 0.42445 0.65157 0.9827 0.0
C832 C 0.42076 0.62057 1.00231 0.0
C833 C 0.39758 0.676 0.98177 0.0
C834 C 0.39064 0.61476 0.02197 0.0
C835 C 0.36457 0.63957 0.02249 0.0
H836 H 0.3337 0.31962 0.04436 0.0
H837 H 0.37212 0.27162 0.94972 0.0
H838 H 0.42228 0.31114 0.95005 0.0
H839 H 0.4495 0.36546 0.97248 0.0
H840 H 0.40388 0.41867 0.06131 0.0
H841 H 0.36155 0.37176 0.06796 0.0
C842 C 0.35382 0.31727 0.02457 0.0
C843 C 0.34972 0.29293 0.9972 0.0
C844 C 0.38039 0.34189 0.02334 0.0
C845 C 0.37524 0.29001 0.97117 0.0
C846 C 0.40342 0.31299 0.97111 0.0
C847 C 0.43037 0.36648 0.9934 0.0
C848 C 0.42936 0.39544 0.01623 0.0
C849 C 0.40534 0.34006 0.99616 0.0
C850 C 0.4046 0.39682 0.04317 0.0
C851 C 0.38067 0.36993 0.04713 0.0
H852 H 0.72884 0.32353 0.94588 0.0
H853 H 0.76741 0.33627 0.05144 0.0
H854 H 0.72795 0.38528 0.06116 0.0
H855 H 0.67509 0.41691 0.04303 0.0
H856 H 0.62915 0.39395 0.9421 0.0
H857 H 0.67708 0.35508 0.92751 0.0
C858 C 0.72872 0.33747 0.97079 0.0
C859 C 0.75019 0.32604 0.99818 0.0
C860 C 0.7034 0.36258 0.97741 0.0
C861 C 0.75099 0.34477 0.03001 0.0
C862 C 0.72791 0.37218 0.03579 0.0
C863 C 0.67574 0.40319 0.01798 0.0
C864 C 0.64863 0.40744 0.99385 0.0
C865 C 0.70269 0.37993 0.01039 0.0
C866 C 0.64954 0.39015 0.96125 0.0
C867 C 0.67707 0.36837 0.95278 0.0
H868 H 1.01115 0.71746 0.69952 0.0
H869 H 0.1034 0.67525 0.74501 0.0
H870 H 0.09799 0.62292 0.70752 0.0
H871 H 0.07075 0.59368 0.65592 0.0
H872 H 0.98254 0.64128 0.60647 0.0
H873 H 0.98229 0.68723 0.65113 0.0
C874 C 0.02952 0.69627 0.70156 0.0
C875 C 0.05756 0.69971 0.72458 0.0
C876 C 0.02715 0.66775 0.67878 0.0
C877 C 0.08159 0.67268 0.72738 0.0
C878 C 0.0786 0.64313 0.70577 0.0
C879 C 0.05124 0.61388 0.65545 0.0
C880 C 0.02677 0.61445 0.62807 0.0
C881 C 0.05213 0.641 0.68046 0.0
C882 C 1.00174 0.64073 0.62723 0.0
C883 C 1.00155 0.66687 0.65273 0.0
H884 H 0.35281 0.95507 0.71653 0.0
H885 H 0.3361 0.06532 0.72616 0.0
H886 H 0.37906 0.07687 0.68032 0.0
H887 H 0.41536 0.05494 0.63186 0.0
H888 H 0.42533 0.94429 0.61605 0.0
H889 H 0.39001 0.933 0.66868 0.0
C890 C 0.35982 0.98153 0.70936 0.0
C891 C 0.34254 1.00939 0.72545 0.0
C892 C 0.38187 0.98764 0.6806 0.0
C893 C 0.35042 0.04367 0.71514 0.0
C894 C 0.37419 0.05017 0.6883 0.0
C895 C 0.40929 0.02845 0.63988 0.0
C896 C 0.4217 1.00041 0.62002 0.0
C897 C 0.3889 0.02231 0.66983 0.0
C898 C 0.41487 0.96611 0.63073 0.0
C899 C 0.39519 0.95972 0.66097 0.0
H900 H 0.02211 0.31701 0.71224 0.0
H901 H 0.10962 0.27345 0.65852 0.0
H902 H 0.10023 0.31328 0.60828 0.0
H903 H 0.07065 0.36506 0.5836 0.0
H904 H 0.98874 0.41343 0.64302 0.0
H905 H 0.99211 0.36732 0.68751 0.0
C906 C 0.03855 0.31597 0.68905 0.0
C907 C 0.06633 0.29264 0.68853 0.0
C908 C 0.0342 0.34014 0.66187 0.0
C909 C 0.08801 0.29124 0.65898 0.0
C910 C 0.08275 0.31415 0.63063 0.0
C911 C 0.05337 0.36515 0.60615 0.0
C912 C 0.02951 0.39244 0.6103 0.0
C913 C 0.05655 0.33943 0.63235 0.0
C914 C 1.00739 0.39272 0.63961 0.0
C915 C 1.00927 0.36638 0.66489 0.0
H916 H 0.71256 0.95482 0.70457 0.0
H917 H 0.70554 0.06028 0.74202 0.0
H918 H 0.65807 0.07174 0.70089 0.0
H919 H 0.62651 0.05465 0.64661 0.0
H920 H 0.64435 0.9532 0.6013 0.0
H921 H 0.68114 0.93754 0.65128 0.0
C922 C 0.7002 0.98012 0.70383 0.0
C923 C 0.71287 1.00693 0.72539 0.0
C924 C 0.67615 0.98757 0.67738 0.0
C925 C 0.69609 0.0393 0.7255 0.0
C926 C 0.66959 0.04603 0.70144 0.0
C927 C 0.63874 0.02927 0.64777 0.0
C928 C 0.63365 1.00532 0.62021 0.0
C929 C 0.66088 0.021 0.67587 0.0
C930 C 0.64895 0.97229 0.62189 0.0
C931 C 0.66949 0.96319 0.65064 0.0
H932 H 0.04872 0.30253 0.32041 0.0
H933 H 0.96544 0.3526 0.26577 0.0
H934 H 0.97254 0.40498 0.30295 0.0
H935 H 0.99908 0.43318 0.3553 0.0
H936 H 0.07847 0.37892 0.41279 0.0
H937 H 0.07687 0.33135 0.37003 0.0
C938 C 0.03235 0.32514 0.31676 0.0
C939 C 1.00626 0.32404 0.29131 0.0
C940 C 0.03598 0.35406 0.33872 0.0
C941 C 0.98539 0.35324 0.28573 0.0
C942 C 0.98947 0.3829 0.30693 0.0
C943 C 0.01622 0.4111 0.35806 0.0
C944 C 0.03857 0.40913 0.38717 0.0
C945 C 1.01413 0.38318 0.33417 0.0
C946 C 0.06082 0.38059 0.3907 0.0
C947 C 0.05991 0.35347 0.36634 0.0
H948 H 0.71497 0.07074 0.30656 0.0
H949 H 0.71096 0.96385 0.27278 0.0
H950 H 0.6636 0.95225 0.31423 0.0
H951 H 0.63 0.97064 0.36672 0.0
H952 H 0.64218 0.07504 0.40676 0.0
H953 H 0.68097 0.08946 0.35779 0.0
C954 C 0.70337 0.04506 0.30825 0.0
C955 C 0.71659 0.018 0.28743 0.0
C956 C 0.67873 0.03796 0.33432 0.0
C957 C 0.70094 0.98501 0.28866 0.0
C958 C 0.67442 0.97828 0.31279 0.0
C959 C 0.64142 0.9964 0.3646 0.0
C960 C 0.63435 0.02156 0.39049 0.0
C961 C 0.66434 1.00412 0.33693 0.0
C962 C 0.64849 0.05508 0.38757 0.0
C963 C 0.67015 0.06343 0.35938 0.0
H964 H 0.06057 0.71506 0.3114 0.0
H965 H 0.95613 0.74007 0.33913 0.0
H966 H 0.95895 0.70105 0.39022 0.0
H967 H 0.98774 0.65224 0.41999 0.0
H968 H 0.08777 0.61879 0.38437 0.0
H969 H 0.0903 0.66766 0.34257 0.0
C970 C 0.03917 0.71286 0.32975 0.0
C971 C 1.00869 0.7311 0.32267 0.0
C972 C 0.03987 0.6877 0.35652 0.0
C973 C 0.98023 0.72727 0.3452 0.0
C974 C 0.98162 0.70435 0.37377 0.0
C975 C 1.01018 0.65613 0.40332 0.0
C976 C 0.03747 0.63236 0.40478 0.0
C977 C 1.01072 0.68327 0.37861 0.0
C978 C 0.06639 0.63687 0.38305 0.0
C979 C 0.0679 0.66482 0.35948 0.0
H980 H 0.32887 1.00978 0.30513 0.0
H981 H 0.36396 0.90483 0.28883 0.0
H982 H 0.41085 0.914 0.33145 0.0
H983 H 0.43757 0.95041 0.37768 0.0
H984 H 0.39661 0.05235 0.39989 0.0
H985 H 0.35523 0.04598 0.35131 0.0
C986 C 0.34758 0.98946 0.31037 0.0
C987 C 0.34407 0.95715 0.29343 0.0
C988 C 0.37239 0.99418 0.33665 0.0
C989 C 0.3672 0.93019 0.3009 0.0
C990 C 0.39344 0.9353 0.32564 0.0
C991 C 0.41965 0.97118 0.37152 0.0
C992 C 0.41979 1.00177 0.39181 0.0
C993 C 0.39562 0.96687 0.34433 0.0
C994 C 0.39642 0.02854 0.38448 0.0
C995 C 0.37311 0.02498 0.35668 0.0
H996 H 0.05519 0.22127 0.31309 0.0
H997 H 0.97127 0.17288 0.25775 0.0
H998 H 0.9769 0.12032 0.29473 0.0
H999 H 1.0007 0.0922 0.34881 0.0
H1000 H 0.07912 0.14612 0.40821 0.0
H1001 H 0.08088 0.19245 0.36417 0.0
C1002 C 0.03897 0.19863 0.30857 0.0
C1003 C 1.01317 0.20046 0.28273 0.0
C1004 C 0.04098 0.16991 0.33133 0.0
C1005 C 0.99162 0.17158 0.27723 0.0
C1006 C 0.99458 0.14188 0.2987 0.0
C1007 C 0.01851 0.11386 0.35163 0.0
C1008 C 0.03981 0.11585 0.38168 0.0
C1009 C 0.01833 0.1413 0.32677 0.0
C1010 C 0.06246 0.14418 0.3854 0.0
C1011 C 0.0635 0.17064 0.3602 0.0
H1012 H 0.82441 0.97032 0.31923 0.0
H1013 H 0.86537 0.0558 0.25895 0.0
H1014 H 0.91712 0.05693 0.29652 0.0
H1015 H 0.94629 0.03872 0.35216 0.0
H1016 H 0.8985 0.96013 0.41722 0.0
H1017 H 0.85357 0.95135 0.3731 0.0
C1018 C 0.84532 0.98837 0.3138 0.0
C1019 C 0.84148 0.01269 0.28635 0.0
C1020 C 0.87316 0.99074 0.33726 0.0
C1021 C 0.86816 0.03655 0.27967 0.0
C1022 C 0.89735 0.03754 0.30155 0.0
C1023 C 0.92612 0.01953 0.35638 0.0
C1024 C 0.92551 1.0001 0.38799 0.0
C1025 C 0.89944 0.01569 0.33135 0.0
C1026 C 0.89921 0.97553 0.39335 0.0
C1027 C 0.87367 0.97038 0.36799 0.0
H1028 H 0.9748 0.79778 0.33102 0.0
H1029 H 0.06707 0.82013 0.27199 0.0
H1030 H 0.08003 0.86906 0.3116 0.0
H1031 H 0.06562 0.90433 0.36479 0.0
H1032 H 0.97778 0.87508 0.4282 0.0
H1033 H 0.96319 0.82895 0.3862 0.0
C1034 C 0.99817 0.81277 0.32737 0.0
C1035 C 0.01992 0.80526 0.29871 0.0
C1036 C 1.00635 0.83938 0.35135 0.0
C1037 C 0.04952 0.82583 0.29345 0.0
C1038 C 0.05712 0.85352 0.31635 0.0
C1039 C 0.04343 0.88766 0.36932 0.0
C1040 C 0.02275 0.89291 0.39941 0.0
C1041 C 0.03581 0.86041 0.34558 0.0
C1042 C 0.99416 0.87119 0.40532 0.0
C1043 C 0.98572 0.84499 0.38125 0.0
H1044 H 0.25063 0.01128 0.32122 0.0
H1045 H 0.19181 0.93691 0.26141 0.0
H1046 H 0.14146 0.94704 0.29971 0.0
H1047 H 0.11739 0.97132 0.35516 0.0
H1048 H 0.18021 0.03965 0.41895 0.0
H1049 H 0.22618 0.03718 0.37485 0.0
C1050 C 0.22636 0.9981 0.31617 0.0
C1051 C 0.22455 0.97365 0.28858 0.0
C1052 C 0.19876 1.00223 0.33973 0.0
C1053 C 0.1934 0.95621 0.28223 0.0
C1054 C 0.16495 0.96162 0.30447 0.0
C1055 C 0.14103 0.98593 0.35918 0.0
C1056 C 0.14552 1.00547 0.3904 0.0
C1057 C 0.1678 0.98359 0.33411 0.0
C1058 C 0.17635 0.02405 0.39541 0.0
C1059 C 0.20253 0.02285 0.37009 0.0
H1060 H 1.01143 0.80359 0.69265 0.0
H1061 H 0.09428 0.85233 0.74943 0.0
H1062 H 0.08949 0.90458 0.71184 0.0
H1063 H 0.06656 0.9324 0.65728 0.0
H1064 H 0.98832 0.87879 0.59729 0.0
H1065 H 0.98631 0.8323 0.6412 0.0
C1066 C 0.02781 0.82612 0.69713 0.0
C1067 C 0.05313 0.8245 0.72345 0.0
C1068 C 0.02607 0.85476 0.67431 0.0
C1069 C 0.07449 0.85343 0.72934 0.0
C1070 C 0.07196 0.88296 0.70761 0.0
C1071 C 0.04876 0.91076 0.65429 0.0
C1072 C 0.02773 0.90876 0.62408 0.0
C1073 C 0.04865 0.88338 0.67915 0.0
C1074 C 1.00495 0.88056 0.62016 0.0
C1075 C 1.00373 0.85407 0.64529 0.0
H1076 H 0.2419 0.05302 0.68865 0.0
H1077 H 0.19139 0.97785 0.75517 0.0
H1078 H 0.14129 0.97724 0.71527 0.0
H1079 H 0.11632 0.99188 0.65666 0.0
H1080 H 0.17308 0.05944 0.58638 0.0
H1081 H 0.21682 0.06876 0.63169 0.0
C1082 C 0.21937 0.03731 0.69474 0.0
C1083 C 0.22003 0.01553 0.72456 0.0
C1084 C 0.19248 0.03492 0.67024 0.0
C1085 C 0.1911 0.99499 0.73245 0.0
C1086 C 0.16288 0.99424 0.70931 0.0
C1087 C 0.1382 1.00879 0.65149 0.0
C1088 C 0.1417 0.02484 0.61817 0.0
C1089 C 0.16398 0.01296 0.67733 0.0
C1090 C 0.17016 0.04652 0.61162 0.0
C1091 C 0.19499 0.05205 0.63761 0.0
H1092 H 0.02418 0.24246 0.66959 0.0
H1093 H 0.08222 0.18071 0.74359 0.0
H1094 H 0.07727 0.12999 0.70485 0.0
H1095 H 0.05993 0.10432 0.64812 0.0
H1096 H 1.00744 0.16799 0.57128 0.0
H1097 H 1.0078 0.21722 0.61231 0.0
C1098 C 0.03624 0.21815 0.67702 0.0
C1099 C 0.05379 0.21546 0.70938 0.0
C1100 C 0.0346 0.18953 0.65387 0.0
C1101 C 0.06814 0.18325 0.71906 0.0
C1102 C 0.06563 0.15437 0.69676 0.0
C1103 C 0.04835 0.12891 0.64047 0.0
C1104 C 0.03369 0.13251 0.60674 0.0
C1105 C 0.04937 0.15734 0.66386 0.0
C1106 C 0.01913 0.16464 0.59703 0.0
C1107 C 0.01921 0.19276 0.62051 0.0
H1108 H 0.82016 0.05695 0.68334 0.0
H1109 H 0.86307 0.97517 0.74706 0.0
H1110 H 0.91429 0.97326 0.70874 0.0
H1111 H 0.94315 0.98987 0.65235 0.0
H1112 H 0.89421 0.06481 0.58404 0.0
H1113 H 0.8488 0.07391 0.62795 0.0
C1114 C 0.84129 0.03945 0.68926 0.0
C1115 C 0.83811 0.01652 0.71818 0.0
C1116 C 0.86902 0.03653 0.66543 0.0
C1117 C 0.86524 0.99346 0.72538 0.0
C1118 C 0.89418 0.99198 0.70304 0.0
C1119 C 0.92261 1.00833 0.64728 0.0
C1120 C 0.92196 0.02656 0.61488 0.0
C1121 C 0.89577 0.0125 0.67223 0.0
C1122 C 0.89507 0.05018 0.60852 0.0
C1123 C 0.86923 0.05557 0.63375 0.0
H1124 H 0.31605 0.01674 0.19655 0.0
H1125 H 0.35298 0.91523 0.2268 0.0
H1126 H 0.39972 0.91951 0.18386 0.0
H1127 H 0.43026 0.95195 0.13734 0.0
H1128 H 0.38955 0.04989 0.10102 0.0
H1129 H 0.34374 0.04702 0.1458 0.0
C1130 C 0.33381 0.99527 0.19319 0.0
C1131 C 0.33118 0.96575 0.21522 0.0
C1132 C 0.36 0.99734 0.16726 0.0
C1133 C 0.35499 0.93854 0.21084 0.0
C1134 C 0.38156 0.94084 0.18607 0.0
C1135 C 0.41133 0.97263 0.13935 0.0
C1136 C 0.41337 1.00124 0.11631 0.0
C1137 C 0.38447 0.97017 0.16426 0.0
C1138 C 0.38842 0.02763 0.11862 0.0
C1139 C 0.36228 0.02599 0.14422 0.0
H1140 H 0.98095 0.29541 0.1801 0.0
H1141 H 0.06419 0.33278 0.24466 0.0
H1142 H 0.07326 0.3822 0.2044 0.0
H1143 H 0.05632 0.41548 0.1507 0.0
H1144 H 0.97427 0.37572 0.08539 0.0
H1145 H 0.9656 0.32689 0.12576 0.0
C1146 C 1.00144 0.31411 0.18477 0.0
C1147 C 0.02196 0.31062 0.21497 0.0
C1148 C 1.00632 0.34231 0.16158 0.0
C1149 C 0.04814 0.33515 0.22142 0.0
C1150 C 0.05318 0.36341 0.19852 0.0
C1151 C 0.03641 0.39623 0.14566 0.0
C1152 C 0.01575 0.39925 0.11533 0.0
C1153 C 0.03212 0.36755 0.16866 0.0
C1154 C 0.99041 0.37387 0.10863 0.0
C1155 C 0.98551 0.3459 0.13162 0.0
H1156 H 0.70296 0.04862 0.224 0.0
H1157 H 0.76142 0.95906 0.19074 0.0
H1158 H 0.72151 0.94959 0.1417 0.0
H1159 H 0.6687 0.96646 0.10846 0.0
H1160 H 0.60567 0.04985 0.14876 0.0
H1161 H 0.64775 0.06146 0.19529 0.0
C1162 C 0.70676 0.02672 0.20635 0.0
C1163 C 0.73581 1.00519 0.21072 0.0
C1164 C 0.68253 0.02017 0.17952 0.0
C1165 C 0.74027 0.97702 0.18732 0.0
C1166 C 0.71707 0.97125 0.15951 0.0
C1167 C 0.66427 0.98704 0.12758 0.0
C1168 C 0.63431 1.00755 0.12505 0.0
C1169 C 0.68805 0.99269 0.15527 0.0
C1170 C 0.62856 0.03383 0.15019 0.0
C1171 C 0.65265 0.0405 0.17675 0.0
H1172 H 0.95799 0.7018 0.19602 0.0
H1173 H 0.0594 0.74602 0.18507 0.0
H1174 H 0.07156 0.70666 0.13556 0.0
H1175 H 0.0562 0.65351 0.10155 0.0
H1176 H 0.95909 0.60259 0.12198 0.0
H1177 H 0.94275 0.64919 0.16285 0.0
C1178 C 0.98262 0.70287 0.18252 0.0
C1179 C 1.00788 0.72636 0.19434 0.0
C1180 C 0.99054 0.67795 0.15673 0.0
C1181 C 0.03942 0.72837 0.17617 0.0
C1182 C 0.0466 0.70536 0.1484 0.0
C1183 C 0.03154 0.65281 0.1151 0.0
C1184 C 1.00896 0.62469 0.10941 0.0
C1185 C 0.02292 0.67902 0.13954 0.0
C1186 C 0.977 0.62379 0.12671 0.0
C1187 C 0.96757 0.65054 0.14971 0.0
H1188 H 0.3598 0.05178 0.78277 0.0
H1189 H 0.28989 0.98122 0.83496 0.0
H1190 H 0.32836 0.9788 0.88617 0.0
H1191 H 0.38381 0.99405 0.91451 0.0
H1192 H 0.45587 0.06006 0.85882 0.0
H1193 H 0.41523 0.06602 0.81002 0.0
C1194 C 0.35314 0.03531 0.80482 0.0
C1195 C 0.32203 0.01636 0.80464 0.0
C1196 C 0.37604 0.03304 0.83354 0.0
C1197 C 0.31346 0.99636 0.83455 0.0
C1198 C 0.33562 0.99474 0.8637 0.0
C1199 C 0.39049 0.00993 0.89179 0.0
C1200 C 0.4229 0.02658 0.89038 0.0
C1201 C 0.36724 0.01262 0.86332 0.0
C1202 C 0.43126 0.04675 0.86054 0.0
C1203 C 0.40797 0.05027 0.83263 0.0
H1204 H 0.02548 0.32806 0.78418 0.0
H1205 H 0.09668 0.26721 0.84517 0.0
H1206 H 0.08825 0.30622 0.89623 0.0
H1207 H 0.06511 0.36153 0.92051 0.0
H1208 H 0.99895 0.42513 0.85558 0.0
H1209 H 1.00109 0.38158 0.8086 0.0
C1210 C 0.03865 0.32325 0.80896 0.0
C1211 C 0.06169 0.29525 0.81132 0.0
C1212 C 0.03501 0.34665 0.83699 0.0
C1213 C 0.07876 0.28872 0.84319 0.0
C1214 C 0.07415 0.31116 0.87205 0.0
C1215 C 0.05095 0.36556 0.89617 0.0
C1216 C 0.03211 0.39649 0.89125 0.0
C1217 C 0.05311 0.34082 0.86884 0.0
C1218 C 1.014 0.4017 0.85963 0.0
C1219 C 1.01505 0.37677 0.8329 0.0
H1220 H 0.70606 0.97216 0.78969 0.0
H1221 H 0.7599 0.06555 0.82056 0.0
H1222 H 0.72268 0.07112 0.87255 0.0
H1223 H 0.67268 0.05038 0.90869 0.0
H1224 H 0.61493 0.96127 0.87258 0.0
H1225 H 0.65503 0.95331 0.82342 0.0
C1226 C 0.70952 0.99389 0.80764 0.0
C1227 C 0.73639 0.01795 0.80136 0.0
C1228 C 0.68703 0.99772 0.83675 0.0
C1229 C 0.74039 0.0459 0.82514 0.0
C1230 C 0.71874 0.04934 0.85478 0.0
C1231 C 0.6692 0.02907 0.8902 0.0
C1232 C 0.64111 1.00602 0.89465 0.0
C1233 C 0.69184 0.02543 0.86092 0.0
C1234 C 0.63648 0.97905 0.86998 0.0
C1235 C 0.65939 0.97457 0.84176 0.0
H1236 H 1.01421 0.68523 0.77668 0.0
H1237 H 0.08338 0.75102 0.83571 0.0
H1238 H 0.07959 0.71144 0.88631 0.0
H1239 H 0.0593 0.65615 0.91243 0.0
H1240 H 0.99539 0.5873 0.85052 0.0
H1241 H 0.99533 0.62931 0.80193 0.0
C1242 C 0.02894 0.69061 0.80033 0.0
C1243 C 0.04933 0.72091 0.80231 0.0
C1244 C 0.02779 0.66695 0.82869 0.0
C1245 C 0.0672 0.72808 0.83375 0.0
C1246 C 0.06528 0.70529 0.86253 0.0
C1247 C 0.04518 0.65051 0.88837 0.0
C1248 C 0.02735 0.61872 0.88507 0.0
C1249 C 0.046 0.6744 0.86016 0.0
C1250 C 1.00951 0.61151 0.8536 0.0
C1251 C 1.00937 0.63556 0.82585 0.0
H1252 H 0.24577 0.3372 0.03713 0.0
H1253 H 0.19744 0.26721 0.96359 0.0
H1254 H 0.14533 0.30392 0.96338 0.0
H1255 H 0.11626 0.35995 0.97958 0.0
H1256 H 0.16985 0.4325 0.04729 0.0
H1257 H 0.21723 0.3915 0.05384 0.0
C1258 C 0.22363 0.32987 0.02133 0.0
C1259 C 0.22546 0.29971 1.00024 0.0
C1260 C 0.19493 0.3521 0.01983 0.0
C1261 C 0.19651 0.29016 0.98021 0.0
C1262 C 0.16696 0.31143 0.97979 0.0
C1263 C 0.1382 0.36656 0.99599 0.0
C1264 C 0.13942 0.3994 0.01294 0.0
C1265 C 0.16625 0.3431 0.99872 0.0
C1266 C 0.16823 0.40764 0.03382 0.0
C1267 C 0.19536 0.38412 0.03768 0.0
H1268 H 0.24462 0.68908 0.0245 0.0
H1269 H 0.18982 0.7577 0.95483 0.0
H1270 H 0.13863 0.71963 0.95828 0.0
H1271 H 0.11195 0.66281 0.9762 0.0
H1272 H 0.17081 0.5923 0.04122 0.0
H1273 H 0.21775 0.63446 0.04421 0.0
C1274 C 0.22105 0.6961 0.01089 0.0
C1275 C 0.22079 0.72642 0.98986 0.0
C1276 C 0.19268 0.67309 0.0115 0.0
C1277 C 0.19041 0.73493 0.97172 0.0
C1278 C 0.16138 0.71282 0.97333 0.0
C1279 C 0.13491 0.65686 0.99132 0.0
C1280 C 0.13772 0.62409 0.0083 0.0
C1281 C 0.16254 0.68119 0.99231 0.0
C1282 C 0.16789 0.61691 0.02753 0.0
C1283 C 0.1948 0.64117 0.02943 0.0
H1284 H 0.36383 0.2379 0.03792 0.0
H1285 H 0.29271 0.18609 0.96813 0.0
H1286 H 0.32919 0.13409 0.96791 0.0
H1287 H 0.38337 0.10407 0.98506 0.0
H1288 H 0.45627 0.15843 0.05124 0.0
H1289 H 0.4178 0.20845 0.05458 0.0
C1290 C 0.35644 0.21545 0.02232 0.0
C1291 C 0.32537 0.21615 1.00301 0.0
C1292 C 0.3782 0.1859 0.02143 0.0
C1293 C 0.31606 0.1862 0.98373 0.0
C1294 C 0.33715 0.1565 0.98333 0.0
C1295 C 0.39072 0.12674 1.00044 0.0
C1296 C 0.42294 0.12719 0.0178 0.0
C1297 C 0.36854 0.15608 1.0018 0.0
C1298 C 0.43193 0.15715 0.03732 0.0
C1299 C 0.40982 0.18591 0.03936 0.0
H1300 H 0.81321 0.33124 0.96174 0.0
H1301 H 0.84279 0.28097 0.05871 0.0
H1302 H 0.89367 0.31864 0.06287 0.0
H1303 H 0.92905 0.36787 0.03973 0.0
H1304 H 0.89506 0.42199 0.94638 0.0
H1305 H 0.84678 0.38144 0.94009 0.0
C1306 C 0.83069 0.32869 0.98389 0.0
C1307 C 0.82444 0.30278 0.00948 0.0
C1308 C 0.85925 0.35132 0.98673 0.0
C1309 C 0.84745 0.29984 0.03802 0.0
C1310 C 0.87643 0.32168 0.04059 0.0
C1311 C 0.91126 0.37042 0.01785 0.0
C1312 C 0.91591 0.39762 0.99325 0.0
C1313 C 0.88265 0.34761 0.0151 0.0
C1314 C 0.89218 0.40114 0.96547 0.0
C1315 C 0.86449 0.378 0.96192 0.0
H1316 H 0.72643 0.82365 0.06522 0.0
H1317 H 0.75374 0.81979 0.95519 0.0
H1318 H 0.70929 0.86312 0.94158 0.0
H1319 H 0.65793 0.89724 0.96048 0.0
H1320 H 0.62531 0.89263 0.06921 0.0
H1321 H 0.67487 0.85597 0.08379 0.0
C1322 C 0.72288 0.8328 0.03838 0.0
C1323 C 0.74351 0.81879 0.01133 0.0
C1324 C 0.69512 0.8549 0.0304 0.0
C1325 C 0.73884 0.83086 0.97661 0.0
C1326 C 0.71281 0.85495 0.96874 0.0
C1327 C 0.66151 0.88757 0.98716 0.0
C1328 C 0.63764 0.89661 0.01362 0.0
C1329 C 0.68992 0.86612 0.99522 0.0
C1330 C 0.64284 0.88493 0.04831 0.0
C1331 C 0.67144 0.86449 0.05672 0.0
H1332 H 0.80539 0.68095 0.97048 0.0
H1333 H 0.85671 0.75139 0.04179 0.0
H1334 H 0.90772 0.71401 0.04183 0.0
H1335 H 0.9366 0.65878 0.02473 0.0
H1336 H 0.88216 0.5858 0.95835 0.0
H1337 H 0.83359 0.62587 0.95405 0.0
C1338 C 0.82754 0.68801 0.98631 0.0
C1339 C 0.82705 0.71917 0.00605 0.0
C1340 C 0.85632 0.66555 0.98739 0.0
C1341 C 0.85655 0.72809 0.0257 0.0
C1342 C 0.88564 0.70643 0.02607 0.0
C1343 C 0.91422 0.65184 0.00908 0.0
C1344 C 0.91315 0.61921 0.99191 0.0
C1345 C 0.88573 0.67479 0.00739 0.0
C1346 C 0.88369 0.61055 0.97207 0.0
C1347 C 0.85584 0.63353 0.9695 0.0
H1348 H 0.30659 0.83748 0.96534 0.0
H1349 H 0.35877 0.7644 0.03273 0.0
H1350 H 0.40704 0.80508 0.03955 0.0
H1351 H 0.43576 0.86134 0.02471 0.0
H1352 H 0.38136 0.93609 0.96074 0.0
H1353 H 0.33312 0.89548 0.95438 0.0
C1354 C 0.32824 0.83083 0.98206 0.0
C1355 C 0.32913 0.79766 0.99811 0.0
C1356 C 0.3559 0.85471 0.98619 0.0
C1357 C 0.35759 0.78938 0.01952 0.0
C1358 C 0.38526 0.81274 0.02346 0.0
C1359 C 0.4134 0.86866 0.00928 0.0
C1360 C 0.41255 0.90177 0.99292 0.0
C1361 C 0.38506 0.84533 0.00645 0.0
C1362 C 0.38292 0.91091 0.97359 0.0
C1363 C 0.3552 0.88763 0.96995 0.0
H1364 H 0.71326 0.21751 0.05467 0.0
H1365 H 0.77033 0.1746 0.96764 0.0
H1366 H 0.73237 0.12317 0.96705 0.0
H1367 H 0.67763 0.09499 0.98589 0.0
H1368 H 0.61581 0.14425 0.06638 0.0
H1369 H 0.66011 0.18882 0.07472 0.0
C1370 C 0.71788 0.19622 0.03642 0.0
C1371 C 0.7446 0.19949 0.01146 0.0
C1372 C 0.69427 0.16846 0.03441 0.0
C1373 C 0.75022 0.17228 0.98738 0.0
C1374 C 0.72812 0.14327 0.98669 0.0
C1375 C 0.67412 0.11532 0.00548 0.0
C1376 C 0.64343 0.11637 0.02549 0.0
C1377 C 0.69919 0.14178 0.00913 0.0
C1378 C 0.63903 0.14302 0.05051 0.0
C1379 C 0.66444 0.16842 0.0554 0.0
H1380 H 0.49148 0.71524 0.81228 0.0
H1381 H 0.5817 0.67603 0.75993 0.0
H1382 H 0.58159 0.62449 0.79858 0.0
H1383 H 0.56143 0.59659 0.85388 0.0
H1384 H 0.47737 0.64269 0.9118 0.0
H1385 H 0.46949 0.68608 0.8652 0.0
C1386 C 0.51024 0.6946 0.80875 0.0
C1387 C 0.53644 0.6989 0.78356 0.0
C1388 C 0.51172 0.66715 0.83298 0.0
C1389 C 0.56118 0.67273 0.77907 0.0
C1390 C 0.5614 0.64375 0.80154 0.0
C1391 C 0.54123 0.61601 0.85593 0.0
C1392 C 0.52021 0.617 0.88617 0.0
C1393 C 0.53781 0.64164 0.82969 0.0
C1394 C 0.49416 0.64209 0.88893 0.0
C1395 C 0.48949 0.66662 0.86222 0.0
H1396 H 0.31372 0.48951 0.82864 0.0
H1397 H 0.37212 0.55477 0.75817 0.0
H1398 H 0.42273 0.55005 0.79714 0.0
H1399 H 0.44754 0.5327 0.85489 0.0
H1400 H 0.38559 0.47256 0.92768 0.0
H1401 H 0.33883 0.47038 0.88469 0.0
C1402 C 0.33782 0.50219 0.8217 0.0
C1403 C 0.33947 0.52253 0.79087 0.0
C1404 C 0.36574 0.50086 0.84509 0.0
C1405 C 0.37058 0.53883 0.78174 0.0
C1406 C 0.39922 0.53643 0.80422 0.0
C1407 C 0.42392 0.51883 0.86116 0.0
C1408 C 0.41996 0.50299 0.89458 0.0
C1409 C 0.39671 0.51842 0.83655 0.0
C1410 C 0.38913 0.48532 0.9024 0.0
C1411 C 0.36245 0.4839 0.87775 0.0
H1412 H 0.49094 0.32937 0.79286 0.0
H1413 H 0.5863 0.28006 0.82118 0.0
H1414 H 0.59416 0.32131 0.87011 0.0
H1415 H 0.57245 0.3707 0.90598 0.0
H1416 H 0.47815 0.42144 0.87532 0.0
H1417 H 0.47091 0.38048 0.82639 0.0
C1418 C 0.51381 0.32846 0.80926 0.0
C1419 C 0.53828 0.30232 0.80343 0.0
C1420 C 0.51788 0.35207 0.83729 0.0
C1421 C 0.56743 0.30042 0.82525 0.0
C1422 C 0.57172 0.32375 0.85329 0.0
C1423 C 0.55025 0.3724 0.88869 0.0
C1424 C 0.52558 0.39851 0.89431 0.0
C1425 C 0.54681 0.34939 0.85993 0.0
C1426 C 0.49725 0.40121 0.87145 0.0
C1427 C 0.49319 0.37797 0.84343 0.0
H1428 H 0.73144 0.55804 0.81225 0.0
H1429 H 0.69505 0.46639 0.75869 0.0
H1430 H 0.64505 0.46335 0.79864 0.0
H1431 H 0.61824 0.48101 0.85529 0.0
H1432 H 0.66234 0.56629 0.91434 0.0
H1433 H 0.70371 0.57717 0.8668 0.0
C1434 C 0.71185 0.5381 0.8089 0.0
C1435 C 0.71666 0.51232 0.78311 0.0
C1436 C 0.68558 0.53466 0.83394 0.0
C1437 C 0.6915 0.4865 0.77843 0.0
C1438 C 0.66345 0.48443 0.80168 0.0
C1439 C 0.63687 0.50203 0.8575 0.0
C1440 C 0.63781 0.52254 0.88827 0.0
C1441 C 0.66133 0.50729 0.83065 0.0
C1442 C 0.66182 0.54977 0.89111 0.0
C1443 C 0.68514 0.55621 0.86384 0.0
H1444 H 0.48712 0.31094 0.19464 0.0
H1445 H 0.57807 0.34413 0.24987 0.0
H1446 H 0.58291 0.39543 0.21121 0.0
H1447 H 0.56641 0.42478 0.15534 0.0
H1448 H 0.48169 0.3837 0.09452 0.0
H1449 H 0.46942 0.34094 0.14077 0.0
C1450 C 0.50725 0.33019 0.1987 0.0
C1451 C 0.5321 0.32424 0.22484 0.0
C1452 C 0.5116 0.3573 0.17442 0.0
C1453 C 0.55848 0.34871 0.23008 0.0
C1454 C 0.56156 0.37752 0.20756 0.0
C1455 C 0.54524 0.40647 0.15252 0.0
C1456 C 0.52523 0.40675 0.12164 0.0
C1457 C 0.53924 0.38108 0.17859 0.0
C1458 C 0.49776 0.38323 0.11792 0.0
C1459 C 0.49056 0.3591 0.14443 0.0
H1460 H 0.74462 0.54932 0.18834 0.0
H1461 H 0.69241 0.47418 0.25353 0.0
H1462 H 0.64248 0.4752 0.21358 0.0
H1463 H 0.61814 0.49088 0.1553 0.0
H1464 H 0.6762 0.55803 0.08567 0.0
H1465 H 0.71999 0.56613 0.13128 0.0
C1466 C 0.72168 0.53417 0.19423 0.0
C1467 C 0.72179 0.51195 0.22377 0.0
C1468 C 0.69488 0.53249 0.16951 0.0
C1469 C 0.69249 0.49179 0.23117 0.0
C1470 C 0.66437 0.49191 0.20795 0.0
C1471 C 0.64031 0.50745 0.15027 0.0
C1472 C 0.64409 0.52374 0.1171 0.0
C1473 C 0.666 0.51097 0.17622 0.0
C1474 C 0.67298 0.54492 0.11079 0.0
C1475 C 0.69784 0.54978 0.13696 0.0
H1476 H 0.51722 0.73812 0.17668 0.0
H1477 H 0.58498 0.68117 0.24562 0.0
H1478 H 0.58155 0.6303 0.2067 0.0
H1479 H 0.56242 0.60352 0.15084 0.0
H1480 H 0.49947 0.66317 0.07912 0.0
H1481 H 0.49878 0.71189 0.12064 0.0
C1482 C 0.53168 0.71484 0.1829 0.0
C1483 C 0.55166 0.71353 0.2138 0.0
C1484 C 0.5307 0.68629 0.15966 0.0
C1485 C 0.56917 0.68259 0.22213 0.0
C1486 C 0.56746 0.65367 0.19974 0.0
C1487 C 0.54835 0.6271 0.14447 0.0
C1488 C 0.53109 0.62975 0.11194 0.0
C1489 C 0.54872 0.65539 0.16813 0.0
C1490 C 0.51323 0.66059 0.10387 0.0
C1491 C 0.51271 0.68843 0.12764 0.0
H1492 H 0.32633 0.55821 0.18974 0.0
H1493 H 0.35871 0.46636 0.24531 0.0
H1494 H 0.41063 0.46271 0.20809 0.0
H1495 H 0.44221 0.48134 0.15396 0.0
H1496 H 0.40389 0.5684 0.09393 0.0
H1497 H 0.35867 0.57821 0.13782 0.0
C1498 C 0.34547 0.53814 0.19424 0.0
C1499 C 0.33915 0.51278 0.22022 0.0
C1500 C 0.37355 0.53483 0.17108 0.0
C1501 C 0.36349 0.48636 0.22571 0.0
C1502 C 0.39277 0.48401 0.20405 0.0
C1503 C 0.42405 0.50258 0.15084 0.0
C1504 C 0.42594 0.52395 0.12066 0.0
C1505 C 0.39736 0.50732 0.17572 0.0
C1506 C 0.40237 0.55132 0.11665 0.0
C1507 C 0.37674 0.55708 0.14186 0.0
H1508 H 0.85183 0.54944 0.72053 0.0
H1509 H 0.79248 0.46339 0.6803 0.0
H1510 H 0.83186 0.45825 0.62978 0.0
H1511 H 0.88555 0.47638 0.59911 0.0
H1512 H 0.94828 0.55756 0.6448 0.0
H1513 H 0.90604 0.56583 0.692 0.0
C1514 C 0.84799 0.52903 0.7013 0.0
C1515 C 0.8197 0.50645 0.70446 0.0
C1516 C 0.87156 0.52529 0.67346 0.0
C1517 C 0.81407 0.4812 0.6782 0.0
C1518 C 0.8367 0.47811 0.64954 0.0
C1519 C 0.88973 0.4959 0.6194 0.0
C1520 C 0.91981 0.51634 0.61869 0.0
C1521 C 0.86584 0.49974 0.64714 0.0
C1522 C 0.92533 0.54139 0.64513 0.0
C1523 C 0.90119 0.5462 0.67199 0.0
H1524 H 0.57623 0.83696 0.72213 0.0
H1525 H 0.48618 0.78016 0.68857 0.0
H1526 H 0.47768 0.82131 0.63998 0.0
H1527 H 0.4954 0.87455 0.60785 0.0
H1528 H 0.58065 0.93552 0.64699 0.0
H1529 H 0.59101 0.89239 0.69341 0.0
C1530 C 0.55457 0.83384 0.70435 0.0
C1531 C 0.53232 0.80519 0.70844 0.0
C1532 C 0.54883 0.85861 0.67782 0.0
C1533 C 0.5044 0.80127 0.68519 0.0
C1534 C 0.49926 0.82508 0.65773 0.0
C1535 C 0.51615 0.87827 0.62668 0.0
C1536 C 0.53738 0.90786 0.62415 0.0
C1537 C 0.52129 0.8539 0.65385 0.0
C1538 C 0.56395 0.9129 0.64873 0.0
C1539 C 0.56995 0.88822 0.67509 0.0
H1540 H 0.19914 0.48863 0.73555 0.0
H1541 H 0.27331 0.54757 0.67532 0.0
H1542 H 0.2355 0.5458 0.62365 0.0
H1543 H 0.17947 0.53069 0.59661 0.0
H1544 H 0.10395 0.47485 0.65866 0.0
H1545 H 0.14359 0.47291 0.70846 0.0
C1546 C 0.2069 0.50132 0.71124 0.0
C1547 C 0.23902 0.51834 0.70939 0.0
C1548 C 0.18453 0.50103 0.6819 0.0
C1549 C 0.24895 0.53389 0.67728 0.0
C1550 C 0.22718 0.53315 0.64782 0.0
C1551 C 0.17179 0.51783 0.6209 0.0
C1552 C 0.13857 0.50314 0.62373 0.0
C1553 C 0.19465 0.51719 0.64991 0.0
C1554 C 0.12914 0.48675 0.65564 0.0
C1555 C 0.15187 0.48551 0.68425 0.0
H1556 H 0.46939 0.20734 0.69977 0.0
H1557 H 0.57083 0.24935 0.68267 0.0
H1558 H 0.57874 0.21083 0.63153 0.0
H1559 H 0.5605 0.15789 0.59877 0.0
H1560 H 0.46398 0.10862 0.62544 0.0
H1561 H 0.45071 0.15579 0.66681 0.0
C1562 C 0.49294 0.20829 0.68435 0.0
C1563 C 0.51964 0.23062 0.69503 0.0
C1564 C 0.49858 0.18364 0.6577 0.0
C1565 C 0.54985 0.23248 0.67466 0.0
C1566 C 0.55461 0.20993 0.64598 0.0
C1567 C 0.5366 0.15775 0.61369 0.0
C1568 C 0.51336 0.12989 0.60972 0.0
C1569 C 0.52987 0.18417 0.63847 0.0
C1570 C 0.48238 0.12966 0.6288 0.0
C1571 C 0.47469 0.15671 0.65211 0.0
H1572 H 0.85435 0.46747 0.29171 0.0
H1573 H 0.80634 0.56615 0.31395 0.0
H1574 H 0.84599 0.57572 0.36322 0.0
H1575 H 0.89527 0.55595 0.40014 0.0
H1576 H 0.94638 0.45993 0.37357 0.0
H1577 H 0.90536 0.44958 0.32566 0.0
C1578 C 0.85274 0.49115 0.30725 0.0
C1579 C 0.8267 0.51551 0.29976 0.0
C1580 C 0.87647 0.49702 0.33471 0.0
C1581 C 0.82511 0.54625 0.31997 0.0
C1582 C 0.84812 0.55194 0.34793 0.0
C1583 C 0.89725 0.53283 0.38377 0.0
C1584 C 0.92373 0.50866 0.3902 0.0
C1585 C 0.87386 0.52743 0.3557 0.0
C1586 C 0.92635 0.47894 0.36876 0.0
C1587 C 0.90283 0.47298 0.3415 0.0
H1588 H 0.51671 0.82615 0.29103 0.0
H1589 H 0.59298 0.76737 0.34747 0.0
H1590 H 0.58558 0.80539 0.39945 0.0
H1591 H 0.56231 0.86009 0.42535 0.0
H1592 H 0.49167 0.92216 0.36403 0.0
H1593 H 0.49194 0.87858 0.31722 0.0
C1594 C 0.53122 0.82151 0.31504 0.0
C1595 C 0.55544 0.79446 0.31575 0.0
C1596 C 0.52817 0.84448 0.34354 0.0
C1597 C 0.57416 0.78815 0.34671 0.0
C1598 C 0.57013 0.81006 0.3761 0.0
C1599 C 0.54668 0.8637 0.4019 0.0
C1600 C 0.527 0.89426 0.39803 0.0
C1601 C 0.54803 0.83906 0.37435 0.0
C1602 C 0.50711 0.89894 0.36746 0.0
C1603 C 0.50722 0.87402 0.34072 0.0
H1604 H 0.20519 0.4733 0.28805 0.0
H1605 H 0.26027 0.56615 0.31816 0.0
H1606 H 0.2232 0.5727 0.37019 0.0
H1607 H 0.1734 0.55268 0.40656 0.0
H1608 H 0.11516 0.46314 0.37215 0.0
H1609 H 0.1546 0.45476 0.32249 0.0
C1610 C 0.20885 0.49511 0.30586 0.0
C1611 C 0.23582 0.51886 0.29949 0.0
C1612 C 0.18672 0.49928 0.33508 0.0
C1613 C 0.24036 0.54694 0.32294 0.0
C1614 C 0.21893 0.55086 0.35257 0.0
C1615 C 0.16969 0.53121 0.38831 0.0
C1616 C 0.14164 0.50835 0.39312 0.0
C1617 C 0.19196 0.52718 0.35897 0.0
C1618 C 0.13664 0.48099 0.36897 0.0
C1619 C 0.15915 0.47621 0.34055 0.0
H1620 H 0.56983 0.18705 0.28701 0.0
H1621 H 0.48206 0.24492 0.32437 0.0
H1622 H 0.47497 0.20399 0.37354 0.0
H1623 H 0.49287 0.15025 0.40464 0.0
H1624 H 0.57548 0.08833 0.36157 0.0
H1625 H 0.58482 0.13152 0.31494 0.0
C1626 C 0.5489 0.19042 0.30569 0.0
C1627 C 0.52678 0.21914 0.30236 0.0
C1628 C 0.54385 0.16575 0.33247 0.0
C1629 C 0.50004 0.22358 0.32699 0.0
C1630 C 0.49571 0.19991 0.35478 0.0
C1631 C 0.5128 0.14633 0.38491 0.0
C1632 C 0.53352 0.11639 0.38632 0.0
C1633 C 0.51735 0.17077 0.35764 0.0
C1634 C 0.5591 0.11116 0.36063 0.0
C1635 C 0.56456 0.13589 0.33418 0.0
H1636 H 0.7483 0.83824 0.48524 0.0
H1637 H 0.69469 0.76824 0.55499 0.0
H1638 H 0.64317 0.8057 0.55255 0.0
H1639 H 0.61575 0.86205 0.53501 0.0
H1640 H 0.67326 0.93361 0.46933 0.0
H1641 H 0.72088 0.89251 0.46622 0.0
C1642 C 0.72511 0.83106 0.49954 0.0
C1643 C 0.72523 0.80065 0.52035 0.0
C1644 C 0.69651 0.85351 0.49927 0.0
C1645 C 0.69505 0.79136 0.53859 0.0
C1646 C 0.66582 0.81305 0.53748 0.0
C1647 C 0.6386 0.86847 0.51979 0.0
C1648 C 0.64087 0.90119 0.50266 0.0
C1649 C 0.66656 0.84477 0.51866 0.0
C1650 C 0.67082 0.90901 0.48319 0.0
C1651 C 0.6981 0.88539 0.48122 0.0
H1652 H 0.74563 0.1865 0.47469 0.0
H1653 H 0.69728 0.25628 0.54834 0.0
H1654 H 0.64477 0.21988 0.54792 0.0
H1655 H 0.61527 0.16397 0.53117 0.0
H1656 H 0.66912 0.09162 0.46357 0.0
H1657 H 0.71679 0.13252 0.45743 0.0
C1658 C 0.7234 0.19385 0.49039 0.0
C1659 C 0.72534 0.22383 0.51169 0.0
C1660 C 0.69447 0.1718 0.49152 0.0
C1661 C 0.69629 0.23343 0.53158 0.0
C1662 C 0.66649 0.21234 0.53162 0.0
C1663 C 0.63734 0.15743 0.51488 0.0
C1664 C 0.63856 0.12466 0.49782 0.0
C1665 C 0.66564 0.18081 0.51248 0.0
C1666 C 0.6675 0.11646 0.47708 0.0
C1667 C 0.69481 0.13991 0.47348 0.0
H1668 H 0.86583 0.74006 0.48729 0.0
H1669 H 0.78917 0.68517 0.54819 0.0
H1670 H 0.82463 0.63248 0.5472 0.0
H1671 H 0.87961 0.60241 0.5318 0.0
H1672 H 0.9579 0.66022 0.47569 0.0
H1673 H 0.92034 0.71078 0.4726 0.0
C1674 C 0.85697 0.7168 0.50074 0.0
C1675 C 0.82463 0.71689 0.51781 0.0
C1676 C 0.8781 0.68676 0.50104 0.0
C1677 C 0.81354 0.68586 0.53427 0.0
C1678 C 0.83404 0.6557 0.53399 0.0
C1679 C 0.88826 0.62594 0.5186 0.0
C1680 C 0.92173 0.62713 0.50387 0.0
C1681 C 0.86663 0.65581 0.51775 0.0
C1682 C 0.93245 0.65825 0.48729 0.0
C1683 C 0.91092 0.6874 0.48553 0.0
H1684 H 0.3237 0.82843 0.45373 0.0
H1685 H 0.33001 0.79159 0.56082 0.0
H1686 H 0.37925 0.83048 0.57178 0.0
H1687 H 0.41983 0.87675 0.5508 0.0
H1688 H 0.40903 0.91642 0.44486 0.0
H1689 H 0.3621 0.87529 0.43351 0.0
C1690 C 0.33558 0.82935 0.47959 0.0
C1691 C 0.32333 0.80712 0.50632 0.0
C1692 C 0.36317 0.85234 0.48579 0.0
C1693 C 0.33936 0.80797 0.53959 0.0
C1694 C 0.36737 0.8304 0.54589 0.0
C1695 C 0.4073 0.876 0.52522 0.0
C1696 C 0.41798 0.8992 0.49849 0.0
C1697 C 0.37954 0.85279 0.51917 0.0
C1698 C 0.40127 0.89858 0.46565 0.0
C1699 C 0.37442 0.87516 0.45919 0.0
H1700 H 0.2251 0.32215 0.56663 0.0
H1701 H 0.26197 0.32886 0.45971 0.0
H1702 H 0.22114 0.37612 0.44748 0.0
H1703 H 0.16941 0.41012 0.46538 0.0
H1704 H 0.12661 0.39483 0.56933 0.0
H1705 H 0.1737 0.35514 0.5843 0.0
C1706 C 0.22444 0.33447 0.54087 0.0
C1707 C 0.24657 0.32227 0.5142 0.0
C1708 C 0.1987 0.35901 0.5332 0.0
C1709 C 0.24574 0.33839 0.48089 0.0
C1710 C 0.22183 0.36481 0.47371 0.0
C1711 C 0.17046 0.39782 0.49116 0.0
C1712 C 0.14439 0.40463 0.51607 0.0
C1713 C 0.19724 0.37434 0.49924 0.0
C1714 C 0.14601 0.3891 0.54955 0.0
C1715 C 0.17314 0.36682 0.55823 0.0
H1716 H 0.30819 0.18458 0.4717 0.0
H1717 H 0.35498 0.25005 0.55075 0.0
H1718 H 0.40567 0.21229 0.55194 0.0
H1719 H 0.43554 0.15825 0.53302 0.0
H1720 H 0.38479 0.08915 0.45979 0.0
H1721 H 0.33668 0.12984 0.45455 0.0
C1722 C 0.32922 0.19039 0.48954 0.0
C1723 C 0.32767 0.22035 0.51101 0.0
C1724 C 0.35762 0.16755 0.49134 0.0
C1725 C 0.35574 0.22773 0.53331 0.0
C1726 C 0.38462 0.20585 0.53431 0.0
C1727 C 0.41404 0.15233 0.51574 0.0
C1728 C 0.41383 0.12077 0.49669 0.0
C1729 C 0.38575 0.17543 0.51372 0.0
C1730 C 0.38554 0.11319 0.4748 0.0
C1731 C 0.35801 0.1365 0.47175 0.0
H1732 H 0.86483 0.28514 0.47411 0.0
H1733 H 0.79318 0.33645 0.54372 0.0
H1734 H 0.82962 0.3886 0.54429 0.0
H1735 H 0.88392 0.41895 0.52753 0.0
H1736 H 0.95744 0.36516 0.46168 0.0
H1737 H 0.91895 0.31498 0.45781 0.0
C1738 C 0.85731 0.30752 0.48972 0.0
C1739 C 0.82607 0.30663 0.50885 0.0
C1740 C 0.87905 0.3372 0.4908 0.0
C1741 C 0.81664 0.33648 0.52823 0.0
C1742 C 0.83771 0.36629 0.52882 0.0
C1743 C 0.89136 0.39639 0.51207 0.0
C1744 C 0.92375 0.3961 0.49497 0.0
C1745 C 0.86921 0.36694 0.51048 0.0
C1746 C 0.93292 0.36627 0.47538 0.0
C1747 C 0.91083 0.33742 0.47306 0.0
H1748 H 0.20809 0.73147 0.53195 0.0
H1749 H 0.27576 0.67108 0.46616 0.0
H1750 H 0.23639 0.62082 0.4705 0.0
H1751 H 0.17947 0.59697 0.48756 0.0
H1752 H 0.10934 0.66074 0.5481 0.0
H1753 H 0.15243 0.70717 0.55075 0.0
C1754 C 0.21438 0.70695 0.51924 0.0
C1755 C 0.24467 0.70461 0.49896 0.0
C1756 C 0.19074 0.67926 0.52022 0.0
C1757 C 0.25276 0.67307 0.48227 0.0
C1758 C 0.23003 0.64466 0.48439 0.0
C1759 C 0.17374 0.62089 0.50165 0.0
C1760 C 0.14109 0.62543 0.51747 0.0
C1761 C 0.19841 0.64786 0.50239 0.0
C1762 C 0.13403 0.65671 0.53535 0.0
C1763 C 0.15874 0.6832 0.53706 0.0
loop_
_geom_bond_atom_site_label_1
_geom_bond_atom_site_label_2
_geom_bond_distance
_geom_bond_site_symmetry_2
_ccdc_geom_bond_type
C0 N1 1.317 . S
C0 N2 1.348 . S
C0 C3 1.485 . S
N1 C0 1.317 . S
N1 N5 1.370 . S
N2 C0 1.348 . S
N2 C4 1.346 . S
C3 C0 1.485 . S
C3 H7 0.960 1_455 S
C3 H8 0.961 . S
C3 H9 0.960 . S
C4 N2 1.346 . S
C4 N5 1.307 . S
C4 C6 1.486 . S
N5 N1 1.370 . S
N5 C4 1.307 . S
C6 C4 1.486 . S
C6 H10 0.960 . S
C6 H11 0.963 . S
C6 H12 0.959 . S
H7 C3 0.960 1_655 S
H8 C3 0.961 . S
H9 C3 0.960 . S
H10 C6 0.960 . S
H11 C6 0.963 . S
H12 C6 0.959 . S
C13 N14 1.317 . S
C13 N15 1.348 . S
C13 C16 1.485 . S
N14 C13 1.317 . S
N14 N18 1.370 . S
N15 C13 1.348 . S
N15 C17 1.348 . S
C16 C13 1.485 . S
C16 H20 0.960 1_545 S
C16 H21 0.961 . S
C16 H22 0.960 . S
C17 N15 1.348 . S
C17 N18 1.308 . S
C17 C19 1.486 1_545 S
N18 N14 1.370 . S
N18 C17 1.308 . S
C19 C17 1.486 1_565 S
C19 H23 0.960 1_565 S
C19 H24 0.960 . S
C19 H25 0.959 . S
H20 C16 0.960 1_565 S
H21 C16 0.961 . S
H22 C16 0.960 . S
H23 C19 0.960 1_545 S
H24 C19 0.960 . S
H25 C19 0.959 . S
C26 N27 1.317 . S
C26 N28 1.348 . S
C26 C29 1.485 . S
N27 C26 1.317 . S
N27 N31 1.370 . S
N28 C26 1.348 . S
N28 C30 1.346 . S
C29 C26 1.485 . S
C29 H33 0.960 1_455 S
C29 H34 0.961 . S
C29 H35 0.960 . S
C30 N28 1.346 . S
C30 N31 1.307 . S
C30 C32 1.486 . S
N31 N27 1.370 . S
N31 C30 1.307 . S
C32 C30 1.486 . S
C32 H36 0.960 . S
C32 H37 0.960 1_455 S
C32 H38 0.959 . S
H33 C29 0.960 1_655 S
H34 C29 0.961 . S
H35 C29 0.960 . S
H36 C32 0.960 . S
H37 C32 0.960 1_655 S
H38 C32 0.959 . S
C39 N40 1.318 . S
C39 N41 1.348 1_565 S
C39 C42 1.485 . S
N40 C39 1.318 . S
N40 N44 1.369 1_565 S
N41 C39 1.348 1_545 S
N41 C43 1.346 . S
C42 C39 1.485 . S
C42 H46 0.960 1_565 S
C42 H47 0.961 . S
C42 H48 0.960 . S
C43 N41 1.346 . S
C43 N44 1.308 . S
C43 C45 1.486 . S
N44 N40 1.369 1_545 S
N44 C43 1.308 . S
C45 C43 1.486 . S
C45 H49 0.960 1_545 S
C45 H50 0.960 . S
C45 H51 0.959 . S
H46 C42 0.960 1_545 S
H47 C42 0.961 . S
H48 C42 0.960 . S
H49 C45 0.960 1_565 S
H50 C45 0.960 . S
H51 C45 0.959 . S
C52 N53 1.317 . S
C52 N54 1.348 . S
C52 C55 1.485 . S
N53 C52 1.317 . S
N53 N57 1.370 . S
N54 C52 1.348 . S
N54 C56 1.346 . S
C55 C52 1.485 . S
C55 H59 0.960 1_455 S
C55 H60 0.961 . S
C55 H61 0.960 . S
C56 N54 1.346 . S
C56 N57 1.307 . S
C56 C58 1.486 . S
N57 N53 1.370 . S
N57 C56 1.307 . S
C58 C56 1.486 . S
C58 H62 0.960 . S
C58 H63 0.963 . S
C58 H64 0.959 . S
H59 C55 0.960 1_655 S
H60 C55 0.961 . S
H61 C55 0.960 . S
H62 C58 0.960 . S
H63 C58 0.963 . S
H64 C58 0.959 . S
C65 N66 1.317 . S
C65 N67 1.348 . S
C65 C68 1.485 . S
N66 C65 1.317 . S
N66 N70 1.371 . S
N67 C65 1.348 . S
N67 C69 1.346 1_545 S
C68 C65 1.485 . S
C68 H72 0.960 1_545 S
C68 H73 0.961 . S
C68 H74 0.960 . S
C69 N67 1.346 1_565 S
C69 N70 1.307 1_565 S
C69 C71 1.486 . S
N70 N66 1.371 . S
N70 C69 1.307 1_545 S
C71 C69 1.486 . S
C71 H75 0.960 1_565 S
C71 H76 0.960 . S
C71 H77 0.959 . S
H72 C68 0.960 1_565 S
H73 C68 0.961 . S
H74 C68 0.960 . S
H75 C71 0.960 1_545 S
H76 C71 0.960 . S
H77 C71 0.959 . S
C78 N79 1.317 . S
C78 N80 1.348 . S
C78 C81 1.485 . S
N79 C78 1.317 . S
N79 N83 1.370 . S
N80 C78 1.348 . S
N80 C82 1.346 . S
C81 C78 1.485 . S
C81 H85 0.960 1_455 S
C81 H86 0.961 . S
C81 H87 0.960 . S
C82 N80 1.346 . S
C82 N83 1.307 . S
C82 C84 1.486 . S
N83 N79 1.370 . S
N83 C82 1.307 . S
C84 C82 1.486 . S
C84 H88 0.960 . S
C84 H89 0.960 1_455 S
C84 H90 0.959 . S
H85 C81 0.960 1_655 S
H86 C81 0.961 . S
H87 C81 0.960 . S
H88 C84 0.960 . S
H89 C84 0.960 1_655 S
H90 C84 0.959 . S
C91 N92 1.317 . S
C91 N93 1.350 . S
C91 C94 1.485 . S
N92 C91 1.317 . S
N92 N96 1.371 . S
N93 C91 1.350 . S
N93 C95 1.345 1_565 S
C94 C91 1.485 . S
C94 H98 0.960 1_565 S
C94 H99 0.961 . S
C94 H100 0.960 . S
C95 N93 1.345 1_545 S
C95 N96 1.307 1_545 S
C95 C97 1.486 . S
N96 N92 1.371 . S
N96 C95 1.307 1_565 S
C97 C95 1.486 . S
C97 H101 0.960 1_545 S
C97 H102 0.960 . S
C97 H103 0.959 . S
H98 C94 0.960 1_545 S
H99 C94 0.961 . S
H100 C94 0.960 . S
H101 C97 0.960 1_565 S
H102 C97 0.960 . S
H103 C97 0.959 . S
C104 N105 1.317 . S
C104 N106 1.348 . S
C104 C107 1.485 . S
N105 C104 1.317 . S
N105 N109 1.371 . S
N106 C104 1.348 . S
N106 C108 1.346 1_554 S
C107 C104 1.485 . S
C107 H111 0.960 1_554 S
C107 H112 0.961 . S
C107 H113 0.960 . S
C108 N106 1.346 1_556 S
C108 N109 1.307 1_556 S
C108 C110 1.486 . S
N109 N105 1.371 . S
N109 C108 1.307 1_554 S
C110 C108 1.486 . S
C110 H114 0.960 1_556 S
C110 H115 0.960 . S
C110 H116 0.959 . S
H111 C107 0.960 1_556 S
H112 C107 0.961 . S
H113 C107 0.960 . S
H114 C110 0.960 1_554 S
H115 C110 0.960 . S
H116 C110 0.959 . S
C117 N118 1.318 . S
C117 N119 1.348 1_556 S
C117 C120 1.485 . S
N118 C117 1.318 . S
N118 N122 1.369 1_556 S
N119 C117 1.348 1_554 S
N119 C121 1.346 . S
C120 C117 1.485 . S
C120 H124 0.960 1_556 S
C120 H125 0.961 . S
C120 H126 0.960 . S
C121 N119 1.346 . S
C121 N122 1.308 . S
C121 C123 1.486 . S
N122 N118 1.369 1_554 S
N122 C121 1.308 . S
C123 C121 1.486 . S
C123 H127 0.960 1_554 S
C123 H128 0.960 . S
C123 H129 0.959 . S
H124 C120 0.960 1_554 S
H125 C120 0.961 . S
H126 C120 0.960 . S
H127 C123 0.960 1_556 S
H128 C123 0.960 . S
H129 C123 0.959 . S
C130 N131 1.317 . S
C130 N132 1.350 . S
C130 C133 1.485 . S
N131 C130 1.317 . S
N131 N135 1.371 . S
N132 C130 1.350 . S
N132 C134 1.345 1_556 S
C133 C130 1.485 . S
C133 H137 0.960 1_556 S
C133 H138 0.961 . S
C133 H139 0.960 . S
C134 N132 1.345 1_554 S
C134 N135 1.307 1_554 S
C134 C136 1.486 . S
N135 N131 1.371 . S
N135 C134 1.307 1_556 S
C136 C134 1.486 . S
C136 H140 0.960 1_554 S
C136 H141 0.960 . S
C136 H142 0.959 . S
H137 C133 0.960 1_554 S
H138 C133 0.961 . S
H139 C133 0.960 . S
H140 C136 0.960 1_556 S
H141 C136 0.960 . S
H142 C136 0.959 . S
C143 N144 1.317 . S
C143 N145 1.348 . S
C143 C146 1.485 . S
N144 C143 1.317 . S
N144 N148 1.370 . S
N145 C143 1.348 . S
N145 C147 1.348 . S
C146 C143 1.485 . S
C146 H150 0.960 1_554 S
C146 H151 0.961 . S
C146 H152 0.960 . S
C147 N145 1.348 . S
C147 N148 1.308 . S
C147 C149 1.486 1_554 S
N148 N144 1.370 . S
N148 C147 1.308 . S
C149 C147 1.486 1_556 S
C149 H153 0.958 1_556 S
C149 H154 0.961 . S
C149 H155 0.959 . S
H150 C146 0.960 1_556 S
H151 C146 0.961 . S
H152 C146 0.960 . S
H153 C149 0.958 1_554 S
H154 C149 0.961 . S
H155 C149 0.959 . S
C156 N157 1.317 . S
C156 N158 1.348 . S
C156 C159 1.485 . S
N157 C156 1.317 . S
N157 N161 1.370 . S
N158 C156 1.348 . S
N158 C160 1.346 . S
C159 C156 1.485 . S
C159 H163 0.960 . S
C159 H164 0.961 . S
C159 H165 0.960 . S
C160 N158 1.346 . S
C160 N161 1.307 . S
C160 C162 1.486 . S
N161 N157 1.370 . S
N161 C160 1.307 . S
C162 C160 1.486 . S
C162 H166 0.960 . S
C162 H167 0.960 . S
C162 H168 0.959 . S
H163 C159 0.960 . S
H164 C159 0.961 . S
H165 C159 0.960 . S
H166 C162 0.960 . S
H167 C162 0.960 . S
H168 C162 0.959 . S
C169 N170 1.317 . S
C169 N171 1.348 . S
C169 C172 1.485 . S
N170 C169 1.317 . S
N170 N174 1.370 . S
N171 C169 1.348 . S
N171 C173 1.346 . S
C172 C169 1.485 . S
C172 H176 0.960 . S
C172 H177 0.961 . S
C172 H178 0.960 . S
C173 N171 1.346 . S
C173 N174 1.307 . S
C173 C175 1.486 . S
N174 N170 1.370 . S
N174 C173 1.307 . S
C175 C173 1.486 . S
C175 H179 0.960 . S
C175 H180 0.960 . S
C175 H181 0.959 . S
H176 C172 0.960 . S
H177 C172 0.961 . S
H178 C172 0.960 . S
H179 C175 0.960 . S
H180 C175 0.960 . S
H181 C175 0.959 . S
C182 N183 1.317 . S
C182 N184 1.348 . S
C182 C185 1.485 . S
N183 C182 1.317 . S
N183 N187 1.370 . S
N184 C182 1.348 . S
N184 C186 1.346 . S
C185 C182 1.485 . S
C185 H189 0.960 . S
C185 H190 0.961 . S
C185 H191 0.960 . S
C186 N184 1.346 . S
C186 N187 1.307 . S
C186 C188 1.486 . S
N187 N183 1.370 . S
N187 C186 1.307 . S
C188 C186 1.486 . S
C188 H192 0.960 . S
C188 H193 0.960 . S
C188 H194 0.959 . S
H189 C185 0.960 . S
H190 C185 0.961 . S
H191 C185 0.960 . S
H192 C188 0.960 . S
H193 C188 0.960 . S
H194 C188 0.959 . S
C195 N196 1.317 . S
C195 N197 1.348 . S
C195 C198 1.485 . S
N196 C195 1.317 . S
N196 N200 1.370 . S
N197 C195 1.348 . S
N197 C199 1.346 . S
C198 C195 1.485 . S
C198 H202 0.960 . S
C198 H203 0.961 . S
C198 H204 0.960 . S
C199 N197 1.346 . S
C199 N200 1.307 . S
C199 C201 1.486 . S
N200 N196 1.370 . S
N200 C199 1.307 . S
C201 C199 1.486 . S
C201 H205 0.960 . S
C201 H206 0.960 . S
C201 H207 0.959 . S
H202 C198 0.960 . S
H203 C198 0.961 . S
H204 C198 0.960 . S
H205 C201 0.960 . S
H206 C201 0.960 . S
H207 C201 0.959 . S
C208 N209 1.317 . S
C208 N210 1.348 . S
C208 C211 1.485 . S
N209 C208 1.317 . S
N209 N213 1.370 . S
N210 C208 1.348 . S
N210 C212 1.346 . S
C211 C208 1.485 . S
C211 H215 0.960 . S
C211 H216 0.961 . S
C211 H217 0.960 . S
C212 N210 1.346 . S
C212 N213 1.307 . S
C212 C214 1.486 . S
N213 N209 1.370 . S
N213 C212 1.307 . S
C214 C212 1.486 . S
C214 H218 0.960 . S
C214 H219 0.960 . S
C214 H220 0.959 . S
H215 C211 0.960 . S
H216 C211 0.961 . S
H217 C211 0.960 . S
H218 C214 0.960 . S
H219 C214 0.960 . S
H220 C214 0.959 . S
C221 N222 1.317 . S
C221 N223 1.348 . S
C221 C224 1.485 . S
N222 C221 1.317 . S
N222 N226 1.370 . S
N223 C221 1.348 . S
N223 C225 1.346 . S
C224 C221 1.485 . S
C224 H228 0.960 . S
C224 H229 0.961 . S
C224 H230 0.960 . S
C225 N223 1.346 . S
C225 N226 1.307 . S
C225 C227 1.486 . S
N226 N222 1.370 . S
N226 C225 1.307 . S
C227 C225 1.486 . S
C227 H231 0.960 . S
C227 H232 0.960 . S
C227 H233 0.959 . S
H228 C224 0.960 . S
H229 C224 0.961 . S
H230 C224 0.960 . S
H231 C227 0.960 . S
H232 C227 0.960 . S
H233 C227 0.959 . S
C234 N235 1.317 . S
C234 N236 1.348 . S
C234 C237 1.485 . S
N235 C234 1.317 . S
N235 N239 1.370 . S
N236 C234 1.348 . S
N236 C238 1.346 . S
C237 C234 1.485 . S
C237 H241 0.960 . S
C237 H242 0.961 . S
C237 H243 0.960 . S
C238 N236 1.346 . S
C238 N239 1.307 . S
C238 C240 1.486 . S
N239 N235 1.370 . S
N239 C238 1.307 . S
C240 C238 1.486 . S
C240 H244 0.960 . S
C240 H245 0.960 . S
C240 H246 0.959 . S
H241 C237 0.960 . S
H242 C237 0.961 . S
H243 C237 0.960 . S
H244 C240 0.960 . S
H245 C240 0.960 . S
H246 C240 0.959 . S
C247 N248 1.317 . S
C247 N249 1.348 . S
C247 C250 1.485 . S
N248 C247 1.317 . S
N248 N252 1.370 . S
N249 C247 1.348 . S
N249 C251 1.346 . S
C250 C247 1.485 . S
C250 H254 0.960 . S
C250 H255 0.961 . S
C250 H256 0.960 . S
C251 N249 1.346 . S
C251 N252 1.307 . S
C251 C253 1.486 . S
N252 N248 1.370 . S
N252 C251 1.307 . S
C253 C251 1.486 . S
C253 H257 0.960 . S
C253 H258 0.960 . S
C253 H259 0.959 . S
H254 C250 0.960 . S
H255 C250 0.961 . S
H256 C250 0.960 . S
H257 C253 0.960 . S
H258 C253 0.960 . S
H259 C253 0.959 . S
C260 N261 1.317 . S
C260 N262 1.348 . S
C260 C263 1.485 . S
N261 C260 1.317 . S
N261 N265 1.370 . S
N262 C260 1.348 . S
N262 C264 1.346 . S
C263 C260 1.485 . S
C263 H267 0.960 . S
C263 H268 0.961 . S
C263 H269 0.960 . S
C264 N262 1.346 . S
C264 N265 1.307 . S
C264 C266 1.486 . S
N265 N261 1.370 . S
N265 C264 1.307 . S
C266 C264 1.486 . S
C266 H270 0.960 . S
C266 H271 0.960 . S
C266 H272 0.959 . S
H267 C263 0.960 . S
H268 C263 0.961 . S
H269 C263 0.960 . S
H270 C266 0.960 . S
H271 C266 0.960 . S
H272 C266 0.959 . S
C273 N274 1.317 . S
C273 N275 1.348 . S
C273 C276 1.485 . S
N274 C273 1.317 . S
N274 N278 1.370 . S
N275 C273 1.348 . S
N275 C277 1.346 . S
C276 C273 1.485 . S
C276 H280 0.960 . S
C276 H281 0.961 . S
C276 H282 0.960 . S
C277 N275 1.346 . S
C277 N278 1.307 . S
C277 C279 1.486 . S
N278 N274 1.370 . S
N278 C277 1.307 . S
C279 C277 1.486 . S
C279 H283 0.960 . S
C279 H284 0.960 . S
C279 H285 0.959 . S
H280 C276 0.960 . S
H281 C276 0.961 . S
H282 C276 0.960 . S
H283 C279 0.960 . S
H284 C279 0.960 . S
H285 C279 0.959 . S
C286 N287 1.317 . S
C286 N288 1.348 . S
C286 C289 1.485 . S
N287 C286 1.317 . S
N287 N291 1.370 . S
N288 C286 1.348 . S
N288 C290 1.346 . S
C289 C286 1.485 . S
C289 H293 0.960 . S
C289 H294 0.961 . S
C289 H295 0.960 . S
C290 N288 1.346 . S
C290 N291 1.307 . S
C290 C292 1.486 . S
N291 N287 1.370 . S
N291 C290 1.307 . S
C292 C290 1.486 . S
C292 H296 0.960 . S
C292 H297 0.960 . S
C292 H298 0.959 . S
H293 C289 0.960 . S
H294 C289 0.961 . S
H295 C289 0.960 . S
H296 C292 0.960 . S
H297 C292 0.960 . S
H298 C292 0.959 . S
C299 N300 1.317 . S
C299 N301 1.348 . S
C299 C302 1.485 . S
N300 C299 1.317 . S
N300 N304 1.370 . S
N301 C299 1.348 . S
N301 C303 1.346 . S
C302 C299 1.485 . S
C302 H306 0.960 . S
C302 H307 0.961 . S
C302 H308 0.960 . S
C303 N301 1.346 . S
C303 N304 1.307 . S
C303 C305 1.486 . S
N304 N300 1.370 . S
N304 C303 1.307 . S
C305 C303 1.486 . S
C305 H309 0.960 . S
C305 H310 0.960 . S
C305 H311 0.959 . S
H306 C302 0.960 . S
H307 C302 0.961 . S
H308 C302 0.960 . S
H309 C305 0.960 . S
H310 C305 0.960 . S
H311 C305 0.959 . S
C312 O338 1.283 . S
C312 O356 1.283 . S
C313 O339 1.283 . S
C313 O354 1.283 . S
C314 O340 1.283 . S
C314 O357 1.283 . S
C315 O341 1.283 . S
C315 O355 1.283 . S
C316 O342 1.283 . S
C316 O351 1.283 . S
C317 O343 1.283 . S
C317 O353 1.283 . S
C318 O344 1.283 . S
C318 O350 1.283 . S
C319 O345 1.283 . S
C319 O352 1.283 . S
C320 O346 1.283 . S
C320 O361 1.283 . S
C321 O347 1.283 . S
C321 O359 1.283 . S
C322 O348 1.283 . S
C322 O360 1.283 . S
C323 O349 1.283 . S
C323 O358 1.283 . S
Eu324 O325 2.370 1_455 S
Eu324 O326 2.370 . S
Eu324 O329 2.370 1_455 S
Eu324 O330 2.370 . S
Eu324 O338 2.363 . S
Eu324 O339 2.363 . S
Eu324 O352 2.363 . S
Eu324 O353 2.363 1_455 S
O325 Eu324 2.370 1_655 S
O325 Eu327 2.359 1_565 S
O325 Eu332 2.357 1_665 S
O326 Eu324 2.370 . S
O326 Eu328 2.359 1_565 S
O326 Eu331 2.361 1_565 S
Eu327 O325 2.359 1_545 S
Eu327 O329 2.359 1_545 S
Eu327 O333 2.381 . S
Eu327 O334 2.381 . S
Eu327 O342 2.382 . S
Eu327 O343 2.344 1_545 S
Eu327 O358 2.363 . S
Eu327 O359 2.363 . S
Eu328 O326 2.359 1_545 S
Eu328 O330 2.359 1_545 S
Eu328 O335 2.381 . S
Eu328 O336 2.381 . S
Eu328 O344 2.382 . S
Eu328 O345 2.344 1_545 S
Eu328 O360 2.363 . S
Eu328 O361 2.363 . S
O329 Eu324 2.370 1_655 S
O329 Eu327 2.359 1_565 S
O329 Eu331 2.361 1_665 S
O330 Eu324 2.370 . S
O330 Eu328 2.359 1_565 S
O330 Eu332 2.357 1_565 S
Eu331 O326 2.361 1_545 S
Eu331 O329 2.361 1_445 S
Eu331 O333 2.379 1_455 S
Eu331 O336 2.379 . S
Eu331 O348 2.363 . S
Eu331 O349 2.363 1_455 S
Eu331 O356 2.347 1_545 S
Eu331 O357 2.379 . S
Eu332 O325 2.357 1_445 S
Eu332 O330 2.357 1_545 S
Eu332 O334 2.383 1_455 S
Eu332 O335 2.383 . S
Eu332 O346 2.363 . S
Eu332 O347 2.363 1_455 S
Eu332 O354 2.341 1_545 S
Eu332 O355 2.385 . S
O333 Eu327 2.381 . S
O333 Eu331 2.379 1_655 S
O333 Eu337 2.370 1_655 S
O334 Eu327 2.381 . S
O334 Eu332 2.383 1_655 S
O334 Eu337 2.370 1_655 S
O335 Eu328 2.381 . S
O335 Eu332 2.383 . S
O335 Eu337 2.370 . S
O336 Eu328 2.381 . S
O336 Eu331 2.379 . S
O336 Eu337 2.370 . S
Eu337 O333 2.370 1_455 S
Eu337 O334 2.370 1_455 S
Eu337 O335 2.370 . S
Eu337 O336 2.370 . S
Eu337 O340 2.363 . S
Eu337 O341 2.363 . S
Eu337 O350 2.363 . S
Eu337 O351 2.363 1_455 S
O338 C312 1.283 . S
O338 Eu324 2.363 . S
O339 C313 1.283 . S
O339 Eu324 2.363 . S
O340 C314 1.283 . S
O340 Eu337 2.363 . S
O341 C315 1.283 . S
O341 Eu337 2.363 . S
O342 C316 1.283 . S
O342 Eu327 2.382 . S
O343 C317 1.283 . S
O343 Eu327 2.344 1_565 S
O344 C318 1.283 . S
O344 Eu328 2.382 . S
O345 C319 1.283 . S
O345 Eu328 2.344 1_565 S
O346 C320 1.283 . S
O346 Eu332 2.363 . S
O347 C321 1.283 . S
O347 Eu332 2.363 1_655 S
O348 C322 1.283 . S
O348 Eu331 2.363 . S
O349 C323 1.283 . S
O349 Eu331 2.363 1_655 S
O350 C318 1.283 . S
O350 Eu337 2.363 . S
O351 C316 1.283 . S
O351 Eu337 2.363 1_655 S
O352 C319 1.283 . S
O352 Eu324 2.363 . S
O353 C317 1.283 . S
O353 Eu324 2.363 1_655 S
O354 C313 1.283 . S
O354 Eu332 2.341 1_565 S
O355 C315 1.283 . S
O355 Eu332 2.385 . S
O356 C312 1.283 . S
O356 Eu331 2.347 1_565 S
O357 C314 1.283 . S
O357 Eu331 2.379 . S
O358 C323 1.283 . S
O358 Eu327 2.363 . S
O359 C321 1.283 . S
O359 Eu327 2.363 . S
O360 C322 1.283 . S
O360 Eu328 2.363 . S
O361 C320 1.283 . S
O361 Eu328 2.363 . S
C362 O388 1.283 . S
C362 O406 1.283 . S
C363 O389 1.283 . S
C363 O404 1.283 . S
C364 O390 1.283 . S
C364 O407 1.283 . S
C365 O391 1.283 . S
C365 O405 1.283 . S
C366 O392 1.283 . S
C366 O401 1.283 . S
C367 O393 1.283 . S
C367 O403 1.284 . S
C368 O394 1.283 . S
C368 O400 1.283 . S
C369 O395 1.283 . S
C369 O402 1.284 . S
C370 O396 1.283 . S
C370 O411 1.283 . S
C371 O397 1.283 . S
C371 O409 1.283 . S
C372 O398 1.283 . S
C372 O410 1.283 . S
C373 O399 1.283 . S
C373 O408 1.283 . S
Eu374 O375 2.388 . S
Eu374 O376 2.353 1_545 S
Eu374 O379 2.353 1_545 S
Eu374 O380 2.388 . S
Eu374 O388 2.333 1_545 S
Eu374 O389 2.393 . S
Eu374 O402 2.363 . S
Eu374 O403 2.363 . S
O375 Eu374 2.388 . S
O375 Eu377 2.392 . S
O375 Eu382 2.375 . S
O376 Eu374 2.353 1_565 S
O376 Eu378 2.370 1_565 S
O376 Eu381 2.387 . S
Eu377 O375 2.392 . S
Eu377 O379 2.370 1_545 S
Eu377 O383 2.348 1_544 S
Eu377 O384 2.371 1_554 S
Eu377 O392 2.345 1_554 S
Eu377 O393 2.381 . S
Eu377 O408 2.344 1_545 S
Eu377 O409 2.382 . S
Eu378 O376 2.370 1_545 S
Eu378 O380 2.392 . S
Eu378 O385 2.371 1_554 S
Eu378 O386 2.348 1_544 S
Eu378 O394 2.345 1_554 S
Eu378 O395 2.381 . S
Eu378 O410 2.344 1_545 S
Eu378 O411 2.382 . S
O379 Eu374 2.353 1_565 S
O379 Eu377 2.370 1_565 S
O379 Eu381 2.387 . S
O380 Eu374 2.388 . S
O380 Eu378 2.392 . S
O380 Eu382 2.375 . S
Eu381 O376 2.387 . S
Eu381 O379 2.387 . S
Eu381 O383 2.353 1_554 S
Eu381 O386 2.353 1_554 S
Eu381 O398 2.363 . S
Eu381 O399 2.363 . S
Eu381 O406 2.391 . S
Eu381 O407 2.335 1_554 S
Eu382 O375 2.375 . S
Eu382 O380 2.375 . S
Eu382 O384 2.365 1_554 S
Eu382 O385 2.365 1_554 S
Eu382 O396 2.363 . S
Eu382 O397 2.363 . S
Eu382 O404 2.371 . S
Eu382 O405 2.355 1_554 S
O383 Eu377 2.348 1_566 S
O383 Eu381 2.353 1_556 S
O383 Eu387 2.365 1_565 S
O384 Eu377 2.371 1_556 S
O384 Eu382 2.365 1_556 S
O384 Eu387 2.375 . S
O385 Eu378 2.371 1_556 S
O385 Eu382 2.365 1_556 S
O385 Eu387 2.375 . S
O386 Eu378 2.348 1_566 S
O386 Eu381 2.353 1_556 S
O386 Eu387 2.365 1_565 S
Eu387 O383 2.365 1_545 S
Eu387 O384 2.375 . S
Eu387 O385 2.375 . S
Eu387 O386 2.365 1_545 S
Eu387 O390 2.354 1_545 S
Eu387 O391 2.371 . S
Eu387 O400 2.363 . S
Eu387 O401 2.363 . S
O388 C362 1.283 . S
O388 Eu374 2.333 1_565 S
O389 C363 1.283 . S
O389 Eu374 2.393 . S
O390 C364 1.283 . S
O390 Eu387 2.354 1_565 S
O391 C365 1.283 . S
O391 Eu387 2.371 . S
O392 C366 1.283 . S
O392 Eu377 2.345 1_556 S
O393 C367 1.283 . S
O393 Eu377 2.381 . S
O394 C368 1.283 . S
O394 Eu378 2.345 1_556 S
O395 C369 1.283 . S
O395 Eu378 2.381 . S
O396 C370 1.283 . S
O396 Eu382 2.363 . S
O397 C371 1.283 . S
O397 Eu382 2.363 . S
O398 C372 1.283 . S
O398 Eu381 2.363 . S
O399 C373 1.283 . S
O399 Eu381 2.363 . S
O400 C368 1.283 . S
O400 Eu387 2.363 . S
O401 C366 1.283 . S
O401 Eu387 2.363 . S
O402 C369 1.284 . S
O402 Eu374 2.363 . S
O403 C367 1.284 . S
O403 Eu374 2.363 . S
O404 C363 1.283 . S
O404 Eu382 2.371 . S
O405 C365 1.283 . S
O405 Eu382 2.355 1_556 S
O406 C362 1.283 . S
O406 Eu381 2.391 . S
O407 C364 1.283 . S
O407 Eu381 2.335 1_556 S
O408 C373 1.283 . S
O408 Eu377 2.344 1_565 S
O409 C371 1.283 . S
O409 Eu377 2.382 . S
O410 C372 1.283 . S
O410 Eu378 2.344 1_565 S
O411 C370 1.283 . S
O411 Eu378 2.382 . S
C412 O438 1.283 . S
C412 O456 1.283 . S
C413 O439 1.283 . S
C413 O454 1.283 . S
C414 O440 1.283 . S
C414 O457 1.283 . S
C415 O441 1.283 . S
C415 O455 1.283 . S
C416 O442 1.283 . S
C416 O451 1.283 . S
C417 O443 1.283 . S
C417 O453 1.283 . S
C418 O444 1.283 . S
C418 O450 1.283 . S
C419 O445 1.283 . S
C419 O452 1.283 . S
C420 O446 1.283 . S
C420 O461 1.283 . S
C421 O447 1.283 . S
C421 O459 1.283 . S
C422 O448 1.283 . S
C422 O460 1.283 . S
C423 O449 1.283 . S
C423 O458 1.283 . S
Eu424 O425 2.362 1_454 S
Eu424 O426 2.379 . S
Eu424 O429 2.379 1_455 S
Eu424 O430 2.362 1_554 S
Eu424 O438 2.377 . S
Eu424 O439 2.348 1_554 S
Eu424 O452 2.363 . S
Eu424 O453 2.363 1_455 S
O425 Eu424 2.362 1_656 S
O425 Eu427 2.359 1_556 S
O425 Eu432 2.370 1_655 S
O426 Eu424 2.379 . S
O426 Eu428 2.381 . S
O426 Eu431 2.370 . S
Eu427 O425 2.359 1_554 S
Eu427 O429 2.381 . S
Eu427 O433 2.381 . S
Eu427 O434 2.359 1_554 S
Eu427 O442 2.363 . S
Eu427 O443 2.363 . S
Eu427 O458 2.381 . S
Eu427 O459 2.345 1_554 S
Eu428 O426 2.381 . S
Eu428 O430 2.359 1_554 S
Eu428 O435 2.359 1_554 S
Eu428 O436 2.381 . S
Eu428 O444 2.363 . S
Eu428 O445 2.363 . S
Eu428 O460 2.381 . S
Eu428 O461 2.345 1_554 S
O429 Eu424 2.379 1_655 S
O429 Eu427 2.381 . S
O429 Eu431 2.370 1_655 S
O430 Eu424 2.362 1_556 S
O430 Eu428 2.359 1_556 S
O430 Eu432 2.370 . S
Eu431 O426 2.370 . S
Eu431 O429 2.370 1_455 S
Eu431 O433 2.370 1_455 S
Eu431 O436 2.370 . S
Eu431 O448 2.363 . S
Eu431 O449 2.363 1_455 S
Eu431 O456 2.363 . S
Eu431 O457 2.363 . S
Eu432 O425 2.370 1_455 S
Eu432 O430 2.370 . S
Eu432 O434 2.370 1_455 S
Eu432 O435 2.370 . S
Eu432 O446 2.363 . S
Eu432 O447 2.363 1_455 S
Eu432 O454 2.363 . S
Eu432 O455 2.363 . S
O433 Eu427 2.381 . S
O433 Eu431 2.370 1_655 S
O433 Eu437 2.383 1_655 S
O434 Eu427 2.359 1_556 S
O434 Eu432 2.370 1_655 S
O434 Eu437 2.357 1_656 S
O435 Eu428 2.359 1_556 S
O435 Eu432 2.370 . S
O435 Eu437 2.357 1_556 S
O436 Eu428 2.381 . S
O436 Eu431 2.370 . S
O436 Eu437 2.383 . S
Eu437 O433 2.383 1_455 S
Eu437 O434 2.357 1_454 S
Eu437 O435 2.357 1_554 S
Eu437 O436 2.383 . S
Eu437 O440 2.385 . S
Eu437 O441 2.341 1_554 S
Eu437 O450 2.363 . S
Eu437 O451 2.363 1_455 S
O438 C412 1.283 . S
O438 Eu424 2.377 . S
O439 C413 1.283 . S
O439 Eu424 2.348 1_556 S
O440 C414 1.283 . S
O440 Eu437 2.385 . S
O441 C415 1.283 . S
O441 Eu437 2.341 1_556 S
O442 C416 1.283 . S
O442 Eu427 2.363 . S
O443 C417 1.283 . S
O443 Eu427 2.363 . S
O444 C418 1.283 . S
O444 Eu428 2.363 . S
O445 C419 1.283 . S
O445 Eu428 2.363 . S
O446 C420 1.283 . S
O446 Eu432 2.363 . S
O447 C421 1.283 . S
O447 Eu432 2.363 1_655 S
O448 C422 1.283 . S
O448 Eu431 2.363 . S
O449 C423 1.283 . S
O449 Eu431 2.363 1_655 S
O450 C418 1.283 . S
O450 Eu437 2.363 . S
O451 C416 1.283 . S
O451 Eu437 2.363 1_655 S
O452 C419 1.283 . S
O452 Eu424 2.363 . S
O453 C417 1.283 . S
O453 Eu424 2.363 1_655 S
O454 C413 1.283 . S
O454 Eu432 2.363 . S
O455 C415 1.283 . S
O455 Eu432 2.363 . S
O456 C412 1.283 . S
O456 Eu431 2.363 . S
O457 C414 1.283 . S
O457 Eu431 2.363 . S
O458 C423 1.283 . S
O458 Eu427 2.381 . S
O459 C421 1.283 . S
O459 Eu427 2.345 1_556 S
O460 C422 1.283 . S
O460 Eu428 2.381 . S
O461 C420 1.283 . S
O461 Eu428 2.345 1_556 S
C462 O488 1.283 . S
C462 O506 1.283 . S
C463 O489 1.283 . S
C463 O504 1.283 . S
C464 O490 1.283 . S
C464 O507 1.283 . S
C465 O491 1.283 . S
C465 O505 1.283 . S
C466 O492 1.283 . S
C466 O501 1.283 . S
C467 O493 1.283 . S
C467 O503 1.283 . S
C468 O494 1.283 . S
C468 O500 1.283 . S
C469 O495 1.283 . S
C469 O502 1.283 . S
C470 O496 1.283 . S
C470 O511 1.283 . S
C471 O497 1.283 . S
C471 O509 1.283 . S
C472 O498 1.283 . S
C472 O510 1.283 . S
C473 O499 1.283 . S
C473 O508 1.283 . S
Eu474 O475 2.370 . S
Eu474 O476 2.370 . S
Eu474 O479 2.370 . S
Eu474 O480 2.370 . S
Eu474 O488 2.363 . S
Eu474 O489 2.363 . S
Eu474 O502 2.363 . S
Eu474 O503 2.363 . S
O475 Eu474 2.370 . S
O475 Eu477 2.381 . S
O475 Eu482 2.383 . S
O476 Eu474 2.370 . S
O476 Eu478 2.381 . S
O476 Eu481 2.379 . S
Eu477 O475 2.381 . S
Eu477 O479 2.381 . S
Eu477 O483 2.359 1_554 S
Eu477 O484 2.359 1_554 S
Eu477 O492 2.345 1_554 S
Eu477 O493 2.381 . S
Eu477 O508 2.363 . S
Eu477 O509 2.363 . S
Eu478 O476 2.381 . S
Eu478 O480 2.381 . S
Eu478 O485 2.359 1_554 S
Eu478 O486 2.359 1_554 S
Eu478 O494 2.345 1_554 S
Eu478 O495 2.381 . S
Eu478 O510 2.363 . S
Eu478 O511 2.363 . S
O479 Eu474 2.370 . S
O479 Eu477 2.381 . S
O479 Eu481 2.379 . S
O480 Eu474 2.370 . S
O480 Eu478 2.381 . S
O480 Eu482 2.383 . S
Eu481 O476 2.379 . S
Eu481 O479 2.379 . S
Eu481 O483 2.362 1_554 S
Eu481 O486 2.362 1_554 S
Eu481 O498 2.363 . S
Eu481 O499 2.363 . S
Eu481 O506 2.377 . S
Eu481 O507 2.348 1_554 S
Eu482 O475 2.383 . S
Eu482 O480 2.383 . S
Eu482 O484 2.357 1_554 S
Eu482 O485 2.357 1_554 S
Eu482 O496 2.363 . S
Eu482 O497 2.363 . S
Eu482 O504 2.385 . S
Eu482 O505 2.341 1_554 S
O483 Eu477 2.359 1_556 S
O483 Eu481 2.362 1_556 S
O483 Eu487 2.370 . S
O484 Eu477 2.359 1_556 S
O484 Eu482 2.357 1_556 S
O484 Eu487 2.370 . S
O485 Eu478 2.359 1_556 S
O485 Eu482 2.357 1_556 S
O485 Eu487 2.370 . S
O486 Eu478 2.359 1_556 S
O486 Eu481 2.362 1_556 S
O486 Eu487 2.370 . S
Eu487 O483 2.370 . S
Eu487 O484 2.370 . S
Eu487 O485 2.370 . S
Eu487 O486 2.370 . S
Eu487 O490 2.363 . S
Eu487 O491 2.363 . S
Eu487 O500 2.363 . S
Eu487 O501 2.363 . S
O488 C462 1.283 . S
O488 Eu474 2.363 . S
O489 C463 1.283 . S
O489 Eu474 2.363 . S
O490 C464 1.283 . S
O490 Eu487 2.363 . S
O491 C465 1.283 . S
O491 Eu487 2.363 . S
O492 C466 1.283 . S
O492 Eu477 2.345 1_556 S
O493 C467 1.283 . S
O493 Eu477 2.381 . S
O494 C468 1.283 . S
O494 Eu478 2.345 1_556 S
O495 C469 1.283 . S
O495 Eu478 2.381 . S
O496 C470 1.283 . S
O496 Eu482 2.363 . S
O497 C471 1.283 . S
O497 Eu482 2.363 . S
O498 C472 1.283 . S
O498 Eu481 2.363 . S
O499 C473 1.283 . S
O499 Eu481 2.363 . S
O500 C468 1.283 . S
O500 Eu487 2.363 . S
O501 C466 1.283 . S
O501 Eu487 2.363 . S
O502 C469 1.283 . S
O502 Eu474 2.363 . S
O503 C467 1.283 . S
O503 Eu474 2.363 . S
O504 C463 1.283 . S
O504 Eu482 2.385 . S
O505 C465 1.283 . S
O505 Eu482 2.341 1_556 S
O506 C462 1.283 . S
O506 Eu481 2.377 . S
O507 C464 1.283 . S
O507 Eu481 2.348 1_556 S
O508 C473 1.283 . S
O508 Eu477 2.363 . S
O509 C471 1.283 . S
O509 Eu477 2.363 . S
O510 C472 1.283 . S
O510 Eu478 2.363 . S
O511 C470 1.283 . S
O511 Eu478 2.363 . S
C512 O538 1.283 . S
C512 O556 1.283 . S
C513 O539 1.283 . S
C513 O554 1.283 . S
C514 O540 1.283 . S
C514 O557 1.283 . S
C515 O541 1.283 . S
C515 O555 1.283 . S
C516 O542 1.283 . S
C516 O551 1.283 . S
C517 O543 1.283 . S
C517 O553 1.283 . S
C518 O544 1.283 . S
C518 O550 1.283 . S
C519 O545 1.283 . S
C519 O552 1.283 . S
C520 O546 1.283 . S
C520 O561 1.283 . S
C521 O547 1.283 . S
C521 O559 1.283 . S
C522 O548 1.283 . S
C522 O560 1.283 . S
C523 O549 1.283 . S
C523 O558 1.283 . S
Eu524 O525 2.370 1_455 S
Eu524 O526 2.370 . S
Eu524 O529 2.370 1_455 S
Eu524 O530 2.370 . S
Eu524 O538 2.363 . S
Eu524 O539 2.363 . S
Eu524 O552 2.363 . S
Eu524 O553 2.363 1_455 S
O525 Eu524 2.370 1_655 S
O525 Eu527 2.370 . S
O525 Eu532 2.370 1_655 S
O526 Eu524 2.370 . S
O526 Eu528 2.370 . S
O526 Eu531 2.370 . S
Eu527 O525 2.370 . S
Eu527 O529 2.370 . S
Eu527 O533 2.370 . S
Eu527 O534 2.370 . S
Eu527 O542 2.363 . S
Eu527 O543 2.363 . S
Eu527 O558 2.363 . S
Eu527 O559 2.363 . S
Eu528 O526 2.370 . S
Eu528 O530 2.370 . S
Eu528 O535 2.370 . S
Eu528 O536 2.370 . S
Eu528 O544 2.363 . S
Eu528 O545 2.363 . S
Eu528 O560 2.363 . S
Eu528 O561 2.363 . S
O529 Eu524 2.370 1_655 S
O529 Eu527 2.370 . S
O529 Eu531 2.370 1_655 S
O530 Eu524 2.370 . S
O530 Eu528 2.370 . S
O530 Eu532 2.370 . S
Eu531 O526 2.370 . S
Eu531 O529 2.370 1_455 S
Eu531 O533 2.370 1_455 S
Eu531 O536 2.370 . S
Eu531 O548 2.363 . S
Eu531 O549 2.363 1_455 S
Eu531 O556 2.363 . S
Eu531 O557 2.363 . S
Eu532 O525 2.370 1_455 S
Eu532 O530 2.370 . S
Eu532 O534 2.370 1_455 S
Eu532 O535 2.370 . S
Eu532 O546 2.363 . S
Eu532 O547 2.363 1_455 S
Eu532 O554 2.363 . S
Eu532 O555 2.363 . S
O533 Eu527 2.370 . S
O533 Eu531 2.370 1_655 S
O533 Eu537 2.370 1_655 S
O534 Eu527 2.370 . S
O534 Eu532 2.370 1_655 S
O534 Eu537 2.370 1_655 S
O535 Eu528 2.370 . S
O535 Eu532 2.370 . S
O535 Eu537 2.370 . S
O536 Eu528 2.370 . S
O536 Eu531 2.370 . S
O536 Eu537 2.370 . S
Eu537 O533 2.370 1_455 S
Eu537 O534 2.370 1_455 S
Eu537 O535 2.370 . S
Eu537 O536 2.370 . S
Eu537 O540 2.363 . S
Eu537 O541 2.363 . S
Eu537 O550 2.363 . S
Eu537 O551 2.363 1_455 S
O538 C512 1.283 . S
O538 Eu524 2.363 . S
O539 C513 1.283 . S
O539 Eu524 2.363 . S
O540 C514 1.283 . S
O540 Eu537 2.363 . S
O541 C515 1.283 . S
O541 Eu537 2.363 . S
O542 C516 1.283 . S
O542 Eu527 2.363 . S
O543 C517 1.283 . S
O543 Eu527 2.363 . S
O544 C518 1.283 . S
O544 Eu528 2.363 . S
O545 C519 1.283 . S
O545 Eu528 2.363 . S
O546 C520 1.283 . S
O546 Eu532 2.363 . S
O547 C521 1.283 . S
O547 Eu532 2.363 1_655 S
O548 C522 1.283 . S
O548 Eu531 2.363 . S
O549 C523 1.283 . S
O549 Eu531 2.363 1_655 S
O550 C518 1.283 . S
O550 Eu537 2.363 . S
O551 C516 1.283 . S
O551 Eu537 2.363 1_655 S
O552 C519 1.283 . S
O552 Eu524 2.363 . S
O553 C517 1.283 . S
O553 Eu524 2.363 1_655 S
O554 C513 1.283 . S
O554 Eu532 2.363 . S
O555 C515 1.283 . S
O555 Eu532 2.363 . S
O556 C512 1.283 . S
O556 Eu531 2.363 . S
O557 C514 1.283 . S
O557 Eu531 2.363 . S
O558 C523 1.283 . S
O558 Eu527 2.363 . S
O559 C521 1.283 . S
O559 Eu527 2.363 . S
O560 C522 1.283 . S
O560 Eu528 2.363 . S
O561 C520 1.283 . S
O561 Eu528 2.363 . S
C562 O588 1.283 . S
C562 O606 1.283 . S
C563 O589 1.283 . S
C563 O604 1.283 . S
C564 O590 1.283 . S
C564 O607 1.283 . S
C565 O591 1.283 . S
C565 O605 1.283 . S
C566 O592 1.283 . S
C566 O601 1.283 . S
C567 O593 1.283 . S
C567 O603 1.283 . S
C568 O594 1.283 . S
C568 O600 1.283 . S
C569 O595 1.283 . S
C569 O602 1.283 . S
C570 O596 1.283 . S
C570 O611 1.283 . S
C571 O597 1.283 . S
C571 O609 1.283 . S
C572 O598 1.283 . S
C572 O610 1.283 . S
C573 O599 1.283 . S
C573 O608 1.283 . S
Eu574 O575 2.370 . S
Eu574 O576 2.370 . S
Eu574 O579 2.370 . S
Eu574 O580 2.370 . S
Eu574 O588 2.363 . S
Eu574 O589 2.363 . S
Eu574 O602 2.363 . S
Eu574 O603 2.363 . S
O575 Eu574 2.370 . S
O575 Eu577 2.359 1_565 S
O575 Eu582 2.357 1_565 S
O576 Eu574 2.370 . S
O576 Eu578 2.359 1_565 S
O576 Eu581 2.361 1_565 S
Eu577 O575 2.359 1_545 S
Eu577 O579 2.359 1_545 S
Eu577 O583 2.381 . S
Eu577 O584 2.381 . S
Eu577 O592 2.382 . S
Eu577 O593 2.344 1_545 S
Eu577 O608 2.363 . S
Eu577 O609 2.363 . S
Eu578 O576 2.359 1_545 S
Eu578 O580 2.359 1_545 S
Eu578 O585 2.381 . S
Eu578 O586 2.381 . S
Eu578 O594 2.382 . S
Eu578 O595 2.344 1_545 S
Eu578 O610 2.363 . S
Eu578 O611 2.363 . S
O579 Eu574 2.370 . S
O579 Eu577 2.359 1_565 S
O579 Eu581 2.361 1_565 S
O580 Eu574 2.370 . S
O580 Eu578 2.359 1_565 S
O580 Eu582 2.357 1_565 S
Eu581 O576 2.361 1_545 S
Eu581 O579 2.361 1_545 S
Eu581 O583 2.379 . S
Eu581 O586 2.379 . S
Eu581 O598 2.363 . S
Eu581 O599 2.363 . S
Eu581 O606 2.347 1_545 S
Eu581 O607 2.379 . S
Eu582 O575 2.357 1_545 S
Eu582 O580 2.357 1_545 S
Eu582 O584 2.383 . S
Eu582 O585 2.383 . S
Eu582 O596 2.363 . S
Eu582 O597 2.363 . S
Eu582 O604 2.340 1_545 S
Eu582 O605 2.385 . S
O583 Eu577 2.381 . S
O583 Eu581 2.379 . S
O583 Eu587 2.370 . S
O584 Eu577 2.381 . S
O584 Eu582 2.383 . S
O584 Eu587 2.370 . S
O585 Eu578 2.381 . S
O585 Eu582 2.383 . S
O585 Eu587 2.370 . S
O586 Eu578 2.381 . S
O586 Eu581 2.379 . S
O586 Eu587 2.370 . S
Eu587 O583 2.370 . S
Eu587 O584 2.370 . S
Eu587 O585 2.370 . S
Eu587 O586 2.370 . S
Eu587 O590 2.363 . S
Eu587 O591 2.363 . S
Eu587 O600 2.363 . S
Eu587 O601 2.363 . S
O588 C562 1.283 . S
O588 Eu574 2.363 . S
O589 C563 1.283 . S
O589 Eu574 2.363 . S
O590 C564 1.283 . S
O590 Eu587 2.363 . S
O591 C565 1.283 . S
O591 Eu587 2.363 . S
O592 C566 1.283 . S
O592 Eu577 2.382 . S
O593 C567 1.283 . S
O593 Eu577 2.344 1_565 S
O594 C568 1.283 . S
O594 Eu578 2.382 . S
O595 C569 1.283 . S
O595 Eu578 2.344 1_565 S
O596 C570 1.283 . S
O596 Eu582 2.363 . S
O597 C571 1.283 . S
O597 Eu582 2.363 . S
O598 C572 1.283 . S
O598 Eu581 2.363 . S
O599 C573 1.283 . S
O599 Eu581 2.363 . S
O600 C568 1.283 . S
O600 Eu587 2.363 . S
O601 C566 1.283 . S
O601 Eu587 2.363 . S
O602 C569 1.283 . S
O602 Eu574 2.363 . S
O603 C567 1.283 . S
O603 Eu574 2.363 . S
O604 C563 1.283 . S
O604 Eu582 2.340 1_565 S
O605 C565 1.283 . S
O605 Eu582 2.385 . S
O606 C562 1.283 . S
O606 Eu581 2.347 1_565 S
O607 C564 1.283 . S
O607 Eu581 2.379 . S
O608 C573 1.283 . S
O608 Eu577 2.363 . S
O609 C571 1.283 . S
O609 Eu577 2.363 . S
O610 C572 1.283 . S
O610 Eu578 2.363 . S
O611 C570 1.283 . S
O611 Eu578 2.363 . S
H612 C618 0.930 . S
H613 C621 0.930 . S
H614 C622 0.930 . S
H615 C623 0.930 . S
H616 C626 0.930 . S
H617 C627 0.930 . S
C618 H612 0.930 . S
C618 C619 1.355 . S
C618 C620 1.415 . S
C619 C618 1.355 . S
C619 C621 1.419 . S
C620 C618 1.415 . S
C620 C625 1.425 . S
C620 C627 1.409 . S
C621 H613 0.930 . S
C621 C619 1.419 . S
C621 C622 1.362 . S
C622 H614 0.930 . S
C622 C621 1.362 . S
C622 C625 1.409 . S
C623 H615 0.930 . S
C623 C624 1.355 . S
C623 C625 1.415 . S
C624 C623 1.355 . S
C624 C626 1.419 . S
C625 C620 1.425 . S
C625 C622 1.409 . S
C625 C623 1.415 . S
C626 H616 0.930 . S
C626 C624 1.419 . S
C626 C627 1.362 . S
C627 H617 0.930 . S
C627 C620 1.409 . S
C627 C626 1.362 . S
H628 C634 0.930 . S
H629 C637 0.930 . S
H630 C638 0.930 . S
H631 C639 0.930 . S
H632 C642 0.930 . S
H633 C643 0.930 . S
C634 H628 0.930 . S
C634 C635 1.355 . S
C634 C636 1.415 . S
C635 C634 1.355 . S
C635 C637 1.419 . S
C636 C634 1.415 . S
C636 C641 1.425 . S
C636 C643 1.409 . S
C637 H629 0.930 . S
C637 C635 1.419 . S
C637 C638 1.362 . S
C638 H630 0.930 . S
C638 C637 1.362 . S
C638 C641 1.409 . S
C639 H631 0.930 . S
C639 C640 1.355 . S
C639 C641 1.415 . S
C640 C639 1.355 . S
C640 C642 1.419 . S
C641 C636 1.425 . S
C641 C638 1.409 . S
C641 C639 1.415 . S
C642 H632 0.930 . S
C642 C640 1.419 . S
C642 C643 1.362 . S
C643 H633 0.930 . S
C643 C636 1.409 . S
C643 C642 1.362 . S
H644 C650 0.930 . S
H645 C653 0.930 . S
H646 C654 0.930 . S
H647 C655 0.930 . S
H648 C658 0.930 . S
H649 C659 0.930 . S
C650 H644 0.930 . S
C650 C651 1.355 . S
C650 C652 1.415 . S
C651 C650 1.355 . S
C651 C653 1.419 . S
C652 C650 1.415 . S
C652 C657 1.425 . S
C652 C659 1.409 . S
C653 H645 0.930 . S
C653 C651 1.419 . S
C653 C654 1.362 . S
C654 H646 0.930 . S
C654 C653 1.362 . S
C654 C657 1.409 . S
C655 H647 0.930 . S
C655 C656 1.355 . S
C655 C657 1.415 . S
C656 C655 1.355 . S
C656 C658 1.419 . S
C657 C652 1.425 . S
C657 C654 1.409 . S
C657 C655 1.415 . S
C658 H648 0.930 . S
C658 C656 1.419 . S
C658 C659 1.362 . S
C659 H649 0.930 . S
C659 C652 1.409 . S
C659 C658 1.362 . S
H660 C666 0.930 . S
H661 C669 0.930 . S
H662 C670 0.930 . S
H663 C671 0.930 . S
H664 C674 0.930 . S
H665 C675 0.930 . S
C666 H660 0.930 . S
C666 C667 1.355 . S
C666 C668 1.415 . S
C667 C666 1.355 . S
C667 C669 1.419 . S
C668 C666 1.415 . S
C668 C673 1.425 . S
C668 C675 1.409 . S
C669 H661 0.930 . S
C669 C667 1.419 . S
C669 C670 1.362 . S
C670 H662 0.930 . S
C670 C669 1.362 . S
C670 C673 1.409 . S
C671 H663 0.930 . S
C671 C672 1.355 . S
C671 C673 1.415 . S
C672 C671 1.355 . S
C672 C674 1.419 . S
C673 C668 1.425 . S
C673 C670 1.409 . S
C673 C671 1.415 . S
C674 H664 0.930 . S
C674 C672 1.419 . S
C674 C675 1.362 . S
C675 H665 0.930 . S
C675 C668 1.409 . S
C675 C674 1.362 . S
H676 C682 0.930 . S
H677 C685 0.930 . S
H678 C686 0.930 . S
H679 C687 0.930 . S
H680 C690 0.930 . S
H681 C691 0.930 . S
C682 H676 0.930 . S
C682 C683 1.355 . S
C682 C684 1.415 . S
C683 C682 1.355 . S
C683 C685 1.419 . S
C684 C682 1.415 . S
C684 C689 1.425 . S
C684 C691 1.409 . S
C685 H677 0.930 . S
C685 C683 1.419 . S
C685 C686 1.362 . S
C686 H678 0.930 . S
C686 C685 1.362 . S
C686 C689 1.409 . S
C687 H679 0.930 . S
C687 C688 1.355 . S
C687 C689 1.415 . S
C688 C687 1.355 . S
C688 C690 1.419 . S
C689 C684 1.425 . S
C689 C686 1.409 . S
C689 C687 1.415 . S
C690 H680 0.930 . S
C690 C688 1.419 . S
C690 C691 1.362 . S
C691 H681 0.930 . S
C691 C684 1.409 . S
C691 C690 1.362 . S
H692 C698 0.930 . S
H693 C701 0.930 . S
H694 C702 0.930 . S
H695 C703 0.930 . S
H696 C706 0.930 . S
H697 C707 0.930 . S
C698 H692 0.930 . S
C698 C699 1.355 . S
C698 C700 1.415 . S
C699 C698 1.355 . S
C699 C701 1.419 . S
C700 C698 1.415 . S
C700 C705 1.425 . S
C700 C707 1.409 . S
C701 H693 0.930 . S
C701 C699 1.419 . S
C701 C702 1.362 . S
C702 H694 0.930 . S
C702 C701 1.362 . S
C702 C705 1.409 . S
C703 H695 0.930 . S
C703 C704 1.355 . S
C703 C705 1.415 . S
C704 C703 1.355 . S
C704 C706 1.419 . S
C705 C700 1.425 . S
C705 C702 1.409 . S
C705 C703 1.415 . S
C706 H696 0.930 . S
C706 C704 1.419 . S
C706 C707 1.362 . S
C707 H697 0.930 . S
C707 C700 1.409 . S
C707 C706 1.362 . S
H708 C714 0.930 . S
H709 C717 0.930 . S
H710 C718 0.930 . S
H711 C719 0.930 . S
H712 C722 0.930 . S
H713 C723 0.930 . S
C714 H708 0.930 . S
C714 C715 1.355 . S
C714 C716 1.415 . S
C715 C714 1.355 . S
C715 C717 1.419 . S
C716 C714 1.415 . S
C716 C721 1.425 . S
C716 C723 1.409 . S
C717 H709 0.930 . S
C717 C715 1.419 . S
C717 C718 1.362 . S
C718 H710 0.930 . S
C718 C717 1.362 . S
C718 C721 1.409 . S
C719 H711 0.930 . S
C719 C720 1.355 . S
C719 C721 1.415 . S
C720 C719 1.355 . S
C720 C722 1.419 . S
C721 C716 1.425 . S
C721 C718 1.409 . S
C721 C719 1.415 . S
C722 H712 0.930 . S
C722 C720 1.419 . S
C722 C723 1.362 . S
C723 H713 0.930 . S
C723 C716 1.409 . S
C723 C722 1.362 . S
H724 C730 0.930 . S
H725 C733 0.930 . S
H726 C734 0.930 . S
H727 C735 0.930 . S
H728 C738 0.930 . S
H729 C739 0.930 . S
C730 H724 0.930 . S
C730 C731 1.355 . S
C730 C732 1.415 . S
C731 C730 1.355 . S
C731 C733 1.419 . S
C732 C730 1.415 . S
C732 C737 1.425 . S
C732 C739 1.409 . S
C733 H725 0.930 . S
C733 C731 1.419 . S
C733 C734 1.362 . S
C734 H726 0.930 . S
C734 C733 1.362 . S
C734 C737 1.409 . S
C735 H727 0.930 . S
C735 C736 1.355 . S
C735 C737 1.415 . S
C736 C735 1.355 . S
C736 C738 1.419 . S
C737 C732 1.425 . S
C737 C734 1.409 . S
C737 C735 1.415 . S
C738 H728 0.930 . S
C738 C736 1.419 . S
C738 C739 1.362 . S
C739 H729 0.930 . S
C739 C732 1.409 . S
C739 C738 1.362 . S
H740 C746 0.930 . S
H741 C749 0.930 . S
H742 C750 0.930 . S
H743 C751 0.930 . S
H744 C754 0.930 . S
H745 C755 0.930 . S
C746 H740 0.930 . S
C746 C747 1.355 . S
C746 C748 1.415 . S
C747 C746 1.355 . S
C747 C749 1.419 . S
C748 C746 1.415 . S
C748 C753 1.425 . S
C748 C755 1.409 . S
C749 H741 0.930 . S
C749 C747 1.419 . S
C749 C750 1.362 . S
C750 H742 0.930 . S
C750 C749 1.362 . S
C750 C753 1.409 . S
C751 H743 0.930 . S
C751 C752 1.355 . S
C751 C753 1.415 . S
C752 C751 1.355 . S
C752 C754 1.419 . S
C753 C748 1.425 . S
C753 C750 1.409 . S
C753 C751 1.415 . S
C754 H744 0.930 . S
C754 C752 1.419 . S
C754 C755 1.362 . S
C755 H745 0.930 . S
C755 C748 1.409 . S
C755 C754 1.362 . S
H756 C762 0.930 . S
H757 C765 0.930 . S
H758 C766 0.930 . S
H759 C767 0.930 . S
H760 C770 0.930 . S
H761 C771 0.930 . S
C762 H756 0.930 . S
C762 C763 1.355 . S
C762 C764 1.415 . S
C763 C762 1.355 . S
C763 C765 1.419 . S
C764 C762 1.415 . S
C764 C769 1.425 . S
C764 C771 1.409 . S
C765 H757 0.930 . S
C765 C763 1.419 . S
C765 C766 1.362 . S
C766 H758 0.930 . S
C766 C765 1.362 . S
C766 C769 1.409 . S
C767 H759 0.930 . S
C767 C768 1.355 . S
C767 C769 1.415 . S
C768 C767 1.355 . S
C768 C770 1.419 . S
C769 C764 1.425 . S
C769 C766 1.409 . S
C769 C767 1.415 . S
C770 H760 0.930 . S
C770 C768 1.419 . S
C770 C771 1.362 . S
C771 H761 0.930 . S
C771 C764 1.409 . S
C771 C770 1.362 . S
H772 C778 0.930 . S
H773 C781 0.930 . S
H774 C782 0.930 . S
H775 C783 0.930 . S
H776 C786 0.930 . S
H777 C787 0.930 . S
C778 H772 0.930 . S
C778 C779 1.355 . S
C778 C780 1.415 . S
C779 C778 1.355 . S
C779 C781 1.419 . S
C780 C778 1.415 . S
C780 C785 1.425 . S
C780 C787 1.409 . S
C781 H773 0.930 . S
C781 C779 1.419 . S
C781 C782 1.362 . S
C782 H774 0.930 . S
C782 C781 1.362 . S
C782 C785 1.409 . S
C783 H775 0.930 . S
C783 C784 1.355 . S
C783 C785 1.415 . S
C784 C783 1.355 . S
C784 C786 1.419 . S
C785 C780 1.425 . S
C785 C782 1.409 . S
C785 C783 1.415 . S
C786 H776 0.930 . S
C786 C784 1.419 . S
C786 C787 1.362 . S
C787 H777 0.930 . S
C787 C780 1.409 . S
C787 C786 1.362 . S
H788 C794 0.930 . S
H789 C797 0.930 . S
H790 C798 0.930 . S
H791 C799 0.930 . S
H792 C802 0.930 . S
H793 C803 0.930 . S
C794 H788 0.930 . S
C794 C795 1.355 . S
C794 C796 1.415 . S
C795 C794 1.355 . S
C795 C797 1.419 . S
C796 C794 1.415 . S
C796 C801 1.425 . S
C796 C803 1.409 . S
C797 H789 0.930 . S
C797 C795 1.419 . S
C797 C798 1.362 . S
C798 H790 0.930 . S
C798 C797 1.362 . S
C798 C801 1.409 . S
C799 H791 0.930 . S
C799 C800 1.355 . S
C799 C801 1.415 . S
C800 C799 1.355 . S
C800 C802 1.419 . S
C801 C796 1.425 . S
C801 C798 1.409 . S
C801 C799 1.415 . S
C802 H792 0.930 . S
C802 C800 1.419 . S
C802 C803 1.362 . S
C803 H793 0.930 . S
C803 C796 1.409 . S
C803 C802 1.362 . S
H804 C810 0.930 . S
H805 C813 0.930 . S
H806 C814 0.930 . S
H807 C815 0.930 . S
H808 C818 0.930 . S
H809 C819 0.930 . S
C810 H804 0.930 . S
C810 C811 1.355 1_556 S
C810 C812 1.415 . S
C811 C810 1.355 1_554 S
C811 C813 1.419 . S
C812 C810 1.415 . S
C812 C817 1.425 1_556 S
C812 C819 1.409 . S
C813 H805 0.930 . S
C813 C811 1.419 . S
C813 C814 1.362 . S
C814 H806 0.930 . S
C814 C813 1.362 . S
C814 C817 1.409 . S
C815 H807 0.930 . S
C815 C816 1.355 1_554 S
C815 C817 1.415 . S
C816 C815 1.355 1_556 S
C816 C818 1.419 . S
C817 C812 1.425 1_554 S
C817 C814 1.409 . S
C817 C815 1.415 . S
C818 H808 0.930 . S
C818 C816 1.419 . S
C818 C819 1.362 . S
C819 H809 0.930 . S
C819 C812 1.409 . S
C819 C818 1.362 . S
H820 C826 0.930 . S
H821 C829 0.930 . S
H822 C830 0.930 . S
H823 C831 0.930 . S
H824 C834 0.930 . S
H825 C835 0.930 . S
C826 H820 0.930 . S
C826 C827 1.355 . S
C826 C828 1.415 . S
C827 C826 1.355 . S
C827 C829 1.419 1_554 S
C828 C826 1.415 . S
C828 C833 1.425 1_554 S
C828 C835 1.409 . S
C829 H821 0.930 . S
C829 C827 1.419 1_556 S
C829 C830 1.362 . S
C830 H822 0.930 . S
C830 C829 1.362 . S
C830 C833 1.409 . S
C831 H823 0.930 . S
C831 C832 1.352 1_556 S
C831 C833 1.415 . S
C832 C831 1.352 1_554 S
C832 C834 1.422 . S
C833 C828 1.425 1_556 S
C833 C830 1.409 . S
C833 C831 1.415 . S
C834 H824 0.930 . S
C834 C832 1.422 . S
C834 C835 1.362 . S
C835 H825 0.930 . S
C835 C828 1.409 . S
C835 C834 1.362 . S
H836 C842 0.930 . S
H837 C845 0.930 . S
H838 C846 0.930 . S
H839 C847 0.930 . S
H840 C850 0.930 . S
H841 C851 0.930 . S
C842 H836 0.930 . S
C842 C843 1.352 1_554 S
C842 C844 1.415 . S
C843 C842 1.352 1_556 S
C843 C845 1.423 . S
C844 C842 1.415 . S
C844 C849 1.425 1_554 S
C844 C851 1.409 . S
C845 H837 0.930 . S
C845 C843 1.423 . S
C845 C846 1.362 . S
C846 H838 0.930 . S
C846 C845 1.362 . S
C846 C849 1.409 . S
C847 H839 0.930 . S
C847 C848 1.343 1_556 S
C847 C849 1.415 . S
C848 C847 1.343 1_554 S
C848 C850 1.434 . S
C849 C844 1.425 1_556 S
C849 C846 1.409 . S
C849 C847 1.415 . S
C850 H840 0.930 . S
C850 C848 1.434 . S
C850 C851 1.362 . S
C851 H841 0.930 . S
C851 C844 1.409 . S
C851 C850 1.362 . S
H852 C858 0.930 . S
H853 C861 0.930 . S
H854 C862 0.930 . S
H855 C863 0.930 . S
H856 C866 0.930 . S
H857 C867 0.930 . S
C858 H852 0.930 . S
C858 C859 1.347 1_556 S
C858 C860 1.415 . S
C859 C858 1.347 1_554 S
C859 C861 1.429 . S
C860 C858 1.415 . S
C860 C865 1.425 1_556 S
C860 C867 1.409 . S
C861 H853 0.930 . S
C861 C859 1.429 . S
C861 C862 1.362 . S
C862 H854 0.930 . S
C862 C861 1.362 . S
C862 C865 1.409 . S
C863 H855 0.930 . S
C863 C864 1.354 1_554 S
C863 C865 1.415 . S
C864 C863 1.354 1_556 S
C864 C866 1.420 . S
C865 C860 1.425 1_554 S
C865 C862 1.409 . S
C865 C863 1.415 . S
C866 H856 0.930 . S
C866 C864 1.420 . S
C866 C867 1.362 . S
C867 H857 0.930 . S
C867 C860 1.409 . S
C867 C866 1.362 . S
H868 C874 0.930 1_655 S
H869 C877 0.930 . S
H870 C878 0.930 . S
H871 C879 0.930 . S
H872 C882 0.930 . S
H873 C883 0.930 . S
C874 H868 0.930 1_455 S
C874 C875 1.355 . S
C874 C876 1.415 . S
C875 C874 1.355 . S
C875 C877 1.419 . S
C876 C874 1.415 . S
C876 C881 1.425 . S
C876 C883 1.409 1_455 S
C877 H869 0.930 . S
C877 C875 1.419 . S
C877 C878 1.362 . S
C878 H870 0.930 . S
C878 C877 1.362 . S
C878 C881 1.409 . S
C879 H871 0.930 . S
C879 C880 1.355 . S
C879 C881 1.415 . S
C880 C879 1.355 . S
C880 C882 1.419 1_455 S
C881 C876 1.425 . S
C881 C878 1.409 . S
C881 C879 1.415 . S
C882 H872 0.930 . S
C882 C880 1.419 1_655 S
C882 C883 1.362 . S
C883 H873 0.930 . S
C883 C876 1.409 1_655 S
C883 C882 1.362 . S
H884 C890 0.930 . S
H885 C893 0.930 . S
H886 C894 0.930 . S
H887 C895 0.930 . S
H888 C898 0.930 . S
H889 C899 0.930 . S
C890 H884 0.930 . S
C890 C891 1.355 1_565 S
C890 C892 1.415 . S
C891 C890 1.355 1_545 S
C891 C893 1.419 . S
C892 C890 1.415 . S
C892 C897 1.425 1_565 S
C892 C899 1.409 . S
C893 H885 0.930 . S
C893 C891 1.419 . S
C893 C894 1.362 . S
C894 H886 0.930 . S
C894 C893 1.362 . S
C894 C897 1.409 . S
C895 H887 0.930 . S
C895 C896 1.355 1_545 S
C895 C897 1.415 . S
C896 C895 1.355 1_565 S
C896 C898 1.419 . S
C897 C892 1.425 1_545 S
C897 C894 1.409 . S
C897 C895 1.415 . S
C898 H888 0.930 . S
C898 C896 1.419 . S
C898 C899 1.362 . S
C899 H889 0.930 . S
C899 C892 1.409 . S
C899 C898 1.362 . S
H900 C906 0.930 . S
H901 C909 0.930 . S
H902 C910 0.930 . S
H903 C911 0.930 . S
H904 C914 0.930 . S
H905 C915 0.930 1_655 S
C906 H900 0.930 . S
C906 C907 1.355 . S
C906 C908 1.415 . S
C907 C906 1.355 . S
C907 C909 1.419 . S
C908 C906 1.415 . S
C908 C913 1.425 . S
C908 C915 1.409 . S
C909 H901 0.930 . S
C909 C907 1.419 . S
C909 C910 1.362 . S
C910 H902 0.930 . S
C910 C909 1.362 . S
C910 C913 1.409 . S
C911 H903 0.930 . S
C911 C912 1.355 . S
C911 C913 1.415 . S
C912 C911 1.355 . S
C912 C914 1.419 . S
C913 C908 1.425 . S
C913 C910 1.409 . S
C913 C911 1.415 . S
C914 H904 0.930 . S
C914 C912 1.419 . S
C914 C915 1.362 . S
C915 H905 0.930 1_455 S
C915 C908 1.409 . S
C915 C914 1.362 . S
H916 C922 0.930 . S
H917 C925 0.930 . S
H918 C926 0.930 . S
H919 C927 0.930 . S
H920 C930 0.930 . S
H921 C931 0.930 . S
C922 H916 0.930 . S
C922 C923 1.355 1_565 S
C922 C924 1.415 . S
C923 C922 1.355 1_545 S
C923 C925 1.419 . S
C924 C922 1.415 . S
C924 C929 1.425 1_565 S
C924 C931 1.409 . S
C925 H917 0.930 . S
C925 C923 1.419 . S
C925 C926 1.362 . S
C926 H918 0.930 . S
C926 C925 1.362 . S
C926 C929 1.409 . S
C927 H919 0.930 . S
C927 C928 1.355 1_545 S
C927 C929 1.415 . S
C928 C927 1.355 1_565 S
C928 C930 1.419 . S
C929 C924 1.425 1_545 S
C929 C926 1.409 . S
C929 C927 1.415 . S
C930 H920 0.930 . S
C930 C928 1.419 . S
C930 C931 1.362 . S
C931 H921 0.930 . S
C931 C924 1.409 . S
C931 C930 1.362 . S
H932 C938 0.930 . S
H933 C941 0.930 . S
H934 C942 0.930 . S
H935 C943 0.930 . S
H936 C946 0.930 . S
H937 C947 0.930 . S
C938 H932 0.930 . S
C938 C939 1.355 . S
C938 C940 1.415 . S
C939 C938 1.355 . S
C939 C941 1.419 . S
C940 C938 1.415 . S
C940 C945 1.425 . S
C940 C947 1.409 . S
C941 H933 0.930 . S
C941 C939 1.419 . S
C941 C942 1.362 . S
C942 H934 0.930 . S
C942 C941 1.362 . S
C942 C945 1.409 . S
C943 H935 0.930 . S
C943 C944 1.355 . S
C943 C945 1.415 . S
C944 C943 1.355 . S
C944 C946 1.419 . S
C945 C940 1.425 . S
C945 C942 1.409 . S
C945 C943 1.415 . S
C946 H936 0.930 . S
C946 C944 1.419 . S
C946 C947 1.362 . S
C947 H937 0.930 . S
C947 C940 1.409 . S
C947 C946 1.362 . S
H948 C954 0.930 . S
H949 C957 0.930 . S
H950 C958 0.930 . S
H951 C959 0.930 . S
H952 C962 0.930 . S
H953 C963 0.930 . S
C954 H948 0.930 . S
C954 C955 1.355 . S
C954 C956 1.415 . S
C955 C954 1.355 . S
C955 C957 1.419 1_545 S
C956 C954 1.415 . S
C956 C961 1.425 1_545 S
C956 C963 1.409 . S
C957 H949 0.930 . S
C957 C955 1.419 1_565 S
C957 C958 1.362 . S
C958 H950 0.930 . S
C958 C957 1.362 . S
C958 C961 1.409 . S
C959 H951 0.930 . S
C959 C960 1.354 1_565 S
C959 C961 1.415 . S
C960 C959 1.354 1_545 S
C960 C962 1.420 . S
C961 C956 1.425 1_565 S
C961 C958 1.409 . S
C961 C959 1.415 . S
C962 H952 0.930 . S
C962 C960 1.420 . S
C962 C963 1.362 . S
C963 H953 0.930 . S
C963 C956 1.409 . S
C963 C962 1.362 . S
H964 C970 0.930 . S
H965 C973 0.930 . S
H966 C974 0.930 . S
H967 C975 0.930 1_655 S
H968 C978 0.930 . S
H969 C979 0.930 . S
C970 H964 0.930 . S
C970 C971 1.355 . S
C970 C972 1.415 . S
C971 C970 1.355 . S
C971 C973 1.419 1_455 S
C972 C970 1.415 . S
C972 C977 1.425 . S
C972 C979 1.409 . S
C973 H965 0.930 . S
C973 C971 1.419 1_655 S
C973 C974 1.362 . S
C974 H966 0.930 . S
C974 C973 1.362 . S
C974 C977 1.409 1_655 S
C975 H967 0.930 1_455 S
C975 C976 1.355 . S
C975 C977 1.415 . S
C976 C975 1.355 . S
C976 C978 1.419 . S
C977 C972 1.425 . S
C977 C974 1.409 1_455 S
C977 C975 1.415 . S
C978 H968 0.930 . S
C978 C976 1.419 . S
C978 C979 1.362 . S
C979 H969 0.930 . S
C979 C972 1.409 . S
C979 C978 1.362 . S
H980 C986 0.930 . S
H981 C989 0.930 . S
H982 C990 0.930 . S
H983 C991 0.930 . S
H984 C994 0.930 . S
H985 C995 0.930 . S
C986 H980 0.930 . S
C986 C987 1.355 1_545 S
C986 C988 1.415 . S
C987 C986 1.355 1_565 S
C987 C989 1.419 . S
C988 C986 1.415 . S
C988 C993 1.425 1_545 S
C988 C995 1.409 . S
C989 H981 0.930 . S
C989 C987 1.419 . S
C989 C990 1.362 . S
C990 H982 0.930 . S
C990 C989 1.362 . S
C990 C993 1.409 . S
C991 H983 0.930 . S
C991 C992 1.355 1_565 S
C991 C993 1.415 . S
C992 C991 1.355 1_545 S
C992 C994 1.419 . S
C993 C988 1.425 1_565 S
C993 C990 1.409 . S
C993 C991 1.415 . S
C994 H984 0.930 . S
C994 C992 1.419 . S
C994 C995 1.362 . S
C995 H985 0.930 . S
C995 C988 1.409 . S
C995 C994 1.362 . S
H996 C1002 0.930 . S
H997 C1005 0.930 . S
H998 C1006 0.930 . S
H999 C1007 0.930 . S
H1000 C1010 0.930 . S
H1001 C1011 0.930 . S
C1002 H996 0.930 . S
C1002 C1003 1.355 . S
C1002 C1004 1.415 . S
C1003 C1002 1.355 . S
C1003 C1005 1.419 . S
C1004 C1002 1.415 . S
C1004 C1009 1.425 . S
C1004 C1011 1.409 . S
C1005 H997 0.930 . S
C1005 C1003 1.419 . S
C1005 C1006 1.362 . S
C1006 H998 0.930 . S
C1006 C1005 1.362 . S
C1006 C1009 1.409 . S
C1007 H999 0.930 . S
C1007 C1008 1.355 . S
C1007 C1009 1.415 . S
C1008 C1007 1.355 . S
C1008 C1010 1.419 . S
C1009 C1004 1.425 . S
C1009 C1006 1.409 . S
C1009 C1007 1.415 . S
C1010 H1000 0.930 . S
C1010 C1008 1.419 . S
C1010 C1011 1.362 . S
C1011 H1001 0.930 . S
C1011 C1004 1.409 . S
C1011 C1010 1.362 . S
H1012 C1018 0.930 . S
H1013 C1021 0.930 . S
H1014 C1022 0.930 . S
H1015 C1023 0.930 . S
H1016 C1026 0.930 . S
H1017 C1027 0.930 . S
C1018 H1012 0.930 . S
C1018 C1019 1.355 1_565 S
C1018 C1020 1.415 . S
C1019 C1018 1.355 1_545 S
C1019 C1021 1.419 . S
C1020 C1018 1.415 . S
C1020 C1025 1.425 1_565 S
C1020 C1027 1.409 . S
C1021 H1013 0.930 . S
C1021 C1019 1.419 . S
C1021 C1022 1.362 . S
C1022 H1014 0.930 . S
C1022 C1021 1.362 . S
C1022 C1025 1.409 . S
C1023 H1015 0.930 . S
C1023 C1024 1.355 1_545 S
C1023 C1025 1.415 . S
C1024 C1023 1.355 1_565 S
C1024 C1026 1.419 . S
C1025 C1020 1.425 1_545 S
C1025 C1022 1.409 . S
C1025 C1023 1.415 . S
C1026 H1016 0.930 . S
C1026 C1024 1.419 . S
C1026 C1027 1.362 . S
C1027 H1017 0.930 . S
C1027 C1020 1.409 . S
C1027 C1026 1.362 . S
H1028 C1034 0.930 . S
H1029 C1037 0.930 . S
H1030 C1038 0.930 . S
H1031 C1039 0.930 . S
H1032 C1042 0.930 . S
H1033 C1043 0.927 1_655 S
C1034 H1028 0.930 . S
C1034 C1035 1.355 . S
C1034 C1036 1.415 . S
C1035 C1034 1.355 . S
C1035 C1037 1.419 . S
C1036 C1034 1.415 . S
C1036 C1041 1.425 . S
C1036 C1043 1.409 . S
C1037 H1029 0.930 . S
C1037 C1035 1.419 . S
C1037 C1038 1.362 . S
C1038 H1030 0.930 . S
C1038 C1037 1.362 . S
C1038 C1041 1.409 . S
C1039 H1031 0.930 . S
C1039 C1040 1.355 . S
C1039 C1041 1.415 . S
C1040 C1039 1.355 . S
C1040 C1042 1.419 . S
C1041 C1036 1.425 . S
C1041 C1038 1.409 . S
C1041 C1039 1.415 . S
C1042 H1032 0.930 . S
C1042 C1040 1.419 . S
C1042 C1043 1.362 . S
C1043 H1033 0.927 1_455 S
C1043 C1036 1.409 . S
C1043 C1042 1.362 . S
H1044 C1050 0.930 . S
H1045 C1053 0.930 . S
H1046 C1054 0.930 . S
H1047 C1055 0.930 . S
H1048 C1058 0.930 . S
H1049 C1059 0.930 . S
C1050 H1044 0.930 . S
C1050 C1051 1.355 . S
C1050 C1052 1.415 . S
C1051 C1050 1.355 . S
C1051 C1053 1.419 1_545 S
C1052 C1050 1.415 . S
C1052 C1057 1.425 1_545 S
C1052 C1059 1.409 . S
C1053 H1045 0.930 . S
C1053 C1051 1.419 1_565 S
C1053 C1054 1.362 . S
C1054 H1046 0.930 . S
C1054 C1053 1.362 . S
C1054 C1057 1.409 . S
C1055 H1047 0.930 . S
C1055 C1056 1.346 1_565 S
C1055 C1057 1.415 . S
C1056 C1055 1.346 1_545 S
C1056 C1058 1.431 . S
C1057 C1052 1.425 1_565 S
C1057 C1054 1.409 . S
C1057 C1055 1.415 . S
C1058 H1048 0.930 . S
C1058 C1056 1.431 . S
C1058 C1059 1.362 . S
C1059 H1049 0.930 . S
C1059 C1052 1.409 . S
C1059 C1058 1.362 . S
H1060 C1066 0.930 . S
H1061 C1069 0.930 . S
H1062 C1070 0.930 . S
H1063 C1071 0.930 . S
H1064 C1074 0.930 . S
H1065 C1075 0.930 . S
C1066 H1060 0.930 . S
C1066 C1067 1.355 . S
C1066 C1068 1.415 . S
C1067 C1066 1.355 . S
C1067 C1069 1.419 . S
C1068 C1066 1.415 . S
C1068 C1073 1.425 . S
C1068 C1075 1.409 . S
C1069 H1061 0.930 . S
C1069 C1067 1.419 . S
C1069 C1070 1.362 . S
C1070 H1062 0.930 . S
C1070 C1069 1.362 . S
C1070 C1073 1.409 . S
C1071 H1063 0.930 . S
C1071 C1072 1.355 . S
C1071 C1073 1.415 . S
C1072 C1071 1.355 . S
C1072 C1074 1.419 . S
C1073 C1068 1.425 . S
C1073 C1070 1.409 . S
C1073 C1071 1.415 . S
C1074 H1064 0.930 . S
C1074 C1072 1.419 . S
C1074 C1075 1.362 . S
C1075 H1065 0.930 . S
C1075 C1068 1.409 . S
C1075 C1074 1.362 . S
H1076 C1082 0.930 . S
H1077 C1085 0.930 . S
H1078 C1086 0.930 . S
H1079 C1087 0.930 . S
H1080 C1090 0.930 . S
H1081 C1091 0.930 . S
C1082 H1076 0.930 . S
C1082 C1083 1.355 1_545 S
C1082 C1084 1.415 . S
C1083 C1082 1.355 1_565 S
C1083 C1085 1.419 . S
C1084 C1082 1.415 . S
C1084 C1089 1.425 1_545 S
C1084 C1091 1.409 . S
C1085 H1077 0.930 . S
C1085 C1083 1.419 . S
C1085 C1086 1.362 . S
C1086 H1078 0.930 . S
C1086 C1085 1.362 . S
C1086 C1089 1.409 . S
C1087 H1079 0.930 . S
C1087 C1088 1.355 1_565 S
C1087 C1089 1.415 . S
C1088 C1087 1.355 1_545 S
C1088 C1090 1.419 . S
C1089 C1084 1.425 1_565 S
C1089 C1086 1.409 . S
C1089 C1087 1.415 . S
C1090 H1080 0.930 . S
C1090 C1088 1.419 . S
C1090 C1091 1.362 . S
C1091 H1081 0.930 . S
C1091 C1084 1.409 . S
C1091 C1090 1.362 . S
H1092 C1098 0.930 1_655 S
H1093 C1101 0.930 . S
H1094 C1102 0.930 . S
H1095 C1103 0.930 . S
H1096 C1106 0.930 . S
H1097 C1107 0.930 . S
C1098 H1092 0.930 1_455 S
C1098 C1099 1.355 . S
C1098 C1100 1.415 . S
C1099 C1098 1.355 . S
C1099 C1101 1.419 . S
C1100 C1098 1.415 . S
C1100 C1105 1.425 . S
C1100 C1107 1.409 1_455 S
C1101 H1093 0.930 . S
C1101 C1099 1.419 . S
C1101 C1102 1.362 . S
C1102 H1094 0.930 . S
C1102 C1101 1.362 . S
C1102 C1105 1.409 . S
C1103 H1095 0.930 . S
C1103 C1104 1.355 . S
C1103 C1105 1.415 . S
C1104 C1103 1.355 . S
C1104 C1106 1.419 1_455 S
C1105 C1100 1.425 . S
C1105 C1102 1.409 . S
C1105 C1103 1.415 . S
C1106 H1096 0.930 . S
C1106 C1104 1.419 1_655 S
C1106 C1107 1.362 . S
C1107 H1097 0.930 . S
C1107 C1100 1.409 1_655 S
C1107 C1106 1.362 . S
H1108 C1114 0.930 . S
H1109 C1117 0.930 . S
H1110 C1118 0.930 . S
H1111 C1119 0.930 . S
H1112 C1122 0.930 . S
H1113 C1123 0.930 . S
C1114 H1108 0.930 . S
C1114 C1115 1.355 1_545 S
C1114 C1116 1.415 . S
C1115 C1114 1.355 1_565 S
C1115 C1117 1.419 . S
C1116 C1114 1.415 . S
C1116 C1121 1.425 1_545 S
C1116 C1123 1.409 . S
C1117 H1109 0.930 . S
C1117 C1115 1.419 . S
C1117 C1118 1.362 . S
C1118 H1110 0.930 . S
C1118 C1117 1.362 . S
C1118 C1121 1.409 . S
C1119 H1111 0.930 . S
C1119 C1120 1.355 1_565 S
C1119 C1121 1.415 . S
C1120 C1119 1.355 1_545 S
C1120 C1122 1.419 . S
C1121 C1116 1.425 1_565 S
C1121 C1118 1.409 . S
C1121 C1119 1.415 . S
C1122 H1112 0.930 . S
C1122 C1120 1.419 . S
C1122 C1123 1.362 . S
C1123 H1113 0.930 . S
C1123 C1116 1.409 . S
C1123 C1122 1.362 . S
H1124 C1130 0.930 . S
H1125 C1133 0.930 . S
H1126 C1134 0.930 . S
H1127 C1135 0.930 . S
H1128 C1138 0.930 . S
H1129 C1139 0.930 . S
C1130 H1124 0.930 . S
C1130 C1131 1.355 1_545 S
C1130 C1132 1.415 . S
C1131 C1130 1.355 1_565 S
C1131 C1133 1.419 . S
C1132 C1130 1.415 . S
C1132 C1137 1.425 1_545 S
C1132 C1139 1.409 . S
C1133 H1125 0.930 . S
C1133 C1131 1.419 . S
C1133 C1134 1.362 . S
C1134 H1126 0.930 . S
C1134 C1133 1.362 . S
C1134 C1137 1.409 . S
C1135 H1127 0.930 . S
C1135 C1136 1.355 1_565 S
C1135 C1137 1.415 . S
C1136 C1135 1.355 1_545 S
C1136 C1138 1.419 . S
C1137 C1132 1.425 1_565 S
C1137 C1134 1.409 . S
C1137 C1135 1.415 . S
C1138 H1128 0.930 . S
C1138 C1136 1.419 . S
C1138 C1139 1.362 . S
C1139 H1129 0.930 . S
C1139 C1132 1.409 . S
C1139 C1138 1.362 . S
H1140 C1146 0.930 1_655 S
H1141 C1149 0.930 . S
H1142 C1150 0.930 . S
H1143 C1151 0.930 . S
H1144 C1154 0.930 . S
H1145 C1155 0.930 . S
C1146 H1140 0.930 1_455 S
C1146 C1147 1.355 . S
C1146 C1148 1.415 . S
C1147 C1146 1.355 . S
C1147 C1149 1.419 . S
C1148 C1146 1.415 . S
C1148 C1153 1.425 . S
C1148 C1155 1.409 1_455 S
C1149 H1141 0.930 . S
C1149 C1147 1.419 . S
C1149 C1150 1.362 . S
C1150 H1142 0.930 . S
C1150 C1149 1.362 . S
C1150 C1153 1.409 . S
C1151 H1143 0.930 . S
C1151 C1152 1.355 . S
C1151 C1153 1.415 . S
C1152 C1151 1.355 . S
C1152 C1154 1.419 1_455 S
C1153 C1148 1.425 . S
C1153 C1150 1.409 . S
C1153 C1151 1.415 . S
C1154 H1144 0.930 . S
C1154 C1152 1.419 1_655 S
C1154 C1155 1.362 . S
C1155 H1145 0.930 . S
C1155 C1148 1.409 1_655 S
C1155 C1154 1.362 . S
H1156 C1162 0.930 . S
H1157 C1165 0.930 . S
H1158 C1166 0.930 . S
H1159 C1167 0.930 . S
H1160 C1170 0.930 . S
H1161 C1171 0.930 . S
C1162 H1156 0.930 . S
C1162 C1163 1.355 1_545 S
C1162 C1164 1.415 . S
C1163 C1162 1.355 1_565 S
C1163 C1165 1.419 . S
C1164 C1162 1.415 . S
C1164 C1169 1.425 1_545 S
C1164 C1171 1.409 . S
C1165 H1157 0.930 . S
C1165 C1163 1.419 . S
C1165 C1166 1.362 . S
C1166 H1158 0.930 . S
C1166 C1165 1.362 . S
C1166 C1169 1.409 . S
C1167 H1159 0.930 . S
C1167 C1168 1.355 1_565 S
C1167 C1169 1.415 . S
C1168 C1167 1.355 1_545 S
C1168 C1170 1.419 . S
C1169 C1164 1.425 1_565 S
C1169 C1166 1.409 . S
C1169 C1167 1.415 . S
C1170 H1160 0.930 . S
C1170 C1168 1.419 . S
C1170 C1171 1.362 . S
C1171 H1161 0.930 . S
C1171 C1164 1.409 . S
C1171 C1170 1.362 . S
H1172 C1178 0.930 1_655 S
H1173 C1181 0.930 . S
H1174 C1182 0.930 . S
H1175 C1183 0.930 . S
H1176 C1186 0.940 . S
H1177 C1187 0.930 . S
C1178 H1172 0.930 1_455 S
C1178 C1179 1.355 . S
C1178 C1180 1.415 . S
C1179 C1178 1.355 . S
C1179 C1181 1.419 . S
C1180 C1178 1.415 . S
C1180 C1185 1.425 . S
C1180 C1187 1.409 1_455 S
C1181 H1173 0.930 . S
C1181 C1179 1.419 . S
C1181 C1182 1.362 . S
C1182 H1174 0.930 . S
C1182 C1181 1.362 . S
C1182 C1185 1.409 . S
C1183 H1175 0.930 . S
C1183 C1184 1.355 . S
C1183 C1185 1.415 . S
C1184 C1183 1.355 . S
C1184 C1186 1.410 1_455 S
C1185 C1180 1.425 . S
C1185 C1182 1.409 . S
C1185 C1183 1.415 . S
C1186 H1176 0.940 . S
C1186 C1184 1.410 1_655 S
C1186 C1187 1.363 . S
C1187 H1177 0.930 . S
C1187 C1180 1.409 1_655 S
C1187 C1186 1.363 . S
H1188 C1194 0.930 . S
H1189 C1197 0.930 . S
H1190 C1198 0.930 . S
H1191 C1199 0.930 . S
H1192 C1202 0.930 . S
H1193 C1203 0.930 . S
C1194 H1188 0.930 . S
C1194 C1195 1.355 . S
C1194 C1196 1.414 1_565 S
C1195 C1194 1.355 . S
C1195 C1197 1.419 . S
C1196 C1194 1.414 1_545 S
C1196 C1201 1.425 1_545 S
C1196 C1203 1.411 . S
C1197 H1189 0.930 . S
C1197 C1195 1.419 . S
C1197 C1198 1.362 . S
C1198 H1190 0.930 . S
C1198 C1197 1.362 . S
C1198 C1201 1.410 . S
C1199 H1191 0.930 . S
C1199 C1200 1.355 . S
C1199 C1201 1.414 1_545 S
C1200 C1199 1.355 . S
C1200 C1202 1.419 . S
C1201 C1196 1.425 1_565 S
C1201 C1198 1.410 . S
C1201 C1199 1.414 1_565 S
C1202 H1192 0.930 . S
C1202 C1200 1.419 . S
C1202 C1203 1.362 . S
C1203 H1193 0.930 . S
C1203 C1196 1.411 . S
C1203 C1202 1.362 . S
H1204 C1210 0.930 . S
H1205 C1213 0.930 . S
H1206 C1214 0.930 . S
H1207 C1215 0.930 . S
H1208 C1218 0.930 . S
H1209 C1219 0.930 . S
C1210 H1204 0.930 . S
C1210 C1211 1.355 . S
C1210 C1212 1.415 . S
C1211 C1210 1.355 . S
C1211 C1213 1.419 . S
C1212 C1210 1.415 . S
C1212 C1217 1.425 . S
C1212 C1219 1.409 1_455 S
C1213 H1205 0.930 . S
C1213 C1211 1.419 . S
C1213 C1214 1.362 . S
C1214 H1206 0.930 . S
C1214 C1213 1.362 . S
C1214 C1217 1.409 . S
C1215 H1207 0.930 . S
C1215 C1216 1.355 . S
C1215 C1217 1.415 . S
C1216 C1215 1.355 . S
C1216 C1218 1.419 1_455 S
C1217 C1212 1.425 . S
C1217 C1214 1.409 . S
C1217 C1215 1.415 . S
C1218 H1208 0.930 . S
C1218 C1216 1.419 1_655 S
C1218 C1219 1.362 . S
C1219 H1209 0.930 . S
C1219 C1212 1.409 1_655 S
C1219 C1218 1.362 . S
H1220 C1226 0.930 . S
H1221 C1229 0.930 . S
H1222 C1230 0.930 . S
H1223 C1231 0.930 . S
H1224 C1234 0.930 . S
H1225 C1235 0.930 . S
C1226 H1220 0.930 . S
C1226 C1227 1.355 1_565 S
C1226 C1228 1.415 . S
C1227 C1226 1.355 1_545 S
C1227 C1229 1.419 . S
C1228 C1226 1.415 . S
C1228 C1233 1.425 1_565 S
C1228 C1235 1.409 . S
C1229 H1221 0.930 . S
C1229 C1227 1.419 . S
C1229 C1230 1.362 . S
C1230 H1222 0.930 . S
C1230 C1229 1.362 . S
C1230 C1233 1.409 . S
C1231 H1223 0.930 . S
C1231 C1232 1.355 1_545 S
C1231 C1233 1.415 . S
C1232 C1231 1.355 1_565 S
C1232 C1234 1.419 . S
C1233 C1228 1.425 1_545 S
C1233 C1230 1.409 . S
C1233 C1231 1.415 . S
C1234 H1224 0.930 . S
C1234 C1232 1.419 . S
C1234 C1235 1.362 . S
C1235 H1225 0.930 . S
C1235 C1228 1.409 . S
C1235 C1234 1.362 . S
H1236 C1242 0.930 . S
H1237 C1245 0.930 . S
H1238 C1246 0.930 . S
H1239 C1247 0.930 . S
H1240 C1250 0.930 . S
H1241 C1251 0.930 . S
C1242 H1236 0.930 . S
C1242 C1243 1.355 . S
C1242 C1244 1.415 . S
C1243 C1242 1.355 . S
C1243 C1245 1.419 . S
C1244 C1242 1.415 . S
C1244 C1249 1.425 . S
C1244 C1251 1.409 . S
C1245 H1237 0.930 . S
C1245 C1243 1.419 . S
C1245 C1246 1.362 . S
C1246 H1238 0.930 . S
C1246 C1245 1.362 . S
C1246 C1249 1.409 . S
C1247 H1239 0.930 . S
C1247 C1248 1.355 . S
C1247 C1249 1.415 . S
C1248 C1247 1.355 . S
C1248 C1250 1.419 . S
C1249 C1244 1.425 . S
C1249 C1246 1.409 . S
C1249 C1247 1.415 . S
C1250 H1240 0.930 . S
C1250 C1248 1.419 . S
C1250 C1251 1.362 . S
C1251 H1241 0.930 . S
C1251 C1244 1.409 . S
C1251 C1250 1.362 . S
H1252 C1258 0.930 . S
H1253 C1261 0.930 . S
H1254 C1262 0.930 . S
H1255 C1263 0.930 . S
H1256 C1266 0.930 . S
H1257 C1267 0.930 . S
C1258 H1252 0.930 . S
C1258 C1259 1.357 . S
C1258 C1260 1.415 . S
C1259 C1258 1.357 . S
C1259 C1261 1.417 1_554 S
C1260 C1258 1.415 . S
C1260 C1265 1.425 1_554 S
C1260 C1267 1.409 . S
C1261 H1253 0.930 . S
C1261 C1259 1.417 1_556 S
C1261 C1262 1.362 . S
C1262 H1254 0.930 . S
C1262 C1261 1.362 . S
C1262 C1265 1.409 . S
C1263 H1255 0.930 . S
C1263 C1264 1.356 . S
C1263 C1265 1.415 . S
C1264 C1263 1.356 . S
C1264 C1266 1.418 1_556 S
C1265 C1260 1.425 1_556 S
C1265 C1262 1.409 . S
C1265 C1263 1.415 . S
C1266 H1256 0.930 . S
C1266 C1264 1.418 1_554 S
C1266 C1267 1.362 . S
C1267 H1257 0.930 . S
C1267 C1260 1.409 . S
C1267 C1266 1.362 . S
H1268 C1274 0.930 . S
H1269 C1277 0.930 . S
H1270 C1278 0.930 . S
H1271 C1279 0.930 . S
H1272 C1282 0.930 . S
H1273 C1283 0.930 . S
C1274 H1268 0.930 . S
C1274 C1275 1.337 1_554 S
C1274 C1276 1.415 . S
C1275 C1274 1.337 1_556 S
C1275 C1277 1.442 . S
C1276 C1274 1.415 . S
C1276 C1281 1.425 1_554 S
C1276 C1283 1.409 . S
C1277 H1269 0.930 . S
C1277 C1275 1.442 . S
C1277 C1278 1.362 . S
C1278 H1270 0.930 . S
C1278 C1277 1.362 . S
C1278 C1281 1.409 . S
C1279 H1271 0.930 . S
C1279 C1280 1.355 1_556 S
C1279 C1281 1.415 . S
C1280 C1279 1.355 1_554 S
C1280 C1282 1.419 . S
C1281 C1276 1.425 1_556 S
C1281 C1278 1.409 . S
C1281 C1279 1.415 . S
C1282 H1272 0.930 . S
C1282 C1280 1.419 . S
C1282 C1283 1.362 . S
C1283 H1273 0.930 . S
C1283 C1276 1.409 . S
C1283 C1282 1.362 . S
H1284 C1290 0.930 . S
H1285 C1293 0.930 . S
H1286 C1294 0.930 . S
H1287 C1295 0.930 . S
H1288 C1298 0.930 . S
H1289 C1299 0.930 . S
C1290 H1284 0.930 . S
C1290 C1291 1.355 1_554 S
C1290 C1292 1.415 . S
C1291 C1290 1.355 1_556 S
C1291 C1293 1.419 . S
C1292 C1290 1.415 . S
C1292 C1297 1.425 1_554 S
C1292 C1299 1.409 . S
C1293 H1285 0.930 . S
C1293 C1291 1.419 . S
C1293 C1294 1.362 . S
C1294 H1286 0.930 . S
C1294 C1293 1.362 . S
C1294 C1297 1.409 . S
C1295 H1287 0.930 . S
C1295 C1296 1.355 1_556 S
C1295 C1297 1.415 . S
C1296 C1295 1.355 1_554 S
C1296 C1298 1.419 . S
C1297 C1292 1.425 1_556 S
C1297 C1294 1.409 . S
C1297 C1295 1.415 . S
C1298 H1288 0.930 . S
C1298 C1296 1.419 . S
C1298 C1299 1.362 . S
C1299 H1289 0.930 . S
C1299 C1292 1.409 . S
C1299 C1298 1.362 . S
H1300 C1306 0.930 . S
H1301 C1309 0.930 . S
H1302 C1310 0.930 . S
H1303 C1311 0.930 . S
H1304 C1314 0.930 . S
H1305 C1315 0.930 . S
C1306 H1300 0.930 . S
C1306 C1307 1.355 1_556 S
C1306 C1308 1.415 . S
C1307 C1306 1.355 1_554 S
C1307 C1309 1.419 . S
C1308 C1306 1.415 . S
C1308 C1313 1.425 1_556 S
C1308 C1315 1.409 . S
C1309 H1301 0.930 . S
C1309 C1307 1.419 . S
C1309 C1310 1.362 . S
C1310 H1302 0.930 . S
C1310 C1309 1.362 . S
C1310 C1313 1.409 . S
C1311 H1303 0.930 . S
C1311 C1312 1.355 1_554 S
C1311 C1313 1.415 . S
C1312 C1311 1.355 1_556 S
C1312 C1314 1.419 . S
C1313 C1308 1.425 1_554 S
C1313 C1310 1.409 . S
C1313 C1311 1.415 . S
C1314 H1304 0.930 . S
C1314 C1312 1.419 . S
C1314 C1315 1.362 . S
C1315 H1305 0.930 . S
C1315 C1308 1.409 . S
C1315 C1314 1.362 . S
H1316 C1322 0.930 . S
H1317 C1325 0.930 . S
H1318 C1326 0.930 . S
H1319 C1327 0.930 . S
H1320 C1330 0.930 . S
H1321 C1331 0.930 . S
C1322 H1316 0.930 . S
C1322 C1323 1.355 . S
C1322 C1324 1.415 . S
C1323 C1322 1.355 . S
C1323 C1325 1.419 1_554 S
C1324 C1322 1.415 . S
C1324 C1329 1.425 1_554 S
C1324 C1331 1.409 . S
C1325 H1317 0.930 . S
C1325 C1323 1.419 1_556 S
C1325 C1326 1.362 . S
C1326 H1318 0.930 . S
C1326 C1325 1.362 . S
C1326 C1329 1.409 . S
C1327 H1319 0.930 . S
C1327 C1328 1.348 1_556 S
C1327 C1329 1.415 . S
C1328 C1327 1.348 1_554 S
C1328 C1330 1.428 . S
C1329 C1324 1.425 1_556 S
C1329 C1326 1.409 . S
C1329 C1327 1.415 . S
C1330 H1320 0.930 . S
C1330 C1328 1.428 . S
C1330 C1331 1.362 . S
C1331 H1321 0.930 . S
C1331 C1324 1.409 . S
C1331 C1330 1.362 . S
H1332 C1338 0.930 . S
H1333 C1341 0.930 . S
H1334 C1342 0.930 . S
H1335 C1343 0.930 . S
H1336 C1346 0.930 . S
H1337 C1347 0.930 . S
C1338 H1332 0.930 . S
C1338 C1339 1.355 1_556 S
C1338 C1340 1.415 . S
C1339 C1338 1.355 1_554 S
C1339 C1341 1.419 . S
C1340 C1338 1.415 . S
C1340 C1345 1.425 1_556 S
C1340 C1347 1.409 . S
C1341 H1333 0.930 . S
C1341 C1339 1.419 . S
C1341 C1342 1.362 . S
C1342 H1334 0.930 . S
C1342 C1341 1.362 . S
C1342 C1345 1.409 . S
C1343 H1335 0.930 . S
C1343 C1344 1.355 1_554 S
C1343 C1345 1.415 . S
C1344 C1343 1.355 1_556 S
C1344 C1346 1.419 . S
C1345 C1340 1.425 1_554 S
C1345 C1342 1.409 . S
C1345 C1343 1.415 . S
C1346 H1336 0.930 . S
C1346 C1344 1.419 . S
C1346 C1347 1.362 . S
C1347 H1337 0.930 . S
C1347 C1340 1.409 . S
C1347 C1346 1.362 . S
H1348 C1354 0.930 . S
H1349 C1357 0.930 . S
H1350 C1358 0.930 . S
H1351 C1359 0.930 . S
H1352 C1362 0.930 . S
H1353 C1363 0.930 . S
C1354 H1348 0.930 . S
C1354 C1355 1.355 1_556 S
C1354 C1356 1.415 . S
C1355 C1354 1.355 1_554 S
C1355 C1357 1.419 . S
C1356 C1354 1.415 . S
C1356 C1361 1.425 1_556 S
C1356 C1363 1.409 . S
C1357 H1349 0.930 . S
C1357 C1355 1.419 . S
C1357 C1358 1.362 . S
C1358 H1350 0.930 . S
C1358 C1357 1.362 . S
C1358 C1361 1.409 . S
C1359 H1351 0.930 . S
C1359 C1360 1.336 1_554 S
C1359 C1361 1.415 . S
C1360 C1359 1.336 1_556 S
C1360 C1362 1.443 . S
C1361 C1356 1.425 1_554 S
C1361 C1358 1.409 . S
C1361 C1359 1.415 . S
C1362 H1352 0.930 . S
C1362 C1360 1.443 . S
C1362 C1363 1.362 . S
C1363 H1353 0.930 . S
C1363 C1356 1.409 . S
C1363 C1362 1.362 . S
H1364 C1370 0.930 . S
H1365 C1373 0.930 . S
H1366 C1374 0.930 . S
H1367 C1375 0.930 . S
H1368 C1378 0.930 . S
H1369 C1379 0.930 . S
C1370 H1364 0.930 . S
C1370 C1371 1.357 . S
C1370 C1372 1.415 . S
C1371 C1370 1.357 . S
C1371 C1373 1.417 1_554 S
C1372 C1370 1.415 . S
C1372 C1377 1.425 1_554 S
C1372 C1379 1.409 . S
C1373 H1365 0.930 . S
C1373 C1371 1.417 1_556 S
C1373 C1374 1.362 . S
C1374 H1366 0.930 . S
C1374 C1373 1.362 . S
C1374 C1377 1.409 . S
C1375 H1367 0.930 . S
C1375 C1376 1.355 . S
C1375 C1377 1.415 . S
C1376 C1375 1.355 . S
C1376 C1378 1.419 1_556 S
C1377 C1372 1.425 1_556 S
C1377 C1374 1.409 . S
C1377 C1375 1.415 . S
C1378 H1368 0.930 . S
C1378 C1376 1.419 1_554 S
C1378 C1379 1.362 . S
C1379 H1369 0.930 . S
C1379 C1372 1.409 . S
C1379 C1378 1.362 . S
H1380 C1386 0.930 . S
H1381 C1389 0.930 . S
H1382 C1390 0.930 . S
H1383 C1391 0.930 . S
H1384 C1394 0.930 . S
H1385 C1395 0.930 . S
C1386 H1380 0.930 . S
C1386 C1387 1.355 . S
C1386 C1388 1.415 . S
C1387 C1386 1.355 . S
C1387 C1389 1.419 . S
C1388 C1386 1.415 . S
C1388 C1393 1.425 . S
C1388 C1395 1.409 . S
C1389 H1381 0.930 . S
C1389 C1387 1.419 . S
C1389 C1390 1.362 . S
C1390 H1382 0.930 . S
C1390 C1389 1.362 . S
C1390 C1393 1.409 . S
C1391 H1383 0.930 . S
C1391 C1392 1.355 . S
C1391 C1393 1.415 . S
C1392 C1391 1.355 . S
C1392 C1394 1.419 . S
C1393 C1388 1.425 . S
C1393 C1390 1.409 . S
C1393 C1391 1.415 . S
C1394 H1384 0.930 . S
C1394 C1392 1.419 . S
C1394 C1395 1.362 . S
C1395 H1385 0.930 . S
C1395 C1388 1.409 . S
C1395 C1394 1.362 . S
H1396 C1402 0.930 . S
H1397 C1405 0.930 . S
H1398 C1406 0.930 . S
H1399 C1407 0.930 . S
H1400 C1410 0.930 . S
H1401 C1411 0.930 . S
C1402 H1396 0.930 . S
C1402 C1403 1.355 . S
C1402 C1404 1.415 . S
C1403 C1402 1.355 . S
C1403 C1405 1.419 . S
C1404 C1402 1.415 . S
C1404 C1409 1.425 . S
C1404 C1411 1.409 . S
C1405 H1397 0.930 . S
C1405 C1403 1.419 . S
C1405 C1406 1.362 . S
C1406 H1398 0.930 . S
C1406 C1405 1.362 . S
C1406 C1409 1.409 . S
C1407 H1399 0.930 . S
C1407 C1408 1.355 . S
C1407 C1409 1.415 . S
C1408 C1407 1.355 . S
C1408 C1410 1.419 . S
C1409 C1404 1.425 . S
C1409 C1406 1.409 . S
C1409 C1407 1.415 . S
C1410 H1400 0.930 . S
C1410 C1408 1.419 . S
C1410 C1411 1.362 . S
C1411 H1401 0.930 . S
C1411 C1404 1.409 . S
C1411 C1410 1.362 . S
H1412 C1418 0.930 . S
H1413 C1421 0.930 . S
H1414 C1422 0.930 . S
H1415 C1423 0.930 . S
H1416 C1426 0.930 . S
H1417 C1427 0.930 . S
C1418 H1412 0.930 . S
C1418 C1419 1.355 . S
C1418 C1420 1.415 . S
C1419 C1418 1.355 . S
C1419 C1421 1.419 . S
C1420 C1418 1.415 . S
C1420 C1425 1.425 . S
C1420 C1427 1.409 . S
C1421 H1413 0.930 . S
C1421 C1419 1.419 . S
C1421 C1422 1.362 . S
C1422 H1414 0.930 . S
C1422 C1421 1.362 . S
C1422 C1425 1.409 . S
C1423 H1415 0.930 . S
C1423 C1424 1.355 . S
C1423 C1425 1.415 . S
C1424 C1423 1.355 . S
C1424 C1426 1.419 . S
C1425 C1420 1.425 . S
C1425 C1422 1.409 . S
C1425 C1423 1.415 . S
C1426 H1416 0.930 . S
C1426 C1424 1.419 . S
C1426 C1427 1.362 . S
C1427 H1417 0.930 . S
C1427 C1420 1.409 . S
C1427 C1426 1.362 . S
H1428 C1434 0.930 . S
H1429 C1437 0.930 . S
H1430 C1438 0.930 . S
H1431 C1439 0.930 . S
H1432 C1442 0.930 . S
H1433 C1443 0.930 . S
C1434 H1428 0.930 . S
C1434 C1435 1.355 . S
C1434 C1436 1.415 . S
C1435 C1434 1.355 . S
C1435 C1437 1.419 . S
C1436 C1434 1.415 . S
C1436 C1441 1.425 . S
C1436 C1443 1.409 . S
C1437 H1429 0.930 . S
C1437 C1435 1.419 . S
C1437 C1438 1.362 . S
C1438 H1430 0.930 . S
C1438 C1437 1.362 . S
C1438 C1441 1.409 . S
C1439 H1431 0.930 . S
C1439 C1440 1.355 . S
C1439 C1441 1.415 . S
C1440 C1439 1.355 . S
C1440 C1442 1.419 . S
C1441 C1436 1.425 . S
C1441 C1438 1.409 . S
C1441 C1439 1.415 . S
C1442 H1432 0.930 . S
C1442 C1440 1.419 . S
C1442 C1443 1.362 . S
C1443 H1433 0.930 . S
C1443 C1436 1.409 . S
C1443 C1442 1.362 . S
H1444 C1450 0.930 . S
H1445 C1453 0.930 . S
H1446 C1454 0.930 . S
H1447 C1455 0.930 . S
H1448 C1458 0.930 . S
H1449 C1459 0.930 . S
C1450 H1444 0.930 . S
C1450 C1451 1.355 . S
C1450 C1452 1.415 . S
C1451 C1450 1.355 . S
C1451 C1453 1.419 . S
C1452 C1450 1.415 . S
C1452 C1457 1.425 . S
C1452 C1459 1.409 . S
C1453 H1445 0.930 . S
C1453 C1451 1.419 . S
C1453 C1454 1.362 . S
C1454 H1446 0.930 . S
C1454 C1453 1.362 . S
C1454 C1457 1.409 . S
C1455 H1447 0.930 . S
C1455 C1456 1.355 . S
C1455 C1457 1.415 . S
C1456 C1455 1.355 . S
C1456 C1458 1.419 . S
C1457 C1452 1.425 . S
C1457 C1454 1.409 . S
C1457 C1455 1.415 . S
C1458 H1448 0.930 . S
C1458 C1456 1.419 . S
C1458 C1459 1.362 . S
C1459 H1449 0.930 . S
C1459 C1452 1.409 . S
C1459 C1458 1.362 . S
H1460 C1466 0.930 . S
H1461 C1469 0.930 . S
H1462 C1470 0.930 . S
H1463 C1471 0.930 . S
H1464 C1474 0.930 . S
H1465 C1475 0.930 . S
C1466 H1460 0.930 . S
C1466 C1467 1.355 . S
C1466 C1468 1.415 . S
C1467 C1466 1.355 . S
C1467 C1469 1.419 . S
C1468 C1466 1.415 . S
C1468 C1473 1.425 . S
C1468 C1475 1.409 . S
C1469 H1461 0.930 . S
C1469 C1467 1.419 . S
C1469 C1470 1.362 . S
C1470 H1462 0.930 . S
C1470 C1469 1.362 . S
C1470 C1473 1.409 . S
C1471 H1463 0.930 . S
C1471 C1472 1.355 . S
C1471 C1473 1.415 . S
C1472 C1471 1.355 . S
C1472 C1474 1.419 . S
C1473 C1468 1.425 . S
C1473 C1470 1.409 . S
C1473 C1471 1.415 . S
C1474 H1464 0.930 . S
C1474 C1472 1.419 . S
C1474 C1475 1.362 . S
C1475 H1465 0.930 . S
C1475 C1468 1.409 . S
C1475 C1474 1.362 . S
H1476 C1482 0.930 . S
H1477 C1485 0.930 . S
H1478 C1486 0.930 . S
H1479 C1487 0.930 . S
H1480 C1490 0.930 . S
H1481 C1491 0.930 . S
C1482 H1476 0.930 . S
C1482 C1483 1.355 . S
C1482 C1484 1.415 . S
C1483 C1482 1.355 . S
C1483 C1485 1.419 . S
C1484 C1482 1.415 . S
C1484 C1489 1.425 . S
C1484 C1491 1.409 . S
C1485 H1477 0.930 . S
C1485 C1483 1.419 . S
C1485 C1486 1.362 . S
C1486 H1478 0.930 . S
C1486 C1485 1.362 . S
C1486 C1489 1.409 . S
C1487 H1479 0.930 . S
C1487 C1488 1.355 . S
C1487 C1489 1.415 . S
C1488 C1487 1.355 . S
C1488 C1490 1.419 . S
C1489 C1484 1.425 . S
C1489 C1486 1.409 . S
C1489 C1487 1.415 . S
C1490 H1480 0.930 . S
C1490 C1488 1.419 . S
C1490 C1491 1.362 . S
C1491 H1481 0.930 . S
C1491 C1484 1.409 . S
C1491 C1490 1.362 . S
H1492 C1498 0.930 . S
H1493 C1501 0.930 . S
H1494 C1502 0.930 . S
H1495 C1503 0.930 . S
H1496 C1506 0.930 . S
H1497 C1507 0.930 . S
C1498 H1492 0.930 . S
C1498 C1499 1.355 . S
C1498 C1500 1.415 . S
C1499 C1498 1.355 . S
C1499 C1501 1.419 . S
C1500 C1498 1.415 . S
C1500 C1505 1.425 . S
C1500 C1507 1.409 . S
C1501 H1493 0.930 . S
C1501 C1499 1.419 . S
C1501 C1502 1.362 . S
C1502 H1494 0.930 . S
C1502 C1501 1.362 . S
C1502 C1505 1.409 . S
C1503 H1495 0.930 . S
C1503 C1504 1.355 . S
C1503 C1505 1.415 . S
C1504 C1503 1.355 . S
C1504 C1506 1.419 . S
C1505 C1500 1.425 . S
C1505 C1502 1.409 . S
C1505 C1503 1.415 . S
C1506 H1496 0.930 . S
C1506 C1504 1.419 . S
C1506 C1507 1.362 . S
C1507 H1497 0.930 . S
C1507 C1500 1.409 . S
C1507 C1506 1.362 . S
H1508 C1514 0.930 . S
H1509 C1517 0.930 . S
H1510 C1518 0.930 . S
H1511 C1519 0.930 . S
H1512 C1522 0.930 . S
H1513 C1523 0.930 . S
C1514 H1508 0.930 . S
C1514 C1515 1.355 . S
C1514 C1516 1.415 . S
C1515 C1514 1.355 . S
C1515 C1517 1.419 . S
C1516 C1514 1.415 . S
C1516 C1521 1.425 . S
C1516 C1523 1.409 . S
C1517 H1509 0.930 . S
C1517 C1515 1.419 . S
C1517 C1518 1.362 . S
C1518 H1510 0.930 . S
C1518 C1517 1.362 . S
C1518 C1521 1.409 . S
C1519 H1511 0.930 . S
C1519 C1520 1.355 . S
C1519 C1521 1.415 . S
C1520 C1519 1.355 . S
C1520 C1522 1.419 . S
C1521 C1516 1.425 . S
C1521 C1518 1.409 . S
C1521 C1519 1.415 . S
C1522 H1512 0.930 . S
C1522 C1520 1.419 . S
C1522 C1523 1.362 . S
C1523 H1513 0.930 . S
C1523 C1516 1.409 . S
C1523 C1522 1.362 . S
H1524 C1530 0.930 . S
H1525 C1533 0.930 . S
H1526 C1534 0.930 . S
H1527 C1535 0.930 . S
H1528 C1538 0.930 . S
H1529 C1539 0.930 . S
C1530 H1524 0.930 . S
C1530 C1531 1.355 . S
C1530 C1532 1.415 . S
C1531 C1530 1.355 . S
C1531 C1533 1.419 . S
C1532 C1530 1.415 . S
C1532 C1537 1.425 . S
C1532 C1539 1.409 . S
C1533 H1525 0.930 . S
C1533 C1531 1.419 . S
C1533 C1534 1.362 . S
C1534 H1526 0.930 . S
C1534 C1533 1.362 . S
C1534 C1537 1.409 . S
C1535 H1527 0.930 . S
C1535 C1536 1.355 . S
C1535 C1537 1.415 . S
C1536 C1535 1.355 . S
C1536 C1538 1.419 . S
C1537 C1532 1.425 . S
C1537 C1534 1.409 . S
C1537 C1535 1.415 . S
C1538 H1528 0.930 . S
C1538 C1536 1.419 . S
C1538 C1539 1.362 . S
C1539 H1529 0.930 . S
C1539 C1532 1.409 . S
C1539 C1538 1.362 . S
H1540 C1546 0.930 . S
H1541 C1549 0.930 . S
H1542 C1550 0.930 . S
H1543 C1551 0.930 . S
H1544 C1554 0.930 . S
H1545 C1555 0.930 . S
C1546 H1540 0.930 . S
C1546 C1547 1.355 . S
C1546 C1548 1.415 . S
C1547 C1546 1.355 . S
C1547 C1549 1.419 . S
C1548 C1546 1.415 . S
C1548 C1553 1.425 . S
C1548 C1555 1.409 . S
C1549 H1541 0.930 . S
C1549 C1547 1.419 . S
C1549 C1550 1.362 . S
C1550 H1542 0.930 . S
C1550 C1549 1.362 . S
C1550 C1553 1.409 . S
C1551 H1543 0.930 . S
C1551 C1552 1.355 . S
C1551 C1553 1.415 . S
C1552 C1551 1.355 . S
C1552 C1554 1.419 . S
C1553 C1548 1.425 . S
C1553 C1550 1.409 . S
C1553 C1551 1.415 . S
C1554 H1544 0.930 . S
C1554 C1552 1.419 . S
C1554 C1555 1.362 . S
C1555 H1545 0.930 . S
C1555 C1548 1.409 . S
C1555 C1554 1.362 . S
H1556 C1562 0.930 . S
H1557 C1565 0.930 . S
H1558 C1566 0.930 . S
H1559 C1567 0.930 . S
H1560 C1570 0.930 . S
H1561 C1571 0.930 . S
C1562 H1556 0.930 . S
C1562 C1563 1.355 . S
C1562 C1564 1.415 . S
C1563 C1562 1.355 . S
C1563 C1565 1.419 . S
C1564 C1562 1.415 . S
C1564 C1569 1.425 . S
C1564 C1571 1.409 . S
C1565 H1557 0.930 . S
C1565 C1563 1.419 . S
C1565 C1566 1.362 . S
C1566 H1558 0.930 . S
C1566 C1565 1.362 . S
C1566 C1569 1.409 . S
C1567 H1559 0.930 . S
C1567 C1568 1.355 . S
C1567 C1569 1.415 . S
C1568 C1567 1.355 . S
C1568 C1570 1.419 . S
C1569 C1564 1.425 . S
C1569 C1566 1.409 . S
C1569 C1567 1.415 . S
C1570 H1560 0.930 . S
C1570 C1568 1.419 . S
C1570 C1571 1.362 . S
C1571 H1561 0.930 . S
C1571 C1564 1.409 . S
C1571 C1570 1.362 . S
H1572 C1578 0.930 . S
H1573 C1581 0.930 . S
H1574 C1582 0.930 . S
H1575 C1583 0.930 . S
H1576 C1586 0.930 . S
H1577 C1587 0.930 . S
C1578 H1572 0.930 . S
C1578 C1579 1.355 . S
C1578 C1580 1.415 . S
C1579 C1578 1.355 . S
C1579 C1581 1.419 . S
C1580 C1578 1.415 . S
C1580 C1585 1.425 . S
C1580 C1587 1.409 . S
C1581 H1573 0.930 . S
C1581 C1579 1.419 . S
C1581 C1582 1.362 . S
C1582 H1574 0.930 . S
C1582 C1581 1.362 . S
C1582 C1585 1.409 . S
C1583 H1575 0.930 . S
C1583 C1584 1.355 . S
C1583 C1585 1.415 . S
C1584 C1583 1.355 . S
C1584 C1586 1.419 . S
C1585 C1580 1.425 . S
C1585 C1582 1.409 . S
C1585 C1583 1.415 . S
C1586 H1576 0.930 . S
C1586 C1584 1.419 . S
C1586 C1587 1.362 . S
C1587 H1577 0.930 . S
C1587 C1580 1.409 . S
C1587 C1586 1.362 . S
H1588 C1594 0.930 . S
H1589 C1597 0.930 . S
H1590 C1598 0.930 . S
H1591 C1599 0.930 . S
H1592 C1602 0.930 . S
H1593 C1603 0.930 . S
C1594 H1588 0.930 . S
C1594 C1595 1.355 . S
C1594 C1596 1.415 . S
C1595 C1594 1.355 . S
C1595 C1597 1.419 . S
C1596 C1594 1.415 . S
C1596 C1601 1.425 . S
C1596 C1603 1.409 . S
C1597 H1589 0.930 . S
C1597 C1595 1.419 . S
C1597 C1598 1.362 . S
C1598 H1590 0.930 . S
C1598 C1597 1.362 . S
C1598 C1601 1.409 . S
C1599 H1591 0.930 . S
C1599 C1600 1.355 . S
C1599 C1601 1.415 . S
C1600 C1599 1.355 . S
C1600 C1602 1.419 . S
C1601 C1596 1.425 . S
C1601 C1598 1.409 . S
C1601 C1599 1.415 . S
C1602 H1592 0.930 . S
C1602 C1600 1.419 . S
C1602 C1603 1.362 . S
C1603 H1593 0.930 . S
C1603 C1596 1.409 . S
C1603 C1602 1.362 . S
H1604 C1610 0.930 . S
H1605 C1613 0.930 . S
H1606 C1614 0.930 . S
H1607 C1615 0.930 . S
H1608 C1618 0.930 . S
H1609 C1619 0.930 . S
C1610 H1604 0.930 . S
C1610 C1611 1.355 . S
C1610 C1612 1.415 . S
C1611 C1610 1.355 . S
C1611 C1613 1.419 . S
C1612 C1610 1.415 . S
C1612 C1617 1.425 . S
C1612 C1619 1.409 . S
C1613 H1605 0.930 . S
C1613 C1611 1.419 . S
C1613 C1614 1.362 . S
C1614 H1606 0.930 . S
C1614 C1613 1.362 . S
C1614 C1617 1.409 . S
C1615 H1607 0.930 . S
C1615 C1616 1.355 . S
C1615 C1617 1.415 . S
C1616 C1615 1.355 . S
C1616 C1618 1.419 . S
C1617 C1612 1.425 . S
C1617 C1614 1.409 . S
C1617 C1615 1.415 . S
C1618 H1608 0.930 . S
C1618 C1616 1.419 . S
C1618 C1619 1.362 . S
C1619 H1609 0.930 . S
C1619 C1612 1.409 . S
C1619 C1618 1.362 . S
H1620 C1626 0.930 . S
H1621 C1629 0.930 . S
H1622 C1630 0.930 . S
H1623 C1631 0.930 . S
H1624 C1634 0.930 . S
H1625 C1635 0.930 . S
C1626 H1620 0.930 . S
C1626 C1627 1.355 . S
C1626 C1628 1.415 . S
C1627 C1626 1.355 . S
C1627 C1629 1.419 . S
C1628 C1626 1.415 . S
C1628 C1633 1.425 . S
C1628 C1635 1.409 . S
C1629 H1621 0.930 . S
C1629 C1627 1.419 . S
C1629 C1630 1.362 . S
C1630 H1622 0.930 . S
C1630 C1629 1.362 . S
C1630 C1633 1.409 . S
C1631 H1623 0.930 . S
C1631 C1632 1.355 . S
C1631 C1633 1.415 . S
C1632 C1631 1.355 . S
C1632 C1634 1.419 . S
C1633 C1628 1.425 . S
C1633 C1630 1.409 . S
C1633 C1631 1.415 . S
C1634 H1624 0.930 . S
C1634 C1632 1.419 . S
C1634 C1635 1.362 . S
C1635 H1625 0.930 . S
C1635 C1628 1.409 . S
C1635 C1634 1.362 . S
H1636 C1642 0.930 . S
H1637 C1645 0.930 . S
H1638 C1646 0.930 . S
H1639 C1647 0.930 . S
H1640 C1650 0.930 . S
H1641 C1651 0.930 . S
C1642 H1636 0.930 . S
C1642 C1643 1.355 . S
C1642 C1644 1.415 . S
C1643 C1642 1.355 . S
C1643 C1645 1.419 . S
C1644 C1642 1.415 . S
C1644 C1649 1.425 . S
C1644 C1651 1.409 . S
C1645 H1637 0.930 . S
C1645 C1643 1.419 . S
C1645 C1646 1.362 . S
C1646 H1638 0.930 . S
C1646 C1645 1.362 . S
C1646 C1649 1.409 . S
C1647 H1639 0.930 . S
C1647 C1648 1.355 . S
C1647 C1649 1.415 . S
C1648 C1647 1.355 . S
C1648 C1650 1.419 . S
C1649 C1644 1.425 . S
C1649 C1646 1.409 . S
C1649 C1647 1.415 . S
C1650 H1640 0.930 . S
C1650 C1648 1.419 . S
C1650 C1651 1.362 . S
C1651 H1641 0.930 . S
C1651 C1644 1.409 . S
C1651 C1650 1.362 . S
H1652 C1658 0.930 . S
H1653 C1661 0.930 . S
H1654 C1662 0.930 . S
H1655 C1663 0.930 . S
H1656 C1666 0.930 . S
H1657 C1667 0.930 . S
C1658 H1652 0.930 . S
C1658 C1659 1.355 . S
C1658 C1660 1.415 . S
C1659 C1658 1.355 . S
C1659 C1661 1.419 . S
C1660 C1658 1.415 . S
C1660 C1665 1.425 . S
C1660 C1667 1.409 . S
C1661 H1653 0.930 . S
C1661 C1659 1.419 . S
C1661 C1662 1.362 . S
C1662 H1654 0.930 . S
C1662 C1661 1.362 . S
C1662 C1665 1.409 . S
C1663 H1655 0.930 . S
C1663 C1664 1.355 . S
C1663 C1665 1.415 . S
C1664 C1663 1.355 . S
C1664 C1666 1.419 . S
C1665 C1660 1.425 . S
C1665 C1662 1.409 . S
C1665 C1663 1.415 . S
C1666 H1656 0.930 . S
C1666 C1664 1.419 . S
C1666 C1667 1.362 . S
C1667 H1657 0.930 . S
C1667 C1660 1.409 . S
C1667 C1666 1.362 . S
H1668 C1674 0.930 . S
H1669 C1677 0.930 . S
H1670 C1678 0.930 . S
H1671 C1679 0.930 . S
H1672 C1682 0.930 . S
H1673 C1683 0.930 . S
C1674 H1668 0.930 . S
C1674 C1675 1.355 . S
C1674 C1676 1.415 . S
C1675 C1674 1.355 . S
C1675 C1677 1.419 . S
C1676 C1674 1.415 . S
C1676 C1681 1.425 . S
C1676 C1683 1.409 . S
C1677 H1669 0.930 . S
C1677 C1675 1.419 . S
C1677 C1678 1.362 . S
C1678 H1670 0.930 . S
C1678 C1677 1.362 . S
C1678 C1681 1.409 . S
C1679 H1671 0.930 . S
C1679 C1680 1.355 . S
C1679 C1681 1.415 . S
C1680 C1679 1.355 . S
C1680 C1682 1.419 . S
C1681 C1676 1.425 . S
C1681 C1678 1.409 . S
C1681 C1679 1.415 . S
C1682 H1672 0.930 . S
C1682 C1680 1.419 . S
C1682 C1683 1.362 . S
C1683 H1673 0.930 . S
C1683 C1676 1.409 . S
C1683 C1682 1.362 . S
H1684 C1690 0.930 . S
H1685 C1693 0.930 . S
H1686 C1694 0.930 . S
H1687 C1695 0.930 . S
H1688 C1698 0.930 . S
H1689 C1699 0.930 . S
C1690 H1684 0.930 . S
C1690 C1691 1.355 . S
C1690 C1692 1.415 . S
C1691 C1690 1.355 . S
C1691 C1693 1.419 . S
C1692 C1690 1.415 . S
C1692 C1697 1.425 . S
C1692 C1699 1.409 . S
C1693 H1685 0.930 . S
C1693 C1691 1.419 . S
C1693 C1694 1.362 . S
C1694 H1686 0.930 . S
C1694 C1693 1.362 . S
C1694 C1697 1.409 . S
C1695 H1687 0.930 . S
C1695 C1696 1.355 . S
C1695 C1697 1.415 . S
C1696 C1695 1.355 . S
C1696 C1698 1.419 . S
C1697 C1692 1.425 . S
C1697 C1694 1.409 . S
C1697 C1695 1.415 . S
C1698 H1688 0.930 . S
C1698 C1696 1.419 . S
C1698 C1699 1.362 . S
C1699 H1689 0.930 . S
C1699 C1692 1.409 . S
C1699 C1698 1.362 . S
H1700 C1706 0.930 . S
H1701 C1709 0.930 . S
H1702 C1710 0.930 . S
H1703 C1711 0.930 . S
H1704 C1714 0.930 . S
H1705 C1715 0.930 . S
C1706 H1700 0.930 . S
C1706 C1707 1.355 . S
C1706 C1708 1.415 . S
C1707 C1706 1.355 . S
C1707 C1709 1.419 . S
C1708 C1706 1.415 . S
C1708 C1713 1.425 . S
C1708 C1715 1.409 . S
C1709 H1701 0.930 . S
C1709 C1707 1.419 . S
C1709 C1710 1.362 . S
C1710 H1702 0.930 . S
C1710 C1709 1.362 . S
C1710 C1713 1.409 . S
C1711 H1703 0.930 . S
C1711 C1712 1.355 . S
C1711 C1713 1.415 . S
C1712 C1711 1.355 . S
C1712 C1714 1.419 . S
C1713 C1708 1.425 . S
C1713 C1710 1.409 . S
C1713 C1711 1.415 . S
C1714 H1704 0.930 . S
C1714 C1712 1.419 . S
C1714 C1715 1.362 . S
C1715 H1705 0.930 . S
C1715 C1708 1.409 . S
C1715 C1714 1.362 . S
H1716 C1722 0.930 . S
H1717 C1725 0.930 . S
H1718 C1726 0.930 . S
H1719 C1727 0.930 . S
H1720 C1730 0.930 . S
H1721 C1731 0.930 . S
C1722 H1716 0.930 . S
C1722 C1723 1.355 . S
C1722 C1724 1.415 . S
C1723 C1722 1.355 . S
C1723 C1725 1.419 . S
C1724 C1722 1.415 . S
C1724 C1729 1.425 . S
C1724 C1731 1.409 . S
C1725 H1717 0.930 . S
C1725 C1723 1.419 . S
C1725 C1726 1.362 . S
C1726 H1718 0.930 . S
C1726 C1725 1.362 . S
C1726 C1729 1.409 . S
C1727 H1719 0.930 . S
C1727 C1728 1.355 . S
C1727 C1729 1.415 . S
C1728 C1727 1.355 . S
C1728 C1730 1.419 . S
C1729 C1724 1.425 . S
C1729 C1726 1.409 . S
C1729 C1727 1.415 . S
C1730 H1720 0.930 . S
C1730 C1728 1.419 . S
C1730 C1731 1.362 . S
C1731 H1721 0.930 . S
C1731 C1724 1.409 . S
C1731 C1730 1.362 . S
H1732 C1738 0.930 . S
H1733 C1741 0.930 . S
H1734 C1742 0.930 . S
H1735 C1743 0.930 . S
H1736 C1746 0.930 . S
H1737 C1747 0.930 . S
C1738 H1732 0.930 . S
C1738 C1739 1.355 . S
C1738 C1740 1.415 . S
C1739 C1738 1.355 . S
C1739 C1741 1.419 . S
C1740 C1738 1.415 . S
C1740 C1745 1.425 . S
C1740 C1747 1.409 . S
C1741 H1733 0.930 . S
C1741 C1739 1.419 . S
C1741 C1742 1.362 . S
C1742 H1734 0.930 . S
C1742 C1741 1.362 . S
C1742 C1745 1.409 . S
C1743 H1735 0.930 . S
C1743 C1744 1.355 . S
C1743 C1745 1.415 . S
C1744 C1743 1.355 . S
C1744 C1746 1.419 . S
C1745 C1740 1.425 . S
C1745 C1742 1.409 . S
C1745 C1743 1.415 . S
C1746 H1736 0.930 . S
C1746 C1744 1.419 . S
C1746 C1747 1.362 . S
C1747 H1737 0.930 . S
C1747 C1740 1.409 . S
C1747 C1746 1.362 . S
H1748 C1754 0.930 . S
H1749 C1757 0.930 . S
H1750 C1758 0.930 . S
H1751 C1759 0.930 . S
H1752 C1762 0.930 . S
H1753 C1763 0.930 . S
C1754 H1748 0.930 . S
C1754 C1755 1.355 . S
C1754 C1756 1.415 . S
C1755 C1754 1.355 . S
C1755 C1757 1.419 . S
C1756 C1754 1.415 . S
C1756 C1761 1.425 . S
C1756 C1763 1.409 . S
C1757 H1749 0.930 . S
C1757 C1755 1.419 . S
C1757 C1758 1.362 . S
C1758 H1750 0.930 . S
C1758 C1757 1.362 . S
C1758 C1761 1.409 . S
C1759 H1751 0.930 . S
C1759 C1760 1.355 . S
C1759 C1761 1.415 . S
C1760 C1759 1.355 . S
C1760 C1762 1.419 . S
C1761 C1756 1.425 . S
C1761 C1758 1.409 . S
C1761 C1759 1.415 . S
C1762 H1752 0.930 . S
C1762 C1760 1.419 . S
C1762 C1763 1.362 . S
C1763 H1753 0.930 . S
C1763 C1756 1.409 . S
C1763 C1762 1.362 . S
C624 C318 1.341 . S
C619 N300 1.292 . S
C635 N278 1.499 . S
C640 C316 1.521 . S
C656 C317 1.520 . S
C651 N265 1.507 . S
C667 N287 1.276 . S
C672 C319 1.339 . S
C688 C363 1.352 . S
C683 N213 1.320 . S
C704 C423 1.299 . S
C699 N226 1.242 . S
C715 N239 1.288 . S
C720 C362 1.353 . S
C736 C422 1.479 . S
C731 N252 1.471 . S
C747 N161 1.295 . S
C752 C364 1.349 . S
C768 C420 1.479 . S
C763 N174 1.478 . S
C779 N187 1.299 . S
C784 C365 1.355 . S
C795 N200 1.232 . S
C800 C421 1.297 . S
C816 C471 1.339 1_556 S
C811 N144 1.277 . S
C827 N122 1.517 . S
C832 C470 1.520 . S
C843 N109 1.463 1_556 S
C848 C472 1.521 . S
C864 C473 1.343 1_556 S
C859 N131 1.340 1_554 S
C875 N57 1.350 . S
C880 C514 1.355 . S
C891 N70 1.275 . S
C896 C573 1.301 1_565 S
C907 N83 1.288 . S
C912 C512 1.353 . S
C923 N96 1.475 1_545 S
C928 C572 1.478 1_565 S
C944 C513 1.348 . S
C939 N5 1.284 . S
C960 C570 1.481 . S
C955 N18 1.424 . S
C971 N31 1.285 . S
C976 C515 1.352 . S
C992 C571 1.303 . S
C987 N44 1.251 1_565 S
C1008 C315 1.328 . S
C1003 N2 1.239 . S
C1019 N15 1.511 . S
C1024 C321 1.534 1_565 S
C1035 N27 1.597 . S
C1040 C313 1.609 . S
C1051 N41 1.241 . S
C1056 C320 1.339 . S
C1067 N54 1.236 . S
C1072 C312 1.328 . S
C1088 C322 1.354 . S
C1083 N67 1.322 1_565 S
C1099 N79 1.607 . S
C1104 C314 1.607 . S
C1120 C323 1.536 . S
C1115 N93 1.509 . S
C1136 C369 1.581 . S
C1131 N40 1.564 . S
C1147 N1 1.536 . S
C1152 C412 1.551 . S
C1168 C367 1.608 . S
C1163 N14 1.608 1_565 S
C1184 C414 1.277 . S
C1179 N28 1.179 . S
C1195 N66 1.584 1_565 S
C1200 C368 1.582 . S
C1216 C413 1.301 . S
C1211 N80 1.266 . S
C1232 C366 1.604 1_565 S
C1227 N92 1.607 1_545 S
C1248 C415 1.550 . S
C1243 N53 1.556 . S
C1264 C419 1.556 1_556 S
C1259 N106 1.537 . S
C1275 N119 1.476 1_556 S
C1280 C418 1.556 . S
C1296 C370 1.753 . S
C1291 N105 1.757 1_556 S
C1312 C417 1.685 1_556 S
C1307 N135 1.681 1_554 S
C1323 N145 1.276 . S
C1328 C373 1.390 . S
C1339 N148 1.686 . S
C1344 C416 1.685 1_556 S
C1360 C372 1.752 1_556 S
C1355 N118 1.745 1_554 S
C1376 C371 1.408 1_556 S
C1371 N132 1.370 1_554 S
C1392 C465 1.328 . S
C1387 N158 1.258 . S
C1408 C468 1.535 . S
C1403 N171 1.465 . S
C1419 N183 1.596 . S
C1424 C464 1.608 . S
C1440 C466 1.352 . S
C1435 N197 1.312 . S
C1456 C462 1.327 . S
C1451 N210 1.247 . S
C1467 N223 1.332 . S
C1472 C467 1.355 . S
C1483 N235 1.613 . S
C1488 C463 1.609 . S
C1504 C469 1.535 . S
C1499 N249 1.512 . S
C1520 C523 1.582 . S
C1515 N196 1.584 . S
C1531 N157 1.538 . S
C1536 C562 1.548 . S
C1552 C522 1.605 . S
C1547 N170 1.608 . S
C1568 C564 1.289 . S
C1563 N184 1.213 . S
C1584 C521 1.576 . S
C1579 N222 1.563 . S
C1595 N236 1.258 . S
C1600 C563 1.299 . S
C1616 C520 1.602 . S
C1611 N248 1.595 . S
C1632 C565 1.550 . S
C1627 N209 1.556 . S
C1648 C569 1.555 . S
C1643 N262 1.474 . S
C1659 N275 1.536 . S
C1664 C568 1.557 . S
C1680 C516 1.752 . S
C1675 N261 1.754 . S
C1691 N291 1.691 . S
C1696 C567 1.687 . S
C1712 C519 1.395 . S
C1707 N301 1.305 . S
C1728 C566 1.687 . S
C1723 N304 1.689 . S
C1744 C517 1.753 . S
C1739 N274 1.746 . S
C1755 N288 1.289 . S
C1760 C518 1.393 . S
