# Generated by pormake.
# Topology pyr, (3,6)-cn, num edge types: 1
# Building blocks:
#     Node 0, Type 0, BuildingBlock: MIDCAF_clean_linker_0, # of connection points: 3
#     Node 1, Type 0, BuildingBlock: MIDCAF_clean_linker_0, # of connection points: 3
#     Node 2, Type 0, BuildingBlock: MIDCAF_clean_linker_0, # of connection points: 3
#     Node 3, Type 0, BuildingBlock: MIDCAF_clean_linker_0, # of connection points: 3
#     Node 4, Type 0, BuildingBlock: MIDCAF_clean_linker_0, # of connection points: 3
#     Node 5, Type 0, BuildingBlock: MIDCAF_clean_linker_0, # of connection points: 3
#     Node 6, Type 0, BuildingBlock: MIDCAF_clean_linker_0, # of connection points: 3
#     Node 7, Type 0, BuildingBlock: MIDCAF_clean_linker_0, # of connection points: 3
#     Node 8, Type 1, BuildingBlock: BETGAK_clean_sbu_0, # of connection points: 6
#     Node 9, Type 1, BuildingBlock: BETGAK_clean_sbu_0, # of connection points: 6
#     Node 10, Type 1, BuildingBlock: BETGAK_clean_sbu_0, # of connection points: 6
#     Node 11, Type 1, BuildingBlock: BETGAK_clean_sbu_0, # of connection points: 6
#     Edge 12, Type (0, 1), None
#     Edge 13, Type (0, 1), None
#     Edge 14, Type (0, 1), None
#     Edge 15, Type (0, 1), None
#     Edge 16, Type (0, 1), None
#     Edge 17, Type (0, 1), None
#     Edge 18, Type (0, 1), None
#     Edge 19, Type (0, 1), None
#     Edge 20, Type (0, 1), None
#     Edge 21, Type (0, 1), None
#     Edge 22, Type (0, 1), None
#     Edge 23, Type (0, 1), None
#     Edge 24, Type (0, 1), None
#     Edge 25, Type (0, 1), None
#     Edge 26, Type (0, 1), None
#     Edge 27, Type (0, 1), None
#     Edge 28, Type (0, 1), None
#     Edge 29, Type (0, 1), None
#     Edge 30, Type (0, 1), None
#     Edge 31, Type (0, 1), None
#     Edge 32, Type (0, 1), None
#     Edge 33, Type (0, 1), None
#     Edge 34, Type (0, 1), None
#     Edge 35, Type (0, 1), None
# Relax obj value: 0.234
# Max RMSD: 0.159
# Mean RMSD: 0.077
data_MOF--net-pyr--node1-BETGAK_clean_sbu_0--node2-MIDCAF_clean_linker_0--edge1-none
_symmetry_space_group_name_H-M    P1
_symmetry_Int_Tables_number       1
_symmetry_cell_setting            triclinic
loop_
_symmetry_equiv_pos_as_xyz
'x, y, z'
_cell_length_a     25.607455
_cell_length_b     26.055279
_cell_length_c     22.567163
_cell_angle_alpha  89.290993
_cell_angle_beta   86.659844
_cell_angle_gamma 103.90908
loop_
_atom_site_label
_atom_site_type_symbol
_atom_site_fract_x
_atom_site_fract_y
_atom_site_fract_z
_atom_type_partial_charge
C0 C 0.35541 0.35207 0.54403 0.0
C1 C 0.36426 0.3016 0.55469 0.0
C2 C 0.41614 0.29411 0.5402 0.0
C3 C 0.45207 0.33006 0.50164 0.0
H4 H 0.55509 0.31197 0.34036 0.0
H5 H 0.57466 0.23392 0.29197 0.0
H6 H 0.44374 0.22889 0.17847 0.0
H7 H 0.42549 0.30707 0.22448 0.0
H8 H 0.3761 0.40467 0.21656 0.0
H9 H 0.29102 0.41987 0.18626 0.0
H10 H 0.26665 0.4894 0.35505 0.0
H11 H 0.35156 0.47478 0.38561 0.0
H12 H 0.38038 0.42396 0.49289 0.0
H13 H 0.31713 0.36087 0.55657 0.0
H14 H 0.42603 0.25719 0.55152 0.0
H15 H 0.48776 0.31903 0.48332 0.0
N16 N 0.47531 0.35869 0.37991 0.0
N17 N 0.43965 0.38595 0.29487 0.0
N18 N 0.41962 0.41773 0.3877 0.0
C19 C 0.47113 0.35755 0.32016 0.0
C20 C 0.41431 0.41685 0.32829 0.0
C21 C 0.44952 0.38865 0.4143 0.0
C22 C 0.48888 0.31585 0.28611 0.0
C23 C 0.53126 0.29467 0.30427 0.0
C24 C 0.54232 0.25001 0.27691 0.0
C25 C 0.50994 0.22495 0.23252 0.0
C26 C 0.46869 0.24696 0.2134 0.0
C27 C 0.45871 0.29223 0.2393 0.0
C28 C 0.37045 0.43756 0.30401 0.0
C29 C 0.3534 0.4244 0.24677 0.0
C30 C 0.30452 0.43295 0.22938 0.0
C31 C 0.27168 0.45462 0.26891 0.0
C32 C 0.29058 0.47142 0.32428 0.0
C33 C 0.33954 0.46334 0.3415 0.0
C34 C 0.43627 0.3738 0.47814 0.0
C35 C 0.39208 0.38863 0.50693 0.0
C36 C 0.05074 0.97605 0.77759 0.0
C37 C 0.05139 0.97032 0.71583 0.0
C38 C 0.05297 0.92109 0.69226 0.0
C39 C 0.0585 0.87961 0.72898 0.0
H40 H 0.19648 0.81919 0.72883 0.0
H41 H 0.281 0.79639 0.69773 0.0
H42 H 0.24944 0.67223 0.83255 0.0
H43 H 0.16558 0.69596 0.86538 0.0
H44 H 0.1731 0.77954 0.98717 0.0
H45 H 0.22972 0.83207 1.05676 0.0
H46 H 0.12618 0.94097 1.06394 0.0
H47 H 0.07143 0.89017 0.99034 0.0
H48 H 0.05941 0.94085 0.86178 0.0
H49 H 0.0493 1.01363 0.79678 0.0
H50 H 0.05257 0.91535 0.64478 0.0
H51 H 0.06227 0.84309 0.70873 0.0
N52 N 0.10883 0.81443 0.79797 0.0
N53 N 0.13161 0.78568 0.88926 0.0
N54 N 0.08122 0.8496 0.88628 0.0
C55 C 0.1335 0.78333 0.82931 0.0
C56 C 0.10584 0.81864 0.91838 0.0
C57 C 0.08156 0.8469 0.82608 0.0
C58 C 0.17444 0.75935 0.79964 0.0
C59 C 0.2065 0.78582 0.75056 0.0
C60 C 0.25507 0.77321 0.73303 0.0
C61 C 0.27147 0.73302 0.7632 0.0
C62 C 0.23732 0.70341 0.80875 0.0
C63 C 0.18937 0.71682 0.82728 0.0
C64 C 0.12004 0.83286 0.97987 0.0
C65 C 0.16122 0.81384 1.00471 0.0
C66 C 0.19383 0.84403 1.04532 0.0
C67 C 0.18464 0.8928 1.06299 0.0
C68 C 0.13626 0.90519 1.04831 0.0
C69 C 0.1044 0.8757 1.00651 0.0
C70 C 0.06281 0.8864 0.79029 0.0
C71 C 0.05646 0.9343 0.81467 0.0
C72 C 0.62732 0.22817 1.03427 0.0
C73 C 0.57083 0.21541 1.03516 0.0
C74 C 0.54547 0.25226 1.0105 0.0
C75 C 0.57556 0.30107 0.98692 0.0
H76 H 0.62822 0.40773 0.80864 0.0
H77 H 0.5935 0.45324 0.73006 0.0
H78 H 0.63022 0.59777 0.82722 0.0
H79 H 0.66746 0.55258 0.90494 0.0
H80 H 0.78931 0.54939 0.97904 0.0
H81 H 0.87084 0.59017 1.02812 0.0
H82 H 0.87213 0.43866 1.10721 0.0
H83 H 0.79052 0.39791 1.05854 0.0
H84 H 0.70102 0.28744 1.01414 0.0
H85 H 0.64794 0.20053 1.05214 0.0
H86 H 0.50194 0.24372 1.01022 0.0
H87 H 0.55436 0.32867 0.96942 0.0
N88 N 0.64459 0.39674 0.92644 0.0
N89 N 0.71486 0.47156 0.94031 0.0
N90 N 0.70765 0.39349 0.99697 0.0
C91 C 0.6705 0.44769 0.91135 0.0
C92 C 0.73397 0.44454 0.98301 0.0
C93 C 0.66277 0.36942 0.96938 0.0
C94 C 0.65053 0.47642 0.86319 0.0
C95 C 0.62931 0.44932 0.8131 0.0
C96 C 0.60968 0.47552 0.76785 0.0
C97 C 0.60904 0.52918 0.77228 0.0
C98 C 0.63007 0.55642 0.82246 0.0
C99 C 0.65149 0.53056 0.8669 0.0
C100 C 0.78316 0.47014 1.01424 0.0
C101 C 0.80678 0.52469 1.00698 0.0
C102 C 0.85357 0.54819 1.03547 0.0
C103 C 0.87837 0.51775 1.07167 0.0
C104 C 0.85436 0.4634 1.07965 0.0
C105 C 0.80736 0.43999 1.05156 0.0
C106 C 0.63189 0.31516 0.98882 0.0
C107 C 0.65758 0.27796 1.01236 0.0
C108 C 0.71662 0.70564 0.60746 0.0
C109 C 0.6731 0.67032 0.58345 0.0
C110 C 0.67934 0.65458 0.5245 0.0
C111 C 0.7281 0.67389 0.49038 0.0
H112 H 0.84902 0.63031 0.37218 0.0
H113 H 0.88503 0.57831 0.29895 0.0
H114 H 1.01487 0.71344 0.24834 0.0
H115 H 0.97878 0.76641 0.32252 0.0
H116 H 0.99929 0.8705 0.43871 0.0
H117 H 0.03901 0.95737 0.48008 0.0
H118 H 0.88164 0.96575 0.55218 0.0
H119 H 0.84251 0.88055 0.51189 0.0
H120 H 0.79676 0.75396 0.59284 0.0
H121 H 0.71326 0.71868 0.65263 0.0
H122 H 0.64641 0.62777 0.50455 0.0
H123 H 0.73155 0.6616 0.44494 0.0
N124 N 0.84167 0.71012 0.43332 0.0
N125 N 0.91401 0.78508 0.41342 0.0
N126 N 0.84671 0.78636 0.48835 0.0
C127 C 0.88839 0.73393 0.40117 0.0
C128 C 0.89268 0.81169 0.45696 0.0
C129 C 0.8209 0.73603 0.47726 0.0
C130 C 0.91083 0.70305 0.35409 0.0
C131 C 0.88515 0.64955 0.34558 0.0
C132 C 0.90583 0.6194 0.30324 0.0
C133 C 0.95292 0.64147 0.26755 0.0
C134 C 0.97843 0.69512 0.27496 0.0
C135 C 0.95774 0.72548 0.31773 0.0
C136 C 0.91775 0.86767 0.47268 0.0
C137 C 0.97315 0.89144 0.46239 0.0
C138 C 0.99587 0.94133 0.48601 0.0
C139 C 0.96361 0.96838 0.52025 0.0
C140 C 0.90796 0.9459 0.5271 0.0
C141 C 0.88549 0.89663 0.50379 0.0
C142 C 0.77092 0.71063 0.514 0.0
C143 C 0.76457 0.72592 0.57307 0.0
C144 C 0.5194 0.93538 0.99672 0.0
C145 C 0.55173 0.96042 1.04117 0.0
C146 C 0.59296 0.9384 1.06034 0.0
C147 C 0.60299 0.89316 1.03441 0.0
H148 H 0.6862 0.78117 1.05677 0.0
H149 H 0.77134 0.76599 1.0869 0.0
H150 H 0.79537 0.69626 0.91813 0.0
H151 H 0.7104 0.71087 0.88776 0.0
H152 H 0.68146 0.76175 0.7806 0.0
H153 H 0.74451 0.82485 0.71674 0.0
H154 H 0.63534 0.92826 0.72187 0.0
H155 H 0.57381 0.86639 0.79027 0.0
H156 H 0.50674 0.87348 0.93321 0.0
H157 H 0.48708 0.95148 0.98162 0.0
H158 H 0.61786 0.95646 1.09531 0.0
H159 H 0.63621 0.87833 1.04927 0.0
N160 N 0.62234 0.79965 0.97864 0.0
N161 N 0.64235 0.76793 0.88576 0.0
N162 N 0.58648 0.82681 0.89368 0.0
C163 C 0.64772 0.76883 0.94517 0.0
C164 C 0.61232 0.79693 0.85924 0.0
C165 C 0.59074 0.82796 0.95342 0.0
C166 C 0.69166 0.74817 0.96935 0.0
C167 C 0.70884 0.76141 1.02653 0.0
C168 C 0.75775 0.75286 1.04382 0.0
C169 C 0.79051 0.73114 1.00424 0.0
C170 C 0.77151 0.71429 0.94894 0.0
C171 C 0.72251 0.72236 0.93182 0.0
C172 C 0.62546 0.81179 0.79538 0.0
C173 C 0.66969 0.79704 0.76655 0.0
C174 C 0.70622 0.8336 0.72932 0.0
C175 C 0.69723 0.88401 0.71862 0.0
C176 C 0.64533 0.89141 0.73322 0.0
C177 C 0.60953 0.85545 0.7719 0.0
C178 C 0.57289 0.86958 0.98754 0.0
C179 C 0.53051 0.89075 0.96935 0.0
C180 C 0.92551 0.28087 0.22421 0.0
C181 C 0.87701 0.29314 0.20976 0.0
C182 C 0.86772 0.34184 0.22761 0.0
C183 C 0.90039 0.37203 0.26818 0.0
H184 H 0.89643 0.48992 0.40746 0.0
H185 H 0.81262 0.51364 0.44046 0.0
H186 H 0.78134 0.3896 0.5754 0.0
H187 H 0.86582 0.36679 0.54412 0.0
H188 H 1.00024 0.34278 0.56368 0.0
H189 H 1.00988 0.27047 0.62761 0.0
H190 H 1.01199 0.17186 0.47571 0.0
H191 H 1.00195 0.2447 0.41073 0.0
H192 H 0.99047 0.29593 0.282 0.0
H193 H 0.93567 0.24518 0.20841 0.0
H194 H 0.83175 0.35371 0.21634 0.0
H195 H 0.88843 0.40624 0.28586 0.0
N196 N 0.93036 0.40023 0.38351 0.0
N197 N 0.95325 0.37138 0.4747 0.0
N198 N 0.98063 0.3362 0.38628 0.0
C199 C 0.92858 0.40256 0.44346 0.0
C200 C 0.9804 0.33887 0.44648 0.0
C201 C 0.95602 0.36724 0.35428 0.0
C202 C 0.88771 0.42657 0.47324 0.0
C203 C 0.87272 0.46908 0.44563 0.0
C204 C 0.8248 0.4825 0.46425 0.0
C205 C 0.79074 0.45291 0.50988 0.0
C206 C 0.80721 0.41275 0.54003 0.0
C207 C 0.85575 0.40014 0.52241 0.0
C208 C 0.99914 0.29931 0.48218 0.0
C209 C 1.00375 0.30617 0.54344 0.0
C210 C 1.00925 0.26467 0.58015 0.0
C211 C 1.01048 0.21534 0.55661 0.0
C212 C 1.01082 0.20952 0.49487 0.0
C213 C 1.00515 0.2513 0.45781 0.0
C214 C 0.94171 0.35308 0.29282 0.0
C215 C 0.95741 0.31035 0.26599 0.0
C216 C 0.20838 0.63733 0.23779 0.0
C217 C 0.1836 0.66778 0.20158 0.0
C218 C 0.20762 0.72213 0.19362 0.0
C219 C 0.25462 0.74553 0.22173 0.0
H220 H 0.36099 0.89785 0.25881 0.0
H221 H 0.41403 0.98479 0.22089 0.0
H222 H 0.56001 0.94197 0.26363 0.0
H223 H 0.5076 0.85694 0.3043 0.0
H224 H 0.43364 0.77772 0.46474 0.0
H225 H 0.4683 0.7322 0.54337 0.0
H226 H 0.4316 0.58767 0.44621 0.0
H227 H 0.39442 0.63286 0.36846 0.0
H228 H 0.27261 0.63609 0.29423 0.0
H229 H 0.19111 0.59535 0.24511 0.0
H230 H 0.18986 0.74689 0.16606 0.0
H231 H 0.27147 0.7876 0.21477 0.0
N232 N 0.35434 0.79196 0.27632 0.0
N233 N 0.41736 0.7887 0.3469 0.0
N234 N 0.34706 0.71391 0.33302 0.0
C235 C 0.39923 0.81602 0.30393 0.0
C236 C 0.39142 0.73775 0.362 0.0
C237 C 0.32799 0.74092 0.2903 0.0
C238 C 0.43009 0.87029 0.28451 0.0
C239 C 0.40441 0.90741 0.26078 0.0
C240 C 0.43465 0.95722 0.23893 0.0
C241 C 0.49113 0.97011 0.23833 0.0
C242 C 0.51648 0.93334 0.26315 0.0
C243 C 0.48641 0.88449 0.28665 0.0
C244 C 0.41134 0.70902 0.41019 0.0
C245 C 0.43254 0.73613 0.46029 0.0
C246 C 0.45214 0.70992 0.50557 0.0
C247 C 0.45277 0.65626 0.50116 0.0
C248 C 0.43175 0.62902 0.45097 0.0
C249 C 0.41037 0.65488 0.4065 0.0
C250 C 0.2788 0.71535 0.25905 0.0
C251 C 0.25516 0.6608 0.2663 0.0
C252 C 0.15362 0.23938 0.74583 0.0
C253 C 0.09796 0.21697 0.75264 0.0
C254 C 0.06573 0.24405 0.78688 0.0
C255 C 0.08851 0.29391 0.81055 0.0
H256 H 0.08282 0.41898 0.95028 0.0
H257 H 0.04683 0.47196 1.02452 0.0
H258 H 0.1773 0.60674 0.97464 0.0
H259 H 0.21321 0.55473 0.90134 0.0
H260 H 0.33004 0.52395 0.82799 0.0
H261 H 0.41521 0.55783 0.76848 0.0
H262 H 0.3489 0.46618 0.62067 0.0
H263 H 0.26535 0.43087 0.68036 0.0
H264 H 0.21914 0.30465 0.76109 0.0
H265 H 0.17991 0.2195 0.72073 0.0
H266 H 1.02258 0.22807 0.79279 0.0
H267 H 0.0624 0.31488 0.83423 0.0
N268 N 0.14777 0.40017 0.85962 0.0
N269 N 0.22017 0.47508 0.83976 0.0
N270 N 0.21505 0.39887 0.78466 0.0
C271 C 0.17344 0.45129 0.87191 0.0
C272 C 0.24091 0.44917 0.79578 0.0
C273 C 0.16906 0.37356 0.81604 0.0
C274 C 0.15107 0.48216 0.91905 0.0
C275 C 0.10402 0.45983 0.95525 0.0
C276 C 0.08339 0.4902 0.99805 0.0
C277 C 0.1091 0.54376 1.00568 0.0
C278 C 0.15633 0.56572 0.97018 0.0
C279 C 0.17696 0.53557 0.92779 0.0
C280 C 0.29093 0.47455 0.75907 0.0
C281 C 0.33361 0.5115 0.78263 0.0
C282 C 0.3824 0.53084 0.74857 0.0
C283 C 0.3888 0.51491 0.68972 0.0
C284 C 0.34542 0.47937 0.66575 0.0
C285 C 0.29744 0.45907 0.7001 0.0
C286 C 0.14393 0.31761 0.80029 0.0
C287 C 0.17615 0.28861 0.76918 0.0
La288 La 0.08202 0.0988 0.60206 0.0
La289 La 0.9794 1.08684 0.67052 0.0
C290 C 0.17288 0.13306 0.54788 0.0
C291 C 0.22185 0.17477 0.55526 0.0
C292 C 0.27056 0.16886 0.52859 0.0
C293 C 0.3176 0.20848 0.53242 0.0
C294 C 0.31718 0.255 0.56364 0.0
C295 C 0.26846 0.25932 0.59327 0.0
C296 C 0.22108 0.21972 0.58863 0.0
C297 C 0.05705 1.01575 0.67432 0.0
C298 C 0.07415 0.1695 0.71775 0.0
C299 C 0.88839 1.05293 0.72451 0.0
C300 C 0.83947 1.01111 0.71738 0.0
C301 C 0.79077 1.01698 0.74412 0.0
C302 C 0.74378 0.97726 0.74051 0.0
C303 C 0.74423 0.93067 0.70945 0.0
C304 C 0.79293 0.92638 0.67974 0.0
C305 C 0.84026 0.96608 0.68417 0.0
C306 C 1.00473 0.16994 0.59818 0.0
C307 C 0.98736 1.01592 0.55506 0.0
O308 O 0.16256 0.09492 0.58803 0.0
O309 O 0.12951 0.14804 0.53477 0.0
O310 O 0.08057 1.01705 0.62192 0.0
O311 O 0.05037 1.06108 0.68666 0.0
O312 O 0.10057 0.16171 0.66768 0.0
O313 O 0.02582 0.13942 0.73319 0.0
O314 O 0.89881 1.0907 0.68392 0.0
O315 O 0.93172 1.03811 0.73809 0.0
O316 O 0.98133 0.16876 0.65063 0.0
O317 O 1.01099 0.12446 0.58593 0.0
O318 O 0.961 1.02367 0.60519 0.0
O319 O 0.03559 1.04614 0.53947 0.0
H320 H 0.27194 0.13421 0.50302 0.0
H321 H 0.35346 0.20364 0.50759 0.0
H322 H 0.26638 0.29408 0.61821 0.0
H323 H 0.18375 0.2249 0.60974 0.0
H324 H 0.78937 1.05169 0.76957 0.0
H325 H 0.70793 0.98209 0.76539 0.0
H326 H 0.79504 0.89157 0.65491 0.0
H327 H 0.87758 0.96092 0.66302 0.0
La328 La 0.58895 0.10243 0.15094 0.0
La329 La 0.47277 1.08309 1.12253 0.0
C330 C 0.68884 0.13041 0.16313 0.0
C331 C 0.73702 0.17296 0.17071 0.0
C332 C 0.7779 0.16048 0.2022 0.0
C333 C 0.82449 0.19893 0.2117 0.0
C334 C 0.83169 0.25106 0.18941 0.0
C335 C 0.79112 0.26311 0.15591 0.0
C336 C 0.74396 0.22433 0.14686 0.0
C337 C 0.5252 1.01898 0.20832 0.0
C338 C 0.51793 0.176 0.20537 0.0
C339 C 0.3729 1.05524 1.11014 0.0
C340 C 0.32471 1.01276 1.10235 0.0
C341 C 0.28407 1.02528 1.07047 0.0
C342 C 0.23746 0.9869 1.06085 0.0
C343 C 0.23 0.93482 1.08338 0.0
C344 C 0.27032 0.92273 1.11722 0.0
C345 C 0.3175 0.96142 1.12642 0.0
C346 C 0.53672 0.16663 1.06531 0.0
C347 C 0.54375 1.00939 1.06826 0.0
O348 O 0.65268 0.11875 0.20783 0.0
O349 O 0.66746 0.12687 1.11162 0.0
O350 O 0.57554 1.02432 0.19319 0.0
O351 O 0.51274 1.06197 0.19634 0.0
O352 O 0.56722 0.17177 0.18956 0.0
O353 O 0.47459 0.14039 0.19155 0.0
O354 O 0.40912 1.06701 1.06551 0.0
O355 O 0.3942 1.05861 0.16168 0.0
O356 O 0.4864 0.16139 1.08051 0.0
O357 O 0.5489 0.12349 1.07716 0.0
O358 O 0.49447 1.01369 1.084 0.0
O359 O 0.5871 1.045 1.08207 0.0
H360 H 0.77331 0.12092 0.2207 0.0
H361 H 0.85357 0.18802 0.23919 0.0
H362 H 0.7952 0.30267 0.13786 0.0
H363 H 0.71282 0.23473 1.12228 0.0
H364 H 0.28887 1.0648 1.05179 0.0
H365 H 0.20857 0.99783 1.0331 0.0
H366 H 0.26603 0.88319 0.13545 0.0
H367 H 0.34843 0.951 0.15133 0.0
La368 La 0.53674 0.54943 0.59649 0.0
La369 La 0.52519 0.63609 0.67689 0.0
C370 C 0.57716 0.48695 0.53519 0.0
C371 C 0.63116 0.47658 0.53285 0.0
C372 C 0.63935 0.42912 0.51027 0.0
C373 C 0.69135 0.42074 0.5049 0.0
C374 C 0.73572 0.46009 0.5212 0.0
C375 C 0.72739 0.50712 0.54487 0.0
C376 C 0.6753 0.51493 0.55157 0.0
C377 C 0.44063 0.53312 0.65356 0.0
C378 C 0.58428 0.55521 0.7258 0.0
C379 C 0.48496 0.69874 0.73812 0.0
C380 C 0.43098 0.70916 0.74042 0.0
C381 C 0.42285 0.75671 0.76281 0.0
C382 C 0.37088 0.76515 0.76813 0.0
C383 C 0.32647 0.72578 0.75194 0.0
C384 C 0.33475 0.67866 0.72845 0.0
C385 C 0.38681 0.67079 0.72181 0.0
C386 C 0.62132 0.65214 0.61972 0.0
C387 C 0.47753 0.63024 0.54764 0.0
O388 O 0.54739 0.47246 0.58442 0.0
O389 O 0.57565 0.53432 0.51682 0.0
O390 O 0.44957 0.51577 0.60123 0.0
O391 O 0.48537 0.55436 0.67382 0.0
O392 O 0.58645 0.53908 0.67041 0.0
O393 O 0.55828 0.59155 0.74102 0.0
O394 O 0.51473 0.71314 0.68887 0.0
O395 O 0.48641 0.65137 0.75656 0.0
O396 O 0.6125 0.66949 0.67208 0.0
O397 O 0.57647 0.63116 0.59963 0.0
O398 O 0.4754 0.64638 0.60303 0.0
O399 O 0.50355 0.5939 0.53239 0.0
H400 H 0.60574 0.39902 0.49595 0.0
H401 H 0.6972 0.38425 0.48626 0.0
H402 H 0.76112 0.53781 0.55781 0.0
H403 H 0.66955 0.5513 0.57041 0.0
H404 H 0.45649 0.78683 0.77704 0.0
H405 H 0.36507 0.8017 0.78662 0.0
H406 H 0.30098 0.64796 0.7156 0.0
H407 H 0.39252 0.63436 0.7031 0.0
La408 La 0.02923 0.54417 0.17044 0.0
La409 La 0.03284 0.64131 1.10257 0.0
C410 C 0.05731 0.46644 0.21396 0.0
C411 C 0.11149 0.46034 0.22618 0.0
C412 C 0.1204 0.44025 0.28157 0.0
C413 C 0.17252 0.43867 0.29547 0.0
C414 C 0.21659 0.45685 0.25402 0.0
C415 C 0.20747 0.47625 0.19825 0.0
C416 C 0.15549 0.47835 0.18458 0.0
C417 C 0.97575 0.60736 0.22526 0.0
C418 C 0.13169 0.64345 0.17493 0.0
C419 C 1.0049 0.71902 1.05879 0.0
C420 C 0.95073 0.72521 1.04667 0.0
C421 C 0.94176 0.74528 0.99129 0.0
C422 C 0.88963 0.74694 0.97749 0.0
C423 C 0.84561 0.72886 1.01904 0.0
C424 C 0.8548 0.70949 1.0748 0.0
C425 C 0.90679 0.70731 1.08836 0.0
C426 C 0.08636 0.57793 1.04798 0.0
C427 C 0.93031 0.54208 1.09825 0.0
O428 O 0.03977 0.50083 0.24629 0.0
O429 O 0.04794 0.47081 0.15797 0.0
O430 O 0.96092 0.55604 0.22719 0.0
O431 O 1.02037 0.62128 0.19526 0.0
O432 O 0.112 0.59162 0.18039 0.0
O433 O 0.10482 0.67381 0.14891 0.0
O434 O 1.02224 0.68443 1.02658 0.0
O435 O 1.0144 0.71482 1.11476 0.0
O436 O 0.1013 0.62925 1.04606 0.0
O437 O 0.04162 0.56425 1.07775 0.0
O438 O 0.95001 0.59391 1.09282 0.0
O439 O 0.9572 0.5117 1.12418 0.0
H440 H 0.08716 0.42653 0.31439 0.0
H441 H 0.17833 0.42286 0.33856 0.0
H442 H 0.24069 0.4908 0.16566 0.0
H443 H 0.14996 0.49491 0.14178 0.0
H444 H 0.97496 0.75892 0.95839 0.0
H445 H 0.88378 0.76272 0.93441 0.0
H446 H 0.82162 0.69502 1.10746 0.0
H447 H 0.91236 0.69078 1.13116 0.0
loop_
_geom_bond_atom_site_label_1
_geom_bond_atom_site_label_2
_geom_bond_distance
_geom_bond_site_symmetry_2
_ccdc_geom_bond_type
C0 C1 1.384 . S
C0 H13 0.947 . S
C0 C35 1.382 . S
C1 C0 1.384 . S
C1 C2 1.378 . S
C2 C1 1.378 . S
C2 C3 1.378 . S
C2 H14 0.952 . S
C3 C2 1.378 . S
C3 H15 0.950 . S
C3 C34 1.383 . S
H4 C23 0.947 . S
H5 C24 0.946 . S
H6 C26 0.953 . S
H7 C27 0.945 . S
H8 C29 0.952 . S
H9 C30 0.949 . S
H10 C32 0.950 . S
H11 C33 0.948 . S
H12 C35 0.951 . S
H13 C0 0.947 . S
H14 C2 0.952 . S
H15 C3 0.950 . S
N16 C19 1.382 . S
N16 C21 1.363 . S
N17 C19 1.371 . S
N17 C20 1.372 . S
N18 C20 1.361 . S
N18 C21 1.377 . S
C19 N16 1.382 . S
C19 N17 1.371 . S
C19 C22 1.480 . S
C20 N17 1.372 . S
C20 N18 1.361 . S
C20 C28 1.457 . S
C21 N16 1.363 . S
C21 N18 1.377 . S
C21 C34 1.479 . S
C22 C19 1.480 . S
C22 C23 1.383 . S
C22 C27 1.385 . S
C23 H4 0.947 . S
C23 C22 1.383 . S
C23 C24 1.388 . S
C24 H5 0.946 . S
C24 C23 1.388 . S
C24 C25 1.384 . S
C25 C24 1.384 . S
C25 C26 1.377 . S
C26 H6 0.953 . S
C26 C25 1.377 . S
C26 C27 1.369 . S
C27 H7 0.945 . S
C27 C22 1.385 . S
C27 C26 1.369 . S
C28 C20 1.457 . S
C28 C29 1.372 . S
C28 C33 1.364 . S
C29 H8 0.952 . S
C29 C28 1.372 . S
C29 C30 1.389 . S
C30 H9 0.949 . S
C30 C29 1.389 . S
C30 C31 1.387 . S
C31 C30 1.387 . S
C31 C32 1.372 . S
C32 H10 0.950 . S
C32 C31 1.372 . S
C32 C33 1.379 . S
C33 H11 0.948 . S
C33 C28 1.364 . S
C33 C32 1.379 . S
C34 C3 1.383 . S
C34 C21 1.479 . S
C34 C35 1.398 . S
C35 C0 1.382 . S
C35 H12 0.951 . S
C35 C34 1.398 . S
C36 C37 1.384 . S
C36 H49 0.947 . S
C36 C71 1.382 . S
C37 C36 1.384 . S
C37 C38 1.378 . S
C38 C37 1.378 . S
C38 C39 1.378 . S
C38 H50 0.952 . S
C39 C38 1.378 . S
C39 H51 0.950 . S
C39 C70 1.383 . S
H40 C59 0.947 . S
H41 C60 0.946 . S
H42 C62 0.953 . S
H43 C63 0.945 . S
H44 C65 0.952 . S
H45 C66 0.949 . S
H46 C68 0.950 . S
H47 C69 0.948 . S
H48 C71 0.951 . S
H49 C36 0.947 . S
H50 C38 0.952 . S
H51 C39 0.950 . S
N52 C55 1.382 . S
N52 C57 1.363 . S
N53 C55 1.371 . S
N53 C56 1.372 . S
N54 C56 1.361 . S
N54 C57 1.377 . S
C55 N52 1.382 . S
C55 N53 1.371 . S
C55 C58 1.480 . S
C56 N53 1.372 . S
C56 N54 1.361 . S
C56 C64 1.457 . S
C57 N52 1.363 . S
C57 N54 1.377 . S
C57 C70 1.479 . S
C58 C55 1.480 . S
C58 C59 1.383 . S
C58 C63 1.385 . S
C59 H40 0.947 . S
C59 C58 1.383 . S
C59 C60 1.388 . S
C60 H41 0.946 . S
C60 C59 1.388 . S
C60 C61 1.384 . S
C61 C60 1.384 . S
C61 C62 1.377 . S
C62 H42 0.953 . S
C62 C61 1.377 . S
C62 C63 1.369 . S
C63 H43 0.945 . S
C63 C58 1.385 . S
C63 C62 1.369 . S
C64 C56 1.457 . S
C64 C65 1.372 . S
C64 C69 1.364 . S
C65 H44 0.952 . S
C65 C64 1.372 . S
C65 C66 1.389 . S
C66 H45 0.949 . S
C66 C65 1.389 . S
C66 C67 1.387 . S
C67 C66 1.387 . S
C67 C68 1.372 . S
C68 H46 0.950 . S
C68 C67 1.372 . S
C68 C69 1.379 . S
C69 H47 0.948 . S
C69 C64 1.364 . S
C69 C68 1.379 . S
C70 C39 1.383 . S
C70 C57 1.479 . S
C70 C71 1.398 . S
C71 C36 1.382 . S
C71 H48 0.951 . S
C71 C70 1.398 . S
C72 C73 1.384 . S
C72 H85 0.947 . S
C72 C107 1.382 . S
C73 C72 1.384 . S
C73 C74 1.378 . S
C74 C73 1.378 . S
C74 C75 1.378 . S
C74 H86 0.952 . S
C75 C74 1.378 . S
C75 H87 0.950 . S
C75 C106 1.383 . S
H76 C95 0.947 . S
H77 C96 0.946 . S
H78 C98 0.953 . S
H79 C99 0.945 . S
H80 C101 0.952 . S
H81 C102 0.949 . S
H82 C104 0.950 . S
H83 C105 0.948 . S
H84 C107 0.951 . S
H85 C72 0.947 . S
H86 C74 0.952 . S
H87 C75 0.950 . S
N88 C91 1.382 . S
N88 C93 1.363 . S
N89 C91 1.371 . S
N89 C92 1.372 . S
N90 C92 1.361 . S
N90 C93 1.377 . S
C91 N88 1.382 . S
C91 N89 1.371 . S
C91 C94 1.480 . S
C92 N89 1.372 . S
C92 N90 1.361 . S
C92 C100 1.457 . S
C93 N88 1.363 . S
C93 N90 1.377 . S
C93 C106 1.479 . S
C94 C91 1.480 . S
C94 C95 1.383 . S
C94 C99 1.385 . S
C95 H76 0.947 . S
C95 C94 1.383 . S
C95 C96 1.388 . S
C96 H77 0.946 . S
C96 C95 1.388 . S
C96 C97 1.384 . S
C97 C96 1.384 . S
C97 C98 1.377 . S
C98 H78 0.953 . S
C98 C97 1.377 . S
C98 C99 1.369 . S
C99 H79 0.945 . S
C99 C94 1.385 . S
C99 C98 1.369 . S
C100 C92 1.457 . S
C100 C101 1.372 . S
C100 C105 1.364 . S
C101 H80 0.952 . S
C101 C100 1.372 . S
C101 C102 1.389 . S
C102 H81 0.949 . S
C102 C101 1.389 . S
C102 C103 1.387 . S
C103 C102 1.387 . S
C103 C104 1.372 . S
C104 H82 0.950 . S
C104 C103 1.372 . S
C104 C105 1.379 . S
C105 H83 0.948 . S
C105 C100 1.364 . S
C105 C104 1.379 . S
C106 C75 1.383 . S
C106 C93 1.479 . S
C106 C107 1.398 . S
C107 C72 1.382 . S
C107 H84 0.951 . S
C107 C106 1.398 . S
C108 C109 1.384 . S
C108 H121 0.947 . S
C108 C143 1.382 . S
C109 C108 1.384 . S
C109 C110 1.378 . S
C110 C109 1.378 . S
C110 C111 1.378 . S
C110 H122 0.952 . S
C111 C110 1.378 . S
C111 H123 0.950 . S
C111 C142 1.383 . S
H112 C131 0.947 . S
H113 C132 0.946 . S
H114 C134 0.953 . S
H115 C135 0.945 . S
H116 C137 0.952 . S
H117 C138 0.949 . S
H118 C140 0.950 . S
H119 C141 0.948 . S
H120 C143 0.951 . S
H121 C108 0.947 . S
H122 C110 0.952 . S
H123 C111 0.950 . S
N124 C127 1.382 . S
N124 C129 1.363 . S
N125 C127 1.371 . S
N125 C128 1.372 . S
N126 C128 1.361 . S
N126 C129 1.377 . S
C127 N124 1.382 . S
C127 N125 1.371 . S
C127 C130 1.480 . S
C128 N125 1.372 . S
C128 N126 1.361 . S
C128 C136 1.457 . S
C129 N124 1.363 . S
C129 N126 1.377 . S
C129 C142 1.479 . S
C130 C127 1.480 . S
C130 C131 1.383 . S
C130 C135 1.385 . S
C131 H112 0.947 . S
C131 C130 1.383 . S
C131 C132 1.388 . S
C132 H113 0.946 . S
C132 C131 1.388 . S
C132 C133 1.384 . S
C133 C132 1.384 . S
C133 C134 1.377 . S
C134 H114 0.953 . S
C134 C133 1.377 . S
C134 C135 1.369 . S
C135 H115 0.945 . S
C135 C130 1.385 . S
C135 C134 1.369 . S
C136 C128 1.457 . S
C136 C137 1.372 . S
C136 C141 1.364 . S
C137 H116 0.952 . S
C137 C136 1.372 . S
C137 C138 1.389 . S
C138 H117 0.949 . S
C138 C137 1.389 . S
C138 C139 1.387 . S
C139 C138 1.387 . S
C139 C140 1.372 . S
C140 H118 0.950 . S
C140 C139 1.372 . S
C140 C141 1.379 . S
C141 H119 0.948 . S
C141 C136 1.364 . S
C141 C140 1.379 . S
C142 C111 1.383 . S
C142 C129 1.479 . S
C142 C143 1.398 . S
C143 C108 1.382 . S
C143 H120 0.951 . S
C143 C142 1.398 . S
C144 C145 1.384 . S
C144 H157 0.947 . S
C144 C179 1.382 . S
C145 C144 1.384 . S
C145 C146 1.378 . S
C146 C145 1.378 . S
C146 C147 1.378 . S
C146 H158 0.952 . S
C147 C146 1.378 . S
C147 H159 0.950 . S
C147 C178 1.383 . S
H148 C167 0.947 . S
H149 C168 0.946 . S
H150 C170 0.953 . S
H151 C171 0.945 . S
H152 C173 0.952 . S
H153 C174 0.949 . S
H154 C176 0.950 . S
H155 C177 0.948 . S
H156 C179 0.951 . S
H157 C144 0.947 . S
H158 C146 0.952 . S
H159 C147 0.950 . S
N160 C163 1.382 . S
N160 C165 1.363 . S
N161 C163 1.371 . S
N161 C164 1.372 . S
N162 C164 1.361 . S
N162 C165 1.377 . S
C163 N160 1.382 . S
C163 N161 1.371 . S
C163 C166 1.480 . S
C164 N161 1.372 . S
C164 N162 1.361 . S
C164 C172 1.457 . S
C165 N160 1.363 . S
C165 N162 1.377 . S
C165 C178 1.479 . S
C166 C163 1.480 . S
C166 C167 1.383 . S
C166 C171 1.385 . S
C167 H148 0.947 . S
C167 C166 1.383 . S
C167 C168 1.388 . S
C168 H149 0.946 . S
C168 C167 1.388 . S
C168 C169 1.384 . S
C169 C168 1.384 . S
C169 C170 1.377 . S
C170 H150 0.953 . S
C170 C169 1.377 . S
C170 C171 1.369 . S
C171 H151 0.945 . S
C171 C166 1.385 . S
C171 C170 1.369 . S
C172 C164 1.457 . S
C172 C173 1.372 . S
C172 C177 1.364 . S
C173 H152 0.952 . S
C173 C172 1.372 . S
C173 C174 1.389 . S
C174 H153 0.949 . S
C174 C173 1.389 . S
C174 C175 1.387 . S
C175 C174 1.387 . S
C175 C176 1.372 . S
C176 H154 0.950 . S
C176 C175 1.372 . S
C176 C177 1.379 . S
C177 H155 0.948 . S
C177 C172 1.364 . S
C177 C176 1.379 . S
C178 C147 1.383 . S
C178 C165 1.479 . S
C178 C179 1.398 . S
C179 C144 1.382 . S
C179 H156 0.951 . S
C179 C178 1.398 . S
C180 C181 1.384 . S
C180 H193 0.947 . S
C180 C215 1.382 . S
C181 C180 1.384 . S
C181 C182 1.378 . S
C182 C181 1.378 . S
C182 C183 1.378 . S
C182 H194 0.952 . S
C183 C182 1.378 . S
C183 H195 0.950 . S
C183 C214 1.383 . S
H184 C203 0.947 . S
H185 C204 0.946 . S
H186 C206 0.953 . S
H187 C207 0.945 . S
H188 C209 0.952 . S
H189 C210 0.949 . S
H190 C212 0.950 . S
H191 C213 0.948 . S
H192 C215 0.951 . S
H193 C180 0.947 . S
H194 C182 0.952 . S
H195 C183 0.950 . S
N196 C199 1.382 . S
N196 C201 1.363 . S
N197 C199 1.371 . S
N197 C200 1.372 . S
N198 C200 1.361 . S
N198 C201 1.377 . S
C199 N196 1.382 . S
C199 N197 1.371 . S
C199 C202 1.480 . S
C200 N197 1.372 . S
C200 N198 1.361 . S
C200 C208 1.457 . S
C201 N196 1.363 . S
C201 N198 1.377 . S
C201 C214 1.479 . S
C202 C199 1.480 . S
C202 C203 1.383 . S
C202 C207 1.385 . S
C203 H184 0.947 . S
C203 C202 1.383 . S
C203 C204 1.388 . S
C204 H185 0.946 . S
C204 C203 1.388 . S
C204 C205 1.384 . S
C205 C204 1.384 . S
C205 C206 1.377 . S
C206 H186 0.953 . S
C206 C205 1.377 . S
C206 C207 1.369 . S
C207 H187 0.945 . S
C207 C202 1.385 . S
C207 C206 1.369 . S
C208 C200 1.457 . S
C208 C209 1.372 . S
C208 C213 1.364 . S
C209 H188 0.952 . S
C209 C208 1.372 . S
C209 C210 1.389 . S
C210 H189 0.949 . S
C210 C209 1.389 . S
C210 C211 1.387 . S
C211 C210 1.387 . S
C211 C212 1.372 . S
C212 H190 0.950 . S
C212 C211 1.372 . S
C212 C213 1.379 . S
C213 H191 0.948 . S
C213 C208 1.364 . S
C213 C212 1.379 . S
C214 C183 1.383 . S
C214 C201 1.479 . S
C214 C215 1.398 . S
C215 C180 1.382 . S
C215 H192 0.951 . S
C215 C214 1.398 . S
C216 C217 1.384 . S
C216 H229 0.947 . S
C216 C251 1.382 . S
C217 C216 1.384 . S
C217 C218 1.378 . S
C218 C217 1.378 . S
C218 C219 1.378 . S
C218 H230 0.952 . S
C219 C218 1.378 . S
C219 H231 0.950 . S
C219 C250 1.383 . S
H220 C239 0.947 . S
H221 C240 0.946 . S
H222 C242 0.953 . S
H223 C243 0.945 . S
H224 C245 0.952 . S
H225 C246 0.949 . S
H226 C248 0.950 . S
H227 C249 0.948 . S
H228 C251 0.951 . S
H229 C216 0.947 . S
H230 C218 0.952 . S
H231 C219 0.950 . S
N232 C235 1.382 . S
N232 C237 1.363 . S
N233 C235 1.371 . S
N233 C236 1.372 . S
N234 C236 1.361 . S
N234 C237 1.377 . S
C235 N232 1.382 . S
C235 N233 1.371 . S
C235 C238 1.480 . S
C236 N233 1.372 . S
C236 N234 1.361 . S
C236 C244 1.457 . S
C237 N232 1.363 . S
C237 N234 1.377 . S
C237 C250 1.479 . S
C238 C235 1.480 . S
C238 C239 1.383 . S
C238 C243 1.385 . S
C239 H220 0.947 . S
C239 C238 1.383 . S
C239 C240 1.388 . S
C240 H221 0.946 . S
C240 C239 1.388 . S
C240 C241 1.384 . S
C241 C240 1.384 . S
C241 C242 1.377 . S
C242 H222 0.953 . S
C242 C241 1.377 . S
C242 C243 1.369 . S
C243 H223 0.945 . S
C243 C238 1.385 . S
C243 C242 1.369 . S
C244 C236 1.457 . S
C244 C245 1.372 . S
C244 C249 1.364 . S
C245 H224 0.952 . S
C245 C244 1.372 . S
C245 C246 1.389 . S
C246 H225 0.949 . S
C246 C245 1.389 . S
C246 C247 1.387 . S
C247 C246 1.387 . S
C247 C248 1.372 . S
C248 H226 0.950 . S
C248 C247 1.372 . S
C248 C249 1.379 . S
C249 H227 0.948 . S
C249 C244 1.364 . S
C249 C248 1.379 . S
C250 C219 1.383 . S
C250 C237 1.479 . S
C250 C251 1.398 . S
C251 C216 1.382 . S
C251 H228 0.951 . S
C251 C250 1.398 . S
C252 C253 1.384 . S
C252 H265 0.947 . S
C252 C287 1.382 . S
C253 C252 1.384 . S
C253 C254 1.378 . S
C254 C253 1.378 . S
C254 C255 1.378 . S
C254 H266 0.952 . S
C255 C254 1.378 . S
C255 H267 0.950 . S
C255 C286 1.383 . S
H256 C275 0.947 . S
H257 C276 0.946 . S
H258 C278 0.953 . S
H259 C279 0.945 . S
H260 C281 0.952 . S
H261 C282 0.949 . S
H262 C284 0.950 . S
H263 C285 0.948 . S
H264 C287 0.951 . S
H265 C252 0.947 . S
H266 C254 0.952 . S
H267 C255 0.950 . S
N268 C271 1.382 . S
N268 C273 1.363 . S
N269 C271 1.371 . S
N269 C272 1.372 . S
N270 C272 1.361 . S
N270 C273 1.377 . S
C271 N268 1.382 . S
C271 N269 1.371 . S
C271 C274 1.480 . S
C272 N269 1.372 . S
C272 N270 1.361 . S
C272 C280 1.457 . S
C273 N268 1.363 . S
C273 N270 1.377 . S
C273 C286 1.479 . S
C274 C271 1.480 . S
C274 C275 1.383 . S
C274 C279 1.385 . S
C275 H256 0.947 . S
C275 C274 1.383 . S
C275 C276 1.388 . S
C276 H257 0.946 . S
C276 C275 1.388 . S
C276 C277 1.384 . S
C277 C276 1.384 . S
C277 C278 1.377 . S
C278 H258 0.953 . S
C278 C277 1.377 . S
C278 C279 1.369 . S
C279 H259 0.945 . S
C279 C274 1.385 . S
C279 C278 1.369 . S
C280 C272 1.457 . S
C280 C281 1.372 . S
C280 C285 1.364 . S
C281 H260 0.952 . S
C281 C280 1.372 . S
C281 C282 1.389 . S
C282 H261 0.949 . S
C282 C281 1.389 . S
C282 C283 1.387 . S
C283 C282 1.387 . S
C283 C284 1.372 . S
C284 H262 0.950 . S
C284 C283 1.372 . S
C284 C285 1.379 . S
C285 H263 0.948 . S
C285 C280 1.364 . S
C285 C284 1.379 . S
C286 C255 1.383 . S
C286 C273 1.479 . S
C286 C287 1.398 . S
C287 C252 1.382 . S
C287 H264 0.951 . S
C287 C286 1.398 . S
La288 C290 2.928 . S
La288 O308 2.521 . S
La288 O309 2.628 . S
La288 O310 2.554 1_545 S
La288 O311 2.757 1_545 S
La288 O312 2.470 . S
La288 O317 2.482 1_455 S
La288 O319 2.503 1_445 S
La289 C299 2.928 . S
La289 O311 2.482 1_655 S
La289 O313 2.503 1_665 S
La289 O314 2.521 . S
La289 O315 2.628 . S
La289 O316 2.554 1_565 S
La289 O317 2.757 1_565 S
La289 O318 2.470 . S
C290 La288 2.928 . S
C290 C291 1.503 . S
C290 O308 1.261 . S
C290 O309 1.243 . S
C291 C290 1.503 . S
C291 C292 1.394 . S
C291 C296 1.373 . S
C292 C291 1.394 . S
C292 C293 1.380 . S
C292 H320 0.930 . S
C293 C292 1.380 . S
C293 C294 1.376 . S
C293 H321 0.930 . S
C294 C293 1.376 . S
C294 C295 1.370 . S
C295 C294 1.370 . S
C295 C296 1.396 . S
C295 H322 0.929 . S
C296 C291 1.373 . S
C296 C295 1.396 . S
C296 H323 0.929 . S
C297 O310 1.240 . S
C297 O311 1.289 . S
C298 O312 1.258 . S
C298 O313 1.256 . S
C299 La289 2.928 . S
C299 C300 1.503 . S
C299 O314 1.261 . S
C299 O315 1.243 . S
C300 C299 1.503 . S
C300 C301 1.394 . S
C300 C305 1.373 . S
C301 C300 1.394 . S
C301 C302 1.380 . S
C301 H324 0.930 . S
C302 C301 1.380 . S
C302 C303 1.376 . S
C302 H325 0.930 . S
C303 C302 1.376 . S
C303 C304 1.370 . S
C304 C303 1.370 . S
C304 C305 1.396 . S
C304 H326 0.929 . S
C305 C300 1.373 . S
C305 C304 1.396 . S
C305 H327 0.929 . S
C306 O316 1.240 . S
C306 O317 1.289 . S
C307 O318 1.258 . S
C307 O319 1.256 . S
O308 La288 2.521 . S
O308 C290 1.261 . S
O309 La288 2.628 . S
O309 C290 1.243 . S
O310 La288 2.554 1_565 S
O310 C297 1.240 . S
O311 La288 2.757 1_565 S
O311 La289 2.482 1_455 S
O311 C297 1.289 . S
O312 La288 2.470 . S
O312 C298 1.258 . S
O313 La289 2.503 1_445 S
O313 C298 1.256 . S
O314 La289 2.521 . S
O314 C299 1.261 . S
O315 La289 2.628 . S
O315 C299 1.243 . S
O316 La289 2.554 1_545 S
O316 C306 1.240 . S
O317 La288 2.482 1_655 S
O317 La289 2.757 1_545 S
O317 C306 1.289 . S
O318 La289 2.470 . S
O318 C307 1.258 . S
O319 La288 2.503 1_665 S
O319 C307 1.256 . S
H320 C292 0.930 . S
H321 C293 0.930 . S
H322 C295 0.929 . S
H323 C296 0.929 . S
H324 C301 0.930 . S
H325 C302 0.930 . S
H326 C304 0.929 . S
H327 C305 0.929 . S
La328 C330 2.928 1_565 S
La328 O348 2.521 1_565 S
La328 O349 2.628 1_565 S
La328 O350 2.554 . S
La328 O351 2.757 . S
La328 O352 2.470 1_565 S
La328 O357 2.482 1_564 S
La328 O359 2.503 1_554 S
La329 C339 2.928 1_545 S
La329 O351 2.482 1_546 S
La329 O353 2.503 1_556 S
La329 O354 2.521 1_545 S
La329 O355 2.628 1_545 S
La329 O356 2.554 . S
La329 O357 2.757 . S
La329 O358 2.470 1_545 S
C330 La328 2.928 1_545 S
C330 C331 1.503 . S
C330 O348 1.261 . S
C330 O349 1.243 . S
C331 C330 1.503 . S
C331 C332 1.394 . S
C331 C336 1.373 . S
C332 C331 1.394 . S
C332 C333 1.380 . S
C332 H360 0.930 . S
C333 C332 1.380 . S
C333 C334 1.376 . S
C333 H361 0.930 . S
C334 C333 1.376 . S
C334 C335 1.370 . S
C335 C334 1.370 . S
C335 C336 1.396 . S
C335 H362 0.929 . S
C336 C331 1.373 . S
C336 C335 1.396 . S
C336 H363 0.929 . S
C337 O350 1.240 . S
C337 O351 1.289 . S
C338 O352 1.258 . S
C338 O353 1.256 . S
C339 La329 2.928 1_565 S
C339 C340 1.503 . S
C339 O354 1.261 . S
C339 O355 1.243 . S
C340 C339 1.503 . S
C340 C341 1.394 . S
C340 C345 1.373 . S
C341 C340 1.394 . S
C341 C342 1.380 . S
C341 H364 0.930 . S
C342 C341 1.380 . S
C342 C343 1.376 . S
C342 H365 0.930 . S
C343 C342 1.376 . S
C343 C344 1.370 . S
C344 C343 1.370 . S
C344 C345 1.396 . S
C344 H366 0.929 . S
C345 C340 1.373 . S
C345 C344 1.396 . S
C345 H367 0.929 . S
C346 O356 1.240 . S
C346 O357 1.289 . S
C347 O358 1.258 . S
C347 O359 1.256 . S
O348 La328 2.521 1_545 S
O348 C330 1.261 . S
O349 La328 2.628 1_545 S
O349 C330 1.243 . S
O350 La328 2.554 . S
O350 C337 1.240 . S
O351 La328 2.757 . S
O351 La329 2.482 1_564 S
O351 C337 1.289 . S
O352 La328 2.470 1_545 S
O352 C338 1.258 . S
O353 La329 2.503 1_554 S
O353 C338 1.256 . S
O354 La329 2.521 1_565 S
O354 C339 1.261 . S
O355 La329 2.628 1_565 S
O355 C339 1.243 . S
O356 La329 2.554 . S
O356 C346 1.240 . S
O357 La328 2.482 1_546 S
O357 La329 2.757 . S
O357 C346 1.289 . S
O358 La329 2.470 1_565 S
O358 C347 1.258 . S
O359 La328 2.503 1_556 S
O359 C347 1.256 . S
H360 C332 0.930 . S
H361 C333 0.930 . S
H362 C335 0.929 . S
H363 C336 0.929 . S
H364 C341 0.930 . S
H365 C342 0.930 . S
H366 C344 0.929 . S
H367 C345 0.929 . S
La368 C370 2.928 . S
La368 O388 2.521 . S
La368 O389 2.628 . S
La368 O390 2.554 . S
La368 O391 2.757 . S
La368 O392 2.470 . S
La368 O397 2.482 . S
La368 O399 2.503 . S
La369 C379 2.928 . S
La369 O391 2.482 . S
La369 O393 2.503 . S
La369 O394 2.521 . S
La369 O395 2.628 . S
La369 O396 2.554 . S
La369 O397 2.757 . S
La369 O398 2.470 . S
C370 La368 2.928 . S
C370 C371 1.503 . S
C370 O388 1.261 . S
C370 O389 1.243 . S
C371 C370 1.503 . S
C371 C372 1.394 . S
C371 C376 1.373 . S
C372 C371 1.394 . S
C372 C373 1.380 . S
C372 H400 0.930 . S
C373 C372 1.380 . S
C373 C374 1.376 . S
C373 H401 0.930 . S
C374 C373 1.376 . S
C374 C375 1.370 . S
C375 C374 1.370 . S
C375 C376 1.396 . S
C375 H402 0.929 . S
C376 C371 1.373 . S
C376 C375 1.396 . S
C376 H403 0.929 . S
C377 O390 1.240 . S
C377 O391 1.289 . S
C378 O392 1.258 . S
C378 O393 1.256 . S
C379 La369 2.928 . S
C379 C380 1.503 . S
C379 O394 1.261 . S
C379 O395 1.243 . S
C380 C379 1.503 . S
C380 C381 1.394 . S
C380 C385 1.373 . S
C381 C380 1.394 . S
C381 C382 1.380 . S
C381 H404 0.930 . S
C382 C381 1.380 . S
C382 C383 1.376 . S
C382 H405 0.930 . S
C383 C382 1.376 . S
C383 C384 1.370 . S
C384 C383 1.370 . S
C384 C385 1.396 . S
C384 H406 0.929 . S
C385 C380 1.373 . S
C385 C384 1.396 . S
C385 H407 0.929 . S
C386 O396 1.240 . S
C386 O397 1.289 . S
C387 O398 1.258 . S
C387 O399 1.256 . S
O388 La368 2.521 . S
O388 C370 1.261 . S
O389 La368 2.628 . S
O389 C370 1.243 . S
O390 La368 2.554 . S
O390 C377 1.240 . S
O391 La368 2.757 . S
O391 La369 2.482 . S
O391 C377 1.289 . S
O392 La368 2.470 . S
O392 C378 1.258 . S
O393 La369 2.503 . S
O393 C378 1.256 . S
O394 La369 2.521 . S
O394 C379 1.261 . S
O395 La369 2.628 . S
O395 C379 1.243 . S
O396 La369 2.554 . S
O396 C386 1.240 . S
O397 La368 2.482 . S
O397 La369 2.757 . S
O397 C386 1.289 . S
O398 La369 2.470 . S
O398 C387 1.258 . S
O399 La368 2.503 . S
O399 C387 1.256 . S
H400 C372 0.930 . S
H401 C373 0.930 . S
H402 C375 0.929 . S
H403 C376 0.929 . S
H404 C381 0.930 . S
H405 C382 0.930 . S
H406 C384 0.929 . S
H407 C385 0.929 . S
La408 C410 2.928 . S
La408 O428 2.521 . S
La408 O429 2.628 . S
La408 O430 2.554 1_455 S
La408 O431 2.757 1_455 S
La408 O432 2.470 . S
La408 O437 2.482 1_554 S
La408 O439 2.503 1_454 S
La409 C419 2.928 . S
La409 O431 2.482 1_556 S
La409 O433 2.503 1_656 S
La409 O434 2.521 . S
La409 O435 2.628 . S
La409 O436 2.554 1_655 S
La409 O437 2.757 1_655 S
La409 O438 2.470 . S
C410 La408 2.928 . S
C410 C411 1.503 . S
C410 O428 1.261 . S
C410 O429 1.243 . S
C411 C410 1.503 . S
C411 C412 1.394 . S
C411 C416 1.373 . S
C412 C411 1.394 . S
C412 C413 1.380 . S
C412 H440 0.930 . S
C413 C412 1.380 . S
C413 C414 1.376 . S
C413 H441 0.930 . S
C414 C413 1.376 . S
C414 C415 1.370 . S
C415 C414 1.370 . S
C415 C416 1.396 . S
C415 H442 0.929 . S
C416 C411 1.373 . S
C416 C415 1.396 . S
C416 H443 0.929 . S
C417 O430 1.240 . S
C417 O431 1.289 . S
C418 O432 1.258 . S
C418 O433 1.256 . S
C419 La409 2.928 . S
C419 C420 1.503 . S
C419 O434 1.261 . S
C419 O435 1.243 . S
C420 C419 1.503 . S
C420 C421 1.394 . S
C420 C425 1.373 . S
C421 C420 1.394 . S
C421 C422 1.380 . S
C421 H444 0.930 . S
C422 C421 1.380 . S
C422 C423 1.376 . S
C422 H445 0.930 . S
C423 C422 1.376 . S
C423 C424 1.370 . S
C424 C423 1.370 . S
C424 C425 1.396 . S
C424 H446 0.929 . S
C425 C420 1.373 . S
C425 C424 1.396 . S
C425 H447 0.929 . S
C426 O436 1.240 . S
C426 O437 1.289 . S
C427 O438 1.258 . S
C427 O439 1.256 . S
O428 La408 2.521 . S
O428 C410 1.261 . S
O429 La408 2.628 . S
O429 C410 1.243 . S
O430 La408 2.554 1_655 S
O430 C417 1.240 . S
O431 La408 2.757 1_655 S
O431 La409 2.482 1_554 S
O431 C417 1.289 . S
O432 La408 2.470 . S
O432 C418 1.258 . S
O433 La409 2.503 1_454 S
O433 C418 1.256 . S
O434 La409 2.521 . S
O434 C419 1.261 . S
O435 La409 2.628 . S
O435 C419 1.243 . S
O436 La409 2.554 1_455 S
O436 C426 1.240 . S
O437 La408 2.482 1_556 S
O437 La409 2.757 1_455 S
O437 C426 1.289 . S
O438 La409 2.470 . S
O438 C427 1.258 . S
O439 La408 2.503 1_656 S
O439 C427 1.256 . S
H440 C412 0.930 . S
H441 C413 0.930 . S
H442 C415 0.929 . S
H443 C416 0.929 . S
H444 C421 0.930 . S
H445 C422 0.930 . S
H446 C424 0.929 . S
H447 C425 0.929 . S
C1 C294 2.246 . S
C67 C343 1.845 . S
C378 C97 3.615 . S
C133 C417 3.618 . S
C338 C25 4.634 . S
C297 C37 1.597 . S
C427 C103 2.511 . S
C386 C109 2.311 . S
C31 C414 3.007 . S
C346 C73 3.330 . S
C139 C307 3.388 . S
C61 C383 2.559 . S
C303 C175 2.071 . S
C181 C334 1.734 . S
C247 C387 3.667 . S
C277 C426 3.565 . S
C145 C347 4.449 . S
C306 C211 1.583 . S
C418 C217 2.457 . S
C377 C283 2.302 . S
C169 C423 2.829 . S
C337 C241 3.354 . S
C298 C253 3.360 . S
C205 C374 2.649 . S
