# Generated by pormake.
# Topology anh, (6,3)-cn, num edge types: 1
# Building blocks:
#     Node 0, Type 0, BuildingBlock: HISSIN_clean_sbu_0, # of connection points: 6
#     Node 1, Type 0, BuildingBlock: HISSIN_clean_sbu_0, # of connection points: 6
#     Node 2, Type 0, BuildingBlock: HISSIN_clean_sbu_0, # of connection points: 6
#     Node 3, Type 1, BuildingBlock: ESEHIV_clean_linker_0, # of connection points: 3
#     Node 4, Type 1, BuildingBlock: ESEHIV_clean_linker_0, # of connection points: 3
#     Node 5, Type 1, BuildingBlock: ESEHIV_clean_linker_0, # of connection points: 3
#     Node 6, Type 1, BuildingBlock: ESEHIV_clean_linker_0, # of connection points: 3
#     Node 7, Type 1, BuildingBlock: ESEHIV_clean_linker_0, # of connection points: 3
#     Node 8, Type 1, BuildingBlock: ESEHIV_clean_linker_0, # of connection points: 3
#     Edge 9, Type (0, 1), BuildingBlock: EZIPEK_clean_linker_0, # of connection points: 2
#     Edge 10, Type (0, 1), BuildingBlock: EZIPEK_clean_linker_0, # of connection points: 2
#     Edge 11, Type (0, 1), BuildingBlock: EZIPEK_clean_linker_0, # of connection points: 2
#     Edge 12, Type (0, 1), BuildingBlock: EZIPEK_clean_linker_0, # of connection points: 2
#     Edge 13, Type (0, 1), BuildingBlock: EZIPEK_clean_linker_0, # of connection points: 2
#     Edge 14, Type (0, 1), BuildingBlock: EZIPEK_clean_linker_0, # of connection points: 2
#     Edge 15, Type (0, 1), BuildingBlock: EZIPEK_clean_linker_0, # of connection points: 2
#     Edge 16, Type (0, 1), BuildingBlock: EZIPEK_clean_linker_0, # of connection points: 2
#     Edge 17, Type (0, 1), BuildingBlock: EZIPEK_clean_linker_0, # of connection points: 2
#     Edge 18, Type (0, 1), BuildingBlock: EZIPEK_clean_linker_0, # of connection points: 2
#     Edge 19, Type (0, 1), BuildingBlock: EZIPEK_clean_linker_0, # of connection points: 2
#     Edge 20, Type (0, 1), BuildingBlock: EZIPEK_clean_linker_0, # of connection points: 2
#     Edge 21, Type (0, 1), BuildingBlock: EZIPEK_clean_linker_0, # of connection points: 2
#     Edge 22, Type (0, 1), BuildingBlock: EZIPEK_clean_linker_0, # of connection points: 2
#     Edge 23, Type (0, 1), BuildingBlock: EZIPEK_clean_linker_0, # of connection points: 2
#     Edge 24, Type (0, 1), BuildingBlock: EZIPEK_clean_linker_0, # of connection points: 2
#     Edge 25, Type (0, 1), BuildingBlock: EZIPEK_clean_linker_0, # of connection points: 2
#     Edge 26, Type (0, 1), BuildingBlock: EZIPEK_clean_linker_0, # of connection points: 2
# Relax obj value: 0.441
# Max RMSD: 0.219
# Mean RMSD: 0.179
data_MOF--net-anh--node1-HISSIN_clean_sbu_0--node2-ESEHIV_clean_linker_0--edge1-EZIPEK_clean_linker_0
_symmetry_space_group_name_H-M    P1
_symmetry_Int_Tables_number       1
_symmetry_cell_setting            triclinic
loop_
_symmetry_equiv_pos_as_xyz
'x, y, z'
_cell_length_a     20.554057
_cell_length_b     20.660201
_cell_length_c     37.753275
_cell_angle_alpha  92.674753
_cell_angle_beta   89.877463
_cell_angle_gamma 120.57715
loop_
_atom_site_label
_atom_site_type_symbol
_atom_site_fract_x
_atom_site_fract_y
_atom_site_fract_z
_atom_type_partial_charge
Eu0 Eu 1.11198 0.52413 0.14788 0.0
Eu1 Eu 0.19927 0.70218 0.15721 0.0
C2 C 1.14909 0.6027 0.22726 0.0
C3 C 1.06568 0.32338 0.15116 0.0
C4 C 1.13067 0.34696 0.17231 0.0
C5 C 1.02104 0.1946 0.16473 0.0
C6 C 1.1389 0.29481 0.19113 0.0
C7 C 1.01309 0.24676 0.14594 0.0
C8 C 1.08116 0.21855 0.18979 0.0
C9 C 1.04873 0.37858 0.13769 0.0
O10 O 0.30118 0.68043 0.15703 0.0
O11 O 0.23799 0.55454 0.14153 0.0
C12 C 0.30346 0.61855 0.14747 0.0
O13 O 1.10823 0.56689 0.09501 0.0
O14 O 0.26838 0.80637 0.18871 0.0
O15 O 0.22838 0.81033 0.13627 0.0
O16 O 0.22113 0.67532 0.10155 0.0
C17 C 1.16816 0.62152 0.08128 0.0
O18 O 1.01028 0.54611 0.14811 0.0
O19 O 1.07523 0.67394 0.14426 0.0
O20 O 1.16042 0.66437 0.213 0.0
O21 O 1.02662 0.41086 0.16143 0.0
O22 O 1.09838 0.42649 0.11662 0.0
O23 O 1.14006 0.545 0.20707 0.0
C24 C 0.35105 0.90902 0.15534 0.0
C25 C 0.37532 0.92703 0.12033 0.0
C26 C 0.47913 0.99428 0.17706 0.0
C27 C 0.45166 0.97724 0.11381 0.0
C28 C 0.40324 0.9456 0.18358 0.0
C29 C 0.50447 1.00871 0.14216 0.0
C30 C 0.27361 0.84905 0.16313 0.0
C31 C 1.00914 0.60937 0.14387 0.0
H32 H 0.1725 0.40622 0.17608 0.0
H33 H 0.97562 0.13657 0.16199 0.0
H34 H 0.1874 0.31549 0.20885 0.0
H35 H 0.96315 0.22763 0.12922 0.0
H36 H 0.33605 0.90063 0.09799 0.0
H37 H 0.51888 1.01821 0.19939 0.0
H38 H 0.46971 0.98919 0.08674 0.0
H39 H 0.386 0.93384 0.2108 0.0
Eu40 Eu 0.69892 1.06426 0.48743 0.0
Eu41 Eu 0.60594 0.14891 0.48531 0.0
C42 C 0.65797 0.11874 0.56274 0.0
C43 C 0.85775 1.02486 0.49445 0.0
C44 C 0.9031 1.09631 0.51129 0.0
C45 C 0.95454 0.99484 0.50626 0.0
C46 C 0.97182 0.11499 0.52761 0.0
C47 C 0.8858 0.97618 0.49011 0.0
C48 C 0.99511 1.06163 0.52812 0.0
C49 C 0.77898 0.99847 0.48457 0.0
O50 O 0.73116 0.24534 0.47594 0.0
O51 O 0.79795 0.18929 0.49059 0.0
C52 C 0.79782 0.2503 0.48085 0.0
O53 O 0.7051 1.1035 0.43296 0.0
O54 O 0.53748 0.19372 0.50742 0.0
O55 O 0.57217 0.21204 0.45297 0.0
O56 O 0.58936 1.09063 0.43134 0.0
C57 C 0.64608 1.09226 0.41508 0.0
O58 O 0.57348 0.96473 0.47567 0.0
O59 O 0.50647 1.02453 0.48562 0.0
O60 O 0.6248 0.14816 0.54503 0.0
O61 O 0.7356 0.99321 0.51083 0.0
O62 O 0.76878 1.02994 0.45784 0.0
O63 O 0.6902 1.08533 0.54625 0.0
C64 C 0.57258 0.31202 0.48458 0.0
C65 C 0.56073 0.35063 0.45799 0.0
C66 C 0.65516 0.43121 0.51651 0.0
C67 C 0.59683 0.42931 0.46041 0.0
C68 C 0.6199 0.35299 0.51394 0.0
C69 C 0.64443 0.4699 0.48969 0.0
C70 C 0.5431 0.23065 0.47933 0.0
C71 C 0.50668 0.96092 0.4783 0.0
H72 H 0.88294 0.1355 0.51406 0.0
H73 H 0.971 0.95274 0.50455 0.0
H74 H 1.00265 0.16823 0.54264 0.0
H75 H 0.85221 0.92151 0.47638 0.0
H76 H 0.52543 0.32003 0.43485 0.0
H77 H 0.69232 0.46189 0.53914 0.0
H78 H 0.58864 0.45852 0.43935 0.0
H79 H 0.63139 0.32489 0.53443 0.0
Eu80 Eu 0.56295 0.58215 0.81885 0.0
Eu81 Eu 0.73671 0.66179 0.82345 0.0
C82 C 0.64761 0.62217 0.89703 0.0
C83 C 0.38832 0.5738 0.79541 0.0
C84 C 0.35363 0.55846 0.76174 0.0
C85 C 0.35984 0.6732 0.80637 0.0
C86 C 0.31828 0.59736 0.75139 0.0
C87 C 0.39618 0.63548 0.81636 0.0
C88 C 0.31286 0.64861 0.77558 0.0
C89 C 0.42127 0.52978 0.80767 0.0
O90 O 0.70346 0.53393 0.82535 0.0
O91 O 0.57864 0.47753 0.80965 0.0
C92 C 0.63902 0.471 0.81538 0.0
O93 O 0.61271 0.63464 0.76734 0.0
O94 O 0.84726 0.70033 0.84782 0.0
O95 O 0.83965 0.72227 0.79291 0.0
O96 O 0.69486 0.59747 0.77137 0.0
C97 C 0.65581 0.61453 0.75109 0.0
O98 O 0.59018 0.7067 0.81975 0.0
O99 O 0.71749 0.76407 0.8138 0.0
O100 O 0.71182 0.66555 0.88169 0.0
O101 O 0.4622 0.51791 0.78472 0.0
O102 O 0.45215 0.5486 0.83952 0.0
O103 O 0.58488 0.58026 0.87804 0.0
C104 C 0.90817 0.66356 0.80726 0.0
C105 C 0.85713 0.59532 0.7887 0.0
C106 C 0.9595 0.59869 0.83768 0.0
C107 C 0.84898 0.52777 0.79909 0.0
C108 C 0.96467 0.66593 0.82882 0.0
C109 C 0.89676 0.52911 0.82574 0.0
C110 C 0.87999 0.71434 0.81714 0.0
C111 C 0.65511 0.76941 0.81436 0.0
H112 H 0.35108 0.51434 0.74406 0.0
H113 H 0.36182 0.71526 0.82524 0.0
H114 H 0.28764 0.58049 0.72625 0.0
H115 H 0.4271 0.6525 0.84151 0.0
H116 H 0.81472 0.59236 0.77079 0.0
H117 H 0.99798 0.60096 0.85792 0.0
H118 H 0.80051 0.47524 0.78927 0.0
H119 H 1.00519 0.71779 0.84315 0.0
H120 H 0.65244 1.06967 0.24161 0.0
H121 H 0.83267 1.07997 0.30373 0.0
H122 H 0.85494 1.10644 0.19097 0.0
C123 C 0.70764 1.07488 0.24307 0.0
C124 C 0.74897 1.08469 0.21222 0.0
C125 C 0.73842 1.07496 0.27601 0.0
C126 C 0.80927 1.08077 0.27814 0.0
C127 C 0.85226 1.09341 0.24764 0.0
C128 C 0.82196 1.09593 0.21469 0.0
H129 H 0.90221 0.84796 0.65137 0.0
H130 H 0.73164 0.65119 0.59276 0.0
H131 H 0.89414 0.84043 0.53678 0.0
C132 C 0.87674 0.81871 0.62611 0.0
C133 C 0.90606 0.85378 0.59419 0.0
C134 C 0.81162 0.74713 0.62529 0.0
C135 C 0.78073 0.70759 0.59299 0.0
C136 C 0.81145 0.74013 0.56102 0.0
C137 C 0.87239 0.81422 0.56163 0.0
H138 H 1.0166 0.46042 0.95489 0.0
H139 H 0.21658 0.62944 0.90544 0.0
H140 H 1.02143 0.48091 0.84202 0.0
C141 C 1.04644 0.48506 0.931 0.0
C142 C 1.00957 0.45827 0.89783 0.0
C143 C 1.12015 0.54779 0.93381 0.0
C144 C 1.15967 0.58124 0.90313 0.0
C145 C 1.1233 0.55514 0.86973 0.0
C146 C 1.04884 0.49569 0.86781 0.0
H147 H 1.04071 0.49168 0.38707 0.0
H148 H 0.25075 0.70142 0.38743 0.0
H149 H 1.15296 0.60522 0.4873 0.0
C150 C 1.08697 0.53809 0.40224 0.0
C151 C 1.08672 0.53759 0.4398 0.0
C152 C 1.14554 0.59636 0.38354 0.0
C153 C 0.20665 0.65746 0.40244 0.0
C154 C 0.21222 0.66436 0.4399 0.0
C155 C 1.15088 0.60264 0.45861 0.0
H156 H 0.65874 0.22366 0.72408 0.0
H157 H 0.6542 1.01444 0.72175 0.0
H158 H 0.63465 0.1125 0.82238 0.0
C159 C 0.65438 0.17798 0.7389 0.0
C160 C 0.64414 0.1788 0.77608 0.0
C161 C 0.65509 0.11845 0.71945 0.0
C162 C 0.65257 1.05886 0.73745 0.0
C163 C 0.64926 1.05533 0.77491 0.0
C164 C 0.64215 0.11553 0.79403 0.0
H165 H 0.5513 0.61794 0.0578 0.0
H166 H 0.75718 0.61317 0.05495 0.0
H167 H 0.65654 0.6126 0.15628 0.0
C168 C 0.59589 0.61637 0.07233 0.0
C169 C 0.59365 0.61595 0.10973 0.0
C170 C 0.65406 0.61562 0.05286 0.0
C171 C 0.71325 0.61363 0.07072 0.0
C172 C 0.71729 0.61176 0.10808 0.0
C173 C 0.65587 0.61332 0.12765 0.0
C174 C 0.44314 0.67992 0.12322 0.0
C175 C 0.38168 0.62104 0.14161 0.0
C176 C 0.46227 0.55974 0.14282 0.0
C177 C 0.52533 0.62121 0.12668 0.0
N178 N 0.57758 0.74837 0.10968 0.0
N179 N 0.34548 0.51292 0.17598 0.0
C180 C 0.51578 0.68362 0.11963 0.0
C181 C 0.39522 0.56331 0.15327 0.0
N182 N 0.43133 0.73066 0.10675 0.0
N183 N 0.46471 0.49587 0.1472 0.0
H184 H 0.29944 0.51583 0.18565 0.0
H185 H 0.35443 0.47393 0.18827 0.0
H186 H 0.51208 0.49192 0.14097 0.0
H187 H 0.41822 0.44562 0.15458 0.0
H188 H 0.46984 0.76944 0.08967 0.0
H189 H 0.3798 0.72885 0.10679 0.0
H190 H 0.57776 0.79841 0.10754 0.0
H191 H 0.63086 0.75406 0.10742 0.0
C192 C 0.89166 0.39893 0.48655 0.0
C193 C 0.87483 0.32535 0.47326 0.0
C194 C 1.00504 0.39184 0.44696 0.0
C195 C 1.01822 0.46576 0.45637 0.0
N196 N 0.96632 0.53651 0.48339 0.0
N197 N 0.91566 0.25829 0.43393 0.0
C198 C 0.95924 0.46798 0.47587 0.0
C199 C 0.93214 0.32401 0.4519 0.0
N200 N 0.84409 0.40324 0.51058 0.0
N201 N 1.06372 0.38584 0.43371 0.0
H202 H 0.8635 0.20884 0.43504 0.0
H203 H 0.95049 0.25476 0.41481 0.0
H204 H 1.11717 0.43271 0.43034 0.0
H205 H 1.06191 0.33469 0.42981 0.0
H206 H 0.85526 0.45286 0.52427 0.0
H207 H 0.79636 0.35567 0.51937 0.0
H208 H 0.92371 0.54346 0.49437 0.0
H209 H 1.01379 0.58676 0.47666 0.0
C210 C 0.70869 0.90065 0.7835 0.0
C211 C 0.65651 0.8463 0.80716 0.0
C212 C 0.59742 0.92945 0.81111 0.0
C213 C 0.65484 0.98736 0.79067 0.0
N214 N 0.77794 1.03107 0.7664 0.0
N215 N 0.56074 0.82519 0.84988 0.0
C216 C 0.71409 0.97343 0.77986 0.0
C217 C 0.60365 0.86562 0.82263 0.0
N218 N 0.75053 0.88165 0.762 0.0
N219 N 0.53438 0.93301 0.81863 0.0
H220 H 0.56645 0.78298 0.86087 0.0
H221 H 0.52635 0.83964 0.86436 0.0
H222 H 0.52772 0.97724 0.81109 0.0
H223 H 0.48644 0.88903 0.82947 0.0
H224 H 0.78343 0.91516 0.74184 0.0
H225 H 0.74487 0.82859 0.76096 0.0
H226 H 0.82598 1.02774 0.7611 0.0
H227 H 0.78593 1.08488 0.76456 0.0
C228 C 0.91548 0.6624 0.154 0.0
C229 C 0.93141 0.60773 0.13744 0.0
C230 C 0.79876 0.5466 0.11078 0.0
C231 C 0.78681 0.60648 0.12328 0.0
N232 N 0.84416 0.72822 0.15387 0.0
N233 N 0.88686 0.50547 0.09308 0.0
C234 C 0.8482 0.66596 0.1442 0.0
C235 C 0.87213 0.55173 0.11421 0.0
N236 N 0.96308 0.70979 0.18059 0.0
N237 N 0.7386 0.48265 0.09585 0.0
H238 H 0.93935 0.50925 0.09277 0.0
H239 H 0.85003 0.46941 0.07288 0.0
H240 H 0.68485 0.47585 0.09355 0.0
H241 H 0.73999 0.43377 0.08949 0.0
H242 H 0.95174 0.74553 0.1963 0.0
H243 H 1.00983 0.70757 0.1895 0.0
H244 H 0.88958 0.7775 0.1652 0.0
H245 H 0.79689 0.73239 0.14805 0.0
C246 C 0.41451 0.81322 0.48423 0.0
C247 C 0.42908 0.8837 0.47109 0.0
C248 C 0.29398 0.81118 0.44752 0.0
C249 C 0.28284 0.73947 0.45629 0.0
N250 N 0.34165 0.6751 0.47977 0.0
N251 N 0.38107 0.94019 0.4322 0.0
C252 C 0.34582 0.74172 0.47388 0.0
C253 C 0.36788 0.87976 0.45084 0.0
N254 N 0.46488 0.81422 0.50804 0.0
N255 N 0.23273 0.8144 0.43616 0.0
H256 H 0.43394 0.98882 0.43135 0.0
H257 H 0.34209 0.93857 0.41406 0.0
H258 H 0.1786 0.76692 0.43394 0.0
H259 H 0.2341 0.86485 0.4328 0.0
H260 H 0.45493 0.76721 0.52145 0.0
H261 H 0.51306 0.8638 0.5172 0.0
H262 H 0.38772 0.67138 0.48834 0.0
H263 H 0.29317 0.62319 0.47357 0.0
C264 C 0.59762 0.34361 0.77736 0.0
C265 C 0.63503 0.39185 0.80829 0.0
C266 C 0.67152 0.29458 0.82297 0.0
C267 C 0.63368 0.24676 0.79186 0.0
N268 N 0.53228 0.21635 0.7502 0.0
N269 N 0.68698 0.39541 0.86571 0.0
C270 C 0.58856 0.26898 0.77243 0.0
C271 C 0.66593 0.36176 0.83252 0.0
N272 N 0.57193 0.36916 0.75128 0.0
N273 N 0.71408 0.27698 0.84356 0.0
H274 H 0.68395 0.44289 0.87335 0.0
H275 H 0.69998 0.37239 0.88657 0.0
H276 H 0.72412 0.23365 0.83649 0.0
H277 H 0.74334 0.30785 0.86651 0.0
H278 H 0.55256 0.34079 0.72655 0.0
H279 H 0.57668 0.4218 0.7528 0.0
H280 H 0.49265 0.22555 0.73781 0.0
H281 H 0.51919 0.16043 0.74803 0.0
C282 C 1.0123 1.06474 0.59157 0.0
C283 C 1.04325 1.06376 0.5585 0.0
C284 C 1.03397 0.94603 0.57251 0.0
C285 C 0.97088 0.93218 0.59354 0.0
N286 N 0.90782 0.98635 0.62802 0.0
N287 N 1.1266 1.03008 0.5307 0.0
C288 C 0.96372 0.99446 0.6059 0.0
C289 C 1.07205 1.01492 0.55483 0.0
N290 N 1.02482 0.13084 0.60719 0.0
N291 N 1.05273 0.89173 0.56789 0.0
H292 H 1.14985 1.0796 0.51701 0.0
H293 H 1.14868 0.99547 0.52478 0.0
H294 H 1.02473 0.84179 0.58121 0.0
H295 H 1.09703 0.89726 0.55242 0.0
H296 H 1.00485 0.13431 0.63221 0.0
H297 H 1.06156 0.182 0.59608 0.0
H298 H 0.89778 1.03019 0.63422 0.0
H299 H 0.86915 0.93567 0.63861 0.0
C300 C 0.86382 0.47279 0.88448 0.0
C301 C 0.87329 0.46336 0.84757 0.0
C302 C 0.90116 0.36589 0.86091 0.0
C303 C 0.92629 0.40363 0.89456 0.0
N304 N 0.86972 0.43235 0.94346 0.0
N305 N 0.8767 0.38266 0.7999 0.0
C306 C 0.88424 0.43481 0.90826 0.0
C307 C 0.88043 0.4012 0.83524 0.0
N308 N 0.84162 0.5218 0.89629 0.0
N309 N 0.90893 0.30544 0.85285 0.0
H310 H 0.86299 0.40915 0.78096 0.0
H311 H 0.88811 0.34198 0.78955 0.0
H312 H 0.92992 0.28519 0.87192 0.0
H313 H 0.89059 0.27398 0.82882 0.0
H314 H 0.84096 0.53621 0.92305 0.0
H315 H 0.82465 0.54836 0.87874 0.0
H316 H 0.83687 0.45251 0.95494 0.0
H317 H 0.8863 0.40407 0.96013 0.0
C318 C 0.62151 1.00661 0.13157 0.0
C319 C 0.58727 1.05043 0.13707 0.0
C320 C 0.69612 0.14178 0.17357 0.0
C321 C 0.71426 1.08497 0.17794 0.0
N322 N 0.70277 0.96717 0.15714 0.0
N323 N 0.60058 0.1696 0.15379 0.0
C324 C 0.68159 1.01968 0.15475 0.0
C325 C 0.62934 0.12294 0.15395 0.0
N326 N 0.59458 0.95124 0.10526 0.0
N327 N 0.74054 0.2113 0.18989 0.0
H328 H 0.5517 0.15496 0.13893 0.0
H329 H 0.6238 0.22095 0.16823 0.0
H330 H 0.78939 0.22456 0.2044 0.0
H331 H 0.73243 0.25656 0.18701 0.0
H332 H 0.62271 0.92307 0.09755 0.0
H333 H 0.54981 0.94078 0.08841 0.0
H334 H 0.6741 0.91432 0.14392 0.0
H335 H 0.7474 0.97538 0.17348 0.0
C336 C 0.65217 0.59269 0.50654 0.0
C337 C 0.687 0.55326 0.49259 0.0
C338 C 0.81202 0.65905 0.50959 0.0
C339 C 0.7765 0.69397 0.52773 0.0
N340 N 0.6698 0.71122 0.53178 0.0
N341 N 0.79739 0.55938 0.46768 0.0
C342 C 0.69873 0.66688 0.52152 0.0
C343 C 0.76637 0.59074 0.48932 0.0
N344 N 0.57524 0.55735 0.50787 0.0
N345 N 0.8878 0.68725 0.5142 0.0
H346 H 0.76411 0.50848 0.45314 0.0
H347 H 0.85432 0.58738 0.46134 0.0
H348 H 0.92329 0.73797 0.52826 0.0
H349 H 0.91508 0.65905 0.50515 0.0
H350 H 0.54668 0.58011 0.5214 0.0
H351 H 0.53986 0.50349 0.49642 0.0
H352 H 0.61442 0.69719 0.52619 0.0
H353 H 0.70421 0.76555 0.54311 0.0
C354 C 0.17741 0.58026 0.77318 0.0
C355 C 0.24171 0.65221 0.77601 0.0
C356 C 0.19377 0.6703 0.83254 0.0
C357 C 1.15908 0.59082 0.8361 0.0
N358 N 1.1243 0.4693 0.8062 0.0
N359 N 0.28478 0.77714 0.79917 0.0
C360 C 1.15064 0.54454 0.80509 0.0
C361 C 0.23824 0.70175 0.80199 0.0
N362 N 1.1496 0.54413 0.741 0.0
N363 N 0.18276 0.71402 0.85715 0.0
H364 H 0.31809 0.7977 0.77686 0.0
H365 H 0.29206 0.81747 0.81883 0.0
H366 H 1.14667 0.69137 0.87831 0.0
H367 H 0.20367 0.77124 0.85475 0.0
H368 H 1.10169 0.49039 0.73841 0.0
H369 H 0.17159 0.57183 0.71764 0.0
H370 H 1.12179 0.4368 0.78365 0.0
H371 H 1.11382 0.44184 0.82984 0.0
C372 C 1.0221 1.09243 0.21389 0.0
C373 C 1.07152 0.1704 0.22015 0.0
C374 C 0.99044 0.17707 0.26441 0.0
C375 C 0.93058 1.10773 0.24927 0.0
N376 N 0.89369 0.98711 0.22031 0.0
N377 N 1.12697 0.25485 0.27125 0.0
C378 C 0.94839 1.06005 0.22822 0.0
C379 C 1.06436 0.20107 0.2529 0.0
N380 N 1.04271 1.05441 0.19046 0.0
N381 N 0.97709 0.22262 0.28675 0.0
H382 H 0.181 0.2701 0.26263 0.0
H383 H 1.12446 0.27717 0.29623 0.0
H384 H 0.92358 0.20833 0.29545 0.0
H385 H 1.01954 0.27679 0.29509 0.0
H386 H 1.00895 0.99754 0.18299 0.0
H387 H 1.09608 1.08185 0.1792 0.0
H388 H 0.90189 0.94958 0.20434 0.0
H389 H 0.84006 0.96387 0.23116 0.0
C390 C 1.13253 0.64541 0.02243 0.0
C391 C 0.17416 0.62177 0.04242 0.0
C392 C 0.1954 0.56367 0.98907 0.0
C393 C 1.15033 0.5838 0.96942 0.0
N394 N 1.09184 0.65883 0.96431 0.0
N395 N 0.26131 0.57664 0.04467 0.0
C396 C 1.12447 0.63012 0.98515 0.0
C397 C 0.21136 0.58722 0.02558 0.0
N398 N 1.09818 0.67957 0.03943 0.0
N399 N 0.21953 0.51902 0.97319 0.0
H400 H 0.27376 0.5935 0.07144 0.0
H401 H 0.2951 0.55732 0.03355 0.0
H402 H 0.21082 0.50319 0.94618 0.0
H403 H 0.24504 0.49482 0.98686 0.0
H404 H 1.0593 0.69 0.02726 0.0
H405 H 1.10651 0.69506 0.06649 0.0
H406 H 1.07786 0.6984 0.97346 0.0
H407 H 1.08403 0.64751 0.93695 0.0
C408 C 0.61738 1.01796 0.35785 0.0
C409 C 0.64913 1.08916 0.37623 0.0
C410 C 0.72277 0.15114 0.32467 0.0
C411 C 0.70107 1.07917 0.30874 0.0
N412 N 0.62613 0.94389 0.30811 0.0
N413 N 0.72766 0.22403 0.37795 0.0
C414 C 0.64678 1.01233 0.32446 0.0
C415 C 0.69953 0.1561 0.35956 0.0
N416 N 0.56011 0.95616 0.37277 0.0
N417 N 0.7655 0.21442 0.30634 0.0
H418 H 0.70738 0.2295 0.40261 0.0
H419 H 0.77235 0.27435 0.36957 0.0
H420 H 0.78503 0.21304 0.28096 0.0
H421 H 0.77727 0.26793 0.31503 0.0
H422 H 0.53039 0.90298 0.35999 0.0
H423 H 0.53806 0.95966 0.39723 0.0
H424 H 0.5927 0.89269 0.31961 0.0
H425 H 0.64539 0.9383 0.2832 0.0
C426 C 0.73053 0.61257 0.69893 0.0
C427 C 0.67972 0.63316 0.71383 0.0
C428 C 0.71319 0.72663 0.66931 0.0
C429 C 0.77104 0.71289 0.65772 0.0
N430 N 0.83914 0.64705 0.66227 0.0
N431 N 0.59704 0.68059 0.70149 0.0
C432 C 0.78066 0.65666 0.6726 0.0
C433 C 0.66343 0.68207 0.69577 0.0
N434 N 0.72653 0.54749 0.70811 0.0
N435 N 0.70653 0.78294 0.65532 0.0
H436 H 0.55405 0.63972 0.71623 0.0
H437 H 0.57945 0.71149 0.68753 0.0
H438 H 0.74021 0.81505 0.63497 0.0
H439 H 0.67169 0.80175 0.66565 0.0
H440 H 0.75755 0.52574 0.69616 0.0
H441 H 0.68495 0.51029 0.72464 0.0
H442 H 0.85424 0.61274 0.67495 0.0
H443 H 0.87684 0.67844 0.64286 0.0
C444 C 0.58756 1.08424 0.62104 0.0
C445 C 0.65728 0.12078 0.60298 0.0
C446 C 0.72553 0.14923 0.66101 0.0
C447 C 0.65602 0.11792 0.67915 0.0
N448 N 0.52095 1.06375 0.67652 0.0
N449 N 0.79303 0.19792 0.60649 0.0
C450 C 0.58716 1.08803 0.65911 0.0
C451 C 0.72638 0.15565 0.62323 0.0
N452 N 0.5215 1.04215 0.60183 0.0
N453 N 0.79095 0.17196 0.6799 0.0
H454 H 0.79586 0.20501 0.57924 0.0
H455 H 0.84478 0.23132 0.61979 0.0
H456 H 0.79279 0.1704 0.70744 0.0
H457 H 0.84237 0.18714 0.66822 0.0
H458 H 0.46973 1.00706 0.61318 0.0
H459 H 0.51908 1.03689 0.5742 0.0
H460 H 0.47028 1.05041 0.66394 0.0
H461 H 0.51753 1.06169 0.70404 0.0
C462 C 0.62728 0.55162 0.95348 0.0
C463 C 0.64675 0.61965 0.937 0.0
C464 C 0.67703 0.68607 0.9963 0.0
C465 C 0.65261 0.61711 0.01281 0.0
N466 N 0.59434 0.48223 0.00732 0.0
N467 N 0.678 0.74895 0.94322 0.0
C468 C 0.62491 0.54935 0.99139 0.0
C469 C 0.66853 0.68621 0.95861 0.0
N470 N 0.61408 0.48969 0.93292 0.0
N471 N 0.71022 0.75199 0.01663 0.0
H472 H 0.67125 0.75092 0.91598 0.0
H473 H 0.68581 0.79675 0.95756 0.0
H474 H 0.71632 0.75404 0.04416 0.0
H475 H 0.73703 0.80493 0.00613 0.0
H476 H 0.60889 0.44137 0.94311 0.0
H477 H 0.61402 0.48852 0.9053 0.0
H478 H 0.56518 0.43009 0.9935 0.0
H479 H 0.59307 0.47839 0.03479 0.0
C480 C 0.19578 0.58173 0.28593 0.0
C481 C 1.14616 0.59822 0.26726 0.0
C482 C 1.09779 0.61596 0.3249 0.0
C483 C 1.14339 0.59417 0.3433 0.0
N484 N 0.22603 0.54348 0.34057 0.0
N485 N 1.03913 0.61625 0.2691 0.0
C486 C 0.18939 0.57317 0.3235 0.0
C487 C 1.09427 0.6114 0.28685 0.0
N488 N 0.25189 0.57805 0.26812 0.0
N489 N 1.05926 0.6432 0.34383 0.0
H490 H 1.03335 0.61142 0.24151 0.0
H491 H 0.99473 0.61777 0.28165 0.0
H492 H 1.05927 0.64617 0.37149 0.0
H493 H 1.0322 0.66829 0.33225 0.0
H494 H 0.29491 0.57444 0.28067 0.0
H495 H 0.25986 0.58567 0.24101 0.0
H496 H 0.25356 0.5192 0.32738 0.0
H497 H 0.22331 0.5371 0.36789 0.0
loop_
_geom_bond_atom_site_label_1
_geom_bond_atom_site_label_2
_geom_bond_distance
_geom_bond_site_symmetry_2
_ccdc_geom_bond_type
Eu0 C9 2.828 . S
Eu0 O11 2.392 1_655 S
Eu0 O13 2.418 . S
Eu0 O18 2.373 . S
Eu0 O21 2.488 . S
Eu0 O22 2.471 . S
Eu0 O23 2.349 . S
Eu1 O10 2.373 . S
Eu1 O14 2.488 . S
Eu1 O15 2.471 . S
Eu1 O16 2.349 . S
Eu1 O19 2.392 1_455 S
Eu1 O20 2.418 . S
Eu1 C30 2.828 . S
C2 O20 1.244 . S
C2 O23 1.265 1_455 S
C3 C4 1.379 . S
C3 C7 1.373 . S
C3 C9 1.505 . S
C4 C3 1.379 . S
C4 C6 1.369 . S
C4 H32 0.930 . S
C5 C7 1.383 . S
C5 C8 1.382 . S
C5 H33 0.930 . S
C6 C4 1.369 . S
C6 C8 1.392 . S
C6 H34 0.930 . S
C7 C3 1.373 . S
C7 C5 1.383 . S
C7 H35 0.931 . S
C8 C5 1.382 . S
C8 C6 1.392 . S
C9 Eu0 2.828 . S
C9 C3 1.505 . S
C9 O21 1.249 . S
C9 O22 1.244 . S
O10 Eu1 2.373 . S
O10 C12 1.258 . S
O11 Eu0 2.392 1_455 S
O11 C12 1.242 . S
C12 O10 1.258 . S
C12 O11 1.242 . S
O13 Eu0 2.418 . S
O13 C17 1.244 . S
O14 Eu1 2.488 . S
O14 C30 1.249 . S
O15 Eu1 2.471 . S
O15 C30 1.244 . S
O16 Eu1 2.349 . S
O16 C17 1.265 1_455 S
C17 O13 1.244 . S
C17 O16 1.265 1_655 S
O18 Eu0 2.373 . S
O18 C31 1.258 . S
O19 Eu1 2.392 1_655 S
O19 C31 1.242 . S
O20 Eu1 2.418 . S
O20 C2 1.244 . S
O21 Eu0 2.488 . S
O21 C9 1.249 . S
O22 Eu0 2.471 . S
O22 C9 1.244 . S
O23 Eu0 2.349 . S
O23 C2 1.265 1_655 S
C24 C25 1.379 . S
C24 C28 1.373 . S
C24 C30 1.505 . S
C25 C24 1.379 . S
C25 C27 1.369 . S
C25 H36 0.930 . S
C26 C28 1.383 . S
C26 C29 1.382 . S
C26 H37 0.930 . S
C27 C25 1.369 . S
C27 C29 1.392 . S
C27 H38 0.930 . S
C28 C24 1.373 . S
C28 C26 1.383 . S
C28 H39 0.931 . S
C29 C26 1.382 . S
C29 C27 1.392 . S
C30 Eu1 2.828 . S
C30 O14 1.249 . S
C30 O15 1.244 . S
C30 C24 1.505 . S
C31 O18 1.258 . S
C31 O19 1.242 . S
H32 C4 0.930 . S
H33 C5 0.930 . S
H34 C6 0.930 . S
H35 C7 0.931 . S
H36 C25 0.930 . S
H37 C26 0.930 . S
H38 C27 0.930 . S
H39 C28 0.931 . S
Eu40 C49 2.828 . S
Eu40 O51 2.392 1_565 S
Eu40 O53 2.418 . S
Eu40 O58 2.373 . S
Eu40 O61 2.488 . S
Eu40 O62 2.471 . S
Eu40 O63 2.349 . S
Eu41 O50 2.373 . S
Eu41 O54 2.488 . S
Eu41 O55 2.471 . S
Eu41 O56 2.349 . S
Eu41 O59 2.392 1_545 S
Eu41 O60 2.418 . S
Eu41 C70 2.828 . S
C42 O60 1.244 . S
C42 O63 1.265 1_545 S
C43 C44 1.379 . S
C43 C47 1.373 . S
C43 C49 1.505 . S
C44 C43 1.379 . S
C44 C46 1.369 . S
C44 H72 0.930 . S
C45 C47 1.383 . S
C45 C48 1.382 . S
C45 H73 0.930 . S
C46 C44 1.369 . S
C46 C48 1.392 . S
C46 H74 0.930 . S
C47 C43 1.373 . S
C47 C45 1.383 . S
C47 H75 0.931 . S
C48 C45 1.382 . S
C48 C46 1.392 . S
C49 Eu40 2.828 . S
C49 C43 1.505 . S
C49 O61 1.249 . S
C49 O62 1.244 . S
O50 Eu41 2.373 . S
O50 C52 1.258 . S
O51 Eu40 2.392 1_545 S
O51 C52 1.242 . S
C52 O50 1.258 . S
C52 O51 1.242 . S
O53 Eu40 2.418 . S
O53 C57 1.244 . S
O54 Eu41 2.488 . S
O54 C70 1.249 . S
O55 Eu41 2.471 . S
O55 C70 1.244 . S
O56 Eu41 2.349 . S
O56 C57 1.265 1_545 S
C57 O53 1.244 . S
C57 O56 1.265 1_565 S
O58 Eu40 2.373 . S
O58 C71 1.258 . S
O59 Eu41 2.392 1_565 S
O59 C71 1.242 . S
O60 Eu41 2.418 . S
O60 C42 1.244 . S
O61 Eu40 2.488 . S
O61 C49 1.249 . S
O62 Eu40 2.471 . S
O62 C49 1.244 . S
O63 Eu40 2.349 . S
O63 C42 1.265 1_565 S
C64 C65 1.379 . S
C64 C68 1.373 . S
C64 C70 1.505 . S
C65 C64 1.379 . S
C65 C67 1.369 . S
C65 H76 0.930 . S
C66 C68 1.383 . S
C66 C69 1.382 . S
C66 H77 0.930 . S
C67 C65 1.369 . S
C67 C69 1.392 . S
C67 H78 0.930 . S
C68 C64 1.373 . S
C68 C66 1.383 . S
C68 H79 0.931 . S
C69 C66 1.382 . S
C69 C67 1.392 . S
C70 Eu41 2.828 . S
C70 O54 1.249 . S
C70 O55 1.244 . S
C70 C64 1.505 . S
C71 O58 1.258 . S
C71 O59 1.242 . S
H72 C44 0.930 . S
H73 C45 0.930 . S
H74 C46 0.930 . S
H75 C47 0.931 . S
H76 C65 0.930 . S
H77 C66 0.930 . S
H78 C67 0.930 . S
H79 C68 0.931 . S
Eu80 C89 2.828 . S
Eu80 O91 2.392 . S
Eu80 O93 2.418 . S
Eu80 O98 2.373 . S
Eu80 O101 2.488 . S
Eu80 O102 2.471 . S
Eu80 O103 2.349 . S
Eu81 O90 2.373 . S
Eu81 O94 2.488 . S
Eu81 O95 2.471 . S
Eu81 O96 2.349 . S
Eu81 O99 2.392 . S
Eu81 O100 2.418 . S
Eu81 C110 2.828 . S
C82 O100 1.244 . S
C82 O103 1.265 . S
C83 C84 1.379 . S
C83 C87 1.373 . S
C83 C89 1.505 . S
C84 C83 1.379 . S
C84 C86 1.369 . S
C84 H112 0.930 . S
C85 C87 1.383 . S
C85 C88 1.382 . S
C85 H113 0.930 . S
C86 C84 1.369 . S
C86 C88 1.392 . S
C86 H114 0.930 . S
C87 C83 1.373 . S
C87 C85 1.383 . S
C87 H115 0.931 . S
C88 C85 1.382 . S
C88 C86 1.392 . S
C89 Eu80 2.828 . S
C89 C83 1.505 . S
C89 O101 1.249 . S
C89 O102 1.244 . S
O90 Eu81 2.373 . S
O90 C92 1.258 . S
O91 Eu80 2.392 . S
O91 C92 1.242 . S
C92 O90 1.258 . S
C92 O91 1.242 . S
O93 Eu80 2.418 . S
O93 C97 1.244 . S
O94 Eu81 2.488 . S
O94 C110 1.249 . S
O95 Eu81 2.471 . S
O95 C110 1.244 . S
O96 Eu81 2.349 . S
O96 C97 1.265 . S
C97 O93 1.244 . S
C97 O96 1.265 . S
O98 Eu80 2.373 . S
O98 C111 1.258 . S
O99 Eu81 2.392 . S
O99 C111 1.242 . S
O100 Eu81 2.418 . S
O100 C82 1.244 . S
O101 Eu80 2.488 . S
O101 C89 1.249 . S
O102 Eu80 2.471 . S
O102 C89 1.244 . S
O103 Eu80 2.349 . S
O103 C82 1.265 . S
C104 C105 1.379 . S
C104 C108 1.373 . S
C104 C110 1.505 . S
C105 C104 1.379 . S
C105 C107 1.369 . S
C105 H116 0.930 . S
C106 C108 1.383 . S
C106 C109 1.382 . S
C106 H117 0.930 . S
C107 C105 1.369 . S
C107 C109 1.392 . S
C107 H118 0.930 . S
C108 C104 1.373 . S
C108 C106 1.383 . S
C108 H119 0.931 . S
C109 C106 1.382 . S
C109 C107 1.392 . S
C110 Eu81 2.828 . S
C110 O94 1.249 . S
C110 O95 1.244 . S
C110 C104 1.505 . S
C111 O98 1.258 . S
C111 O99 1.242 . S
H112 C84 0.930 . S
H113 C85 0.930 . S
H114 C86 0.930 . S
H115 C87 0.931 . S
H116 C105 0.930 . S
H117 C106 0.930 . S
H118 C107 0.930 . S
H119 C108 0.931 . S
H120 C123 0.931 . S
H121 C126 0.928 . S
H122 C128 0.930 . S
C123 H120 0.931 . S
C123 C124 1.413 . S
C123 C125 1.360 1_565 S
C124 C123 1.413 . S
C124 C128 1.429 1_565 S
C125 C123 1.360 1_545 S
C125 C126 1.372 . S
C126 H121 0.928 . S
C126 C125 1.372 . S
C126 C127 1.404 . S
C127 C126 1.404 . S
C127 C128 1.391 . S
C128 H122 0.930 . S
C128 C124 1.429 1_545 S
C128 C127 1.391 . S
H129 C132 0.931 . S
H130 C135 0.928 . S
H131 C137 0.930 . S
C132 H129 0.931 . S
C132 C133 1.413 . S
C132 C134 1.360 . S
C133 C132 1.413 . S
C133 C137 1.429 . S
C134 C132 1.360 . S
C134 C135 1.372 . S
C135 H130 0.928 . S
C135 C134 1.372 . S
C135 C136 1.404 . S
C136 C135 1.404 . S
C136 C137 1.391 . S
C137 H131 0.930 . S
C137 C133 1.429 . S
C137 C136 1.391 . S
H138 C141 0.931 . S
H139 C144 0.928 . S
H140 C146 0.930 . S
C141 H138 0.931 . S
C141 C142 1.413 . S
C141 C143 1.360 1_655 S
C142 C141 1.413 . S
C142 C146 1.429 1_655 S
C143 C141 1.360 1_455 S
C143 C144 1.372 . S
C144 H139 0.928 . S
C144 C143 1.372 . S
C144 C145 1.404 . S
C145 C144 1.404 . S
C145 C146 1.391 . S
C146 H140 0.930 . S
C146 C142 1.429 1_455 S
C146 C145 1.391 . S
H147 C150 0.931 . S
H148 C153 0.928 . S
H149 C155 0.930 . S
C150 H147 0.931 . S
C150 C151 1.413 . S
C150 C152 1.360 1_655 S
C151 C150 1.413 . S
C151 C155 1.429 1_655 S
C152 C150 1.360 1_455 S
C152 C153 1.372 . S
C153 H148 0.928 . S
C153 C152 1.372 . S
C153 C154 1.404 . S
C154 C153 1.404 . S
C154 C155 1.391 . S
C155 H149 0.930 . S
C155 C151 1.429 1_455 S
C155 C154 1.391 . S
H156 C159 0.931 . S
H157 C162 0.928 . S
H158 C164 0.930 . S
C159 H156 0.931 . S
C159 C160 1.413 . S
C159 C161 1.360 . S
C160 C159 1.413 . S
C160 C164 1.429 . S
C161 C159 1.360 . S
C161 C162 1.372 1_545 S
C162 H157 0.928 . S
C162 C161 1.372 1_565 S
C162 C163 1.404 . S
C163 C162 1.404 . S
C163 C164 1.391 1_565 S
C164 H158 0.930 . S
C164 C160 1.429 . S
C164 C163 1.391 1_545 S
H165 C168 0.931 . S
H166 C171 0.928 . S
H167 C173 0.930 . S
C168 H165 0.931 . S
C168 C169 1.413 . S
C168 C170 1.360 . S
C169 C168 1.413 . S
C169 C173 1.429 . S
C170 C168 1.360 . S
C170 C171 1.372 . S
C171 H166 0.928 . S
C171 C170 1.372 . S
C171 C172 1.404 . S
C172 C171 1.404 . S
C172 C173 1.391 . S
C173 H167 0.930 . S
C173 C169 1.429 . S
C173 C172 1.391 . S
C174 C175 1.363 . S
C174 C180 1.379 . S
C174 N182 1.356 . S
C175 C174 1.363 . S
C175 C181 1.363 . S
C176 C177 1.363 . S
C176 C181 1.379 . S
C176 N183 1.356 . S
C177 C176 1.363 . S
C177 C180 1.363 . S
N178 C180 1.356 . S
N178 H190 0.984 . S
N178 H191 0.985 . S
N179 C181 1.356 . S
N179 H184 0.984 . S
N179 H185 0.985 . S
C180 C174 1.379 . S
C180 C177 1.363 . S
C180 N178 1.356 . S
C181 C175 1.363 . S
C181 C176 1.379 . S
C181 N179 1.356 . S
N182 C174 1.356 . S
N182 H188 0.984 . S
N182 H189 0.984 . S
N183 C176 1.356 . S
N183 H186 0.984 . S
N183 H187 0.985 . S
H184 N179 0.984 . S
H185 N179 0.985 . S
H186 N183 0.984 . S
H187 N183 0.985 . S
H188 N182 0.984 . S
H189 N182 0.984 . S
H190 N178 0.984 . S
H191 N178 0.985 . S
C192 C193 1.363 . S
C192 C198 1.379 . S
C192 N200 1.356 . S
C193 C192 1.363 . S
C193 C199 1.363 . S
C194 C195 1.363 . S
C194 C199 1.379 . S
C194 N201 1.356 . S
C195 C194 1.363 . S
C195 C198 1.363 . S
N196 C198 1.356 . S
N196 H208 0.984 . S
N196 H209 0.985 . S
N197 C199 1.356 . S
N197 H202 0.984 . S
N197 H203 0.985 . S
C198 C192 1.379 . S
C198 C195 1.363 . S
C198 N196 1.356 . S
C199 C193 1.363 . S
C199 C194 1.379 . S
C199 N197 1.356 . S
N200 C192 1.356 . S
N200 H206 0.984 . S
N200 H207 0.984 . S
N201 C194 1.356 . S
N201 H204 0.984 . S
N201 H205 0.985 . S
H202 N197 0.984 . S
H203 N197 0.985 . S
H204 N201 0.984 . S
H205 N201 0.985 . S
H206 N200 0.984 . S
H207 N200 0.984 . S
H208 N196 0.984 . S
H209 N196 0.985 . S
C210 C211 1.363 . S
C210 C216 1.379 . S
C210 N218 1.356 . S
C211 C210 1.363 . S
C211 C217 1.363 . S
C212 C213 1.363 . S
C212 C217 1.379 . S
C212 N219 1.356 . S
C213 C212 1.363 . S
C213 C216 1.363 . S
N214 C216 1.356 . S
N214 H226 0.984 . S
N214 H227 0.985 . S
N215 C217 1.356 . S
N215 H220 0.984 . S
N215 H221 0.985 . S
C216 C210 1.379 . S
C216 C213 1.363 . S
C216 N214 1.356 . S
C217 C211 1.363 . S
C217 C212 1.379 . S
C217 N215 1.356 . S
N218 C210 1.356 . S
N218 H224 0.984 . S
N218 H225 0.984 . S
N219 C212 1.356 . S
N219 H222 0.984 . S
N219 H223 0.985 . S
H220 N215 0.984 . S
H221 N215 0.985 . S
H222 N219 0.984 . S
H223 N219 0.985 . S
H224 N218 0.984 . S
H225 N218 0.984 . S
H226 N214 0.984 . S
H227 N214 0.985 . S
C228 C229 1.363 . S
C228 C234 1.379 . S
C228 N236 1.356 . S
C229 C228 1.363 . S
C229 C235 1.363 . S
C230 C231 1.363 . S
C230 C235 1.379 . S
C230 N237 1.356 . S
C231 C230 1.363 . S
C231 C234 1.363 . S
N232 C234 1.356 . S
N232 H244 0.984 . S
N232 H245 0.985 . S
N233 C235 1.356 . S
N233 H238 0.984 . S
N233 H239 0.985 . S
C234 C228 1.379 . S
C234 C231 1.363 . S
C234 N232 1.356 . S
C235 C229 1.363 . S
C235 C230 1.379 . S
C235 N233 1.356 . S
N236 C228 1.356 . S
N236 H242 0.984 . S
N236 H243 0.984 . S
N237 C230 1.356 . S
N237 H240 0.984 . S
N237 H241 0.985 . S
H238 N233 0.984 . S
H239 N233 0.985 . S
H240 N237 0.984 . S
H241 N237 0.985 . S
H242 N236 0.984 . S
H243 N236 0.984 . S
H244 N232 0.984 . S
H245 N232 0.985 . S
C246 C247 1.363 . S
C246 C252 1.379 . S
C246 N254 1.356 . S
C247 C246 1.363 . S
C247 C253 1.363 . S
C248 C249 1.363 . S
C248 C253 1.379 . S
C248 N255 1.356 . S
C249 C248 1.363 . S
C249 C252 1.363 . S
N250 C252 1.356 . S
N250 H262 0.984 . S
N250 H263 0.985 . S
N251 C253 1.356 . S
N251 H256 0.984 . S
N251 H257 0.985 . S
C252 C246 1.379 . S
C252 C249 1.363 . S
C252 N250 1.356 . S
C253 C247 1.363 . S
C253 C248 1.379 . S
C253 N251 1.356 . S
N254 C246 1.356 . S
N254 H260 0.984 . S
N254 H261 0.984 . S
N255 C248 1.356 . S
N255 H258 0.984 . S
N255 H259 0.985 . S
H256 N251 0.984 . S
H257 N251 0.985 . S
H258 N255 0.984 . S
H259 N255 0.985 . S
H260 N254 0.984 . S
H261 N254 0.984 . S
H262 N250 0.984 . S
H263 N250 0.985 . S
C264 C265 1.363 . S
C264 C270 1.379 . S
C264 N272 1.356 . S
C265 C264 1.363 . S
C265 C271 1.363 . S
C266 C267 1.363 . S
C266 C271 1.379 . S
C266 N273 1.356 . S
C267 C266 1.363 . S
C267 C270 1.363 . S
N268 C270 1.356 . S
N268 H280 0.984 . S
N268 H281 0.985 . S
N269 C271 1.356 . S
N269 H274 0.984 . S
N269 H275 0.985 . S
C270 C264 1.379 . S
C270 C267 1.363 . S
C270 N268 1.356 . S
C271 C265 1.363 . S
C271 C266 1.379 . S
C271 N269 1.356 . S
N272 C264 1.356 . S
N272 H278 0.984 . S
N272 H279 0.984 . S
N273 C266 1.356 . S
N273 H276 0.984 . S
N273 H277 0.985 . S
H274 N269 0.984 . S
H275 N269 0.985 . S
H276 N273 0.984 . S
H277 N273 0.985 . S
H278 N272 0.984 . S
H279 N272 0.984 . S
H280 N268 0.984 . S
H281 N268 0.985 . S
C282 C283 1.363 . S
C282 C288 1.379 . S
C282 N290 1.356 . S
C283 C282 1.363 . S
C283 C289 1.363 . S
C284 C285 1.363 . S
C284 C289 1.379 . S
C284 N291 1.356 . S
C285 C284 1.363 . S
C285 C288 1.363 . S
N286 C288 1.356 . S
N286 H298 0.984 . S
N286 H299 0.985 . S
N287 C289 1.356 . S
N287 H292 0.984 . S
N287 H293 0.985 . S
C288 C282 1.379 . S
C288 C285 1.363 . S
C288 N286 1.356 . S
C289 C283 1.363 . S
C289 C284 1.379 . S
C289 N287 1.356 . S
N290 C282 1.356 . S
N290 H296 0.984 . S
N290 H297 0.984 . S
N291 C284 1.356 . S
N291 H294 0.984 . S
N291 H295 0.985 . S
H292 N287 0.984 . S
H293 N287 0.985 . S
H294 N291 0.984 . S
H295 N291 0.985 . S
H296 N290 0.984 . S
H297 N290 0.984 . S
H298 N286 0.984 . S
H299 N286 0.985 . S
C300 C301 1.363 . S
C300 C306 1.379 . S
C300 N308 1.356 . S
C301 C300 1.363 . S
C301 C307 1.363 . S
C302 C303 1.363 . S
C302 C307 1.379 . S
C302 N309 1.356 1_655 S
C303 C302 1.363 . S
C303 C306 1.363 . S
N304 C306 1.356 . S
N304 H316 0.984 . S
N304 H317 0.985 . S
N305 C307 1.356 . S
N305 H310 0.984 . S
N305 H311 0.985 . S
C306 C300 1.379 . S
C306 C303 1.363 . S
C306 N304 1.356 . S
C307 C301 1.363 . S
C307 C302 1.379 . S
C307 N305 1.356 . S
N308 C300 1.356 . S
N308 H314 0.984 . S
N308 H315 0.984 . S
N309 C302 1.356 1_455 S
N309 H312 0.984 . S
N309 H313 0.985 . S
H310 N305 0.984 . S
H311 N305 0.985 . S
H312 N309 0.984 . S
H313 N309 0.985 . S
H314 N308 0.984 . S
H315 N308 0.984 . S
H316 N304 0.984 . S
H317 N304 0.985 . S
C318 C319 1.363 . S
C318 C324 1.379 . S
C318 N326 1.356 . S
C319 C318 1.363 . S
C319 C325 1.363 . S
C320 C321 1.363 . S
C320 C325 1.379 . S
C320 N327 1.356 1_565 S
C321 C320 1.363 . S
C321 C324 1.363 . S
N322 C324 1.356 . S
N322 H334 0.984 . S
N322 H335 0.985 . S
N323 C325 1.356 . S
N323 H328 0.984 . S
N323 H329 0.985 . S
C324 C318 1.379 . S
C324 C321 1.363 . S
C324 N322 1.356 . S
C325 C319 1.363 . S
C325 C320 1.379 . S
C325 N323 1.356 . S
N326 C318 1.356 . S
N326 H332 0.984 . S
N326 H333 0.984 . S
N327 C320 1.356 1_545 S
N327 H330 0.984 . S
N327 H331 0.985 . S
H328 N323 0.984 . S
H329 N323 0.985 . S
H330 N327 0.984 . S
H331 N327 0.985 . S
H332 N326 0.984 . S
H333 N326 0.984 . S
H334 N322 0.984 . S
H335 N322 0.985 . S
C336 C337 1.363 . S
C336 C342 1.379 . S
C336 N344 1.356 . S
C337 C336 1.363 . S
C337 C343 1.363 . S
C338 C339 1.363 . S
C338 C343 1.379 . S
C338 N345 1.356 . S
C339 C338 1.363 . S
C339 C342 1.363 . S
N340 C342 1.356 . S
N340 H352 0.984 . S
N340 H353 0.985 . S
N341 C343 1.356 . S
N341 H346 0.984 . S
N341 H347 0.985 . S
C342 C336 1.379 . S
C342 C339 1.363 . S
C342 N340 1.356 . S
C343 C337 1.363 . S
C343 C338 1.379 . S
C343 N341 1.356 . S
N344 C336 1.356 . S
N344 H350 0.984 . S
N344 H351 0.984 . S
N345 C338 1.356 . S
N345 H348 0.984 . S
N345 H349 0.985 . S
H346 N341 0.984 . S
H347 N341 0.985 . S
H348 N345 0.984 . S
H349 N345 0.985 . S
H350 N344 0.984 . S
H351 N344 0.984 . S
H352 N340 0.984 . S
H353 N340 0.985 . S
C354 C355 1.363 . S
C354 C360 1.379 . S
C354 N362 1.356 . S
C355 C354 1.363 . S
C355 C361 1.363 . S
C356 C357 1.363 . S
C356 C361 1.379 . S
C356 N363 1.356 . S
C357 C356 1.363 . S
C357 C360 1.363 . S
N358 C360 1.356 . S
N358 H370 0.984 . S
N358 H371 0.985 . S
N359 C361 1.356 . S
N359 H364 0.984 . S
N359 H365 0.985 . S
C360 C354 1.379 . S
C360 C357 1.363 . S
C360 N358 1.356 . S
C361 C355 1.363 . S
C361 C356 1.379 . S
C361 N359 1.356 . S
N362 C354 1.356 . S
N362 H368 0.984 . S
N362 H369 0.984 . S
N363 C356 1.356 . S
N363 H366 0.984 . S
N363 H367 0.985 . S
H364 N359 0.984 . S
H365 N359 0.985 . S
H366 N363 0.984 . S
H367 N363 0.985 . S
H368 N362 0.984 . S
H369 N362 0.984 . S
H370 N358 0.984 . S
H371 N358 0.985 . S
C372 C373 1.363 . S
C372 C378 1.379 . S
C372 N380 1.356 . S
C373 C372 1.363 . S
C373 C379 1.363 . S
C374 C375 1.363 . S
C374 C379 1.379 . S
C374 N381 1.356 . S
C375 C374 1.363 . S
C375 C378 1.363 . S
N376 C378 1.356 . S
N376 H388 0.984 . S
N376 H389 0.985 . S
N377 C379 1.356 . S
N377 H382 0.984 . S
N377 H383 0.985 . S
C378 C372 1.379 . S
C378 C375 1.363 . S
C378 N376 1.356 . S
C379 C373 1.363 . S
C379 C374 1.379 . S
C379 N377 1.356 . S
N380 C372 1.356 . S
N380 H386 0.984 . S
N380 H387 0.984 . S
N381 C374 1.356 . S
N381 H384 0.984 . S
N381 H385 0.985 . S
H382 N377 0.984 . S
H383 N377 0.985 . S
H384 N381 0.984 . S
H385 N381 0.985 . S
H386 N380 0.984 . S
H387 N380 0.984 . S
H388 N376 0.984 . S
H389 N376 0.985 . S
C390 C391 1.363 1_655 S
C390 C396 1.379 . S
C390 N398 1.356 . S
C391 C390 1.363 1_455 S
C391 C397 1.363 . S
C392 C393 1.363 1_554 S
C392 C397 1.379 . S
C392 N399 1.356 1_554 S
C393 C392 1.363 1_556 S
C393 C396 1.363 1_456 S
N394 C396 1.356 1_556 S
N394 H406 0.984 . S
N394 H407 0.985 . S
N395 C397 1.356 . S
N395 H400 0.984 . S
N395 H401 0.985 . S
C396 C390 1.379 . S
C396 C393 1.363 1_654 S
C396 N394 1.356 1_554 S
C397 C391 1.363 . S
C397 C392 1.379 . S
C397 N395 1.356 . S
N398 C390 1.356 . S
N398 H404 0.984 . S
N398 H405 0.984 . S
N399 C392 1.356 1_556 S
N399 H402 0.984 . S
N399 H403 0.985 . S
H400 N395 0.984 . S
H401 N395 0.985 . S
H402 N399 0.984 . S
H403 N399 0.985 . S
H404 N398 0.984 . S
H405 N398 0.984 . S
H406 N394 0.984 . S
H407 N394 0.985 . S
C408 C409 1.363 1_565 S
C408 C414 1.379 . S
C408 N416 1.356 . S
C409 C408 1.363 1_545 S
C409 C415 1.363 . S
C410 C411 1.363 . S
C410 C415 1.379 . S
C410 N417 1.356 . S
C411 C410 1.363 . S
C411 C414 1.363 1_545 S
N412 C414 1.356 . S
N412 H424 0.984 . S
N412 H425 0.985 . S
N413 C415 1.356 . S
N413 H418 0.984 . S
N413 H419 0.985 . S
C414 C408 1.379 . S
C414 C411 1.363 1_565 S
C414 N412 1.356 . S
C415 C409 1.363 . S
C415 C410 1.379 . S
C415 N413 1.356 . S
N416 C408 1.356 . S
N416 H422 0.984 . S
N416 H423 0.984 . S
N417 C410 1.356 . S
N417 H420 0.984 . S
N417 H421 0.985 . S
H418 N413 0.984 . S
H419 N413 0.985 . S
H420 N417 0.984 . S
H421 N417 0.985 . S
H422 N416 0.984 . S
H423 N416 0.984 . S
H424 N412 0.984 . S
H425 N412 0.985 . S
C426 C427 1.363 . S
C426 C432 1.379 . S
C426 N434 1.356 . S
C427 C426 1.363 . S
C427 C433 1.363 . S
C428 C429 1.363 . S
C428 C433 1.379 . S
C428 N435 1.356 . S
C429 C428 1.363 . S
C429 C432 1.363 . S
N430 C432 1.356 . S
N430 H442 0.984 . S
N430 H443 0.985 . S
N431 C433 1.356 . S
N431 H436 0.984 . S
N431 H437 0.985 . S
C432 C426 1.379 . S
C432 C429 1.363 . S
C432 N430 1.356 . S
C433 C427 1.363 . S
C433 C428 1.379 . S
C433 N431 1.356 . S
N434 C426 1.356 . S
N434 H440 0.984 . S
N434 H441 0.984 . S
N435 C428 1.356 . S
N435 H438 0.984 . S
N435 H439 0.985 . S
H436 N431 0.984 . S
H437 N431 0.985 . S
H438 N435 0.984 . S
H439 N435 0.985 . S
H440 N434 0.984 . S
H441 N434 0.984 . S
H442 N430 0.984 . S
H443 N430 0.985 . S
C444 C445 1.363 1_565 S
C444 C450 1.379 . S
C444 N452 1.356 . S
C445 C444 1.363 1_545 S
C445 C451 1.363 . S
C446 C447 1.363 . S
C446 C451 1.379 . S
C446 N453 1.356 . S
C447 C446 1.363 . S
C447 C450 1.363 1_545 S
N448 C450 1.356 . S
N448 H460 0.984 . S
N448 H461 0.985 . S
N449 C451 1.356 . S
N449 H454 0.984 . S
N449 H455 0.985 . S
C450 C444 1.379 . S
C450 C447 1.363 1_565 S
C450 N448 1.356 . S
C451 C445 1.363 . S
C451 C446 1.379 . S
C451 N449 1.356 . S
N452 C444 1.356 . S
N452 H458 0.984 . S
N452 H459 0.984 . S
N453 C446 1.356 . S
N453 H456 0.984 . S
N453 H457 0.985 . S
H454 N449 0.984 . S
H455 N449 0.985 . S
H456 N453 0.984 . S
H457 N453 0.985 . S
H458 N452 0.984 . S
H459 N452 0.984 . S
H460 N448 0.984 . S
H461 N448 0.985 . S
C462 C463 1.363 . S
C462 C468 1.379 . S
C462 N470 1.356 . S
C463 C462 1.363 . S
C463 C469 1.363 . S
C464 C465 1.363 1_556 S
C464 C469 1.379 . S
C464 N471 1.356 1_556 S
C465 C464 1.363 1_554 S
C465 C468 1.363 1_554 S
N466 C468 1.356 1_554 S
N466 H478 0.984 . S
N466 H479 0.985 . S
N467 C469 1.356 . S
N467 H472 0.984 . S
N467 H473 0.985 . S
C468 C462 1.379 . S
C468 C465 1.363 1_556 S
C468 N466 1.356 1_556 S
C469 C463 1.363 . S
C469 C464 1.379 . S
C469 N467 1.356 . S
N470 C462 1.356 . S
N470 H476 0.984 . S
N470 H477 0.984 . S
N471 C464 1.356 1_554 S
N471 H474 0.984 . S
N471 H475 0.985 . S
H472 N467 0.984 . S
H473 N467 0.985 . S
H474 N471 0.984 . S
H475 N471 0.985 . S
H476 N470 0.984 . S
H477 N470 0.984 . S
H478 N466 0.984 . S
H479 N466 0.985 . S
C480 C481 1.367 . S
C480 C486 1.379 . S
C480 N488 1.356 . S
C481 C480 1.367 . S
C481 C487 1.358 1_655 S
C482 C483 1.363 . S
C482 C487 1.379 . S
C482 N489 1.356 . S
C483 C482 1.363 . S
C483 C486 1.363 1_455 S
N484 C486 1.356 . S
N484 H496 0.984 . S
N484 H497 0.985 . S
N485 C487 1.356 . S
N485 H490 0.984 . S
N485 H491 0.985 . S
C486 C480 1.379 . S
C486 C483 1.363 1_655 S
C486 N484 1.356 . S
C487 C481 1.358 1_455 S
C487 C482 1.379 . S
C487 N485 1.356 . S
N488 C480 1.356 . S
N488 H494 0.984 . S
N488 H495 0.984 . S
N489 C482 1.356 . S
N489 H492 0.984 . S
N489 H493 0.985 . S
H490 N485 0.984 . S
H491 N485 0.985 . S
H492 N489 0.984 . S
H493 N489 0.985 . S
H494 N488 0.984 . S
H495 N488 0.984 . S
H496 N484 0.984 . S
H497 N484 0.985 . S
C175 C12 2.937 . S
C177 C169 2.919 . S
C193 C52 2.954 . S
C195 C151 2.947 . S
C211 C111 2.970 . S
C213 C163 2.942 . S
C229 C31 3.041 . S
C231 C172 3.001 . S
C249 C154 2.976 . S
C247 C71 3.024 . S
C267 C160 2.972 . S
C265 C92 3.002 . S
C283 C48 0.965 . S
C285 C133 1.069 . S
C301 C109 1.007 . S
C303 C142 1.205 . S
C319 C29 0.967 . S
C321 C124 1.140 . S
C339 C136 1.100 . S
C337 C69 0.955 . S
C357 C145 0.980 . S
C355 C88 0.919 . S
C373 C8 0.920 . S
C375 C127 0.990 . S
C393 C143 0.919 . S
C391 C17 0.922 1_455 S
C409 C57 0.902 1_545 S
C411 C125 0.900 . S
C427 C97 0.919 . S
C429 C134 0.917 . S
C447 C161 1.838 . S
C445 C42 1.758 . S
C465 C170 1.829 . S
C463 C82 1.764 . S
C481 C2 1.772 1_655 S
C483 C152 1.835 . S
