# Generated by pormake.
# Topology tbo, (3,4)-cn, num edge types: 1
# Building blocks:
#     Node 0, Type 0, BuildingBlock: WUSLED_clean_sbu_0, # of connection points: 3
#     Node 1, Type 0, BuildingBlock: WUSLED_clean_sbu_0, # of connection points: 3
#     Node 2, Type 0, BuildingBlock: WUSLED_clean_sbu_0, # of connection points: 3
#     Node 3, Type 0, BuildingBlock: WUSLED_clean_sbu_0, # of connection points: 3
#     Node 4, Type 0, BuildingBlock: WUSLED_clean_sbu_0, # of connection points: 3
#     Node 5, Type 0, BuildingBlock: WUSLED_clean_sbu_0, # of connection points: 3
#     Node 6, Type 0, BuildingBlock: WUSLED_clean_sbu_0, # of connection points: 3
#     Node 7, Type 0, BuildingBlock: WUSLED_clean_sbu_0, # of connection points: 3
#     Node 8, Type 0, BuildingBlock: WUSLED_clean_sbu_0, # of connection points: 3
#     Node 9, Type 0, BuildingBlock: WUSLED_clean_sbu_0, # of connection points: 3
#     Node 10, Type 0, BuildingBlock: WUSLED_clean_sbu_0, # of connection points: 3
#     Node 11, Type 0, BuildingBlock: WUSLED_clean_sbu_0, # of connection points: 3
#     Node 12, Type 0, BuildingBlock: WUSLED_clean_sbu_0, # of connection points: 3
#     Node 13, Type 0, BuildingBlock: WUSLED_clean_sbu_0, # of connection points: 3
#     Node 14, Type 0, BuildingBlock: WUSLED_clean_sbu_0, # of connection points: 3
#     Node 15, Type 0, BuildingBlock: WUSLED_clean_sbu_0, # of connection points: 3
#     Node 16, Type 0, BuildingBlock: WUSLED_clean_sbu_0, # of connection points: 3
#     Node 17, Type 0, BuildingBlock: WUSLED_clean_sbu_0, # of connection points: 3
#     Node 18, Type 0, BuildingBlock: WUSLED_clean_sbu_0, # of connection points: 3
#     Node 19, Type 0, BuildingBlock: WUSLED_clean_sbu_0, # of connection points: 3
#     Node 20, Type 0, BuildingBlock: WUSLED_clean_sbu_0, # of connection points: 3
#     Node 21, Type 0, BuildingBlock: WUSLED_clean_sbu_0, # of connection points: 3
#     Node 22, Type 0, BuildingBlock: WUSLED_clean_sbu_0, # of connection points: 3
#     Node 23, Type 0, BuildingBlock: WUSLED_clean_sbu_0, # of connection points: 3
#     Node 24, Type 0, BuildingBlock: WUSLED_clean_sbu_0, # of connection points: 3
#     Node 25, Type 0, BuildingBlock: WUSLED_clean_sbu_0, # of connection points: 3
#     Node 26, Type 0, BuildingBlock: WUSLED_clean_sbu_0, # of connection points: 3
#     Node 27, Type 0, BuildingBlock: WUSLED_clean_sbu_0, # of connection points: 3
#     Node 28, Type 0, BuildingBlock: WUSLED_clean_sbu_0, # of connection points: 3
#     Node 29, Type 0, BuildingBlock: WUSLED_clean_sbu_0, # of connection points: 3
#     Node 30, Type 0, BuildingBlock: WUSLED_clean_sbu_0, # of connection points: 3
#     Node 31, Type 0, BuildingBlock: WUSLED_clean_sbu_0, # of connection points: 3
#     Node 32, Type 1, BuildingBlock: NAHDIM_clean_linker_0, # of connection points: 4
#     Node 33, Type 1, BuildingBlock: NAHDIM_clean_linker_0, # of connection points: 4
#     Node 34, Type 1, BuildingBlock: NAHDIM_clean_linker_0, # of connection points: 4
#     Node 35, Type 1, BuildingBlock: NAHDIM_clean_linker_0, # of connection points: 4
#     Node 36, Type 1, BuildingBlock: NAHDIM_clean_linker_0, # of connection points: 4
#     Node 37, Type 1, BuildingBlock: NAHDIM_clean_linker_0, # of connection points: 4
#     Node 38, Type 1, BuildingBlock: NAHDIM_clean_linker_0, # of connection points: 4
#     Node 39, Type 1, BuildingBlock: NAHDIM_clean_linker_0, # of connection points: 4
#     Node 40, Type 1, BuildingBlock: NAHDIM_clean_linker_0, # of connection points: 4
#     Node 41, Type 1, BuildingBlock: NAHDIM_clean_linker_0, # of connection points: 4
#     Node 42, Type 1, BuildingBlock: NAHDIM_clean_linker_0, # of connection points: 4
#     Node 43, Type 1, BuildingBlock: NAHDIM_clean_linker_0, # of connection points: 4
#     Node 44, Type 1, BuildingBlock: NAHDIM_clean_linker_0, # of connection points: 4
#     Node 45, Type 1, BuildingBlock: NAHDIM_clean_linker_0, # of connection points: 4
#     Node 46, Type 1, BuildingBlock: NAHDIM_clean_linker_0, # of connection points: 4
#     Node 47, Type 1, BuildingBlock: NAHDIM_clean_linker_0, # of connection points: 4
#     Node 48, Type 1, BuildingBlock: NAHDIM_clean_linker_0, # of connection points: 4
#     Node 49, Type 1, BuildingBlock: NAHDIM_clean_linker_0, # of connection points: 4
#     Node 50, Type 1, BuildingBlock: NAHDIM_clean_linker_0, # of connection points: 4
#     Node 51, Type 1, BuildingBlock: NAHDIM_clean_linker_0, # of connection points: 4
#     Node 52, Type 1, BuildingBlock: NAHDIM_clean_linker_0, # of connection points: 4
#     Node 53, Type 1, BuildingBlock: NAHDIM_clean_linker_0, # of connection points: 4
#     Node 54, Type 1, BuildingBlock: NAHDIM_clean_linker_0, # of connection points: 4
#     Node 55, Type 1, BuildingBlock: NAHDIM_clean_linker_0, # of connection points: 4
#     Edge 56, Type (0, 1), BuildingBlock: EZIPEK_clean_linker_0, # of connection points: 2
#     Edge 57, Type (0, 1), BuildingBlock: EZIPEK_clean_linker_0, # of connection points: 2
#     Edge 58, Type (0, 1), BuildingBlock: EZIPEK_clean_linker_0, # of connection points: 2
#     Edge 59, Type (0, 1), BuildingBlock: EZIPEK_clean_linker_0, # of connection points: 2
#     Edge 60, Type (0, 1), BuildingBlock: EZIPEK_clean_linker_0, # of connection points: 2
#     Edge 61, Type (0, 1), BuildingBlock: EZIPEK_clean_linker_0, # of connection points: 2
#     Edge 62, Type (0, 1), BuildingBlock: EZIPEK_clean_linker_0, # of connection points: 2
#     Edge 63, Type (0, 1), BuildingBlock: EZIPEK_clean_linker_0, # of connection points: 2
#     Edge 64, Type (0, 1), BuildingBlock: EZIPEK_clean_linker_0, # of connection points: 2
#     Edge 65, Type (0, 1), BuildingBlock: EZIPEK_clean_linker_0, # of connection points: 2
#     Edge 66, Type (0, 1), BuildingBlock: EZIPEK_clean_linker_0, # of connection points: 2
#     Edge 67, Type (0, 1), BuildingBlock: EZIPEK_clean_linker_0, # of connection points: 2
#     Edge 68, Type (0, 1), BuildingBlock: EZIPEK_clean_linker_0, # of connection points: 2
#     Edge 69, Type (0, 1), BuildingBlock: EZIPEK_clean_linker_0, # of connection points: 2
#     Edge 70, Type (0, 1), BuildingBlock: EZIPEK_clean_linker_0, # of connection points: 2
#     Edge 71, Type (0, 1), BuildingBlock: EZIPEK_clean_linker_0, # of connection points: 2
#     Edge 72, Type (0, 1), BuildingBlock: EZIPEK_clean_linker_0, # of connection points: 2
#     Edge 73, Type (0, 1), BuildingBlock: EZIPEK_clean_linker_0, # of connection points: 2
#     Edge 74, Type (0, 1), BuildingBlock: EZIPEK_clean_linker_0, # of connection points: 2
#     Edge 75, Type (0, 1), BuildingBlock: EZIPEK_clean_linker_0, # of connection points: 2
#     Edge 76, Type (0, 1), BuildingBlock: EZIPEK_clean_linker_0, # of connection points: 2
#     Edge 77, Type (0, 1), BuildingBlock: EZIPEK_clean_linker_0, # of connection points: 2
#     Edge 78, Type (0, 1), BuildingBlock: EZIPEK_clean_linker_0, # of connection points: 2
#     Edge 79, Type (0, 1), BuildingBlock: EZIPEK_clean_linker_0, # of connection points: 2
#     Edge 80, Type (0, 1), BuildingBlock: EZIPEK_clean_linker_0, # of connection points: 2
#     Edge 81, Type (0, 1), BuildingBlock: EZIPEK_clean_linker_0, # of connection points: 2
#     Edge 82, Type (0, 1), BuildingBlock: EZIPEK_clean_linker_0, # of connection points: 2
#     Edge 83, Type (0, 1), BuildingBlock: EZIPEK_clean_linker_0, # of connection points: 2
#     Edge 84, Type (0, 1), BuildingBlock: EZIPEK_clean_linker_0, # of connection points: 2
#     Edge 85, Type (0, 1), BuildingBlock: EZIPEK_clean_linker_0, # of connection points: 2
#     Edge 86, Type (0, 1), BuildingBlock: EZIPEK_clean_linker_0, # of connection points: 2
#     Edge 87, Type (0, 1), BuildingBlock: EZIPEK_clean_linker_0, # of connection points: 2
#     Edge 88, Type (0, 1), BuildingBlock: EZIPEK_clean_linker_0, # of connection points: 2
#     Edge 89, Type (0, 1), BuildingBlock: EZIPEK_clean_linker_0, # of connection points: 2
#     Edge 90, Type (0, 1), BuildingBlock: EZIPEK_clean_linker_0, # of connection points: 2
#     Edge 91, Type (0, 1), BuildingBlock: EZIPEK_clean_linker_0, # of connection points: 2
#     Edge 92, Type (0, 1), BuildingBlock: EZIPEK_clean_linker_0, # of connection points: 2
#     Edge 93, Type (0, 1), BuildingBlock: EZIPEK_clean_linker_0, # of connection points: 2
#     Edge 94, Type (0, 1), BuildingBlock: EZIPEK_clean_linker_0, # of connection points: 2
#     Edge 95, Type (0, 1), BuildingBlock: EZIPEK_clean_linker_0, # of connection points: 2
#     Edge 96, Type (0, 1), BuildingBlock: EZIPEK_clean_linker_0, # of connection points: 2
#     Edge 97, Type (0, 1), BuildingBlock: EZIPEK_clean_linker_0, # of connection points: 2
#     Edge 98, Type (0, 1), BuildingBlock: EZIPEK_clean_linker_0, # of connection points: 2
#     Edge 99, Type (0, 1), BuildingBlock: EZIPEK_clean_linker_0, # of connection points: 2
#     Edge 100, Type (0, 1), BuildingBlock: EZIPEK_clean_linker_0, # of connection points: 2
#     Edge 101, Type (0, 1), BuildingBlock: EZIPEK_clean_linker_0, # of connection points: 2
#     Edge 102, Type (0, 1), BuildingBlock: EZIPEK_clean_linker_0, # of connection points: 2
#     Edge 103, Type (0, 1), BuildingBlock: EZIPEK_clean_linker_0, # of connection points: 2
#     Edge 104, Type (0, 1), BuildingBlock: EZIPEK_clean_linker_0, # of connection points: 2
#     Edge 105, Type (0, 1), BuildingBlock: EZIPEK_clean_linker_0, # of connection points: 2
#     Edge 106, Type (0, 1), BuildingBlock: EZIPEK_clean_linker_0, # of connection points: 2
#     Edge 107, Type (0, 1), BuildingBlock: EZIPEK_clean_linker_0, # of connection points: 2
#     Edge 108, Type (0, 1), BuildingBlock: EZIPEK_clean_linker_0, # of connection points: 2
#     Edge 109, Type (0, 1), BuildingBlock: EZIPEK_clean_linker_0, # of connection points: 2
#     Edge 110, Type (0, 1), BuildingBlock: EZIPEK_clean_linker_0, # of connection points: 2
#     Edge 111, Type (0, 1), BuildingBlock: EZIPEK_clean_linker_0, # of connection points: 2
#     Edge 112, Type (0, 1), BuildingBlock: EZIPEK_clean_linker_0, # of connection points: 2
#     Edge 113, Type (0, 1), BuildingBlock: EZIPEK_clean_linker_0, # of connection points: 2
#     Edge 114, Type (0, 1), BuildingBlock: EZIPEK_clean_linker_0, # of connection points: 2
#     Edge 115, Type (0, 1), BuildingBlock: EZIPEK_clean_linker_0, # of connection points: 2
#     Edge 116, Type (0, 1), BuildingBlock: EZIPEK_clean_linker_0, # of connection points: 2
#     Edge 117, Type (0, 1), BuildingBlock: EZIPEK_clean_linker_0, # of connection points: 2
#     Edge 118, Type (0, 1), BuildingBlock: EZIPEK_clean_linker_0, # of connection points: 2
#     Edge 119, Type (0, 1), BuildingBlock: EZIPEK_clean_linker_0, # of connection points: 2
#     Edge 120, Type (0, 1), BuildingBlock: EZIPEK_clean_linker_0, # of connection points: 2
#     Edge 121, Type (0, 1), BuildingBlock: EZIPEK_clean_linker_0, # of connection points: 2
#     Edge 122, Type (0, 1), BuildingBlock: EZIPEK_clean_linker_0, # of connection points: 2
#     Edge 123, Type (0, 1), BuildingBlock: EZIPEK_clean_linker_0, # of connection points: 2
#     Edge 124, Type (0, 1), BuildingBlock: EZIPEK_clean_linker_0, # of connection points: 2
#     Edge 125, Type (0, 1), BuildingBlock: EZIPEK_clean_linker_0, # of connection points: 2
#     Edge 126, Type (0, 1), BuildingBlock: EZIPEK_clean_linker_0, # of connection points: 2
#     Edge 127, Type (0, 1), BuildingBlock: EZIPEK_clean_linker_0, # of connection points: 2
#     Edge 128, Type (0, 1), BuildingBlock: EZIPEK_clean_linker_0, # of connection points: 2
#     Edge 129, Type (0, 1), BuildingBlock: EZIPEK_clean_linker_0, # of connection points: 2
#     Edge 130, Type (0, 1), BuildingBlock: EZIPEK_clean_linker_0, # of connection points: 2
#     Edge 131, Type (0, 1), BuildingBlock: EZIPEK_clean_linker_0, # of connection points: 2
#     Edge 132, Type (0, 1), BuildingBlock: EZIPEK_clean_linker_0, # of connection points: 2
#     Edge 133, Type (0, 1), BuildingBlock: EZIPEK_clean_linker_0, # of connection points: 2
#     Edge 134, Type (0, 1), BuildingBlock: EZIPEK_clean_linker_0, # of connection points: 2
#     Edge 135, Type (0, 1), BuildingBlock: EZIPEK_clean_linker_0, # of connection points: 2
#     Edge 136, Type (0, 1), BuildingBlock: EZIPEK_clean_linker_0, # of connection points: 2
#     Edge 137, Type (0, 1), BuildingBlock: EZIPEK_clean_linker_0, # of connection points: 2
#     Edge 138, Type (0, 1), BuildingBlock: EZIPEK_clean_linker_0, # of connection points: 2
#     Edge 139, Type (0, 1), BuildingBlock: EZIPEK_clean_linker_0, # of connection points: 2
#     Edge 140, Type (0, 1), BuildingBlock: EZIPEK_clean_linker_0, # of connection points: 2
#     Edge 141, Type (0, 1), BuildingBlock: EZIPEK_clean_linker_0, # of connection points: 2
#     Edge 142, Type (0, 1), BuildingBlock: EZIPEK_clean_linker_0, # of connection points: 2
#     Edge 143, Type (0, 1), BuildingBlock: EZIPEK_clean_linker_0, # of connection points: 2
#     Edge 144, Type (0, 1), BuildingBlock: EZIPEK_clean_linker_0, # of connection points: 2
#     Edge 145, Type (0, 1), BuildingBlock: EZIPEK_clean_linker_0, # of connection points: 2
#     Edge 146, Type (0, 1), BuildingBlock: EZIPEK_clean_linker_0, # of connection points: 2
#     Edge 147, Type (0, 1), BuildingBlock: EZIPEK_clean_linker_0, # of connection points: 2
#     Edge 148, Type (0, 1), BuildingBlock: EZIPEK_clean_linker_0, # of connection points: 2
#     Edge 149, Type (0, 1), BuildingBlock: EZIPEK_clean_linker_0, # of connection points: 2
#     Edge 150, Type (0, 1), BuildingBlock: EZIPEK_clean_linker_0, # of connection points: 2
#     Edge 151, Type (0, 1), BuildingBlock: EZIPEK_clean_linker_0, # of connection points: 2
# Relax obj value: 0.002
# Max RMSD: 0.048
# Mean RMSD: 0.021
data_MOF--net-tbo--node1-WUSLED_clean_sbu_0--node2-NAHDIM_clean_linker_0--edge1-EZIPEK_clean_linker_0
_symmetry_space_group_name_H-M    P1
_symmetry_Int_Tables_number       1
_symmetry_cell_setting            triclinic
loop_
_symmetry_equiv_pos_as_xyz
'x, y, z'
_cell_length_a     103.19482
_cell_length_b     103.51751
_cell_length_c     103.31023
_cell_angle_alpha  89.576533
_cell_angle_beta   89.997462
_cell_angle_gamma 91.293582
loop_
_atom_site_label
_atom_site_type_symbol
_atom_site_fract_x
_atom_site_fract_y
_atom_site_fract_z
_atom_type_partial_charge
C0 C 0.16256 0.13087 0.18213 0.0
C1 C 0.15758 0.11823 0.1805 0.0
C2 C 0.17594 0.10952 0.1921 0.0
C3 C 0.16424 0.10764 0.18541 0.0
C4 C 0.18098 0.12209 0.19374 0.0
C5 C 0.17436 0.13269 0.18881 0.0
U6 U 0.15646 0.15909 0.15857 0.0
O7 O 0.13802 0.16613 0.15073 0.0
O8 O 0.15047 0.17889 0.1625 0.0
C9 C 0.1392 0.17725 0.15673 0.0
C10 C 0.15504 0.14203 0.17747 0.0
C11 C 0.12783 0.18126 0.16417 0.0
C12 C 0.11663 0.18398 0.18465 0.0
C13 C 0.12715 0.17938 0.17765 0.0
C14 C 0.10714 0.19198 0.16475 0.0
C15 C 0.10663 0.19042 0.17825 0.0
C16 C 0.1177 0.18746 0.15777 0.0
C17 C 0.17928 0.16659 0.13057 0.0
C18 C 0.1747 0.18386 0.1153 0.0
C19 C 0.19594 0.17429 0.11559 0.0
C20 C 0.19189 0.16593 0.12558 0.0
C21 C 0.1874 0.18337 0.11049 0.0
C22 C 0.17068 0.17555 0.12533 0.0
C23 C 0.17544 0.15844 0.14169 0.0
O24 O 0.16053 0.15354 0.1787 0.0
O25 O 0.14893 0.14054 0.16639 0.0
O26 O 0.16451 0.15179 0.14038 0.0
O27 O 0.17653 0.16409 0.153 0.0
H28 H 0.14846 0.11653 0.17554 0.0
H29 H 0.1602 0.09798 0.18413 0.0
H30 H 0.18998 0.12369 0.19894 0.0
H31 H 0.17842 0.14228 0.19038 0.0
H32 H 0.11634 0.18268 0.19506 0.0
H33 H 0.13483 0.17454 0.18277 0.0
H34 H 0.09948 0.19692 0.15969 0.0
H35 H 0.11806 0.18897 0.14738 0.0
H36 H 0.16803 0.19086 0.1115 0.0
H37 H 0.20578 0.17384 0.112 0.0
H38 H 0.19867 0.15913 0.12958 0.0
H39 H 0.16094 0.17626 0.12914 0.0
C40 C 0.81954 0.17052 0.13148 0.0
C41 C 0.82504 0.18276 0.12867 0.0
C42 C 0.80878 0.18609 0.11206 0.0
C43 C 0.81967 0.19052 0.119 0.0
C44 C 0.80349 0.17374 0.11467 0.0
C45 C 0.80885 0.166 0.12433 0.0
U46 U 0.84395 0.16446 0.15841 0.0
O47 O 0.84076 0.15819 0.17852 0.0
O48 O 0.85212 0.14622 0.16546 0.0
C49 C 0.84636 0.14705 0.17677 0.0
C50 C 0.82443 0.16266 0.14222 0.0
C51 C 0.83906 0.13538 0.18121 0.0
C52 C 0.81974 0.12503 0.19046 0.0
C53 C 0.82625 0.13609 0.18579 0.0
C54 C 0.83857 0.11228 0.18579 0.0
C55 C 0.82588 0.11308 0.19053 0.0
C56 C 0.84514 0.12337 0.18123 0.0
C57 C 0.87211 0.18775 0.16459 0.0
C58 C 0.88301 0.1897 0.18536 0.0
C59 C 0.89363 0.19768 0.16585 0.0
C60 C 0.88286 0.19372 0.15853 0.0
C61 C 0.8937 0.19583 0.17933 0.0
C62 C 0.87233 0.18561 0.17804 0.0
C63 C 0.86078 0.18375 0.15682 0.0
O64 O 0.83558 0.15712 0.14021 0.0
O65 O 0.82359 0.16799 0.15369 0.0
O66 O 0.8495 0.18458 0.16264 0.0
O67 O 0.862 0.17298 0.1503 0.0
H68 H 0.8333 0.18639 0.13413 0.0
H69 H 0.82382 0.20005 0.11711 0.0
H70 H 0.79506 0.17023 0.10941 0.0
H71 H 0.80449 0.15659 0.12641 0.0
H72 H 0.80994 0.12578 0.19408 0.0
H73 H 0.82127 0.14518 0.1859 0.0
H74 H 0.84343 0.10312 0.18579 0.0
H75 H 0.85501 0.12259 0.17782 0.0
H76 H 0.88296 0.1881 0.19574 0.0
H77 H 0.90185 0.2023 0.16104 0.0
H78 H 0.8829 0.19536 0.14816 0.0
H79 H 0.86421 0.18086 0.1829 0.0
C80 C 0.82738 0.84207 0.1352 0.0
C81 C 0.83621 0.83934 0.12526 0.0
C82 C 0.81915 0.82827 0.11313 0.0
C83 C 0.8321 0.83254 0.11429 0.0
C84 C 0.81039 0.83077 0.12315 0.0
C85 C 0.81446 0.83768 0.13406 0.0
U86 U 0.85021 0.84852 0.16375 0.0
O87 O 0.85782 0.8669 0.17163 0.0
O88 O 0.84595 0.85382 0.18384 0.0
C89 C 0.8517 0.86525 0.18269 0.0
C90 C 0.83137 0.84952 0.14674 0.0
C91 C 0.8443 0.87637 0.1872 0.0
C92 C 0.82392 0.88709 0.19101 0.0
C93 C 0.83071 0.87656 0.18629 0.0
C94 C 0.84421 0.89751 0.19729 0.0
C95 C 0.83064 0.89759 0.1966 0.0
C96 C 0.85099 0.88695 0.19265 0.0
C97 C 0.8791 0.82648 0.16906 0.0
C98 C 0.89046 0.82311 0.1894 0.0
C99 C 0.90009 0.8163 0.16924 0.0
C100 C 0.88939 0.82086 0.16244 0.0
C101 C 0.90061 0.81726 0.18276 0.0
C102 C 0.87978 0.82775 0.18259 0.0
C103 C 0.86762 0.83055 0.16175 0.0
O104 O 0.83022 0.84338 0.15788 0.0
O105 O 0.84216 0.85647 0.14575 0.0
O106 O 0.86867 0.84177 0.15577 0.0
O107 O 0.8564 0.82871 0.1676 0.0
H108 H 0.84627 0.84251 0.12591 0.0
H109 H 0.83901 0.83063 0.10668 0.0
H110 H 0.80038 0.82749 0.12245 0.0
H111 H 0.8075 0.83964 0.14161 0.0
H112 H 0.81344 0.88704 0.19038 0.0
H113 H 0.82535 0.86854 0.18202 0.0
H114 H 0.84953 0.90555 0.20155 0.0
H115 H 0.86146 0.887 0.1934 0.0
H116 H 0.89074 0.82393 0.19984 0.0
H117 H 0.90787 0.81181 0.16399 0.0
H118 H 0.88904 0.81982 0.15201 0.0
H119 H 0.87199 0.83214 0.18789 0.0
C120 C 0.13416 0.82357 0.16175 0.0
C121 C 0.12652 0.83257 0.16821 0.0
C122 C 0.11262 0.81514 0.17648 0.0
C123 C 0.11575 0.82837 0.17547 0.0
C124 C 0.12025 0.80617 0.17003 0.0
C125 C 0.13094 0.81037 0.1627 0.0
U126 U 0.16282 0.84676 0.15587 0.0
O127 O 0.18311 0.8426 0.15129 0.0
O128 O 0.17157 0.85398 0.13771 0.0
C129 C 0.18249 0.84798 0.13975 0.0
C130 C 0.14574 0.82768 0.15435 0.0
C131 C 0.18692 0.83989 0.12909 0.0
C132 C 0.18362 0.82168 0.11467 0.0
C133 C 0.17906 0.82971 0.1244 0.0
C134 C 0.2039 0.83398 0.11412 0.0
C135 C 0.19611 0.82371 0.10956 0.0
C136 C 0.19932 0.84204 0.12383 0.0
C137 C 0.16819 0.8756 0.17829 0.0
C138 C 0.18883 0.88625 0.18319 0.0
C139 C 0.16874 0.89702 0.18776 0.0
C140 C 0.16171 0.8864 0.18294 0.0
C141 C 0.18234 0.89691 0.18812 0.0
C142 C 0.18181 0.87568 0.17825 0.0
C143 C 0.16059 0.86422 0.17395 0.0
O144 O 0.14485 0.83847 0.14764 0.0
O145 O 0.15675 0.82678 0.16064 0.0
O146 O 0.16598 0.85298 0.17589 0.0
O147 O 0.15505 0.86524 0.16254 0.0
H148 H 0.12892 0.8428 0.16769 0.0
H149 H 0.10994 0.8354 0.18039 0.0
H150 H 0.11793 0.79593 0.1707 0.0
H151 H 0.13676 0.80329 0.15784 0.0
H152 H 0.17753 0.81374 0.11127 0.0
H153 H 0.16948 0.82788 0.12841 0.0
H154 H 0.21358 0.83562 0.11029 0.0
H155 H 0.20551 0.84983 0.12738 0.0
H156 H 0.19932 0.88605 0.18332 0.0
H157 H 0.16358 0.90522 0.19145 0.0
H158 H 0.15122 0.88653 0.183 0.0
H159 H 0.18702 0.8675 0.17459 0.0
C160 C 0.13184 0.82697 0.83931 0.0
C161 C 0.13181 0.83108 0.82632 0.0
C162 C 0.11163 0.81914 0.82267 0.0
C163 C 0.12179 0.82714 0.81804 0.0
C164 C 0.11149 0.8153 0.83574 0.0
C165 C 0.12158 0.81916 0.844 0.0
U166 U 0.15998 0.84954 0.84779 0.0
O167 O 0.16703 0.85688 0.86648 0.0
O168 O 0.17973 0.84528 0.85435 0.0
C169 C 0.17805 0.85081 0.86562 0.0
C170 C 0.1426 0.83066 0.84796 0.0
C171 C 0.18177 0.84303 0.87695 0.0
C172 C 0.17627 0.829 0.8952 0.0
C173 C 0.17244 0.83644 0.88457 0.0
C174 C 0.19878 0.83448 0.89059 0.0
C175 C 0.18946 0.82795 0.89823 0.0
C176 C 0.19495 0.842 0.88004 0.0
C177 C 0.16748 0.87844 0.82588 0.0
C178 C 0.18657 0.89216 0.82921 0.0
C179 C 0.17154 0.897 0.81188 0.0
C180 C 0.16383 0.88629 0.81546 0.0
C181 C 0.18298 0.89994 0.81869 0.0
C182 C 0.17885 0.88146 0.83281 0.0
C183 C 0.15948 0.86702 0.82929 0.0
O184 O 0.15424 0.8296 0.84298 0.0
O185 O 0.14114 0.84146 0.85437 0.0
O186 O 0.1528 0.8679 0.84006 0.0
O187 O 0.16525 0.85589 0.82811 0.0
H188 H 0.1396 0.83722 0.82256 0.0
H189 H 0.12201 0.83024 0.808 0.0
H190 H 0.10367 0.8092 0.83947 0.0
H191 H 0.12142 0.81596 0.85401 0.0
H192 H 0.16898 0.82397 0.901 0.0
H193 H 0.16222 0.83701 0.88228 0.0
H194 H 0.209 0.83374 0.8928 0.0
H195 H 0.20228 0.84697 0.87423 0.0
H196 H 0.1954 0.89432 0.83453 0.0
H197 H 0.16867 0.90292 0.80372 0.0
H198 H 0.15509 0.88408 0.81003 0.0
H199 H 0.18178 0.87547 0.84089 0.0
C200 C 0.12921 0.16835 0.82571 0.0
C201 C 0.12413 0.17728 0.83443 0.0
C202 C 0.10915 0.18464 0.81793 0.0
C203 C 0.11411 0.18534 0.83056 0.0
C204 C 0.11412 0.17562 0.80928 0.0
C205 C 0.12409 0.16751 0.81317 0.0
U206 U 0.158 0.16095 0.8475 0.0
O207 O 0.1653 0.14242 0.85467 0.0
O208 O 0.17761 0.15485 0.84224 0.0
C209 C 0.17615 0.14358 0.84804 0.0
C210 C 0.14019 0.16028 0.82935 0.0
C211 C 0.17984 0.13232 0.84032 0.0
C212 C 0.17433 0.11347 0.82734 0.0
C213 C 0.17049 0.12409 0.8346 0.0
C214 C 0.19687 0.1193 0.83125 0.0
C215 C 0.18755 0.11104 0.8256 0.0
C216 C 0.19304 0.12985 0.83858 0.0
C217 C 0.16676 0.18289 0.87568 0.0
C218 C 0.18412 0.17765 0.89059 0.0
C219 C 0.17498 0.19903 0.89075 0.0
C220 C 0.16644 0.19538 0.88084 0.0
C221 C 0.18392 0.19021 0.89562 0.0
C222 C 0.17562 0.17403 0.88064 0.0
C223 C 0.15823 0.17941 0.86479 0.0
O224 O 0.15168 0.16578 0.82775 0.0
O225 O 0.13904 0.15392 0.84038 0.0
O226 O 0.15147 0.16857 0.86616 0.0
O227 O 0.16355 0.18072 0.85329 0.0
H228 H 0.12804 0.17813 0.84412 0.0
H229 H 0.1104 0.19231 0.83732 0.0
H230 H 0.11042 0.17499 0.79949 0.0
H231 H 0.12793 0.16071 0.80631 0.0
H232 H 0.16703 0.10719 0.82301 0.0
H233 H 0.16025 0.12587 0.83574 0.0
H234 H 0.2071 0.11757 0.82998 0.0
H235 H 0.20039 0.1361 0.84289 0.0
H236 H 0.19101 0.17076 0.8942 0.0
H237 H 0.17476 0.20876 0.8945 0.0
H238 H 0.1597 0.20235 0.87708 0.0
H239 H 0.17608 0.16437 0.8767 0.0
C240 C 0.82229 0.13087 0.84613 0.0
C241 C 0.82532 0.12907 0.83301 0.0
C242 C 0.81232 0.10921 0.83286 0.0
C243 C 0.82032 0.11831 0.8264 0.0
C244 C 0.80957 0.11085 0.84603 0.0
C245 C 0.81451 0.12163 0.85262 0.0
U246 U 0.84533 0.16004 0.85055 0.0
O247 O 0.84101 0.18011 0.85535 0.0
O248 O 0.85298 0.16868 0.86853 0.0
C249 C 0.84663 0.17942 0.86675 0.0
C250 C 0.8267 0.14252 0.85307 0.0
C251 C 0.83897 0.18383 0.87788 0.0
C252 C 0.81842 0.18952 0.88764 0.0
C253 C 0.8254 0.18475 0.87718 0.0
C254 C 0.83835 0.19212 0.89984 0.0
C255 C 0.82486 0.19335 0.89899 0.0
C256 C 0.84536 0.18747 0.88933 0.0
C257 C 0.87325 0.16645 0.82703 0.0
C258 C 0.88522 0.18694 0.8263 0.0
C259 C 0.89154 0.16936 0.81244 0.0
C260 C 0.88155 0.16156 0.8176 0.0
C261 C 0.89333 0.18213 0.81664 0.0
C262 C 0.87524 0.17912 0.8315 0.0
C263 C 0.86225 0.15843 0.8317 0.0
O264 O 0.8379 0.14174 0.85905 0.0
O265 O 0.8253 0.15351 0.84682 0.0
O266 O 0.85082 0.16361 0.83028 0.0
O267 O 0.8638 0.15286 0.84305 0.0
H268 H 0.83136 0.1361 0.82786 0.0
H269 H 0.8225 0.11718 0.81622 0.0
H270 H 0.80338 0.10392 0.85113 0.0
H271 H 0.81208 0.12286 0.86273 0.0
H272 H 0.808 0.19032 0.88686 0.0
H273 H 0.82019 0.1819 0.86852 0.0
H274 H 0.84346 0.19496 0.90857 0.0
H275 H 0.85579 0.18682 0.89009 0.0
H276 H 0.88646 0.1968 0.8296 0.0
H277 H 0.8977 0.16554 0.80495 0.0
H278 H 0.88014 0.15181 0.81405 0.0
H279 H 0.86892 0.18303 0.83879 0.0
C280 C 0.84142 0.87373 0.82204 0.0
C281 C 0.83471 0.88096 0.83124 0.0
C282 C 0.82745 0.89549 0.81427 0.0
C283 C 0.82781 0.89182 0.82737 0.0
C284 C 0.83402 0.88819 0.80508 0.0
C285 C 0.84098 0.87739 0.80895 0.0
U286 U 0.84768 0.84535 0.84487 0.0
O287 O 0.85279 0.82533 0.84029 0.0
O288 O 0.86594 0.83745 0.85198 0.0
C289 C 0.86425 0.8265 0.84576 0.0
C290 C 0.84877 0.8623 0.82586 0.0
C291 C 0.87529 0.82239 0.83788 0.0
C292 C 0.89368 0.82732 0.82383 0.0
C293 C 0.88296 0.8314 0.83088 0.0
C294 C 0.88897 0.80517 0.83038 0.0
C295 C 0.89677 0.8142 0.82361 0.0
C296 C 0.87831 0.80925 0.83751 0.0
C297 C 0.82611 0.83991 0.87472 0.0
C298 C 0.821 0.81973 0.88604 0.0
C299 C 0.81879 0.84014 0.89709 0.0
C300 C 0.82294 0.84674 0.88593 0.0
C301 C 0.81766 0.8266 0.89717 0.0
C302 C 0.82527 0.82633 0.87491 0.0
C303 C 0.82996 0.84717 0.86294 0.0
O304 O 0.8557 0.8634 0.83649 0.0
O305 O 0.8424 0.8512 0.82506 0.0
O306 O 0.82788 0.84132 0.85185 0.0
O307 O 0.84123 0.85332 0.86345 0.0
H308 H 0.83484 0.87823 0.84138 0.0
H309 H 0.82275 0.89735 0.83457 0.0
H310 H 0.83381 0.89089 0.79494 0.0
H311 H 0.84604 0.87189 0.80172 0.0
H312 H 0.8996 0.83439 0.81862 0.0
H313 H 0.88074 0.84158 0.83097 0.0
H314 H 0.89124 0.795 0.83028 0.0
H315 H 0.87248 0.80217 0.84281 0.0
H316 H 0.82018 0.80928 0.88596 0.0
H317 H 0.81624 0.84558 0.9056 0.0
H318 H 0.82354 0.8572 0.886 0.0
H319 H 0.82775 0.82082 0.86642 0.0
C320 C 0.16766 0.62807 0.68618 0.0
C321 C 0.17977 0.62549 0.68067 0.0
C322 C 0.18304 0.60848 0.6966 0.0
C323 C 0.18743 0.61574 0.68587 0.0
C324 C 0.17081 0.61088 0.70189 0.0
C325 C 0.16317 0.62062 0.69671 0.0
U326 U 0.16178 0.65541 0.66213 0.0
O327 O 0.14353 0.66223 0.65361 0.0
O328 O 0.15566 0.67529 0.66538 0.0
C329 C 0.14457 0.67352 0.65931 0.0
C330 C 0.15987 0.6388 0.68139 0.0
C331 C 0.13297 0.6779 0.66617 0.0
C332 C 0.12147 0.68258 0.68609 0.0
C333 C 0.13215 0.67744 0.67976 0.0
C334 C 0.11207 0.68825 0.66536 0.0
C335 C 0.11145 0.68814 0.67892 0.0
C336 C 0.12279 0.68319 0.65903 0.0
C337 C 0.18579 0.6621 0.63441 0.0
C338 C 0.18563 0.66648 0.61119 0.0
C339 C 0.19972 0.67913 0.6252 0.0
C340 C 0.19525 0.672 0.6359 0.0
C341 C 0.19493 0.67643 0.6128 0.0
C342 C 0.1811 0.65936 0.6219 0.0
C343 C 0.18122 0.65447 0.64581 0.0
O344 O 0.16534 0.65033 0.68248 0.0
O345 O 0.15419 0.63698 0.67014 0.0
O346 O 0.17041 0.64765 0.6444 0.0
O347 O 0.18199 0.66032 0.65705 0.0
H348 H 0.18337 0.63117 0.67253 0.0
H349 H 0.19687 0.61402 0.68172 0.0
H350 H 0.16733 0.60538 0.71021 0.0
H351 H 0.15386 0.6225 0.70107 0.0
H352 H 0.12109 0.6824 0.69657 0.0
H353 H 0.13986 0.67333 0.68547 0.0
H354 H 0.1044 0.69249 0.6597 0.0
H355 H 0.12325 0.68362 0.64856 0.0
H356 H 0.18191 0.66422 0.60165 0.0
H357 H 0.20697 0.68673 0.62658 0.0
H358 H 0.19922 0.67422 0.64535 0.0
H359 H 0.17396 0.65171 0.62036 0.0
C360 C 0.82879 0.66426 0.6292 0.0
C361 C 0.82923 0.67783 0.62842 0.0
C362 C 0.81835 0.67701 0.60759 0.0
C363 C 0.82397 0.68416 0.61771 0.0
C364 C 0.81819 0.66346 0.60822 0.0
C365 C 0.82335 0.65713 0.61898 0.0
U366 U 0.85224 0.66137 0.65761 0.0
O367 O 0.84851 0.65587 0.67787 0.0
O368 O 0.8614 0.64423 0.66601 0.0
C369 C 0.85518 0.64524 0.67705 0.0
C370 C 0.83366 0.6574 0.64069 0.0
C371 C 0.84834 0.63347 0.6816 0.0
C372 C 0.83022 0.61815 0.68023 0.0
C373 C 0.83698 0.62903 0.67544 0.0
C374 C 0.84623 0.61596 0.69726 0.0
C375 C 0.83477 0.61162 0.69123 0.0
C376 C 0.85298 0.62683 0.69246 0.0
C377 C 0.8784 0.68726 0.663 0.0
C378 C 0.89173 0.68741 0.68239 0.0
C379 C 0.89474 0.70418 0.66607 0.0
C380 C 0.88493 0.69846 0.65858 0.0
C381 C 0.89809 0.69875 0.67806 0.0
C382 C 0.88192 0.68167 0.67488 0.0
C383 C 0.86763 0.68179 0.65537 0.0
O384 O 0.84521 0.65244 0.63954 0.0
O385 O 0.83189 0.66316 0.65183 0.0
O386 O 0.85624 0.68199 0.66105 0.0
O387 O 0.8699 0.67076 0.64966 0.0
H388 H 0.83348 0.68352 0.63616 0.0
H389 H 0.82416 0.69463 0.61734 0.0
H390 H 0.81387 0.65782 0.60049 0.0
H391 H 0.82295 0.64667 0.61941 0.0
H392 H 0.82137 0.61491 0.6755 0.0
H393 H 0.83327 0.63408 0.66704 0.0
H394 H 0.84984 0.61101 0.70576 0.0
H395 H 0.86173 0.63015 0.69732 0.0
H396 H 0.8942 0.68315 0.69165 0.0
H397 H 0.89955 0.71296 0.66265 0.0
H398 H 0.88231 0.70289 0.64944 0.0
H399 H 0.87694 0.67302 0.67842 0.0
C400 C 0.82599 0.34345 0.63114 0.0
C401 C 0.83546 0.33673 0.62432 0.0
C402 C 0.81891 0.32788 0.60996 0.0
C403 C 0.83194 0.32904 0.61374 0.0
C404 C 0.80945 0.33457 0.61679 0.0
C405 C 0.81298 0.34233 0.62729 0.0
U406 U 0.84792 0.35132 0.6599 0.0
O407 O 0.85441 0.37011 0.66773 0.0
O408 O 0.84293 0.3566 0.67981 0.0
C409 C 0.84823 0.36823 0.67873 0.0
C410 C 0.82942 0.35139 0.64246 0.0
C411 C 0.84009 0.37886 0.68302 0.0
C412 C 0.8201 0.39083 0.68202 0.0
C413 C 0.82802 0.38113 0.67724 0.0
C414 C 0.83639 0.39623 0.69814 0.0
C415 C 0.8242 0.39833 0.69259 0.0
C416 C 0.84428 0.38656 0.69338 0.0
C417 C 0.87724 0.33031 0.66668 0.0
C418 C 0.88828 0.32899 0.68744 0.0
C419 C 0.89765 0.31918 0.66847 0.0
C420 C 0.88725 0.32338 0.66098 0.0
C421 C 0.89814 0.32183 0.68176 0.0
C422 C 0.87791 0.33326 0.67993 0.0
C423 C 0.86597 0.33389 0.6588 0.0
O424 O 0.82824 0.34548 0.65371 0.0
O425 O 0.8401 0.35849 0.64145 0.0
O426 O 0.8669 0.34508 0.65273 0.0
O427 O 0.8546 0.33179 0.66425 0.0
H428 H 0.84555 0.33738 0.62721 0.0
H429 H 0.83935 0.32389 0.60859 0.0
H430 H 0.79935 0.33375 0.614 0.0
H431 H 0.80554 0.3474 0.63248 0.0
H432 H 0.8107 0.3923 0.67767 0.0
H433 H 0.82465 0.37525 0.66923 0.0
H434 H 0.83966 0.40191 0.70633 0.0
H435 H 0.85356 0.38493 0.69794 0.0
H436 H 0.88854 0.3311 0.69769 0.0
H437 H 0.90518 0.31364 0.66397 0.0
H438 H 0.88689 0.32102 0.65079 0.0
H439 H 0.8703 0.33864 0.68449 0.0
C440 C 0.13052 0.32168 0.66778 0.0
C441 C 0.12537 0.33026 0.67679 0.0
C442 C 0.11031 0.31349 0.68435 0.0
C443 C 0.11529 0.32619 0.685 0.0
C444 C 0.11533 0.30497 0.67523 0.0
C445 C 0.12539 0.30905 0.66697 0.0
U446 U 0.15855 0.34494 0.66069 0.0
O447 O 0.17873 0.34126 0.65528 0.0
O448 O 0.16643 0.35253 0.64228 0.0
C449 C 0.17757 0.34679 0.64386 0.0
C450 C 0.14167 0.32562 0.6597 0.0
C451 C 0.18192 0.33901 0.63292 0.0
C452 C 0.17878 0.32096 0.61827 0.0
C453 C 0.1742 0.32873 0.62822 0.0
C454 C 0.19876 0.33373 0.61755 0.0
C455 C 0.19113 0.32335 0.61297 0.0
C456 C 0.19417 0.34153 0.62747 0.0
C457 C 0.16398 0.37358 0.68335 0.0
C458 C 0.18103 0.38982 0.67994 0.0
C459 C 0.16848 0.38969 0.69979 0.0
C460 C 0.1613 0.37897 0.69543 0.0
C461 C 0.17841 0.39514 0.6921 0.0
C462 C 0.17387 0.37905 0.67559 0.0
C463 C 0.1566 0.36205 0.67917 0.0
O464 O 0.14038 0.33642 0.65309 0.0
O465 O 0.15298 0.32482 0.66544 0.0
O466 O 0.16259 0.35107 0.68064 0.0
O467 O 0.15059 0.36303 0.66799 0.0
H468 H 0.1293 0.34001 0.67761 0.0
H469 H 0.11155 0.33286 0.69205 0.0
H470 H 0.11161 0.29511 0.67467 0.0
H471 H 0.12931 0.30229 0.66012 0.0
H472 H 0.17281 0.31294 0.61486 0.0
H473 H 0.16475 0.32661 0.63239 0.0
H474 H 0.20834 0.33566 0.61358 0.0
H475 H 0.20026 0.34939 0.63103 0.0
H476 H 0.18868 0.39393 0.67391 0.0
H477 H 0.16635 0.39369 0.7092 0.0
H478 H 0.15373 0.37482 0.70154 0.0
H479 H 0.1761 0.37495 0.66626 0.0
C480 C 0.12718 0.33022 0.34546 0.0
C481 C 0.12446 0.33637 0.33364 0.0
C482 C 0.10657 0.3212 0.32999 0.0
C483 C 0.11419 0.33188 0.32593 0.0
C484 C 0.10917 0.3152 0.3419 0.0
C485 C 0.11943 0.31969 0.34959 0.0
U486 U 0.15637 0.35253 0.35128 0.0
O487 O 0.16412 0.36064 0.36941 0.0
O488 O 0.17604 0.34793 0.35766 0.0
C489 C 0.17486 0.35409 0.36865 0.0
C490 C 0.13833 0.33437 0.35331 0.0
C491 C 0.17821 0.34653 0.38019 0.0
C492 C 0.1738 0.32866 0.39503 0.0
C493 C 0.17005 0.33638 0.38457 0.0
C494 C 0.19377 0.34131 0.39693 0.0
C495 C 0.18574 0.33102 0.40116 0.0
C496 C 0.19002 0.34903 0.38649 0.0
C497 C 0.16539 0.37923 0.32752 0.0
C498 C 0.18372 0.39365 0.33192 0.0
C499 C 0.17394 0.39339 0.31057 0.0
C500 C 0.16495 0.38394 0.31477 0.0
C501 C 0.18342 0.39821 0.31911 0.0
C502 C 0.17478 0.38417 0.3361 0.0
C503 C 0.15652 0.36868 0.33159 0.0
O504 O 0.14969 0.33254 0.34796 0.0
O505 O 0.13743 0.34574 0.35877 0.0
O506 O 0.15002 0.37067 0.34231 0.0
O507 O 0.16148 0.35711 0.33108 0.0
H508 H 0.13039 0.34451 0.33032 0.0
H509 H 0.11229 0.33658 0.31675 0.0
H510 H 0.10337 0.30694 0.34512 0.0
H511 H 0.12144 0.31483 0.35867 0.0
H512 H 0.16754 0.3207 0.39817 0.0
H513 H 0.16093 0.33429 0.37975 0.0
H514 H 0.20304 0.3432 0.40155 0.0
H515 H 0.19645 0.35679 0.38317 0.0
H516 H 0.19102 0.39725 0.33859 0.0
H517 H 0.17363 0.3968 0.30064 0.0
H518 H 0.15782 0.38016 0.30801 0.0
H519 H 0.17532 0.38055 0.34595 0.0
C520 C 0.13343 0.66365 0.33027 0.0
C521 C 0.13251 0.67677 0.33345 0.0
C522 C 0.11201 0.67784 0.32198 0.0
C523 C 0.12188 0.68385 0.32927 0.0
C524 C 0.11275 0.66465 0.31912 0.0
C525 C 0.12341 0.6576 0.32322 0.0
U526 U 0.16338 0.65816 0.3512 0.0
O527 O 0.17189 0.64013 0.35826 0.0
O528 O 0.1831 0.65307 0.34534 0.0
C529 C 0.18238 0.64172 0.35113 0.0
C530 C 0.14496 0.65629 0.33374 0.0
C531 C 0.18641 0.63061 0.34324 0.0
C532 C 0.1835 0.60842 0.33587 0.0
C533 C 0.17924 0.61887 0.34313 0.0
C534 C 0.20207 0.62124 0.32861 0.0
C535 C 0.19492 0.60956 0.32852 0.0
C536 C 0.19789 0.63164 0.33595 0.0
C537 C 0.17183 0.68085 0.37889 0.0
C538 C 0.18976 0.67667 0.39346 0.0
C539 C 0.17947 0.6975 0.39366 0.0
C540 C 0.17094 0.69333 0.38396 0.0
C541 C 0.18897 0.68921 0.39841 0.0
C542 C 0.18126 0.67252 0.38371 0.0
C543 C 0.16318 0.67679 0.36829 0.0
O544 O 0.15615 0.66227 0.33165 0.0
O545 O 0.14445 0.65012 0.34491 0.0
O546 O 0.15706 0.66562 0.36999 0.0
O547 O 0.16807 0.67824 0.35662 0.0
H548 H 0.14012 0.68159 0.33893 0.0
H549 H 0.12143 0.69403 0.33154 0.0
H550 H 0.10521 0.65991 0.31348 0.0
H551 H 0.12396 0.64749 0.3207 0.0
H552 H 0.17791 0.59944 0.33597 0.0
H553 H 0.17039 0.61771 0.3487 0.0
H554 H 0.21095 0.62226 0.32307 0.0
H555 H 0.20367 0.64051 0.33596 0.0
H556 H 0.19708 0.67018 0.397 0.0
H557 H 0.17879 0.70722 0.39737 0.0
H558 H 0.16374 0.69988 0.3803 0.0
H559 H 0.18214 0.66287 0.37984 0.0
C560 C 0.82117 0.63106 0.34361 0.0
C561 C 0.82873 0.62565 0.33382 0.0
C562 C 0.81195 0.60925 0.33011 0.0
C563 C 0.82415 0.61477 0.32712 0.0
C564 C 0.80441 0.61468 0.33988 0.0
C565 C 0.80901 0.62553 0.3466 0.0
U566 U 0.84544 0.65889 0.34817 0.0
O567 O 0.84241 0.6791 0.3535 0.0
O568 O 0.85414 0.66674 0.36602 0.0
C569 C 0.84852 0.67793 0.3646 0.0
C570 C 0.82584 0.64248 0.35072 0.0
C571 C 0.84158 0.68258 0.37602 0.0
C572 C 0.82187 0.68441 0.38871 0.0
C573 C 0.82838 0.67953 0.37798 0.0
C574 C 0.84173 0.69517 0.39576 0.0
C575 C 0.82851 0.69226 0.39766 0.0
C576 C 0.84821 0.69036 0.38501 0.0
C577 C 0.87369 0.66359 0.32441 0.0
C578 C 0.8958 0.67174 0.32746 0.0
C579 C 0.8848 0.67544 0.30709 0.0
C580 C 0.87383 0.66876 0.3118 0.0
C581 C 0.89585 0.67697 0.31489 0.0
C582 C 0.88479 0.66516 0.33222 0.0
C583 C 0.86197 0.65651 0.32909 0.0
O584 O 0.83694 0.64118 0.35679 0.0
O585 O 0.82504 0.65352 0.34445 0.0
O586 O 0.85102 0.66266 0.3279 0.0
O587 O 0.86296 0.65026 0.34017 0.0
H588 H 0.83814 0.62984 0.33138 0.0
H589 H 0.83006 0.61068 0.31959 0.0
H590 H 0.79498 0.61052 0.34229 0.0
H591 H 0.80307 0.6296 0.35412 0.0
H592 H 0.81165 0.68212 0.39001 0.0
H593 H 0.82312 0.67349 0.37116 0.0
H594 H 0.84698 0.70125 0.40256 0.0
H595 H 0.85839 0.6928 0.38364 0.0
H596 H 0.90428 0.67277 0.33358 0.0
H597 H 0.8847 0.67936 0.29734 0.0
H598 H 0.86544 0.66762 0.30557 0.0
H599 H 0.885 0.66129 0.34198 0.0
C600 C 0.83908 0.36943 0.31838 0.0
C601 C 0.83327 0.37728 0.32767 0.0
C602 C 0.82536 0.39133 0.3106 0.0
C603 C 0.82648 0.38821 0.32379 0.0
C604 C 0.83098 0.38338 0.30133 0.0
C605 C 0.83783 0.37251 0.3052 0.0
U606 U 0.84656 0.34153 0.34157 0.0
O607 O 0.85164 0.3215 0.33732 0.0
O608 O 0.86546 0.33409 0.34766 0.0
C609 C 0.86354 0.32304 0.3417 0.0
C610 C 0.84658 0.35809 0.3222 0.0
C611 C 0.87385 0.31947 0.33265 0.0
C612 C 0.88338 0.32032 0.31115 0.0
C613 C 0.87352 0.32363 0.31969 0.0
C614 C 0.89417 0.30883 0.32842 0.0
C615 C 0.89381 0.31297 0.31547 0.0
C616 C 0.88424 0.31206 0.33697 0.0
C617 C 0.82583 0.33674 0.37221 0.0
C618 C 0.8299 0.32067 0.38892 0.0
C619 C 0.81021 0.33302 0.3895 0.0
C620 C 0.81408 0.3396 0.37824 0.0
C621 C 0.81807 0.3235 0.39488 0.0
C622 C 0.83375 0.32724 0.3776 0.0
C623 C 0.82946 0.34365 0.36023 0.0
O624 O 0.85397 0.35948 0.33249 0.0
O625 O 0.84025 0.34694 0.32193 0.0
O626 O 0.82711 0.33734 0.34946 0.0
O627 O 0.84081 0.34969 0.36026 0.0
H628 H 0.83405 0.37502 0.33789 0.0
H629 H 0.82216 0.39426 0.33105 0.0
H630 H 0.83018 0.38566 0.29111 0.0
H631 H 0.84222 0.36654 0.29791 0.0
H632 H 0.88288 0.32351 0.30115 0.0
H633 H 0.86562 0.32942 0.31618 0.0
H634 H 0.90216 0.30316 0.33192 0.0
H635 H 0.88468 0.30882 0.34695 0.0
H636 H 0.83606 0.31334 0.39298 0.0
H637 H 0.80107 0.33531 0.39399 0.0
H638 H 0.80785 0.34688 0.37419 0.0
H639 H 0.84283 0.32488 0.37303 0.0
C640 C 0.66607 0.12826 0.68334 0.0
C641 C 0.67539 0.12364 0.67474 0.0
C642 C 0.68258 0.1084 0.69108 0.0
C643 C 0.68357 0.11373 0.67858 0.0
C644 C 0.67313 0.11288 0.6996 0.0
C645 C 0.66491 0.12275 0.69574 0.0
U646 U 0.65948 0.15713 0.66159 0.0
O647 O 0.6413 0.16475 0.65386 0.0
O648 O 0.65355 0.17676 0.66656 0.0
C649 C 0.6424 0.17553 0.66049 0.0
C650 C 0.65803 0.13928 0.67974 0.0
C651 C 0.63083 0.17971 0.6677 0.0
C652 C 0.60796 0.17739 0.67334 0.0
C653 C 0.61899 0.1727 0.66722 0.0
C654 C 0.62044 0.19602 0.68073 0.0
C655 C 0.60861 0.18913 0.68003 0.0
C656 C 0.63143 0.19139 0.67455 0.0
C657 C 0.68262 0.16545 0.63391 0.0
C658 C 0.67813 0.18247 0.61832 0.0
C659 C 0.69961 0.17352 0.61951 0.0
C660 C 0.69543 0.16514 0.62942 0.0
C661 C 0.69101 0.18227 0.61396 0.0
C662 C 0.67397 0.17415 0.62828 0.0
C663 C 0.67856 0.15705 0.64478 0.0
O664 O 0.66359 0.15068 0.68147 0.0
O665 O 0.6519 0.13831 0.66861 0.0
O666 O 0.66762 0.1505 0.64317 0.0
O667 O 0.67959 0.16234 0.65626 0.0
H668 H 0.6765 0.12786 0.66516 0.0
H669 H 0.69088 0.11041 0.67192 0.0
H670 H 0.6723 0.1089 0.7093 0.0
H671 H 0.65781 0.12626 0.70252 0.0
H672 H 0.59889 0.17197 0.67271 0.0
H673 H 0.61816 0.16371 0.66196 0.0
H674 H 0.62108 0.20512 0.68584 0.0
H675 H 0.64037 0.19706 0.67497 0.0
H676 H 0.6714 0.18922 0.61416 0.0
H677 H 0.70959 0.17328 0.61626 0.0
H678 H 0.70224 0.15853 0.6337 0.0
H679 H 0.66406 0.17459 0.6317 0.0
C680 C 0.32138 0.16926 0.6294 0.0
C681 C 0.32731 0.18123 0.62631 0.0
C682 C 0.3106 0.18521 0.61033 0.0
C683 C 0.32193 0.18918 0.61681 0.0
C684 C 0.30487 0.17311 0.61319 0.0
C685 C 0.31023 0.16518 0.6227 0.0
U686 U 0.34635 0.16296 0.65559 0.0
O687 O 0.34368 0.15732 0.67594 0.0
O688 O 0.35422 0.14466 0.66286 0.0
C689 C 0.3491 0.14607 0.6744 0.0
C690 C 0.3263 0.16131 0.64005 0.0
C691 C 0.34154 0.13497 0.67948 0.0
C692 C 0.32115 0.12293 0.68153 0.0
C693 C 0.32861 0.13279 0.67566 0.0
C694 C 0.33959 0.11708 0.69472 0.0
C695 C 0.32656 0.11516 0.69121 0.0
C696 C 0.34703 0.12696 0.68889 0.0
C697 C 0.37473 0.18596 0.66084 0.0
C698 C 0.39013 0.18149 0.67799 0.0
C699 C 0.38974 0.2028 0.66809 0.0
C700 C 0.37971 0.19865 0.6599 0.0
C701 C 0.39487 0.19428 0.67728 0.0
C702 C 0.38008 0.17736 0.66985 0.0
C703 C 0.36331 0.18207 0.65323 0.0
O704 O 0.33726 0.15548 0.63779 0.0
O705 O 0.32591 0.16674 0.65149 0.0
O706 O 0.35225 0.1831 0.65939 0.0
O707 O 0.36421 0.17116 0.64688 0.0
H708 H 0.33592 0.18453 0.63144 0.0
H709 H 0.32642 0.19853 0.61472 0.0
H710 H 0.29609 0.16996 0.60828 0.0
H711 H 0.30553 0.15598 0.625 0.0
H712 H 0.31108 0.12158 0.67877 0.0
H713 H 0.32423 0.13892 0.66842 0.0
H714 H 0.34386 0.11118 0.70222 0.0
H715 H 0.35698 0.12855 0.69196 0.0
H716 H 0.39396 0.17484 0.68509 0.0
H717 H 0.39328 0.21272 0.66749 0.0
H718 H 0.37561 0.20543 0.65308 0.0
H719 H 0.37625 0.16757 0.6708 0.0
C720 C 0.32628 0.84333 0.63562 0.0
C721 C 0.33532 0.84046 0.62592 0.0
C722 C 0.31843 0.8296 0.6134 0.0
C723 C 0.33141 0.83368 0.61487 0.0
C724 C 0.30946 0.83223 0.62318 0.0
C725 C 0.31334 0.83911 0.63417 0.0
U726 U 0.34826 0.8497 0.66488 0.0
O727 O 0.35595 0.86796 0.67286 0.0
O728 O 0.34327 0.85537 0.68473 0.0
C729 C 0.34924 0.8667 0.68364 0.0
C730 C 0.33004 0.85081 0.64722 0.0
C731 C 0.34193 0.87812 0.68784 0.0
C732 C 0.3388 0.9014 0.68764 0.0
C733 C 0.34514 0.89055 0.68303 0.0
C734 C 0.32588 0.88768 0.70196 0.0
C735 C 0.32919 0.90002 0.69717 0.0
C736 C 0.33223 0.87682 0.69738 0.0
C737 C 0.37687 0.82738 0.67145 0.0
C738 C 0.40004 0.82348 0.67253 0.0
C739 C 0.38628 0.8178 0.6908 0.0
C740 C 0.3755 0.82231 0.68408 0.0
C741 C 0.39858 0.8183 0.68504 0.0
C742 C 0.38926 0.82795 0.66578 0.0
C743 C 0.36551 0.8315 0.66382 0.0
O744 O 0.32843 0.84478 0.65837 0.0
O745 O 0.34097 0.85757 0.64652 0.0
O746 O 0.36682 0.84256 0.65757 0.0
O747 O 0.35407 0.82986 0.66927 0.0
H748 H 0.34539 0.8435 0.62682 0.0
H749 H 0.33847 0.83167 0.60744 0.0
H750 H 0.29942 0.82909 0.62223 0.0
H751 H 0.30622 0.84119 0.64153 0.0
H752 H 0.3415 0.91089 0.6839 0.0
H753 H 0.35267 0.89195 0.67583 0.0
H754 H 0.31853 0.88648 0.70938 0.0
H755 H 0.32967 0.86744 0.70146 0.0
H756 H 0.40948 0.82389 0.66795 0.0
H757 H 0.38501 0.81377 0.70044 0.0
H758 H 0.3661 0.82166 0.68873 0.0
H759 H 0.39058 0.83171 0.65604 0.0
C760 C 0.63096 0.8271 0.66341 0.0
C761 C 0.63001 0.83083 0.67635 0.0
C762 C 0.60724 0.82342 0.67724 0.0
C763 C 0.61852 0.82865 0.68326 0.0
C764 C 0.60884 0.81871 0.66448 0.0
C765 C 0.6204 0.82078 0.65761 0.0
U766 U 0.66159 0.84711 0.65823 0.0
O767 O 0.6816 0.84163 0.65414 0.0
O768 O 0.67131 0.85403 0.64042 0.0
C769 C 0.68179 0.84741 0.64277 0.0
C770 C 0.64295 0.82964 0.65601 0.0
C771 C 0.68658 0.83964 0.63201 0.0
C772 C 0.68656 0.81977 0.61961 0.0
C773 C 0.68121 0.82736 0.62933 0.0
C774 C 0.70242 0.83682 0.61495 0.0
C775 C 0.69729 0.82442 0.61248 0.0
C776 C 0.6971 0.84438 0.62466 0.0
C777 C 0.66792 0.87513 0.68159 0.0
C778 C 0.68876 0.8863 0.68387 0.0
C779 C 0.67009 0.89363 0.69579 0.0
C780 C 0.66245 0.88384 0.69023 0.0
C781 C 0.68332 0.89481 0.69277 0.0
C782 C 0.68109 0.87651 0.67828 0.0
C783 C 0.65991 0.86435 0.67664 0.0
O784 O 0.64323 0.84051 0.64933 0.0
O785 O 0.65378 0.82759 0.66231 0.0
O786 O 0.66466 0.8528 0.67845 0.0
O787 O 0.65497 0.86598 0.66503 0.0
H788 H 0.63825 0.83529 0.68122 0.0
H789 H 0.61889 0.83083 0.69343 0.0
H790 H 0.60141 0.81304 0.65968 0.0
H791 H 0.62111 0.81732 0.64777 0.0
H792 H 0.68254 0.81019 0.61783 0.0
H793 H 0.67308 0.82357 0.63492 0.0
H794 H 0.71073 0.84051 0.60956 0.0
H795 H 0.70135 0.85383 0.62661 0.0
H796 H 0.69897 0.88708 0.68149 0.0
H797 H 0.66578 0.90011 0.70267 0.0
H798 H 0.65231 0.8829 0.69289 0.0
H799 H 0.68546 0.86986 0.67161 0.0
C800 C 0.63114 0.8276 0.34074 0.0
C801 C 0.63068 0.83189 0.32782 0.0
C802 C 0.61025 0.82025 0.32475 0.0
C803 C 0.62033 0.8282 0.31987 0.0
C804 C 0.61054 0.81622 0.33776 0.0
C805 C 0.62097 0.81984 0.3457 0.0
U806 U 0.66033 0.84921 0.34707 0.0
O807 O 0.66863 0.85714 0.36504 0.0
O808 O 0.68022 0.84462 0.35274 0.0
C809 C 0.67933 0.85054 0.36392 0.0
C810 C 0.64229 0.83107 0.34895 0.0
C811 C 0.68351 0.84314 0.37547 0.0
C812 C 0.68325 0.83941 0.39878 0.0
C813 C 0.67891 0.84616 0.38789 0.0
C814 C 0.69691 0.82655 0.38511 0.0
C815 C 0.69225 0.82957 0.39744 0.0
C816 C 0.69263 0.83331 0.37422 0.0
C817 C 0.66767 0.87646 0.32301 0.0
C818 C 0.68765 0.88928 0.32395 0.0
C819 C 0.67179 0.89348 0.30719 0.0
C820 C 0.66376 0.88361 0.31219 0.0
C821 C 0.68382 0.89627 0.31297 0.0
C822 C 0.6796 0.87941 0.32897 0.0
C823 C 0.65947 0.86565 0.32766 0.0
O824 O 0.65367 0.82925 0.34363 0.0
O825 O 0.64155 0.84222 0.35488 0.0
O826 O 0.65355 0.86749 0.33874 0.0
O827 O 0.66468 0.85422 0.32682 0.0
H828 H 0.6384 0.83799 0.32386 0.0
H829 H 0.62021 0.83145 0.30987 0.0
H830 H 0.60278 0.81016 0.34168 0.0
H831 H 0.62115 0.8165 0.35566 0.0
H832 H 0.67963 0.8419 0.40827 0.0
H833 H 0.67204 0.85379 0.38923 0.0
H834 H 0.70394 0.81903 0.38394 0.0
H835 H 0.69654 0.83089 0.36484 0.0
H836 H 0.69693 0.89133 0.32848 0.0
H837 H 0.66875 0.89879 0.29868 0.0
H838 H 0.65459 0.88143 0.30748 0.0
H839 H 0.68274 0.87394 0.33733 0.0
C840 C 0.62789 0.16486 0.33032 0.0
C841 C 0.62487 0.17609 0.33714 0.0
C842 C 0.60676 0.17979 0.32265 0.0
C843 C 0.61435 0.18353 0.33332 0.0
C844 C 0.60966 0.16846 0.31598 0.0
C845 C 0.62017 0.16105 0.31979 0.0
U846 U 0.65768 0.15872 0.35126 0.0
O847 O 0.66587 0.1405 0.3582 0.0
O848 O 0.67731 0.15333 0.34536 0.0
C849 C 0.67642 0.14198 0.35114 0.0
C850 C 0.63932 0.15733 0.3337 0.0
C851 C 0.68047 0.13079 0.34338 0.0
C852 C 0.67773 0.10842 0.3365 0.0
C853 C 0.67323 0.1191 0.34327 0.0
C854 C 0.69663 0.12098 0.32962 0.0
C855 C 0.6895 0.10928 0.32972 0.0
C856 C 0.69218 0.13161 0.33644 0.0
C857 C 0.66648 0.18081 0.3793 0.0
C858 C 0.68426 0.17595 0.39385 0.0
C859 C 0.67461 0.19709 0.39425 0.0
C860 C 0.66596 0.19326 0.3845 0.0
C861 C 0.68385 0.18848 0.39892 0.0
C862 C 0.67566 0.17215 0.38406 0.0
C863 C 0.65776 0.17711 0.36863 0.0
O864 O 0.65053 0.1633 0.33177 0.0
O865 O 0.63871 0.15102 0.34478 0.0
O866 O 0.6514 0.16605 0.37013 0.0
O867 O 0.66271 0.17865 0.35698 0.0
H868 H 0.63077 0.17918 0.34528 0.0
H869 H 0.61224 0.19227 0.33853 0.0
H870 H 0.60391 0.16549 0.3077 0.0
H871 H 0.62239 0.15243 0.31441 0.0
H872 H 0.67212 0.09945 0.33668 0.0
H873 H 0.66419 0.11811 0.34855 0.0
H874 H 0.70574 0.12179 0.32444 0.0
H875 H 0.69801 0.14045 0.33645 0.0
H876 H 0.69138 0.16922 0.39731 0.0
H877 H 0.67422 0.20681 0.39804 0.0
H878 H 0.65898 0.20007 0.3809 0.0
H879 H 0.67626 0.16252 0.38009 0.0
C880 C 0.31985 0.13248 0.34266 0.0
C881 C 0.32786 0.12799 0.33275 0.0
C882 C 0.311 0.11262 0.32628 0.0
C883 C 0.32347 0.11808 0.32462 0.0
C884 C 0.30307 0.11698 0.33629 0.0
C885 C 0.30748 0.12686 0.34445 0.0
U886 U 0.34358 0.16006 0.34997 0.0
O887 O 0.3401 0.18006 0.35568 0.0
O888 O 0.351 0.16736 0.36862 0.0
C889 C 0.34534 0.17853 0.36717 0.0
C890 C 0.32407 0.14337 0.35077 0.0
C891 C 0.33756 0.18283 0.37822 0.0
C892 C 0.31675 0.1873 0.38809 0.0
C893 C 0.32393 0.18249 0.37779 0.0
C894 C 0.33666 0.19237 0.39962 0.0
C895 C 0.32307 0.19239 0.39902 0.0
C896 C 0.34385 0.18769 0.38926 0.0
C897 C 0.37243 0.16667 0.32788 0.0
C898 C 0.38803 0.18391 0.33261 0.0
C899 C 0.38785 0.17389 0.31146 0.0
C900 C 0.3776 0.1657 0.31539 0.0
C901 C 0.39303 0.18312 0.32001 0.0
C902 C 0.37775 0.17576 0.33651 0.0
C903 C 0.36098 0.15876 0.33153 0.0
O904 O 0.33492 0.14178 0.3572 0.0
O905 O 0.3234 0.15478 0.34518 0.0
O906 O 0.34987 0.16454 0.33007 0.0
O907 O 0.36182 0.15236 0.34253 0.0
H908 H 0.33742 0.13228 0.3312 0.0
H909 H 0.32966 0.11484 0.31689 0.0
H910 H 0.29341 0.11288 0.33764 0.0
H911 H 0.30117 0.13026 0.35202 0.0
H912 H 0.30626 0.18716 0.38751 0.0
H913 H 0.31885 0.17868 0.36942 0.0
H914 H 0.34168 0.19618 0.40803 0.0
H915 H 0.35434 0.18798 0.3898 0.0
H916 H 0.3919 0.19105 0.33928 0.0
H917 H 0.39158 0.17321 0.30169 0.0
H918 H 0.37354 0.15879 0.30859 0.0
H919 H 0.37379 0.17672 0.34616 0.0
C920 C 0.34289 0.87805 0.32594 0.0
C921 C 0.32931 0.8772 0.3248 0.0
C922 C 0.32891 0.89941 0.31706 0.0
C923 C 0.32238 0.8878 0.32032 0.0
C924 C 0.34242 0.90036 0.31847 0.0
C925 C 0.34936 0.88973 0.32283 0.0
U926 U 0.34936 0.84919 0.34834 0.0
O927 O 0.35555 0.82961 0.34375 0.0
O928 O 0.36791 0.84211 0.35588 0.0
C929 C 0.36681 0.83117 0.34956 0.0
C930 C 0.35055 0.86685 0.33001 0.0
C931 C 0.37823 0.82743 0.34205 0.0
C932 C 0.38945 0.82493 0.32154 0.0
C933 C 0.37887 0.82936 0.32858 0.0
C934 C 0.39909 0.81703 0.3414 0.0
C935 C 0.39957 0.81865 0.32791 0.0
C936 C 0.38847 0.82137 0.34841 0.0
C937 C 0.32711 0.84074 0.37648 0.0
C938 C 0.33254 0.82361 0.39159 0.0
C939 C 0.31103 0.83257 0.39183 0.0
C940 C 0.3146 0.84102 0.38174 0.0
C941 C 0.31997 0.82378 0.39675 0.0
C942 C 0.33609 0.83201 0.38148 0.0
C943 C 0.33059 0.8492 0.36547 0.0
O944 O 0.35672 0.86804 0.34108 0.0
O945 O 0.34505 0.85537 0.32845 0.0
O946 O 0.32941 0.84379 0.35405 0.0
O947 O 0.34142 0.85601 0.36676 0.0
H948 H 0.32407 0.86832 0.32722 0.0
H949 H 0.31195 0.88692 0.31928 0.0
H950 H 0.34759 0.90926 0.31598 0.0
H951 H 0.35981 0.8906 0.32364 0.0
H952 H 0.38969 0.82624 0.31113 0.0
H953 H 0.3711 0.83408 0.32348 0.0
H954 H 0.40681 0.81217 0.34644 0.0
H955 H 0.38815 0.8198 0.35879 0.0
H956 H 0.33953 0.81684 0.39526 0.0
H957 H 0.30128 0.83276 0.39569 0.0
H958 H 0.30754 0.84766 0.37794 0.0
H959 H 0.34576 0.8316 0.37746 0.0
C960 C 0.66223 0.62937 0.18356 0.0
C961 C 0.67569 0.62852 0.18177 0.0
C962 C 0.67542 0.60756 0.19252 0.0
C963 C 0.68224 0.61769 0.18628 0.0
C964 C 0.66193 0.60825 0.19399 0.0
C965 C 0.65539 0.61912 0.18957 0.0
U966 U 0.65782 0.65879 0.16148 0.0
O967 O 0.63999 0.66754 0.15414 0.0
O968 O 0.65326 0.67878 0.16651 0.0
C969 C 0.64193 0.67824 0.16071 0.0
C970 C 0.65525 0.64101 0.17959 0.0
C971 C 0.63102 0.68247 0.16864 0.0
C972 C 0.61508 0.67838 0.18558 0.0
C973 C 0.62488 0.67397 0.17749 0.0
C974 C 0.61738 0.69977 0.176 0.0
C975 C 0.61138 0.69135 0.18497 0.0
C976 C 0.62714 0.69535 0.16787 0.0
C977 C 0.68097 0.66608 0.13372 0.0
C978 C 0.6772 0.68387 0.11881 0.0
C979 C 0.6981 0.67362 0.11921 0.0
C980 C 0.69363 0.66516 0.12893 0.0
C981 C 0.68994 0.68308 0.11418 0.0
C982 C 0.67275 0.67545 0.12857 0.0
C983 C 0.67664 0.65768 0.14448 0.0
O984 O 0.66152 0.65206 0.18131 0.0
O985 O 0.64916 0.64034 0.16843 0.0
O986 O 0.66532 0.65182 0.14293 0.0
O987 O 0.67814 0.66272 0.15604 0.0
H988 H 0.68114 0.63629 0.17707 0.0
H989 H 0.69265 0.61727 0.18504 0.0
H990 H 0.65654 0.60048 0.19877 0.0
H991 H 0.64501 0.61959 0.191 0.0
H992 H 0.61057 0.67179 0.1925 0.0
H993 H 0.62784 0.66402 0.17829 0.0
H994 H 0.61466 0.70981 0.17546 0.0
H995 H 0.63183 0.70203 0.16114 0.0
H996 H 0.67081 0.69116 0.11505 0.0
H997 H 0.70797 0.67294 0.11575 0.0
H998 H 0.70011 0.65803 0.13285 0.0
H999 H 0.66298 0.67637 0.13223 0.0
C1000 C 0.32573 0.66834 0.12812 0.0
C1001 C 0.32779 0.6818 0.1285 0.0
C1002 C 0.31759 0.68404 0.10744 0.0
C1003 C 0.32368 0.6896 0.11826 0.0
C1004 C 0.31573 0.67057 0.10695 0.0
C1005 C 0.31973 0.66278 0.11726 0.0
U1006 U 0.34927 0.6616 0.15533 0.0
O1007 O 0.34599 0.65489 0.17532 0.0
O1008 O 0.35783 0.64351 0.16215 0.0
C1009 C 0.35216 0.64408 0.17352 0.0
C1010 C 0.32999 0.66004 0.13886 0.0
C1011 C 0.34513 0.63232 0.1778 0.0
C1012 C 0.32857 0.6156 0.17456 0.0
C1013 C 0.33546 0.62654 0.17007 0.0
C1014 C 0.34094 0.61617 0.19452 0.0
C1015 C 0.33123 0.61043 0.18686 0.0
C1016 C 0.34786 0.62705 0.19001 0.0
C1017 C 0.37718 0.68569 0.16099 0.0
C1018 C 0.39612 0.6813 0.17416 0.0
C1019 C 0.39105 0.70338 0.16841 0.0
C1020 C 0.38017 0.69895 0.16157 0.0
C1021 C 0.39909 0.69458 0.17472 0.0
C1022 C 0.38517 0.67687 0.16739 0.0
C1023 C 0.36565 0.68129 0.15378 0.0
O1024 O 0.34107 0.6543 0.13703 0.0
O1025 O 0.32889 0.66496 0.1505 0.0
O1026 O 0.35466 0.68169 0.16017 0.0
O1027 O 0.36689 0.67065 0.14706 0.0
H1028 H 0.33256 0.68629 0.13671 0.0
H1029 H 0.32526 0.69996 0.11876 0.0
H1030 H 0.31112 0.66613 0.09863 0.0
H1031 H 0.31816 0.65241 0.11675 0.0
H1032 H 0.32107 0.61126 0.16856 0.0
H1033 H 0.33319 0.63055 0.16065 0.0
H1034 H 0.34309 0.61228 0.20403 0.0
H1035 H 0.35526 0.63144 0.19611 0.0
H1036 H 0.40226 0.67441 0.17899 0.0
H1037 H 0.39325 0.71365 0.16875 0.0
H1038 H 0.37409 0.70588 0.15673 0.0
H1039 H 0.38296 0.6666 0.16714 0.0
C1040 C 0.32389 0.34199 0.13216 0.0
C1041 C 0.33321 0.33538 0.12502 0.0
C1042 C 0.31643 0.32722 0.11052 0.0
C1043 C 0.32951 0.32809 0.11423 0.0
C1044 C 0.30712 0.33378 0.11768 0.0
C1045 C 0.31083 0.34115 0.12841 0.0
U1046 U 0.34612 0.34859 0.16098 0.0
O1047 O 0.35319 0.36702 0.1692 0.0
O1048 O 0.34142 0.35355 0.18105 0.0
C1049 C 0.34705 0.36504 0.18021 0.0
C1050 C 0.32753 0.34954 0.14368 0.0
C1051 C 0.33933 0.37583 0.18487 0.0
C1052 C 0.31942 0.38796 0.18513 0.0
C1053 C 0.32688 0.3781 0.17997 0.0
C1054 C 0.33692 0.39356 0.19988 0.0
C1055 C 0.32437 0.39565 0.19521 0.0
C1056 C 0.34435 0.38371 0.19473 0.0
C1057 C 0.37503 0.32674 0.1669 0.0
C1058 C 0.38595 0.32368 0.18754 0.0
C1059 C 0.3959 0.31634 0.16773 0.0
C1060 C 0.38538 0.32085 0.16062 0.0
C1061 C 0.39617 0.31759 0.18124 0.0
C1062 C 0.37546 0.32828 0.18041 0.0
C1063 C 0.36374 0.33077 0.15928 0.0
O1064 O 0.32628 0.34337 0.15478 0.0
O1065 O 0.33836 0.35645 0.1428 0.0
O1066 O 0.36486 0.34207 0.15344 0.0
O1067 O 0.35238 0.3288 0.1648 0.0
H1068 H 0.34333 0.33581 0.12783 0.0
H1069 H 0.3368 0.32303 0.10883 0.0
H1070 H 0.29699 0.33317 0.11496 0.0
H1071 H 0.3035 0.34612 0.13384 0.0
H1072 H 0.30973 0.38944 0.18148 0.0
H1073 H 0.32287 0.3721 0.17234 0.0
H1074 H 0.34084 0.39938 0.20768 0.0
H1075 H 0.35393 0.38209 0.19862 0.0
H1076 H 0.38604 0.32474 0.19796 0.0
H1077 H 0.40374 0.31167 0.16274 0.0
H1078 H 0.38523 0.3196 0.15021 0.0
H1079 H 0.36761 0.33286 0.18545 0.0
C1080 C 0.62759 0.32138 0.16568 0.0
C1081 C 0.62577 0.32623 0.1782 0.0
C1082 C 0.60774 0.31109 0.18156 0.0
C1083 C 0.61591 0.32108 0.18611 0.0
C1084 C 0.60932 0.30652 0.16891 0.0
C1085 C 0.61921 0.31164 0.16102 0.0
U1086 U 0.65572 0.34496 0.15898 0.0
O1087 O 0.67579 0.3411 0.15333 0.0
O1088 O 0.66352 0.35266 0.14058 0.0
C1089 C 0.67458 0.34674 0.14197 0.0
C1090 C 0.63861 0.32587 0.1577 0.0
C1091 C 0.67869 0.33897 0.13093 0.0
C1092 C 0.67487 0.32135 0.11591 0.0
C1093 C 0.67052 0.32921 0.12589 0.0
C1094 C 0.69553 0.333 0.11583 0.0
C1095 C 0.68745 0.32312 0.11093 0.0
C1096 C 0.69116 0.34089 0.12578 0.0
C1097 C 0.66239 0.37315 0.18181 0.0
C1098 C 0.68334 0.38365 0.18564 0.0
C1099 C 0.66361 0.39464 0.19112 0.0
C1100 C 0.65626 0.38403 0.18673 0.0
C1101 C 0.6772 0.39443 0.19077 0.0
C1102 C 0.676 0.3731 0.18112 0.0
C1103 C 0.65448 0.36189 0.17767 0.0
O1104 O 0.63719 0.33695 0.15162 0.0
O1105 O 0.65002 0.32482 0.16321 0.0
O1106 O 0.6599 0.35059 0.17901 0.0
O1107 O 0.64831 0.36321 0.16663 0.0
H1108 H 0.63217 0.33376 0.18194 0.0
H1109 H 0.61482 0.32465 0.19587 0.0
H1110 H 0.60312 0.29877 0.1653 0.0
H1111 H 0.6205 0.30778 0.1514 0.0
H1112 H 0.66856 0.31371 0.11225 0.0
H1113 H 0.66089 0.32754 0.12983 0.0
H1114 H 0.70528 0.33444 0.11211 0.0
H1115 H 0.6976 0.34834 0.12961 0.0
H1116 H 0.69382 0.38337 0.18521 0.0
H1117 H 0.65872 0.40293 0.19497 0.0
H1118 H 0.64578 0.38427 0.18728 0.0
H1119 H 0.68095 0.36487 0.17723 0.0
C1120 C 0.62771 0.32951 0.84273 0.0
C1121 C 0.6272 0.33249 0.82945 0.0
C1122 C 0.60673 0.32063 0.82765 0.0
C1123 C 0.61678 0.32802 0.82194 0.0
C1124 C 0.60709 0.31789 0.84096 0.0
C1125 C 0.61755 0.32228 0.84846 0.0
U1126 U 0.65673 0.352 0.84857 0.0
O1127 O 0.66442 0.3602 0.86672 0.0
O1128 O 0.67651 0.34776 0.85484 0.0
C1129 C 0.67528 0.35386 0.86586 0.0
C1130 C 0.63885 0.33369 0.85063 0.0
C1131 C 0.67896 0.34645 0.87743 0.0
C1132 C 0.67896 0.32637 0.88976 0.0
C1133 C 0.67466 0.33358 0.87916 0.0
C1134 C 0.69151 0.34496 0.89724 0.0
C1135 C 0.68751 0.33199 0.89877 0.0
C1136 C 0.68726 0.35214 0.8866 0.0
C1137 C 0.66504 0.37873 0.82444 0.0
C1138 C 0.68354 0.39319 0.82796 0.0
C1139 C 0.67256 0.3931 0.8072 0.0
C1140 C 0.66386 0.38358 0.8118 0.0
C1141 C 0.68251 0.39786 0.81522 0.0
C1142 C 0.67487 0.38365 0.83254 0.0
C1143 C 0.65647 0.36807 0.82883 0.0
O1144 O 0.65028 0.33192 0.84539 0.0
O1145 O 0.63785 0.34503 0.85614 0.0
O1146 O 0.65013 0.37006 0.83965 0.0
O1147 O 0.6616 0.35659 0.82832 0.0
H1148 H 0.63491 0.33814 0.82489 0.0
H1149 H 0.6166 0.33024 0.81168 0.0
H1150 H 0.59937 0.3122 0.84549 0.0
H1151 H 0.61778 0.31994 0.85869 0.0
H1152 H 0.67582 0.31637 0.89083 0.0
H1153 H 0.6682 0.32905 0.87219 0.0
H1154 H 0.69812 0.3494 0.90412 0.0
H1155 H 0.69065 0.36207 0.88541 0.0
H1156 H 0.69122 0.39675 0.83423 0.0
H1157 H 0.67169 0.39659 0.79733 0.0
H1158 H 0.65637 0.37983 0.80541 0.0
H1159 H 0.67597 0.37993 0.8423 0.0
C1160 C 0.63196 0.66282 0.82848 0.0
C1161 C 0.62873 0.67384 0.83553 0.0
C1162 C 0.61097 0.67787 0.82072 0.0
C1163 C 0.61829 0.68134 0.83165 0.0
C1164 C 0.61405 0.66671 0.81384 0.0
C1165 C 0.6245 0.65923 0.8177 0.0
U1166 U 0.661 0.65665 0.85023 0.0
O1167 O 0.66941 0.6385 0.85703 0.0
O1168 O 0.68102 0.65195 0.84497 0.0
C1169 C 0.68016 0.64042 0.85037 0.0
C1170 C 0.6434 0.65534 0.83192 0.0
C1171 C 0.68454 0.6296 0.84232 0.0
C1172 C 0.68118 0.60833 0.83279 0.0
C1173 C 0.67652 0.61869 0.83993 0.0
C1174 C 0.70176 0.61975 0.82999 0.0
C1175 C 0.69384 0.60878 0.82782 0.0
C1176 C 0.69716 0.63004 0.83723 0.0
C1177 C 0.66729 0.67841 0.87944 0.0
C1178 C 0.68795 0.6808 0.89059 0.0
C1179 C 0.66836 0.68857 0.90054 0.0
C1180 C 0.66116 0.68437 0.88985 0.0
C1181 C 0.68181 0.68692 0.90091 0.0
C1182 C 0.68073 0.67651 0.87993 0.0
C1183 C 0.65956 0.67443 0.86812 0.0
O1184 O 0.65454 0.6616 0.83059 0.0
O1185 O 0.64255 0.64862 0.84274 0.0
O1186 O 0.65364 0.66309 0.86909 0.0
O1187 O 0.66502 0.67648 0.85677 0.0
H1188 H 0.63443 0.67675 0.84387 0.0
H1189 H 0.61603 0.68995 0.83703 0.0
H1190 H 0.60851 0.66394 0.80535 0.0
H1191 H 0.62689 0.65077 0.81215 0.0
H1192 H 0.67495 0.59992 0.83121 0.0
H1193 H 0.66673 0.61807 0.84369 0.0
H1194 H 0.71157 0.62022 0.82626 0.0
H1195 H 0.70353 0.63831 0.83897 0.0
H1196 H 0.69833 0.67944 0.89076 0.0
H1197 H 0.66349 0.69328 0.90845 0.0
H1198 H 0.6508 0.68587 0.88966 0.0
H1199 H 0.68564 0.67184 0.87202 0.0
C1200 C 0.32004 0.63204 0.84063 0.0
C1201 C 0.32517 0.62982 0.82827 0.0
C1202 C 0.31008 0.61172 0.82542 0.0
C1203 C 0.32018 0.61973 0.82069 0.0
C1204 C 0.30518 0.61374 0.8379 0.0
C1205 C 0.31013 0.62386 0.84545 0.0
U1206 U 0.34458 0.65921 0.84695 0.0
O1207 O 0.34171 0.67952 0.85195 0.0
O1208 O 0.35229 0.66695 0.86528 0.0
C1209 C 0.34722 0.67834 0.86336 0.0
C1210 C 0.32464 0.64308 0.84837 0.0
C1211 C 0.33993 0.68365 0.87423 0.0
C1212 C 0.32004 0.68545 0.88664 0.0
C1213 C 0.32716 0.67946 0.87692 0.0
C1214 C 0.33852 0.69955 0.89129 0.0
C1215 C 0.32565 0.69565 0.89375 0.0
C1216 C 0.34561 0.69359 0.88159 0.0
C1217 C 0.37391 0.66379 0.82444 0.0
C1218 C 0.38463 0.68191 0.81331 0.0
C1219 C 0.39747 0.6651 0.82302 0.0
C1220 C 0.38612 0.65863 0.8271 0.0
C1221 C 0.39679 0.67678 0.81612 0.0
C1222 C 0.37329 0.67549 0.81744 0.0
C1223 C 0.36195 0.65672 0.82863 0.0
O1224 O 0.33545 0.64137 0.85482 0.0
O1225 O 0.32426 0.65436 0.84246 0.0
O1226 O 0.35096 0.6627 0.82692 0.0
O1227 O 0.36253 0.65059 0.83981 0.0
H1228 H 0.33285 0.63603 0.82441 0.0
H1229 H 0.32402 0.6183 0.81106 0.0
H1230 H 0.29735 0.60765 0.84165 0.0
H1231 H 0.30608 0.62544 0.85497 0.0
H1232 H 0.31009 0.68237 0.88841 0.0
H1233 H 0.32263 0.67181 0.8713 0.0
H1234 H 0.34295 0.70744 0.89666 0.0
H1235 H 0.35544 0.69694 0.87962 0.0
H1236 H 0.38394 0.69088 0.80791 0.0
H1237 H 0.40678 0.66097 0.82519 0.0
H1238 H 0.38691 0.64956 0.83231 0.0
H1239 H 0.36406 0.67969 0.81509 0.0
C1240 C 0.3432 0.37478 0.82196 0.0
C1241 C 0.32957 0.37438 0.82239 0.0
C1242 C 0.32896 0.39618 0.81355 0.0
C1243 C 0.32252 0.38499 0.81816 0.0
C1244 C 0.34257 0.39671 0.81342 0.0
C1245 C 0.34963 0.38606 0.81752 0.0
U1246 U 0.35009 0.34681 0.8451 0.0
O1247 O 0.35483 0.32665 0.8411 0.0
O1248 O 0.36866 0.33902 0.85171 0.0
C1249 C 0.36651 0.32783 0.84608 0.0
C1250 C 0.35084 0.36352 0.82588 0.0
C1251 C 0.37703 0.3232 0.83785 0.0
C1252 C 0.38905 0.32371 0.8176 0.0
C1253 C 0.37955 0.32881 0.82565 0.0
C1254 C 0.39377 0.30758 0.83397 0.0
C1255 C 0.3961 0.31298 0.82168 0.0
C1256 C 0.38428 0.31267 0.84201 0.0
C1257 C 0.32834 0.34195 0.87497 0.0
C1258 C 0.32504 0.32193 0.88712 0.0
C1259 C 0.31772 0.34213 0.89595 0.0
C1260 C 0.3224 0.34871 0.88499 0.0
C1261 C 0.31887 0.32869 0.89702 0.0
C1262 C 0.32981 0.32853 0.87618 0.0
C1263 C 0.33244 0.34902 0.86319 0.0
O1264 O 0.35782 0.36494 0.83644 0.0
O1265 O 0.34487 0.35218 0.8252 0.0
O1266 O 0.3303 0.34304 0.85219 0.0
O1267 O 0.34384 0.35491 0.8637 0.0
H1268 H 0.32436 0.36585 0.82589 0.0
H1269 H 0.31202 0.38445 0.81841 0.0
H1270 H 0.3477 0.40531 0.80997 0.0
H1271 H 0.36012 0.38658 0.81716 0.0
H1272 H 0.39071 0.32794 0.8081 0.0
H1273 H 0.37401 0.33694 0.82229 0.0
H1274 H 0.3991 0.29927 0.83723 0.0
H1275 H 0.38244 0.30822 0.85138 0.0
H1276 H 0.32599 0.31154 0.8878 0.0
H1277 H 0.31295 0.34748 0.9035 0.0
H1278 H 0.32119 0.35906 0.88423 0.0
H1279 H 0.33442 0.32314 0.86857 0.0
C1280 C 0.31901 0.28724 0.06455 0.0
C1281 C 0.3072 0.29607 0.06477 0.0
C1282 C 0.29083 0.28553 0.05147 0.0
C1283 C 0.28015 0.29188 0.04636 0.0
C1284 C 0.27446 0.28786 0.03467 0.0
C1285 C 0.27954 0.27716 0.02805 0.0
C1286 C 0.29033 0.2707 0.03325 0.0
C1287 C 0.29577 0.27489 0.045 0.0
C1288 C 0.26291 0.2949 0.02946 0.0
C1289 C 0.29597 0.25924 0.0265 0.0
C1290 C 0.2861 0.32179 0.94736 0.0
C1291 C 0.2951 0.31047 0.94457 0.0
C1292 C 0.28511 0.29323 0.95729 0.0
C1293 C 0.29252 0.2835 0.9628 0.0
C1294 C 0.28853 0.27726 0.97431 0.0
C1295 C 0.27686 0.28091 0.98036 0.0
C1296 C 0.26939 0.29082 0.97478 0.0
C1297 C 0.2735 0.29671 0.96317 0.0
C1298 C 0.29666 0.26665 0.9799 0.0
C1299 C 0.25698 0.29507 0.981 0.0
C1300 C 0.218 0.21985 0.95576 0.0
C1301 C 0.2297 0.21506 0.96062 0.0
C1302 C 0.23485 0.21953 0.9724 0.0
C1303 C 0.22823 0.22905 0.97941 0.0
C1304 C 0.2163 0.23364 0.97471 0.0
C1305 C 0.21127 0.22885 0.96301 0.0
C1306 C 0.24737 0.21409 0.97736 0.0
C1307 C 0.20893 0.24371 0.98198 0.0
C1308 C 0.22488 0.22125 0.0803 0.0
C1309 C 0.212 0.21821 0.07328 0.0
C1310 C 0.2193 0.21672 0.05075 0.0
C1311 C 0.22873 0.21028 0.04375 0.0
C1312 C 0.23373 0.21545 0.03212 0.0
C1313 C 0.22894 0.22723 0.02727 0.0
C1314 C 0.21898 0.23351 0.03401 0.0
C1315 C 0.21425 0.2282 0.04568 0.0
C1316 C 0.24426 0.20843 0.02512 0.0
C1317 C 0.21334 0.24587 0.02888 0.0
C1318 C 0.27341 0.27254 0.01586 0.0
C1319 C 0.27752 0.27821 0.00419 0.0
C1320 C 0.27231 0.27419 0.99235 0.0
C1321 C 0.26278 0.26413 0.99207 0.0
C1322 C 0.25749 0.25968 0.98033 0.0
C1323 C 0.248 0.24991 0.98016 0.0
C1324 C 0.24347 0.24415 0.99173 0.0
C1325 C 0.23383 0.23419 0.99165 0.0
C1326 C 0.2294 0.22884 0.00335 0.0
C1327 C 0.2344 0.23307 0.01521 0.0
C1328 C 0.24422 0.24285 0.01546 0.0
C1329 C 0.24964 0.24717 0.02719 0.0
C1330 C 0.2592 0.25687 0.02735 0.0
C1331 C 0.26372 0.26264 0.01579 0.0
C1332 C 0.25841 0.25841 0.00385 0.0
C1333 C 0.2487 0.24845 0.00368 0.0
C1334 C 0.22345 0.22537 0.92637 0.0
C1335 C 0.21955 0.21257 0.93321 0.0
O1336 O 0.29567 0.28916 0.06311 0.0
O1337 O 0.21518 0.21146 0.06219 0.0
O1338 O 0.21279 0.21592 0.94428 0.0
O1339 O 0.28874 0.2986 0.94582 0.0
H1340 H 0.30884 0.30263 0.05633 0.0
H1341 H 0.32113 0.28436 0.05445 0.0
H1342 H 0.31744 0.27828 0.07033 0.0
H1343 H 0.32775 0.29247 0.06825 0.0
H1344 H 0.27627 0.29996 0.0516 0.0
H1345 H 0.30372 0.2697 0.04926 0.0
H1346 H 0.26518 0.29886 0.01968 0.0
H1347 H 0.26003 0.30296 0.03582 0.0
H1348 H 0.25455 0.28804 0.02844 0.0
H1349 H 0.30477 0.25567 0.03145 0.0
H1350 H 0.29851 0.26188 0.01636 0.0
H1351 H 0.28862 0.25125 0.02615 0.0
H1352 H 0.30267 0.3113 0.95218 0.0
H1353 H 0.29094 0.33112 0.94465 0.0
H1354 H 0.28392 0.32217 0.95788 0.0
H1355 H 0.27677 0.32093 0.9421 0.0
H1356 H 0.30137 0.28074 0.95801 0.0
H1357 H 0.26761 0.30396 0.95859 0.0
H1358 H 0.30029 0.26955 0.98959 0.0
H1359 H 0.30509 0.26447 0.97366 0.0
H1360 H 0.29064 0.25771 0.98119 0.0
H1361 H 0.25307 0.30383 0.97626 0.0
H1362 H 0.25861 0.29713 0.99142 0.0
H1363 H 0.24956 0.28717 0.98038 0.0
H1364 H 0.22836 0.2072 0.93574 0.0
H1365 H 0.23477 0.20766 0.95549 0.0
H1366 H 0.20217 0.23236 0.9593 0.0
H1367 H 0.25498 0.22184 0.97749 0.0
H1368 H 0.25083 0.20604 0.9713 0.0
H1369 H 0.24607 0.21053 0.98745 0.0
H1370 H 0.20014 0.24679 0.9767 0.0
H1371 H 0.2153 0.25232 0.9837 0.0
H1372 H 0.20596 0.23978 0.99159 0.0
H1373 H 0.20725 0.22737 0.07077 0.0
H1374 H 0.22371 0.22759 0.08877 0.0
H1375 H 0.23172 0.22634 0.07359 0.0
H1376 H 0.22941 0.21214 0.08357 0.0
H1377 H 0.23241 0.20132 0.04761 0.0
H1378 H 0.20648 0.23297 0.05061 0.0
H1379 H 0.25286 0.21495 0.02379 0.0
H1380 H 0.24078 0.20562 0.01534 0.0
H1381 H 0.24727 0.1996 0.03039 0.0
H1382 H 0.20504 0.24911 0.03478 0.0
H1383 H 0.21005 0.24451 0.01874 0.0
H1384 H 0.22094 0.25363 0.02883 0.0
H1385 H 0.28486 0.28588 0.00433 0.0
H1386 H 0.26062 0.2637 0.97112 0.0
H1387 H 0.24425 0.24694 0.97084 0.0
H1388 H 0.22193 0.22129 0.00323 0.0
H1389 H 0.24655 0.24309 0.0364 0.0
H1390 H 0.26298 0.25981 0.03668 0.0
H1391 H 0.21466 0.23047 0.9231 0.0
H1392 H 0.22987 0.22401 0.91794 0.0
H1393 H 0.22884 0.23175 0.9332 0.0
C1394 C 0.70305 0.28309 0.93201 0.0
C1395 C 0.70392 0.29629 0.93879 0.0
C1396 C 0.71979 0.29317 0.95645 0.0
C1397 C 0.73214 0.29689 0.96075 0.0
C1398 C 0.73716 0.29215 0.97242 0.0
C1399 C 0.72969 0.28321 0.97988 0.0
C1400 C 0.71715 0.2794 0.97564 0.0
C1401 C 0.71226 0.28449 0.96402 0.0
C1402 C 0.75045 0.29671 0.97676 0.0
C1403 C 0.70891 0.26989 0.98337 0.0
C1404 C 0.72771 0.29083 0.08109 0.0
C1405 C 0.71468 0.29204 0.07396 0.0
C1406 C 0.72118 0.29453 0.0513 0.0
C1407 C 0.71568 0.2832 0.04604 0.0
C1408 C 0.72024 0.27827 0.03431 0.0
C1409 C 0.73046 0.28483 0.02769 0.0
C1410 C 0.73566 0.29653 0.0327 0.0
C1411 C 0.73084 0.30129 0.04441 0.0
C1412 C 0.7142 0.26598 0.02903 0.0
C1413 C 0.74645 0.30384 0.02581 0.0
C1414 C 0.78944 0.22745 0.05305 0.0
C1415 C 0.77741 0.22255 0.04876 0.0
C1416 C 0.77227 0.22645 0.03682 0.0
C1417 C 0.77926 0.23553 0.02908 0.0
C1418 C 0.79158 0.24017 0.0332 0.0
C1419 C 0.79659 0.23592 0.04509 0.0
C1420 C 0.75933 0.22091 0.03252 0.0
C1421 C 0.79934 0.24978 0.02513 0.0
C1422 C 0.77814 0.21675 0.92901 0.0
C1423 C 0.79104 0.21706 0.93644 0.0
C1424 C 0.78524 0.21881 0.9593 0.0
C1425 C 0.77604 0.21294 0.96746 0.0
C1426 C 0.77148 0.21931 0.97845 0.0
C1427 C 0.77656 0.23173 0.98152 0.0
C1428 C 0.78618 0.23757 0.97349 0.0
C1429 C 0.79037 0.23107 0.96241 0.0
C1430 C 0.76125 0.21274 0.9868 0.0
C1431 C 0.79217 0.25058 0.97673 0.0
C1432 C 0.735 0.27797 0.99217 0.0
C1433 C 0.73091 0.2834 0.00379 0.0
C1434 C 0.73585 0.27926 0.01567 0.0
C1435 C 0.7454 0.26968 0.01602 0.0
C1436 C 0.75098 0.2657 0.02777 0.0
C1437 C 0.7603 0.25619 0.02804 0.0
C1438 C 0.76429 0.25018 0.01659 0.0
C1439 C 0.77356 0.24033 0.0168 0.0
C1440 C 0.77739 0.23463 0.00523 0.0
C1441 C 0.77211 0.2384 0.99336 0.0
C1442 C 0.76273 0.24817 0.99296 0.0
C1443 C 0.75706 0.25208 0.98123 0.0
C1444 C 0.74797 0.26182 0.98093 0.0
C1445 C 0.74412 0.26795 0.99237 0.0
C1446 C 0.74947 0.26393 0.00433 0.0
C1447 C 0.75885 0.2541 0.00462 0.0
C1448 C 0.79151 0.23615 0.08336 0.0
C1449 C 0.78772 0.2236 0.07627 0.0
O1450 O 0.71572 0.29816 0.94498 0.0
O1451 O 0.78935 0.21215 0.94886 0.0
O1452 O 0.79449 0.22393 0.06466 0.0
O1453 O 0.71725 0.29929 0.06286 0.0
H1454 H 0.69599 0.29582 0.94603 0.0
H1455 H 0.70252 0.27515 0.93927 0.0
H1456 H 0.7115 0.28127 0.92574 0.0
H1457 H 0.69411 0.28244 0.92603 0.0
H1458 H 0.73786 0.30362 0.95488 0.0
H1459 H 0.70263 0.28157 0.96097 0.0
H1460 H 0.75012 0.29994 0.98698 0.0
H1461 H 0.75435 0.30479 0.97066 0.0
H1462 H 0.75726 0.28859 0.97625 0.0
H1463 H 0.69994 0.2669 0.97815 0.0
H1464 H 0.70613 0.27435 0.99268 0.0
H1465 H 0.71454 0.26115 0.98568 0.0
H1466 H 0.71099 0.28223 0.07147 0.0
H1467 H 0.73123 0.30048 0.08441 0.0
H1468 H 0.73508 0.2869 0.07444 0.0
H1469 H 0.72713 0.28422 0.08955 0.0
H1470 H 0.70771 0.27827 0.05093 0.0
H1471 H 0.73485 0.31016 0.04843 0.0
H1472 H 0.71093 0.26758 0.01891 0.0
H1473 H 0.70581 0.26246 0.0349 0.0
H1474 H 0.72156 0.25832 0.02884 0.0
H1475 H 0.74957 0.3127 0.03106 0.0
H1476 H 0.74321 0.30662 0.01594 0.0
H1477 H 0.75492 0.29751 0.02469 0.0
H1478 H 0.77712 0.22361 0.07445 0.0
H1479 H 0.77211 0.21554 0.05466 0.0
H1480 H 0.80598 0.23946 0.04839 0.0
H1481 H 0.75205 0.22864 0.03246 0.0
H1482 H 0.75578 0.21296 0.03897 0.0
H1483 H 0.76005 0.21719 0.02249 0.0
H1484 H 0.80846 0.25295 0.03 0.0
H1485 H 0.79345 0.2584 0.02306 0.0
H1486 H 0.80182 0.24537 0.01571 0.0
H1487 H 0.79351 0.2275 0.93679 0.0
H1488 H 0.77966 0.22038 0.91896 0.0
H1489 H 0.77114 0.22314 0.93383 0.0
H1490 H 0.77363 0.20695 0.92857 0.0
H1491 H 0.7723 0.20338 0.96508 0.0
H1492 H 0.7979 0.23545 0.95644 0.0
H1493 H 0.75313 0.21939 0.98852 0.0
H1494 H 0.76549 0.21029 0.99636 0.0
H1495 H 0.75732 0.20373 0.98236 0.0
H1496 H 0.8003 0.25331 0.97013 0.0
H1497 H 0.79582 0.25053 0.98684 0.0
H1498 H 0.7847 0.2581 0.97602 0.0
H1499 H 0.72375 0.29091 0.00359 0.0
H1500 H 0.74825 0.26993 0.0369 0.0
H1501 H 0.76429 0.25358 0.03736 0.0
H1502 H 0.7845 0.22707 0.00548 0.0
H1503 H 0.75963 0.24769 0.97213 0.0
H1504 H 0.74397 0.26445 0.97162 0.0
H1505 H 0.80197 0.23618 0.08592 0.0
H1506 H 0.7858 0.23753 0.0923 0.0
H1507 H 0.78975 0.2446 0.07695 0.0
C1508 C 0.82028 0.80581 0.05687 0.0
C1509 C 0.80706 0.80455 0.06369 0.0
C1510 C 0.79584 0.78717 0.05212 0.0
C1511 C 0.78558 0.79359 0.04617 0.0
C1512 C 0.77934 0.78835 0.03526 0.0
C1513 C 0.78354 0.77649 0.03015 0.0
C1514 C 0.79379 0.76993 0.03626 0.0
C1515 C 0.79965 0.77526 0.04733 0.0
C1516 C 0.76827 0.79549 0.02918 0.0
C1517 C 0.79866 0.75737 0.03101 0.0
C1518 C 0.79389 0.8193 0.95265 0.0
C1519 C 0.79929 0.80695 0.94665 0.0
C1520 C 0.78732 0.79093 0.95916 0.0
C1521 C 0.79552 0.78199 0.96492 0.0
C1522 C 0.79195 0.77566 0.97651 0.0
C1523 C 0.78 0.77855 0.98247 0.0
C1524 C 0.77182 0.78777 0.97671 0.0
C1525 C 0.77549 0.79367 0.96496 0.0
C1526 C 0.80086 0.76582 0.9823 0.0
C1527 C 0.75919 0.7914 0.98292 0.0
C1528 C 0.71951 0.71794 0.96093 0.0
C1529 C 0.7301 0.71146 0.96632 0.0
C1530 C 0.73603 0.71589 0.97775 0.0
C1531 C 0.73124 0.72694 0.98397 0.0
C1532 C 0.72046 0.73333 0.97871 0.0
C1533 C 0.71476 0.72874 0.96725 0.0
C1534 C 0.74749 0.70883 0.98316 0.0
C1535 C 0.71502 0.74506 0.98515 0.0
C1536 C 0.72896 0.72034 0.08527 0.0
C1537 C 0.71624 0.71759 0.07787 0.0
C1538 C 0.72378 0.71588 0.05544 0.0
C1539 C 0.73337 0.70945 0.04864 0.0
C1540 C 0.73832 0.71442 0.03692 0.0
C1541 C 0.73333 0.72599 0.03176 0.0
C1542 C 0.72326 0.73228 0.03833 0.0
C1543 C 0.71858 0.72716 0.0501 0.0
C1544 C 0.74895 0.70738 0.03008 0.0
C1545 C 0.71744 0.74441 0.03288 0.0
C1546 C 0.77742 0.77114 0.01824 0.0
C1547 C 0.78131 0.77641 0.00632 0.0
C1548 C 0.776 0.77191 0.9947 0.0
C1549 C 0.76667 0.76168 0.9949 0.0
C1550 C 0.76141 0.75664 0.98339 0.0
C1551 C 0.75195 0.74685 0.98368 0.0
C1552 C 0.74741 0.74167 0.99551 0.0
C1553 C 0.73758 0.73192 0.99591 0.0
C1554 C 0.73333 0.72695 0.00783 0.0
C1555 C 0.73859 0.73149 0.01946 0.0
C1556 C 0.74839 0.74128 0.01926 0.0
C1557 C 0.75385 0.74613 0.03077 0.0
C1558 C 0.76334 0.75591 0.03047 0.0
C1559 C 0.76781 0.76116 0.01865 0.0
C1560 C 0.76246 0.75639 0.00693 0.0
C1561 C 0.75278 0.74641 0.00723 0.0
C1562 C 0.72921 0.70844 0.93337 0.0
C1563 C 0.71701 0.70462 0.94125 0.0
O1564 O 0.80203 0.79206 0.06267 0.0
O1565 O 0.71961 0.71074 0.06691 0.0
O1566 O 0.71358 0.71428 0.94973 0.0
O1567 O 0.79055 0.79666 0.94776 0.0
H1568 H 0.801 0.8113 0.05812 0.0
H1569 H 0.81902 0.80414 0.04633 0.0
H1570 H 0.82735 0.79877 0.0605 0.0
H1571 H 0.82442 0.81572 0.05814 0.0
H1572 H 0.78229 0.80258 0.05015 0.0
H1573 H 0.80749 0.77032 0.05211 0.0
H1574 H 0.77122 0.7991 0.01945 0.0
H1575 H 0.76528 0.80384 0.03508 0.0
H1576 H 0.75978 0.78884 0.02787 0.0
H1577 H 0.80746 0.7541 0.03617 0.0
H1578 H 0.80094 0.75845 0.02055 0.0
H1579 H 0.79098 0.74975 0.032 0.0
H1580 H 0.80797 0.80494 0.95263 0.0
H1581 H 0.80063 0.82763 0.9508 0.0
H1582 H 0.79298 0.81806 0.96331 0.0
H1583 H 0.7842 0.82167 0.94882 0.0
H1584 H 0.80461 0.77986 0.96022 0.0
H1585 H 0.76923 0.80059 0.96032 0.0
H1586 H 0.80455 0.76935 0.99176 0.0
H1587 H 0.80926 0.76389 0.97593 0.0
H1588 H 0.79543 0.7566 0.98413 0.0
H1589 H 0.75486 0.79995 0.97817 0.0
H1590 H 0.76069 0.79353 0.99335 0.0
H1591 H 0.75216 0.78317 0.98227 0.0
H1592 H 0.71988 0.69595 0.94679 0.0
H1593 H 0.73385 0.70299 0.9617 0.0
H1594 H 0.70656 0.73365 0.96308 0.0
H1595 H 0.75597 0.71558 0.98387 0.0
H1596 H 0.75019 0.70048 0.97711 0.0
H1597 H 0.74522 0.70529 0.9931 0.0
H1598 H 0.70631 0.74868 0.98008 0.0
H1599 H 0.72251 0.75292 0.98537 0.0
H1600 H 0.71238 0.7427 0.99533 0.0
H1601 H 0.71181 0.72688 0.07522 0.0
H1602 H 0.72771 0.72681 0.09363 0.0
H1603 H 0.73614 0.72519 0.07873 0.0
H1604 H 0.73313 0.71114 0.08877 0.0
H1605 H 0.73716 0.70063 0.05271 0.0
H1606 H 0.71068 0.73189 0.05488 0.0
H1607 H 0.75744 0.714 0.02857 0.0
H1608 H 0.7455 0.70426 0.02039 0.0
H1609 H 0.75211 0.69875 0.03559 0.0
H1610 H 0.70925 0.74783 0.03884 0.0
H1611 H 0.71392 0.74265 0.02288 0.0
H1612 H 0.72498 0.75222 0.03235 0.0
H1613 H 0.7885 0.78423 0.00608 0.0
H1614 H 0.76451 0.76025 0.974 0.0
H1615 H 0.7482 0.74342 0.97451 0.0
H1616 H 0.72573 0.71953 0.00807 0.0
H1617 H 0.75081 0.74245 0.04015 0.0
H1618 H 0.7671 0.75933 0.03964 0.0
H1619 H 0.73118 0.70089 0.92608 0.0
H1620 H 0.73779 0.7092 0.9398 0.0
H1621 H 0.72837 0.71783 0.9283 0.0
C1622 C 0.18779 0.78748 0.94471 0.0
C1623 C 0.19989 0.7964 0.94358 0.0
C1624 C 0.21711 0.78656 0.95576 0.0
C1625 C 0.22827 0.79348 0.95946 0.0
C1626 C 0.23495 0.79018 0.97081 0.0
C1627 C 0.2304 0.77962 0.97846 0.0
C1628 C 0.21911 0.7726 0.97469 0.0
C1629 C 0.21263 0.77611 0.96329 0.0
C1630 C 0.24698 0.79783 0.97454 0.0
C1631 C 0.21404 0.76125 0.98257 0.0
C1632 C 0.23691 0.79236 0.0793 0.0
C1633 C 0.22348 0.79242 0.07281 0.0
C1634 C 0.22834 0.79392 0.04966 0.0
C1635 C 0.22288 0.78218 0.04533 0.0
C1636 C 0.22668 0.77687 0.0335 0.0
C1637 C 0.23607 0.78348 0.02579 0.0
C1638 C 0.24122 0.79555 0.0299 0.0
C1639 C 0.23719 0.80067 0.04175 0.0
C1640 C 0.22068 0.76417 0.02922 0.0
C1641 C 0.25112 0.80293 0.02184 0.0
C1642 C 0.29832 0.72653 0.04676 0.0
C1643 C 0.28586 0.72191 0.04358 0.0
C1644 C 0.27966 0.72612 0.03226 0.0
C1645 C 0.28602 0.73525 0.02405 0.0
C1646 C 0.29869 0.73976 0.02715 0.0
C1647 C 0.30475 0.73518 0.03839 0.0
C1648 C 0.26635 0.72072 0.02903 0.0
C1649 C 0.3058 0.74946 0.01861 0.0
C1650 C 0.27821 0.71835 0.9232 0.0
C1651 C 0.29139 0.72112 0.92968 0.0
C1652 C 0.2879 0.72049 0.95302 0.0
C1653 C 0.27924 0.71407 0.96138 0.0
C1654 C 0.2755 0.71968 0.9731 0.0
C1655 C 0.28082 0.73187 0.97663 0.0
C1656 C 0.29004 0.73814 0.96847 0.0
C1657 C 0.29347 0.73239 0.95673 0.0
C1658 C 0.26574 0.71266 0.98163 0.0
C1659 C 0.29626 0.75093 0.97215 0.0
C1660 C 0.23764 0.77568 0.99021 0.0
C1661 C 0.23429 0.78119 0.00203 0.0
C1662 C 0.24053 0.77769 0.0135 0.0
C1663 C 0.25048 0.76851 0.01322 0.0
C1664 C 0.25707 0.76488 0.02455 0.0
C1665 C 0.26666 0.75564 0.02422 0.0
C1666 C 0.26998 0.74961 0.01256 0.0
C1667 C 0.27948 0.73997 0.01217 0.0
C1668 C 0.28275 0.7344 1.00036 0.0
C1669 C 0.27672 0.73809 0.98884 0.0
C1670 C 0.26701 0.74753 0.98907 0.0
C1671 C 0.26054 0.75129 0.97772 0.0
C1672 C 0.25097 0.76054 0.97805 0.0
C1673 C 0.24747 0.76638 0.98975 0.0
C1674 C 0.25389 0.76277 0.00131 0.0
C1675 C 0.26366 0.75332 0.00097 0.0
C1676 C 0.30227 0.73432 0.0772 0.0
C1677 C 0.29949 0.72168 0.06991 0.0
O1678 O 0.21121 0.78952 0.94447 0.0
O1679 O 0.29093 0.71485 0.9416 0.0
O1680 O 0.30461 0.72242 0.05751 0.0
O1681 O 0.22508 0.79915 0.06122 0.0
H1682 H 0.19906 0.80287 0.95207 0.0
H1683 H 0.18643 0.78432 0.95492 0.0
H1684 H 0.18851 0.77867 0.93874 0.0
H1685 H 0.17898 0.79275 0.9418 0.0
H1686 H 0.23173 0.80142 0.95341 0.0
H1687 H 0.20422 0.77056 0.96012 0.0
H1688 H 0.24578 0.80185 0.98439 0.0
H1689 H 0.24914 0.80589 0.96767 0.0
H1690 H 0.2554 0.79135 0.97484 0.0
H1691 H 0.20494 0.75701 0.97852 0.0
H1692 H 0.21219 0.76432 0.99267 0.0
H1693 H 0.22145 0.75365 0.98295 0.0
H1694 H 0.22027 0.7823 0.07104 0.0
H1695 H 0.24002 0.80236 0.0819 0.0
H1696 H 0.24417 0.78848 0.0725 0.0
H1697 H 0.23713 0.78623 0.08812 0.0
H1698 H 0.21549 0.77722 0.05104 0.0
H1699 H 0.24116 0.80986 0.04505 0.0
H1700 H 0.21637 0.76527 0.01943 0.0
H1701 H 0.21304 0.76055 0.03599 0.0
H1702 H 0.22831 0.75681 0.02855 0.0
H1703 H 0.25441 0.81207 0.02651 0.0
H1704 H 0.24691 0.80526 0.01223 0.0
H1705 H 0.25967 0.79683 0.02016 0.0
H1706 H 0.28879 0.72128 0.06946 0.0
H1707 H 0.28107 0.7148 0.04975 0.0
H1708 H 0.31447 0.73851 0.04084 0.0
H1709 H 0.25915 0.72849 0.02976 0.0
H1710 H 0.26332 0.71269 0.03565 0.0
H1711 H 0.26614 0.71714 0.01892 0.0
H1712 H 0.3151 0.75285 0.02295 0.0
H1713 H 0.29963 0.75794 0.01679 0.0
H1714 H 0.30786 0.74501 0.00911 0.0
H1715 H 0.29253 0.73171 0.93101 0.0
H1716 H 0.27699 0.7238 0.91403 0.0
H1717 H 0.27026 0.7212 0.92977 0.0
H1718 H 0.27702 0.70786 0.92118 0.0
H1719 H 0.27518 0.70477 0.95852 0.0
H1720 H 0.30065 0.73711 0.95056 0.0
H1721 H 0.25743 0.719 0.98358 0.0
H1722 H 0.27027 0.71031 0.99108 0.0
H1723 H 0.26202 0.70356 0.9772 0.0
H1724 H 0.30396 0.75409 0.96523 0.0
H1725 H 0.30053 0.75024 0.98199 0.0
H1726 H 0.28876 0.75845 0.97243 0.0
H1727 H 0.22662 0.78818 0.00233 0.0
H1728 H 0.25488 0.76913 0.03382 0.0
H1729 H 0.27139 0.75323 0.03324 0.0
H1730 H 0.29008 0.72705 1.00013 0.0
H1731 H 0.26276 0.74708 0.96844 0.0
H1732 H 0.24632 0.76303 0.969 0.0
H1733 H 0.29813 0.73366 0.08712 0.0
H1734 H 0.29762 0.74246 0.07206 0.0
H1735 H 0.31276 0.73668 0.07799 0.0
C1736 C 0.07473 0.30276 0.28035 0.0
C1737 C 0.06741 0.30355 0.29332 0.0
C1738 C 0.04892 0.28815 0.29077 0.0
C1739 C 0.04386 0.27624 0.29503 0.0
C1740 C 0.0322 0.27115 0.29006 0.0
C1741 C 0.02549 0.27813 0.28045 0.0
C1742 C 0.03045 0.29027 0.27616 0.0
C1743 C 0.04209 0.29521 0.2814 0.0
C1744 C 0.02709 0.25826 0.29502 0.0
C1745 C 0.0235 0.29795 0.26593 0.0
C1746 C 0.92723 0.30551 0.30361 0.0
C1747 C 0.93894 0.30294 0.29567 0.0
C1748 C 0.95541 0.28661 0.29263 0.0
C1749 C 0.96084 0.29241 0.28146 0.0
C1750 C 0.97189 0.28734 0.27561 0.0
C1751 C 0.97765 0.27626 0.28102 0.0
C1752 C 0.97209 0.27028 0.29213 0.0
C1753 C 0.961 0.27551 0.29775 0.0
C1754 C 0.97751 0.2939 0.26372 0.0
C1755 C 0.97798 0.25845 0.29812 0.0
C1756 C 0.95546 0.21547 0.22091 0.0
C1757 C 0.959 0.22793 0.21661 0.0
C1758 C 0.97034 0.2341 0.22119 0.0
C1759 C 0.97814 0.22772 0.23039 0.0
C1760 C 0.97463 0.21508 0.23462 0.0
C1761 C 0.96341 0.20904 0.22965 0.0
C1762 C 0.97404 0.24737 0.21608 0.0
C1763 C 0.98273 0.20794 0.24437 0.0
C1764 C 0.0767 0.21336 0.22536 0.0
C1765 C 0.06815 0.20959 0.21369 0.0
C1766 C 0.04878 0.22297 0.21643 0.0
C1767 C 0.0423 0.23362 0.21144 0.0
C1768 C 0.03089 0.23799 0.21718 0.0
C1769 C 0.02585 0.23153 0.22825 0.0
C1770 C 0.03232 0.22072 0.23338 0.0
C1771 C 0.04369 0.21653 0.22742 0.0
C1772 C 0.02422 0.24951 0.21144 0.0
C1773 C 0.02717 0.21362 0.24518 0.0
C1774 C 0.01337 0.27261 0.27479 0.0
C1775 C 0.00156 0.27642 0.27996 0.0
C1776 C 0.98979 0.27131 0.27536 0.0
C1777 C 0.98977 0.26196 0.26544 0.0
C1778 C 0.97815 0.25632 0.26084 0.0
C1779 C 0.97825 0.2471 0.25109 0.0
C1780 C 0.98995 0.24333 0.24541 0.0
C1781 C 0.99015 0.2341 0.23538 0.0
C1782 C 0.00197 0.23057 0.22997 0.0
C1783 C 0.0137 0.23594 0.23435 0.0
C1784 C 0.01371 0.24517 0.24438 0.0
C1785 C 0.02533 0.25075 0.24904 0.0
C1786 C 0.02525 0.25976 0.25896 0.0
C1787 C 0.01354 0.26355 0.26461 0.0
C1788 C 0.00169 0.25814 0.25999 0.0
C1789 C 0.00178 0.24889 0.2499 0.0
C1790 C 0.92524 0.21118 0.22884 0.0
C1791 C 0.93236 0.21411 0.21605 0.0
O1792 O 0.0604 0.29226 0.29593 0.0
O1793 O 0.05982 0.21939 0.21033 0.0
O1794 O 0.94473 0.20919 0.21638 0.0
O1795 O 0.94489 0.29143 0.29874 0.0
H1796 H 0.06081 0.31171 0.29189 0.0
H1797 H 0.08157 0.31115 0.27927 0.0
H1798 H 0.06782 0.3031 0.27214 0.0
H1799 H 0.08019 0.29375 0.27936 0.0
H1800 H 0.04915 0.27089 0.30229 0.0
H1801 H 0.04575 0.3045 0.27804 0.0
H1802 H 0.01689 0.25911 0.29825 0.0
H1803 H 0.03294 0.25451 0.3032 0.0
H1804 H 0.02719 0.2511 0.28707 0.0
H1805 H 0.02892 0.30695 0.26316 0.0
H1806 H 0.0138 0.30058 0.26957 0.0
H1807 H 0.022 0.29198 0.25715 0.0
H1808 H 0.94602 0.31123 0.29496 0.0
H1809 H 0.92985 0.31434 0.30942 0.0
H1810 H 0.92743 0.29864 0.31212 0.0
H1811 H 0.91248 0.30528 0.29018 0.0
H1812 H 0.95655 0.30091 0.27726 0.0
H1813 H 0.95672 0.27105 0.3063 0.0
H1814 H 0.98753 0.29745 0.2658 0.0
H1815 H 0.97167 0.30219 0.26043 0.0
H1816 H 0.97811 0.28685 0.25571 0.0
H1817 H 0.97234 0.25475 0.30659 0.0
H1818 H 0.98804 0.26078 0.30129 0.0
H1819 H 0.97851 0.25068 0.2908 0.0
H1820 H 0.93292 0.2248 0.21582 0.0
H1821 H 0.9531 0.23271 0.20946 0.0
H1822 H 0.96066 0.19933 0.23273 0.0
H1823 H 0.97343 0.25451 0.22401 0.0
H1824 H 0.96764 0.25048 0.20805 0.0
H1825 H 0.98422 0.24751 0.21258 0.0
H1826 H 0.9779 0.19883 0.24777 0.0
H1827 H 0.98482 0.21416 0.25287 0.0
H1828 H 0.99215 0.20552 0.2399 0.0
H1829 H 0.06248 0.20103 0.21712 0.0
H1830 H 0.08381 0.20568 0.2273 0.0
H1831 H 0.07068 0.21435 0.23417 0.0
H1832 H 0.08206 0.22263 0.2239 0.0
H1833 H 0.04625 0.23853 0.20297 0.0
H1834 H 0.04848 0.20824 0.23144 0.0
H1835 H 0.02351 0.2572 0.21882 0.0
H1836 H 0.01419 0.2467 0.20855 0.0
H1837 H 0.02941 0.25353 0.20284 0.0
H1838 H 0.0334 0.20548 0.24811 0.0
H1839 H 0.01726 0.20975 0.24319 0.0
H1840 H 0.02648 0.22041 0.25341 0.0
H1841 H 0.00152 0.28348 0.28767 0.0
H1842 H 0.96885 0.25891 0.26479 0.0
H1843 H 0.96901 0.24301 0.24802 0.0
H1844 H 0.00204 0.22348 0.22229 0.0
H1845 H 0.03463 0.2482 0.24507 0.0
H1846 H 0.0345 0.26373 0.26214 0.0
H1847 H 0.91531 0.2151 0.22847 0.0
H1848 H 0.93052 0.21591 0.23696 0.0
H1849 H 0.92447 0.20071 0.23105 0.0
C1850 C 0.69313 0.05236 0.30936 0.0
C1851 C 0.70554 0.06072 0.30773 0.0
C1852 C 0.71736 0.04962 0.29085 0.0
C1853 C 0.72798 0.04481 0.29768 0.0
C1854 C 0.73478 0.0342 0.29303 0.0
C1855 C 0.7308 0.02823 0.28136 0.0
C1856 C 0.72028 0.03328 0.27429 0.0
C1857 C 0.71384 0.04408 0.27904 0.0
C1858 C 0.74612 0.02926 0.30069 0.0
C1859 C 0.71568 0.02711 0.26188 0.0
C1860 C 0.73467 0.92677 0.29889 0.0
C1861 C 0.72235 0.93346 0.29421 0.0
C1862 C 0.72534 0.95677 0.29574 0.0
C1863 C 0.72086 0.96076 0.28357 0.0
C1864 C 0.72478 0.97273 0.27829 0.0
C1865 C 0.73352 0.98079 0.28527 0.0
C1866 C 0.73767 0.97699 0.29777 0.0
C1867 C 0.73335 0.96506 0.30293 0.0
C1868 C 0.71973 0.97669 0.26517 0.0
C1869 C 0.74686 0.9854 0.30554 0.0
C1870 C 0.79535 0.95748 0.22833 0.0
C1871 C 0.78402 0.962 0.2224 0.0
C1872 C 0.77835 0.97349 0.22648 0.0
C1873 C 0.78414 0.98067 0.23665 0.0
C1874 C 0.7956 0.97625 0.24253 0.0
C1875 C 0.80104 0.96471 0.23829 0.0
C1876 C 0.76613 0.97796 0.21998 0.0
C1877 C 0.80203 0.98367 0.25337 0.0
C1878 C 0.78056 0.07941 0.21471 0.0
C1879 C 0.794 0.0733 0.21509 0.0
C1880 C 0.78925 0.05023 0.21777 0.0
C1881 C 0.78065 0.04139 0.21204 0.0
C1882 C 0.77617 0.03037 0.21881 0.0
C1883 C 0.78081 0.02794 0.23147 0.0
C1884 C 0.78987 0.03666 0.23717 0.0
C1885 C 0.7939 0.0478 0.2303 0.0
C1886 C 0.76655 0.0213 0.21236 0.0
C1887 C 0.79542 0.03413 0.25044 0.0
C1888 C 0.73717 0.01627 0.27699 0.0
C1889 C 0.73308 0.00456 0.28267 0.0
C1890 C 0.73869 0.99291 0.27925 0.0
C1891 C 0.74876 0.99285 0.26997 0.0
C1892 C 0.75479 0.98132 0.26651 0.0
C1893 C 0.76444 0.98128 0.25712 0.0
C1894 C 0.7685 0.99278 0.25086 0.0
C1895 C 0.77814 0.99278 0.24113 0.0
C1896 C 0.78203 0.0044 0.23519 0.0
C1897 C 0.77644 0.01609 0.23857 0.0
C1898 C 0.76671 0.01627 0.24822 0.0
C1899 C 0.76079 0.02783 0.25181 0.0
C1900 C 0.75126 0.0279 0.26136 0.0
C1901 C 0.74705 0.01637 0.26748 0.0
C1902 C 0.75286 0.0046 0.26397 0.0
C1903 C 0.76273 0.00456 0.25438 0.0
C1904 C 0.7854 0.92899 0.22109 0.0
C1905 C 0.79694 0.93721 0.21593 0.0
O1906 O 0.71047 0.0597 0.29529 0.0
O1907 O 0.7933 0.06068 0.21074 0.0
O1908 O 0.80112 0.9463 0.2249 0.0
O1909 O 0.72189 0.94505 0.30084 0.0
H1910 H 0.71226 0.05637 0.3148 0.0
H1911 H 0.69545 0.04201 0.30817 0.0
H1912 H 0.68556 0.05472 0.30219 0.0
H1913 H 0.68908 0.05359 0.31923 0.0
H1914 H 0.73107 0.0494 0.30657 0.0
H1915 H 0.70573 0.04799 0.27375 0.0
H1916 H 0.74355 0.01963 0.30484 0.0
H1917 H 0.74893 0.03583 0.30872 0.0
H1918 H 0.75462 0.02808 0.29424 0.0
H1919 H 0.70695 0.0318 0.25789 0.0
H1920 H 0.71338 0.0167 0.26358 0.0
H1921 H 0.72352 0.02774 0.25453 0.0
H1922 H 0.72331 0.9353 0.28365 0.0
H1923 H 0.73381 0.92422 0.30933 0.0
H1924 H 0.7432 0.93341 0.29762 0.0
H1925 H 0.73667 0.91788 0.29339 0.0
H1926 H 0.71421 0.95456 0.27822 0.0
H1927 H 0.73654 0.96197 0.31243 0.0
H1928 H 0.71629 0.98677 0.26543 0.0
H1929 H 0.71166 0.97025 0.26184 0.0
H1930 H 0.72768 0.97635 0.25796 0.0
H1931 H 0.74986 0.98066 0.31471 0.0
H1932 H 0.7421 0.99459 0.30791 0.0
H1933 H 0.75565 0.98784 0.29974 0.0
H1934 H 0.79303 0.94216 0.20729 0.0
H1935 H 0.77947 0.95666 0.21462 0.0
H1936 H 0.80978 0.9612 0.2428 0.0
H1937 H 0.75826 0.97862 0.22726 0.0
H1938 H 0.76284 0.97135 0.21216 0.0
H1939 H 0.76778 0.98777 0.2158 0.0
H1940 H 0.81092 0.97896 0.25695 0.0
H1941 H 0.79515 0.98457 0.26156 0.0
H1942 H 0.80465 0.9936 0.24999 0.0
H1943 H 0.79656 0.07355 0.2255 0.0
H1944 H 0.78133 0.08972 0.21759 0.0
H1945 H 0.774 0.0743 0.22167 0.0
H1946 H 0.77598 0.07883 0.20503 0.0
H1947 H 0.77728 0.04328 0.20229 0.0
H1948 H 0.80094 0.05435 0.23461 0.0
H1949 H 0.7584 0.01889 0.21904 0.0
H1950 H 0.7714 0.01216 0.20997 0.0
H1951 H 0.76257 0.02546 0.20329 0.0
H1952 H 0.8034 0.04106 0.2529 0.0
H1953 H 0.79915 0.02416 0.25101 0.0
H1954 H 0.78768 0.03491 0.25783 0.0
H1955 H 0.72536 0.00451 0.28981 0.0
H1956 H 0.7521 0.97217 0.271 0.0
H1957 H 0.76866 0.9721 0.2548 0.0
H1958 H 0.78941 0.00432 0.22771 0.0
H1959 H 0.7635 0.03697 0.24731 0.0
H1960 H 0.74712 0.03709 0.26379 0.0
H1961 H 0.78287 0.92123 0.21409 0.0
H1962 H 0.77674 0.93503 0.22225 0.0
H1963 H 0.78734 0.92447 0.23062 0.0
C1964 C 0.0786 0.72575 0.30567 0.0
C1965 C 0.07166 0.71242 0.30515 0.0
C1966 C 0.054 0.71552 0.28927 0.0
C1967 C 0.04958 0.7119 0.27701 0.0
C1968 C 0.03804 0.7167 0.2719 0.0
C1969 C 0.03084 0.7256 0.27916 0.0
C1970 C 0.03519 0.72927 0.29162 0.0
C1971 C 0.04665 0.7241 0.29662 0.0
C1972 C 0.03354 0.71225 0.25873 0.0
C1973 C 0.02773 0.73869 0.29965 0.0
C1974 C 0.93075 0.71138 0.27781 0.0
C1975 C 0.93717 0.70756 0.29068 0.0
C1976 C 0.96018 0.70925 0.28497 0.0
C1977 C 0.96375 0.72115 0.29053 0.0
C1978 C 0.97518 0.72774 0.28669 0.0
C1979 C 0.98307 0.7224 0.27697 0.0
C1980 C 0.97956 0.71034 0.27149 0.0
C1981 C 0.96824 0.70383 0.27572 0.0
C1982 C 0.97889 0.74035 0.29309 0.0
C1983 C 0.98774 0.70431 0.26114 0.0
C1984 C 0.95984 0.78384 0.2184 0.0
C1985 C 0.9652 0.78972 0.22948 0.0
C1986 C 0.97666 0.78514 0.23505 0.0
C1987 C 0.98292 0.77454 0.22941 0.0
C1988 C 0.97764 0.76871 0.2182 0.0
C1989 C 0.96616 0.77344 0.21286 0.0
C1990 C 0.98209 0.7916 0.24699 0.0
C1991 C 0.98413 0.75746 0.21188 0.0
C1992 C 0.08097 0.77551 0.20916 0.0
C1993 C 0.07282 0.78683 0.20424 0.0
C1994 C 0.05388 0.78632 0.21887 0.0
C1995 C 0.04796 0.79263 0.22914 0.0
C1996 C 0.03648 0.7877 0.23479 0.0
C1997 C 0.03078 0.77614 0.23002 0.0
C1998 C 0.03664 0.76972 0.21957 0.0
C1999 C 0.04811 0.77485 0.21411 0.0
C2000 C 0.03046 0.79478 0.24591 0.0
C2001 C 0.03077 0.75739 0.21419 0.0
C2002 C 0.01869 0.7309 0.27377 0.0
C2003 C 0.00692 0.7252 0.27772 0.0
C2004 C 0.99512 0.72931 0.27266 0.0
C2005 C 0.99499 0.73945 0.26341 0.0
C2006 C 0.98332 0.74376 0.25802 0.0
C2007 C 0.98329 0.75373 0.24891 0.0
C2008 C 0.99495 0.75964 0.24466 0.0
C2009 C 0.99505 0.76961 0.23521 0.0
C2010 C 0.00684 0.77497 0.23089 0.0
C2011 C 0.01863 0.77074 0.23583 0.0
C2012 C 0.01872 0.76106 0.24557 0.0
C2013 C 0.03039 0.75684 0.25102 0.0
C2014 C 0.0304 0.74711 0.2604 0.0
C2015 C 0.01875 0.7411 0.26456 0.0
C2016 C 0.00686 0.74535 0.25934 0.0
C2017 C 0.00684 0.7554 0.2499 0.0
C2018 C 0.93221 0.79276 0.22853 0.0
C2019 C 0.94032 0.79723 0.21673 0.0
O2020 O 0.06536 0.71051 0.29345 0.0
O2021 O 0.06506 0.79163 0.21397 0.0
O2022 O 0.94867 0.78774 0.21271 0.0
O2023 O 0.94932 0.70251 0.2886 0.0
H2024 H 0.06445 0.71269 0.31308 0.0
H2025 H 0.07143 0.73354 0.30633 0.0
H2026 H 0.08462 0.72787 0.29703 0.0
H2027 H 0.08484 0.72638 0.31442 0.0
H2028 H 0.05524 0.70523 0.27144 0.0
H2029 H 0.04976 0.7269 0.3062 0.0
H2030 H 0.02323 0.70895 0.25916 0.0
H2031 H 0.03944 0.70426 0.25497 0.0
H2032 H 0.0342 0.72045 0.25176 0.0
H2033 H 0.03292 0.74142 0.30867 0.0
H2034 H 0.01816 0.73431 0.3023 0.0
H2035 H 0.02591 0.74759 0.29391 0.0
H2036 H 0.93814 0.71684 0.29583 0.0
H2037 H 0.92084 0.71493 0.27963 0.0
H2038 H 0.93007 0.7033 0.27087 0.0
H2039 H 0.93648 0.71933 0.27311 0.0
H2040 H 0.95786 0.72516 0.2981 0.0
H2041 H 0.96548 0.69456 0.27163 0.0
H2042 H 0.989 0.73999 0.29675 0.0
H2043 H 0.97235 0.74263 0.30127 0.0
H2044 H 0.97851 0.74832 0.28587 0.0
H2045 H 0.98302 0.69552 0.25699 0.0
H2046 H 0.99722 0.70161 0.26532 0.0
H2047 H 0.98969 0.71139 0.25321 0.0
H2048 H 0.946 0.80568 0.22029 0.0
H2049 H 0.96057 0.79784 0.23388 0.0
H2050 H 0.96201 0.76899 0.20431 0.0
H2051 H 0.98277 0.7844 0.25497 0.0
H2052 H 0.97605 0.79969 0.25028 0.0
H2053 H 0.99205 0.79538 0.24498 0.0
H2054 H 0.9788 0.754 0.20318 0.0
H2055 H 0.98482 0.74934 0.2189 0.0
H2056 H 0.99415 0.76034 0.20899 0.0
H2057 H 0.06668 0.78256 0.1965 0.0
H2058 H 0.08787 0.77255 0.20153 0.0
H2059 H 0.07462 0.76702 0.21149 0.0
H2060 H 0.08651 0.7779 0.21802 0.0
H2061 H 0.05242 0.80147 0.23276 0.0
H2062 H 0.05243 0.76977 0.20616 0.0
H2063 H 0.02951 0.78823 0.25443 0.0
H2064 H 0.02055 0.79778 0.24318 0.0
H2065 H 0.03625 0.8035 0.24872 0.0
H2066 H 0.03628 0.75375 0.20579 0.0
H2067 H 0.02062 0.75903 0.21113 0.0
H2068 H 0.0305 0.7498 0.22185 0.0
H2069 H 0.00695 0.71732 0.28471 0.0
H2070 H 0.97406 0.73948 0.26081 0.0
H2071 H 0.97401 0.75666 0.24514 0.0
H2072 H 0.00685 0.78241 0.22343 0.0
H2073 H 0.03966 0.76102 0.2481 0.0
H2074 H 0.03967 0.74428 0.26427 0.0
H2075 H 0.92506 0.80022 0.23099 0.0
H2076 H 0.93853 0.79143 0.2371 0.0
H2077 H 0.92693 0.78349 0.22694 0.0
C2078 C 0.32011 0.95418 0.29281 0.0
C2079 C 0.3078 0.94729 0.29805 0.0
C2080 C 0.29138 0.95856 0.28615 0.0
C2081 C 0.28131 0.96274 0.29401 0.0
C2082 C 0.27437 0.9738 0.29068 0.0
C2083 C 0.27774 0.98084 0.27931 0.0
C2084 C 0.28805 0.97665 0.27144 0.0
C2085 C 0.29461 0.9654 0.27486 0.0
C2086 C 0.26339 0.97792 0.29924 0.0
C2087 C 0.29215 0.98405 0.25942 0.0
C2088 C 0.27066 0.08093 0.29409 0.0
C2089 C 0.2842 0.07497 0.29434 0.0
C2090 C 0.2798 0.0517 0.29563 0.0
C2091 C 0.28548 0.04764 0.28405 0.0
C2092 C 0.2818 0.0358 0.27846 0.0
C2093 C 0.27232 0.02782 0.28464 0.0
C2094 C 0.267 0.03163 0.29661 0.0
C2095 C 0.27092 0.0435 0.30201 0.0
C2096 C 0.28796 0.03184 0.26589 0.0
C2097 C 0.25702 0.02326 0.30353 0.0
C2098 C 0.21051 0.04965 0.22569 0.0
C2099 C 0.22325 0.04702 0.2218 0.0
C2100 C 0.22942 0.03582 0.22611 0.0
C2101 C 0.22285 0.02721 0.23471 0.0
C2102 C 0.21006 0.02984 0.23867 0.0
C2103 C 0.20404 0.04097 0.23401 0.0
C2104 C 0.24294 0.03316 0.2214 0.0
C2105 C 0.20276 0.0209 0.24783 0.0
C2106 C 0.2295 0.92821 0.21153 0.0
C2107 C 0.21639 0.93487 0.21265 0.0
C2108 C 0.22088 0.95799 0.21533 0.0
C2109 C 0.22971 0.96697 0.21004 0.0
C2110 C 0.23359 0.97803 0.21693 0.0
C2111 C 0.22817 0.98031 0.22927 0.0
C2112 C 0.21891 0.97143 0.23451 0.0
C2113 C 0.2154 0.96032 0.22751 0.0
C2114 C 0.24347 0.98728 0.21102 0.0
C2115 C 0.2126 0.97379 0.24743 0.0
C2116 C 0.27049 0.99256 0.27563 0.0
C2117 C 0.2739 0.00421 0.28163 0.0
C2118 C 0.26775 0.01568 0.27838 0.0
C2119 C 0.25784 0.01559 0.26891 0.0
C2120 C 0.25137 0.02694 0.2655 0.0
C2121 C 0.24188 0.02683 0.25592 0.0
C2122 C 0.23856 0.0154 0.24933 0.0
C2123 C 0.22924 0.01528 0.23928 0.0
C2124 C 0.22603 0.00369 0.23307 0.0
C2125 C 0.23195 0.99215 0.23651 0.0
C2126 C 0.24141 0.9921 0.24643 0.0
C2127 C 0.24767 0.9807 0.25005 0.0
C2128 C 0.25704 0.98077 0.25974 0.0
C2129 C 0.26067 0.99229 0.26605 0.0
C2130 C 0.25439 0.00388 0.26264 0.0
C2131 C 0.24474 0.00378 0.25283 0.0
C2132 C 0.21731 0.07965 0.22411 0.0
C2133 C 0.2089 0.07109 0.21517 0.0
O2134 O 0.29776 0.94768 0.28918 0.0
O2135 O 0.2174 0.94752 0.20819 0.0
O2136 O 0.20402 0.06027 0.22167 0.0
O2137 O 0.28284 0.06333 0.30102 0.0
H2138 H 0.30521 0.95305 0.30666 0.0
H2139 H 0.31845 0.96472 0.29187 0.0
H2140 H 0.32298 0.95062 0.28317 0.0
H2141 H 0.3283 0.95288 0.29965 0.0
H2142 H 0.27884 0.95725 0.30267 0.0
H2143 H 0.30239 0.96197 0.26883 0.0
H2144 H 0.26585 0.98745 0.30357 0.0
H2145 H 0.26135 0.97087 0.30719 0.0
H2146 H 0.25445 0.97907 0.29339 0.0
H2147 H 0.30125 0.98037 0.25522 0.0
H2148 H 0.29358 0.99446 0.26166 0.0
H2149 H 0.28439 0.98324 0.25201 0.0
H2150 H 0.28736 0.07336 0.28424 0.0
H2151 H 0.26757 0.08337 0.30407 0.0
H2152 H 0.26349 0.07387 0.29005 0.0
H2153 H 0.27026 0.08974 0.28798 0.0
H2154 H 0.2929 0.05359 0.2794 0.0
H2155 H 0.26679 0.0466 0.31109 0.0
H2156 H 0.29216 0.02211 0.26697 0.0
H2157 H 0.29571 0.03877 0.26267 0.0
H2158 H 0.28044 0.03122 0.25821 0.0
H2159 H 0.25376 0.02762 0.31274 0.0
H2160 H 0.26111 0.01365 0.30569 0.0
H2161 H 0.24846 0.02168 0.29717 0.0
H2162 H 0.21565 0.06811 0.20749 0.0
H2163 H 0.22845 0.05354 0.21533 0.0
H2164 H 0.19422 0.04303 0.23694 0.0
H2165 H 0.24985 0.03402 0.2296 0.0
H2166 H 0.24615 0.04 0.21364 0.0
H2167 H 0.24343 0.02315 0.21767 0.0
H2168 H 0.1934 0.02495 0.25098 0.0
H2169 H 0.20875 0.01892 0.25652 0.0
H2170 H 0.20074 0.01153 0.24299 0.0
H2171 H 0.21457 0.9347 0.2232 0.0
H2172 H 0.22856 0.91804 0.21497 0.0
H2173 H 0.23677 0.93328 0.21773 0.0
H2174 H 0.23331 0.92824 0.20152 0.0
H2175 H 0.23371 0.96517 0.20054 0.0
H2176 H 0.20815 0.95368 0.23142 0.0
H2177 H 0.25147 0.98921 0.21798 0.0
H2178 H 0.23884 0.99664 0.20887 0.0
H2179 H 0.24763 0.98353 0.20191 0.0
H2180 H 0.20489 0.96646 0.24973 0.0
H2181 H 0.2083 0.98353 0.24751 0.0
H2182 H 0.22003 0.97355 0.25519 0.0
H2183 H 0.28158 0.00439 0.28881 0.0
H2184 H 0.25359 0.03605 0.27017 0.0
H2185 H 0.23724 0.03586 0.2537 0.0
H2186 H 0.2189 0.00367 0.22534 0.0
H2187 H 0.2454 0.97158 0.24542 0.0
H2188 H 0.26148 0.97169 0.26215 0.0
H2189 H 0.22055 0.08855 0.21886 0.0
H2190 H 0.22609 0.07443 0.22716 0.0
H2191 H 0.21215 0.0825 0.233 0.0
C2192 C 0.95165 0.81653 0.79738 0.0
C2193 C 0.94342 0.80431 0.79433 0.0
C2194 C 0.96058 0.78892 0.789 0.0
C2195 C 0.96443 0.79456 0.77713 0.0
C2196 C 0.97534 0.79015 0.77048 0.0
C2197 C 0.98248 0.77985 0.77574 0.0
C2198 C 0.97843 0.77394 0.78749 0.0
C2199 C 0.96751 0.77854 0.79393 0.0
C2200 C 0.97934 0.79658 0.75791 0.0
C2201 C 0.98576 0.76286 0.79331 0.0
C2202 C 0.08272 0.8067 0.7705 0.0
C2203 C 0.07549 0.802 0.78271 0.0
C2204 C 0.0523 0.79922 0.77874 0.0
C2205 C 0.04948 0.78694 0.78394 0.0
C2206 C 0.03828 0.77998 0.78019 0.0
C2207 C 0.02984 0.7854 0.77091 0.0
C2208 C 0.03263 0.79786 0.76575 0.0
C2209 C 0.04375 0.8047 0.7699 0.0
C2210 C 0.03536 0.76694 0.78627 0.0
C2211 C 0.02385 0.80399 0.7559 0.0
C2212 C 0.05289 0.72401 0.7128 0.0
C2213 C 0.04788 0.7187 0.7244 0.0
C2214 C 0.03648 0.72341 0.7299 0.0
C2215 C 0.02992 0.73358 0.72369 0.0
C2216 C 0.03487 0.73888 0.71199 0.0
C2217 C 0.04629 0.73402 0.70672 0.0
C2218 C 0.03142 0.71751 0.74237 0.0
C2219 C 0.02809 0.74971 0.70511 0.0
C2220 C 0.92829 0.71635 0.72753 0.0
C2221 C 0.93493 0.7205 0.71478 0.0
C2222 C 0.95824 0.71951 0.71795 0.0
C2223 C 0.96627 0.71264 0.72628 0.0
C2224 C 0.9781 0.71804 0.73058 0.0
C2225 C 0.9821 0.73046 0.7261 0.0
C2226 C 0.97431 0.73715 0.7171 0.0
C2227 C 0.96241 0.73163 0.71319 0.0
C2228 C 0.98621 0.71059 0.74008 0.0
C2229 C 0.9785 0.75016 0.71167 0.0
C2230 C 0.99446 0.77558 0.76921 0.0
C2231 C 0.00618 0.78166 0.77265 0.0
C2232 C 0.01786 0.77825 0.76691 0.0
C2233 C 0.01795 0.76841 0.75748 0.0
C2234 C 0.02952 0.7647 0.7515 0.0
C2235 C 0.02952 0.75487 0.74237 0.0
C2236 C 0.01792 0.74854 0.73868 0.0
C2237 C 0.0178 0.73855 0.7294 0.0
C2238 C 0.00602 0.73284 0.72556 0.0
C2239 C 0.99429 0.7366 0.73097 0.0
C2240 C 0.99426 0.74621 0.74064 0.0
C2241 C 0.98269 0.74988 0.74667 0.0
C2242 C 0.98273 0.75946 0.75604 0.0
C2243 C 0.99434 0.76576 0.75976 0.0
C2244 C 0.00613 0.76215 0.7539 0.0
C2245 C 0.0061 0.75229 0.7444 0.0
C2246 C 0.0809 0.71585 0.72281 0.0
C2247 C 0.07245 0.71067 0.71161 0.0
O2248 O 0.95039 0.79313 0.79607 0.0
O2249 O 0.94663 0.71415 0.71446 0.0
O2250 O 0.06397 0.7199 0.70713 0.0
O2251 O 0.06285 0.80626 0.78253 0.0
H2252 H 0.94086 0.80541 0.78398 0.0
H2253 H 0.95943 0.81796 0.79007 0.0
H2254 H 0.95639 0.81608 0.80698 0.0
H2255 H 0.94549 0.82519 0.79703 0.0
H2256 H 0.95907 0.80243 0.77299 0.0
H2257 H 0.96443 0.77417 0.80302 0.0
H2258 H 0.98919 0.80098 0.75894 0.0
H2259 H 0.97257 0.80423 0.75488 0.0
H2260 H 0.97979 0.78926 0.75013 0.0
H2261 H 0.98118 0.75909 0.80235 0.0
H2262 H 0.99585 0.76609 0.7955 0.0
H2263 H 0.98628 0.75488 0.78623 0.0
H2264 H 0.07548 0.79137 0.7817 0.0
H2265 H 0.09276 0.80302 0.77053 0.0
H2266 H 0.08325 0.81737 0.76967 0.0
H2267 H 0.07769 0.80291 0.76176 0.0
H2268 H 0.05585 0.78294 0.79117 0.0
H2269 H 0.04594 0.8143 0.76612 0.0
H2270 H 0.02537 0.76666 0.79028 0.0
H2271 H 0.04228 0.76459 0.79413 0.0
H2272 H 0.03586 0.75934 0.77877 0.0
H2273 H 0.02815 0.81305 0.75174 0.0
H2274 H 0.0145 0.8063 0.76056 0.0
H2275 H 0.02172 0.79715 0.74791 0.0
H2276 H 0.0669 0.70244 0.71594 0.0
H2277 H 0.05274 0.71091 0.72927 0.0
H2278 H 0.05018 0.73805 0.69778 0.0
H2279 H 0.03096 0.72507 0.74991 0.0
H2280 H 0.03759 0.7096 0.74599 0.0
H2281 H 0.02142 0.71361 0.74089 0.0
H2282 H 0.03326 0.75289 0.69616 0.0
H2283 H 0.0273 0.7581 0.71167 0.0
H2284 H 0.01809 0.74652 0.7025 0.0
H2285 H 0.93666 0.73112 0.71499 0.0
H2286 H 0.91933 0.72171 0.72944 0.0
H2287 H 0.93495 0.71822 0.73579 0.0
H2288 H 0.92583 0.70584 0.72738 0.0
H2289 H 0.96305 0.70319 0.72971 0.0
H2290 H 0.95643 0.73672 0.70631 0.0
H2291 H 0.98851 0.71665 0.74864 0.0
H2292 H 0.99553 0.7081 0.73545 0.0
H2293 H 0.98126 0.70152 0.7434 0.0
H2294 H 0.97224 0.75326 0.70352 0.0
H2295 H 0.98869 0.74989 0.70824 0.0
H2296 H 0.97805 0.75752 0.7194 0.0
H2297 H 0.00619 0.78921 0.77989 0.0
H2298 H 0.03873 0.7693 0.75388 0.0
H2299 H 0.03873 0.75236 0.73817 0.0
H2300 H 0.00599 0.72534 0.71827 0.0
H2301 H 0.97346 0.74536 0.74421 0.0
H2302 H 0.97353 0.7619 0.76032 0.0
H2303 H 0.08816 0.70857 0.7256 0.0
H2304 H 0.07483 0.71767 0.73144 0.0
H2305 H 0.08607 0.72502 0.72037 0.0
C2306 C 0.18633 0.06296 0.78768 0.0
C2307 C 0.19876 0.06528 0.79564 0.0
C2308 C 0.21554 0.05382 0.78453 0.0
C2309 C 0.22629 0.0496 0.79146 0.0
C2310 C 0.23276 0.03843 0.78776 0.0
C2311 C 0.22839 0.03143 0.77681 0.0
C2312 C 0.21754 0.03575 0.76974 0.0
C2313 C 0.2113 0.047 0.77363 0.0
C2314 C 0.24433 0.03414 0.79546 0.0
C2315 C 0.21262 0.02854 0.75803 0.0
C2316 C 0.23259 0.93598 0.80658 0.0
C2317 C 0.21907 0.94189 0.8053 0.0
C2318 C 0.22219 0.95997 0.78973 0.0
C2319 C 0.21894 0.96421 0.77732 0.0
C2320 C 0.22349 0.97616 0.77249 0.0
C2321 C 0.23177 0.98397 0.78023 0.0
C2322 C 0.235 0.97986 0.79289 0.0
C2323 C 0.23009 0.96793 0.79757 0.0
C2324 C 0.21954 0.98035 0.75906 0.0
C2325 C 0.24377 0.98799 0.8014 0.0
C2326 C 0.29771 0.96321 0.72641 0.0
C2327 C 0.28524 0.9657 0.72167 0.0
C2328 C 0.27876 0.9769 0.72529 0.0
C2329 C 0.28475 0.98566 0.73403 0.0
C2330 C 0.29736 0.98322 0.73871 0.0
C2331 C 0.30374 0.97212 0.73467 0.0
C2332 C 0.26554 0.97943 0.71967 0.0
C2333 C 0.30409 0.99233 0.74801 0.0
C2334 C 0.27718 0.08596 0.71 0.0
C2335 C 0.28949 0.07939 0.71485 0.0
C2336 C 0.28641 0.056 0.7156 0.0
C2337 C 0.27813 0.04703 0.70959 0.0
C2338 C 0.27443 0.03546 0.71587 0.0
C2339 C 0.27946 0.03269 0.72831 0.0
C2340 C 0.28834 0.04147 0.73417 0.0
C2341 C 0.29168 0.05308 0.72776 0.0
C2342 C 0.26502 0.02627 0.7093 0.0
C2343 C 0.29427 0.0386 0.7472 0.0
C2344 C 0.23519 0.01962 0.77274 0.0
C2345 C 0.23119 0.0078 0.77821 0.0
C2346 C 0.23721 0.99631 0.7749 0.0
C2347 C 0.24772 0.9966 0.7661 0.0
C2348 C 0.25437 0.98532 0.763 0.0
C2349 C 0.2644 0.98561 0.75399 0.0
C2350 C 0.26808 0.99717 0.74762 0.0
C2351 C 0.27794 0.99748 0.73809 0.0
C2352 C 0.28142 0.00918 0.73205 0.0
C2353 C 0.27533 0.02066 0.73524 0.0
C2354 C 0.26541 0.02053 0.7447 0.0
C2355 C 0.25902 0.03188 0.7481 0.0
C2356 C 0.24925 0.03165 0.7574 0.0
C2357 C 0.24532 0.02002 0.7635 0.0
C2358 C 0.25162 0.00846 0.7602 0.0
C2359 C 0.26174 0.00873 0.75086 0.0
C2360 C 0.29512 0.9339 0.73388 0.0
C2361 C 0.29934 0.94025 0.72099 0.0
O2362 O 0.20974 0.06488 0.78795 0.0
O2363 O 0.28943 0.06723 0.70929 0.0
O2364 O 0.3044 0.9526 0.72297 0.0
O2365 O 0.21757 0.94814 0.79352 0.0
H2366 H 0.1987 0.05701 0.80258 0.0
H2367 H 0.18563 0.05268 0.78468 0.0
H2368 H 0.18606 0.06898 0.77878 0.0
H2369 H 0.17765 0.06495 0.79364 0.0
H2370 H 0.2296 0.05512 0.79975 0.0
H2371 H 0.20316 0.05055 0.76814 0.0
H2372 H 0.24244 0.02427 0.79941 0.0
H2373 H 0.24664 0.04074 0.80362 0.0
H2374 H 0.25294 0.03367 0.78904 0.0
H2375 H 0.20382 0.03292 0.75382 0.0
H2376 H 0.2103 0.01833 0.7607 0.0
H2377 H 0.2203 0.02845 0.7505 0.0
H2378 H 0.21867 0.94892 0.81332 0.0
H2379 H 0.23302 0.92985 0.81544 0.0
H2380 H 0.24014 0.94372 0.80749 0.0
H2381 H 0.23524 0.93008 0.79813 0.0
H2382 H 0.21278 0.95806 0.77137 0.0
H2383 H 0.23261 0.96492 0.80727 0.0
H2384 H 0.21614 0.99045 0.75918 0.0
H2385 H 0.21174 0.97402 0.755 0.0
H2386 H 0.22806 0.98007 0.75251 0.0
H2387 H 0.24608 0.98306 0.81068 0.0
H2388 H 0.23903 0.99724 0.80359 0.0
H2389 H 0.25297 0.99036 0.79623 0.0
H2390 H 0.29023 0.94061 0.71538 0.0
H2391 H 0.28064 0.95916 0.71488 0.0
H2392 H 0.31342 0.9702 0.73814 0.0
H2393 H 0.25812 0.9785 0.72741 0.0
H2394 H 0.26292 0.97258 0.71182 0.0
H2395 H 0.26521 0.98945 0.71576 0.0
H2396 H 0.31328 0.98839 0.75178 0.0
H2397 H 0.29761 0.99436 0.7563 0.0
H2398 H 0.3063 0.00165 0.74302 0.0
H2399 H 0.28886 0.07847 0.72554 0.0
H2400 H 0.27577 0.09551 0.7145 0.0
H2401 H 0.26854 0.07981 0.71239 0.0
H2402 H 0.27759 0.08729 0.69932 0.0
H2403 H 0.27431 0.0493 0.70009 0.0
H2404 H 0.29854 0.05978 0.73217 0.0
H2405 H 0.25662 0.02414 0.71575 0.0
H2406 H 0.26984 0.01699 0.70739 0.0
H2407 H 0.26139 0.0302 0.69998 0.0
H2408 H 0.30192 0.04582 0.74987 0.0
H2409 H 0.29854 0.02885 0.74719 0.0
H2410 H 0.28661 0.03858 0.75474 0.0
H2411 H 0.22317 0.0075 0.78501 0.0
H2412 H 0.25188 0.97612 0.7675 0.0
H2413 H 0.26915 0.97663 0.752 0.0
H2414 H 0.28896 0.00936 0.72472 0.0
H2415 H 0.2615 0.0411 0.74362 0.0
H2416 H 0.24472 0.04069 0.75965 0.0
H2417 H 0.29192 0.92372 0.73226 0.0
H2418 H 0.2868 0.93915 0.73796 0.0
H2419 H 0.30293 0.93406 0.74122 0.0
C2420 C 0.93142 0.30572 0.73061 0.0
C2421 C 0.93805 0.30461 0.7173 0.0
C2422 C 0.95485 0.28821 0.7208 0.0
C2423 C 0.95846 0.27573 0.71749 0.0
C2424 C 0.96986 0.27036 0.72233 0.0
C2425 C 0.97777 0.2776 0.73095 0.0
C2426 C 0.97423 0.29027 0.73435 0.0
C2427 C 0.96287 0.29549 0.72916 0.0
C2428 C 0.97346 0.25695 0.7182 0.0
C2429 C 0.98243 0.29827 0.74351 0.0
C2430 C 0.07893 0.27607 0.72108 0.0
C2431 C 0.07243 0.28912 0.71863 0.0
C2432 C 0.04941 0.28302 0.71733 0.0
C2433 C 0.04468 0.28915 0.7284 0.0
C2434 C 0.03282 0.28522 0.73399 0.0
C2435 C 0.0255 0.275 0.72835 0.0
C2436 C 0.02999 0.26916 0.7169 0.0
C2437 C 0.04185 0.27334 0.71148 0.0
C2438 C 0.02813 0.29193 0.74598 0.0
C2439 C 0.02234 0.25835 0.71056 0.0
C2440 C 0.04807 0.21588 0.78822 0.0
C2441 C 0.04427 0.2278 0.7932 0.0
C2442 C 0.03268 0.23343 0.78916 0.0
C2443 C 0.02473 0.22701 0.77996 0.0
C2444 C 0.02833 0.21479 0.77526 0.0
C2445 C 0.0399 0.20932 0.77959 0.0
C2446 C 0.02893 0.24627 0.7947 0.0
C2447 C 0.02003 0.20761 0.76555 0.0
C2448 C 0.92369 0.23215 0.80105 0.0
C2449 C 0.93023 0.22002 0.7959 0.0
C2450 C 0.95368 0.22306 0.79579 0.0
C2451 C 0.96237 0.23143 0.80207 0.0
C2452 C 0.97401 0.23549 0.79611 0.0
C2453 C 0.97717 0.2307 0.78372 0.0
C2454 C 0.96867 0.22171 0.7776 0.0
C2455 C 0.95695 0.21807 0.78366 0.0
C2456 C 0.98286 0.245 0.80298 0.0
C2457 C 0.97194 0.21595 0.76466 0.0
C2458 C 0.98982 0.27197 0.73624 0.0
C2459 C 0.00162 0.27557 0.73042 0.0
C2460 C 0.01328 0.27032 0.73459 0.0
C2461 C 0.01323 0.261 0.74468 0.0
C2462 C 0.02473 0.25522 0.74883 0.0
C2463 C 0.02459 0.24606 0.75876 0.0
C2464 C 0.01295 0.24239 0.76501 0.0
C2465 C 0.01273 0.23313 0.77517 0.0
C2466 C 0.00096 0.22957 0.78103 0.0
C2467 C 0.98933 0.23511 0.77715 0.0
C2468 C 0.98939 0.24452 0.76713 0.0
C2469 C 0.97793 0.25051 0.76315 0.0
C2470 C 0.97805 0.25953 0.75308 0.0
C2471 C 0.98964 0.26299 0.74665 0.0
C2472 C 0.00137 0.25737 0.75076 0.0
C2473 C 0.00124 0.24809 0.76098 0.0
C2474 C 0.07736 0.21647 0.77909 0.0
C2475 C 0.07133 0.21664 0.79272 0.0
O2476 O 0.9436 0.29264 0.71572 0.0
O2477 O 0.94233 0.2197 0.80173 0.0
O2478 O 0.05937 0.21032 0.79175 0.0
O2479 O 0.06105 0.28634 0.71192 0.0
H2480 H 0.94574 0.31223 0.71743 0.0
H2481 H 0.93878 0.30607 0.73843 0.0
H2482 H 0.92475 0.29749 0.73283 0.0
H2483 H 0.92592 0.3148 0.73105 0.0
H2484 H 0.95227 0.27019 0.711 0.0
H2485 H 0.96037 0.30521 0.73176 0.0
H2486 H 0.98365 0.25695 0.71476 0.0
H2487 H 0.96706 0.25318 0.71039 0.0
H2488 H 0.97271 0.25026 0.72663 0.0
H2489 H 0.97774 0.30742 0.7462 0.0
H2490 H 0.9919 0.30067 0.73888 0.0
H2491 H 0.98441 0.29265 0.75246 0.0
H2492 H 0.07031 0.29362 0.72806 0.0
H2493 H 0.08758 0.27692 0.72737 0.0
H2494 H 0.08182 0.27171 0.71175 0.0
H2495 H 0.07201 0.26929 0.72601 0.0
H2496 H 0.05009 0.29714 0.73263 0.0
H2497 H 0.04545 0.26883 0.70279 0.0
H2498 H 0.01823 0.2956 0.74432 0.0
H2499 H 0.03462 0.30013 0.74883 0.0
H2500 H 0.02752 0.28491 0.75414 0.0
H2501 H 0.02721 0.25471 0.70176 0.0
H2502 H 0.01259 0.26177 0.70783 0.0
H2503 H 0.02094 0.25021 0.71752 0.0
H2504 H 0.07008 0.2268 0.79568 0.0
H2505 H 0.05021 0.23265 0.8004 0.0
H2506 H 0.0428 0.20001 0.77599 0.0
H2507 H 0.02893 0.25368 0.78687 0.0
H2508 H 0.03566 0.24959 0.80244 0.0
H2509 H 0.01895 0.24556 0.79871 0.0
H2510 H 0.02443 0.19844 0.76245 0.0
H2511 H 0.01849 0.2138 0.75688 0.0
H2512 H 0.01036 0.20536 0.76983 0.0
H2513 H 0.93138 0.2211 0.78526 0.0
H2514 H 0.91419 0.23384 0.79641 0.0
H2515 H 0.92997 0.2408 0.79908 0.0
H2516 H 0.92221 0.2313 0.81168 0.0
H2517 H 0.95982 0.23505 0.81153 0.0
H2518 H 0.95043 0.21119 0.77903 0.0
H2519 H 0.98528 0.25331 0.79649 0.0
H2520 H 0.99207 0.24025 0.80551 0.0
H2521 H 0.97845 0.2487 0.812 0.0
H2522 H 0.96522 0.20785 0.76205 0.0
H2523 H 0.98201 0.21238 0.76474 0.0
H2524 H 0.97138 0.22351 0.75702 0.0
H2525 H 0.00172 0.28256 0.72254 0.0
H2526 H 0.03398 0.25766 0.74439 0.0
H2527 H 0.03373 0.24191 0.76148 0.0
H2528 H 0.00085 0.22239 0.78874 0.0
H2529 H 0.96872 0.24824 0.76774 0.0
H2530 H 0.96893 0.26376 0.75041 0.0
H2531 H 0.07895 0.20636 0.77604 0.0
H2532 H 0.08671 0.22189 0.77849 0.0
H2533 H 0.07069 0.221 0.77203 0.0
C2534 C 0.80078 0.94953 0.81658 0.0
C2535 C 0.79792 0.9416 0.80429 0.0
C2536 C 0.7925 0.95884 0.78861 0.0
C2537 C 0.78052 0.96214 0.79403 0.0
C2538 C 0.77368 0.97275 0.78926 0.0
C2539 C 0.77885 0.98016 0.77883 0.0
C2540 C 0.79074 0.97668 0.77318 0.0
C2541 C 0.79738 0.96604 0.77813 0.0
C2542 C 0.76096 0.97616 0.79544 0.0
C2543 C 0.7965 0.98432 0.76201 0.0
C2544 C 0.7743 0.06251 0.82437 0.0
C2545 C 0.78556 0.06334 0.81458 0.0
C2546 C 0.7787 0.05023 0.79629 0.0
C2547 C 0.78634 0.04628 0.78595 0.0
C2548 C 0.78344 0.03474 0.77938 0.0
C2549 C 0.77256 0.02707 0.78323 0.0
C2550 C 0.76475 0.0311 0.79365 0.0
C2551 C 0.76782 0.04274 0.79995 0.0
C2552 C 0.79188 0.0308 0.76823 0.0
C2553 C 0.75304 0.02321 0.79798 0.0
C2554 C 0.71559 0.04861 0.72123 0.0
C2555 C 0.72746 0.04441 0.71629 0.0
C2556 C 0.73289 0.03288 0.72073 0.0
C2557 C 0.72632 0.02536 0.73026 0.0
C2558 C 0.71414 0.02931 0.73491 0.0
C2559 C 0.70888 0.04084 0.73022 0.0
C2560 C 0.74571 0.02874 0.71527 0.0
C2561 C 0.70682 0.02145 0.74498 0.0
C2562 C 0.73261 0.92422 0.71172 0.0
C2563 C 0.72018 0.93099 0.71583 0.0
C2564 C 0.72361 0.95437 0.71563 0.0
C2565 C 0.73216 0.96303 0.70943 0.0
C2566 C 0.73591 0.97474 0.71527 0.0
C2567 C 0.73064 0.97797 0.72745 0.0
C2568 C 0.72149 0.96949 0.73348 0.0
C2569 C 0.71812 0.95773 0.72753 0.0
C2570 C 0.74559 0.98359 0.70849 0.0
C2571 C 0.71528 0.97284 0.74621 0.0
C2572 C 0.77206 0.99181 0.77415 0.0
C2573 C 0.77507 0.00359 0.7801 0.0
C2574 C 0.76914 0.01499 0.77621 0.0
C2575 C 0.75998 0.01471 0.76602 0.0
C2576 C 0.75395 0.02602 0.76175 0.0
C2577 C 0.74489 0.02565 0.75177 0.0
C2578 C 0.74149 0.01395 0.74568 0.0
C2579 C 0.73232 0.01349 0.7355 0.0
C2580 C 0.72897 0.00165 0.72983 0.0
C2581 C 0.73471 0.9902 0.73389 0.0
C2582 C 0.74413 0.99051 0.74386 0.0
C2583 C 0.75035 0.97924 0.74797 0.0
C2584 C 0.7595 0.97963 0.75788 0.0
C2585 C 0.76282 0.99131 0.76403 0.0
C2586 C 0.75676 0.00282 0.75997 0.0
C2587 C 0.74744 0.00242 0.74984 0.0
C2588 C 0.71932 0.07797 0.72805 0.0
C2589 C 0.71691 0.07148 0.71486 0.0
O2590 O 0.79975 0.94893 0.79312 0.0
O2591 O 0.72054 0.943 0.70975 0.0
O2592 O 0.71024 0.05994 0.71745 0.0
O2593 O 0.78136 0.06177 0.80193 0.0
H2594 H 0.78756 0.93872 0.80521 0.0
H2595 H 0.79345 0.9571 0.81779 0.0
H2596 H 0.8104 0.95446 0.81636 0.0
H2597 H 0.80026 0.94314 0.82526 0.0
H2598 H 0.77644 0.95659 0.802 0.0
H2599 H 0.80656 0.96339 0.77394 0.0
H2600 H 0.76177 0.98599 0.79964 0.0
H2601 H 0.75801 0.96923 0.80321 0.0
H2602 H 0.75322 0.97634 0.78798 0.0
H2603 H 0.80573 0.98024 0.75853 0.0
H2604 H 0.79836 0.99447 0.765 0.0
H2605 H 0.7895 0.9845 0.75385 0.0
H2606 H 0.79181 0.05515 0.81732 0.0
H2607 H 0.77725 0.06686 0.83376 0.0
H2608 H 0.77163 0.05225 0.82641 0.0
H2609 H 0.76554 0.0674 0.82077 0.0
H2610 H 0.79457 0.05231 0.78302 0.0
H2611 H 0.7615 0.04612 0.80749 0.0
H2612 H 0.7962 0.0213 0.77041 0.0
H2613 H 0.79982 0.03796 0.76624 0.0
H2614 H 0.78589 0.02964 0.75937 0.0
H2615 H 0.74847 0.02721 0.80678 0.0
H2616 H 0.75583 0.0131 0.80002 0.0
H2617 H 0.74573 0.02294 0.79009 0.0
H2618 H 0.72633 0.06965 0.71018 0.0
H2619 H 0.73247 0.04994 0.70884 0.0
H2620 H 0.69963 0.04402 0.73381 0.0
H2621 H 0.75309 0.02867 0.72308 0.0
H2622 H 0.74925 0.03524 0.70737 0.0
H2623 H 0.74477 0.01875 0.71148 0.0
H2624 H 0.69756 0.02595 0.74778 0.0
H2625 H 0.71291 0.02035 0.75376 0.0
H2626 H 0.70466 0.01162 0.74121 0.0
H2627 H 0.72041 0.93221 0.72648 0.0
H2628 H 0.73377 0.91478 0.71665 0.0
H2629 H 0.74121 0.93037 0.7142 0.0
H2630 H 0.7326 0.92263 0.70109 0.0
H2631 H 0.73615 0.96042 0.70013 0.0
H2632 H 0.71105 0.95127 0.73207 0.0
H2633 H 0.75373 0.98605 0.71512 0.0
H2634 H 0.74085 0.99274 0.70578 0.0
H2635 H 0.74956 0.9792 0.69959 0.0
H2636 H 0.70737 0.96588 0.74894 0.0
H2637 H 0.71128 0.9827 0.7457 0.0
H2638 H 0.72272 0.97282 0.75397 0.0
H2639 H 0.78209 0.00389 0.78792 0.0
H2640 H 0.75617 0.03531 0.76606 0.0
H2641 H 0.74055 0.03466 0.74893 0.0
H2642 H 0.72188 0.00137 0.72208 0.0
H2643 H 0.74821 0.96997 0.74358 0.0
H2644 H 0.76394 0.97065 0.76066 0.0
H2645 H 0.70995 0.08052 0.73256 0.0
H2646 H 0.72552 0.08681 0.72733 0.0
H2647 H 0.72435 0.07121 0.73466 0.0
C2648 C 0.32046 0.8071 0.55718 0.0
C2649 C 0.30708 0.80606 0.5637 0.0
C2650 C 0.29561 0.78898 0.55196 0.0
C2651 C 0.28534 0.79556 0.54622 0.0
C2652 C 0.27906 0.79062 0.5352 0.0
C2653 C 0.28321 0.77889 0.52978 0.0
C2654 C 0.29344 0.77213 0.53569 0.0
C2655 C 0.29936 0.77718 0.54687 0.0
C2656 C 0.26802 0.79795 0.52931 0.0
C2657 C 0.29826 0.7597 0.5301 0.0
C2658 C 0.28555 0.78437 0.42907 0.0
C2659 C 0.2984 0.78863 0.43555 0.0
C2660 C 0.29113 0.79061 0.45811 0.0
C2661 C 0.29552 0.77879 0.46303 0.0
C2662 C 0.29094 0.77386 0.47492 0.0
C2663 C 0.28168 0.78082 0.48198 0.0
C2664 C 0.27754 0.7929 0.47726 0.0
C2665 C 0.28246 0.79771 0.46545 0.0
C2666 C 0.29593 0.76116 0.47989 0.0
C2667 C 0.26776 0.80063 0.48459 0.0
C2668 C 0.22163 0.72121 0.4579 0.0
C2669 C 0.23341 0.71671 0.46283 0.0
C2670 C 0.23842 0.72135 0.47459 0.0
C2671 C 0.23153 0.7307 0.48156 0.0
C2672 C 0.21948 0.73497 0.47683 0.0
C2673 C 0.21463 0.73005 0.46511 0.0
C2674 C 0.25109 0.71626 0.47957 0.0
C2675 C 0.21184 0.74484 0.48407 0.0
C2676 C 0.22683 0.71843 0.58141 0.0
C2677 C 0.21629 0.71122 0.57359 0.0
C2678 C 0.22509 0.71385 0.5515 0.0
C2679 C 0.23399 0.70834 0.54312 0.0
C2680 C 0.23857 0.71503 0.53212 0.0
C2681 C 0.2338 0.72743 0.52921 0.0
C2682 C 0.22454 0.73297 0.53749 0.0
C2683 C 0.22041 0.72621 0.54865 0.0
C2684 C 0.24848 0.70878 0.52359 0.0
C2685 C 0.21888 0.74596 0.53445 0.0
C2686 C 0.27712 0.77396 0.51767 0.0
C2687 C 0.28146 0.77928 0.50592 0.0
C2688 C 0.27614 0.77525 0.49414 0.0
C2689 C 0.26609 0.76573 0.49401 0.0
C2690 C 0.26031 0.76168 0.48235 0.0
C2691 C 0.25069 0.75206 0.48227 0.0
C2692 C 0.24648 0.74608 0.49383 0.0
C2693 C 0.23698 0.73601 0.49379 0.0
C2694 C 0.23292 0.73037 0.50547 0.0
C2695 C 0.23821 0.73436 0.51729 0.0
C2696 C 0.2478 0.74436 0.51753 0.0
C2697 C 0.25344 0.74857 0.5292 0.0
C2698 C 0.26287 0.7584 0.52931 0.0
C2699 C 0.26728 0.7642 0.51772 0.0
C2700 C 0.26176 0.76008 0.50583 0.0
C2701 C 0.25196 0.75021 0.50574 0.0
C2702 C 0.22638 0.72705 0.42831 0.0
C2703 C 0.22348 0.71412 0.43533 0.0
O2704 O 0.30187 0.79365 0.56256 0.0
O2705 O 0.22114 0.70676 0.56198 0.0
O2706 O 0.21658 0.71711 0.44642 0.0
O2707 O 0.29507 0.79557 0.44647 0.0
H2708 H 0.30127 0.81291 0.55798 0.0
H2709 H 0.31942 0.8054 0.54662 0.0
H2710 H 0.32734 0.79996 0.561 0.0
H2711 H 0.32472 0.81695 0.55852 0.0
H2712 H 0.2821 0.80447 0.55043 0.0
H2713 H 0.30721 0.7721 0.55149 0.0
H2714 H 0.27098 0.80176 0.51966 0.0
H2715 H 0.26509 0.80619 0.53541 0.0
H2716 H 0.25949 0.79139 0.52789 0.0
H2717 H 0.30693 0.75615 0.53528 0.0
H2718 H 0.30072 0.76111 0.51972 0.0
H2719 H 0.29048 0.75214 0.5307 0.0
H2720 H 0.304 0.78003 0.43823 0.0
H2721 H 0.28025 0.79296 0.42562 0.0
H2722 H 0.27931 0.77906 0.43618 0.0
H2723 H 0.28691 0.7778 0.42081 0.0
H2724 H 0.30265 0.77339 0.45783 0.0
H2725 H 0.27926 0.80691 0.46169 0.0
H2726 H 0.2992 0.76216 0.49009 0.0
H2727 H 0.30412 0.75763 0.474 0.0
H2728 H 0.28799 0.75375 0.47972 0.0
H2729 H 0.26498 0.8095 0.47926 0.0
H2730 H 0.27187 0.80346 0.49411 0.0
H2731 H 0.25891 0.7946 0.48646 0.0
H2732 H 0.23272 0.70949 0.43782 0.0
H2733 H 0.23867 0.7094 0.45774 0.0
H2734 H 0.20545 0.73331 0.46135 0.0
H2735 H 0.25849 0.72421 0.4797 0.0
H2736 H 0.25478 0.70831 0.47353 0.0
H2737 H 0.24988 0.71268 0.48967 0.0
H2738 H 0.20288 0.74756 0.47884 0.0
H2739 H 0.21793 0.75367 0.48563 0.0
H2740 H 0.20909 0.74092 0.49374 0.0
H2741 H 0.20898 0.71863 0.5717 0.0
H2742 H 0.22285 0.72147 0.59088 0.0
H2743 H 0.2301 0.72728 0.57609 0.0
H2744 H 0.23546 0.71253 0.58322 0.0
H2745 H 0.23748 0.69878 0.54535 0.0
H2746 H 0.21335 0.73057 0.55487 0.0
H2747 H 0.25658 0.71571 0.52139 0.0
H2748 H 0.24388 0.70602 0.51427 0.0
H2749 H 0.25251 0.69997 0.52812 0.0
H2750 H 0.21073 0.74827 0.541 0.0
H2751 H 0.21535 0.74621 0.52429 0.0
H2752 H 0.2265 0.75362 0.53542 0.0
H2753 H 0.28917 0.78659 0.50593 0.0
H2754 H 0.26319 0.76589 0.47313 0.0
H2755 H 0.24664 0.74931 0.47299 0.0
H2756 H 0.2257 0.72258 0.50535 0.0
H2757 H 0.2506 0.74432 0.53841 0.0
H2758 H 0.26678 0.76131 0.53859 0.0
H2759 H 0.2172 0.73143 0.42501 0.0
H2760 H 0.23286 0.72606 0.41986 0.0
H2761 H 0.23131 0.73391 0.43502 0.0
C2762 C 0.82224 0.7213 0.44977 0.0
C2763 C 0.80965 0.71458 0.44508 0.0
C2764 C 0.79324 0.7261 0.45655 0.0
C2765 C 0.78293 0.71848 0.4613 0.0
C2766 C 0.77647 0.7219 0.47269 0.0
C2767 C 0.78055 0.73312 0.47947 0.0
C2768 C 0.79102 0.74082 0.47463 0.0
C2769 C 0.79712 0.7373 0.46308 0.0
C2770 C 0.76528 0.71354 0.47749 0.0
C2771 C 0.7958 0.75271 0.48169 0.0
C2772 C 0.78637 0.6835 0.5564 0.0
C2773 C 0.79437 0.69551 0.56054 0.0
C2774 C 0.78378 0.7127 0.54905 0.0
C2775 C 0.79129 0.72318 0.54452 0.0
C2776 C 0.78764 0.73002 0.53336 0.0
C2777 C 0.77622 0.72621 0.52666 0.0
C2778 C 0.76865 0.71554 0.53123 0.0
C2779 C 0.77244 0.70902 0.54251 0.0
C2780 C 0.79586 0.74141 0.52883 0.0
C2781 C 0.75651 0.71112 0.52426 0.0
C2782 C 0.71805 0.78435 0.55333 0.0
C2783 C 0.73002 0.78949 0.54907 0.0
C2784 C 0.7353 0.78576 0.53718 0.0
C2785 C 0.72849 0.77664 0.52945 0.0
C2786 C 0.71624 0.77173 0.53357 0.0
C2787 C 0.7111 0.7758 0.54541 0.0
C2788 C 0.74816 0.79156 0.53288 0.0
C2789 C 0.70867 0.76209 0.52552 0.0
C2790 C 0.72378 0.78961 0.42979 0.0
C2791 C 0.71327 0.79659 0.43745 0.0
C2792 C 0.72202 0.79474 0.45958 0.0
C2793 C 0.73069 0.80087 0.46803 0.0
C2794 C 0.73534 0.79451 0.47908 0.0
C2795 C 0.73086 0.78179 0.48193 0.0
C2796 C 0.72176 0.77563 0.47362 0.0
C2797 C 0.71757 0.78209 0.46243 0.0
C2798 C 0.74506 0.80138 0.48766 0.0
C2799 C 0.71641 0.76224 0.47659 0.0
C2800 C 0.77399 0.73673 0.49169 0.0
C2801 C 0.77764 0.73045 0.5031 0.0
C2802 C 0.77206 0.7335 0.51499 0.0
C2803 C 0.76262 0.74318 0.51561 0.0
C2804 C 0.75698 0.74665 0.52744 0.0
C2805 C 0.74764 0.75612 0.52794 0.0
C2806 C 0.74362 0.76254 0.51664 0.0
C2807 C 0.73421 0.77226 0.51707 0.0
C2808 C 0.73025 0.77826 0.50562 0.0
C2809 C 0.73558 0.77498 0.49367 0.0
C2810 C 0.74521 0.76548 0.49308 0.0
C2811 C 0.75101 0.76215 0.48127 0.0
C2812 C 0.76036 0.75268 0.48077 0.0
C2813 C 0.76441 0.74629 0.49208 0.0
C2814 C 0.75874 0.74954 0.50409 0.0
C2815 C 0.74917 0.75918 0.5046 0.0
C2816 C 0.71617 0.77525 0.58353 0.0
C2817 C 0.71952 0.78808 0.57655 0.0
O2818 O 0.79928 0.72282 0.44546 0.0
O2819 O 0.71811 0.80147 0.44897 0.0
O2820 O 0.71285 0.78774 0.56488 0.0
O2821 O 0.78711 0.70659 0.56014 0.0
H2822 H 0.80799 0.70671 0.45228 0.0
H2823 H 0.82155 0.72332 0.46029 0.0
H2824 H 0.82426 0.7306 0.44472 0.0
H2825 H 0.8306 0.71489 0.44832 0.0
H2826 H 0.77996 0.7099 0.45603 0.0
H2827 H 0.80504 0.74318 0.45918 0.0
H2828 H 0.76789 0.70903 0.48689 0.0
H2829 H 0.76262 0.70576 0.47057 0.0
H2830 H 0.75667 0.71956 0.47917 0.0
H2831 H 0.80478 0.75695 0.4773 0.0
H2832 H 0.79774 0.75032 0.492 0.0
H2833 H 0.7882 0.76013 0.48148 0.0
H2834 H 0.80217 0.69628 0.55314 0.0
H2835 H 0.79193 0.6746 0.55823 0.0
H2836 H 0.78434 0.68399 0.54585 0.0
H2837 H 0.77695 0.68263 0.5615 0.0
H2838 H 0.79994 0.72603 0.54981 0.0
H2839 H 0.76656 0.70106 0.5463 0.0
H2840 H 0.79977 0.73943 0.51904 0.0
H2841 H 0.80409 0.74352 0.53546 0.0
H2842 H 0.78982 0.75012 0.52803 0.0
H2843 H 0.75238 0.70197 0.52838 0.0
H2844 H 0.75861 0.70967 0.51383 0.0
H2845 H 0.7491 0.71868 0.52494 0.0
H2846 H 0.73013 0.78854 0.5748 0.0
H2847 H 0.73516 0.79657 0.55492 0.0
H2848 H 0.70176 0.77207 0.54869 0.0
H2849 H 0.7555 0.7839 0.53258 0.0
H2850 H 0.75169 0.79932 0.53945 0.0
H2851 H 0.7473 0.79562 0.52294 0.0
H2852 H 0.69963 0.75865 0.5304 0.0
H2853 H 0.71475 0.75363 0.52342 0.0
H2854 H 0.70608 0.76658 0.5161 0.0
H2855 H 0.70589 0.78895 0.43946 0.0
H2856 H 0.71982 0.78629 0.42035 0.0
H2857 H 0.72693 0.78095 0.43526 0.0
H2858 H 0.73249 0.79578 0.42793 0.0
H2859 H 0.73401 0.81065 0.4658 0.0
H2860 H 0.71069 0.77723 0.45616 0.0
H2861 H 0.75346 0.79511 0.48954 0.0
H2862 H 0.7405 0.80346 0.49713 0.0
H2863 H 0.74865 0.81065 0.48334 0.0
H2864 H 0.70817 0.75951 0.47017 0.0
H2865 H 0.7131 0.7616 0.48681 0.0
H2866 H 0.72416 0.7551 0.47532 0.0
H2867 H 0.78494 0.72307 0.50272 0.0
H2868 H 0.75972 0.74209 0.53646 0.0
H2869 H 0.7436 0.75835 0.53732 0.0
H2870 H 0.72297 0.78565 0.50602 0.0
H2871 H 0.74836 0.76681 0.47227 0.0
H2872 H 0.76439 0.75046 0.4714 0.0
H2873 H 0.70568 0.77475 0.58598 0.0
H2874 H 0.72184 0.77391 0.59251 0.0
H2875 H 0.71833 0.76702 0.57709 0.0
C2876 C 0.82195 0.28619 0.56546 0.0
C2877 C 0.8101 0.29497 0.56535 0.0
C2878 C 0.79369 0.28406 0.55241 0.0
C2879 C 0.78311 0.29043 0.54715 0.0
C2880 C 0.77735 0.28618 0.53557 0.0
C2881 C 0.78227 0.27523 0.52925 0.0
C2882 C 0.79296 0.26874 0.53462 0.0
C2883 C 0.79849 0.27318 0.54623 0.0
C2884 C 0.76592 0.29327 0.53016 0.0
C2885 C 0.7984 0.257 0.52818 0.0
C2886 C 0.77729 0.30034 0.43313 0.0
C2887 C 0.79091 0.30231 0.43904 0.0
C2888 C 0.78991 0.28731 0.45776 0.0
C2889 C 0.79417 0.27544 0.46243 0.0
C2890 C 0.78957 0.27023 0.47419 0.0
C2891 C 0.78033 0.27704 0.48142 0.0
C2892 C 0.77612 0.28918 0.4769 0.0
C2893 C 0.78101 0.29424 0.46517 0.0
C2894 C 0.79449 0.25739 0.47883 0.0
C2895 C 0.76634 0.29675 0.48441 0.0
C2896 C 0.71816 0.21885 0.45852 0.0
C2897 C 0.7298 0.2139 0.46331 0.0
C2898 C 0.73516 0.21841 0.47498 0.0
C2899 C 0.72879 0.22809 0.48198 0.0
C2900 C 0.71686 0.23281 0.47739 0.0
C2901 C 0.71164 0.22801 0.46578 0.0
C2902 C 0.74766 0.21282 0.47983 0.0
C2903 C 0.70974 0.24304 0.48468 0.0
C2904 C 0.73028 0.21601 0.58294 0.0
C2905 C 0.7169 0.21548 0.57635 0.0
C2906 C 0.72232 0.21479 0.55332 0.0
C2907 C 0.7314 0.20855 0.5457 0.0
C2908 C 0.7359 0.21407 0.53404 0.0
C2909 C 0.73093 0.226 0.52978 0.0
C2910 C 0.72131 0.2321 0.53718 0.0
C2911 C 0.7171 0.22643 0.54889 0.0
C2912 C 0.74606 0.20723 0.52633 0.0
C2913 C 0.71549 0.24461 0.53271 0.0
C2914 C 0.77604 0.27039 0.51718 0.0
C2915 C 0.78046 0.27546 0.50535 0.0
C2916 C 0.77498 0.27141 0.49364 0.0
C2917 C 0.76473 0.26209 0.49367 0.0
C2918 C 0.7588 0.25798 0.4821 0.0
C2919 C 0.7489 0.24863 0.48221 0.0
C2920 C 0.74452 0.243 0.4939 0.0
C2921 C 0.73464 0.23328 0.49408 0.0
C2922 C 0.73041 0.22803 0.50589 0.0
C2923 C 0.73583 0.23213 0.51761 0.0
C2924 C 0.74582 0.24174 0.51761 0.0
C2925 C 0.75159 0.24599 0.5292 0.0
C2926 C 0.76142 0.25543 0.5291 0.0
C2927 C 0.76595 0.2609 0.51739 0.0
C2928 C 0.76028 0.25674 0.50559 0.0
C2929 C 0.75018 0.24717 0.5057 0.0
C2930 C 0.72278 0.2247 0.42901 0.0
C2931 C 0.71945 0.21179 0.43592 0.0
O2932 O 0.79862 0.28793 0.56394 0.0
O2933 O 0.71858 0.20915 0.56469 0.0
O2934 O 0.7128 0.21492 0.44712 0.0
O2935 O 0.79459 0.29156 0.44611 0.0
H2936 H 0.81172 0.30122 0.55667 0.0
H2937 H 0.82397 0.28283 0.55549 0.0
H2938 H 0.82048 0.27752 0.57168 0.0
H2939 H 0.8307 0.29165 0.56882 0.0
H2940 H 0.77936 0.2987 0.55217 0.0
H2941 H 0.80639 0.26802 0.55062 0.0
H2942 H 0.7682 0.29683 0.52024 0.0
H2943 H 0.76325 0.30161 0.53624 0.0
H2944 H 0.75742 0.28654 0.52944 0.0
H2945 H 0.80704 0.25333 0.53332 0.0
H2946 H 0.80112 0.25938 0.51803 0.0
H2947 H 0.79086 0.24918 0.52788 0.0
H2948 H 0.79002 0.31072 0.44554 0.0
H2949 H 0.77522 0.3083 0.42621 0.0
H2950 H 0.76977 0.30049 0.4408 0.0
H2951 H 0.77616 0.291 0.42807 0.0
H2952 H 0.8011 0.27019 0.45674 0.0
H2953 H 0.77775 0.30356 0.46192 0.0
H2954 H 0.79795 0.25818 0.48898 0.0
H2955 H 0.80252 0.25388 0.47271 0.0
H2956 H 0.78645 0.25008 0.47869 0.0
H2957 H 0.76342 0.30565 0.47921 0.0
H2958 H 0.77053 0.29953 0.49392 0.0
H2959 H 0.75756 0.29064 0.48633 0.0
H2960 H 0.72852 0.20677 0.43827 0.0
H2961 H 0.73467 0.20635 0.45818 0.0
H2962 H 0.70255 0.23163 0.46213 0.0
H2963 H 0.7554 0.22044 0.47975 0.0
H2964 H 0.7509 0.20464 0.47382 0.0
H2965 H 0.74647 0.2094 0.48998 0.0
H2966 H 0.70087 0.24614 0.47952 0.0
H2967 H 0.71622 0.25162 0.48616 0.0
H2968 H 0.70692 0.23926 0.49438 0.0
H2969 H 0.71365 0.22547 0.57461 0.0
H2970 H 0.73032 0.22152 0.59208 0.0
H2971 H 0.73748 0.22081 0.57639 0.0
H2972 H 0.73358 0.20606 0.58505 0.0
H2973 H 0.73519 0.19945 0.54909 0.0
H2974 H 0.70958 0.231 0.55439 0.0
H2975 H 0.75455 0.21382 0.52464 0.0
H2976 H 0.74206 0.20455 0.51672 0.0
H2977 H 0.74941 0.19835 0.53128 0.0
H2978 H 0.7075 0.24769 0.53911 0.0
H2979 H 0.7117 0.24355 0.5227 0.0
H2980 H 0.72311 0.25235 0.5325 0.0
H2981 H 0.78828 0.28264 0.50526 0.0
H2982 H 0.76178 0.26194 0.47281 0.0
H2983 H 0.74473 0.24584 0.473 0.0
H2984 H 0.72285 0.22057 0.50596 0.0
H2985 H 0.74858 0.24208 0.53849 0.0
H2986 H 0.76548 0.25833 0.53832 0.0
H2987 H 0.71375 0.22949 0.4259 0.0
H2988 H 0.72909 0.22355 0.42046 0.0
H2989 H 0.72807 0.23127 0.43574 0.0
C2990 C 0.19545 0.28091 0.43606 0.0
C2991 C 0.19967 0.29424 0.44136 0.0
C2992 C 0.21702 0.29048 0.45736 0.0
C2993 C 0.2299 0.2937 0.46026 0.0
C2994 C 0.23555 0.28993 0.47199 0.0
C2995 C 0.22824 0.28223 0.48086 0.0
C2996 C 0.21513 0.27897 0.47803 0.0
C2997 C 0.2096 0.28331 0.46641 0.0
C2998 C 0.24936 0.29414 0.47481 0.0
C2999 C 0.207 0.27079 0.48723 0.0
C3000 C 0.23251 0.29365 0.58199 0.0
C3001 C 0.21909 0.29357 0.57546 0.0
C3002 C 0.22386 0.29565 0.55237 0.0
C3003 C 0.21813 0.28419 0.54768 0.0
C3004 C 0.22203 0.27902 0.53582 0.0
C3005 C 0.23182 0.28547 0.52849 0.0
C3006 C 0.23722 0.29732 0.53293 0.0
C3007 C 0.23306 0.30232 0.5448 0.0
C3008 C 0.21577 0.26657 0.53116 0.0
C3009 C 0.24755 0.30452 0.52528 0.0
C3010 C 0.2912 0.22782 0.55234 0.0
C3011 C 0.27891 0.22316 0.54857 0.0
C3012 C 0.2734 0.22704 0.5368 0.0
C3013 C 0.28029 0.23589 0.5287 0.0
C3014 C 0.29286 0.24031 0.5323 0.0
C3015 C 0.29823 0.23605 0.54403 0.0
C3016 C 0.2602 0.22173 0.53304 0.0
C3017 C 0.30051 0.24966 0.52385 0.0
C3018 C 0.27537 0.21419 0.42896 0.0
C3019 C 0.2884 0.21565 0.43605 0.0
C3020 C 0.2835 0.21797 0.45909 0.0
C3021 C 0.2749 0.21208 0.46787 0.0
C3022 C 0.27073 0.21863 0.47891 0.0
C3023 C 0.27562 0.23125 0.48139 0.0
C3024 C 0.28464 0.23713 0.47271 0.0
C3025 C 0.28843 0.23044 0.4616 0.0
C3026 C 0.26114 0.21202 0.48794 0.0
C3027 C 0.29043 0.25038 0.47528 0.0
C3028 C 0.23434 0.27751 0.49299 0.0
C3029 C 0.231 0.28338 0.50464 0.0
C3030 C 0.23659 0.27961 0.51635 0.0
C3031 C 0.24615 0.27002 0.51646 0.0
C3032 C 0.25237 0.2664 0.52799 0.0
C3033 C 0.26166 0.25687 0.52804 0.0
C3034 C 0.26501 0.2505 0.51657 0.0
C3035 C 0.27424 0.24061 0.51657 0.0
C3036 C 0.27753 0.23466 0.50497 0.0
C3037 C 0.27165 0.23811 0.49329 0.0
C3038 C 0.26216 0.24777 0.49314 0.0
C3039 C 0.25571 0.2512 0.48167 0.0
C3040 C 0.24653 0.26084 0.4816 0.0
C3041 C 0.24343 0.26746 0.493 0.0
C3042 C 0.24952 0.26388 0.50475 0.0
C3043 C 0.25893 0.25407 0.50481 0.0
C3044 C 0.29493 0.23625 0.58281 0.0
C3045 C 0.29025 0.22405 0.57562 0.0
O3046 O 0.21238 0.29432 0.44567 0.0
O3047 O 0.2873 0.21109 0.44866 0.0
O3048 O 0.29662 0.22427 0.56378 0.0
O3049 O 0.22057 0.30062 0.56404 0.0
H3050 H 0.19297 0.29584 0.44956 0.0
H3051 H 0.1943 0.2738 0.44408 0.0
H3052 H 0.20252 0.2769 0.42921 0.0
H3053 H 0.18591 0.28157 0.43114 0.0
H3054 H 0.23553 0.29931 0.45326 0.0
H3055 H 0.19957 0.28085 0.46443 0.0
H3056 H 0.25041 0.29722 0.48504 0.0
H3057 H 0.25266 0.30221 0.46839 0.0
H3058 H 0.25586 0.28589 0.47327 0.0
H3059 H 0.19767 0.26756 0.48282 0.0
H3060 H 0.20483 0.27648 0.496 0.0
H3061 H 0.21239 0.26214 0.49036 0.0
H3062 H 0.21614 0.28342 0.5734 0.0
H3063 H 0.23537 0.30364 0.58487 0.0
H3064 H 0.23988 0.29012 0.5751 0.0
H3065 H 0.23284 0.28729 0.59064 0.0
H3066 H 0.21051 0.27933 0.55316 0.0
H3067 H 0.23724 0.3113 0.54839 0.0
H3068 H 0.21198 0.26789 0.52119 0.0
H3069 H 0.2077 0.2632 0.53754 0.0
H3070 H 0.22314 0.25893 0.53081 0.0
H3071 H 0.2509 0.31353 0.53014 0.0
H3072 H 0.24375 0.30703 0.51555 0.0
H3073 H 0.256 0.29822 0.52385 0.0
H3074 H 0.27963 0.22467 0.57417 0.0
H3075 H 0.27368 0.21633 0.55473 0.0
H3076 H 0.30781 0.23941 0.54694 0.0
H3077 H 0.25308 0.2296 0.53323 0.0
H3078 H 0.25676 0.21389 0.53968 0.0
H3079 H 0.26044 0.21793 0.52302 0.0
H3080 H 0.30984 0.25273 0.52836 0.0
H3081 H 0.29471 0.25836 0.52185 0.0
H3082 H 0.30258 0.24507 0.51441 0.0
H3083 H 0.29014 0.22622 0.43599 0.0
H3084 H 0.27638 0.21769 0.4188 0.0
H3085 H 0.26801 0.22015 0.43382 0.0
H3086 H 0.2716 0.2041 0.42883 0.0
H3087 H 0.27133 0.20236 0.46594 0.0
H3088 H 0.29551 0.23485 0.45514 0.0
H3089 H 0.25301 0.21854 0.49005 0.0
H3090 H 0.26599 0.20979 0.49725 0.0
H3091 H 0.25713 0.20287 0.48386 0.0
H3092 H 0.29819 0.2531 0.46826 0.0
H3093 H 0.29451 0.25077 0.48522 0.0
H3094 H 0.28273 0.25768 0.47466 0.0
H3095 H 0.22386 0.29092 0.50461 0.0
H3096 H 0.25018 0.27093 0.53712 0.0
H3097 H 0.26617 0.25454 0.53719 0.0
H3098 H 0.28467 0.22712 0.50505 0.0
H3099 H 0.25771 0.24646 0.4726 0.0
H3100 H 0.24187 0.26303 0.47248 0.0
H3101 H 0.30545 0.2357 0.585 0.0
H3102 H 0.28961 0.23771 0.59198 0.0
H3103 H 0.29338 0.24491 0.57664 0.0
C3104 C 0.81277 0.57309 0.73356 0.0
C3105 C 0.81161 0.56855 0.71941 0.0
C3106 C 0.79384 0.55212 0.72014 0.0
C3107 C 0.78121 0.54938 0.71598 0.0
C3108 C 0.77481 0.53772 0.7193 0.0
C3109 C 0.78113 0.52869 0.72733 0.0
C3110 C 0.79399 0.53132 0.7315 0.0
C3111 C 0.80028 0.54292 0.72772 0.0
C3112 C 0.76129 0.53511 0.71425 0.0
C3113 C 0.80107 0.52191 0.74004 0.0
C3114 C 0.77422 0.42799 0.7082 0.0
C3115 C 0.78698 0.43462 0.71252 0.0
C3116 C 0.78422 0.45789 0.71149 0.0
C3117 C 0.78889 0.46171 0.72366 0.0
C3118 C 0.78508 0.47337 0.7292 0.0
C3119 C 0.7763 0.48131 0.72246 0.0
C3120 C 0.77191 0.47768 0.70999 0.0
C3121 C 0.77609 0.46606 0.70459 0.0
C3122 C 0.79037 0.47716 0.74228 0.0
C3123 C 0.76264 0.48594 0.7025 0.0
C3124 C 0.71594 0.45587 0.78092 0.0
C3125 C 0.72781 0.46046 0.78595 0.0
C3126 C 0.73333 0.47224 0.78166 0.0
C3127 C 0.7268 0.47964 0.77223 0.0
C3128 C 0.71464 0.47527 0.76747 0.0
C3129 C 0.70931 0.46347 0.77198 0.0
C3130 C 0.74616 0.47679 0.78721 0.0
C3131 C 0.70737 0.483 0.75753 0.0
C3132 C 0.73423 0.57562 0.79804 0.0
C3133 C 0.72013 0.5705 0.7974 0.0
C3134 C 0.7236 0.5478 0.79274 0.0
C3135 C 0.73167 0.53858 0.79817 0.0
C3136 C 0.73606 0.5282 0.79084 0.0
C3137 C 0.73182 0.52675 0.77788 0.0
C3138 C 0.72341 0.53595 0.77241 0.0
C3139 C 0.71951 0.54649 0.77987 0.0
C3140 C 0.74505 0.51868 0.79707 0.0
C3141 C 0.71826 0.53449 0.75881 0.0
C3142 C 0.77429 0.51653 0.7314 0.0
C3143 C 0.7776 0.50505 0.72527 0.0
C3144 C 0.77157 0.49327 0.72861 0.0
C3145 C 0.76164 0.49292 0.73807 0.0
C3146 C 0.75507 0.48131 0.74137 0.0
C3147 C 0.74555 0.48098 0.75091 0.0
C3148 C 0.7422 0.49226 0.7575 0.0
C3149 C 0.73276 0.49195 0.76742 0.0
C3150 C 0.72942 0.50338 0.77356 0.0
C3151 C 0.73555 0.51517 0.7704 0.0
C3152 C 0.74531 0.51561 0.76075 0.0
C3153 C 0.75208 0.52716 0.75766 0.0
C3154 C 0.76159 0.52749 0.74809 0.0
C3155 C 0.76473 0.51627 0.74125 0.0
C3156 C 0.75827 0.50445 0.74445 0.0
C3157 C 0.74853 0.50413 0.75418 0.0
C3158 C 0.7178 0.42582 0.77445 0.0
C3159 C 0.71687 0.43306 0.78738 0.0
O3160 O 0.79926 0.56376 0.71669 0.0
O3161 O 0.71938 0.55744 0.80037 0.0
O3162 O 0.71041 0.4444 0.7847 0.0
O3163 O 0.78759 0.44648 0.70615 0.0
H3164 H 0.81875 0.56075 0.71858 0.0
H3165 H 0.81271 0.56469 0.74029 0.0
H3166 H 0.80469 0.57928 0.7365 0.0
H3167 H 0.82208 0.57849 0.73501 0.0
H3168 H 0.77634 0.55647 0.71005 0.0
H3169 H 0.81014 0.54469 0.73085 0.0
H3170 H 0.76038 0.52513 0.71043 0.0
H3171 H 0.75862 0.54203 0.70648 0.0
H3172 H 0.75423 0.53597 0.72229 0.0
H3173 H 0.81035 0.52606 0.74378 0.0
H3174 H 0.80323 0.51312 0.73442 0.0
H3175 H 0.79489 0.51889 0.74838 0.0
H3176 H 0.78652 0.43609 0.72314 0.0
H3177 H 0.77455 0.42591 0.69766 0.0
H3178 H 0.76599 0.43448 0.71001 0.0
H3179 H 0.77213 0.41885 0.71351 0.0
H3180 H 0.79563 0.45564 0.72879 0.0
H3181 H 0.77271 0.46312 0.69511 0.0
H3182 H 0.79422 0.48726 0.74198 0.0
H3183 H 0.79819 0.47071 0.74558 0.0
H3184 H 0.78244 0.47671 0.74954 0.0
H3185 H 0.75962 0.48145 0.69321 0.0
H3186 H 0.7673 0.4955 0.70039 0.0
H3187 H 0.75387 0.48766 0.70842 0.0
H3188 H 0.72679 0.43512 0.791 0.0
H3189 H 0.73271 0.45507 0.79342 0.0
H3190 H 0.70004 0.45998 0.76833 0.0
H3191 H 0.75354 0.47736 0.7794 0.0
H3192 H 0.7497 0.47025 0.79495 0.0
H3193 H 0.74526 0.48663 0.79124 0.0
H3194 H 0.69817 0.47811 0.75453 0.0
H3195 H 0.71354 0.48465 0.74884 0.0
H3196 H 0.70511 0.49262 0.76154 0.0
H3197 H 0.71739 0.57209 0.78715 0.0
H3198 H 0.73459 0.58622 0.79627 0.0
H3199 H 0.74008 0.57098 0.79042 0.0
H3200 H 0.73886 0.57359 0.80749 0.0
H3201 H 0.73464 0.53964 0.80818 0.0
H3202 H 0.71293 0.55343 0.7758 0.0
H3203 H 0.75301 0.51624 0.79035 0.0
H3204 H 0.73954 0.50963 0.79939 0.0
H3205 H 0.74935 0.52247 0.80619 0.0
H3206 H 0.71068 0.5416 0.75653 0.0
H3207 H 0.71413 0.52459 0.75743 0.0
H3208 H 0.72631 0.53588 0.75179 0.0
H3209 H 0.78511 0.50527 0.71791 0.0
H3210 H 0.75723 0.47232 0.73662 0.0
H3211 H 0.74086 0.47176 0.75305 0.0
H3212 H 0.72215 0.50304 0.78116 0.0
H3213 H 0.75011 0.53609 0.76261 0.0
H3214 H 0.76648 0.53666 0.74614 0.0
H3215 H 0.70797 0.42285 0.77105 0.0
H3216 H 0.72385 0.41715 0.77511 0.0
H3217 H 0.7223 0.43228 0.76699 0.0
C3218 C 0.20471 0.43039 0.73367 0.0
C3219 C 0.20295 0.4368 0.72028 0.0
C3220 C 0.21907 0.45482 0.72062 0.0
C3221 C 0.23093 0.4592 0.71553 0.0
C3222 C 0.23674 0.47087 0.71959 0.0
C3223 C 0.23056 0.4783 0.72912 0.0
C3224 C 0.21849 0.47402 0.73426 0.0
C3225 C 0.21282 0.46237 0.72991 0.0
C3226 C 0.24952 0.47524 0.71375 0.0
C3227 C 0.21162 0.48173 0.74442 0.0
C3228 C 0.23296 0.57967 0.71374 0.0
C3229 C 0.22024 0.57252 0.71745 0.0
C3230 C 0.22399 0.54948 0.71576 0.0
C3231 C 0.2194 0.54492 0.72777 0.0
C3232 C 0.22371 0.53323 0.73299 0.0
C3233 C 0.23289 0.526 0.72609 0.0
C3234 C 0.23718 0.53036 0.71376 0.0
C3235 C 0.23253 0.54199 0.70868 0.0
C3236 C 0.21852 0.52864 0.74593 0.0
C3237 C 0.24686 0.52284 0.70609 0.0
C3238 C 0.29293 0.55152 0.78421 0.0
C3239 C 0.28079 0.54704 0.78867 0.0
C3240 C 0.27558 0.53511 0.78459 0.0
C3241 C 0.28261 0.52758 0.77574 0.0
C3242 C 0.29504 0.53192 0.77153 0.0
C3243 C 0.30011 0.54378 0.77599 0.0
C3244 C 0.26254 0.53057 0.78971 0.0
C3245 C 0.30285 0.52411 0.76219 0.0
C3246 C 0.28116 0.42734 0.79421 0.0
C3247 C 0.29425 0.43459 0.79282 0.0
C3248 C 0.28923 0.4575 0.79156 0.0
C3249 C 0.28045 0.4654 0.79782 0.0
C3250 C 0.27569 0.47649 0.79171 0.0
C3251 C 0.28016 0.47993 0.77916 0.0
C3252 C 0.2894 0.47218 0.77295 0.0
C3253 C 0.29377 0.46098 0.77919 0.0
C3254 C 0.26587 0.4845 0.79866 0.0
C3255 C 0.29477 0.4758 0.7598 0.0
C3256 C 0.23672 0.49055 0.73371 0.0
C3257 C 0.23269 0.50214 0.72813 0.0
C3258 C 0.23813 0.51401 0.73191 0.0
C3259 C 0.24804 0.51438 0.74138 0.0
C3260 C 0.25401 0.52611 0.74513 0.0
C3261 C 0.26353 0.52642 0.75467 0.0
C3262 C 0.26744 0.51501 0.76086 0.0
C3263 C 0.27689 0.51527 0.7708 0.0
C3264 C 0.28081 0.5037 0.77648 0.0
C3265 C 0.27542 0.4918 0.77269 0.0
C3266 C 0.26571 0.49138 0.76301 0.0
C3267 C 0.25977 0.47965 0.75922 0.0
C3268 C 0.2503 0.47933 0.74962 0.0
C3269 C 0.24633 0.49076 0.74348 0.0
C3270 C 0.25206 0.50272 0.74727 0.0
C3271 C 0.26177 0.50303 0.75703 0.0
C3272 C 0.29632 0.58201 0.77547 0.0
C3273 C 0.29144 0.57468 0.78758 0.0
O3274 O 0.21416 0.4433 0.71631 0.0
O3275 O 0.29355 0.44691 0.79791 0.0
O3276 O 0.29801 0.56313 0.78791 0.0
O3277 O 0.22017 0.56096 0.71073 0.0
H3278 H 0.19504 0.44373 0.72169 0.0
H3279 H 0.20541 0.43784 0.74132 0.0
H3280 H 0.21362 0.42466 0.73427 0.0
H3281 H 0.19621 0.424 0.73597 0.0
H3282 H 0.23567 0.45338 0.70833 0.0
H3283 H 0.20357 0.45929 0.7339 0.0
H3284 H 0.24879 0.48524 0.7099 0.0
H3285 H 0.25263 0.46883 0.70581 0.0
H3286 H 0.25712 0.47536 0.72135 0.0
H3287 H 0.20268 0.47673 0.74802 0.0
H3288 H 0.20897 0.49125 0.7403 0.0
H3289 H 0.21821 0.48358 0.75273 0.0
H3290 H 0.22035 0.57062 0.72803 0.0
H3291 H 0.23292 0.58223 0.70327 0.0
H3292 H 0.24131 0.57332 0.71562 0.0
H3293 H 0.23464 0.5886 0.71939 0.0
H3294 H 0.21235 0.55045 0.73302 0.0
H3295 H 0.23583 0.5455 0.6993 0.0
H3296 H 0.21513 0.51841 0.74531 0.0
H3297 H 0.21039 0.53458 0.74936 0.0
H3298 H 0.2264 0.52912 0.75324 0.0
H3299 H 0.24976 0.52788 0.69697 0.0
H3300 H 0.24262 0.51321 0.70364 0.0
H3301 H 0.25566 0.52122 0.71202 0.0
H3302 H 0.28088 0.5727 0.78645 0.0
H3303 H 0.27545 0.55281 0.79547 0.0
H3304 H 0.30958 0.54724 0.77279 0.0
H3305 H 0.2553 0.53075 0.78176 0.0
H3306 H 0.25906 0.53674 0.79769 0.0
H3307 H 0.26305 0.52045 0.79327 0.0
H3308 H 0.31194 0.52924 0.75916 0.0
H3309 H 0.29698 0.52188 0.75344 0.0
H3310 H 0.3054 0.51478 0.76679 0.0
H3311 H 0.29559 0.43516 0.78221 0.0
H3312 H 0.28188 0.41739 0.79034 0.0
H3313 H 0.27366 0.43243 0.78853 0.0
H3314 H 0.27776 0.42669 0.80436 0.0
H3315 H 0.27717 0.46272 0.80745 0.0
H3316 H 0.30097 0.45518 0.77452 0.0
H3317 H 0.25744 0.48629 0.79225 0.0
H3318 H 0.27032 0.49403 0.80112 0.0
H3319 H 0.26235 0.47978 0.80773 0.0
H3320 H 0.30284 0.46952 0.75687 0.0
H3321 H 0.29832 0.48601 0.75977 0.0
H3322 H 0.28696 0.47495 0.75245 0.0
H3323 H 0.22515 0.50192 0.72081 0.0
H3324 H 0.25137 0.53521 0.74074 0.0
H3325 H 0.26776 0.53574 0.75715 0.0
H3326 H 0.28812 0.50397 0.78404 0.0
H3327 H 0.26239 0.47055 0.76363 0.0
H3328 H 0.24609 0.47001 0.74711 0.0
H3329 H 0.30684 0.58437 0.7764 0.0
H3330 H 0.2911 0.59109 0.77374 0.0
H3331 H 0.29488 0.57587 0.76679 0.0
C3332 C 0.30547 0.5752 0.22917 0.0
C3333 C 0.30748 0.56863 0.216 0.0
C3334 C 0.29167 0.55037 0.21693 0.0
C3335 C 0.27978 0.54581 0.21212 0.0
C3336 C 0.27405 0.53424 0.21673 0.0
C3337 C 0.28038 0.52708 0.22647 0.0
C3338 C 0.2925 0.53151 0.23129 0.0
C3339 C 0.29806 0.54307 0.22644 0.0
C3340 C 0.26119 0.52972 0.21125 0.0
C3341 C 0.29951 0.52407 0.24166 0.0
C3342 C 0.27583 0.42553 0.21461 0.0
C3343 C 0.28889 0.43249 0.2172 0.0
C3344 C 0.28525 0.45557 0.21502 0.0
C3345 C 0.29042 0.46025 0.22668 0.0
C3346 C 0.2865 0.4721 0.23173 0.0
C3347 C 0.27715 0.47936 0.22501 0.0
C3348 C 0.27225 0.47486 0.21302 0.0
C3349 C 0.2765 0.46307 0.2081 0.0
C3350 C 0.2923 0.47681 0.2443 0.0
C3351 C 0.26236 0.4824 0.20554 0.0
C3352 C 0.21882 0.45607 0.28624 0.0
C3353 C 0.23099 0.46079 0.29043 0.0
C3354 C 0.2362 0.47249 0.28557 0.0
C3355 C 0.22916 0.47958 0.27628 0.0
C3356 C 0.21678 0.47503 0.27228 0.0
C3357 C 0.21172 0.46339 0.27744 0.0
C3358 C 0.24925 0.47729 0.29037 0.0
C3359 C 0.20899 0.48239 0.26245 0.0
C3360 C 0.22765 0.57923 0.28802 0.0
C3361 C 0.21645 0.57132 0.29421 0.0
C3362 C 0.22459 0.54923 0.2919 0.0
C3363 C 0.23337 0.54089 0.29768 0.0
C3364 C 0.2378 0.52999 0.29117 0.0
C3365 C 0.23297 0.52711 0.27867 0.0
C3366 C 0.22386 0.53537 0.27283 0.0
C3367 C 0.2199 0.54644 0.27942 0.0
C3368 C 0.24756 0.5215 0.29773 0.0
C3369 C 0.21811 0.53236 0.25973 0.0
C3370 C 0.27426 0.51501 0.23169 0.0
C3371 C 0.27788 0.50326 0.22633 0.0
C3372 C 0.27236 0.49154 0.23066 0.0
C3373 C 0.26277 0.49153 0.24046 0.0
C3374 C 0.25672 0.47997 0.24476 0.0
C3375 C 0.2475 0.48001 0.25458 0.0
C3376 C 0.24397 0.49161 0.2605 0.0
C3377 C 0.23484 0.4917 0.27071 0.0
C3378 C 0.23137 0.50341 0.27622 0.0
C3379 C 0.23697 0.51514 0.27203 0.0
C3380 C 0.24632 0.51522 0.26198 0.0
C3381 C 0.2524 0.52677 0.25769 0.0
C3382 C 0.2615 0.52675 0.24774 0.0
C3383 C 0.265 0.51515 0.24179 0.0
C3384 C 0.25916 0.50336 0.24611 0.0
C3385 C 0.24977 0.50341 0.25617 0.0
C3386 C 0.22306 0.42636 0.28181 0.0
C3387 C 0.22001 0.4337 0.29434 0.0
O3388 O 0.29645 0.56181 0.21215 0.0
O3389 O 0.22068 0.55954 0.29888 0.0
O3390 O 0.21348 0.44469 0.29057 0.0
O3391 O 0.28869 0.44396 0.21015 0.0
H3392 H 0.31554 0.56191 0.21767 0.0
H3393 H 0.31381 0.58182 0.23133 0.0
H3394 H 0.3049 0.56787 0.23704 0.0
H3395 H 0.29642 0.58073 0.22952 0.0
H3396 H 0.27493 0.55144 0.20476 0.0
H3397 H 0.30734 0.54629 0.2302 0.0
H3398 H 0.26193 0.51967 0.20766 0.0
H3399 H 0.25787 0.536 0.2032 0.0
H3400 H 0.25374 0.52962 0.21901 0.0
H3401 H 0.30864 0.52903 0.24476 0.0
H3402 H 0.30185 0.51434 0.23801 0.0
H3403 H 0.29313 0.52269 0.25024 0.0
H3404 H 0.28959 0.43455 0.22771 0.0
H3405 H 0.27507 0.42283 0.20424 0.0
H3406 H 0.26775 0.43206 0.2169 0.0
H3407 H 0.2744 0.41671 0.22061 0.0
H3408 H 0.29764 0.45473 0.23177 0.0
H3409 H 0.27274 0.45946 0.19899 0.0
H3410 H 0.29593 0.48694 0.24317 0.0
H3411 H 0.30041 0.47073 0.24763 0.0
H3412 H 0.28471 0.4767 0.25191 0.0
H3413 H 0.25902 0.47728 0.1967 0.0
H3414 H 0.26662 0.49194 0.20265 0.0
H3415 H 0.25384 0.48422 0.21178 0.0
H3416 H 0.22915 0.43624 0.2994 0.0
H3417 H 0.23642 0.45561 0.29765 0.0
H3418 H 0.20227 0.45978 0.2744 0.0
H3419 H 0.25634 0.47727 0.2823 0.0
H3420 H 0.25301 0.47124 0.2984 0.0
H3421 H 0.24857 0.4874 0.29378 0.0
H3422 H 0.19976 0.47727 0.25993 0.0
H3423 H 0.21478 0.48394 0.25349 0.0
H3424 H 0.20671 0.49205 0.26633 0.0
H3425 H 0.20962 0.5697 0.28615 0.0
H3426 H 0.22417 0.58882 0.2848 0.0
H3427 H 0.2313 0.57414 0.27937 0.0
H3428 H 0.23592 0.58077 0.29469 0.0
H3429 H 0.23688 0.54306 0.30733 0.0
H3430 H 0.21288 0.55258 0.27487 0.0
H3431 H 0.25553 0.51924 0.29094 0.0
H3432 H 0.24276 0.51222 0.30064 0.0
H3433 H 0.25178 0.52607 0.30651 0.0
H3434 H 0.21011 0.53891 0.25715 0.0
H3435 H 0.21435 0.52223 0.25953 0.0
H3436 H 0.22575 0.53335 0.2522 0.0
H3437 H 0.28515 0.50322 0.21875 0.0
H3438 H 0.25906 0.47074 0.24059 0.0
H3439 H 0.24318 0.47081 0.2575 0.0
H3440 H 0.22435 0.50337 0.28405 0.0
H3441 H 0.25016 0.53597 0.26197 0.0
H3442 H 0.26582 0.53594 0.24482 0.0
H3443 H 0.21392 0.42291 0.27715 0.0
H3444 H 0.22936 0.418 0.28342 0.0
H3445 H 0.22826 0.43291 0.27489 0.0
C3446 C 0.80149 0.44662 0.31266 0.0
C3447 C 0.79745 0.43847 0.30084 0.0
C3448 C 0.7919 0.45562 0.28512 0.0
C3449 C 0.78046 0.4596 0.29117 0.0
C3450 C 0.77391 0.47052 0.28667 0.0
C3451 C 0.77884 0.47754 0.27588 0.0
C3452 C 0.79016 0.47338 0.26959 0.0
C3453 C 0.7965 0.46244 0.27428 0.0
C3454 C 0.7618 0.47465 0.29354 0.0
C3455 C 0.79563 0.4806 0.25801 0.0
C3456 C 0.77074 0.5716 0.30537 0.0
C3457 C 0.78435 0.56601 0.30725 0.0
C3458 C 0.78428 0.54825 0.2914 0.0
C3459 C 0.78918 0.54447 0.27944 0.0
C3460 C 0.78506 0.53286 0.27364 0.0
C3461 C 0.77568 0.52488 0.27995 0.0
C3462 C 0.77083 0.52849 0.29218 0.0
C3463 C 0.77523 0.54009 0.29782 0.0
C3464 C 0.79062 0.5292 0.2607 0.0
C3465 C 0.7609 0.52014 0.29921 0.0
C3466 C 0.7123 0.54791 0.22376 0.0
C3467 C 0.72335 0.54348 0.21732 0.0
C3468 C 0.72939 0.53211 0.22135 0.0
C3469 C 0.72426 0.52497 0.23198 0.0
C3470 C 0.71309 0.5293 0.23839 0.0
C3471 C 0.70727 0.54073 0.23419 0.0
C3472 C 0.7413 0.52773 0.21429 0.0
C3473 C 0.70733 0.52189 0.24971 0.0
C3474 C 0.72601 0.4255 0.21076 0.0
C3475 C 0.71311 0.43239 0.21254 0.0
C3476 C 0.71846 0.45541 0.21448 0.0
C3477 C 0.72709 0.46401 0.20831 0.0
C3478 C 0.7319 0.47506 0.21465 0.0
C3479 C 0.72763 0.47773 0.22736 0.0
C3480 C 0.71858 0.46924 0.23352 0.0
C3481 C 0.71414 0.45811 0.22703 0.0
C3482 C 0.74149 0.4839 0.20774 0.0
C3483 C 0.71345 0.47202 0.24686 0.0
C3484 C 0.77243 0.48953 0.27151 0.0
C3485 C 0.77649 0.5012 0.27711 0.0
C3486 C 0.7708 0.51285 0.27367 0.0
C3487 C 0.76069 0.51295 0.26442 0.0
C3488 C 0.75462 0.52448 0.26088 0.0
C3489 C 0.74476 0.5245 0.25169 0.0
C3490 C 0.74055 0.51298 0.24572 0.0
C3491 C 0.73058 0.51293 0.23633 0.0
C3492 C 0.72656 0.50129 0.23066 0.0
C3493 C 0.73232 0.48963 0.234 0.0
C3494 C 0.74238 0.4895 0.24331 0.0
C3495 C 0.7485 0.47798 0.24682 0.0
C3496 C 0.7583 0.47794 0.25608 0.0
C3497 C 0.76247 0.48945 0.26209 0.0
C3498 C 0.75655 0.50121 0.25859 0.0
C3499 C 0.74647 0.50122 0.24922 0.0
C3500 C 0.72148 0.57639 0.21532 0.0
C3501 C 0.70975 0.568 0.21099 0.0
O3502 O 0.79886 0.44539 0.28936 0.0
O3503 O 0.71404 0.44495 0.20783 0.0
O3504 O 0.70619 0.55896 0.22039 0.0
O3505 O 0.78851 0.5598 0.29621 0.0
H3506 H 0.78707 0.43611 0.30251 0.0
H3507 H 0.7946 0.45455 0.31415 0.0
H3508 H 0.81127 0.45112 0.31165 0.0
H3509 H 0.80131 0.4405 0.32155 0.0
H3510 H 0.77657 0.45435 0.29942 0.0
H3511 H 0.80526 0.45926 0.2696 0.0
H3512 H 0.76338 0.48448 0.29757 0.0
H3513 H 0.75896 0.46795 0.30155 0.0
H3514 H 0.75366 0.47516 0.28655 0.0
H3515 H 0.80435 0.47596 0.25401 0.0
H3516 H 0.79826 0.49066 0.26079 0.0
H3517 H 0.78816 0.48112 0.25029 0.0
H3518 H 0.78318 0.55896 0.31532 0.0
H3519 H 0.76829 0.57787 0.31367 0.0
H3520 H 0.76331 0.56371 0.30498 0.0
H3521 H 0.76991 0.57726 0.29629 0.0
H3522 H 0.79622 0.55074 0.27458 0.0
H3523 H 0.77146 0.54268 0.30718 0.0
H3524 H 0.79444 0.51927 0.2612 0.0
H3525 H 0.79853 0.53596 0.25751 0.0
H3526 H 0.78284 0.52922 0.25328 0.0
H3527 H 0.75762 0.52457 0.30838 0.0
H3528 H 0.76509 0.5106 0.30149 0.0
H3529 H 0.75233 0.5184 0.2929 0.0
H3530 H 0.71321 0.563 0.20225 0.0
H3531 H 0.72737 0.54877 0.20916 0.0
H3532 H 0.69874 0.54417 0.2391 0.0
H3533 H 0.74951 0.52699 0.22118 0.0
H3534 H 0.74419 0.53441 0.20629 0.0
H3535 H 0.73944 0.51796 0.21022 0.0
H3536 H 0.69856 0.5265 0.25363 0.0
H3537 H 0.71464 0.52118 0.25756 0.0
H3538 H 0.70471 0.51189 0.2467 0.0
H3539 H 0.71191 0.43242 0.22318 0.0
H3540 H 0.72511 0.41537 0.21436 0.0
H3541 H 0.73371 0.43051 0.21647 0.0
H3542 H 0.72925 0.42535 0.20055 0.0
H3543 H 0.73019 0.46193 0.19854 0.0
H3544 H 0.70705 0.45176 0.23165 0.0
H3545 H 0.74994 0.48607 0.21409 0.0
H3546 H 0.73681 0.49318 0.20543 0.0
H3547 H 0.74503 0.47966 0.19858 0.0
H3548 H 0.70563 0.46507 0.24986 0.0
H3549 H 0.70962 0.48196 0.24717 0.0
H3550 H 0.72145 0.47151 0.25401 0.0
H3551 H 0.78419 0.5012 0.28427 0.0
H3552 H 0.75743 0.53363 0.26516 0.0
H3553 H 0.74048 0.53367 0.24932 0.0
H3554 H 0.7189 0.50133 0.22347 0.0
H3555 H 0.74575 0.46884 0.24246 0.0
H3556 H 0.76261 0.46878 0.25845 0.0
H3557 H 0.7235 0.58414 0.20804 0.0
H3558 H 0.73027 0.57046 0.21607 0.0
H3559 H 0.72003 0.58091 0.22486 0.0
C3560 C 0.55044 0.19403 0.69751 0.0
C3561 C 0.55901 0.20627 0.69915 0.0
C3562 C 0.54729 0.21846 0.71536 0.0
C3563 C 0.5424 0.22864 0.7079 0.0
C3564 C 0.53171 0.2356 0.71218 0.0
C3565 C 0.52574 0.23225 0.72412 0.0
C3566 C 0.53084 0.22216 0.73177 0.0
C3567 C 0.54171 0.21555 0.72738 0.0
C3568 C 0.52672 0.24647 0.70389 0.0
C3569 C 0.52465 0.21817 0.74447 0.0
C3570 C 0.42465 0.23252 0.71362 0.0
C3571 C 0.43157 0.21967 0.7115 0.0
C3572 C 0.45443 0.2264 0.70995 0.0
C3573 C 0.45924 0.22077 0.72134 0.0
C3574 C 0.47105 0.22508 0.7267 0.0
C3575 C 0.47821 0.23516 0.7205 0.0
C3576 C 0.47365 0.24048 0.70875 0.0
C3577 C 0.46184 0.23594 0.70357 0.0
C3578 C 0.47584 0.21894 0.73905 0.0
C3579 C 0.48116 0.25111 0.7018 0.0
C3580 C 0.45459 0.29399 0.77943 0.0
C3581 C 0.45868 0.28188 0.78379 0.0
C3582 C 0.47041 0.27681 0.77947 0.0
C3583 C 0.47813 0.28397 0.7705 0.0
C3584 C 0.4742 0.29635 0.76639 0.0
C3585 C 0.46253 0.30128 0.77106 0.0
C3586 C 0.47453 0.2638 0.78448 0.0
C3587 C 0.48224 0.30431 0.75695 0.0
C3588 C 0.57707 0.30098 0.77826 0.0
C3589 C 0.56847 0.30351 0.79013 0.0
C3590 C 0.54884 0.28994 0.78628 0.0
C3591 C 0.54204 0.27888 0.79054 0.0
C3592 C 0.53056 0.2747 0.78446 0.0
C3593 C 0.52581 0.28175 0.77375 0.0
C3594 C 0.53257 0.293 0.76941 0.0
C3595 C 0.54399 0.29702 0.77573 0.0
C3596 C 0.52353 0.26272 0.78942 0.0
C3597 C 0.52773 0.30072 0.75801 0.0
C3598 C 0.51381 0.23887 0.72828 0.0
C3599 C 0.50205 0.23478 0.72279 0.0
C3600 C 0.49036 0.24025 0.72644 0.0
C3601 C 0.4903 0.25006 0.73589 0.0
C3602 C 0.4787 0.25574 0.73981 0.0
C3603 C 0.47869 0.26515 0.74937 0.0
C3604 C 0.49027 0.26921 0.75541 0.0
C3605 C 0.49031 0.27847 0.76543 0.0
C3606 C 0.50203 0.28238 0.77111 0.0
C3607 C 0.51379 0.2773 0.76708 0.0
C3608 C 0.51395 0.26798 0.75714 0.0
C3609 C 0.52561 0.26265 0.75287 0.0
C3610 C 0.52562 0.25323 0.74331 0.0
C3611 C 0.51397 0.24874 0.7377 0.0
C3612 C 0.50214 0.25425 0.74161 0.0
C3613 C 0.50213 0.26385 0.75136 0.0
C3614 C 0.4244 0.29623 0.77095 0.0
C3615 C 0.43135 0.29235 0.78352 0.0
O3616 O 0.5575 0.21145 0.71139 0.0
O3617 O 0.55998 0.29324 0.79262 0.0
O3618 O 0.44319 0.29899 0.7834 0.0
O3619 O 0.44285 0.22273 0.70471 0.0
H3620 H 0.55516 0.2129 0.69171 0.0
H3621 H 0.54006 0.19659 0.69816 0.0
H3622 H 0.55224 0.18658 0.70499 0.0
H3623 H 0.55209 0.18976 0.68783 0.0
H3624 H 0.54701 0.2313 0.69883 0.0
H3625 H 0.54568 0.20779 0.73313 0.0
H3626 H 0.51708 0.24364 0.69992 0.0
H3627 H 0.53331 0.24889 0.69569 0.0
H3628 H 0.52545 0.25525 0.70984 0.0
H3629 H 0.52909 0.20941 0.74869 0.0
H3630 H 0.51412 0.21621 0.74309 0.0
H3631 H 0.52571 0.22616 0.75151 0.0
H3632 H 0.43379 0.21531 0.72104 0.0
H3633 H 0.41606 0.23148 0.71999 0.0
H3634 H 0.42157 0.23666 0.70418 0.0
H3635 H 0.43138 0.23958 0.71832 0.0
H3636 H 0.45398 0.21287 0.726 0.0
H3637 H 0.45817 0.24005 0.69465 0.0
H3638 H 0.48574 0.21523 0.73756 0.0
H3639 H 0.4694 0.21085 0.74242 0.0
H3640 H 0.47646 0.22631 0.74679 0.0
H3641 H 0.47627 0.25428 0.69278 0.0
H3642 H 0.49098 0.24771 0.69932 0.0
H3643 H 0.48242 0.25955 0.70828 0.0
H3644 H 0.43287 0.28177 0.78336 0.0
H3645 H 0.45282 0.27646 0.79072 0.0
H3646 H 0.45939 0.31072 0.76794 0.0
H3647 H 0.47416 0.25669 0.77649 0.0
H3648 H 0.46821 0.26014 0.79247 0.0
H3649 H 0.48469 0.26441 0.788 0.0
H3650 H 0.47737 0.31331 0.75396 0.0
H3651 H 0.48429 0.29854 0.74819 0.0
H3652 H 0.49168 0.30695 0.76146 0.0
H3653 H 0.56297 0.31217 0.78737 0.0
H3654 H 0.58431 0.309 0.77702 0.0
H3655 H 0.57111 0.30054 0.76934 0.0
H3656 H 0.58229 0.29178 0.77897 0.0
H3657 H 0.54582 0.27349 0.79869 0.0
H3658 H 0.54903 0.30565 0.7723 0.0
H3659 H 0.52329 0.25525 0.78177 0.0
H3660 H 0.51334 0.265 0.79179 0.0
H3661 H 0.5282 0.25863 0.79818 0.0
H3662 H 0.53427 0.30905 0.75556 0.0
H3663 H 0.51795 0.30439 0.7602 0.0
H3664 H 0.5268 0.29439 0.74941 0.0
H3665 H 0.50197 0.22714 0.71566 0.0
H3666 H 0.46947 0.25293 0.73558 0.0
H3667 H 0.46945 0.26913 0.75201 0.0
H3668 H 0.50199 0.2894 0.77886 0.0
H3669 H 0.53486 0.26566 0.75691 0.0
H3670 H 0.53487 0.24944 0.74045 0.0
H3671 H 0.4222 0.30669 0.77107 0.0
H3672 H 0.41525 0.29065 0.76939 0.0
H3673 H 0.43075 0.29441 0.7625 0.0
C3674 C 0.57774 0.72746 0.80805 0.0
C3675 C 0.5712 0.71408 0.80606 0.0
C3676 C 0.55403 0.71799 0.78986 0.0
C3677 C 0.55011 0.7152 0.77722 0.0
C3678 C 0.53851 0.71992 0.77216 0.0
C3679 C 0.53076 0.72795 0.77987 0.0
C3680 C 0.53463 0.73081 0.7927 0.0
C3681 C 0.54614 0.72568 0.79762 0.0
C3682 C 0.53455 0.71629 0.75857 0.0
C3683 C 0.52659 0.73927 0.80124 0.0
C3684 C 0.4561 0.69113 0.80962 0.0
C3685 C 0.44669 0.70087 0.80369 0.0
C3686 C 0.46075 0.71092 0.78703 0.0
C3687 C 0.46649 0.72084 0.79444 0.0
C3688 C 0.4775 0.72771 0.78992 0.0
C3689 C 0.483 0.72447 0.77785 0.0
C3690 C 0.47718 0.71455 0.77033 0.0
C3691 C 0.46599 0.70806 0.77495 0.0
C3692 C 0.48328 0.73842 0.79806 0.0
C3693 C 0.48286 0.7107 0.75751 0.0
C3694 C 0.45956 0.78606 0.71897 0.0
C3695 C 0.4634 0.79047 0.73128 0.0
C3696 C 0.47481 0.78609 0.7371 0.0
C3697 C 0.48244 0.77698 0.73061 0.0
C3698 C 0.47861 0.77253 0.71824 0.0
C3699 C 0.46728 0.77722 0.71256 0.0
C3700 C 0.47876 0.79125 0.75019 0.0
C3701 C 0.4865 0.76282 0.71102 0.0
C3702 C 0.58325 0.78919 0.71732 0.0
C3703 C 0.57259 0.79548 0.7092 0.0
C3704 C 0.55238 0.793 0.72208 0.0
C3705 C 0.54465 0.79929 0.73104 0.0
C3706 C 0.53369 0.79316 0.73655 0.0
C3707 C 0.53017 0.78046 0.73274 0.0
C3708 C 0.53792 0.77401 0.72361 0.0
C3709 C 0.54908 0.78024 0.71857 0.0
C3710 C 0.52581 0.80032 0.74638 0.0
C3711 C 0.53432 0.76058 0.71901 0.0
C3712 C 0.51855 0.73319 0.77455 0.0
C3713 C 0.50685 0.72713 0.77818 0.0
C3714 C 0.495 0.73128 0.77328 0.0
C3715 C 0.49477 0.74165 0.76429 0.0
C3716 C 0.48305 0.74597 0.75902 0.0
C3717 C 0.48295 0.75597 0.74994 0.0
C3718 C 0.49455 0.76217 0.74592 0.0
C3719 C 0.49456 0.77228 0.73662 0.0
C3720 C 0.5063 0.77804 0.73266 0.0
C3721 C 0.51811 0.77415 0.73785 0.0
C3722 C 0.51827 0.76427 0.74739 0.0
C3723 C 0.52991 0.7604 0.75315 0.0
C3724 C 0.53002 0.75033 0.76216 0.0
C3725 C 0.51848 0.74375 0.76576 0.0
C3726 C 0.50657 0.74785 0.76047 0.0
C3727 C 0.50646 0.75813 0.75128 0.0
C3728 C 0.43027 0.78879 0.72741 0.0
C3729 C 0.43852 0.79699 0.71788 0.0
O3730 O 0.56546 0.71311 0.79397 0.0
O3731 O 0.56269 0.79977 0.71704 0.0
O3732 O 0.44865 0.79003 0.71285 0.0
O3733 O 0.45009 0.70401 0.79105 0.0
H3734 H 0.5637 0.7134 0.81374 0.0
H3735 H 0.57032 0.73499 0.80895 0.0
H3736 H 0.58417 0.73041 0.79993 0.0
H3737 H 0.58349 0.72748 0.81714 0.0
H3738 H 0.5562 0.70921 0.77132 0.0
H3739 H 0.54887 0.72783 0.80749 0.0
H3740 H 0.52423 0.71301 0.75836 0.0
H3741 H 0.54061 0.70852 0.7546 0.0
H3742 H 0.53556 0.72488 0.75214 0.0
H3743 H 0.53178 0.74207 0.81025 0.0
H3744 H 0.51752 0.73397 0.80397 0.0
H3745 H 0.52385 0.74817 0.79594 0.0
H3746 H 0.4479 0.70943 0.8099 0.0
H3747 H 0.4659 0.69569 0.81054 0.0
H3748 H 0.45708 0.68234 0.80369 0.0
H3749 H 0.45279 0.6882 0.81946 0.0
H3750 H 0.46238 0.72348 0.80363 0.0
H3751 H 0.46144 0.70046 0.76925 0.0
H3752 H 0.4847 0.74733 0.79211 0.0
H3753 H 0.49294 0.73554 0.80164 0.0
H3754 H 0.47712 0.74068 0.80653 0.0
H3755 H 0.47778 0.70212 0.75333 0.0
H3756 H 0.49329 0.70853 0.75868 0.0
H3757 H 0.48219 0.71885 0.75052 0.0
H3758 H 0.44243 0.80502 0.72383 0.0
H3759 H 0.45765 0.79738 0.73639 0.0
H3760 H 0.46429 0.7739 0.70307 0.0
H3761 H 0.47841 0.78328 0.75743 0.0
H3762 H 0.47235 0.79903 0.75353 0.0
H3763 H 0.48889 0.79508 0.74981 0.0
H3764 H 0.48165 0.75953 0.70199 0.0
H3765 H 0.48826 0.75428 0.71729 0.0
H3766 H 0.49608 0.76721 0.70846 0.0
H3767 H 0.56908 0.7876 0.70288 0.0
H3768 H 0.59131 0.78622 0.71094 0.0
H3769 H 0.57924 0.7804 0.72225 0.0
H3770 H 0.58724 0.79568 0.72487 0.0
H3771 H 0.54727 0.80911 0.73375 0.0
H3772 H 0.55495 0.77505 0.71179 0.0
H3773 H 0.52373 0.79404 0.75493 0.0
H3774 H 0.51638 0.80293 0.74202 0.0
H3775 H 0.53082 0.80932 0.74967 0.0
H3776 H 0.54018 0.75769 0.71053 0.0
H3777 H 0.5239 0.75998 0.71634 0.0
H3778 H 0.53591 0.75352 0.72695 0.0
H3779 H 0.50696 0.71904 0.78492 0.0
H3780 H 0.47383 0.74158 0.76177 0.0
H3781 H 0.47366 0.75876 0.74609 0.0
H3782 H 0.50624 0.78563 0.72536 0.0
H3783 H 0.53909 0.76506 0.7507 0.0
H3784 H 0.53928 0.74772 0.76621 0.0
H3785 H 0.42186 0.7944 0.73076 0.0
H3786 H 0.43609 0.78625 0.73606 0.0
H3787 H 0.42659 0.77965 0.72315 0.0
C3788 C 0.44944 0.78705 0.3184 0.0
C3789 C 0.44598 0.79636 0.30729 0.0
C3790 C 0.45769 0.78757 0.28925 0.0
C3791 C 0.46257 0.79575 0.27952 0.0
C3792 C 0.47396 0.79276 0.27283 0.0
C3793 C 0.48057 0.78133 0.27606 0.0
C3794 C 0.47556 0.77301 0.28589 0.0
C3795 C 0.46403 0.77614 0.29222 0.0
C3796 C 0.47891 0.80177 0.26233 0.0
C3797 C 0.48239 0.76081 0.28973 0.0
C3798 C 0.58042 0.80968 0.27297 0.0
C3799 C 0.57331 0.8046 0.28509 0.0
C3800 C 0.55016 0.802 0.28114 0.0
C3801 C 0.54712 0.78972 0.28622 0.0
C3802 C 0.53603 0.78283 0.28209 0.0
C3803 C 0.52793 0.78832 0.27255 0.0
C3804 C 0.53093 0.8008 0.26753 0.0
C3805 C 0.54193 0.80756 0.27206 0.0
C3806 C 0.5329 0.76974 0.28796 0.0
C3807 C 0.52252 0.80698 0.25738 0.0
C3808 C 0.55413 0.72662 0.2163 0.0
C3809 C 0.5486 0.72235 0.22807 0.0
C3810 C 0.5369 0.72738 0.23252 0.0
C3811 C 0.53059 0.7369 0.22509 0.0
C3812 C 0.536 0.74107 0.21315 0.0
C3813 C 0.54763 0.73577 0.20886 0.0
C3814 C 0.53119 0.7224 0.24511 0.0
C3815 C 0.52949 0.75117 0.20497 0.0
C3816 C 0.43234 0.73484 0.2045 0.0
C3817 C 0.44019 0.72338 0.19956 0.0
C3818 C 0.45962 0.72407 0.21349 0.0
C3819 C 0.46574 0.71803 0.22389 0.0
C3820 C 0.47723 0.72319 0.22922 0.0
C3821 C 0.48274 0.73471 0.22395 0.0
C3822 C 0.47675 0.74078 0.21329 0.0
C3823 C 0.46526 0.73542 0.20815 0.0
C3824 C 0.48341 0.71645 0.24056 0.0
C3825 C 0.48245 0.75303 0.2074 0.0
C3826 C 0.49278 0.77811 0.2693 0.0
C3827 C 0.50428 0.78415 0.27344 0.0
C3828 C 0.51621 0.78115 0.26794 0.0
C3829 C 0.5168 0.77163 0.25822 0.0
C3830 C 0.52868 0.76808 0.25274 0.0
C3831 C 0.52917 0.75844 0.24344 0.0
C3832 C 0.51779 0.75217 0.23905 0.0
C3833 C 0.51819 0.74222 0.22975 0.0
C3834 C 0.50663 0.73667 0.22511 0.0
C3835 C 0.49462 0.74059 0.22972 0.0
C3836 C 0.49404 0.75007 0.23948 0.0
C3837 C 0.48214 0.75384 0.24471 0.0
C3838 C 0.48169 0.76304 0.25445 0.0
C3839 C 0.49312 0.76891 0.25924 0.0
C3840 C 0.5052 0.76551 0.25385 0.0
C3841 C 0.50568 0.75593 0.2441 0.0
C3842 C 0.58412 0.72975 0.22225 0.0
C3843 C 0.57591 0.71765 0.21878 0.0
O3844 O 0.4465 0.79044 0.29532 0.0
O3845 O 0.44834 0.71865 0.20905 0.0
O3846 O 0.56545 0.72199 0.21162 0.0
O3847 O 0.56069 0.80888 0.28521 0.0
H3848 H 0.45366 0.80404 0.30777 0.0
H3849 H 0.45998 0.7851 0.31819 0.0
H3850 H 0.44413 0.77765 0.31775 0.0
H3851 H 0.4473 0.79149 0.3279 0.0
H3852 H 0.45742 0.80447 0.27717 0.0
H3853 H 0.45995 0.76967 0.29952 0.0
H3854 H 0.48819 0.80638 0.26549 0.0
H3855 H 0.47195 0.8095 0.26004 0.0
H3856 H 0.48089 0.79628 0.25338 0.0
H3857 H 0.478 0.75613 0.29844 0.0
H3858 H 0.49279 0.76299 0.2917 0.0
H3859 H 0.48189 0.75384 0.28162 0.0
H3860 H 0.57325 0.794 0.28373 0.0
H3861 H 0.59046 0.80602 0.27278 0.0
H3862 H 0.58093 0.82037 0.27247 0.0
H3863 H 0.57532 0.80617 0.26416 0.0
H3864 H 0.55327 0.78566 0.29361 0.0
H3865 H 0.5443 0.81715 0.26836 0.0
H3866 H 0.5228 0.76946 0.29169 0.0
H3867 H 0.53959 0.76728 0.29599 0.0
H3868 H 0.53357 0.76221 0.28041 0.0
H3869 H 0.52681 0.81621 0.25364 0.0
H3870 H 0.51288 0.80894 0.2616 0.0
H3871 H 0.52098 0.80027 0.24915 0.0
H3872 H 0.57263 0.71272 0.22777 0.0
H3873 H 0.5531 0.71489 0.23374 0.0
H3874 H 0.55185 0.7389 0.19972 0.0
H3875 H 0.53087 0.73039 0.25219 0.0
H3876 H 0.53687 0.71443 0.24937 0.0
H3877 H 0.52108 0.71886 0.24353 0.0
H3878 H 0.53535 0.75399 0.19634 0.0
H3879 H 0.52777 0.75991 0.21084 0.0
H3880 H 0.5199 0.74738 0.20168 0.0
H3881 H 0.446 0.72747 0.19143 0.0
H3882 H 0.42509 0.73769 0.19712 0.0
H3883 H 0.43883 0.74333 0.20623 0.0
H3884 H 0.42724 0.73265 0.21371 0.0
H3885 H 0.46137 0.70927 0.22793 0.0
H3886 H 0.46082 0.74024 0.20004 0.0
H3887 H 0.48399 0.72311 0.24893 0.0
H3888 H 0.49347 0.71383 0.23803 0.0
H3889 H 0.47794 0.70755 0.24353 0.0
H3890 H 0.47687 0.75638 0.19886 0.0
H3891 H 0.49262 0.75146 0.20438 0.0
H3892 H 0.48262 0.76081 0.21475 0.0
H3893 H 0.50395 0.79127 0.28109 0.0
H3894 H 0.53775 0.77261 0.2557 0.0
H3895 H 0.53859 0.756 0.23968 0.0
H3896 H 0.50699 0.72917 0.21785 0.0
H3897 H 0.47303 0.74963 0.24143 0.0
H3898 H 0.47226 0.76551 0.25817 0.0
H3899 H 0.59217 0.72766 0.22896 0.0
H3900 H 0.57796 0.73691 0.22712 0.0
H3901 H 0.58821 0.73431 0.21333 0.0
C3902 C 0.57261 0.22871 0.30936 0.0
C3903 C 0.56625 0.21519 0.30778 0.0
C3904 C 0.54887 0.2186 0.29165 0.0
C3905 C 0.54487 0.21552 0.27911 0.0
C3906 C 0.53325 0.22014 0.27399 0.0
C3907 C 0.52557 0.22839 0.28153 0.0
C3908 C 0.52949 0.2315 0.29429 0.0
C3909 C 0.54101 0.22645 0.29929 0.0
C3910 C 0.52922 0.21619 0.26052 0.0
C3911 C 0.52153 0.24021 0.30266 0.0
C3912 C 0.42422 0.21913 0.28207 0.0
C3913 C 0.4311 0.21684 0.2951 0.0
C3914 C 0.45382 0.21521 0.2887 0.0
C3915 C 0.45918 0.22623 0.2947 0.0
C3916 C 0.47102 0.23169 0.29045 0.0
C3917 C 0.47766 0.22598 0.28006 0.0
C3918 C 0.47255 0.21457 0.27435 0.0
C3919 C 0.46072 0.20927 0.27884 0.0
C3920 C 0.47641 0.24364 0.29702 0.0
C3921 C 0.47948 0.20815 0.26336 0.0
C3922 C 0.4547 0.28507 0.219 0.0
C3923 C 0.45976 0.29127 0.23005 0.0
C3924 C 0.47116 0.28697 0.23596 0.0
C3925 C 0.47769 0.27634 0.23071 0.0
C3926 C 0.47271 0.27017 0.21954 0.0
C3927 C 0.46127 0.27462 0.21386 0.0
C3928 C 0.47624 0.29377 0.24786 0.0
C3929 C 0.47946 0.25886 0.21364 0.0
C3930 C 0.57961 0.29606 0.23246 0.0
C3931 C 0.57224 0.29088 0.22059 0.0
C3932 C 0.54898 0.29121 0.22445 0.0
C3933 C 0.54097 0.29791 0.23283 0.0
C3934 C 0.52933 0.29228 0.23743 0.0
C3935 C 0.52549 0.27979 0.2332 0.0
C3936 C 0.53329 0.27323 0.22421 0.0
C3937 C 0.54501 0.27898 0.22 0.0
C3938 C 0.52122 0.29962 0.24691 0.0
C3939 C 0.52927 0.26014 0.21904 0.0
C3940 C 0.51339 0.23365 0.27609 0.0
C3941 C 0.50161 0.22794 0.28004 0.0
C3942 C 0.48982 0.23211 0.27502 0.0
C3943 C 0.48971 0.24206 0.26556 0.0
C3944 C 0.47805 0.24625 0.26006 0.0
C3945 C 0.47804 0.25598 0.2507 0.0
C3946 C 0.48969 0.26193 0.24647 0.0
C3947 C 0.48979 0.27174 0.23685 0.0
C3948 C 0.50157 0.27735 0.2328 0.0
C3949 C 0.51334 0.27356 0.23819 0.0
C3950 C 0.51341 0.26389 0.24795 0.0
C3951 C 0.52502 0.26003 0.25381 0.0
C3952 C 0.52503 0.25023 0.26311 0.0
C3953 C 0.51344 0.2439 0.26694 0.0
C3954 C 0.50157 0.24797 0.26151 0.0
C3955 C 0.50155 0.25794 0.25198 0.0
C3956 C 0.42672 0.29404 0.22822 0.0
C3957 C 0.43512 0.29826 0.21653 0.0
O3958 O 0.56035 0.21383 0.29579 0.0
O3959 O 0.56035 0.29688 0.22056 0.0
O3960 O 0.4436 0.28871 0.21297 0.0
O3961 O 0.44215 0.20997 0.29229 0.0
H3962 H 0.55886 0.21458 0.31557 0.0
H3963 H 0.5651 0.23614 0.31031 0.0
H3964 H 0.57879 0.23161 0.30103 0.0
H3965 H 0.57858 0.229 0.31831 0.0
H3966 H 0.55092 0.20939 0.27331 0.0
H3967 H 0.54378 0.22878 0.3091 0.0
H3968 H 0.51884 0.21315 0.26036 0.0
H3969 H 0.5351 0.20816 0.2568 0.0
H3970 H 0.53046 0.22456 0.25383 0.0
H3971 H 0.52666 0.243 0.3117 0.0
H3972 H 0.5123 0.23514 0.30532 0.0
H3973 H 0.51905 0.24911 0.29722 0.0
H3974 H 0.43369 0.22631 0.29942 0.0
H3975 H 0.41583 0.22554 0.28292 0.0
H3976 H 0.42083 0.20977 0.27792 0.0
H3977 H 0.43106 0.22384 0.2751 0.0
H3978 H 0.45427 0.23051 0.3028 0.0
H3979 H 0.45663 0.20063 0.27444 0.0
H3980 H 0.4864 0.24189 0.30049 0.0
H3981 H 0.47038 0.24658 0.30535 0.0
H3982 H 0.47697 0.25175 0.28994 0.0
H3983 H 0.4742 0.19935 0.25992 0.0
H3984 H 0.48934 0.20542 0.26653 0.0
H3985 H 0.48064 0.21504 0.25514 0.0
H3986 H 0.44067 0.30683 0.22003 0.0
H3987 H 0.45492 0.29942 0.23416 0.0
H3988 H 0.45734 0.26991 0.20534 0.0
H3989 H 0.47701 0.28674 0.25598 0.0
H3990 H 0.46994 0.30176 0.25092 0.0
H3991 H 0.48613 0.29779 0.24592 0.0
H3992 H 0.47444 0.25521 0.20484 0.0
H3993 H 0.47996 0.25087 0.22084 0.0
H3994 H 0.48957 0.26173 0.21104 0.0
H3995 H 0.57077 0.28029 0.22183 0.0
H3996 H 0.589 0.2913 0.23395 0.0
H3997 H 0.57371 0.29433 0.24132 0.0
H3998 H 0.58146 0.30664 0.23141 0.0
H3999 H 0.54403 0.30745 0.23602 0.0
H4000 H 0.55099 0.27402 0.21309 0.0
H4001 H 0.51892 0.29347 0.2555 0.0
H4002 H 0.51191 0.30216 0.24228 0.0
H4003 H 0.52617 0.30866 0.2502 0.0
H4004 H 0.53546 0.25714 0.21085 0.0
H4005 H 0.51902 0.26021 0.21576 0.0
H4006 H 0.52997 0.2528 0.22688 0.0
H4007 H 0.50161 0.22015 0.28712 0.0
H4008 H 0.46878 0.24199 0.26289 0.0
H4009 H 0.46877 0.25877 0.24678 0.0
H4010 H 0.50159 0.28476 0.22531 0.0
H4011 H 0.53425 0.2645 0.25122 0.0
H4012 H 0.53427 0.24764 0.26723 0.0
H4013 H 0.41948 0.30153 0.23031 0.0
H4014 H 0.43283 0.29294 0.23698 0.0
H4015 H 0.42153 0.28471 0.22672 0.0
C4016 C 0.1921 0.18943 0.0873 0.0
C4017 C 0.19194 0.19287 0.10056 0.0
C4018 C 0.20004 0.21461 0.09487 0.0
C4019 C 0.20259 0.21034 0.08209 0.0
N4020 N 0.19305 0.19726 0.0652 0.0
N4021 N 0.19594 0.20868 0.11723 0.0
C4022 C 0.19635 0.19871 0.07792 0.0
C4023 C 0.19578 0.20552 0.1044 0.0
N4024 N 0.18839 0.17723 0.08367 0.0
N4025 N 0.20077 0.22749 0.09762 0.0
H4026 H 0.19276 0.20237 0.12454 0.0
H4027 H 0.20016 0.21721 0.12071 0.0
H4028 H 0.20283 0.2345 0.09058 0.0
H4029 H 0.19783 0.23133 0.10641 0.0
H4030 H 0.1898 0.1737 0.07437 0.0
H4031 H 0.18468 0.17034 0.09019 0.0
H4032 H 0.18767 0.1894 0.06172 0.0
H4033 H 0.19382 0.20488 0.05857 0.0
C4034 C 0.79239 0.20281 0.10675 0.0
C4035 C 0.80237 0.19463 0.10255 0.0
C4036 C 0.79894 0.20168 0.08017 0.0
C4037 C 0.79083 0.21164 0.08466 0.0
N4038 N 0.77475 0.21667 0.10073 0.0
N4039 N 0.81565 0.18645 0.0854 0.0
C4040 C 0.78599 0.2107 0.09755 0.0
C4041 C 0.80576 0.19407 0.08929 0.0
N4042 N 0.78941 0.20345 0.11963 0.0
N4043 N 0.79884 0.19836 0.06741 0.0
H4044 H 0.82065 0.18046 0.09174 0.0
H4045 H 0.81953 0.18686 0.07609 0.0
H4046 H 0.79195 0.20185 0.06099 0.0
H4047 H 0.80389 0.1906 0.06374 0.0
H4048 H 0.78346 0.21042 0.12353 0.0
H4049 H 0.7936 0.19755 0.12663 0.0
H4050 H 0.77001 0.21533 0.10954 0.0
H4051 H 0.76933 0.22183 0.09403 0.0
C4052 C 0.81904 0.80848 0.0991 0.0
C4053 C 0.81477 0.8212 0.10137 0.0
C4054 C 0.80128 0.81984 0.08196 0.0
C4055 C 0.80792 0.80867 0.07796 0.0
N4056 N 0.82198 0.79111 0.0839 0.0
N4057 N 0.80266 0.83961 0.09418 0.0
C4058 C 0.81639 0.80253 0.08694 0.0
C4059 C 0.80607 0.82704 0.09262 0.0
N4060 N 0.82526 0.80195 0.10874 0.0
N4061 N 0.78998 0.82321 0.07609 0.0
H4062 H 0.80608 0.84535 0.10175 0.0
H4063 H 0.79739 0.84465 0.08726 0.0
H4064 H 0.78525 0.81729 0.06938 0.0
H4065 H 0.78434 0.83077 0.0793 0.0
H4066 H 0.82743 0.7922 0.10829 0.0
H4067 H 0.82725 0.806 0.11777 0.0
H4068 H 0.82968 0.78727 0.08905 0.0
H4069 H 0.81923 0.78553 0.07599 0.0
C4070 C 0.20039 0.81762 0.08646 0.0
C4071 C 0.20127 0.81466 0.09985 0.0
C4072 C 0.21201 0.79446 0.09474 0.0
C4073 C 0.21336 0.79867 0.08167 0.0
N4074 N 0.20138 0.80922 0.06473 0.0
N4075 N 0.20787 0.80029 0.117 0.0
C4076 C 0.20541 0.80885 0.0773 0.0
C4077 C 0.20688 0.80297 0.10406 0.0
N4078 N 0.19499 0.8289 0.08249 0.0
N4079 N 0.2148 0.78202 0.09804 0.0
H4080 H 0.20402 0.80615 0.12415 0.0
H4081 H 0.21332 0.79276 0.1207 0.0
H4082 H 0.21764 0.77526 0.09123 0.0
H4083 H 0.21285 0.77799 0.10711 0.0
H4084 H 0.19551 0.83228 0.07297 0.0
H4085 H 0.19074 0.83532 0.08887 0.0
H4086 H 0.19484 0.81589 0.06118 0.0
H4087 H 0.20286 0.80157 0.05842 0.0
C4088 C 0.19741 0.82584 0.9211 0.0
C4089 C 0.19361 0.81986 0.90935 0.0
C4090 C 0.19787 0.79853 0.91876 0.0
C4091 C 0.19994 0.80443 0.93102 0.0
N4092 N 0.2083 0.82354 0.94169 0.0
N4093 N 0.19012 0.80064 0.89667 0.0
C4094 C 0.20168 0.81807 0.93158 0.0
C4095 C 0.19393 0.80624 0.90805 0.0
N4096 N 0.19638 0.83891 0.92245 0.0
N4097 N 0.20059 0.78579 0.91711 0.0
H4098 H 0.18792 0.80597 0.88838 0.0
H4099 H 0.18838 0.79076 0.89562 0.0
H4100 H 0.20458 0.7801 0.92437 0.0
H4101 H 0.20042 0.78118 0.9082 0.0
H4102 H 0.19747 0.84361 0.93128 0.0
H4103 H 0.19341 0.84498 0.91497 0.0
H4104 H 0.21085 0.83331 0.94209 0.0
H4105 H 0.21287 0.81807 0.94879 0.0
C4106 C 0.20637 0.19765 0.90183 0.0
C4107 C 0.19351 0.19426 0.9056 0.0
C4108 C 0.19931 0.19802 0.92831 0.0
C4109 C 0.21127 0.20381 0.92423 0.0
N4110 N 0.22852 0.20142 0.90872 0.0
N4111 N 0.17753 0.19107 0.92242 0.0
C4112 C 0.21556 0.2013 0.91143 0.0
C4113 C 0.18993 0.19434 0.91886 0.0
N4114 N 0.20967 0.19797 0.88901 0.0
N4115 N 0.19757 0.19457 0.94098 0.0
H4116 H 0.17055 0.18774 0.91586 0.0
H4117 H 0.17395 0.19247 0.93173 0.0
H4118 H 0.20516 0.19488 0.94765 0.0
H4119 H 0.18943 0.18949 0.9444 0.0
H4120 H 0.21842 0.20189 0.88561 0.0
H4121 H 0.20327 0.19527 0.88164 0.0
H4122 H 0.2323 0.19847 0.89991 0.0
H4123 H 0.23556 0.20295 0.91582 0.0
C4124 C 0.80878 0.19066 0.91719 0.0
C4125 C 0.81741 0.19876 0.90995 0.0
C4126 C 0.81251 0.21674 0.92419 0.0
C4127 C 0.80162 0.20971 0.92924 0.0
N4128 N 0.79046 0.18893 0.93175 0.0
N4129 N 0.8266 0.22005 0.90576 0.0
C4130 C 0.80013 0.1963 0.92619 0.0
C4131 C 0.81908 0.21194 0.91326 0.0
N4132 N 0.80915 0.17756 0.91572 0.0
N4133 N 0.81706 0.22762 0.93022 0.0
H4134 H 0.83146 0.21702 0.89752 0.0
H4135 H 0.82699 0.23003 0.90708 0.0
H4136 H 0.8136 0.23055 0.93919 0.0
H4137 H 0.82552 0.23254 0.92736 0.0
H4138 H 0.80414 0.17099 0.92166 0.0
H4139 H 0.81545 0.17314 0.9093 0.0
H4140 H 0.78768 0.17981 0.92843 0.0
H4141 H 0.78485 0.19199 0.93945 0.0
C4142 C 0.79902 0.81992 0.91155 0.0
C4143 C 0.8125 0.81968 0.9088 0.0
C4144 C 0.81604 0.80679 0.92841 0.0
C4145 C 0.80313 0.80911 0.93241 0.0
N4146 N 0.78117 0.81269 0.92526 0.0
N4147 N 0.83409 0.81351 0.9148 0.0
C4148 C 0.79422 0.81414 0.92321 0.0
C4149 C 0.82106 0.81314 0.91719 0.0
N4150 N 0.7909 0.82608 0.90318 0.0
N4151 N 0.8232 0.79782 0.9348 0.0
H4152 H 0.83818 0.81795 0.90662 0.0
H4153 H 0.84094 0.81031 0.92142 0.0
H4154 H 0.81932 0.79186 0.94207 0.0
H4155 H 0.8323 0.79496 0.93171 0.0
H4156 H 0.78136 0.82828 0.90533 0.0
H4157 H 0.79389 0.8296 0.89414 0.0
H4158 H 0.77415 0.815 0.91846 0.0
H4159 H 0.77721 0.80791 0.93327 0.0
C4160 C 0.08496 0.18799 0.18923 0.0
C4161 C 0.09582 0.1959 0.18575 0.0
C4162 C 0.08643 0.2142 0.197 0.0
C4163 C 0.07634 0.20588 0.20191 0.0
N4164 N 0.06281 0.18723 0.19701 0.0
N4165 N 0.10644 0.21694 0.18525 0.0
C4166 C 0.07463 0.19343 0.19634 0.0
C4167 C 0.09633 0.20911 0.18922 0.0
N4168 N 0.08462 0.17521 0.18597 0.0
N4169 N 0.0867 0.22716 0.19915 0.0
H4170 H 0.11406 0.21371 0.17959 0.0
H4171 H 0.10721 0.22668 0.18776 0.0
H4172 H 0.0794 0.23212 0.20383 0.0
H4173 H 0.0794 0.23212 0.20383 0.0
H4174 H 0.07776 0.1686 0.18961 0.0
H4175 H 0.09173 0.17102 0.1803 0.0
H4176 H 0.06066 0.17859 0.1923 0.0
H4177 H 0.05461 0.19162 0.2007 0.0
C4178 C 0.82234 0.09668 0.20825 0.0
C4179 C 0.81903 0.10142 0.1958 0.0
C4180 C 0.80179 0.08476 0.19405 0.0
C4181 C 0.80406 0.08119 0.2072 0.0
N4182 N 0.82064 0.0789 0.22348 0.0
N4183 N 0.80617 0.0999 0.1764 0.0
C4184 C 0.81561 0.08568 0.21333 0.0
C4185 C 0.80902 0.09531 0.18849 0.0
N4186 N 0.83145 0.10308 0.21555 0.0
N4187 N 0.79337 0.07757 0.18668 0.0
H4188 H 0.8118 0.10702 0.17171 0.0
H4189 H 0.79795 0.09717 0.17118 0.0
H4190 H 0.78851 0.06932 0.1901 0.0
H4191 H 0.79211 0.07889 0.17677 0.0
H4192 H 0.83306 0.10099 0.22529 0.0
H4193 H 0.83667 0.11118 0.21222 0.0
H4194 H 0.8296 0.08113 0.22765 0.0
H4195 H 0.81682 0.06997 0.22647 0.0
C4196 C 0.92236 0.81968 0.19356 0.0
C4197 C 0.91161 0.81171 0.19002 0.0
C4198 C 0.92161 0.79311 0.20046 0.0
C4199 C 0.93167 0.80138 0.20538 0.0
N4200 N 0.94468 0.82055 0.20079 0.0
N4201 N 0.90139 0.7905 0.1891 0.0
C4202 C 0.93297 0.81413 0.20022 0.0
C4203 C 0.91143 0.79835 0.19309 0.0
N4204 N 0.92233 0.83261 0.19078 0.0
N4205 N 0.92161 0.78006 0.20219 0.0
H4206 H 0.89356 0.79384 0.18373 0.0
H4207 H 0.90086 0.78065 0.1913 0.0
H4208 H 0.92911 0.77501 0.20652 0.0
H4209 H 0.92911 0.77501 0.20652 0.0
H4210 H 0.92912 0.83918 0.19451 0.0
H4211 H 0.91499 0.83692 0.18546 0.0
H4212 H 0.94651 0.82946 0.19634 0.0
H4213 H 0.95308 0.81617 0.20407 0.0
C4214 C 0.19756 0.91612 0.18589 0.0
C4215 C 0.18982 0.90787 0.19389 0.0
C4216 C 0.19551 0.92116 0.21257 0.0
C4217 C 0.20563 0.92739 0.20536 0.0
N4218 N 0.21534 0.93166 0.18426 0.0
N4219 N 0.18256 0.90164 0.21532 0.0
C4220 C 0.20631 0.92522 0.19171 0.0
C4221 C 0.18907 0.91016 0.20736 0.0
N4222 N 0.19625 0.91551 0.17274 0.0
N4223 N 0.1915 0.92612 0.22407 0.0
H4224 H 0.17784 0.8933 0.21197 0.0
H4225 H 0.18291 0.90226 0.22538 0.0
H4226 H 0.19471 0.93509 0.22743 0.0
H4227 H 0.18355 0.92235 0.22918 0.0
H4228 H 0.20053 0.92218 0.16637 0.0
H4229 H 0.18988 0.90903 0.1682 0.0
H4230 H 0.21756 0.92901 0.17483 0.0
H4231 H 0.22103 0.93937 0.18753 0.0
C4232 C 0.10007 0.8015 0.81032 0.0
C4233 C 0.10119 0.81469 0.81371 0.0
C4234 C 0.08398 0.81988 0.79827 0.0
C4235 C 0.08262 0.80647 0.79506 0.0
N4236 N 0.0856 0.78457 0.80296 0.0
N4237 N 0.09177 0.83575 0.81379 0.0
C4238 C 0.08949 0.79727 0.80258 0.0
C4239 C 0.09237 0.82367 0.80858 0.0
N4240 N 0.1093 0.79301 0.81412 0.0
N4241 N 0.07764 0.82913 0.79138 0.0
H4242 H 0.09772 0.83881 0.8214 0.0
H4243 H 0.08456 0.84226 0.81149 0.0
H4244 H 0.07066 0.82719 0.78437 0.0
H4245 H 0.07986 0.83896 0.79213 0.0
H4246 H 0.10959 0.78358 0.81069 0.0
H4247 H 0.11734 0.79571 0.81968 0.0
H4248 H 0.08985 0.7778 0.80905 0.0
H4249 H 0.07697 0.78117 0.7989 0.0
C4250 C 0.19156 0.10066 0.80408 0.0
C4251 C 0.19173 0.09986 0.8178 0.0
C4252 C 0.20067 0.07816 0.81665 0.0
C4253 C 0.19853 0.07811 0.80305 0.0
N4254 N 0.19785 0.09128 0.78366 0.0
N4255 N 0.19552 0.08762 0.83733 0.0
C4256 C 0.19569 0.08996 0.79666 0.0
C4257 C 0.19615 0.08859 0.82414 0.0
N4258 N 0.18711 0.11155 0.79814 0.0
N4259 N 0.20789 0.06873 0.82227 0.0
H4260 H 0.19237 0.09508 0.8432 0.0
H4261 H 0.19709 0.07906 0.84239 0.0
H4262 H 0.21265 0.06179 0.8169 0.0
H4263 H 0.21071 0.06885 0.83194 0.0
H4264 H 0.18501 0.11215 0.78831 0.0
H4265 H 0.18473 0.11986 0.80319 0.0
H4266 H 0.19713 0.09997 0.77862 0.0
H4267 H 0.20186 0.08408 0.77807 0.0
C4268 C 0.89951 0.19858 0.79972 0.0
C4269 C 0.90318 0.1907 0.81029 0.0
C4270 C 0.92576 0.19793 0.80737 0.0
C4271 C 0.9217 0.20786 0.79876 0.0
N4272 N 0.90491 0.2141 0.78343 0.0
N4273 N 0.91974 0.18321 0.82478 0.0
C4274 C 0.90875 0.20708 0.79389 0.0
C4275 C 0.91629 0.19046 0.81429 0.0
N4276 N 0.88706 0.19813 0.79519 0.0
N4277 N 0.93843 0.19447 0.80773 0.0
H4278 H 0.91313 0.17737 0.82993 0.0
H4279 H 0.92893 0.18382 0.82895 0.0
H4280 H 0.9451 0.19766 0.80077 0.0
H4281 H 0.94175 0.18675 0.81325 0.0
H4282 H 0.88396 0.20391 0.78751 0.0
H4283 H 0.87986 0.192 0.79906 0.0
H4284 H 0.91103 0.22008 0.77788 0.0
H4285 H 0.91103 0.22008 0.77788 0.0
C4286 C 0.82692 0.91904 0.80849 0.0
C4287 C 0.82023 0.90706 0.81014 0.0
C4288 C 0.80007 0.91704 0.80304 0.0
C4289 C 0.80623 0.92945 0.80375 0.0
N4290 N 0.82698 0.94122 0.80242 0.0
N4291 N 0.80033 0.89443 0.80932 0.0
C4292 C 0.82 0.93018 0.80499 0.0
C4293 C 0.80678 0.90598 0.80744 0.0
N4294 N 0.84002 0.91996 0.81041 0.0
N4295 N 0.78823 0.91569 0.79722 0.0
H4296 H 0.80499 0.88599 0.81204 0.0
H4297 H 0.79027 0.89343 0.80907 0.0
H4298 H 0.7838 0.9233 0.79239 0.0
H4299 H 0.78369 0.90679 0.79551 0.0
H4300 H 0.84526 0.92866 0.80942 0.0
H4301 H 0.8456 0.9121 0.81309 0.0
H4302 H 0.82307 0.94969 0.79876 0.0
H4303 H 0.82307 0.94969 0.79876 0.0
C4304 C 0.19066 0.09065 0.18981 0.0
C4305 C 0.18278 0.09835 0.19774 0.0
C4306 C 0.18877 0.08554 0.21676 0.0
C4307 C 0.19777 0.07868 0.20907 0.0
N4308 N 0.20163 0.07038 0.18765 0.0
N4309 N 0.17284 0.10207 0.2185 0.0
C4310 C 0.19704 0.07992 0.19536 0.0
C4311 C 0.18133 0.0954 0.21108 0.0
N4312 N 0.19243 0.09383 0.17706 0.0
N4313 N 0.18666 0.08269 0.22948 0.0
H4314 H 0.16693 0.10925 0.21476 0.0
H4315 H 0.17162 0.10029 0.22839 0.0
H4316 H 0.19085 0.07506 0.23447 0.0
H4317 H 0.19085 0.07506 0.23447 0.0
H4318 H 0.1993 0.0895 0.17122 0.0
H4319 H 0.18776 0.1015 0.17258 0.0
H4320 H 0.20047 0.07031 0.17763 0.0
H4321 H 0.20485 0.06162 0.19136 0.0
C4322 C 0.20052 0.9092 0.80441 0.0
C4323 C 0.19139 0.91099 0.81446 0.0
C4324 C 0.19776 0.93391 0.8157 0.0
C4325 C 0.20812 0.93169 0.80696 0.0
N4326 N 0.21456 0.91926 0.78838 0.0
N4327 N 0.1814 0.9247 0.83014 0.0
C4328 C 0.20813 0.91992 0.79992 0.0
C4329 C 0.18996 0.92328 0.82018 0.0
N4330 N 0.20227 0.89714 0.79949 0.0
N4331 N 0.19467 0.94627 0.81883 0.0
H4332 H 0.17518 0.91726 0.83334 0.0
H4333 H 0.18106 0.93296 0.83582 0.0
H4334 H 0.19908 0.95436 0.81447 0.0
H4335 H 0.1866 0.94861 0.82431 0.0
H4336 H 0.20992 0.89491 0.79339 0.0
H4337 H 0.19669 0.88907 0.8023 0.0
H4338 H 0.21387 0.91135 0.78224 0.0
H4339 H 0.21923 0.9272 0.78408 0.0
C4340 C 0.08581 0.19008 0.81404 0.0
C4341 C 0.09912 0.19375 0.81353 0.0
C4342 C 0.09349 0.21454 0.80392 0.0
C4343 C 0.08037 0.21014 0.80264 0.0
N4344 N 0.06388 0.19775 0.81417 0.0
N4345 N 0.11563 0.21018 0.80937 0.0
C4346 C 0.07637 0.19901 0.80989 0.0
C4347 C 0.10291 0.20622 0.80903 0.0
N4348 N 0.08216 0.17804 0.81837 0.0
N4349 N 0.0973 0.22682 0.80066 0.0
H4350 H 0.12301 0.20443 0.81294 0.0
H4351 H 0.11878 0.21924 0.80595 0.0
H4352 H 0.091 0.23398 0.79765 0.0
H4353 H 0.091 0.23398 0.79765 0.0
H4354 H 0.07272 0.17436 0.81754 0.0
H4355 H 0.08875 0.17142 0.82199 0.0
H4356 H 0.06065 0.19026 0.82022 0.0
H4357 H 0.05741 0.20532 0.81352 0.0
C4358 C 0.79314 0.09915 0.82155 0.0
C4359 C 0.8062 0.09826 0.82572 0.0
C4360 C 0.80688 0.07608 0.81766 0.0
C4361 C 0.79325 0.07617 0.81579 0.0
N4362 N 0.7751 0.08932 0.80992 0.0
N4363 N 0.8257 0.08604 0.8279 0.0
C4364 C 0.78685 0.0882 0.81588 0.0
C4365 C 0.8132 0.08683 0.82363 0.0
N4366 N 0.78661 0.11033 0.8235 0.0
N4367 N 0.81387 0.06608 0.81297 0.0
H4368 H 0.83075 0.09382 0.83204 0.0
H4369 H 0.83077 0.07746 0.82814 0.0
H4370 H 0.80969 0.05877 0.80733 0.0
H4371 H 0.82395 0.0659 0.8131 0.0
H4372 H 0.77664 0.11111 0.82238 0.0
H4373 H 0.79109 0.11877 0.82692 0.0
H4374 H 0.77043 0.09804 0.80863 0.0
H4375 H 0.77062 0.08178 0.8049 0.0
C4376 C 0.90755 0.80736 0.80301 0.0
C4377 C 0.90837 0.8099 0.81646 0.0
C4378 C 0.93138 0.80463 0.81632 0.0
C4379 C 0.93099 0.80361 0.80256 0.0
N4380 N 0.91749 0.79741 0.78446 0.0
N4381 N 0.92078 0.80985 0.83629 0.0
C4382 C 0.91869 0.80303 0.79634 0.0
C4383 C 0.92015 0.80809 0.8232 0.0
N4384 N 0.89621 0.80934 0.79655 0.0
N4385 N 0.94217 0.80192 0.82332 0.0
H4386 H 0.91284 0.81252 0.84184 0.0
H4387 H 0.92933 0.80876 0.84155 0.0
H4388 H 0.95065 0.79828 0.81943 0.0
H4389 H 0.95065 0.79828 0.81943 0.0
H4390 H 0.89546 0.80922 0.78649 0.0
H4391 H 0.8877 0.81199 0.80119 0.0
H4392 H 0.90863 0.7958 0.77986 0.0
H4393 H 0.92509 0.79266 0.78003 0.0
C4394 C 0.82082 0.90909 0.21537 0.0
C4395 C 0.82346 0.90863 0.20193 0.0
C4396 C 0.81307 0.92952 0.19896 0.0
C4397 C 0.80831 0.92876 0.21188 0.0
N4398 N 0.81229 0.92004 0.23349 0.0
N4399 N 0.82207 0.91824 0.18067 0.0
C4400 C 0.81356 0.91933 0.22041 0.0
C4401 C 0.81964 0.91885 0.19365 0.0
N4402 N 0.8251 0.89961 0.22349 0.0
N4403 N 0.81221 0.94083 0.19213 0.0
H4404 H 0.82734 0.91086 0.1765 0.0
H4405 H 0.81812 0.92457 0.17393 0.0
H4406 H 0.80896 0.94932 0.19628 0.0
H4407 H 0.81639 0.94233 0.18305 0.0
H4408 H 0.8232 0.89955 0.23341 0.0
H4409 H 0.83038 0.89177 0.22031 0.0
H4410 H 0.8081 0.9277 0.23833 0.0
H4411 H 0.8081 0.9277 0.23833 0.0
C4412 C 0.08945 0.80728 0.17798 0.0
C4413 C 0.1013 0.81053 0.18424 0.0
C4414 C 0.09234 0.80294 0.20493 0.0
C4415 C 0.08133 0.79772 0.19831 0.0
N4416 N 0.06675 0.80119 0.18046 0.0
N4417 N 0.11356 0.81299 0.20404 0.0
C4418 C 0.07904 0.80181 0.18537 0.0
C4419 C 0.10252 0.80897 0.19781 0.0
N4420 N 0.08827 0.80907 0.16491 0.0
N4421 N 0.09329 0.80265 0.21806 0.0
H4422 H 0.1214 0.81742 0.19927 0.0
H4423 H 0.11485 0.81178 0.214 0.0
H4424 H 0.08589 0.79936 0.22421 0.0
H4425 H 0.08589 0.79936 0.22421 0.0
H4426 H 0.08052 0.8054 0.15953 0.0
H4427 H 0.09545 0.81366 0.1593 0.0
H4428 H 0.06424 0.80491 0.17144 0.0
H4429 H 0.05874 0.79854 0.18614 0.0
C4430 C 0.90778 0.21362 0.18859 0.0
C4431 C 0.90496 0.20025 0.18723 0.0
C4432 C 0.92199 0.19526 0.20294 0.0
C4433 C 0.92474 0.20878 0.20438 0.0
N4434 N 0.9244 0.22955 0.19341 0.0
N4435 N 0.91186 0.17835 0.18998 0.0
C4436 C 0.91893 0.2176 0.19562 0.0
C4437 C 0.91285 0.19106 0.19344 0.0
N4438 N 0.89962 0.22258 0.18357 0.0
N4439 N 0.92783 0.18637 0.21071 0.0
H4440 H 0.90536 0.17499 0.18296 0.0
H4441 H 0.91829 0.17136 0.19308 0.0
H4442 H 0.93546 0.18854 0.21694 0.0
H4443 H 0.9247 0.17675 0.21139 0.0
H4444 H 0.90062 0.23242 0.18552 0.0
H4445 H 0.89119 0.22012 0.17851 0.0
H4446 H 0.92093 0.23592 0.18643 0.0
H4447 H 0.93349 0.23229 0.19697 0.0
C4448 C 0.19194 0.69326 0.59543 0.0
C4449 C 0.19984 0.68395 0.60144 0.0
C4450 C 0.21769 0.68984 0.58675 0.0
C4451 C 0.21013 0.69996 0.5814 0.0
N4452 N 0.18825 0.70609 0.57622 0.0
N4453 N 0.21963 0.67193 0.60158 0.0
C4454 C 0.19667 0.70013 0.5844 0.0
C4455 C 0.21246 0.68177 0.59666 0.0
N4456 N 0.18009 0.69595 0.60053 0.0
N4457 N 0.2298 0.68724 0.58239 0.0
H4458 H 0.2161 0.66546 0.6086 0.0
H4459 H 0.22902 0.67011 0.59843 0.0
H4460 H 0.23436 0.69192 0.57461 0.0
H4461 H 0.23436 0.69192 0.57461 0.0
H4462 H 0.17461 0.70372 0.59742 0.0
H4463 H 0.17622 0.69114 0.60861 0.0
H4464 H 0.17823 0.70567 0.57746 0.0
H4465 H 0.19105 0.70975 0.56718 0.0
C4466 C 0.79842 0.68428 0.59592 0.0
C4467 C 0.81214 0.68371 0.59651 0.0
C4468 C 0.81386 0.69535 0.57583 0.0
C4469 C 0.80026 0.69376 0.57408 0.0
N4470 N 0.77949 0.69238 0.58488 0.0
N4471 N 0.8331 0.68818 0.58693 0.0
C4472 C 0.79245 0.68991 0.58487 0.0
C4473 C 0.81992 0.68926 0.58652 0.0
N4474 N 0.7911 0.67904 0.60577 0.0
N4475 N 0.82083 0.70342 0.56779 0.0
H4476 H 0.83794 0.68392 0.59467 0.0
H4477 H 0.83914 0.69061 0.57917 0.0
H4478 H 0.81646 0.7092 0.5608 0.0
H4479 H 0.83058 0.7058 0.56921 0.0
H4480 H 0.78112 0.67744 0.60522 0.0
H4481 H 0.7951 0.67564 0.61438 0.0
H4482 H 0.77347 0.69093 0.59286 0.0
H4483 H 0.7749 0.69724 0.57739 0.0
C4484 C 0.81406 0.30586 0.60078 0.0
C4485 C 0.81507 0.31945 0.59894 0.0
C4486 C 0.80838 0.31698 0.5763 0.0
C4487 C 0.80948 0.30336 0.57755 0.0
N4488 N 0.80718 0.28512 0.59215 0.0
N4489 N 0.81397 0.33809 0.58488 0.0
C4490 C 0.8105 0.29783 0.59016 0.0
C4491 C 0.8123 0.32506 0.58671 0.0
N4492 N 0.81686 0.30062 0.61262 0.0
N4493 N 0.80268 0.32211 0.56555 0.0
H4494 H 0.8167 0.34438 0.59228 0.0
H4495 H 0.81367 0.34253 0.5758 0.0
H4496 H 0.79833 0.31641 0.55841 0.0
H4497 H 0.8006 0.33186 0.56455 0.0
H4498 H 0.81809 0.29078 0.61422 0.0
H4499 H 0.81874 0.30619 0.62081 0.0
H4500 H 0.80657 0.28076 0.60124 0.0
H4501 H 0.80347 0.27919 0.58488 0.0
C4502 C 0.1954 0.31785 0.58972 0.0
C4503 C 0.19636 0.31459 0.60303 0.0
C4504 C 0.20752 0.29476 0.59741 0.0
C4505 C 0.2088 0.29934 0.58445 0.0
N4506 N 0.19661 0.31004 0.56776 0.0
N4507 N 0.20328 0.29995 0.61981 0.0
C4508 C 0.20062 0.30944 0.58034 0.0
C4509 C 0.20221 0.30293 0.60695 0.0
N4510 N 0.18972 0.32909 0.58603 0.0
N4511 N 0.21057 0.28232 0.60038 0.0
H4512 H 0.19932 0.30555 0.62711 0.0
H4513 H 0.20888 0.29245 0.62331 0.0
H4514 H 0.21357 0.2758 0.5934 0.0
H4515 H 0.2087 0.27801 0.60935 0.0
H4516 H 0.19016 0.33272 0.5766 0.0
H4517 H 0.18529 0.33523 0.59257 0.0
H4518 H 0.18992 0.31665 0.56438 0.0
H4519 H 0.19828 0.30261 0.56126 0.0
C4520 C 0.19807 0.31172 0.40841 0.0
C4521 C 0.19023 0.3223 0.41161 0.0
C4522 C 0.19183 0.31665 0.43464 0.0
C4523 C 0.19816 0.30508 0.43126 0.0
N4524 N 0.21308 0.29582 0.41605 0.0
N4525 N 0.17917 0.33487 0.42752 0.0
C4526 C 0.20301 0.3038 0.41845 0.0
C4527 C 0.18706 0.32484 0.42468 0.0
N4528 N 0.20045 0.30896 0.39571 0.0
N4529 N 0.19138 0.32036 0.44731 0.0
H4530 H 0.17586 0.34132 0.42052 0.0
H4531 H 0.17517 0.3363 0.43664 0.0
H4532 H 0.19615 0.31545 0.45468 0.0
H4533 H 0.18786 0.32919 0.45033 0.0
H4534 H 0.20466 0.30042 0.39274 0.0
H4535 H 0.1973 0.3147 0.38804 0.0
H4536 H 0.21778 0.29539 0.40715 0.0
H4537 H 0.21793 0.29088 0.42333 0.0
C4538 C 0.21104 0.69798 0.40428 0.0
C4539 C 0.19846 0.69383 0.40825 0.0
C4540 C 0.20428 0.69813 0.43084 0.0
C4541 C 0.21577 0.70468 0.42656 0.0
N4542 N 0.233 0.70333 0.41088 0.0
N4543 N 0.18291 0.68971 0.4253 0.0
C4544 C 0.22009 0.70234 0.41374 0.0
C4545 C 0.19504 0.69376 0.42155 0.0
N4546 N 0.21418 0.69836 0.39143 0.0
N4547 N 0.20294 0.69469 0.44356 0.0
H4548 H 0.17607 0.68588 0.41886 0.0
H4549 H 0.17936 0.69094 0.43464 0.0
H4550 H 0.21058 0.6956 0.45012 0.0
H4551 H 0.1952 0.6891 0.44713 0.0
H4552 H 0.22264 0.70278 0.38788 0.0
H4553 H 0.20789 0.69513 0.38417 0.0
H4554 H 0.23689 0.70057 0.40205 0.0
H4555 H 0.24 0.70542 0.41788 0.0
C4556 C 0.81742 0.68989 0.41929 0.0
C4557 C 0.82159 0.69788 0.40884 0.0
C4558 C 0.81483 0.7171 0.42063 0.0
C4559 C 0.81123 0.70905 0.4314 0.0
N4560 N 0.80297 0.68785 0.43759 0.0
N4561 N 0.82067 0.71842 0.39785 0.0
C4562 C 0.81062 0.69544 0.42971 0.0
C4563 C 0.81917 0.71131 0.40898 0.0
N4564 N 0.82032 0.67707 0.41953 0.0
N4565 N 0.81429 0.73024 0.42151 0.0
H4566 H 0.82372 0.71443 0.38915 0.0
H4567 H 0.81778 0.72795 0.39686 0.0
H4568 H 0.80979 0.73496 0.42907 0.0
H4569 H 0.81866 0.73656 0.41486 0.0
H4570 H 0.81868 0.67118 0.42761 0.0
H4571 H 0.82534 0.67259 0.41211 0.0
H4572 H 0.80153 0.67797 0.43614 0.0
H4573 H 0.79657 0.69169 0.44428 0.0
C4574 C 0.80727 0.30431 0.40574 0.0
C4575 C 0.81373 0.3165 0.40678 0.0
C4576 C 0.80958 0.31649 0.43017 0.0
C4577 C 0.80113 0.30559 0.42862 0.0
N4578 N 0.79805 0.28565 0.41696 0.0
N4579 N 0.82186 0.33404 0.4199 0.0
C4580 C 0.80185 0.29836 0.41701 0.0
C4581 C 0.8153 0.32245 0.41903 0.0
N4582 N 0.80567 0.29874 0.39387 0.0
N4583 N 0.81274 0.32058 0.44234 0.0
H4584 H 0.82674 0.33832 0.41208 0.0
H4585 H 0.82195 0.33973 0.42817 0.0
H4586 H 0.80974 0.31556 0.45064 0.0
H4587 H 0.81958 0.32786 0.44424 0.0
H4588 H 0.79962 0.29073 0.39226 0.0
H4589 H 0.80975 0.30263 0.38542 0.0
H4590 H 0.7994 0.27957 0.40912 0.0
H4591 H 0.79502 0.28075 0.42531 0.0
C4592 C 0.08969 0.68668 0.68988 0.0
C4593 C 0.1005 0.69429 0.68565 0.0
C4594 C 0.09078 0.71363 0.69465 0.0
C4595 C 0.08076 0.70578 0.70037 0.0
N4596 N 0.06749 0.68651 0.6975 0.0
N4597 N 0.11088 0.71529 0.68291 0.0
C4598 C 0.07924 0.69275 0.69623 0.0
C4599 C 0.10082 0.70782 0.68761 0.0
N4600 N 0.08953 0.67361 0.68807 0.0
N4601 N 0.09086 0.72675 0.69531 0.0
H4602 H 0.11861 0.71154 0.67775 0.0
H4603 H 0.11151 0.72527 0.68431 0.0
H4604 H 0.08345 0.73211 0.69932 0.0
H4605 H 0.08345 0.73211 0.69932 0.0
H4606 H 0.08271 0.66736 0.69235 0.0
H4607 H 0.09674 0.6689 0.68298 0.0
H4608 H 0.06548 0.67737 0.69378 0.0
H4609 H 0.05921 0.69119 0.7006 0.0
C4610 C 0.83078 0.58769 0.69355 0.0
C4611 C 0.82731 0.60046 0.69674 0.0
C4612 C 0.81011 0.59197 0.71099 0.0
C4613 C 0.8152 0.57939 0.70974 0.0
N4614 N 0.82536 0.56479 0.695 0.0
N4615 N 0.81393 0.61503 0.70866 0.0
C4616 C 0.82408 0.57706 0.69955 0.0
C4617 C 0.81692 0.60268 0.70536 0.0
N4618 N 0.84076 0.58575 0.68514 0.0
N4619 N 0.79837 0.59357 0.71678 0.0
H4620 H 0.81847 0.62317 0.70454 0.0
H4621 H 0.80761 0.6172 0.71616 0.0
H4622 H 0.79254 0.58582 0.71992 0.0
H4623 H 0.79364 0.60235 0.71697 0.0
H4624 H 0.84487 0.57679 0.68363 0.0
H4625 H 0.84547 0.59328 0.68014 0.0
H4626 H 0.83088 0.56251 0.68694 0.0
H4627 H 0.81954 0.55705 0.69823 0.0
C4628 C 0.90681 0.30454 0.69636 0.0
C4629 C 0.90872 0.31655 0.68985 0.0
C4630 C 0.93122 0.31749 0.69729 0.0
C4631 C 0.92855 0.30715 0.7061 0.0
N4632 N 0.91468 0.28878 0.71178 0.0
N4633 N 0.9225 0.33491 0.68448 0.0
C4634 C 0.91661 0.29998 0.70489 0.0
C4635 C 0.92087 0.32313 0.69038 0.0
N4636 N 0.89574 0.29737 0.6941 0.0
N4637 N 0.94374 0.32132 0.69479 0.0
H4638 H 0.91523 0.33927 0.67908 0.0
H4639 H 0.93072 0.34079 0.6858 0.0
H4640 H 0.95167 0.31631 0.69832 0.0
H4641 H 0.94626 0.32815 0.68773 0.0
H4642 H 0.89414 0.28796 0.69741 0.0
H4643 H 0.88829 0.30055 0.68812 0.0
H4644 H 0.90569 0.28419 0.71301 0.0
H4645 H 0.92212 0.28397 0.71643 0.0
C4646 C 0.18103 0.41896 0.69606 0.0
C4647 C 0.18613 0.40637 0.69696 0.0
C4648 C 0.20507 0.41501 0.70861 0.0
C4649 C 0.19871 0.42696 0.70996 0.0
N4650 N 0.18463 0.44196 0.69933 0.0
N4651 N 0.20295 0.39214 0.70404 0.0
C4652 C 0.18784 0.42947 0.70196 0.0
C4653 C 0.19826 0.40435 0.70302 0.0
N4654 N 0.16944 0.42076 0.68997 0.0
N4655 N 0.21782 0.41407 0.71194 0.0
H4656 H 0.19841 0.38411 0.69984 0.0
H4657 H 0.21087 0.38982 0.70979 0.0
H4658 H 0.22338 0.42198 0.71504 0.0
H4659 H 0.2233 0.40596 0.71011 0.0
H4660 H 0.16434 0.42931 0.6904 0.0
H4661 H 0.16453 0.41342 0.68498 0.0
H4662 H 0.17744 0.44454 0.6928 0.0
H4663 H 0.1903 0.44983 0.7024 0.0
C4664 C 0.0837 0.32148 0.32177 0.0
C4665 C 0.09612 0.31595 0.32156 0.0
C4666 C 0.08815 0.29947 0.30645 0.0
C4667 C 0.07654 0.30646 0.30474 0.0
N4668 N 0.06165 0.32114 0.31513 0.0
N4669 N 0.11063 0.30011 0.31316 0.0
C4670 C 0.07381 0.31653 0.31361 0.0
C4671 C 0.09845 0.305 0.31382 0.0
N4672 N 0.0812 0.3315 0.32987 0.0
N4673 N 0.08901 0.28717 0.30188 0.0
H4674 H 0.11842 0.30377 0.31854 0.0
H4675 H 0.11324 0.29314 0.30648 0.0
H4676 H 0.08124 0.28226 0.29758 0.0
H4677 H 0.09679 0.28124 0.30387 0.0
H4678 H 0.07221 0.33591 0.33017 0.0
H4679 H 0.08809 0.33539 0.33622 0.0
H4680 H 0.05337 0.31724 0.31071 0.0
H4681 H 0.05337 0.31724 0.31071 0.0
C4682 C 0.21107 0.59214 0.32481 0.0
C4683 C 0.19963 0.59844 0.32093 0.0
C4684 C 0.19691 0.58299 0.30332 0.0
C4685 C 0.20986 0.57888 0.30509 0.0
N4686 N 0.22892 0.57866 0.31892 0.0
N4687 N 0.18218 0.60063 0.30556 0.0
C4688 C 0.21682 0.58309 0.31632 0.0
C4689 C 0.19266 0.59405 0.30995 0.0
N4690 N 0.2162 0.5945 0.33679 0.0
N4691 N 0.1884 0.57594 0.29593 0.0
H4692 H 0.17879 0.60889 0.31003 0.0
H4693 H 0.17763 0.59852 0.29679 0.0
H4694 H 0.19052 0.56684 0.29236 0.0
H4695 H 0.17863 0.57816 0.2951 0.0
H4696 H 0.22367 0.58921 0.34081 0.0
H4697 H 0.21214 0.60094 0.34328 0.0
H4698 H 0.23512 0.58287 0.32571 0.0
H4699 H 0.23309 0.57105 0.31403 0.0
C4700 C 0.91493 0.67813 0.29976 0.0
C4701 C 0.90758 0.68383 0.30972 0.0
C4702 C 0.92324 0.70187 0.31043 0.0
C4703 C 0.92862 0.69792 0.29846 0.0
N4704 N 0.93057 0.68095 0.2825 0.0
N4705 N 0.90407 0.70191 0.32383 0.0
C4706 C 0.92484 0.68558 0.29339 0.0
C4707 C 0.91157 0.6959 0.31491 0.0
N4708 N 0.9127 0.66544 0.2967 0.0
N4709 N 0.92961 0.71077 0.31794 0.0
H4710 H 0.89534 0.69796 0.32729 0.0
H4711 H 0.90596 0.71135 0.32687 0.0
H4712 H 0.93901 0.7141 0.31591 0.0
H4713 H 0.92644 0.71326 0.32715 0.0
H4714 H 0.91861 0.66025 0.29055 0.0
H4715 H 0.90561 0.65968 0.30126 0.0
H4716 H 0.92684 0.67313 0.27729 0.0
H4717 H 0.93884 0.68509 0.2783 0.0
C4718 C 0.80482 0.40255 0.30464 0.0
C4719 C 0.81843 0.40308 0.30646 0.0
C4720 C 0.81895 0.42603 0.30049 0.0
C4721 C 0.80513 0.42592 0.30014 0.0
N4722 N 0.78613 0.41281 0.29526 0.0
N4723 N 0.83877 0.41504 0.30501 0.0
C4724 C 0.79837 0.41378 0.30027 0.0
C4725 C 0.82556 0.41469 0.30395 0.0
N4726 N 0.79799 0.39139 0.30733 0.0
N4727 N 0.82624 0.43665 0.29713 0.0
H4728 H 0.84414 0.407 0.30761 0.0
H4729 H 0.84432 0.42345 0.30338 0.0
H4730 H 0.8225 0.44519 0.29343 0.0
H4731 H 0.8225 0.44519 0.29343 0.0
H4732 H 0.78791 0.39086 0.30774 0.0
H4733 H 0.80241 0.38282 0.31006 0.0
H4734 H 0.78109 0.40407 0.29416 0.0
H4735 H 0.78176 0.42046 0.29046 0.0
C4736 C 0.19062 0.58571 0.69935 0.0
C4737 C 0.19154 0.5989 0.70289 0.0
C4738 C 0.20789 0.5937 0.71922 0.0
C4739 C 0.20843 0.58091 0.71427 0.0
N4740 N 0.19456 0.56376 0.70601 0.0
N4741 N 0.2011 0.61576 0.716 0.0
C4742 C 0.19818 0.57653 0.70608 0.0
C4743 C 0.20007 0.60296 0.71289 0.0
N4744 N 0.18268 0.58197 0.68941 0.0
N4745 N 0.21416 0.59673 0.73049 0.0
H4746 H 0.19527 0.62279 0.71188 0.0
H4747 H 0.20833 0.61959 0.72196 0.0
H4748 H 0.2193 0.59 0.73587 0.0
H4749 H 0.2131 0.60544 0.73531 0.0
H4750 H 0.18279 0.57276 0.68543 0.0
H4751 H 0.17672 0.58836 0.68448 0.0
H4752 H 0.1866 0.56015 0.70088 0.0
H4753 H 0.19803 0.55723 0.71281 0.0
C4754 C 0.19069 0.42103 0.31407 0.0
C4755 C 0.19343 0.40767 0.3145 0.0
C4756 C 0.21543 0.41243 0.30668 0.0
C4757 C 0.21177 0.42527 0.30375 0.0
N4758 N 0.19972 0.44276 0.31279 0.0
N4759 N 0.20837 0.3904 0.31114 0.0
C4760 C 0.20044 0.42997 0.30978 0.0
C4761 C 0.20586 0.40331 0.31097 0.0
N4762 N 0.17871 0.42516 0.31756 0.0
N4763 N 0.2282 0.40926 0.30636 0.0
H4764 H 0.20168 0.38338 0.31436 0.0
H4765 H 0.21672 0.38656 0.30718 0.0
H4766 H 0.23555 0.41609 0.30444 0.0
H4767 H 0.23161 0.4004 0.30954 0.0
H4768 H 0.17568 0.43457 0.31595 0.0
H4769 H 0.17149 0.41897 0.3213 0.0
H4770 H 0.19211 0.4466 0.31802 0.0
H4771 H 0.20768 0.44909 0.3119 0.0
C4772 C 0.08934 0.68594 0.32358 0.0
C4773 C 0.1012 0.68553 0.31674 0.0
C4774 C 0.09265 0.70012 0.30008 0.0
C4775 C 0.08111 0.70134 0.30758 0.0
N4776 N 0.06644 0.69014 0.32229 0.0
N4777 N 0.11344 0.68979 0.29728 0.0
C4778 C 0.07881 0.69266 0.31811 0.0
C4779 C 0.10263 0.69189 0.30458 0.0
N4780 N 0.08816 0.68008 0.33544 0.0
N4781 N 0.094 0.7067 0.28863 0.0
H4782 H 0.12102 0.68405 0.30042 0.0
H4783 H 0.11475 0.69307 0.28782 0.0
H4784 H 0.08631 0.71108 0.28395 0.0
H4785 H 0.1027 0.70789 0.28364 0.0
H4786 H 0.08023 0.68135 0.3415 0.0
H4787 H 0.09555 0.67477 0.33964 0.0
H4788 H 0.06413 0.68315 0.32927 0.0
H4789 H 0.05833 0.69358 0.31745 0.0
C4790 C 0.80815 0.58527 0.32852 0.0
C4791 C 0.80698 0.59777 0.32298 0.0
C4792 C 0.79537 0.58847 0.30444 0.0
C4793 C 0.79437 0.57646 0.31118 0.0
N4794 N 0.80547 0.56212 0.32569 0.0
N4795 N 0.79945 0.61156 0.30576 0.0
C4796 C 0.80248 0.57443 0.32209 0.0
C4797 C 0.80077 0.59943 0.31085 0.0
N4798 N 0.8143 0.58384 0.34015 0.0
N4799 N 0.79193 0.5892 0.2917 0.0
H4800 H 0.80352 0.61982 0.31001 0.0
H4801 H 0.79358 0.61356 0.29783 0.0
H4802 H 0.78899 0.58113 0.2864 0.0
H4803 H 0.79352 0.59739 0.28595 0.0
H4804 H 0.81405 0.5753 0.34554 0.0
H4805 H 0.81911 0.59146 0.34481 0.0
H4806 H 0.8121 0.55993 0.33292 0.0
H4807 H 0.80261 0.55406 0.3203 0.0
C4808 C 0.90718 0.29263 0.30325 0.0
C4809 C 0.9042 0.30962 0.3064 0.0
C4810 C 0.92487 0.31883 0.28559 0.0
C4811 C 0.92996 0.30171 0.28544 0.0
N4812 N 0.92188 0.27575 0.28869 0.0
N4813 N 0.9097 0.33502 0.29971 0.0
C4814 C 0.91943 0.28814 0.29158 0.0
C4815 C 0.91253 0.32257 0.2974 0.0
N4816 N 0.89989 0.28337 0.3092 0.0
N4817 N 0.93141 0.32803 0.27877 0.0
H4818 H 0.90306 0.33744 0.30685 0.0
H4819 H 0.91439 0.34253 0.29469 0.0
H4820 H 0.93899 0.32544 0.27269 0.0
H4821 H 0.929 0.33773 0.27934 0.0
H4822 H 0.90138 0.27361 0.30746 0.0
H4823 H 0.89249 0.28576 0.31555 0.0
H4824 H 0.91633 0.26814 0.29258 0.0
H4825 H 0.92943 0.27367 0.28237 0.0
C4826 C 0.81673 0.42112 0.69503 0.0
C4827 C 0.81548 0.40788 0.69847 0.0
C4828 C 0.7987 0.41305 0.71432 0.0
C4829 C 0.79865 0.426 0.70954 0.0
N4830 N 0.81317 0.443 0.70179 0.0
N4831 N 0.80521 0.39092 0.71117 0.0
C4832 C 0.80921 0.43033 0.70164 0.0
C4833 C 0.80654 0.40378 0.70817 0.0
N4834 N 0.82495 0.42491 0.68527 0.0
N4835 N 0.79195 0.40985 0.72532 0.0
H4836 H 0.81108 0.38388 0.70723 0.0
H4837 H 0.79771 0.38708 0.71685 0.0
H4838 H 0.78674 0.41652 0.73059 0.0
H4839 H 0.79264 0.40099 0.73008 0.0
H4840 H 0.82512 0.43422 0.68135 0.0
H4841 H 0.83083 0.41849 0.68039 0.0
H4842 H 0.82134 0.44653 0.69688 0.0
H4843 H 0.80975 0.44945 0.70861 0.0
C4844 C 0.08699 0.30897 0.69028 0.0
C4845 C 0.10029 0.30894 0.69375 0.0
C4846 C 0.09446 0.30073 0.71533 0.0
C4847 C 0.08153 0.29847 0.71101 0.0
N4848 N 0.06492 0.30838 0.69812 0.0
N4849 N 0.11694 0.30467 0.7095 0.0
C4850 C 0.07751 0.30484 0.6995 0.0
C4851 C 0.10408 0.30497 0.70633 0.0
N4852 N 0.08342 0.31274 0.67811 0.0
N4853 N 0.09731 0.29972 0.72821 0.0
H4854 H 0.12431 0.30787 0.70327 0.0
H4855 H 0.12036 0.30035 0.71793 0.0
H4856 H 0.09026 0.29761 0.73519 0.0
H4857 H 0.10624 0.30245 0.73214 0.0
H4858 H 0.07403 0.31147 0.67456 0.0
H4859 H 0.09003 0.31633 0.67126 0.0
H4860 H 0.06159 0.31385 0.69034 0.0
H4861 H 0.05832 0.30773 0.70575 0.0
C4862 C 0.90379 0.71505 0.69507 0.0
C4863 C 0.90784 0.70541 0.68636 0.0
C4864 C 0.93043 0.70952 0.69263 0.0
C4865 C 0.92617 0.71726 0.70305 0.0
N4866 N 0.91009 0.73264 0.70921 0.0
N4867 N 0.9249 0.693 0.67697 0.0
C4868 C 0.9132 0.72165 0.70278 0.0
C4869 C 0.92114 0.70255 0.68513 0.0
N4870 N 0.89089 0.7175 0.69638 0.0
N4871 N 0.9431 0.71012 0.68881 0.0
H4872 H 0.91842 0.68794 0.67102 0.0
H4873 H 0.93427 0.68947 0.67685 0.0
H4874 H 0.94957 0.71713 0.6923 0.0
H4875 H 0.94658 0.70536 0.68072 0.0
H4876 H 0.88717 0.72316 0.70374 0.0
H4877 H 0.88373 0.71313 0.69067 0.0
H4878 H 0.90116 0.73707 0.70838 0.0
H4879 H 0.9169 0.73822 0.71426 0.0
C4880 C 0.69964 0.20423 0.60752 0.0
C4881 C 0.69563 0.19159 0.6039 0.0
C4882 C 0.7 0.19712 0.58119 0.0
C4883 C 0.7068 0.20852 0.58516 0.0
N4884 N 0.70758 0.22522 0.60166 0.0
N4885 N 0.69186 0.17579 0.5872 0.0
C4886 C 0.70488 0.21281 0.59809 0.0
C4887 C 0.69573 0.18797 0.59069 0.0
N4888 N 0.6987 0.20811 0.6201 0.0
N4889 N 0.69624 0.19576 0.5686 0.0
H4890 H 0.68817 0.16898 0.59381 0.0
H4891 H 0.69315 0.1722 0.5779 0.0
H4892 H 0.69696 0.20338 0.56196 0.0
H4893 H 0.69051 0.18804 0.56533 0.0
H4894 H 0.70174 0.21729 0.62312 0.0
H4895 H 0.69501 0.20216 0.62748 0.0
H4896 H 0.71059 0.23253 0.59526 0.0
H4897 H 0.71059 0.23253 0.59526 0.0
C4898 C 0.29466 0.20252 0.6056 0.0
C4899 C 0.30422 0.19404 0.60106 0.0
C4900 C 0.30064 0.2016 0.57888 0.0
C4901 C 0.293 0.21178 0.5837 0.0
N4902 N 0.27753 0.21723 0.60021 0.0
N4903 N 0.31683 0.18565 0.58351 0.0
C4904 C 0.2884 0.21082 0.59667 0.0
C4905 C 0.30733 0.19358 0.58773 0.0
N4906 N 0.29198 0.20306 0.61856 0.0
N4907 N 0.30017 0.1985 0.56607 0.0
H4908 H 0.32168 0.17932 0.58964 0.0
H4909 H 0.32056 0.18608 0.57414 0.0
H4910 H 0.29328 0.20231 0.55985 0.0
H4911 H 0.30487 0.19062 0.56217 0.0
H4912 H 0.28641 0.2102 0.6227 0.0
H4913 H 0.29609 0.1969 0.62537 0.0
H4914 H 0.27292 0.21594 0.6091 0.0
H4915 H 0.27222 0.2228 0.59376 0.0
C4916 C 0.31831 0.8098 0.59937 0.0
C4917 C 0.31423 0.8226 0.60152 0.0
C4918 C 0.30119 0.82149 0.58181 0.0
C4919 C 0.30768 0.81018 0.57798 0.0
N4920 N 0.32128 0.79236 0.58426 0.0
N4921 N 0.30268 0.84125 0.59402 0.0
C4922 C 0.31583 0.80389 0.58716 0.0
C4923 C 0.30587 0.82861 0.59256 0.0
N4924 N 0.32419 0.80316 0.60916 0.0
N4925 N 0.2901 0.82508 0.57567 0.0
H4926 H 0.30604 0.84694 0.60167 0.0
H4927 H 0.29769 0.8464 0.58697 0.0
H4928 H 0.2854 0.81925 0.56887 0.0
H4929 H 0.28455 0.83277 0.57874 0.0
H4930 H 0.32617 0.79336 0.60877 0.0
H4931 H 0.32606 0.80718 0.61822 0.0
H4932 H 0.32879 0.78839 0.58959 0.0
H4933 H 0.31863 0.78683 0.57629 0.0
C4934 C 0.70039 0.81672 0.58971 0.0
C4935 C 0.7038 0.81606 0.60298 0.0
C4936 C 0.72067 0.80057 0.59793 0.0
C4937 C 0.7159 0.79972 0.58502 0.0
N4938 N 0.70745 0.81303 0.56781 0.0
N4939 N 0.71697 0.80727 0.62003 0.0
C4940 C 0.70745 0.80948 0.58056 0.0
C4941 C 0.71399 0.80807 0.60715 0.0
N4942 N 0.69026 0.8241 0.58584 0.0
N4943 N 0.73211 0.79494 0.60111 0.0
H4944 H 0.71257 0.81289 0.62706 0.0
H4945 H 0.7231 0.8004 0.62391 0.0
H4946 H 0.73773 0.7901 0.59441 0.0
H4947 H 0.73679 0.79628 0.60994 0.0
H4948 H 0.6864 0.82375 0.57653 0.0
H4949 H 0.68507 0.8298 0.59221 0.0
H4950 H 0.70214 0.82068 0.56417 0.0
H4951 H 0.71446 0.8099 0.56137 0.0
C4952 C 0.70973 0.82529 0.41367 0.0
C4953 C 0.69707 0.82256 0.40899 0.0
C4954 C 0.69374 0.80674 0.42647 0.0
C4955 C 0.70721 0.80744 0.42941 0.0
N4956 N 0.727 0.82084 0.4281 0.0
N4957 N 0.67714 0.80998 0.41031 0.0
C4958 C 0.71487 0.81769 0.4238 0.0
C4959 C 0.68906 0.81316 0.41528 0.0
N4960 N 0.71701 0.83521 0.40843 0.0
N4961 N 0.68528 0.80069 0.43482 0.0
H4962 H 0.6733 0.81449 0.40215 0.0
H4963 H 0.67156 0.80213 0.41365 0.0
H4964 H 0.68808 0.79734 0.44393 0.0
H4965 H 0.67526 0.80073 0.43361 0.0
H4966 H 0.72644 0.83743 0.41151 0.0
H4967 H 0.71356 0.84135 0.40123 0.0
H4968 H 0.73149 0.81655 0.43602 0.0
H4969 H 0.73149 0.81655 0.43602 0.0
C4970 C 0.69015 0.1927 0.42207 0.0
C4971 C 0.69351 0.19274 0.40875 0.0
C4972 C 0.71547 0.20037 0.41423 0.0
C4973 C 0.71131 0.20276 0.42709 0.0
N4974 N 0.69815 0.19314 0.44406 0.0
N4975 N 0.70931 0.19685 0.3919 0.0
C4976 C 0.69958 0.19664 0.43136 0.0
C4977 C 0.70622 0.19646 0.40477 0.0
N4978 N 0.67789 0.18909 0.42583 0.0
N4979 N 0.72838 0.20089 0.4113 0.0
H4980 H 0.70287 0.19396 0.38464 0.0
H4981 H 0.7179 0.201 0.38836 0.0
H4982 H 0.73549 0.20266 0.41828 0.0
H4983 H 0.73211 0.19805 0.40243 0.0
H4984 H 0.67444 0.19038 0.4352 0.0
H4985 H 0.6709 0.18557 0.41939 0.0
H4986 H 0.69021 0.18784 0.44761 0.0
H4987 H 0.70584 0.19367 0.4506 0.0
C4988 C 0.31606 0.21131 0.41219 0.0
C4989 C 0.3154 0.19787 0.40976 0.0
C4990 C 0.29871 0.19511 0.42657 0.0
C4991 C 0.29928 0.20873 0.42885 0.0
N4992 N 0.31332 0.22779 0.42824 0.0
N4993 N 0.309 0.17653 0.41706 0.0
C4994 C 0.30944 0.21625 0.42303 0.0
C4995 C 0.3076 0.18962 0.41771 0.0
N4996 N 0.32266 0.21949 0.40396 0.0
N4997 N 0.28967 0.18738 0.43266 0.0
H4998 H 0.31549 0.17223 0.41076 0.0
H4999 H 0.30468 0.17001 0.42355 0.0
H5000 H 0.28389 0.19042 0.44024 0.0
H5001 H 0.28753 0.17793 0.42987 0.0
H5002 H 0.32225 0.22952 0.40465 0.0
H5003 H 0.3275 0.21634 0.39575 0.0
H5004 H 0.32129 0.23314 0.42479 0.0
H5005 H 0.30997 0.23099 0.43714 0.0
C5006 C 0.31615 0.81811 0.42018 0.0
C5007 C 0.31606 0.81435 0.407 0.0
C5008 C 0.30934 0.79239 0.41344 0.0
C5009 C 0.30694 0.79683 0.42619 0.0
N5010 N 0.31635 0.81078 0.44245 0.0
N5011 N 0.31229 0.79798 0.39083 0.0
C5012 C 0.3127 0.80885 0.4299 0.0
C5013 C 0.31275 0.80145 0.40357 0.0
N5014 N 0.31936 0.83055 0.42341 0.0
N5015 N 0.30936 0.77944 0.41103 0.0
H5016 H 0.31483 0.80428 0.38328 0.0
H5017 H 0.30843 0.78915 0.3877 0.0
H5018 H 0.30806 0.77252 0.41833 0.0
H5019 H 0.31223 0.77557 0.40223 0.0
H5020 H 0.31807 0.83422 0.43268 0.0
H5021 H 0.32252 0.83745 0.41664 0.0
H5022 H 0.32143 0.81898 0.44558 0.0
H5023 H 0.31618 0.80331 0.44929 0.0
C5024 C 0.59187 0.18913 0.69772 0.0
C5025 C 0.59678 0.19447 0.68599 0.0
C5026 C 0.57977 0.2106 0.68624 0.0
C5027 C 0.57336 0.20369 0.69642 0.0
N5028 N 0.57613 0.18869 0.71451 0.0
N5029 N 0.59483 0.20971 0.66835 0.0
C5030 C 0.58018 0.19373 0.70296 0.0
C5031 C 0.59063 0.20512 0.68009 0.0
N5032 N 0.59836 0.17958 0.70399 0.0
N5033 N 0.57606 0.2228 0.68304 0.0
H5034 H 0.60274 0.20597 0.66347 0.0
H5035 H 0.58977 0.21647 0.66294 0.0
H5036 H 0.56923 0.22777 0.6884 0.0
H5037 H 0.58104 0.22866 0.67639 0.0
H5038 H 0.59497 0.1753 0.71256 0.0
H5039 H 0.60717 0.17606 0.70073 0.0
H5040 H 0.56825 0.19198 0.71976 0.0
H5041 H 0.56825 0.19198 0.71976 0.0
C5042 C 0.31104 0.10965 0.70915 0.0
C5043 C 0.31835 0.10559 0.69838 0.0
C5044 C 0.31117 0.08325 0.70251 0.0
C5045 C 0.30165 0.08766 0.71132 0.0
N5046 N 0.29632 0.10487 0.7263 0.0
N5047 N 0.32511 0.08854 0.6843 0.0
C5048 C 0.30278 0.10069 0.71568 0.0
C5049 C 0.31836 0.09238 0.69492 0.0
N5050 N 0.31181 0.12219 0.71317 0.0
N5051 N 0.31455 0.07058 0.70255 0.0
H5052 H 0.33074 0.09492 0.67866 0.0
H5053 H 0.32427 0.07924 0.68055 0.0
H5054 H 0.3116 0.0642 0.70987 0.0
H5055 H 0.32201 0.06703 0.69688 0.0
H5056 H 0.30644 0.12556 0.72097 0.0
H5057 H 0.3178 0.12919 0.70878 0.0
H5058 H 0.29059 0.09895 0.73231 0.0
H5059 H 0.29059 0.09895 0.73231 0.0
C5060 C 0.4185 0.82129 0.6988 0.0
C5061 C 0.4099 0.81296 0.69195 0.0
C5062 C 0.42234 0.79425 0.69883 0.0
C5063 C 0.43023 0.80244 0.70681 0.0
N5064 N 0.43967 0.82393 0.70859 0.0
N5065 N 0.40447 0.79163 0.68403 0.0
C5066 C 0.42947 0.81606 0.70509 0.0
C5067 C 0.41215 0.79953 0.69148 0.0
N5068 N 0.41598 0.83417 0.69965 0.0
N5069 N 0.4245 0.78139 0.69758 0.0
H5070 H 0.39695 0.79503 0.67828 0.0
H5071 H 0.40573 0.78167 0.68355 0.0
H5072 H 0.43225 0.77659 0.70174 0.0
H5073 H 0.43225 0.77659 0.70174 0.0
H5074 H 0.42103 0.84041 0.7058 0.0
H5075 H 0.40819 0.83841 0.69495 0.0
H5076 H 0.44005 0.83382 0.70667 0.0
H5077 H 0.44854 0.82035 0.71163 0.0
C5078 C 0.69853 0.90071 0.71078 0.0
C5079 C 0.6916 0.90448 0.6996 0.0
C5080 C 0.69892 0.92688 0.70287 0.0
C5081 C 0.7081 0.92267 0.7122 0.0
N5082 N 0.71278 0.90589 0.72814 0.0
N5083 N 0.68557 0.92111 0.68444 0.0
C5084 C 0.70671 0.90979 0.71713 0.0
C5085 C 0.69189 0.91756 0.69548 0.0
N5086 N 0.69745 0.88833 0.71542 0.0
N5087 N 0.69567 0.93957 0.70218 0.0
H5088 H 0.6801 0.9146 0.6789 0.0
H5089 H 0.68665 0.93028 0.68028 0.0
H5090 H 0.69843 0.94616 0.70929 0.0
H5091 H 0.68844 0.94299 0.69609 0.0
H5092 H 0.70253 0.88517 0.72354 0.0
H5093 H 0.69148 0.88126 0.71121 0.0
H5094 H 0.71838 0.91193 0.73405 0.0
H5095 H 0.71838 0.91193 0.73405 0.0
C5096 C 0.59811 0.80301 0.31239 0.0
C5097 C 0.59946 0.81609 0.31609 0.0
C5098 C 0.58207 0.8219 0.30111 0.0
C5099 C 0.58055 0.80861 0.2975 0.0
N5100 N 0.58332 0.78647 0.30474 0.0
N5101 N 0.59029 0.83724 0.31696 0.0
C5102 C 0.58738 0.79912 0.30468 0.0
C5103 C 0.59065 0.82531 0.31139 0.0
N5104 N 0.60727 0.79429 0.31584 0.0
N5105 N 0.57568 0.8314 0.29463 0.0
H5106 H 0.5964 0.84 0.32455 0.0
H5107 H 0.58313 0.8439 0.31497 0.0
H5108 H 0.56856 0.82973 0.2877 0.0
H5109 H 0.57799 0.84119 0.29564 0.0
H5110 H 0.60738 0.78494 0.31215 0.0
H5111 H 0.61541 0.79672 0.32136 0.0
H5112 H 0.58755 0.77947 0.31058 0.0
H5113 H 0.57461 0.7833 0.30067 0.0
C5114 C 0.68903 0.09368 0.31116 0.0
C5115 C 0.69461 0.09779 0.32301 0.0
C5116 C 0.71048 0.08062 0.32151 0.0
C5117 C 0.70332 0.07494 0.31118 0.0
N5118 N 0.68804 0.07894 0.29363 0.0
N5119 N 0.71006 0.09454 0.34019 0.0
C5120 C 0.69335 0.08226 0.30523 0.0
C5121 C 0.70525 0.09115 0.32834 0.0
N5122 N 0.67951 0.10068 0.30542 0.0
N5123 N 0.72268 0.07653 0.32425 0.0
H5124 H 0.7065 0.10217 0.34557 0.0
H5125 H 0.71682 0.08907 0.34518 0.0
H5126 H 0.72747 0.06997 0.31844 0.0
H5127 H 0.72873 0.08101 0.33102 0.0
H5128 H 0.67506 0.09788 0.29678 0.0
H5129 H 0.6762 0.10933 0.30919 0.0
H5130 H 0.69109 0.07132 0.28794 0.0
H5131 H 0.69109 0.07132 0.28794 0.0
C5132 C 0.4164 0.18899 0.31562 0.0
C5133 C 0.4032 0.19249 0.31553 0.0
C5134 C 0.40937 0.21389 0.30699 0.0
C5135 C 0.4221 0.20947 0.3047 0.0
N5136 N 0.43867 0.19672 0.31474 0.0
N5137 N 0.38684 0.20822 0.31106 0.0
C5138 C 0.42601 0.19809 0.31127 0.0
C5139 C 0.39962 0.20501 0.3114 0.0
N5140 N 0.41977 0.17691 0.31963 0.0
N5141 N 0.40685 0.22674 0.30581 0.0
H5142 H 0.37939 0.20207 0.31436 0.0
H5143 H 0.38354 0.21659 0.30663 0.0
H5144 H 0.41404 0.23364 0.30356 0.0
H5145 H 0.39811 0.23075 0.30854 0.0
H5146 H 0.42903 0.17331 0.31841 0.0
H5147 H 0.41308 0.17018 0.32341 0.0
H5148 H 0.44196 0.18906 0.32033 0.0
H5149 H 0.44546 0.2043 0.31386 0.0
C5150 C 0.31436 0.91831 0.32007 0.0
C5151 C 0.32166 0.91048 0.3117 0.0
C5152 C 0.31623 0.9245 0.29327 0.0
C5153 C 0.31041 0.93324 0.30201 0.0
N5154 N 0.29814 0.93471 0.32181 0.0
N5155 N 0.32925 0.90546 0.29031 0.0
C5156 C 0.30771 0.92903 0.31487 0.0
C5157 C 0.32235 0.9133 0.29824 0.0
N5158 N 0.31428 0.91589 0.3331 0.0
N5159 N 0.31521 0.92647 0.28021 0.0
H5160 H 0.33307 0.89672 0.29341 0.0
H5161 H 0.33175 0.90782 0.28081 0.0
H5162 H 0.3102 0.93409 0.27612 0.0
H5163 H 0.31813 0.91989 0.27329 0.0
H5164 H 0.31048 0.92222 0.33983 0.0
H5165 H 0.31892 0.90807 0.33731 0.0
H5166 H 0.29502 0.93138 0.33085 0.0
H5167 H 0.29203 0.94155 0.31778 0.0
C5168 C 0.70451 0.10276 0.69962 0.0
C5169 C 0.69199 0.09864 0.69548 0.0
C5170 C 0.69781 0.07608 0.69921 0.0
C5171 C 0.70925 0.08038 0.70571 0.0
N5172 N 0.72641 0.09659 0.70471 0.0
N5173 N 0.67649 0.08141 0.69123 0.0
C5174 C 0.71353 0.0934 0.70368 0.0
C5175 C 0.68859 0.08529 0.69518 0.0
N5176 N 0.70759 0.11565 0.70028 0.0
N5177 N 0.69653 0.0635 0.69545 0.0
H5178 H 0.66967 0.08782 0.68768 0.0
H5179 H 0.67295 0.07196 0.69231 0.0
H5180 H 0.7042 0.05713 0.69602 0.0
H5181 H 0.68883 0.05998 0.68989 0.0
H5182 H 0.71596 0.11925 0.70474 0.0
H5183 H 0.70133 0.12285 0.69726 0.0
H5184 H 0.7303 0.10561 0.70213 0.0
H5185 H 0.73343 0.08976 0.70667 0.0
C5186 C 0.69164 0.91927 0.31051 0.0
C5187 C 0.69266 0.90613 0.30705 0.0
C5188 C 0.70992 0.91189 0.29161 0.0
C5189 C 0.71025 0.9247 0.29656 0.0
N5190 N 0.69602 0.94133 0.30398 0.0
N5191 N 0.70268 0.88959 0.29444 0.0
C5192 C 0.69959 0.92872 0.30416 0.0
C5193 C 0.70165 0.90236 0.29749 0.0
N5194 N 0.68325 0.92274 0.32004 0.0
N5195 N 0.71689 0.90906 0.28079 0.0
H5196 H 0.69653 0.88237 0.29823 0.0
H5197 H 0.71016 0.88599 0.28885 0.0
H5198 H 0.72245 0.91595 0.27575 0.0
H5199 H 0.7161 0.9003 0.27593 0.0
H5200 H 0.68324 0.93196 0.32401 0.0
H5201 H 0.67699 0.91614 0.32469 0.0
H5202 H 0.68781 0.94464 0.30866 0.0
H5203 H 0.69986 0.94797 0.29731 0.0
C5204 C 0.59856 0.19728 0.30809 0.0
C5205 C 0.59608 0.18802 0.31802 0.0
C5206 C 0.57317 0.19388 0.31831 0.0
C5207 C 0.57606 0.20436 0.3097 0.0
N5208 N 0.58958 0.21125 0.29171 0.0
N5209 N 0.58129 0.17753 0.33299 0.0
C5210 C 0.58821 0.20469 0.30317 0.0
C5211 C 0.58342 0.18625 0.32317 0.0
N5212 N 0.61094 0.19936 0.30369 0.0
N5213 N 0.56054 0.19056 0.32094 0.0
H5214 H 0.58846 0.17147 0.33649 0.0
H5215 H 0.57272 0.17691 0.33829 0.0
H5216 H 0.55277 0.1949 0.3163 0.0
H5217 H 0.55771 0.18241 0.32628 0.0
H5218 H 0.61364 0.20711 0.29772 0.0
H5219 H 0.61877 0.19394 0.30681 0.0
H5220 H 0.59781 0.21083 0.28591 0.0
H5221 H 0.58192 0.21575 0.2871 0.0
C5222 C 0.30033 0.10676 0.30526 0.0
C5223 C 0.30601 0.10276 0.31709 0.0
C5224 C 0.30224 0.08012 0.31115 0.0
C5225 C 0.2942 0.08418 0.30078 0.0
N5226 N 0.29243 0.10047 0.2841 0.0
N5227 N 0.31257 0.08566 0.33148 0.0
C5228 C 0.29532 0.09728 0.29661 0.0
C5229 C 0.30711 0.08943 0.32005 0.0
N5230 N 0.29916 0.11963 0.30256 0.0
N5231 N 0.3065 0.06773 0.31157 0.0
H5232 H 0.3167 0.09219 0.33802 0.0
H5233 H 0.31221 0.07614 0.33483 0.0
H5234 H 0.30511 0.0614 0.30387 0.0
H5235 H 0.31311 0.06444 0.31839 0.0
H5236 H 0.29365 0.12314 0.29491 0.0
H5237 H 0.30294 0.1269 0.30851 0.0
H5238 H 0.29421 0.10961 0.28011 0.0
H5239 H 0.28966 0.09359 0.27727 0.0
C5240 C 0.42074 0.82133 0.31605 0.0
C5241 C 0.41041 0.81316 0.32042 0.0
C5242 C 0.42144 0.79424 0.3119 0.0
C5243 C 0.43258 0.80221 0.30932 0.0
N5244 N 0.43984 0.8235 0.30252 0.0
N5245 N 0.40033 0.79199 0.32217 0.0
C5246 C 0.43135 0.81585 0.30945 0.0
C5247 C 0.41051 0.79967 0.31807 0.0
N5248 N 0.42073 0.83424 0.31874 0.0
N5249 N 0.42101 0.78173 0.30776 0.0
H5250 H 0.39182 0.79569 0.32596 0.0
H5251 H 0.40049 0.78195 0.32246 0.0
H5252 H 0.42845 0.77764 0.30248 0.0
H5253 H 0.4128 0.77574 0.30825 0.0
H5254 H 0.42873 0.84038 0.31724 0.0
H5255 H 0.41305 0.83867 0.32338 0.0
H5256 H 0.43884 0.83343 0.30137 0.0
H5257 H 0.44682 0.81971 0.2964 0.0
C5258 C 0.31262 0.91737 0.69551 0.0
C5259 C 0.32285 0.91161 0.70246 0.0
C5260 C 0.32059 0.92753 0.7198 0.0
C5261 C 0.30916 0.93206 0.71368 0.0
N5262 N 0.29906 0.93599 0.693 0.0
N5263 N 0.337 0.9111 0.721 0.0
C5264 C 0.30657 0.92839 0.70068 0.0
C5265 C 0.32707 0.91677 0.71448 0.0
N5266 N 0.30828 0.91197 0.68423 0.0
N5267 N 0.32573 0.93402 0.73013 0.0
H5268 H 0.34245 0.90372 0.7171 0.0
H5269 H 0.33943 0.91317 0.73055 0.0
H5270 H 0.32183 0.94245 0.73375 0.0
H5271 H 0.33465 0.932 0.73427 0.0
H5272 H 0.29981 0.91475 0.67959 0.0
H5273 H 0.31258 0.90402 0.67999 0.0
H5274 H 0.29766 0.93439 0.68315 0.0
H5275 H 0.29573 0.94493 0.69599 0.0
C5276 C 0.58366 0.81497 0.67913 0.0
C5277 C 0.59457 0.82135 0.68468 0.0
C5278 C 0.58525 0.81721 0.70607 0.0
C5279 C 0.5779 0.80667 0.70075 0.0
N5280 N 0.5661 0.79932 0.68177 0.0
N5281 N 0.59803 0.83653 0.702 0.0
C5282 C 0.57577 0.80675 0.6871 0.0
C5283 C 0.59317 0.82495 0.6978 0.0
N5284 N 0.57974 0.81844 0.66701 0.0
N5285 N 0.58456 0.82053 0.71877 0.0
H5286 H 0.60176 0.84346 0.69553 0.0
H5287 H 0.59716 0.83954 0.71158 0.0
H5288 H 0.57835 0.81609 0.72549 0.0
H5289 H 0.57835 0.81609 0.72549 0.0
H5290 H 0.57118 0.81504 0.66276 0.0
H5291 H 0.58432 0.82605 0.66197 0.0
H5292 H 0.56545 0.79758 0.67186 0.0
H5293 H 0.5586 0.79511 0.68723 0.0
C5294 C 0.40052 0.20293 0.6992 0.0
C5295 C 0.40463 0.19897 0.68677 0.0
C5296 C 0.42721 0.20353 0.69283 0.0
C5297 C 0.42283 0.20998 0.70407 0.0
N5298 N 0.40684 0.2085 0.72106 0.0
N5299 N 0.42186 0.19528 0.67156 0.0
C5300 C 0.4099 0.20745 0.70825 0.0
C5301 C 0.41799 0.19912 0.68355 0.0
N5302 N 0.38761 0.20296 0.70216 0.0
N5303 N 0.4399 0.20026 0.6918 0.0
H5304 H 0.41544 0.19151 0.66469 0.0
H5305 H 0.43131 0.19664 0.66816 0.0
H5306 H 0.44635 0.20121 0.69952 0.0
H5307 H 0.4435 0.19475 0.68426 0.0
H5308 H 0.38394 0.20725 0.71044 0.0
H5309 H 0.38042 0.19952 0.69589 0.0
H5310 H 0.3979 0.20562 0.72492 0.0
H5311 H 0.41375 0.2108 0.72808 0.0
C5312 C 0.69892 0.70512 0.10847 0.0
C5313 C 0.6949 0.69258 0.10444 0.0
C5314 C 0.69998 0.6985 0.08196 0.0
C5315 C 0.7064 0.70993 0.08638 0.0
N5316 N 0.70456 0.72702 0.10196 0.0
N5317 N 0.69134 0.67717 0.08734 0.0
C5318 C 0.70362 0.71417 0.09911 0.0
C5319 C 0.69527 0.68924 0.09116 0.0
N5320 N 0.69885 0.70818 0.12132 0.0
N5321 N 0.69697 0.69723 0.06915 0.0
H5322 H 0.68728 0.67033 0.0937 0.0
H5323 H 0.69287 0.67368 0.07804 0.0
H5324 H 0.69812 0.70488 0.0626 0.0
H5325 H 0.69149 0.68953 0.06546 0.0
H5326 H 0.70316 0.71659 0.12496 0.0
H5327 H 0.69537 0.70188 0.12851 0.0
H5328 H 0.7015 0.73088 0.11069 0.0
H5329 H 0.70693 0.73403 0.09499 0.0
C5330 C 0.32249 0.699 0.08871 0.0
C5331 C 0.31322 0.6924 0.0966 0.0
C5332 C 0.29589 0.70095 0.08316 0.0
C5333 C 0.30477 0.70995 0.07731 0.0
N5334 N 0.32729 0.71676 0.07408 0.0
N5335 N 0.29081 0.68832 0.1023 0.0
C5336 C 0.31833 0.70868 0.07986 0.0
C5337 C 0.29983 0.69368 0.09408 0.0
N5338 N 0.33524 0.69574 0.08941 0.0
N5339 N 0.2839 0.69872 0.07791 0.0
H5340 H 0.29325 0.68305 0.11056 0.0
H5341 H 0.28094 0.69017 0.10156 0.0
H5342 H 0.28117 0.70245 0.06895 0.0
H5343 H 0.27749 0.69158 0.08139 0.0
H5344 H 0.34228 0.69914 0.08293 0.0
H5345 H 0.33859 0.68863 0.09571 0.0
H5346 H 0.3369 0.71753 0.07711 0.0
H5347 H 0.32518 0.72318 0.06663 0.0
C5348 C 0.3113 0.3056 0.10058 0.0
C5349 C 0.31241 0.31924 0.09924 0.0
C5350 C 0.30559 0.31764 0.07656 0.0
C5351 C 0.30663 0.30399 0.07729 0.0
N5352 N 0.30428 0.28523 0.0912 0.0
N5353 N 0.31135 0.33839 0.08588 0.0
C5354 C 0.30766 0.29799 0.08968 0.0
C5355 C 0.30961 0.32532 0.08725 0.0
N5356 N 0.31411 0.2999 0.11221 0.0
N5357 N 0.29988 0.3232 0.06603 0.0
H5358 H 0.31416 0.34439 0.0935 0.0
H5359 H 0.31103 0.34316 0.07698 0.0
H5360 H 0.29548 0.31778 0.0587 0.0
H5361 H 0.29786 0.333 0.0654 0.0
H5362 H 0.31527 0.29001 0.11344 0.0
H5363 H 0.31605 0.30516 0.12059 0.0
H5364 H 0.30369 0.28052 0.10012 0.0
H5365 H 0.30052 0.27961 0.08372 0.0
C5366 C 0.69226 0.31775 0.08775 0.0
C5367 C 0.69242 0.31418 0.10102 0.0
C5368 C 0.70229 0.29365 0.09543 0.0
C5369 C 0.70449 0.29839 0.08265 0.0
N5370 N 0.6939 0.31031 0.06568 0.0
N5371 N 0.69758 0.29873 0.11775 0.0
C5372 C 0.69727 0.30916 0.07841 0.0
C5373 C 0.69723 0.30202 0.10492 0.0
N5374 N 0.68754 0.32945 0.08406 0.0
N5375 N 0.7042 0.28092 0.09823 0.0
H5376 H 0.6938 0.30449 0.12502 0.0
H5377 H 0.70245 0.29074 0.12129 0.0
H5378 H 0.70695 0.27433 0.09122 0.0
H5379 H 0.7016 0.27659 0.10701 0.0
H5380 H 0.68863 0.33322 0.07474 0.0
H5381 H 0.68325 0.33575 0.09055 0.0
H5382 H 0.68787 0.31746 0.06215 0.0
H5383 H 0.69536 0.30291 0.05909 0.0
C5384 C 0.68651 0.32381 0.92165 0.0
C5385 C 0.69283 0.3241 0.90949 0.0
C5386 C 0.70899 0.30893 0.91759 0.0
C5387 C 0.7017 0.30755 0.9293 0.0
N5388 N 0.68828 0.31883 0.94445 0.0
N5389 N 0.71062 0.31821 0.89585 0.0
C5390 C 0.69184 0.31653 0.93195 0.0
C5391 C 0.70433 0.3171 0.90749 0.0
N5392 N 0.67519 0.33021 0.92328 0.0
N5393 N 0.7206 0.30294 0.91643 0.0
H5394 H 0.70761 0.32434 0.88843 0.0
H5395 H 0.71868 0.313 0.89321 0.0
H5396 H 0.72503 0.29815 0.92407 0.0
H5397 H 0.72651 0.30335 0.90829 0.0
H5398 H 0.66933 0.32903 0.93144 0.0
H5399 H 0.67114 0.33596 0.91607 0.0
H5400 H 0.68188 0.32602 0.94703 0.0
H5401 H 0.69312 0.31492 0.95238 0.0
C5402 C 0.69357 0.70508 0.91214 0.0
C5403 C 0.6895 0.69193 0.91201 0.0
C5404 C 0.69937 0.68874 0.93336 0.0
C5405 C 0.70547 0.70118 0.93238 0.0
N5406 N 0.70397 0.72273 0.92277 0.0
N5407 N 0.68867 0.67093 0.92223 0.0
C5408 C 0.70127 0.7098 0.92247 0.0
C5409 C 0.69239 0.68368 0.92258 0.0
N5410 N 0.69022 0.71322 0.90227 0.0
N5411 N 0.69936 0.68222 0.9449 0.0
H5412 H 0.6831 0.66698 0.91475 0.0
H5413 H 0.69187 0.66409 0.92889 0.0
H5414 H 0.70288 0.68634 0.95343 0.0
H5415 H 0.69424 0.67357 0.9465 0.0
H5416 H 0.69316 0.72293 0.90197 0.0
H5417 H 0.68464 0.71026 0.89436 0.0
H5418 H 0.70862 0.72747 0.93039 0.0
H5419 H 0.70862 0.72747 0.93039 0.0
C5420 C 0.31859 0.69994 0.91657 0.0
C5421 C 0.31785 0.70293 0.90319 0.0
C5422 C 0.30345 0.72082 0.90793 0.0
C5423 C 0.30261 0.71655 0.92105 0.0
N5424 N 0.31585 0.70797 0.93823 0.0
N5425 N 0.30958 0.71609 0.88584 0.0
C5426 C 0.31199 0.70773 0.92559 0.0
C5427 C 0.31039 0.71344 0.8988 0.0
N5428 N 0.32541 0.68952 0.92066 0.0
N5429 N 0.29841 0.73244 0.90444 0.0
H5430 H 0.31488 0.71123 0.87887 0.0
H5431 H 0.30299 0.72248 0.88187 0.0
H5432 H 0.29405 0.73855 0.91103 0.0
H5433 H 0.29981 0.73674 0.89539 0.0
H5434 H 0.32504 0.68603 0.93015 0.0
H5435 H 0.33061 0.68374 0.91437 0.0
H5436 H 0.32329 0.70237 0.94188 0.0
H5437 H 0.31325 0.71535 0.94445 0.0
C5438 C 0.32087 0.31785 0.91877 0.0
C5439 C 0.31299 0.32167 0.90824 0.0
C5440 C 0.29356 0.31373 0.91982 0.0
C5441 C 0.30128 0.31177 0.93107 0.0
N5442 N 0.32231 0.3054 0.93864 0.0
N5443 N 0.29199 0.32285 0.89816 0.0
C5444 C 0.31499 0.31184 0.92978 0.0
C5445 C 0.29938 0.3193 0.90853 0.0
N5446 N 0.3339 0.32052 0.91853 0.0
N5447 N 0.28089 0.30959 0.9197 0.0
H5448 H 0.29596 0.32619 0.88944 0.0
H5449 H 0.28191 0.32313 0.89834 0.0
H5450 H 0.27648 0.30477 0.92745 0.0
H5451 H 0.27505 0.30961 0.91149 0.0
H5452 H 0.33988 0.31946 0.92657 0.0
H5453 H 0.33861 0.32469 0.91055 0.0
H5454 H 0.33226 0.30423 0.93769 0.0
H5455 H 0.31821 0.29967 0.94598 0.0
C5456 C 0.60556 0.69938 0.20702 0.0
C5457 C 0.60169 0.69626 0.19423 0.0
C5458 C 0.57945 0.70234 0.19935 0.0
C5459 C 0.58395 0.70787 0.21113 0.0
N5460 N 0.5987 0.70418 0.22882 0.0
N5461 N 0.58493 0.69455 0.17801 0.0
C5462 C 0.59627 0.70412 0.21582 0.0
C5463 C 0.5886 0.6976 0.19035 0.0
N5464 N 0.61826 0.69842 0.21061 0.0
N5465 N 0.56649 0.70015 0.19748 0.0
H5466 H 0.59121 0.69049 0.17133 0.0
H5467 H 0.57592 0.69683 0.17418 0.0
H5468 H 0.55976 0.70124 0.2049 0.0
H5469 H 0.56267 0.69532 0.18948 0.0
H5470 H 0.62192 0.70207 0.21927 0.0
H5471 H 0.62539 0.69486 0.20452 0.0
H5472 H 0.60703 0.7004 0.23293 0.0
H5473 H 0.5917 0.70655 0.23561 0.0
C5474 C 0.31147 0.60087 0.19777 0.0
C5475 C 0.32372 0.59908 0.19191 0.0
C5476 C 0.32256 0.57604 0.19759 0.0
C5477 C 0.31155 0.57839 0.20541 0.0
N5478 N 0.29207 0.59079 0.20682 0.0
N5479 N 0.34086 0.58503 0.18551 0.0
C5480 C 0.30488 0.59013 0.20363 0.0
C5481 C 0.32916 0.58662 0.19144 0.0
N5482 N 0.30644 0.61296 0.19837 0.0
N5483 N 0.32612 0.56361 0.19537 0.0
H5484 H 0.34562 0.59242 0.18034 0.0
H5485 H 0.34617 0.57663 0.18625 0.0
H5486 H 0.32062 0.55565 0.19862 0.0
H5487 H 0.33345 0.56111 0.189 0.0
H5488 H 0.2984 0.61515 0.20397 0.0
H5489 H 0.31082 0.62104 0.19398 0.0
H5490 H 0.2864 0.59871 0.20467 0.0
H5491 H 0.28669 0.5828 0.21014 0.0
C5492 C 0.40675 0.29888 0.19221 0.0
C5493 C 0.40702 0.31217 0.18884 0.0
C5494 C 0.42819 0.31478 0.19943 0.0
C5495 C 0.42674 0.30215 0.20486 0.0
N5496 N 0.41674 0.28077 0.20194 0.0
N5497 N 0.4178 0.33305 0.18932 0.0
C5498 C 0.41677 0.29378 0.19992 0.0
C5499 C 0.41773 0.32019 0.19241 0.0
N5500 N 0.39678 0.29096 0.1882 0.0
N5501 N 0.43989 0.32118 0.20012 0.0
H5502 H 0.41059 0.33726 0.18373 0.0
H5503 H 0.42453 0.3397 0.19303 0.0
H5504 H 0.4482 0.31686 0.2037 0.0
H5505 H 0.44185 0.32998 0.19549 0.0
H5506 H 0.39618 0.28116 0.19063 0.0
H5507 H 0.38907 0.29419 0.1826 0.0
H5508 H 0.42415 0.27583 0.20653 0.0
H5509 H 0.42415 0.27583 0.20653 0.0
C5510 C 0.69246 0.41343 0.1873 0.0
C5511 C 0.68508 0.40545 0.19589 0.0
C5512 C 0.69202 0.41908 0.21392 0.0
C5513 C 0.70181 0.42496 0.20603 0.0
N5514 N 0.71031 0.42867 0.18434 0.0
N5515 N 0.6789 0.39986 0.21781 0.0
C5516 C 0.70166 0.42251 0.19241 0.0
C5517 C 0.6851 0.40807 0.20932 0.0
N5518 N 0.69037 0.41257 0.17426 0.0
N5519 N 0.68875 0.42439 0.2255 0.0
H5520 H 0.67386 0.39152 0.21492 0.0
H5521 H 0.67981 0.40071 0.22782 0.0
H5522 H 0.69232 0.43338 0.22848 0.0
H5523 H 0.68104 0.42089 0.23114 0.0
H5524 H 0.69437 0.41903 0.16752 0.0
H5525 H 0.68364 0.4061 0.17023 0.0
H5526 H 0.71195 0.42581 0.17485 0.0
H5527 H 0.71628 0.43639 0.18712 0.0
C5528 C 0.58521 0.32334 0.81669 0.0
C5529 C 0.59593 0.31549 0.81958 0.0
C5530 C 0.5865 0.29801 0.80657 0.0
C5531 C 0.5766 0.30643 0.80227 0.0
N5532 N 0.5632 0.3241 0.80867 0.0
N5533 N 0.60632 0.29485 0.81829 0.0
C5534 C 0.57494 0.31825 0.80894 0.0
C5535 C 0.59635 0.30268 0.81492 0.0
N5536 N 0.58497 0.33574 0.82111 0.0
N5537 N 0.58662 0.2853 0.80329 0.0
H5538 H 0.61391 0.2978 0.82433 0.0
H5539 H 0.60703 0.28542 0.8149 0.0
H5540 H 0.57932 0.28055 0.79809 0.0
H5541 H 0.57932 0.28055 0.79809 0.0
H5542 H 0.57825 0.34244 0.81799 0.0
H5543 H 0.59204 0.33961 0.82728 0.0
H5544 H 0.56108 0.3322 0.81414 0.0
H5545 H 0.55499 0.31981 0.80447 0.0
C5546 C 0.69519 0.59514 0.80785 0.0
C5547 C 0.69905 0.59754 0.82079 0.0
C5548 C 0.71401 0.5794 0.8199 0.0
C5549 C 0.71124 0.57807 0.80643 0.0
N5550 N 0.69445 0.57986 0.79028 0.0
N5551 N 0.71141 0.59175 0.83965 0.0
C5552 C 0.70038 0.5845 0.80118 0.0
C5553 C 0.70813 0.58947 0.82702 0.0
N5554 N 0.68702 0.60339 0.80169 0.0
N5555 N 0.72161 0.5706 0.82604 0.0
H5556 H 0.70661 0.59834 0.84542 0.0
H5557 H 0.7192 0.58757 0.84435 0.0
H5558 H 0.72562 0.56274 0.82144 0.0
H5559 H 0.72304 0.57023 0.836 0.0
H5560 H 0.68516 0.60302 0.79178 0.0
H5561 H 0.68291 0.61127 0.80623 0.0
H5562 H 0.68589 0.58355 0.78659 0.0
H5563 H 0.69695 0.57116 0.78603 0.0
C5564 C 0.41618 0.67837 0.80139 0.0
C5565 C 0.40884 0.68357 0.81164 0.0
C5566 C 0.42353 0.70239 0.81212 0.0
C5567 C 0.43256 0.69583 0.80429 0.0
N5568 N 0.43649 0.67805 0.78972 0.0
N5569 N 0.4062 0.7001 0.82773 0.0
C5570 C 0.42855 0.68399 0.7983 0.0
C5571 C 0.41267 0.69549 0.81725 0.0
N5572 N 0.4111 0.66834 0.79432 0.0
N5573 N 0.42484 0.7154 0.81404 0.0
H5574 H 0.39823 0.69529 0.8319 0.0
H5575 H 0.4095 0.70809 0.83296 0.0
H5576 H 0.43163 0.72116 0.80906 0.0
H5577 H 0.41797 0.72073 0.81897 0.0
H5578 H 0.41525 0.66498 0.78584 0.0
H5579 H 0.40205 0.66407 0.79628 0.0
H5580 H 0.43504 0.66856 0.78667 0.0
H5581 H 0.4448 0.68241 0.78581 0.0
C5582 C 0.31407 0.41466 0.81757 0.0
C5583 C 0.32139 0.40732 0.80877 0.0
C5584 C 0.31507 0.42183 0.79123 0.0
C5585 C 0.3053 0.42707 0.79921 0.0
N5586 N 0.2966 0.42946 0.82089 0.0
N5587 N 0.32779 0.4031 0.78674 0.0
C5588 C 0.30519 0.42388 0.8127 0.0
C5589 C 0.32165 0.41071 0.79547 0.0
N5590 N 0.31591 0.41309 0.8306 0.0
N5591 N 0.31863 0.42784 0.77992 0.0
H5592 H 0.33258 0.39472 0.78936 0.0
H5593 H 0.32706 0.40451 0.77677 0.0
H5594 H 0.3153 0.43691 0.77727 0.0
H5595 H 0.32633 0.42481 0.77426 0.0
H5596 H 0.31196 0.41908 0.83754 0.0
H5597 H 0.32241 0.40652 0.83446 0.0
H5598 H 0.29474 0.42606 0.83024 0.0
H5599 H 0.29092 0.43724 0.81833 0.0
C5600 C 0.6858 0.59601 0.21111 0.0
C5601 C 0.68246 0.59635 0.19781 0.0
C5602 C 0.6926 0.57537 0.19481 0.0
C5603 C 0.69809 0.57631 0.20741 0.0
N5604 N 0.69526 0.5852 0.22901 0.0
N5605 N 0.68254 0.58643 0.17678 0.0
C5606 C 0.69328 0.58579 0.216 0.0
C5607 C 0.68574 0.58599 0.18961 0.0
N5608 N 0.68202 0.6056 0.21921 0.0
N5609 N 0.69312 0.56399 0.18823 0.0
H5610 H 0.677 0.59375 0.17274 0.0
H5611 H 0.68605 0.58 0.16999 0.0
H5612 H 0.69664 0.55557 0.19241 0.0
H5613 H 0.68845 0.56237 0.17944 0.0
H5614 H 0.68445 0.60574 0.22902 0.0
H5615 H 0.6766 0.61344 0.21614 0.0
H5616 H 0.69971 0.57757 0.23378 0.0
H5617 H 0.69971 0.57757 0.23378 0.0
C5618 C 0.70425 0.40278 0.80528 0.0
C5619 C 0.69229 0.40727 0.81006 0.0
C5620 C 0.69913 0.42953 0.80493 0.0
C5621 C 0.7097 0.42475 0.7977 0.0
N5622 N 0.72599 0.40842 0.7981 0.0
N5623 N 0.67821 0.42492 0.81476 0.0
C5624 C 0.71343 0.41181 0.80004 0.0
C5625 C 0.68972 0.42067 0.81007 0.0
N5626 N 0.70659 0.38983 0.80516 0.0
N5627 N 0.69893 0.44228 0.80818 0.0
H5628 H 0.6713 0.41877 0.8191 0.0
H5629 H 0.67518 0.43439 0.81357 0.0
H5630 H 0.70688 0.44849 0.8066 0.0
H5631 H 0.69195 0.44617 0.8142 0.0
H5632 H 0.71441 0.38588 0.80033 0.0
H5633 H 0.70022 0.3829 0.80912 0.0
H5634 H 0.72962 0.39948 0.80078 0.0
H5635 H 0.73317 0.41509 0.79524 0.0
C5636 C 0.58771 0.68455 0.82099 0.0
C5637 C 0.60044 0.68624 0.81602 0.0
C5638 C 0.59302 0.70333 0.80143 0.0
C5639 C 0.5808 0.70306 0.80784 0.0
N5640 N 0.56493 0.68925 0.81858 0.0
N5641 N 0.61565 0.69764 0.8021 0.0
C5642 C 0.57764 0.69244 0.81617 0.0
C5643 C 0.60319 0.69566 0.80631 0.0
N5644 N 0.58533 0.67565 0.8306 0.0
N5645 N 0.59463 0.71012 0.79014 0.0
H5646 H 0.62335 0.69204 0.80519 0.0
H5647 H 0.61854 0.70547 0.79632 0.0
H5648 H 0.58711 0.71488 0.78556 0.0
H5649 H 0.6029 0.70968 0.7844 0.0
H5650 H 0.57668 0.67505 0.83579 0.0
H5651 H 0.59235 0.66939 0.83403 0.0
H5652 H 0.56192 0.68103 0.82372 0.0
H5653 H 0.55729 0.69381 0.81395 0.0
C5654 C 0.30859 0.58884 0.81743 0.0
C5655 C 0.30409 0.60166 0.81703 0.0
C5656 C 0.28814 0.59548 0.80055 0.0
C5657 C 0.29364 0.58297 0.79981 0.0
N5658 N 0.30304 0.56649 0.81334 0.0
N5659 N 0.28849 0.61696 0.80929 0.0
C5660 C 0.30222 0.57919 0.80988 0.0
C5661 C 0.29348 0.60484 0.80903 0.0
N5662 N 0.31903 0.58586 0.82492 0.0
N5663 N 0.27755 0.59874 0.79349 0.0
H5664 H 0.29204 0.62425 0.81534 0.0
H5665 H 0.28078 0.6197 0.80341 0.0
H5666 H 0.27234 0.5924 0.78754 0.0
H5667 H 0.27234 0.5924 0.78754 0.0
H5668 H 0.32358 0.577 0.82443 0.0
H5669 H 0.32371 0.59258 0.8309 0.0
H5670 H 0.30853 0.56331 0.82116 0.0
H5671 H 0.29648 0.5595 0.80998 0.0
C5672 C 0.41879 0.31015 0.8135 0.0
C5673 C 0.40542 0.30681 0.81282 0.0
C5674 C 0.40997 0.29071 0.79623 0.0
C5675 C 0.42301 0.29547 0.79549 0.0
N5676 N 0.44051 0.30324 0.80909 0.0
N5677 N 0.38797 0.2941 0.80351 0.0
C5678 C 0.42773 0.30342 0.80571 0.0
C5679 C 0.40094 0.29702 0.80428 0.0
N5680 N 0.42296 0.3199 0.82142 0.0
N5681 N 0.40647 0.27958 0.78995 0.0
H5682 H 0.38109 0.29819 0.80953 0.0
H5683 H 0.3839 0.28831 0.7963 0.0
H5684 H 0.41302 0.27419 0.78469 0.0
H5685 H 0.39752 0.27488 0.79112 0.0
H5686 H 0.43238 0.32375 0.82116 0.0
H5687 H 0.41675 0.32485 0.82751 0.0
H5688 H 0.44433 0.30817 0.81703 0.0
H5689 H 0.44677 0.29641 0.80544 0.0
C5690 C 0.31703 0.41851 0.19755 0.0
C5691 C 0.31619 0.4054 0.20155 0.0
C5692 C 0.30098 0.4111 0.21873 0.0
C5693 C 0.30031 0.42383 0.21345 0.0
N5694 N 0.31385 0.44063 0.2038 0.0
N5695 N 0.30727 0.38889 0.21575 0.0
C5696 C 0.31005 0.42792 0.20448 0.0
C5697 C 0.30824 0.40163 0.21219 0.0
N5698 N 0.32433 0.42198 0.187 0.0
N5699 N 0.29544 0.40834 0.23047 0.0
H5700 H 0.31273 0.38171 0.21149 0.0
H5701 H 0.30038 0.38526 0.22227 0.0
H5702 H 0.29078 0.41523 0.23598 0.0
H5703 H 0.29668 0.39969 0.23547 0.0
H5704 H 0.32408 0.43113 0.18276 0.0
H5705 H 0.32983 0.41541 0.18186 0.0
H5706 H 0.32151 0.44403 0.19806 0.0
H5707 H 0.31094 0.44732 0.21063 0.0
C5708 C 0.60193 0.29428 0.19825 0.0
C5709 C 0.59811 0.30474 0.19032 0.0
C5710 C 0.57582 0.3019 0.19815 0.0
C5711 C 0.5802 0.29347 0.20811 0.0
N5712 N 0.59686 0.27815 0.21404 0.0
N5713 N 0.58148 0.319 0.18292 0.0
C5714 C 0.59296 0.28856 0.20704 0.0
C5715 C 0.58507 0.30869 0.19031 0.0
N5716 N 0.61427 0.28979 0.19759 0.0
N5717 N 0.56298 0.30219 0.19504 0.0
H5718 H 0.5879 0.324 0.17678 0.0
H5719 H 0.5724 0.32315 0.18366 0.0
H5720 H 0.55633 0.29533 0.19859 0.0
H5721 H 0.55939 0.30756 0.18732 0.0
H5722 H 0.61747 0.28221 0.2034 0.0
H5723 H 0.62127 0.29361 0.19127 0.0
H5724 H 0.59087 0.27269 0.22022 0.0
H5725 H 0.59087 0.27269 0.22022 0.0
C5726 C 0.41017 0.70121 0.19531 0.0
C5727 C 0.41073 0.69939 0.18175 0.0
C5728 C 0.43301 0.70811 0.1815 0.0
C5729 C 0.43135 0.71245 0.1944 0.0
N5730 N 0.42036 0.70794 0.21486 0.0
N5731 N 0.42278 0.70051 0.16176 0.0
C5732 C 0.42068 0.70738 0.20171 0.0
C5733 C 0.42225 0.70253 0.17481 0.0
N5734 N 0.39946 0.69729 0.20219 0.0
N5735 N 0.44505 0.70858 0.17599 0.0
H5736 H 0.41533 0.69585 0.15665 0.0
H5737 H 0.43026 0.70408 0.15589 0.0
H5738 H 0.45333 0.7113 0.18118 0.0
H5739 H 0.44711 0.70468 0.16698 0.0
H5740 H 0.39866 0.69868 0.21216 0.0
H5741 H 0.39142 0.69274 0.19795 0.0
H5742 H 0.42803 0.71133 0.22055 0.0
H5743 H 0.42803 0.71133 0.22055 0.0
loop_
_geom_bond_atom_site_label_1
_geom_bond_atom_site_label_2
_geom_bond_distance
_geom_bond_site_symmetry_2
_ccdc_geom_bond_type
C0 C1 1.264 . S
C0 C5 1.479 . S
C0 C10 1.465 . S
C1 C0 1.264 . S
C1 C3 1.339 . S
C1 H28 0.931 . S
C2 C3 1.395 . S
C2 C4 1.320 . S
C3 C1 1.339 . S
C3 C2 1.395 . S
C3 H29 0.929 . S
C4 C2 1.320 . S
C4 C5 1.405 . S
C4 H30 0.930 . S
C5 C0 1.479 . S
C5 C4 1.405 . S
C5 H31 0.931 . S
U6 O7 2.454 . S
U6 O8 2.458 . S
U6 C9 2.984 . S
U6 C10 2.847 . S
U6 C23 2.882 . S
U6 O24 2.441 . S
U6 O25 2.420 . S
U6 O26 2.455 . S
U6 O27 2.449 . S
O7 U6 2.454 . S
O7 C9 1.353 . S
O8 U6 2.458 . S
O8 C9 1.286 . S
C9 U6 2.984 . S
C9 O7 1.353 . S
C9 O8 1.286 . S
C9 C11 1.363 . S
C10 C0 1.465 . S
C10 U6 2.847 . S
C10 O24 1.249 . S
C10 O25 1.202 . S
C11 C9 1.363 . S
C11 C13 1.408 . S
C11 C16 1.342 . S
C12 C13 1.310 . S
C12 C15 1.461 . S
C12 H32 0.932 . S
C13 C11 1.408 . S
C13 C12 1.310 . S
C13 H33 0.930 . S
C14 C15 1.474 . S
C14 C16 1.285 . S
C14 H34 0.929 . S
C15 C12 1.461 . S
C15 C14 1.474 . S
C16 C11 1.342 . S
C16 C14 1.285 . S
C16 H35 0.930 . S
C17 C20 1.424 . S
C17 C22 1.245 . S
C17 C23 1.428 . S
C18 C21 1.260 . S
C18 C22 1.477 . S
C18 H36 0.932 . S
C19 C20 1.384 . S
C19 C21 1.479 . S
C19 H37 0.929 . S
C20 C17 1.424 . S
C20 C19 1.384 . S
C20 H38 0.928 . S
C21 C18 1.260 . S
C21 C19 1.479 . S
C22 C17 1.245 . S
C22 C18 1.477 . S
C22 H39 0.932 . S
C23 U6 2.882 . S
C23 C17 1.428 . S
C23 O26 1.301 . S
C23 O27 1.282 . S
O24 U6 2.441 . S
O24 C10 1.249 . S
O25 U6 2.420 . S
O25 C10 1.202 . S
O26 U6 2.455 . S
O26 C23 1.301 . S
O27 U6 2.449 . S
O27 C23 1.282 . S
H28 C1 0.931 . S
H29 C3 0.929 . S
H30 C4 0.930 . S
H31 C5 0.931 . S
H32 C12 0.932 . S
H33 C13 0.930 . S
H34 C14 0.929 . S
H35 C16 0.930 . S
H36 C18 0.932 . S
H37 C19 0.929 . S
H38 C20 0.928 . S
H39 C22 0.932 . S
C40 C41 1.264 . S
C40 C45 1.479 . S
C40 C50 1.465 . S
C41 C40 1.264 . S
C41 C43 1.339 . S
C41 H68 0.931 . S
C42 C43 1.395 . S
C42 C44 1.320 . S
C43 C41 1.339 . S
C43 C42 1.395 . S
C43 H69 0.929 . S
C44 C42 1.320 . S
C44 C45 1.405 . S
C44 H70 0.930 . S
C45 C40 1.479 . S
C45 C44 1.405 . S
C45 H71 0.931 . S
U46 O47 2.454 . S
U46 O48 2.458 . S
U46 C49 2.984 . S
U46 C50 2.847 . S
U46 C63 2.882 . S
U46 O64 2.441 . S
U46 O65 2.420 . S
U46 O66 2.455 . S
U46 O67 2.449 . S
O47 U46 2.454 . S
O47 C49 1.353 . S
O48 U46 2.458 . S
O48 C49 1.286 . S
C49 U46 2.984 . S
C49 O47 1.353 . S
C49 O48 1.286 . S
C49 C51 1.363 . S
C50 C40 1.465 . S
C50 U46 2.847 . S
C50 O64 1.249 . S
C50 O65 1.202 . S
C51 C49 1.363 . S
C51 C53 1.408 . S
C51 C56 1.342 . S
C52 C53 1.310 . S
C52 C55 1.461 . S
C52 H72 0.932 . S
C53 C51 1.408 . S
C53 C52 1.310 . S
C53 H73 0.930 . S
C54 C55 1.474 . S
C54 C56 1.285 . S
C54 H74 0.929 . S
C55 C52 1.461 . S
C55 C54 1.474 . S
C56 C51 1.342 . S
C56 C54 1.285 . S
C56 H75 0.930 . S
C57 C60 1.424 . S
C57 C62 1.245 . S
C57 C63 1.428 . S
C58 C61 1.260 . S
C58 C62 1.477 . S
C58 H76 0.932 . S
C59 C60 1.384 . S
C59 C61 1.479 . S
C59 H77 0.929 . S
C60 C57 1.424 . S
C60 C59 1.384 . S
C60 H78 0.928 . S
C61 C58 1.260 . S
C61 C59 1.479 . S
C62 C57 1.245 . S
C62 C58 1.477 . S
C62 H79 0.932 . S
C63 U46 2.882 . S
C63 C57 1.428 . S
C63 O66 1.301 . S
C63 O67 1.282 . S
O64 U46 2.441 . S
O64 C50 1.249 . S
O65 U46 2.420 . S
O65 C50 1.202 . S
O66 U46 2.455 . S
O66 C63 1.301 . S
O67 U46 2.449 . S
O67 C63 1.282 . S
H68 C41 0.931 . S
H69 C43 0.929 . S
H70 C44 0.930 . S
H71 C45 0.931 . S
H72 C52 0.932 . S
H73 C53 0.930 . S
H74 C54 0.929 . S
H75 C56 0.930 . S
H76 C58 0.932 . S
H77 C59 0.929 . S
H78 C60 0.928 . S
H79 C62 0.932 . S
C80 C81 1.264 . S
C80 C85 1.479 . S
C80 C90 1.465 . S
C81 C80 1.264 . S
C81 C83 1.339 . S
C81 H108 0.931 . S
C82 C83 1.395 . S
C82 C84 1.320 . S
C83 C81 1.339 . S
C83 C82 1.395 . S
C83 H109 0.929 . S
C84 C82 1.320 . S
C84 C85 1.405 . S
C84 H110 0.930 . S
C85 C80 1.479 . S
C85 C84 1.405 . S
C85 H111 0.931 . S
U86 O87 2.454 . S
U86 O88 2.458 . S
U86 C89 2.984 . S
U86 C90 2.847 . S
U86 C103 2.882 . S
U86 O104 2.441 . S
U86 O105 2.420 . S
U86 O106 2.455 . S
U86 O107 2.449 . S
O87 U86 2.454 . S
O87 C89 1.353 . S
O88 U86 2.458 . S
O88 C89 1.286 . S
C89 U86 2.984 . S
C89 O87 1.353 . S
C89 O88 1.286 . S
C89 C91 1.363 . S
C90 C80 1.465 . S
C90 U86 2.847 . S
C90 O104 1.249 . S
C90 O105 1.202 . S
C91 C89 1.363 . S
C91 C93 1.408 . S
C91 C96 1.342 . S
C92 C93 1.310 . S
C92 C95 1.461 . S
C92 H112 0.932 . S
C93 C91 1.408 . S
C93 C92 1.310 . S
C93 H113 0.930 . S
C94 C95 1.474 . S
C94 C96 1.285 . S
C94 H114 0.929 . S
C95 C92 1.461 . S
C95 C94 1.474 . S
C96 C91 1.342 . S
C96 C94 1.285 . S
C96 H115 0.930 . S
C97 C100 1.424 . S
C97 C102 1.245 . S
C97 C103 1.428 . S
C98 C101 1.260 . S
C98 C102 1.477 . S
C98 H116 0.932 . S
C99 C100 1.384 . S
C99 C101 1.479 . S
C99 H117 0.929 . S
C100 C97 1.424 . S
C100 C99 1.384 . S
C100 H118 0.928 . S
C101 C98 1.260 . S
C101 C99 1.479 . S
C102 C97 1.245 . S
C102 C98 1.477 . S
C102 H119 0.932 . S
C103 U86 2.882 . S
C103 C97 1.428 . S
C103 O106 1.301 . S
C103 O107 1.282 . S
O104 U86 2.441 . S
O104 C90 1.249 . S
O105 U86 2.420 . S
O105 C90 1.202 . S
O106 U86 2.455 . S
O106 C103 1.301 . S
O107 U86 2.449 . S
O107 C103 1.282 . S
H108 C81 0.931 . S
H109 C83 0.929 . S
H110 C84 0.930 . S
H111 C85 0.931 . S
H112 C92 0.932 . S
H113 C93 0.930 . S
H114 C94 0.929 . S
H115 C96 0.930 . S
H116 C98 0.932 . S
H117 C99 0.929 . S
H118 C100 0.928 . S
H119 C102 0.932 . S
C120 C121 1.264 . S
C120 C125 1.479 . S
C120 C130 1.465 . S
C121 C120 1.264 . S
C121 C123 1.339 . S
C121 H148 0.931 . S
C122 C123 1.395 . S
C122 C124 1.320 . S
C123 C121 1.339 . S
C123 C122 1.395 . S
C123 H149 0.929 . S
C124 C122 1.320 . S
C124 C125 1.405 . S
C124 H150 0.930 . S
C125 C120 1.479 . S
C125 C124 1.405 . S
C125 H151 0.931 . S
U126 O127 2.454 . S
U126 O128 2.458 . S
U126 C129 2.984 . S
U126 C130 2.847 . S
U126 C143 2.882 . S
U126 O144 2.441 . S
U126 O145 2.420 . S
U126 O146 2.455 . S
U126 O147 2.449 . S
O127 U126 2.454 . S
O127 C129 1.353 . S
O128 U126 2.458 . S
O128 C129 1.286 . S
C129 U126 2.984 . S
C129 O127 1.353 . S
C129 O128 1.286 . S
C129 C131 1.363 . S
C130 C120 1.465 . S
C130 U126 2.847 . S
C130 O144 1.249 . S
C130 O145 1.202 . S
C131 C129 1.363 . S
C131 C133 1.408 . S
C131 C136 1.342 . S
C132 C133 1.310 . S
C132 C135 1.461 . S
C132 H152 0.932 . S
C133 C131 1.408 . S
C133 C132 1.310 . S
C133 H153 0.930 . S
C134 C135 1.474 . S
C134 C136 1.285 . S
C134 H154 0.929 . S
C135 C132 1.461 . S
C135 C134 1.474 . S
C136 C131 1.342 . S
C136 C134 1.285 . S
C136 H155 0.930 . S
C137 C140 1.424 . S
C137 C142 1.245 . S
C137 C143 1.428 . S
C138 C141 1.260 . S
C138 C142 1.477 . S
C138 H156 0.932 . S
C139 C140 1.384 . S
C139 C141 1.479 . S
C139 H157 0.929 . S
C140 C137 1.424 . S
C140 C139 1.384 . S
C140 H158 0.928 . S
C141 C138 1.260 . S
C141 C139 1.479 . S
C142 C137 1.245 . S
C142 C138 1.477 . S
C142 H159 0.932 . S
C143 U126 2.882 . S
C143 C137 1.428 . S
C143 O146 1.301 . S
C143 O147 1.282 . S
O144 U126 2.441 . S
O144 C130 1.249 . S
O145 U126 2.420 . S
O145 C130 1.202 . S
O146 U126 2.455 . S
O146 C143 1.301 . S
O147 U126 2.449 . S
O147 C143 1.282 . S
H148 C121 0.931 . S
H149 C123 0.929 . S
H150 C124 0.930 . S
H151 C125 0.931 . S
H152 C132 0.932 . S
H153 C133 0.930 . S
H154 C134 0.929 . S
H155 C136 0.930 . S
H156 C138 0.932 . S
H157 C139 0.929 . S
H158 C140 0.928 . S
H159 C142 0.932 . S
C160 C161 1.264 . S
C160 C165 1.479 . S
C160 C170 1.465 . S
C161 C160 1.264 . S
C161 C163 1.339 . S
C161 H188 0.931 . S
C162 C163 1.395 . S
C162 C164 1.320 . S
C163 C161 1.339 . S
C163 C162 1.395 . S
C163 H189 0.929 . S
C164 C162 1.320 . S
C164 C165 1.405 . S
C164 H190 0.930 . S
C165 C160 1.479 . S
C165 C164 1.405 . S
C165 H191 0.931 . S
U166 O167 2.454 . S
U166 O168 2.458 . S
U166 C169 2.984 . S
U166 C170 2.847 . S
U166 C183 2.882 . S
U166 O184 2.441 . S
U166 O185 2.420 . S
U166 O186 2.455 . S
U166 O187 2.449 . S
O167 U166 2.454 . S
O167 C169 1.353 . S
O168 U166 2.458 . S
O168 C169 1.286 . S
C169 U166 2.984 . S
C169 O167 1.353 . S
C169 O168 1.286 . S
C169 C171 1.363 . S
C170 C160 1.465 . S
C170 U166 2.847 . S
C170 O184 1.249 . S
C170 O185 1.202 . S
C171 C169 1.363 . S
C171 C173 1.408 . S
C171 C176 1.342 . S
C172 C173 1.310 . S
C172 C175 1.461 . S
C172 H192 0.932 . S
C173 C171 1.408 . S
C173 C172 1.310 . S
C173 H193 0.930 . S
C174 C175 1.474 . S
C174 C176 1.285 . S
C174 H194 0.929 . S
C175 C172 1.461 . S
C175 C174 1.474 . S
C176 C171 1.342 . S
C176 C174 1.285 . S
C176 H195 0.930 . S
C177 C180 1.424 . S
C177 C182 1.245 . S
C177 C183 1.428 . S
C178 C181 1.260 . S
C178 C182 1.477 . S
C178 H196 0.932 . S
C179 C180 1.384 . S
C179 C181 1.479 . S
C179 H197 0.929 . S
C180 C177 1.424 . S
C180 C179 1.384 . S
C180 H198 0.928 . S
C181 C178 1.260 . S
C181 C179 1.479 . S
C182 C177 1.245 . S
C182 C178 1.477 . S
C182 H199 0.932 . S
C183 U166 2.882 . S
C183 C177 1.428 . S
C183 O186 1.301 . S
C183 O187 1.282 . S
O184 U166 2.441 . S
O184 C170 1.249 . S
O185 U166 2.420 . S
O185 C170 1.202 . S
O186 U166 2.455 . S
O186 C183 1.301 . S
O187 U166 2.449 . S
O187 C183 1.282 . S
H188 C161 0.931 . S
H189 C163 0.929 . S
H190 C164 0.930 . S
H191 C165 0.931 . S
H192 C172 0.932 . S
H193 C173 0.930 . S
H194 C174 0.929 . S
H195 C176 0.930 . S
H196 C178 0.932 . S
H197 C179 0.929 . S
H198 C180 0.928 . S
H199 C182 0.932 . S
C200 C201 1.264 . S
C200 C205 1.479 . S
C200 C210 1.465 . S
C201 C200 1.264 . S
C201 C203 1.339 . S
C201 H228 0.931 . S
C202 C203 1.395 . S
C202 C204 1.320 . S
C203 C201 1.339 . S
C203 C202 1.395 . S
C203 H229 0.929 . S
C204 C202 1.320 . S
C204 C205 1.405 . S
C204 H230 0.930 . S
C205 C200 1.479 . S
C205 C204 1.405 . S
C205 H231 0.931 . S
U206 O207 2.454 . S
U206 O208 2.458 . S
U206 C209 2.984 . S
U206 C210 2.847 . S
U206 C223 2.882 . S
U206 O224 2.441 . S
U206 O225 2.420 . S
U206 O226 2.455 . S
U206 O227 2.449 . S
O207 U206 2.454 . S
O207 C209 1.353 . S
O208 U206 2.458 . S
O208 C209 1.286 . S
C209 U206 2.984 . S
C209 O207 1.353 . S
C209 O208 1.286 . S
C209 C211 1.363 . S
C210 C200 1.465 . S
C210 U206 2.847 . S
C210 O224 1.249 . S
C210 O225 1.202 . S
C211 C209 1.363 . S
C211 C213 1.408 . S
C211 C216 1.342 . S
C212 C213 1.310 . S
C212 C215 1.461 . S
C212 H232 0.932 . S
C213 C211 1.408 . S
C213 C212 1.310 . S
C213 H233 0.930 . S
C214 C215 1.474 . S
C214 C216 1.285 . S
C214 H234 0.929 . S
C215 C212 1.461 . S
C215 C214 1.474 . S
C216 C211 1.342 . S
C216 C214 1.285 . S
C216 H235 0.930 . S
C217 C220 1.424 . S
C217 C222 1.245 . S
C217 C223 1.428 . S
C218 C221 1.260 . S
C218 C222 1.477 . S
C218 H236 0.932 . S
C219 C220 1.384 . S
C219 C221 1.479 . S
C219 H237 0.929 . S
C220 C217 1.424 . S
C220 C219 1.384 . S
C220 H238 0.928 . S
C221 C218 1.260 . S
C221 C219 1.479 . S
C222 C217 1.245 . S
C222 C218 1.477 . S
C222 H239 0.932 . S
C223 U206 2.882 . S
C223 C217 1.428 . S
C223 O226 1.301 . S
C223 O227 1.282 . S
O224 U206 2.441 . S
O224 C210 1.249 . S
O225 U206 2.420 . S
O225 C210 1.202 . S
O226 U206 2.455 . S
O226 C223 1.301 . S
O227 U206 2.449 . S
O227 C223 1.282 . S
H228 C201 0.931 . S
H229 C203 0.929 . S
H230 C204 0.930 . S
H231 C205 0.931 . S
H232 C212 0.932 . S
H233 C213 0.930 . S
H234 C214 0.929 . S
H235 C216 0.930 . S
H236 C218 0.932 . S
H237 C219 0.929 . S
H238 C220 0.928 . S
H239 C222 0.932 . S
C240 C241 1.264 . S
C240 C245 1.479 . S
C240 C250 1.465 . S
C241 C240 1.264 . S
C241 C243 1.339 . S
C241 H268 0.931 . S
C242 C243 1.395 . S
C242 C244 1.320 . S
C243 C241 1.339 . S
C243 C242 1.395 . S
C243 H269 0.929 . S
C244 C242 1.320 . S
C244 C245 1.405 . S
C244 H270 0.930 . S
C245 C240 1.479 . S
C245 C244 1.405 . S
C245 H271 0.931 . S
U246 O247 2.454 . S
U246 O248 2.458 . S
U246 C249 2.984 . S
U246 C250 2.847 . S
U246 C263 2.882 . S
U246 O264 2.441 . S
U246 O265 2.420 . S
U246 O266 2.455 . S
U246 O267 2.449 . S
O247 U246 2.454 . S
O247 C249 1.353 . S
O248 U246 2.458 . S
O248 C249 1.286 . S
C249 U246 2.984 . S
C249 O247 1.353 . S
C249 O248 1.286 . S
C249 C251 1.363 . S
C250 C240 1.465 . S
C250 U246 2.847 . S
C250 O264 1.249 . S
C250 O265 1.202 . S
C251 C249 1.363 . S
C251 C253 1.408 . S
C251 C256 1.342 . S
C252 C253 1.310 . S
C252 C255 1.461 . S
C252 H272 0.932 . S
C253 C251 1.408 . S
C253 C252 1.310 . S
C253 H273 0.930 . S
C254 C255 1.474 . S
C254 C256 1.285 . S
C254 H274 0.929 . S
C255 C252 1.461 . S
C255 C254 1.474 . S
C256 C251 1.342 . S
C256 C254 1.285 . S
C256 H275 0.930 . S
C257 C260 1.424 . S
C257 C262 1.245 . S
C257 C263 1.428 . S
C258 C261 1.260 . S
C258 C262 1.477 . S
C258 H276 0.932 . S
C259 C260 1.384 . S
C259 C261 1.479 . S
C259 H277 0.929 . S
C260 C257 1.424 . S
C260 C259 1.384 . S
C260 H278 0.928 . S
C261 C258 1.260 . S
C261 C259 1.479 . S
C262 C257 1.245 . S
C262 C258 1.477 . S
C262 H279 0.932 . S
C263 U246 2.882 . S
C263 C257 1.428 . S
C263 O266 1.301 . S
C263 O267 1.282 . S
O264 U246 2.441 . S
O264 C250 1.249 . S
O265 U246 2.420 . S
O265 C250 1.202 . S
O266 U246 2.455 . S
O266 C263 1.301 . S
O267 U246 2.449 . S
O267 C263 1.282 . S
H268 C241 0.931 . S
H269 C243 0.929 . S
H270 C244 0.930 . S
H271 C245 0.931 . S
H272 C252 0.932 . S
H273 C253 0.930 . S
H274 C254 0.929 . S
H275 C256 0.930 . S
H276 C258 0.932 . S
H277 C259 0.929 . S
H278 C260 0.928 . S
H279 C262 0.932 . S
C280 C281 1.264 . S
C280 C285 1.479 . S
C280 C290 1.465 . S
C281 C280 1.264 . S
C281 C283 1.339 . S
C281 H308 0.931 . S
C282 C283 1.395 . S
C282 C284 1.320 . S
C283 C281 1.339 . S
C283 C282 1.395 . S
C283 H309 0.929 . S
C284 C282 1.320 . S
C284 C285 1.405 . S
C284 H310 0.930 . S
C285 C280 1.479 . S
C285 C284 1.405 . S
C285 H311 0.931 . S
U286 O287 2.454 . S
U286 O288 2.458 . S
U286 C289 2.984 . S
U286 C290 2.847 . S
U286 C303 2.882 . S
U286 O304 2.441 . S
U286 O305 2.420 . S
U286 O306 2.455 . S
U286 O307 2.449 . S
O287 U286 2.454 . S
O287 C289 1.353 . S
O288 U286 2.458 . S
O288 C289 1.286 . S
C289 U286 2.984 . S
C289 O287 1.353 . S
C289 O288 1.286 . S
C289 C291 1.363 . S
C290 C280 1.465 . S
C290 U286 2.847 . S
C290 O304 1.249 . S
C290 O305 1.202 . S
C291 C289 1.363 . S
C291 C293 1.408 . S
C291 C296 1.342 . S
C292 C293 1.310 . S
C292 C295 1.461 . S
C292 H312 0.932 . S
C293 C291 1.408 . S
C293 C292 1.310 . S
C293 H313 0.930 . S
C294 C295 1.474 . S
C294 C296 1.285 . S
C294 H314 0.929 . S
C295 C292 1.461 . S
C295 C294 1.474 . S
C296 C291 1.342 . S
C296 C294 1.285 . S
C296 H315 0.930 . S
C297 C300 1.424 . S
C297 C302 1.245 . S
C297 C303 1.428 . S
C298 C301 1.260 . S
C298 C302 1.477 . S
C298 H316 0.932 . S
C299 C300 1.384 . S
C299 C301 1.479 . S
C299 H317 0.929 . S
C300 C297 1.424 . S
C300 C299 1.384 . S
C300 H318 0.928 . S
C301 C298 1.260 . S
C301 C299 1.479 . S
C302 C297 1.245 . S
C302 C298 1.477 . S
C302 H319 0.932 . S
C303 U286 2.882 . S
C303 C297 1.428 . S
C303 O306 1.301 . S
C303 O307 1.282 . S
O304 U286 2.441 . S
O304 C290 1.249 . S
O305 U286 2.420 . S
O305 C290 1.202 . S
O306 U286 2.455 . S
O306 C303 1.301 . S
O307 U286 2.449 . S
O307 C303 1.282 . S
H308 C281 0.931 . S
H309 C283 0.929 . S
H310 C284 0.930 . S
H311 C285 0.931 . S
H312 C292 0.932 . S
H313 C293 0.930 . S
H314 C294 0.929 . S
H315 C296 0.930 . S
H316 C298 0.932 . S
H317 C299 0.929 . S
H318 C300 0.928 . S
H319 C302 0.932 . S
C320 C321 1.264 . S
C320 C325 1.479 . S
C320 C330 1.465 . S
C321 C320 1.264 . S
C321 C323 1.339 . S
C321 H348 0.931 . S
C322 C323 1.395 . S
C322 C324 1.320 . S
C323 C321 1.339 . S
C323 C322 1.395 . S
C323 H349 0.929 . S
C324 C322 1.320 . S
C324 C325 1.405 . S
C324 H350 0.930 . S
C325 C320 1.479 . S
C325 C324 1.405 . S
C325 H351 0.931 . S
U326 O327 2.454 . S
U326 O328 2.458 . S
U326 C329 2.984 . S
U326 C330 2.847 . S
U326 C343 2.882 . S
U326 O344 2.441 . S
U326 O345 2.420 . S
U326 O346 2.455 . S
U326 O347 2.449 . S
O327 U326 2.454 . S
O327 C329 1.353 . S
O328 U326 2.458 . S
O328 C329 1.286 . S
C329 U326 2.984 . S
C329 O327 1.353 . S
C329 O328 1.286 . S
C329 C331 1.363 . S
C330 C320 1.465 . S
C330 U326 2.847 . S
C330 O344 1.249 . S
C330 O345 1.202 . S
C331 C329 1.363 . S
C331 C333 1.408 . S
C331 C336 1.342 . S
C332 C333 1.310 . S
C332 C335 1.461 . S
C332 H352 0.932 . S
C333 C331 1.408 . S
C333 C332 1.310 . S
C333 H353 0.930 . S
C334 C335 1.474 . S
C334 C336 1.285 . S
C334 H354 0.929 . S
C335 C332 1.461 . S
C335 C334 1.474 . S
C336 C331 1.342 . S
C336 C334 1.285 . S
C336 H355 0.930 . S
C337 C340 1.424 . S
C337 C342 1.245 . S
C337 C343 1.428 . S
C338 C341 1.260 . S
C338 C342 1.477 . S
C338 H356 0.932 . S
C339 C340 1.384 . S
C339 C341 1.479 . S
C339 H357 0.929 . S
C340 C337 1.424 . S
C340 C339 1.384 . S
C340 H358 0.928 . S
C341 C338 1.260 . S
C341 C339 1.479 . S
C342 C337 1.245 . S
C342 C338 1.477 . S
C342 H359 0.932 . S
C343 U326 2.882 . S
C343 C337 1.428 . S
C343 O346 1.301 . S
C343 O347 1.282 . S
O344 U326 2.441 . S
O344 C330 1.249 . S
O345 U326 2.420 . S
O345 C330 1.202 . S
O346 U326 2.455 . S
O346 C343 1.301 . S
O347 U326 2.449 . S
O347 C343 1.282 . S
H348 C321 0.931 . S
H349 C323 0.929 . S
H350 C324 0.930 . S
H351 C325 0.931 . S
H352 C332 0.932 . S
H353 C333 0.930 . S
H354 C334 0.929 . S
H355 C336 0.930 . S
H356 C338 0.932 . S
H357 C339 0.929 . S
H358 C340 0.928 . S
H359 C342 0.932 . S
C360 C361 1.264 . S
C360 C365 1.479 . S
C360 C370 1.465 . S
C361 C360 1.264 . S
C361 C363 1.339 . S
C361 H388 0.931 . S
C362 C363 1.395 . S
C362 C364 1.320 . S
C363 C361 1.339 . S
C363 C362 1.395 . S
C363 H389 0.929 . S
C364 C362 1.320 . S
C364 C365 1.405 . S
C364 H390 0.930 . S
C365 C360 1.479 . S
C365 C364 1.405 . S
C365 H391 0.931 . S
U366 O367 2.454 . S
U366 O368 2.458 . S
U366 C369 2.984 . S
U366 C370 2.847 . S
U366 C383 2.882 . S
U366 O384 2.441 . S
U366 O385 2.420 . S
U366 O386 2.455 . S
U366 O387 2.449 . S
O367 U366 2.454 . S
O367 C369 1.353 . S
O368 U366 2.458 . S
O368 C369 1.286 . S
C369 U366 2.984 . S
C369 O367 1.353 . S
C369 O368 1.286 . S
C369 C371 1.363 . S
C370 C360 1.465 . S
C370 U366 2.847 . S
C370 O384 1.249 . S
C370 O385 1.202 . S
C371 C369 1.363 . S
C371 C373 1.408 . S
C371 C376 1.342 . S
C372 C373 1.310 . S
C372 C375 1.461 . S
C372 H392 0.932 . S
C373 C371 1.408 . S
C373 C372 1.310 . S
C373 H393 0.930 . S
C374 C375 1.474 . S
C374 C376 1.285 . S
C374 H394 0.929 . S
C375 C372 1.461 . S
C375 C374 1.474 . S
C376 C371 1.342 . S
C376 C374 1.285 . S
C376 H395 0.930 . S
C377 C380 1.424 . S
C377 C382 1.245 . S
C377 C383 1.428 . S
C378 C381 1.260 . S
C378 C382 1.477 . S
C378 H396 0.932 . S
C379 C380 1.384 . S
C379 C381 1.479 . S
C379 H397 0.929 . S
C380 C377 1.424 . S
C380 C379 1.384 . S
C380 H398 0.928 . S
C381 C378 1.260 . S
C381 C379 1.479 . S
C382 C377 1.245 . S
C382 C378 1.477 . S
C382 H399 0.932 . S
C383 U366 2.882 . S
C383 C377 1.428 . S
C383 O386 1.301 . S
C383 O387 1.282 . S
O384 U366 2.441 . S
O384 C370 1.249 . S
O385 U366 2.420 . S
O385 C370 1.202 . S
O386 U366 2.455 . S
O386 C383 1.301 . S
O387 U366 2.449 . S
O387 C383 1.282 . S
H388 C361 0.931 . S
H389 C363 0.929 . S
H390 C364 0.930 . S
H391 C365 0.931 . S
H392 C372 0.932 . S
H393 C373 0.930 . S
H394 C374 0.929 . S
H395 C376 0.930 . S
H396 C378 0.932 . S
H397 C379 0.929 . S
H398 C380 0.928 . S
H399 C382 0.932 . S
C400 C401 1.264 . S
C400 C405 1.479 . S
C400 C410 1.465 . S
C401 C400 1.264 . S
C401 C403 1.339 . S
C401 H428 0.931 . S
C402 C403 1.395 . S
C402 C404 1.320 . S
C403 C401 1.339 . S
C403 C402 1.395 . S
C403 H429 0.929 . S
C404 C402 1.320 . S
C404 C405 1.405 . S
C404 H430 0.930 . S
C405 C400 1.479 . S
C405 C404 1.405 . S
C405 H431 0.931 . S
U406 O407 2.454 . S
U406 O408 2.458 . S
U406 C409 2.984 . S
U406 C410 2.847 . S
U406 C423 2.882 . S
U406 O424 2.441 . S
U406 O425 2.420 . S
U406 O426 2.455 . S
U406 O427 2.449 . S
O407 U406 2.454 . S
O407 C409 1.353 . S
O408 U406 2.458 . S
O408 C409 1.286 . S
C409 U406 2.984 . S
C409 O407 1.353 . S
C409 O408 1.286 . S
C409 C411 1.363 . S
C410 C400 1.465 . S
C410 U406 2.847 . S
C410 O424 1.249 . S
C410 O425 1.202 . S
C411 C409 1.363 . S
C411 C413 1.408 . S
C411 C416 1.342 . S
C412 C413 1.310 . S
C412 C415 1.461 . S
C412 H432 0.932 . S
C413 C411 1.408 . S
C413 C412 1.310 . S
C413 H433 0.930 . S
C414 C415 1.474 . S
C414 C416 1.285 . S
C414 H434 0.929 . S
C415 C412 1.461 . S
C415 C414 1.474 . S
C416 C411 1.342 . S
C416 C414 1.285 . S
C416 H435 0.930 . S
C417 C420 1.424 . S
C417 C422 1.245 . S
C417 C423 1.428 . S
C418 C421 1.260 . S
C418 C422 1.477 . S
C418 H436 0.932 . S
C419 C420 1.384 . S
C419 C421 1.479 . S
C419 H437 0.929 . S
C420 C417 1.424 . S
C420 C419 1.384 . S
C420 H438 0.928 . S
C421 C418 1.260 . S
C421 C419 1.479 . S
C422 C417 1.245 . S
C422 C418 1.477 . S
C422 H439 0.932 . S
C423 U406 2.882 . S
C423 C417 1.428 . S
C423 O426 1.301 . S
C423 O427 1.282 . S
O424 U406 2.441 . S
O424 C410 1.249 . S
O425 U406 2.420 . S
O425 C410 1.202 . S
O426 U406 2.455 . S
O426 C423 1.301 . S
O427 U406 2.449 . S
O427 C423 1.282 . S
H428 C401 0.931 . S
H429 C403 0.929 . S
H430 C404 0.930 . S
H431 C405 0.931 . S
H432 C412 0.932 . S
H433 C413 0.930 . S
H434 C414 0.929 . S
H435 C416 0.930 . S
H436 C418 0.932 . S
H437 C419 0.929 . S
H438 C420 0.928 . S
H439 C422 0.932 . S
C440 C441 1.264 . S
C440 C445 1.479 . S
C440 C450 1.465 . S
C441 C440 1.264 . S
C441 C443 1.339 . S
C441 H468 0.931 . S
C442 C443 1.395 . S
C442 C444 1.320 . S
C443 C441 1.339 . S
C443 C442 1.395 . S
C443 H469 0.929 . S
C444 C442 1.320 . S
C444 C445 1.405 . S
C444 H470 0.930 . S
C445 C440 1.479 . S
C445 C444 1.405 . S
C445 H471 0.931 . S
U446 O447 2.454 . S
U446 O448 2.458 . S
U446 C449 2.984 . S
U446 C450 2.847 . S
U446 C463 2.882 . S
U446 O464 2.441 . S
U446 O465 2.420 . S
U446 O466 2.455 . S
U446 O467 2.449 . S
O447 U446 2.454 . S
O447 C449 1.353 . S
O448 U446 2.458 . S
O448 C449 1.286 . S
C449 U446 2.984 . S
C449 O447 1.353 . S
C449 O448 1.286 . S
C449 C451 1.363 . S
C450 C440 1.465 . S
C450 U446 2.847 . S
C450 O464 1.249 . S
C450 O465 1.202 . S
C451 C449 1.363 . S
C451 C453 1.408 . S
C451 C456 1.342 . S
C452 C453 1.310 . S
C452 C455 1.461 . S
C452 H472 0.932 . S
C453 C451 1.408 . S
C453 C452 1.310 . S
C453 H473 0.930 . S
C454 C455 1.474 . S
C454 C456 1.285 . S
C454 H474 0.929 . S
C455 C452 1.461 . S
C455 C454 1.474 . S
C456 C451 1.342 . S
C456 C454 1.285 . S
C456 H475 0.930 . S
C457 C460 1.424 . S
C457 C462 1.245 . S
C457 C463 1.428 . S
C458 C461 1.260 . S
C458 C462 1.477 . S
C458 H476 0.932 . S
C459 C460 1.384 . S
C459 C461 1.479 . S
C459 H477 0.929 . S
C460 C457 1.424 . S
C460 C459 1.384 . S
C460 H478 0.928 . S
C461 C458 1.260 . S
C461 C459 1.479 . S
C462 C457 1.245 . S
C462 C458 1.477 . S
C462 H479 0.932 . S
C463 U446 2.882 . S
C463 C457 1.428 . S
C463 O466 1.301 . S
C463 O467 1.282 . S
O464 U446 2.441 . S
O464 C450 1.249 . S
O465 U446 2.420 . S
O465 C450 1.202 . S
O466 U446 2.455 . S
O466 C463 1.301 . S
O467 U446 2.449 . S
O467 C463 1.282 . S
H468 C441 0.931 . S
H469 C443 0.929 . S
H470 C444 0.930 . S
H471 C445 0.931 . S
H472 C452 0.932 . S
H473 C453 0.930 . S
H474 C454 0.929 . S
H475 C456 0.930 . S
H476 C458 0.932 . S
H477 C459 0.929 . S
H478 C460 0.928 . S
H479 C462 0.932 . S
C480 C481 1.264 . S
C480 C485 1.479 . S
C480 C490 1.465 . S
C481 C480 1.264 . S
C481 C483 1.339 . S
C481 H508 0.931 . S
C482 C483 1.395 . S
C482 C484 1.320 . S
C483 C481 1.339 . S
C483 C482 1.395 . S
C483 H509 0.929 . S
C484 C482 1.320 . S
C484 C485 1.405 . S
C484 H510 0.930 . S
C485 C480 1.479 . S
C485 C484 1.405 . S
C485 H511 0.931 . S
U486 O487 2.454 . S
U486 O488 2.458 . S
U486 C489 2.984 . S
U486 C490 2.847 . S
U486 C503 2.882 . S
U486 O504 2.441 . S
U486 O505 2.420 . S
U486 O506 2.455 . S
U486 O507 2.449 . S
O487 U486 2.454 . S
O487 C489 1.353 . S
O488 U486 2.458 . S
O488 C489 1.286 . S
C489 U486 2.984 . S
C489 O487 1.353 . S
C489 O488 1.286 . S
C489 C491 1.363 . S
C490 C480 1.465 . S
C490 U486 2.847 . S
C490 O504 1.249 . S
C490 O505 1.202 . S
C491 C489 1.363 . S
C491 C493 1.408 . S
C491 C496 1.342 . S
C492 C493 1.310 . S
C492 C495 1.461 . S
C492 H512 0.932 . S
C493 C491 1.408 . S
C493 C492 1.310 . S
C493 H513 0.930 . S
C494 C495 1.474 . S
C494 C496 1.285 . S
C494 H514 0.929 . S
C495 C492 1.461 . S
C495 C494 1.474 . S
C496 C491 1.342 . S
C496 C494 1.285 . S
C496 H515 0.930 . S
C497 C500 1.424 . S
C497 C502 1.245 . S
C497 C503 1.428 . S
C498 C501 1.260 . S
C498 C502 1.477 . S
C498 H516 0.932 . S
C499 C500 1.384 . S
C499 C501 1.479 . S
C499 H517 0.929 . S
C500 C497 1.424 . S
C500 C499 1.384 . S
C500 H518 0.928 . S
C501 C498 1.260 . S
C501 C499 1.479 . S
C502 C497 1.245 . S
C502 C498 1.477 . S
C502 H519 0.932 . S
C503 U486 2.882 . S
C503 C497 1.428 . S
C503 O506 1.301 . S
C503 O507 1.282 . S
O504 U486 2.441 . S
O504 C490 1.249 . S
O505 U486 2.420 . S
O505 C490 1.202 . S
O506 U486 2.455 . S
O506 C503 1.301 . S
O507 U486 2.449 . S
O507 C503 1.282 . S
H508 C481 0.931 . S
H509 C483 0.929 . S
H510 C484 0.930 . S
H511 C485 0.931 . S
H512 C492 0.932 . S
H513 C493 0.930 . S
H514 C494 0.929 . S
H515 C496 0.930 . S
H516 C498 0.932 . S
H517 C499 0.929 . S
H518 C500 0.928 . S
H519 C502 0.932 . S
C520 C521 1.264 . S
C520 C525 1.479 . S
C520 C530 1.465 . S
C521 C520 1.264 . S
C521 C523 1.339 . S
C521 H548 0.931 . S
C522 C523 1.395 . S
C522 C524 1.320 . S
C523 C521 1.339 . S
C523 C522 1.395 . S
C523 H549 0.929 . S
C524 C522 1.320 . S
C524 C525 1.405 . S
C524 H550 0.930 . S
C525 C520 1.479 . S
C525 C524 1.405 . S
C525 H551 0.931 . S
U526 O527 2.454 . S
U526 O528 2.458 . S
U526 C529 2.984 . S
U526 C530 2.847 . S
U526 C543 2.882 . S
U526 O544 2.441 . S
U526 O545 2.420 . S
U526 O546 2.455 . S
U526 O547 2.449 . S
O527 U526 2.454 . S
O527 C529 1.353 . S
O528 U526 2.458 . S
O528 C529 1.286 . S
C529 U526 2.984 . S
C529 O527 1.353 . S
C529 O528 1.286 . S
C529 C531 1.363 . S
C530 C520 1.465 . S
C530 U526 2.847 . S
C530 O544 1.249 . S
C530 O545 1.202 . S
C531 C529 1.363 . S
C531 C533 1.408 . S
C531 C536 1.342 . S
C532 C533 1.310 . S
C532 C535 1.461 . S
C532 H552 0.932 . S
C533 C531 1.408 . S
C533 C532 1.310 . S
C533 H553 0.930 . S
C534 C535 1.474 . S
C534 C536 1.285 . S
C534 H554 0.929 . S
C535 C532 1.461 . S
C535 C534 1.474 . S
C536 C531 1.342 . S
C536 C534 1.285 . S
C536 H555 0.930 . S
C537 C540 1.424 . S
C537 C542 1.245 . S
C537 C543 1.428 . S
C538 C541 1.260 . S
C538 C542 1.477 . S
C538 H556 0.932 . S
C539 C540 1.384 . S
C539 C541 1.479 . S
C539 H557 0.929 . S
C540 C537 1.424 . S
C540 C539 1.384 . S
C540 H558 0.928 . S
C541 C538 1.260 . S
C541 C539 1.479 . S
C542 C537 1.245 . S
C542 C538 1.477 . S
C542 H559 0.932 . S
C543 U526 2.882 . S
C543 C537 1.428 . S
C543 O546 1.301 . S
C543 O547 1.282 . S
O544 U526 2.441 . S
O544 C530 1.249 . S
O545 U526 2.420 . S
O545 C530 1.202 . S
O546 U526 2.455 . S
O546 C543 1.301 . S
O547 U526 2.449 . S
O547 C543 1.282 . S
H548 C521 0.931 . S
H549 C523 0.929 . S
H550 C524 0.930 . S
H551 C525 0.931 . S
H552 C532 0.932 . S
H553 C533 0.930 . S
H554 C534 0.929 . S
H555 C536 0.930 . S
H556 C538 0.932 . S
H557 C539 0.929 . S
H558 C540 0.928 . S
H559 C542 0.932 . S
C560 C561 1.264 . S
C560 C565 1.479 . S
C560 C570 1.465 . S
C561 C560 1.264 . S
C561 C563 1.339 . S
C561 H588 0.931 . S
C562 C563 1.395 . S
C562 C564 1.320 . S
C563 C561 1.339 . S
C563 C562 1.395 . S
C563 H589 0.929 . S
C564 C562 1.320 . S
C564 C565 1.405 . S
C564 H590 0.930 . S
C565 C560 1.479 . S
C565 C564 1.405 . S
C565 H591 0.931 . S
U566 O567 2.454 . S
U566 O568 2.458 . S
U566 C569 2.984 . S
U566 C570 2.847 . S
U566 C583 2.882 . S
U566 O584 2.441 . S
U566 O585 2.420 . S
U566 O586 2.455 . S
U566 O587 2.449 . S
O567 U566 2.454 . S
O567 C569 1.353 . S
O568 U566 2.458 . S
O568 C569 1.286 . S
C569 U566 2.984 . S
C569 O567 1.353 . S
C569 O568 1.286 . S
C569 C571 1.363 . S
C570 C560 1.465 . S
C570 U566 2.847 . S
C570 O584 1.249 . S
C570 O585 1.202 . S
C571 C569 1.363 . S
C571 C573 1.408 . S
C571 C576 1.342 . S
C572 C573 1.310 . S
C572 C575 1.461 . S
C572 H592 0.932 . S
C573 C571 1.408 . S
C573 C572 1.310 . S
C573 H593 0.930 . S
C574 C575 1.474 . S
C574 C576 1.285 . S
C574 H594 0.929 . S
C575 C572 1.461 . S
C575 C574 1.474 . S
C576 C571 1.342 . S
C576 C574 1.285 . S
C576 H595 0.930 . S
C577 C580 1.424 . S
C577 C582 1.245 . S
C577 C583 1.428 . S
C578 C581 1.260 . S
C578 C582 1.477 . S
C578 H596 0.932 . S
C579 C580 1.384 . S
C579 C581 1.479 . S
C579 H597 0.929 . S
C580 C577 1.424 . S
C580 C579 1.384 . S
C580 H598 0.928 . S
C581 C578 1.260 . S
C581 C579 1.479 . S
C582 C577 1.245 . S
C582 C578 1.477 . S
C582 H599 0.932 . S
C583 U566 2.882 . S
C583 C577 1.428 . S
C583 O586 1.301 . S
C583 O587 1.282 . S
O584 U566 2.441 . S
O584 C570 1.249 . S
O585 U566 2.420 . S
O585 C570 1.202 . S
O586 U566 2.455 . S
O586 C583 1.301 . S
O587 U566 2.449 . S
O587 C583 1.282 . S
H588 C561 0.931 . S
H589 C563 0.929 . S
H590 C564 0.930 . S
H591 C565 0.931 . S
H592 C572 0.932 . S
H593 C573 0.930 . S
H594 C574 0.929 . S
H595 C576 0.930 . S
H596 C578 0.932 . S
H597 C579 0.929 . S
H598 C580 0.928 . S
H599 C582 0.932 . S
C600 C601 1.264 . S
C600 C605 1.479 . S
C600 C610 1.465 . S
C601 C600 1.264 . S
C601 C603 1.339 . S
C601 H628 0.931 . S
C602 C603 1.395 . S
C602 C604 1.320 . S
C603 C601 1.339 . S
C603 C602 1.395 . S
C603 H629 0.929 . S
C604 C602 1.320 . S
C604 C605 1.405 . S
C604 H630 0.930 . S
C605 C600 1.479 . S
C605 C604 1.405 . S
C605 H631 0.931 . S
U606 O607 2.454 . S
U606 O608 2.458 . S
U606 C609 2.984 . S
U606 C610 2.847 . S
U606 C623 2.882 . S
U606 O624 2.441 . S
U606 O625 2.420 . S
U606 O626 2.455 . S
U606 O627 2.449 . S
O607 U606 2.454 . S
O607 C609 1.353 . S
O608 U606 2.458 . S
O608 C609 1.286 . S
C609 U606 2.984 . S
C609 O607 1.353 . S
C609 O608 1.286 . S
C609 C611 1.363 . S
C610 C600 1.465 . S
C610 U606 2.847 . S
C610 O624 1.249 . S
C610 O625 1.202 . S
C611 C609 1.363 . S
C611 C613 1.408 . S
C611 C616 1.342 . S
C612 C613 1.310 . S
C612 C615 1.461 . S
C612 H632 0.932 . S
C613 C611 1.408 . S
C613 C612 1.310 . S
C613 H633 0.930 . S
C614 C615 1.474 . S
C614 C616 1.285 . S
C614 H634 0.929 . S
C615 C612 1.461 . S
C615 C614 1.474 . S
C616 C611 1.342 . S
C616 C614 1.285 . S
C616 H635 0.930 . S
C617 C620 1.424 . S
C617 C622 1.245 . S
C617 C623 1.428 . S
C618 C621 1.260 . S
C618 C622 1.477 . S
C618 H636 0.932 . S
C619 C620 1.384 . S
C619 C621 1.479 . S
C619 H637 0.929 . S
C620 C617 1.424 . S
C620 C619 1.384 . S
C620 H638 0.928 . S
C621 C618 1.260 . S
C621 C619 1.479 . S
C622 C617 1.245 . S
C622 C618 1.477 . S
C622 H639 0.932 . S
C623 U606 2.882 . S
C623 C617 1.428 . S
C623 O626 1.301 . S
C623 O627 1.282 . S
O624 U606 2.441 . S
O624 C610 1.249 . S
O625 U606 2.420 . S
O625 C610 1.202 . S
O626 U606 2.455 . S
O626 C623 1.301 . S
O627 U606 2.449 . S
O627 C623 1.282 . S
H628 C601 0.931 . S
H629 C603 0.929 . S
H630 C604 0.930 . S
H631 C605 0.931 . S
H632 C612 0.932 . S
H633 C613 0.930 . S
H634 C614 0.929 . S
H635 C616 0.930 . S
H636 C618 0.932 . S
H637 C619 0.929 . S
H638 C620 0.928 . S
H639 C622 0.932 . S
C640 C641 1.264 . S
C640 C645 1.479 . S
C640 C650 1.465 . S
C641 C640 1.264 . S
C641 C643 1.339 . S
C641 H668 0.931 . S
C642 C643 1.395 . S
C642 C644 1.320 . S
C643 C641 1.339 . S
C643 C642 1.395 . S
C643 H669 0.929 . S
C644 C642 1.320 . S
C644 C645 1.405 . S
C644 H670 0.930 . S
C645 C640 1.479 . S
C645 C644 1.405 . S
C645 H671 0.931 . S
U646 O647 2.454 . S
U646 O648 2.458 . S
U646 C649 2.984 . S
U646 C650 2.847 . S
U646 C663 2.882 . S
U646 O664 2.441 . S
U646 O665 2.420 . S
U646 O666 2.455 . S
U646 O667 2.449 . S
O647 U646 2.454 . S
O647 C649 1.353 . S
O648 U646 2.458 . S
O648 C649 1.286 . S
C649 U646 2.984 . S
C649 O647 1.353 . S
C649 O648 1.286 . S
C649 C651 1.363 . S
C650 C640 1.465 . S
C650 U646 2.847 . S
C650 O664 1.249 . S
C650 O665 1.202 . S
C651 C649 1.363 . S
C651 C653 1.408 . S
C651 C656 1.342 . S
C652 C653 1.310 . S
C652 C655 1.461 . S
C652 H672 0.932 . S
C653 C651 1.408 . S
C653 C652 1.310 . S
C653 H673 0.930 . S
C654 C655 1.474 . S
C654 C656 1.285 . S
C654 H674 0.929 . S
C655 C652 1.461 . S
C655 C654 1.474 . S
C656 C651 1.342 . S
C656 C654 1.285 . S
C656 H675 0.930 . S
C657 C660 1.424 . S
C657 C662 1.245 . S
C657 C663 1.428 . S
C658 C661 1.260 . S
C658 C662 1.477 . S
C658 H676 0.932 . S
C659 C660 1.384 . S
C659 C661 1.479 . S
C659 H677 0.929 . S
C660 C657 1.424 . S
C660 C659 1.384 . S
C660 H678 0.928 . S
C661 C658 1.260 . S
C661 C659 1.479 . S
C662 C657 1.245 . S
C662 C658 1.477 . S
C662 H679 0.932 . S
C663 U646 2.882 . S
C663 C657 1.428 . S
C663 O666 1.301 . S
C663 O667 1.282 . S
O664 U646 2.441 . S
O664 C650 1.249 . S
O665 U646 2.420 . S
O665 C650 1.202 . S
O666 U646 2.455 . S
O666 C663 1.301 . S
O667 U646 2.449 . S
O667 C663 1.282 . S
H668 C641 0.931 . S
H669 C643 0.929 . S
H670 C644 0.930 . S
H671 C645 0.931 . S
H672 C652 0.932 . S
H673 C653 0.930 . S
H674 C654 0.929 . S
H675 C656 0.930 . S
H676 C658 0.932 . S
H677 C659 0.929 . S
H678 C660 0.928 . S
H679 C662 0.932 . S
C680 C681 1.264 . S
C680 C685 1.479 . S
C680 C690 1.465 . S
C681 C680 1.264 . S
C681 C683 1.339 . S
C681 H708 0.931 . S
C682 C683 1.395 . S
C682 C684 1.320 . S
C683 C681 1.339 . S
C683 C682 1.395 . S
C683 H709 0.929 . S
C684 C682 1.320 . S
C684 C685 1.405 . S
C684 H710 0.930 . S
C685 C680 1.479 . S
C685 C684 1.405 . S
C685 H711 0.931 . S
U686 O687 2.454 . S
U686 O688 2.458 . S
U686 C689 2.984 . S
U686 C690 2.847 . S
U686 C703 2.882 . S
U686 O704 2.441 . S
U686 O705 2.420 . S
U686 O706 2.455 . S
U686 O707 2.449 . S
O687 U686 2.454 . S
O687 C689 1.353 . S
O688 U686 2.458 . S
O688 C689 1.286 . S
C689 U686 2.984 . S
C689 O687 1.353 . S
C689 O688 1.286 . S
C689 C691 1.363 . S
C690 C680 1.465 . S
C690 U686 2.847 . S
C690 O704 1.249 . S
C690 O705 1.202 . S
C691 C689 1.363 . S
C691 C693 1.408 . S
C691 C696 1.342 . S
C692 C693 1.310 . S
C692 C695 1.461 . S
C692 H712 0.932 . S
C693 C691 1.408 . S
C693 C692 1.310 . S
C693 H713 0.930 . S
C694 C695 1.474 . S
C694 C696 1.285 . S
C694 H714 0.929 . S
C695 C692 1.461 . S
C695 C694 1.474 . S
C696 C691 1.342 . S
C696 C694 1.285 . S
C696 H715 0.930 . S
C697 C700 1.424 . S
C697 C702 1.245 . S
C697 C703 1.428 . S
C698 C701 1.260 . S
C698 C702 1.477 . S
C698 H716 0.932 . S
C699 C700 1.384 . S
C699 C701 1.479 . S
C699 H717 0.929 . S
C700 C697 1.424 . S
C700 C699 1.384 . S
C700 H718 0.928 . S
C701 C698 1.260 . S
C701 C699 1.479 . S
C702 C697 1.245 . S
C702 C698 1.477 . S
C702 H719 0.932 . S
C703 U686 2.882 . S
C703 C697 1.428 . S
C703 O706 1.301 . S
C703 O707 1.282 . S
O704 U686 2.441 . S
O704 C690 1.249 . S
O705 U686 2.420 . S
O705 C690 1.202 . S
O706 U686 2.455 . S
O706 C703 1.301 . S
O707 U686 2.449 . S
O707 C703 1.282 . S
H708 C681 0.931 . S
H709 C683 0.929 . S
H710 C684 0.930 . S
H711 C685 0.931 . S
H712 C692 0.932 . S
H713 C693 0.930 . S
H714 C694 0.929 . S
H715 C696 0.930 . S
H716 C698 0.932 . S
H717 C699 0.929 . S
H718 C700 0.928 . S
H719 C702 0.932 . S
C720 C721 1.264 . S
C720 C725 1.479 . S
C720 C730 1.465 . S
C721 C720 1.264 . S
C721 C723 1.339 . S
C721 H748 0.931 . S
C722 C723 1.395 . S
C722 C724 1.320 . S
C723 C721 1.339 . S
C723 C722 1.395 . S
C723 H749 0.929 . S
C724 C722 1.320 . S
C724 C725 1.405 . S
C724 H750 0.930 . S
C725 C720 1.479 . S
C725 C724 1.405 . S
C725 H751 0.931 . S
U726 O727 2.454 . S
U726 O728 2.458 . S
U726 C729 2.984 . S
U726 C730 2.847 . S
U726 C743 2.882 . S
U726 O744 2.441 . S
U726 O745 2.420 . S
U726 O746 2.455 . S
U726 O747 2.449 . S
O727 U726 2.454 . S
O727 C729 1.353 . S
O728 U726 2.458 . S
O728 C729 1.286 . S
C729 U726 2.984 . S
C729 O727 1.353 . S
C729 O728 1.286 . S
C729 C731 1.363 . S
C730 C720 1.465 . S
C730 U726 2.847 . S
C730 O744 1.249 . S
C730 O745 1.202 . S
C731 C729 1.363 . S
C731 C733 1.408 . S
C731 C736 1.342 . S
C732 C733 1.310 . S
C732 C735 1.461 . S
C732 H752 0.932 . S
C733 C731 1.408 . S
C733 C732 1.310 . S
C733 H753 0.930 . S
C734 C735 1.474 . S
C734 C736 1.285 . S
C734 H754 0.929 . S
C735 C732 1.461 . S
C735 C734 1.474 . S
C736 C731 1.342 . S
C736 C734 1.285 . S
C736 H755 0.930 . S
C737 C740 1.424 . S
C737 C742 1.245 . S
C737 C743 1.428 . S
C738 C741 1.260 . S
C738 C742 1.477 . S
C738 H756 0.932 . S
C739 C740 1.384 . S
C739 C741 1.479 . S
C739 H757 0.929 . S
C740 C737 1.424 . S
C740 C739 1.384 . S
C740 H758 0.928 . S
C741 C738 1.260 . S
C741 C739 1.479 . S
C742 C737 1.245 . S
C742 C738 1.477 . S
C742 H759 0.932 . S
C743 U726 2.882 . S
C743 C737 1.428 . S
C743 O746 1.301 . S
C743 O747 1.282 . S
O744 U726 2.441 . S
O744 C730 1.249 . S
O745 U726 2.420 . S
O745 C730 1.202 . S
O746 U726 2.455 . S
O746 C743 1.301 . S
O747 U726 2.449 . S
O747 C743 1.282 . S
H748 C721 0.931 . S
H749 C723 0.929 . S
H750 C724 0.930 . S
H751 C725 0.931 . S
H752 C732 0.932 . S
H753 C733 0.930 . S
H754 C734 0.929 . S
H755 C736 0.930 . S
H756 C738 0.932 . S
H757 C739 0.929 . S
H758 C740 0.928 . S
H759 C742 0.932 . S
C760 C761 1.264 . S
C760 C765 1.479 . S
C760 C770 1.465 . S
C761 C760 1.264 . S
C761 C763 1.339 . S
C761 H788 0.931 . S
C762 C763 1.395 . S
C762 C764 1.320 . S
C763 C761 1.339 . S
C763 C762 1.395 . S
C763 H789 0.929 . S
C764 C762 1.320 . S
C764 C765 1.405 . S
C764 H790 0.930 . S
C765 C760 1.479 . S
C765 C764 1.405 . S
C765 H791 0.931 . S
U766 O767 2.454 . S
U766 O768 2.458 . S
U766 C769 2.984 . S
U766 C770 2.847 . S
U766 C783 2.882 . S
U766 O784 2.441 . S
U766 O785 2.420 . S
U766 O786 2.455 . S
U766 O787 2.449 . S
O767 U766 2.454 . S
O767 C769 1.353 . S
O768 U766 2.458 . S
O768 C769 1.286 . S
C769 U766 2.984 . S
C769 O767 1.353 . S
C769 O768 1.286 . S
C769 C771 1.363 . S
C770 C760 1.465 . S
C770 U766 2.847 . S
C770 O784 1.249 . S
C770 O785 1.202 . S
C771 C769 1.363 . S
C771 C773 1.408 . S
C771 C776 1.342 . S
C772 C773 1.310 . S
C772 C775 1.461 . S
C772 H792 0.932 . S
C773 C771 1.408 . S
C773 C772 1.310 . S
C773 H793 0.930 . S
C774 C775 1.474 . S
C774 C776 1.285 . S
C774 H794 0.929 . S
C775 C772 1.461 . S
C775 C774 1.474 . S
C776 C771 1.342 . S
C776 C774 1.285 . S
C776 H795 0.930 . S
C777 C780 1.424 . S
C777 C782 1.245 . S
C777 C783 1.428 . S
C778 C781 1.260 . S
C778 C782 1.477 . S
C778 H796 0.932 . S
C779 C780 1.384 . S
C779 C781 1.479 . S
C779 H797 0.929 . S
C780 C777 1.424 . S
C780 C779 1.384 . S
C780 H798 0.928 . S
C781 C778 1.260 . S
C781 C779 1.479 . S
C782 C777 1.245 . S
C782 C778 1.477 . S
C782 H799 0.932 . S
C783 U766 2.882 . S
C783 C777 1.428 . S
C783 O786 1.301 . S
C783 O787 1.282 . S
O784 U766 2.441 . S
O784 C770 1.249 . S
O785 U766 2.420 . S
O785 C770 1.202 . S
O786 U766 2.455 . S
O786 C783 1.301 . S
O787 U766 2.449 . S
O787 C783 1.282 . S
H788 C761 0.931 . S
H789 C763 0.929 . S
H790 C764 0.930 . S
H791 C765 0.931 . S
H792 C772 0.932 . S
H793 C773 0.930 . S
H794 C774 0.929 . S
H795 C776 0.930 . S
H796 C778 0.932 . S
H797 C779 0.929 . S
H798 C780 0.928 . S
H799 C782 0.932 . S
C800 C801 1.264 . S
C800 C805 1.479 . S
C800 C810 1.465 . S
C801 C800 1.264 . S
C801 C803 1.339 . S
C801 H828 0.931 . S
C802 C803 1.395 . S
C802 C804 1.320 . S
C803 C801 1.339 . S
C803 C802 1.395 . S
C803 H829 0.929 . S
C804 C802 1.320 . S
C804 C805 1.405 . S
C804 H830 0.930 . S
C805 C800 1.479 . S
C805 C804 1.405 . S
C805 H831 0.931 . S
U806 O807 2.454 . S
U806 O808 2.458 . S
U806 C809 2.984 . S
U806 C810 2.847 . S
U806 C823 2.882 . S
U806 O824 2.441 . S
U806 O825 2.420 . S
U806 O826 2.455 . S
U806 O827 2.449 . S
O807 U806 2.454 . S
O807 C809 1.353 . S
O808 U806 2.458 . S
O808 C809 1.286 . S
C809 U806 2.984 . S
C809 O807 1.353 . S
C809 O808 1.286 . S
C809 C811 1.363 . S
C810 C800 1.465 . S
C810 U806 2.847 . S
C810 O824 1.249 . S
C810 O825 1.202 . S
C811 C809 1.363 . S
C811 C813 1.408 . S
C811 C816 1.342 . S
C812 C813 1.310 . S
C812 C815 1.461 . S
C812 H832 0.932 . S
C813 C811 1.408 . S
C813 C812 1.310 . S
C813 H833 0.930 . S
C814 C815 1.474 . S
C814 C816 1.285 . S
C814 H834 0.929 . S
C815 C812 1.461 . S
C815 C814 1.474 . S
C816 C811 1.342 . S
C816 C814 1.285 . S
C816 H835 0.930 . S
C817 C820 1.424 . S
C817 C822 1.245 . S
C817 C823 1.428 . S
C818 C821 1.260 . S
C818 C822 1.477 . S
C818 H836 0.932 . S
C819 C820 1.384 . S
C819 C821 1.479 . S
C819 H837 0.929 . S
C820 C817 1.424 . S
C820 C819 1.384 . S
C820 H838 0.928 . S
C821 C818 1.260 . S
C821 C819 1.479 . S
C822 C817 1.245 . S
C822 C818 1.477 . S
C822 H839 0.932 . S
C823 U806 2.882 . S
C823 C817 1.428 . S
C823 O826 1.301 . S
C823 O827 1.282 . S
O824 U806 2.441 . S
O824 C810 1.249 . S
O825 U806 2.420 . S
O825 C810 1.202 . S
O826 U806 2.455 . S
O826 C823 1.301 . S
O827 U806 2.449 . S
O827 C823 1.282 . S
H828 C801 0.931 . S
H829 C803 0.929 . S
H830 C804 0.930 . S
H831 C805 0.931 . S
H832 C812 0.932 . S
H833 C813 0.930 . S
H834 C814 0.929 . S
H835 C816 0.930 . S
H836 C818 0.932 . S
H837 C819 0.929 . S
H838 C820 0.928 . S
H839 C822 0.932 . S
C840 C841 1.264 . S
C840 C845 1.479 . S
C840 C850 1.465 . S
C841 C840 1.264 . S
C841 C843 1.339 . S
C841 H868 0.931 . S
C842 C843 1.395 . S
C842 C844 1.320 . S
C843 C841 1.339 . S
C843 C842 1.395 . S
C843 H869 0.929 . S
C844 C842 1.320 . S
C844 C845 1.405 . S
C844 H870 0.930 . S
C845 C840 1.479 . S
C845 C844 1.405 . S
C845 H871 0.931 . S
U846 O847 2.454 . S
U846 O848 2.458 . S
U846 C849 2.984 . S
U846 C850 2.847 . S
U846 C863 2.882 . S
U846 O864 2.441 . S
U846 O865 2.420 . S
U846 O866 2.455 . S
U846 O867 2.449 . S
O847 U846 2.454 . S
O847 C849 1.353 . S
O848 U846 2.458 . S
O848 C849 1.286 . S
C849 U846 2.984 . S
C849 O847 1.353 . S
C849 O848 1.286 . S
C849 C851 1.363 . S
C850 C840 1.465 . S
C850 U846 2.847 . S
C850 O864 1.249 . S
C850 O865 1.202 . S
C851 C849 1.363 . S
C851 C853 1.408 . S
C851 C856 1.342 . S
C852 C853 1.310 . S
C852 C855 1.461 . S
C852 H872 0.932 . S
C853 C851 1.408 . S
C853 C852 1.310 . S
C853 H873 0.930 . S
C854 C855 1.474 . S
C854 C856 1.285 . S
C854 H874 0.929 . S
C855 C852 1.461 . S
C855 C854 1.474 . S
C856 C851 1.342 . S
C856 C854 1.285 . S
C856 H875 0.930 . S
C857 C860 1.424 . S
C857 C862 1.245 . S
C857 C863 1.428 . S
C858 C861 1.260 . S
C858 C862 1.477 . S
C858 H876 0.932 . S
C859 C860 1.384 . S
C859 C861 1.479 . S
C859 H877 0.929 . S
C860 C857 1.424 . S
C860 C859 1.384 . S
C860 H878 0.928 . S
C861 C858 1.260 . S
C861 C859 1.479 . S
C862 C857 1.245 . S
C862 C858 1.477 . S
C862 H879 0.932 . S
C863 U846 2.882 . S
C863 C857 1.428 . S
C863 O866 1.301 . S
C863 O867 1.282 . S
O864 U846 2.441 . S
O864 C850 1.249 . S
O865 U846 2.420 . S
O865 C850 1.202 . S
O866 U846 2.455 . S
O866 C863 1.301 . S
O867 U846 2.449 . S
O867 C863 1.282 . S
H868 C841 0.931 . S
H869 C843 0.929 . S
H870 C844 0.930 . S
H871 C845 0.931 . S
H872 C852 0.932 . S
H873 C853 0.930 . S
H874 C854 0.929 . S
H875 C856 0.930 . S
H876 C858 0.932 . S
H877 C859 0.929 . S
H878 C860 0.928 . S
H879 C862 0.932 . S
C880 C881 1.264 . S
C880 C885 1.479 . S
C880 C890 1.465 . S
C881 C880 1.264 . S
C881 C883 1.339 . S
C881 H908 0.931 . S
C882 C883 1.395 . S
C882 C884 1.320 . S
C883 C881 1.339 . S
C883 C882 1.395 . S
C883 H909 0.929 . S
C884 C882 1.320 . S
C884 C885 1.405 . S
C884 H910 0.930 . S
C885 C880 1.479 . S
C885 C884 1.405 . S
C885 H911 0.931 . S
U886 O887 2.454 . S
U886 O888 2.458 . S
U886 C889 2.984 . S
U886 C890 2.847 . S
U886 C903 2.882 . S
U886 O904 2.441 . S
U886 O905 2.420 . S
U886 O906 2.455 . S
U886 O907 2.449 . S
O887 U886 2.454 . S
O887 C889 1.353 . S
O888 U886 2.458 . S
O888 C889 1.286 . S
C889 U886 2.984 . S
C889 O887 1.353 . S
C889 O888 1.286 . S
C889 C891 1.363 . S
C890 C880 1.465 . S
C890 U886 2.847 . S
C890 O904 1.249 . S
C890 O905 1.202 . S
C891 C889 1.363 . S
C891 C893 1.408 . S
C891 C896 1.342 . S
C892 C893 1.310 . S
C892 C895 1.461 . S
C892 H912 0.932 . S
C893 C891 1.408 . S
C893 C892 1.310 . S
C893 H913 0.930 . S
C894 C895 1.474 . S
C894 C896 1.285 . S
C894 H914 0.929 . S
C895 C892 1.461 . S
C895 C894 1.474 . S
C896 C891 1.342 . S
C896 C894 1.285 . S
C896 H915 0.930 . S
C897 C900 1.424 . S
C897 C902 1.245 . S
C897 C903 1.428 . S
C898 C901 1.260 . S
C898 C902 1.477 . S
C898 H916 0.932 . S
C899 C900 1.384 . S
C899 C901 1.479 . S
C899 H917 0.929 . S
C900 C897 1.424 . S
C900 C899 1.384 . S
C900 H918 0.928 . S
C901 C898 1.260 . S
C901 C899 1.479 . S
C902 C897 1.245 . S
C902 C898 1.477 . S
C902 H919 0.932 . S
C903 U886 2.882 . S
C903 C897 1.428 . S
C903 O906 1.301 . S
C903 O907 1.282 . S
O904 U886 2.441 . S
O904 C890 1.249 . S
O905 U886 2.420 . S
O905 C890 1.202 . S
O906 U886 2.455 . S
O906 C903 1.301 . S
O907 U886 2.449 . S
O907 C903 1.282 . S
H908 C881 0.931 . S
H909 C883 0.929 . S
H910 C884 0.930 . S
H911 C885 0.931 . S
H912 C892 0.932 . S
H913 C893 0.930 . S
H914 C894 0.929 . S
H915 C896 0.930 . S
H916 C898 0.932 . S
H917 C899 0.929 . S
H918 C900 0.928 . S
H919 C902 0.932 . S
C920 C921 1.264 . S
C920 C925 1.479 . S
C920 C930 1.465 . S
C921 C920 1.264 . S
C921 C923 1.339 . S
C921 H948 0.931 . S
C922 C923 1.395 . S
C922 C924 1.320 . S
C923 C921 1.339 . S
C923 C922 1.395 . S
C923 H949 0.929 . S
C924 C922 1.320 . S
C924 C925 1.405 . S
C924 H950 0.930 . S
C925 C920 1.479 . S
C925 C924 1.405 . S
C925 H951 0.931 . S
U926 O927 2.454 . S
U926 O928 2.458 . S
U926 C929 2.984 . S
U926 C930 2.847 . S
U926 C943 2.882 . S
U926 O944 2.441 . S
U926 O945 2.420 . S
U926 O946 2.455 . S
U926 O947 2.449 . S
O927 U926 2.454 . S
O927 C929 1.353 . S
O928 U926 2.458 . S
O928 C929 1.286 . S
C929 U926 2.984 . S
C929 O927 1.353 . S
C929 O928 1.286 . S
C929 C931 1.363 . S
C930 C920 1.465 . S
C930 U926 2.847 . S
C930 O944 1.249 . S
C930 O945 1.202 . S
C931 C929 1.363 . S
C931 C933 1.408 . S
C931 C936 1.342 . S
C932 C933 1.310 . S
C932 C935 1.461 . S
C932 H952 0.932 . S
C933 C931 1.408 . S
C933 C932 1.310 . S
C933 H953 0.930 . S
C934 C935 1.474 . S
C934 C936 1.285 . S
C934 H954 0.929 . S
C935 C932 1.461 . S
C935 C934 1.474 . S
C936 C931 1.342 . S
C936 C934 1.285 . S
C936 H955 0.930 . S
C937 C940 1.424 . S
C937 C942 1.245 . S
C937 C943 1.428 . S
C938 C941 1.260 . S
C938 C942 1.477 . S
C938 H956 0.932 . S
C939 C940 1.384 . S
C939 C941 1.479 . S
C939 H957 0.929 . S
C940 C937 1.424 . S
C940 C939 1.384 . S
C940 H958 0.928 . S
C941 C938 1.260 . S
C941 C939 1.479 . S
C942 C937 1.245 . S
C942 C938 1.477 . S
C942 H959 0.932 . S
C943 U926 2.882 . S
C943 C937 1.428 . S
C943 O946 1.301 . S
C943 O947 1.282 . S
O944 U926 2.441 . S
O944 C930 1.249 . S
O945 U926 2.420 . S
O945 C930 1.202 . S
O946 U926 2.455 . S
O946 C943 1.301 . S
O947 U926 2.449 . S
O947 C943 1.282 . S
H948 C921 0.931 . S
H949 C923 0.929 . S
H950 C924 0.930 . S
H951 C925 0.931 . S
H952 C932 0.932 . S
H953 C933 0.930 . S
H954 C934 0.929 . S
H955 C936 0.930 . S
H956 C938 0.932 . S
H957 C939 0.929 . S
H958 C940 0.928 . S
H959 C942 0.932 . S
C960 C961 1.264 . S
C960 C965 1.479 . S
C960 C970 1.465 . S
C961 C960 1.264 . S
C961 C963 1.339 . S
C961 H988 0.931 . S
C962 C963 1.395 . S
C962 C964 1.320 . S
C963 C961 1.339 . S
C963 C962 1.395 . S
C963 H989 0.929 . S
C964 C962 1.320 . S
C964 C965 1.405 . S
C964 H990 0.930 . S
C965 C960 1.479 . S
C965 C964 1.405 . S
C965 H991 0.931 . S
U966 O967 2.454 . S
U966 O968 2.458 . S
U966 C969 2.984 . S
U966 C970 2.847 . S
U966 C983 2.882 . S
U966 O984 2.441 . S
U966 O985 2.420 . S
U966 O986 2.455 . S
U966 O987 2.449 . S
O967 U966 2.454 . S
O967 C969 1.353 . S
O968 U966 2.458 . S
O968 C969 1.286 . S
C969 U966 2.984 . S
C969 O967 1.353 . S
C969 O968 1.286 . S
C969 C971 1.363 . S
C970 C960 1.465 . S
C970 U966 2.847 . S
C970 O984 1.249 . S
C970 O985 1.202 . S
C971 C969 1.363 . S
C971 C973 1.408 . S
C971 C976 1.342 . S
C972 C973 1.310 . S
C972 C975 1.461 . S
C972 H992 0.932 . S
C973 C971 1.408 . S
C973 C972 1.310 . S
C973 H993 0.930 . S
C974 C975 1.474 . S
C974 C976 1.285 . S
C974 H994 0.929 . S
C975 C972 1.461 . S
C975 C974 1.474 . S
C976 C971 1.342 . S
C976 C974 1.285 . S
C976 H995 0.930 . S
C977 C980 1.424 . S
C977 C982 1.245 . S
C977 C983 1.428 . S
C978 C981 1.260 . S
C978 C982 1.477 . S
C978 H996 0.932 . S
C979 C980 1.384 . S
C979 C981 1.479 . S
C979 H997 0.929 . S
C980 C977 1.424 . S
C980 C979 1.384 . S
C980 H998 0.928 . S
C981 C978 1.260 . S
C981 C979 1.479 . S
C982 C977 1.245 . S
C982 C978 1.477 . S
C982 H999 0.932 . S
C983 U966 2.882 . S
C983 C977 1.428 . S
C983 O986 1.301 . S
C983 O987 1.282 . S
O984 U966 2.441 . S
O984 C970 1.249 . S
O985 U966 2.420 . S
O985 C970 1.202 . S
O986 U966 2.455 . S
O986 C983 1.301 . S
O987 U966 2.449 . S
O987 C983 1.282 . S
H988 C961 0.931 . S
H989 C963 0.929 . S
H990 C964 0.930 . S
H991 C965 0.931 . S
H992 C972 0.932 . S
H993 C973 0.930 . S
H994 C974 0.929 . S
H995 C976 0.930 . S
H996 C978 0.932 . S
H997 C979 0.929 . S
H998 C980 0.928 . S
H999 C982 0.932 . S
C1000 C1001 1.264 . S
C1000 C1005 1.479 . S
C1000 C1010 1.465 . S
C1001 C1000 1.264 . S
C1001 C1003 1.339 . S
C1001 H1028 0.931 . S
C1002 C1003 1.395 . S
C1002 C1004 1.320 . S
C1003 C1001 1.339 . S
C1003 C1002 1.395 . S
C1003 H1029 0.929 . S
C1004 C1002 1.320 . S
C1004 C1005 1.405 . S
C1004 H1030 0.930 . S
C1005 C1000 1.479 . S
C1005 C1004 1.405 . S
C1005 H1031 0.931 . S
U1006 O1007 2.454 . S
U1006 O1008 2.458 . S
U1006 C1009 2.984 . S
U1006 C1010 2.847 . S
U1006 C1023 2.882 . S
U1006 O1024 2.441 . S
U1006 O1025 2.420 . S
U1006 O1026 2.455 . S
U1006 O1027 2.449 . S
O1007 U1006 2.454 . S
O1007 C1009 1.353 . S
O1008 U1006 2.458 . S
O1008 C1009 1.286 . S
C1009 U1006 2.984 . S
C1009 O1007 1.353 . S
C1009 O1008 1.286 . S
C1009 C1011 1.363 . S
C1010 C1000 1.465 . S
C1010 U1006 2.847 . S
C1010 O1024 1.249 . S
C1010 O1025 1.202 . S
C1011 C1009 1.363 . S
C1011 C1013 1.408 . S
C1011 C1016 1.342 . S
C1012 C1013 1.310 . S
C1012 C1015 1.461 . S
C1012 H1032 0.932 . S
C1013 C1011 1.408 . S
C1013 C1012 1.310 . S
C1013 H1033 0.930 . S
C1014 C1015 1.474 . S
C1014 C1016 1.285 . S
C1014 H1034 0.929 . S
C1015 C1012 1.461 . S
C1015 C1014 1.474 . S
C1016 C1011 1.342 . S
C1016 C1014 1.285 . S
C1016 H1035 0.930 . S
C1017 C1020 1.424 . S
C1017 C1022 1.245 . S
C1017 C1023 1.428 . S
C1018 C1021 1.260 . S
C1018 C1022 1.477 . S
C1018 H1036 0.932 . S
C1019 C1020 1.384 . S
C1019 C1021 1.479 . S
C1019 H1037 0.929 . S
C1020 C1017 1.424 . S
C1020 C1019 1.384 . S
C1020 H1038 0.928 . S
C1021 C1018 1.260 . S
C1021 C1019 1.479 . S
C1022 C1017 1.245 . S
C1022 C1018 1.477 . S
C1022 H1039 0.932 . S
C1023 U1006 2.882 . S
C1023 C1017 1.428 . S
C1023 O1026 1.301 . S
C1023 O1027 1.282 . S
O1024 U1006 2.441 . S
O1024 C1010 1.249 . S
O1025 U1006 2.420 . S
O1025 C1010 1.202 . S
O1026 U1006 2.455 . S
O1026 C1023 1.301 . S
O1027 U1006 2.449 . S
O1027 C1023 1.282 . S
H1028 C1001 0.931 . S
H1029 C1003 0.929 . S
H1030 C1004 0.930 . S
H1031 C1005 0.931 . S
H1032 C1012 0.932 . S
H1033 C1013 0.930 . S
H1034 C1014 0.929 . S
H1035 C1016 0.930 . S
H1036 C1018 0.932 . S
H1037 C1019 0.929 . S
H1038 C1020 0.928 . S
H1039 C1022 0.932 . S
C1040 C1041 1.264 . S
C1040 C1045 1.479 . S
C1040 C1050 1.465 . S
C1041 C1040 1.264 . S
C1041 C1043 1.339 . S
C1041 H1068 0.931 . S
C1042 C1043 1.395 . S
C1042 C1044 1.320 . S
C1043 C1041 1.339 . S
C1043 C1042 1.395 . S
C1043 H1069 0.929 . S
C1044 C1042 1.320 . S
C1044 C1045 1.405 . S
C1044 H1070 0.930 . S
C1045 C1040 1.479 . S
C1045 C1044 1.405 . S
C1045 H1071 0.931 . S
U1046 O1047 2.454 . S
U1046 O1048 2.458 . S
U1046 C1049 2.984 . S
U1046 C1050 2.847 . S
U1046 C1063 2.882 . S
U1046 O1064 2.441 . S
U1046 O1065 2.420 . S
U1046 O1066 2.455 . S
U1046 O1067 2.449 . S
O1047 U1046 2.454 . S
O1047 C1049 1.353 . S
O1048 U1046 2.458 . S
O1048 C1049 1.286 . S
C1049 U1046 2.984 . S
C1049 O1047 1.353 . S
C1049 O1048 1.286 . S
C1049 C1051 1.363 . S
C1050 C1040 1.465 . S
C1050 U1046 2.847 . S
C1050 O1064 1.249 . S
C1050 O1065 1.202 . S
C1051 C1049 1.363 . S
C1051 C1053 1.408 . S
C1051 C1056 1.342 . S
C1052 C1053 1.310 . S
C1052 C1055 1.461 . S
C1052 H1072 0.932 . S
C1053 C1051 1.408 . S
C1053 C1052 1.310 . S
C1053 H1073 0.930 . S
C1054 C1055 1.474 . S
C1054 C1056 1.285 . S
C1054 H1074 0.929 . S
C1055 C1052 1.461 . S
C1055 C1054 1.474 . S
C1056 C1051 1.342 . S
C1056 C1054 1.285 . S
C1056 H1075 0.930 . S
C1057 C1060 1.424 . S
C1057 C1062 1.245 . S
C1057 C1063 1.428 . S
C1058 C1061 1.260 . S
C1058 C1062 1.477 . S
C1058 H1076 0.932 . S
C1059 C1060 1.384 . S
C1059 C1061 1.479 . S
C1059 H1077 0.929 . S
C1060 C1057 1.424 . S
C1060 C1059 1.384 . S
C1060 H1078 0.928 . S
C1061 C1058 1.260 . S
C1061 C1059 1.479 . S
C1062 C1057 1.245 . S
C1062 C1058 1.477 . S
C1062 H1079 0.932 . S
C1063 U1046 2.882 . S
C1063 C1057 1.428 . S
C1063 O1066 1.301 . S
C1063 O1067 1.282 . S
O1064 U1046 2.441 . S
O1064 C1050 1.249 . S
O1065 U1046 2.420 . S
O1065 C1050 1.202 . S
O1066 U1046 2.455 . S
O1066 C1063 1.301 . S
O1067 U1046 2.449 . S
O1067 C1063 1.282 . S
H1068 C1041 0.931 . S
H1069 C1043 0.929 . S
H1070 C1044 0.930 . S
H1071 C1045 0.931 . S
H1072 C1052 0.932 . S
H1073 C1053 0.930 . S
H1074 C1054 0.929 . S
H1075 C1056 0.930 . S
H1076 C1058 0.932 . S
H1077 C1059 0.929 . S
H1078 C1060 0.928 . S
H1079 C1062 0.932 . S
C1080 C1081 1.264 . S
C1080 C1085 1.479 . S
C1080 C1090 1.465 . S
C1081 C1080 1.264 . S
C1081 C1083 1.339 . S
C1081 H1108 0.931 . S
C1082 C1083 1.395 . S
C1082 C1084 1.320 . S
C1083 C1081 1.339 . S
C1083 C1082 1.395 . S
C1083 H1109 0.929 . S
C1084 C1082 1.320 . S
C1084 C1085 1.405 . S
C1084 H1110 0.930 . S
C1085 C1080 1.479 . S
C1085 C1084 1.405 . S
C1085 H1111 0.931 . S
U1086 O1087 2.454 . S
U1086 O1088 2.458 . S
U1086 C1089 2.984 . S
U1086 C1090 2.847 . S
U1086 C1103 2.882 . S
U1086 O1104 2.441 . S
U1086 O1105 2.420 . S
U1086 O1106 2.455 . S
U1086 O1107 2.449 . S
O1087 U1086 2.454 . S
O1087 C1089 1.353 . S
O1088 U1086 2.458 . S
O1088 C1089 1.286 . S
C1089 U1086 2.984 . S
C1089 O1087 1.353 . S
C1089 O1088 1.286 . S
C1089 C1091 1.363 . S
C1090 C1080 1.465 . S
C1090 U1086 2.847 . S
C1090 O1104 1.249 . S
C1090 O1105 1.202 . S
C1091 C1089 1.363 . S
C1091 C1093 1.408 . S
C1091 C1096 1.342 . S
C1092 C1093 1.310 . S
C1092 C1095 1.461 . S
C1092 H1112 0.932 . S
C1093 C1091 1.408 . S
C1093 C1092 1.310 . S
C1093 H1113 0.930 . S
C1094 C1095 1.474 . S
C1094 C1096 1.285 . S
C1094 H1114 0.929 . S
C1095 C1092 1.461 . S
C1095 C1094 1.474 . S
C1096 C1091 1.342 . S
C1096 C1094 1.285 . S
C1096 H1115 0.930 . S
C1097 C1100 1.424 . S
C1097 C1102 1.245 . S
C1097 C1103 1.428 . S
C1098 C1101 1.260 . S
C1098 C1102 1.477 . S
C1098 H1116 0.932 . S
C1099 C1100 1.384 . S
C1099 C1101 1.479 . S
C1099 H1117 0.929 . S
C1100 C1097 1.424 . S
C1100 C1099 1.384 . S
C1100 H1118 0.928 . S
C1101 C1098 1.260 . S
C1101 C1099 1.479 . S
C1102 C1097 1.245 . S
C1102 C1098 1.477 . S
C1102 H1119 0.932 . S
C1103 U1086 2.882 . S
C1103 C1097 1.428 . S
C1103 O1106 1.301 . S
C1103 O1107 1.282 . S
O1104 U1086 2.441 . S
O1104 C1090 1.249 . S
O1105 U1086 2.420 . S
O1105 C1090 1.202 . S
O1106 U1086 2.455 . S
O1106 C1103 1.301 . S
O1107 U1086 2.449 . S
O1107 C1103 1.282 . S
H1108 C1081 0.931 . S
H1109 C1083 0.929 . S
H1110 C1084 0.930 . S
H1111 C1085 0.931 . S
H1112 C1092 0.932 . S
H1113 C1093 0.930 . S
H1114 C1094 0.929 . S
H1115 C1096 0.930 . S
H1116 C1098 0.932 . S
H1117 C1099 0.929 . S
H1118 C1100 0.928 . S
H1119 C1102 0.932 . S
C1120 C1121 1.264 . S
C1120 C1125 1.479 . S
C1120 C1130 1.465 . S
C1121 C1120 1.264 . S
C1121 C1123 1.339 . S
C1121 H1148 0.931 . S
C1122 C1123 1.395 . S
C1122 C1124 1.320 . S
C1123 C1121 1.339 . S
C1123 C1122 1.395 . S
C1123 H1149 0.929 . S
C1124 C1122 1.320 . S
C1124 C1125 1.405 . S
C1124 H1150 0.930 . S
C1125 C1120 1.479 . S
C1125 C1124 1.405 . S
C1125 H1151 0.931 . S
U1126 O1127 2.454 . S
U1126 O1128 2.458 . S
U1126 C1129 2.984 . S
U1126 C1130 2.847 . S
U1126 C1143 2.882 . S
U1126 O1144 2.441 . S
U1126 O1145 2.420 . S
U1126 O1146 2.455 . S
U1126 O1147 2.449 . S
O1127 U1126 2.454 . S
O1127 C1129 1.353 . S
O1128 U1126 2.458 . S
O1128 C1129 1.286 . S
C1129 U1126 2.984 . S
C1129 O1127 1.353 . S
C1129 O1128 1.286 . S
C1129 C1131 1.363 . S
C1130 C1120 1.465 . S
C1130 U1126 2.847 . S
C1130 O1144 1.249 . S
C1130 O1145 1.202 . S
C1131 C1129 1.363 . S
C1131 C1133 1.408 . S
C1131 C1136 1.342 . S
C1132 C1133 1.310 . S
C1132 C1135 1.461 . S
C1132 H1152 0.932 . S
C1133 C1131 1.408 . S
C1133 C1132 1.310 . S
C1133 H1153 0.930 . S
C1134 C1135 1.474 . S
C1134 C1136 1.285 . S
C1134 H1154 0.929 . S
C1135 C1132 1.461 . S
C1135 C1134 1.474 . S
C1136 C1131 1.342 . S
C1136 C1134 1.285 . S
C1136 H1155 0.930 . S
C1137 C1140 1.424 . S
C1137 C1142 1.245 . S
C1137 C1143 1.428 . S
C1138 C1141 1.260 . S
C1138 C1142 1.477 . S
C1138 H1156 0.932 . S
C1139 C1140 1.384 . S
C1139 C1141 1.479 . S
C1139 H1157 0.929 . S
C1140 C1137 1.424 . S
C1140 C1139 1.384 . S
C1140 H1158 0.928 . S
C1141 C1138 1.260 . S
C1141 C1139 1.479 . S
C1142 C1137 1.245 . S
C1142 C1138 1.477 . S
C1142 H1159 0.932 . S
C1143 U1126 2.882 . S
C1143 C1137 1.428 . S
C1143 O1146 1.301 . S
C1143 O1147 1.282 . S
O1144 U1126 2.441 . S
O1144 C1130 1.249 . S
O1145 U1126 2.420 . S
O1145 C1130 1.202 . S
O1146 U1126 2.455 . S
O1146 C1143 1.301 . S
O1147 U1126 2.449 . S
O1147 C1143 1.282 . S
H1148 C1121 0.931 . S
H1149 C1123 0.929 . S
H1150 C1124 0.930 . S
H1151 C1125 0.931 . S
H1152 C1132 0.932 . S
H1153 C1133 0.930 . S
H1154 C1134 0.929 . S
H1155 C1136 0.930 . S
H1156 C1138 0.932 . S
H1157 C1139 0.929 . S
H1158 C1140 0.928 . S
H1159 C1142 0.932 . S
C1160 C1161 1.264 . S
C1160 C1165 1.479 . S
C1160 C1170 1.465 . S
C1161 C1160 1.264 . S
C1161 C1163 1.339 . S
C1161 H1188 0.931 . S
C1162 C1163 1.395 . S
C1162 C1164 1.320 . S
C1163 C1161 1.339 . S
C1163 C1162 1.395 . S
C1163 H1189 0.929 . S
C1164 C1162 1.320 . S
C1164 C1165 1.405 . S
C1164 H1190 0.930 . S
C1165 C1160 1.479 . S
C1165 C1164 1.405 . S
C1165 H1191 0.931 . S
U1166 O1167 2.454 . S
U1166 O1168 2.458 . S
U1166 C1169 2.984 . S
U1166 C1170 2.847 . S
U1166 C1183 2.882 . S
U1166 O1184 2.441 . S
U1166 O1185 2.420 . S
U1166 O1186 2.455 . S
U1166 O1187 2.449 . S
O1167 U1166 2.454 . S
O1167 C1169 1.353 . S
O1168 U1166 2.458 . S
O1168 C1169 1.286 . S
C1169 U1166 2.984 . S
C1169 O1167 1.353 . S
C1169 O1168 1.286 . S
C1169 C1171 1.363 . S
C1170 C1160 1.465 . S
C1170 U1166 2.847 . S
C1170 O1184 1.249 . S
C1170 O1185 1.202 . S
C1171 C1169 1.363 . S
C1171 C1173 1.408 . S
C1171 C1176 1.342 . S
C1172 C1173 1.310 . S
C1172 C1175 1.461 . S
C1172 H1192 0.932 . S
C1173 C1171 1.408 . S
C1173 C1172 1.310 . S
C1173 H1193 0.930 . S
C1174 C1175 1.474 . S
C1174 C1176 1.285 . S
C1174 H1194 0.929 . S
C1175 C1172 1.461 . S
C1175 C1174 1.474 . S
C1176 C1171 1.342 . S
C1176 C1174 1.285 . S
C1176 H1195 0.930 . S
C1177 C1180 1.424 . S
C1177 C1182 1.245 . S
C1177 C1183 1.428 . S
C1178 C1181 1.260 . S
C1178 C1182 1.477 . S
C1178 H1196 0.932 . S
C1179 C1180 1.384 . S
C1179 C1181 1.479 . S
C1179 H1197 0.929 . S
C1180 C1177 1.424 . S
C1180 C1179 1.384 . S
C1180 H1198 0.928 . S
C1181 C1178 1.260 . S
C1181 C1179 1.479 . S
C1182 C1177 1.245 . S
C1182 C1178 1.477 . S
C1182 H1199 0.932 . S
C1183 U1166 2.882 . S
C1183 C1177 1.428 . S
C1183 O1186 1.301 . S
C1183 O1187 1.282 . S
O1184 U1166 2.441 . S
O1184 C1170 1.249 . S
O1185 U1166 2.420 . S
O1185 C1170 1.202 . S
O1186 U1166 2.455 . S
O1186 C1183 1.301 . S
O1187 U1166 2.449 . S
O1187 C1183 1.282 . S
H1188 C1161 0.931 . S
H1189 C1163 0.929 . S
H1190 C1164 0.930 . S
H1191 C1165 0.931 . S
H1192 C1172 0.932 . S
H1193 C1173 0.930 . S
H1194 C1174 0.929 . S
H1195 C1176 0.930 . S
H1196 C1178 0.932 . S
H1197 C1179 0.929 . S
H1198 C1180 0.928 . S
H1199 C1182 0.932 . S
C1200 C1201 1.264 . S
C1200 C1205 1.479 . S
C1200 C1210 1.465 . S
C1201 C1200 1.264 . S
C1201 C1203 1.339 . S
C1201 H1228 0.931 . S
C1202 C1203 1.395 . S
C1202 C1204 1.320 . S
C1203 C1201 1.339 . S
C1203 C1202 1.395 . S
C1203 H1229 0.929 . S
C1204 C1202 1.320 . S
C1204 C1205 1.405 . S
C1204 H1230 0.930 . S
C1205 C1200 1.479 . S
C1205 C1204 1.405 . S
C1205 H1231 0.931 . S
U1206 O1207 2.454 . S
U1206 O1208 2.458 . S
U1206 C1209 2.984 . S
U1206 C1210 2.847 . S
U1206 C1223 2.882 . S
U1206 O1224 2.441 . S
U1206 O1225 2.420 . S
U1206 O1226 2.455 . S
U1206 O1227 2.449 . S
O1207 U1206 2.454 . S
O1207 C1209 1.353 . S
O1208 U1206 2.458 . S
O1208 C1209 1.286 . S
C1209 U1206 2.984 . S
C1209 O1207 1.353 . S
C1209 O1208 1.286 . S
C1209 C1211 1.363 . S
C1210 C1200 1.465 . S
C1210 U1206 2.847 . S
C1210 O1224 1.249 . S
C1210 O1225 1.202 . S
C1211 C1209 1.363 . S
C1211 C1213 1.408 . S
C1211 C1216 1.342 . S
C1212 C1213 1.310 . S
C1212 C1215 1.461 . S
C1212 H1232 0.932 . S
C1213 C1211 1.408 . S
C1213 C1212 1.310 . S
C1213 H1233 0.930 . S
C1214 C1215 1.474 . S
C1214 C1216 1.285 . S
C1214 H1234 0.929 . S
C1215 C1212 1.461 . S
C1215 C1214 1.474 . S
C1216 C1211 1.342 . S
C1216 C1214 1.285 . S
C1216 H1235 0.930 . S
C1217 C1220 1.424 . S
C1217 C1222 1.245 . S
C1217 C1223 1.428 . S
C1218 C1221 1.260 . S
C1218 C1222 1.477 . S
C1218 H1236 0.932 . S
C1219 C1220 1.384 . S
C1219 C1221 1.479 . S
C1219 H1237 0.929 . S
C1220 C1217 1.424 . S
C1220 C1219 1.384 . S
C1220 H1238 0.928 . S
C1221 C1218 1.260 . S
C1221 C1219 1.479 . S
C1222 C1217 1.245 . S
C1222 C1218 1.477 . S
C1222 H1239 0.932 . S
C1223 U1206 2.882 . S
C1223 C1217 1.428 . S
C1223 O1226 1.301 . S
C1223 O1227 1.282 . S
O1224 U1206 2.441 . S
O1224 C1210 1.249 . S
O1225 U1206 2.420 . S
O1225 C1210 1.202 . S
O1226 U1206 2.455 . S
O1226 C1223 1.301 . S
O1227 U1206 2.449 . S
O1227 C1223 1.282 . S
H1228 C1201 0.931 . S
H1229 C1203 0.929 . S
H1230 C1204 0.930 . S
H1231 C1205 0.931 . S
H1232 C1212 0.932 . S
H1233 C1213 0.930 . S
H1234 C1214 0.929 . S
H1235 C1216 0.930 . S
H1236 C1218 0.932 . S
H1237 C1219 0.929 . S
H1238 C1220 0.928 . S
H1239 C1222 0.932 . S
C1240 C1241 1.264 . S
C1240 C1245 1.479 . S
C1240 C1250 1.465 . S
C1241 C1240 1.264 . S
C1241 C1243 1.339 . S
C1241 H1268 0.931 . S
C1242 C1243 1.395 . S
C1242 C1244 1.320 . S
C1243 C1241 1.339 . S
C1243 C1242 1.395 . S
C1243 H1269 0.929 . S
C1244 C1242 1.320 . S
C1244 C1245 1.405 . S
C1244 H1270 0.930 . S
C1245 C1240 1.479 . S
C1245 C1244 1.405 . S
C1245 H1271 0.931 . S
U1246 O1247 2.454 . S
U1246 O1248 2.458 . S
U1246 C1249 2.984 . S
U1246 C1250 2.847 . S
U1246 C1263 2.882 . S
U1246 O1264 2.441 . S
U1246 O1265 2.420 . S
U1246 O1266 2.455 . S
U1246 O1267 2.449 . S
O1247 U1246 2.454 . S
O1247 C1249 1.353 . S
O1248 U1246 2.458 . S
O1248 C1249 1.286 . S
C1249 U1246 2.984 . S
C1249 O1247 1.353 . S
C1249 O1248 1.286 . S
C1249 C1251 1.363 . S
C1250 C1240 1.465 . S
C1250 U1246 2.847 . S
C1250 O1264 1.249 . S
C1250 O1265 1.202 . S
C1251 C1249 1.363 . S
C1251 C1253 1.408 . S
C1251 C1256 1.342 . S
C1252 C1253 1.310 . S
C1252 C1255 1.461 . S
C1252 H1272 0.932 . S
C1253 C1251 1.408 . S
C1253 C1252 1.310 . S
C1253 H1273 0.930 . S
C1254 C1255 1.474 . S
C1254 C1256 1.285 . S
C1254 H1274 0.929 . S
C1255 C1252 1.461 . S
C1255 C1254 1.474 . S
C1256 C1251 1.342 . S
C1256 C1254 1.285 . S
C1256 H1275 0.930 . S
C1257 C1260 1.424 . S
C1257 C1262 1.245 . S
C1257 C1263 1.428 . S
C1258 C1261 1.260 . S
C1258 C1262 1.477 . S
C1258 H1276 0.932 . S
C1259 C1260 1.384 . S
C1259 C1261 1.479 . S
C1259 H1277 0.929 . S
C1260 C1257 1.424 . S
C1260 C1259 1.384 . S
C1260 H1278 0.928 . S
C1261 C1258 1.260 . S
C1261 C1259 1.479 . S
C1262 C1257 1.245 . S
C1262 C1258 1.477 . S
C1262 H1279 0.932 . S
C1263 U1246 2.882 . S
C1263 C1257 1.428 . S
C1263 O1266 1.301 . S
C1263 O1267 1.282 . S
O1264 U1246 2.441 . S
O1264 C1250 1.249 . S
O1265 U1246 2.420 . S
O1265 C1250 1.202 . S
O1266 U1246 2.455 . S
O1266 C1263 1.301 . S
O1267 U1246 2.449 . S
O1267 C1263 1.282 . S
H1268 C1241 0.931 . S
H1269 C1243 0.929 . S
H1270 C1244 0.930 . S
H1271 C1245 0.931 . S
H1272 C1252 0.932 . S
H1273 C1253 0.930 . S
H1274 C1254 0.929 . S
H1275 C1256 0.930 . S
H1276 C1258 0.932 . S
H1277 C1259 0.929 . S
H1278 C1260 0.928 . S
H1279 C1262 0.932 . S
C1280 C1281 1.560 . S
C1280 H1341 0.959 . S
C1280 H1342 0.959 . S
C1280 H1343 0.960 . S
C1281 C1280 1.560 . S
C1281 O1336 1.426 . S
C1281 H1340 0.980 . S
C1282 C1283 1.407 . S
C1282 C1287 1.418 . S
C1282 O1336 1.334 . S
C1283 C1282 1.407 . S
C1283 C1284 1.360 . S
C1283 H1344 0.929 . S
C1284 C1283 1.360 . S
C1284 C1285 1.401 . S
C1284 C1288 1.527 . S
C1285 C1284 1.401 . S
C1285 C1286 1.405 . S
C1285 C1318 1.587 . S
C1286 C1285 1.405 . S
C1286 C1287 1.332 . S
C1286 C1289 1.496 . S
C1287 C1282 1.418 . S
C1287 C1286 1.332 . S
C1287 H1345 0.929 . S
C1288 C1284 1.527 . S
C1288 H1346 0.959 . S
C1288 H1347 0.961 . S
C1288 H1348 0.961 . S
C1289 C1286 1.496 . S
C1289 H1349 0.960 . S
C1289 H1350 0.960 . S
C1289 H1351 0.961 . S
C1290 C1291 1.517 . S
C1290 H1353 0.961 . S
C1290 H1354 0.960 . S
C1290 H1355 0.959 . S
C1291 C1290 1.517 . S
C1291 O1339 1.468 . S
C1291 H1352 0.980 . S
C1292 C1293 1.349 . S
C1292 C1297 1.367 . S
C1292 O1339 1.408 . S
C1293 C1292 1.349 . S
C1293 C1294 1.407 . S
C1293 H1356 0.930 . S
C1294 C1293 1.407 . S
C1294 C1295 1.449 . S
C1294 C1298 1.535 . S
C1295 C1294 1.449 . S
C1295 C1296 1.384 . S
C1295 C1320 1.553 . S
C1296 C1295 1.384 . S
C1296 C1297 1.364 . S
C1296 C1299 1.450 . S
C1297 C1292 1.367 . S
C1297 C1296 1.364 . S
C1297 H1357 0.931 . S
C1298 C1294 1.535 . S
C1298 H1358 0.959 . S
C1298 H1359 0.961 . S
C1298 H1360 0.959 . S
C1299 C1296 1.450 . S
C1299 H1361 0.960 . S
C1299 H1362 0.960 . S
C1299 H1363 0.960 . S
C1300 C1301 1.309 . S
C1300 C1305 1.304 . S
C1300 O1338 1.435 . S
C1301 C1300 1.309 . S
C1301 C1302 1.476 . S
C1301 H1365 0.930 . S
C1302 C1301 1.476 . S
C1302 C1303 1.400 . S
C1302 C1306 1.567 . S
C1303 C1302 1.400 . S
C1303 C1304 1.373 . S
C1303 C1325 1.432 . S
C1304 C1303 1.373 . S
C1304 C1305 1.339 . S
C1304 C1307 1.530 . S
C1305 C1300 1.304 . S
C1305 C1304 1.339 . S
C1305 H1366 0.930 . S
C1306 C1302 1.567 . S
C1306 H1367 0.961 . S
C1306 H1368 0.960 . S
C1306 H1369 0.958 . S
C1307 C1304 1.530 . S
C1307 H1370 0.961 . S
C1307 H1371 0.960 . S
C1307 H1372 0.960 . S
C1308 C1309 1.530 . S
C1308 H1374 0.961 . S
C1308 H1375 0.961 . S
C1308 H1376 0.959 . S
C1309 C1308 1.530 . S
C1309 O1337 1.412 . S
C1309 H1373 0.980 . S
C1310 C1311 1.288 . S
C1310 C1315 1.377 . S
C1310 O1337 1.393 . S
C1311 C1310 1.288 . S
C1311 C1312 1.369 . S
C1311 H1377 0.932 . S
C1312 C1311 1.369 . S
C1312 C1313 1.398 . S
C1312 C1316 1.527 . S
C1313 C1312 1.398 . S
C1313 C1314 1.380 . S
C1313 C1327 1.497 . S
C1314 C1313 1.380 . S
C1314 C1315 1.383 . S
C1314 C1317 1.603 . S
C1315 C1310 1.377 . S
C1315 C1314 1.383 . S
C1315 H1378 0.929 . S
C1316 C1312 1.527 . S
C1316 H1379 0.961 . S
C1316 H1380 0.959 . S
C1316 H1381 0.959 . S
C1317 C1314 1.603 . S
C1317 H1382 0.960 . S
C1317 H1383 0.962 . S
C1317 H1384 0.961 . S
C1318 C1285 1.587 . S
C1318 C1319 1.360 . S
C1318 C1331 1.412 . S
C1319 C1318 1.360 . S
C1319 C1320 1.365 1_554 S
C1319 H1385 0.929 . S
C1320 C1295 1.553 . S
C1320 C1319 1.365 1_556 S
C1320 C1321 1.404 . S
C1321 C1320 1.404 . S
C1321 C1322 1.395 . S
C1321 C1332 1.451 1_556 S
C1322 C1321 1.395 . S
C1322 C1323 1.322 . S
C1322 H1386 0.930 . S
C1323 C1322 1.322 . S
C1323 C1324 1.459 . S
C1323 H1387 0.929 . S
C1324 C1323 1.459 . S
C1324 C1325 1.445 . S
C1324 C1333 1.395 1_556 S
C1325 C1303 1.432 . S
C1325 C1324 1.445 . S
C1325 C1326 1.370 1_556 S
C1326 C1325 1.370 1_554 S
C1326 C1327 1.438 . S
C1326 H1388 0.930 . S
C1327 C1313 1.497 . S
C1327 C1326 1.438 . S
C1327 C1328 1.360 . S
C1328 C1327 1.360 . S
C1328 C1329 1.401 . S
C1328 C1333 1.446 . S
C1329 C1328 1.401 . S
C1329 C1330 1.347 . S
C1329 H1389 0.929 . S
C1330 C1329 1.347 . S
C1330 C1331 1.455 . S
C1330 H1390 0.930 . S
C1331 C1318 1.412 . S
C1331 C1330 1.455 . S
C1331 C1332 1.331 . S
C1332 C1321 1.451 1_554 S
C1332 C1331 1.331 . S
C1332 C1333 1.497 . S
C1333 C1324 1.395 1_554 S
C1333 C1328 1.446 . S
C1333 C1332 1.497 . S
C1334 C1335 1.582 . S
C1334 H1391 0.962 . S
C1334 H1392 0.959 . S
C1334 H1393 0.958 . S
C1335 C1334 1.582 . S
C1335 O1338 1.458 . S
C1335 H1364 0.980 . S
O1336 C1281 1.426 . S
O1336 C1282 1.334 . S
O1337 C1309 1.412 . S
O1337 C1310 1.393 . S
O1338 C1300 1.435 . S
O1338 C1335 1.458 . S
O1339 C1291 1.468 . S
O1339 C1292 1.408 . S
H1340 C1281 0.980 . S
H1341 C1280 0.959 . S
H1342 C1280 0.959 . S
H1343 C1280 0.960 . S
H1344 C1283 0.929 . S
H1345 C1287 0.929 . S
H1346 C1288 0.959 . S
H1347 C1288 0.961 . S
H1348 C1288 0.961 . S
H1349 C1289 0.960 . S
H1350 C1289 0.960 . S
H1351 C1289 0.961 . S
H1352 C1291 0.980 . S
H1353 C1290 0.961 . S
H1354 C1290 0.960 . S
H1355 C1290 0.959 . S
H1356 C1293 0.930 . S
H1357 C1297 0.931 . S
H1358 C1298 0.959 . S
H1359 C1298 0.961 . S
H1360 C1298 0.959 . S
H1361 C1299 0.960 . S
H1362 C1299 0.960 . S
H1363 C1299 0.960 . S
H1364 C1335 0.980 . S
H1365 C1301 0.930 . S
H1366 C1305 0.930 . S
H1367 C1306 0.961 . S
H1368 C1306 0.960 . S
H1369 C1306 0.958 . S
H1370 C1307 0.961 . S
H1371 C1307 0.960 . S
H1372 C1307 0.960 . S
H1373 C1309 0.980 . S
H1374 C1308 0.961 . S
H1375 C1308 0.961 . S
H1376 C1308 0.959 . S
H1377 C1311 0.932 . S
H1378 C1315 0.929 . S
H1379 C1316 0.961 . S
H1380 C1316 0.959 . S
H1381 C1316 0.959 . S
H1382 C1317 0.960 . S
H1383 C1317 0.962 . S
H1384 C1317 0.961 . S
H1385 C1319 0.929 . S
H1386 C1322 0.930 . S
H1387 C1323 0.929 . S
H1388 C1326 0.930 . S
H1389 C1329 0.929 . S
H1390 C1330 0.930 . S
H1391 C1334 0.962 . S
H1392 C1334 0.959 . S
H1393 C1334 0.958 . S
C1394 C1395 1.560 . S
C1394 H1455 0.959 . S
C1394 H1456 0.959 . S
C1394 H1457 0.960 . S
C1395 C1394 1.560 . S
C1395 O1450 1.426 . S
C1395 H1454 0.980 . S
C1396 C1397 1.407 . S
C1396 C1401 1.418 . S
C1396 O1450 1.334 . S
C1397 C1396 1.407 . S
C1397 C1398 1.360 . S
C1397 H1458 0.929 . S
C1398 C1397 1.360 . S
C1398 C1399 1.401 . S
C1398 C1402 1.527 . S
C1399 C1398 1.401 . S
C1399 C1400 1.405 . S
C1399 C1432 1.587 . S
C1400 C1399 1.405 . S
C1400 C1401 1.332 . S
C1400 C1403 1.496 . S
C1401 C1396 1.418 . S
C1401 C1400 1.332 . S
C1401 H1459 0.929 . S
C1402 C1398 1.527 . S
C1402 H1460 0.959 . S
C1402 H1461 0.961 . S
C1402 H1462 0.961 . S
C1403 C1400 1.496 . S
C1403 H1463 0.960 . S
C1403 H1464 0.960 . S
C1403 H1465 0.961 . S
C1404 C1405 1.517 . S
C1404 H1467 0.961 . S
C1404 H1468 0.960 . S
C1404 H1469 0.959 . S
C1405 C1404 1.517 . S
C1405 O1453 1.468 . S
C1405 H1466 0.980 . S
C1406 C1407 1.349 . S
C1406 C1411 1.367 . S
C1406 O1453 1.408 . S
C1407 C1406 1.349 . S
C1407 C1408 1.407 . S
C1407 H1470 0.930 . S
C1408 C1407 1.407 . S
C1408 C1409 1.449 . S
C1408 C1412 1.535 . S
C1409 C1408 1.449 . S
C1409 C1410 1.384 . S
C1409 C1434 1.553 . S
C1410 C1409 1.384 . S
C1410 C1411 1.364 . S
C1410 C1413 1.450 . S
C1411 C1406 1.367 . S
C1411 C1410 1.364 . S
C1411 H1471 0.931 . S
C1412 C1408 1.535 . S
C1412 H1472 0.959 . S
C1412 H1473 0.961 . S
C1412 H1474 0.959 . S
C1413 C1410 1.450 . S
C1413 H1475 0.960 . S
C1413 H1476 0.960 . S
C1413 H1477 0.960 . S
C1414 C1415 1.309 . S
C1414 C1419 1.304 . S
C1414 O1452 1.435 . S
C1415 C1414 1.309 . S
C1415 C1416 1.476 . S
C1415 H1479 0.930 . S
C1416 C1415 1.476 . S
C1416 C1417 1.400 . S
C1416 C1420 1.567 . S
C1417 C1416 1.400 . S
C1417 C1418 1.373 . S
C1417 C1439 1.432 . S
C1418 C1417 1.373 . S
C1418 C1419 1.339 . S
C1418 C1421 1.530 . S
C1419 C1414 1.304 . S
C1419 C1418 1.339 . S
C1419 H1480 0.930 . S
C1420 C1416 1.567 . S
C1420 H1481 0.961 . S
C1420 H1482 0.960 . S
C1420 H1483 0.958 . S
C1421 C1418 1.530 . S
C1421 H1484 0.961 . S
C1421 H1485 0.960 . S
C1421 H1486 0.960 . S
C1422 C1423 1.530 . S
C1422 H1488 0.961 . S
C1422 H1489 0.961 . S
C1422 H1490 0.959 . S
C1423 C1422 1.530 . S
C1423 O1451 1.412 . S
C1423 H1487 0.980 . S
C1424 C1425 1.288 . S
C1424 C1429 1.377 . S
C1424 O1451 1.393 . S
C1425 C1424 1.288 . S
C1425 C1426 1.369 . S
C1425 H1491 0.932 . S
C1426 C1425 1.369 . S
C1426 C1427 1.398 . S
C1426 C1430 1.527 . S
C1427 C1426 1.398 . S
C1427 C1428 1.380 . S
C1427 C1441 1.497 . S
C1428 C1427 1.380 . S
C1428 C1429 1.383 . S
C1428 C1431 1.603 . S
C1429 C1424 1.377 . S
C1429 C1428 1.383 . S
C1429 H1492 0.929 . S
C1430 C1426 1.527 . S
C1430 H1493 0.961 . S
C1430 H1494 0.959 . S
C1430 H1495 0.959 . S
C1431 C1428 1.603 . S
C1431 H1496 0.960 . S
C1431 H1497 0.962 . S
C1431 H1498 0.961 . S
C1432 C1399 1.587 . S
C1432 C1433 1.360 1_556 S
C1432 C1445 1.412 . S
C1433 C1432 1.360 1_554 S
C1433 C1434 1.365 . S
C1433 H1499 0.929 . S
C1434 C1409 1.553 . S
C1434 C1433 1.365 . S
C1434 C1435 1.404 . S
C1435 C1434 1.404 . S
C1435 C1436 1.395 . S
C1435 C1446 1.451 . S
C1436 C1435 1.395 . S
C1436 C1437 1.322 . S
C1436 H1500 0.930 . S
C1437 C1436 1.322 . S
C1437 C1438 1.459 . S
C1437 H1501 0.929 . S
C1438 C1437 1.459 . S
C1438 C1439 1.445 . S
C1438 C1447 1.395 . S
C1439 C1417 1.432 . S
C1439 C1438 1.445 . S
C1439 C1440 1.370 . S
C1440 C1439 1.370 . S
C1440 C1441 1.438 1_554 S
C1440 H1502 0.930 . S
C1441 C1427 1.497 . S
C1441 C1440 1.438 1_556 S
C1441 C1442 1.360 . S
C1442 C1441 1.360 . S
C1442 C1443 1.401 . S
C1442 C1447 1.446 1_556 S
C1443 C1442 1.401 . S
C1443 C1444 1.347 . S
C1443 H1503 0.929 . S
C1444 C1443 1.347 . S
C1444 C1445 1.455 . S
C1444 H1504 0.930 . S
C1445 C1432 1.412 . S
C1445 C1444 1.455 . S
C1445 C1446 1.331 1_556 S
C1446 C1435 1.451 . S
C1446 C1445 1.331 1_554 S
C1446 C1447 1.497 . S
C1447 C1438 1.395 . S
C1447 C1442 1.446 1_554 S
C1447 C1446 1.497 . S
C1448 C1449 1.582 . S
C1448 H1505 0.962 . S
C1448 H1506 0.959 . S
C1448 H1507 0.958 . S
C1449 C1448 1.582 . S
C1449 O1452 1.458 . S
C1449 H1478 0.980 . S
O1450 C1395 1.426 . S
O1450 C1396 1.334 . S
O1451 C1423 1.412 . S
O1451 C1424 1.393 . S
O1452 C1414 1.435 . S
O1452 C1449 1.458 . S
O1453 C1405 1.468 . S
O1453 C1406 1.408 . S
H1454 C1395 0.980 . S
H1455 C1394 0.959 . S
H1456 C1394 0.959 . S
H1457 C1394 0.960 . S
H1458 C1397 0.929 . S
H1459 C1401 0.929 . S
H1460 C1402 0.959 . S
H1461 C1402 0.961 . S
H1462 C1402 0.961 . S
H1463 C1403 0.960 . S
H1464 C1403 0.960 . S
H1465 C1403 0.961 . S
H1466 C1405 0.980 . S
H1467 C1404 0.961 . S
H1468 C1404 0.960 . S
H1469 C1404 0.959 . S
H1470 C1407 0.930 . S
H1471 C1411 0.931 . S
H1472 C1412 0.959 . S
H1473 C1412 0.961 . S
H1474 C1412 0.959 . S
H1475 C1413 0.960 . S
H1476 C1413 0.960 . S
H1477 C1413 0.960 . S
H1478 C1449 0.980 . S
H1479 C1415 0.930 . S
H1480 C1419 0.930 . S
H1481 C1420 0.961 . S
H1482 C1420 0.960 . S
H1483 C1420 0.958 . S
H1484 C1421 0.961 . S
H1485 C1421 0.960 . S
H1486 C1421 0.960 . S
H1487 C1423 0.980 . S
H1488 C1422 0.961 . S
H1489 C1422 0.961 . S
H1490 C1422 0.959 . S
H1491 C1425 0.932 . S
H1492 C1429 0.929 . S
H1493 C1430 0.961 . S
H1494 C1430 0.959 . S
H1495 C1430 0.959 . S
H1496 C1431 0.960 . S
H1497 C1431 0.962 . S
H1498 C1431 0.961 . S
H1499 C1433 0.929 . S
H1500 C1436 0.930 . S
H1501 C1437 0.929 . S
H1502 C1440 0.930 . S
H1503 C1443 0.929 . S
H1504 C1444 0.930 . S
H1505 C1448 0.962 . S
H1506 C1448 0.959 . S
H1507 C1448 0.958 . S
C1508 C1509 1.560 . S
C1508 H1569 0.959 . S
C1508 H1570 0.959 . S
C1508 H1571 0.960 . S
C1509 C1508 1.560 . S
C1509 O1564 1.426 . S
C1509 H1568 0.980 . S
C1510 C1511 1.407 . S
C1510 C1515 1.418 . S
C1510 O1564 1.334 . S
C1511 C1510 1.407 . S
C1511 C1512 1.360 . S
C1511 H1572 0.929 . S
C1512 C1511 1.360 . S
C1512 C1513 1.401 . S
C1512 C1516 1.527 . S
C1513 C1512 1.401 . S
C1513 C1514 1.405 . S
C1513 C1546 1.587 . S
C1514 C1513 1.405 . S
C1514 C1515 1.332 . S
C1514 C1517 1.496 . S
C1515 C1510 1.418 . S
C1515 C1514 1.332 . S
C1515 H1573 0.929 . S
C1516 C1512 1.527 . S
C1516 H1574 0.959 . S
C1516 H1575 0.961 . S
C1516 H1576 0.961 . S
C1517 C1514 1.496 . S
C1517 H1577 0.960 . S
C1517 H1578 0.960 . S
C1517 H1579 0.961 . S
C1518 C1519 1.517 . S
C1518 H1581 0.961 . S
C1518 H1582 0.960 . S
C1518 H1583 0.959 . S
C1519 C1518 1.517 . S
C1519 O1567 1.468 . S
C1519 H1580 0.980 . S
C1520 C1521 1.349 . S
C1520 C1525 1.367 . S
C1520 O1567 1.408 . S
C1521 C1520 1.349 . S
C1521 C1522 1.407 . S
C1521 H1584 0.930 . S
C1522 C1521 1.407 . S
C1522 C1523 1.449 . S
C1522 C1526 1.535 . S
C1523 C1522 1.449 . S
C1523 C1524 1.384 . S
C1523 C1548 1.553 . S
C1524 C1523 1.384 . S
C1524 C1525 1.364 . S
C1524 C1527 1.450 . S
C1525 C1520 1.367 . S
C1525 C1524 1.364 . S
C1525 H1585 0.931 . S
C1526 C1522 1.535 . S
C1526 H1586 0.959 . S
C1526 H1587 0.961 . S
C1526 H1588 0.959 . S
C1527 C1524 1.450 . S
C1527 H1589 0.960 . S
C1527 H1590 0.960 . S
C1527 H1591 0.960 . S
C1528 C1529 1.309 . S
C1528 C1533 1.304 . S
C1528 O1566 1.435 . S
C1529 C1528 1.309 . S
C1529 C1530 1.476 . S
C1529 H1593 0.930 . S
C1530 C1529 1.476 . S
C1530 C1531 1.400 . S
C1530 C1534 1.567 . S
C1531 C1530 1.400 . S
C1531 C1532 1.373 . S
C1531 C1553 1.432 . S
C1532 C1531 1.373 . S
C1532 C1533 1.339 . S
C1532 C1535 1.530 . S
C1533 C1528 1.304 . S
C1533 C1532 1.339 . S
C1533 H1594 0.930 . S
C1534 C1530 1.567 . S
C1534 H1595 0.961 . S
C1534 H1596 0.960 . S
C1534 H1597 0.958 . S
C1535 C1532 1.530 . S
C1535 H1598 0.961 . S
C1535 H1599 0.960 . S
C1535 H1600 0.960 . S
C1536 C1537 1.530 . S
C1536 H1602 0.961 . S
C1536 H1603 0.961 . S
C1536 H1604 0.959 . S
C1537 C1536 1.530 . S
C1537 O1565 1.412 . S
C1537 H1601 0.980 . S
C1538 C1539 1.288 . S
C1538 C1543 1.377 . S
C1538 O1565 1.393 . S
C1539 C1538 1.288 . S
C1539 C1540 1.369 . S
C1539 H1605 0.932 . S
C1540 C1539 1.369 . S
C1540 C1541 1.398 . S
C1540 C1544 1.527 . S
C1541 C1540 1.398 . S
C1541 C1542 1.380 . S
C1541 C1555 1.497 . S
C1542 C1541 1.380 . S
C1542 C1543 1.383 . S
C1542 C1545 1.603 . S
C1543 C1538 1.377 . S
C1543 C1542 1.383 . S
C1543 H1606 0.929 . S
C1544 C1540 1.527 . S
C1544 H1607 0.961 . S
C1544 H1608 0.959 . S
C1544 H1609 0.959 . S
C1545 C1542 1.603 . S
C1545 H1610 0.960 . S
C1545 H1611 0.962 . S
C1545 H1612 0.961 . S
C1546 C1513 1.587 . S
C1546 C1547 1.360 . S
C1546 C1559 1.412 . S
C1547 C1546 1.360 . S
C1547 C1548 1.365 1_554 S
C1547 H1613 0.929 . S
C1548 C1523 1.553 . S
C1548 C1547 1.365 1_556 S
C1548 C1549 1.404 . S
C1549 C1548 1.404 . S
C1549 C1550 1.395 . S
C1549 C1560 1.451 1_556 S
C1550 C1549 1.395 . S
C1550 C1551 1.322 . S
C1550 H1614 0.930 . S
C1551 C1550 1.322 . S
C1551 C1552 1.459 . S
C1551 H1615 0.929 . S
C1552 C1551 1.459 . S
C1552 C1553 1.445 . S
C1552 C1561 1.395 1_556 S
C1553 C1531 1.432 . S
C1553 C1552 1.445 . S
C1553 C1554 1.370 1_556 S
C1554 C1553 1.370 1_554 S
C1554 C1555 1.438 . S
C1554 H1616 0.930 . S
C1555 C1541 1.497 . S
C1555 C1554 1.438 . S
C1555 C1556 1.360 . S
C1556 C1555 1.360 . S
C1556 C1557 1.401 . S
C1556 C1561 1.446 . S
C1557 C1556 1.401 . S
C1557 C1558 1.347 . S
C1557 H1617 0.929 . S
C1558 C1557 1.347 . S
C1558 C1559 1.455 . S
C1558 H1618 0.930 . S
C1559 C1546 1.412 . S
C1559 C1558 1.455 . S
C1559 C1560 1.331 . S
C1560 C1549 1.451 1_554 S
C1560 C1559 1.331 . S
C1560 C1561 1.497 . S
C1561 C1552 1.395 1_554 S
C1561 C1556 1.446 . S
C1561 C1560 1.497 . S
C1562 C1563 1.582 . S
C1562 H1619 0.962 . S
C1562 H1620 0.959 . S
C1562 H1621 0.958 . S
C1563 C1562 1.582 . S
C1563 O1566 1.458 . S
C1563 H1592 0.980 . S
O1564 C1509 1.426 . S
O1564 C1510 1.334 . S
O1565 C1537 1.412 . S
O1565 C1538 1.393 . S
O1566 C1528 1.435 . S
O1566 C1563 1.458 . S
O1567 C1519 1.468 . S
O1567 C1520 1.408 . S
H1568 C1509 0.980 . S
H1569 C1508 0.959 . S
H1570 C1508 0.959 . S
H1571 C1508 0.960 . S
H1572 C1511 0.929 . S
H1573 C1515 0.929 . S
H1574 C1516 0.959 . S
H1575 C1516 0.961 . S
H1576 C1516 0.961 . S
H1577 C1517 0.960 . S
H1578 C1517 0.960 . S
H1579 C1517 0.961 . S
H1580 C1519 0.980 . S
H1581 C1518 0.961 . S
H1582 C1518 0.960 . S
H1583 C1518 0.959 . S
H1584 C1521 0.930 . S
H1585 C1525 0.931 . S
H1586 C1526 0.959 . S
H1587 C1526 0.961 . S
H1588 C1526 0.959 . S
H1589 C1527 0.960 . S
H1590 C1527 0.960 . S
H1591 C1527 0.960 . S
H1592 C1563 0.980 . S
H1593 C1529 0.930 . S
H1594 C1533 0.930 . S
H1595 C1534 0.961 . S
H1596 C1534 0.960 . S
H1597 C1534 0.958 . S
H1598 C1535 0.961 . S
H1599 C1535 0.960 . S
H1600 C1535 0.960 . S
H1601 C1537 0.980 . S
H1602 C1536 0.961 . S
H1603 C1536 0.961 . S
H1604 C1536 0.959 . S
H1605 C1539 0.932 . S
H1606 C1543 0.929 . S
H1607 C1544 0.961 . S
H1608 C1544 0.959 . S
H1609 C1544 0.959 . S
H1610 C1545 0.960 . S
H1611 C1545 0.962 . S
H1612 C1545 0.961 . S
H1613 C1547 0.929 . S
H1614 C1550 0.930 . S
H1615 C1551 0.929 . S
H1616 C1554 0.930 . S
H1617 C1557 0.929 . S
H1618 C1558 0.930 . S
H1619 C1562 0.962 . S
H1620 C1562 0.959 . S
H1621 C1562 0.958 . S
C1622 C1623 1.560 . S
C1622 H1683 0.959 . S
C1622 H1684 0.959 . S
C1622 H1685 0.960 . S
C1623 C1622 1.560 . S
C1623 O1678 1.426 . S
C1623 H1682 0.980 . S
C1624 C1625 1.407 . S
C1624 C1629 1.418 . S
C1624 O1678 1.334 . S
C1625 C1624 1.407 . S
C1625 C1626 1.360 . S
C1625 H1686 0.929 . S
C1626 C1625 1.360 . S
C1626 C1627 1.401 . S
C1626 C1630 1.527 . S
C1627 C1626 1.401 . S
C1627 C1628 1.405 . S
C1627 C1660 1.587 . S
C1628 C1627 1.405 . S
C1628 C1629 1.332 . S
C1628 C1631 1.496 . S
C1629 C1624 1.418 . S
C1629 C1628 1.332 . S
C1629 H1687 0.929 . S
C1630 C1626 1.527 . S
C1630 H1688 0.959 . S
C1630 H1689 0.961 . S
C1630 H1690 0.961 . S
C1631 C1628 1.496 . S
C1631 H1691 0.960 . S
C1631 H1692 0.960 . S
C1631 H1693 0.961 . S
C1632 C1633 1.517 . S
C1632 H1695 0.961 . S
C1632 H1696 0.960 . S
C1632 H1697 0.959 . S
C1633 C1632 1.517 . S
C1633 O1681 1.468 . S
C1633 H1694 0.980 . S
C1634 C1635 1.349 . S
C1634 C1639 1.367 . S
C1634 O1681 1.408 . S
C1635 C1634 1.349 . S
C1635 C1636 1.407 . S
C1635 H1698 0.930 . S
C1636 C1635 1.407 . S
C1636 C1637 1.449 . S
C1636 C1640 1.535 . S
C1637 C1636 1.449 . S
C1637 C1638 1.384 . S
C1637 C1662 1.553 . S
C1638 C1637 1.384 . S
C1638 C1639 1.364 . S
C1638 C1641 1.450 . S
C1639 C1634 1.367 . S
C1639 C1638 1.364 . S
C1639 H1699 0.931 . S
C1640 C1636 1.535 . S
C1640 H1700 0.959 . S
C1640 H1701 0.961 . S
C1640 H1702 0.959 . S
C1641 C1638 1.450 . S
C1641 H1703 0.960 . S
C1641 H1704 0.960 . S
C1641 H1705 0.960 . S
C1642 C1643 1.309 . S
C1642 C1647 1.304 . S
C1642 O1680 1.435 . S
C1643 C1642 1.309 . S
C1643 C1644 1.476 . S
C1643 H1707 0.930 . S
C1644 C1643 1.476 . S
C1644 C1645 1.400 . S
C1644 C1648 1.567 . S
C1645 C1644 1.400 . S
C1645 C1646 1.373 . S
C1645 C1667 1.432 . S
C1646 C1645 1.373 . S
C1646 C1647 1.339 . S
C1646 C1649 1.530 . S
C1647 C1642 1.304 . S
C1647 C1646 1.339 . S
C1647 H1708 0.930 . S
C1648 C1644 1.567 . S
C1648 H1709 0.961 . S
C1648 H1710 0.960 . S
C1648 H1711 0.958 . S
C1649 C1646 1.530 . S
C1649 H1712 0.961 . S
C1649 H1713 0.960 . S
C1649 H1714 0.960 . S
C1650 C1651 1.530 . S
C1650 H1716 0.961 . S
C1650 H1717 0.961 . S
C1650 H1718 0.959 . S
C1651 C1650 1.530 . S
C1651 O1679 1.412 . S
C1651 H1715 0.980 . S
C1652 C1653 1.288 . S
C1652 C1657 1.377 . S
C1652 O1679 1.393 . S
C1653 C1652 1.288 . S
C1653 C1654 1.369 . S
C1653 H1719 0.932 . S
C1654 C1653 1.369 . S
C1654 C1655 1.398 . S
C1654 C1658 1.527 . S
C1655 C1654 1.398 . S
C1655 C1656 1.380 . S
C1655 C1669 1.497 . S
C1656 C1655 1.380 . S
C1656 C1657 1.383 . S
C1656 C1659 1.603 . S
C1657 C1652 1.377 . S
C1657 C1656 1.383 . S
C1657 H1720 0.929 . S
C1658 C1654 1.527 . S
C1658 H1721 0.961 . S
C1658 H1722 0.959 . S
C1658 H1723 0.959 . S
C1659 C1656 1.603 . S
C1659 H1724 0.960 . S
C1659 H1725 0.962 . S
C1659 H1726 0.961 . S
C1660 C1627 1.587 . S
C1660 C1661 1.370 . S
C1660 C1673 1.412 . S
C1661 C1660 1.370 . S
C1661 C1662 1.355 1_556 S
C1661 H1727 0.929 . S
C1662 C1637 1.553 . S
C1662 C1661 1.355 1_554 S
C1662 C1663 1.404 . S
C1663 C1662 1.404 . S
C1663 C1664 1.395 . S
C1663 C1674 1.469 . S
C1664 C1663 1.395 . S
C1664 C1665 1.322 . S
C1664 H1728 0.930 . S
C1665 C1664 1.322 . S
C1665 C1666 1.459 . S
C1665 H1729 0.929 . S
C1666 C1665 1.459 . S
C1666 C1667 1.445 . S
C1666 C1675 1.395 . S
C1667 C1645 1.432 . S
C1667 C1666 1.445 . S
C1667 C1668 1.370 . S
C1668 C1667 1.370 . S
C1668 C1669 1.438 1_554 S
C1668 H1730 0.930 . S
C1669 C1655 1.497 . S
C1669 C1668 1.438 1_556 S
C1669 C1670 1.360 . S
C1670 C1669 1.360 . S
C1670 C1671 1.401 . S
C1670 C1675 1.446 1_556 S
C1671 C1670 1.401 . S
C1671 C1672 1.347 . S
C1671 H1731 0.929 . S
C1672 C1671 1.347 . S
C1672 C1673 1.455 . S
C1672 H1732 0.930 . S
C1673 C1660 1.412 . S
C1673 C1672 1.455 . S
C1673 C1674 1.313 1_556 S
C1674 C1663 1.469 . S
C1674 C1673 1.313 1_554 S
C1674 C1675 1.498 . S
C1675 C1666 1.395 . S
C1675 C1670 1.446 1_554 S
C1675 C1674 1.498 . S
C1676 C1677 1.582 . S
C1676 H1733 0.962 . S
C1676 H1734 0.959 . S
C1676 H1735 0.958 . S
C1677 C1676 1.582 . S
C1677 O1680 1.458 . S
C1677 H1706 0.980 . S
O1678 C1623 1.426 . S
O1678 C1624 1.334 . S
O1679 C1651 1.412 . S
O1679 C1652 1.393 . S
O1680 C1642 1.435 . S
O1680 C1677 1.458 . S
O1681 C1633 1.468 . S
O1681 C1634 1.408 . S
H1682 C1623 0.980 . S
H1683 C1622 0.959 . S
H1684 C1622 0.959 . S
H1685 C1622 0.960 . S
H1686 C1625 0.929 . S
H1687 C1629 0.929 . S
H1688 C1630 0.959 . S
H1689 C1630 0.961 . S
H1690 C1630 0.961 . S
H1691 C1631 0.960 . S
H1692 C1631 0.960 . S
H1693 C1631 0.961 . S
H1694 C1633 0.980 . S
H1695 C1632 0.961 . S
H1696 C1632 0.960 . S
H1697 C1632 0.959 . S
H1698 C1635 0.930 . S
H1699 C1639 0.931 . S
H1700 C1640 0.959 . S
H1701 C1640 0.961 . S
H1702 C1640 0.959 . S
H1703 C1641 0.960 . S
H1704 C1641 0.960 . S
H1705 C1641 0.960 . S
H1706 C1677 0.980 . S
H1707 C1643 0.930 . S
H1708 C1647 0.930 . S
H1709 C1648 0.961 . S
H1710 C1648 0.960 . S
H1711 C1648 0.958 . S
H1712 C1649 0.961 . S
H1713 C1649 0.960 . S
H1714 C1649 0.960 . S
H1715 C1651 0.980 . S
H1716 C1650 0.961 . S
H1717 C1650 0.961 . S
H1718 C1650 0.959 . S
H1719 C1653 0.932 . S
H1720 C1657 0.929 . S
H1721 C1658 0.961 . S
H1722 C1658 0.959 . S
H1723 C1658 0.959 . S
H1724 C1659 0.960 . S
H1725 C1659 0.962 . S
H1726 C1659 0.961 . S
H1727 C1661 0.929 . S
H1728 C1664 0.930 . S
H1729 C1665 0.929 . S
H1730 C1668 0.930 . S
H1731 C1671 0.929 . S
H1732 C1672 0.930 . S
H1733 C1676 0.962 . S
H1734 C1676 0.959 . S
H1735 C1676 0.958 . S
C1736 C1737 1.560 . S
C1736 H1797 0.959 . S
C1736 H1798 0.959 . S
C1736 H1799 0.960 . S
C1737 C1736 1.560 . S
C1737 O1792 1.426 . S
C1737 H1796 0.980 . S
C1738 C1739 1.407 . S
C1738 C1743 1.418 . S
C1738 O1792 1.334 . S
C1739 C1738 1.407 . S
C1739 C1740 1.360 . S
C1739 H1800 0.929 . S
C1740 C1739 1.360 . S
C1740 C1741 1.401 . S
C1740 C1744 1.527 . S
C1741 C1740 1.401 . S
C1741 C1742 1.405 . S
C1741 C1774 1.587 . S
C1742 C1741 1.405 . S
C1742 C1743 1.332 . S
C1742 C1745 1.496 . S
C1743 C1738 1.418 . S
C1743 C1742 1.332 . S
C1743 H1801 0.929 . S
C1744 C1740 1.527 . S
C1744 H1802 0.959 . S
C1744 H1803 0.961 . S
C1744 H1804 0.961 . S
C1745 C1742 1.496 . S
C1745 H1805 0.960 . S
C1745 H1806 0.960 . S
C1745 H1807 0.961 . S
C1746 C1747 1.517 . S
C1746 H1809 0.961 . S
C1746 H1810 0.960 . S
C1746 H1811 0.959 . S
C1747 C1746 1.517 . S
C1747 O1795 1.468 . S
C1747 H1808 0.980 . S
C1748 C1749 1.349 . S
C1748 C1753 1.367 . S
C1748 O1795 1.408 . S
C1749 C1748 1.349 . S
C1749 C1750 1.407 . S
C1749 H1812 0.930 . S
C1750 C1749 1.407 . S
C1750 C1751 1.449 . S
C1750 C1754 1.535 . S
C1751 C1750 1.449 . S
C1751 C1752 1.384 . S
C1751 C1776 1.553 . S
C1752 C1751 1.384 . S
C1752 C1753 1.364 . S
C1752 C1755 1.450 . S
C1753 C1748 1.367 . S
C1753 C1752 1.364 . S
C1753 H1813 0.931 . S
C1754 C1750 1.535 . S
C1754 H1814 0.959 . S
C1754 H1815 0.961 . S
C1754 H1816 0.959 . S
C1755 C1752 1.450 . S
C1755 H1817 0.960 . S
C1755 H1818 0.960 . S
C1755 H1819 0.960 . S
C1756 C1757 1.309 . S
C1756 C1761 1.304 . S
C1756 O1794 1.435 . S
C1757 C1756 1.309 . S
C1757 C1758 1.476 . S
C1757 H1821 0.930 . S
C1758 C1757 1.476 . S
C1758 C1759 1.400 . S
C1758 C1762 1.567 . S
C1759 C1758 1.400 . S
C1759 C1760 1.373 . S
C1759 C1781 1.432 . S
C1760 C1759 1.373 . S
C1760 C1761 1.339 . S
C1760 C1763 1.530 . S
C1761 C1756 1.304 . S
C1761 C1760 1.339 . S
C1761 H1822 0.930 . S
C1762 C1758 1.567 . S
C1762 H1823 0.961 . S
C1762 H1824 0.960 . S
C1762 H1825 0.958 . S
C1763 C1760 1.530 . S
C1763 H1826 0.961 . S
C1763 H1827 0.960 . S
C1763 H1828 0.960 . S
C1764 C1765 1.530 . S
C1764 H1830 0.961 . S
C1764 H1831 0.961 . S
C1764 H1832 0.959 . S
C1765 C1764 1.530 . S
C1765 O1793 1.412 . S
C1765 H1829 0.980 . S
C1766 C1767 1.288 . S
C1766 C1771 1.377 . S
C1766 O1793 1.393 . S
C1767 C1766 1.288 . S
C1767 C1768 1.369 . S
C1767 H1833 0.932 . S
C1768 C1767 1.369 . S
C1768 C1769 1.398 . S
C1768 C1772 1.527 . S
C1769 C1768 1.398 . S
C1769 C1770 1.380 . S
C1769 C1783 1.497 . S
C1770 C1769 1.380 . S
C1770 C1771 1.383 . S
C1770 C1773 1.603 . S
C1771 C1766 1.377 . S
C1771 C1770 1.383 . S
C1771 H1834 0.929 . S
C1772 C1768 1.527 . S
C1772 H1835 0.961 . S
C1772 H1836 0.959 . S
C1772 H1837 0.959 . S
C1773 C1770 1.603 . S
C1773 H1838 0.960 . S
C1773 H1839 0.962 . S
C1773 H1840 0.961 . S
C1774 C1741 1.587 . S
C1774 C1775 1.360 . S
C1774 C1787 1.412 . S
C1775 C1774 1.360 . S
C1775 C1776 1.365 1_455 S
C1775 H1841 0.929 . S
C1776 C1751 1.553 . S
C1776 C1775 1.365 1_655 S
C1776 C1777 1.404 . S
C1777 C1776 1.404 . S
C1777 C1778 1.395 . S
C1777 C1788 1.451 1_655 S
C1778 C1777 1.395 . S
C1778 C1779 1.322 . S
C1778 H1842 0.930 . S
C1779 C1778 1.322 . S
C1779 C1780 1.459 . S
C1779 H1843 0.929 . S
C1780 C1779 1.459 . S
C1780 C1781 1.445 . S
C1780 C1789 1.395 1_655 S
C1781 C1759 1.432 . S
C1781 C1780 1.445 . S
C1781 C1782 1.370 1_655 S
C1782 C1781 1.370 1_455 S
C1782 C1783 1.438 . S
C1782 H1844 0.930 . S
C1783 C1769 1.497 . S
C1783 C1782 1.438 . S
C1783 C1784 1.360 . S
C1784 C1783 1.360 . S
C1784 C1785 1.401 . S
C1784 C1789 1.446 . S
C1785 C1784 1.401 . S
C1785 C1786 1.347 . S
C1785 H1845 0.929 . S
C1786 C1785 1.347 . S
C1786 C1787 1.455 . S
C1786 H1846 0.930 . S
C1787 C1774 1.412 . S
C1787 C1786 1.455 . S
C1787 C1788 1.331 . S
C1788 C1777 1.451 1_455 S
C1788 C1787 1.331 . S
C1788 C1789 1.497 . S
C1789 C1780 1.395 1_455 S
C1789 C1784 1.446 . S
C1789 C1788 1.497 . S
C1790 C1791 1.582 . S
C1790 H1847 0.962 . S
C1790 H1848 0.959 . S
C1790 H1849 0.958 . S
C1791 C1790 1.582 . S
C1791 O1794 1.458 . S
C1791 H1820 0.980 . S
O1792 C1737 1.426 . S
O1792 C1738 1.334 . S
O1793 C1765 1.412 . S
O1793 C1766 1.393 . S
O1794 C1756 1.435 . S
O1794 C1791 1.458 . S
O1795 C1747 1.468 . S
O1795 C1748 1.408 . S
H1796 C1737 0.980 . S
H1797 C1736 0.959 . S
H1798 C1736 0.959 . S
H1799 C1736 0.960 . S
H1800 C1739 0.929 . S
H1801 C1743 0.929 . S
H1802 C1744 0.959 . S
H1803 C1744 0.961 . S
H1804 C1744 0.961 . S
H1805 C1745 0.960 . S
H1806 C1745 0.960 . S
H1807 C1745 0.961 . S
H1808 C1747 0.980 . S
H1809 C1746 0.961 . S
H1810 C1746 0.960 . S
H1811 C1746 0.959 . S
H1812 C1749 0.930 . S
H1813 C1753 0.931 . S
H1814 C1754 0.959 . S
H1815 C1754 0.961 . S
H1816 C1754 0.959 . S
H1817 C1755 0.960 . S
H1818 C1755 0.960 . S
H1819 C1755 0.960 . S
H1820 C1791 0.980 . S
H1821 C1757 0.930 . S
H1822 C1761 0.930 . S
H1823 C1762 0.961 . S
H1824 C1762 0.960 . S
H1825 C1762 0.958 . S
H1826 C1763 0.961 . S
H1827 C1763 0.960 . S
H1828 C1763 0.960 . S
H1829 C1765 0.980 . S
H1830 C1764 0.961 . S
H1831 C1764 0.961 . S
H1832 C1764 0.959 . S
H1833 C1767 0.932 . S
H1834 C1771 0.929 . S
H1835 C1772 0.961 . S
H1836 C1772 0.959 . S
H1837 C1772 0.959 . S
H1838 C1773 0.960 . S
H1839 C1773 0.962 . S
H1840 C1773 0.961 . S
H1841 C1775 0.929 . S
H1842 C1778 0.930 . S
H1843 C1779 0.929 . S
H1844 C1782 0.930 . S
H1845 C1785 0.929 . S
H1846 C1786 0.930 . S
H1847 C1790 0.962 . S
H1848 C1790 0.959 . S
H1849 C1790 0.958 . S
C1850 C1851 1.560 . S
C1850 H1911 0.959 . S
C1850 H1912 0.959 . S
C1850 H1913 0.960 . S
C1851 C1850 1.560 . S
C1851 O1906 1.426 . S
C1851 H1910 0.980 . S
C1852 C1853 1.407 . S
C1852 C1857 1.418 . S
C1852 O1906 1.334 . S
C1853 C1852 1.407 . S
C1853 C1854 1.360 . S
C1853 H1914 0.929 . S
C1854 C1853 1.360 . S
C1854 C1855 1.401 . S
C1854 C1858 1.527 . S
C1855 C1854 1.401 . S
C1855 C1856 1.405 . S
C1855 C1888 1.587 . S
C1856 C1855 1.405 . S
C1856 C1857 1.332 . S
C1856 C1859 1.496 . S
C1857 C1852 1.418 . S
C1857 C1856 1.332 . S
C1857 H1915 0.929 . S
C1858 C1854 1.527 . S
C1858 H1916 0.959 . S
C1858 H1917 0.961 . S
C1858 H1918 0.961 . S
C1859 C1856 1.496 . S
C1859 H1919 0.960 . S
C1859 H1920 0.960 . S
C1859 H1921 0.961 . S
C1860 C1861 1.517 . S
C1860 H1923 0.961 . S
C1860 H1924 0.960 . S
C1860 H1925 0.959 . S
C1861 C1860 1.517 . S
C1861 O1909 1.468 . S
C1861 H1922 0.980 . S
C1862 C1863 1.349 . S
C1862 C1867 1.367 . S
C1862 O1909 1.408 . S
C1863 C1862 1.349 . S
C1863 C1864 1.407 . S
C1863 H1926 0.930 . S
C1864 C1863 1.407 . S
C1864 C1865 1.449 . S
C1864 C1868 1.535 . S
C1865 C1864 1.449 . S
C1865 C1866 1.384 . S
C1865 C1890 1.553 . S
C1866 C1865 1.384 . S
C1866 C1867 1.364 . S
C1866 C1869 1.450 . S
C1867 C1862 1.367 . S
C1867 C1866 1.364 . S
C1867 H1927 0.931 . S
C1868 C1864 1.535 . S
C1868 H1928 0.959 . S
C1868 H1929 0.961 . S
C1868 H1930 0.959 . S
C1869 C1866 1.450 . S
C1869 H1931 0.960 . S
C1869 H1932 0.960 . S
C1869 H1933 0.960 . S
C1870 C1871 1.309 . S
C1870 C1875 1.304 . S
C1870 O1908 1.435 . S
C1871 C1870 1.309 . S
C1871 C1872 1.476 . S
C1871 H1935 0.930 . S
C1872 C1871 1.476 . S
C1872 C1873 1.400 . S
C1872 C1876 1.567 . S
C1873 C1872 1.400 . S
C1873 C1874 1.373 . S
C1873 C1895 1.432 . S
C1874 C1873 1.373 . S
C1874 C1875 1.339 . S
C1874 C1877 1.530 . S
C1875 C1870 1.304 . S
C1875 C1874 1.339 . S
C1875 H1936 0.930 . S
C1876 C1872 1.567 . S
C1876 H1937 0.961 . S
C1876 H1938 0.960 . S
C1876 H1939 0.958 . S
C1877 C1874 1.530 . S
C1877 H1940 0.961 . S
C1877 H1941 0.960 . S
C1877 H1942 0.960 . S
C1878 C1879 1.530 . S
C1878 H1944 0.961 . S
C1878 H1945 0.961 . S
C1878 H1946 0.959 . S
C1879 C1878 1.530 . S
C1879 O1907 1.412 . S
C1879 H1943 0.980 . S
C1880 C1881 1.288 . S
C1880 C1885 1.377 . S
C1880 O1907 1.393 . S
C1881 C1880 1.288 . S
C1881 C1882 1.369 . S
C1881 H1947 0.932 . S
C1882 C1881 1.369 . S
C1882 C1883 1.398 . S
C1882 C1886 1.527 . S
C1883 C1882 1.398 . S
C1883 C1884 1.380 . S
C1883 C1897 1.497 . S
C1884 C1883 1.380 . S
C1884 C1885 1.383 . S
C1884 C1887 1.603 . S
C1885 C1880 1.377 . S
C1885 C1884 1.383 . S
C1885 H1948 0.929 . S
C1886 C1882 1.527 . S
C1886 H1949 0.961 . S
C1886 H1950 0.959 . S
C1886 H1951 0.959 . S
C1887 C1884 1.603 . S
C1887 H1952 0.960 . S
C1887 H1953 0.962 . S
C1887 H1954 0.961 . S
C1888 C1855 1.587 . S
C1888 C1889 1.360 . S
C1888 C1901 1.412 . S
C1889 C1888 1.360 . S
C1889 C1890 1.365 1_545 S
C1889 H1955 0.929 . S
C1890 C1865 1.553 . S
C1890 C1889 1.365 1_565 S
C1890 C1891 1.404 . S
C1891 C1890 1.404 . S
C1891 C1892 1.395 . S
C1891 C1902 1.451 1_565 S
C1892 C1891 1.395 . S
C1892 C1893 1.322 . S
C1892 H1956 0.930 . S
C1893 C1892 1.322 . S
C1893 C1894 1.459 . S
C1893 H1957 0.929 . S
C1894 C1893 1.459 . S
C1894 C1895 1.445 . S
C1894 C1903 1.395 1_565 S
C1895 C1873 1.432 . S
C1895 C1894 1.445 . S
C1895 C1896 1.370 1_565 S
C1896 C1895 1.370 1_545 S
C1896 C1897 1.438 . S
C1896 H1958 0.930 . S
C1897 C1883 1.497 . S
C1897 C1896 1.438 . S
C1897 C1898 1.360 . S
C1898 C1897 1.360 . S
C1898 C1899 1.401 . S
C1898 C1903 1.446 . S
C1899 C1898 1.401 . S
C1899 C1900 1.347 . S
C1899 H1959 0.929 . S
C1900 C1899 1.347 . S
C1900 C1901 1.455 . S
C1900 H1960 0.930 . S
C1901 C1888 1.412 . S
C1901 C1900 1.455 . S
C1901 C1902 1.331 . S
C1902 C1891 1.451 1_545 S
C1902 C1901 1.331 . S
C1902 C1903 1.497 . S
C1903 C1894 1.395 1_545 S
C1903 C1898 1.446 . S
C1903 C1902 1.497 . S
C1904 C1905 1.582 . S
C1904 H1961 0.962 . S
C1904 H1962 0.959 . S
C1904 H1963 0.958 . S
C1905 C1904 1.582 . S
C1905 O1908 1.458 . S
C1905 H1934 0.980 . S
O1906 C1851 1.426 . S
O1906 C1852 1.334 . S
O1907 C1879 1.412 . S
O1907 C1880 1.393 . S
O1908 C1870 1.435 . S
O1908 C1905 1.458 . S
O1909 C1861 1.468 . S
O1909 C1862 1.408 . S
H1910 C1851 0.980 . S
H1911 C1850 0.959 . S
H1912 C1850 0.959 . S
H1913 C1850 0.960 . S
H1914 C1853 0.929 . S
H1915 C1857 0.929 . S
H1916 C1858 0.959 . S
H1917 C1858 0.961 . S
H1918 C1858 0.961 . S
H1919 C1859 0.960 . S
H1920 C1859 0.960 . S
H1921 C1859 0.961 . S
H1922 C1861 0.980 . S
H1923 C1860 0.961 . S
H1924 C1860 0.960 . S
H1925 C1860 0.959 . S
H1926 C1863 0.930 . S
H1927 C1867 0.931 . S
H1928 C1868 0.959 . S
H1929 C1868 0.961 . S
H1930 C1868 0.959 . S
H1931 C1869 0.960 . S
H1932 C1869 0.960 . S
H1933 C1869 0.960 . S
H1934 C1905 0.980 . S
H1935 C1871 0.930 . S
H1936 C1875 0.930 . S
H1937 C1876 0.961 . S
H1938 C1876 0.960 . S
H1939 C1876 0.958 . S
H1940 C1877 0.961 . S
H1941 C1877 0.960 . S
H1942 C1877 0.960 . S
H1943 C1879 0.980 . S
H1944 C1878 0.961 . S
H1945 C1878 0.961 . S
H1946 C1878 0.959 . S
H1947 C1881 0.932 . S
H1948 C1885 0.929 . S
H1949 C1886 0.961 . S
H1950 C1886 0.959 . S
H1951 C1886 0.959 . S
H1952 C1887 0.960 . S
H1953 C1887 0.962 . S
H1954 C1887 0.961 . S
H1955 C1889 0.929 . S
H1956 C1892 0.930 . S
H1957 C1893 0.929 . S
H1958 C1896 0.930 . S
H1959 C1899 0.929 . S
H1960 C1900 0.930 . S
H1961 C1904 0.962 . S
H1962 C1904 0.959 . S
H1963 C1904 0.958 . S
C1964 C1965 1.560 . S
C1964 H2025 0.959 . S
C1964 H2026 0.959 . S
C1964 H2027 0.960 . S
C1965 C1964 1.560 . S
C1965 O2020 1.426 . S
C1965 H2024 0.980 . S
C1966 C1967 1.407 . S
C1966 C1971 1.418 . S
C1966 O2020 1.334 . S
C1967 C1966 1.407 . S
C1967 C1968 1.360 . S
C1967 H2028 0.929 . S
C1968 C1967 1.360 . S
C1968 C1969 1.401 . S
C1968 C1972 1.527 . S
C1969 C1968 1.401 . S
C1969 C1970 1.405 . S
C1969 C2002 1.587 . S
C1970 C1969 1.405 . S
C1970 C1971 1.332 . S
C1970 C1973 1.496 . S
C1971 C1966 1.418 . S
C1971 C1970 1.332 . S
C1971 H2029 0.929 . S
C1972 C1968 1.527 . S
C1972 H2030 0.959 . S
C1972 H2031 0.961 . S
C1972 H2032 0.961 . S
C1973 C1970 1.496 . S
C1973 H2033 0.960 . S
C1973 H2034 0.960 . S
C1973 H2035 0.961 . S
C1974 C1975 1.517 . S
C1974 H2037 0.961 . S
C1974 H2038 0.960 . S
C1974 H2039 0.959 . S
C1975 C1974 1.517 . S
C1975 O2023 1.468 . S
C1975 H2036 0.980 . S
C1976 C1977 1.349 . S
C1976 C1981 1.367 . S
C1976 O2023 1.408 . S
C1977 C1976 1.349 . S
C1977 C1978 1.407 . S
C1977 H2040 0.930 . S
C1978 C1977 1.407 . S
C1978 C1979 1.449 . S
C1978 C1982 1.535 . S
C1979 C1978 1.449 . S
C1979 C1980 1.384 . S
C1979 C2004 1.553 . S
C1980 C1979 1.384 . S
C1980 C1981 1.364 . S
C1980 C1983 1.450 . S
C1981 C1976 1.367 . S
C1981 C1980 1.364 . S
C1981 H2041 0.931 . S
C1982 C1978 1.535 . S
C1982 H2042 0.959 . S
C1982 H2043 0.961 . S
C1982 H2044 0.959 . S
C1983 C1980 1.450 . S
C1983 H2045 0.960 . S
C1983 H2046 0.960 . S
C1983 H2047 0.960 . S
C1984 C1985 1.309 . S
C1984 C1989 1.304 . S
C1984 O2022 1.435 . S
C1985 C1984 1.309 . S
C1985 C1986 1.476 . S
C1985 H2049 0.930 . S
C1986 C1985 1.476 . S
C1986 C1987 1.400 . S
C1986 C1990 1.567 . S
C1987 C1986 1.400 . S
C1987 C1988 1.373 . S
C1987 C2009 1.432 . S
C1988 C1987 1.373 . S
C1988 C1989 1.339 . S
C1988 C1991 1.530 . S
C1989 C1984 1.304 . S
C1989 C1988 1.339 . S
C1989 H2050 0.930 . S
C1990 C1986 1.567 . S
C1990 H2051 0.961 . S
C1990 H2052 0.960 . S
C1990 H2053 0.958 . S
C1991 C1988 1.530 . S
C1991 H2054 0.961 . S
C1991 H2055 0.960 . S
C1991 H2056 0.960 . S
C1992 C1993 1.530 . S
C1992 H2058 0.961 . S
C1992 H2059 0.961 . S
C1992 H2060 0.959 . S
C1993 C1992 1.530 . S
C1993 O2021 1.412 . S
C1993 H2057 0.980 . S
C1994 C1995 1.288 . S
C1994 C1999 1.377 . S
C1994 O2021 1.393 . S
C1995 C1994 1.288 . S
C1995 C1996 1.369 . S
C1995 H2061 0.932 . S
C1996 C1995 1.369 . S
C1996 C1997 1.398 . S
C1996 C2000 1.527 . S
C1997 C1996 1.398 . S
C1997 C1998 1.380 . S
C1997 C2011 1.497 . S
C1998 C1997 1.380 . S
C1998 C1999 1.383 . S
C1998 C2001 1.603 . S
C1999 C1994 1.377 . S
C1999 C1998 1.383 . S
C1999 H2062 0.929 . S
C2000 C1996 1.527 . S
C2000 H2063 0.961 . S
C2000 H2064 0.959 . S
C2000 H2065 0.959 . S
C2001 C1998 1.603 . S
C2001 H2066 0.960 . S
C2001 H2067 0.962 . S
C2001 H2068 0.961 . S
C2002 C1969 1.587 . S
C2002 C2003 1.360 . S
C2002 C2015 1.412 . S
C2003 C2002 1.360 . S
C2003 C2004 1.365 1_455 S
C2003 H2069 0.929 . S
C2004 C1979 1.553 . S
C2004 C2003 1.365 1_655 S
C2004 C2005 1.404 . S
C2005 C2004 1.404 . S
C2005 C2006 1.395 . S
C2005 C2016 1.451 1_655 S
C2006 C2005 1.395 . S
C2006 C2007 1.322 . S
C2006 H2070 0.930 . S
C2007 C2006 1.322 . S
C2007 C2008 1.459 . S
C2007 H2071 0.929 . S
C2008 C2007 1.459 . S
C2008 C2009 1.445 . S
C2008 C2017 1.395 1_655 S
C2009 C1987 1.432 . S
C2009 C2008 1.445 . S
C2009 C2010 1.370 1_655 S
C2010 C2009 1.370 1_455 S
C2010 C2011 1.438 . S
C2010 H2072 0.930 . S
C2011 C1997 1.497 . S
C2011 C2010 1.438 . S
C2011 C2012 1.360 . S
C2012 C2011 1.360 . S
C2012 C2013 1.401 . S
C2012 C2017 1.446 . S
C2013 C2012 1.401 . S
C2013 C2014 1.347 . S
C2013 H2073 0.929 . S
C2014 C2013 1.347 . S
C2014 C2015 1.455 . S
C2014 H2074 0.930 . S
C2015 C2002 1.412 . S
C2015 C2014 1.455 . S
C2015 C2016 1.331 . S
C2016 C2005 1.451 1_455 S
C2016 C2015 1.331 . S
C2016 C2017 1.497 . S
C2017 C2008 1.395 1_455 S
C2017 C2012 1.446 . S
C2017 C2016 1.497 . S
C2018 C2019 1.582 . S
C2018 H2075 0.962 . S
C2018 H2076 0.959 . S
C2018 H2077 0.958 . S
C2019 C2018 1.582 . S
C2019 O2022 1.458 . S
C2019 H2048 0.980 . S
O2020 C1965 1.426 . S
O2020 C1966 1.334 . S
O2021 C1993 1.412 . S
O2021 C1994 1.393 . S
O2022 C1984 1.435 . S
O2022 C2019 1.458 . S
O2023 C1975 1.468 . S
O2023 C1976 1.408 . S
H2024 C1965 0.980 . S
H2025 C1964 0.959 . S
H2026 C1964 0.959 . S
H2027 C1964 0.960 . S
H2028 C1967 0.929 . S
H2029 C1971 0.929 . S
H2030 C1972 0.959 . S
H2031 C1972 0.961 . S
H2032 C1972 0.961 . S
H2033 C1973 0.960 . S
H2034 C1973 0.960 . S
H2035 C1973 0.961 . S
H2036 C1975 0.980 . S
H2037 C1974 0.961 . S
H2038 C1974 0.960 . S
H2039 C1974 0.959 . S
H2040 C1977 0.930 . S
H2041 C1981 0.931 . S
H2042 C1982 0.959 . S
H2043 C1982 0.961 . S
H2044 C1982 0.959 . S
H2045 C1983 0.960 . S
H2046 C1983 0.960 . S
H2047 C1983 0.960 . S
H2048 C2019 0.980 . S
H2049 C1985 0.930 . S
H2050 C1989 0.930 . S
H2051 C1990 0.961 . S
H2052 C1990 0.960 . S
H2053 C1990 0.958 . S
H2054 C1991 0.961 . S
H2055 C1991 0.960 . S
H2056 C1991 0.960 . S
H2057 C1993 0.980 . S
H2058 C1992 0.961 . S
H2059 C1992 0.961 . S
H2060 C1992 0.959 . S
H2061 C1995 0.932 . S
H2062 C1999 0.929 . S
H2063 C2000 0.961 . S
H2064 C2000 0.959 . S
H2065 C2000 0.959 . S
H2066 C2001 0.960 . S
H2067 C2001 0.962 . S
H2068 C2001 0.961 . S
H2069 C2003 0.929 . S
H2070 C2006 0.930 . S
H2071 C2007 0.929 . S
H2072 C2010 0.930 . S
H2073 C2013 0.929 . S
H2074 C2014 0.930 . S
H2075 C2018 0.962 . S
H2076 C2018 0.959 . S
H2077 C2018 0.958 . S
C2078 C2079 1.560 . S
C2078 H2139 0.959 . S
C2078 H2140 0.959 . S
C2078 H2141 0.960 . S
C2079 C2078 1.560 . S
C2079 O2134 1.426 . S
C2079 H2138 0.980 . S
C2080 C2081 1.407 . S
C2080 C2085 1.418 . S
C2080 O2134 1.334 . S
C2081 C2080 1.407 . S
C2081 C2082 1.360 . S
C2081 H2142 0.929 . S
C2082 C2081 1.360 . S
C2082 C2083 1.401 . S
C2082 C2086 1.527 . S
C2083 C2082 1.401 . S
C2083 C2084 1.405 . S
C2083 C2116 1.587 . S
C2084 C2083 1.405 . S
C2084 C2085 1.332 . S
C2084 C2087 1.496 . S
C2085 C2080 1.418 . S
C2085 C2084 1.332 . S
C2085 H2143 0.929 . S
C2086 C2082 1.527 . S
C2086 H2144 0.959 . S
C2086 H2145 0.961 . S
C2086 H2146 0.961 . S
C2087 C2084 1.496 . S
C2087 H2147 0.960 . S
C2087 H2148 0.960 . S
C2087 H2149 0.961 . S
C2088 C2089 1.517 . S
C2088 H2151 0.961 . S
C2088 H2152 0.960 . S
C2088 H2153 0.959 . S
C2089 C2088 1.517 . S
C2089 O2137 1.468 . S
C2089 H2150 0.980 . S
C2090 C2091 1.349 . S
C2090 C2095 1.367 . S
C2090 O2137 1.408 . S
C2091 C2090 1.349 . S
C2091 C2092 1.407 . S
C2091 H2154 0.930 . S
C2092 C2091 1.407 . S
C2092 C2093 1.449 . S
C2092 C2096 1.535 . S
C2093 C2092 1.449 . S
C2093 C2094 1.384 . S
C2093 C2118 1.553 . S
C2094 C2093 1.384 . S
C2094 C2095 1.364 . S
C2094 C2097 1.450 . S
C2095 C2090 1.367 . S
C2095 C2094 1.364 . S
C2095 H2155 0.931 . S
C2096 C2092 1.535 . S
C2096 H2156 0.959 . S
C2096 H2157 0.961 . S
C2096 H2158 0.959 . S
C2097 C2094 1.450 . S
C2097 H2159 0.960 . S
C2097 H2160 0.960 . S
C2097 H2161 0.960 . S
C2098 C2099 1.309 . S
C2098 C2103 1.304 . S
C2098 O2136 1.435 . S
C2099 C2098 1.309 . S
C2099 C2100 1.476 . S
C2099 H2163 0.930 . S
C2100 C2099 1.476 . S
C2100 C2101 1.400 . S
C2100 C2104 1.567 . S
C2101 C2100 1.400 . S
C2101 C2102 1.373 . S
C2101 C2123 1.432 . S
C2102 C2101 1.373 . S
C2102 C2103 1.339 . S
C2102 C2105 1.530 . S
C2103 C2098 1.304 . S
C2103 C2102 1.339 . S
C2103 H2164 0.930 . S
C2104 C2100 1.567 . S
C2104 H2165 0.961 . S
C2104 H2166 0.960 . S
C2104 H2167 0.958 . S
C2105 C2102 1.530 . S
C2105 H2168 0.961 . S
C2105 H2169 0.960 . S
C2105 H2170 0.960 . S
C2106 C2107 1.530 . S
C2106 H2172 0.961 . S
C2106 H2173 0.961 . S
C2106 H2174 0.959 . S
C2107 C2106 1.530 . S
C2107 O2135 1.412 . S
C2107 H2171 0.980 . S
C2108 C2109 1.288 . S
C2108 C2113 1.377 . S
C2108 O2135 1.393 . S
C2109 C2108 1.288 . S
C2109 C2110 1.369 . S
C2109 H2175 0.932 . S
C2110 C2109 1.369 . S
C2110 C2111 1.398 . S
C2110 C2114 1.527 . S
C2111 C2110 1.398 . S
C2111 C2112 1.380 . S
C2111 C2125 1.497 . S
C2112 C2111 1.380 . S
C2112 C2113 1.383 . S
C2112 C2115 1.603 . S
C2113 C2108 1.377 . S
C2113 C2112 1.383 . S
C2113 H2176 0.929 . S
C2114 C2110 1.527 . S
C2114 H2177 0.961 . S
C2114 H2178 0.959 . S
C2114 H2179 0.959 . S
C2115 C2112 1.603 . S
C2115 H2180 0.960 . S
C2115 H2181 0.962 . S
C2115 H2182 0.961 . S
C2116 C2083 1.587 . S
C2116 C2117 1.360 1_565 S
C2116 C2129 1.412 . S
C2117 C2116 1.360 1_545 S
C2117 C2118 1.365 . S
C2117 H2183 0.929 . S
C2118 C2093 1.553 . S
C2118 C2117 1.365 . S
C2118 C2119 1.404 . S
C2119 C2118 1.404 . S
C2119 C2120 1.395 . S
C2119 C2130 1.451 . S
C2120 C2119 1.395 . S
C2120 C2121 1.322 . S
C2120 H2184 0.930 . S
C2121 C2120 1.322 . S
C2121 C2122 1.459 . S
C2121 H2185 0.929 . S
C2122 C2121 1.459 . S
C2122 C2123 1.445 . S
C2122 C2131 1.395 . S
C2123 C2101 1.432 . S
C2123 C2122 1.445 . S
C2123 C2124 1.370 . S
C2124 C2123 1.370 . S
C2124 C2125 1.438 1_545 S
C2124 H2186 0.930 . S
C2125 C2111 1.497 . S
C2125 C2124 1.438 1_565 S
C2125 C2126 1.360 . S
C2126 C2125 1.360 . S
C2126 C2127 1.401 . S
C2126 C2131 1.446 1_565 S
C2127 C2126 1.401 . S
C2127 C2128 1.347 . S
C2127 H2187 0.929 . S
C2128 C2127 1.347 . S
C2128 C2129 1.455 . S
C2128 H2188 0.930 . S
C2129 C2116 1.412 . S
C2129 C2128 1.455 . S
C2129 C2130 1.331 1_565 S
C2130 C2119 1.451 . S
C2130 C2129 1.331 1_545 S
C2130 C2131 1.497 . S
C2131 C2122 1.395 . S
C2131 C2126 1.446 1_545 S
C2131 C2130 1.497 . S
C2132 C2133 1.582 . S
C2132 H2189 0.962 . S
C2132 H2190 0.959 . S
C2132 H2191 0.958 . S
C2133 C2132 1.582 . S
C2133 O2136 1.458 . S
C2133 H2162 0.980 . S
O2134 C2079 1.426 . S
O2134 C2080 1.334 . S
O2135 C2107 1.412 . S
O2135 C2108 1.393 . S
O2136 C2098 1.435 . S
O2136 C2133 1.458 . S
O2137 C2089 1.468 . S
O2137 C2090 1.408 . S
H2138 C2079 0.980 . S
H2139 C2078 0.959 . S
H2140 C2078 0.959 . S
H2141 C2078 0.960 . S
H2142 C2081 0.929 . S
H2143 C2085 0.929 . S
H2144 C2086 0.959 . S
H2145 C2086 0.961 . S
H2146 C2086 0.961 . S
H2147 C2087 0.960 . S
H2148 C2087 0.960 . S
H2149 C2087 0.961 . S
H2150 C2089 0.980 . S
H2151 C2088 0.961 . S
H2152 C2088 0.960 . S
H2153 C2088 0.959 . S
H2154 C2091 0.930 . S
H2155 C2095 0.931 . S
H2156 C2096 0.959 . S
H2157 C2096 0.961 . S
H2158 C2096 0.959 . S
H2159 C2097 0.960 . S
H2160 C2097 0.960 . S
H2161 C2097 0.960 . S
H2162 C2133 0.980 . S
H2163 C2099 0.930 . S
H2164 C2103 0.930 . S
H2165 C2104 0.961 . S
H2166 C2104 0.960 . S
H2167 C2104 0.958 . S
H2168 C2105 0.961 . S
H2169 C2105 0.960 . S
H2170 C2105 0.960 . S
H2171 C2107 0.980 . S
H2172 C2106 0.961 . S
H2173 C2106 0.961 . S
H2174 C2106 0.959 . S
H2175 C2109 0.932 . S
H2176 C2113 0.929 . S
H2177 C2114 0.961 . S
H2178 C2114 0.959 . S
H2179 C2114 0.959 . S
H2180 C2115 0.960 . S
H2181 C2115 0.962 . S
H2182 C2115 0.961 . S
H2183 C2117 0.929 . S
H2184 C2120 0.930 . S
H2185 C2121 0.929 . S
H2186 C2124 0.930 . S
H2187 C2127 0.929 . S
H2188 C2128 0.930 . S
H2189 C2132 0.962 . S
H2190 C2132 0.959 . S
H2191 C2132 0.958 . S
C2192 C2193 1.560 . S
C2192 H2253 0.959 . S
C2192 H2254 0.959 . S
C2192 H2255 0.960 . S
C2193 C2192 1.560 . S
C2193 O2248 1.426 . S
C2193 H2252 0.980 . S
C2194 C2195 1.407 . S
C2194 C2199 1.418 . S
C2194 O2248 1.334 . S
C2195 C2194 1.407 . S
C2195 C2196 1.360 . S
C2195 H2256 0.929 . S
C2196 C2195 1.360 . S
C2196 C2197 1.401 . S
C2196 C2200 1.527 . S
C2197 C2196 1.401 . S
C2197 C2198 1.405 . S
C2197 C2230 1.587 . S
C2198 C2197 1.405 . S
C2198 C2199 1.332 . S
C2198 C2201 1.496 . S
C2199 C2194 1.418 . S
C2199 C2198 1.332 . S
C2199 H2257 0.929 . S
C2200 C2196 1.527 . S
C2200 H2258 0.959 . S
C2200 H2259 0.961 . S
C2200 H2260 0.961 . S
C2201 C2198 1.496 . S
C2201 H2261 0.960 . S
C2201 H2262 0.960 . S
C2201 H2263 0.961 . S
C2202 C2203 1.517 . S
C2202 H2265 0.961 . S
C2202 H2266 0.960 . S
C2202 H2267 0.959 . S
C2203 C2202 1.517 . S
C2203 O2251 1.468 . S
C2203 H2264 0.980 . S
C2204 C2205 1.349 . S
C2204 C2209 1.367 . S
C2204 O2251 1.408 . S
C2205 C2204 1.349 . S
C2205 C2206 1.407 . S
C2205 H2268 0.930 . S
C2206 C2205 1.407 . S
C2206 C2207 1.449 . S
C2206 C2210 1.535 . S
C2207 C2206 1.449 . S
C2207 C2208 1.384 . S
C2207 C2232 1.553 . S
C2208 C2207 1.384 . S
C2208 C2209 1.364 . S
C2208 C2211 1.450 . S
C2209 C2204 1.367 . S
C2209 C2208 1.364 . S
C2209 H2269 0.931 . S
C2210 C2206 1.535 . S
C2210 H2270 0.959 . S
C2210 H2271 0.961 . S
C2210 H2272 0.959 . S
C2211 C2208 1.450 . S
C2211 H2273 0.960 . S
C2211 H2274 0.960 . S
C2211 H2275 0.960 . S
C2212 C2213 1.309 . S
C2212 C2217 1.304 . S
C2212 O2250 1.435 . S
C2213 C2212 1.309 . S
C2213 C2214 1.476 . S
C2213 H2277 0.930 . S
C2214 C2213 1.476 . S
C2214 C2215 1.400 . S
C2214 C2218 1.567 . S
C2215 C2214 1.400 . S
C2215 C2216 1.373 . S
C2215 C2237 1.432 . S
C2216 C2215 1.373 . S
C2216 C2217 1.339 . S
C2216 C2219 1.530 . S
C2217 C2212 1.304 . S
C2217 C2216 1.339 . S
C2217 H2278 0.930 . S
C2218 C2214 1.567 . S
C2218 H2279 0.961 . S
C2218 H2280 0.960 . S
C2218 H2281 0.958 . S
C2219 C2216 1.530 . S
C2219 H2282 0.961 . S
C2219 H2283 0.960 . S
C2219 H2284 0.960 . S
C2220 C2221 1.530 . S
C2220 H2286 0.961 . S
C2220 H2287 0.961 . S
C2220 H2288 0.959 . S
C2221 C2220 1.530 . S
C2221 O2249 1.412 . S
C2221 H2285 0.980 . S
C2222 C2223 1.288 . S
C2222 C2227 1.377 . S
C2222 O2249 1.393 . S
C2223 C2222 1.288 . S
C2223 C2224 1.369 . S
C2223 H2289 0.932 . S
C2224 C2223 1.369 . S
C2224 C2225 1.398 . S
C2224 C2228 1.527 . S
C2225 C2224 1.398 . S
C2225 C2226 1.380 . S
C2225 C2239 1.497 . S
C2226 C2225 1.380 . S
C2226 C2227 1.383 . S
C2226 C2229 1.603 . S
C2227 C2222 1.377 . S
C2227 C2226 1.383 . S
C2227 H2290 0.929 . S
C2228 C2224 1.527 . S
C2228 H2291 0.961 . S
C2228 H2292 0.959 . S
C2228 H2293 0.959 . S
C2229 C2226 1.603 . S
C2229 H2294 0.960 . S
C2229 H2295 0.962 . S
C2229 H2296 0.961 . S
C2230 C2197 1.587 . S
C2230 C2231 1.360 1_655 S
C2230 C2243 1.412 . S
C2231 C2230 1.360 1_455 S
C2231 C2232 1.365 . S
C2231 H2297 0.929 . S
C2232 C2207 1.553 . S
C2232 C2231 1.365 . S
C2232 C2233 1.404 . S
C2233 C2232 1.404 . S
C2233 C2234 1.395 . S
C2233 C2244 1.451 . S
C2234 C2233 1.395 . S
C2234 C2235 1.322 . S
C2234 H2298 0.930 . S
C2235 C2234 1.322 . S
C2235 C2236 1.459 . S
C2235 H2299 0.929 . S
C2236 C2235 1.459 . S
C2236 C2237 1.445 . S
C2236 C2245 1.395 . S
C2237 C2215 1.432 . S
C2237 C2236 1.445 . S
C2237 C2238 1.370 . S
C2238 C2237 1.370 . S
C2238 C2239 1.438 1_455 S
C2238 H2300 0.930 . S
C2239 C2225 1.497 . S
C2239 C2238 1.438 1_655 S
C2239 C2240 1.360 . S
C2240 C2239 1.360 . S
C2240 C2241 1.401 . S
C2240 C2245 1.446 1_655 S
C2241 C2240 1.401 . S
C2241 C2242 1.347 . S
C2241 H2301 0.929 . S
C2242 C2241 1.347 . S
C2242 C2243 1.455 . S
C2242 H2302 0.930 . S
C2243 C2230 1.412 . S
C2243 C2242 1.455 . S
C2243 C2244 1.331 1_655 S
C2244 C2233 1.451 . S
C2244 C2243 1.331 1_455 S
C2244 C2245 1.497 . S
C2245 C2236 1.395 . S
C2245 C2240 1.446 1_455 S
C2245 C2244 1.497 . S
C2246 C2247 1.582 . S
C2246 H2303 0.962 . S
C2246 H2304 0.959 . S
C2246 H2305 0.958 . S
C2247 C2246 1.582 . S
C2247 O2250 1.458 . S
C2247 H2276 0.980 . S
O2248 C2193 1.426 . S
O2248 C2194 1.334 . S
O2249 C2221 1.412 . S
O2249 C2222 1.393 . S
O2250 C2212 1.435 . S
O2250 C2247 1.458 . S
O2251 C2203 1.468 . S
O2251 C2204 1.408 . S
H2252 C2193 0.980 . S
H2253 C2192 0.959 . S
H2254 C2192 0.959 . S
H2255 C2192 0.960 . S
H2256 C2195 0.929 . S
H2257 C2199 0.929 . S
H2258 C2200 0.959 . S
H2259 C2200 0.961 . S
H2260 C2200 0.961 . S
H2261 C2201 0.960 . S
H2262 C2201 0.960 . S
H2263 C2201 0.961 . S
H2264 C2203 0.980 . S
H2265 C2202 0.961 . S
H2266 C2202 0.960 . S
H2267 C2202 0.959 . S
H2268 C2205 0.930 . S
H2269 C2209 0.931 . S
H2270 C2210 0.959 . S
H2271 C2210 0.961 . S
H2272 C2210 0.959 . S
H2273 C2211 0.960 . S
H2274 C2211 0.960 . S
H2275 C2211 0.960 . S
H2276 C2247 0.980 . S
H2277 C2213 0.930 . S
H2278 C2217 0.930 . S
H2279 C2218 0.961 . S
H2280 C2218 0.960 . S
H2281 C2218 0.958 . S
H2282 C2219 0.961 . S
H2283 C2219 0.960 . S
H2284 C2219 0.960 . S
H2285 C2221 0.980 . S
H2286 C2220 0.961 . S
H2287 C2220 0.961 . S
H2288 C2220 0.959 . S
H2289 C2223 0.932 . S
H2290 C2227 0.929 . S
H2291 C2228 0.961 . S
H2292 C2228 0.959 . S
H2293 C2228 0.959 . S
H2294 C2229 0.960 . S
H2295 C2229 0.962 . S
H2296 C2229 0.961 . S
H2297 C2231 0.929 . S
H2298 C2234 0.930 . S
H2299 C2235 0.929 . S
H2300 C2238 0.930 . S
H2301 C2241 0.929 . S
H2302 C2242 0.930 . S
H2303 C2246 0.962 . S
H2304 C2246 0.959 . S
H2305 C2246 0.958 . S
C2306 C2307 1.560 . S
C2306 H2367 0.959 . S
C2306 H2368 0.959 . S
C2306 H2369 0.960 . S
C2307 C2306 1.560 . S
C2307 O2362 1.426 . S
C2307 H2366 0.980 . S
C2308 C2309 1.407 . S
C2308 C2313 1.418 . S
C2308 O2362 1.334 . S
C2309 C2308 1.407 . S
C2309 C2310 1.360 . S
C2309 H2370 0.929 . S
C2310 C2309 1.360 . S
C2310 C2311 1.401 . S
C2310 C2314 1.527 . S
C2311 C2310 1.401 . S
C2311 C2312 1.405 . S
C2311 C2344 1.587 . S
C2312 C2311 1.405 . S
C2312 C2313 1.332 . S
C2312 C2315 1.496 . S
C2313 C2308 1.418 . S
C2313 C2312 1.332 . S
C2313 H2371 0.929 . S
C2314 C2310 1.527 . S
C2314 H2372 0.959 . S
C2314 H2373 0.961 . S
C2314 H2374 0.961 . S
C2315 C2312 1.496 . S
C2315 H2375 0.960 . S
C2315 H2376 0.960 . S
C2315 H2377 0.961 . S
C2316 C2317 1.517 . S
C2316 H2379 0.961 . S
C2316 H2380 0.960 . S
C2316 H2381 0.959 . S
C2317 C2316 1.517 . S
C2317 O2365 1.468 . S
C2317 H2378 0.980 . S
C2318 C2319 1.349 . S
C2318 C2323 1.367 . S
C2318 O2365 1.408 . S
C2319 C2318 1.349 . S
C2319 C2320 1.407 . S
C2319 H2382 0.930 . S
C2320 C2319 1.407 . S
C2320 C2321 1.449 . S
C2320 C2324 1.535 . S
C2321 C2320 1.449 . S
C2321 C2322 1.384 . S
C2321 C2346 1.553 . S
C2322 C2321 1.384 . S
C2322 C2323 1.364 . S
C2322 C2325 1.450 . S
C2323 C2318 1.367 . S
C2323 C2322 1.364 . S
C2323 H2383 0.931 . S
C2324 C2320 1.535 . S
C2324 H2384 0.959 . S
C2324 H2385 0.961 . S
C2324 H2386 0.959 . S
C2325 C2322 1.450 . S
C2325 H2387 0.960 . S
C2325 H2388 0.960 . S
C2325 H2389 0.960 . S
C2326 C2327 1.309 . S
C2326 C2331 1.304 . S
C2326 O2364 1.435 . S
C2327 C2326 1.309 . S
C2327 C2328 1.476 . S
C2327 H2391 0.930 . S
C2328 C2327 1.476 . S
C2328 C2329 1.400 . S
C2328 C2332 1.567 . S
C2329 C2328 1.400 . S
C2329 C2330 1.373 . S
C2329 C2351 1.432 . S
C2330 C2329 1.373 . S
C2330 C2331 1.339 . S
C2330 C2333 1.530 . S
C2331 C2326 1.304 . S
C2331 C2330 1.339 . S
C2331 H2392 0.930 . S
C2332 C2328 1.567 . S
C2332 H2393 0.961 . S
C2332 H2394 0.960 . S
C2332 H2395 0.958 . S
C2333 C2330 1.530 . S
C2333 H2396 0.961 . S
C2333 H2397 0.960 . S
C2333 H2398 0.960 . S
C2334 C2335 1.530 . S
C2334 H2400 0.961 . S
C2334 H2401 0.961 . S
C2334 H2402 0.959 . S
C2335 C2334 1.530 . S
C2335 O2363 1.412 . S
C2335 H2399 0.980 . S
C2336 C2337 1.288 . S
C2336 C2341 1.377 . S
C2336 O2363 1.393 . S
C2337 C2336 1.288 . S
C2337 C2338 1.369 . S
C2337 H2403 0.932 . S
C2338 C2337 1.369 . S
C2338 C2339 1.398 . S
C2338 C2342 1.527 . S
C2339 C2338 1.398 . S
C2339 C2340 1.380 . S
C2339 C2353 1.497 . S
C2340 C2339 1.380 . S
C2340 C2341 1.383 . S
C2340 C2343 1.603 . S
C2341 C2336 1.377 . S
C2341 C2340 1.383 . S
C2341 H2404 0.929 . S
C2342 C2338 1.527 . S
C2342 H2405 0.961 . S
C2342 H2406 0.959 . S
C2342 H2407 0.959 . S
C2343 C2340 1.603 . S
C2343 H2408 0.960 . S
C2343 H2409 0.962 . S
C2343 H2410 0.961 . S
C2344 C2311 1.587 . S
C2344 C2345 1.360 . S
C2344 C2357 1.412 . S
C2345 C2344 1.360 . S
C2345 C2346 1.365 1_545 S
C2345 H2411 0.929 . S
C2346 C2321 1.553 . S
C2346 C2345 1.365 1_565 S
C2346 C2347 1.404 . S
C2347 C2346 1.404 . S
C2347 C2348 1.395 . S
C2347 C2358 1.451 1_565 S
C2348 C2347 1.395 . S
C2348 C2349 1.322 . S
C2348 H2412 0.930 . S
C2349 C2348 1.322 . S
C2349 C2350 1.459 . S
C2349 H2413 0.929 . S
C2350 C2349 1.459 . S
C2350 C2351 1.445 . S
C2350 C2359 1.395 1_565 S
C2351 C2329 1.432 . S
C2351 C2350 1.445 . S
C2351 C2352 1.370 1_565 S
C2352 C2351 1.370 1_545 S
C2352 C2353 1.438 . S
C2352 H2414 0.930 . S
C2353 C2339 1.497 . S
C2353 C2352 1.438 . S
C2353 C2354 1.360 . S
C2354 C2353 1.360 . S
C2354 C2355 1.401 . S
C2354 C2359 1.446 . S
C2355 C2354 1.401 . S
C2355 C2356 1.347 . S
C2355 H2415 0.929 . S
C2356 C2355 1.347 . S
C2356 C2357 1.455 . S
C2356 H2416 0.930 . S
C2357 C2344 1.412 . S
C2357 C2356 1.455 . S
C2357 C2358 1.331 . S
C2358 C2347 1.451 1_545 S
C2358 C2357 1.331 . S
C2358 C2359 1.497 . S
C2359 C2350 1.395 1_545 S
C2359 C2354 1.446 . S
C2359 C2358 1.497 . S
C2360 C2361 1.582 . S
C2360 H2417 0.962 . S
C2360 H2418 0.959 . S
C2360 H2419 0.958 . S
C2361 C2360 1.582 . S
C2361 O2364 1.458 . S
C2361 H2390 0.980 . S
O2362 C2307 1.426 . S
O2362 C2308 1.334 . S
O2363 C2335 1.412 . S
O2363 C2336 1.393 . S
O2364 C2326 1.435 . S
O2364 C2361 1.458 . S
O2365 C2317 1.468 . S
O2365 C2318 1.408 . S
H2366 C2307 0.980 . S
H2367 C2306 0.959 . S
H2368 C2306 0.959 . S
H2369 C2306 0.960 . S
H2370 C2309 0.929 . S
H2371 C2313 0.929 . S
H2372 C2314 0.959 . S
H2373 C2314 0.961 . S
H2374 C2314 0.961 . S
H2375 C2315 0.960 . S
H2376 C2315 0.960 . S
H2377 C2315 0.961 . S
H2378 C2317 0.980 . S
H2379 C2316 0.961 . S
H2380 C2316 0.960 . S
H2381 C2316 0.959 . S
H2382 C2319 0.930 . S
H2383 C2323 0.931 . S
H2384 C2324 0.959 . S
H2385 C2324 0.961 . S
H2386 C2324 0.959 . S
H2387 C2325 0.960 . S
H2388 C2325 0.960 . S
H2389 C2325 0.960 . S
H2390 C2361 0.980 . S
H2391 C2327 0.930 . S
H2392 C2331 0.930 . S
H2393 C2332 0.961 . S
H2394 C2332 0.960 . S
H2395 C2332 0.958 . S
H2396 C2333 0.961 . S
H2397 C2333 0.960 . S
H2398 C2333 0.960 . S
H2399 C2335 0.980 . S
H2400 C2334 0.961 . S
H2401 C2334 0.961 . S
H2402 C2334 0.959 . S
H2403 C2337 0.932 . S
H2404 C2341 0.929 . S
H2405 C2342 0.961 . S
H2406 C2342 0.959 . S
H2407 C2342 0.959 . S
H2408 C2343 0.960 . S
H2409 C2343 0.962 . S
H2410 C2343 0.961 . S
H2411 C2345 0.929 . S
H2412 C2348 0.930 . S
H2413 C2349 0.929 . S
H2414 C2352 0.930 . S
H2415 C2355 0.929 . S
H2416 C2356 0.930 . S
H2417 C2360 0.962 . S
H2418 C2360 0.959 . S
H2419 C2360 0.958 . S
C2420 C2421 1.560 . S
C2420 H2481 0.959 . S
C2420 H2482 0.959 . S
C2420 H2483 0.960 . S
C2421 C2420 1.560 . S
C2421 O2476 1.426 . S
C2421 H2480 0.980 . S
C2422 C2423 1.407 . S
C2422 C2427 1.418 . S
C2422 O2476 1.334 . S
C2423 C2422 1.407 . S
C2423 C2424 1.360 . S
C2423 H2484 0.929 . S
C2424 C2423 1.360 . S
C2424 C2425 1.401 . S
C2424 C2428 1.527 . S
C2425 C2424 1.401 . S
C2425 C2426 1.405 . S
C2425 C2458 1.587 . S
C2426 C2425 1.405 . S
C2426 C2427 1.332 . S
C2426 C2429 1.496 . S
C2427 C2422 1.418 . S
C2427 C2426 1.332 . S
C2427 H2485 0.929 . S
C2428 C2424 1.527 . S
C2428 H2486 0.959 . S
C2428 H2487 0.961 . S
C2428 H2488 0.961 . S
C2429 C2426 1.496 . S
C2429 H2489 0.960 . S
C2429 H2490 0.960 . S
C2429 H2491 0.961 . S
C2430 C2431 1.517 . S
C2430 H2493 0.961 . S
C2430 H2494 0.960 . S
C2430 H2495 0.959 . S
C2431 C2430 1.517 . S
C2431 O2479 1.468 . S
C2431 H2492 0.980 . S
C2432 C2433 1.349 . S
C2432 C2437 1.367 . S
C2432 O2479 1.408 . S
C2433 C2432 1.349 . S
C2433 C2434 1.407 . S
C2433 H2496 0.930 . S
C2434 C2433 1.407 . S
C2434 C2435 1.449 . S
C2434 C2438 1.535 . S
C2435 C2434 1.449 . S
C2435 C2436 1.384 . S
C2435 C2460 1.553 . S
C2436 C2435 1.384 . S
C2436 C2437 1.364 . S
C2436 C2439 1.450 . S
C2437 C2432 1.367 . S
C2437 C2436 1.364 . S
C2437 H2497 0.931 . S
C2438 C2434 1.535 . S
C2438 H2498 0.959 . S
C2438 H2499 0.961 . S
C2438 H2500 0.959 . S
C2439 C2436 1.450 . S
C2439 H2501 0.960 . S
C2439 H2502 0.960 . S
C2439 H2503 0.960 . S
C2440 C2441 1.309 . S
C2440 C2445 1.304 . S
C2440 O2478 1.435 . S
C2441 C2440 1.309 . S
C2441 C2442 1.476 . S
C2441 H2505 0.930 . S
C2442 C2441 1.476 . S
C2442 C2443 1.400 . S
C2442 C2446 1.567 . S
C2443 C2442 1.400 . S
C2443 C2444 1.373 . S
C2443 C2465 1.432 . S
C2444 C2443 1.373 . S
C2444 C2445 1.339 . S
C2444 C2447 1.530 . S
C2445 C2440 1.304 . S
C2445 C2444 1.339 . S
C2445 H2506 0.930 . S
C2446 C2442 1.567 . S
C2446 H2507 0.961 . S
C2446 H2508 0.960 . S
C2446 H2509 0.958 . S
C2447 C2444 1.530 . S
C2447 H2510 0.961 . S
C2447 H2511 0.960 . S
C2447 H2512 0.960 . S
C2448 C2449 1.530 . S
C2448 H2514 0.961 . S
C2448 H2515 0.961 . S
C2448 H2516 0.959 . S
C2449 C2448 1.530 . S
C2449 O2477 1.412 . S
C2449 H2513 0.980 . S
C2450 C2451 1.288 . S
C2450 C2455 1.377 . S
C2450 O2477 1.393 . S
C2451 C2450 1.288 . S
C2451 C2452 1.369 . S
C2451 H2517 0.932 . S
C2452 C2451 1.369 . S
C2452 C2453 1.398 . S
C2452 C2456 1.527 . S
C2453 C2452 1.398 . S
C2453 C2454 1.380 . S
C2453 C2467 1.497 . S
C2454 C2453 1.380 . S
C2454 C2455 1.383 . S
C2454 C2457 1.603 . S
C2455 C2450 1.377 . S
C2455 C2454 1.383 . S
C2455 H2518 0.929 . S
C2456 C2452 1.527 . S
C2456 H2519 0.961 . S
C2456 H2520 0.959 . S
C2456 H2521 0.959 . S
C2457 C2454 1.603 . S
C2457 H2522 0.960 . S
C2457 H2523 0.962 . S
C2457 H2524 0.961 . S
C2458 C2425 1.587 . S
C2458 C2459 1.338 1_655 S
C2458 C2471 1.412 . S
C2459 C2458 1.338 1_455 S
C2459 C2460 1.387 . S
C2459 H2525 0.929 . S
C2460 C2435 1.553 . S
C2460 C2459 1.387 . S
C2460 C2461 1.404 . S
C2461 C2460 1.404 . S
C2461 C2462 1.395 . S
C2461 C2472 1.462 . S
C2462 C2461 1.395 . S
C2462 C2463 1.322 . S
C2462 H2526 0.930 . S
C2463 C2462 1.322 . S
C2463 C2464 1.459 . S
C2463 H2527 0.929 . S
C2464 C2463 1.459 . S
C2464 C2465 1.445 . S
C2464 C2473 1.454 . S
C2465 C2443 1.432 . S
C2465 C2464 1.445 . S
C2465 C2466 1.370 . S
C2466 C2465 1.370 . S
C2466 C2467 1.438 1_455 S
C2466 H2528 0.930 . S
C2467 C2453 1.497 . S
C2467 C2466 1.438 1_655 S
C2467 C2468 1.360 . S
C2468 C2467 1.360 . S
C2468 C2469 1.401 . S
C2468 C2473 1.391 1_655 S
C2469 C2468 1.401 . S
C2469 C2470 1.347 . S
C2469 H2529 0.929 . S
C2470 C2469 1.347 . S
C2470 C2471 1.455 . S
C2470 H2530 0.930 . S
C2471 C2458 1.412 . S
C2471 C2470 1.455 . S
C2471 C2472 1.320 1_655 S
C2472 C2461 1.462 . S
C2472 C2471 1.320 1_455 S
C2472 C2473 1.495 . S
C2473 C2464 1.454 . S
C2473 C2468 1.391 1_455 S
C2473 C2472 1.495 . S
C2474 C2475 1.582 . S
C2474 H2531 0.962 . S
C2474 H2532 0.959 . S
C2474 H2533 0.958 . S
C2475 C2474 1.582 . S
C2475 O2478 1.458 . S
C2475 H2504 0.980 . S
O2476 C2421 1.426 . S
O2476 C2422 1.334 . S
O2477 C2449 1.412 . S
O2477 C2450 1.393 . S
O2478 C2440 1.435 . S
O2478 C2475 1.458 . S
O2479 C2431 1.468 . S
O2479 C2432 1.408 . S
H2480 C2421 0.980 . S
H2481 C2420 0.959 . S
H2482 C2420 0.959 . S
H2483 C2420 0.960 . S
H2484 C2423 0.929 . S
H2485 C2427 0.929 . S
H2486 C2428 0.959 . S
H2487 C2428 0.961 . S
H2488 C2428 0.961 . S
H2489 C2429 0.960 . S
H2490 C2429 0.960 . S
H2491 C2429 0.961 . S
H2492 C2431 0.980 . S
H2493 C2430 0.961 . S
H2494 C2430 0.960 . S
H2495 C2430 0.959 . S
H2496 C2433 0.930 . S
H2497 C2437 0.931 . S
H2498 C2438 0.959 . S
H2499 C2438 0.961 . S
H2500 C2438 0.959 . S
H2501 C2439 0.960 . S
H2502 C2439 0.960 . S
H2503 C2439 0.960 . S
H2504 C2475 0.980 . S
H2505 C2441 0.930 . S
H2506 C2445 0.930 . S
H2507 C2446 0.961 . S
H2508 C2446 0.960 . S
H2509 C2446 0.958 . S
H2510 C2447 0.961 . S
H2511 C2447 0.960 . S
H2512 C2447 0.960 . S
H2513 C2449 0.980 . S
H2514 C2448 0.961 . S
H2515 C2448 0.961 . S
H2516 C2448 0.959 . S
H2517 C2451 0.932 . S
H2518 C2455 0.929 . S
H2519 C2456 0.961 . S
H2520 C2456 0.959 . S
H2521 C2456 0.959 . S
H2522 C2457 0.960 . S
H2523 C2457 0.962 . S
H2524 C2457 0.961 . S
H2525 C2459 0.929 . S
H2526 C2462 0.930 . S
H2527 C2463 0.929 . S
H2528 C2466 0.930 . S
H2529 C2469 0.929 . S
H2530 C2470 0.930 . S
H2531 C2474 0.962 . S
H2532 C2474 0.959 . S
H2533 C2474 0.958 . S
C2534 C2535 1.560 . S
C2534 H2595 0.959 . S
C2534 H2596 0.959 . S
C2534 H2597 0.960 . S
C2535 C2534 1.560 . S
C2535 O2590 1.426 . S
C2535 H2594 0.980 . S
C2536 C2537 1.407 . S
C2536 C2541 1.418 . S
C2536 O2590 1.334 . S
C2537 C2536 1.407 . S
C2537 C2538 1.360 . S
C2537 H2598 0.929 . S
C2538 C2537 1.360 . S
C2538 C2539 1.401 . S
C2538 C2542 1.527 . S
C2539 C2538 1.401 . S
C2539 C2540 1.405 . S
C2539 C2572 1.587 . S
C2540 C2539 1.405 . S
C2540 C2541 1.332 . S
C2540 C2543 1.496 . S
C2541 C2536 1.418 . S
C2541 C2540 1.332 . S
C2541 H2599 0.929 . S
C2542 C2538 1.527 . S
C2542 H2600 0.959 . S
C2542 H2601 0.961 . S
C2542 H2602 0.961 . S
C2543 C2540 1.496 . S
C2543 H2603 0.960 . S
C2543 H2604 0.960 . S
C2543 H2605 0.961 . S
C2544 C2545 1.517 . S
C2544 H2607 0.961 . S
C2544 H2608 0.960 . S
C2544 H2609 0.959 . S
C2545 C2544 1.517 . S
C2545 O2593 1.468 . S
C2545 H2606 0.980 . S
C2546 C2547 1.349 . S
C2546 C2551 1.367 . S
C2546 O2593 1.408 . S
C2547 C2546 1.349 . S
C2547 C2548 1.407 . S
C2547 H2610 0.930 . S
C2548 C2547 1.407 . S
C2548 C2549 1.449 . S
C2548 C2552 1.535 . S
C2549 C2548 1.449 . S
C2549 C2550 1.384 . S
C2549 C2574 1.553 . S
C2550 C2549 1.384 . S
C2550 C2551 1.364 . S
C2550 C2553 1.450 . S
C2551 C2546 1.367 . S
C2551 C2550 1.364 . S
C2551 H2611 0.931 . S
C2552 C2548 1.535 . S
C2552 H2612 0.959 . S
C2552 H2613 0.961 . S
C2552 H2614 0.959 . S
C2553 C2550 1.450 . S
C2553 H2615 0.960 . S
C2553 H2616 0.960 . S
C2553 H2617 0.960 . S
C2554 C2555 1.309 . S
C2554 C2559 1.304 . S
C2554 O2592 1.435 . S
C2555 C2554 1.309 . S
C2555 C2556 1.476 . S
C2555 H2619 0.930 . S
C2556 C2555 1.476 . S
C2556 C2557 1.400 . S
C2556 C2560 1.567 . S
C2557 C2556 1.400 . S
C2557 C2558 1.373 . S
C2557 C2579 1.432 . S
C2558 C2557 1.373 . S
C2558 C2559 1.339 . S
C2558 C2561 1.530 . S
C2559 C2554 1.304 . S
C2559 C2558 1.339 . S
C2559 H2620 0.930 . S
C2560 C2556 1.567 . S
C2560 H2621 0.961 . S
C2560 H2622 0.960 . S
C2560 H2623 0.958 . S
C2561 C2558 1.530 . S
C2561 H2624 0.961 . S
C2561 H2625 0.960 . S
C2561 H2626 0.960 . S
C2562 C2563 1.530 . S
C2562 H2628 0.961 . S
C2562 H2629 0.961 . S
C2562 H2630 0.959 . S
C2563 C2562 1.530 . S
C2563 O2591 1.412 . S
C2563 H2627 0.980 . S
C2564 C2565 1.288 . S
C2564 C2569 1.377 . S
C2564 O2591 1.393 . S
C2565 C2564 1.288 . S
C2565 C2566 1.369 . S
C2565 H2631 0.932 . S
C2566 C2565 1.369 . S
C2566 C2567 1.398 . S
C2566 C2570 1.527 . S
C2567 C2566 1.398 . S
C2567 C2568 1.380 . S
C2567 C2581 1.497 . S
C2568 C2567 1.380 . S
C2568 C2569 1.383 . S
C2568 C2571 1.603 . S
C2569 C2564 1.377 . S
C2569 C2568 1.383 . S
C2569 H2632 0.929 . S
C2570 C2566 1.527 . S
C2570 H2633 0.961 . S
C2570 H2634 0.959 . S
C2570 H2635 0.959 . S
C2571 C2568 1.603 . S
C2571 H2636 0.960 . S
C2571 H2637 0.962 . S
C2571 H2638 0.961 . S
C2572 C2539 1.587 . S
C2572 C2573 1.347 1_565 S
C2572 C2585 1.412 . S
C2573 C2572 1.347 1_545 S
C2573 C2574 1.378 . S
C2573 H2639 0.929 . S
C2574 C2549 1.553 . S
C2574 C2573 1.378 . S
C2574 C2575 1.404 . S
C2575 C2574 1.404 . S
C2575 C2576 1.395 . S
C2575 C2586 1.487 . S
C2576 C2575 1.395 . S
C2576 C2577 1.322 . S
C2576 H2640 0.930 . S
C2577 C2576 1.322 . S
C2577 C2578 1.459 . S
C2577 H2641 0.929 . S
C2578 C2577 1.459 . S
C2578 C2579 1.445 . S
C2578 C2587 1.395 . S
C2579 C2557 1.432 . S
C2579 C2578 1.445 . S
C2579 C2580 1.370 . S
C2580 C2579 1.370 . S
C2580 C2581 1.438 1_545 S
C2580 H2642 0.930 . S
C2581 C2567 1.497 . S
C2581 C2580 1.438 1_565 S
C2581 C2582 1.360 . S
C2582 C2581 1.360 . S
C2582 C2583 1.401 . S
C2582 C2587 1.446 1_565 S
C2583 C2582 1.401 . S
C2583 C2584 1.347 . S
C2583 H2643 0.929 . S
C2584 C2583 1.347 . S
C2584 C2585 1.455 . S
C2584 H2644 0.930 . S
C2585 C2572 1.412 . S
C2585 C2584 1.455 . S
C2585 C2586 1.294 1_565 S
C2586 C2575 1.487 . S
C2586 C2585 1.294 1_545 S
C2586 C2587 1.500 . S
C2587 C2578 1.395 . S
C2587 C2582 1.446 1_545 S
C2587 C2586 1.500 . S
C2588 C2589 1.582 . S
C2588 H2645 0.962 . S
C2588 H2646 0.959 . S
C2588 H2647 0.958 . S
C2589 C2588 1.582 . S
C2589 O2592 1.458 . S
C2589 H2618 0.980 . S
O2590 C2535 1.426 . S
O2590 C2536 1.334 . S
O2591 C2563 1.412 . S
O2591 C2564 1.393 . S
O2592 C2554 1.435 . S
O2592 C2589 1.458 . S
O2593 C2545 1.468 . S
O2593 C2546 1.408 . S
H2594 C2535 0.980 . S
H2595 C2534 0.959 . S
H2596 C2534 0.959 . S
H2597 C2534 0.960 . S
H2598 C2537 0.929 . S
H2599 C2541 0.929 . S
H2600 C2542 0.959 . S
H2601 C2542 0.961 . S
H2602 C2542 0.961 . S
H2603 C2543 0.960 . S
H2604 C2543 0.960 . S
H2605 C2543 0.961 . S
H2606 C2545 0.980 . S
H2607 C2544 0.961 . S
H2608 C2544 0.960 . S
H2609 C2544 0.959 . S
H2610 C2547 0.930 . S
H2611 C2551 0.931 . S
H2612 C2552 0.959 . S
H2613 C2552 0.961 . S
H2614 C2552 0.959 . S
H2615 C2553 0.960 . S
H2616 C2553 0.960 . S
H2617 C2553 0.960 . S
H2618 C2589 0.980 . S
H2619 C2555 0.930 . S
H2620 C2559 0.930 . S
H2621 C2560 0.961 . S
H2622 C2560 0.960 . S
H2623 C2560 0.958 . S
H2624 C2561 0.961 . S
H2625 C2561 0.960 . S
H2626 C2561 0.960 . S
H2627 C2563 0.980 . S
H2628 C2562 0.961 . S
H2629 C2562 0.961 . S
H2630 C2562 0.959 . S
H2631 C2565 0.932 . S
H2632 C2569 0.929 . S
H2633 C2570 0.961 . S
H2634 C2570 0.959 . S
H2635 C2570 0.959 . S
H2636 C2571 0.960 . S
H2637 C2571 0.962 . S
H2638 C2571 0.961 . S
H2639 C2573 0.929 . S
H2640 C2576 0.930 . S
H2641 C2577 0.929 . S
H2642 C2580 0.930 . S
H2643 C2583 0.929 . S
H2644 C2584 0.930 . S
H2645 C2588 0.962 . S
H2646 C2588 0.959 . S
H2647 C2588 0.958 . S
C2648 C2649 1.560 . S
C2648 H2709 0.959 . S
C2648 H2710 0.959 . S
C2648 H2711 0.960 . S
C2649 C2648 1.560 . S
C2649 O2704 1.426 . S
C2649 H2708 0.980 . S
C2650 C2651 1.407 . S
C2650 C2655 1.418 . S
C2650 O2704 1.334 . S
C2651 C2650 1.407 . S
C2651 C2652 1.360 . S
C2651 H2712 0.929 . S
C2652 C2651 1.360 . S
C2652 C2653 1.401 . S
C2652 C2656 1.527 . S
C2653 C2652 1.401 . S
C2653 C2654 1.405 . S
C2653 C2686 1.587 . S
C2654 C2653 1.405 . S
C2654 C2655 1.332 . S
C2654 C2657 1.496 . S
C2655 C2650 1.418 . S
C2655 C2654 1.332 . S
C2655 H2713 0.929 . S
C2656 C2652 1.527 . S
C2656 H2714 0.959 . S
C2656 H2715 0.961 . S
C2656 H2716 0.961 . S
C2657 C2654 1.496 . S
C2657 H2717 0.960 . S
C2657 H2718 0.960 . S
C2657 H2719 0.961 . S
C2658 C2659 1.517 . S
C2658 H2721 0.961 . S
C2658 H2722 0.960 . S
C2658 H2723 0.959 . S
C2659 C2658 1.517 . S
C2659 O2707 1.468 . S
C2659 H2720 0.980 . S
C2660 C2661 1.349 . S
C2660 C2665 1.367 . S
C2660 O2707 1.408 . S
C2661 C2660 1.349 . S
C2661 C2662 1.407 . S
C2661 H2724 0.930 . S
C2662 C2661 1.407 . S
C2662 C2663 1.449 . S
C2662 C2666 1.535 . S
C2663 C2662 1.449 . S
C2663 C2664 1.384 . S
C2663 C2688 1.553 . S
C2664 C2663 1.384 . S
C2664 C2665 1.364 . S
C2664 C2667 1.450 . S
C2665 C2660 1.367 . S
C2665 C2664 1.364 . S
C2665 H2725 0.931 . S
C2666 C2662 1.535 . S
C2666 H2726 0.959 . S
C2666 H2727 0.961 . S
C2666 H2728 0.959 . S
C2667 C2664 1.450 . S
C2667 H2729 0.960 . S
C2667 H2730 0.960 . S
C2667 H2731 0.960 . S
C2668 C2669 1.309 . S
C2668 C2673 1.304 . S
C2668 O2706 1.435 . S
C2669 C2668 1.309 . S
C2669 C2670 1.476 . S
C2669 H2733 0.930 . S
C2670 C2669 1.476 . S
C2670 C2671 1.400 . S
C2670 C2674 1.567 . S
C2671 C2670 1.400 . S
C2671 C2672 1.373 . S
C2671 C2693 1.432 . S
C2672 C2671 1.373 . S
C2672 C2673 1.339 . S
C2672 C2675 1.530 . S
C2673 C2668 1.304 . S
C2673 C2672 1.339 . S
C2673 H2734 0.930 . S
C2674 C2670 1.567 . S
C2674 H2735 0.961 . S
C2674 H2736 0.960 . S
C2674 H2737 0.958 . S
C2675 C2672 1.530 . S
C2675 H2738 0.961 . S
C2675 H2739 0.960 . S
C2675 H2740 0.960 . S
C2676 C2677 1.530 . S
C2676 H2742 0.961 . S
C2676 H2743 0.961 . S
C2676 H2744 0.959 . S
C2677 C2676 1.530 . S
C2677 O2705 1.412 . S
C2677 H2741 0.980 . S
C2678 C2679 1.288 . S
C2678 C2683 1.377 . S
C2678 O2705 1.393 . S
C2679 C2678 1.288 . S
C2679 C2680 1.369 . S
C2679 H2745 0.932 . S
C2680 C2679 1.369 . S
C2680 C2681 1.398 . S
C2680 C2684 1.527 . S
C2681 C2680 1.398 . S
C2681 C2682 1.380 . S
C2681 C2695 1.497 . S
C2682 C2681 1.380 . S
C2682 C2683 1.383 . S
C2682 C2685 1.603 . S
C2683 C2678 1.377 . S
C2683 C2682 1.383 . S
C2683 H2746 0.929 . S
C2684 C2680 1.527 . S
C2684 H2747 0.961 . S
C2684 H2748 0.959 . S
C2684 H2749 0.959 . S
C2685 C2682 1.603 . S
C2685 H2750 0.960 . S
C2685 H2751 0.962 . S
C2685 H2752 0.961 . S
C2686 C2653 1.587 . S
C2686 C2687 1.360 . S
C2686 C2699 1.412 . S
C2687 C2686 1.360 . S
C2687 C2688 1.365 . S
C2687 H2753 0.929 . S
C2688 C2663 1.553 . S
C2688 C2687 1.365 . S
C2688 C2689 1.404 . S
C2689 C2688 1.404 . S
C2689 C2690 1.395 . S
C2689 C2700 1.451 . S
C2690 C2689 1.395 . S
C2690 C2691 1.322 . S
C2690 H2754 0.930 . S
C2691 C2690 1.322 . S
C2691 C2692 1.459 . S
C2691 H2755 0.929 . S
C2692 C2691 1.459 . S
C2692 C2693 1.445 . S
C2692 C2701 1.395 . S
C2693 C2671 1.432 . S
C2693 C2692 1.445 . S
C2693 C2694 1.370 . S
C2694 C2693 1.370 . S
C2694 C2695 1.438 . S
C2694 H2756 0.930 . S
C2695 C2681 1.497 . S
C2695 C2694 1.438 . S
C2695 C2696 1.360 . S
C2696 C2695 1.360 . S
C2696 C2697 1.401 . S
C2696 C2701 1.446 . S
C2697 C2696 1.401 . S
C2697 C2698 1.347 . S
C2697 H2757 0.929 . S
C2698 C2697 1.347 . S
C2698 C2699 1.455 . S
C2698 H2758 0.930 . S
C2699 C2686 1.412 . S
C2699 C2698 1.455 . S
C2699 C2700 1.331 . S
C2700 C2689 1.451 . S
C2700 C2699 1.331 . S
C2700 C2701 1.497 . S
C2701 C2692 1.395 . S
C2701 C2696 1.446 . S
C2701 C2700 1.497 . S
C2702 C2703 1.582 . S
C2702 H2759 0.962 . S
C2702 H2760 0.959 . S
C2702 H2761 0.958 . S
C2703 C2702 1.582 . S
C2703 O2706 1.458 . S
C2703 H2732 0.980 . S
O2704 C2649 1.426 . S
O2704 C2650 1.334 . S
O2705 C2677 1.412 . S
O2705 C2678 1.393 . S
O2706 C2668 1.435 . S
O2706 C2703 1.458 . S
O2707 C2659 1.468 . S
O2707 C2660 1.408 . S
H2708 C2649 0.980 . S
H2709 C2648 0.959 . S
H2710 C2648 0.959 . S
H2711 C2648 0.960 . S
H2712 C2651 0.929 . S
H2713 C2655 0.929 . S
H2714 C2656 0.959 . S
H2715 C2656 0.961 . S
H2716 C2656 0.961 . S
H2717 C2657 0.960 . S
H2718 C2657 0.960 . S
H2719 C2657 0.961 . S
H2720 C2659 0.980 . S
H2721 C2658 0.961 . S
H2722 C2658 0.960 . S
H2723 C2658 0.959 . S
H2724 C2661 0.930 . S
H2725 C2665 0.931 . S
H2726 C2666 0.959 . S
H2727 C2666 0.961 . S
H2728 C2666 0.959 . S
H2729 C2667 0.960 . S
H2730 C2667 0.960 . S
H2731 C2667 0.960 . S
H2732 C2703 0.980 . S
H2733 C2669 0.930 . S
H2734 C2673 0.930 . S
H2735 C2674 0.961 . S
H2736 C2674 0.960 . S
H2737 C2674 0.958 . S
H2738 C2675 0.961 . S
H2739 C2675 0.960 . S
H2740 C2675 0.960 . S
H2741 C2677 0.980 . S
H2742 C2676 0.961 . S
H2743 C2676 0.961 . S
H2744 C2676 0.959 . S
H2745 C2679 0.932 . S
H2746 C2683 0.929 . S
H2747 C2684 0.961 . S
H2748 C2684 0.959 . S
H2749 C2684 0.959 . S
H2750 C2685 0.960 . S
H2751 C2685 0.962 . S
H2752 C2685 0.961 . S
H2753 C2687 0.929 . S
H2754 C2690 0.930 . S
H2755 C2691 0.929 . S
H2756 C2694 0.930 . S
H2757 C2697 0.929 . S
H2758 C2698 0.930 . S
H2759 C2702 0.962 . S
H2760 C2702 0.959 . S
H2761 C2702 0.958 . S
C2762 C2763 1.560 . S
C2762 H2823 0.959 . S
C2762 H2824 0.959 . S
C2762 H2825 0.960 . S
C2763 C2762 1.560 . S
C2763 O2818 1.426 . S
C2763 H2822 0.980 . S
C2764 C2765 1.407 . S
C2764 C2769 1.418 . S
C2764 O2818 1.334 . S
C2765 C2764 1.407 . S
C2765 C2766 1.360 . S
C2765 H2826 0.929 . S
C2766 C2765 1.360 . S
C2766 C2767 1.401 . S
C2766 C2770 1.527 . S
C2767 C2766 1.401 . S
C2767 C2768 1.405 . S
C2767 C2800 1.587 . S
C2768 C2767 1.405 . S
C2768 C2769 1.332 . S
C2768 C2771 1.496 . S
C2769 C2764 1.418 . S
C2769 C2768 1.332 . S
C2769 H2827 0.929 . S
C2770 C2766 1.527 . S
C2770 H2828 0.959 . S
C2770 H2829 0.961 . S
C2770 H2830 0.961 . S
C2771 C2768 1.496 . S
C2771 H2831 0.960 . S
C2771 H2832 0.960 . S
C2771 H2833 0.961 . S
C2772 C2773 1.517 . S
C2772 H2835 0.961 . S
C2772 H2836 0.960 . S
C2772 H2837 0.959 . S
C2773 C2772 1.517 . S
C2773 O2821 1.468 . S
C2773 H2834 0.980 . S
C2774 C2775 1.349 . S
C2774 C2779 1.367 . S
C2774 O2821 1.408 . S
C2775 C2774 1.349 . S
C2775 C2776 1.407 . S
C2775 H2838 0.930 . S
C2776 C2775 1.407 . S
C2776 C2777 1.449 . S
C2776 C2780 1.535 . S
C2777 C2776 1.449 . S
C2777 C2778 1.384 . S
C2777 C2802 1.553 . S
C2778 C2777 1.384 . S
C2778 C2779 1.364 . S
C2778 C2781 1.450 . S
C2779 C2774 1.367 . S
C2779 C2778 1.364 . S
C2779 H2839 0.931 . S
C2780 C2776 1.535 . S
C2780 H2840 0.959 . S
C2780 H2841 0.961 . S
C2780 H2842 0.959 . S
C2781 C2778 1.450 . S
C2781 H2843 0.960 . S
C2781 H2844 0.960 . S
C2781 H2845 0.960 . S
C2782 C2783 1.309 . S
C2782 C2787 1.304 . S
C2782 O2820 1.435 . S
C2783 C2782 1.309 . S
C2783 C2784 1.476 . S
C2783 H2847 0.930 . S
C2784 C2783 1.476 . S
C2784 C2785 1.400 . S
C2784 C2788 1.567 . S
C2785 C2784 1.400 . S
C2785 C2786 1.373 . S
C2785 C2807 1.432 . S
C2786 C2785 1.373 . S
C2786 C2787 1.339 . S
C2786 C2789 1.530 . S
C2787 C2782 1.304 . S
C2787 C2786 1.339 . S
C2787 H2848 0.930 . S
C2788 C2784 1.567 . S
C2788 H2849 0.961 . S
C2788 H2850 0.960 . S
C2788 H2851 0.958 . S
C2789 C2786 1.530 . S
C2789 H2852 0.961 . S
C2789 H2853 0.960 . S
C2789 H2854 0.960 . S
C2790 C2791 1.530 . S
C2790 H2856 0.961 . S
C2790 H2857 0.961 . S
C2790 H2858 0.959 . S
C2791 C2790 1.530 . S
C2791 O2819 1.412 . S
C2791 H2855 0.980 . S
C2792 C2793 1.288 . S
C2792 C2797 1.377 . S
C2792 O2819 1.393 . S
C2793 C2792 1.288 . S
C2793 C2794 1.369 . S
C2793 H2859 0.932 . S
C2794 C2793 1.369 . S
C2794 C2795 1.398 . S
C2794 C2798 1.527 . S
C2795 C2794 1.398 . S
C2795 C2796 1.380 . S
C2795 C2809 1.497 . S
C2796 C2795 1.380 . S
C2796 C2797 1.383 . S
C2796 C2799 1.603 . S
C2797 C2792 1.377 . S
C2797 C2796 1.383 . S
C2797 H2860 0.929 . S
C2798 C2794 1.527 . S
C2798 H2861 0.961 . S
C2798 H2862 0.959 . S
C2798 H2863 0.959 . S
C2799 C2796 1.603 . S
C2799 H2864 0.960 . S
C2799 H2865 0.962 . S
C2799 H2866 0.961 . S
C2800 C2767 1.587 . S
C2800 C2801 1.360 . S
C2800 C2813 1.412 . S
C2801 C2800 1.360 . S
C2801 C2802 1.365 . S
C2801 H2867 0.929 . S
C2802 C2777 1.553 . S
C2802 C2801 1.365 . S
C2802 C2803 1.404 . S
C2803 C2802 1.404 . S
C2803 C2804 1.395 . S
C2803 C2814 1.451 . S
C2804 C2803 1.395 . S
C2804 C2805 1.322 . S
C2804 H2868 0.930 . S
C2805 C2804 1.322 . S
C2805 C2806 1.459 . S
C2805 H2869 0.929 . S
C2806 C2805 1.459 . S
C2806 C2807 1.445 . S
C2806 C2815 1.395 . S
C2807 C2785 1.432 . S
C2807 C2806 1.445 . S
C2807 C2808 1.370 . S
C2808 C2807 1.370 . S
C2808 C2809 1.438 . S
C2808 H2870 0.930 . S
C2809 C2795 1.497 . S
C2809 C2808 1.438 . S
C2809 C2810 1.360 . S
C2810 C2809 1.360 . S
C2810 C2811 1.401 . S
C2810 C2815 1.446 . S
C2811 C2810 1.401 . S
C2811 C2812 1.347 . S
C2811 H2871 0.929 . S
C2812 C2811 1.347 . S
C2812 C2813 1.455 . S
C2812 H2872 0.930 . S
C2813 C2800 1.412 . S
C2813 C2812 1.455 . S
C2813 C2814 1.331 . S
C2814 C2803 1.451 . S
C2814 C2813 1.331 . S
C2814 C2815 1.497 . S
C2815 C2806 1.395 . S
C2815 C2810 1.446 . S
C2815 C2814 1.497 . S
C2816 C2817 1.582 . S
C2816 H2873 0.962 . S
C2816 H2874 0.959 . S
C2816 H2875 0.958 . S
C2817 C2816 1.582 . S
C2817 O2820 1.458 . S
C2817 H2846 0.980 . S
O2818 C2763 1.426 . S
O2818 C2764 1.334 . S
O2819 C2791 1.412 . S
O2819 C2792 1.393 . S
O2820 C2782 1.435 . S
O2820 C2817 1.458 . S
O2821 C2773 1.468 . S
O2821 C2774 1.408 . S
H2822 C2763 0.980 . S
H2823 C2762 0.959 . S
H2824 C2762 0.959 . S
H2825 C2762 0.960 . S
H2826 C2765 0.929 . S
H2827 C2769 0.929 . S
H2828 C2770 0.959 . S
H2829 C2770 0.961 . S
H2830 C2770 0.961 . S
H2831 C2771 0.960 . S
H2832 C2771 0.960 . S
H2833 C2771 0.961 . S
H2834 C2773 0.980 . S
H2835 C2772 0.961 . S
H2836 C2772 0.960 . S
H2837 C2772 0.959 . S
H2838 C2775 0.930 . S
H2839 C2779 0.931 . S
H2840 C2780 0.959 . S
H2841 C2780 0.961 . S
H2842 C2780 0.959 . S
H2843 C2781 0.960 . S
H2844 C2781 0.960 . S
H2845 C2781 0.960 . S
H2846 C2817 0.980 . S
H2847 C2783 0.930 . S
H2848 C2787 0.930 . S
H2849 C2788 0.961 . S
H2850 C2788 0.960 . S
H2851 C2788 0.958 . S
H2852 C2789 0.961 . S
H2853 C2789 0.960 . S
H2854 C2789 0.960 . S
H2855 C2791 0.980 . S
H2856 C2790 0.961 . S
H2857 C2790 0.961 . S
H2858 C2790 0.959 . S
H2859 C2793 0.932 . S
H2860 C2797 0.929 . S
H2861 C2798 0.961 . S
H2862 C2798 0.959 . S
H2863 C2798 0.959 . S
H2864 C2799 0.960 . S
H2865 C2799 0.962 . S
H2866 C2799 0.961 . S
H2867 C2801 0.929 . S
H2868 C2804 0.930 . S
H2869 C2805 0.929 . S
H2870 C2808 0.930 . S
H2871 C2811 0.929 . S
H2872 C2812 0.930 . S
H2873 C2816 0.962 . S
H2874 C2816 0.959 . S
H2875 C2816 0.958 . S
C2876 C2877 1.560 . S
C2876 H2937 0.959 . S
C2876 H2938 0.959 . S
C2876 H2939 0.960 . S
C2877 C2876 1.560 . S
C2877 O2932 1.426 . S
C2877 H2936 0.980 . S
C2878 C2879 1.407 . S
C2878 C2883 1.418 . S
C2878 O2932 1.334 . S
C2879 C2878 1.407 . S
C2879 C2880 1.360 . S
C2879 H2940 0.929 . S
C2880 C2879 1.360 . S
C2880 C2881 1.401 . S
C2880 C2884 1.527 . S
C2881 C2880 1.401 . S
C2881 C2882 1.405 . S
C2881 C2914 1.587 . S
C2882 C2881 1.405 . S
C2882 C2883 1.332 . S
C2882 C2885 1.496 . S
C2883 C2878 1.418 . S
C2883 C2882 1.332 . S
C2883 H2941 0.929 . S
C2884 C2880 1.527 . S
C2884 H2942 0.959 . S
C2884 H2943 0.961 . S
C2884 H2944 0.961 . S
C2885 C2882 1.496 . S
C2885 H2945 0.960 . S
C2885 H2946 0.960 . S
C2885 H2947 0.961 . S
C2886 C2887 1.517 . S
C2886 H2949 0.961 . S
C2886 H2950 0.960 . S
C2886 H2951 0.959 . S
C2887 C2886 1.517 . S
C2887 O2935 1.468 . S
C2887 H2948 0.980 . S
C2888 C2889 1.349 . S
C2888 C2893 1.367 . S
C2888 O2935 1.408 . S
C2889 C2888 1.349 . S
C2889 C2890 1.407 . S
C2889 H2952 0.930 . S
C2890 C2889 1.407 . S
C2890 C2891 1.449 . S
C2890 C2894 1.535 . S
C2891 C2890 1.449 . S
C2891 C2892 1.384 . S
C2891 C2916 1.553 . S
C2892 C2891 1.384 . S
C2892 C2893 1.364 . S
C2892 C2895 1.450 . S
C2893 C2888 1.367 . S
C2893 C2892 1.364 . S
C2893 H2953 0.931 . S
C2894 C2890 1.535 . S
C2894 H2954 0.959 . S
C2894 H2955 0.961 . S
C2894 H2956 0.959 . S
C2895 C2892 1.450 . S
C2895 H2957 0.960 . S
C2895 H2958 0.960 . S
C2895 H2959 0.960 . S
C2896 C2897 1.309 . S
C2896 C2901 1.304 . S
C2896 O2934 1.435 . S
C2897 C2896 1.309 . S
C2897 C2898 1.476 . S
C2897 H2961 0.930 . S
C2898 C2897 1.476 . S
C2898 C2899 1.400 . S
C2898 C2902 1.567 . S
C2899 C2898 1.400 . S
C2899 C2900 1.373 . S
C2899 C2921 1.432 . S
C2900 C2899 1.373 . S
C2900 C2901 1.339 . S
C2900 C2903 1.530 . S
C2901 C2896 1.304 . S
C2901 C2900 1.339 . S
C2901 H2962 0.930 . S
C2902 C2898 1.567 . S
C2902 H2963 0.961 . S
C2902 H2964 0.960 . S
C2902 H2965 0.958 . S
C2903 C2900 1.530 . S
C2903 H2966 0.961 . S
C2903 H2967 0.960 . S
C2903 H2968 0.960 . S
C2904 C2905 1.530 . S
C2904 H2970 0.961 . S
C2904 H2971 0.961 . S
C2904 H2972 0.959 . S
C2905 C2904 1.530 . S
C2905 O2933 1.412 . S
C2905 H2969 0.980 . S
C2906 C2907 1.288 . S
C2906 C2911 1.377 . S
C2906 O2933 1.393 . S
C2907 C2906 1.288 . S
C2907 C2908 1.369 . S
C2907 H2973 0.932 . S
C2908 C2907 1.369 . S
C2908 C2909 1.398 . S
C2908 C2912 1.527 . S
C2909 C2908 1.398 . S
C2909 C2910 1.380 . S
C2909 C2923 1.497 . S
C2910 C2909 1.380 . S
C2910 C2911 1.383 . S
C2910 C2913 1.603 . S
C2911 C2906 1.377 . S
C2911 C2910 1.383 . S
C2911 H2974 0.929 . S
C2912 C2908 1.527 . S
C2912 H2975 0.961 . S
C2912 H2976 0.959 . S
C2912 H2977 0.959 . S
C2913 C2910 1.603 . S
C2913 H2978 0.960 . S
C2913 H2979 0.962 . S
C2913 H2980 0.961 . S
C2914 C2881 1.587 . S
C2914 C2915 1.360 . S
C2914 C2927 1.412 . S
C2915 C2914 1.360 . S
C2915 C2916 1.365 . S
C2915 H2981 0.929 . S
C2916 C2891 1.553 . S
C2916 C2915 1.365 . S
C2916 C2917 1.404 . S
C2917 C2916 1.404 . S
C2917 C2918 1.395 . S
C2917 C2928 1.451 . S
C2918 C2917 1.395 . S
C2918 C2919 1.322 . S
C2918 H2982 0.930 . S
C2919 C2918 1.322 . S
C2919 C2920 1.459 . S
C2919 H2983 0.929 . S
C2920 C2919 1.459 . S
C2920 C2921 1.445 . S
C2920 C2929 1.395 . S
C2921 C2899 1.432 . S
C2921 C2920 1.445 . S
C2921 C2922 1.370 . S
C2922 C2921 1.370 . S
C2922 C2923 1.438 . S
C2922 H2984 0.930 . S
C2923 C2909 1.497 . S
C2923 C2922 1.438 . S
C2923 C2924 1.360 . S
C2924 C2923 1.360 . S
C2924 C2925 1.401 . S
C2924 C2929 1.446 . S
C2925 C2924 1.401 . S
C2925 C2926 1.347 . S
C2925 H2985 0.929 . S
C2926 C2925 1.347 . S
C2926 C2927 1.455 . S
C2926 H2986 0.930 . S
C2927 C2914 1.412 . S
C2927 C2926 1.455 . S
C2927 C2928 1.331 . S
C2928 C2917 1.451 . S
C2928 C2927 1.331 . S
C2928 C2929 1.497 . S
C2929 C2920 1.395 . S
C2929 C2924 1.446 . S
C2929 C2928 1.497 . S
C2930 C2931 1.582 . S
C2930 H2987 0.962 . S
C2930 H2988 0.959 . S
C2930 H2989 0.958 . S
C2931 C2930 1.582 . S
C2931 O2934 1.458 . S
C2931 H2960 0.980 . S
O2932 C2877 1.426 . S
O2932 C2878 1.334 . S
O2933 C2905 1.412 . S
O2933 C2906 1.393 . S
O2934 C2896 1.435 . S
O2934 C2931 1.458 . S
O2935 C2887 1.468 . S
O2935 C2888 1.408 . S
H2936 C2877 0.980 . S
H2937 C2876 0.959 . S
H2938 C2876 0.959 . S
H2939 C2876 0.960 . S
H2940 C2879 0.929 . S
H2941 C2883 0.929 . S
H2942 C2884 0.959 . S
H2943 C2884 0.961 . S
H2944 C2884 0.961 . S
H2945 C2885 0.960 . S
H2946 C2885 0.960 . S
H2947 C2885 0.961 . S
H2948 C2887 0.980 . S
H2949 C2886 0.961 . S
H2950 C2886 0.960 . S
H2951 C2886 0.959 . S
H2952 C2889 0.930 . S
H2953 C2893 0.931 . S
H2954 C2894 0.959 . S
H2955 C2894 0.961 . S
H2956 C2894 0.959 . S
H2957 C2895 0.960 . S
H2958 C2895 0.960 . S
H2959 C2895 0.960 . S
H2960 C2931 0.980 . S
H2961 C2897 0.930 . S
H2962 C2901 0.930 . S
H2963 C2902 0.961 . S
H2964 C2902 0.960 . S
H2965 C2902 0.958 . S
H2966 C2903 0.961 . S
H2967 C2903 0.960 . S
H2968 C2903 0.960 . S
H2969 C2905 0.980 . S
H2970 C2904 0.961 . S
H2971 C2904 0.961 . S
H2972 C2904 0.959 . S
H2973 C2907 0.932 . S
H2974 C2911 0.929 . S
H2975 C2912 0.961 . S
H2976 C2912 0.959 . S
H2977 C2912 0.959 . S
H2978 C2913 0.960 . S
H2979 C2913 0.962 . S
H2980 C2913 0.961 . S
H2981 C2915 0.929 . S
H2982 C2918 0.930 . S
H2983 C2919 0.929 . S
H2984 C2922 0.930 . S
H2985 C2925 0.929 . S
H2986 C2926 0.930 . S
H2987 C2930 0.962 . S
H2988 C2930 0.959 . S
H2989 C2930 0.958 . S
C2990 C2991 1.560 . S
C2990 H3051 0.959 . S
C2990 H3052 0.959 . S
C2990 H3053 0.960 . S
C2991 C2990 1.560 . S
C2991 O3046 1.426 . S
C2991 H3050 0.980 . S
C2992 C2993 1.407 . S
C2992 C2997 1.418 . S
C2992 O3046 1.334 . S
C2993 C2992 1.407 . S
C2993 C2994 1.360 . S
C2993 H3054 0.929 . S
C2994 C2993 1.360 . S
C2994 C2995 1.401 . S
C2994 C2998 1.527 . S
C2995 C2994 1.401 . S
C2995 C2996 1.405 . S
C2995 C3028 1.587 . S
C2996 C2995 1.405 . S
C2996 C2997 1.332 . S
C2996 C2999 1.496 . S
C2997 C2992 1.418 . S
C2997 C2996 1.332 . S
C2997 H3055 0.929 . S
C2998 C2994 1.527 . S
C2998 H3056 0.959 . S
C2998 H3057 0.961 . S
C2998 H3058 0.961 . S
C2999 C2996 1.496 . S
C2999 H3059 0.960 . S
C2999 H3060 0.960 . S
C2999 H3061 0.961 . S
C3000 C3001 1.517 . S
C3000 H3063 0.961 . S
C3000 H3064 0.960 . S
C3000 H3065 0.959 . S
C3001 C3000 1.517 . S
C3001 O3049 1.468 . S
C3001 H3062 0.980 . S
C3002 C3003 1.349 . S
C3002 C3007 1.367 . S
C3002 O3049 1.408 . S
C3003 C3002 1.349 . S
C3003 C3004 1.407 . S
C3003 H3066 0.930 . S
C3004 C3003 1.407 . S
C3004 C3005 1.449 . S
C3004 C3008 1.535 . S
C3005 C3004 1.449 . S
C3005 C3006 1.384 . S
C3005 C3030 1.553 . S
C3006 C3005 1.384 . S
C3006 C3007 1.364 . S
C3006 C3009 1.450 . S
C3007 C3002 1.367 . S
C3007 C3006 1.364 . S
C3007 H3067 0.931 . S
C3008 C3004 1.535 . S
C3008 H3068 0.959 . S
C3008 H3069 0.961 . S
C3008 H3070 0.959 . S
C3009 C3006 1.450 . S
C3009 H3071 0.960 . S
C3009 H3072 0.960 . S
C3009 H3073 0.960 . S
C3010 C3011 1.309 . S
C3010 C3015 1.304 . S
C3010 O3048 1.435 . S
C3011 C3010 1.309 . S
C3011 C3012 1.476 . S
C3011 H3075 0.930 . S
C3012 C3011 1.476 . S
C3012 C3013 1.400 . S
C3012 C3016 1.567 . S
C3013 C3012 1.400 . S
C3013 C3014 1.373 . S
C3013 C3035 1.432 . S
C3014 C3013 1.373 . S
C3014 C3015 1.339 . S
C3014 C3017 1.530 . S
C3015 C3010 1.304 . S
C3015 C3014 1.339 . S
C3015 H3076 0.930 . S
C3016 C3012 1.567 . S
C3016 H3077 0.961 . S
C3016 H3078 0.960 . S
C3016 H3079 0.958 . S
C3017 C3014 1.530 . S
C3017 H3080 0.961 . S
C3017 H3081 0.960 . S
C3017 H3082 0.960 . S
C3018 C3019 1.530 . S
C3018 H3084 0.961 . S
C3018 H3085 0.961 . S
C3018 H3086 0.959 . S
C3019 C3018 1.530 . S
C3019 O3047 1.412 . S
C3019 H3083 0.980 . S
C3020 C3021 1.288 . S
C3020 C3025 1.377 . S
C3020 O3047 1.393 . S
C3021 C3020 1.288 . S
C3021 C3022 1.369 . S
C3021 H3087 0.932 . S
C3022 C3021 1.369 . S
C3022 C3023 1.398 . S
C3022 C3026 1.527 . S
C3023 C3022 1.398 . S
C3023 C3024 1.380 . S
C3023 C3037 1.497 . S
C3024 C3023 1.380 . S
C3024 C3025 1.383 . S
C3024 C3027 1.603 . S
C3025 C3020 1.377 . S
C3025 C3024 1.383 . S
C3025 H3088 0.929 . S
C3026 C3022 1.527 . S
C3026 H3089 0.961 . S
C3026 H3090 0.959 . S
C3026 H3091 0.959 . S
C3027 C3024 1.603 . S
C3027 H3092 0.960 . S
C3027 H3093 0.962 . S
C3027 H3094 0.961 . S
C3028 C2995 1.587 . S
C3028 C3029 1.360 . S
C3028 C3041 1.412 . S
C3029 C3028 1.360 . S
C3029 C3030 1.365 . S
C3029 H3095 0.929 . S
C3030 C3005 1.553 . S
C3030 C3029 1.365 . S
C3030 C3031 1.404 . S
C3031 C3030 1.404 . S
C3031 C3032 1.395 . S
C3031 C3042 1.451 . S
C3032 C3031 1.395 . S
C3032 C3033 1.322 . S
C3032 H3096 0.930 . S
C3033 C3032 1.322 . S
C3033 C3034 1.459 . S
C3033 H3097 0.929 . S
C3034 C3033 1.459 . S
C3034 C3035 1.445 . S
C3034 C3043 1.395 . S
C3035 C3013 1.432 . S
C3035 C3034 1.445 . S
C3035 C3036 1.370 . S
C3036 C3035 1.370 . S
C3036 C3037 1.438 . S
C3036 H3098 0.930 . S
C3037 C3023 1.497 . S
C3037 C3036 1.438 . S
C3037 C3038 1.360 . S
C3038 C3037 1.360 . S
C3038 C3039 1.401 . S
C3038 C3043 1.446 . S
C3039 C3038 1.401 . S
C3039 C3040 1.347 . S
C3039 H3099 0.929 . S
C3040 C3039 1.347 . S
C3040 C3041 1.455 . S
C3040 H3100 0.930 . S
C3041 C3028 1.412 . S
C3041 C3040 1.455 . S
C3041 C3042 1.331 . S
C3042 C3031 1.451 . S
C3042 C3041 1.331 . S
C3042 C3043 1.497 . S
C3043 C3034 1.395 . S
C3043 C3038 1.446 . S
C3043 C3042 1.497 . S
C3044 C3045 1.582 . S
C3044 H3101 0.962 . S
C3044 H3102 0.959 . S
C3044 H3103 0.958 . S
C3045 C3044 1.582 . S
C3045 O3048 1.458 . S
C3045 H3074 0.980 . S
O3046 C2991 1.426 . S
O3046 C2992 1.334 . S
O3047 C3019 1.412 . S
O3047 C3020 1.393 . S
O3048 C3010 1.435 . S
O3048 C3045 1.458 . S
O3049 C3001 1.468 . S
O3049 C3002 1.408 . S
H3050 C2991 0.980 . S
H3051 C2990 0.959 . S
H3052 C2990 0.959 . S
H3053 C2990 0.960 . S
H3054 C2993 0.929 . S
H3055 C2997 0.929 . S
H3056 C2998 0.959 . S
H3057 C2998 0.961 . S
H3058 C2998 0.961 . S
H3059 C2999 0.960 . S
H3060 C2999 0.960 . S
H3061 C2999 0.961 . S
H3062 C3001 0.980 . S
H3063 C3000 0.961 . S
H3064 C3000 0.960 . S
H3065 C3000 0.959 . S
H3066 C3003 0.930 . S
H3067 C3007 0.931 . S
H3068 C3008 0.959 . S
H3069 C3008 0.961 . S
H3070 C3008 0.959 . S
H3071 C3009 0.960 . S
H3072 C3009 0.960 . S
H3073 C3009 0.960 . S
H3074 C3045 0.980 . S
H3075 C3011 0.930 . S
H3076 C3015 0.930 . S
H3077 C3016 0.961 . S
H3078 C3016 0.960 . S
H3079 C3016 0.958 . S
H3080 C3017 0.961 . S
H3081 C3017 0.960 . S
H3082 C3017 0.960 . S
H3083 C3019 0.980 . S
H3084 C3018 0.961 . S
H3085 C3018 0.961 . S
H3086 C3018 0.959 . S
H3087 C3021 0.932 . S
H3088 C3025 0.929 . S
H3089 C3026 0.961 . S
H3090 C3026 0.959 . S
H3091 C3026 0.959 . S
H3092 C3027 0.960 . S
H3093 C3027 0.962 . S
H3094 C3027 0.961 . S
H3095 C3029 0.929 . S
H3096 C3032 0.930 . S
H3097 C3033 0.929 . S
H3098 C3036 0.930 . S
H3099 C3039 0.929 . S
H3100 C3040 0.930 . S
H3101 C3044 0.962 . S
H3102 C3044 0.959 . S
H3103 C3044 0.958 . S
C3104 C3105 1.560 . S
C3104 H3165 0.959 . S
C3104 H3166 0.959 . S
C3104 H3167 0.960 . S
C3105 C3104 1.560 . S
C3105 O3160 1.426 . S
C3105 H3164 0.980 . S
C3106 C3107 1.407 . S
C3106 C3111 1.418 . S
C3106 O3160 1.334 . S
C3107 C3106 1.407 . S
C3107 C3108 1.360 . S
C3107 H3168 0.929 . S
C3108 C3107 1.360 . S
C3108 C3109 1.401 . S
C3108 C3112 1.527 . S
C3109 C3108 1.401 . S
C3109 C3110 1.405 . S
C3109 C3142 1.587 . S
C3110 C3109 1.405 . S
C3110 C3111 1.332 . S
C3110 C3113 1.496 . S
C3111 C3106 1.418 . S
C3111 C3110 1.332 . S
C3111 H3169 0.929 . S
C3112 C3108 1.527 . S
C3112 H3170 0.959 . S
C3112 H3171 0.961 . S
C3112 H3172 0.961 . S
C3113 C3110 1.496 . S
C3113 H3173 0.960 . S
C3113 H3174 0.960 . S
C3113 H3175 0.961 . S
C3114 C3115 1.517 . S
C3114 H3177 0.961 . S
C3114 H3178 0.960 . S
C3114 H3179 0.959 . S
C3115 C3114 1.517 . S
C3115 O3163 1.468 . S
C3115 H3176 0.980 . S
C3116 C3117 1.349 . S
C3116 C3121 1.367 . S
C3116 O3163 1.408 . S
C3117 C3116 1.349 . S
C3117 C3118 1.407 . S
C3117 H3180 0.930 . S
C3118 C3117 1.407 . S
C3118 C3119 1.449 . S
C3118 C3122 1.535 . S
C3119 C3118 1.449 . S
C3119 C3120 1.384 . S
C3119 C3144 1.553 . S
C3120 C3119 1.384 . S
C3120 C3121 1.364 . S
C3120 C3123 1.450 . S
C3121 C3116 1.367 . S
C3121 C3120 1.364 . S
C3121 H3181 0.931 . S
C3122 C3118 1.535 . S
C3122 H3182 0.959 . S
C3122 H3183 0.961 . S
C3122 H3184 0.959 . S
C3123 C3120 1.450 . S
C3123 H3185 0.960 . S
C3123 H3186 0.960 . S
C3123 H3187 0.960 . S
C3124 C3125 1.309 . S
C3124 C3129 1.304 . S
C3124 O3162 1.435 . S
C3125 C3124 1.309 . S
C3125 C3126 1.476 . S
C3125 H3189 0.930 . S
C3126 C3125 1.476 . S
C3126 C3127 1.400 . S
C3126 C3130 1.567 . S
C3127 C3126 1.400 . S
C3127 C3128 1.373 . S
C3127 C3149 1.432 . S
C3128 C3127 1.373 . S
C3128 C3129 1.339 . S
C3128 C3131 1.530 . S
C3129 C3124 1.304 . S
C3129 C3128 1.339 . S
C3129 H3190 0.930 . S
C3130 C3126 1.567 . S
C3130 H3191 0.961 . S
C3130 H3192 0.960 . S
C3130 H3193 0.958 . S
C3131 C3128 1.530 . S
C3131 H3194 0.961 . S
C3131 H3195 0.960 . S
C3131 H3196 0.960 . S
C3132 C3133 1.530 . S
C3132 H3198 0.961 . S
C3132 H3199 0.961 . S
C3132 H3200 0.959 . S
C3133 C3132 1.530 . S
C3133 O3161 1.412 . S
C3133 H3197 0.980 . S
C3134 C3135 1.288 . S
C3134 C3139 1.377 . S
C3134 O3161 1.393 . S
C3135 C3134 1.288 . S
C3135 C3136 1.369 . S
C3135 H3201 0.932 . S
C3136 C3135 1.369 . S
C3136 C3137 1.398 . S
C3136 C3140 1.527 . S
C3137 C3136 1.398 . S
C3137 C3138 1.380 . S
C3137 C3151 1.497 . S
C3138 C3137 1.380 . S
C3138 C3139 1.383 . S
C3138 C3141 1.603 . S
C3139 C3134 1.377 . S
C3139 C3138 1.383 . S
C3139 H3202 0.929 . S
C3140 C3136 1.527 . S
C3140 H3203 0.961 . S
C3140 H3204 0.959 . S
C3140 H3205 0.959 . S
C3141 C3138 1.603 . S
C3141 H3206 0.960 . S
C3141 H3207 0.962 . S
C3141 H3208 0.961 . S
C3142 C3109 1.587 . S
C3142 C3143 1.360 . S
C3142 C3155 1.412 . S
C3143 C3142 1.360 . S
C3143 C3144 1.365 . S
C3143 H3209 0.929 . S
C3144 C3119 1.553 . S
C3144 C3143 1.365 . S
C3144 C3145 1.404 . S
C3145 C3144 1.404 . S
C3145 C3146 1.395 . S
C3145 C3156 1.451 . S
C3146 C3145 1.395 . S
C3146 C3147 1.322 . S
C3146 H3210 0.930 . S
C3147 C3146 1.322 . S
C3147 C3148 1.459 . S
C3147 H3211 0.929 . S
C3148 C3147 1.459 . S
C3148 C3149 1.445 . S
C3148 C3157 1.395 . S
C3149 C3127 1.432 . S
C3149 C3148 1.445 . S
C3149 C3150 1.370 . S
C3150 C3149 1.370 . S
C3150 C3151 1.438 . S
C3150 H3212 0.930 . S
C3151 C3137 1.497 . S
C3151 C3150 1.438 . S
C3151 C3152 1.360 . S
C3152 C3151 1.360 . S
C3152 C3153 1.401 . S
C3152 C3157 1.446 . S
C3153 C3152 1.401 . S
C3153 C3154 1.347 . S
C3153 H3213 0.929 . S
C3154 C3153 1.347 . S
C3154 C3155 1.455 . S
C3154 H3214 0.930 . S
C3155 C3142 1.412 . S
C3155 C3154 1.455 . S
C3155 C3156 1.331 . S
C3156 C3145 1.451 . S
C3156 C3155 1.331 . S
C3156 C3157 1.497 . S
C3157 C3148 1.395 . S
C3157 C3152 1.446 . S
C3157 C3156 1.497 . S
C3158 C3159 1.582 . S
C3158 H3215 0.962 . S
C3158 H3216 0.959 . S
C3158 H3217 0.958 . S
C3159 C3158 1.582 . S
C3159 O3162 1.458 . S
C3159 H3188 0.980 . S
O3160 C3105 1.426 . S
O3160 C3106 1.334 . S
O3161 C3133 1.412 . S
O3161 C3134 1.393 . S
O3162 C3124 1.435 . S
O3162 C3159 1.458 . S
O3163 C3115 1.468 . S
O3163 C3116 1.408 . S
H3164 C3105 0.980 . S
H3165 C3104 0.959 . S
H3166 C3104 0.959 . S
H3167 C3104 0.960 . S
H3168 C3107 0.929 . S
H3169 C3111 0.929 . S
H3170 C3112 0.959 . S
H3171 C3112 0.961 . S
H3172 C3112 0.961 . S
H3173 C3113 0.960 . S
H3174 C3113 0.960 . S
H3175 C3113 0.961 . S
H3176 C3115 0.980 . S
H3177 C3114 0.961 . S
H3178 C3114 0.960 . S
H3179 C3114 0.959 . S
H3180 C3117 0.930 . S
H3181 C3121 0.931 . S
H3182 C3122 0.959 . S
H3183 C3122 0.961 . S
H3184 C3122 0.959 . S
H3185 C3123 0.960 . S
H3186 C3123 0.960 . S
H3187 C3123 0.960 . S
H3188 C3159 0.980 . S
H3189 C3125 0.930 . S
H3190 C3129 0.930 . S
H3191 C3130 0.961 . S
H3192 C3130 0.960 . S
H3193 C3130 0.958 . S
H3194 C3131 0.961 . S
H3195 C3131 0.960 . S
H3196 C3131 0.960 . S
H3197 C3133 0.980 . S
H3198 C3132 0.961 . S
H3199 C3132 0.961 . S
H3200 C3132 0.959 . S
H3201 C3135 0.932 . S
H3202 C3139 0.929 . S
H3203 C3140 0.961 . S
H3204 C3140 0.959 . S
H3205 C3140 0.959 . S
H3206 C3141 0.960 . S
H3207 C3141 0.962 . S
H3208 C3141 0.961 . S
H3209 C3143 0.929 . S
H3210 C3146 0.930 . S
H3211 C3147 0.929 . S
H3212 C3150 0.930 . S
H3213 C3153 0.929 . S
H3214 C3154 0.930 . S
H3215 C3158 0.962 . S
H3216 C3158 0.959 . S
H3217 C3158 0.958 . S
C3218 C3219 1.560 . S
C3218 H3279 0.959 . S
C3218 H3280 0.959 . S
C3218 H3281 0.960 . S
C3219 C3218 1.560 . S
C3219 O3274 1.426 . S
C3219 H3278 0.980 . S
C3220 C3221 1.407 . S
C3220 C3225 1.418 . S
C3220 O3274 1.334 . S
C3221 C3220 1.407 . S
C3221 C3222 1.360 . S
C3221 H3282 0.929 . S
C3222 C3221 1.360 . S
C3222 C3223 1.401 . S
C3222 C3226 1.527 . S
C3223 C3222 1.401 . S
C3223 C3224 1.405 . S
C3223 C3256 1.587 . S
C3224 C3223 1.405 . S
C3224 C3225 1.332 . S
C3224 C3227 1.496 . S
C3225 C3220 1.418 . S
C3225 C3224 1.332 . S
C3225 H3283 0.929 . S
C3226 C3222 1.527 . S
C3226 H3284 0.959 . S
C3226 H3285 0.961 . S
C3226 H3286 0.961 . S
C3227 C3224 1.496 . S
C3227 H3287 0.960 . S
C3227 H3288 0.960 . S
C3227 H3289 0.961 . S
C3228 C3229 1.517 . S
C3228 H3291 0.961 . S
C3228 H3292 0.960 . S
C3228 H3293 0.959 . S
C3229 C3228 1.517 . S
C3229 O3277 1.468 . S
C3229 H3290 0.980 . S
C3230 C3231 1.349 . S
C3230 C3235 1.367 . S
C3230 O3277 1.408 . S
C3231 C3230 1.349 . S
C3231 C3232 1.407 . S
C3231 H3294 0.930 . S
C3232 C3231 1.407 . S
C3232 C3233 1.449 . S
C3232 C3236 1.535 . S
C3233 C3232 1.449 . S
C3233 C3234 1.384 . S
C3233 C3258 1.553 . S
C3234 C3233 1.384 . S
C3234 C3235 1.364 . S
C3234 C3237 1.450 . S
C3235 C3230 1.367 . S
C3235 C3234 1.364 . S
C3235 H3295 0.931 . S
C3236 C3232 1.535 . S
C3236 H3296 0.959 . S
C3236 H3297 0.961 . S
C3236 H3298 0.959 . S
C3237 C3234 1.450 . S
C3237 H3299 0.960 . S
C3237 H3300 0.960 . S
C3237 H3301 0.960 . S
C3238 C3239 1.309 . S
C3238 C3243 1.304 . S
C3238 O3276 1.435 . S
C3239 C3238 1.309 . S
C3239 C3240 1.476 . S
C3239 H3303 0.930 . S
C3240 C3239 1.476 . S
C3240 C3241 1.400 . S
C3240 C3244 1.567 . S
C3241 C3240 1.400 . S
C3241 C3242 1.373 . S
C3241 C3263 1.432 . S
C3242 C3241 1.373 . S
C3242 C3243 1.339 . S
C3242 C3245 1.530 . S
C3243 C3238 1.304 . S
C3243 C3242 1.339 . S
C3243 H3304 0.930 . S
C3244 C3240 1.567 . S
C3244 H3305 0.961 . S
C3244 H3306 0.960 . S
C3244 H3307 0.958 . S
C3245 C3242 1.530 . S
C3245 H3308 0.961 . S
C3245 H3309 0.960 . S
C3245 H3310 0.960 . S
C3246 C3247 1.530 . S
C3246 H3312 0.961 . S
C3246 H3313 0.961 . S
C3246 H3314 0.959 . S
C3247 C3246 1.530 . S
C3247 O3275 1.412 . S
C3247 H3311 0.980 . S
C3248 C3249 1.288 . S
C3248 C3253 1.377 . S
C3248 O3275 1.393 . S
C3249 C3248 1.288 . S
C3249 C3250 1.369 . S
C3249 H3315 0.932 . S
C3250 C3249 1.369 . S
C3250 C3251 1.398 . S
C3250 C3254 1.527 . S
C3251 C3250 1.398 . S
C3251 C3252 1.380 . S
C3251 C3265 1.497 . S
C3252 C3251 1.380 . S
C3252 C3253 1.383 . S
C3252 C3255 1.603 . S
C3253 C3248 1.377 . S
C3253 C3252 1.383 . S
C3253 H3316 0.929 . S
C3254 C3250 1.527 . S
C3254 H3317 0.961 . S
C3254 H3318 0.959 . S
C3254 H3319 0.959 . S
C3255 C3252 1.603 . S
C3255 H3320 0.960 . S
C3255 H3321 0.962 . S
C3255 H3322 0.961 . S
C3256 C3223 1.587 . S
C3256 C3257 1.360 . S
C3256 C3269 1.412 . S
C3257 C3256 1.360 . S
C3257 C3258 1.365 . S
C3257 H3323 0.929 . S
C3258 C3233 1.553 . S
C3258 C3257 1.365 . S
C3258 C3259 1.404 . S
C3259 C3258 1.404 . S
C3259 C3260 1.395 . S
C3259 C3270 1.451 . S
C3260 C3259 1.395 . S
C3260 C3261 1.322 . S
C3260 H3324 0.930 . S
C3261 C3260 1.322 . S
C3261 C3262 1.459 . S
C3261 H3325 0.929 . S
C3262 C3261 1.459 . S
C3262 C3263 1.445 . S
C3262 C3271 1.395 . S
C3263 C3241 1.432 . S
C3263 C3262 1.445 . S
C3263 C3264 1.370 . S
C3264 C3263 1.370 . S
C3264 C3265 1.438 . S
C3264 H3326 0.930 . S
C3265 C3251 1.497 . S
C3265 C3264 1.438 . S
C3265 C3266 1.360 . S
C3266 C3265 1.360 . S
C3266 C3267 1.401 . S
C3266 C3271 1.446 . S
C3267 C3266 1.401 . S
C3267 C3268 1.347 . S
C3267 H3327 0.929 . S
C3268 C3267 1.347 . S
C3268 C3269 1.455 . S
C3268 H3328 0.930 . S
C3269 C3256 1.412 . S
C3269 C3268 1.455 . S
C3269 C3270 1.331 . S
C3270 C3259 1.451 . S
C3270 C3269 1.331 . S
C3270 C3271 1.497 . S
C3271 C3262 1.395 . S
C3271 C3266 1.446 . S
C3271 C3270 1.497 . S
C3272 C3273 1.582 . S
C3272 H3329 0.962 . S
C3272 H3330 0.959 . S
C3272 H3331 0.958 . S
C3273 C3272 1.582 . S
C3273 O3276 1.458 . S
C3273 H3302 0.980 . S
O3274 C3219 1.426 . S
O3274 C3220 1.334 . S
O3275 C3247 1.412 . S
O3275 C3248 1.393 . S
O3276 C3238 1.435 . S
O3276 C3273 1.458 . S
O3277 C3229 1.468 . S
O3277 C3230 1.408 . S
H3278 C3219 0.980 . S
H3279 C3218 0.959 . S
H3280 C3218 0.959 . S
H3281 C3218 0.960 . S
H3282 C3221 0.929 . S
H3283 C3225 0.929 . S
H3284 C3226 0.959 . S
H3285 C3226 0.961 . S
H3286 C3226 0.961 . S
H3287 C3227 0.960 . S
H3288 C3227 0.960 . S
H3289 C3227 0.961 . S
H3290 C3229 0.980 . S
H3291 C3228 0.961 . S
H3292 C3228 0.960 . S
H3293 C3228 0.959 . S
H3294 C3231 0.930 . S
H3295 C3235 0.931 . S
H3296 C3236 0.959 . S
H3297 C3236 0.961 . S
H3298 C3236 0.959 . S
H3299 C3237 0.960 . S
H3300 C3237 0.960 . S
H3301 C3237 0.960 . S
H3302 C3273 0.980 . S
H3303 C3239 0.930 . S
H3304 C3243 0.930 . S
H3305 C3244 0.961 . S
H3306 C3244 0.960 . S
H3307 C3244 0.958 . S
H3308 C3245 0.961 . S
H3309 C3245 0.960 . S
H3310 C3245 0.960 . S
H3311 C3247 0.980 . S
H3312 C3246 0.961 . S
H3313 C3246 0.961 . S
H3314 C3246 0.959 . S
H3315 C3249 0.932 . S
H3316 C3253 0.929 . S
H3317 C3254 0.961 . S
H3318 C3254 0.959 . S
H3319 C3254 0.959 . S
H3320 C3255 0.960 . S
H3321 C3255 0.962 . S
H3322 C3255 0.961 . S
H3323 C3257 0.929 . S
H3324 C3260 0.930 . S
H3325 C3261 0.929 . S
H3326 C3264 0.930 . S
H3327 C3267 0.929 . S
H3328 C3268 0.930 . S
H3329 C3272 0.962 . S
H3330 C3272 0.959 . S
H3331 C3272 0.958 . S
C3332 C3333 1.560 . S
C3332 H3393 0.959 . S
C3332 H3394 0.959 . S
C3332 H3395 0.960 . S
C3333 C3332 1.560 . S
C3333 O3388 1.426 . S
C3333 H3392 0.980 . S
C3334 C3335 1.407 . S
C3334 C3339 1.418 . S
C3334 O3388 1.334 . S
C3335 C3334 1.407 . S
C3335 C3336 1.360 . S
C3335 H3396 0.929 . S
C3336 C3335 1.360 . S
C3336 C3337 1.401 . S
C3336 C3340 1.527 . S
C3337 C3336 1.401 . S
C3337 C3338 1.405 . S
C3337 C3370 1.587 . S
C3338 C3337 1.405 . S
C3338 C3339 1.332 . S
C3338 C3341 1.496 . S
C3339 C3334 1.418 . S
C3339 C3338 1.332 . S
C3339 H3397 0.929 . S
C3340 C3336 1.527 . S
C3340 H3398 0.959 . S
C3340 H3399 0.961 . S
C3340 H3400 0.961 . S
C3341 C3338 1.496 . S
C3341 H3401 0.960 . S
C3341 H3402 0.960 . S
C3341 H3403 0.961 . S
C3342 C3343 1.517 . S
C3342 H3405 0.961 . S
C3342 H3406 0.960 . S
C3342 H3407 0.959 . S
C3343 C3342 1.517 . S
C3343 O3391 1.468 . S
C3343 H3404 0.980 . S
C3344 C3345 1.349 . S
C3344 C3349 1.367 . S
C3344 O3391 1.408 . S
C3345 C3344 1.349 . S
C3345 C3346 1.407 . S
C3345 H3408 0.930 . S
C3346 C3345 1.407 . S
C3346 C3347 1.449 . S
C3346 C3350 1.535 . S
C3347 C3346 1.449 . S
C3347 C3348 1.384 . S
C3347 C3372 1.553 . S
C3348 C3347 1.384 . S
C3348 C3349 1.364 . S
C3348 C3351 1.450 . S
C3349 C3344 1.367 . S
C3349 C3348 1.364 . S
C3349 H3409 0.931 . S
C3350 C3346 1.535 . S
C3350 H3410 0.959 . S
C3350 H3411 0.961 . S
C3350 H3412 0.959 . S
C3351 C3348 1.450 . S
C3351 H3413 0.960 . S
C3351 H3414 0.960 . S
C3351 H3415 0.960 . S
C3352 C3353 1.309 . S
C3352 C3357 1.304 . S
C3352 O3390 1.435 . S
C3353 C3352 1.309 . S
C3353 C3354 1.476 . S
C3353 H3417 0.930 . S
C3354 C3353 1.476 . S
C3354 C3355 1.400 . S
C3354 C3358 1.567 . S
C3355 C3354 1.400 . S
C3355 C3356 1.373 . S
C3355 C3377 1.432 . S
C3356 C3355 1.373 . S
C3356 C3357 1.339 . S
C3356 C3359 1.530 . S
C3357 C3352 1.304 . S
C3357 C3356 1.339 . S
C3357 H3418 0.930 . S
C3358 C3354 1.567 . S
C3358 H3419 0.961 . S
C3358 H3420 0.960 . S
C3358 H3421 0.958 . S
C3359 C3356 1.530 . S
C3359 H3422 0.961 . S
C3359 H3423 0.960 . S
C3359 H3424 0.960 . S
C3360 C3361 1.530 . S
C3360 H3426 0.961 . S
C3360 H3427 0.961 . S
C3360 H3428 0.959 . S
C3361 C3360 1.530 . S
C3361 O3389 1.412 . S
C3361 H3425 0.980 . S
C3362 C3363 1.288 . S
C3362 C3367 1.377 . S
C3362 O3389 1.393 . S
C3363 C3362 1.288 . S
C3363 C3364 1.369 . S
C3363 H3429 0.932 . S
C3364 C3363 1.369 . S
C3364 C3365 1.398 . S
C3364 C3368 1.527 . S
C3365 C3364 1.398 . S
C3365 C3366 1.380 . S
C3365 C3379 1.497 . S
C3366 C3365 1.380 . S
C3366 C3367 1.383 . S
C3366 C3369 1.603 . S
C3367 C3362 1.377 . S
C3367 C3366 1.383 . S
C3367 H3430 0.929 . S
C3368 C3364 1.527 . S
C3368 H3431 0.961 . S
C3368 H3432 0.959 . S
C3368 H3433 0.959 . S
C3369 C3366 1.603 . S
C3369 H3434 0.960 . S
C3369 H3435 0.962 . S
C3369 H3436 0.961 . S
C3370 C3337 1.587 . S
C3370 C3371 1.360 . S
C3370 C3383 1.412 . S
C3371 C3370 1.360 . S
C3371 C3372 1.365 . S
C3371 H3437 0.929 . S
C3372 C3347 1.553 . S
C3372 C3371 1.365 . S
C3372 C3373 1.404 . S
C3373 C3372 1.404 . S
C3373 C3374 1.395 . S
C3373 C3384 1.451 . S
C3374 C3373 1.395 . S
C3374 C3375 1.322 . S
C3374 H3438 0.930 . S
C3375 C3374 1.322 . S
C3375 C3376 1.459 . S
C3375 H3439 0.929 . S
C3376 C3375 1.459 . S
C3376 C3377 1.445 . S
C3376 C3385 1.395 . S
C3377 C3355 1.432 . S
C3377 C3376 1.445 . S
C3377 C3378 1.370 . S
C3378 C3377 1.370 . S
C3378 C3379 1.438 . S
C3378 H3440 0.930 . S
C3379 C3365 1.497 . S
C3379 C3378 1.438 . S
C3379 C3380 1.360 . S
C3380 C3379 1.360 . S
C3380 C3381 1.401 . S
C3380 C3385 1.446 . S
C3381 C3380 1.401 . S
C3381 C3382 1.347 . S
C3381 H3441 0.929 . S
C3382 C3381 1.347 . S
C3382 C3383 1.455 . S
C3382 H3442 0.930 . S
C3383 C3370 1.412 . S
C3383 C3382 1.455 . S
C3383 C3384 1.331 . S
C3384 C3373 1.451 . S
C3384 C3383 1.331 . S
C3384 C3385 1.497 . S
C3385 C3376 1.395 . S
C3385 C3380 1.446 . S
C3385 C3384 1.497 . S
C3386 C3387 1.582 . S
C3386 H3443 0.962 . S
C3386 H3444 0.959 . S
C3386 H3445 0.958 . S
C3387 C3386 1.582 . S
C3387 O3390 1.458 . S
C3387 H3416 0.980 . S
O3388 C3333 1.426 . S
O3388 C3334 1.334 . S
O3389 C3361 1.412 . S
O3389 C3362 1.393 . S
O3390 C3352 1.435 . S
O3390 C3387 1.458 . S
O3391 C3343 1.468 . S
O3391 C3344 1.408 . S
H3392 C3333 0.980 . S
H3393 C3332 0.959 . S
H3394 C3332 0.959 . S
H3395 C3332 0.960 . S
H3396 C3335 0.929 . S
H3397 C3339 0.929 . S
H3398 C3340 0.959 . S
H3399 C3340 0.961 . S
H3400 C3340 0.961 . S
H3401 C3341 0.960 . S
H3402 C3341 0.960 . S
H3403 C3341 0.961 . S
H3404 C3343 0.980 . S
H3405 C3342 0.961 . S
H3406 C3342 0.960 . S
H3407 C3342 0.959 . S
H3408 C3345 0.930 . S
H3409 C3349 0.931 . S
H3410 C3350 0.959 . S
H3411 C3350 0.961 . S
H3412 C3350 0.959 . S
H3413 C3351 0.960 . S
H3414 C3351 0.960 . S
H3415 C3351 0.960 . S
H3416 C3387 0.980 . S
H3417 C3353 0.930 . S
H3418 C3357 0.930 . S
H3419 C3358 0.961 . S
H3420 C3358 0.960 . S
H3421 C3358 0.958 . S
H3422 C3359 0.961 . S
H3423 C3359 0.960 . S
H3424 C3359 0.960 . S
H3425 C3361 0.980 . S
H3426 C3360 0.961 . S
H3427 C3360 0.961 . S
H3428 C3360 0.959 . S
H3429 C3363 0.932 . S
H3430 C3367 0.929 . S
H3431 C3368 0.961 . S
H3432 C3368 0.959 . S
H3433 C3368 0.959 . S
H3434 C3369 0.960 . S
H3435 C3369 0.962 . S
H3436 C3369 0.961 . S
H3437 C3371 0.929 . S
H3438 C3374 0.930 . S
H3439 C3375 0.929 . S
H3440 C3378 0.930 . S
H3441 C3381 0.929 . S
H3442 C3382 0.930 . S
H3443 C3386 0.962 . S
H3444 C3386 0.959 . S
H3445 C3386 0.958 . S
C3446 C3447 1.560 . S
C3446 H3507 0.959 . S
C3446 H3508 0.959 . S
C3446 H3509 0.960 . S
C3447 C3446 1.560 . S
C3447 O3502 1.426 . S
C3447 H3506 0.980 . S
C3448 C3449 1.407 . S
C3448 C3453 1.418 . S
C3448 O3502 1.334 . S
C3449 C3448 1.407 . S
C3449 C3450 1.360 . S
C3449 H3510 0.929 . S
C3450 C3449 1.360 . S
C3450 C3451 1.401 . S
C3450 C3454 1.527 . S
C3451 C3450 1.401 . S
C3451 C3452 1.405 . S
C3451 C3484 1.587 . S
C3452 C3451 1.405 . S
C3452 C3453 1.332 . S
C3452 C3455 1.496 . S
C3453 C3448 1.418 . S
C3453 C3452 1.332 . S
C3453 H3511 0.929 . S
C3454 C3450 1.527 . S
C3454 H3512 0.959 . S
C3454 H3513 0.961 . S
C3454 H3514 0.961 . S
C3455 C3452 1.496 . S
C3455 H3515 0.960 . S
C3455 H3516 0.960 . S
C3455 H3517 0.961 . S
C3456 C3457 1.517 . S
C3456 H3519 0.961 . S
C3456 H3520 0.960 . S
C3456 H3521 0.959 . S
C3457 C3456 1.517 . S
C3457 O3505 1.468 . S
C3457 H3518 0.980 . S
C3458 C3459 1.349 . S
C3458 C3463 1.367 . S
C3458 O3505 1.408 . S
C3459 C3458 1.349 . S
C3459 C3460 1.407 . S
C3459 H3522 0.930 . S
C3460 C3459 1.407 . S
C3460 C3461 1.449 . S
C3460 C3464 1.535 . S
C3461 C3460 1.449 . S
C3461 C3462 1.384 . S
C3461 C3486 1.553 . S
C3462 C3461 1.384 . S
C3462 C3463 1.364 . S
C3462 C3465 1.450 . S
C3463 C3458 1.367 . S
C3463 C3462 1.364 . S
C3463 H3523 0.931 . S
C3464 C3460 1.535 . S
C3464 H3524 0.959 . S
C3464 H3525 0.961 . S
C3464 H3526 0.959 . S
C3465 C3462 1.450 . S
C3465 H3527 0.960 . S
C3465 H3528 0.960 . S
C3465 H3529 0.960 . S
C3466 C3467 1.309 . S
C3466 C3471 1.304 . S
C3466 O3504 1.435 . S
C3467 C3466 1.309 . S
C3467 C3468 1.476 . S
C3467 H3531 0.930 . S
C3468 C3467 1.476 . S
C3468 C3469 1.400 . S
C3468 C3472 1.567 . S
C3469 C3468 1.400 . S
C3469 C3470 1.373 . S
C3469 C3491 1.432 . S
C3470 C3469 1.373 . S
C3470 C3471 1.339 . S
C3470 C3473 1.530 . S
C3471 C3466 1.304 . S
C3471 C3470 1.339 . S
C3471 H3532 0.930 . S
C3472 C3468 1.567 . S
C3472 H3533 0.961 . S
C3472 H3534 0.960 . S
C3472 H3535 0.958 . S
C3473 C3470 1.530 . S
C3473 H3536 0.961 . S
C3473 H3537 0.960 . S
C3473 H3538 0.960 . S
C3474 C3475 1.530 . S
C3474 H3540 0.961 . S
C3474 H3541 0.961 . S
C3474 H3542 0.959 . S
C3475 C3474 1.530 . S
C3475 O3503 1.412 . S
C3475 H3539 0.980 . S
C3476 C3477 1.288 . S
C3476 C3481 1.377 . S
C3476 O3503 1.393 . S
C3477 C3476 1.288 . S
C3477 C3478 1.369 . S
C3477 H3543 0.932 . S
C3478 C3477 1.369 . S
C3478 C3479 1.398 . S
C3478 C3482 1.527 . S
C3479 C3478 1.398 . S
C3479 C3480 1.380 . S
C3479 C3493 1.497 . S
C3480 C3479 1.380 . S
C3480 C3481 1.383 . S
C3480 C3483 1.603 . S
C3481 C3476 1.377 . S
C3481 C3480 1.383 . S
C3481 H3544 0.929 . S
C3482 C3478 1.527 . S
C3482 H3545 0.961 . S
C3482 H3546 0.959 . S
C3482 H3547 0.959 . S
C3483 C3480 1.603 . S
C3483 H3548 0.960 . S
C3483 H3549 0.962 . S
C3483 H3550 0.961 . S
C3484 C3451 1.587 . S
C3484 C3485 1.360 . S
C3484 C3497 1.412 . S
C3485 C3484 1.360 . S
C3485 C3486 1.365 . S
C3485 H3551 0.929 . S
C3486 C3461 1.553 . S
C3486 C3485 1.365 . S
C3486 C3487 1.404 . S
C3487 C3486 1.404 . S
C3487 C3488 1.395 . S
C3487 C3498 1.451 . S
C3488 C3487 1.395 . S
C3488 C3489 1.322 . S
C3488 H3552 0.930 . S
C3489 C3488 1.322 . S
C3489 C3490 1.459 . S
C3489 H3553 0.929 . S
C3490 C3489 1.459 . S
C3490 C3491 1.445 . S
C3490 C3499 1.395 . S
C3491 C3469 1.432 . S
C3491 C3490 1.445 . S
C3491 C3492 1.370 . S
C3492 C3491 1.370 . S
C3492 C3493 1.438 . S
C3492 H3554 0.930 . S
C3493 C3479 1.497 . S
C3493 C3492 1.438 . S
C3493 C3494 1.360 . S
C3494 C3493 1.360 . S
C3494 C3495 1.401 . S
C3494 C3499 1.446 . S
C3495 C3494 1.401 . S
C3495 C3496 1.347 . S
C3495 H3555 0.929 . S
C3496 C3495 1.347 . S
C3496 C3497 1.455 . S
C3496 H3556 0.930 . S
C3497 C3484 1.412 . S
C3497 C3496 1.455 . S
C3497 C3498 1.331 . S
C3498 C3487 1.451 . S
C3498 C3497 1.331 . S
C3498 C3499 1.497 . S
C3499 C3490 1.395 . S
C3499 C3494 1.446 . S
C3499 C3498 1.497 . S
C3500 C3501 1.582 . S
C3500 H3557 0.962 . S
C3500 H3558 0.959 . S
C3500 H3559 0.958 . S
C3501 C3500 1.582 . S
C3501 O3504 1.458 . S
C3501 H3530 0.980 . S
O3502 C3447 1.426 . S
O3502 C3448 1.334 . S
O3503 C3475 1.412 . S
O3503 C3476 1.393 . S
O3504 C3466 1.435 . S
O3504 C3501 1.458 . S
O3505 C3457 1.468 . S
O3505 C3458 1.408 . S
H3506 C3447 0.980 . S
H3507 C3446 0.959 . S
H3508 C3446 0.959 . S
H3509 C3446 0.960 . S
H3510 C3449 0.929 . S
H3511 C3453 0.929 . S
H3512 C3454 0.959 . S
H3513 C3454 0.961 . S
H3514 C3454 0.961 . S
H3515 C3455 0.960 . S
H3516 C3455 0.960 . S
H3517 C3455 0.961 . S
H3518 C3457 0.980 . S
H3519 C3456 0.961 . S
H3520 C3456 0.960 . S
H3521 C3456 0.959 . S
H3522 C3459 0.930 . S
H3523 C3463 0.931 . S
H3524 C3464 0.959 . S
H3525 C3464 0.961 . S
H3526 C3464 0.959 . S
H3527 C3465 0.960 . S
H3528 C3465 0.960 . S
H3529 C3465 0.960 . S
H3530 C3501 0.980 . S
H3531 C3467 0.930 . S
H3532 C3471 0.930 . S
H3533 C3472 0.961 . S
H3534 C3472 0.960 . S
H3535 C3472 0.958 . S
H3536 C3473 0.961 . S
H3537 C3473 0.960 . S
H3538 C3473 0.960 . S
H3539 C3475 0.980 . S
H3540 C3474 0.961 . S
H3541 C3474 0.961 . S
H3542 C3474 0.959 . S
H3543 C3477 0.932 . S
H3544 C3481 0.929 . S
H3545 C3482 0.961 . S
H3546 C3482 0.959 . S
H3547 C3482 0.959 . S
H3548 C3483 0.960 . S
H3549 C3483 0.962 . S
H3550 C3483 0.961 . S
H3551 C3485 0.929 . S
H3552 C3488 0.930 . S
H3553 C3489 0.929 . S
H3554 C3492 0.930 . S
H3555 C3495 0.929 . S
H3556 C3496 0.930 . S
H3557 C3500 0.962 . S
H3558 C3500 0.959 . S
H3559 C3500 0.958 . S
C3560 C3561 1.560 . S
C3560 H3621 0.959 . S
C3560 H3622 0.959 . S
C3560 H3623 0.960 . S
C3561 C3560 1.560 . S
C3561 O3616 1.426 . S
C3561 H3620 0.980 . S
C3562 C3563 1.407 . S
C3562 C3567 1.418 . S
C3562 O3616 1.334 . S
C3563 C3562 1.407 . S
C3563 C3564 1.360 . S
C3563 H3624 0.929 . S
C3564 C3563 1.360 . S
C3564 C3565 1.401 . S
C3564 C3568 1.527 . S
C3565 C3564 1.401 . S
C3565 C3566 1.405 . S
C3565 C3598 1.587 . S
C3566 C3565 1.405 . S
C3566 C3567 1.332 . S
C3566 C3569 1.496 . S
C3567 C3562 1.418 . S
C3567 C3566 1.332 . S
C3567 H3625 0.929 . S
C3568 C3564 1.527 . S
C3568 H3626 0.959 . S
C3568 H3627 0.961 . S
C3568 H3628 0.961 . S
C3569 C3566 1.496 . S
C3569 H3629 0.960 . S
C3569 H3630 0.960 . S
C3569 H3631 0.961 . S
C3570 C3571 1.517 . S
C3570 H3633 0.961 . S
C3570 H3634 0.960 . S
C3570 H3635 0.959 . S
C3571 C3570 1.517 . S
C3571 O3619 1.468 . S
C3571 H3632 0.980 . S
C3572 C3573 1.349 . S
C3572 C3577 1.367 . S
C3572 O3619 1.408 . S
C3573 C3572 1.349 . S
C3573 C3574 1.407 . S
C3573 H3636 0.930 . S
C3574 C3573 1.407 . S
C3574 C3575 1.449 . S
C3574 C3578 1.535 . S
C3575 C3574 1.449 . S
C3575 C3576 1.384 . S
C3575 C3600 1.553 . S
C3576 C3575 1.384 . S
C3576 C3577 1.364 . S
C3576 C3579 1.450 . S
C3577 C3572 1.367 . S
C3577 C3576 1.364 . S
C3577 H3637 0.931 . S
C3578 C3574 1.535 . S
C3578 H3638 0.959 . S
C3578 H3639 0.961 . S
C3578 H3640 0.959 . S
C3579 C3576 1.450 . S
C3579 H3641 0.960 . S
C3579 H3642 0.960 . S
C3579 H3643 0.960 . S
C3580 C3581 1.309 . S
C3580 C3585 1.304 . S
C3580 O3618 1.435 . S
C3581 C3580 1.309 . S
C3581 C3582 1.476 . S
C3581 H3645 0.930 . S
C3582 C3581 1.476 . S
C3582 C3583 1.400 . S
C3582 C3586 1.567 . S
C3583 C3582 1.400 . S
C3583 C3584 1.373 . S
C3583 C3605 1.432 . S
C3584 C3583 1.373 . S
C3584 C3585 1.339 . S
C3584 C3587 1.530 . S
C3585 C3580 1.304 . S
C3585 C3584 1.339 . S
C3585 H3646 0.930 . S
C3586 C3582 1.567 . S
C3586 H3647 0.961 . S
C3586 H3648 0.960 . S
C3586 H3649 0.958 . S
C3587 C3584 1.530 . S
C3587 H3650 0.961 . S
C3587 H3651 0.960 . S
C3587 H3652 0.960 . S
C3588 C3589 1.530 . S
C3588 H3654 0.961 . S
C3588 H3655 0.961 . S
C3588 H3656 0.959 . S
C3589 C3588 1.530 . S
C3589 O3617 1.412 . S
C3589 H3653 0.980 . S
C3590 C3591 1.288 . S
C3590 C3595 1.377 . S
C3590 O3617 1.393 . S
C3591 C3590 1.288 . S
C3591 C3592 1.369 . S
C3591 H3657 0.932 . S
C3592 C3591 1.369 . S
C3592 C3593 1.398 . S
C3592 C3596 1.527 . S
C3593 C3592 1.398 . S
C3593 C3594 1.380 . S
C3593 C3607 1.497 . S
C3594 C3593 1.380 . S
C3594 C3595 1.383 . S
C3594 C3597 1.603 . S
C3595 C3590 1.377 . S
C3595 C3594 1.383 . S
C3595 H3658 0.929 . S
C3596 C3592 1.527 . S
C3596 H3659 0.961 . S
C3596 H3660 0.959 . S
C3596 H3661 0.959 . S
C3597 C3594 1.603 . S
C3597 H3662 0.960 . S
C3597 H3663 0.962 . S
C3597 H3664 0.961 . S
C3598 C3565 1.587 . S
C3598 C3599 1.360 . S
C3598 C3611 1.412 . S
C3599 C3598 1.360 . S
C3599 C3600 1.365 . S
C3599 H3665 0.929 . S
C3600 C3575 1.553 . S
C3600 C3599 1.365 . S
C3600 C3601 1.404 . S
C3601 C3600 1.404 . S
C3601 C3602 1.395 . S
C3601 C3612 1.451 . S
C3602 C3601 1.395 . S
C3602 C3603 1.322 . S
C3602 H3666 0.930 . S
C3603 C3602 1.322 . S
C3603 C3604 1.459 . S
C3603 H3667 0.929 . S
C3604 C3603 1.459 . S
C3604 C3605 1.445 . S
C3604 C3613 1.395 . S
C3605 C3583 1.432 . S
C3605 C3604 1.445 . S
C3605 C3606 1.370 . S
C3606 C3605 1.370 . S
C3606 C3607 1.438 . S
C3606 H3668 0.930 . S
C3607 C3593 1.497 . S
C3607 C3606 1.438 . S
C3607 C3608 1.360 . S
C3608 C3607 1.360 . S
C3608 C3609 1.401 . S
C3608 C3613 1.446 . S
C3609 C3608 1.401 . S
C3609 C3610 1.347 . S
C3609 H3669 0.929 . S
C3610 C3609 1.347 . S
C3610 C3611 1.455 . S
C3610 H3670 0.930 . S
C3611 C3598 1.412 . S
C3611 C3610 1.455 . S
C3611 C3612 1.331 . S
C3612 C3601 1.451 . S
C3612 C3611 1.331 . S
C3612 C3613 1.497 . S
C3613 C3604 1.395 . S
C3613 C3608 1.446 . S
C3613 C3612 1.497 . S
C3614 C3615 1.582 . S
C3614 H3671 0.962 . S
C3614 H3672 0.959 . S
C3614 H3673 0.958 . S
C3615 C3614 1.582 . S
C3615 O3618 1.458 . S
C3615 H3644 0.980 . S
O3616 C3561 1.426 . S
O3616 C3562 1.334 . S
O3617 C3589 1.412 . S
O3617 C3590 1.393 . S
O3618 C3580 1.435 . S
O3618 C3615 1.458 . S
O3619 C3571 1.468 . S
O3619 C3572 1.408 . S
H3620 C3561 0.980 . S
H3621 C3560 0.959 . S
H3622 C3560 0.959 . S
H3623 C3560 0.960 . S
H3624 C3563 0.929 . S
H3625 C3567 0.929 . S
H3626 C3568 0.959 . S
H3627 C3568 0.961 . S
H3628 C3568 0.961 . S
H3629 C3569 0.960 . S
H3630 C3569 0.960 . S
H3631 C3569 0.961 . S
H3632 C3571 0.980 . S
H3633 C3570 0.961 . S
H3634 C3570 0.960 . S
H3635 C3570 0.959 . S
H3636 C3573 0.930 . S
H3637 C3577 0.931 . S
H3638 C3578 0.959 . S
H3639 C3578 0.961 . S
H3640 C3578 0.959 . S
H3641 C3579 0.960 . S
H3642 C3579 0.960 . S
H3643 C3579 0.960 . S
H3644 C3615 0.980 . S
H3645 C3581 0.930 . S
H3646 C3585 0.930 . S
H3647 C3586 0.961 . S
H3648 C3586 0.960 . S
H3649 C3586 0.958 . S
H3650 C3587 0.961 . S
H3651 C3587 0.960 . S
H3652 C3587 0.960 . S
H3653 C3589 0.980 . S
H3654 C3588 0.961 . S
H3655 C3588 0.961 . S
H3656 C3588 0.959 . S
H3657 C3591 0.932 . S
H3658 C3595 0.929 . S
H3659 C3596 0.961 . S
H3660 C3596 0.959 . S
H3661 C3596 0.959 . S
H3662 C3597 0.960 . S
H3663 C3597 0.962 . S
H3664 C3597 0.961 . S
H3665 C3599 0.929 . S
H3666 C3602 0.930 . S
H3667 C3603 0.929 . S
H3668 C3606 0.930 . S
H3669 C3609 0.929 . S
H3670 C3610 0.930 . S
H3671 C3614 0.962 . S
H3672 C3614 0.959 . S
H3673 C3614 0.958 . S
C3674 C3675 1.560 . S
C3674 H3735 0.959 . S
C3674 H3736 0.959 . S
C3674 H3737 0.960 . S
C3675 C3674 1.560 . S
C3675 O3730 1.426 . S
C3675 H3734 0.980 . S
C3676 C3677 1.407 . S
C3676 C3681 1.418 . S
C3676 O3730 1.334 . S
C3677 C3676 1.407 . S
C3677 C3678 1.360 . S
C3677 H3738 0.929 . S
C3678 C3677 1.360 . S
C3678 C3679 1.401 . S
C3678 C3682 1.527 . S
C3679 C3678 1.401 . S
C3679 C3680 1.405 . S
C3679 C3712 1.587 . S
C3680 C3679 1.405 . S
C3680 C3681 1.332 . S
C3680 C3683 1.496 . S
C3681 C3676 1.418 . S
C3681 C3680 1.332 . S
C3681 H3739 0.929 . S
C3682 C3678 1.527 . S
C3682 H3740 0.959 . S
C3682 H3741 0.961 . S
C3682 H3742 0.961 . S
C3683 C3680 1.496 . S
C3683 H3743 0.960 . S
C3683 H3744 0.960 . S
C3683 H3745 0.961 . S
C3684 C3685 1.517 . S
C3684 H3747 0.961 . S
C3684 H3748 0.960 . S
C3684 H3749 0.959 . S
C3685 C3684 1.517 . S
C3685 O3733 1.468 . S
C3685 H3746 0.980 . S
C3686 C3687 1.349 . S
C3686 C3691 1.367 . S
C3686 O3733 1.408 . S
C3687 C3686 1.349 . S
C3687 C3688 1.407 . S
C3687 H3750 0.930 . S
C3688 C3687 1.407 . S
C3688 C3689 1.449 . S
C3688 C3692 1.535 . S
C3689 C3688 1.449 . S
C3689 C3690 1.384 . S
C3689 C3714 1.553 . S
C3690 C3689 1.384 . S
C3690 C3691 1.364 . S
C3690 C3693 1.450 . S
C3691 C3686 1.367 . S
C3691 C3690 1.364 . S
C3691 H3751 0.931 . S
C3692 C3688 1.535 . S
C3692 H3752 0.959 . S
C3692 H3753 0.961 . S
C3692 H3754 0.959 . S
C3693 C3690 1.450 . S
C3693 H3755 0.960 . S
C3693 H3756 0.960 . S
C3693 H3757 0.960 . S
C3694 C3695 1.309 . S
C3694 C3699 1.304 . S
C3694 O3732 1.435 . S
C3695 C3694 1.309 . S
C3695 C3696 1.476 . S
C3695 H3759 0.930 . S
C3696 C3695 1.476 . S
C3696 C3697 1.400 . S
C3696 C3700 1.567 . S
C3697 C3696 1.400 . S
C3697 C3698 1.373 . S
C3697 C3719 1.432 . S
C3698 C3697 1.373 . S
C3698 C3699 1.339 . S
C3698 C3701 1.530 . S
C3699 C3694 1.304 . S
C3699 C3698 1.339 . S
C3699 H3760 0.930 . S
C3700 C3696 1.567 . S
C3700 H3761 0.961 . S
C3700 H3762 0.960 . S
C3700 H3763 0.958 . S
C3701 C3698 1.530 . S
C3701 H3764 0.961 . S
C3701 H3765 0.960 . S
C3701 H3766 0.960 . S
C3702 C3703 1.530 . S
C3702 H3768 0.961 . S
C3702 H3769 0.961 . S
C3702 H3770 0.959 . S
C3703 C3702 1.530 . S
C3703 O3731 1.412 . S
C3703 H3767 0.980 . S
C3704 C3705 1.288 . S
C3704 C3709 1.377 . S
C3704 O3731 1.393 . S
C3705 C3704 1.288 . S
C3705 C3706 1.369 . S
C3705 H3771 0.932 . S
C3706 C3705 1.369 . S
C3706 C3707 1.398 . S
C3706 C3710 1.527 . S
C3707 C3706 1.398 . S
C3707 C3708 1.380 . S
C3707 C3721 1.497 . S
C3708 C3707 1.380 . S
C3708 C3709 1.383 . S
C3708 C3711 1.603 . S
C3709 C3704 1.377 . S
C3709 C3708 1.383 . S
C3709 H3772 0.929 . S
C3710 C3706 1.527 . S
C3710 H3773 0.961 . S
C3710 H3774 0.959 . S
C3710 H3775 0.959 . S
C3711 C3708 1.603 . S
C3711 H3776 0.960 . S
C3711 H3777 0.962 . S
C3711 H3778 0.961 . S
C3712 C3679 1.587 . S
C3712 C3713 1.360 . S
C3712 C3725 1.412 . S
C3713 C3712 1.360 . S
C3713 C3714 1.365 . S
C3713 H3779 0.929 . S
C3714 C3689 1.553 . S
C3714 C3713 1.365 . S
C3714 C3715 1.404 . S
C3715 C3714 1.404 . S
C3715 C3716 1.395 . S
C3715 C3726 1.451 . S
C3716 C3715 1.395 . S
C3716 C3717 1.322 . S
C3716 H3780 0.930 . S
C3717 C3716 1.322 . S
C3717 C3718 1.459 . S
C3717 H3781 0.929 . S
C3718 C3717 1.459 . S
C3718 C3719 1.445 . S
C3718 C3727 1.395 . S
C3719 C3697 1.432 . S
C3719 C3718 1.445 . S
C3719 C3720 1.370 . S
C3720 C3719 1.370 . S
C3720 C3721 1.438 . S
C3720 H3782 0.930 . S
C3721 C3707 1.497 . S
C3721 C3720 1.438 . S
C3721 C3722 1.360 . S
C3722 C3721 1.360 . S
C3722 C3723 1.401 . S
C3722 C3727 1.446 . S
C3723 C3722 1.401 . S
C3723 C3724 1.347 . S
C3723 H3783 0.929 . S
C3724 C3723 1.347 . S
C3724 C3725 1.455 . S
C3724 H3784 0.930 . S
C3725 C3712 1.412 . S
C3725 C3724 1.455 . S
C3725 C3726 1.331 . S
C3726 C3715 1.451 . S
C3726 C3725 1.331 . S
C3726 C3727 1.497 . S
C3727 C3718 1.395 . S
C3727 C3722 1.446 . S
C3727 C3726 1.497 . S
C3728 C3729 1.582 . S
C3728 H3785 0.962 . S
C3728 H3786 0.959 . S
C3728 H3787 0.958 . S
C3729 C3728 1.582 . S
C3729 O3732 1.458 . S
C3729 H3758 0.980 . S
O3730 C3675 1.426 . S
O3730 C3676 1.334 . S
O3731 C3703 1.412 . S
O3731 C3704 1.393 . S
O3732 C3694 1.435 . S
O3732 C3729 1.458 . S
O3733 C3685 1.468 . S
O3733 C3686 1.408 . S
H3734 C3675 0.980 . S
H3735 C3674 0.959 . S
H3736 C3674 0.959 . S
H3737 C3674 0.960 . S
H3738 C3677 0.929 . S
H3739 C3681 0.929 . S
H3740 C3682 0.959 . S
H3741 C3682 0.961 . S
H3742 C3682 0.961 . S
H3743 C3683 0.960 . S
H3744 C3683 0.960 . S
H3745 C3683 0.961 . S
H3746 C3685 0.980 . S
H3747 C3684 0.961 . S
H3748 C3684 0.960 . S
H3749 C3684 0.959 . S
H3750 C3687 0.930 . S
H3751 C3691 0.931 . S
H3752 C3692 0.959 . S
H3753 C3692 0.961 . S
H3754 C3692 0.959 . S
H3755 C3693 0.960 . S
H3756 C3693 0.960 . S
H3757 C3693 0.960 . S
H3758 C3729 0.980 . S
H3759 C3695 0.930 . S
H3760 C3699 0.930 . S
H3761 C3700 0.961 . S
H3762 C3700 0.960 . S
H3763 C3700 0.958 . S
H3764 C3701 0.961 . S
H3765 C3701 0.960 . S
H3766 C3701 0.960 . S
H3767 C3703 0.980 . S
H3768 C3702 0.961 . S
H3769 C3702 0.961 . S
H3770 C3702 0.959 . S
H3771 C3705 0.932 . S
H3772 C3709 0.929 . S
H3773 C3710 0.961 . S
H3774 C3710 0.959 . S
H3775 C3710 0.959 . S
H3776 C3711 0.960 . S
H3777 C3711 0.962 . S
H3778 C3711 0.961 . S
H3779 C3713 0.929 . S
H3780 C3716 0.930 . S
H3781 C3717 0.929 . S
H3782 C3720 0.930 . S
H3783 C3723 0.929 . S
H3784 C3724 0.930 . S
H3785 C3728 0.962 . S
H3786 C3728 0.959 . S
H3787 C3728 0.958 . S
C3788 C3789 1.560 . S
C3788 H3849 0.959 . S
C3788 H3850 0.959 . S
C3788 H3851 0.960 . S
C3789 C3788 1.560 . S
C3789 O3844 1.426 . S
C3789 H3848 0.980 . S
C3790 C3791 1.407 . S
C3790 C3795 1.418 . S
C3790 O3844 1.334 . S
C3791 C3790 1.407 . S
C3791 C3792 1.360 . S
C3791 H3852 0.929 . S
C3792 C3791 1.360 . S
C3792 C3793 1.401 . S
C3792 C3796 1.527 . S
C3793 C3792 1.401 . S
C3793 C3794 1.405 . S
C3793 C3826 1.587 . S
C3794 C3793 1.405 . S
C3794 C3795 1.332 . S
C3794 C3797 1.496 . S
C3795 C3790 1.418 . S
C3795 C3794 1.332 . S
C3795 H3853 0.929 . S
C3796 C3792 1.527 . S
C3796 H3854 0.959 . S
C3796 H3855 0.961 . S
C3796 H3856 0.961 . S
C3797 C3794 1.496 . S
C3797 H3857 0.960 . S
C3797 H3858 0.960 . S
C3797 H3859 0.961 . S
C3798 C3799 1.517 . S
C3798 H3861 0.961 . S
C3798 H3862 0.960 . S
C3798 H3863 0.959 . S
C3799 C3798 1.517 . S
C3799 O3847 1.468 . S
C3799 H3860 0.980 . S
C3800 C3801 1.349 . S
C3800 C3805 1.367 . S
C3800 O3847 1.408 . S
C3801 C3800 1.349 . S
C3801 C3802 1.407 . S
C3801 H3864 0.930 . S
C3802 C3801 1.407 . S
C3802 C3803 1.449 . S
C3802 C3806 1.535 . S
C3803 C3802 1.449 . S
C3803 C3804 1.384 . S
C3803 C3828 1.553 . S
C3804 C3803 1.384 . S
C3804 C3805 1.364 . S
C3804 C3807 1.450 . S
C3805 C3800 1.367 . S
C3805 C3804 1.364 . S
C3805 H3865 0.931 . S
C3806 C3802 1.535 . S
C3806 H3866 0.959 . S
C3806 H3867 0.961 . S
C3806 H3868 0.959 . S
C3807 C3804 1.450 . S
C3807 H3869 0.960 . S
C3807 H3870 0.960 . S
C3807 H3871 0.960 . S
C3808 C3809 1.309 . S
C3808 C3813 1.304 . S
C3808 O3846 1.435 . S
C3809 C3808 1.309 . S
C3809 C3810 1.476 . S
C3809 H3873 0.930 . S
C3810 C3809 1.476 . S
C3810 C3811 1.400 . S
C3810 C3814 1.567 . S
C3811 C3810 1.400 . S
C3811 C3812 1.373 . S
C3811 C3833 1.432 . S
C3812 C3811 1.373 . S
C3812 C3813 1.339 . S
C3812 C3815 1.530 . S
C3813 C3808 1.304 . S
C3813 C3812 1.339 . S
C3813 H3874 0.930 . S
C3814 C3810 1.567 . S
C3814 H3875 0.961 . S
C3814 H3876 0.960 . S
C3814 H3877 0.958 . S
C3815 C3812 1.530 . S
C3815 H3878 0.961 . S
C3815 H3879 0.960 . S
C3815 H3880 0.960 . S
C3816 C3817 1.530 . S
C3816 H3882 0.961 . S
C3816 H3883 0.961 . S
C3816 H3884 0.959 . S
C3817 C3816 1.530 . S
C3817 O3845 1.412 . S
C3817 H3881 0.980 . S
C3818 C3819 1.288 . S
C3818 C3823 1.377 . S
C3818 O3845 1.393 . S
C3819 C3818 1.288 . S
C3819 C3820 1.369 . S
C3819 H3885 0.932 . S
C3820 C3819 1.369 . S
C3820 C3821 1.398 . S
C3820 C3824 1.527 . S
C3821 C3820 1.398 . S
C3821 C3822 1.380 . S
C3821 C3835 1.497 . S
C3822 C3821 1.380 . S
C3822 C3823 1.383 . S
C3822 C3825 1.603 . S
C3823 C3818 1.377 . S
C3823 C3822 1.383 . S
C3823 H3886 0.929 . S
C3824 C3820 1.527 . S
C3824 H3887 0.961 . S
C3824 H3888 0.959 . S
C3824 H3889 0.959 . S
C3825 C3822 1.603 . S
C3825 H3890 0.960 . S
C3825 H3891 0.962 . S
C3825 H3892 0.961 . S
C3826 C3793 1.587 . S
C3826 C3827 1.360 . S
C3826 C3839 1.412 . S
C3827 C3826 1.360 . S
C3827 C3828 1.365 . S
C3827 H3893 0.929 . S
C3828 C3803 1.553 . S
C3828 C3827 1.365 . S
C3828 C3829 1.404 . S
C3829 C3828 1.404 . S
C3829 C3830 1.395 . S
C3829 C3840 1.451 . S
C3830 C3829 1.395 . S
C3830 C3831 1.322 . S
C3830 H3894 0.930 . S
C3831 C3830 1.322 . S
C3831 C3832 1.459 . S
C3831 H3895 0.929 . S
C3832 C3831 1.459 . S
C3832 C3833 1.445 . S
C3832 C3841 1.395 . S
C3833 C3811 1.432 . S
C3833 C3832 1.445 . S
C3833 C3834 1.370 . S
C3834 C3833 1.370 . S
C3834 C3835 1.438 . S
C3834 H3896 0.930 . S
C3835 C3821 1.497 . S
C3835 C3834 1.438 . S
C3835 C3836 1.360 . S
C3836 C3835 1.360 . S
C3836 C3837 1.401 . S
C3836 C3841 1.446 . S
C3837 C3836 1.401 . S
C3837 C3838 1.347 . S
C3837 H3897 0.929 . S
C3838 C3837 1.347 . S
C3838 C3839 1.455 . S
C3838 H3898 0.930 . S
C3839 C3826 1.412 . S
C3839 C3838 1.455 . S
C3839 C3840 1.331 . S
C3840 C3829 1.451 . S
C3840 C3839 1.331 . S
C3840 C3841 1.497 . S
C3841 C3832 1.395 . S
C3841 C3836 1.446 . S
C3841 C3840 1.497 . S
C3842 C3843 1.582 . S
C3842 H3899 0.962 . S
C3842 H3900 0.959 . S
C3842 H3901 0.958 . S
C3843 C3842 1.582 . S
C3843 O3846 1.458 . S
C3843 H3872 0.980 . S
O3844 C3789 1.426 . S
O3844 C3790 1.334 . S
O3845 C3817 1.412 . S
O3845 C3818 1.393 . S
O3846 C3808 1.435 . S
O3846 C3843 1.458 . S
O3847 C3799 1.468 . S
O3847 C3800 1.408 . S
H3848 C3789 0.980 . S
H3849 C3788 0.959 . S
H3850 C3788 0.959 . S
H3851 C3788 0.960 . S
H3852 C3791 0.929 . S
H3853 C3795 0.929 . S
H3854 C3796 0.959 . S
H3855 C3796 0.961 . S
H3856 C3796 0.961 . S
H3857 C3797 0.960 . S
H3858 C3797 0.960 . S
H3859 C3797 0.961 . S
H3860 C3799 0.980 . S
H3861 C3798 0.961 . S
H3862 C3798 0.960 . S
H3863 C3798 0.959 . S
H3864 C3801 0.930 . S
H3865 C3805 0.931 . S
H3866 C3806 0.959 . S
H3867 C3806 0.961 . S
H3868 C3806 0.959 . S
H3869 C3807 0.960 . S
H3870 C3807 0.960 . S
H3871 C3807 0.960 . S
H3872 C3843 0.980 . S
H3873 C3809 0.930 . S
H3874 C3813 0.930 . S
H3875 C3814 0.961 . S
H3876 C3814 0.960 . S
H3877 C3814 0.958 . S
H3878 C3815 0.961 . S
H3879 C3815 0.960 . S
H3880 C3815 0.960 . S
H3881 C3817 0.980 . S
H3882 C3816 0.961 . S
H3883 C3816 0.961 . S
H3884 C3816 0.959 . S
H3885 C3819 0.932 . S
H3886 C3823 0.929 . S
H3887 C3824 0.961 . S
H3888 C3824 0.959 . S
H3889 C3824 0.959 . S
H3890 C3825 0.960 . S
H3891 C3825 0.962 . S
H3892 C3825 0.961 . S
H3893 C3827 0.929 . S
H3894 C3830 0.930 . S
H3895 C3831 0.929 . S
H3896 C3834 0.930 . S
H3897 C3837 0.929 . S
H3898 C3838 0.930 . S
H3899 C3842 0.962 . S
H3900 C3842 0.959 . S
H3901 C3842 0.958 . S
C3902 C3903 1.560 . S
C3902 H3963 0.959 . S
C3902 H3964 0.959 . S
C3902 H3965 0.960 . S
C3903 C3902 1.560 . S
C3903 O3958 1.426 . S
C3903 H3962 0.980 . S
C3904 C3905 1.407 . S
C3904 C3909 1.418 . S
C3904 O3958 1.334 . S
C3905 C3904 1.407 . S
C3905 C3906 1.360 . S
C3905 H3966 0.929 . S
C3906 C3905 1.360 . S
C3906 C3907 1.401 . S
C3906 C3910 1.527 . S
C3907 C3906 1.401 . S
C3907 C3908 1.405 . S
C3907 C3940 1.587 . S
C3908 C3907 1.405 . S
C3908 C3909 1.332 . S
C3908 C3911 1.496 . S
C3909 C3904 1.418 . S
C3909 C3908 1.332 . S
C3909 H3967 0.929 . S
C3910 C3906 1.527 . S
C3910 H3968 0.959 . S
C3910 H3969 0.961 . S
C3910 H3970 0.961 . S
C3911 C3908 1.496 . S
C3911 H3971 0.960 . S
C3911 H3972 0.960 . S
C3911 H3973 0.961 . S
C3912 C3913 1.517 . S
C3912 H3975 0.961 . S
C3912 H3976 0.960 . S
C3912 H3977 0.959 . S
C3913 C3912 1.517 . S
C3913 O3961 1.468 . S
C3913 H3974 0.980 . S
C3914 C3915 1.349 . S
C3914 C3919 1.367 . S
C3914 O3961 1.408 . S
C3915 C3914 1.349 . S
C3915 C3916 1.407 . S
C3915 H3978 0.930 . S
C3916 C3915 1.407 . S
C3916 C3917 1.449 . S
C3916 C3920 1.535 . S
C3917 C3916 1.449 . S
C3917 C3918 1.384 . S
C3917 C3942 1.553 . S
C3918 C3917 1.384 . S
C3918 C3919 1.364 . S
C3918 C3921 1.450 . S
C3919 C3914 1.367 . S
C3919 C3918 1.364 . S
C3919 H3979 0.931 . S
C3920 C3916 1.535 . S
C3920 H3980 0.959 . S
C3920 H3981 0.961 . S
C3920 H3982 0.959 . S
C3921 C3918 1.450 . S
C3921 H3983 0.960 . S
C3921 H3984 0.960 . S
C3921 H3985 0.960 . S
C3922 C3923 1.309 . S
C3922 C3927 1.304 . S
C3922 O3960 1.435 . S
C3923 C3922 1.309 . S
C3923 C3924 1.476 . S
C3923 H3987 0.930 . S
C3924 C3923 1.476 . S
C3924 C3925 1.400 . S
C3924 C3928 1.567 . S
C3925 C3924 1.400 . S
C3925 C3926 1.373 . S
C3925 C3947 1.432 . S
C3926 C3925 1.373 . S
C3926 C3927 1.339 . S
C3926 C3929 1.530 . S
C3927 C3922 1.304 . S
C3927 C3926 1.339 . S
C3927 H3988 0.930 . S
C3928 C3924 1.567 . S
C3928 H3989 0.961 . S
C3928 H3990 0.960 . S
C3928 H3991 0.958 . S
C3929 C3926 1.530 . S
C3929 H3992 0.961 . S
C3929 H3993 0.960 . S
C3929 H3994 0.960 . S
C3930 C3931 1.530 . S
C3930 H3996 0.961 . S
C3930 H3997 0.961 . S
C3930 H3998 0.959 . S
C3931 C3930 1.530 . S
C3931 O3959 1.412 . S
C3931 H3995 0.980 . S
C3932 C3933 1.288 . S
C3932 C3937 1.377 . S
C3932 O3959 1.393 . S
C3933 C3932 1.288 . S
C3933 C3934 1.369 . S
C3933 H3999 0.932 . S
C3934 C3933 1.369 . S
C3934 C3935 1.398 . S
C3934 C3938 1.527 . S
C3935 C3934 1.398 . S
C3935 C3936 1.380 . S
C3935 C3949 1.497 . S
C3936 C3935 1.380 . S
C3936 C3937 1.383 . S
C3936 C3939 1.603 . S
C3937 C3932 1.377 . S
C3937 C3936 1.383 . S
C3937 H4000 0.929 . S
C3938 C3934 1.527 . S
C3938 H4001 0.961 . S
C3938 H4002 0.959 . S
C3938 H4003 0.959 . S
C3939 C3936 1.603 . S
C3939 H4004 0.960 . S
C3939 H4005 0.962 . S
C3939 H4006 0.961 . S
C3940 C3907 1.587 . S
C3940 C3941 1.360 . S
C3940 C3953 1.412 . S
C3941 C3940 1.360 . S
C3941 C3942 1.365 . S
C3941 H4007 0.929 . S
C3942 C3917 1.553 . S
C3942 C3941 1.365 . S
C3942 C3943 1.404 . S
C3943 C3942 1.404 . S
C3943 C3944 1.395 . S
C3943 C3954 1.451 . S
C3944 C3943 1.395 . S
C3944 C3945 1.322 . S
C3944 H4008 0.930 . S
C3945 C3944 1.322 . S
C3945 C3946 1.459 . S
C3945 H4009 0.929 . S
C3946 C3945 1.459 . S
C3946 C3947 1.445 . S
C3946 C3955 1.395 . S
C3947 C3925 1.432 . S
C3947 C3946 1.445 . S
C3947 C3948 1.370 . S
C3948 C3947 1.370 . S
C3948 C3949 1.438 . S
C3948 H4010 0.930 . S
C3949 C3935 1.497 . S
C3949 C3948 1.438 . S
C3949 C3950 1.360 . S
C3950 C3949 1.360 . S
C3950 C3951 1.401 . S
C3950 C3955 1.446 . S
C3951 C3950 1.401 . S
C3951 C3952 1.347 . S
C3951 H4011 0.929 . S
C3952 C3951 1.347 . S
C3952 C3953 1.455 . S
C3952 H4012 0.930 . S
C3953 C3940 1.412 . S
C3953 C3952 1.455 . S
C3953 C3954 1.331 . S
C3954 C3943 1.451 . S
C3954 C3953 1.331 . S
C3954 C3955 1.497 . S
C3955 C3946 1.395 . S
C3955 C3950 1.446 . S
C3955 C3954 1.497 . S
C3956 C3957 1.582 . S
C3956 H4013 0.962 . S
C3956 H4014 0.959 . S
C3956 H4015 0.958 . S
C3957 C3956 1.582 . S
C3957 O3960 1.458 . S
C3957 H3986 0.980 . S
O3958 C3903 1.426 . S
O3958 C3904 1.334 . S
O3959 C3931 1.412 . S
O3959 C3932 1.393 . S
O3960 C3922 1.435 . S
O3960 C3957 1.458 . S
O3961 C3913 1.468 . S
O3961 C3914 1.408 . S
H3962 C3903 0.980 . S
H3963 C3902 0.959 . S
H3964 C3902 0.959 . S
H3965 C3902 0.960 . S
H3966 C3905 0.929 . S
H3967 C3909 0.929 . S
H3968 C3910 0.959 . S
H3969 C3910 0.961 . S
H3970 C3910 0.961 . S
H3971 C3911 0.960 . S
H3972 C3911 0.960 . S
H3973 C3911 0.961 . S
H3974 C3913 0.980 . S
H3975 C3912 0.961 . S
H3976 C3912 0.960 . S
H3977 C3912 0.959 . S
H3978 C3915 0.930 . S
H3979 C3919 0.931 . S
H3980 C3920 0.959 . S
H3981 C3920 0.961 . S
H3982 C3920 0.959 . S
H3983 C3921 0.960 . S
H3984 C3921 0.960 . S
H3985 C3921 0.960 . S
H3986 C3957 0.980 . S
H3987 C3923 0.930 . S
H3988 C3927 0.930 . S
H3989 C3928 0.961 . S
H3990 C3928 0.960 . S
H3991 C3928 0.958 . S
H3992 C3929 0.961 . S
H3993 C3929 0.960 . S
H3994 C3929 0.960 . S
H3995 C3931 0.980 . S
H3996 C3930 0.961 . S
H3997 C3930 0.961 . S
H3998 C3930 0.959 . S
H3999 C3933 0.932 . S
H4000 C3937 0.929 . S
H4001 C3938 0.961 . S
H4002 C3938 0.959 . S
H4003 C3938 0.959 . S
H4004 C3939 0.960 . S
H4005 C3939 0.962 . S
H4006 C3939 0.961 . S
H4007 C3941 0.929 . S
H4008 C3944 0.930 . S
H4009 C3945 0.929 . S
H4010 C3948 0.930 . S
H4011 C3951 0.929 . S
H4012 C3952 0.930 . S
H4013 C3956 0.962 . S
H4014 C3956 0.959 . S
H4015 C3956 0.958 . S
C4016 C4017 1.363 . S
C4016 C4022 1.379 . S
C4016 N4024 1.356 . S
C4017 C4016 1.363 . S
C4017 C4023 1.363 . S
C4018 C4019 1.363 . S
C4018 C4023 1.379 . S
C4018 N4025 1.356 . S
C4019 C4018 1.363 . S
C4019 C4022 1.363 . S
N4020 C4022 1.356 . S
N4020 H4032 0.984 . S
N4020 H4033 0.985 . S
N4021 C4023 1.356 . S
N4021 H4026 0.984 . S
N4021 H4027 0.985 . S
C4022 C4016 1.379 . S
C4022 C4019 1.363 . S
C4022 N4020 1.356 . S
C4023 C4017 1.363 . S
C4023 C4018 1.379 . S
C4023 N4021 1.356 . S
N4024 C4016 1.356 . S
N4024 H4030 0.984 . S
N4024 H4031 0.984 . S
N4025 C4018 1.356 . S
N4025 H4028 0.984 . S
N4025 H4029 0.985 . S
H4026 N4021 0.984 . S
H4027 N4021 0.985 . S
H4028 N4025 0.984 . S
H4029 N4025 0.985 . S
H4030 N4024 0.984 . S
H4031 N4024 0.984 . S
H4032 N4020 0.984 . S
H4033 N4020 0.985 . S
C4034 C4035 1.363 . S
C4034 C4040 1.379 . S
C4034 N4042 1.356 . S
C4035 C4034 1.363 . S
C4035 C4041 1.363 . S
C4036 C4037 1.363 . S
C4036 C4041 1.379 . S
C4036 N4043 1.356 . S
C4037 C4036 1.363 . S
C4037 C4040 1.363 . S
N4038 C4040 1.356 . S
N4038 H4050 0.984 . S
N4038 H4051 0.985 . S
N4039 C4041 1.356 . S
N4039 H4044 0.984 . S
N4039 H4045 0.985 . S
C4040 C4034 1.379 . S
C4040 C4037 1.363 . S
C4040 N4038 1.356 . S
C4041 C4035 1.363 . S
C4041 C4036 1.379 . S
C4041 N4039 1.356 . S
N4042 C4034 1.356 . S
N4042 H4048 0.984 . S
N4042 H4049 0.984 . S
N4043 C4036 1.356 . S
N4043 H4046 0.984 . S
N4043 H4047 0.985 . S
H4044 N4039 0.984 . S
H4045 N4039 0.985 . S
H4046 N4043 0.984 . S
H4047 N4043 0.985 . S
H4048 N4042 0.984 . S
H4049 N4042 0.984 . S
H4050 N4038 0.984 . S
H4051 N4038 0.985 . S
C4052 C4053 1.363 . S
C4052 C4058 1.379 . S
C4052 N4060 1.356 . S
C4053 C4052 1.363 . S
C4053 C4059 1.363 . S
C4054 C4055 1.363 . S
C4054 C4059 1.379 . S
C4054 N4061 1.356 . S
C4055 C4054 1.363 . S
C4055 C4058 1.363 . S
N4056 C4058 1.356 . S
N4056 H4068 0.984 . S
N4056 H4069 0.985 . S
N4057 C4059 1.356 . S
N4057 H4062 0.984 . S
N4057 H4063 0.985 . S
C4058 C4052 1.379 . S
C4058 C4055 1.363 . S
C4058 N4056 1.356 . S
C4059 C4053 1.363 . S
C4059 C4054 1.379 . S
C4059 N4057 1.356 . S
N4060 C4052 1.356 . S
N4060 H4066 0.984 . S
N4060 H4067 0.984 . S
N4061 C4054 1.356 . S
N4061 H4064 0.984 . S
N4061 H4065 0.985 . S
H4062 N4057 0.984 . S
H4063 N4057 0.985 . S
H4064 N4061 0.984 . S
H4065 N4061 0.985 . S
H4066 N4060 0.984 . S
H4067 N4060 0.984 . S
H4068 N4056 0.984 . S
H4069 N4056 0.985 . S
C4070 C4071 1.363 . S
C4070 C4076 1.379 . S
C4070 N4078 1.356 . S
C4071 C4070 1.363 . S
C4071 C4077 1.363 . S
C4072 C4073 1.363 . S
C4072 C4077 1.379 . S
C4072 N4079 1.356 . S
C4073 C4072 1.363 . S
C4073 C4076 1.363 . S
N4074 C4076 1.356 . S
N4074 H4086 0.984 . S
N4074 H4087 0.985 . S
N4075 C4077 1.356 . S
N4075 H4080 0.984 . S
N4075 H4081 0.985 . S
C4076 C4070 1.379 . S
C4076 C4073 1.363 . S
C4076 N4074 1.356 . S
C4077 C4071 1.363 . S
C4077 C4072 1.379 . S
C4077 N4075 1.356 . S
N4078 C4070 1.356 . S
N4078 H4084 0.984 . S
N4078 H4085 0.984 . S
N4079 C4072 1.356 . S
N4079 H4082 0.984 . S
N4079 H4083 0.985 . S
H4080 N4075 0.984 . S
H4081 N4075 0.985 . S
H4082 N4079 0.984 . S
H4083 N4079 0.985 . S
H4084 N4078 0.984 . S
H4085 N4078 0.984 . S
H4086 N4074 0.984 . S
H4087 N4074 0.985 . S
C4088 C4089 1.363 . S
C4088 C4094 1.379 . S
C4088 N4096 1.356 . S
C4089 C4088 1.363 . S
C4089 C4095 1.363 . S
C4090 C4091 1.363 . S
C4090 C4095 1.379 . S
C4090 N4097 1.356 . S
C4091 C4090 1.363 . S
C4091 C4094 1.363 . S
N4092 C4094 1.356 . S
N4092 H4104 0.984 . S
N4092 H4105 0.985 . S
N4093 C4095 1.356 . S
N4093 H4098 0.984 . S
N4093 H4099 0.985 . S
C4094 C4088 1.379 . S
C4094 C4091 1.363 . S
C4094 N4092 1.356 . S
C4095 C4089 1.363 . S
C4095 C4090 1.379 . S
C4095 N4093 1.356 . S
N4096 C4088 1.356 . S
N4096 H4102 0.984 . S
N4096 H4103 0.984 . S
N4097 C4090 1.356 . S
N4097 H4100 0.984 . S
N4097 H4101 0.985 . S
H4098 N4093 0.984 . S
H4099 N4093 0.985 . S
H4100 N4097 0.984 . S
H4101 N4097 0.985 . S
H4102 N4096 0.984 . S
H4103 N4096 0.984 . S
H4104 N4092 0.984 . S
H4105 N4092 0.985 . S
C4106 C4107 1.363 . S
C4106 C4112 1.379 . S
C4106 N4114 1.356 . S
C4107 C4106 1.363 . S
C4107 C4113 1.363 . S
C4108 C4109 1.363 . S
C4108 C4113 1.379 . S
C4108 N4115 1.356 . S
C4109 C4108 1.363 . S
C4109 C4112 1.363 . S
N4110 C4112 1.356 . S
N4110 H4122 0.984 . S
N4110 H4123 0.985 . S
N4111 C4113 1.356 . S
N4111 H4116 0.984 . S
N4111 H4117 0.985 . S
C4112 C4106 1.379 . S
C4112 C4109 1.363 . S
C4112 N4110 1.356 . S
C4113 C4107 1.363 . S
C4113 C4108 1.379 . S
C4113 N4111 1.356 . S
N4114 C4106 1.356 . S
N4114 H4120 0.984 . S
N4114 H4121 0.984 . S
N4115 C4108 1.356 . S
N4115 H4118 0.984 . S
N4115 H4119 0.985 . S
H4116 N4111 0.984 . S
H4117 N4111 0.985 . S
H4118 N4115 0.984 . S
H4119 N4115 0.985 . S
H4120 N4114 0.984 . S
H4121 N4114 0.984 . S
H4122 N4110 0.984 . S
H4123 N4110 0.985 . S
C4124 C4125 1.363 . S
C4124 C4130 1.379 . S
C4124 N4132 1.356 . S
C4125 C4124 1.363 . S
C4125 C4131 1.363 . S
C4126 C4127 1.363 . S
C4126 C4131 1.379 . S
C4126 N4133 1.356 . S
C4127 C4126 1.363 . S
C4127 C4130 1.363 . S
N4128 C4130 1.356 . S
N4128 H4140 0.984 . S
N4128 H4141 0.985 . S
N4129 C4131 1.356 . S
N4129 H4134 0.984 . S
N4129 H4135 0.985 . S
C4130 C4124 1.379 . S
C4130 C4127 1.363 . S
C4130 N4128 1.356 . S
C4131 C4125 1.363 . S
C4131 C4126 1.379 . S
C4131 N4129 1.356 . S
N4132 C4124 1.356 . S
N4132 H4138 0.984 . S
N4132 H4139 0.984 . S
N4133 C4126 1.356 . S
N4133 H4136 0.984 . S
N4133 H4137 0.985 . S
H4134 N4129 0.984 . S
H4135 N4129 0.985 . S
H4136 N4133 0.984 . S
H4137 N4133 0.985 . S
H4138 N4132 0.984 . S
H4139 N4132 0.984 . S
H4140 N4128 0.984 . S
H4141 N4128 0.985 . S
C4142 C4143 1.363 . S
C4142 C4148 1.379 . S
C4142 N4150 1.356 . S
C4143 C4142 1.363 . S
C4143 C4149 1.363 . S
C4144 C4145 1.363 . S
C4144 C4149 1.379 . S
C4144 N4151 1.356 . S
C4145 C4144 1.363 . S
C4145 C4148 1.363 . S
N4146 C4148 1.356 . S
N4146 H4158 0.984 . S
N4146 H4159 0.985 . S
N4147 C4149 1.356 . S
N4147 H4152 0.984 . S
N4147 H4153 0.985 . S
C4148 C4142 1.379 . S
C4148 C4145 1.363 . S
C4148 N4146 1.356 . S
C4149 C4143 1.363 . S
C4149 C4144 1.379 . S
C4149 N4147 1.356 . S
N4150 C4142 1.356 . S
N4150 H4156 0.984 . S
N4150 H4157 0.984 . S
N4151 C4144 1.356 . S
N4151 H4154 0.984 . S
N4151 H4155 0.985 . S
H4152 N4147 0.984 . S
H4153 N4147 0.985 . S
H4154 N4151 0.984 . S
H4155 N4151 0.985 . S
H4156 N4150 0.984 . S
H4157 N4150 0.984 . S
H4158 N4146 0.984 . S
H4159 N4146 0.985 . S
C4160 C4161 1.363 . S
C4160 C4166 1.379 . S
C4160 N4168 1.356 . S
C4161 C4160 1.363 . S
C4161 C4167 1.363 . S
C4162 C4163 1.363 . S
C4162 C4167 1.379 . S
C4162 N4169 1.356 . S
C4163 C4162 1.363 . S
C4163 C4166 1.363 . S
N4164 C4166 1.356 . S
N4164 H4176 0.984 . S
N4164 H4177 0.985 . S
N4165 C4167 1.356 . S
N4165 H4170 0.984 . S
N4165 H4171 0.985 . S
C4166 C4160 1.379 . S
C4166 C4163 1.363 . S
C4166 N4164 1.356 . S
C4167 C4161 1.363 . S
C4167 C4162 1.379 . S
C4167 N4165 1.356 . S
N4168 C4160 1.356 . S
N4168 H4174 0.984 . S
N4168 H4175 0.984 . S
N4169 C4162 1.356 . S
N4169 H4172 0.984 . S
N4169 H4173 0.985 . S
H4170 N4165 0.984 . S
H4171 N4165 0.985 . S
H4172 N4169 0.984 . S
H4173 N4169 0.985 . S
H4174 N4168 0.984 . S
H4175 N4168 0.984 . S
H4176 N4164 0.984 . S
H4177 N4164 0.985 . S
C4178 C4179 1.363 . S
C4178 C4184 1.379 . S
C4178 N4186 1.356 . S
C4179 C4178 1.363 . S
C4179 C4185 1.363 . S
C4180 C4181 1.363 . S
C4180 C4185 1.379 . S
C4180 N4187 1.356 . S
C4181 C4180 1.363 . S
C4181 C4184 1.363 . S
N4182 C4184 1.356 . S
N4182 H4194 0.984 . S
N4182 H4195 0.985 . S
N4183 C4185 1.356 . S
N4183 H4188 0.984 . S
N4183 H4189 0.985 . S
C4184 C4178 1.379 . S
C4184 C4181 1.363 . S
C4184 N4182 1.356 . S
C4185 C4179 1.363 . S
C4185 C4180 1.379 . S
C4185 N4183 1.356 . S
N4186 C4178 1.356 . S
N4186 H4192 0.984 . S
N4186 H4193 0.984 . S
N4187 C4180 1.356 . S
N4187 H4190 0.984 . S
N4187 H4191 0.985 . S
H4188 N4183 0.984 . S
H4189 N4183 0.985 . S
H4190 N4187 0.984 . S
H4191 N4187 0.985 . S
H4192 N4186 0.984 . S
H4193 N4186 0.984 . S
H4194 N4182 0.984 . S
H4195 N4182 0.985 . S
C4196 C4197 1.363 . S
C4196 C4202 1.379 . S
C4196 N4204 1.356 . S
C4197 C4196 1.363 . S
C4197 C4203 1.363 . S
C4198 C4199 1.363 . S
C4198 C4203 1.379 . S
C4198 N4205 1.356 . S
C4199 C4198 1.363 . S
C4199 C4202 1.363 . S
N4200 C4202 1.356 . S
N4200 H4212 0.984 . S
N4200 H4213 0.985 . S
N4201 C4203 1.356 . S
N4201 H4206 0.984 . S
N4201 H4207 0.985 . S
C4202 C4196 1.379 . S
C4202 C4199 1.363 . S
C4202 N4200 1.356 . S
C4203 C4197 1.363 . S
C4203 C4198 1.379 . S
C4203 N4201 1.356 . S
N4204 C4196 1.356 . S
N4204 H4210 0.984 . S
N4204 H4211 0.984 . S
N4205 C4198 1.356 . S
N4205 H4208 0.984 . S
N4205 H4209 0.985 . S
H4206 N4201 0.984 . S
H4207 N4201 0.985 . S
H4208 N4205 0.984 . S
H4209 N4205 0.985 . S
H4210 N4204 0.984 . S
H4211 N4204 0.984 . S
H4212 N4200 0.984 . S
H4213 N4200 0.985 . S
C4214 C4215 1.363 . S
C4214 C4220 1.379 . S
C4214 N4222 1.356 . S
C4215 C4214 1.363 . S
C4215 C4221 1.363 . S
C4216 C4217 1.363 . S
C4216 C4221 1.379 . S
C4216 N4223 1.356 . S
C4217 C4216 1.363 . S
C4217 C4220 1.363 . S
N4218 C4220 1.356 . S
N4218 H4230 0.984 . S
N4218 H4231 0.985 . S
N4219 C4221 1.356 . S
N4219 H4224 0.984 . S
N4219 H4225 0.985 . S
C4220 C4214 1.379 . S
C4220 C4217 1.363 . S
C4220 N4218 1.356 . S
C4221 C4215 1.363 . S
C4221 C4216 1.379 . S
C4221 N4219 1.356 . S
N4222 C4214 1.356 . S
N4222 H4228 0.984 . S
N4222 H4229 0.984 . S
N4223 C4216 1.356 . S
N4223 H4226 0.984 . S
N4223 H4227 0.985 . S
H4224 N4219 0.984 . S
H4225 N4219 0.985 . S
H4226 N4223 0.984 . S
H4227 N4223 0.985 . S
H4228 N4222 0.984 . S
H4229 N4222 0.984 . S
H4230 N4218 0.984 . S
H4231 N4218 0.985 . S
C4232 C4233 1.363 . S
C4232 C4238 1.379 . S
C4232 N4240 1.356 . S
C4233 C4232 1.363 . S
C4233 C4239 1.363 . S
C4234 C4235 1.363 . S
C4234 C4239 1.379 . S
C4234 N4241 1.356 . S
C4235 C4234 1.363 . S
C4235 C4238 1.363 . S
N4236 C4238 1.356 . S
N4236 H4248 0.984 . S
N4236 H4249 0.985 . S
N4237 C4239 1.356 . S
N4237 H4242 0.984 . S
N4237 H4243 0.985 . S
C4238 C4232 1.379 . S
C4238 C4235 1.363 . S
C4238 N4236 1.356 . S
C4239 C4233 1.363 . S
C4239 C4234 1.379 . S
C4239 N4237 1.356 . S
N4240 C4232 1.356 . S
N4240 H4246 0.984 . S
N4240 H4247 0.984 . S
N4241 C4234 1.356 . S
N4241 H4244 0.984 . S
N4241 H4245 0.985 . S
H4242 N4237 0.984 . S
H4243 N4237 0.985 . S
H4244 N4241 0.984 . S
H4245 N4241 0.985 . S
H4246 N4240 0.984 . S
H4247 N4240 0.984 . S
H4248 N4236 0.984 . S
H4249 N4236 0.985 . S
C4250 C4251 1.363 . S
C4250 C4256 1.379 . S
C4250 N4258 1.356 . S
C4251 C4250 1.363 . S
C4251 C4257 1.363 . S
C4252 C4253 1.363 . S
C4252 C4257 1.379 . S
C4252 N4259 1.356 . S
C4253 C4252 1.363 . S
C4253 C4256 1.363 . S
N4254 C4256 1.356 . S
N4254 H4266 0.984 . S
N4254 H4267 0.985 . S
N4255 C4257 1.356 . S
N4255 H4260 0.984 . S
N4255 H4261 0.985 . S
C4256 C4250 1.379 . S
C4256 C4253 1.363 . S
C4256 N4254 1.356 . S
C4257 C4251 1.363 . S
C4257 C4252 1.379 . S
C4257 N4255 1.356 . S
N4258 C4250 1.356 . S
N4258 H4264 0.984 . S
N4258 H4265 0.984 . S
N4259 C4252 1.356 . S
N4259 H4262 0.984 . S
N4259 H4263 0.985 . S
H4260 N4255 0.984 . S
H4261 N4255 0.985 . S
H4262 N4259 0.984 . S
H4263 N4259 0.985 . S
H4264 N4258 0.984 . S
H4265 N4258 0.984 . S
H4266 N4254 0.984 . S
H4267 N4254 0.985 . S
C4268 C4269 1.363 . S
C4268 C4274 1.379 . S
C4268 N4276 1.356 . S
C4269 C4268 1.363 . S
C4269 C4275 1.363 . S
C4270 C4271 1.363 . S
C4270 C4275 1.379 . S
C4270 N4277 1.356 . S
C4271 C4270 1.363 . S
C4271 C4274 1.363 . S
N4272 C4274 1.356 . S
N4272 H4284 0.984 . S
N4272 H4285 0.985 . S
N4273 C4275 1.356 . S
N4273 H4278 0.984 . S
N4273 H4279 0.985 . S
C4274 C4268 1.379 . S
C4274 C4271 1.363 . S
C4274 N4272 1.356 . S
C4275 C4269 1.363 . S
C4275 C4270 1.379 . S
C4275 N4273 1.356 . S
N4276 C4268 1.356 . S
N4276 H4282 0.984 . S
N4276 H4283 0.984 . S
N4277 C4270 1.356 . S
N4277 H4280 0.984 . S
N4277 H4281 0.985 . S
H4278 N4273 0.984 . S
H4279 N4273 0.985 . S
H4280 N4277 0.984 . S
H4281 N4277 0.985 . S
H4282 N4276 0.984 . S
H4283 N4276 0.984 . S
H4284 N4272 0.984 . S
H4285 N4272 0.985 . S
C4286 C4287 1.363 . S
C4286 C4292 1.379 . S
C4286 N4294 1.356 . S
C4287 C4286 1.363 . S
C4287 C4293 1.363 . S
C4288 C4289 1.363 . S
C4288 C4293 1.379 . S
C4288 N4295 1.356 . S
C4289 C4288 1.363 . S
C4289 C4292 1.363 . S
N4290 C4292 1.356 . S
N4290 H4302 0.984 . S
N4290 H4303 0.985 . S
N4291 C4293 1.356 . S
N4291 H4296 0.984 . S
N4291 H4297 0.985 . S
C4292 C4286 1.379 . S
C4292 C4289 1.363 . S
C4292 N4290 1.356 . S
C4293 C4287 1.363 . S
C4293 C4288 1.379 . S
C4293 N4291 1.356 . S
N4294 C4286 1.356 . S
N4294 H4300 0.984 . S
N4294 H4301 0.984 . S
N4295 C4288 1.356 . S
N4295 H4298 0.984 . S
N4295 H4299 0.985 . S
H4296 N4291 0.984 . S
H4297 N4291 0.985 . S
H4298 N4295 0.984 . S
H4299 N4295 0.985 . S
H4300 N4294 0.984 . S
H4301 N4294 0.984 . S
H4302 N4290 0.984 . S
H4303 N4290 0.985 . S
C4304 C4305 1.363 . S
C4304 C4310 1.379 . S
C4304 N4312 1.356 . S
C4305 C4304 1.363 . S
C4305 C4311 1.363 . S
C4306 C4307 1.363 . S
C4306 C4311 1.379 . S
C4306 N4313 1.356 . S
C4307 C4306 1.363 . S
C4307 C4310 1.363 . S
N4308 C4310 1.356 . S
N4308 H4320 0.984 . S
N4308 H4321 0.985 . S
N4309 C4311 1.356 . S
N4309 H4314 0.984 . S
N4309 H4315 0.985 . S
C4310 C4304 1.379 . S
C4310 C4307 1.363 . S
C4310 N4308 1.356 . S
C4311 C4305 1.363 . S
C4311 C4306 1.379 . S
C4311 N4309 1.356 . S
N4312 C4304 1.356 . S
N4312 H4318 0.984 . S
N4312 H4319 0.984 . S
N4313 C4306 1.356 . S
N4313 H4316 0.984 . S
N4313 H4317 0.985 . S
H4314 N4309 0.984 . S
H4315 N4309 0.985 . S
H4316 N4313 0.984 . S
H4317 N4313 0.985 . S
H4318 N4312 0.984 . S
H4319 N4312 0.984 . S
H4320 N4308 0.984 . S
H4321 N4308 0.985 . S
C4322 C4323 1.363 . S
C4322 C4328 1.379 . S
C4322 N4330 1.356 . S
C4323 C4322 1.363 . S
C4323 C4329 1.363 . S
C4324 C4325 1.363 . S
C4324 C4329 1.379 . S
C4324 N4331 1.356 . S
C4325 C4324 1.363 . S
C4325 C4328 1.363 . S
N4326 C4328 1.356 . S
N4326 H4338 0.984 . S
N4326 H4339 0.985 . S
N4327 C4329 1.356 . S
N4327 H4332 0.984 . S
N4327 H4333 0.985 . S
C4328 C4322 1.379 . S
C4328 C4325 1.363 . S
C4328 N4326 1.356 . S
C4329 C4323 1.363 . S
C4329 C4324 1.379 . S
C4329 N4327 1.356 . S
N4330 C4322 1.356 . S
N4330 H4336 0.984 . S
N4330 H4337 0.984 . S
N4331 C4324 1.356 . S
N4331 H4334 0.984 . S
N4331 H4335 0.985 . S
H4332 N4327 0.984 . S
H4333 N4327 0.985 . S
H4334 N4331 0.984 . S
H4335 N4331 0.985 . S
H4336 N4330 0.984 . S
H4337 N4330 0.984 . S
H4338 N4326 0.984 . S
H4339 N4326 0.985 . S
C4340 C4341 1.363 . S
C4340 C4346 1.379 . S
C4340 N4348 1.356 . S
C4341 C4340 1.363 . S
C4341 C4347 1.363 . S
C4342 C4343 1.363 . S
C4342 C4347 1.379 . S
C4342 N4349 1.356 . S
C4343 C4342 1.363 . S
C4343 C4346 1.363 . S
N4344 C4346 1.356 . S
N4344 H4356 0.984 . S
N4344 H4357 0.985 . S
N4345 C4347 1.356 . S
N4345 H4350 0.984 . S
N4345 H4351 0.985 . S
C4346 C4340 1.379 . S
C4346 C4343 1.363 . S
C4346 N4344 1.356 . S
C4347 C4341 1.363 . S
C4347 C4342 1.379 . S
C4347 N4345 1.356 . S
N4348 C4340 1.356 . S
N4348 H4354 0.984 . S
N4348 H4355 0.984 . S
N4349 C4342 1.356 . S
N4349 H4352 0.984 . S
N4349 H4353 0.985 . S
H4350 N4345 0.984 . S
H4351 N4345 0.985 . S
H4352 N4349 0.984 . S
H4353 N4349 0.985 . S
H4354 N4348 0.984 . S
H4355 N4348 0.984 . S
H4356 N4344 0.984 . S
H4357 N4344 0.985 . S
C4358 C4359 1.363 . S
C4358 C4364 1.379 . S
C4358 N4366 1.356 . S
C4359 C4358 1.363 . S
C4359 C4365 1.363 . S
C4360 C4361 1.363 . S
C4360 C4365 1.379 . S
C4360 N4367 1.356 . S
C4361 C4360 1.363 . S
C4361 C4364 1.363 . S
N4362 C4364 1.356 . S
N4362 H4374 0.984 . S
N4362 H4375 0.985 . S
N4363 C4365 1.356 . S
N4363 H4368 0.984 . S
N4363 H4369 0.985 . S
C4364 C4358 1.379 . S
C4364 C4361 1.363 . S
C4364 N4362 1.356 . S
C4365 C4359 1.363 . S
C4365 C4360 1.379 . S
C4365 N4363 1.356 . S
N4366 C4358 1.356 . S
N4366 H4372 0.984 . S
N4366 H4373 0.984 . S
N4367 C4360 1.356 . S
N4367 H4370 0.984 . S
N4367 H4371 0.985 . S
H4368 N4363 0.984 . S
H4369 N4363 0.985 . S
H4370 N4367 0.984 . S
H4371 N4367 0.985 . S
H4372 N4366 0.984 . S
H4373 N4366 0.984 . S
H4374 N4362 0.984 . S
H4375 N4362 0.985 . S
C4376 C4377 1.363 . S
C4376 C4382 1.379 . S
C4376 N4384 1.356 . S
C4377 C4376 1.363 . S
C4377 C4383 1.363 . S
C4378 C4379 1.363 . S
C4378 C4383 1.379 . S
C4378 N4385 1.356 . S
C4379 C4378 1.363 . S
C4379 C4382 1.363 . S
N4380 C4382 1.356 . S
N4380 H4392 0.984 . S
N4380 H4393 0.985 . S
N4381 C4383 1.356 . S
N4381 H4386 0.984 . S
N4381 H4387 0.985 . S
C4382 C4376 1.379 . S
C4382 C4379 1.363 . S
C4382 N4380 1.356 . S
C4383 C4377 1.363 . S
C4383 C4378 1.379 . S
C4383 N4381 1.356 . S
N4384 C4376 1.356 . S
N4384 H4390 0.984 . S
N4384 H4391 0.984 . S
N4385 C4378 1.356 . S
N4385 H4388 0.984 . S
N4385 H4389 0.985 . S
H4386 N4381 0.984 . S
H4387 N4381 0.985 . S
H4388 N4385 0.984 . S
H4389 N4385 0.985 . S
H4390 N4384 0.984 . S
H4391 N4384 0.984 . S
H4392 N4380 0.984 . S
H4393 N4380 0.985 . S
C4394 C4395 1.363 . S
C4394 C4400 1.379 . S
C4394 N4402 1.356 . S
C4395 C4394 1.363 . S
C4395 C4401 1.363 . S
C4396 C4397 1.363 . S
C4396 C4401 1.379 . S
C4396 N4403 1.356 . S
C4397 C4396 1.363 . S
C4397 C4400 1.363 . S
N4398 C4400 1.356 . S
N4398 H4410 0.984 . S
N4398 H4411 0.985 . S
N4399 C4401 1.356 . S
N4399 H4404 0.984 . S
N4399 H4405 0.985 . S
C4400 C4394 1.379 . S
C4400 C4397 1.363 . S
C4400 N4398 1.356 . S
C4401 C4395 1.363 . S
C4401 C4396 1.379 . S
C4401 N4399 1.356 . S
N4402 C4394 1.356 . S
N4402 H4408 0.984 . S
N4402 H4409 0.984 . S
N4403 C4396 1.356 . S
N4403 H4406 0.984 . S
N4403 H4407 0.985 . S
H4404 N4399 0.984 . S
H4405 N4399 0.985 . S
H4406 N4403 0.984 . S
H4407 N4403 0.985 . S
H4408 N4402 0.984 . S
H4409 N4402 0.984 . S
H4410 N4398 0.984 . S
H4411 N4398 0.985 . S
C4412 C4413 1.363 . S
C4412 C4418 1.379 . S
C4412 N4420 1.356 . S
C4413 C4412 1.363 . S
C4413 C4419 1.363 . S
C4414 C4415 1.363 . S
C4414 C4419 1.379 . S
C4414 N4421 1.356 . S
C4415 C4414 1.363 . S
C4415 C4418 1.363 . S
N4416 C4418 1.356 . S
N4416 H4428 0.984 . S
N4416 H4429 0.985 . S
N4417 C4419 1.356 . S
N4417 H4422 0.984 . S
N4417 H4423 0.985 . S
C4418 C4412 1.379 . S
C4418 C4415 1.363 . S
C4418 N4416 1.356 . S
C4419 C4413 1.363 . S
C4419 C4414 1.379 . S
C4419 N4417 1.356 . S
N4420 C4412 1.356 . S
N4420 H4426 0.984 . S
N4420 H4427 0.984 . S
N4421 C4414 1.356 . S
N4421 H4424 0.984 . S
N4421 H4425 0.985 . S
H4422 N4417 0.984 . S
H4423 N4417 0.985 . S
H4424 N4421 0.984 . S
H4425 N4421 0.985 . S
H4426 N4420 0.984 . S
H4427 N4420 0.984 . S
H4428 N4416 0.984 . S
H4429 N4416 0.985 . S
C4430 C4431 1.363 . S
C4430 C4436 1.379 . S
C4430 N4438 1.356 . S
C4431 C4430 1.363 . S
C4431 C4437 1.363 . S
C4432 C4433 1.363 . S
C4432 C4437 1.379 . S
C4432 N4439 1.356 . S
C4433 C4432 1.363 . S
C4433 C4436 1.363 . S
N4434 C4436 1.356 . S
N4434 H4446 0.984 . S
N4434 H4447 0.985 . S
N4435 C4437 1.356 . S
N4435 H4440 0.984 . S
N4435 H4441 0.985 . S
C4436 C4430 1.379 . S
C4436 C4433 1.363 . S
C4436 N4434 1.356 . S
C4437 C4431 1.363 . S
C4437 C4432 1.379 . S
C4437 N4435 1.356 . S
N4438 C4430 1.356 . S
N4438 H4444 0.984 . S
N4438 H4445 0.984 . S
N4439 C4432 1.356 . S
N4439 H4442 0.984 . S
N4439 H4443 0.985 . S
H4440 N4435 0.984 . S
H4441 N4435 0.985 . S
H4442 N4439 0.984 . S
H4443 N4439 0.985 . S
H4444 N4438 0.984 . S
H4445 N4438 0.984 . S
H4446 N4434 0.984 . S
H4447 N4434 0.985 . S
C4448 C4449 1.363 . S
C4448 C4454 1.379 . S
C4448 N4456 1.356 . S
C4449 C4448 1.363 . S
C4449 C4455 1.363 . S
C4450 C4451 1.363 . S
C4450 C4455 1.379 . S
C4450 N4457 1.356 . S
C4451 C4450 1.363 . S
C4451 C4454 1.363 . S
N4452 C4454 1.356 . S
N4452 H4464 0.984 . S
N4452 H4465 0.985 . S
N4453 C4455 1.356 . S
N4453 H4458 0.984 . S
N4453 H4459 0.985 . S
C4454 C4448 1.379 . S
C4454 C4451 1.363 . S
C4454 N4452 1.356 . S
C4455 C4449 1.363 . S
C4455 C4450 1.379 . S
C4455 N4453 1.356 . S
N4456 C4448 1.356 . S
N4456 H4462 0.984 . S
N4456 H4463 0.984 . S
N4457 C4450 1.356 . S
N4457 H4460 0.984 . S
N4457 H4461 0.985 . S
H4458 N4453 0.984 . S
H4459 N4453 0.985 . S
H4460 N4457 0.984 . S
H4461 N4457 0.985 . S
H4462 N4456 0.984 . S
H4463 N4456 0.984 . S
H4464 N4452 0.984 . S
H4465 N4452 0.985 . S
C4466 C4467 1.363 . S
C4466 C4472 1.379 . S
C4466 N4474 1.356 . S
C4467 C4466 1.363 . S
C4467 C4473 1.363 . S
C4468 C4469 1.363 . S
C4468 C4473 1.379 . S
C4468 N4475 1.356 . S
C4469 C4468 1.363 . S
C4469 C4472 1.363 . S
N4470 C4472 1.356 . S
N4470 H4482 0.984 . S
N4470 H4483 0.985 . S
N4471 C4473 1.356 . S
N4471 H4476 0.984 . S
N4471 H4477 0.985 . S
C4472 C4466 1.379 . S
C4472 C4469 1.363 . S
C4472 N4470 1.356 . S
C4473 C4467 1.363 . S
C4473 C4468 1.379 . S
C4473 N4471 1.356 . S
N4474 C4466 1.356 . S
N4474 H4480 0.984 . S
N4474 H4481 0.984 . S
N4475 C4468 1.356 . S
N4475 H4478 0.984 . S
N4475 H4479 0.985 . S
H4476 N4471 0.984 . S
H4477 N4471 0.985 . S
H4478 N4475 0.984 . S
H4479 N4475 0.985 . S
H4480 N4474 0.984 . S
H4481 N4474 0.984 . S
H4482 N4470 0.984 . S
H4483 N4470 0.985 . S
C4484 C4485 1.363 . S
C4484 C4490 1.379 . S
C4484 N4492 1.356 . S
C4485 C4484 1.363 . S
C4485 C4491 1.363 . S
C4486 C4487 1.363 . S
C4486 C4491 1.379 . S
C4486 N4493 1.356 . S
C4487 C4486 1.363 . S
C4487 C4490 1.363 . S
N4488 C4490 1.356 . S
N4488 H4500 0.984 . S
N4488 H4501 0.985 . S
N4489 C4491 1.356 . S
N4489 H4494 0.984 . S
N4489 H4495 0.985 . S
C4490 C4484 1.379 . S
C4490 C4487 1.363 . S
C4490 N4488 1.356 . S
C4491 C4485 1.363 . S
C4491 C4486 1.379 . S
C4491 N4489 1.356 . S
N4492 C4484 1.356 . S
N4492 H4498 0.984 . S
N4492 H4499 0.984 . S
N4493 C4486 1.356 . S
N4493 H4496 0.984 . S
N4493 H4497 0.985 . S
H4494 N4489 0.984 . S
H4495 N4489 0.985 . S
H4496 N4493 0.984 . S
H4497 N4493 0.985 . S
H4498 N4492 0.984 . S
H4499 N4492 0.984 . S
H4500 N4488 0.984 . S
H4501 N4488 0.985 . S
C4502 C4503 1.363 . S
C4502 C4508 1.379 . S
C4502 N4510 1.356 . S
C4503 C4502 1.363 . S
C4503 C4509 1.363 . S
C4504 C4505 1.363 . S
C4504 C4509 1.379 . S
C4504 N4511 1.356 . S
C4505 C4504 1.363 . S
C4505 C4508 1.363 . S
N4506 C4508 1.356 . S
N4506 H4518 0.984 . S
N4506 H4519 0.985 . S
N4507 C4509 1.356 . S
N4507 H4512 0.984 . S
N4507 H4513 0.985 . S
C4508 C4502 1.379 . S
C4508 C4505 1.363 . S
C4508 N4506 1.356 . S
C4509 C4503 1.363 . S
C4509 C4504 1.379 . S
C4509 N4507 1.356 . S
N4510 C4502 1.356 . S
N4510 H4516 0.984 . S
N4510 H4517 0.984 . S
N4511 C4504 1.356 . S
N4511 H4514 0.984 . S
N4511 H4515 0.985 . S
H4512 N4507 0.984 . S
H4513 N4507 0.985 . S
H4514 N4511 0.984 . S
H4515 N4511 0.985 . S
H4516 N4510 0.984 . S
H4517 N4510 0.984 . S
H4518 N4506 0.984 . S
H4519 N4506 0.985 . S
C4520 C4521 1.363 . S
C4520 C4526 1.379 . S
C4520 N4528 1.356 . S
C4521 C4520 1.363 . S
C4521 C4527 1.363 . S
C4522 C4523 1.363 . S
C4522 C4527 1.379 . S
C4522 N4529 1.356 . S
C4523 C4522 1.363 . S
C4523 C4526 1.363 . S
N4524 C4526 1.356 . S
N4524 H4536 0.984 . S
N4524 H4537 0.985 . S
N4525 C4527 1.356 . S
N4525 H4530 0.984 . S
N4525 H4531 0.985 . S
C4526 C4520 1.379 . S
C4526 C4523 1.363 . S
C4526 N4524 1.356 . S
C4527 C4521 1.363 . S
C4527 C4522 1.379 . S
C4527 N4525 1.356 . S
N4528 C4520 1.356 . S
N4528 H4534 0.984 . S
N4528 H4535 0.984 . S
N4529 C4522 1.356 . S
N4529 H4532 0.984 . S
N4529 H4533 0.985 . S
H4530 N4525 0.984 . S
H4531 N4525 0.985 . S
H4532 N4529 0.984 . S
H4533 N4529 0.985 . S
H4534 N4528 0.984 . S
H4535 N4528 0.984 . S
H4536 N4524 0.984 . S
H4537 N4524 0.985 . S
C4538 C4539 1.363 . S
C4538 C4544 1.379 . S
C4538 N4546 1.356 . S
C4539 C4538 1.363 . S
C4539 C4545 1.363 . S
C4540 C4541 1.363 . S
C4540 C4545 1.379 . S
C4540 N4547 1.356 . S
C4541 C4540 1.363 . S
C4541 C4544 1.363 . S
N4542 C4544 1.356 . S
N4542 H4554 0.984 . S
N4542 H4555 0.985 . S
N4543 C4545 1.356 . S
N4543 H4548 0.984 . S
N4543 H4549 0.985 . S
C4544 C4538 1.379 . S
C4544 C4541 1.363 . S
C4544 N4542 1.356 . S
C4545 C4539 1.363 . S
C4545 C4540 1.379 . S
C4545 N4543 1.356 . S
N4546 C4538 1.356 . S
N4546 H4552 0.984 . S
N4546 H4553 0.984 . S
N4547 C4540 1.356 . S
N4547 H4550 0.984 . S
N4547 H4551 0.985 . S
H4548 N4543 0.984 . S
H4549 N4543 0.985 . S
H4550 N4547 0.984 . S
H4551 N4547 0.985 . S
H4552 N4546 0.984 . S
H4553 N4546 0.984 . S
H4554 N4542 0.984 . S
H4555 N4542 0.985 . S
C4556 C4557 1.363 . S
C4556 C4562 1.379 . S
C4556 N4564 1.356 . S
C4557 C4556 1.363 . S
C4557 C4563 1.363 . S
C4558 C4559 1.363 . S
C4558 C4563 1.379 . S
C4558 N4565 1.356 . S
C4559 C4558 1.363 . S
C4559 C4562 1.363 . S
N4560 C4562 1.356 . S
N4560 H4572 0.984 . S
N4560 H4573 0.985 . S
N4561 C4563 1.356 . S
N4561 H4566 0.984 . S
N4561 H4567 0.985 . S
C4562 C4556 1.379 . S
C4562 C4559 1.363 . S
C4562 N4560 1.356 . S
C4563 C4557 1.363 . S
C4563 C4558 1.379 . S
C4563 N4561 1.356 . S
N4564 C4556 1.356 . S
N4564 H4570 0.984 . S
N4564 H4571 0.984 . S
N4565 C4558 1.356 . S
N4565 H4568 0.984 . S
N4565 H4569 0.985 . S
H4566 N4561 0.984 . S
H4567 N4561 0.985 . S
H4568 N4565 0.984 . S
H4569 N4565 0.985 . S
H4570 N4564 0.984 . S
H4571 N4564 0.984 . S
H4572 N4560 0.984 . S
H4573 N4560 0.985 . S
C4574 C4575 1.363 . S
C4574 C4580 1.379 . S
C4574 N4582 1.356 . S
C4575 C4574 1.363 . S
C4575 C4581 1.363 . S
C4576 C4577 1.363 . S
C4576 C4581 1.379 . S
C4576 N4583 1.356 . S
C4577 C4576 1.363 . S
C4577 C4580 1.363 . S
N4578 C4580 1.356 . S
N4578 H4590 0.984 . S
N4578 H4591 0.985 . S
N4579 C4581 1.356 . S
N4579 H4584 0.984 . S
N4579 H4585 0.985 . S
C4580 C4574 1.379 . S
C4580 C4577 1.363 . S
C4580 N4578 1.356 . S
C4581 C4575 1.363 . S
C4581 C4576 1.379 . S
C4581 N4579 1.356 . S
N4582 C4574 1.356 . S
N4582 H4588 0.984 . S
N4582 H4589 0.984 . S
N4583 C4576 1.356 . S
N4583 H4586 0.984 . S
N4583 H4587 0.985 . S
H4584 N4579 0.984 . S
H4585 N4579 0.985 . S
H4586 N4583 0.984 . S
H4587 N4583 0.985 . S
H4588 N4582 0.984 . S
H4589 N4582 0.984 . S
H4590 N4578 0.984 . S
H4591 N4578 0.985 . S
C4592 C4593 1.363 . S
C4592 C4598 1.379 . S
C4592 N4600 1.356 . S
C4593 C4592 1.363 . S
C4593 C4599 1.363 . S
C4594 C4595 1.363 . S
C4594 C4599 1.379 . S
C4594 N4601 1.356 . S
C4595 C4594 1.363 . S
C4595 C4598 1.363 . S
N4596 C4598 1.356 . S
N4596 H4608 0.984 . S
N4596 H4609 0.985 . S
N4597 C4599 1.356 . S
N4597 H4602 0.984 . S
N4597 H4603 0.985 . S
C4598 C4592 1.379 . S
C4598 C4595 1.363 . S
C4598 N4596 1.356 . S
C4599 C4593 1.363 . S
C4599 C4594 1.379 . S
C4599 N4597 1.356 . S
N4600 C4592 1.356 . S
N4600 H4606 0.984 . S
N4600 H4607 0.984 . S
N4601 C4594 1.356 . S
N4601 H4604 0.984 . S
N4601 H4605 0.985 . S
H4602 N4597 0.984 . S
H4603 N4597 0.985 . S
H4604 N4601 0.984 . S
H4605 N4601 0.985 . S
H4606 N4600 0.984 . S
H4607 N4600 0.984 . S
H4608 N4596 0.984 . S
H4609 N4596 0.985 . S
C4610 C4611 1.363 . S
C4610 C4616 1.379 . S
C4610 N4618 1.356 . S
C4611 C4610 1.363 . S
C4611 C4617 1.363 . S
C4612 C4613 1.363 . S
C4612 C4617 1.379 . S
C4612 N4619 1.356 . S
C4613 C4612 1.363 . S
C4613 C4616 1.363 . S
N4614 C4616 1.356 . S
N4614 H4626 0.984 . S
N4614 H4627 0.985 . S
N4615 C4617 1.356 . S
N4615 H4620 0.984 . S
N4615 H4621 0.985 . S
C4616 C4610 1.379 . S
C4616 C4613 1.363 . S
C4616 N4614 1.356 . S
C4617 C4611 1.363 . S
C4617 C4612 1.379 . S
C4617 N4615 1.356 . S
N4618 C4610 1.356 . S
N4618 H4624 0.984 . S
N4618 H4625 0.984 . S
N4619 C4612 1.356 . S
N4619 H4622 0.984 . S
N4619 H4623 0.985 . S
H4620 N4615 0.984 . S
H4621 N4615 0.985 . S
H4622 N4619 0.984 . S
H4623 N4619 0.985 . S
H4624 N4618 0.984 . S
H4625 N4618 0.984 . S
H4626 N4614 0.984 . S
H4627 N4614 0.985 . S
C4628 C4629 1.363 . S
C4628 C4634 1.379 . S
C4628 N4636 1.356 . S
C4629 C4628 1.363 . S
C4629 C4635 1.363 . S
C4630 C4631 1.363 . S
C4630 C4635 1.379 . S
C4630 N4637 1.356 . S
C4631 C4630 1.363 . S
C4631 C4634 1.363 . S
N4632 C4634 1.356 . S
N4632 H4644 0.984 . S
N4632 H4645 0.985 . S
N4633 C4635 1.356 . S
N4633 H4638 0.984 . S
N4633 H4639 0.985 . S
C4634 C4628 1.379 . S
C4634 C4631 1.363 . S
C4634 N4632 1.356 . S
C4635 C4629 1.363 . S
C4635 C4630 1.379 . S
C4635 N4633 1.356 . S
N4636 C4628 1.356 . S
N4636 H4642 0.984 . S
N4636 H4643 0.984 . S
N4637 C4630 1.356 . S
N4637 H4640 0.984 . S
N4637 H4641 0.985 . S
H4638 N4633 0.984 . S
H4639 N4633 0.985 . S
H4640 N4637 0.984 . S
H4641 N4637 0.985 . S
H4642 N4636 0.984 . S
H4643 N4636 0.984 . S
H4644 N4632 0.984 . S
H4645 N4632 0.985 . S
C4646 C4647 1.363 . S
C4646 C4652 1.379 . S
C4646 N4654 1.356 . S
C4647 C4646 1.363 . S
C4647 C4653 1.363 . S
C4648 C4649 1.363 . S
C4648 C4653 1.379 . S
C4648 N4655 1.356 . S
C4649 C4648 1.363 . S
C4649 C4652 1.363 . S
N4650 C4652 1.356 . S
N4650 H4662 0.984 . S
N4650 H4663 0.985 . S
N4651 C4653 1.356 . S
N4651 H4656 0.984 . S
N4651 H4657 0.985 . S
C4652 C4646 1.379 . S
C4652 C4649 1.363 . S
C4652 N4650 1.356 . S
C4653 C4647 1.363 . S
C4653 C4648 1.379 . S
C4653 N4651 1.356 . S
N4654 C4646 1.356 . S
N4654 H4660 0.984 . S
N4654 H4661 0.984 . S
N4655 C4648 1.356 . S
N4655 H4658 0.984 . S
N4655 H4659 0.985 . S
H4656 N4651 0.984 . S
H4657 N4651 0.985 . S
H4658 N4655 0.984 . S
H4659 N4655 0.985 . S
H4660 N4654 0.984 . S
H4661 N4654 0.984 . S
H4662 N4650 0.984 . S
H4663 N4650 0.985 . S
C4664 C4665 1.363 . S
C4664 C4670 1.379 . S
C4664 N4672 1.356 . S
C4665 C4664 1.363 . S
C4665 C4671 1.363 . S
C4666 C4667 1.363 . S
C4666 C4671 1.379 . S
C4666 N4673 1.356 . S
C4667 C4666 1.363 . S
C4667 C4670 1.363 . S
N4668 C4670 1.356 . S
N4668 H4680 0.984 . S
N4668 H4681 0.985 . S
N4669 C4671 1.356 . S
N4669 H4674 0.984 . S
N4669 H4675 0.985 . S
C4670 C4664 1.379 . S
C4670 C4667 1.363 . S
C4670 N4668 1.356 . S
C4671 C4665 1.363 . S
C4671 C4666 1.379 . S
C4671 N4669 1.356 . S
N4672 C4664 1.356 . S
N4672 H4678 0.984 . S
N4672 H4679 0.984 . S
N4673 C4666 1.356 . S
N4673 H4676 0.984 . S
N4673 H4677 0.985 . S
H4674 N4669 0.984 . S
H4675 N4669 0.985 . S
H4676 N4673 0.984 . S
H4677 N4673 0.985 . S
H4678 N4672 0.984 . S
H4679 N4672 0.984 . S
H4680 N4668 0.984 . S
H4681 N4668 0.985 . S
C4682 C4683 1.363 . S
C4682 C4688 1.379 . S
C4682 N4690 1.356 . S
C4683 C4682 1.363 . S
C4683 C4689 1.363 . S
C4684 C4685 1.363 . S
C4684 C4689 1.379 . S
C4684 N4691 1.356 . S
C4685 C4684 1.363 . S
C4685 C4688 1.363 . S
N4686 C4688 1.356 . S
N4686 H4698 0.984 . S
N4686 H4699 0.985 . S
N4687 C4689 1.356 . S
N4687 H4692 0.984 . S
N4687 H4693 0.985 . S
C4688 C4682 1.379 . S
C4688 C4685 1.363 . S
C4688 N4686 1.356 . S
C4689 C4683 1.363 . S
C4689 C4684 1.379 . S
C4689 N4687 1.356 . S
N4690 C4682 1.356 . S
N4690 H4696 0.984 . S
N4690 H4697 0.984 . S
N4691 C4684 1.356 . S
N4691 H4694 0.984 . S
N4691 H4695 0.985 . S
H4692 N4687 0.984 . S
H4693 N4687 0.985 . S
H4694 N4691 0.984 . S
H4695 N4691 0.985 . S
H4696 N4690 0.984 . S
H4697 N4690 0.984 . S
H4698 N4686 0.984 . S
H4699 N4686 0.985 . S
C4700 C4701 1.363 . S
C4700 C4706 1.379 . S
C4700 N4708 1.356 . S
C4701 C4700 1.363 . S
C4701 C4707 1.363 . S
C4702 C4703 1.363 . S
C4702 C4707 1.379 . S
C4702 N4709 1.356 . S
C4703 C4702 1.363 . S
C4703 C4706 1.363 . S
N4704 C4706 1.356 . S
N4704 H4716 0.984 . S
N4704 H4717 0.985 . S
N4705 C4707 1.356 . S
N4705 H4710 0.984 . S
N4705 H4711 0.985 . S
C4706 C4700 1.379 . S
C4706 C4703 1.363 . S
C4706 N4704 1.356 . S
C4707 C4701 1.363 . S
C4707 C4702 1.379 . S
C4707 N4705 1.356 . S
N4708 C4700 1.356 . S
N4708 H4714 0.984 . S
N4708 H4715 0.984 . S
N4709 C4702 1.356 . S
N4709 H4712 0.984 . S
N4709 H4713 0.985 . S
H4710 N4705 0.984 . S
H4711 N4705 0.985 . S
H4712 N4709 0.984 . S
H4713 N4709 0.985 . S
H4714 N4708 0.984 . S
H4715 N4708 0.984 . S
H4716 N4704 0.984 . S
H4717 N4704 0.985 . S
C4718 C4719 1.363 . S
C4718 C4724 1.379 . S
C4718 N4726 1.356 . S
C4719 C4718 1.363 . S
C4719 C4725 1.363 . S
C4720 C4721 1.363 . S
C4720 C4725 1.379 . S
C4720 N4727 1.356 . S
C4721 C4720 1.363 . S
C4721 C4724 1.363 . S
N4722 C4724 1.356 . S
N4722 H4734 0.984 . S
N4722 H4735 0.985 . S
N4723 C4725 1.356 . S
N4723 H4728 0.984 . S
N4723 H4729 0.985 . S
C4724 C4718 1.379 . S
C4724 C4721 1.363 . S
C4724 N4722 1.356 . S
C4725 C4719 1.363 . S
C4725 C4720 1.379 . S
C4725 N4723 1.356 . S
N4726 C4718 1.356 . S
N4726 H4732 0.984 . S
N4726 H4733 0.984 . S
N4727 C4720 1.356 . S
N4727 H4730 0.984 . S
N4727 H4731 0.985 . S
H4728 N4723 0.984 . S
H4729 N4723 0.985 . S
H4730 N4727 0.984 . S
H4731 N4727 0.985 . S
H4732 N4726 0.984 . S
H4733 N4726 0.984 . S
H4734 N4722 0.984 . S
H4735 N4722 0.985 . S
C4736 C4737 1.363 . S
C4736 C4742 1.379 . S
C4736 N4744 1.356 . S
C4737 C4736 1.363 . S
C4737 C4743 1.363 . S
C4738 C4739 1.363 . S
C4738 C4743 1.379 . S
C4738 N4745 1.356 . S
C4739 C4738 1.363 . S
C4739 C4742 1.363 . S
N4740 C4742 1.356 . S
N4740 H4752 0.984 . S
N4740 H4753 0.985 . S
N4741 C4743 1.356 . S
N4741 H4746 0.984 . S
N4741 H4747 0.985 . S
C4742 C4736 1.379 . S
C4742 C4739 1.363 . S
C4742 N4740 1.356 . S
C4743 C4737 1.363 . S
C4743 C4738 1.379 . S
C4743 N4741 1.356 . S
N4744 C4736 1.356 . S
N4744 H4750 0.984 . S
N4744 H4751 0.984 . S
N4745 C4738 1.356 . S
N4745 H4748 0.984 . S
N4745 H4749 0.985 . S
H4746 N4741 0.984 . S
H4747 N4741 0.985 . S
H4748 N4745 0.984 . S
H4749 N4745 0.985 . S
H4750 N4744 0.984 . S
H4751 N4744 0.984 . S
H4752 N4740 0.984 . S
H4753 N4740 0.985 . S
C4754 C4755 1.363 . S
C4754 C4760 1.379 . S
C4754 N4762 1.356 . S
C4755 C4754 1.363 . S
C4755 C4761 1.363 . S
C4756 C4757 1.363 . S
C4756 C4761 1.379 . S
C4756 N4763 1.356 . S
C4757 C4756 1.363 . S
C4757 C4760 1.363 . S
N4758 C4760 1.356 . S
N4758 H4770 0.984 . S
N4758 H4771 0.985 . S
N4759 C4761 1.356 . S
N4759 H4764 0.984 . S
N4759 H4765 0.985 . S
C4760 C4754 1.379 . S
C4760 C4757 1.363 . S
C4760 N4758 1.356 . S
C4761 C4755 1.363 . S
C4761 C4756 1.379 . S
C4761 N4759 1.356 . S
N4762 C4754 1.356 . S
N4762 H4768 0.984 . S
N4762 H4769 0.984 . S
N4763 C4756 1.356 . S
N4763 H4766 0.984 . S
N4763 H4767 0.985 . S
H4764 N4759 0.984 . S
H4765 N4759 0.985 . S
H4766 N4763 0.984 . S
H4767 N4763 0.985 . S
H4768 N4762 0.984 . S
H4769 N4762 0.984 . S
H4770 N4758 0.984 . S
H4771 N4758 0.985 . S
C4772 C4773 1.363 . S
C4772 C4778 1.379 . S
C4772 N4780 1.356 . S
C4773 C4772 1.363 . S
C4773 C4779 1.363 . S
C4774 C4775 1.363 . S
C4774 C4779 1.379 . S
C4774 N4781 1.356 . S
C4775 C4774 1.363 . S
C4775 C4778 1.363 . S
N4776 C4778 1.356 . S
N4776 H4788 0.984 . S
N4776 H4789 0.985 . S
N4777 C4779 1.356 . S
N4777 H4782 0.984 . S
N4777 H4783 0.985 . S
C4778 C4772 1.379 . S
C4778 C4775 1.363 . S
C4778 N4776 1.356 . S
C4779 C4773 1.363 . S
C4779 C4774 1.379 . S
C4779 N4777 1.356 . S
N4780 C4772 1.356 . S
N4780 H4786 0.984 . S
N4780 H4787 0.984 . S
N4781 C4774 1.356 . S
N4781 H4784 0.984 . S
N4781 H4785 0.985 . S
H4782 N4777 0.984 . S
H4783 N4777 0.985 . S
H4784 N4781 0.984 . S
H4785 N4781 0.985 . S
H4786 N4780 0.984 . S
H4787 N4780 0.984 . S
H4788 N4776 0.984 . S
H4789 N4776 0.985 . S
C4790 C4791 1.363 . S
C4790 C4796 1.379 . S
C4790 N4798 1.356 . S
C4791 C4790 1.363 . S
C4791 C4797 1.363 . S
C4792 C4793 1.363 . S
C4792 C4797 1.379 . S
C4792 N4799 1.356 . S
C4793 C4792 1.363 . S
C4793 C4796 1.363 . S
N4794 C4796 1.356 . S
N4794 H4806 0.984 . S
N4794 H4807 0.985 . S
N4795 C4797 1.356 . S
N4795 H4800 0.984 . S
N4795 H4801 0.985 . S
C4796 C4790 1.379 . S
C4796 C4793 1.363 . S
C4796 N4794 1.356 . S
C4797 C4791 1.363 . S
C4797 C4792 1.379 . S
C4797 N4795 1.356 . S
N4798 C4790 1.356 . S
N4798 H4804 0.984 . S
N4798 H4805 0.984 . S
N4799 C4792 1.356 . S
N4799 H4802 0.984 . S
N4799 H4803 0.985 . S
H4800 N4795 0.984 . S
H4801 N4795 0.985 . S
H4802 N4799 0.984 . S
H4803 N4799 0.985 . S
H4804 N4798 0.984 . S
H4805 N4798 0.984 . S
H4806 N4794 0.984 . S
H4807 N4794 0.985 . S
C4808 C4809 1.363 . S
C4808 C4814 1.379 . S
C4808 N4816 1.356 . S
C4809 C4808 1.363 . S
C4809 C4815 1.363 . S
C4810 C4811 1.363 . S
C4810 C4815 1.379 . S
C4810 N4817 1.356 . S
C4811 C4810 1.363 . S
C4811 C4814 1.363 . S
N4812 C4814 1.356 . S
N4812 H4824 0.984 . S
N4812 H4825 0.985 . S
N4813 C4815 1.356 . S
N4813 H4818 0.984 . S
N4813 H4819 0.985 . S
C4814 C4808 1.379 . S
C4814 C4811 1.363 . S
C4814 N4812 1.356 . S
C4815 C4809 1.363 . S
C4815 C4810 1.379 . S
C4815 N4813 1.356 . S
N4816 C4808 1.356 . S
N4816 H4822 0.984 . S
N4816 H4823 0.984 . S
N4817 C4810 1.356 . S
N4817 H4820 0.984 . S
N4817 H4821 0.985 . S
H4818 N4813 0.984 . S
H4819 N4813 0.985 . S
H4820 N4817 0.984 . S
H4821 N4817 0.985 . S
H4822 N4816 0.984 . S
H4823 N4816 0.984 . S
H4824 N4812 0.984 . S
H4825 N4812 0.985 . S
C4826 C4827 1.363 . S
C4826 C4832 1.379 . S
C4826 N4834 1.356 . S
C4827 C4826 1.363 . S
C4827 C4833 1.363 . S
C4828 C4829 1.363 . S
C4828 C4833 1.379 . S
C4828 N4835 1.356 . S
C4829 C4828 1.363 . S
C4829 C4832 1.363 . S
N4830 C4832 1.356 . S
N4830 H4842 0.984 . S
N4830 H4843 0.985 . S
N4831 C4833 1.356 . S
N4831 H4836 0.984 . S
N4831 H4837 0.985 . S
C4832 C4826 1.379 . S
C4832 C4829 1.363 . S
C4832 N4830 1.356 . S
C4833 C4827 1.363 . S
C4833 C4828 1.379 . S
C4833 N4831 1.356 . S
N4834 C4826 1.356 . S
N4834 H4840 0.984 . S
N4834 H4841 0.984 . S
N4835 C4828 1.356 . S
N4835 H4838 0.984 . S
N4835 H4839 0.985 . S
H4836 N4831 0.984 . S
H4837 N4831 0.985 . S
H4838 N4835 0.984 . S
H4839 N4835 0.985 . S
H4840 N4834 0.984 . S
H4841 N4834 0.984 . S
H4842 N4830 0.984 . S
H4843 N4830 0.985 . S
C4844 C4845 1.363 . S
C4844 C4850 1.379 . S
C4844 N4852 1.356 . S
C4845 C4844 1.363 . S
C4845 C4851 1.363 . S
C4846 C4847 1.363 . S
C4846 C4851 1.379 . S
C4846 N4853 1.356 . S
C4847 C4846 1.363 . S
C4847 C4850 1.363 . S
N4848 C4850 1.356 . S
N4848 H4860 0.984 . S
N4848 H4861 0.985 . S
N4849 C4851 1.356 . S
N4849 H4854 0.984 . S
N4849 H4855 0.985 . S
C4850 C4844 1.379 . S
C4850 C4847 1.363 . S
C4850 N4848 1.356 . S
C4851 C4845 1.363 . S
C4851 C4846 1.379 . S
C4851 N4849 1.356 . S
N4852 C4844 1.356 . S
N4852 H4858 0.984 . S
N4852 H4859 0.984 . S
N4853 C4846 1.356 . S
N4853 H4856 0.984 . S
N4853 H4857 0.985 . S
H4854 N4849 0.984 . S
H4855 N4849 0.985 . S
H4856 N4853 0.984 . S
H4857 N4853 0.985 . S
H4858 N4852 0.984 . S
H4859 N4852 0.984 . S
H4860 N4848 0.984 . S
H4861 N4848 0.985 . S
C4862 C4863 1.363 . S
C4862 C4868 1.379 . S
C4862 N4870 1.356 . S
C4863 C4862 1.363 . S
C4863 C4869 1.363 . S
C4864 C4865 1.363 . S
C4864 C4869 1.379 . S
C4864 N4871 1.356 . S
C4865 C4864 1.363 . S
C4865 C4868 1.363 . S
N4866 C4868 1.356 . S
N4866 H4878 0.984 . S
N4866 H4879 0.985 . S
N4867 C4869 1.356 . S
N4867 H4872 0.984 . S
N4867 H4873 0.985 . S
C4868 C4862 1.379 . S
C4868 C4865 1.363 . S
C4868 N4866 1.356 . S
C4869 C4863 1.363 . S
C4869 C4864 1.379 . S
C4869 N4867 1.356 . S
N4870 C4862 1.356 . S
N4870 H4876 0.984 . S
N4870 H4877 0.984 . S
N4871 C4864 1.356 . S
N4871 H4874 0.984 . S
N4871 H4875 0.985 . S
H4872 N4867 0.984 . S
H4873 N4867 0.985 . S
H4874 N4871 0.984 . S
H4875 N4871 0.985 . S
H4876 N4870 0.984 . S
H4877 N4870 0.984 . S
H4878 N4866 0.984 . S
H4879 N4866 0.985 . S
C4880 C4881 1.363 . S
C4880 C4886 1.379 . S
C4880 N4888 1.356 . S
C4881 C4880 1.363 . S
C4881 C4887 1.363 . S
C4882 C4883 1.363 . S
C4882 C4887 1.379 . S
C4882 N4889 1.356 . S
C4883 C4882 1.363 . S
C4883 C4886 1.363 . S
N4884 C4886 1.356 . S
N4884 H4896 0.984 . S
N4884 H4897 0.985 . S
N4885 C4887 1.356 . S
N4885 H4890 0.984 . S
N4885 H4891 0.985 . S
C4886 C4880 1.379 . S
C4886 C4883 1.363 . S
C4886 N4884 1.356 . S
C4887 C4881 1.363 . S
C4887 C4882 1.379 . S
C4887 N4885 1.356 . S
N4888 C4880 1.356 . S
N4888 H4894 0.984 . S
N4888 H4895 0.984 . S
N4889 C4882 1.356 . S
N4889 H4892 0.984 . S
N4889 H4893 0.985 . S
H4890 N4885 0.984 . S
H4891 N4885 0.985 . S
H4892 N4889 0.984 . S
H4893 N4889 0.985 . S
H4894 N4888 0.984 . S
H4895 N4888 0.984 . S
H4896 N4884 0.984 . S
H4897 N4884 0.985 . S
C4898 C4899 1.363 . S
C4898 C4904 1.379 . S
C4898 N4906 1.356 . S
C4899 C4898 1.363 . S
C4899 C4905 1.363 . S
C4900 C4901 1.363 . S
C4900 C4905 1.379 . S
C4900 N4907 1.356 . S
C4901 C4900 1.363 . S
C4901 C4904 1.363 . S
N4902 C4904 1.356 . S
N4902 H4914 0.984 . S
N4902 H4915 0.985 . S
N4903 C4905 1.356 . S
N4903 H4908 0.984 . S
N4903 H4909 0.985 . S
C4904 C4898 1.379 . S
C4904 C4901 1.363 . S
C4904 N4902 1.356 . S
C4905 C4899 1.363 . S
C4905 C4900 1.379 . S
C4905 N4903 1.356 . S
N4906 C4898 1.356 . S
N4906 H4912 0.984 . S
N4906 H4913 0.984 . S
N4907 C4900 1.356 . S
N4907 H4910 0.984 . S
N4907 H4911 0.985 . S
H4908 N4903 0.984 . S
H4909 N4903 0.985 . S
H4910 N4907 0.984 . S
H4911 N4907 0.985 . S
H4912 N4906 0.984 . S
H4913 N4906 0.984 . S
H4914 N4902 0.984 . S
H4915 N4902 0.985 . S
C4916 C4917 1.363 . S
C4916 C4922 1.379 . S
C4916 N4924 1.356 . S
C4917 C4916 1.363 . S
C4917 C4923 1.363 . S
C4918 C4919 1.363 . S
C4918 C4923 1.379 . S
C4918 N4925 1.356 . S
C4919 C4918 1.363 . S
C4919 C4922 1.363 . S
N4920 C4922 1.356 . S
N4920 H4932 0.984 . S
N4920 H4933 0.985 . S
N4921 C4923 1.356 . S
N4921 H4926 0.984 . S
N4921 H4927 0.985 . S
C4922 C4916 1.379 . S
C4922 C4919 1.363 . S
C4922 N4920 1.356 . S
C4923 C4917 1.363 . S
C4923 C4918 1.379 . S
C4923 N4921 1.356 . S
N4924 C4916 1.356 . S
N4924 H4930 0.984 . S
N4924 H4931 0.984 . S
N4925 C4918 1.356 . S
N4925 H4928 0.984 . S
N4925 H4929 0.985 . S
H4926 N4921 0.984 . S
H4927 N4921 0.985 . S
H4928 N4925 0.984 . S
H4929 N4925 0.985 . S
H4930 N4924 0.984 . S
H4931 N4924 0.984 . S
H4932 N4920 0.984 . S
H4933 N4920 0.985 . S
C4934 C4935 1.363 . S
C4934 C4940 1.379 . S
C4934 N4942 1.356 . S
C4935 C4934 1.363 . S
C4935 C4941 1.363 . S
C4936 C4937 1.363 . S
C4936 C4941 1.379 . S
C4936 N4943 1.356 . S
C4937 C4936 1.363 . S
C4937 C4940 1.363 . S
N4938 C4940 1.356 . S
N4938 H4950 0.984 . S
N4938 H4951 0.985 . S
N4939 C4941 1.356 . S
N4939 H4944 0.984 . S
N4939 H4945 0.985 . S
C4940 C4934 1.379 . S
C4940 C4937 1.363 . S
C4940 N4938 1.356 . S
C4941 C4935 1.363 . S
C4941 C4936 1.379 . S
C4941 N4939 1.356 . S
N4942 C4934 1.356 . S
N4942 H4948 0.984 . S
N4942 H4949 0.984 . S
N4943 C4936 1.356 . S
N4943 H4946 0.984 . S
N4943 H4947 0.985 . S
H4944 N4939 0.984 . S
H4945 N4939 0.985 . S
H4946 N4943 0.984 . S
H4947 N4943 0.985 . S
H4948 N4942 0.984 . S
H4949 N4942 0.984 . S
H4950 N4938 0.984 . S
H4951 N4938 0.985 . S
C4952 C4953 1.363 . S
C4952 C4958 1.379 . S
C4952 N4960 1.356 . S
C4953 C4952 1.363 . S
C4953 C4959 1.363 . S
C4954 C4955 1.363 . S
C4954 C4959 1.379 . S
C4954 N4961 1.356 . S
C4955 C4954 1.363 . S
C4955 C4958 1.363 . S
N4956 C4958 1.356 . S
N4956 H4968 0.984 . S
N4956 H4969 0.985 . S
N4957 C4959 1.356 . S
N4957 H4962 0.984 . S
N4957 H4963 0.985 . S
C4958 C4952 1.379 . S
C4958 C4955 1.363 . S
C4958 N4956 1.356 . S
C4959 C4953 1.363 . S
C4959 C4954 1.379 . S
C4959 N4957 1.356 . S
N4960 C4952 1.356 . S
N4960 H4966 0.984 . S
N4960 H4967 0.984 . S
N4961 C4954 1.356 . S
N4961 H4964 0.984 . S
N4961 H4965 0.985 . S
H4962 N4957 0.984 . S
H4963 N4957 0.985 . S
H4964 N4961 0.984 . S
H4965 N4961 0.985 . S
H4966 N4960 0.984 . S
H4967 N4960 0.984 . S
H4968 N4956 0.984 . S
H4969 N4956 0.985 . S
C4970 C4971 1.363 . S
C4970 C4976 1.379 . S
C4970 N4978 1.356 . S
C4971 C4970 1.363 . S
C4971 C4977 1.363 . S
C4972 C4973 1.363 . S
C4972 C4977 1.379 . S
C4972 N4979 1.356 . S
C4973 C4972 1.363 . S
C4973 C4976 1.363 . S
N4974 C4976 1.356 . S
N4974 H4986 0.984 . S
N4974 H4987 0.985 . S
N4975 C4977 1.356 . S
N4975 H4980 0.984 . S
N4975 H4981 0.985 . S
C4976 C4970 1.379 . S
C4976 C4973 1.363 . S
C4976 N4974 1.356 . S
C4977 C4971 1.363 . S
C4977 C4972 1.379 . S
C4977 N4975 1.356 . S
N4978 C4970 1.356 . S
N4978 H4984 0.984 . S
N4978 H4985 0.984 . S
N4979 C4972 1.356 . S
N4979 H4982 0.984 . S
N4979 H4983 0.985 . S
H4980 N4975 0.984 . S
H4981 N4975 0.985 . S
H4982 N4979 0.984 . S
H4983 N4979 0.985 . S
H4984 N4978 0.984 . S
H4985 N4978 0.984 . S
H4986 N4974 0.984 . S
H4987 N4974 0.985 . S
C4988 C4989 1.363 . S
C4988 C4994 1.379 . S
C4988 N4996 1.356 . S
C4989 C4988 1.363 . S
C4989 C4995 1.363 . S
C4990 C4991 1.363 . S
C4990 C4995 1.379 . S
C4990 N4997 1.356 . S
C4991 C4990 1.363 . S
C4991 C4994 1.363 . S
N4992 C4994 1.356 . S
N4992 H5004 0.984 . S
N4992 H5005 0.985 . S
N4993 C4995 1.356 . S
N4993 H4998 0.984 . S
N4993 H4999 0.985 . S
C4994 C4988 1.379 . S
C4994 C4991 1.363 . S
C4994 N4992 1.356 . S
C4995 C4989 1.363 . S
C4995 C4990 1.379 . S
C4995 N4993 1.356 . S
N4996 C4988 1.356 . S
N4996 H5002 0.984 . S
N4996 H5003 0.984 . S
N4997 C4990 1.356 . S
N4997 H5000 0.984 . S
N4997 H5001 0.985 . S
H4998 N4993 0.984 . S
H4999 N4993 0.985 . S
H5000 N4997 0.984 . S
H5001 N4997 0.985 . S
H5002 N4996 0.984 . S
H5003 N4996 0.984 . S
H5004 N4992 0.984 . S
H5005 N4992 0.985 . S
C5006 C5007 1.363 . S
C5006 C5012 1.379 . S
C5006 N5014 1.356 . S
C5007 C5006 1.363 . S
C5007 C5013 1.363 . S
C5008 C5009 1.363 . S
C5008 C5013 1.379 . S
C5008 N5015 1.356 . S
C5009 C5008 1.363 . S
C5009 C5012 1.363 . S
N5010 C5012 1.356 . S
N5010 H5022 0.984 . S
N5010 H5023 0.985 . S
N5011 C5013 1.356 . S
N5011 H5016 0.984 . S
N5011 H5017 0.985 . S
C5012 C5006 1.379 . S
C5012 C5009 1.363 . S
C5012 N5010 1.356 . S
C5013 C5007 1.363 . S
C5013 C5008 1.379 . S
C5013 N5011 1.356 . S
N5014 C5006 1.356 . S
N5014 H5020 0.984 . S
N5014 H5021 0.984 . S
N5015 C5008 1.356 . S
N5015 H5018 0.984 . S
N5015 H5019 0.985 . S
H5016 N5011 0.984 . S
H5017 N5011 0.985 . S
H5018 N5015 0.984 . S
H5019 N5015 0.985 . S
H5020 N5014 0.984 . S
H5021 N5014 0.984 . S
H5022 N5010 0.984 . S
H5023 N5010 0.985 . S
C5024 C5025 1.363 . S
C5024 C5030 1.379 . S
C5024 N5032 1.356 . S
C5025 C5024 1.363 . S
C5025 C5031 1.363 . S
C5026 C5027 1.363 . S
C5026 C5031 1.379 . S
C5026 N5033 1.356 . S
C5027 C5026 1.363 . S
C5027 C5030 1.363 . S
N5028 C5030 1.356 . S
N5028 H5040 0.984 . S
N5028 H5041 0.985 . S
N5029 C5031 1.356 . S
N5029 H5034 0.984 . S
N5029 H5035 0.985 . S
C5030 C5024 1.379 . S
C5030 C5027 1.363 . S
C5030 N5028 1.356 . S
C5031 C5025 1.363 . S
C5031 C5026 1.379 . S
C5031 N5029 1.356 . S
N5032 C5024 1.356 . S
N5032 H5038 0.984 . S
N5032 H5039 0.984 . S
N5033 C5026 1.356 . S
N5033 H5036 0.984 . S
N5033 H5037 0.985 . S
H5034 N5029 0.984 . S
H5035 N5029 0.985 . S
H5036 N5033 0.984 . S
H5037 N5033 0.985 . S
H5038 N5032 0.984 . S
H5039 N5032 0.984 . S
H5040 N5028 0.984 . S
H5041 N5028 0.985 . S
C5042 C5043 1.363 . S
C5042 C5048 1.379 . S
C5042 N5050 1.356 . S
C5043 C5042 1.363 . S
C5043 C5049 1.363 . S
C5044 C5045 1.363 . S
C5044 C5049 1.379 . S
C5044 N5051 1.356 . S
C5045 C5044 1.363 . S
C5045 C5048 1.363 . S
N5046 C5048 1.356 . S
N5046 H5058 0.984 . S
N5046 H5059 0.985 . S
N5047 C5049 1.356 . S
N5047 H5052 0.984 . S
N5047 H5053 0.985 . S
C5048 C5042 1.379 . S
C5048 C5045 1.363 . S
C5048 N5046 1.356 . S
C5049 C5043 1.363 . S
C5049 C5044 1.379 . S
C5049 N5047 1.356 . S
N5050 C5042 1.356 . S
N5050 H5056 0.984 . S
N5050 H5057 0.984 . S
N5051 C5044 1.356 . S
N5051 H5054 0.984 . S
N5051 H5055 0.985 . S
H5052 N5047 0.984 . S
H5053 N5047 0.985 . S
H5054 N5051 0.984 . S
H5055 N5051 0.985 . S
H5056 N5050 0.984 . S
H5057 N5050 0.984 . S
H5058 N5046 0.984 . S
H5059 N5046 0.985 . S
C5060 C5061 1.363 . S
C5060 C5066 1.379 . S
C5060 N5068 1.356 . S
C5061 C5060 1.363 . S
C5061 C5067 1.363 . S
C5062 C5063 1.363 . S
C5062 C5067 1.379 . S
C5062 N5069 1.356 . S
C5063 C5062 1.363 . S
C5063 C5066 1.363 . S
N5064 C5066 1.356 . S
N5064 H5076 0.984 . S
N5064 H5077 0.985 . S
N5065 C5067 1.356 . S
N5065 H5070 0.984 . S
N5065 H5071 0.985 . S
C5066 C5060 1.379 . S
C5066 C5063 1.363 . S
C5066 N5064 1.356 . S
C5067 C5061 1.363 . S
C5067 C5062 1.379 . S
C5067 N5065 1.356 . S
N5068 C5060 1.356 . S
N5068 H5074 0.984 . S
N5068 H5075 0.984 . S
N5069 C5062 1.356 . S
N5069 H5072 0.984 . S
N5069 H5073 0.985 . S
H5070 N5065 0.984 . S
H5071 N5065 0.985 . S
H5072 N5069 0.984 . S
H5073 N5069 0.985 . S
H5074 N5068 0.984 . S
H5075 N5068 0.984 . S
H5076 N5064 0.984 . S
H5077 N5064 0.985 . S
C5078 C5079 1.363 . S
C5078 C5084 1.379 . S
C5078 N5086 1.356 . S
C5079 C5078 1.363 . S
C5079 C5085 1.363 . S
C5080 C5081 1.363 . S
C5080 C5085 1.379 . S
C5080 N5087 1.356 . S
C5081 C5080 1.363 . S
C5081 C5084 1.363 . S
N5082 C5084 1.356 . S
N5082 H5094 0.984 . S
N5082 H5095 0.985 . S
N5083 C5085 1.356 . S
N5083 H5088 0.984 . S
N5083 H5089 0.985 . S
C5084 C5078 1.379 . S
C5084 C5081 1.363 . S
C5084 N5082 1.356 . S
C5085 C5079 1.363 . S
C5085 C5080 1.379 . S
C5085 N5083 1.356 . S
N5086 C5078 1.356 . S
N5086 H5092 0.984 . S
N5086 H5093 0.984 . S
N5087 C5080 1.356 . S
N5087 H5090 0.984 . S
N5087 H5091 0.985 . S
H5088 N5083 0.984 . S
H5089 N5083 0.985 . S
H5090 N5087 0.984 . S
H5091 N5087 0.985 . S
H5092 N5086 0.984 . S
H5093 N5086 0.984 . S
H5094 N5082 0.984 . S
H5095 N5082 0.985 . S
C5096 C5097 1.363 . S
C5096 C5102 1.379 . S
C5096 N5104 1.356 . S
C5097 C5096 1.363 . S
C5097 C5103 1.363 . S
C5098 C5099 1.363 . S
C5098 C5103 1.379 . S
C5098 N5105 1.356 . S
C5099 C5098 1.363 . S
C5099 C5102 1.363 . S
N5100 C5102 1.356 . S
N5100 H5112 0.984 . S
N5100 H5113 0.985 . S
N5101 C5103 1.356 . S
N5101 H5106 0.984 . S
N5101 H5107 0.985 . S
C5102 C5096 1.379 . S
C5102 C5099 1.363 . S
C5102 N5100 1.356 . S
C5103 C5097 1.363 . S
C5103 C5098 1.379 . S
C5103 N5101 1.356 . S
N5104 C5096 1.356 . S
N5104 H5110 0.984 . S
N5104 H5111 0.984 . S
N5105 C5098 1.356 . S
N5105 H5108 0.984 . S
N5105 H5109 0.985 . S
H5106 N5101 0.984 . S
H5107 N5101 0.985 . S
H5108 N5105 0.984 . S
H5109 N5105 0.985 . S
H5110 N5104 0.984 . S
H5111 N5104 0.984 . S
H5112 N5100 0.984 . S
H5113 N5100 0.985 . S
C5114 C5115 1.363 . S
C5114 C5120 1.379 . S
C5114 N5122 1.356 . S
C5115 C5114 1.363 . S
C5115 C5121 1.363 . S
C5116 C5117 1.363 . S
C5116 C5121 1.379 . S
C5116 N5123 1.356 . S
C5117 C5116 1.363 . S
C5117 C5120 1.363 . S
N5118 C5120 1.356 . S
N5118 H5130 0.984 . S
N5118 H5131 0.985 . S
N5119 C5121 1.356 . S
N5119 H5124 0.984 . S
N5119 H5125 0.985 . S
C5120 C5114 1.379 . S
C5120 C5117 1.363 . S
C5120 N5118 1.356 . S
C5121 C5115 1.363 . S
C5121 C5116 1.379 . S
C5121 N5119 1.356 . S
N5122 C5114 1.356 . S
N5122 H5128 0.984 . S
N5122 H5129 0.984 . S
N5123 C5116 1.356 . S
N5123 H5126 0.984 . S
N5123 H5127 0.985 . S
H5124 N5119 0.984 . S
H5125 N5119 0.985 . S
H5126 N5123 0.984 . S
H5127 N5123 0.985 . S
H5128 N5122 0.984 . S
H5129 N5122 0.984 . S
H5130 N5118 0.984 . S
H5131 N5118 0.985 . S
C5132 C5133 1.363 . S
C5132 C5138 1.379 . S
C5132 N5140 1.356 . S
C5133 C5132 1.363 . S
C5133 C5139 1.363 . S
C5134 C5135 1.363 . S
C5134 C5139 1.379 . S
C5134 N5141 1.356 . S
C5135 C5134 1.363 . S
C5135 C5138 1.363 . S
N5136 C5138 1.356 . S
N5136 H5148 0.984 . S
N5136 H5149 0.985 . S
N5137 C5139 1.356 . S
N5137 H5142 0.984 . S
N5137 H5143 0.985 . S
C5138 C5132 1.379 . S
C5138 C5135 1.363 . S
C5138 N5136 1.356 . S
C5139 C5133 1.363 . S
C5139 C5134 1.379 . S
C5139 N5137 1.356 . S
N5140 C5132 1.356 . S
N5140 H5146 0.984 . S
N5140 H5147 0.984 . S
N5141 C5134 1.356 . S
N5141 H5144 0.984 . S
N5141 H5145 0.985 . S
H5142 N5137 0.984 . S
H5143 N5137 0.985 . S
H5144 N5141 0.984 . S
H5145 N5141 0.985 . S
H5146 N5140 0.984 . S
H5147 N5140 0.984 . S
H5148 N5136 0.984 . S
H5149 N5136 0.985 . S
C5150 C5151 1.363 . S
C5150 C5156 1.379 . S
C5150 N5158 1.356 . S
C5151 C5150 1.363 . S
C5151 C5157 1.363 . S
C5152 C5153 1.363 . S
C5152 C5157 1.379 . S
C5152 N5159 1.356 . S
C5153 C5152 1.363 . S
C5153 C5156 1.363 . S
N5154 C5156 1.356 . S
N5154 H5166 0.984 . S
N5154 H5167 0.985 . S
N5155 C5157 1.356 . S
N5155 H5160 0.984 . S
N5155 H5161 0.985 . S
C5156 C5150 1.379 . S
C5156 C5153 1.363 . S
C5156 N5154 1.356 . S
C5157 C5151 1.363 . S
C5157 C5152 1.379 . S
C5157 N5155 1.356 . S
N5158 C5150 1.356 . S
N5158 H5164 0.984 . S
N5158 H5165 0.984 . S
N5159 C5152 1.356 . S
N5159 H5162 0.984 . S
N5159 H5163 0.985 . S
H5160 N5155 0.984 . S
H5161 N5155 0.985 . S
H5162 N5159 0.984 . S
H5163 N5159 0.985 . S
H5164 N5158 0.984 . S
H5165 N5158 0.984 . S
H5166 N5154 0.984 . S
H5167 N5154 0.985 . S
C5168 C5169 1.363 . S
C5168 C5174 1.379 . S
C5168 N5176 1.356 . S
C5169 C5168 1.363 . S
C5169 C5175 1.363 . S
C5170 C5171 1.363 . S
C5170 C5175 1.379 . S
C5170 N5177 1.356 . S
C5171 C5170 1.363 . S
C5171 C5174 1.363 . S
N5172 C5174 1.356 . S
N5172 H5184 0.984 . S
N5172 H5185 0.985 . S
N5173 C5175 1.356 . S
N5173 H5178 0.984 . S
N5173 H5179 0.985 . S
C5174 C5168 1.379 . S
C5174 C5171 1.363 . S
C5174 N5172 1.356 . S
C5175 C5169 1.363 . S
C5175 C5170 1.379 . S
C5175 N5173 1.356 . S
N5176 C5168 1.356 . S
N5176 H5182 0.984 . S
N5176 H5183 0.984 . S
N5177 C5170 1.356 . S
N5177 H5180 0.984 . S
N5177 H5181 0.985 . S
H5178 N5173 0.984 . S
H5179 N5173 0.985 . S
H5180 N5177 0.984 . S
H5181 N5177 0.985 . S
H5182 N5176 0.984 . S
H5183 N5176 0.984 . S
H5184 N5172 0.984 . S
H5185 N5172 0.985 . S
C5186 C5187 1.363 . S
C5186 C5192 1.379 . S
C5186 N5194 1.356 . S
C5187 C5186 1.363 . S
C5187 C5193 1.363 . S
C5188 C5189 1.363 . S
C5188 C5193 1.379 . S
C5188 N5195 1.356 . S
C5189 C5188 1.363 . S
C5189 C5192 1.363 . S
N5190 C5192 1.356 . S
N5190 H5202 0.984 . S
N5190 H5203 0.985 . S
N5191 C5193 1.356 . S
N5191 H5196 0.984 . S
N5191 H5197 0.985 . S
C5192 C5186 1.379 . S
C5192 C5189 1.363 . S
C5192 N5190 1.356 . S
C5193 C5187 1.363 . S
C5193 C5188 1.379 . S
C5193 N5191 1.356 . S
N5194 C5186 1.356 . S
N5194 H5200 0.984 . S
N5194 H5201 0.984 . S
N5195 C5188 1.356 . S
N5195 H5198 0.984 . S
N5195 H5199 0.985 . S
H5196 N5191 0.984 . S
H5197 N5191 0.985 . S
H5198 N5195 0.984 . S
H5199 N5195 0.985 . S
H5200 N5194 0.984 . S
H5201 N5194 0.984 . S
H5202 N5190 0.984 . S
H5203 N5190 0.985 . S
C5204 C5205 1.363 . S
C5204 C5210 1.379 . S
C5204 N5212 1.356 . S
C5205 C5204 1.363 . S
C5205 C5211 1.363 . S
C5206 C5207 1.363 . S
C5206 C5211 1.379 . S
C5206 N5213 1.356 . S
C5207 C5206 1.363 . S
C5207 C5210 1.363 . S
N5208 C5210 1.356 . S
N5208 H5220 0.984 . S
N5208 H5221 0.985 . S
N5209 C5211 1.356 . S
N5209 H5214 0.984 . S
N5209 H5215 0.985 . S
C5210 C5204 1.379 . S
C5210 C5207 1.363 . S
C5210 N5208 1.356 . S
C5211 C5205 1.363 . S
C5211 C5206 1.379 . S
C5211 N5209 1.356 . S
N5212 C5204 1.356 . S
N5212 H5218 0.984 . S
N5212 H5219 0.984 . S
N5213 C5206 1.356 . S
N5213 H5216 0.984 . S
N5213 H5217 0.985 . S
H5214 N5209 0.984 . S
H5215 N5209 0.985 . S
H5216 N5213 0.984 . S
H5217 N5213 0.985 . S
H5218 N5212 0.984 . S
H5219 N5212 0.984 . S
H5220 N5208 0.984 . S
H5221 N5208 0.985 . S
C5222 C5223 1.363 . S
C5222 C5228 1.379 . S
C5222 N5230 1.356 . S
C5223 C5222 1.363 . S
C5223 C5229 1.363 . S
C5224 C5225 1.363 . S
C5224 C5229 1.379 . S
C5224 N5231 1.356 . S
C5225 C5224 1.363 . S
C5225 C5228 1.363 . S
N5226 C5228 1.356 . S
N5226 H5238 0.984 . S
N5226 H5239 0.985 . S
N5227 C5229 1.356 . S
N5227 H5232 0.984 . S
N5227 H5233 0.985 . S
C5228 C5222 1.379 . S
C5228 C5225 1.363 . S
C5228 N5226 1.356 . S
C5229 C5223 1.363 . S
C5229 C5224 1.379 . S
C5229 N5227 1.356 . S
N5230 C5222 1.356 . S
N5230 H5236 0.984 . S
N5230 H5237 0.984 . S
N5231 C5224 1.356 . S
N5231 H5234 0.984 . S
N5231 H5235 0.985 . S
H5232 N5227 0.984 . S
H5233 N5227 0.985 . S
H5234 N5231 0.984 . S
H5235 N5231 0.985 . S
H5236 N5230 0.984 . S
H5237 N5230 0.984 . S
H5238 N5226 0.984 . S
H5239 N5226 0.985 . S
C5240 C5241 1.363 . S
C5240 C5246 1.379 . S
C5240 N5248 1.356 . S
C5241 C5240 1.363 . S
C5241 C5247 1.363 . S
C5242 C5243 1.363 . S
C5242 C5247 1.379 . S
C5242 N5249 1.356 . S
C5243 C5242 1.363 . S
C5243 C5246 1.363 . S
N5244 C5246 1.356 . S
N5244 H5256 0.984 . S
N5244 H5257 0.985 . S
N5245 C5247 1.356 . S
N5245 H5250 0.984 . S
N5245 H5251 0.985 . S
C5246 C5240 1.379 . S
C5246 C5243 1.363 . S
C5246 N5244 1.356 . S
C5247 C5241 1.363 . S
C5247 C5242 1.379 . S
C5247 N5245 1.356 . S
N5248 C5240 1.356 . S
N5248 H5254 0.984 . S
N5248 H5255 0.984 . S
N5249 C5242 1.356 . S
N5249 H5252 0.984 . S
N5249 H5253 0.985 . S
H5250 N5245 0.984 . S
H5251 N5245 0.985 . S
H5252 N5249 0.984 . S
H5253 N5249 0.985 . S
H5254 N5248 0.984 . S
H5255 N5248 0.984 . S
H5256 N5244 0.984 . S
H5257 N5244 0.985 . S
C5258 C5259 1.363 . S
C5258 C5264 1.379 . S
C5258 N5266 1.356 . S
C5259 C5258 1.363 . S
C5259 C5265 1.363 . S
C5260 C5261 1.363 . S
C5260 C5265 1.379 . S
C5260 N5267 1.356 . S
C5261 C5260 1.363 . S
C5261 C5264 1.363 . S
N5262 C5264 1.356 . S
N5262 H5274 0.984 . S
N5262 H5275 0.985 . S
N5263 C5265 1.356 . S
N5263 H5268 0.984 . S
N5263 H5269 0.985 . S
C5264 C5258 1.379 . S
C5264 C5261 1.363 . S
C5264 N5262 1.356 . S
C5265 C5259 1.363 . S
C5265 C5260 1.379 . S
C5265 N5263 1.356 . S
N5266 C5258 1.356 . S
N5266 H5272 0.984 . S
N5266 H5273 0.984 . S
N5267 C5260 1.356 . S
N5267 H5270 0.984 . S
N5267 H5271 0.985 . S
H5268 N5263 0.984 . S
H5269 N5263 0.985 . S
H5270 N5267 0.984 . S
H5271 N5267 0.985 . S
H5272 N5266 0.984 . S
H5273 N5266 0.984 . S
H5274 N5262 0.984 . S
H5275 N5262 0.985 . S
C5276 C5277 1.363 . S
C5276 C5282 1.379 . S
C5276 N5284 1.356 . S
C5277 C5276 1.363 . S
C5277 C5283 1.363 . S
C5278 C5279 1.363 . S
C5278 C5283 1.379 . S
C5278 N5285 1.356 . S
C5279 C5278 1.363 . S
C5279 C5282 1.363 . S
N5280 C5282 1.356 . S
N5280 H5292 0.984 . S
N5280 H5293 0.985 . S
N5281 C5283 1.356 . S
N5281 H5286 0.984 . S
N5281 H5287 0.985 . S
C5282 C5276 1.379 . S
C5282 C5279 1.363 . S
C5282 N5280 1.356 . S
C5283 C5277 1.363 . S
C5283 C5278 1.379 . S
C5283 N5281 1.356 . S
N5284 C5276 1.356 . S
N5284 H5290 0.984 . S
N5284 H5291 0.984 . S
N5285 C5278 1.356 . S
N5285 H5288 0.984 . S
N5285 H5289 0.985 . S
H5286 N5281 0.984 . S
H5287 N5281 0.985 . S
H5288 N5285 0.984 . S
H5289 N5285 0.985 . S
H5290 N5284 0.984 . S
H5291 N5284 0.984 . S
H5292 N5280 0.984 . S
H5293 N5280 0.985 . S
C5294 C5295 1.363 . S
C5294 C5300 1.379 . S
C5294 N5302 1.356 . S
C5295 C5294 1.363 . S
C5295 C5301 1.363 . S
C5296 C5297 1.363 . S
C5296 C5301 1.379 . S
C5296 N5303 1.356 . S
C5297 C5296 1.363 . S
C5297 C5300 1.363 . S
N5298 C5300 1.356 . S
N5298 H5310 0.984 . S
N5298 H5311 0.985 . S
N5299 C5301 1.356 . S
N5299 H5304 0.984 . S
N5299 H5305 0.985 . S
C5300 C5294 1.379 . S
C5300 C5297 1.363 . S
C5300 N5298 1.356 . S
C5301 C5295 1.363 . S
C5301 C5296 1.379 . S
C5301 N5299 1.356 . S
N5302 C5294 1.356 . S
N5302 H5308 0.984 . S
N5302 H5309 0.984 . S
N5303 C5296 1.356 . S
N5303 H5306 0.984 . S
N5303 H5307 0.985 . S
H5304 N5299 0.984 . S
H5305 N5299 0.985 . S
H5306 N5303 0.984 . S
H5307 N5303 0.985 . S
H5308 N5302 0.984 . S
H5309 N5302 0.984 . S
H5310 N5298 0.984 . S
H5311 N5298 0.985 . S
C5312 C5313 1.363 . S
C5312 C5318 1.379 . S
C5312 N5320 1.356 . S
C5313 C5312 1.363 . S
C5313 C5319 1.363 . S
C5314 C5315 1.363 . S
C5314 C5319 1.379 . S
C5314 N5321 1.356 . S
C5315 C5314 1.363 . S
C5315 C5318 1.363 . S
N5316 C5318 1.356 . S
N5316 H5328 0.984 . S
N5316 H5329 0.985 . S
N5317 C5319 1.356 . S
N5317 H5322 0.984 . S
N5317 H5323 0.985 . S
C5318 C5312 1.379 . S
C5318 C5315 1.363 . S
C5318 N5316 1.356 . S
C5319 C5313 1.363 . S
C5319 C5314 1.379 . S
C5319 N5317 1.356 . S
N5320 C5312 1.356 . S
N5320 H5326 0.984 . S
N5320 H5327 0.984 . S
N5321 C5314 1.356 . S
N5321 H5324 0.984 . S
N5321 H5325 0.985 . S
H5322 N5317 0.984 . S
H5323 N5317 0.985 . S
H5324 N5321 0.984 . S
H5325 N5321 0.985 . S
H5326 N5320 0.984 . S
H5327 N5320 0.984 . S
H5328 N5316 0.984 . S
H5329 N5316 0.985 . S
C5330 C5331 1.363 . S
C5330 C5336 1.379 . S
C5330 N5338 1.356 . S
C5331 C5330 1.363 . S
C5331 C5337 1.363 . S
C5332 C5333 1.363 . S
C5332 C5337 1.379 . S
C5332 N5339 1.356 . S
C5333 C5332 1.363 . S
C5333 C5336 1.363 . S
N5334 C5336 1.356 . S
N5334 H5346 0.984 . S
N5334 H5347 0.985 . S
N5335 C5337 1.356 . S
N5335 H5340 0.984 . S
N5335 H5341 0.985 . S
C5336 C5330 1.379 . S
C5336 C5333 1.363 . S
C5336 N5334 1.356 . S
C5337 C5331 1.363 . S
C5337 C5332 1.379 . S
C5337 N5335 1.356 . S
N5338 C5330 1.356 . S
N5338 H5344 0.984 . S
N5338 H5345 0.984 . S
N5339 C5332 1.356 . S
N5339 H5342 0.984 . S
N5339 H5343 0.985 . S
H5340 N5335 0.984 . S
H5341 N5335 0.985 . S
H5342 N5339 0.984 . S
H5343 N5339 0.985 . S
H5344 N5338 0.984 . S
H5345 N5338 0.984 . S
H5346 N5334 0.984 . S
H5347 N5334 0.985 . S
C5348 C5349 1.363 . S
C5348 C5354 1.379 . S
C5348 N5356 1.356 . S
C5349 C5348 1.363 . S
C5349 C5355 1.363 . S
C5350 C5351 1.363 . S
C5350 C5355 1.379 . S
C5350 N5357 1.356 . S
C5351 C5350 1.363 . S
C5351 C5354 1.363 . S
N5352 C5354 1.356 . S
N5352 H5364 0.984 . S
N5352 H5365 0.985 . S
N5353 C5355 1.356 . S
N5353 H5358 0.984 . S
N5353 H5359 0.985 . S
C5354 C5348 1.379 . S
C5354 C5351 1.363 . S
C5354 N5352 1.356 . S
C5355 C5349 1.363 . S
C5355 C5350 1.379 . S
C5355 N5353 1.356 . S
N5356 C5348 1.356 . S
N5356 H5362 0.984 . S
N5356 H5363 0.984 . S
N5357 C5350 1.356 . S
N5357 H5360 0.984 . S
N5357 H5361 0.985 . S
H5358 N5353 0.984 . S
H5359 N5353 0.985 . S
H5360 N5357 0.984 . S
H5361 N5357 0.985 . S
H5362 N5356 0.984 . S
H5363 N5356 0.984 . S
H5364 N5352 0.984 . S
H5365 N5352 0.985 . S
C5366 C5367 1.363 . S
C5366 C5372 1.379 . S
C5366 N5374 1.356 . S
C5367 C5366 1.363 . S
C5367 C5373 1.363 . S
C5368 C5369 1.363 . S
C5368 C5373 1.379 . S
C5368 N5375 1.356 . S
C5369 C5368 1.363 . S
C5369 C5372 1.363 . S
N5370 C5372 1.356 . S
N5370 H5382 0.984 . S
N5370 H5383 0.985 . S
N5371 C5373 1.356 . S
N5371 H5376 0.984 . S
N5371 H5377 0.985 . S
C5372 C5366 1.379 . S
C5372 C5369 1.363 . S
C5372 N5370 1.356 . S
C5373 C5367 1.363 . S
C5373 C5368 1.379 . S
C5373 N5371 1.356 . S
N5374 C5366 1.356 . S
N5374 H5380 0.984 . S
N5374 H5381 0.984 . S
N5375 C5368 1.356 . S
N5375 H5378 0.984 . S
N5375 H5379 0.985 . S
H5376 N5371 0.984 . S
H5377 N5371 0.985 . S
H5378 N5375 0.984 . S
H5379 N5375 0.985 . S
H5380 N5374 0.984 . S
H5381 N5374 0.984 . S
H5382 N5370 0.984 . S
H5383 N5370 0.985 . S
C5384 C5385 1.363 . S
C5384 C5390 1.379 . S
C5384 N5392 1.356 . S
C5385 C5384 1.363 . S
C5385 C5391 1.363 . S
C5386 C5387 1.363 . S
C5386 C5391 1.379 . S
C5386 N5393 1.356 . S
C5387 C5386 1.363 . S
C5387 C5390 1.363 . S
N5388 C5390 1.356 . S
N5388 H5400 0.984 . S
N5388 H5401 0.985 . S
N5389 C5391 1.356 . S
N5389 H5394 0.984 . S
N5389 H5395 0.985 . S
C5390 C5384 1.379 . S
C5390 C5387 1.363 . S
C5390 N5388 1.356 . S
C5391 C5385 1.363 . S
C5391 C5386 1.379 . S
C5391 N5389 1.356 . S
N5392 C5384 1.356 . S
N5392 H5398 0.984 . S
N5392 H5399 0.984 . S
N5393 C5386 1.356 . S
N5393 H5396 0.984 . S
N5393 H5397 0.985 . S
H5394 N5389 0.984 . S
H5395 N5389 0.985 . S
H5396 N5393 0.984 . S
H5397 N5393 0.985 . S
H5398 N5392 0.984 . S
H5399 N5392 0.984 . S
H5400 N5388 0.984 . S
H5401 N5388 0.985 . S
C5402 C5403 1.363 . S
C5402 C5408 1.379 . S
C5402 N5410 1.356 . S
C5403 C5402 1.363 . S
C5403 C5409 1.363 . S
C5404 C5405 1.363 . S
C5404 C5409 1.379 . S
C5404 N5411 1.356 . S
C5405 C5404 1.363 . S
C5405 C5408 1.363 . S
N5406 C5408 1.356 . S
N5406 H5418 0.984 . S
N5406 H5419 0.985 . S
N5407 C5409 1.356 . S
N5407 H5412 0.984 . S
N5407 H5413 0.985 . S
C5408 C5402 1.379 . S
C5408 C5405 1.363 . S
C5408 N5406 1.356 . S
C5409 C5403 1.363 . S
C5409 C5404 1.379 . S
C5409 N5407 1.356 . S
N5410 C5402 1.356 . S
N5410 H5416 0.984 . S
N5410 H5417 0.984 . S
N5411 C5404 1.356 . S
N5411 H5414 0.984 . S
N5411 H5415 0.985 . S
H5412 N5407 0.984 . S
H5413 N5407 0.985 . S
H5414 N5411 0.984 . S
H5415 N5411 0.985 . S
H5416 N5410 0.984 . S
H5417 N5410 0.984 . S
H5418 N5406 0.984 . S
H5419 N5406 0.985 . S
C5420 C5421 1.363 . S
C5420 C5426 1.379 . S
C5420 N5428 1.356 . S
C5421 C5420 1.363 . S
C5421 C5427 1.363 . S
C5422 C5423 1.363 . S
C5422 C5427 1.379 . S
C5422 N5429 1.356 . S
C5423 C5422 1.363 . S
C5423 C5426 1.363 . S
N5424 C5426 1.356 . S
N5424 H5436 0.984 . S
N5424 H5437 0.985 . S
N5425 C5427 1.356 . S
N5425 H5430 0.984 . S
N5425 H5431 0.985 . S
C5426 C5420 1.379 . S
C5426 C5423 1.363 . S
C5426 N5424 1.356 . S
C5427 C5421 1.363 . S
C5427 C5422 1.379 . S
C5427 N5425 1.356 . S
N5428 C5420 1.356 . S
N5428 H5434 0.984 . S
N5428 H5435 0.984 . S
N5429 C5422 1.356 . S
N5429 H5432 0.984 . S
N5429 H5433 0.985 . S
H5430 N5425 0.984 . S
H5431 N5425 0.985 . S
H5432 N5429 0.984 . S
H5433 N5429 0.985 . S
H5434 N5428 0.984 . S
H5435 N5428 0.984 . S
H5436 N5424 0.984 . S
H5437 N5424 0.985 . S
C5438 C5439 1.363 . S
C5438 C5444 1.379 . S
C5438 N5446 1.356 . S
C5439 C5438 1.363 . S
C5439 C5445 1.363 . S
C5440 C5441 1.363 . S
C5440 C5445 1.379 . S
C5440 N5447 1.356 . S
C5441 C5440 1.363 . S
C5441 C5444 1.363 . S
N5442 C5444 1.356 . S
N5442 H5454 0.984 . S
N5442 H5455 0.985 . S
N5443 C5445 1.356 . S
N5443 H5448 0.984 . S
N5443 H5449 0.985 . S
C5444 C5438 1.379 . S
C5444 C5441 1.363 . S
C5444 N5442 1.356 . S
C5445 C5439 1.363 . S
C5445 C5440 1.379 . S
C5445 N5443 1.356 . S
N5446 C5438 1.356 . S
N5446 H5452 0.984 . S
N5446 H5453 0.984 . S
N5447 C5440 1.356 . S
N5447 H5450 0.984 . S
N5447 H5451 0.985 . S
H5448 N5443 0.984 . S
H5449 N5443 0.985 . S
H5450 N5447 0.984 . S
H5451 N5447 0.985 . S
H5452 N5446 0.984 . S
H5453 N5446 0.984 . S
H5454 N5442 0.984 . S
H5455 N5442 0.985 . S
C5456 C5457 1.363 . S
C5456 C5462 1.379 . S
C5456 N5464 1.356 . S
C5457 C5456 1.363 . S
C5457 C5463 1.363 . S
C5458 C5459 1.363 . S
C5458 C5463 1.379 . S
C5458 N5465 1.356 . S
C5459 C5458 1.363 . S
C5459 C5462 1.363 . S
N5460 C5462 1.356 . S
N5460 H5472 0.984 . S
N5460 H5473 0.985 . S
N5461 C5463 1.356 . S
N5461 H5466 0.984 . S
N5461 H5467 0.985 . S
C5462 C5456 1.379 . S
C5462 C5459 1.363 . S
C5462 N5460 1.356 . S
C5463 C5457 1.363 . S
C5463 C5458 1.379 . S
C5463 N5461 1.356 . S
N5464 C5456 1.356 . S
N5464 H5470 0.984 . S
N5464 H5471 0.984 . S
N5465 C5458 1.356 . S
N5465 H5468 0.984 . S
N5465 H5469 0.985 . S
H5466 N5461 0.984 . S
H5467 N5461 0.985 . S
H5468 N5465 0.984 . S
H5469 N5465 0.985 . S
H5470 N5464 0.984 . S
H5471 N5464 0.984 . S
H5472 N5460 0.984 . S
H5473 N5460 0.985 . S
C5474 C5475 1.363 . S
C5474 C5480 1.379 . S
C5474 N5482 1.356 . S
C5475 C5474 1.363 . S
C5475 C5481 1.363 . S
C5476 C5477 1.363 . S
C5476 C5481 1.379 . S
C5476 N5483 1.356 . S
C5477 C5476 1.363 . S
C5477 C5480 1.363 . S
N5478 C5480 1.356 . S
N5478 H5490 0.984 . S
N5478 H5491 0.985 . S
N5479 C5481 1.356 . S
N5479 H5484 0.984 . S
N5479 H5485 0.985 . S
C5480 C5474 1.379 . S
C5480 C5477 1.363 . S
C5480 N5478 1.356 . S
C5481 C5475 1.363 . S
C5481 C5476 1.379 . S
C5481 N5479 1.356 . S
N5482 C5474 1.356 . S
N5482 H5488 0.984 . S
N5482 H5489 0.984 . S
N5483 C5476 1.356 . S
N5483 H5486 0.984 . S
N5483 H5487 0.985 . S
H5484 N5479 0.984 . S
H5485 N5479 0.985 . S
H5486 N5483 0.984 . S
H5487 N5483 0.985 . S
H5488 N5482 0.984 . S
H5489 N5482 0.984 . S
H5490 N5478 0.984 . S
H5491 N5478 0.985 . S
C5492 C5493 1.363 . S
C5492 C5498 1.379 . S
C5492 N5500 1.356 . S
C5493 C5492 1.363 . S
C5493 C5499 1.363 . S
C5494 C5495 1.363 . S
C5494 C5499 1.379 . S
C5494 N5501 1.356 . S
C5495 C5494 1.363 . S
C5495 C5498 1.363 . S
N5496 C5498 1.356 . S
N5496 H5508 0.984 . S
N5496 H5509 0.985 . S
N5497 C5499 1.356 . S
N5497 H5502 0.984 . S
N5497 H5503 0.985 . S
C5498 C5492 1.379 . S
C5498 C5495 1.363 . S
C5498 N5496 1.356 . S
C5499 C5493 1.363 . S
C5499 C5494 1.379 . S
C5499 N5497 1.356 . S
N5500 C5492 1.356 . S
N5500 H5506 0.984 . S
N5500 H5507 0.984 . S
N5501 C5494 1.356 . S
N5501 H5504 0.984 . S
N5501 H5505 0.985 . S
H5502 N5497 0.984 . S
H5503 N5497 0.985 . S
H5504 N5501 0.984 . S
H5505 N5501 0.985 . S
H5506 N5500 0.984 . S
H5507 N5500 0.984 . S
H5508 N5496 0.984 . S
H5509 N5496 0.985 . S
C5510 C5511 1.363 . S
C5510 C5516 1.379 . S
C5510 N5518 1.356 . S
C5511 C5510 1.363 . S
C5511 C5517 1.363 . S
C5512 C5513 1.363 . S
C5512 C5517 1.379 . S
C5512 N5519 1.356 . S
C5513 C5512 1.363 . S
C5513 C5516 1.363 . S
N5514 C5516 1.356 . S
N5514 H5526 0.984 . S
N5514 H5527 0.985 . S
N5515 C5517 1.356 . S
N5515 H5520 0.984 . S
N5515 H5521 0.985 . S
C5516 C5510 1.379 . S
C5516 C5513 1.363 . S
C5516 N5514 1.356 . S
C5517 C5511 1.363 . S
C5517 C5512 1.379 . S
C5517 N5515 1.356 . S
N5518 C5510 1.356 . S
N5518 H5524 0.984 . S
N5518 H5525 0.984 . S
N5519 C5512 1.356 . S
N5519 H5522 0.984 . S
N5519 H5523 0.985 . S
H5520 N5515 0.984 . S
H5521 N5515 0.985 . S
H5522 N5519 0.984 . S
H5523 N5519 0.985 . S
H5524 N5518 0.984 . S
H5525 N5518 0.984 . S
H5526 N5514 0.984 . S
H5527 N5514 0.985 . S
C5528 C5529 1.363 . S
C5528 C5534 1.379 . S
C5528 N5536 1.356 . S
C5529 C5528 1.363 . S
C5529 C5535 1.363 . S
C5530 C5531 1.363 . S
C5530 C5535 1.379 . S
C5530 N5537 1.356 . S
C5531 C5530 1.363 . S
C5531 C5534 1.363 . S
N5532 C5534 1.356 . S
N5532 H5544 0.984 . S
N5532 H5545 0.985 . S
N5533 C5535 1.356 . S
N5533 H5538 0.984 . S
N5533 H5539 0.985 . S
C5534 C5528 1.379 . S
C5534 C5531 1.363 . S
C5534 N5532 1.356 . S
C5535 C5529 1.363 . S
C5535 C5530 1.379 . S
C5535 N5533 1.356 . S
N5536 C5528 1.356 . S
N5536 H5542 0.984 . S
N5536 H5543 0.984 . S
N5537 C5530 1.356 . S
N5537 H5540 0.984 . S
N5537 H5541 0.985 . S
H5538 N5533 0.984 . S
H5539 N5533 0.985 . S
H5540 N5537 0.984 . S
H5541 N5537 0.985 . S
H5542 N5536 0.984 . S
H5543 N5536 0.984 . S
H5544 N5532 0.984 . S
H5545 N5532 0.985 . S
C5546 C5547 1.363 . S
C5546 C5552 1.379 . S
C5546 N5554 1.356 . S
C5547 C5546 1.363 . S
C5547 C5553 1.363 . S
C5548 C5549 1.363 . S
C5548 C5553 1.379 . S
C5548 N5555 1.356 . S
C5549 C5548 1.363 . S
C5549 C5552 1.363 . S
N5550 C5552 1.356 . S
N5550 H5562 0.984 . S
N5550 H5563 0.985 . S
N5551 C5553 1.356 . S
N5551 H5556 0.984 . S
N5551 H5557 0.985 . S
C5552 C5546 1.379 . S
C5552 C5549 1.363 . S
C5552 N5550 1.356 . S
C5553 C5547 1.363 . S
C5553 C5548 1.379 . S
C5553 N5551 1.356 . S
N5554 C5546 1.356 . S
N5554 H5560 0.984 . S
N5554 H5561 0.984 . S
N5555 C5548 1.356 . S
N5555 H5558 0.984 . S
N5555 H5559 0.985 . S
H5556 N5551 0.984 . S
H5557 N5551 0.985 . S
H5558 N5555 0.984 . S
H5559 N5555 0.985 . S
H5560 N5554 0.984 . S
H5561 N5554 0.984 . S
H5562 N5550 0.984 . S
H5563 N5550 0.985 . S
C5564 C5565 1.363 . S
C5564 C5570 1.379 . S
C5564 N5572 1.356 . S
C5565 C5564 1.363 . S
C5565 C5571 1.363 . S
C5566 C5567 1.363 . S
C5566 C5571 1.379 . S
C5566 N5573 1.356 . S
C5567 C5566 1.363 . S
C5567 C5570 1.363 . S
N5568 C5570 1.356 . S
N5568 H5580 0.984 . S
N5568 H5581 0.985 . S
N5569 C5571 1.356 . S
N5569 H5574 0.984 . S
N5569 H5575 0.985 . S
C5570 C5564 1.379 . S
C5570 C5567 1.363 . S
C5570 N5568 1.356 . S
C5571 C5565 1.363 . S
C5571 C5566 1.379 . S
C5571 N5569 1.356 . S
N5572 C5564 1.356 . S
N5572 H5578 0.984 . S
N5572 H5579 0.984 . S
N5573 C5566 1.356 . S
N5573 H5576 0.984 . S
N5573 H5577 0.985 . S
H5574 N5569 0.984 . S
H5575 N5569 0.985 . S
H5576 N5573 0.984 . S
H5577 N5573 0.985 . S
H5578 N5572 0.984 . S
H5579 N5572 0.984 . S
H5580 N5568 0.984 . S
H5581 N5568 0.985 . S
C5582 C5583 1.363 . S
C5582 C5588 1.379 . S
C5582 N5590 1.356 . S
C5583 C5582 1.363 . S
C5583 C5589 1.363 . S
C5584 C5585 1.363 . S
C5584 C5589 1.379 . S
C5584 N5591 1.356 . S
C5585 C5584 1.363 . S
C5585 C5588 1.363 . S
N5586 C5588 1.356 . S
N5586 H5598 0.984 . S
N5586 H5599 0.985 . S
N5587 C5589 1.356 . S
N5587 H5592 0.984 . S
N5587 H5593 0.985 . S
C5588 C5582 1.379 . S
C5588 C5585 1.363 . S
C5588 N5586 1.356 . S
C5589 C5583 1.363 . S
C5589 C5584 1.379 . S
C5589 N5587 1.356 . S
N5590 C5582 1.356 . S
N5590 H5596 0.984 . S
N5590 H5597 0.984 . S
N5591 C5584 1.356 . S
N5591 H5594 0.984 . S
N5591 H5595 0.985 . S
H5592 N5587 0.984 . S
H5593 N5587 0.985 . S
H5594 N5591 0.984 . S
H5595 N5591 0.985 . S
H5596 N5590 0.984 . S
H5597 N5590 0.984 . S
H5598 N5586 0.984 . S
H5599 N5586 0.985 . S
C5600 C5601 1.363 . S
C5600 C5606 1.379 . S
C5600 N5608 1.356 . S
C5601 C5600 1.363 . S
C5601 C5607 1.363 . S
C5602 C5603 1.363 . S
C5602 C5607 1.379 . S
C5602 N5609 1.356 . S
C5603 C5602 1.363 . S
C5603 C5606 1.363 . S
N5604 C5606 1.356 . S
N5604 H5616 0.984 . S
N5604 H5617 0.985 . S
N5605 C5607 1.356 . S
N5605 H5610 0.984 . S
N5605 H5611 0.985 . S
C5606 C5600 1.379 . S
C5606 C5603 1.363 . S
C5606 N5604 1.356 . S
C5607 C5601 1.363 . S
C5607 C5602 1.379 . S
C5607 N5605 1.356 . S
N5608 C5600 1.356 . S
N5608 H5614 0.984 . S
N5608 H5615 0.984 . S
N5609 C5602 1.356 . S
N5609 H5612 0.984 . S
N5609 H5613 0.985 . S
H5610 N5605 0.984 . S
H5611 N5605 0.985 . S
H5612 N5609 0.984 . S
H5613 N5609 0.985 . S
H5614 N5608 0.984 . S
H5615 N5608 0.984 . S
H5616 N5604 0.984 . S
H5617 N5604 0.985 . S
C5618 C5619 1.363 . S
C5618 C5624 1.379 . S
C5618 N5626 1.356 . S
C5619 C5618 1.363 . S
C5619 C5625 1.363 . S
C5620 C5621 1.363 . S
C5620 C5625 1.379 . S
C5620 N5627 1.356 . S
C5621 C5620 1.363 . S
C5621 C5624 1.363 . S
N5622 C5624 1.356 . S
N5622 H5634 0.984 . S
N5622 H5635 0.985 . S
N5623 C5625 1.356 . S
N5623 H5628 0.984 . S
N5623 H5629 0.985 . S
C5624 C5618 1.379 . S
C5624 C5621 1.363 . S
C5624 N5622 1.356 . S
C5625 C5619 1.363 . S
C5625 C5620 1.379 . S
C5625 N5623 1.356 . S
N5626 C5618 1.356 . S
N5626 H5632 0.984 . S
N5626 H5633 0.984 . S
N5627 C5620 1.356 . S
N5627 H5630 0.984 . S
N5627 H5631 0.985 . S
H5628 N5623 0.984 . S
H5629 N5623 0.985 . S
H5630 N5627 0.984 . S
H5631 N5627 0.985 . S
H5632 N5626 0.984 . S
H5633 N5626 0.984 . S
H5634 N5622 0.984 . S
H5635 N5622 0.985 . S
C5636 C5637 1.363 . S
C5636 C5642 1.379 . S
C5636 N5644 1.356 . S
C5637 C5636 1.363 . S
C5637 C5643 1.363 . S
C5638 C5639 1.363 . S
C5638 C5643 1.379 . S
C5638 N5645 1.356 . S
C5639 C5638 1.363 . S
C5639 C5642 1.363 . S
N5640 C5642 1.356 . S
N5640 H5652 0.984 . S
N5640 H5653 0.985 . S
N5641 C5643 1.356 . S
N5641 H5646 0.984 . S
N5641 H5647 0.985 . S
C5642 C5636 1.379 . S
C5642 C5639 1.363 . S
C5642 N5640 1.356 . S
C5643 C5637 1.363 . S
C5643 C5638 1.379 . S
C5643 N5641 1.356 . S
N5644 C5636 1.356 . S
N5644 H5650 0.984 . S
N5644 H5651 0.984 . S
N5645 C5638 1.356 . S
N5645 H5648 0.984 . S
N5645 H5649 0.985 . S
H5646 N5641 0.984 . S
H5647 N5641 0.985 . S
H5648 N5645 0.984 . S
H5649 N5645 0.985 . S
H5650 N5644 0.984 . S
H5651 N5644 0.984 . S
H5652 N5640 0.984 . S
H5653 N5640 0.985 . S
C5654 C5655 1.363 . S
C5654 C5660 1.379 . S
C5654 N5662 1.356 . S
C5655 C5654 1.363 . S
C5655 C5661 1.363 . S
C5656 C5657 1.363 . S
C5656 C5661 1.379 . S
C5656 N5663 1.356 . S
C5657 C5656 1.363 . S
C5657 C5660 1.363 . S
N5658 C5660 1.356 . S
N5658 H5670 0.984 . S
N5658 H5671 0.985 . S
N5659 C5661 1.356 . S
N5659 H5664 0.984 . S
N5659 H5665 0.985 . S
C5660 C5654 1.379 . S
C5660 C5657 1.363 . S
C5660 N5658 1.356 . S
C5661 C5655 1.363 . S
C5661 C5656 1.379 . S
C5661 N5659 1.356 . S
N5662 C5654 1.356 . S
N5662 H5668 0.984 . S
N5662 H5669 0.984 . S
N5663 C5656 1.356 . S
N5663 H5666 0.984 . S
N5663 H5667 0.985 . S
H5664 N5659 0.984 . S
H5665 N5659 0.985 . S
H5666 N5663 0.984 . S
H5667 N5663 0.985 . S
H5668 N5662 0.984 . S
H5669 N5662 0.984 . S
H5670 N5658 0.984 . S
H5671 N5658 0.985 . S
C5672 C5673 1.363 . S
C5672 C5678 1.379 . S
C5672 N5680 1.356 . S
C5673 C5672 1.363 . S
C5673 C5679 1.363 . S
C5674 C5675 1.363 . S
C5674 C5679 1.379 . S
C5674 N5681 1.356 . S
C5675 C5674 1.363 . S
C5675 C5678 1.363 . S
N5676 C5678 1.356 . S
N5676 H5688 0.984 . S
N5676 H5689 0.985 . S
N5677 C5679 1.356 . S
N5677 H5682 0.984 . S
N5677 H5683 0.985 . S
C5678 C5672 1.379 . S
C5678 C5675 1.363 . S
C5678 N5676 1.356 . S
C5679 C5673 1.363 . S
C5679 C5674 1.379 . S
C5679 N5677 1.356 . S
N5680 C5672 1.356 . S
N5680 H5686 0.984 . S
N5680 H5687 0.984 . S
N5681 C5674 1.356 . S
N5681 H5684 0.984 . S
N5681 H5685 0.985 . S
H5682 N5677 0.984 . S
H5683 N5677 0.985 . S
H5684 N5681 0.984 . S
H5685 N5681 0.985 . S
H5686 N5680 0.984 . S
H5687 N5680 0.984 . S
H5688 N5676 0.984 . S
H5689 N5676 0.985 . S
C5690 C5691 1.363 . S
C5690 C5696 1.379 . S
C5690 N5698 1.356 . S
C5691 C5690 1.363 . S
C5691 C5697 1.363 . S
C5692 C5693 1.363 . S
C5692 C5697 1.379 . S
C5692 N5699 1.356 . S
C5693 C5692 1.363 . S
C5693 C5696 1.363 . S
N5694 C5696 1.356 . S
N5694 H5706 0.984 . S
N5694 H5707 0.985 . S
N5695 C5697 1.356 . S
N5695 H5700 0.984 . S
N5695 H5701 0.985 . S
C5696 C5690 1.379 . S
C5696 C5693 1.363 . S
C5696 N5694 1.356 . S
C5697 C5691 1.363 . S
C5697 C5692 1.379 . S
C5697 N5695 1.356 . S
N5698 C5690 1.356 . S
N5698 H5704 0.984 . S
N5698 H5705 0.984 . S
N5699 C5692 1.356 . S
N5699 H5702 0.984 . S
N5699 H5703 0.985 . S
H5700 N5695 0.984 . S
H5701 N5695 0.985 . S
H5702 N5699 0.984 . S
H5703 N5699 0.985 . S
H5704 N5698 0.984 . S
H5705 N5698 0.984 . S
H5706 N5694 0.984 . S
H5707 N5694 0.985 . S
C5708 C5709 1.363 . S
C5708 C5714 1.379 . S
C5708 N5716 1.356 . S
C5709 C5708 1.363 . S
C5709 C5715 1.363 . S
C5710 C5711 1.363 . S
C5710 C5715 1.379 . S
C5710 N5717 1.356 . S
C5711 C5710 1.363 . S
C5711 C5714 1.363 . S
N5712 C5714 1.356 . S
N5712 H5724 0.984 . S
N5712 H5725 0.985 . S
N5713 C5715 1.356 . S
N5713 H5718 0.984 . S
N5713 H5719 0.985 . S
C5714 C5708 1.379 . S
C5714 C5711 1.363 . S
C5714 N5712 1.356 . S
C5715 C5709 1.363 . S
C5715 C5710 1.379 . S
C5715 N5713 1.356 . S
N5716 C5708 1.356 . S
N5716 H5722 0.984 . S
N5716 H5723 0.984 . S
N5717 C5710 1.356 . S
N5717 H5720 0.984 . S
N5717 H5721 0.985 . S
H5718 N5713 0.984 . S
H5719 N5713 0.985 . S
H5720 N5717 0.984 . S
H5721 N5717 0.985 . S
H5722 N5716 0.984 . S
H5723 N5716 0.984 . S
H5724 N5712 0.984 . S
H5725 N5712 0.985 . S
C5726 C5727 1.363 . S
C5726 C5732 1.379 . S
C5726 N5734 1.356 . S
C5727 C5726 1.363 . S
C5727 C5733 1.363 . S
C5728 C5729 1.363 . S
C5728 C5733 1.379 . S
C5728 N5735 1.356 . S
C5729 C5728 1.363 . S
C5729 C5732 1.363 . S
N5730 C5732 1.356 . S
N5730 H5742 0.984 . S
N5730 H5743 0.985 . S
N5731 C5733 1.356 . S
N5731 H5736 0.984 . S
N5731 H5737 0.985 . S
C5732 C5726 1.379 . S
C5732 C5729 1.363 . S
C5732 N5730 1.356 . S
C5733 C5727 1.363 . S
C5733 C5728 1.379 . S
C5733 N5731 1.356 . S
N5734 C5726 1.356 . S
N5734 H5740 0.984 . S
N5734 H5741 0.984 . S
N5735 C5728 1.356 . S
N5735 H5738 0.984 . S
N5735 H5739 0.985 . S
H5736 N5731 0.984 . S
H5737 N5731 0.985 . S
H5738 N5735 0.984 . S
H5739 N5735 0.985 . S
H5740 N5734 0.984 . S
H5741 N5734 0.984 . S
H5742 N5730 0.984 . S
H5743 N5730 0.985 . S
C4019 C1309 1.376 . S
C4017 C21 1.631 . S
C4037 C1449 1.273 . S
C4035 C42 1.571 . S
C4053 C82 1.550 . S
C4055 C1509 1.156 . S
C4073 C1633 0.977 . S
C4071 C135 1.692 . S
C4089 C175 1.388 . S
C4091 C1623 1.048 . S
C4107 C221 1.697 . S
C4109 C1335 1.291 . S
C4125 C255 1.555 . S
C4127 C1423 1.301 . S
C4145 C1519 0.895 . S
C4143 C301 1.589 . S
C4163 C1765 1.425 . S
C4161 C15 1.616 . S
C4179 C55 1.501 . S
C4181 C1879 1.225 . S
C4197 C101 1.687 . S
C4199 C2019 1.338 . S
C4217 C2107 1.297 . S
C4215 C141 1.522 . S
C4233 C162 1.559 . S
C4235 C2203 0.855 . S
C4253 C2307 1.141 . S
C4251 C215 1.525 . S
C4269 C261 1.525 . S
C4271 C2449 1.347 . S
C4289 C2535 1.124 . S
C4287 C282 1.459 . S
C4305 C2 1.748 . S
C4307 C2133 1.395 . S
C4323 C181 1.529 . S
C4325 C2317 0.912 . S
C4343 C2475 1.281 . S
C4341 C202 1.657 . S
C4359 C242 1.633 . S
C4361 C2545 0.958 . S
C4379 C2193 1.056 . S
C4377 C295 1.472 . S
C4397 C1905 1.265 . S
C4395 C95 1.656 . S
C4413 C122 1.507 . S
C4415 C1993 1.333 . S
C4433 C1791 1.195 . S
C4431 C61 1.521 . S
C4451 C2677 1.327 . S
C4449 C341 1.583 . S
C4467 C362 1.550 . S
C4469 C2773 0.880 . S
C4485 C402 1.534 . S
C4487 C2877 1.170 . S
C4505 C3001 0.946 . S
C4503 C455 1.592 . S
C4521 C495 1.421 . S
C4523 C2991 1.057 . S
C4539 C541 1.712 . S
C4541 C2703 1.311 . S
C4557 C575 1.463 . S
C4559 C2763 1.140 . S
C4575 C621 1.603 . S
C4577 C2887 0.956 . S
C4595 C2247 1.340 . S
C4593 C335 1.644 . S
C4611 C375 1.451 . S
C4613 C3105 1.087 . S
C4631 C2421 1.125 . S
C4629 C421 1.551 . S
C4647 C461 1.432 . S
C4649 C3219 1.127 . S
C4665 C482 1.527 . S
C4667 C1737 1.091 . S
C4685 C3361 1.328 . S
C4683 C535 1.557 . S
C4701 C581 1.551 . S
C4703 C1975 0.867 . S
C4721 C3447 1.159 . S
C4719 C602 1.468 . S
C4737 C322 1.712 . S
C4739 C3229 0.947 . S
C4757 C3387 1.212 . S
C4755 C501 1.601 . S
C4773 C522 1.588 . S
C4775 C1965 1.144 . S
C4793 C3457 0.975 . S
C4791 C562 1.583 . S
C4809 C615 1.572 . S
C4811 C1747 0.842 . S
C4827 C415 1.637 . S
C4829 C3115 0.923 . S
C4845 C442 1.521 . S
C4847 C2431 0.855 . S
C4863 C381 1.442 . S
C4865 C2221 1.250 . S
C4881 C661 1.563 . S
C4883 C2905 1.308 . S
C4901 C3045 1.206 . S
C4899 C682 1.520 . S
C4917 C722 1.541 . S
C4919 C2649 1.153 . S
C4935 C775 1.722 . S
C4937 C2817 1.354 . S
C4953 C815 1.419 . S
C4955 C2791 1.179 . S
C4971 C861 1.680 . S
C4973 C2931 1.280 . S
C4991 C3019 1.225 . S
C4989 C895 1.520 . S
C5007 C941 1.623 . S
C5009 C2659 0.914 . S
C5027 C3561 1.094 . S
C5025 C655 1.522 . S
C5043 C695 1.472 . S
C5045 C2335 1.221 . S
C5063 C3729 1.334 . S
C5061 C741 1.697 . S
C5079 C781 1.545 . S
C5081 C2563 1.338 . S
C5097 C802 1.585 . S
C5099 C3799 0.895 . S
C5115 C855 1.516 . S
C5117 C1851 1.109 . S
C5135 C3913 0.889 . S
C5133 C901 1.549 . S
C5151 C922 1.497 . S
C5153 C2079 1.159 . S
C5171 C2589 1.333 . S
C5169 C642 1.679 . S
C5189 C1861 0.914 . S
C5187 C821 1.560 . S
C5205 C842 1.593 . S
C5207 C3903 1.151 . S
C5223 C882 1.603 . S
C5225 C2089 0.968 . S
C5243 C3789 1.092 . S
C5241 C935 1.512 . S
C5261 C2361 1.249 . S
C5259 C735 1.648 . S
C5279 C3703 1.378 . S
C5277 C762 1.542 . S
C5297 C3571 0.896 . S
C5295 C701 1.557 . S
C5313 C981 1.567 . S
C5315 C1537 1.321 . S
C5331 C1002 1.569 . S
C5333 C1677 1.311 . S
C5351 C1281 1.175 . S
C5349 C1042 1.533 . S
C5369 C1405 0.953 . S
C5367 C1095 1.687 . S
C5387 C1395 1.077 . S
C5385 C1135 1.460 . S
C5405 C1563 1.304 . S
C5403 C1181 1.700 . S
C5423 C1651 1.230 . S
C5421 C1215 1.512 . S
C5439 C1261 1.683 . S
C5441 C1291 0.994 . S
C5457 C975 1.644 . S
C5459 C3843 1.342 . S
C5477 C3333 1.126 . S
C5475 C1015 1.484 . S
C5495 C3957 1.244 . S
C5493 C1061 1.627 . S
C5513 C3475 1.299 . S
C5511 C1101 1.512 . S
C5529 C1122 1.504 . S
C5531 C3589 1.264 . S
C5549 C3133 1.309 . S
C5547 C1175 1.556 . S
C5567 C3685 0.881 . S
C5565 C1221 1.586 . S
C5583 C1242 1.541 . S
C5585 C3247 1.308 . S
C5603 C3501 1.292 . S
C5601 C962 1.664 . S
C5621 C3159 1.220 . S
C5619 C1141 1.612 . S
C5639 C3675 1.147 . S
C5637 C1162 1.586 . S
C5655 C1202 1.605 . S
C5657 C3273 1.269 . S
C5673 C1255 1.685 . S
C5675 C3615 1.390 . S
C5691 C1055 1.610 . S
C5693 C3343 0.936 . S
C5709 C1082 1.534 . S
C5711 C3931 1.367 . S
C5729 C3817 1.276 . S
C5727 C1021 1.455 . S
