# Generated by pormake.
# Topology anh, (6,3)-cn, num edge types: 1
# Building blocks:
#     Node 0, Type 0, BuildingBlock: NUHQIS_clean_sbu_0, # of connection points: 6
#     Node 1, Type 0, BuildingBlock: NUHQIS_clean_sbu_0, # of connection points: 6
#     Node 2, Type 0, BuildingBlock: NUHQIS_clean_sbu_0, # of connection points: 6
#     Node 3, Type 1, BuildingBlock: BETDIP_clean_linker_0, # of connection points: 3
#     Node 4, Type 1, BuildingBlock: BETDIP_clean_linker_0, # of connection points: 3
#     Node 5, Type 1, BuildingBlock: BETDIP_clean_linker_0, # of connection points: 3
#     Node 6, Type 1, BuildingBlock: BETDIP_clean_linker_0, # of connection points: 3
#     Node 7, Type 1, BuildingBlock: BETDIP_clean_linker_0, # of connection points: 3
#     Node 8, Type 1, BuildingBlock: BETDIP_clean_linker_0, # of connection points: 3
#     Edge 9, Type (0, 1), BuildingBlock: XIVTED_clean_linker_0, # of connection points: 2
#     Edge 10, Type (0, 1), BuildingBlock: XIVTED_clean_linker_0, # of connection points: 2
#     Edge 11, Type (0, 1), BuildingBlock: XIVTED_clean_linker_0, # of connection points: 2
#     Edge 12, Type (0, 1), BuildingBlock: XIVTED_clean_linker_0, # of connection points: 2
#     Edge 13, Type (0, 1), BuildingBlock: XIVTED_clean_linker_0, # of connection points: 2
#     Edge 14, Type (0, 1), BuildingBlock: XIVTED_clean_linker_0, # of connection points: 2
#     Edge 15, Type (0, 1), BuildingBlock: XIVTED_clean_linker_0, # of connection points: 2
#     Edge 16, Type (0, 1), BuildingBlock: XIVTED_clean_linker_0, # of connection points: 2
#     Edge 17, Type (0, 1), BuildingBlock: XIVTED_clean_linker_0, # of connection points: 2
#     Edge 18, Type (0, 1), BuildingBlock: XIVTED_clean_linker_0, # of connection points: 2
#     Edge 19, Type (0, 1), BuildingBlock: XIVTED_clean_linker_0, # of connection points: 2
#     Edge 20, Type (0, 1), BuildingBlock: XIVTED_clean_linker_0, # of connection points: 2
#     Edge 21, Type (0, 1), BuildingBlock: XIVTED_clean_linker_0, # of connection points: 2
#     Edge 22, Type (0, 1), BuildingBlock: XIVTED_clean_linker_0, # of connection points: 2
#     Edge 23, Type (0, 1), BuildingBlock: XIVTED_clean_linker_0, # of connection points: 2
#     Edge 24, Type (0, 1), BuildingBlock: XIVTED_clean_linker_0, # of connection points: 2
#     Edge 25, Type (0, 1), BuildingBlock: XIVTED_clean_linker_0, # of connection points: 2
#     Edge 26, Type (0, 1), BuildingBlock: XIVTED_clean_linker_0, # of connection points: 2
# Relax obj value: 0.249
# Max RMSD: 0.170
# Mean RMSD: 0.124
data_MOF--net-anh--node1-NUHQIS_clean_sbu_0--node2-BETDIP_clean_linker_0--edge1-XIVTED_clean_linker_0
_symmetry_space_group_name_H-M    P1
_symmetry_Int_Tables_number       1
_symmetry_cell_setting            triclinic
loop_
_symmetry_equiv_pos_as_xyz
'x, y, z'
_cell_length_a     29.946776
_cell_length_b     29.811898
_cell_length_c     50.117743
_cell_angle_alpha  91.763748
_cell_angle_beta   94.408624
_cell_angle_gamma 120.36557
loop_
_atom_site_label
_atom_site_type_symbol
_atom_site_fract_x
_atom_site_fract_y
_atom_site_fract_z
_atom_type_partial_charge
Tb0 Tb 0.22841 0.72177 0.16652 0.0
Eu1 Eu 0.16911 0.78418 0.14626 0.0
C2 C 0.17442 0.75762 0.20671 0.0
C3 C 1.10795 0.66086 0.15093 0.0
C4 C 0.31208 0.66231 0.17604 0.0
C5 C 0.3561 0.61346 0.18225 0.0
C6 C 0.32289 0.62947 0.19102 0.0
C7 C 0.33623 0.68071 0.15266 0.0
C8 C 0.36956 0.66474 0.14385 0.0
C9 C 0.37899 0.63005 0.15828 0.0
C10 C 0.2715 0.6723 0.18355 0.0
O11 O 0.25008 0.73762 0.12594 0.0
O12 O 0.18609 0.75364 0.10912 0.0
O13 O 0.25411 0.8439 0.14594 0.0
O14 O 0.28666 0.80496 0.17398 0.0
C15 C 0.2233 0.7435 0.1057 0.0
O16 O 1.11388 0.7886 0.1171 0.0
O17 O 0.14906 0.84477 0.15173 0.0
O18 O 0.1805 0.79447 0.19125 0.0
O19 O 0.18306 0.72063 0.19872 0.0
O20 O 0.15187 0.66309 0.14717 0.0
O21 O 1.10693 0.70381 0.15571 0.0
C22 C 0.2927 0.84535 0.16114 0.0
O23 O 0.28609 0.71972 0.19242 0.0
O24 O 0.23012 0.65251 0.16641 0.0
C25 C 1.05796 0.80409 0.1403 0.0
C26 C 0.95549 0.73309 0.15074 0.0
C27 C 0.96554 0.75275 0.12534 0.0
C28 C 1.01647 0.78803 0.12017 0.0
C29 C 1.04709 0.78935 0.16648 0.0
C30 C 0.99625 0.75435 0.17168 0.0
C31 C 1.11064 0.82266 0.13254 0.0
H32 H 0.36193 0.5862 0.19364 0.0
H33 H 0.30408 0.6146 0.20899 0.0
H34 H 0.32801 0.70601 0.14082 0.0
H35 H 0.38713 0.67872 0.12549 0.0
H36 H 0.93505 0.73703 0.10872 0.0
H37 H 1.02396 0.79851 0.0998 0.0
H38 H 1.07824 0.80086 0.18244 0.0
H39 H 0.98955 0.74065 0.19157 0.0
Tb40 Tb 0.74778 0.18727 0.50335 0.0
Eu41 Eu 0.62815 0.12002 0.47566 0.0
C42 C 0.65566 0.12764 0.53831 0.0
C43 C 0.69534 1.0656 0.49183 0.0
C44 C 0.86818 0.30763 0.52229 0.0
C45 C 0.87024 0.38911 0.53237 0.0
C46 C 0.85765 0.33919 0.53904 0.0
C47 C 0.89815 0.32985 0.50099 0.0
C48 C 0.91105 0.37992 0.49443 0.0
C49 C 0.89403 0.40864 0.50896 0.0
C50 C 0.83938 0.2502 0.52356 0.0
O51 O 0.7482 0.20748 0.46148 0.0
O52 O 0.67848 0.1305 0.44312 0.0
O53 O 0.65441 0.20514 0.47059 0.0
O54 O 0.71366 0.23602 0.50772 0.0
C55 C 0.72178 0.17377 0.44065 0.0
O56 O 0.56538 1.052 0.45131 0.0
O57 O 0.55138 0.11102 0.46821 0.0
O58 O 0.62561 0.13204 0.51955 0.0
O59 O 0.70277 0.1383 0.53414 0.0
O60 O 0.73807 0.11147 0.49191 0.0
O61 O 0.64906 1.06104 0.49062 0.0
C62 C 0.68491 0.24289 0.48913 0.0
O63 O 0.79922 0.23158 0.53724 0.0
O64 O 0.82831 0.22247 0.50075 0.0
C65 C 0.48233 1.02333 0.46528 0.0
C66 C 0.38696 0.94545 0.48107 0.0
C67 C 0.40153 0.9408 0.45557 0.0
C68 C 0.44869 0.97946 0.44774 0.0
C69 C 0.46889 1.02732 0.49117 0.0
C70 C 0.42134 0.98882 0.49893 0.0
C71 C 0.5307 1.06454 0.45599 0.0
H72 H 0.85683 0.41007 0.54423 0.0
H73 H 0.83547 0.32375 0.55596 0.0
H74 H 0.90806 0.30708 0.48808 0.0
H75 H 0.93148 0.39471 0.47692 0.0
H76 H 0.37548 0.9083 0.44119 0.0
H77 H 0.45846 0.97561 0.42775 0.0
H78 H 0.49463 1.06055 0.50523 0.0
H79 H 0.41113 0.99326 0.51871 0.0
Tb80 Tb 0.77351 0.67245 0.83811 0.0
Eu81 Eu 0.7054 0.54618 0.82522 0.0
C82 C 0.75202 0.5947 0.88377 0.0
C83 C 0.83244 0.61025 0.83138 0.0
C84 C 0.79512 0.80237 0.83796 0.0
C85 C 0.74693 0.84534 0.84781 0.0
C86 C 0.78138 0.8287 0.85632 0.0
C87 C 0.77801 0.79763 0.81056 0.0
C88 C 0.74395 0.81451 0.80206 0.0
C89 C 0.72605 0.8362 0.82078 0.0
C90 C 0.81528 0.76937 0.84803 0.0
O91 O 0.77045 0.65971 0.79449 0.0
O92 O 0.69604 0.57964 0.78735 0.0
O93 O 0.6522 0.57315 0.83992 0.0
O94 O 0.6947 0.65461 0.82548 0.0
C95 C 0.7318 0.62248 0.77827 0.0
O96 O 0.68189 0.47408 0.8011 0.0
O97 O 0.6413 0.47258 0.83554 0.0
O98 O 0.74666 0.55898 0.86599 0.0
O99 O 0.7522 0.63672 0.87629 0.0
O100 O 0.83268 0.65073 0.84287 0.0
O101 O 0.78908 0.5687 0.82037 0.0
C102 C 0.65269 0.61574 0.83344 0.0
O103 O 0.7857 0.73532 0.86386 0.0
O104 O 0.83062 0.74837 0.8304 0.0
C105 C 0.64276 0.39658 0.82368 0.0
C106 C 0.63285 0.30035 0.83514 0.0
C107 C 0.58866 0.30377 0.82712 0.0
C108 C 0.59364 0.35141 0.82148 0.0
C109 C 0.68703 0.39419 0.83259 0.0
C110 C 0.68212 0.34625 0.83822 0.0
C111 C 0.64612 0.44526 0.81638 0.0
H112 H 0.73435 0.86262 0.86261 0.0
H113 H 0.79382 0.83249 0.87756 0.0
H114 H 0.78736 0.77701 0.7959 0.0
H115 H 0.72831 0.80643 0.78113 0.0
H116 H 0.55025 0.26923 0.82394 0.0
H117 H 0.5591 0.35276 0.81475 0.0
H118 H 0.72527 0.42906 0.8347 0.0
H119 H 0.71683 0.34493 0.84446 0.0
H120 H 0.66184 0.21243 0.16996 0.0
H121 H 0.77382 0.28869 0.23958 0.0
H122 H 0.63417 0.14232 0.24535 0.0
H123 H 0.8232 0.289 0.19901 0.0
C124 C 0.81009 0.31337 0.18964 0.0
C125 C 0.67351 0.21361 0.1911 0.0
C126 C 0.64225 0.17168 0.2062 0.0
C127 C 0.72171 0.25551 0.20296 0.0
C128 C 0.73703 0.25648 0.23036 0.0
C129 C 0.70575 0.21572 0.24575 0.0
C130 C 0.65866 0.17373 0.23347 0.0
N131 N 0.75577 0.29555 0.18721 0.0
H132 H 0.6977 0.61823 0.49858 0.0
H133 H 0.71088 0.69819 0.57452 0.0
H134 H 0.7119 0.5545 0.57252 0.0
H135 H 0.76859 0.76845 0.54638 0.0
C136 C 0.73579 0.75784 0.53145 0.0
C137 C 0.70125 0.62035 0.52033 0.0
C138 C 0.7046 0.58123 0.53391 0.0
C139 C 0.70518 0.66366 0.53494 0.0
C140 C 0.70989 0.66608 0.56322 0.0
C141 C 0.71129 0.62639 0.57696 0.0
C142 C 0.70941 0.58464 0.56209 0.0
N143 N 0.7042 0.70455 0.52126 0.0
H144 H 0.20191 0.607 0.837 0.0
H145 H 0.30391 0.66054 0.9111 0.0
H146 H 0.1581 0.65668 0.90674 0.0
H147 H 0.36199 0.70145 0.87397 0.0
C148 C 0.34949 0.66291 0.86468 0.0
C149 C 0.21006 0.62135 0.85796 0.0
C150 C 0.17452 0.63095 0.87025 0.0
C151 C 0.25757 0.63303 0.87249 0.0
C152 C 0.26791 0.65211 0.89972 0.0
C153 C 0.23224 0.66081 0.91223 0.0
C154 C 0.18595 0.6502 0.89726 0.0
N155 N 0.29498 0.62621 0.85965 0.0
H156 H 0.9772 0.74771 0.44862 0.0
H157 H 0.93524 0.72438 0.36306 0.0
H158 H 1.08103 0.7426 0.39585 0.0
H159 H 0.84829 0.71865 0.43964 0.0
C160 C 0.87221 0.70458 0.43185 0.0
C161 C 0.98558 0.7423 0.42852 0.0
C162 C 1.03264 0.74481 0.42484 0.0
C163 C 0.94964 0.73345 0.40626 0.0
C164 C 0.96241 0.72996 0.38019 0.0
C165 C 1.00938 0.73198 0.37634 0.0
C166 C 1.04378 0.73879 0.39878 0.0
N167 N 0.90073 0.72846 0.40985 0.0
H168 H 0.44397 0.90566 0.77021 0.0
H169 H 0.43133 0.87968 0.68442 0.0
H170 H 0.55572 1.02332 0.72487 0.0
H171 H 0.35269 0.77279 0.75424 0.0
C172 C 0.38959 0.80176 0.74782 0.0
C173 C 0.45873 0.91908 0.75119 0.0
C174 C 0.50355 0.96808 0.75051 0.0
C175 C 0.43295 0.88696 0.72737 0.0
C176 C 0.45125 0.90474 0.70267 0.0
C177 C 0.49669 0.9534 0.70173 0.0
C178 C 0.52227 0.98468 0.7257 0.0
N179 N 0.39004 0.83562 0.72826 0.0
H180 H 0.54047 0.39922 0.11435 0.0
H181 H 0.66025 0.41436 0.06712 0.0
H182 H 0.59561 0.51384 0.05642 0.0
H183 H 0.6563 0.3413 0.12531 0.0
C184 C 0.65173 0.3744 0.12127 0.0
C185 C 0.56507 0.4176 0.09859 0.0
C186 C 0.56452 0.45906 0.08642 0.0
C187 C 0.60008 0.40216 0.09199 0.0
C188 C 0.63298 0.42635 0.07198 0.0
C189 C 0.63111 0.46632 0.05865 0.0
C190 C 0.59679 0.48244 0.06614 0.0
N191 N 0.60429 0.3647 0.10703 0.0
H192 H 0.4498 0.6115 0.1861 0.0
H193 H 0.50337 0.48798 0.0571 0.0
H194 H 0.37707 0.59814 0.10614 0.0
H195 H 0.55763 0.48201 0.13847 0.0
H196 H 0.45973 0.53183 0.0743 0.0
H197 H 0.49364 0.56841 0.16856 0.0
C198 C 0.44311 0.59958 0.16485 0.0
C199 C 0.40955 0.6083 0.14759 0.0
C200 C 0.48093 0.52064 0.0884 0.0
C201 C 0.45977 0.55912 0.12735 0.0
C202 C 0.50581 0.49568 0.07859 0.0
C203 C 0.53393 0.48122 0.09641 0.0
C204 C 0.48458 0.53158 0.11621 0.0
C205 C 0.53571 0.49183 0.12407 0.0
C206 C 0.46819 0.57503 0.15484 0.0
C207 C 0.40306 0.59281 0.12014 0.0
N208 N 0.51158 0.51659 0.13311 0.0
N209 N 0.42781 0.56882 0.11089 0.0
H210 H 0.87746 0.42249 0.45623 0.0
H211 H 0.86433 0.68043 0.48399 0.0
H212 H 0.90838 0.49823 0.53593 0.0
H213 H 0.87991 0.62665 0.40633 0.0
H214 H 0.87046 0.60884 0.50369 0.0
H215 H 0.87077 0.49348 0.4379 0.0
C216 C 0.88391 0.4545 0.46993 0.0
C217 C 0.89434 0.45447 0.49774 0.0
C218 C 0.87284 0.61303 0.48238 0.0
C219 C 0.88472 0.53549 0.47671 0.0
C220 C 0.86904 0.65352 0.47116 0.0
C221 C 0.87294 0.66002 0.44369 0.0
C222 C 0.87962 0.5785 0.46581 0.0
C223 C 0.8783 0.62392 0.42775 0.0
C224 C 0.87941 0.49484 0.4594 0.0
C225 C 0.90012 0.49634 0.5144 0.0
N226 N 0.88161 0.58481 0.43906 0.0
N227 N 0.89509 0.53513 0.50363 0.0
H228 H 0.70704 0.87398 0.77478 0.0
H229 H 0.41354 0.78646 0.79913 0.0
H230 H 0.64085 0.80957 0.8476 0.0
H231 H 0.47579 0.82435 0.72287 0.0
H232 H 0.49797 0.80109 0.81913 0.0
H233 H 0.6249 0.86672 0.7578 0.0
C234 C 0.67539 0.85886 0.78732 0.0
C235 C 0.68066 0.84185 0.81251 0.0
C236 C 0.49311 0.80646 0.79805 0.0
C237 C 0.58628 0.83291 0.79313 0.0
C238 C 0.44499 0.79777 0.78666 0.0
C239 C 0.43841 0.80565 0.75958 0.0
C240 C 0.53449 0.82287 0.78209 0.0
C241 C 0.47989 0.81966 0.74408 0.0
C242 C 0.62843 0.85453 0.77759 0.0
C243 C 0.63864 0.82344 0.82812 0.0
N244 N 0.52624 0.82822 0.7556 0.0
N245 N 0.59297 0.81891 0.81805 0.0
H246 H 0.85519 0.70472 0.13141 0.0
H247 H 0.75474 0.40778 0.12841 0.0
H248 H 0.9439 0.64886 0.17611 0.0
H249 H 0.64682 0.46114 0.13805 0.0
H250 H 0.827 0.49704 0.14122 0.0
H251 H 0.77834 0.61656 0.12884 0.0
C252 C 0.85832 0.67423 0.14102 0.0
C253 C 0.90622 0.68406 0.1537 0.0
C254 C 0.78733 0.48893 0.14045 0.0
C255 C 0.81935 0.58363 0.1503 0.0
C256 C 0.74628 0.43827 0.13307 0.0
C257 C 0.69489 0.42762 0.13078 0.0
C258 C 0.77667 0.52902 0.14534 0.0
C259 C 0.68584 0.46819 0.13771 0.0
C260 C 0.81459 0.62414 0.13958 0.0
C261 C 0.90797 0.64315 0.16601 0.0
N262 N 0.72641 0.51745 0.14415 0.0
N263 N 0.86548 0.59446 0.1635 0.0
H264 H 0.31821 0.96624 0.50343 0.0
H265 H 1.08742 0.69676 0.4381 0.0
H266 H 0.33443 0.83893 0.4729 0.0
H267 H 1.07207 0.82801 0.46204 0.0
H268 H 0.17164 0.73715 0.4653 0.0
H269 H 0.22466 0.90635 0.50298 0.0
C270 C 0.30231 0.92534 0.49739 0.0
C271 C 0.33381 0.90771 0.4875 0.0
C272 C 0.14933 0.75658 0.46522 0.0
C273 C 0.22682 0.83927 0.48645 0.0
C274 C 1.10123 0.73343 0.44977 0.0
C275 C 1.0736 0.7598 0.4474 0.0
C276 C 0.17022 0.80684 0.47793 0.0
C277 C 1.09258 0.80675 0.46315 0.0
C278 C 0.24881 0.89119 0.49699 0.0
C279 C 0.31118 0.85435 0.47995 0.0
N280 N 1.14046 0.82952 0.47723 0.0
N281 N 0.2589 0.8222 0.47908 0.0
H282 H 0.6961 0.26683 0.81727 0.0
H283 H 0.45697 0.9879 0.79054 0.0
H284 H 0.55628 0.21428 0.8563 0.0
H285 H 0.60793 1.03137 0.76626 0.0
H286 H 0.49824 1.06277 0.82369 0.0
H287 H 0.67275 0.17655 0.80818 0.0
C288 C 0.66126 0.23644 0.82469 0.0
C289 C 0.6272 0.24811 0.83678 0.0
C290 C 0.5226 1.05535 0.81158 0.0
C291 C 0.59931 0.14435 0.82561 0.0
C292 C 0.49898 1.01233 0.79269 0.0
C293 C 0.5289 1.00438 0.77501 0.0
C294 C 0.57632 1.091 0.81245 0.0
C295 C 0.58322 1.03725 0.77884 0.0
C296 C 0.64769 0.18465 0.81931 0.0
C297 C 0.58267 0.20691 0.84598 0.0
N298 N 0.60508 1.07987 0.79668 0.0
N299 N 0.56926 0.15677 0.83957 0.0
H300 H 0.78477 1.06253 0.50226 0.0
H301 H 0.64914 0.75154 0.50278 0.0
H302 H 0.61795 0.96145 0.4886 0.0
H303 H 0.80394 0.86118 0.53962 0.0
H304 H 0.6379 0.8254 0.49115 0.0
H305 H 0.79343 0.98675 0.50938 0.0
C306 C 0.74983 1.02438 0.50059 0.0
C307 C 0.70047 1.0187 0.49491 0.0
C308 C 0.67436 0.83312 0.50165 0.0
C309 C 0.71033 0.93096 0.50309 0.0
C310 C 0.68089 0.79105 0.50814 0.0
C311 C 0.72766 0.80035 0.52213 0.0
C312 C 0.71518 0.88464 0.50888 0.0
C313 C 0.7673 0.85227 0.52881 0.0
C314 C 0.75486 0.98098 0.50477 0.0
C315 C 0.65679 0.96788 0.49305 0.0
N316 N 0.76025 0.89225 0.52209 0.0
N317 N 0.66271 0.92598 0.49712 0.0
H318 H 0.92996 0.69597 0.83965 0.0
H319 H 1.0826 0.54044 0.8528 0.0
H320 H 0.85115 0.5287 0.82433 0.0
H321 H 0.15616 0.70773 0.85662 0.0
H322 H 0.99823 0.53341 0.83899 0.0
H323 H 1.01311 0.6995 0.84331 0.0
C324 C 0.93005 0.65982 0.83698 0.0
C325 C 0.88316 0.6119 0.83185 0.0
C326 C 1.03302 0.57162 0.84229 0.0
C327 C 0.97937 0.61567 0.83619 0.0
C328 C 1.08118 0.57557 0.84988 0.0
C329 C 1.12641 0.62474 0.85551 0.0
C330 C 1.0302 0.61722 0.84064 0.0
C331 C 1.12229 0.6691 0.85218 0.0
C332 C 0.97782 0.66191 0.83898 0.0
C333 C 0.88623 0.56654 0.82831 0.0
N334 N 1.07519 0.6643 0.84523 0.0
N335 N 0.93345 0.56946 0.83083 0.0
H336 H 0.32076 0.94292 0.14426 0.0
H337 H 0.61687 1.07085 0.20968 0.0
H338 H 0.38417 0.85959 0.18598 0.0
H339 H 0.55642 0.16319 0.17591 0.0
H340 H 0.53327 0.99209 0.19631 0.0
H341 H 0.40703 1.02259 0.15155 0.0
C342 C 0.35269 0.9412 0.15486 0.0
C343 C 0.34479 0.89423 0.16465 0.0
C344 C 0.53805 1.02938 0.1916 0.0
C345 C 0.44386 0.98543 0.1729 0.0
C346 C 0.58597 1.07447 0.19919 0.0
C347 C 0.5936 0.12382 0.19415 0.0
C348 C 0.49673 1.0331 0.17885 0.0
C349 C 0.55226 0.12596 0.18017 0.0
C350 C 0.40197 0.98678 0.15901 0.0
C351 C 0.3879 0.89466 0.1782 0.0
N352 N 0.50539 1.08128 0.17324 0.0
N353 N 0.4352 0.93929 0.1819 0.0
H354 H 0.61371 0.26921 0.46725 0.0
H355 H 0.78507 0.56363 0.53444 0.0
H356 H 0.76411 0.33476 0.51278 0.0
H357 H 0.62502 0.4976 0.50215 0.0
H358 H 0.78215 0.48374 0.51858 0.0
H359 H 0.62029 0.35505 0.47273 0.0
C360 C 0.64828 0.30164 0.47814 0.0
C361 C 0.68822 0.29455 0.48986 0.0
C362 C 0.74769 0.48666 0.51462 0.0
C363 C 0.69626 0.39274 0.49596 0.0
C364 C 0.74954 0.53248 0.52352 0.0
C365 C 0.70528 0.53718 0.51954 0.0
C366 C 0.70089 0.4445 0.50195 0.0
C367 C 0.66008 0.49555 0.50541 0.0
C368 C 0.65197 0.35057 0.48131 0.0
C369 C 0.73211 0.33807 0.50371 0.0
N370 N 0.65879 0.45063 0.49738 0.0
N371 N 0.73488 0.3849 0.50639 0.0
H372 H 0.64471 0.70277 0.82788 0.0
H373 H 0.34288 0.56812 0.85208 0.0
H374 H 0.55386 0.54092 0.84394 0.0
H375 H 0.44991 0.73414 0.85967 0.0
H376 H 0.41517 0.55471 0.84267 0.0
H377 H 0.56917 0.71193 0.83284 0.0
C378 C 0.60888 0.669 0.83235 0.0
C379 C 0.60599 0.62095 0.8356 0.0
C380 C 0.42265 0.59404 0.84625 0.0
C381 C 0.51881 0.63155 0.84139 0.0
C382 C 0.38137 0.6017 0.85146 0.0
C383 C 0.39045 0.65236 0.85668 0.0
C384 C 0.4731 0.63739 0.84589 0.0
C385 C 0.4412 0.69443 0.85583 0.0
C386 C 0.56572 0.67441 0.83529 0.0
C387 C 0.55814 0.57877 0.84139 0.0
N388 N 0.4804 0.68605 0.85051 0.0
N389 N 0.51651 0.58503 0.8441 0.0
H390 H 1.00733 0.6378 0.15515 0.0
H391 H 0.90861 0.34062 0.18274 0.0
H392 H 1.09978 0.56505 0.14977 0.0
H393 H 0.80342 0.39932 0.17478 0.0
H394 H 0.97829 0.42337 0.17009 0.0
H395 H 0.93161 0.5522 0.16156 0.0
C396 C 1.01164 0.60388 0.15516 0.0
C397 C 1.06024 0.60891 0.15214 0.0
C398 C 0.93999 0.41834 0.17085 0.0
C399 C 0.97384 0.51095 0.15956 0.0
C400 C 0.90011 0.37096 0.17808 0.0
C401 C 0.85011 0.36295 0.17972 0.0
C402 C 0.93039 0.45887 0.16553 0.0
C403 C 0.84135 0.40373 0.17357 0.0
C404 C 0.9684 0.55507 0.15877 0.0
C405 C 1.06337 0.56344 0.15207 0.0
N406 N 0.88126 0.45018 0.16697 0.0
N407 N 1.02109 0.51676 0.15594 0.0
H408 H 0.27616 0.69735 0.08715 0.0
H409 H 0.21886 0.73794 0.93364 0.0
H410 H 0.1946 0.77564 0.06062 0.0
H411 H 0.26862 0.63017 0.95604 0.0
H412 H 0.22433 0.76344 0.98097 0.0
H413 H 0.28715 0.68289 0.04014 0.0
C414 C 0.26101 0.71191 0.07152 0.0
C415 C 0.23401 0.73738 0.07784 0.0
C416 C 0.23436 0.7344 0.97562 0.0
C417 C 0.24672 0.72124 0.02421 0.0
C418 C 0.23118 0.71977 0.94857 0.0
C419 C 0.24244 0.6812 0.94087 0.0
C420 C 0.24894 0.71041 -0.00466 0.0
C421 C 0.25947 0.65998 0.9611 0.0
C422 C 0.26717 0.7035 0.04472 0.0
C423 C 0.21518 0.75534 0.05676 0.0
N424 N 0.26172 0.67447 0.98747 0.0
N425 N 0.22181 0.74685 0.03099 0.0
H426 H 0.71014 0.10512 0.40045 0.0
H427 H 0.74549 0.29604 0.28559 0.0
H428 H 0.76498 0.26827 0.41825 0.0
H429 H 0.70321 0.13524 0.27146 0.0
H430 H 0.76283 0.29103 0.33383 0.0
H431 H 0.71822 0.11958 0.35313 0.0
C432 C 0.72471 0.14429 0.39436 0.0
C433 C 0.73661 0.18549 0.4132 0.0
C434 C 0.75033 0.25708 0.3201 0.0
C435 C 0.74477 0.20234 0.35873 0.0
C436 C 0.74057 0.25995 0.29259 0.0
C437 C 0.72205 0.21572 0.27454 0.0
C438 C 0.74159 0.20966 0.32955 0.0
C439 C 0.71628 0.16995 0.28469 0.0
C440 C 0.72922 0.15257 0.36728 0.0
C441 C 0.75556 0.23551 0.40429 0.0
N442 N 0.72557 0.16804 0.31144 0.0
N443 N 0.75823 0.24244 0.37754 0.0
H444 H 0.79546 0.70536 0.74974 0.0
H445 H 0.65483 0.54605 0.60742 0.0
H446 H 0.66086 0.54983 0.73945 0.0
H447 H 0.77254 0.70938 0.61444 0.0
H448 H 0.65945 0.54727 0.6562 0.0
H449 H 0.79024 0.70863 0.70069 0.0
C450 C 0.76478 0.67204 0.73726 0.0
C451 C 0.72872 0.62718 0.74884 0.0
C452 C 0.68429 0.58299 0.64717 0.0
C453 C 0.7227 0.63058 0.6928 0.0
C454 C 0.68188 0.58219 0.61926 0.0
C455 C 0.71356 0.62759 0.60678 0.0
C456 C 0.71891 0.62947 0.66297 0.0
C457 C 0.74722 0.67354 0.62322 0.0
C458 C 0.7618 0.67395 0.70928 0.0
C459 C 0.68969 0.58526 0.7316 0.0
N460 N 0.74924 0.67327 0.65048 0.0
N461 N 0.68795 0.58795 0.7046 0.0
H462 H 0.56217 0.10711 0.55358 0.0
H463 H 0.4425 0.94849 0.65399 0.0
H464 H 0.69597 1.0941 0.5791 0.0
H465 H 0.59822 1.00288 0.69076 0.0
H466 H 0.47854 0.98853 0.61321 0.0
H467 H 0.52036 1.06163 0.59172 0.0
C468 C 0.58281 1.09451 0.56719 0.0
C469 C 0.63265 0.10419 0.56296 0.0
C470 C 0.50501 0.99251 0.6303 0.0
C471 C 0.58376 1.04996 0.60647 0.0
C472 C 0.48428 0.96874 0.65343 0.0
C473 C 0.51743 0.97305 0.67594 0.0
C474 C 0.55935 1.0211 0.62975 0.0
C475 C 0.57132 0.99966 0.67406 0.0
C476 C 0.55841 1.06771 0.58884 0.0
C477 C 0.65753 1.08744 0.58154 0.0
N478 N 0.59061 1.02284 0.65141 0.0
N479 N 0.63278 1.0611 0.60253 0.0
H480 H 0.75245 0.512 0.90551 0.0
H481 H 0.68327 0.5698 0.04852 0.0
H482 H 0.74621 0.64998 0.92706 0.0
H483 H 0.65335 0.4189 0.01827 0.0
H484 H 0.72481 0.6067 0.00823 0.0
H485 H 0.73546 0.48544 0.95084 0.0
C486 C 0.74813 0.53713 0.91985 0.0
C487 C 0.7499 0.58296 0.91228 0.0
C488 C 0.70962 0.56564 0.01056 0.0
C489 C 0.73026 0.55243 0.96435 0.0
C490 C 0.68568 0.54444 0.03349 0.0
C491 C 0.66372 0.49084 0.03653 0.0
C492 C 0.71198 0.53314 0.99058 0.0
C493 C 0.66957 0.46033 0.0168 0.0
C494 C 0.73833 0.52179 0.94576 0.0
C495 C 0.74467 0.61412 0.93191 0.0
N496 N 0.69264 0.4818 -0.00547 0.0
N497 N 0.73451 0.59798 0.95699 0.0
H498 H 0.15598 0.6873 0.2444 0.0
H499 H 1.00811 0.78748 0.33397 0.0
H500 H 1.13753 0.81817 0.2265 0.0
H501 H 1.04771 0.67283 0.35739 0.0
H502 H 1.04693 0.79292 0.29193 0.0
H503 H 1.11042 0.67699 0.28415 0.0
C504 C 1.14269 0.71413 0.2489 0.0
C505 C 0.15082 0.75378 0.23208 0.0
C506 C 1.04675 0.76628 0.30619 0.0
C507 C 1.09784 0.74169 0.27745 0.0
C508 C 1.02411 0.76278 0.33001 0.0
C509 C 1.02498 0.72985 0.34917 0.0
C510 C 1.0701 0.73642 0.30151 0.0
C511 C 1.04673 0.6991 0.34322 0.0
C512 C 1.11645 0.70806 0.27156 0.0
C513 C 1.13238 0.78715 0.23891 0.0
N514 N 1.06862 0.70331 0.32001 0.0
N515 N 1.10663 0.78025 0.26101 0.0
loop_
_geom_bond_atom_site_label_1
_geom_bond_atom_site_label_2
_geom_bond_distance
_geom_bond_site_symmetry_2
_ccdc_geom_bond_type
Tb0 C10 2.825 . S
Tb0 O11 2.347 . S
Tb0 O14 2.366 . S
Tb0 O19 2.418 . S
Tb0 O20 2.384 . S
Tb0 O23 2.479 . S
Tb0 O24 2.471 . S
Eu1 O12 2.418 . S
Eu1 O13 2.384 . S
Eu1 O16 2.479 1_455 S
Eu1 O17 2.471 1_455 S
Eu1 O18 2.347 . S
Eu1 O21 2.366 1_455 S
Eu1 C31 2.825 1_455 S
C2 O18 1.259 . S
C2 O19 1.265 . S
C3 O20 1.255 1_655 S
C3 O21 1.265 . S
C4 C6 1.380 . S
C4 C7 1.374 . S
C4 C10 1.507 . S
C5 C6 1.384 . S
C5 C9 1.387 . S
C5 H32 0.930 . S
C6 C4 1.380 . S
C6 C5 1.384 . S
C6 H33 0.931 . S
C7 C4 1.374 . S
C7 C8 1.390 . S
C7 H34 0.930 . S
C8 C7 1.390 . S
C8 C9 1.391 . S
C8 H35 0.930 . S
C9 C5 1.387 . S
C9 C8 1.391 . S
C10 Tb0 2.825 . S
C10 C4 1.507 . S
C10 O23 1.238 . S
C10 O24 1.247 . S
O11 Tb0 2.347 . S
O11 C15 1.259 . S
O12 Eu1 2.418 . S
O12 C15 1.265 . S
O13 Eu1 2.384 . S
O13 C22 1.255 . S
O14 Tb0 2.366 . S
O14 C22 1.265 . S
C15 O11 1.259 . S
C15 O12 1.265 . S
O16 Eu1 2.479 1_655 S
O16 C31 1.238 . S
O17 Eu1 2.471 1_655 S
O17 C31 1.247 . S
O18 Eu1 2.347 . S
O18 C2 1.259 . S
O19 Tb0 2.418 . S
O19 C2 1.265 . S
O20 Tb0 2.384 . S
O20 C3 1.255 1_455 S
O21 Eu1 2.366 1_655 S
O21 C3 1.265 . S
C22 O13 1.255 . S
C22 O14 1.265 . S
O23 Tb0 2.479 . S
O23 C10 1.238 . S
O24 Tb0 2.471 . S
O24 C10 1.247 . S
C25 C28 1.380 . S
C25 C29 1.374 . S
C25 C31 1.507 . S
C26 C27 1.387 . S
C26 C30 1.391 . S
C27 C26 1.387 . S
C27 C28 1.384 . S
C27 H36 0.930 . S
C28 C25 1.380 . S
C28 C27 1.384 . S
C28 H37 0.931 . S
C29 C25 1.374 . S
C29 C30 1.390 . S
C29 H38 0.930 . S
C30 C26 1.391 . S
C30 C29 1.390 . S
C30 H39 0.930 . S
C31 Eu1 2.825 1_655 S
C31 O16 1.238 . S
C31 O17 1.247 . S
C31 C25 1.507 . S
H32 C5 0.930 . S
H33 C6 0.931 . S
H34 C7 0.930 . S
H35 C8 0.930 . S
H36 C27 0.930 . S
H37 C28 0.931 . S
H38 C29 0.930 . S
H39 C30 0.930 . S
Tb40 C50 2.825 . S
Tb40 O51 2.347 . S
Tb40 O54 2.366 . S
Tb40 O59 2.418 . S
Tb40 O60 2.384 . S
Tb40 O63 2.479 . S
Tb40 O64 2.471 . S
Eu41 O52 2.418 . S
Eu41 O53 2.384 . S
Eu41 O56 2.479 1_545 S
Eu41 O57 2.471 1_545 S
Eu41 O58 2.347 . S
Eu41 O61 2.366 1_545 S
Eu41 C71 2.825 1_545 S
C42 O58 1.259 . S
C42 O59 1.265 . S
C43 O60 1.255 1_565 S
C43 O61 1.265 . S
C44 C46 1.380 . S
C44 C47 1.374 . S
C44 C50 1.507 . S
C45 C46 1.384 . S
C45 C49 1.387 . S
C45 H72 0.930 . S
C46 C44 1.380 . S
C46 C45 1.384 . S
C46 H73 0.931 . S
C47 C44 1.374 . S
C47 C48 1.390 . S
C47 H74 0.930 . S
C48 C47 1.390 . S
C48 C49 1.391 . S
C48 H75 0.930 . S
C49 C45 1.387 . S
C49 C48 1.391 . S
C50 Tb40 2.825 . S
C50 C44 1.507 . S
C50 O63 1.238 . S
C50 O64 1.247 . S
O51 Tb40 2.347 . S
O51 C55 1.259 . S
O52 Eu41 2.418 . S
O52 C55 1.265 . S
O53 Eu41 2.384 . S
O53 C62 1.255 . S
O54 Tb40 2.366 . S
O54 C62 1.265 . S
C55 O51 1.259 . S
C55 O52 1.265 . S
O56 Eu41 2.479 1_565 S
O56 C71 1.238 . S
O57 Eu41 2.471 1_565 S
O57 C71 1.247 . S
O58 Eu41 2.347 . S
O58 C42 1.259 . S
O59 Tb40 2.418 . S
O59 C42 1.265 . S
O60 Tb40 2.384 . S
O60 C43 1.255 1_545 S
O61 Eu41 2.366 1_565 S
O61 C43 1.265 . S
C62 O53 1.255 . S
C62 O54 1.265 . S
O63 Tb40 2.479 . S
O63 C50 1.238 . S
O64 Tb40 2.471 . S
O64 C50 1.247 . S
C65 C68 1.380 . S
C65 C69 1.374 . S
C65 C71 1.507 . S
C66 C67 1.387 . S
C66 C70 1.391 . S
C67 C66 1.387 . S
C67 C68 1.384 . S
C67 H76 0.930 . S
C68 C65 1.380 . S
C68 C67 1.384 . S
C68 H77 0.931 . S
C69 C65 1.374 . S
C69 C70 1.390 . S
C69 H78 0.930 . S
C70 C66 1.391 . S
C70 C69 1.390 . S
C70 H79 0.930 . S
C71 Eu41 2.825 1_565 S
C71 O56 1.238 . S
C71 O57 1.247 . S
C71 C65 1.507 . S
H72 C45 0.930 . S
H73 C46 0.931 . S
H74 C47 0.930 . S
H75 C48 0.930 . S
H76 C67 0.930 . S
H77 C68 0.931 . S
H78 C69 0.930 . S
H79 C70 0.930 . S
Tb80 C90 2.825 . S
Tb80 O91 2.347 . S
Tb80 O94 2.366 . S
Tb80 O99 2.418 . S
Tb80 O100 2.384 . S
Tb80 O103 2.479 . S
Tb80 O104 2.471 . S
Eu81 O92 2.418 . S
Eu81 O93 2.384 . S
Eu81 O96 2.479 . S
Eu81 O97 2.471 . S
Eu81 O98 2.347 . S
Eu81 O101 2.366 . S
Eu81 C111 2.825 . S
C82 O98 1.259 . S
C82 O99 1.265 . S
C83 O100 1.255 . S
C83 O101 1.265 . S
C84 C86 1.380 . S
C84 C87 1.374 . S
C84 C90 1.507 . S
C85 C86 1.384 . S
C85 C89 1.387 . S
C85 H112 0.930 . S
C86 C84 1.380 . S
C86 C85 1.384 . S
C86 H113 0.931 . S
C87 C84 1.374 . S
C87 C88 1.390 . S
C87 H114 0.930 . S
C88 C87 1.390 . S
C88 C89 1.391 . S
C88 H115 0.930 . S
C89 C85 1.387 . S
C89 C88 1.391 . S
C90 Tb80 2.825 . S
C90 C84 1.507 . S
C90 O103 1.238 . S
C90 O104 1.247 . S
O91 Tb80 2.347 . S
O91 C95 1.259 . S
O92 Eu81 2.418 . S
O92 C95 1.265 . S
O93 Eu81 2.384 . S
O93 C102 1.255 . S
O94 Tb80 2.366 . S
O94 C102 1.265 . S
C95 O91 1.259 . S
C95 O92 1.265 . S
O96 Eu81 2.479 . S
O96 C111 1.238 . S
O97 Eu81 2.471 . S
O97 C111 1.247 . S
O98 Eu81 2.347 . S
O98 C82 1.259 . S
O99 Tb80 2.418 . S
O99 C82 1.265 . S
O100 Tb80 2.384 . S
O100 C83 1.255 . S
O101 Eu81 2.366 . S
O101 C83 1.265 . S
C102 O93 1.255 . S
C102 O94 1.265 . S
O103 Tb80 2.479 . S
O103 C90 1.238 . S
O104 Tb80 2.471 . S
O104 C90 1.247 . S
C105 C108 1.380 . S
C105 C109 1.374 . S
C105 C111 1.507 . S
C106 C107 1.387 . S
C106 C110 1.391 . S
C107 C106 1.387 . S
C107 C108 1.384 . S
C107 H116 0.930 . S
C108 C105 1.380 . S
C108 C107 1.384 . S
C108 H117 0.931 . S
C109 C105 1.374 . S
C109 C110 1.390 . S
C109 H118 0.930 . S
C110 C106 1.391 . S
C110 C109 1.390 . S
C110 H119 0.930 . S
C111 Eu81 2.825 . S
C111 O96 1.238 . S
C111 O97 1.247 . S
C111 C105 1.507 . S
H112 C85 0.930 . S
H113 C86 0.931 . S
H114 C87 0.930 . S
H115 C88 0.930 . S
H116 C107 0.930 . S
H117 C108 0.931 . S
H118 C109 0.930 . S
H119 C110 0.930 . S
H120 C125 0.930 . S
H121 C128 0.930 . S
H122 C130 0.930 1_565 S
H123 C124 1.016 . S
C124 H123 1.016 . S
C124 N131 1.286 . S
C125 H120 0.930 . S
C125 C126 1.390 1_545 S
C125 C127 1.361 . S
C126 C125 1.390 1_565 S
C126 C130 1.384 1_565 S
C127 C125 1.361 . S
C127 C128 1.393 . S
C127 N131 1.413 . S
C128 H121 0.930 . S
C128 C127 1.393 . S
C128 C129 1.399 . S
C129 C128 1.399 . S
C129 C130 1.381 . S
C130 H122 0.930 1_545 S
C130 C126 1.384 1_545 S
C130 C129 1.381 . S
N131 C124 1.286 . S
N131 C127 1.413 . S
H132 C137 0.930 . S
H133 C140 0.930 . S
H134 C142 0.930 . S
H135 C136 1.016 . S
C136 H135 1.016 . S
C136 N143 1.286 . S
C137 H132 0.930 . S
C137 C138 1.397 . S
C137 C139 1.361 . S
C138 C137 1.397 . S
C138 C142 1.390 . S
C139 C137 1.361 . S
C139 C140 1.393 . S
C139 N143 1.413 . S
C140 H133 0.930 . S
C140 C139 1.393 . S
C140 C141 1.399 . S
C141 C140 1.399 . S
C141 C142 1.381 . S
C142 H134 0.930 . S
C142 C138 1.390 . S
C142 C141 1.381 . S
N143 C136 1.286 . S
N143 C139 1.413 . S
H144 C149 0.930 . S
H145 C152 0.930 . S
H146 C154 0.930 . S
H147 C148 1.016 . S
C148 H147 1.016 . S
C148 N155 1.286 . S
C149 H144 0.930 . S
C149 C150 1.397 . S
C149 C151 1.361 1_655 S
C150 C149 1.397 . S
C150 C154 1.390 . S
C151 C149 1.361 1_455 S
C151 C152 1.393 . S
C151 N155 1.413 . S
C152 H145 0.930 . S
C152 C151 1.393 . S
C152 C153 1.399 . S
C153 C152 1.399 . S
C153 C154 1.381 1_455 S
C154 H146 0.930 . S
C154 C150 1.390 . S
C154 C153 1.381 1_655 S
N155 C148 1.286 . S
N155 C151 1.413 . S
H156 C161 0.930 . S
H157 C164 0.930 . S
H158 C166 0.930 . S
H159 C160 1.016 . S
C160 H159 1.016 . S
C160 N167 1.286 . S
C161 H156 0.930 . S
C161 C162 1.397 . S
C161 C163 1.361 . S
C162 C161 1.397 . S
C162 C166 1.390 . S
C163 C161 1.361 . S
C163 C164 1.393 1_455 S
C163 N167 1.413 1_455 S
C164 H157 0.930 . S
C164 C163 1.393 1_655 S
C164 C165 1.399 1_655 S
C165 C164 1.399 1_455 S
C165 C166 1.381 . S
C166 H158 0.930 . S
C166 C162 1.390 . S
C166 C165 1.381 . S
N167 C160 1.286 . S
N167 C163 1.413 1_655 S
H168 C173 0.930 . S
H169 C176 0.930 . S
H170 C178 0.930 . S
H171 C172 1.016 . S
C172 H171 1.016 . S
C172 N179 1.286 . S
C173 H168 0.930 . S
C173 C174 1.397 . S
C173 C175 1.361 . S
C174 C173 1.397 . S
C174 C178 1.390 . S
C175 C173 1.361 . S
C175 C176 1.393 1_545 S
C175 N179 1.413 1_545 S
C176 H169 0.930 . S
C176 C175 1.393 1_565 S
C176 C177 1.399 1_565 S
C177 C176 1.399 1_545 S
C177 C178 1.381 . S
C178 H170 0.930 . S
C178 C174 1.390 . S
C178 C177 1.381 . S
N179 C172 1.286 . S
N179 C175 1.413 1_565 S
H180 C185 0.930 . S
H181 C188 0.930 . S
H182 C190 0.930 . S
H183 C184 1.016 . S
C184 H183 1.016 . S
C184 N191 1.286 . S
C185 H180 0.930 . S
C185 C186 1.397 . S
C185 C187 1.361 . S
C186 C185 1.397 . S
C186 C190 1.390 . S
C187 C185 1.361 . S
C187 C188 1.393 . S
C187 N191 1.413 . S
C188 H181 0.930 . S
C188 C187 1.393 . S
C188 C189 1.399 . S
C189 C188 1.399 . S
C189 C190 1.381 . S
C190 H182 0.930 . S
C190 C186 1.390 . S
C190 C189 1.381 . S
N191 C184 1.286 . S
N191 C187 1.413 . S
H192 C198 0.930 . S
H193 C202 0.930 . S
H194 C207 0.929 . S
H195 C205 0.929 . S
H196 C200 0.929 . S
H197 C206 0.929 . S
C198 H192 0.930 . S
C198 C199 1.367 . S
C198 C206 1.378 . S
C199 C198 1.367 . S
C199 C207 1.433 . S
C200 H196 0.929 . S
C200 C202 1.378 . S
C200 C204 1.350 . S
C201 C204 1.463 . S
C201 C206 1.350 . S
C201 N209 1.427 . S
C202 H193 0.930 . S
C202 C200 1.378 . S
C202 C203 1.367 . S
C203 C202 1.367 . S
C203 C205 1.433 . S
C204 C200 1.350 . S
C204 C201 1.463 . S
C204 N208 1.427 . S
C205 H195 0.929 . S
C205 C203 1.433 . S
C205 N208 1.384 . S
C206 H197 0.929 . S
C206 C198 1.378 . S
C206 C201 1.350 . S
C207 H194 0.929 . S
C207 C199 1.433 . S
C207 N209 1.384 . S
N208 C204 1.427 . S
N208 C205 1.384 . S
N209 C201 1.427 . S
N209 C207 1.384 . S
H210 C216 0.930 . S
H211 C220 0.930 . S
H212 C225 0.929 . S
H213 C223 0.929 . S
H214 C218 0.929 . S
H215 C224 0.929 . S
C216 H210 0.930 . S
C216 C217 1.367 . S
C216 C224 1.378 . S
C217 C216 1.367 . S
C217 C225 1.433 . S
C218 H214 0.929 . S
C218 C220 1.378 . S
C218 C222 1.350 . S
C219 C222 1.463 . S
C219 C224 1.350 . S
C219 N227 1.427 . S
C220 H211 0.930 . S
C220 C218 1.378 . S
C220 C221 1.367 . S
C221 C220 1.367 . S
C221 C223 1.433 . S
C222 C218 1.350 . S
C222 C219 1.463 . S
C222 N226 1.427 . S
C223 H213 0.929 . S
C223 C221 1.433 . S
C223 N226 1.384 . S
C224 H215 0.929 . S
C224 C216 1.378 . S
C224 C219 1.350 . S
C225 H212 0.929 . S
C225 C217 1.433 . S
C225 N227 1.384 . S
N226 C222 1.427 . S
N226 C223 1.384 . S
N227 C219 1.427 . S
N227 C225 1.384 . S
H228 C234 0.930 . S
H229 C238 0.930 . S
H230 C243 0.929 . S
H231 C241 0.929 . S
H232 C236 0.929 . S
H233 C242 0.929 . S
C234 H228 0.930 . S
C234 C235 1.367 . S
C234 C242 1.378 . S
C235 C234 1.367 . S
C235 C243 1.433 . S
C236 H232 0.929 . S
C236 C238 1.378 . S
C236 C240 1.350 . S
C237 C240 1.463 . S
C237 C242 1.350 . S
C237 N245 1.427 . S
C238 H229 0.930 . S
C238 C236 1.378 . S
C238 C239 1.367 . S
C239 C238 1.367 . S
C239 C241 1.433 . S
C240 C236 1.350 . S
C240 C237 1.463 . S
C240 N244 1.427 . S
C241 H231 0.929 . S
C241 C239 1.433 . S
C241 N244 1.384 . S
C242 H233 0.929 . S
C242 C234 1.378 . S
C242 C237 1.350 . S
C243 H230 0.929 . S
C243 C235 1.433 . S
C243 N245 1.384 . S
N244 C240 1.427 . S
N244 C241 1.384 . S
N245 C237 1.427 . S
N245 C243 1.384 . S
H246 C252 0.930 . S
H247 C256 0.930 . S
H248 C261 0.929 . S
H249 C259 0.929 . S
H250 C254 0.929 . S
H251 C260 0.929 . S
C252 H246 0.930 . S
C252 C253 1.367 . S
C252 C260 1.378 . S
C253 C252 1.367 . S
C253 C261 1.433 . S
C254 H250 0.929 . S
C254 C256 1.378 . S
C254 C258 1.350 . S
C255 C258 1.463 . S
C255 C260 1.350 . S
C255 N263 1.427 . S
C256 H247 0.930 . S
C256 C254 1.378 . S
C256 C257 1.367 . S
C257 C256 1.367 . S
C257 C259 1.433 . S
C258 C254 1.350 . S
C258 C255 1.463 . S
C258 N262 1.427 . S
C259 H249 0.929 . S
C259 C257 1.433 . S
C259 N262 1.384 . S
C260 H251 0.929 . S
C260 C252 1.378 . S
C260 C255 1.350 . S
C261 H248 0.929 . S
C261 C253 1.433 . S
C261 N263 1.384 . S
N262 C258 1.427 . S
N262 C259 1.384 . S
N263 C255 1.427 . S
N263 C261 1.384 . S
H264 C270 0.930 . S
H265 C274 0.930 . S
H266 C279 0.929 . S
H267 C277 0.929 . S
H268 C272 0.929 . S
H269 C278 0.929 . S
C270 H264 0.930 . S
C270 C271 1.367 . S
C270 C278 1.378 . S
C271 C270 1.367 . S
C271 C279 1.433 . S
C272 H268 0.929 . S
C272 C274 1.378 . S
C272 C276 1.350 . S
C273 C276 1.463 . S
C273 C278 1.350 . S
C273 N281 1.427 . S
C274 H265 0.930 . S
C274 C272 1.378 . S
C274 C275 1.367 . S
C275 C274 1.367 . S
C275 C277 1.433 . S
C276 C272 1.350 . S
C276 C273 1.463 . S
C276 N280 1.427 . S
C277 H267 0.929 . S
C277 C275 1.433 . S
C277 N280 1.384 . S
C278 H269 0.929 . S
C278 C270 1.378 . S
C278 C273 1.350 . S
C279 H266 0.929 . S
C279 C271 1.433 . S
C279 N281 1.384 . S
N280 C276 1.427 . S
N280 C277 1.384 . S
N281 C273 1.427 . S
N281 C279 1.384 . S
H282 C288 0.930 . S
H283 C292 0.930 . S
H284 C297 0.929 . S
H285 C295 0.929 . S
H286 C290 0.929 . S
H287 C296 0.929 . S
C288 H282 0.930 . S
C288 C289 1.367 . S
C288 C296 1.378 . S
C289 C288 1.367 . S
C289 C297 1.433 . S
C290 H286 0.929 . S
C290 C292 1.378 . S
C290 C294 1.350 . S
C291 C294 1.463 . S
C291 C296 1.350 . S
C291 N299 1.427 . S
C292 H283 0.930 . S
C292 C290 1.378 . S
C292 C293 1.367 . S
C293 C292 1.367 . S
C293 C295 1.433 . S
C294 C290 1.350 . S
C294 C291 1.463 . S
C294 N298 1.427 . S
C295 H285 0.929 . S
C295 C293 1.433 . S
C295 N298 1.384 . S
C296 H287 0.929 . S
C296 C288 1.378 . S
C296 C291 1.350 . S
C297 H284 0.929 . S
C297 C289 1.433 . S
C297 N299 1.384 . S
N298 C294 1.427 . S
N298 C295 1.384 . S
N299 C291 1.427 . S
N299 C297 1.384 . S
H300 C306 0.930 . S
H301 C310 0.930 . S
H302 C315 0.929 . S
H303 C313 0.929 . S
H304 C308 0.929 . S
H305 C314 0.929 . S
C306 H300 0.930 . S
C306 C307 1.367 . S
C306 C314 1.378 . S
C307 C306 1.367 . S
C307 C315 1.433 . S
C308 H304 0.929 . S
C308 C310 1.378 . S
C308 C312 1.350 . S
C309 C312 1.463 . S
C309 C314 1.350 . S
C309 N317 1.427 . S
C310 H301 0.930 . S
C310 C308 1.378 . S
C310 C311 1.367 . S
C311 C310 1.367 . S
C311 C313 1.433 . S
C312 C308 1.350 . S
C312 C309 1.463 . S
C312 N316 1.427 . S
C313 H303 0.929 . S
C313 C311 1.433 . S
C313 N316 1.384 . S
C314 H305 0.929 . S
C314 C306 1.378 . S
C314 C309 1.350 . S
C315 H302 0.929 . S
C315 C307 1.433 . S
C315 N317 1.384 . S
N316 C312 1.427 . S
N316 C313 1.384 . S
N317 C309 1.427 . S
N317 C315 1.384 . S
H318 C324 0.930 . S
H319 C328 0.930 . S
H320 C333 0.929 . S
H321 C331 0.929 . S
H322 C326 0.929 . S
H323 C332 0.929 . S
C324 H318 0.930 . S
C324 C325 1.367 . S
C324 C332 1.378 . S
C325 C324 1.367 . S
C325 C333 1.433 . S
C326 H322 0.929 . S
C326 C328 1.378 . S
C326 C330 1.350 . S
C327 C330 1.463 . S
C327 C332 1.350 . S
C327 N335 1.427 . S
C328 H319 0.930 . S
C328 C326 1.378 . S
C328 C329 1.367 . S
C329 C328 1.367 . S
C329 C331 1.433 . S
C330 C326 1.350 . S
C330 C327 1.463 . S
C330 N334 1.427 . S
C331 H321 0.929 . S
C331 C329 1.433 . S
C331 N334 1.384 . S
C332 H323 0.929 . S
C332 C324 1.378 . S
C332 C327 1.350 . S
C333 H320 0.929 . S
C333 C325 1.433 . S
C333 N335 1.384 . S
N334 C330 1.427 . S
N334 C331 1.384 . S
N335 C327 1.427 . S
N335 C333 1.384 . S
H336 C342 0.930 . S
H337 C346 0.930 . S
H338 C351 0.929 . S
H339 C349 0.929 . S
H340 C344 0.929 . S
H341 C350 0.929 . S
C342 H336 0.930 . S
C342 C343 1.367 . S
C342 C350 1.378 . S
C343 C342 1.367 . S
C343 C351 1.433 . S
C344 H340 0.929 . S
C344 C346 1.378 . S
C344 C348 1.350 . S
C345 C348 1.463 . S
C345 C350 1.350 . S
C345 N353 1.427 . S
C346 H337 0.930 . S
C346 C344 1.378 . S
C346 C347 1.367 . S
C347 C346 1.367 . S
C347 C349 1.433 . S
C348 C344 1.350 . S
C348 C345 1.463 . S
C348 N352 1.427 . S
C349 H339 0.929 . S
C349 C347 1.433 . S
C349 N352 1.384 . S
C350 H341 0.929 . S
C350 C342 1.378 . S
C350 C345 1.350 . S
C351 H338 0.929 . S
C351 C343 1.433 . S
C351 N353 1.384 . S
N352 C348 1.427 . S
N352 C349 1.384 . S
N353 C345 1.427 . S
N353 C351 1.384 . S
H354 C360 0.930 . S
H355 C364 0.930 . S
H356 C369 0.929 . S
H357 C367 0.929 . S
H358 C362 0.929 . S
H359 C368 0.929 . S
C360 H354 0.930 . S
C360 C361 1.367 . S
C360 C368 1.378 . S
C361 C360 1.367 . S
C361 C369 1.433 . S
C362 H358 0.929 . S
C362 C364 1.378 . S
C362 C366 1.350 . S
C363 C366 1.463 . S
C363 C368 1.350 . S
C363 N371 1.427 . S
C364 H355 0.930 . S
C364 C362 1.378 . S
C364 C365 1.367 . S
C365 C364 1.367 . S
C365 C367 1.433 . S
C366 C362 1.350 . S
C366 C363 1.463 . S
C366 N370 1.427 . S
C367 H357 0.929 . S
C367 C365 1.433 . S
C367 N370 1.384 . S
C368 H359 0.929 . S
C368 C360 1.378 . S
C368 C363 1.350 . S
C369 H356 0.929 . S
C369 C361 1.433 . S
C369 N371 1.384 . S
N370 C366 1.427 . S
N370 C367 1.384 . S
N371 C363 1.427 . S
N371 C369 1.384 . S
H372 C378 0.930 . S
H373 C382 0.930 . S
H374 C387 0.929 . S
H375 C385 0.929 . S
H376 C380 0.929 . S
H377 C386 0.929 . S
C378 H372 0.930 . S
C378 C379 1.367 . S
C378 C386 1.378 . S
C379 C378 1.367 . S
C379 C387 1.433 . S
C380 H376 0.929 . S
C380 C382 1.378 . S
C380 C384 1.350 . S
C381 C384 1.463 . S
C381 C386 1.350 . S
C381 N389 1.427 . S
C382 H373 0.930 . S
C382 C380 1.378 . S
C382 C383 1.367 . S
C383 C382 1.367 . S
C383 C385 1.433 . S
C384 C380 1.350 . S
C384 C381 1.463 . S
C384 N388 1.427 . S
C385 H375 0.929 . S
C385 C383 1.433 . S
C385 N388 1.384 . S
C386 H377 0.929 . S
C386 C378 1.378 . S
C386 C381 1.350 . S
C387 H374 0.929 . S
C387 C379 1.433 . S
C387 N389 1.384 . S
N388 C384 1.427 . S
N388 C385 1.384 . S
N389 C381 1.427 . S
N389 C387 1.384 . S
H390 C396 0.930 . S
H391 C400 0.930 . S
H392 C405 0.929 . S
H393 C403 0.929 . S
H394 C398 0.929 . S
H395 C404 0.929 . S
C396 H390 0.930 . S
C396 C397 1.367 . S
C396 C404 1.378 . S
C397 C396 1.367 . S
C397 C405 1.433 . S
C398 H394 0.929 . S
C398 C400 1.378 . S
C398 C402 1.350 . S
C399 C402 1.463 . S
C399 C404 1.350 . S
C399 N407 1.427 . S
C400 H391 0.930 . S
C400 C398 1.378 . S
C400 C401 1.367 . S
C401 C400 1.367 . S
C401 C403 1.433 . S
C402 C398 1.350 . S
C402 C399 1.463 . S
C402 N406 1.427 . S
C403 H393 0.929 . S
C403 C401 1.433 . S
C403 N406 1.384 . S
C404 H395 0.929 . S
C404 C396 1.378 . S
C404 C399 1.350 . S
C405 H392 0.929 . S
C405 C397 1.433 . S
C405 N407 1.384 . S
N406 C402 1.427 . S
N406 C403 1.384 . S
N407 C399 1.427 . S
N407 C405 1.384 . S
H408 C414 0.930 . S
H409 C418 0.930 . S
H410 C423 0.929 1_655 S
H411 C421 0.929 . S
H412 C416 0.929 . S
H413 C422 0.929 . S
C414 H408 0.930 . S
C414 C415 1.367 . S
C414 C422 1.378 . S
C415 C414 1.367 . S
C415 C423 1.433 . S
C416 H412 0.929 . S
C416 C418 1.378 . S
C416 C420 1.350 1_655 S
C417 C420 1.463 1_554 S
C417 C422 1.350 . S
C417 N425 1.427 . S
C418 H409 0.930 . S
C418 C416 1.378 . S
C418 C419 1.367 1_655 S
C419 C418 1.367 1_455 S
C419 C421 1.433 . S
C420 C416 1.350 1_455 S
C420 C417 1.463 1_556 S
C420 N424 1.427 . S
C421 H411 0.929 . S
C421 C419 1.433 . S
C421 N424 1.384 . S
C422 H413 0.929 . S
C422 C414 1.378 . S
C422 C417 1.350 . S
C423 H410 0.929 1_455 S
C423 C415 1.433 . S
C423 N425 1.384 . S
N424 C420 1.427 . S
N424 C421 1.384 . S
N425 C417 1.427 . S
N425 C423 1.384 . S
H426 C432 0.935 . S
H427 C436 0.930 . S
H428 C441 0.929 . S
H429 C439 0.929 1_565 S
H430 C434 0.929 . S
H431 C440 0.918 1_565 S
C432 H426 0.935 . S
C432 C433 1.367 . S
C432 C440 1.378 . S
C433 C432 1.367 . S
C433 C441 1.433 . S
C434 H430 0.929 . S
C434 C436 1.378 . S
C434 C438 1.350 . S
C435 C438 1.463 . S
C435 C440 1.350 . S
C435 N443 1.427 . S
C436 H427 0.930 . S
C436 C434 1.378 . S
C436 C437 1.367 . S
C437 C436 1.367 . S
C437 C439 1.433 . S
C438 C434 1.350 . S
C438 C435 1.463 . S
C438 N442 1.427 . S
C439 H429 0.929 1_545 S
C439 C437 1.433 . S
C439 N442 1.384 . S
C440 H431 0.918 1_545 S
C440 C432 1.378 . S
C440 C435 1.350 . S
C441 H428 0.929 . S
C441 C433 1.433 . S
C441 N443 1.384 . S
N442 C438 1.427 . S
N442 C439 1.384 . S
N443 C435 1.427 . S
N443 C441 1.384 . S
H444 C450 0.930 . S
H445 C454 0.930 . S
H446 C459 0.929 . S
H447 C457 0.929 . S
H448 C452 0.929 . S
H449 C458 0.929 . S
C450 H444 0.930 . S
C450 C451 1.367 . S
C450 C458 1.378 . S
C451 C450 1.367 . S
C451 C459 1.433 . S
C452 H448 0.929 . S
C452 C454 1.378 . S
C452 C456 1.350 . S
C453 C456 1.463 . S
C453 C458 1.350 . S
C453 N461 1.427 . S
C454 H445 0.930 . S
C454 C452 1.378 . S
C454 C455 1.367 . S
C455 C454 1.367 . S
C455 C457 1.433 . S
C456 C452 1.350 . S
C456 C453 1.463 . S
C456 N460 1.427 . S
C457 H447 0.929 . S
C457 C455 1.433 . S
C457 N460 1.384 . S
C458 H449 0.929 . S
C458 C450 1.378 . S
C458 C453 1.350 . S
C459 H446 0.929 . S
C459 C451 1.433 . S
C459 N461 1.384 . S
N460 C456 1.427 . S
N460 C457 1.384 . S
N461 C453 1.427 . S
N461 C459 1.384 . S
H462 C468 0.930 . S
H463 C472 0.930 . S
H464 C477 0.929 1_565 S
H465 C475 0.929 . S
H466 C470 0.929 . S
H467 C476 0.929 . S
C468 H462 0.930 . S
C468 C469 1.367 . S
C468 C476 1.378 . S
C469 C468 1.367 . S
C469 C477 1.433 . S
C470 H466 0.929 . S
C470 C472 1.378 . S
C470 C474 1.350 1_565 S
C471 C474 1.463 . S
C471 C476 1.350 . S
C471 N479 1.427 . S
C472 H463 0.930 . S
C472 C470 1.378 . S
C472 C473 1.367 1_565 S
C473 C472 1.367 1_545 S
C473 C475 1.433 . S
C474 C470 1.350 1_545 S
C474 C471 1.463 . S
C474 N478 1.427 . S
C475 H465 0.929 . S
C475 C473 1.433 . S
C475 N478 1.384 . S
C476 H467 0.929 . S
C476 C468 1.378 . S
C476 C471 1.350 . S
C477 H464 0.929 1_545 S
C477 C469 1.433 . S
C477 N479 1.384 . S
N478 C474 1.427 . S
N478 C475 1.384 . S
N479 C471 1.427 . S
N479 C477 1.384 . S
H480 C486 0.930 . S
H481 C490 0.930 . S
H482 C495 0.929 . S
H483 C493 0.929 . S
H484 C488 0.923 1_556 S
H485 C494 0.929 . S
C486 H480 0.930 . S
C486 C487 1.367 . S
C486 C494 1.378 . S
C487 C486 1.367 . S
C487 C495 1.433 . S
C488 H484 0.923 1_554 S
C488 C490 1.378 . S
C488 C492 1.350 1_554 S
C489 C492 1.463 . S
C489 C494 1.350 . S
C489 N497 1.427 . S
C490 H481 0.930 . S
C490 C488 1.378 . S
C490 C491 1.367 . S
C491 C490 1.367 . S
C491 C493 1.433 . S
C492 C488 1.350 1_556 S
C492 C489 1.463 . S
C492 N496 1.427 1_556 S
C493 H483 0.929 . S
C493 C491 1.433 . S
C493 N496 1.384 . S
C494 H485 0.929 . S
C494 C486 1.378 . S
C494 C489 1.350 . S
C495 H482 0.929 . S
C495 C487 1.433 . S
C495 N497 1.384 . S
N496 C492 1.427 1_554 S
N496 C493 1.384 . S
N497 C489 1.427 . S
N497 C495 1.384 . S
H498 C504 0.930 . S
H499 C508 0.930 1_655 S
H500 C513 0.929 . S
H501 C511 0.929 . S
H502 C506 0.929 1_655 S
H503 C512 0.929 . S
C504 H498 0.930 . S
C504 C505 1.367 . S
C504 C512 1.378 . S
C505 C504 1.367 . S
C505 C513 1.433 . S
C506 H502 0.929 1_455 S
C506 C508 1.378 . S
C506 C510 1.350 . S
C507 C510 1.463 . S
C507 C512 1.350 . S
C507 N515 1.427 . S
C508 H499 0.930 1_455 S
C508 C506 1.378 . S
C508 C509 1.367 . S
C509 C508 1.367 . S
C509 C511 1.433 . S
C510 C506 1.350 . S
C510 C507 1.463 . S
C510 N514 1.427 . S
C511 H501 0.929 . S
C511 C509 1.433 . S
C511 N514 1.384 . S
C512 H503 0.929 . S
C512 C504 1.378 . S
C512 C507 1.350 . S
C513 H500 0.929 . S
C513 C505 1.433 . S
C513 N515 1.384 . S
N514 C510 1.427 . S
N514 C511 1.384 . S
N515 C507 1.427 . S
N515 C513 1.384 . S
C199 C9 0.718 . S
C203 C186 0.703 . S
C217 C49 0.431 . S
C221 C160 0.420 . S
C235 C89 0.369 . S
C239 C172 0.393 . S
C253 C26 0.351 . S
C257 C184 0.241 . S
C275 C162 0.185 . S
C271 C66 0.363 . S
C293 C174 0.250 . S
C289 C106 0.388 . S
C307 C43 3.043 . S
C311 C136 2.969 . S
C325 C83 3.321 . S
C329 C150 3.299 . S
C343 C22 3.036 . S
C347 C126 2.996 . S
C365 C138 2.983 . S
C361 C62 3.036 . S
C383 C148 2.675 . S
C379 C102 2.786 . S
C397 C3 3.044 . S
C401 C124 2.965 . S
C419 C153 1.779 . S
C415 C15 1.717 . S
C433 C55 1.742 . S
C437 C129 1.765 . S
C451 C95 1.726 . S
C455 C141 1.744 . S
C473 C177 1.238 . S
C469 C42 1.204 . S
C491 C189 1.246 . S
C487 C82 1.230 . S
C505 C2 1.187 . S
C509 C165 1.212 . S
