# Generated by pormake.
# Topology pyr, (3,6)-cn, num edge types: 1
# Building blocks:
#     Node 0, Type 0, BuildingBlock: KAKCAD_clean_linker_0, # of connection points: 3
#     Node 1, Type 0, BuildingBlock: KAKCAD_clean_linker_0, # of connection points: 3
#     Node 2, Type 0, BuildingBlock: KAKCAD_clean_linker_0, # of connection points: 3
#     Node 3, Type 0, BuildingBlock: KAKCAD_clean_linker_0, # of connection points: 3
#     Node 4, Type 0, BuildingBlock: KAKCAD_clean_linker_0, # of connection points: 3
#     Node 5, Type 0, BuildingBlock: KAKCAD_clean_linker_0, # of connection points: 3
#     Node 6, Type 0, BuildingBlock: KAKCAD_clean_linker_0, # of connection points: 3
#     Node 7, Type 0, BuildingBlock: KAKCAD_clean_linker_0, # of connection points: 3
#     Node 8, Type 1, BuildingBlock: BETDAH_clean_sbu_0, # of connection points: 6
#     Node 9, Type 1, BuildingBlock: BETDAH_clean_sbu_0, # of connection points: 6
#     Node 10, Type 1, BuildingBlock: BETDAH_clean_sbu_0, # of connection points: 6
#     Node 11, Type 1, BuildingBlock: BETDAH_clean_sbu_0, # of connection points: 6
#     Edge 12, Type (0, 1), BuildingBlock: KIFKEQ_clean_linker_1, # of connection points: 2
#     Edge 13, Type (0, 1), BuildingBlock: KIFKEQ_clean_linker_1, # of connection points: 2
#     Edge 14, Type (0, 1), BuildingBlock: KIFKEQ_clean_linker_1, # of connection points: 2
#     Edge 15, Type (0, 1), BuildingBlock: KIFKEQ_clean_linker_1, # of connection points: 2
#     Edge 16, Type (0, 1), BuildingBlock: KIFKEQ_clean_linker_1, # of connection points: 2
#     Edge 17, Type (0, 1), BuildingBlock: KIFKEQ_clean_linker_1, # of connection points: 2
#     Edge 18, Type (0, 1), BuildingBlock: KIFKEQ_clean_linker_1, # of connection points: 2
#     Edge 19, Type (0, 1), BuildingBlock: KIFKEQ_clean_linker_1, # of connection points: 2
#     Edge 20, Type (0, 1), BuildingBlock: KIFKEQ_clean_linker_1, # of connection points: 2
#     Edge 21, Type (0, 1), BuildingBlock: KIFKEQ_clean_linker_1, # of connection points: 2
#     Edge 22, Type (0, 1), BuildingBlock: KIFKEQ_clean_linker_1, # of connection points: 2
#     Edge 23, Type (0, 1), BuildingBlock: KIFKEQ_clean_linker_1, # of connection points: 2
#     Edge 24, Type (0, 1), BuildingBlock: KIFKEQ_clean_linker_1, # of connection points: 2
#     Edge 25, Type (0, 1), BuildingBlock: KIFKEQ_clean_linker_1, # of connection points: 2
#     Edge 26, Type (0, 1), BuildingBlock: KIFKEQ_clean_linker_1, # of connection points: 2
#     Edge 27, Type (0, 1), BuildingBlock: KIFKEQ_clean_linker_1, # of connection points: 2
#     Edge 28, Type (0, 1), BuildingBlock: KIFKEQ_clean_linker_1, # of connection points: 2
#     Edge 29, Type (0, 1), BuildingBlock: KIFKEQ_clean_linker_1, # of connection points: 2
#     Edge 30, Type (0, 1), BuildingBlock: KIFKEQ_clean_linker_1, # of connection points: 2
#     Edge 31, Type (0, 1), BuildingBlock: KIFKEQ_clean_linker_1, # of connection points: 2
#     Edge 32, Type (0, 1), BuildingBlock: KIFKEQ_clean_linker_1, # of connection points: 2
#     Edge 33, Type (0, 1), BuildingBlock: KIFKEQ_clean_linker_1, # of connection points: 2
#     Edge 34, Type (0, 1), BuildingBlock: KIFKEQ_clean_linker_1, # of connection points: 2
#     Edge 35, Type (0, 1), BuildingBlock: KIFKEQ_clean_linker_1, # of connection points: 2
# Relax obj value: 0.092
# Max RMSD: 0.122
# Mean RMSD: 0.058
data_MOF--net-pyr--node1-BETDAH_clean_sbu_0--node2-KAKCAD_clean_linker_0--edge1-KIFKEQ_clean_linker_1
_symmetry_space_group_name_H-M    P1
_symmetry_Int_Tables_number       1
_symmetry_cell_setting            triclinic
loop_
_symmetry_equiv_pos_as_xyz
'x, y, z'
_cell_length_a     46.885448
_cell_length_b     49.682979
_cell_length_c     44.851148
_cell_angle_alpha  91.10012
_cell_angle_beta   88.881387
_cell_angle_gamma 101.31194
loop_
_atom_site_label
_atom_site_type_symbol
_atom_site_fract_x
_atom_site_fract_y
_atom_site_fract_z
_atom_type_partial_charge
C0 C 0.27224 0.27308 0.31813 0.0
C1 C 0.28574 0.25843 0.33823 0.0
C2 C 0.28747 0.28546 0.29346 0.0
C3 C 0.31677 0.28377 0.28824 0.0
C4 C 0.33088 0.27065 0.30942 0.0
C5 C 0.31545 0.25798 0.33412 0.0
C6 C 0.33074 0.29247 0.25894 0.0
C7 C 0.32309 0.31449 0.24394 0.0
C8 C 0.32853 0.31798 0.21317 0.0
C9 C 0.34494 0.30092 0.19813 0.0
C10 C 0.3549 0.28017 0.21341 0.0
C11 C 0.34752 0.27596 0.24369 0.0
C12 C 0.37007 0.26064 0.19727 0.0
C13 C 0.35842 0.24739 0.17102 0.0
C14 C 0.39501 0.25355 0.20927 0.0
C15 C 0.40776 0.23323 0.19556 0.0
C16 C 0.39555 0.21935 0.16985 0.0
C17 C 0.31382 0.33696 0.19649 0.0
C18 C 0.28553 0.33989 0.20512 0.0
C19 C 0.32685 0.35113 0.17125 0.0
C20 C 0.31181 0.36765 0.15506 0.0
C21 C 0.28374 0.37064 0.16415 0.0
C22 C 0.27087 0.3567 0.18937 0.0
C23 C 0.37095 0.22684 0.15752 0.0
H24 H 0.24926 0.2734 0.32023 0.0
H25 H 0.27551 0.29473 0.27745 0.0
H26 H 0.35352 0.26928 0.30635 0.0
H27 H 0.3265 0.24704 0.34942 0.0
H28 H 0.31119 0.32798 0.25598 0.0
H29 H 0.35298 0.25841 0.2546 0.0
H30 H 0.34902 0.30294 0.17435 0.0
H31 H 0.33901 0.25224 0.1615 0.0
H32 H 0.40438 0.26348 0.22951 0.0
H33 H 0.42663 0.22777 0.2056 0.0
H34 H 0.27418 0.32861 0.22365 0.0
H35 H 0.3486 0.34948 0.16399 0.0
H36 H 0.36126 0.21662 0.13756 0.0
H37 H 0.24898 0.35814 0.19643 0.0
H38 H 0.32212 0.3782 0.13557 0.0
C39 C 0.31108 0.83902 0.73009 0.0
C40 C 0.3393 0.84724 0.74127 0.0
C41 C 0.30595 0.84118 0.69973 0.0
C42 C 0.32894 0.85158 0.67996 0.0
C43 C 0.35736 0.85828 0.69087 0.0
C44 C 0.36249 0.85615 0.72118 0.0
C45 C 0.32314 0.85746 0.64862 0.0
C46 C 0.29985 0.8702 0.64205 0.0
C47 C 0.29524 0.87752 0.61273 0.0
C48 C 0.31372 0.8715 0.58965 0.0
C49 C 0.33697 0.8588 0.59595 0.0
C50 C 0.34172 0.85193 0.62536 0.0
C51 C 0.35586 0.8516 0.57182 0.0
C52 C 0.34529 0.82972 0.55238 0.0
C53 C 0.38524 0.86439 0.5703 0.0
C54 C 0.40433 0.85417 0.55087 0.0
C55 C 0.39444 0.83045 0.53337 0.0
C56 C 0.27188 0.89256 0.60655 0.0
C57 C 0.24363 0.88335 0.61797 0.0
C58 C 0.27802 0.91678 0.59001 0.0
C59 C 0.25632 0.93173 0.58525 0.0
C60 C 0.22807 0.92253 0.59664 0.0
C61 C 0.22182 0.89813 0.61287 0.0
C62 C 0.36442 0.8191 0.53342 0.0
H63 H 0.29283 0.83173 0.74495 0.0
H64 H 0.28387 0.83538 0.69184 0.0
H65 H 0.3755 0.86662 0.67627 0.0
H66 H 0.38443 0.8631 0.72906 0.0
H67 H 0.28601 0.87556 0.65996 0.0
H68 H 0.35965 0.84185 0.63001 0.0
H69 H 0.31011 0.87674 0.56686 0.0
H70 H 0.3226 0.81962 0.55338 0.0
H71 H 0.39362 0.88152 0.58506 0.0
H72 H 0.42712 0.86388 0.55089 0.0
H73 H 0.23842 0.86468 0.63073 0.0
H74 H 0.29974 0.9244 0.58124 0.0
H75 H 0.35588 0.80066 0.52066 0.0
H76 H 0.20018 0.8907 0.62195 0.0
H77 H 0.26155 0.95036 0.57242 0.0
C78 C 0.75285 0.43163 0.89362 0.0
C79 C 0.77302 0.41609 0.90317 0.0
C80 C 0.72692 0.41892 0.87973 0.0
C81 C 0.72034 0.39028 0.8749 0.0
C82 C 0.74078 0.37485 0.884 0.0
C83 C 0.76662 0.38752 0.89792 0.0
C84 C 0.69209 0.37635 0.86119 0.0
C85 C 0.67979 0.38836 0.8376 0.0
C86 C 0.65307 0.37551 0.8248 0.0
C87 C 0.63898 0.34967 0.836 0.0
C88 C 0.65107 0.33694 0.85934 0.0
C89 C 0.67734 0.35083 0.87186 0.0
C90 C 0.6367 0.3092 0.87105 0.0
C91 C 0.60624 0.30149 0.87439 0.0
C92 C 0.65368 0.29035 0.87998 0.0
C93 C 0.64083 0.26511 0.89254 0.0
C94 C 0.61047 0.2576 0.89644 0.0
C95 C 0.64027 0.38913 0.79974 0.0
C96 C 0.64432 0.41799 0.79831 0.0
C97 C 0.62423 0.37367 0.77676 0.0
C98 C 0.61282 0.38657 0.75329 0.0
C99 C 0.61719 0.41545 0.75171 0.0
C100 C 0.63323 0.43085 0.77472 0.0
C101 C 0.59333 0.27608 0.88684 0.0
H102 H 0.75675 0.45361 0.89751 0.0
H103 H 0.71169 0.43153 0.87343 0.0
H104 H 0.73694 0.35286 0.88017 0.0
H105 H 0.78176 0.37486 0.90431 0.0
H106 H 0.69157 0.40753 0.82869 0.0
H107 H 0.68612 0.34194 0.89064 0.0
H108 H 0.61859 0.33938 0.82654 0.0
H109 H 0.59234 0.31539 0.86813 0.0
H110 H 0.67711 0.29501 0.87718 0.0
H111 H 0.6548 0.25131 0.89894 0.0
H112 H 0.65599 0.43089 0.81559 0.0
H113 H 0.62074 0.35148 0.77653 0.0
H114 H 0.5699 0.27121 0.88962 0.0
H115 H 0.63768 0.45306 0.77448 0.0
H116 H 0.60032 0.3737 0.7365 0.0
C117 C 0.87635 0.64238 0.25164 0.0
C118 C 0.906 0.64052 0.24986 0.0
C119 C 0.8652 0.65559 0.27592 0.0
C120 C 0.88331 0.66782 0.29912 0.0
C121 C 0.91303 0.66655 0.29719 0.0
C122 C 0.92415 0.65297 0.2731 0.0
C123 C 0.87103 0.68127 0.32542 0.0
C124 C 0.84466 0.66826 0.33915 0.0
C125 C 0.8327 0.68035 0.3639 0.0
C126 C 0.84723 0.70623 0.37441 0.0
C127 C 0.87344 0.71993 0.36111 0.0
C128 C 0.88539 0.70701 0.33685 0.0
C129 C 0.88786 0.74777 0.37275 0.0
C130 C 0.87112 0.76749 0.38092 0.0
C131 C 0.91813 0.75463 0.3769 0.0
C132 C 0.93112 0.78015 0.38955 0.0
C133 C 0.91426 0.79969 0.39814 0.0
C134 C 0.80519 0.66603 0.37912 0.0
C135 C 0.78143 0.6519 0.36266 0.0
C136 C 0.80232 0.66676 0.41043 0.0
C137 C 0.77649 0.65405 0.42481 0.0
C138 C 0.75258 0.64014 0.4084 0.0
C139 C 0.75549 0.63922 0.37707 0.0
C140 C 0.88408 0.79299 0.39334 0.0
H141 H 0.86158 0.63384 0.23412 0.0
H142 H 0.8423 0.6565 0.27634 0.0
H143 H 0.92761 0.67546 0.31475 0.0
H144 H 0.94694 0.65178 0.27315 0.0
H145 H 0.83388 0.64822 0.33106 0.0
H146 H 0.90538 0.71739 0.32623 0.0
H147 H 0.83805 0.71584 0.39319 0.0
H148 H 0.84782 0.76319 0.37777 0.0
H149 H 0.93175 0.74 0.37105 0.0
H150 H 0.95444 0.78458 0.39253 0.0
H151 H 0.78266 0.65102 0.33854 0.0
H152 H 0.82017 0.67709 0.42398 0.0
H153 H 0.87024 0.80725 0.39983 0.0
H154 H 0.73776 0.62851 0.36362 0.0
H155 H 0.77513 0.65555 0.4489 0.0
C156 C 0.74688 0.78601 0.73528 0.0
C157 C 0.75662 0.81401 0.72953 0.0
C158 C 0.72831 0.77779 0.75962 0.0
C159 C 0.71963 0.79746 0.77898 0.0
C160 C 0.72813 0.82542 0.77202 0.0
C161 C 0.74623 0.83356 0.74749 0.0
C162 C 0.70508 0.78939 0.80816 0.0
C163 C 0.71377 0.7689 0.82492 0.0
C164 C 0.70452 0.76438 0.8547 0.0
C165 C 0.68586 0.78042 0.86775 0.0
C166 C 0.67689 0.8009 0.85122 0.0
C167 C 0.68597 0.8048 0.82137 0.0
C168 C 0.66141 0.82085 0.86588 0.0
C169 C 0.63403 0.81244 0.87951 0.0
C170 C 0.67418 0.84885 0.86571 0.0
C171 C 0.65974 0.86824 0.87863 0.0
C172 C 0.63188 0.86016 0.8916 0.0
C173 C 0.7183 0.74596 0.87285 0.0
C174 C 0.72202 0.72037 0.86121 0.0
C175 C 0.73173 0.7556 0.89977 0.0
C176 C 0.75022 0.74093 0.91358 0.0
C177 C 0.75552 0.71628 0.90081 0.0
C178 C 0.74039 0.70563 0.8751 0.0
C179 C 0.61926 0.83195 0.89204 0.0
H180 H 0.75444 0.77055 0.72159 0.0
H181 H 0.72172 0.75607 0.76395 0.0
H182 H 0.72248 0.84127 0.78657 0.0
H183 H 0.75374 0.85531 0.74385 0.0
H184 H 0.72983 0.75796 0.81566 0.0
H185 H 0.67907 0.82079 0.80888 0.0
H186 H 0.67957 0.77796 0.89107 0.0
H187 H 0.62382 0.79091 0.87979 0.0
H188 H 0.69552 0.85572 0.85568 0.0
H189 H 0.67059 0.88958 0.87857 0.0
H190 H 0.71182 0.71242 0.84054 0.0
H191 H 0.72947 0.77535 0.90915 0.0
H192 H 0.59773 0.82493 0.90152 0.0
H193 H 0.74408 0.68674 0.86468 0.0
H194 H 0.76127 0.74942 0.93364 0.0
C195 C 0.65853 0.13692 0.38871 0.0
C196 C 0.65997 0.15525 0.36495 0.0
C197 C 0.67113 0.1458 0.41599 0.0
C198 C 0.68503 0.17326 0.42021 0.0
C199 C 0.68507 0.19197 0.39716 0.0
C200 C 0.67279 0.18303 0.36972 0.0
C201 C 0.70185 0.18179 0.44744 0.0
C202 C 0.72258 0.16688 0.45635 0.0
C203 C 0.74074 0.17601 0.48044 0.0
C204 C 0.73746 0.19982 0.49635 0.0
C205 C 0.71656 0.21476 0.48787 0.0
C206 C 0.69892 0.20571 0.46324 0.0
C207 C 0.71352 0.2402 0.50414 0.0
C208 C 0.71142 0.24085 0.53544 0.0
C209 C 0.71155 0.26375 0.48821 0.0
C210 C 0.70628 0.28715 0.50313 0.0
C211 C 0.70282 0.28752 0.53435 0.0
C212 C 0.76461 0.16178 0.48714 0.0
C213 C 0.75934 0.13307 0.48901 0.0
C214 C 0.79319 0.17672 0.48936 0.0
C215 C 0.81626 0.1631 0.49254 0.0
C216 C 0.81112 0.13429 0.49382 0.0
C217 C 0.78236 0.11945 0.49247 0.0
C218 C 0.70595 0.2643 0.55044 0.0
H219 H 0.6482 0.11554 0.38605 0.0
H220 H 0.67059 0.13109 0.43361 0.0
H221 H 0.69593 0.21321 0.39983 0.0
H222 H 0.6746 0.19765 0.35186 0.0
H223 H 0.72569 0.14897 0.44344 0.0
H224 H 0.68279 0.21719 0.45643 0.0
H225 H 0.7516 0.20704 0.51488 0.0
H226 H 0.71288 0.22289 0.5482 0.0
H227 H 0.7135 0.26389 0.4641 0.0
H228 H 0.70351 0.30449 0.48999 0.0
H229 H 0.73741 0.12117 0.48753 0.0
H230 H 0.79782 0.19886 0.48749 0.0
H231 H 0.70344 0.26405 0.57449 0.0
H232 H 0.77761 0.09729 0.49402 0.0
H233 H 0.83817 0.17512 0.4931 0.0
C234 C 0.26135 0.64934 0.18571 0.0
C235 C 0.25873 0.64929 0.15442 0.0
C236 C 0.28703 0.66277 0.19959 0.0
C237 C 0.31079 0.67665 0.18261 0.0
C238 C 0.3083 0.67622 0.15136 0.0
C239 C 0.28277 0.66277 0.13751 0.0
C240 C 0.3381 0.69178 0.19702 0.0
C241 C 0.3507 0.6805 0.22084 0.0
C242 C 0.37749 0.69386 0.23309 0.0
C243 C 0.39141 0.71937 0.22088 0.0
C244 C 0.37886 0.73153 0.19733 0.0
C245 C 0.35196 0.71748 0.18619 0.0
C246 C 0.39337 0.75862 0.18381 0.0
C247 C 0.41092 0.77955 0.20067 0.0
C248 C 0.38887 0.76419 0.15371 0.0
C249 C 0.40011 0.78988 0.14139 0.0
C250 C 0.41739 0.81105 0.15819 0.0
C251 C 0.39083 0.68078 0.25822 0.0
C252 C 0.38659 0.65198 0.26051 0.0
C253 C 0.40737 0.69671 0.28056 0.0
C254 C 0.41893 0.68431 0.30433 0.0
C255 C 0.41418 0.65546 0.30688 0.0
C256 C 0.39773 0.63962 0.28443 0.0
C257 C 0.42291 0.80516 0.18803 0.0
H258 H 0.24331 0.63951 0.19962 0.0
H259 H 0.288 0.66281 0.2237 0.0
H260 H 0.3263 0.68614 0.13743 0.0
H261 H 0.28205 0.66273 0.1134 0.0
H262 H 0.33955 0.66106 0.22965 0.0
H263 H 0.34122 0.72674 0.16912 0.0
H264 H 0.41243 0.72937 0.22914 0.0
H265 H 0.41503 0.77647 0.22389 0.0
H266 H 0.37643 0.7487 0.13929 0.0
H267 H 0.39454 0.79303 0.11862 0.0
H268 H 0.37467 0.63866 0.2437 0.0
H269 H 0.41109 0.7189 0.28007 0.0
H270 H 0.43656 0.82026 0.20192 0.0
H271 H 0.39292 0.61744 0.28535 0.0
H272 H 0.43179 0.69752 0.3206 0.0
C273 C 0.15551 0.27317 0.67307 0.0
C274 C 0.12538 0.2642 0.6695 0.0
C275 C 0.16683 0.29903 0.68565 0.0
C276 C 0.14847 0.31703 0.69493 0.0
C277 C 0.11821 0.30778 0.69221 0.0
C278 C 0.10683 0.28172 0.67973 0.0
C279 C 0.16122 0.34558 0.70612 0.0
C280 C 0.18696 0.36022 0.69281 0.0
C281 C 0.20032 0.38659 0.70299 0.0
C282 C 0.18696 0.39877 0.72676 0.0
C283 C 0.16088 0.38491 0.74051 0.0
C284 C 0.14823 0.35828 0.72985 0.0
C285 C 0.14712 0.39823 0.7661 0.0
C286 C 0.16432 0.41424 0.78791 0.0
C287 C 0.11667 0.39539 0.76885 0.0
C288 C 0.10393 0.40837 0.79233 0.0
C289 C 0.12115 0.42457 0.814 0.0
C290 C 0.22825 0.40101 0.68852 0.0
C291 C 0.24965 0.38613 0.67933 0.0
C292 C 0.23355 0.42939 0.68288 0.0
C293 C 0.25908 0.44225 0.66782 0.0
C294 C 0.28002 0.42711 0.6579 0.0
C295 C 0.27501 0.39892 0.66424 0.0
C296 C 0.15158 0.42714 0.81143 0.0
H297 H 0.17051 0.26012 0.66619 0.0
H298 H 0.19017 0.30491 0.68803 0.0
H299 H 0.10331 0.32099 0.69887 0.0
H300 H 0.08352 0.27566 0.67725 0.0
H301 H 0.19643 0.35119 0.67382 0.0
H302 H 0.12873 0.34708 0.74062 0.0
H303 H 0.19695 0.41912 0.73461 0.0
H304 H 0.18778 0.41673 0.78699 0.0
H305 H 0.10258 0.38348 0.75251 0.0
H306 H 0.08045 0.4055 0.79355 0.0
H307 H 0.24685 0.36443 0.68384 0.0
H308 H 0.21758 0.44156 0.68932 0.0
H309 H 0.16574 0.43957 0.82734 0.0
H310 H 0.29084 0.38664 0.65764 0.0
H311 H 0.262 0.46394 0.66321 0.0
Ho312 Ho 0.03481 0.044 0.50549 0.0
Ho313 Ho 1.01285 1.01703 0.56391 0.0
C314 C 0.04772 0.08076 0.56446 0.0
C315 C 0.04672 0.06649 0.45427 0.0
C316 C 0.07094 0.08841 0.4454 0.0
C317 C 0.07686 0.09425 0.41526 0.0
C318 C 0.10154 0.1135 0.40694 0.0
C319 C 0.12073 0.12707 0.42869 0.0
C320 C 0.11428 0.12146 0.45894 0.0
C321 C 0.08962 0.10229 0.46719 0.0
C322 C 0.07505 1.02546 0.53721 0.0
C323 C 0.99932 0.98058 0.50476 0.0
C324 C 1.00115 0.99426 0.61496 0.0
C325 C 0.97711 0.97214 0.62436 0.0
C326 C 0.98293 0.94969 0.63996 0.0
C327 C 0.96038 0.92774 0.64713 0.0
C328 C 0.93162 0.92793 0.63883 0.0
C329 C 0.92593 0.95061 0.62337 0.0
C330 C 0.94842 0.97237 0.61606 0.0
C331 C 0.97256 0.03537 0.53206 0.0
O332 O 0.04393 0.08124 0.53537 0.0
O333 O 0.04102 0.05747 0.57941 0.0
O334 O 0.05444 0.04362 0.46157 0.0
O335 O 0.02785 0.07373 0.47316 0.0
O336 O 0.08069 0.04748 0.52147 0.0
O337 O 0.04907 1.01367 0.53381 0.0
O338 O 1.00349 0.97988 0.53379 0.0
O339 O 1.00597 1.00397 0.49 0.0
O340 O 0.99398 1.01753 0.60815 0.0
O341 O 0.01979 0.98694 0.59592 0.0
O342 O 0.96708 1.01327 0.54771 0.0
O343 O 0.99847 0.04732 0.53565 0.0
H344 H 0.06269 0.0836 0.39818 0.0
H345 H 0.10568 0.11767 0.38347 0.0
H346 H 0.12873 0.13126 0.47621 0.0
H347 H 0.08551 0.09783 0.4906 0.0
H348 H 1.00496 0.94896 0.64622 0.0
H349 H 0.96556 0.91047 0.6588 0.0
H350 H 0.904 0.95175 0.61716 0.0
H351 H 0.94329 0.98929 0.60373 0.0
Ho352 Ho 0.53288 0.0431 0.0445 0.0
Ho353 Ho 0.48049 1.02957 1.0093 0.0
C354 C 0.48099 0.07057 0.06665 0.0
C355 C 0.58334 0.05822 0.06831 0.0
C356 C 0.59132 0.06839 0.09847 0.0
C357 C 0.61948 0.08282 0.10431 0.0
C358 C 0.62669 0.09282 0.13312 0.0
C359 C 0.60582 0.0883 0.15637 0.0
C360 C 0.57758 0.07398 0.15028 0.0
C361 C 0.57035 0.06425 0.12153 0.0
C362 C 0.49325 1.00004 0.06638 0.0
C363 C 0.53222 1.00269 0.98792 0.0
C364 C 0.42963 1.01164 0.98727 0.0
C365 C 0.4177 0.98868 0.96678 0.0
C366 C 0.40613 0.96231 0.97763 0.0
C367 C 0.39676 0.94039 0.95783 0.0
C368 C 0.39899 0.94448 0.92694 0.0
C369 C 0.40961 0.97096 0.91618 0.0
C370 C 0.41868 0.99285 0.93586 0.0
C371 C 0.52 0.07242 0.98692 0.0
O372 O 0.50913 0.07165 0.06875 0.0
O373 O 0.4652 0.05413 0.04711 0.0
O374 O 0.56971 0.03268 0.06653 0.0
O375 O 0.57124 0.07444 0.0523 0.0
O376 O 0.50765 1.01979 0.08257 0.0
O377 O 0.50051 1.00425 0.03937 0.0
O378 O 0.5037 0.99802 0.99042 0.0
O379 O 0.54819 1.02322 1.00287 0.0
O380 O 0.44874 1.03156 0.97568 0.0
O381 O 0.43697 1.00519 1.0138 0.0
O382 O 0.50485 0.05291 0.97095 0.0
O383 O 0.51315 0.0684 1.01411 0.0
H384 H 0.63582 0.08634 0.08665 0.0
H385 H 0.64865 0.10372 0.13732 0.0
H386 H 0.561 0.07057 0.1677 0.0
H387 H 0.54835 0.0535 0.1173 0.0
H388 H 0.40478 0.9585 1.00136 0.0
H389 H 0.38847 0.92014 0.96661 0.0
H390 H 0.41092 0.97476 0.89243 0.0
H391 H 0.42694 1.01297 0.92675 0.0
Ho392 Ho 0.51654 0.51316 0.51161 0.0
Ho393 Ho 0.51194 0.5592 0.55069 0.0
C394 C 0.53746 0.51255 0.58067 0.0
C395 C 0.53604 0.47379 0.48547 0.0
C396 C 0.55164 0.45402 0.49858 0.0
C397 C 0.57982 0.45301 0.48826 0.0
C398 C 0.5968 0.43772 0.50334 0.0
C399 C 0.58575 0.42298 0.52883 0.0
C400 C 0.55728 0.42334 0.53874 0.0
C401 C 0.54042 0.43894 0.5239 0.0
C402 C 0.46396 0.50767 0.53977 0.0
C403 C 0.49089 0.55972 0.481 0.0
C404 C 0.49468 0.59954 0.57739 0.0
C405 C 0.49007 0.62542 0.565 0.0
C406 C 0.46677 0.63696 0.57545 0.0
C407 C 0.46035 0.65992 0.56159 0.0
C408 C 0.47722 0.6717 0.53715 0.0
C409 C 0.5008 0.66032 0.52696 0.0
C410 C 0.50702 0.63717 0.54061 0.0
C411 C 0.56443 0.56481 0.5222 0.0
O412 O 0.54157 0.50512 0.55266 0.0
O413 O 0.52202 0.53161 0.58656 0.0
O414 O 0.5087 0.47179 0.49328 0.0
O415 O 0.55036 0.49914 0.48584 0.0
O416 O 0.46762 0.50102 0.51203 0.0
O417 O 0.48843 0.51645 0.55139 0.0
O418 O 0.48933 0.56928 0.50868 0.0
O419 O 0.50352 0.5386 0.47537 0.0
O420 O 0.52164 0.59618 0.5778 0.0
O421 O 0.47676 0.57773 0.56773 0.0
O422 O 0.56089 0.57174 0.5498 0.0
O423 O 0.53987 0.55604 0.51087 0.0
H424 H 0.58902 0.46471 0.46903 0.0
H425 H 0.61856 0.43733 0.49499 0.0
H426 H 0.54834 0.41208 0.55834 0.0
H427 H 0.51894 0.43975 0.53277 0.0
H428 H 0.45325 0.62792 0.59394 0.0
H429 H 0.44225 0.66858 0.57008 0.0
H430 H 0.51399 0.66897 0.50808 0.0
H431 H 0.52473 0.62815 0.53174 0.0
Ho432 Ho 0.01742 0.50388 0.04595 0.0
Ho433 Ho 1.00998 0.56128 1.02051 0.0
C434 C 0.06968 0.55843 0.05376 0.0
C435 C 0.03702 0.46096 0.06036 0.0
C436 C 0.06629 0.45543 0.06614 0.0
C437 C 0.07904 0.43908 0.04603 0.0
C438 C 0.10657 0.43348 0.05139 0.0
C439 C 0.12187 0.44398 0.07712 0.0
C440 C 0.10913 0.46054 0.09708 0.0
C441 C 0.08172 0.46624 0.09164 0.0
C442 C 0.98693 0.53406 0.08062 0.0
C443 C 0.9608 0.50569 1.00727 0.0
C444 C 0.99036 0.60618 1.01829 0.0
C445 C 0.96722 0.61673 1.00322 0.0
C446 C 0.94567 0.62549 1.02092 0.0
C447 C 0.92249 0.63432 1.00781 0.0
C448 C 0.9205 0.63488 0.97665 0.0
C449 C 0.94238 0.62664 0.95882 0.0
C450 C 0.96551 0.61745 0.972 0.0
C451 C 0.03344 0.53141 0.9778 0.0
O452 O 0.06152 0.53124 0.05418 0.0
O453 O 0.05277 0.57456 0.04346 0.0
O454 O 0.02653 0.4766 0.07981 0.0
O455 O 0.03179 0.46648 1.03281 0.0
O456 O 0.98085 0.50741 0.07852 0.0
O457 O 1.00938 0.54298 0.06494 0.0
O458 O 0.96733 0.53293 1.00927 0.0
O459 O 0.97814 0.48989 1.01745 0.0
O460 O 1.01302 0.60199 1.00249 0.0
O461 O 0.98095 0.58666 0.03734 0.0
O462 O 0.02782 0.55566 0.97342 0.0
O463 O 0.02596 0.52537 1.00435 0.0
H464 H 0.06767 0.43054 1.02615 0.0
H465 H 0.11585 0.42093 0.03536 0.0
H466 H 0.11999 0.46858 0.11739 0.0
H467 H 0.07258 0.47893 0.10765 0.0
H468 H 0.9466 0.62521 0.04504 0.0
H469 H 0.90621 0.64097 1.0221 0.0
H470 H 0.9413 0.62684 0.93472 0.0
H471 H 0.98179 0.6107 0.95782 0.0
H472 H 0.2876 0.20558 0.35228 0.0
H473 H 0.24213 0.27125 0.37395 0.0
H474 H 0.2508 0.1736 0.37971 0.0
H475 H 0.20461 0.23905 0.40016 0.0
H476 H 0.14495 0.1762 0.45528 0.0
H477 H 0.18938 0.20787 0.44051 0.0
H478 H 0.20142 0.15365 0.36682 0.0
H479 H 0.15792 0.12151 0.38238 0.0
C480 C 0.27018 0.21337 0.36356 0.0
C481 C 0.26755 0.24088 0.36059 0.0
C482 C 0.24884 0.19494 0.3789 0.0
C483 C 0.2244 0.20363 0.39151 0.0
C484 C 0.2231 0.23163 0.39071 0.0
C485 C 0.2445 0.25007 0.37548 0.0
C486 C 0.15735 0.17087 0.4362 0.0
C487 C 0.14778 0.14641 0.41987 0.0
C488 C 0.18269 0.18911 0.42762 0.0
C489 C 0.19901 0.18329 0.40253 0.0
C490 C 0.18967 0.1586 0.38655 0.0
C491 C 0.16441 0.14038 0.39514 0.0
H492 H 0.30557 0.86676 0.78347 0.0
H493 H 0.38461 0.8349 0.77265 0.0
H494 H 0.31921 0.88176 0.83391 0.0
H495 H 0.39839 0.85018 0.82337 0.0
H496 H 0.43058 0.93108 0.87968 0.0
H497 H 0.41416 0.89832 0.83968 0.0
H498 H 0.33173 0.87298 0.88581 0.0
H499 H 0.34826 0.90633 0.9259 0.0
C500 C 0.32536 0.86202 0.79221 0.0
C501 C 0.34427 0.85007 0.77385 0.0
C502 C 0.33317 0.87063 0.82122 0.0
C503 C 0.36009 0.86752 0.83243 0.0
C504 C 0.37774 0.85327 0.81509 0.0
C505 C 0.36989 0.8446 0.78606 0.0
C506 C 0.40913 0.91817 0.88148 0.0
C507 C 0.39048 0.92146 0.90554 0.0
C508 C 0.39983 0.89916 0.85877 0.0
C509 C 0.3716 0.88311 0.85955 0.0
C510 C 0.35354 0.88521 0.88456 0.0
C511 C 0.36299 0.90416 0.9075 0.0
H512 H 0.59833 0.46497 0.75252 0.0
H513 H 0.6085 0.39819 0.69271 0.0
H514 H 0.58089 0.48831 0.7118 0.0
H515 H 0.58875 0.42055 0.65242 0.0
H516 H 0.57666 0.47788 0.57724 0.0
H517 H 0.5959 0.45496 0.61761 0.0
H518 H 0.54315 0.49106 0.68103 0.0
H519 H 0.52508 0.51487 0.64073 0.0
C520 C 0.59691 0.45509 0.73074 0.0
C521 C 0.60521 0.42948 0.72638 0.0
C522 C 0.58627 0.46842 0.70721 0.0
C523 C 0.58305 0.45655 0.67833 0.0
C524 C 0.59113 0.43082 0.67398 0.0
C525 C 0.60211 0.41763 0.69747 0.0
C526 C 0.56925 0.48103 0.59983 0.0
C527 C 0.54937 0.49847 0.60557 0.0
C528 C 0.58017 0.46762 0.62317 0.0
C529 C 0.57135 0.47092 0.6531 0.0
C530 C 0.55121 0.48825 0.65865 0.0
C531 C 0.54058 0.50189 0.63535 0.0
H532 H 0.96103 0.65088 0.22343 0.0
H533 H 0.87785 0.59545 0.21738 0.0
H534 H 0.98007 0.62564 0.18328 0.0
H535 H 0.89614 0.5717 0.17574 0.0
H536 H 0.94373 0.51555 0.12128 0.0
H537 H 0.92484 0.54099 0.16145 0.0
H538 H 0.98197 0.61548 0.1327 0.0
H539 H 1.00198 0.58941 0.09358 0.0
C540 C 0.94664 0.63337 0.21364 0.0
C541 C 0.91771 0.62544 0.22419 0.0
C542 C 0.95753 0.61905 0.19002 0.0
C543 C 0.93985 0.59636 0.17579 0.0
C544 C 0.91084 0.58864 0.18613 0.0
C545 C 0.90007 0.60274 0.20994 0.0
C546 C 0.95221 0.53739 0.12347 0.0
C547 C 0.97427 0.55039 0.10397 0.0
C548 C 0.94117 0.55217 0.14652 0.0
C549 C 0.95159 0.58062 0.15071 0.0
C550 C 0.97351 0.59364 0.13082 0.0
C551 C 0.9848 0.57873 0.10797 0.0
H552 H 0.45256 0.21853 0.15695 0.0
H553 H 0.36624 0.16868 0.15285 0.0
H554 H 0.47258 0.1812 0.13398 0.0
H555 H 0.38617 0.13097 0.13082 0.0
H556 H 0.42738 0.083 0.05952 0.0
H557 H 0.40681 0.11818 0.08564 0.0
H558 H 0.48258 0.1368 0.14139 0.0
H559 H 0.50368 0.10221 0.11438 0.0
C560 C 0.43794 0.19944 0.1514 0.0
C561 C 0.40785 0.19655 0.15643 0.0
C562 C 0.44939 0.17797 0.13841 0.0
C563 C 0.43101 0.153 0.13048 0.0
C564 C 0.40093 0.15004 0.13607 0.0
C565 C 0.38948 0.17162 0.14873 0.0
C566 C 0.43955 0.09439 0.07755 0.0
C567 C 0.46724 0.08989 0.08476 0.0
C568 C 0.42768 0.11455 0.09266 0.0
C569 C 0.44305 0.1305 0.11559 0.0
C570 C 0.47036 0.12531 0.12346 0.0
C571 C 0.48237 0.10532 0.10813 0.0
H572 H 0.23078 0.97739 0.60516 0.0
H573 H 0.1738 0.90292 0.57581 0.0
H574 H 0.19323 1.00356 0.59475 0.0
H575 H 0.13662 0.92899 0.56437 0.0
H576 H 0.06621 0.97747 0.56703 0.0
H577 H 0.1028 0.95372 0.58553 0.0
H578 H 0.1706 1.01911 0.55316 0.0
H579 H 0.13374 0.04354 0.53621 0.0
C580 C 0.21021 0.96671 0.59636 0.0
C581 C 0.20508 0.93822 0.59123 0.0
C582 C 0.18876 0.98165 0.59031 0.0
C583 C 0.16191 0.9684 0.5787 0.0
C584 C 0.1568 0.9398 0.57386 0.0
C585 C 0.17811 0.92485 0.58025 0.0
C586 C 0.08892 0.987 0.56446 0.0
C587 C 0.09721 1.0123 0.55027 0.0
C588 C 0.10992 0.97325 0.57472 0.0
C589 C 0.13966 0.98433 0.57053 0.0
C590 C 0.1479 1.01011 0.55706 0.0
C591 C 0.12683 1.02404 0.54716 0.0
H592 H 0.80916 0.46573 0.89135 0.0
H593 H 0.79932 0.39689 0.95052 0.0
H594 H 0.85387 0.48706 0.91634 0.0
H595 H 0.84385 0.41825 0.97564 0.0
H596 H 0.94009 0.45078 0.99546 0.0
H597 H 0.8954 0.42956 0.97041 0.0
H598 H 0.87321 0.50931 0.96112 0.0
H599 H 0.91819 0.53057 0.98548 0.0
C600 C 0.81632 0.45521 0.90987 0.0
C601 C 0.80045 0.42945 0.91873 0.0
C602 C 0.84207 0.4675 0.9243 0.0
C603 C 0.85278 0.45449 0.94815 0.0
C604 C 0.83679 0.42879 0.95708 0.0
C605 C 0.8111 0.41648 0.94261 0.0
C606 C 0.9257 0.46384 0.98814 0.0
C607 C 0.93298 0.49249 0.99261 0.0
C608 C 0.89986 0.4516 0.97385 0.0
C609 C 0.88041 0.46759 0.96358 0.0
C610 C 0.88768 0.49624 0.9682 0.0
C611 C 0.91352 0.50848 0.98244 0.0
H612 H 0.69604 0.63836 0.39127 0.0
H613 H 0.74585 0.61192 0.4611 0.0
H614 H 0.65106 0.61871 0.41781 0.0
H615 H 0.70098 0.59227 0.48758 0.0
H616 H 0.61745 0.58919 0.54357 0.0
H617 H 0.6623 0.60604 0.51562 0.0
H618 H 0.6191 0.57698 0.43358 0.0
H619 H 0.57393 0.56058 0.46176 0.0
C620 C 0.69747 0.62807 0.41209 0.0
C621 C 0.7248 0.62699 0.42401 0.0
C622 C 0.67157 0.61674 0.42737 0.0
C623 C 0.67216 0.60395 0.45507 0.0
C624 C 0.6995 0.60241 0.46667 0.0
C625 C 0.72535 0.61373 0.45141 0.0
C626 C 0.61754 0.58628 0.51958 0.0
C627 C 0.59206 0.57359 0.50492 0.0
C628 C 0.64338 0.59582 0.50348 0.0
C629 C 0.64457 0.59296 0.47219 0.0
C630 C 0.61906 0.57993 0.45756 0.0
C631 C 0.59317 0.57032 0.47373 0.0
H632 H 0.25634 0.41054 0.18546 0.0
H633 H 0.27231 0.36701 0.1046 0.0
H634 H 0.22123 0.43165 0.15965 0.0
H635 H 0.2371 0.38826 0.07853 0.0
H636 H 0.13833 0.39444 0.06828 0.0
H637 H 0.18264 0.381 0.08462 0.0
H638 H 0.21391 0.46308 0.11884 0.0
H639 H 0.16981 0.47685 0.10188 0.0
C640 C 0.25274 0.406 0.16195 0.0
C641 C 0.26685 0.38709 0.14702 0.0
C642 C 0.23279 0.41818 0.14712 0.0
C643 C 0.2263 0.41148 0.11711 0.0
C644 C 0.24154 0.39362 0.10173 0.0
C645 C 0.26182 0.38166 0.11653 0.0
C646 C 0.15493 0.40987 0.07855 0.0
C647 C 0.1503 0.43667 0.08403 0.0
C648 C 0.18037 0.40214 0.08791 0.0
C649 C 0.20168 0.42096 0.10314 0.0
C650 C 0.19769 0.44806 0.10746 0.0
C651 C 0.17235 0.45587 0.09789 0.0
H652 H 0.63001 0.23245 0.94408 0.0
H653 H 0.56022 0.22146 0.88094 0.0
H654 H 0.60915 0.18817 0.96596 0.0
H655 H 0.53897 0.17746 0.90328 0.0
H656 H 0.5262 0.08671 0.9283 0.0
H657 H 0.54775 0.13112 0.90719 0.0
H658 H 0.56826 0.16398 0.99572 0.0
H659 H 0.54676 0.11926 1.01683 0.0
C660 C 0.61022 0.22061 0.93478 0.0
C661 C 0.59698 0.23069 0.91051 0.0
C662 C 0.59805 0.19525 0.9476 0.0
C663 C 0.57232 0.17896 0.93646 0.0
C664 C 0.55897 0.18913 0.91233 0.0
C665 C 0.57102 0.21461 0.89966 0.0
C666 C 0.53539 0.10336 0.94331 0.0
C667 C 0.53466 0.09935 0.97431 0.0
C668 C 0.54759 0.12899 0.93117 0.0
C669 C 0.55966 0.15144 0.94963 0.0
C670 C 0.55941 0.14724 0.98069 0.0
C671 C 0.547 0.12159 0.99285 0.0
H672 H 0.90153 0.85086 0.38958 0.0
H673 H 0.95767 0.80994 0.43977 0.0
H674 H 0.92181 0.89415 0.41479 0.0
H675 H 0.97854 0.8534 0.46436 0.0
H676 H 0.98578 0.92846 0.52709 0.0
H677 H 0.966 0.88565 0.50098 0.0
H678 H 0.96511 0.92989 0.4192 0.0
H679 H 0.98464 0.97293 0.44549 0.0
C680 C 0.91823 0.85103 0.40596 0.0
C681 C 0.92779 0.82666 0.41259 0.0
C682 C 0.93012 0.87603 0.42025 0.0
C683 C 0.95186 0.87749 0.4418 0.0
C684 C 0.96162 0.85316 0.44821 0.0
C685 C 0.94985 0.8282 0.43379 0.0
C686 C 0.98139 0.92919 0.50354 0.0
C687 C 0.98692 0.95437 0.48851 0.0
C688 C 0.97018 0.90447 0.48844 0.0
C689 C 0.96396 0.90406 0.45782 0.0
C690 C 0.9693 0.92928 0.44281 0.0
C691 C 0.98068 0.95404 0.4579 0.0
H692 H 0.38924 0.79908 0.48153 0.0
H693 H 0.44706 0.82506 0.55513 0.0
H694 H 0.41528 0.76204 0.46995 0.0
H695 H 0.47327 0.78912 0.54285 0.0
H696 H 0.51451 0.71959 0.52415 0.0
H697 H 0.50139 0.76275 0.50951 0.0
H698 H 0.41135 0.72181 0.50405 0.0
H699 H 0.42453 0.67888 0.51834 0.0
C700 C 0.40796 0.7975 0.49466 0.0
C701 C 0.4154 0.8146 0.51985 0.0
C702 C 0.42297 0.77641 0.48786 0.0
C703 C 0.44593 0.77241 0.50584 0.0
C704 C 0.45575 0.79173 0.52846 0.0
C705 C 0.44059 0.81251 0.53549 0.0
C706 C 0.49209 0.71974 0.5189 0.0
C707 C 0.47038 0.69618 0.52294 0.0
C708 C 0.4846 0.74437 0.51053 0.0
C709 C 0.45535 0.74568 0.50584 0.0
C710 C 0.43411 0.72144 0.50723 0.0
C711 C 0.44155 0.69694 0.51583 0.0
H712 H 0.80774 0.79622 0.72357 0.0
H713 H 0.75969 0.85356 0.6875 0.0
H714 H 0.85127 0.81859 0.69624 0.0
H715 H 0.80326 0.87609 0.66039 0.0
H716 H 0.8845 0.90493 0.60528 0.0
H717 H 0.84166 0.87173 0.62127 0.0
H718 H 0.88115 0.86578 0.70644 0.0
H719 H 0.92357 0.89941 0.69091 0.0
C720 C 0.80625 0.81304 0.70904 0.0
C721 C 0.78045 0.82332 0.70776 0.0
C722 C 0.83122 0.82598 0.69365 0.0
C723 C 0.83069 0.84923 0.6765 0.0
C724 C 0.80426 0.85812 0.67332 0.0
C725 C 0.77938 0.84534 0.68893 0.0
C726 C 0.88408 0.8965 0.6274 0.0
C727 C 0.90732 0.90514 0.64698 0.0
C728 C 0.85963 0.87737 0.63643 0.0
C729 C 0.85808 0.86624 0.66507 0.0
C730 C 0.88192 0.87373 0.68405 0.0
C731 C 0.90625 0.89304 0.67515 0.0
H732 H 0.66593 0.10696 0.3377 0.0
H733 H 0.63219 0.18066 0.32361 0.0
H734 H 0.65183 0.09091 0.28757 0.0
H735 H 0.61887 0.16475 0.27294 0.0
H736 H 0.63444 0.13919 0.17405 0.0
H737 H 0.64625 0.15553 0.22504 0.0
H738 H 0.60553 0.07607 0.2586 0.0
H739 H 0.59397 0.05971 0.20773 0.0
C740 C 0.65512 0.11958 0.32412 0.0
C741 C 0.65006 0.14507 0.33481 0.0
C742 C 0.64721 0.11042 0.29533 0.0
C743 C 0.63433 0.12663 0.27644 0.0
C744 C 0.62909 0.15202 0.28701 0.0
C745 C 0.63674 0.16111 0.31598 0.0
C746 C 0.62819 0.12525 0.19236 0.0
C747 C 0.61335 0.09822 0.18704 0.0
C748 C 0.63466 0.13465 0.22147 0.0
C749 C 0.62673 0.11705 0.24567 0.0
C750 C 0.61202 0.09 0.2403 0.0
C751 C 0.60527 0.08071 0.21127 0.0
H752 H 0.43114 0.60504 0.30786 0.0
H753 H 0.42467 0.6746 0.36512 0.0
H754 H 0.44772 0.58221 0.34934 0.0
H755 H 0.44395 0.65276 0.40606 0.0
H756 H 0.45501 0.59755 0.4836 0.0
H757 H 0.43654 0.62022 0.4425 0.0
H758 H 0.48454 0.57804 0.37997 0.0
H759 H 0.50145 0.55437 0.42096 0.0
C760 C 0.43321 0.61567 0.32922 0.0
C761 C 0.42608 0.64188 0.33263 0.0
C762 C 0.44342 0.60261 0.35321 0.0
C763 C 0.44754 0.61537 0.3816 0.0
C764 C 0.44079 0.64175 0.38496 0.0
C765 C 0.43012 0.65466 0.36104 0.0
C766 C 0.46145 0.59298 0.46104 0.0
C767 C 0.47956 0.57382 0.45576 0.0
C768 C 0.45103 0.60626 0.43726 0.0
C769 C 0.45874 0.60121 0.40734 0.0
C770 C 0.47725 0.58225 0.40229 0.0
C771 C 0.48724 0.56867 0.42601 0.0
H772 H 0.0734 0.44925 0.81182 0.0
H773 H 0.13785 0.43301 0.87284 0.0
H774 H 0.05174 0.47312 0.8515 0.0
H775 H 0.11679 0.45786 0.91233 0.0
H776 H 0.05586 0.48434 0.98471 0.0
H777 H 0.0759 0.45752 0.94602 0.0
H778 H 0.0605 0.51484 0.87986 0.0
H779 H 0.03986 0.54088 0.91837 0.0
C780 C 0.08296 0.4506 0.83371 0.0
C781 C 0.10755 0.43904 0.8388 0.0
C782 C 0.07067 0.46469 0.85653 0.0
C783 C 0.08247 0.46774 0.88537 0.0
C784 C 0.10682 0.45587 0.89062 0.0
C785 C 0.11918 0.44183 0.86773 0.0
C786 C 0.05635 0.49091 0.96188 0.0
C787 C 0.04578 0.51455 0.95472 0.0
C788 C 0.06821 0.47572 0.93961 0.0
C789 C 0.06979 0.48374 0.90948 0.0
C790 C 0.05927 0.50753 0.90253 0.0
C791 C 0.04756 0.52267 0.92475 0.0
H792 H 0.63227 0.912 0.87115 0.0
H793 H 0.59585 0.8562 0.94114 0.0
H794 H 0.60847 0.94714 0.89335 0.0
H795 H 0.57099 0.8911 0.96231 0.0
H796 H 0.50716 0.95122 0.96908 0.0
H797 H 0.53084 0.91688 0.9449 0.0
H798 H 0.6126 0.97469 0.94426 0.0
H799 H 0.58903 1.00918 0.96893 0.0
C800 C 0.61936 0.90719 0.89132 0.0
C801 C 0.61624 0.8812 0.90444 0.0
C802 C 0.60562 0.92732 0.90388 0.0
C803 C 0.58798 0.92179 0.92949 0.0
C804 C 0.58431 0.89576 0.94236 0.0
C805 C 0.59845 0.87574 0.93011 0.0
C806 C 0.53014 0.95677 0.96355 0.0
C807 C 0.54627 0.98294 0.97092 0.0
C808 C 0.54368 0.93701 0.94991 0.0
C809 C 0.57351 0.94313 0.9429 0.0
C810 C 0.58951 0.96953 0.94938 0.0
C811 C 0.57606 0.98921 0.96352 0.0
H812 H 0.81782 0.08649 0.46565 0.0
H813 H 0.86012 0.14926 0.52707 0.0
H814 H 0.85781 0.06204 0.47051 0.0
H815 H 0.90032 0.12515 0.53119 0.0
H816 H 0.97916 0.08757 0.51209 0.0
H817 H 0.94058 0.11168 0.499 0.0
H818 H 0.87655 0.03751 0.51305 0.0
H819 H 0.91514 1.01338 0.52612 0.0
C820 C 0.83557 0.09503 0.48024 0.0
C821 C 0.83571 0.11975 0.49612 0.0
C822 C 0.85849 0.08111 0.48284 0.0
C823 C 0.88212 0.09181 0.50109 0.0
C824 C 0.88255 0.11671 0.51657 0.0
C825 C 0.85953 0.13049 0.51421 0.0
C826 C 0.95688 0.07636 0.51193 0.0
C827 C 0.94996 0.04876 0.52039 0.0
C828 C 0.93486 0.09016 0.5046 0.0
C829 C 0.90566 0.07648 0.50532 0.0
C830 C 0.89893 0.04847 0.5122 0.0
C831 C 0.92094 0.03472 0.51979 0.0
H832 H 0.23329 0.66636 0.10525 0.0
H833 H 0.22117 0.6011 0.16926 0.0
H834 H 0.18931 0.64399 0.08007 0.0
H835 H 0.17625 0.57935 0.14486 0.0
H836 H 0.11117 0.53314 0.07763 0.0
H837 H 0.15665 0.55452 0.10122 0.0
H838 H 0.13797 0.63466 0.08488 0.0
H839 H 0.09301 0.61335 0.06066 0.0
C840 C 0.22133 0.64719 0.114 0.0
C841 C 0.23112 0.63561 0.13938 0.0
C842 C 0.19573 0.63447 0.0997 0.0
C843 C 0.1789 0.60976 0.11031 0.0
C844 C 0.18866 0.59815 0.1357 0.0
C845 C 0.21433 0.61088 0.15001 0.0
C846 C 0.11682 0.55534 0.07884 0.0
C847 C 0.09825 0.57143 0.06703 0.0
C848 C 0.1429 0.56765 0.09267 0.0
C849 C 0.15123 0.59645 0.09515 0.0
C850 C 0.13272 0.61248 0.08309 0.0
C851 C 0.10671 0.60019 0.06924 0.0
H852 H 0.31517 0.4781 0.66662 0.0
H853 H 0.30548 0.40609 0.60946 0.0
H854 H 0.35869 0.49905 0.63816 0.0
H855 H 0.3492 0.42661 0.58167 0.0
H856 H 0.41168 0.48062 0.51866 0.0
H857 H 0.3672 0.46267 0.54687 0.0
H858 H 0.40929 0.49503 0.62836 0.0
H859 H 0.45379 0.5133 0.5999 0.0
C860 C 0.32221 0.46674 0.64796 0.0
C861 C 0.30667 0.44029 0.6405 0.0
C862 C 0.3474 0.47866 0.63178 0.0
C863 C 0.35763 0.46462 0.60748 0.0
C864 C 0.34194 0.43827 0.59996 0.0
C865 C 0.31694 0.42631 0.6162 0.0
C866 C 0.41142 0.48405 0.54258 0.0
C867 C 0.43638 0.49829 0.55701 0.0
C868 C 0.38591 0.47358 0.55884 0.0
C869 C 0.38454 0.47711 0.59005 0.0
C870 C 0.40935 0.49202 0.60439 0.0
C871 C 0.43495 0.50242 0.58808 0.0
H872 H 0.80988 0.74145 0.91752 0.0
H873 H 0.75401 0.66151 0.90967 0.0
H874 H 0.84928 0.72022 0.93423 0.0
H875 H 0.79379 0.64016 0.92598 0.0
H876 H 0.86293 0.6197 0.99127 0.0
H877 H 0.82245 0.63837 0.97234 0.0
H878 H 0.88159 0.69011 0.91259 0.0
H879 H 0.92218 0.67164 0.93183 0.0
C880 C 0.80593 0.71935 0.91966 0.0
C881 C 0.77877 0.70316 0.9125 0.0
C882 C 0.82864 0.70717 0.92881 0.0
C883 C 0.82468 0.67853 0.93119 0.0
C884 C 0.79742 0.6623 0.92443 0.0
C885 C 0.77472 0.67449 0.915 0.0
C886 C 0.86722 0.63499 0.974 0.0
C887 C 0.8957 0.64439 0.96314 0.0
C888 C 0.84404 0.64551 0.96302 0.0
C889 C 0.8489 0.66582 0.94115 0.0
C890 C 0.87727 0.67469 0.92972 0.0
C891 C 0.90044 0.66396 0.9405 0.0
H892 H 0.42898 0.82435 0.09854 0.0
H893 H 0.43301 0.86219 0.18639 0.0
H894 H 0.44377 0.8687 0.07663 0.0
H895 H 0.45167 0.9063 0.16463 0.0
H896 H 0.46492 0.98856 0.11977 0.0
H897 H 0.44583 0.94389 0.14122 0.0
H898 H 0.47692 0.9047 0.06335 0.0
H899 H 0.49336 0.94939 0.04125 0.0
C900 C 0.433 0.84196 0.11348 0.0
C901 C 0.42907 0.83892 0.14463 0.0
C902 C 0.44236 0.86785 0.10068 0.0
C903 C 0.44927 0.89193 0.11843 0.0
C904 C 0.44611 0.88883 0.14965 0.0
C905 C 0.43588 0.86299 0.16242 0.0
C906 C 0.46722 0.97026 0.10717 0.0
C907 C 0.48045 0.97256 0.07874 0.0
C908 C 0.45661 0.94439 0.11966 0.0
C909 C 0.45973 0.91987 0.10452 0.0
C910 C 0.47315 0.9225 0.07589 0.0
C911 C 0.48291 0.94835 0.06307 0.0
H912 H 0.14751 0.24113 0.62031 0.0
H913 H 0.07666 0.22544 0.6845 0.0
H914 H 0.12938 0.19691 0.59614 0.0
H915 H 0.0581 0.18123 0.65983 0.0
H916 H 0.05095 0.09128 0.62512 0.0
H917 H 0.06929 0.13507 0.65075 0.0
H918 H 0.08919 0.17415 0.56569 0.0
H919 H 0.07116 0.13061 0.54019 0.0
C920 C 0.12809 0.22822 0.6294 0.0
C921 C 0.11368 0.23702 0.65454 0.0
C922 C 0.11749 0.20287 0.61529 0.0
C923 C 0.09218 0.18531 0.6259 0.0
C924 C 0.07778 0.194 0.65112 0.0
C925 C 0.08827 0.21955 0.66512 0.0
C926 C 0.05934 0.10918 0.61188 0.0
C927 C 0.05954 0.10722 0.5805 0.0
C928 C 0.06968 0.1344 0.6266 0.0
C929 C 0.08081 0.15832 0.61039 0.0
C930 C 0.08115 0.15623 0.57903 0.0
C931 C 0.07061 0.13115 0.56435 0.0
H932 H 0.72167 0.34218 0.52432 0.0
H933 H 0.66021 0.28555 0.57718 0.0
H934 H 0.69475 0.37813 0.53556 0.0
H935 H 0.63407 0.32206 0.59006 0.0
H936 H 0.57041 0.36925 0.54326 0.0
H937 H 0.60258 0.33934 0.55819 0.0
H938 H 0.67364 0.40934 0.56446 0.0
H939 H 0.64132 0.43907 0.54824 0.0
C940 C 0.70294 0.33771 0.53923 0.0
C941 C 0.6925 0.31087 0.54905 0.0
C942 C 0.68762 0.35845 0.54605 0.0
C943 C 0.66169 0.35281 0.56311 0.0
C944 C 0.6535 0.32687 0.57617 0.0
C945 C 0.66869 0.306 0.56907 0.0
C946 C 0.59271 0.37828 0.54862 0.0
C947 C 0.60364 0.40624 0.54399 0.0
C948 C 0.6112 0.3612 0.55744 0.0
C949 C 0.64093 0.37184 0.56211 0.0
C950 C 0.65106 0.40037 0.56035 0.0
C951 C 0.63262 0.41739 0.5511 0.0
loop_
_geom_bond_atom_site_label_1
_geom_bond_atom_site_label_2
_geom_bond_distance
_geom_bond_site_symmetry_2
_ccdc_geom_bond_type
C0 C1 1.386 . S
C0 C2 1.397 . S
C0 H24 0.931 . S
C1 C0 1.386 . S
C1 C5 1.397 . S
C2 C0 1.397 . S
C2 C3 1.384 . S
C2 H25 0.930 . S
C3 C2 1.384 . S
C3 C4 1.377 . S
C3 C6 1.481 . S
C4 C3 1.377 . S
C4 C5 1.389 . S
C4 H26 0.929 . S
C5 C1 1.397 . S
C5 C4 1.389 . S
C5 H27 0.931 . S
C6 C3 1.481 . S
C6 C7 1.387 . S
C6 C11 1.390 . S
C7 C6 1.387 . S
C7 C8 1.401 . S
C7 H28 0.930 . S
C8 C7 1.401 . S
C8 C9 1.376 . S
C8 C17 1.511 . S
C9 C8 1.376 . S
C9 C10 1.392 . S
C9 H30 0.931 . S
C10 C9 1.392 . S
C10 C11 1.361 . S
C10 C12 1.500 . S
C11 C6 1.390 . S
C11 C10 1.361 . S
C11 H29 0.931 . S
C12 C10 1.500 . S
C12 C13 1.371 . S
C12 C14 1.365 . S
C13 C12 1.371 . S
C13 C23 1.386 . S
C13 H31 0.931 . S
C14 C12 1.365 . S
C14 C15 1.409 . S
C14 H32 0.929 . S
C15 C14 1.409 . S
C15 C16 1.380 . S
C15 H33 0.930 . S
C16 C15 1.380 . S
C16 C23 1.357 . S
C17 C8 1.511 . S
C17 C18 1.341 . S
C17 C19 1.371 . S
C18 C17 1.341 . S
C18 C22 1.394 . S
C18 H34 0.930 . S
C19 C17 1.371 . S
C19 C20 1.392 . S
C19 H35 0.931 . S
C20 C19 1.392 . S
C20 C21 1.331 . S
C20 H38 0.932 . S
C21 C20 1.331 . S
C21 C22 1.336 . S
C22 C18 1.394 . S
C22 C21 1.336 . S
C22 H37 0.929 . S
C23 C13 1.386 . S
C23 C16 1.357 . S
C23 H36 0.928 . S
H24 C0 0.931 . S
H25 C2 0.930 . S
H26 C4 0.929 . S
H27 C5 0.931 . S
H28 C7 0.930 . S
H29 C11 0.931 . S
H30 C9 0.931 . S
H31 C13 0.931 . S
H32 C14 0.929 . S
H33 C15 0.930 . S
H34 C18 0.930 . S
H35 C19 0.931 . S
H36 C23 0.928 . S
H37 C22 0.929 . S
H38 C20 0.932 . S
C39 C40 1.386 . S
C39 C41 1.397 . S
C39 H63 0.931 . S
C40 C39 1.386 . S
C40 C44 1.397 . S
C41 C39 1.397 . S
C41 C42 1.384 . S
C41 H64 0.930 . S
C42 C41 1.384 . S
C42 C43 1.377 . S
C42 C45 1.481 . S
C43 C42 1.377 . S
C43 C44 1.389 . S
C43 H65 0.929 . S
C44 C40 1.397 . S
C44 C43 1.389 . S
C44 H66 0.931 . S
C45 C42 1.481 . S
C45 C46 1.387 . S
C45 C50 1.390 . S
C46 C45 1.387 . S
C46 C47 1.401 . S
C46 H67 0.930 . S
C47 C46 1.401 . S
C47 C48 1.376 . S
C47 C56 1.511 . S
C48 C47 1.376 . S
C48 C49 1.392 . S
C48 H69 0.931 . S
C49 C48 1.392 . S
C49 C50 1.361 . S
C49 C51 1.500 . S
C50 C45 1.390 . S
C50 C49 1.361 . S
C50 H68 0.931 . S
C51 C49 1.500 . S
C51 C52 1.371 . S
C51 C53 1.365 . S
C52 C51 1.371 . S
C52 C62 1.386 . S
C52 H70 0.931 . S
C53 C51 1.365 . S
C53 C54 1.409 . S
C53 H71 0.929 . S
C54 C53 1.409 . S
C54 C55 1.380 . S
C54 H72 0.930 . S
C55 C54 1.380 . S
C55 C62 1.357 . S
C56 C47 1.511 . S
C56 C57 1.341 . S
C56 C58 1.371 . S
C57 C56 1.341 . S
C57 C61 1.394 . S
C57 H73 0.930 . S
C58 C56 1.371 . S
C58 C59 1.392 . S
C58 H74 0.931 . S
C59 C58 1.392 . S
C59 C60 1.331 . S
C59 H77 0.932 . S
C60 C59 1.331 . S
C60 C61 1.336 . S
C61 C57 1.394 . S
C61 C60 1.336 . S
C61 H76 0.929 . S
C62 C52 1.386 . S
C62 C55 1.357 . S
C62 H75 0.928 . S
H63 C39 0.931 . S
H64 C41 0.930 . S
H65 C43 0.929 . S
H66 C44 0.931 . S
H67 C46 0.930 . S
H68 C50 0.931 . S
H69 C48 0.931 . S
H70 C52 0.931 . S
H71 C53 0.929 . S
H72 C54 0.930 . S
H73 C57 0.930 . S
H74 C58 0.931 . S
H75 C62 0.928 . S
H76 C61 0.929 . S
H77 C59 0.932 . S
C78 C79 1.386 . S
C78 C80 1.397 . S
C78 H102 0.931 . S
C79 C78 1.386 . S
C79 C83 1.397 . S
C80 C78 1.397 . S
C80 C81 1.384 . S
C80 H103 0.930 . S
C81 C80 1.384 . S
C81 C82 1.377 . S
C81 C84 1.481 . S
C82 C81 1.377 . S
C82 C83 1.389 . S
C82 H104 0.929 . S
C83 C79 1.397 . S
C83 C82 1.389 . S
C83 H105 0.931 . S
C84 C81 1.481 . S
C84 C85 1.387 . S
C84 C89 1.390 . S
C85 C84 1.387 . S
C85 C86 1.401 . S
C85 H106 0.930 . S
C86 C85 1.401 . S
C86 C87 1.376 . S
C86 C95 1.511 . S
C87 C86 1.376 . S
C87 C88 1.392 . S
C87 H108 0.931 . S
C88 C87 1.392 . S
C88 C89 1.361 . S
C88 C90 1.500 . S
C89 C84 1.390 . S
C89 C88 1.361 . S
C89 H107 0.931 . S
C90 C88 1.500 . S
C90 C91 1.371 . S
C90 C92 1.365 . S
C91 C90 1.371 . S
C91 C101 1.386 . S
C91 H109 0.931 . S
C92 C90 1.365 . S
C92 C93 1.409 . S
C92 H110 0.929 . S
C93 C92 1.409 . S
C93 C94 1.380 . S
C93 H111 0.930 . S
C94 C93 1.380 . S
C94 C101 1.357 . S
C95 C86 1.511 . S
C95 C96 1.341 . S
C95 C97 1.371 . S
C96 C95 1.341 . S
C96 C100 1.394 . S
C96 H112 0.930 . S
C97 C95 1.371 . S
C97 C98 1.392 . S
C97 H113 0.931 . S
C98 C97 1.392 . S
C98 C99 1.331 . S
C98 H116 0.932 . S
C99 C98 1.331 . S
C99 C100 1.336 . S
C100 C96 1.394 . S
C100 C99 1.336 . S
C100 H115 0.929 . S
C101 C91 1.386 . S
C101 C94 1.357 . S
C101 H114 0.928 . S
H102 C78 0.931 . S
H103 C80 0.930 . S
H104 C82 0.929 . S
H105 C83 0.931 . S
H106 C85 0.930 . S
H107 C89 0.931 . S
H108 C87 0.931 . S
H109 C91 0.931 . S
H110 C92 0.929 . S
H111 C93 0.930 . S
H112 C96 0.930 . S
H113 C97 0.931 . S
H114 C101 0.928 . S
H115 C100 0.929 . S
H116 C98 0.932 . S
C117 C118 1.386 . S
C117 C119 1.397 . S
C117 H141 0.931 . S
C118 C117 1.386 . S
C118 C122 1.397 . S
C119 C117 1.397 . S
C119 C120 1.384 . S
C119 H142 0.930 . S
C120 C119 1.384 . S
C120 C121 1.377 . S
C120 C123 1.481 . S
C121 C120 1.377 . S
C121 C122 1.389 . S
C121 H143 0.929 . S
C122 C118 1.397 . S
C122 C121 1.389 . S
C122 H144 0.931 . S
C123 C120 1.481 . S
C123 C124 1.387 . S
C123 C128 1.390 . S
C124 C123 1.387 . S
C124 C125 1.401 . S
C124 H145 0.930 . S
C125 C124 1.401 . S
C125 C126 1.376 . S
C125 C134 1.511 . S
C126 C125 1.376 . S
C126 C127 1.392 . S
C126 H147 0.931 . S
C127 C126 1.392 . S
C127 C128 1.361 . S
C127 C129 1.500 . S
C128 C123 1.390 . S
C128 C127 1.361 . S
C128 H146 0.931 . S
C129 C127 1.500 . S
C129 C130 1.371 . S
C129 C131 1.365 . S
C130 C129 1.371 . S
C130 C140 1.386 . S
C130 H148 0.931 . S
C131 C129 1.365 . S
C131 C132 1.409 . S
C131 H149 0.929 . S
C132 C131 1.409 . S
C132 C133 1.380 . S
C132 H150 0.930 . S
C133 C132 1.380 . S
C133 C140 1.357 . S
C134 C125 1.511 . S
C134 C135 1.341 . S
C134 C136 1.371 . S
C135 C134 1.341 . S
C135 C139 1.394 . S
C135 H151 0.930 . S
C136 C134 1.371 . S
C136 C137 1.392 . S
C136 H152 0.931 . S
C137 C136 1.392 . S
C137 C138 1.331 . S
C137 H155 0.932 . S
C138 C137 1.331 . S
C138 C139 1.336 . S
C139 C135 1.394 . S
C139 C138 1.336 . S
C139 H154 0.929 . S
C140 C130 1.386 . S
C140 C133 1.357 . S
C140 H153 0.928 . S
H141 C117 0.931 . S
H142 C119 0.930 . S
H143 C121 0.929 . S
H144 C122 0.931 . S
H145 C124 0.930 . S
H146 C128 0.931 . S
H147 C126 0.931 . S
H148 C130 0.931 . S
H149 C131 0.929 . S
H150 C132 0.930 . S
H151 C135 0.930 . S
H152 C136 0.931 . S
H153 C140 0.928 . S
H154 C139 0.929 . S
H155 C137 0.932 . S
C156 C157 1.386 . S
C156 C158 1.397 . S
C156 H180 0.931 . S
C157 C156 1.386 . S
C157 C161 1.397 . S
C158 C156 1.397 . S
C158 C159 1.384 . S
C158 H181 0.930 . S
C159 C158 1.384 . S
C159 C160 1.377 . S
C159 C162 1.481 . S
C160 C159 1.377 . S
C160 C161 1.389 . S
C160 H182 0.929 . S
C161 C157 1.397 . S
C161 C160 1.389 . S
C161 H183 0.931 . S
C162 C159 1.481 . S
C162 C163 1.387 . S
C162 C167 1.390 . S
C163 C162 1.387 . S
C163 C164 1.401 . S
C163 H184 0.930 . S
C164 C163 1.401 . S
C164 C165 1.376 . S
C164 C173 1.511 . S
C165 C164 1.376 . S
C165 C166 1.392 . S
C165 H186 0.931 . S
C166 C165 1.392 . S
C166 C167 1.361 . S
C166 C168 1.500 . S
C167 C162 1.390 . S
C167 C166 1.361 . S
C167 H185 0.931 . S
C168 C166 1.500 . S
C168 C169 1.371 . S
C168 C170 1.365 . S
C169 C168 1.371 . S
C169 C179 1.386 . S
C169 H187 0.931 . S
C170 C168 1.365 . S
C170 C171 1.409 . S
C170 H188 0.929 . S
C171 C170 1.409 . S
C171 C172 1.380 . S
C171 H189 0.930 . S
C172 C171 1.380 . S
C172 C179 1.357 . S
C173 C164 1.511 . S
C173 C174 1.341 . S
C173 C175 1.371 . S
C174 C173 1.341 . S
C174 C178 1.394 . S
C174 H190 0.930 . S
C175 C173 1.371 . S
C175 C176 1.392 . S
C175 H191 0.931 . S
C176 C175 1.392 . S
C176 C177 1.331 . S
C176 H194 0.932 . S
C177 C176 1.331 . S
C177 C178 1.336 . S
C178 C174 1.394 . S
C178 C177 1.336 . S
C178 H193 0.929 . S
C179 C169 1.386 . S
C179 C172 1.357 . S
C179 H192 0.928 . S
H180 C156 0.931 . S
H181 C158 0.930 . S
H182 C160 0.929 . S
H183 C161 0.931 . S
H184 C163 0.930 . S
H185 C167 0.931 . S
H186 C165 0.931 . S
H187 C169 0.931 . S
H188 C170 0.929 . S
H189 C171 0.930 . S
H190 C174 0.930 . S
H191 C175 0.931 . S
H192 C179 0.928 . S
H193 C178 0.929 . S
H194 C176 0.932 . S
C195 C196 1.386 . S
C195 C197 1.397 . S
C195 H219 0.931 . S
C196 C195 1.386 . S
C196 C200 1.397 . S
C197 C195 1.397 . S
C197 C198 1.384 . S
C197 H220 0.930 . S
C198 C197 1.384 . S
C198 C199 1.377 . S
C198 C201 1.481 . S
C199 C198 1.377 . S
C199 C200 1.389 . S
C199 H221 0.929 . S
C200 C196 1.397 . S
C200 C199 1.389 . S
C200 H222 0.931 . S
C201 C198 1.481 . S
C201 C202 1.387 . S
C201 C206 1.390 . S
C202 C201 1.387 . S
C202 C203 1.401 . S
C202 H223 0.930 . S
C203 C202 1.401 . S
C203 C204 1.376 . S
C203 C212 1.511 . S
C204 C203 1.376 . S
C204 C205 1.392 . S
C204 H225 0.931 . S
C205 C204 1.392 . S
C205 C206 1.361 . S
C205 C207 1.500 . S
C206 C201 1.390 . S
C206 C205 1.361 . S
C206 H224 0.931 . S
C207 C205 1.500 . S
C207 C208 1.371 . S
C207 C209 1.365 . S
C208 C207 1.371 . S
C208 C218 1.386 . S
C208 H226 0.931 . S
C209 C207 1.365 . S
C209 C210 1.409 . S
C209 H227 0.929 . S
C210 C209 1.409 . S
C210 C211 1.380 . S
C210 H228 0.930 . S
C211 C210 1.380 . S
C211 C218 1.357 . S
C212 C203 1.511 . S
C212 C213 1.341 . S
C212 C214 1.371 . S
C213 C212 1.341 . S
C213 C217 1.394 . S
C213 H229 0.930 . S
C214 C212 1.371 . S
C214 C215 1.392 . S
C214 H230 0.931 . S
C215 C214 1.392 . S
C215 C216 1.331 . S
C215 H233 0.932 . S
C216 C215 1.331 . S
C216 C217 1.336 . S
C217 C213 1.394 . S
C217 C216 1.336 . S
C217 H232 0.929 . S
C218 C208 1.386 . S
C218 C211 1.357 . S
C218 H231 0.928 . S
H219 C195 0.931 . S
H220 C197 0.930 . S
H221 C199 0.929 . S
H222 C200 0.931 . S
H223 C202 0.930 . S
H224 C206 0.931 . S
H225 C204 0.931 . S
H226 C208 0.931 . S
H227 C209 0.929 . S
H228 C210 0.930 . S
H229 C213 0.930 . S
H230 C214 0.931 . S
H231 C218 0.928 . S
H232 C217 0.929 . S
H233 C215 0.932 . S
C234 C235 1.386 . S
C234 C236 1.397 . S
C234 H258 0.931 . S
C235 C234 1.386 . S
C235 C239 1.397 . S
C236 C234 1.397 . S
C236 C237 1.384 . S
C236 H259 0.930 . S
C237 C236 1.384 . S
C237 C238 1.377 . S
C237 C240 1.481 . S
C238 C237 1.377 . S
C238 C239 1.389 . S
C238 H260 0.929 . S
C239 C235 1.397 . S
C239 C238 1.389 . S
C239 H261 0.931 . S
C240 C237 1.481 . S
C240 C241 1.387 . S
C240 C245 1.390 . S
C241 C240 1.387 . S
C241 C242 1.401 . S
C241 H262 0.930 . S
C242 C241 1.401 . S
C242 C243 1.376 . S
C242 C251 1.511 . S
C243 C242 1.376 . S
C243 C244 1.392 . S
C243 H264 0.931 . S
C244 C243 1.392 . S
C244 C245 1.361 . S
C244 C246 1.500 . S
C245 C240 1.390 . S
C245 C244 1.361 . S
C245 H263 0.931 . S
C246 C244 1.500 . S
C246 C247 1.371 . S
C246 C248 1.365 . S
C247 C246 1.371 . S
C247 C257 1.386 . S
C247 H265 0.931 . S
C248 C246 1.365 . S
C248 C249 1.409 . S
C248 H266 0.929 . S
C249 C248 1.409 . S
C249 C250 1.380 . S
C249 H267 0.930 . S
C250 C249 1.380 . S
C250 C257 1.357 . S
C251 C242 1.511 . S
C251 C252 1.341 . S
C251 C253 1.371 . S
C252 C251 1.341 . S
C252 C256 1.394 . S
C252 H268 0.930 . S
C253 C251 1.371 . S
C253 C254 1.392 . S
C253 H269 0.931 . S
C254 C253 1.392 . S
C254 C255 1.331 . S
C254 H272 0.932 . S
C255 C254 1.331 . S
C255 C256 1.336 . S
C256 C252 1.394 . S
C256 C255 1.336 . S
C256 H271 0.929 . S
C257 C247 1.386 . S
C257 C250 1.357 . S
C257 H270 0.928 . S
H258 C234 0.931 . S
H259 C236 0.930 . S
H260 C238 0.929 . S
H261 C239 0.931 . S
H262 C241 0.930 . S
H263 C245 0.931 . S
H264 C243 0.931 . S
H265 C247 0.931 . S
H266 C248 0.929 . S
H267 C249 0.930 . S
H268 C252 0.930 . S
H269 C253 0.931 . S
H270 C257 0.928 . S
H271 C256 0.929 . S
H272 C254 0.932 . S
C273 C274 1.386 . S
C273 C275 1.397 . S
C273 H297 0.931 . S
C274 C273 1.386 . S
C274 C278 1.397 . S
C275 C273 1.397 . S
C275 C276 1.384 . S
C275 H298 0.930 . S
C276 C275 1.384 . S
C276 C277 1.377 . S
C276 C279 1.481 . S
C277 C276 1.377 . S
C277 C278 1.389 . S
C277 H299 0.929 . S
C278 C274 1.397 . S
C278 C277 1.389 . S
C278 H300 0.931 . S
C279 C276 1.481 . S
C279 C280 1.387 . S
C279 C284 1.390 . S
C280 C279 1.387 . S
C280 C281 1.401 . S
C280 H301 0.930 . S
C281 C280 1.401 . S
C281 C282 1.376 . S
C281 C290 1.511 . S
C282 C281 1.376 . S
C282 C283 1.392 . S
C282 H303 0.931 . S
C283 C282 1.392 . S
C283 C284 1.361 . S
C283 C285 1.500 . S
C284 C279 1.390 . S
C284 C283 1.361 . S
C284 H302 0.931 . S
C285 C283 1.500 . S
C285 C286 1.371 . S
C285 C287 1.365 . S
C286 C285 1.371 . S
C286 C296 1.386 . S
C286 H304 0.931 . S
C287 C285 1.365 . S
C287 C288 1.409 . S
C287 H305 0.929 . S
C288 C287 1.409 . S
C288 C289 1.380 . S
C288 H306 0.930 . S
C289 C288 1.380 . S
C289 C296 1.357 . S
C290 C281 1.511 . S
C290 C291 1.341 . S
C290 C292 1.371 . S
C291 C290 1.341 . S
C291 C295 1.394 . S
C291 H307 0.930 . S
C292 C290 1.371 . S
C292 C293 1.392 . S
C292 H308 0.931 . S
C293 C292 1.392 . S
C293 C294 1.331 . S
C293 H311 0.932 . S
C294 C293 1.331 . S
C294 C295 1.336 . S
C295 C291 1.394 . S
C295 C294 1.336 . S
C295 H310 0.929 . S
C296 C286 1.386 . S
C296 C289 1.357 . S
C296 H309 0.928 . S
H297 C273 0.931 . S
H298 C275 0.930 . S
H299 C277 0.929 . S
H300 C278 0.931 . S
H301 C280 0.930 . S
H302 C284 0.931 . S
H303 C282 0.931 . S
H304 C286 0.931 . S
H305 C287 0.929 . S
H306 C288 0.930 . S
H307 C291 0.930 . S
H308 C292 0.931 . S
H309 C296 0.928 . S
H310 C295 0.929 . S
H311 C293 0.932 . S
Ho312 C315 2.811 . S
Ho312 O332 2.322 . S
Ho312 O334 2.378 . S
Ho312 O335 2.524 . S
Ho312 O336 2.381 1_545 S
Ho312 O337 2.669 1_545 S
Ho312 O339 2.346 1_445 S
Ho312 O343 2.305 1_455 S
Ho313 C324 2.811 . S
Ho313 O333 2.346 1_665 S
Ho313 O337 2.305 1_655 S
Ho313 O338 2.322 . S
Ho313 O340 2.378 . S
Ho313 O341 2.524 . S
Ho313 O342 2.381 1_565 S
Ho313 O343 2.669 1_565 S
C314 O332 1.259 . S
C314 O333 1.268 . S
C315 Ho312 2.811 . S
C315 C316 1.488 . S
C315 O334 1.215 . S
C315 O335 1.289 . S
C316 C315 1.488 . S
C316 C317 1.348 . S
C316 C321 1.413 . S
C317 C316 1.348 . S
C317 C318 1.442 . S
C317 H344 0.930 . S
C318 C317 1.442 . S
C318 C319 1.381 . S
C318 H345 0.931 . S
C319 C318 1.381 . S
C319 C320 1.321 . S
C320 C319 1.321 . S
C320 C321 1.403 . S
C320 H346 0.934 . S
C321 C316 1.413 . S
C321 C320 1.403 . S
C321 H347 0.930 . S
C322 O336 1.275 . S
C322 O337 1.256 . S
C323 O338 1.259 . S
C323 O339 1.268 . S
C324 Ho313 2.811 . S
C324 C325 1.488 . S
C324 O340 1.215 . S
C324 O341 1.289 . S
C325 C324 1.488 . S
C325 C326 1.348 . S
C325 C330 1.413 . S
C326 C325 1.348 . S
C326 C327 1.442 . S
C326 H348 0.930 . S
C327 C326 1.442 . S
C327 C328 1.381 . S
C327 H349 0.931 . S
C328 C327 1.381 . S
C328 C329 1.321 . S
C329 C328 1.321 . S
C329 C330 1.403 . S
C329 H350 0.934 . S
C330 C325 1.413 . S
C330 C329 1.403 . S
C330 H351 0.930 . S
C331 O342 1.275 . S
C331 O343 1.256 . S
O332 Ho312 2.322 . S
O332 C314 1.259 . S
O333 Ho313 2.346 1_445 S
O333 C314 1.268 . S
O334 Ho312 2.378 . S
O334 C315 1.215 . S
O335 Ho312 2.524 . S
O335 C315 1.289 . S
O336 Ho312 2.381 1_565 S
O336 C322 1.275 . S
O337 Ho312 2.669 1_565 S
O337 Ho313 2.305 1_455 S
O337 C322 1.256 . S
O338 Ho313 2.322 . S
O338 C323 1.259 . S
O339 Ho312 2.346 1_665 S
O339 C323 1.268 . S
O340 Ho313 2.378 . S
O340 C324 1.215 . S
O341 Ho313 2.524 . S
O341 C324 1.289 . S
O342 Ho313 2.381 1_545 S
O342 C331 1.275 . S
O343 Ho312 2.305 1_655 S
O343 Ho313 2.669 1_545 S
O343 C331 1.256 . S
H344 C317 0.930 . S
H345 C318 0.931 . S
H346 C320 0.934 . S
H347 C321 0.930 . S
H348 C326 0.930 . S
H349 C327 0.931 . S
H350 C329 0.934 . S
H351 C330 0.930 . S
Ho352 C355 2.809 . S
Ho352 O372 2.320 . S
Ho352 O374 2.378 . S
Ho352 O375 2.521 . S
Ho352 O376 2.383 1_545 S
Ho352 O377 2.670 1_545 S
Ho352 O379 2.347 1_544 S
Ho352 O383 2.303 1_554 S
Ho353 C364 2.811 1_545 S
Ho353 O373 2.346 1_556 S
Ho353 O377 2.305 1_546 S
Ho353 O378 2.322 1_545 S
Ho353 O380 2.378 1_545 S
Ho353 O381 2.524 1_545 S
Ho353 O382 2.381 . S
Ho353 O383 2.669 . S
C354 O372 1.259 . S
C354 O373 1.268 . S
C355 Ho352 2.809 . S
C355 C356 1.488 . S
C355 O374 1.215 . S
C355 O375 1.289 . S
C356 C355 1.488 . S
C356 C357 1.348 . S
C356 C361 1.413 . S
C357 C356 1.348 . S
C357 C358 1.442 . S
C357 H384 0.930 . S
C358 C357 1.442 . S
C358 C359 1.381 . S
C358 H385 0.931 . S
C359 C358 1.381 . S
C359 C360 1.321 . S
C360 C359 1.321 . S
C360 C361 1.403 . S
C360 H386 0.934 . S
C361 C356 1.413 . S
C361 C360 1.403 . S
C361 H387 0.930 . S
C362 O376 1.275 . S
C362 O377 1.256 . S
C363 O378 1.259 . S
C363 O379 1.268 . S
C364 Ho353 2.811 1_565 S
C364 C365 1.488 . S
C364 O380 1.215 . S
C364 O381 1.289 . S
C365 C364 1.488 . S
C365 C366 1.348 . S
C365 C370 1.413 . S
C366 C365 1.348 . S
C366 C367 1.442 . S
C366 H388 0.930 . S
C367 C366 1.442 . S
C367 C368 1.381 . S
C367 H389 0.931 . S
C368 C367 1.381 . S
C368 C369 1.321 . S
C369 C368 1.321 . S
C369 C370 1.403 . S
C369 H390 0.934 . S
C370 C365 1.413 . S
C370 C369 1.403 . S
C370 H391 0.930 . S
C371 O382 1.275 . S
C371 O383 1.256 . S
O372 Ho352 2.320 . S
O372 C354 1.259 . S
O373 Ho353 2.346 1_554 S
O373 C354 1.268 . S
O374 Ho352 2.378 . S
O374 C355 1.215 . S
O375 Ho352 2.521 . S
O375 C355 1.289 . S
O376 Ho352 2.383 1_565 S
O376 C362 1.275 . S
O377 Ho352 2.670 1_565 S
O377 Ho353 2.305 1_564 S
O377 C362 1.256 . S
O378 Ho353 2.322 1_565 S
O378 C363 1.259 . S
O379 Ho352 2.347 1_566 S
O379 C363 1.268 . S
O380 Ho353 2.378 1_565 S
O380 C364 1.215 . S
O381 Ho353 2.524 1_565 S
O381 C364 1.289 . S
O382 Ho353 2.381 . S
O382 C371 1.275 . S
O383 Ho352 2.303 1_556 S
O383 Ho353 2.669 . S
O383 C371 1.256 . S
H384 C357 0.930 . S
H385 C358 0.931 . S
H386 C360 0.934 . S
H387 C361 0.930 . S
H388 C366 0.930 . S
H389 C367 0.931 . S
H390 C369 0.934 . S
H391 C370 0.930 . S
Ho392 C395 2.811 . S
Ho392 O412 2.322 . S
Ho392 O414 2.378 . S
Ho392 O415 2.524 . S
Ho392 O416 2.381 . S
Ho392 O417 2.669 . S
Ho392 O419 2.346 . S
Ho392 O423 2.305 . S
Ho393 C404 2.811 . S
Ho393 O413 2.346 . S
Ho393 O417 2.305 . S
Ho393 O418 2.322 . S
Ho393 O420 2.378 . S
Ho393 O421 2.524 . S
Ho393 O422 2.381 . S
Ho393 O423 2.669 . S
C394 O412 1.259 . S
C394 O413 1.268 . S
C395 Ho392 2.811 . S
C395 C396 1.488 . S
C395 O414 1.215 . S
C395 O415 1.289 . S
C396 C395 1.488 . S
C396 C397 1.348 . S
C396 C401 1.413 . S
C397 C396 1.348 . S
C397 C398 1.442 . S
C397 H424 0.930 . S
C398 C397 1.442 . S
C398 C399 1.381 . S
C398 H425 0.931 . S
C399 C398 1.381 . S
C399 C400 1.321 . S
C400 C399 1.321 . S
C400 C401 1.403 . S
C400 H426 0.934 . S
C401 C396 1.413 . S
C401 C400 1.403 . S
C401 H427 0.930 . S
C402 O416 1.275 . S
C402 O417 1.256 . S
C403 O418 1.259 . S
C403 O419 1.268 . S
C404 Ho393 2.811 . S
C404 C405 1.488 . S
C404 O420 1.215 . S
C404 O421 1.289 . S
C405 C404 1.488 . S
C405 C406 1.348 . S
C405 C410 1.413 . S
C406 C405 1.348 . S
C406 C407 1.442 . S
C406 H428 0.930 . S
C407 C406 1.442 . S
C407 C408 1.381 . S
C407 H429 0.931 . S
C408 C407 1.381 . S
C408 C409 1.321 . S
C409 C408 1.321 . S
C409 C410 1.403 . S
C409 H430 0.934 . S
C410 C405 1.413 . S
C410 C409 1.403 . S
C410 H431 0.930 . S
C411 O422 1.275 . S
C411 O423 1.256 . S
O412 Ho392 2.322 . S
O412 C394 1.259 . S
O413 Ho393 2.346 . S
O413 C394 1.268 . S
O414 Ho392 2.378 . S
O414 C395 1.215 . S
O415 Ho392 2.524 . S
O415 C395 1.289 . S
O416 Ho392 2.381 . S
O416 C402 1.275 . S
O417 Ho392 2.669 . S
O417 Ho393 2.305 . S
O417 C402 1.256 . S
O418 Ho393 2.322 . S
O418 C403 1.259 . S
O419 Ho392 2.346 . S
O419 C403 1.268 . S
O420 Ho393 2.378 . S
O420 C404 1.215 . S
O421 Ho393 2.524 . S
O421 C404 1.289 . S
O422 Ho393 2.381 . S
O422 C411 1.275 . S
O423 Ho392 2.305 . S
O423 Ho393 2.669 . S
O423 C411 1.256 . S
H424 C397 0.930 . S
H425 C398 0.931 . S
H426 C400 0.934 . S
H427 C401 0.930 . S
H428 C406 0.930 . S
H429 C407 0.931 . S
H430 C409 0.934 . S
H431 C410 0.930 . S
Ho432 C435 2.811 . S
Ho432 O452 2.322 . S
Ho432 O454 2.378 . S
Ho432 O455 2.524 . S
Ho432 O456 2.381 1_455 S
Ho432 O457 2.669 1_455 S
Ho432 O459 2.346 1_454 S
Ho432 O463 2.305 1_554 S
Ho433 C444 2.811 . S
Ho433 O453 2.346 1_656 S
Ho433 O457 2.305 1_556 S
Ho433 O458 2.322 . S
Ho433 O460 2.378 . S
Ho433 O461 2.524 . S
Ho433 O462 2.381 1_655 S
Ho433 O463 2.669 1_655 S
C434 O452 1.259 . S
C434 O453 1.268 . S
C435 Ho432 2.811 . S
C435 C436 1.488 . S
C435 O454 1.215 . S
C435 O455 1.289 . S
C436 C435 1.488 . S
C436 C437 1.348 . S
C436 C441 1.413 . S
C437 C436 1.348 . S
C437 C438 1.442 . S
C437 H464 0.930 . S
C438 C437 1.442 . S
C438 C439 1.381 . S
C438 H465 0.931 . S
C439 C438 1.381 . S
C439 C440 1.321 . S
C440 C439 1.321 . S
C440 C441 1.403 . S
C440 H466 0.934 . S
C441 C436 1.413 . S
C441 C440 1.403 . S
C441 H467 0.930 . S
C442 O456 1.275 . S
C442 O457 1.256 . S
C443 O458 1.259 . S
C443 O459 1.268 . S
C444 Ho433 2.811 . S
C444 C445 1.488 . S
C444 O460 1.215 . S
C444 O461 1.289 . S
C445 C444 1.488 . S
C445 C446 1.348 . S
C445 C450 1.413 . S
C446 C445 1.348 . S
C446 C447 1.442 . S
C446 H468 0.930 . S
C447 C446 1.442 . S
C447 C448 1.381 . S
C447 H469 0.931 . S
C448 C447 1.381 . S
C448 C449 1.321 . S
C449 C448 1.321 . S
C449 C450 1.403 . S
C449 H470 0.934 . S
C450 C445 1.413 . S
C450 C449 1.403 . S
C450 H471 0.930 . S
C451 O462 1.275 . S
C451 O463 1.256 . S
O452 Ho432 2.322 . S
O452 C434 1.259 . S
O453 Ho433 2.346 1_454 S
O453 C434 1.268 . S
O454 Ho432 2.378 . S
O454 C435 1.215 . S
O455 Ho432 2.524 . S
O455 C435 1.289 . S
O456 Ho432 2.381 1_655 S
O456 C442 1.275 . S
O457 Ho432 2.669 1_655 S
O457 Ho433 2.305 1_554 S
O457 C442 1.256 . S
O458 Ho433 2.322 . S
O458 C443 1.259 . S
O459 Ho432 2.346 1_656 S
O459 C443 1.268 . S
O460 Ho433 2.378 . S
O460 C444 1.215 . S
O461 Ho433 2.524 . S
O461 C444 1.289 . S
O462 Ho433 2.381 1_455 S
O462 C451 1.275 . S
O463 Ho432 2.305 1_556 S
O463 Ho433 2.669 1_455 S
O463 C451 1.256 . S
H464 C437 0.930 . S
H465 C438 0.931 . S
H466 C440 0.934 . S
H467 C441 0.930 . S
H468 C446 0.930 . S
H469 C447 0.931 . S
H470 C449 0.934 . S
H471 C450 0.930 . S
H472 C480 0.950 . S
H473 C485 0.950 . S
H474 C482 0.950 . S
H475 C484 0.950 . S
H476 C486 0.950 . S
H477 C488 0.950 . S
H478 C490 0.950 . S
H479 C491 0.950 . S
C480 H472 0.950 . S
C480 C481 1.386 . S
C480 C482 1.391 . S
C481 C480 1.386 . S
C481 C485 1.393 . S
C482 H474 0.950 . S
C482 C480 1.391 . S
C482 C483 1.400 . S
C483 C482 1.400 . S
C483 C484 1.398 . S
C483 C489 1.491 . S
C484 H475 0.950 . S
C484 C483 1.398 . S
C484 C485 1.391 . S
C485 H473 0.950 . S
C485 C481 1.393 . S
C485 C484 1.391 . S
C486 H476 0.950 . S
C486 C487 1.386 . S
C486 C488 1.391 . S
C487 C486 1.386 . S
C487 C491 1.393 . S
C488 H477 0.950 . S
C488 C486 1.391 . S
C488 C489 1.400 . S
C489 C483 1.491 . S
C489 C488 1.400 . S
C489 C490 1.398 . S
C490 H478 0.950 . S
C490 C489 1.398 . S
C490 C491 1.391 . S
C491 H479 0.950 . S
C491 C487 1.393 . S
C491 C490 1.391 . S
H492 C500 0.950 . S
H493 C505 0.950 . S
H494 C502 0.950 . S
H495 C504 0.950 . S
H496 C506 0.950 . S
H497 C508 0.950 . S
H498 C510 0.950 . S
H499 C511 0.950 . S
C500 H492 0.950 . S
C500 C501 1.386 . S
C500 C502 1.391 . S
C501 C500 1.386 . S
C501 C505 1.393 . S
C502 H494 0.950 . S
C502 C500 1.391 . S
C502 C503 1.400 . S
C503 C502 1.400 . S
C503 C504 1.398 . S
C503 C509 1.491 . S
C504 H495 0.950 . S
C504 C503 1.398 . S
C504 C505 1.391 . S
C505 H493 0.950 . S
C505 C501 1.393 . S
C505 C504 1.391 . S
C506 H496 0.950 . S
C506 C507 1.386 . S
C506 C508 1.391 . S
C507 C506 1.386 . S
C507 C511 1.393 . S
C508 H497 0.950 . S
C508 C506 1.391 . S
C508 C509 1.400 . S
C509 C503 1.491 . S
C509 C508 1.400 . S
C509 C510 1.398 . S
C510 H498 0.950 . S
C510 C509 1.398 . S
C510 C511 1.391 . S
C511 H499 0.950 . S
C511 C507 1.393 . S
C511 C510 1.391 . S
H512 C520 0.950 . S
H513 C525 0.950 . S
H514 C522 0.950 . S
H515 C524 0.950 . S
H516 C526 0.950 . S
H517 C528 0.950 . S
H518 C530 0.950 . S
H519 C531 0.950 . S
C520 H512 0.950 . S
C520 C521 1.386 . S
C520 C522 1.391 . S
C521 C520 1.386 . S
C521 C525 1.393 . S
C522 H514 0.950 . S
C522 C520 1.391 . S
C522 C523 1.400 . S
C523 C522 1.400 . S
C523 C524 1.398 . S
C523 C529 1.491 . S
C524 H515 0.950 . S
C524 C523 1.398 . S
C524 C525 1.391 . S
C525 H513 0.950 . S
C525 C521 1.393 . S
C525 C524 1.391 . S
C526 H516 0.950 . S
C526 C527 1.386 . S
C526 C528 1.391 . S
C527 C526 1.386 . S
C527 C531 1.393 . S
C528 H517 0.950 . S
C528 C526 1.391 . S
C528 C529 1.400 . S
C529 C523 1.491 . S
C529 C528 1.400 . S
C529 C530 1.398 . S
C530 H518 0.950 . S
C530 C529 1.398 . S
C530 C531 1.391 . S
C531 H519 0.950 . S
C531 C527 1.393 . S
C531 C530 1.391 . S
H532 C540 0.950 . S
H533 C545 0.950 . S
H534 C542 0.950 . S
H535 C544 0.950 . S
H536 C546 0.950 . S
H537 C548 0.950 . S
H538 C550 0.950 . S
H539 C551 0.950 . S
C540 H532 0.950 . S
C540 C541 1.386 . S
C540 C542 1.391 . S
C541 C540 1.386 . S
C541 C545 1.393 . S
C542 H534 0.950 . S
C542 C540 1.391 . S
C542 C543 1.400 . S
C543 C542 1.400 . S
C543 C544 1.398 . S
C543 C549 1.491 . S
C544 H535 0.950 . S
C544 C543 1.398 . S
C544 C545 1.391 . S
C545 H533 0.950 . S
C545 C541 1.393 . S
C545 C544 1.391 . S
C546 H536 0.950 . S
C546 C547 1.386 . S
C546 C548 1.391 . S
C547 C546 1.386 . S
C547 C551 1.393 . S
C548 H537 0.950 . S
C548 C546 1.391 . S
C548 C549 1.400 . S
C549 C543 1.491 . S
C549 C548 1.400 . S
C549 C550 1.398 . S
C550 H538 0.950 . S
C550 C549 1.398 . S
C550 C551 1.391 . S
C551 H539 0.950 . S
C551 C547 1.393 . S
C551 C550 1.391 . S
H552 C560 0.950 . S
H553 C565 0.950 . S
H554 C562 0.950 . S
H555 C564 0.950 . S
H556 C566 0.950 . S
H557 C568 0.950 . S
H558 C570 0.950 . S
H559 C571 0.950 . S
C560 H552 0.950 . S
C560 C561 1.386 . S
C560 C562 1.391 . S
C561 C560 1.386 . S
C561 C565 1.393 . S
C562 H554 0.950 . S
C562 C560 1.391 . S
C562 C563 1.400 . S
C563 C562 1.400 . S
C563 C564 1.398 . S
C563 C569 1.491 . S
C564 H555 0.950 . S
C564 C563 1.398 . S
C564 C565 1.391 . S
C565 H553 0.950 . S
C565 C561 1.393 . S
C565 C564 1.391 . S
C566 H556 0.950 . S
C566 C567 1.386 . S
C566 C568 1.391 . S
C567 C566 1.386 . S
C567 C571 1.393 . S
C568 H557 0.950 . S
C568 C566 1.391 . S
C568 C569 1.400 . S
C569 C563 1.491 . S
C569 C568 1.400 . S
C569 C570 1.398 . S
C570 H558 0.950 . S
C570 C569 1.398 . S
C570 C571 1.391 . S
C571 H559 0.950 . S
C571 C567 1.393 . S
C571 C570 1.391 . S
H572 C580 0.950 . S
H573 C585 0.950 . S
H574 C582 0.950 . S
H575 C584 0.950 . S
H576 C586 0.950 . S
H577 C588 0.950 . S
H578 C590 0.950 . S
H579 C591 0.950 . S
C580 H572 0.950 . S
C580 C581 1.386 . S
C580 C582 1.391 . S
C581 C580 1.386 . S
C581 C585 1.393 . S
C582 H574 0.950 . S
C582 C580 1.391 . S
C582 C583 1.400 . S
C583 C582 1.400 . S
C583 C584 1.398 . S
C583 C589 1.491 . S
C584 H575 0.950 . S
C584 C583 1.398 . S
C584 C585 1.391 . S
C585 H573 0.950 . S
C585 C581 1.393 . S
C585 C584 1.391 . S
C586 H576 0.950 . S
C586 C587 1.386 . S
C586 C588 1.391 . S
C587 C586 1.386 . S
C587 C591 1.393 . S
C588 H577 0.950 . S
C588 C586 1.391 . S
C588 C589 1.400 . S
C589 C583 1.491 . S
C589 C588 1.400 . S
C589 C590 1.398 . S
C590 H578 0.950 . S
C590 C589 1.398 . S
C590 C591 1.391 . S
C591 H579 0.950 . S
C591 C587 1.393 . S
C591 C590 1.391 . S
H592 C600 0.950 . S
H593 C605 0.950 . S
H594 C602 0.950 . S
H595 C604 0.950 . S
H596 C606 0.950 . S
H597 C608 0.950 . S
H598 C610 0.950 . S
H599 C611 0.950 . S
C600 H592 0.950 . S
C600 C601 1.386 . S
C600 C602 1.391 . S
C601 C600 1.386 . S
C601 C605 1.393 . S
C602 H594 0.950 . S
C602 C600 1.391 . S
C602 C603 1.400 . S
C603 C602 1.400 . S
C603 C604 1.398 . S
C603 C609 1.491 . S
C604 H595 0.950 . S
C604 C603 1.398 . S
C604 C605 1.391 . S
C605 H593 0.950 . S
C605 C601 1.393 . S
C605 C604 1.391 . S
C606 H596 0.950 . S
C606 C607 1.386 . S
C606 C608 1.391 . S
C607 C606 1.386 . S
C607 C611 1.393 . S
C608 H597 0.950 . S
C608 C606 1.391 . S
C608 C609 1.400 . S
C609 C603 1.491 . S
C609 C608 1.400 . S
C609 C610 1.398 . S
C610 H598 0.950 . S
C610 C609 1.398 . S
C610 C611 1.391 . S
C611 H599 0.950 . S
C611 C607 1.393 . S
C611 C610 1.391 . S
H612 C620 0.950 . S
H613 C625 0.950 . S
H614 C622 0.950 . S
H615 C624 0.950 . S
H616 C626 0.950 . S
H617 C628 0.950 . S
H618 C630 0.950 . S
H619 C631 0.950 . S
C620 H612 0.950 . S
C620 C621 1.386 . S
C620 C622 1.391 . S
C621 C620 1.386 . S
C621 C625 1.393 . S
C622 H614 0.950 . S
C622 C620 1.391 . S
C622 C623 1.400 . S
C623 C622 1.400 . S
C623 C624 1.398 . S
C623 C629 1.491 . S
C624 H615 0.950 . S
C624 C623 1.398 . S
C624 C625 1.391 . S
C625 H613 0.950 . S
C625 C621 1.393 . S
C625 C624 1.391 . S
C626 H616 0.950 . S
C626 C627 1.386 . S
C626 C628 1.391 . S
C627 C626 1.386 . S
C627 C631 1.393 . S
C628 H617 0.950 . S
C628 C626 1.391 . S
C628 C629 1.400 . S
C629 C623 1.491 . S
C629 C628 1.400 . S
C629 C630 1.398 . S
C630 H618 0.950 . S
C630 C629 1.398 . S
C630 C631 1.391 . S
C631 H619 0.950 . S
C631 C627 1.393 . S
C631 C630 1.391 . S
H632 C640 0.950 . S
H633 C645 0.950 . S
H634 C642 0.950 . S
H635 C644 0.950 . S
H636 C646 0.950 . S
H637 C648 0.950 . S
H638 C650 0.950 . S
H639 C651 0.950 . S
C640 H632 0.950 . S
C640 C641 1.386 . S
C640 C642 1.391 . S
C641 C640 1.386 . S
C641 C645 1.393 . S
C642 H634 0.950 . S
C642 C640 1.391 . S
C642 C643 1.400 . S
C643 C642 1.400 . S
C643 C644 1.398 . S
C643 C649 1.491 . S
C644 H635 0.950 . S
C644 C643 1.398 . S
C644 C645 1.391 . S
C645 H633 0.950 . S
C645 C641 1.393 . S
C645 C644 1.391 . S
C646 H636 0.950 . S
C646 C647 1.386 . S
C646 C648 1.391 . S
C647 C646 1.386 . S
C647 C651 1.393 . S
C648 H637 0.950 . S
C648 C646 1.391 . S
C648 C649 1.400 . S
C649 C643 1.491 . S
C649 C648 1.400 . S
C649 C650 1.398 . S
C650 H638 0.950 . S
C650 C649 1.398 . S
C650 C651 1.391 . S
C651 H639 0.950 . S
C651 C647 1.393 . S
C651 C650 1.391 . S
H652 C660 0.950 . S
H653 C665 0.950 . S
H654 C662 0.950 . S
H655 C664 0.950 . S
H656 C666 0.950 . S
H657 C668 0.950 . S
H658 C670 0.950 . S
H659 C671 0.950 . S
C660 H652 0.950 . S
C660 C661 1.386 . S
C660 C662 1.391 . S
C661 C660 1.386 . S
C661 C665 1.393 . S
C662 H654 0.950 . S
C662 C660 1.391 . S
C662 C663 1.400 . S
C663 C662 1.400 . S
C663 C664 1.398 . S
C663 C669 1.491 . S
C664 H655 0.950 . S
C664 C663 1.398 . S
C664 C665 1.391 . S
C665 H653 0.950 . S
C665 C661 1.393 . S
C665 C664 1.391 . S
C666 H656 0.950 . S
C666 C667 1.386 . S
C666 C668 1.391 . S
C667 C666 1.386 . S
C667 C671 1.393 . S
C668 H657 0.950 . S
C668 C666 1.391 . S
C668 C669 1.400 . S
C669 C663 1.491 . S
C669 C668 1.400 . S
C669 C670 1.398 . S
C670 H658 0.950 . S
C670 C669 1.398 . S
C670 C671 1.391 . S
C671 H659 0.950 . S
C671 C667 1.393 . S
C671 C670 1.391 . S
H672 C680 0.950 . S
H673 C685 0.950 . S
H674 C682 0.950 . S
H675 C684 0.950 . S
H676 C686 0.950 . S
H677 C688 0.950 . S
H678 C690 0.950 . S
H679 C691 0.950 . S
C680 H672 0.950 . S
C680 C681 1.386 . S
C680 C682 1.391 . S
C681 C680 1.386 . S
C681 C685 1.393 . S
C682 H674 0.950 . S
C682 C680 1.391 . S
C682 C683 1.400 . S
C683 C682 1.400 . S
C683 C684 1.398 . S
C683 C689 1.491 . S
C684 H675 0.950 . S
C684 C683 1.398 . S
C684 C685 1.391 . S
C685 H673 0.950 . S
C685 C681 1.393 . S
C685 C684 1.391 . S
C686 H676 0.950 . S
C686 C687 1.386 . S
C686 C688 1.391 . S
C687 C686 1.386 . S
C687 C691 1.393 . S
C688 H677 0.950 . S
C688 C686 1.391 . S
C688 C689 1.400 . S
C689 C683 1.491 . S
C689 C688 1.400 . S
C689 C690 1.398 . S
C690 H678 0.950 . S
C690 C689 1.398 . S
C690 C691 1.391 . S
C691 H679 0.950 . S
C691 C687 1.393 . S
C691 C690 1.391 . S
H692 C700 0.950 . S
H693 C705 0.950 . S
H694 C702 0.950 . S
H695 C704 0.950 . S
H696 C706 0.950 . S
H697 C708 0.950 . S
H698 C710 0.950 . S
H699 C711 0.950 . S
C700 H692 0.950 . S
C700 C701 1.386 . S
C700 C702 1.391 . S
C701 C700 1.386 . S
C701 C705 1.393 . S
C702 H694 0.950 . S
C702 C700 1.391 . S
C702 C703 1.400 . S
C703 C702 1.400 . S
C703 C704 1.398 . S
C703 C709 1.491 . S
C704 H695 0.950 . S
C704 C703 1.398 . S
C704 C705 1.391 . S
C705 H693 0.950 . S
C705 C701 1.393 . S
C705 C704 1.391 . S
C706 H696 0.950 . S
C706 C707 1.386 . S
C706 C708 1.391 . S
C707 C706 1.386 . S
C707 C711 1.393 . S
C708 H697 0.950 . S
C708 C706 1.391 . S
C708 C709 1.400 . S
C709 C703 1.491 . S
C709 C708 1.400 . S
C709 C710 1.398 . S
C710 H698 0.950 . S
C710 C709 1.398 . S
C710 C711 1.391 . S
C711 H699 0.950 . S
C711 C707 1.393 . S
C711 C710 1.391 . S
H712 C720 0.950 . S
H713 C725 0.950 . S
H714 C722 0.950 . S
H715 C724 0.950 . S
H716 C726 0.950 . S
H717 C728 0.950 . S
H718 C730 0.950 . S
H719 C731 0.950 . S
C720 H712 0.950 . S
C720 C721 1.386 . S
C720 C722 1.391 . S
C721 C720 1.386 . S
C721 C725 1.393 . S
C722 H714 0.950 . S
C722 C720 1.391 . S
C722 C723 1.400 . S
C723 C722 1.400 . S
C723 C724 1.398 . S
C723 C729 1.491 . S
C724 H715 0.950 . S
C724 C723 1.398 . S
C724 C725 1.391 . S
C725 H713 0.950 . S
C725 C721 1.393 . S
C725 C724 1.391 . S
C726 H716 0.950 . S
C726 C727 1.386 . S
C726 C728 1.391 . S
C727 C726 1.386 . S
C727 C731 1.393 . S
C728 H717 0.950 . S
C728 C726 1.391 . S
C728 C729 1.400 . S
C729 C723 1.491 . S
C729 C728 1.400 . S
C729 C730 1.398 . S
C730 H718 0.950 . S
C730 C729 1.398 . S
C730 C731 1.391 . S
C731 H719 0.950 . S
C731 C727 1.393 . S
C731 C730 1.391 . S
H732 C740 0.950 . S
H733 C745 0.950 . S
H734 C742 0.950 . S
H735 C744 0.950 . S
H736 C746 0.950 . S
H737 C748 0.950 . S
H738 C750 0.950 . S
H739 C751 0.950 . S
C740 H732 0.950 . S
C740 C741 1.386 . S
C740 C742 1.391 . S
C741 C740 1.386 . S
C741 C745 1.393 . S
C742 H734 0.950 . S
C742 C740 1.391 . S
C742 C743 1.400 . S
C743 C742 1.400 . S
C743 C744 1.398 . S
C743 C749 1.491 . S
C744 H735 0.950 . S
C744 C743 1.398 . S
C744 C745 1.391 . S
C745 H733 0.950 . S
C745 C741 1.393 . S
C745 C744 1.391 . S
C746 H736 0.950 . S
C746 C747 1.386 . S
C746 C748 1.391 . S
C747 C746 1.386 . S
C747 C751 1.393 . S
C748 H737 0.950 . S
C748 C746 1.391 . S
C748 C749 1.400 . S
C749 C743 1.491 . S
C749 C748 1.400 . S
C749 C750 1.398 . S
C750 H738 0.950 . S
C750 C749 1.398 . S
C750 C751 1.391 . S
C751 H739 0.950 . S
C751 C747 1.393 . S
C751 C750 1.391 . S
H752 C760 0.950 . S
H753 C765 0.950 . S
H754 C762 0.950 . S
H755 C764 0.950 . S
H756 C766 0.950 . S
H757 C768 0.950 . S
H758 C770 0.950 . S
H759 C771 0.950 . S
C760 H752 0.950 . S
C760 C761 1.386 . S
C760 C762 1.391 . S
C761 C760 1.386 . S
C761 C765 1.393 . S
C762 H754 0.950 . S
C762 C760 1.391 . S
C762 C763 1.400 . S
C763 C762 1.400 . S
C763 C764 1.398 . S
C763 C769 1.491 . S
C764 H755 0.950 . S
C764 C763 1.398 . S
C764 C765 1.391 . S
C765 H753 0.950 . S
C765 C761 1.393 . S
C765 C764 1.391 . S
C766 H756 0.950 . S
C766 C767 1.386 . S
C766 C768 1.391 . S
C767 C766 1.386 . S
C767 C771 1.393 . S
C768 H757 0.950 . S
C768 C766 1.391 . S
C768 C769 1.400 . S
C769 C763 1.491 . S
C769 C768 1.400 . S
C769 C770 1.398 . S
C770 H758 0.950 . S
C770 C769 1.398 . S
C770 C771 1.391 . S
C771 H759 0.950 . S
C771 C767 1.393 . S
C771 C770 1.391 . S
H772 C780 0.950 . S
H773 C785 0.950 . S
H774 C782 0.950 . S
H775 C784 0.950 . S
H776 C786 0.950 . S
H777 C788 0.950 . S
H778 C790 0.950 . S
H779 C791 0.950 . S
C780 H772 0.950 . S
C780 C781 1.386 . S
C780 C782 1.391 . S
C781 C780 1.386 . S
C781 C785 1.393 . S
C782 H774 0.950 . S
C782 C780 1.391 . S
C782 C783 1.400 . S
C783 C782 1.400 . S
C783 C784 1.398 . S
C783 C789 1.491 . S
C784 H775 0.950 . S
C784 C783 1.398 . S
C784 C785 1.391 . S
C785 H773 0.950 . S
C785 C781 1.393 . S
C785 C784 1.391 . S
C786 H776 0.950 . S
C786 C787 1.386 . S
C786 C788 1.391 . S
C787 C786 1.386 . S
C787 C791 1.393 . S
C788 H777 0.950 . S
C788 C786 1.391 . S
C788 C789 1.400 . S
C789 C783 1.491 . S
C789 C788 1.400 . S
C789 C790 1.398 . S
C790 H778 0.950 . S
C790 C789 1.398 . S
C790 C791 1.391 . S
C791 H779 0.950 . S
C791 C787 1.393 . S
C791 C790 1.391 . S
H792 C800 0.950 . S
H793 C805 0.950 . S
H794 C802 0.950 . S
H795 C804 0.950 . S
H796 C806 0.950 . S
H797 C808 0.950 . S
H798 C810 0.950 . S
H799 C811 0.950 . S
C800 H792 0.950 . S
C800 C801 1.386 . S
C800 C802 1.391 . S
C801 C800 1.386 . S
C801 C805 1.393 . S
C802 H794 0.950 . S
C802 C800 1.391 . S
C802 C803 1.400 . S
C803 C802 1.400 . S
C803 C804 1.398 . S
C803 C809 1.491 . S
C804 H795 0.950 . S
C804 C803 1.398 . S
C804 C805 1.391 . S
C805 H793 0.950 . S
C805 C801 1.393 . S
C805 C804 1.391 . S
C806 H796 0.950 . S
C806 C807 1.386 . S
C806 C808 1.391 . S
C807 C806 1.386 . S
C807 C811 1.393 . S
C808 H797 0.950 . S
C808 C806 1.391 . S
C808 C809 1.400 . S
C809 C803 1.491 . S
C809 C808 1.400 . S
C809 C810 1.398 . S
C810 H798 0.950 . S
C810 C809 1.398 . S
C810 C811 1.391 . S
C811 H799 0.950 . S
C811 C807 1.393 . S
C811 C810 1.391 . S
H812 C820 0.950 . S
H813 C825 0.950 . S
H814 C822 0.950 . S
H815 C824 0.950 . S
H816 C826 0.950 . S
H817 C828 0.950 . S
H818 C830 0.950 . S
H819 C831 0.950 . S
C820 H812 0.950 . S
C820 C821 1.386 . S
C820 C822 1.391 . S
C821 C820 1.386 . S
C821 C825 1.393 . S
C822 H814 0.950 . S
C822 C820 1.391 . S
C822 C823 1.400 . S
C823 C822 1.400 . S
C823 C824 1.398 . S
C823 C829 1.491 . S
C824 H815 0.950 . S
C824 C823 1.398 . S
C824 C825 1.391 . S
C825 H813 0.950 . S
C825 C821 1.393 . S
C825 C824 1.391 . S
C826 H816 0.950 . S
C826 C827 1.386 . S
C826 C828 1.391 . S
C827 C826 1.386 . S
C827 C831 1.393 . S
C828 H817 0.950 . S
C828 C826 1.391 . S
C828 C829 1.400 . S
C829 C823 1.491 . S
C829 C828 1.400 . S
C829 C830 1.398 . S
C830 H818 0.950 . S
C830 C829 1.398 . S
C830 C831 1.391 . S
C831 H819 0.950 . S
C831 C827 1.393 . S
C831 C830 1.391 . S
H832 C840 0.950 . S
H833 C845 0.950 . S
H834 C842 0.950 . S
H835 C844 0.950 . S
H836 C846 0.950 . S
H837 C848 0.950 . S
H838 C850 0.950 . S
H839 C851 0.950 . S
C840 H832 0.950 . S
C840 C841 1.386 . S
C840 C842 1.391 . S
C841 C840 1.386 . S
C841 C845 1.393 . S
C842 H834 0.950 . S
C842 C840 1.391 . S
C842 C843 1.400 . S
C843 C842 1.400 . S
C843 C844 1.398 . S
C843 C849 1.491 . S
C844 H835 0.950 . S
C844 C843 1.398 . S
C844 C845 1.391 . S
C845 H833 0.950 . S
C845 C841 1.393 . S
C845 C844 1.391 . S
C846 H836 0.950 . S
C846 C847 1.386 . S
C846 C848 1.391 . S
C847 C846 1.386 . S
C847 C851 1.393 . S
C848 H837 0.950 . S
C848 C846 1.391 . S
C848 C849 1.400 . S
C849 C843 1.491 . S
C849 C848 1.400 . S
C849 C850 1.398 . S
C850 H838 0.950 . S
C850 C849 1.398 . S
C850 C851 1.391 . S
C851 H839 0.950 . S
C851 C847 1.393 . S
C851 C850 1.391 . S
H852 C860 0.950 . S
H853 C865 0.950 . S
H854 C862 0.950 . S
H855 C864 0.950 . S
H856 C866 0.950 . S
H857 C868 0.950 . S
H858 C870 0.950 . S
H859 C871 0.950 . S
C860 H852 0.950 . S
C860 C861 1.386 . S
C860 C862 1.391 . S
C861 C860 1.386 . S
C861 C865 1.393 . S
C862 H854 0.950 . S
C862 C860 1.391 . S
C862 C863 1.400 . S
C863 C862 1.400 . S
C863 C864 1.398 . S
C863 C869 1.491 . S
C864 H855 0.950 . S
C864 C863 1.398 . S
C864 C865 1.391 . S
C865 H853 0.950 . S
C865 C861 1.393 . S
C865 C864 1.391 . S
C866 H856 0.950 . S
C866 C867 1.386 . S
C866 C868 1.391 . S
C867 C866 1.386 . S
C867 C871 1.393 . S
C868 H857 0.950 . S
C868 C866 1.391 . S
C868 C869 1.400 . S
C869 C863 1.491 . S
C869 C868 1.400 . S
C869 C870 1.398 . S
C870 H858 0.950 . S
C870 C869 1.398 . S
C870 C871 1.391 . S
C871 H859 0.950 . S
C871 C867 1.393 . S
C871 C870 1.391 . S
H872 C880 0.950 . S
H873 C885 0.950 . S
H874 C882 0.950 . S
H875 C884 0.950 . S
H876 C886 0.950 . S
H877 C888 0.950 . S
H878 C890 0.950 . S
H879 C891 0.950 . S
C880 H872 0.950 . S
C880 C881 1.386 . S
C880 C882 1.391 . S
C881 C880 1.386 . S
C881 C885 1.393 . S
C882 H874 0.950 . S
C882 C880 1.391 . S
C882 C883 1.400 . S
C883 C882 1.400 . S
C883 C884 1.398 . S
C883 C889 1.491 . S
C884 H875 0.950 . S
C884 C883 1.398 . S
C884 C885 1.391 . S
C885 H873 0.950 . S
C885 C881 1.393 . S
C885 C884 1.391 . S
C886 H876 0.950 . S
C886 C887 1.386 . S
C886 C888 1.391 . S
C887 C886 1.386 . S
C887 C891 1.393 . S
C888 H877 0.950 . S
C888 C886 1.391 . S
C888 C889 1.400 . S
C889 C883 1.491 . S
C889 C888 1.400 . S
C889 C890 1.398 . S
C890 H878 0.950 . S
C890 C889 1.398 . S
C890 C891 1.391 . S
C891 H879 0.950 . S
C891 C887 1.393 . S
C891 C890 1.391 . S
H892 C900 0.950 . S
H893 C905 0.950 . S
H894 C902 0.950 . S
H895 C904 0.950 . S
H896 C906 0.950 . S
H897 C908 0.950 . S
H898 C910 0.950 . S
H899 C911 0.950 . S
C900 H892 0.950 . S
C900 C901 1.386 . S
C900 C902 1.391 . S
C901 C900 1.386 . S
C901 C905 1.393 . S
C902 H894 0.950 . S
C902 C900 1.391 . S
C902 C903 1.400 . S
C903 C902 1.400 . S
C903 C904 1.398 . S
C903 C909 1.491 . S
C904 H895 0.950 . S
C904 C903 1.398 . S
C904 C905 1.391 . S
C905 H893 0.950 . S
C905 C901 1.393 . S
C905 C904 1.391 . S
C906 H896 0.950 . S
C906 C907 1.386 . S
C906 C908 1.391 . S
C907 C906 1.386 . S
C907 C911 1.393 . S
C908 H897 0.950 . S
C908 C906 1.391 . S
C908 C909 1.400 . S
C909 C903 1.491 . S
C909 C908 1.400 . S
C909 C910 1.398 . S
C910 H898 0.950 . S
C910 C909 1.398 . S
C910 C911 1.391 . S
C911 H899 0.950 . S
C911 C907 1.393 . S
C911 C910 1.391 . S
H912 C920 0.950 . S
H913 C925 0.950 . S
H914 C922 0.950 . S
H915 C924 0.950 . S
H916 C926 0.950 . S
H917 C928 0.950 . S
H918 C930 0.950 . S
H919 C931 0.950 . S
C920 H912 0.950 . S
C920 C921 1.386 . S
C920 C922 1.391 . S
C921 C920 1.386 . S
C921 C925 1.393 . S
C922 H914 0.950 . S
C922 C920 1.391 . S
C922 C923 1.400 . S
C923 C922 1.400 . S
C923 C924 1.398 . S
C923 C929 1.491 . S
C924 H915 0.950 . S
C924 C923 1.398 . S
C924 C925 1.391 . S
C925 H913 0.950 . S
C925 C921 1.393 . S
C925 C924 1.391 . S
C926 H916 0.950 . S
C926 C927 1.386 . S
C926 C928 1.391 . S
C927 C926 1.386 . S
C927 C931 1.393 . S
C928 H917 0.950 . S
C928 C926 1.391 . S
C928 C929 1.400 . S
C929 C923 1.491 . S
C929 C928 1.400 . S
C929 C930 1.398 . S
C930 H918 0.950 . S
C930 C929 1.398 . S
C930 C931 1.391 . S
C931 H919 0.950 . S
C931 C927 1.393 . S
C931 C930 1.391 . S
H932 C940 0.950 . S
H933 C945 0.950 . S
H934 C942 0.950 . S
H935 C944 0.950 . S
H936 C946 0.950 . S
H937 C948 0.950 . S
H938 C950 0.950 . S
H939 C951 0.950 . S
C940 H932 0.950 . S
C940 C941 1.386 . S
C940 C942 1.391 . S
C941 C940 1.386 . S
C941 C945 1.393 . S
C942 H934 0.950 . S
C942 C940 1.391 . S
C942 C943 1.400 . S
C943 C942 1.400 . S
C943 C944 1.398 . S
C943 C949 1.491 . S
C944 H935 0.950 . S
C944 C943 1.398 . S
C944 C945 1.391 . S
C945 H933 0.950 . S
C945 C941 1.393 . S
C945 C944 1.391 . S
C946 H936 0.950 . S
C946 C947 1.386 . S
C946 C948 1.391 . S
C947 C946 1.386 . S
C947 C951 1.393 . S
C948 H937 0.950 . S
C948 C946 1.391 . S
C948 C949 1.400 . S
C949 C943 1.491 . S
C949 C948 1.400 . S
C949 C950 1.398 . S
C950 H938 0.950 . S
C950 C949 1.398 . S
C950 C951 1.391 . S
C951 H939 0.950 . S
C951 C947 1.393 . S
C951 C950 1.391 . S
C481 C1 1.255 . S
C487 C319 1.305 . S
C501 C40 0.972 . S
C507 C368 0.966 . S
C527 C394 2.460 . S
C521 C99 2.505 . S
C541 C118 2.374 . S
C547 C442 2.328 . S
C567 C354 2.518 . S
C561 C16 2.397 . S
C587 C322 0.859 . S
C581 C60 0.886 . S
C607 C443 1.896 . S
C601 C79 1.944 . S
C627 C411 1.560 . S
C621 C138 1.590 . S
C641 C21 1.695 . S
C647 C439 1.764 . S
C667 C371 2.343 . S
C661 C94 2.414 . S
C681 C133 2.324 . S
C687 C323 2.313 . S
C701 C55 0.839 . S
C707 C408 0.837 . S
C727 C328 1.298 . S
C721 C157 1.264 . S
C741 C196 0.975 . S
C747 C359 0.969 . S
C761 C255 2.505 . S
C767 C403 2.468 . S
C781 C289 2.369 . S
C787 C451 2.312 . S
C801 C172 2.395 . S
C807 C363 2.516 . S
C827 C331 0.848 . S
C821 C216 0.884 . S
C847 C434 1.897 . S
C841 C235 1.947 . S
C867 C402 1.572 . S
C861 C294 1.585 . S
C881 C177 1.706 . S
C887 C448 1.762 . S
C907 C362 2.335 . S
C901 C250 2.414 . S
C927 C314 2.322 . S
C921 C274 2.326 . S
C941 C211 0.826 . S
C947 C399 0.846 . S
