# Generated by pormake.
# Topology pts, (4,4)-cn, num edge types: 1
# Building blocks:
#     Node 0, Type 0, BuildingBlock: NAHDIM_clean_linker_0, # of connection points: 4
#     Node 1, Type 0, BuildingBlock: NAHDIM_clean_linker_0, # of connection points: 4
#     Node 2, Type 1, BuildingBlock: QUQFOY_clean_sbu_1, # of connection points: 4
#     Node 3, Type 1, BuildingBlock: QUQFOY_clean_sbu_1, # of connection points: 4
#     Edge 4, Type (0, 1), BuildingBlock: CIFDUS_clean_linker_0, # of connection points: 2
#     Edge 5, Type (0, 1), BuildingBlock: CIFDUS_clean_linker_0, # of connection points: 2
#     Edge 6, Type (0, 1), BuildingBlock: CIFDUS_clean_linker_0, # of connection points: 2
#     Edge 7, Type (0, 1), BuildingBlock: CIFDUS_clean_linker_0, # of connection points: 2
#     Edge 8, Type (0, 1), BuildingBlock: CIFDUS_clean_linker_0, # of connection points: 2
#     Edge 9, Type (0, 1), BuildingBlock: CIFDUS_clean_linker_0, # of connection points: 2
#     Edge 10, Type (0, 1), BuildingBlock: CIFDUS_clean_linker_0, # of connection points: 2
#     Edge 11, Type (0, 1), BuildingBlock: CIFDUS_clean_linker_0, # of connection points: 2
# Relax obj value: 0.113
# Max RMSD: 0.243
# Mean RMSD: 0.150
data_MOF--net-pts--node1-QUQFOY_clean_sbu_1--node2-NAHDIM_clean_linker_0--edge1-CIFDUS_clean_linker_0
_symmetry_space_group_name_H-M    P1
_symmetry_Int_Tables_number       1
_symmetry_cell_setting            triclinic
loop_
_symmetry_equiv_pos_as_xyz
'x, y, z'
_cell_length_a     27.519105
_cell_length_b     30.589114
_cell_length_c     50.691656
_cell_angle_alpha  90.301361
_cell_angle_beta   89.060537
_cell_angle_gamma 90.090701
loop_
_atom_site_label
_atom_site_type_symbol
_atom_site_fract_x
_atom_site_fract_y
_atom_site_fract_z
_atom_type_partial_charge
C0 C 0.76265 0.09263 0.1157 0.0
C1 C 0.73944 0.06695 0.1386 0.0
C2 C 0.67844 0.02436 0.11408 0.0
C3 C 0.67059 0.98368 0.10231 0.0
C4 C 0.63105 0.97657 0.08577 0.0
C5 C 0.59808 0.01103 0.08123 0.0
C6 C 0.60506 0.05211 0.09356 0.0
C7 C 0.64534 0.05848 0.10984 0.0
C8 C 0.62467 0.93227 0.07301 0.0
C9 C 0.57005 0.08925 0.08939 0.0
C10 C 0.22173 0.88713 0.08752 0.0
C11 C 0.2562 0.92006 0.10031 0.0
C12 C 0.34426 0.9203 0.0928 0.0
C13 C 0.3507 0.96582 0.09142 0.0
C14 C 0.39353 0.98372 0.08062 0.0
C15 C 0.43087 0.95555 0.07138 0.0
C16 C 0.42549 0.90977 0.07398 0.0
C17 C 0.3822 0.89275 0.08478 0.0
C18 C 0.39867 0.03274 0.07872 0.0
C19 C 0.46508 0.87889 0.06484 0.0
C20 C 0.37644 0.95005 0.89925 0.0
C21 C 0.37392 0.99327 0.90863 0.0
C22 C 0.41131 0.01084 0.92393 0.0
C23 C 0.45203 0.98467 0.92977 0.0
C24 C 0.45581 0.94192 0.91912 0.0
C25 C 0.41801 0.92528 0.90375 0.0
C26 C 0.40687 0.05695 0.93438 0.0
C27 C 0.49915 0.91343 0.92462 0.0
C28 C 0.80209 0.16076 0.93168 0.0
C29 C 0.77605 0.12315 0.91767 0.0
C30 C 0.68879 0.10962 0.92217 0.0
C31 C 0.6461 0.13119 0.92976 0.0
C32 C 0.60582 0.10791 0.93961 0.0
C33 C 0.60827 0.06184 0.94149 0.0
C34 C 0.65046 0.03958 0.93253 0.0
C35 C 0.69031 0.06371 0.92287 0.0
C36 C 0.56104 0.13258 0.94861 0.0
C37 C 0.65369 0.99039 0.93363 0.0
C38 C 0.55642 0.00371 0.06355 0.0
C39 C 0.51418 0.98523 0.07438 0.0
C40 C 0.47503 0.97407 0.05849 0.0
C41 C 0.47815 0.98082 0.03093 0.0
C42 C 0.44027 0.96821 0.01421 0.0
C43 C 0.44402 0.97442 0.98708 0.0
C44 C 0.48532 0.9944 0.97567 0.0
C45 C 0.48944 1.00101 0.94812 0.0
C46 C 0.52995 0.02272 0.93755 0.0
C47 C 0.56735 0.03722 0.95376 0.0
C48 C 0.56503 0.02904 0.9812 0.0
C49 C 0.60312 0.04126 0.9979 0.0
C50 C 0.60064 0.03264 0.02483 0.0
C51 C 0.55943 0.01251 0.03621 0.0
C52 C 0.52032 1.00055 0.01981 0.0
C53 C 0.52354 0.00804 0.99221 0.0
C54 C 0.27749 0.89244 0.90962 0.0
C55 C 0.29091 0.9335 0.89385 0.0
O56 O 0.71839 0.02883 0.12925 0.0
O57 O 0.72769 0.13411 0.91446 0.0
O58 O 0.33929 0.9314 0.88597 0.0
O59 O 0.30216 0.90181 0.10163 0.0
H60 H 0.71141 0.08735 0.14881 0.0
H61 H 0.73478 0.10219 0.10126 0.0
H62 H 0.79062 0.07245 0.10531 0.0
H63 H 0.77997 0.12304 0.12311 0.0
H64 H 0.69619 0.95754 0.10585 0.0
H65 H 0.6506 0.09001 0.11912 0.0
H66 H 0.58971 0.91765 0.07977 0.0
H67 H 0.65457 0.90942 0.07777 0.0
H68 H 0.62312 0.93583 0.05125 0.0
H69 H 0.57946 0.11873 0.10116 0.0
H70 H 0.5326 0.07874 0.09487 0.0
H71 H 0.57004 0.09816 0.06819 0.0
H72 H 0.2563 0.9489 0.08699 0.0
H73 H 0.18423 0.90051 0.08712 0.0
H74 H 0.22128 0.85563 0.09831 0.0
H75 H 0.23391 0.88054 0.06687 0.0
H76 H 0.32247 0.98751 0.09874 0.0
H77 H 0.37725 0.8577 0.08638 0.0
H78 H 0.43145 0.04357 0.08946 0.0
H79 H 0.36649 0.05024 0.087 0.0
H80 H 0.40376 0.04224 0.05774 0.0
H81 H 0.45586 0.84418 0.06893 0.0
H82 H 0.49953 0.88714 0.07483 0.0
H83 H 0.47152 0.88271 0.0433 0.0
H84 H 0.28429 0.96135 0.90766 0.0
H85 H 0.34273 0.01323 0.90408 0.0
H86 H 0.41992 0.89224 0.89599 0.0
H87 H 0.40497 0.05639 0.95628 0.0
H88 H 0.37408 0.07381 0.92702 0.0
H89 H 0.43959 0.07614 0.92858 0.0
H90 H 0.49734 0.88144 0.91421 0.0
H91 H 0.50125 0.90743 0.94616 0.0
H92 H 0.53309 0.93048 0.91844 0.0
H93 H 0.77954 0.09469 0.93113 0.0
H94 H 0.8415 0.15354 0.93327 0.0
H95 H 0.78664 0.16487 0.95192 0.0
H96 H 0.79745 0.19209 0.92105 0.0
H97 H 0.645 0.16655 0.92871 0.0
H98 H 0.72248 0.04661 0.91595 0.0
H99 H 0.55436 0.1269 0.96998 0.0
H100 H 0.52885 0.12022 0.93793 0.0
H101 H 0.56443 0.16833 0.94524 0.0
H102 H 0.68835 0.97785 0.92499 0.0
H103 H 0.62292 0.97559 0.92284 0.0
H104 H 0.65067 0.97955 0.95447 0.0
H105 H 0.51196 0.97899 0.09542 0.0
H106 H 0.40747 0.95297 0.02187 0.0
H107 H 0.41391 0.96365 0.97519 0.0
H108 H 0.53241 0.0284 0.91646 0.0
H109 H 0.63554 0.05721 0.9903 0.0
H110 H 0.63127 0.04235 0.03665 0.0
H111 H 0.28853 0.86226 0.89886 0.0
H112 H 0.23776 0.89147 0.91389 0.0
H113 H 0.29676 0.89291 0.92871 0.0
C114 C 0.14359 0.29791 0.6157 0.0
C115 C 0.1073 0.31786 0.63567 0.0
C116 C 0.05943 0.36988 0.60972 0.0
C117 C 0.01377 0.37785 0.59912 0.0
C118 C 0.00462 0.41591 0.58467 0.0
C119 C 0.04233 0.44675 0.5806 0.0
C120 C 0.08853 0.4393 0.59152 0.0
C121 C 0.09666 0.40102 0.60597 0.0
C122 C 0.95483 0.42293 0.57341 0.0
C123 C 0.12955 0.47151 0.58746 0.0
C124 C 0.89505 0.75809 0.60092 0.0
C125 C 0.93103 0.74306 0.62184 0.0
C126 C 0.98069 0.68616 0.59966 0.0
C127 C 0.02744 0.6762 0.59038 0.0
C128 C 0.03811 0.63549 0.57883 0.0
C129 C 0.00064 0.60414 0.57599 0.0
C130 C 0.95331 0.61359 0.58571 0.0
C131 C 0.94383 0.65438 0.59762 0.0
C132 C 0.08934 0.62633 0.56925 0.0
C133 C 0.91254 0.58093 0.58295 0.0
C134 C 0.00052 0.67222 0.4054 0.0
C135 C 0.0451 0.66834 0.4182 0.0
C136 C 0.05642 0.63032 0.43222 0.0
C137 C 0.02214 0.59579 0.4337 0.0
C138 C 0.97784 0.59914 0.42008 0.0
C139 C 0.96793 0.63718 0.40577 0.0
C140 C 0.10482 0.62722 0.44566 0.0
C141 C 0.94059 0.56292 0.42109 0.0
C142 C 0.189 0.27298 0.42319 0.0
C143 C 0.14359 0.29182 0.4105 0.0
C144 C 0.1289 0.37041 0.41563 0.0
C145 C 0.15601 0.40786 0.42111 0.0
C146 C 0.13435 0.44459 0.43305 0.0
C147 C 0.08387 0.44417 0.4389 0.0
C148 C 0.0557 0.40709 0.43214 0.0
C149 C 0.0786 0.37039 0.42069 0.0
C150 C 0.16557 0.48358 0.43976 0.0
C151 C 0.00154 0.40617 0.4372 0.0
C152 C 0.03398 0.4858 0.56397 0.0
C153 C 0.01999 0.5249 0.57637 0.0
C154 C 0.01073 0.56249 0.56167 0.0
C155 C 0.0139 0.56077 0.5338 0.0
C156 C 0.00197 0.59714 0.51835 0.0
C157 C 0.00683 0.5957 0.49101 0.0
C158 C 0.02462 0.55807 0.47805 0.0
C159 C 0.03182 0.557 0.45035 0.0
C160 C 0.04988 0.51913 0.43813 0.0
C161 C 0.06119 0.48204 0.45285 0.0
C162 C 0.05378 0.48241 0.48056 0.0
C163 C 0.0646 0.44572 0.49601 0.0
C164 C 0.05746 0.4465 0.52325 0.0
C165 C 0.04032 0.48435 0.53621 0.0
C166 C 0.02975 0.52186 0.52107 0.0
C167 C 0.03577 0.52068 0.49318 0.0
C168 C 0.9487 0.76281 0.41847 0.0
C169 C 0.99295 0.75137 0.4011 0.0
O170 O 0.06582 0.33176 0.62304 0.0
O171 O 0.15229 0.33549 0.4048 0.0
O172 O 0.98847 0.70875 0.39191 0.0
O173 O 0.97303 0.72684 0.60995 0.0
H174 H 0.12514 0.34612 0.64547 0.0
H175 H 0.15645 0.32305 0.60151 0.0
H176 H 0.12657 0.27101 0.6043 0.0
H177 H 0.17575 0.28496 0.62607 0.0
H178 H 0.98521 0.35384 0.60209 0.0
H179 H 0.13235 0.3957 0.61392 0.0
H180 H 0.94046 0.45526 0.57982 0.0
H181 H 0.92862 0.39714 0.57959 0.0
H182 H 0.95749 0.4231 0.55154 0.0
H183 H 0.16345 0.46106 0.5972 0.0
H184 H 0.1187 0.504 0.59544 0.0
H185 H 0.13719 0.47547 0.56603 0.0
H186 H 0.91331 0.71707 0.63391 0.0
H187 H 0.86251 0.77301 0.61058 0.0
H188 H 0.88275 0.72996 0.58886 0.0
H189 H 0.91209 0.78235 0.58741 0.0
H190 H 0.05572 0.7007 0.59214 0.0
H191 H 0.90745 0.66122 0.60483 0.0
H192 H 0.10136 0.59373 0.57612 0.0
H193 H 0.11549 0.65142 0.57619 0.0
H194 H 0.09041 0.62585 0.54736 0.0
H195 H 0.87725 0.59383 0.59054 0.0
H196 H 0.9214 0.55075 0.59395 0.0
H197 H 0.90857 0.57167 0.56188 0.0
H198 H 0.02607 0.755 0.41318 0.0
H199 H 0.07142 0.69461 0.41694 0.0
H200 H 0.934 0.64026 0.39539 0.0
H201 H 0.09907 0.62862 0.46737 0.0
H202 H 0.12981 0.65418 0.43984 0.0
H203 H 0.12252 0.5955 0.44084 0.0
H204 H 0.90708 0.57132 0.41031 0.0
H205 H 0.93065 0.55566 0.44194 0.0
H206 H 0.95636 0.53269 0.41229 0.0
H207 H 0.1131 0.2883 0.42505 0.0
H208 H 0.18297 0.23836 0.42892 0.0
H209 H 0.19764 0.29195 0.44128 0.0
H210 H 0.22063 0.27479 0.40932 0.0
H211 H 0.19466 0.40775 0.41663 0.0
H212 H 0.05716 0.34205 0.41542 0.0
H213 H 0.16082 0.49218 0.46096 0.0
H214 H 0.15394 0.5122 0.42808 0.0
H215 H 0.20475 0.47753 0.43558 0.0
H216 H 0.98406 0.37707 0.42818 0.0
H217 H 0.98456 0.43615 0.42923 0.0
H218 H 0.99412 0.40572 0.45878 0.0
H219 H 0.01689 0.52622 0.59772 0.0
H220 H 0.98865 0.62718 0.52722 0.0
H221 H 0.99702 0.62471 0.4802 0.0
H222 H 0.05607 0.51878 0.41693 0.0
H223 H 0.07859 0.41587 0.48723 0.0
H224 H 0.06625 0.4172 0.53405 0.0
H225 H 0.95172 0.79678 0.42615 0.0
H226 H 0.94652 0.74031 0.43558 0.0
H227 H 0.9147 0.7597 0.40707 0.0
O228 O 0.97151 0.01534 0.24484 0.0
Cd229 Cd 0.03518 0.99411 0.26154 0.0
Cd230 Cd 0.05637 0.07991 0.25915 0.0
O231 O 0.98746 0.08605 0.2444 0.0
O232 O 0.02045 0.9334 0.27344 0.0
O233 O 0.04214 0.98627 0.30072 0.0
C234 C 0.02971 0.94597 0.29713 0.0
C235 C 0.07551 0.12027 0.29663 0.0
C236 C 0.95917 0.05429 0.23948 0.0
C237 C 0.11901 0.01962 0.22635 0.0
O238 O 0.10988 0.05904 0.23281 0.0
O239 O 0.09439 0.98852 0.2364 0.0
O240 O 0.07601 0.13794 0.27356 0.0
O241 O 0.06491 0.07918 0.29832 0.0
O242 O 0.95894 0.06864 0.7859 0.0
Cd243 Cd 0.0215 0.06558 0.76302 0.0
Cd244 Cd 0.00405 0.97574 0.76523 0.0
O245 O 0.94878 0.99741 0.79001 0.0
O246 O 0.036 0.12764 0.75401 0.0
O247 O 0.02148 0.07724 0.7238 0.0
C248 C 0.03214 0.11731 0.72948 0.0
C249 C 0.98437 0.91984 0.73547 0.0
C250 C 0.93611 0.0363 0.79574 0.0
C251 C 0.09777 0.0078 0.78754 0.0
O252 O 0.07235 0.97475 0.78124 0.0
O253 O 0.08349 0.04619 0.78217 0.0
O254 O 0.98718 0.91284 0.76041 0.0
O255 O 0.9932 0.95892 0.72712 0.0
H256 H 0.23311 1.00181 0.11848 0.0
H257 H 0.2408 0.86759 0.14365 0.0
H258 H 0.2028 0.88724 0.18599 0.0
H259 H 0.16044 0.94134 0.21399 0.0
H260 H 0.15535 0.07614 0.18943 0.0
H261 H 0.20034 0.05765 0.149 0.0
C262 C 0.22686 0.97697 0.13335 0.0
C263 C 0.23827 0.9331 0.12765 0.0
C264 C 0.20556 0.9886 0.15775 0.0
C265 C 0.23108 0.90139 0.14732 0.0
C266 C 0.20954 0.91263 0.17155 0.0
C267 C 0.1698 0.9668 0.19998 0.0
C268 C 0.15394 0.00993 0.20457 0.0
C269 C 0.19548 0.95594 0.1767 0.0
C270 C 0.16698 0.04265 0.18639 0.0
C271 C 0.19244 0.03206 0.16315 0.0
H272 H 0.06112 0.23859 0.62964 0.0
H273 H 0.12193 0.32329 0.68895 0.0
H274 H 0.10244 0.26967 0.72298 0.0
H275 H 0.07069 0.19807 0.73578 0.0
H276 H 0.01357 0.11101 0.6766 0.0
H277 H 0.02952 0.166 0.64257 0.0
C278 C 0.07023 0.24517 0.65001 0.0
C279 C 0.09335 0.28477 0.65669 0.0
C280 C 0.0598 0.21374 0.66946 0.0
C281 C 0.10437 0.29306 0.68323 0.0
C282 C 0.09329 0.26238 0.70271 0.0
C283 C 0.0615 0.1911 0.71546 0.0
C284 C 0.04087 0.1505 0.70875 0.0
C285 C 0.0714 0.22251 0.69602 0.0
C286 C 0.02955 0.14197 0.68228 0.0
C287 C 0.03862 0.17342 0.66283 0.0
H288 H 0.77769 0.1199 0.17629 0.0
H289 H 0.79032 0.98934 0.14414 0.0
H290 H 0.85539 0.97326 0.17443 0.0
H291 H 0.91196 0.99712 0.20822 0.0
H292 H 0.90577 0.12956 0.2377 0.0
H293 H 0.83492 0.14399 0.21047 0.0
C294 C 0.7944 0.08781 0.1762 0.0
C295 C 0.7782 0.0557 0.15839 0.0
C296 C 0.83312 0.07912 0.19312 0.0
C297 C 0.80104 0.0145 0.15798 0.0
C298 C 0.83855 0.00526 0.17523 0.0
C299 C 0.89467 0.02896 0.20899 0.0
C300 C 0.91382 0.06214 0.22505 0.0
C301 C 0.85516 0.0374 0.19269 0.0
C302 C 0.89161 0.10348 0.22548 0.0
C303 C 0.8512 0.11175 0.20989 0.0
H304 H 0.91525 0.75054 0.67506 0.0
H305 H 0.97807 0.81983 0.60893 0.0
H306 H -0.00155 0.8813 0.63779 0.0
H307 H -0.0012 0.91523 0.6821 0.0
H308 H 0.94002 0.84338 0.74839 0.0
H309 H 0.91784 0.78317 0.71926 0.0
C310 C 0.93336 0.77911 0.66696 0.0
C311 C 0.94445 0.78085 0.63982 0.0
C312 C 0.94576 0.81391 0.68373 0.0
C313 C 0.96848 0.81795 0.62969 0.0
C314 C 0.98027 0.85304 0.6462 0.0
C315 C 0.98098 0.88644 0.6901 0.0
C316 C 0.97094 0.88388 0.71735 0.0
C317 C 0.96902 0.85144 0.67327 0.0
C318 C 0.94829 0.84617 0.72749 0.0
C319 C 0.93551 0.81169 0.71085 0.0
H320 H 0.25712 0.01016 0.87493 0.0
H321 H 0.25717 0.87189 0.85765 0.0
H322 H 0.20044 0.88336 0.82194 0.0
H323 H 0.1451 0.93185 0.79823 0.0
H324 H 0.14754 0.07058 0.81445 0.0
H325 H 0.20957 0.05973 0.84755 0.0
C326 C 0.24468 0.98255 0.86333 0.0
C327 C 0.25934 0.94004 0.86995 0.0
C328 C 0.21257 0.98943 0.84254 0.0
C329 C 0.24478 0.90478 0.85392 0.0
C330 C 0.21253 0.91133 0.83331 0.0
C331 C 0.15963 0.9598 0.80875 0.0
C332 C 0.14109 1.00186 0.80411 0.0
C333 C 0.19519 0.95337 0.82791 0.0
C334 C 0.16091 0.03778 0.81767 0.0
C335 C 0.19624 0.03162 0.83674 0.0
H336 H 0.1016 0.2117 0.4076 0.0
H337 H 0.16119 0.31331 0.35791 0.0
H338 H 0.14465 0.26947 0.31878 0.0
H339 H 0.11438 0.20185 0.29855 0.0
H340 H 0.05929 0.09818 0.34818 0.0
H341 H 0.07345 0.14298 0.3874 0.0
C342 C 0.11059 0.22429 0.38816 0.0
C343 C 0.13158 0.26609 0.38576 0.0
C344 C 0.10222 0.19839 0.36572 0.0
C345 C 0.14407 0.28169 0.36045 0.0
C346 C 0.1349 0.25649 0.33801 0.0
C347 C 0.10545 0.18904 0.31795 0.0
C348 C 0.08567 0.14678 0.32043 0.0
C349 C 0.11414 0.21477 0.34041 0.0
C350 C 0.07468 0.13055 0.34572 0.0
C351 C 0.08261 0.1562 0.36815 0.0
H352 H 0.80952 0.04433 0.89987 0.0
H353 H 0.79312 0.17827 0.87546 0.0
H354 H 0.83842 0.16267 0.83462 0.0
H355 H 0.88844 0.11219 0.80765 0.0
H356 H 0.90054 0.97724 0.83121 0.0
H357 H 0.85016 0.99183 0.87022 0.0
C358 C 0.81553 0.07002 0.88552 0.0
C359 C 0.79958 0.11274 0.89114 0.0
C360 C 0.8407 0.06062 0.86187 0.0
C361 C 0.80647 0.14543 0.87202 0.0
C362 C 0.83213 0.13648 0.84859 0.0
C363 C 0.87949 0.08585 0.82112 0.0
C364 C 0.89882 0.04385 0.81665 0.0
C365 C 0.8504 0.09441 0.8436 0.0
C366 C 0.88631 0.00993 0.83414 0.0
C367 C 0.85771 0.01827 0.85659 0.0
H368 H 0.03479 0.83197 0.40073 0.0
H369 H 0.95679 0.74262 0.35064 0.0
H370 H 0.96202 0.79462 0.31438 0.0
H371 H 0.98867 0.86535 0.29682 0.0
H372 H 0.06304 0.9567 0.34731 0.0
H373 H 0.05912 0.90417 0.38352 0.0
C374 C 0.01935 0.82385 0.38177 0.0
C375 C 0.99683 0.78294 0.37819 0.0
C376 C 0.0216 0.85431 0.36114 0.0
C377 C 0.97557 0.7733 0.35377 0.0
C378 C 0.97828 0.80314 0.33305 0.0
C379 C 0.0041 0.87379 0.31573 0.0
C380 C 0.02636 0.91479 0.31931 0.0
C381 C 0.00131 0.84366 0.33649 0.0
C382 C 0.0457 0.92537 0.34403 0.0
C383 C 0.04356 0.89532 0.36472 0.0
loop_
_geom_bond_atom_site_label_1
_geom_bond_atom_site_label_2
_geom_bond_distance
_geom_bond_site_symmetry_2
_ccdc_geom_bond_type
C0 C1 1.560 . S
C0 H61 0.959 . S
C0 H62 0.959 . S
C0 H63 0.960 . S
C1 C0 1.560 . S
C1 O56 1.426 . S
C1 H60 0.980 . S
C2 C3 1.407 1_545 S
C2 C7 1.418 . S
C2 O56 1.334 . S
C3 C2 1.407 1_565 S
C3 C4 1.360 . S
C3 H64 0.929 . S
C4 C3 1.360 . S
C4 C5 1.401 1_565 S
C4 C8 1.527 . S
C5 C4 1.401 1_545 S
C5 C6 1.405 . S
C5 C38 1.587 1_545 S
C6 C5 1.405 . S
C6 C7 1.332 . S
C6 C9 1.496 . S
C7 C2 1.418 . S
C7 C6 1.332 . S
C7 H65 0.929 . S
C8 C4 1.527 . S
C8 H66 0.959 . S
C8 H67 0.961 . S
C8 H68 0.961 . S
C9 C6 1.496 . S
C9 H69 0.960 . S
C9 H70 0.960 . S
C9 H71 0.961 . S
C10 C11 1.517 . S
C10 H73 0.961 1_565 S
C10 H74 0.960 . S
C10 H75 0.959 . S
C11 C10 1.517 . S
C11 O59 1.468 . S
C11 H72 0.980 1_565 S
C12 C13 1.349 1_565 S
C12 C17 1.367 . S
C12 O59 1.408 . S
C13 C12 1.349 1_545 S
C13 C14 1.407 . S
C13 H76 0.930 . S
C14 C13 1.407 . S
C14 C15 1.449 1_545 S
C14 C18 1.535 . S
C15 C14 1.449 1_565 S
C15 C16 1.384 . S
C15 C40 1.553 . S
C16 C15 1.384 . S
C16 C17 1.364 . S
C16 C19 1.450 . S
C17 C12 1.367 . S
C17 C16 1.364 . S
C17 H77 0.931 . S
C18 C14 1.535 . S
C18 H78 0.959 . S
C18 H79 0.961 . S
C18 H80 0.959 . S
C19 C16 1.450 . S
C19 H81 0.960 . S
C19 H82 0.960 . S
C19 H83 0.960 . S
C20 C21 1.309 1_565 S
C20 C25 1.304 . S
C20 O58 1.435 . S
C21 C20 1.309 1_545 S
C21 C22 1.476 . S
C21 H85 0.930 . S
C22 C21 1.476 . S
C22 C23 1.400 1_545 S
C22 C26 1.567 . S
C23 C22 1.400 1_565 S
C23 C24 1.373 . S
C23 C45 1.432 . S
C24 C23 1.373 . S
C24 C25 1.339 . S
C24 C27 1.530 . S
C25 C20 1.304 . S
C25 C24 1.339 . S
C25 H86 0.930 . S
C26 C22 1.567 . S
C26 H87 0.961 . S
C26 H88 0.960 . S
C26 H89 0.958 . S
C27 C24 1.530 . S
C27 H90 0.961 . S
C27 H91 0.960 . S
C27 H92 0.960 . S
C28 C29 1.530 . S
C28 H94 0.961 . S
C28 H95 0.961 . S
C28 H96 0.959 . S
C29 C28 1.530 . S
C29 O57 1.412 . S
C29 H93 0.980 . S
C30 C31 1.288 . S
C30 C35 1.377 1_545 S
C30 O57 1.393 . S
C31 C30 1.288 . S
C31 C32 1.369 . S
C31 H97 0.932 . S
C32 C31 1.369 . S
C32 C33 1.398 . S
C32 C36 1.527 . S
C33 C32 1.398 . S
C33 C34 1.380 1_545 S
C33 C47 1.497 . S
C34 C33 1.380 1_565 S
C34 C35 1.383 . S
C34 C37 1.603 . S
C35 C30 1.377 1_565 S
C35 C34 1.383 . S
C35 H98 0.929 . S
C36 C32 1.527 . S
C36 H99 0.961 . S
C36 H100 0.959 . S
C36 H101 0.959 . S
C37 C34 1.603 . S
C37 H102 0.960 . S
C37 H103 0.962 . S
C37 H104 0.961 . S
C38 C5 1.587 1_565 S
C38 C39 1.360 . S
C38 C51 1.412 . S
C39 C38 1.360 . S
C39 C40 1.365 . S
C39 H105 0.929 . S
C40 C15 1.553 . S
C40 C39 1.365 . S
C40 C41 1.404 . S
C41 C40 1.404 . S
C41 C42 1.395 . S
C41 C52 1.451 . S
C42 C41 1.395 . S
C42 C43 1.353 . S
C42 H106 0.930 . S
C43 C42 1.353 . S
C43 C44 1.442 1_554 S
C43 H107 0.915 1_554 S
C44 C43 1.442 1_556 S
C44 C45 1.445 . S
C44 C53 1.395 . S
C45 C23 1.432 . S
C45 C44 1.445 . S
C45 C46 1.370 . S
C46 C45 1.370 . S
C46 C47 1.438 1_565 S
C46 H108 0.930 . S
C47 C33 1.497 . S
C47 C46 1.438 1_545 S
C47 C48 1.358 1_545 S
C48 C47 1.358 1_565 S
C48 C49 1.398 1_565 S
C48 C53 1.450 . S
C49 C48 1.398 1_545 S
C49 C50 1.347 1_556 S
C49 H109 0.929 . S
C50 C49 1.347 1_554 S
C50 C51 1.455 1_545 S
C50 H110 0.930 . S
C51 C38 1.412 . S
C51 C50 1.455 1_565 S
C51 C52 1.331 . S
C52 C41 1.451 . S
C52 C51 1.331 . S
C52 C53 1.497 1_554 S
C53 C44 1.395 . S
C53 C48 1.450 . S
C53 C52 1.497 1_556 S
C54 C55 1.582 1_565 S
C54 H111 0.962 . S
C54 H112 0.959 . S
C54 H113 0.958 . S
C55 C54 1.582 1_545 S
C55 O58 1.458 1_545 S
C55 H84 0.980 . S
O56 C1 1.426 . S
O56 C2 1.334 . S
O57 C29 1.412 . S
O57 C30 1.393 . S
O58 C20 1.435 . S
O58 C55 1.458 1_565 S
O59 C11 1.468 . S
O59 C12 1.408 . S
H60 C1 0.980 . S
H61 C0 0.959 . S
H62 C0 0.959 . S
H63 C0 0.960 . S
H64 C3 0.929 . S
H65 C7 0.929 . S
H66 C8 0.959 . S
H67 C8 0.961 . S
H68 C8 0.961 . S
H69 C9 0.960 . S
H70 C9 0.960 . S
H71 C9 0.961 . S
H72 C11 0.980 1_545 S
H73 C10 0.961 1_545 S
H74 C10 0.960 . S
H75 C10 0.959 . S
H76 C13 0.930 . S
H77 C17 0.931 . S
H78 C18 0.959 . S
H79 C18 0.961 . S
H80 C18 0.959 . S
H81 C19 0.960 . S
H82 C19 0.960 . S
H83 C19 0.960 . S
H84 C55 0.980 . S
H85 C21 0.930 . S
H86 C25 0.930 . S
H87 C26 0.961 . S
H88 C26 0.960 . S
H89 C26 0.958 . S
H90 C27 0.961 . S
H91 C27 0.960 . S
H92 C27 0.960 . S
H93 C29 0.980 . S
H94 C28 0.961 . S
H95 C28 0.961 . S
H96 C28 0.959 . S
H97 C31 0.932 . S
H98 C35 0.929 . S
H99 C36 0.961 . S
H100 C36 0.959 . S
H101 C36 0.959 . S
H102 C37 0.960 . S
H103 C37 0.962 . S
H104 C37 0.961 . S
H105 C39 0.929 . S
H106 C42 0.930 . S
H107 C43 0.915 1_556 S
H108 C46 0.930 . S
H109 C49 0.929 . S
H110 C50 0.930 . S
H111 C54 0.962 . S
H112 C54 0.959 . S
H113 C54 0.958 . S
C114 C115 1.560 . S
C114 H175 0.959 . S
C114 H176 0.959 . S
C114 H177 0.960 . S
C115 C114 1.560 . S
C115 O170 1.426 . S
C115 H174 0.980 . S
C116 C117 1.407 . S
C116 C121 1.418 . S
C116 O170 1.334 . S
C117 C116 1.407 . S
C117 C118 1.360 . S
C117 H178 0.929 1_455 S
C118 C117 1.360 . S
C118 C119 1.401 . S
C118 C122 1.527 1_455 S
C119 C118 1.401 . S
C119 C120 1.405 . S
C119 C152 1.587 . S
C120 C119 1.405 . S
C120 C121 1.332 . S
C120 C123 1.496 . S
C121 C116 1.418 . S
C121 C120 1.332 . S
C121 H179 0.929 . S
C122 C118 1.527 1_655 S
C122 H180 0.959 . S
C122 H181 0.961 . S
C122 H182 0.961 . S
C123 C120 1.496 . S
C123 H183 0.960 . S
C123 H184 0.960 . S
C123 H185 0.961 . S
C124 C125 1.517 1_655 S
C124 H187 0.961 1_655 S
C124 H188 0.960 . S
C124 H189 0.959 . S
C125 C124 1.517 1_455 S
C125 O173 1.468 1_455 S
C125 H186 0.980 . S
C126 C127 1.349 1_655 S
C126 C131 1.367 . S
C126 O173 1.408 . S
C127 C126 1.349 1_455 S
C127 C128 1.407 . S
C127 H190 0.930 . S
C128 C127 1.407 . S
C128 C129 1.449 1_455 S
C128 C132 1.535 . S
C129 C128 1.449 1_655 S
C129 C130 1.384 . S
C129 C154 1.553 1_655 S
C130 C129 1.384 . S
C130 C131 1.364 . S
C130 C133 1.450 . S
C131 C126 1.367 . S
C131 C130 1.364 . S
C131 H191 0.931 . S
C132 C128 1.535 . S
C132 H192 0.959 . S
C132 H193 0.961 . S
C132 H194 0.959 . S
C133 C130 1.450 . S
C133 H195 0.960 . S
C133 H196 0.960 . S
C133 H197 0.960 . S
C134 C135 1.309 1_655 S
C134 C139 1.304 . S
C134 O172 1.435 . S
C135 C134 1.309 1_455 S
C135 C136 1.476 . S
C135 H199 0.930 . S
C136 C135 1.476 . S
C136 C137 1.400 . S
C136 C140 1.567 . S
C137 C136 1.400 . S
C137 C138 1.373 1_455 S
C137 C159 1.432 . S
C138 C137 1.373 1_655 S
C138 C139 1.339 . S
C138 C141 1.530 . S
C139 C134 1.304 . S
C139 C138 1.339 . S
C139 H200 0.930 . S
C140 C136 1.567 . S
C140 H201 0.961 . S
C140 H202 0.960 . S
C140 H203 0.958 . S
C141 C138 1.530 . S
C141 H204 0.961 . S
C141 H205 0.960 . S
C141 H206 0.960 . S
C142 C143 1.530 . S
C142 H208 0.961 . S
C142 H209 0.961 . S
C142 H210 0.959 . S
C143 C142 1.530 . S
C143 O171 1.412 . S
C143 H207 0.980 . S
C144 C145 1.288 . S
C144 C149 1.377 . S
C144 O171 1.393 . S
C145 C144 1.288 . S
C145 C146 1.369 . S
C145 H211 0.932 . S
C146 C145 1.369 . S
C146 C147 1.398 . S
C146 C150 1.527 . S
C147 C146 1.398 . S
C147 C148 1.380 . S
C147 C161 1.497 . S
C148 C147 1.380 . S
C148 C149 1.383 . S
C148 C151 1.603 1_455 S
C149 C144 1.377 . S
C149 C148 1.383 . S
C149 H212 0.929 1_455 S
C150 C146 1.527 . S
C150 H213 0.961 . S
C150 H214 0.959 . S
C150 H215 0.959 . S
C151 C148 1.603 1_655 S
C151 H216 0.960 . S
C151 H217 0.962 . S
C151 H218 0.961 . S
C152 C119 1.587 . S
C152 C153 1.360 . S
C152 C165 1.412 . S
C153 C152 1.360 . S
C153 C154 1.365 . S
C153 H219 0.929 . S
C154 C129 1.553 1_455 S
C154 C153 1.365 . S
C154 C155 1.405 . S
C155 C154 1.405 . S
C155 C156 1.394 1_455 S
C155 C166 1.454 . S
C156 C155 1.394 1_655 S
C156 C157 1.322 . S
C156 H220 0.930 . S
C157 C156 1.322 . S
C157 C158 1.457 1_655 S
C157 H221 0.931 . S
C158 C157 1.457 1_455 S
C158 C159 1.445 . S
C158 C167 1.395 . S
C159 C137 1.432 . S
C159 C158 1.445 . S
C159 C160 1.370 . S
C160 C159 1.370 . S
C160 C161 1.438 . S
C160 H222 0.930 . S
C161 C147 1.497 . S
C161 C160 1.438 . S
C161 C162 1.360 . S
C162 C161 1.360 . S
C162 C163 1.401 . S
C162 C167 1.446 . S
C163 C162 1.401 . S
C163 C164 1.347 . S
C163 H223 0.929 . S
C164 C163 1.347 . S
C164 C165 1.455 . S
C164 H224 0.930 . S
C165 C152 1.412 . S
C165 C164 1.455 . S
C165 C166 1.331 . S
C166 C155 1.454 . S
C166 C165 1.331 . S
C166 C167 1.497 . S
C167 C158 1.395 . S
C167 C162 1.446 . S
C167 C166 1.497 . S
C168 C169 1.575 1_655 S
C168 H225 0.954 1_655 S
C168 H226 0.962 . S
C168 H227 0.969 . S
C169 C168 1.575 1_455 S
C169 O172 1.458 1_455 S
C169 H198 0.980 . S
O170 C115 1.426 . S
O170 C116 1.334 . S
O171 C143 1.412 . S
O171 C144 1.393 . S
O172 C134 1.435 . S
O172 C169 1.458 1_655 S
O173 C125 1.468 1_655 S
O173 C126 1.408 . S
H174 C115 0.980 . S
H175 C114 0.959 . S
H176 C114 0.959 . S
H177 C114 0.960 . S
H178 C117 0.929 1_655 S
H179 C121 0.929 . S
H180 C122 0.959 . S
H181 C122 0.961 . S
H182 C122 0.961 . S
H183 C123 0.960 . S
H184 C123 0.960 . S
H185 C123 0.961 . S
H186 C125 0.980 . S
H187 C124 0.961 1_455 S
H188 C124 0.960 . S
H189 C124 0.959 . S
H190 C127 0.930 . S
H191 C131 0.931 . S
H192 C132 0.959 . S
H193 C132 0.961 . S
H194 C132 0.959 . S
H195 C133 0.960 . S
H196 C133 0.960 . S
H197 C133 0.960 . S
H198 C169 0.980 . S
H199 C135 0.930 . S
H200 C139 0.930 . S
H201 C140 0.961 . S
H202 C140 0.960 . S
H203 C140 0.958 . S
H204 C141 0.961 . S
H205 C141 0.960 . S
H206 C141 0.960 . S
H207 C143 0.980 . S
H208 C142 0.961 . S
H209 C142 0.961 . S
H210 C142 0.959 . S
H211 C145 0.932 . S
H212 C149 0.929 1_655 S
H213 C150 0.961 . S
H214 C150 0.959 . S
H215 C150 0.959 . S
H216 C151 0.960 . S
H217 C151 0.962 . S
H218 C151 0.961 . S
H219 C153 0.929 . S
H220 C156 0.930 . S
H221 C157 0.931 . S
H222 C160 0.930 . S
H223 C163 0.929 . S
H224 C164 0.930 . S
H225 C168 0.954 1_455 S
H226 C168 0.962 . S
H227 C168 0.969 . S
O228 Cd229 2.223 . S
O228 C236 1.315 1_455 S
Cd229 O228 2.223 . S
Cd229 O232 2.297 . S
Cd229 O233 2.439 . S
Cd229 O239 2.240 1_565 S
Cd230 O231 2.240 1_455 S
Cd230 O238 2.223 . S
Cd230 O240 2.297 . S
Cd230 O241 2.439 . S
O231 Cd230 2.240 1_655 S
O231 C236 1.279 1_545 S
O232 Cd229 2.297 . S
O232 C234 1.247 . S
O233 Cd229 2.439 . S
O233 C234 1.208 . S
C234 O232 1.247 . S
C234 O233 1.208 . S
C235 O240 1.247 . S
C235 O241 1.208 . S
C236 O228 1.315 1_655 S
C236 O231 1.279 1_565 S
C237 O238 1.315 . S
C237 O239 1.279 . S
O238 Cd230 2.223 . S
O238 C237 1.315 . S
O239 Cd229 2.240 1_545 S
O239 C237 1.279 . S
O240 Cd230 2.297 . S
O240 C235 1.247 . S
O241 Cd230 2.439 . S
O241 C235 1.208 . S
O242 Cd243 2.223 . S
O242 C250 1.315 1_455 S
Cd243 O242 2.223 . S
Cd243 O246 2.297 . S
Cd243 O247 2.439 . S
Cd243 O253 2.240 . S
Cd244 O245 2.240 1_465 S
Cd244 O252 2.223 . S
Cd244 O254 2.297 . S
Cd244 O255 2.439 . S
O245 Cd244 2.240 1_645 S
O245 C250 1.279 . S
O246 Cd243 2.297 . S
O246 C248 1.247 . S
O247 Cd243 2.439 . S
O247 C248 1.208 . S
C248 O246 1.247 . S
C248 O247 1.208 . S
C249 O254 1.247 . S
C249 O255 1.208 . S
C250 O242 1.315 1_655 S
C250 O245 1.279 . S
C251 O252 1.315 . S
C251 O253 1.279 1_565 S
O252 Cd244 2.223 . S
O252 C251 1.315 . S
O253 Cd243 2.240 . S
O253 C251 1.279 1_545 S
O254 Cd244 2.297 . S
O254 C249 1.247 . S
O255 Cd244 2.439 . S
O255 C249 1.208 . S
H256 C262 0.930 . S
H257 C265 0.930 . S
H258 C266 0.930 . S
H259 C267 0.930 1_565 S
H260 C270 0.930 . S
H261 C271 0.930 . S
C262 H256 0.930 . S
C262 C263 1.355 . S
C262 C264 1.415 . S
C263 C262 1.355 . S
C263 C265 1.419 1_545 S
C264 C262 1.415 . S
C264 C269 1.425 . S
C264 C271 1.409 . S
C265 H257 0.930 . S
C265 C263 1.419 1_565 S
C265 C266 1.362 . S
C266 H258 0.930 . S
C266 C265 1.362 . S
C266 C269 1.409 1_565 S
C267 H259 0.930 1_545 S
C267 C268 1.355 . S
C267 C269 1.415 . S
C268 C267 1.355 . S
C268 C270 1.419 . S
C269 C264 1.425 . S
C269 C266 1.409 1_545 S
C269 C267 1.415 . S
C270 H260 0.930 . S
C270 C268 1.419 . S
C270 C271 1.362 . S
C271 H261 0.930 . S
C271 C264 1.409 . S
C271 C270 1.362 . S
H272 C278 0.930 . S
H273 C281 0.930 1_655 S
H274 C282 0.930 . S
H275 C283 0.930 . S
H276 C286 0.930 . S
H277 C287 0.930 . S
C278 H272 0.930 . S
C278 C279 1.355 . S
C278 C280 1.415 . S
C279 C278 1.355 . S
C279 C281 1.419 . S
C280 C278 1.415 . S
C280 C285 1.425 . S
C280 C287 1.409 . S
C281 H273 0.930 1_455 S
C281 C279 1.419 . S
C281 C282 1.362 1_455 S
C282 H274 0.930 . S
C282 C281 1.362 1_655 S
C282 C285 1.409 1_655 S
C283 H275 0.930 . S
C283 C284 1.355 1_655 S
C283 C285 1.415 1_655 S
C284 C283 1.355 1_455 S
C284 C286 1.419 . S
C285 C280 1.425 . S
C285 C282 1.409 1_455 S
C285 C283 1.415 1_455 S
C286 H276 0.930 . S
C286 C284 1.419 . S
C286 C287 1.362 . S
C287 H277 0.930 . S
C287 C280 1.409 . S
C287 C286 1.362 . S
H288 C294 0.930 . S
H289 C297 0.930 . S
H290 C298 0.930 . S
H291 C299 0.929 . S
H292 C302 0.930 . S
H293 C303 0.930 . S
C294 H288 0.930 . S
C294 C295 1.355 . S
C294 C296 1.415 . S
C295 C294 1.355 . S
C295 C297 1.419 . S
C296 C294 1.415 . S
C296 C301 1.425 . S
C296 C303 1.409 . S
C297 H289 0.930 . S
C297 C295 1.419 . S
C297 C298 1.362 . S
C298 H290 0.930 . S
C298 C297 1.362 . S
C298 C301 1.409 . S
C299 H291 0.929 . S
C299 C300 1.355 . S
C299 C301 1.415 . S
C300 C299 1.355 . S
C300 C302 1.420 . S
C301 C296 1.425 . S
C301 C298 1.409 . S
C301 C299 1.415 . S
C302 H292 0.930 . S
C302 C300 1.420 . S
C302 C303 1.362 . S
C303 H293 0.930 . S
C303 C296 1.409 . S
C303 C302 1.362 . S
H304 C310 0.930 . S
H305 C313 0.930 . S
H306 C314 0.930 . S
H307 C315 0.930 . S
H308 C318 0.930 . S
H309 C319 0.930 . S
C310 H304 0.930 . S
C310 C311 1.355 . S
C310 C312 1.415 . S
C311 C310 1.355 . S
C311 C313 1.419 . S
C312 C310 1.415 . S
C312 C317 1.425 . S
C312 C319 1.409 . S
C313 H305 0.930 . S
C313 C311 1.419 . S
C313 C314 1.362 . S
C314 H306 0.930 . S
C314 C313 1.362 . S
C314 C317 1.409 . S
C315 H307 0.930 . S
C315 C316 1.355 . S
C315 C317 1.415 . S
C316 C315 1.355 . S
C316 C318 1.419 . S
C317 C312 1.425 . S
C317 C314 1.409 . S
C317 C315 1.415 . S
C318 H308 0.930 . S
C318 C316 1.419 . S
C318 C319 1.362 . S
C319 H309 0.930 . S
C319 C312 1.409 . S
C319 C318 1.362 . S
H320 C326 0.930 . S
H321 C329 0.930 . S
H322 C330 0.930 . S
H323 C331 0.930 . S
H324 C334 0.930 . S
H325 C335 0.930 . S
C326 H320 0.930 . S
C326 C327 1.355 1_565 S
C326 C328 1.415 . S
C327 C326 1.355 1_545 S
C327 C329 1.419 . S
C328 C326 1.415 . S
C328 C333 1.425 1_565 S
C328 C335 1.409 . S
C329 H321 0.930 . S
C329 C327 1.419 . S
C329 C330 1.362 . S
C330 H322 0.930 . S
C330 C329 1.362 . S
C330 C333 1.409 . S
C331 H323 0.930 . S
C331 C332 1.355 1_545 S
C331 C333 1.415 . S
C332 C331 1.355 1_565 S
C332 C334 1.419 . S
C333 C328 1.425 1_545 S
C333 C330 1.409 . S
C333 C331 1.415 . S
C334 H324 0.930 . S
C334 C332 1.419 . S
C334 C335 1.362 . S
C335 H325 0.930 . S
C335 C328 1.409 . S
C335 C334 1.362 . S
H336 C342 0.930 . S
H337 C345 0.930 1_655 S
H338 C346 0.937 . S
H339 C347 0.930 . S
H340 C350 0.930 . S
H341 C351 0.930 . S
C342 H336 0.930 . S
C342 C343 1.355 . S
C342 C344 1.415 . S
C343 C342 1.355 . S
C343 C345 1.419 . S
C344 C342 1.415 . S
C344 C349 1.425 . S
C344 C351 1.409 . S
C345 H337 0.930 1_455 S
C345 C343 1.419 . S
C345 C346 1.362 . S
C346 H338 0.937 . S
C346 C345 1.362 . S
C346 C349 1.409 . S
C347 H339 0.930 . S
C347 C348 1.355 . S
C347 C349 1.415 . S
C348 C347 1.355 . S
C348 C350 1.419 . S
C349 C344 1.425 . S
C349 C346 1.409 . S
C349 C347 1.415 . S
C350 H340 0.930 . S
C350 C348 1.419 . S
C350 C351 1.362 . S
C351 H341 0.930 . S
C351 C344 1.409 . S
C351 C350 1.362 . S
H352 C358 0.930 . S
H353 C361 0.930 . S
H354 C362 0.930 . S
H355 C363 0.930 . S
H356 C366 0.930 . S
H357 C367 0.930 . S
C358 H352 0.930 . S
C358 C359 1.355 . S
C358 C360 1.415 . S
C359 C358 1.355 . S
C359 C361 1.419 . S
C360 C358 1.415 . S
C360 C365 1.425 . S
C360 C367 1.409 . S
C361 H353 0.930 . S
C361 C359 1.419 . S
C361 C362 1.362 . S
C362 H354 0.930 . S
C362 C361 1.362 . S
C362 C365 1.409 . S
C363 H355 0.930 . S
C363 C364 1.355 . S
C363 C365 1.415 . S
C364 C363 1.355 . S
C364 C366 1.419 . S
C365 C360 1.425 . S
C365 C362 1.409 . S
C365 C363 1.415 . S
C366 H356 0.930 . S
C366 C364 1.419 . S
C366 C367 1.362 . S
C367 H357 0.930 . S
C367 C360 1.409 . S
C367 C366 1.362 . S
H368 C374 0.930 . S
H369 C377 0.930 1_655 S
H370 C378 0.930 . S
H371 C379 0.930 . S
H372 C382 0.930 . S
H373 C383 0.930 . S
C374 H368 0.930 . S
C374 C375 1.355 . S
C374 C376 1.415 . S
C375 C374 1.355 . S
C375 C377 1.419 . S
C376 C374 1.415 . S
C376 C381 1.425 . S
C376 C383 1.409 . S
C377 H369 0.930 1_455 S
C377 C375 1.419 . S
C377 C378 1.362 1_455 S
C378 H370 0.930 . S
C378 C377 1.362 1_655 S
C378 C381 1.409 1_655 S
C379 H371 0.930 . S
C379 C380 1.355 1_655 S
C379 C381 1.415 1_655 S
C380 C379 1.355 1_455 S
C380 C382 1.419 . S
C381 C376 1.425 . S
C381 C378 1.409 1_455 S
C381 C379 1.415 1_455 S
C382 H372 0.930 . S
C382 C380 1.419 . S
C382 C383 1.362 . S
C383 H373 0.930 . S
C383 C376 1.409 . S
C383 C382 1.362 . S
C268 C237 1.618 . S
C263 C11 0.923 1_545 S
C284 C248 1.375 . S
C279 C115 1.241 . S
C300 C236 1.437 1_545 S
C295 C1 1.206 . S
C316 C249 1.532 . S
C311 C125 1.112 . S
C332 C251 1.660 . S
C327 C55 1.270 . S
C348 C235 1.511 . S
C343 C143 1.249 . S
C364 C250 1.540 . S
C359 C29 1.202 . S
C375 C169 1.142 . S
C380 C234 1.599 . S
