# Generated by pormake.
# Topology ssb, (4,4)-cn, num edge types: 1
# Building blocks:
#     Node 0, Type 0, BuildingBlock: NAHDIM_clean_linker_0, # of connection points: 4
#     Node 1, Type 0, BuildingBlock: NAHDIM_clean_linker_0, # of connection points: 4
#     Node 2, Type 0, BuildingBlock: NAHDIM_clean_linker_0, # of connection points: 4
#     Node 3, Type 0, BuildingBlock: NAHDIM_clean_linker_0, # of connection points: 4
#     Node 4, Type 0, BuildingBlock: NAHDIM_clean_linker_0, # of connection points: 4
#     Node 5, Type 0, BuildingBlock: NAHDIM_clean_linker_0, # of connection points: 4
#     Node 6, Type 0, BuildingBlock: NAHDIM_clean_linker_0, # of connection points: 4
#     Node 7, Type 0, BuildingBlock: NAHDIM_clean_linker_0, # of connection points: 4
#     Node 8, Type 1, BuildingBlock: KOZSID_clean_sbu_0, # of connection points: 4
#     Node 9, Type 1, BuildingBlock: KOZSID_clean_sbu_0, # of connection points: 4
#     Node 10, Type 1, BuildingBlock: KOZSID_clean_sbu_0, # of connection points: 4
#     Node 11, Type 1, BuildingBlock: KOZSID_clean_sbu_0, # of connection points: 4
#     Node 12, Type 1, BuildingBlock: KOZSID_clean_sbu_0, # of connection points: 4
#     Node 13, Type 1, BuildingBlock: KOZSID_clean_sbu_0, # of connection points: 4
#     Node 14, Type 1, BuildingBlock: KOZSID_clean_sbu_0, # of connection points: 4
#     Node 15, Type 1, BuildingBlock: KOZSID_clean_sbu_0, # of connection points: 4
#     Edge 16, Type (0, 1), BuildingBlock: TEMPAE_clean_linker_10, # of connection points: 2
#     Edge 17, Type (0, 1), BuildingBlock: TEMPAE_clean_linker_10, # of connection points: 2
#     Edge 18, Type (0, 1), BuildingBlock: TEMPAE_clean_linker_10, # of connection points: 2
#     Edge 19, Type (0, 1), BuildingBlock: TEMPAE_clean_linker_10, # of connection points: 2
#     Edge 20, Type (0, 1), BuildingBlock: TEMPAE_clean_linker_10, # of connection points: 2
#     Edge 21, Type (0, 1), BuildingBlock: TEMPAE_clean_linker_10, # of connection points: 2
#     Edge 22, Type (0, 1), BuildingBlock: TEMPAE_clean_linker_10, # of connection points: 2
#     Edge 23, Type (0, 1), BuildingBlock: TEMPAE_clean_linker_10, # of connection points: 2
#     Edge 24, Type (0, 1), BuildingBlock: TEMPAE_clean_linker_10, # of connection points: 2
#     Edge 25, Type (0, 1), BuildingBlock: TEMPAE_clean_linker_10, # of connection points: 2
#     Edge 26, Type (0, 1), BuildingBlock: TEMPAE_clean_linker_10, # of connection points: 2
#     Edge 27, Type (0, 1), BuildingBlock: TEMPAE_clean_linker_10, # of connection points: 2
#     Edge 28, Type (0, 1), BuildingBlock: TEMPAE_clean_linker_10, # of connection points: 2
#     Edge 29, Type (0, 1), BuildingBlock: TEMPAE_clean_linker_10, # of connection points: 2
#     Edge 30, Type (0, 1), BuildingBlock: TEMPAE_clean_linker_10, # of connection points: 2
#     Edge 31, Type (0, 1), BuildingBlock: TEMPAE_clean_linker_10, # of connection points: 2
#     Edge 32, Type (0, 1), BuildingBlock: TEMPAE_clean_linker_10, # of connection points: 2
#     Edge 33, Type (0, 1), BuildingBlock: TEMPAE_clean_linker_10, # of connection points: 2
#     Edge 34, Type (0, 1), BuildingBlock: TEMPAE_clean_linker_10, # of connection points: 2
#     Edge 35, Type (0, 1), BuildingBlock: TEMPAE_clean_linker_10, # of connection points: 2
#     Edge 36, Type (0, 1), BuildingBlock: TEMPAE_clean_linker_10, # of connection points: 2
#     Edge 37, Type (0, 1), BuildingBlock: TEMPAE_clean_linker_10, # of connection points: 2
#     Edge 38, Type (0, 1), BuildingBlock: TEMPAE_clean_linker_10, # of connection points: 2
#     Edge 39, Type (0, 1), BuildingBlock: TEMPAE_clean_linker_10, # of connection points: 2
#     Edge 40, Type (0, 1), BuildingBlock: TEMPAE_clean_linker_10, # of connection points: 2
#     Edge 41, Type (0, 1), BuildingBlock: TEMPAE_clean_linker_10, # of connection points: 2
#     Edge 42, Type (0, 1), BuildingBlock: TEMPAE_clean_linker_10, # of connection points: 2
#     Edge 43, Type (0, 1), BuildingBlock: TEMPAE_clean_linker_10, # of connection points: 2
#     Edge 44, Type (0, 1), BuildingBlock: TEMPAE_clean_linker_10, # of connection points: 2
#     Edge 45, Type (0, 1), BuildingBlock: TEMPAE_clean_linker_10, # of connection points: 2
#     Edge 46, Type (0, 1), BuildingBlock: TEMPAE_clean_linker_10, # of connection points: 2
#     Edge 47, Type (0, 1), BuildingBlock: TEMPAE_clean_linker_10, # of connection points: 2
# Relax obj value: 0.004
# Max RMSD: 0.052
# Mean RMSD: 0.032
data_MOF--net-ssb--node1-KOZSID_clean_sbu_0--node2-NAHDIM_clean_linker_0--edge1-TEMPAE_clean_linker_10
_symmetry_space_group_name_H-M    P1
_symmetry_Int_Tables_number       1
_symmetry_cell_setting            triclinic
loop_
_symmetry_equiv_pos_as_xyz
'x, y, z'
_cell_length_a     72.657745
_cell_length_b     72.607339
_cell_length_c     53.051964
_cell_angle_alpha  92.014668
_cell_angle_beta   93.972252
_cell_angle_gamma 90.033156
loop_
_atom_site_label
_atom_site_type_symbol
_atom_site_fract_x
_atom_site_fract_y
_atom_site_fract_z
_atom_type_partial_charge
C0 C 0.31301 0.14302 0.33675 0.0
C1 C 0.30541 0.15086 0.36112 0.0
C2 C 0.28673 0.17601 0.34497 0.0
C3 C 0.2961 0.19158 0.35566 0.0
C4 C 0.29508 0.20844 0.34353 0.0
C5 C 0.28459 0.20964 0.32014 0.0
C6 C 0.27458 0.19408 0.30982 0.0
C7 C 0.27554 0.1775 0.32267 0.0
C8 C 0.3056 0.22485 0.35534 0.0
C9 C 0.26345 0.19477 0.28477 0.0
C10 C 0.38646 0.21433 0.23824 0.0
C11 C 0.37423 0.22228 0.21661 0.0
C12 C 0.35144 0.24178 0.23538 0.0
C13 C 0.3349 0.23404 0.22467 0.0
C14 C 0.31864 0.23541 0.23741 0.0
C15 C 0.31899 0.24477 0.26129 0.0
C16 C 0.33545 0.25342 0.27149 0.0
C17 C 0.35148 0.25197 0.2582 0.0
C18 C 0.30122 0.22641 0.22571 0.0
C19 C 0.33625 0.2636 0.29682 0.0
C20 C 0.24859 0.34222 0.22105 0.0
C21 C 0.2402 0.32532 0.21325 0.0
C22 C 0.23927 0.31095 0.23008 0.0
C23 C 0.24655 0.31362 0.25536 0.0
C24 C 0.25428 0.33086 0.2636 0.0
C25 C 0.2551 0.345 0.24631 0.0
C26 C 0.23066 0.29282 0.22076 0.0
C27 C 0.26201 0.33416 0.2905 0.0
C28 C 0.15912 0.24083 0.36097 0.0
C29 C 0.16088 0.26096 0.37054 0.0
C30 C 0.179 0.27443 0.33915 0.0
C31 C 0.1793 0.27078 0.3132 0.0
C32 C 0.19565 0.27253 0.30091 0.0
C33 C 0.21193 0.27878 0.31488 0.0
C34 C 0.21147 0.28323 0.34105 0.0
C35 C 0.19502 0.28079 0.35298 0.0
C36 C 0.19545 0.26777 0.27297 0.0
C37 C 0.22831 0.29066 0.35634 0.0
C38 C 0.28548 0.2266 0.30546 0.0
C39 C 0.30078 0.22875 0.29127 0.0
C40 C 0.30261 0.24408 0.27648 0.0
C41 C 0.28885 0.25782 0.27582 0.0
C42 C 0.2902 0.27337 0.26101 0.0
C43 C 0.27642 0.28668 0.2602 0.0
C44 C 0.26075 0.28493 0.27412 0.0
C45 C 0.24646 0.29813 0.27286 0.0
C46 C 0.23108 0.29601 0.28692 0.0
C47 C 0.22931 0.28077 0.30197 0.0
C48 C 0.24341 0.2673 0.30332 0.0
C49 C 0.24201 0.25162 0.31793 0.0
C50 C 0.25589 0.2384 0.31898 0.0
C51 C 0.27153 0.24017 0.30507 0.0
C52 C 0.27324 0.25585 0.29018 0.0
C53 C 0.25919 0.26944 0.28937 0.0
C54 C 0.27492 0.35225 0.17733 0.0
C55 C 0.25407 0.35415 0.17966 0.0
O56 O 0.28857 0.15932 0.35555 0.0
O57 O 0.16297 0.27215 0.35029 0.0
O58 O 0.25045 0.35615 0.20493 0.0
O59 O 0.36756 0.23934 0.22424 0.0
H60 H 0.31551 0.16107 0.37002 0.0
H61 H 0.31533 0.15433 0.32375 0.0
H62 H 0.30314 0.13297 0.32702 0.0
H63 H 0.32642 0.13605 0.34102 0.0
H64 H 0.30426 0.19053 0.37342 0.0
H65 H 0.26823 0.16538 0.31476 0.0
H66 H 0.31737 0.22793 0.34389 0.0
H67 H 0.31106 0.22239 0.37501 0.0
H68 H 0.29657 0.23719 0.35545 0.0
H69 H 0.25704 0.18126 0.27889 0.0
H70 H 0.27243 0.19904 0.26989 0.0
H71 H 0.25237 0.2052 0.28603 0.0
H72 H 0.36269 0.21234 0.21217 0.0
H73 H 0.39218 0.20081 0.23225 0.0
H74 H 0.37817 0.21222 0.25473 0.0
H75 H 0.39804 0.22386 0.24427 0.0
H76 H 0.33473 0.2268 0.20646 0.0
H77 H 0.3643 0.25814 0.26608 0.0
H78 H 0.28968 0.23644 0.22545 0.0
H79 H 0.2974 0.21478 0.23736 0.0
H80 H 0.3028 0.22106 0.20611 0.0
H81 H 0.34993 0.2701 0.30177 0.0
H82 H 0.33328 0.25389 0.31175 0.0
H83 H 0.3255 0.27446 0.29675 0.0
H84 H 0.24778 0.34139 0.17079 0.0
H85 H 0.23411 0.32324 0.19421 0.0
H86 H 0.26125 0.35818 0.25229 0.0
H87 H 0.24102 0.28164 0.22285 0.0
H88 H 0.22536 0.29303 0.20062 0.0
H89 H 0.2191 0.28943 0.2324 0.0
H90 H 0.26728 0.34845 0.29409 0.0
H91 H 0.27345 0.32437 0.29475 0.0
H92 H 0.25117 0.33152 0.3037 0.0
H93 H 0.17318 0.26222 0.38424 0.0
H94 H 0.15756 0.23161 0.37696 0.0
H95 H 0.17171 0.23661 0.35155 0.0
H96 H 0.14698 0.23906 0.34715 0.0
H97 H 0.16673 0.26612 0.3027 0.0
H98 H 0.19455 0.28418 0.37297 0.0
H99 H 0.20761 0.25925 0.2687 0.0
H100 H 0.19615 0.28067 0.26248 0.0
H101 H 0.18272 0.2602 0.26591 0.0
H102 H 0.22508 0.29561 0.37559 0.0
H103 H 0.23444 0.3022 0.34653 0.0
H104 H 0.23887 0.27967 0.35824 0.0
H105 H 0.31136 0.21819 0.29153 0.0
H106 H 0.3019 0.27538 0.24983 0.0
H107 H 0.27819 0.29834 0.24842 0.0
H108 H 0.22008 0.30611 0.28557 0.0
H109 H 0.23016 0.24937 0.32873 0.0
H110 H 0.25413 0.22668 0.33065 0.0
H111 H 0.28266 0.36361 0.18787 0.0
H112 H 0.27813 0.35219 0.15715 0.0
H113 H 0.27977 0.33904 0.18536 0.0
C114 C 0.68078 0.21553 0.12523 0.0
C115 C 0.66641 0.2137 0.14491 0.0
C116 C 0.68051 0.22922 0.18361 0.0
C117 C 0.67896 0.24426 0.20048 0.0
C118 C 0.69136 0.2468 0.22182 0.0
C119 C 0.70595 0.23415 0.22599 0.0
C120 C 0.7075 0.21874 0.20917 0.0
C121 C 0.69464 0.21631 0.18833 0.0
C122 C 0.68902 0.26314 0.23966 0.0
C123 C 0.72288 0.20492 0.21299 0.0
C124 C 0.73523 0.14085 0.37544 0.0
C125 C 0.74217 0.15509 0.35898 0.0
C126 C 0.73327 0.18503 0.34263 0.0
C127 C 0.74493 0.18389 0.32257 0.0
C128 C 0.7449 0.19764 0.30472 0.0
C129 C 0.73332 0.21317 0.30731 0.0
C130 C 0.72175 0.21454 0.32767 0.0
C131 C 0.72184 0.20038 0.34504 0.0
C132 C 0.75718 0.1954 0.28296 0.0
C133 C 0.70926 0.23091 0.33096 0.0
C134 C 0.84525 0.26991 0.32775 0.0
C135 C 0.84102 0.25657 0.30835 0.0
C136 C 0.82447 0.25731 0.29323 0.0
C137 C 0.81199 0.27191 0.29716 0.0
C138 C 0.81606 0.2853 0.31674 0.0
C139 C 0.83262 0.28404 0.33191 0.0
C140 C 0.82033 0.24243 0.27301 0.0
C141 C 0.80294 0.30091 0.32154 0.0
C142 C 0.76944 0.30973 0.10235 0.0
C143 C 0.77315 0.31922 0.12841 0.0
C144 C 0.78763 0.30521 0.1658 0.0
C145 C 0.79725 0.28933 0.17255 0.0
C146 C 0.79629 0.28223 0.19664 0.0
C147 C 0.78583 0.29164 0.21458 0.0
C148 C 0.77729 0.30857 0.20849 0.0
C149 C 0.77818 0.31515 0.18405 0.0
C150 C 0.80606 0.2644 0.20259 0.0
C151 C 0.76665 0.31933 0.22749 0.0
C152 C 0.72008 0.23733 0.24731 0.0
C153 C 0.7192 0.22665 0.2686 0.0
C154 C 0.73311 0.22759 0.28818 0.0
C155 C 0.74788 0.24017 0.28722 0.0
C156 C 0.76182 0.2418 0.30693 0.0
C157 C 0.77713 0.25303 0.30486 0.0
C158 C 0.77902 0.26311 0.28303 0.0
C159 C 0.79515 0.27344 0.27988 0.0
C160 C 0.79652 0.28346 0.25806 0.0
C161 C 0.78248 0.28286 0.23868 0.0
C162 C 0.76642 0.27225 0.24121 0.0
C163 C 0.75236 0.27072 0.22162 0.0
C164 C 0.73705 0.25956 0.22374 0.0
C165 C 0.73517 0.24942 0.24551 0.0
C166 C 0.74907 0.2509 0.2656 0.0
C167 C 0.76469 0.26236 0.26348 0.0
C168 C 0.87222 0.23927 0.35224 0.0
C169 C 0.87603 0.25786 0.34058 0.0
O170 O 0.66827 0.22794 0.16301 0.0
O171 O 0.78748 0.31029 0.14144 0.0
O172 O 0.86117 0.26964 0.34289 0.0
O173 O 0.73246 0.17152 0.35965 0.0
H174 H 0.66839 0.20023 0.1541 0.0
H175 H 0.69496 0.21422 0.13413 0.0
H176 H 0.67971 0.22913 0.1163 0.0
H177 H 0.67873 0.20447 0.11028 0.0
H178 H 0.66796 0.2541 0.19682 0.0
H179 H 0.69599 0.20445 0.17572 0.0
H180 H 0.68976 0.25866 0.25951 0.0
H181 H 0.6757 0.27031 0.23559 0.0
H182 H 0.70041 0.27311 0.23797 0.0
H183 H 0.72334 0.19485 0.19679 0.0
H184 H 0.72092 0.19722 0.23031 0.0
H185 H 0.73641 0.21211 0.21571 0.0
H186 H 0.75743 0.15721 0.36061 0.0
H187 H 0.72532 0.11989 0.34973 0.0
H188 H 0.72618 0.14823 0.38893 0.0
H189 H 0.7469 0.13866 0.39011 0.0
H190 H 0.754 0.1722 0.32052 0.0
H191 H 0.71288 0.20117 0.36056 0.0
H192 H 0.74941 0.19834 0.2648 0.0
H193 H 0.76304 0.18131 0.28148 0.0
H194 H 0.76879 0.20536 0.28568 0.0
H195 H 0.70238 0.23074 0.34901 0.0
H196 H 0.69849 0.23092 0.31506 0.0
H197 H 0.71729 0.24389 0.33044 0.0
H198 H 0.87849 0.25546 0.32026 0.0
H199 H 0.8505 0.24548 0.30477 0.0
H200 H 0.8359 0.29424 0.34697 0.0
H201 H 0.80759 0.23494 0.27698 0.0
H202 H 0.83172 0.23231 0.27186 0.0
H203 H 0.81782 0.24868 0.25433 0.0
H204 H 0.80766 0.30971 0.33831 0.0
H205 H 0.78905 0.29531 0.32446 0.0
H206 H 0.80154 0.30961 0.30472 0.0
H207 H 0.76015 0.31787 0.13819 0.0
H208 H 0.75805 0.31677 0.09145 0.0
H209 H 0.7653 0.29517 0.10455 0.0
H210 H 0.78198 0.30983 0.09149 0.0
H211 H 0.80485 0.28203 0.15845 0.0
H212 H 0.77133 0.32791 0.17917 0.0
H213 H 0.7965 0.25454 0.21051 0.0
H214 H 0.81758 0.26726 0.21705 0.0
H215 H 0.81183 0.25778 0.18568 0.0
H216 H 0.76327 0.33344 0.22124 0.0
H217 H 0.7747 0.32032 0.24607 0.0
H218 H 0.75357 0.312 0.23023 0.0
H219 H 0.70807 0.21675 0.26929 0.0
H220 H 0.76117 0.23416 0.32402 0.0
H221 H 0.7876 0.25354 0.32042 0.0
H222 H 0.80912 0.29101 0.2555 0.0
H223 H 0.75312 0.27794 0.20422 0.0
H224 H 0.72684 0.25878 0.20788 0.0
H225 H 0.88437 0.23007 0.35097 0.0
H226 H 0.86019 0.23222 0.34214 0.0
H227 H 0.86921 0.24121 0.37241 0.0
C228 C 0.71449 0.87681 0.31303 0.0
C229 C 0.71091 0.86768 0.33786 0.0
C230 C 0.72249 0.83708 0.33077 0.0
C231 C 0.71081 0.82355 0.33894 0.0
C232 C 0.70916 0.80627 0.32618 0.0
C233 C 0.71922 0.80272 0.3046 0.0
C234 C 0.73108 0.81649 0.29643 0.0
C235 C 0.73284 0.8334 0.30999 0.0
C236 C 0.69665 0.79186 0.33568 0.0
C237 C 0.74171 0.81352 0.27315 0.0
C238 C 0.64734 0.73122 0.14656 0.0
C239 C 0.64693 0.75174 0.15433 0.0
C240 C 0.65619 0.75883 0.19878 0.0
C241 C 0.67027 0.77162 0.19556 0.0
C242 C 0.68419 0.77513 0.21476 0.0
C243 C 0.68369 0.76603 0.23784 0.0
C244 C 0.66861 0.75444 0.24196 0.0
C245 C 0.65501 0.75099 0.22228 0.0
C246 C 0.6998 0.78802 0.21005 0.0
C247 C 0.66734 0.74507 0.2667 0.0
C248 C 0.76075 0.6739 0.19431 0.0
C249 C 0.76643 0.69202 0.1902 0.0
C250 C 0.76575 0.70588 0.20921 0.0
C251 C 0.75929 0.7016 0.23286 0.0
C252 C 0.75359 0.68343 0.23713 0.0
C253 C 0.75436 0.66982 0.21775 0.0
C254 C 0.77193 0.72516 0.204 0.0
C255 C 0.74664 0.67843 0.26215 0.0
C256 C 0.83266 0.77243 0.39146 0.0
C257 C 0.83638 0.75292 0.38111 0.0
C258 C 0.82227 0.74642 0.33829 0.0
C259 C 0.82006 0.75459 0.31485 0.0
C260 C 0.80536 0.7496 0.29747 0.0
C261 C 0.79258 0.73612 0.30386 0.0
C262 C 0.79552 0.7268 0.32672 0.0
C263 C 0.81051 0.73189 0.34362 0.0
C264 C 0.80304 0.75931 0.27276 0.0
C265 C 0.78245 0.71193 0.33364 0.0
C266 C 0.71706 0.78487 0.29007 0.0
C267 C 0.7015 0.78248 0.27323 0.0
C268 C 0.69982 0.76717 0.2565 0.0
C269 C 0.71405 0.75389 0.25627 0.0
C270 C 0.7132 0.73878 0.23883 0.0
C271 C 0.72765 0.72626 0.23799 0.0
C272 C 0.74351 0.72833 0.25458 0.0
C273 C 0.75867 0.71622 0.25309 0.0
C274 C 0.77428 0.71877 0.26977 0.0
C275 C 0.77522 0.73323 0.28789 0.0
C276 C 0.76021 0.74547 0.28971 0.0
C277 C 0.76077 0.76018 0.30777 0.0
C278 C 0.74648 0.77288 0.30829 0.0
C279 C 0.73104 0.77132 0.29088 0.0
C280 C 0.72971 0.756 0.27352 0.0
C281 C 0.7444 0.74314 0.27278 0.0
C282 C 0.75264 0.66935 0.13417 0.0
C283 C 0.76742 0.66094 0.15237 0.0
O284 O 0.72368 0.85386 0.3427 0.0
O285 O 0.83595 0.75295 0.35497 0.0
O286 O 0.76109 0.66002 0.17637 0.0
O287 O 0.64364 0.75364 0.17972 0.0
H288 H 0.69677 0.86157 0.33601 0.0
H289 H 0.7124 0.86668 0.29691 0.0
H290 H 0.72885 0.88218 0.31364 0.0
H291 H 0.70472 0.88838 0.30958 0.0
H292 H 0.70299 0.82658 0.35524 0.0
H293 H 0.7419 0.84402 0.30402 0.0
H294 H 0.68463 0.78959 0.32184 0.0
H295 H 0.69149 0.79597 0.35429 0.0
H296 H 0.70408 0.77855 0.33746 0.0
H297 H 0.74786 0.82653 0.2671 0.0
H298 H 0.7326 0.80761 0.25722 0.0
H299 H 0.75304 0.80359 0.27716 0.0
H300 H 0.66075 0.75712 0.1505 0.0
H301 H 0.64868 0.72944 0.12588 0.0
H302 H 0.63471 0.724 0.15163 0.0
H303 H 0.65941 0.72461 0.15656 0.0
H304 H 0.67059 0.77876 0.17802 0.0
H305 H 0.64378 0.74156 0.22483 0.0
H306 H 0.70048 0.79948 0.22449 0.0
H307 H 0.69822 0.79393 0.191 0.0
H308 H 0.71313 0.78054 0.21188 0.0
H309 H 0.65366 0.73849 0.26812 0.0
H310 H 0.66992 0.75517 0.28278 0.0
H311 H 0.67814 0.73428 0.26851 0.0
H312 H 0.78004 0.66968 0.15312 0.0
H313 H 0.77136 0.69559 0.17224 0.0
H314 H 0.74999 0.65585 0.22083 0.0
H315 H 0.76031 0.73491 0.206 0.0
H316 H 0.77686 0.72623 0.18475 0.0
H317 H 0.78323 0.72956 0.21809 0.0
H318 H 0.74241 0.66373 0.26238 0.0
H319 H 0.73467 0.68724 0.26637 0.0
H320 H 0.75761 0.68114 0.27747 0.0
H321 H 0.82535 0.74417 0.38787 0.0
H322 H 0.83414 0.77291 0.41247 0.0
H323 H 0.81833 0.7765 0.38541 0.0
H324 H 0.84221 0.78263 0.38425 0.0
H325 H 0.82955 0.76539 0.31059 0.0
H326 H 0.81282 0.72447 0.36086 0.0
H327 H 0.79109 0.76882 0.27319 0.0
H328 H 0.80012 0.74915 0.25684 0.0
H329 H 0.81547 0.76743 0.26908 0.0
H330 H 0.78687 0.70568 0.35188 0.0
H331 H 0.78146 0.70091 0.31855 0.0
H332 H 0.76843 0.71781 0.33505 0.0
H333 H 0.69089 0.79299 0.27248 0.0
H334 H 0.70146 0.73657 0.22535 0.0
H335 H 0.72631 0.71503 0.224 0.0
H336 H 0.78604 0.70969 0.2682 0.0
H337 H 0.77238 0.76222 0.3215 0.0
H338 H 0.74777 0.78407 0.32235 0.0
H339 H 0.75757 0.66964 0.11482 0.0
H340 H 0.74953 0.6837 0.14032 0.0
H341 H 0.73962 0.66125 0.13347 0.0
C342 C 0.33964 0.83741 0.1644 0.0
C343 C 0.34318 0.81667 0.16176 0.0
C344 C 0.31534 0.79933 0.16614 0.0
C345 C 0.32139 0.7856 0.18262 0.0
C346 C 0.30948 0.77826 0.19941 0.0
C347 C 0.29121 0.78499 0.19978 0.0
C348 C 0.2848 0.79812 0.18214 0.0
C349 C 0.29695 0.80496 0.16523 0.0
C350 C 0.31664 0.76388 0.2174 0.0
C351 C 0.26539 0.80552 0.18192 0.0
C352 C 0.27686 0.8179 0.39994 0.0
C353 C 0.27514 0.82809 0.37514 0.0
C354 C 0.28406 0.81281 0.33601 0.0
C355 C 0.26994 0.81925 0.31918 0.0
C356 C 0.26615 0.81043 0.29541 0.0
C357 C 0.27664 0.79485 0.28851 0.0
C358 C 0.29122 0.78873 0.30518 0.0
C359 C 0.29488 0.79798 0.32863 0.0
C360 C 0.25089 0.81765 0.2777 0.0
C361 C 0.30281 0.7723 0.29835 0.0
C362 C 0.18402 0.72034 0.31369 0.0
C363 C 0.17826 0.73298 0.29536 0.0
C364 C 0.18859 0.73566 0.27442 0.0
C365 C 0.20488 0.72534 0.27166 0.0
C366 C 0.21015 0.71187 0.28938 0.0
C367 C 0.19952 0.70945 0.31013 0.0
C368 C 0.18237 0.74984 0.25555 0.0
C369 C 0.22734 0.70052 0.28683 0.0
C370 C 0.22622 0.6924 0.06872 0.0
C371 C 0.22771 0.68507 0.09545 0.0
C372 C 0.21552 0.69876 0.13352 0.0
C373 C 0.20407 0.71302 0.14118 0.0
C374 C 0.20636 0.72104 0.16563 0.0
C375 C 0.22022 0.71427 0.18293 0.0
C376 C 0.23098 0.69895 0.17585 0.0
C377 C 0.22859 0.69139 0.15113 0.0
C378 C 0.19445 0.73717 0.17269 0.0
C379 C 0.2454 0.69098 0.19417 0.0
C380 C 0.27952 0.77968 0.22023 0.0
C381 C 0.28247 0.78904 0.24363 0.0
C382 C 0.27227 0.78479 0.26401 0.0
C383 C 0.25856 0.77091 0.26106 0.0
C384 C 0.24803 0.7663 0.2812 0.0
C385 C 0.23444 0.75277 0.27804 0.0
C386 C 0.23095 0.74318 0.25468 0.0
C387 C 0.21701 0.72954 0.25121 0.0
C388 C 0.21398 0.72017 0.22782 0.0
C389 C 0.22447 0.72418 0.20757 0.0
C390 C 0.2384 0.73787 0.21061 0.0
C391 C 0.24912 0.74235 0.19055 0.0
C392 C 0.2627 0.75592 0.19369 0.0
C393 C 0.26595 0.76569 0.2169 0.0
C394 C 0.25537 0.76135 0.2374 0.0
C395 C 0.24161 0.74742 0.23425 0.0
C396 C 0.18313 0.73666 0.37212 0.0
C397 C 0.16882 0.73274 0.35003 0.0
O398 O 0.32724 0.80785 0.15177 0.0
O399 O 0.21377 0.6927 0.10896 0.0
O400 O 0.17489 0.71833 0.33489 0.0
O401 O 0.28786 0.82071 0.35932 0.0
H402 H 0.3471 0.81195 0.18117 0.0
H403 H 0.32882 0.84004 0.17788 0.0
H404 H 0.33484 0.8431 0.14593 0.0
H405 H 0.35243 0.84474 0.17181 0.0
H406 H 0.33556 0.78092 0.18267 0.0
H407 H 0.29241 0.81543 0.15213 0.0
H408 H 0.31885 0.77027 0.23668 0.0
H409 H 0.32993 0.75791 0.21192 0.0
H410 H 0.3064 0.75258 0.21819 0.0
H411 H 0.26259 0.81581 0.16713 0.0
H412 H 0.26302 0.81208 0.20064 0.0
H413 H 0.25535 0.79402 0.17853 0.0
H414 H 0.26077 0.82587 0.36684 0.0
H415 H 0.29088 0.81986 0.40946 0.0
H416 H 0.27446 0.80293 0.39605 0.0
H417 H 0.26645 0.82299 0.41288 0.0
H418 H 0.26203 0.83125 0.32446 0.0
H419 H 0.30595 0.79336 0.34163 0.0
H420 H 0.25622 0.82015 0.259 0.0
H421 H 0.24487 0.83064 0.28513 0.0
H422 H 0.23976 0.80716 0.2747 0.0
H423 H 0.31285 0.76857 0.31409 0.0
H424 H 0.31054 0.77541 0.28168 0.0
H425 H 0.2938 0.76021 0.29308 0.0
H426 H 0.16742 0.74565 0.33939 0.0
H427 H 0.16571 0.74077 0.29738 0.0
H428 H 0.20363 0.69949 0.32417 0.0
H429 H 0.19299 0.76082 0.25537 0.0
H430 H 0.16905 0.7563 0.25991 0.0
H431 H 0.18083 0.74332 0.23627 0.0
H432 H 0.22904 0.68995 0.30146 0.0
H433 H 0.23962 0.7097 0.28854 0.0
H434 H 0.2269 0.69353 0.26784 0.0
H435 H 0.24144 0.68966 0.10411 0.0
H436 H 0.23728 0.68644 0.05751 0.0
H437 H 0.22781 0.70763 0.06963 0.0
H438 H 0.21258 0.68892 0.05892 0.0
H439 H 0.19381 0.71836 0.12755 0.0
H440 H 0.23704 0.67986 0.14559 0.0
H441 H 0.20328 0.74936 0.17812 0.0
H442 H 0.18678 0.73381 0.18934 0.0
H443 H 0.18437 0.74087 0.15699 0.0
H444 H 0.25111 0.67782 0.1868 0.0
H445 H 0.23943 0.68853 0.21248 0.0
H446 H 0.2569 0.70099 0.19792 0.0
H447 H 0.29297 0.79972 0.24609 0.0
H448 H 0.2501 0.77318 0.29962 0.0
H449 H 0.2267 0.74992 0.29419 0.0
H450 H 0.20319 0.7098 0.22526 0.0
H451 H 0.24715 0.73541 0.17217 0.0
H452 H 0.27056 0.75873 0.17764 0.0
H453 H 0.17834 0.748 0.38465 0.0
H454 H 0.19637 0.74094 0.36479 0.0
H455 H 0.18566 0.72418 0.38338 0.0
C456 C 0.1539 0.68368 0.66212 0.0
C457 C 0.15179 0.70415 0.65619 0.0
C458 C 0.18217 0.71753 0.66434 0.0
C459 C 0.17897 0.73082 0.68336 0.0
C460 C 0.19305 0.73605 0.7016 0.0
C461 C 0.21067 0.72792 0.70057 0.0
C462 C 0.21426 0.71546 0.6804 0.0
C463 C 0.19991 0.71053 0.66233 0.0
C464 C 0.18893 0.74975 0.7225 0.0
C465 C 0.23301 0.70682 0.67855 0.0
C466 C 0.23322 0.63995 0.85998 0.0
C467 C 0.23908 0.65165 0.83943 0.0
C468 C 0.23136 0.68047 0.81869 0.0
C469 C 0.24579 0.67943 0.80231 0.0
C470 C 0.24802 0.69305 0.7846 0.0
C471 C 0.23591 0.70831 0.78367 0.0
C472 C 0.2218 0.70973 0.80075 0.0
C473 C 0.21964 0.69571 0.81789 0.0
C474 C 0.263 0.69083 0.76638 0.0
C475 C 0.20871 0.72586 0.8005 0.0
C476 C 0.33174 0.78691 0.82672 0.0
C477 C 0.33383 0.77266 0.80864 0.0
C478 C 0.32059 0.76982 0.78834 0.0
C479 C 0.30488 0.78136 0.78638 0.0
C480 C 0.30295 0.79593 0.80442 0.0
C481 C 0.3166 0.79868 0.82419 0.0
C482 C 0.32346 0.75459 0.76891 0.0
C483 C 0.28644 0.80854 0.80287 0.0
C484 C 0.265 0.83121 0.60669 0.0
C485 C 0.27012 0.84434 0.62929 0.0
C486 C 0.28269 0.8253 0.66329 0.0
C487 C 0.29398 0.80976 0.66481 0.0
C488 C 0.29256 0.79725 0.68416 0.0
C489 C 0.2798 0.80066 0.70274 0.0
C490 C 0.26874 0.8167 0.70175 0.0
C491 C 0.27028 0.82885 0.68199 0.0
C492 C 0.30466 0.78037 0.68475 0.0
C493 C 0.25546 0.82108 0.72176 0.0
C494 C 0.22475 0.73115 0.72183 0.0
C495 C 0.22445 0.71952 0.74221 0.0
C496 C 0.23691 0.72179 0.76334 0.0
C497 C 0.2501 0.73619 0.76428 0.0
C498 C 0.2626 0.73921 0.78545 0.0
C499 C 0.27582 0.75313 0.78589 0.0
C500 C 0.27703 0.76456 0.76517 0.0
C501 C 0.29069 0.77845 0.76516 0.0
C502 C 0.2912 0.78986 0.74456 0.0
C503 C 0.27847 0.78779 0.72369 0.0
C504 C 0.26492 0.77374 0.72309 0.0
C505 C 0.2521 0.77103 0.70219 0.0
C506 C 0.23886 0.75714 0.70177 0.0
C507 C 0.23801 0.74539 0.72216 0.0
C508 C 0.25077 0.74789 0.74347 0.0
C509 C 0.26424 0.76209 0.74392 0.0
C510 C 0.34121 0.77774 0.88659 0.0
C511 C 0.3515 0.77668 0.86235 0.0
O512 O 0.16823 0.71083 0.64829 0.0
O513 O 0.28454 0.83688 0.64407 0.0
O514 O 0.34442 0.79 0.84634 0.0
O515 O 0.22816 0.66705 0.83517 0.0
H516 H 0.14827 0.71116 0.67422 0.0
H517 H 0.16333 0.68227 0.67933 0.0
H518 H 0.15997 0.67581 0.64641 0.0
H519 H 0.14034 0.6776 0.66575 0.0
H520 H 0.1654 0.73687 0.68418 0.0
H521 H 0.20228 0.70052 0.64726 0.0
H522 H 0.1898 0.74279 0.74084 0.0
H523 H 0.17498 0.7559 0.71951 0.0
H524 H 0.19937 0.76098 0.72386 0.0
H525 H 0.23384 0.69815 0.66098 0.0
H526 H 0.23617 0.69811 0.69508 0.0
H527 H 0.24375 0.71773 0.67904 0.0
H528 H 0.24199 0.64381 0.82169 0.0
H529 H 0.22915 0.62634 0.85035 0.0
H530 H 0.21866 0.64411 0.86352 0.0
H531 H 0.25512 0.64256 0.88766 0.0
H532 H 0.25518 0.66787 0.80283 0.0
H533 H 0.20863 0.69651 0.83067 0.0
H534 H 0.27319 0.70219 0.76978 0.0
H535 H 0.25701 0.69167 0.74662 0.0
H536 H 0.2704 0.67751 0.76832 0.0
H537 H 0.20046 0.72644 0.81737 0.0
H538 H 0.19909 0.72467 0.78333 0.0
H539 H 0.21646 0.739 0.79973 0.0
H540 H 0.34935 0.76261 0.85363 0.0
H541 H 0.34597 0.76401 0.81012 0.0
H542 H 0.31533 0.80981 0.83811 0.0
H543 H 0.31283 0.74374 0.77016 0.0
H544 H 0.33729 0.74816 0.77166 0.0
H545 H 0.32185 0.76003 0.74957 0.0
H546 H 0.28606 0.81797 0.81977 0.0
H547 H 0.2735 0.80031 0.80087 0.0
H548 H 0.28683 0.81698 0.78586 0.0
H549 H 0.25768 0.84607 0.64021 0.0
H550 H 0.25344 0.83697 0.59461 0.0
H551 H 0.26051 0.81773 0.61346 0.0
H552 H 0.27703 0.82889 0.59514 0.0
H553 H 0.30373 0.80732 0.6505 0.0
H554 H 0.26211 0.84131 0.68156 0.0
H555 H 0.29605 0.7678 0.68563 0.0
H556 H 0.31422 0.78107 0.70202 0.0
H557 H 0.31295 0.77904 0.66795 0.0
H558 H 0.24843 0.83451 0.71894 0.0
H559 H 0.26293 0.82142 0.74076 0.0
H560 H 0.24482 0.81008 0.72149 0.0
H561 H 0.21433 0.70847 0.74159 0.0
H562 H 0.26233 0.73078 0.80186 0.0
H563 H 0.28512 0.75479 0.80266 0.0
H564 H 0.30168 0.80054 0.74477 0.0
H565 H 0.25218 0.7796 0.68591 0.0
H566 H 0.22933 0.75567 0.6852 0.0
H567 H 0.34334 0.79144 0.89639 0.0
H568 H 0.34606 0.76684 0.89963 0.0
H569 H 0.3262 0.77566 0.88189 0.0
C570 C 0.19334 0.37062 0.832 0.0
C571 C 0.20249 0.36385 0.8569 0.0
C572 C 0.21889 0.33748 0.83994 0.0
C573 C 0.20706 0.32301 0.84512 0.0
C574 C 0.20746 0.30612 0.83148 0.0
C575 C 0.21977 0.3038 0.81209 0.0
C576 C 0.23188 0.31831 0.80709 0.0
C577 C 0.23152 0.33486 0.8215 0.0
C578 C 0.19475 0.29076 0.83777 0.0
C579 C 0.24506 0.31648 0.78636 0.0
C580 C 0.13592 0.28447 0.64257 0.0
C581 C 0.15398 0.28346 0.65753 0.0
C582 C 0.16785 0.2688 0.69475 0.0
C583 C 0.18478 0.27822 0.6952 0.0
C584 C 0.19738 0.27789 0.71638 0.0
C585 C 0.19287 0.26819 0.7378 0.0
C586 C 0.17592 0.25855 0.73741 0.0
C587 C 0.16372 0.25877 0.71566 0.0
C588 C 0.21546 0.28811 0.71596 0.0
C589 C 0.17063 0.24825 0.76003 0.0
C590 C 0.25432 0.16521 0.72852 0.0
C591 C 0.26378 0.18015 0.71937 0.0
C592 C 0.26737 0.19608 0.73466 0.0
C593 C 0.26126 0.19698 0.75942 0.0
C594 C 0.25283 0.18144 0.76917 0.0
C595 C 0.24964 0.16563 0.75359 0.0
C596 C 0.27701 0.2122 0.72409 0.0
C597 C 0.24648 0.18182 0.79567 0.0
C598 C 0.33371 0.27519 0.91456 0.0
C599 C 0.33659 0.25577 0.90326 0.0
C600 C 0.3225 0.24934 0.86023 0.0
C601 C 0.32083 0.25687 0.83634 0.0
C602 C 0.30672 0.25123 0.81839 0.0
C603 C 0.29382 0.23784 0.82474 0.0
C604 C 0.29613 0.22925 0.84825 0.0
C605 C 0.31065 0.23489 0.86565 0.0
C606 C 0.30526 0.26006 0.79299 0.0
C607 C 0.28298 0.21447 0.85524 0.0
C608 C 0.21973 0.28633 0.79671 0.0
C609 C 0.20616 0.28397 0.77686 0.0
C610 C 0.20598 0.26842 0.76054 0.0
C611 C 0.21944 0.25457 0.76439 0.0
C612 C 0.21947 0.2386 0.74864 0.0
C613 C 0.23305 0.22528 0.75221 0.0
C614 C 0.24752 0.22774 0.77108 0.0
C615 C 0.26185 0.21467 0.7742 0.0
C616 C 0.27667 0.21812 0.79196 0.0
C617 C 0.27717 0.23404 0.80758 0.0
C618 C 0.26231 0.24662 0.80599 0.0
C619 C 0.26175 0.2621 0.82263 0.0
C620 C 0.24754 0.27486 0.8201 0.0
C621 C 0.23354 0.27281 0.80054 0.0
C622 C 0.23345 0.25696 0.78419 0.0
C623 C 0.24772 0.24372 0.78716 0.0
C624 C 0.2227 0.14389 0.68742 0.0
C625 C 0.24293 0.15016 0.68863 0.0
O626 O 0.2184 0.35414 0.85227 0.0
O627 O 0.33578 0.25641 0.87714 0.0
O628 O 0.24955 0.15014 0.71377 0.0
O629 O 0.1551 0.26949 0.67479 0.0
H630 H 0.19261 0.35482 0.86578 0.0
H631 H 0.18924 0.35871 0.81914 0.0
H632 H 0.20303 0.37945 0.82245 0.0
H633 H 0.18071 0.37866 0.83556 0.0
H634 H 0.19769 0.32475 0.86 0.0
H635 H 0.24069 0.34609 0.81786 0.0
H636 H 0.1844 0.28807 0.82166 0.0
H637 H 0.18732 0.2941 0.85496 0.0
H638 H 0.20272 0.27788 0.84073 0.0
H639 H 0.25162 0.32984 0.78259 0.0
H640 H 0.23775 0.31101 0.76858 0.0
H641 H 0.25611 0.30657 0.79186 0.0
H642 H 0.16627 0.28417 0.64612 0.0
H643 H 0.12491 0.3096 0.65483 0.0
H644 H 0.12882 0.27084 0.6445 0.0
H645 H 0.13921 0.2816 0.62238 0.0
H646 H 0.18827 0.28586 0.67904 0.0
H647 H 0.15064 0.25153 0.71517 0.0
H648 H 0.22714 0.27896 0.72172 0.0
H649 H 0.21565 0.29999 0.72972 0.0
H650 H 0.21769 0.29337 0.69699 0.0
H651 H 0.15652 0.24229 0.75724 0.0
H652 H 0.17134 0.25765 0.77705 0.0
H653 H 0.18058 0.23692 0.76379 0.0
H654 H 0.24315 0.16423 0.68101 0.0
H655 H 0.26825 0.17944 0.70031 0.0
H656 H 0.24275 0.15379 0.76056 0.0
H657 H 0.26708 0.22367 0.72122 0.0
H658 H 0.2828 0.20857 0.70572 0.0
H659 H 0.28834 0.21727 0.73771 0.0
H660 H 0.24068 0.16837 0.80066 0.0
H661 H 0.23575 0.19258 0.79755 0.0
H662 H 0.25821 0.18549 0.80945 0.0
H663 H 0.32532 0.24734 0.91 0.0
H664 H 0.33563 0.2752 0.93552 0.0
H665 H 0.31943 0.27981 0.90926 0.0
H666 H 0.34339 0.28526 0.90735 0.0
H667 H 0.33038 0.26761 0.83202 0.0
H668 H 0.31251 0.22791 0.88329 0.0
H669 H 0.29375 0.2701 0.79241 0.0
H670 H 0.30222 0.2495 0.7776 0.0
H671 H 0.31812 0.26748 0.78928 0.0
H672 H 0.28608 0.20983 0.8748 0.0
H673 H 0.2838 0.20239 0.84194 0.0
H674 H 0.26859 0.21965 0.85349 0.0
H675 H 0.19597 0.29469 0.77353 0.0
H676 H 0.20894 0.23617 0.73343 0.0
H677 H 0.23225 0.21322 0.73959 0.0
H678 H 0.28793 0.20833 0.79362 0.0
H679 H 0.27231 0.26456 0.83779 0.0
H680 H 0.24785 0.28652 0.83341 0.0
H681 H 0.22173 0.12914 0.69215 0.0
H682 H 0.21573 0.14589 0.66843 0.0
H683 H 0.21509 0.15224 0.70123 0.0
C684 C 0.84078 0.34404 0.6839 0.0
C685 C 0.84504 0.32347 0.68574 0.0
C686 C 0.81812 0.30476 0.69099 0.0
C687 C 0.82476 0.29309 0.71002 0.0
C688 C 0.81279 0.28588 0.72685 0.0
C689 C 0.79386 0.29056 0.72458 0.0
C690 C 0.78698 0.30147 0.70443 0.0
C691 C 0.79924 0.30823 0.6876 0.0
C692 C 0.8205 0.27387 0.74767 0.0
C693 C 0.76687 0.30671 0.70141 0.0
C694 C 0.77171 0.38007 0.88443 0.0
C695 C 0.76434 0.36494 0.86687 0.0
C696 C 0.7744 0.3366 0.84577 0.0
C697 C 0.75944 0.33589 0.82741 0.0
C698 C 0.75827 0.32204 0.80824 0.0
C699 C 0.7721 0.30835 0.80767 0.0
C700 C 0.78695 0.30876 0.82643 0.0
C701 C 0.78793 0.32296 0.84517 0.0
C702 C 0.74242 0.3223 0.78827 0.0
C703 C 0.80192 0.29438 0.82643 0.0
C704 C 0.68836 0.22151 0.84007 0.0
C705 C 0.68361 0.23593 0.82403 0.0
C706 C 0.69438 0.23979 0.80387 0.0
C707 C 0.71041 0.22921 0.80014 0.0
C708 C 0.71499 0.21444 0.81613 0.0
C709 C 0.70368 0.2106 0.83567 0.0
C710 C 0.68861 0.25514 0.78658 0.0
C711 C 0.73191 0.20281 0.81272 0.0
C712 C 0.74062 0.1829 0.61342 0.0
C713 C 0.73657 0.17143 0.63605 0.0
C714 C 0.72505 0.19039 0.6705 0.0
C715 C 0.71423 0.20616 0.67294 0.0
C716 C 0.71634 0.21782 0.69462 0.0
C717 C 0.7294 0.21336 0.71448 0.0
C718 C 0.73994 0.19705 0.71251 0.0
C719 C 0.73759 0.18567 0.69056 0.0
C720 C 0.70471 0.23498 0.69626 0.0
C721 C 0.75364 0.19167 0.73363 0.0
C722 C 0.7818 0.28588 0.7449 0.0
C723 C 0.78246 0.2976 0.7664 0.0
C724 C 0.7716 0.29436 0.78649 0.0
C725 C 0.75982 0.2788 0.78535 0.0
C726 C 0.74916 0.27473 0.80557 0.0
C727 C 0.73713 0.25975 0.80391 0.0
C728 C 0.73514 0.24839 0.78184 0.0
C729 C 0.72242 0.23356 0.77958 0.0
C730 C 0.7209 0.22248 0.75744 0.0
C731 C 0.73189 0.22566 0.73742 0.0
C732 C 0.74472 0.24039 0.73933 0.0
C733 C 0.75608 0.24393 0.71961 0.0
C734 C 0.76844 0.25865 0.72151 0.0
C735 C 0.76975 0.27053 0.74307 0.0
C736 C 0.75865 0.26704 0.76335 0.0
C737 C 0.74619 0.25191 0.76153 0.0
C738 C 0.68793 0.228 0.90113 0.0
C739 C 0.67385 0.23006 0.87858 0.0
O740 O 0.82978 0.3133 0.67627 0.0
O741 O 0.72266 0.17983 0.64888 0.0
O742 O 0.67806 0.21755 0.85951 0.0
O743 O 0.77639 0.35032 0.86394 0.0
H744 H 0.84818 0.32102 0.70622 0.0
H745 H 0.82923 0.3477 0.69579 0.0
H746 H 0.83665 0.34759 0.66411 0.0
H747 H 0.85303 0.35241 0.69081 0.0
H748 H 0.83935 0.28994 0.71199 0.0
H749 H 0.79427 0.31705 0.67255 0.0
H750 H 0.82051 0.28167 0.76604 0.0
H751 H 0.83484 0.2694 0.74474 0.0
H752 H 0.81168 0.26148 0.74888 0.0
H753 H 0.76373 0.31529 0.68474 0.0
H754 H 0.76296 0.31448 0.71863 0.0
H755 H 0.7582 0.29409 0.69931 0.0
H756 H 0.75005 0.3603 0.86997 0.0
H757 H 0.77362 0.40251 0.86089 0.0
H758 H 0.78402 0.37427 0.89557 0.0
H759 H 0.76253 0.38017 0.90068 0.0
H760 H 0.74876 0.34625 0.82766 0.0
H761 H 0.7994 0.32356 0.85937 0.0
H762 H 0.74773 0.3217 0.76912 0.0
H763 H 0.73374 0.33481 0.79008 0.0
H764 H 0.73357 0.30999 0.78984 0.0
H765 H 0.81116 0.29521 0.84402 0.0
H766 H 0.81038 0.29635 0.81008 0.0
H767 H 0.79575 0.28037 0.82426 0.0
H768 H 0.67475 0.24445 0.87213 0.0
H769 H 0.67135 0.24397 0.82708 0.0
H770 H 0.707 0.19932 0.84803 0.0
H771 H 0.69841 0.26684 0.78989 0.0
H772 H 0.67452 0.26024 0.78979 0.0
H773 H 0.689 0.25039 0.7665 0.0
H774 H 0.73465 0.19323 0.82841 0.0
H775 H 0.7442 0.21176 0.81151 0.0
H776 H 0.72999 0.19456 0.79471 0.0
H777 H 0.74963 0.17085 0.64822 0.0
H778 H 0.75165 0.17632 0.60276 0.0
H779 H 0.74541 0.19687 0.62015 0.0
H780 H 0.72804 0.18437 0.60051 0.0
H781 H 0.70435 0.20949 0.65753 0.0
H782 H 0.74534 0.17299 0.68935 0.0
H783 H 0.71379 0.24731 0.69858 0.0
H784 H 0.69652 0.23461 0.71314 0.0
H785 H 0.69513 0.23648 0.67921 0.0
H786 H 0.76087 0.17861 0.72915 0.0
H787 H 0.74642 0.19003 0.7512 0.0
H788 H 0.76407 0.20278 0.73748 0.0
H789 H 0.79142 0.30962 0.76736 0.0
H790 H 0.74998 0.28314 0.82288 0.0
H791 H 0.72927 0.25731 0.82007 0.0
H792 H 0.71104 0.2112 0.75577 0.0
H793 H 0.75551 0.23536 0.70244 0.0
H794 H 0.77683 0.26075 0.70576 0.0
H795 H 0.68724 0.21391 0.90857 0.0
H796 H 0.68534 0.23826 0.91651 0.0
H797 H 0.70208 0.23037 0.89517 0.0
C798 C 0.81595 0.64263 0.81921 0.0
C799 C 0.80654 0.65192 0.84125 0.0
C800 C 0.78825 0.67637 0.82228 0.0
C801 C 0.79626 0.69209 0.83465 0.0
C802 C 0.7955 0.70916 0.82306 0.0
C803 C 0.78651 0.71044 0.79867 0.0
C804 C 0.77765 0.69478 0.78671 0.0
C805 C 0.77844 0.67793 0.79889 0.0
C806 C 0.80468 0.72572 0.83659 0.0
C807 C 0.76788 0.69573 0.76075 0.0
C808 C 0.89382 0.72068 0.72678 0.0
C809 C 0.87993 0.72624 0.70541 0.0
C810 C 0.85609 0.74578 0.7212 0.0
C811 C 0.84002 0.73798 0.70916 0.0
C812 C 0.82321 0.73906 0.72062 0.0
C813 C 0.82257 0.74804 0.74465 0.0
C814 C 0.8386 0.75673 0.75622 0.0
C815 C 0.85517 0.7557 0.7441 0.0
C816 C 0.80629 0.73002 0.70746 0.0
C817 C 0.83841 0.7664 0.78185 0.0
C818 C 0.76175 0.85281 0.72523 0.0
C819 C 0.75307 0.83826 0.71085 0.0
C820 C 0.7487 0.82181 0.72223 0.0
C821 C 0.75322 0.81995 0.74838 0.0
C822 C 0.7611 0.83495 0.76308 0.0
C823 C 0.76509 0.8513 0.75128 0.0
C824 C 0.73974 0.80625 0.70624 0.0
C825 C 0.76585 0.8335 0.79109 0.0
C826 C 0.66188 0.7402 0.84515 0.0
C827 C 0.66525 0.76027 0.85407 0.0
C828 C 0.68237 0.77434 0.82199 0.0
C829 C 0.68259 0.77139 0.79588 0.0
C830 C 0.69879 0.77408 0.78354 0.0
C831 C 0.71494 0.78036 0.7977 0.0
C832 C 0.71451 0.78421 0.824 0.0
C833 C 0.69821 0.78105 0.83592 0.0
C834 C 0.69872 0.76998 0.75545 0.0
C835 C 0.7313 0.79159 0.83946 0.0
C836 C 0.78764 0.72779 0.78496 0.0
C837 C 0.80334 0.73056 0.77181 0.0
C838 C 0.80568 0.74662 0.75869 0.0
C839 C 0.79208 0.76051 0.75884 0.0
C840 C 0.79411 0.77698 0.74617 0.0
C841 C 0.78072 0.79064 0.7467 0.0
C842 C 0.7646 0.7882 0.75952 0.0
C843 C 0.75088 0.80198 0.76012 0.0
C844 C 0.73492 0.79904 0.77267 0.0
C845 C 0.73231 0.78266 0.78502 0.0
C846 C 0.74601 0.76882 0.78504 0.0
C847 C 0.74395 0.75227 0.7976 0.0
C848 C 0.75762 0.73886 0.79779 0.0
C849 C 0.77372 0.74135 0.78504 0.0
C850 C 0.776 0.75782 0.77201 0.0
C851 C 0.76218 0.77161 0.77217 0.0
C852 C 0.78967 0.88199 0.69103 0.0
C853 C 0.77223 0.8701 0.69019 0.0
O854 O 0.78993 0.65953 0.8324 0.0
O855 O 0.66655 0.77103 0.83318 0.0
O856 O 0.7672 0.86847 0.71471 0.0
O857 O 0.87268 0.74339 0.71137 0.0
H858 H 0.81603 0.66282 0.84979 0.0
H859 H 0.81902 0.65304 0.80522 0.0
H860 H 0.80688 0.63183 0.80958 0.0
H861 H 0.82916 0.63625 0.82612 0.0
H862 H 0.80315 0.69104 0.8533 0.0
H863 H 0.77206 0.66572 0.78975 0.0
H864 H 0.81667 0.72998 0.82627 0.0
H865 H 0.80958 0.72286 0.85636 0.0
H866 H 0.79491 0.73748 0.83679 0.0
H867 H 0.76157 0.68233 0.7541 0.0
H868 H 0.7778 0.69994 0.747 0.0
H869 H 0.75689 0.70634 0.76096 0.0
H870 H 0.86888 0.71553 0.70382 0.0
H871 H 0.89989 0.70702 0.72223 0.0
H872 H 0.88676 0.71969 0.7446 0.0
H873 H 0.90509 0.73104 0.72989 0.0
H874 H 0.84074 0.73078 0.69101 0.0
H875 H 0.86767 0.76185 0.75303 0.0
H876 H 0.7944 0.73963 0.70753 0.0
H877 H 0.80262 0.71768 0.71785 0.0
H878 H 0.80849 0.72566 0.68762 0.0
H879 H 0.85201 0.77258 0.78819 0.0
H880 H 0.83454 0.75645 0.79603 0.0
H881 H 0.82786 0.77745 0.78128 0.0
H882 H 0.77584 0.85639 0.68183 0.0
H883 H 0.74977 0.83967 0.69079 0.0
H884 H 0.77148 0.86278 0.76221 0.0
H885 H 0.74956 0.7946 0.705 0.0
H886 H 0.73548 0.81047 0.68677 0.0
H887 H 0.72743 0.80115 0.7152 0.0
H888 H 0.77194 0.84645 0.79981 0.0
H889 H 0.77582 0.82211 0.79441 0.0
H890 H 0.75324 0.83015 0.80072 0.0
H891 H 0.67833 0.76088 0.86632 0.0
H892 H 0.66103 0.73125 0.86159 0.0
H893 H 0.67346 0.73525 0.8341 0.0
H894 H 0.64884 0.73892 0.83294 0.0
H895 H 0.67014 0.76649 0.78531 0.0
H896 H 0.69776 0.78405 0.85601 0.0
H897 H 0.70972 0.75988 0.75149 0.0
H898 H 0.70178 0.78279 0.74567 0.0
H899 H 0.68526 0.76438 0.74738 0.0
H900 H 0.72829 0.79529 0.85925 0.0
H901 H 0.73666 0.80397 0.83065 0.0
H902 H 0.74236 0.78105 0.83979 0.0
H903 H 0.8139 0.71999 0.77174 0.0
H904 H 0.80616 0.77953 0.73587 0.0
H905 H 0.78313 0.80311 0.73681 0.0
H906 H 0.72445 0.80968 0.77296 0.0
H907 H 0.73179 0.74955 0.80758 0.0
H908 H 0.75538 0.72647 0.80795 0.0
H909 H 0.78693 0.89607 0.69876 0.0
H910 H 0.7947 0.88303 0.67182 0.0
H911 H 0.80076 0.87566 0.70332 0.0
C912 C 0.03251 0.31701 0.55289 0.0
C913 C 0.03922 0.33462 0.55934 0.0
C914 C 0.02598 0.34681 0.55073 0.0
C915 C 0.01212 0.33609 0.53906 0.0
N916 N 0.016 0.31798 0.53955 0.0
Co917 Co 0.00053 0.29795 0.52333 0.0
N918 N 0.98719 0.31523 0.50064 0.0
C919 C 0.98473 0.33321 0.5063 0.0
C920 C 0.97124 0.34101 0.49085 0.0
C921 C 0.96494 0.32699 0.47443 0.0
C922 C 0.97569 0.31157 0.47988 0.0
N923 N 0.98499 0.2779 0.50731 0.0
C924 C 0.9739 0.2779 0.48578 0.0
C925 C 0.96164 0.26311 0.48504 0.0
C926 C 0.96622 0.25297 0.5059 0.0
C927 C 0.98044 0.26248 0.51879 0.0
N928 N 0.01353 0.28073 0.54634 0.0
C929 C 0.00691 0.26442 0.55299 0.0
C930 C 0.0185 0.25587 0.57041 0.0
C931 C 0.03321 0.26766 0.57512 0.0
C932 C 0.02978 0.28281 0.56017 0.0
N933 N 0.98214 0.30223 0.54818 0.0
C934 C 0.95553 0.30535 0.58353 0.0
C935 C 0.97427 0.30676 0.59132 0.0
C936 C 0.98741 0.30503 0.57331 0.0
C937 C 0.95031 0.30297 0.55784 0.0
C938 C 0.96377 0.30168 0.54049 0.0
N939 N 0.01881 0.29363 0.49862 0.0
C940 C 0.03926 0.27297 0.47794 0.0
C941 C 0.04734 0.28778 0.46641 0.0
C942 C 0.0403 0.30551 0.47075 0.0
C943 C 0.0261 0.30814 0.48693 0.0
C944 C 0.02495 0.27618 0.49379 0.0
H945 H 0.02122 0.32197 0.49038 0.0
H946 H 0.01913 0.26459 0.50268 0.0
H947 H 0.00182 0.30563 0.57974 0.0
H948 H 0.95921 0.29987 0.52085 0.0
C949 C 0.99668 0.34242 0.52449 0.0
C950 C 0.04104 0.29971 0.56168 0.0
C951 C 0.97335 0.29299 0.46773 0.0
C952 C 0.99087 0.25685 0.5404 0.0
H953 H 0.05219 0.33838 0.56944 0.0
H954 H 0.0267 0.3617 0.55207 0.0
H955 H 0.96637 0.35509 0.49159 0.0
H956 H 0.9531 0.32799 0.46107 0.0
H957 H 0.95018 0.26017 0.47136 0.0
H958 H 0.95985 0.24031 0.51109 0.0
H959 H 0.01664 0.24256 0.57847 0.0
H960 H 0.04484 0.26554 0.58855 0.0
H961 H 0.9787 0.30874 0.61115 0.0
H962 H 0.93587 0.30212 0.55121 0.0
H963 H 0.04428 0.25904 0.47541 0.0
H964 H 0.04578 0.31734 0.46187 0.0
C965 C 0.69505 0.03513 0.55079 0.0
C966 C 0.67791 0.04142 0.55723 0.0
C967 C 0.66507 0.03071 0.54363 0.0
C968 C 0.67507 0.01864 0.5296 0.0
N969 N 0.69353 0.0207 0.53382 0.0
Co970 Co 0.71312 0.00766 0.5152 0.0
N971 N 0.69425 0.99321 0.49334 0.0
C972 C 0.67576 0.9935 0.49491 0.0
C973 C 0.66638 0.98143 0.47822 0.0
C974 C 0.67971 0.97267 0.46546 0.0
C975 C 0.6965 0.97997 0.47517 0.0
N976 N 0.73276 0.99549 0.4957 0.0
C977 C 0.73129 0.98272 0.47641 0.0
C978 C 0.74842 0.97817 0.46792 0.0
C979 C 0.76117 0.98836 0.48247 0.0
C980 C 0.75117 0.99853 0.49891 0.0
N981 N 0.73203 0.02131 0.53797 0.0
C982 C 0.75056 0.01927 0.53866 0.0
C983 C 0.7599 0.03044 0.55661 0.0
C984 C 0.74655 0.0404 0.56776 0.0
C985 C 0.7298 0.03478 0.55575 0.0
N986 N 0.71399 0.98739 0.5394 0.0
C987 C 0.71637 0.95982 0.57541 0.0
C988 C 0.73186 0.96529 0.56348 0.0
C989 C 0.73039 0.97891 0.54578 0.0
C990 C 0.69941 0.9678 0.56832 0.0
C991 C 0.69854 0.98154 0.55036 0.0
N992 N 0.71235 0.02792 0.49113 0.0
C993 C 0.72786 0.0525 0.47154 0.0
C994 C 0.71174 0.0568 0.45725 0.0
C995 C 0.69585 0.0465 0.46013 0.0
C996 C 0.69639 0.03233 0.47734 0.0
C997 C 0.72792 0.03802 0.48803 0.0
H998 H 0.68376 0.02514 0.47919 0.0
H999 H 0.74079 0.03523 0.49795 0.0
H1000 H 0.74283 0.98238 0.53772 0.0
H1001 H 0.68528 0.9873 0.54583 0.0
C1002 C 0.66759 0.00571 0.51167 0.0
C1003 C 0.71239 0.04384 0.56013 0.0
C1004 C 0.71418 0.97375 0.46663 0.0
C1005 C 0.75876 0.00915 0.51957 0.0
H1006 H 0.67496 0.05284 0.56996 0.0
H1007 H 0.65022 0.03193 0.54342 0.0
H1008 H 0.65162 0.97925 0.47563 0.0
H1009 H 0.67735 0.96207 0.45072 0.0
H1010 H 0.75144 0.96812 0.45324 0.0
H1011 H 0.77602 0.98783 0.48183 0.0
H1012 H 0.77468 0.03195 0.56016 0.0
H1013 H 0.74888 0.05119 0.58224 0.0
H1014 H 0.74522 0.95909 0.56787 0.0
H1015 H 0.68701 0.96381 0.57699 0.0
H1016 H 0.74054 0.06002 0.46956 0.0
H1017 H 0.68306 0.04949 0.44933 0.0
C1018 C 0.0292 0.73521 0.5322 0.0
C1019 C 0.03469 0.75217 0.54312 0.0
C1020 C 0.02466 0.76523 0.53043 0.0
C1021 C 0.01353 0.75554 0.51273 0.0
N1022 N 0.01576 0.73706 0.51349 0.0
Co1023 Co 0.00176 0.71779 0.49198 0.0
N1024 N 0.98833 0.73703 0.47191 0.0
C1025 C 0.99129 0.75543 0.47344 0.0
C1026 C 0.98 0.76502 0.45679 0.0
C1027 C 0.96898 0.75197 0.44423 0.0
C1028 C 0.97412 0.73517 0.45419 0.0
N1029 N 0.98697 0.69858 0.4713 0.0
C1030 C 0.97185 0.70058 0.45518 0.0
C1031 C 0.96431 0.68368 0.44692 0.0
C1032 C 0.97496 0.67051 0.45839 0.0
C1033 C 0.98821 0.68009 0.47311 0.0
N1034 N 0.01594 0.6985 0.51123 0.0
C1035 C 0.0147 0.68003 0.50713 0.0
C1036 C 0.0273 0.67028 0.52164 0.0
C1037 C 0.03742 0.6833 0.53561 0.0
C1038 C 0.03022 0.70033 0.52899 0.0
N1039 N 0.98249 0.71824 0.51667 0.0
C1040 C 0.95655 0.71937 0.55371 0.0
C1041 C 0.96498 0.70282 0.54684 0.0
C1042 C 0.9777 0.70254 0.52826 0.0
C1043 C 0.96088 0.73521 0.54118 0.0
C1044 C 0.97382 0.73436 0.52292 0.0
N1045 N 0.02121 0.7174 0.46741 0.0
C1046 C 0.04128 0.70066 0.44014 0.0
C1047 C 0.05171 0.71653 0.43749 0.0
C1048 C 0.04608 0.73297 0.44887 0.0
C1049 C 0.03085 0.73313 0.46339 0.0
C1050 C 0.02618 0.70139 0.45515 0.0
H1051 H 0.02743 0.74614 0.47157 0.0
H1052 H 0.01902 0.68875 0.45696 0.0
H1053 H 0.9836 0.68949 0.52371 0.0
H1054 H 0.97675 0.747 0.51438 0.0
C1055 C 0.00254 0.76341 0.49331 0.0
C1056 C 0.03781 0.71786 0.53936 0.0
C1057 C 0.96372 0.71822 0.4485 0.0
C1058 C 0.00147 0.67222 0.48965 0.0
H1059 H 0.04522 0.75486 0.55826 0.0
H1060 H 0.02582 0.78004 0.53316 0.0
H1061 H 0.97913 0.77981 0.45506 0.0
H1062 H 0.95776 0.75459 0.43031 0.0
H1063 H 0.95211 0.68107 0.43445 0.0
H1064 H 0.97291 0.65573 0.45687 0.0
H1065 H 0.02911 0.65549 0.52176 0.0
H1066 H 0.049 0.68047 0.54881 0.0
H1067 H 0.96178 0.69013 0.55579 0.0
H1068 H 0.95475 0.74836 0.54596 0.0
H1069 H 0.04513 0.68764 0.43141 0.0
H1070 H 0.05353 0.7457 0.44676 0.0
C1071 C 0.31182 0.97537 0.5493 0.0
C1072 C 0.32838 0.9693 0.56071 0.0
C1073 C 0.3419 0.98023 0.55263 0.0
C1074 C 0.33289 0.99228 0.53678 0.0
N1075 N 0.3144 0.9898 0.53436 0.0
Co1076 Co 0.29608 0.00422 0.51293 0.0
N1077 N 0.3162 0.01857 0.49846 0.0
C1078 C 0.33459 0.0163 0.50309 0.0
C1079 C 0.34505 0.02814 0.49047 0.0
C1080 C 0.33263 0.03864 0.47697 0.0
C1081 C 0.3152 0.03254 0.48212 0.0
N1082 N 0.27768 0.01927 0.49258 0.0
C1083 C 0.28029 0.03364 0.47759 0.0
C1084 C 0.26364 0.04066 0.46769 0.0
C1085 C 0.25002 0.03057 0.47707 0.0
C1086 C 0.25907 0.01799 0.49204 0.0
N1087 N 0.27599 0.98919 0.52638 0.0
C1088 C 0.25763 0.99055 0.52047 0.0
C1089 C 0.24727 0.97786 0.53178 0.0
C1090 C 0.25977 0.96747 0.54533 0.0
C1091 C 0.2771 0.97446 0.54141 0.0
N1092 N 0.29491 0.02271 0.54119 0.0
C1093 C 0.29242 0.05021 0.5795 0.0
C1094 C 0.27679 0.04063 0.56949 0.0
C1095 C 0.27833 0.0271 0.55057 0.0
C1096 C 0.30943 0.04566 0.57029 0.0
C1097 C 0.31038 0.03184 0.55137 0.0
N1098 N 0.29718 0.98568 0.48475 0.0
C1099 C 0.28138 0.96637 0.45208 0.0
C1100 C 0.29703 0.95548 0.45024 0.0
C1101 C 0.31315 0.96064 0.46458 0.0
C1102 C 0.31301 0.97592 0.4813 0.0
C1103 C 0.28173 0.98128 0.4694 0.0
H1104 H 0.3257 0.97921 0.49179 0.0
H1105 H 0.26911 0.98859 0.47062 0.0
H1106 H 0.2658 0.02062 0.54362 0.0
H1107 H 0.32374 0.02891 0.54517 0.0
C1108 C 0.34153 0.00432 0.5214 0.0
C1109 C 0.29418 0.96629 0.55186 0.0
C1110 C 0.29817 0.04105 0.47207 0.0
C1111 C 0.25051 0.00425 0.50482 0.0
H1112 H 0.33057 0.95778 0.57296 0.0
H1113 H 0.35663 0.97897 0.55686 0.0
H1114 H 0.35993 0.02943 0.49166 0.0
H1115 H 0.33605 0.04985 0.46519 0.0
H1116 H 0.26154 0.05189 0.45493 0.0
H1117 H 0.23528 0.03211 0.47328 0.0
H1118 H 0.23242 0.9763 0.53026 0.0
H1119 H 0.2565 0.95594 0.55663 0.0
H1120 H 0.26325 0.04389 0.57575 0.0
H1121 H 0.32193 0.05268 0.57766 0.0
H1122 H 0.26861 0.96281 0.44123 0.0
H1123 H 0.32566 0.95265 0.46334 0.0
C1124 C 0.53318 0.81857 0.04024 0.0
C1125 C 0.53952 0.83587 0.04868 0.0
C1126 C 0.52759 0.8484 0.0377 0.0
C1127 C 0.51478 0.83807 0.0231 0.0
N1128 N 0.51792 0.81987 0.02429 0.0
Co1129 Co 0.50392 0.79989 0.00494 0.0
N1130 N 0.49302 0.81744 0.98026 0.0
C1131 C 0.49263 0.83594 0.98355 0.0
C1132 C 0.48391 0.84455 0.96346 0.0
C1133 C 0.47817 0.83061 0.94669 0.0
C1134 C 0.48366 0.8142 0.95757 0.0
N1135 N 0.49021 0.77971 0.98559 0.0
C1136 C 0.48141 0.77956 0.96221 0.0
C1137 C 0.47334 0.76245 0.95619 0.0
C1138 C 0.47682 0.75178 0.97673 0.0
C1139 C 0.48684 0.76284 0.9941 0.0
N1140 N 0.51451 0.78254 0.02988 0.0
C1141 C 0.50786 0.76581 0.03456 0.0
C1142 C 0.51819 0.75719 0.05333 0.0
C1143 C 0.53219 0.7693 0.06081 0.0
C1144 C 0.5296 0.78459 0.04599 0.0
N1145 N 0.48302 0.80385 0.02578 0.0
C1146 C 0.45297 0.80633 0.05575 0.0
C1147 C 0.47097 0.80831 0.06668 0.0
C1148 C 0.48584 0.80687 0.05137 0.0
C1149 C 0.45024 0.80365 0.02958 0.0
C1150 C 0.46542 0.80269 0.01495 0.0
N1151 N 0.52484 0.7958 0.98427 0.0
C1152 C 0.54693 0.77515 0.96699 0.0
C1153 C 0.55559 0.78984 0.95598 0.0
C1154 C 0.5484 0.80761 0.95948 0.0
C1155 C 0.53315 0.81029 0.97381 0.0
C1156 C 0.53153 0.77839 0.98077 0.0
H1157 H 0.52814 0.82413 0.97648 0.0
H1158 H 0.52516 0.76679 0.98883 0.0
H1159 H 0.49962 0.80778 0.0603 0.0
H1160 H 0.46288 0.8006 0.99492 0.0
C1161 C 0.50247 0.84478 0.00418 0.0
C1162 C 0.54131 0.80103 0.04799 0.0
C1163 C 0.47734 0.79601 0.94745 0.0
C1164 C 0.4947 0.75734 0.01749 0.0
H1165 H 0.5516 0.83917 0.06109 0.0
H1166 H 0.52883 0.86326 0.03899 0.0
H1167 H 0.48216 0.85921 0.96111 0.0
H1168 H 0.47031 0.83227 0.92883 0.0
H1169 H 0.46505 0.75835 0.93918 0.0
H1170 H 0.47256 0.73764 0.97872 0.0
H1171 H 0.51639 0.74338 0.05982 0.0
H1172 H 0.54315 0.76705 0.07526 0.0
H1173 H 0.47353 0.8104 0.08694 0.0
H1174 H 0.43647 0.80229 0.02048 0.0
H1175 H 0.55211 0.76122 0.96531 0.0
H1176 H 0.55438 0.81939 0.95108 0.0
C1177 C 0.20524 0.53903 0.05483 0.0
C1178 C 0.18858 0.5452 0.06317 0.0
C1179 C 0.17507 0.53556 0.04921 0.0
C1180 C 0.18427 0.52417 0.03321 0.0
N1181 N 0.20283 0.52563 0.03653 0.0
Co1182 Co 0.22161 0.51267 0.0164 0.0
N1183 N 0.20184 0.50066 0.99319 0.0
C1184 C 0.18338 0.50268 0.99415 0.0
C1185 C 0.17325 0.49206 0.9764 0.0
C1186 C 0.18596 0.48247 0.96353 0.0
C1187 C 0.20322 0.48789 0.97417 0.0
N1188 N 0.24047 0.49969 0.99636 0.0
C1189 C 0.23813 0.48701 0.97706 0.0
C1190 C 0.25488 0.48101 0.96876 0.0
C1191 C 0.26834 0.48992 0.98374 0.0
C1192 C 0.25908 0.50085 0.00019 0.0
N1193 N 0.24138 0.52473 0.03958 0.0
C1194 C 0.25986 0.52248 0.03922 0.0
C1195 C 0.26981 0.53351 0.05675 0.0
C1196 C 0.25696 0.54373 0.06855 0.0
C1197 C 0.23989 0.53828 0.05748 0.0
N1198 N 0.22124 0.4913 0.03881 0.0
C1199 C 0.22148 0.4601 0.06894 0.0
C1200 C 0.23787 0.46792 0.06225 0.0
C1201 C 0.23744 0.48334 0.04743 0.0
C1202 C 0.20486 0.46835 0.06078 0.0
C1203 C 0.20505 0.48381 0.04568 0.0
N1204 N 0.22207 0.53406 0.99412 0.0
C1205 C 0.23966 0.55684 0.97391 0.0
C1206 C 0.22362 0.566 0.96555 0.0
C1207 C 0.20666 0.55859 0.97114 0.0
C1208 C 0.2062 0.5427 0.98541 0.0
C1209 C 0.23858 0.54111 0.98796 0.0
H1210 H 0.19292 0.53776 0.98945 0.0
H1211 H 0.25137 0.53503 0.99382 0.0
H1212 H 0.25048 0.48842 0.04313 0.0
H1213 H 0.19197 0.48933 0.03963 0.0
C1214 C 0.17595 0.51356 0.01313 0.0
C1215 C 0.22285 0.54763 0.06273 0.0
C1216 C 0.22042 0.47961 0.96677 0.0
C1217 C 0.26743 0.51146 0.02041 0.0
H1218 H 0.1864 0.55607 0.07711 0.0
H1219 H 0.16031 0.53735 0.04973 0.0
H1220 H 0.15838 0.49092 0.97374 0.0
H1221 H 0.18279 0.47223 0.94856 0.0
H1222 H 0.25712 0.4709 0.9538 0.0
H1223 H 0.28311 0.48823 0.98317 0.0
H1224 H 0.28467 0.53466 0.05968 0.0
H1225 H 0.25976 0.55453 0.08289 0.0
H1226 H 0.25112 0.46223 0.06858 0.0
H1227 H 0.1918 0.46272 0.06558 0.0
H1228 H 0.25312 0.5617 0.9695 0.0
H1229 H 0.19384 0.56518 0.96496 0.0
C1230 C 0.47343 0.23451 0.97275 0.0
C1231 C 0.46758 0.25133 0.96345 0.0
C1232 C 0.47884 0.26446 0.97533 0.0
C1233 C 0.49088 0.25492 0.99101 0.0
N1234 N 0.48831 0.23644 0.98938 0.0
Co1235 Co 0.50215 0.21729 0.00929 0.0
N1236 N 0.51742 0.23665 0.02889 0.0
C1237 C 0.51659 0.2551 0.02619 0.0
C1238 C 0.52938 0.26479 0.04155 0.0
C1239 C 0.53917 0.25176 0.05459 0.0
C1240 C 0.5317 0.2348 0.04644 0.0
N1241 N 0.51575 0.19813 0.02954 0.0
C1242 C 0.52998 0.20003 0.04729 0.0
C1243 C 0.53557 0.18317 0.05668 0.0
C1244 C 0.5247 0.17007 0.044 0.0
C1245 C 0.51311 0.17966 0.02777 0.0
N1246 N 0.48701 0.19795 0.98943 0.0
C1247 C 0.48862 0.17945 0.99093 0.0
C1248 C 0.47558 0.1698 0.97591 0.0
C1249 C 0.46479 0.1829 0.96447 0.0
C1250 C 0.47197 0.19985 0.97315 0.0
N1251 N 0.52111 0.21577 0.98396 0.0
C1252 C 0.55103 0.21443 0.95299 0.0
C1253 C 0.54438 0.1984 0.96291 0.0
C1254 C 0.52929 0.19933 0.97788 0.0
C1255 C 0.542 0.23097 0.95775 0.0
C1256 C 0.52728 0.23135 0.97328 0.0
N1257 N 0.48337 0.21885 0.03469 0.0
C1258 C 0.46317 0.20397 0.06213 0.0
C1259 C 0.45745 0.22101 0.07173 0.0
C1260 C 0.46459 0.23695 0.06212 0.0
C1261 C 0.47751 0.23557 0.04384 0.0
C1262 C 0.47592 0.20321 0.04361 0.0
H1263 H 0.48265 0.24821 0.03752 0.0
H1264 H 0.47958 0.18983 0.03684 0.0
H1265 H 0.52481 0.18662 0.98476 0.0
H1266 H 0.52153 0.24453 0.97687 0.0
C1267 C 0.50412 0.2629 0.0084 0.0
C1268 C 0.46333 0.21738 0.9671 0.0
C1269 C 0.53933 0.2173 0.05478 0.0
C1270 C 0.50067 0.17168 0.00925 0.0
H1271 H 0.45592 0.25386 0.9502 0.0
H1272 H 0.47794 0.27923 0.97342 0.0
H1273 H 0.53161 0.27955 0.04267 0.0
H1274 H 0.55078 0.25443 0.06813 0.0
H1275 H 0.5467 0.18059 0.07075 0.0
H1276 H 0.52555 0.15529 0.04581 0.0
H1277 H 0.4735 0.15503 0.97456 0.0
H1278 H 0.45261 0.18023 0.95197 0.0
H1279 H 0.55091 0.18524 0.95935 0.0
H1280 H 0.5468 0.24374 0.95045 0.0
H1281 H 0.45776 0.19125 0.06878 0.0
H1282 H 0.46058 0.25046 0.06912 0.0
C1283 C 0.77269 0.5277 0.05908 0.0
C1284 C 0.7555 0.53288 0.06678 0.0
C1285 C 0.74274 0.52302 0.05181 0.0
C1286 C 0.75282 0.51233 0.03606 0.0
N1287 N 0.77128 0.51454 0.04033 0.0
Co1288 Co 0.79106 0.50151 0.02223 0.0
N1289 N 0.77233 0.4891 0.99771 0.0
C1290 C 0.7538 0.4914 0.99662 0.0
C1291 C 0.74454 0.48122 0.97755 0.0
C1292 C 0.75791 0.4718 0.96574 0.0
C1293 C 0.77464 0.47679 0.97841 0.0
N1294 N 0.81083 0.48786 0.00468 0.0
C1295 C 0.80941 0.47507 0.98539 0.0
C1296 C 0.82654 0.46827 0.97972 0.0
C1297 C 0.83926 0.47697 0.99617 0.0
C1298 C 0.8292 0.48849 0.01091 0.0
N1299 N 0.80979 0.51459 0.04612 0.0
C1300 C 0.82835 0.51287 0.04662 0.0
C1301 C 0.83767 0.52478 0.0636 0.0
C1302 C 0.82429 0.53498 0.07428 0.0
C1303 C 0.8075 0.52857 0.06328 0.0
N1304 N 0.7898 0.48074 0.04542 0.0
C1305 C 0.78866 0.44815 0.07234 0.0
C1306 C 0.80505 0.45809 0.07194 0.0
C1307 C 0.80531 0.47427 0.05844 0.0
C1308 C 0.77265 0.45538 0.06057 0.0
C1309 C 0.77349 0.47163 0.04755 0.0
N1310 N 0.79234 0.52213 0.99898 0.0
C1311 C 0.81012 0.54208 0.97437 0.0
C1312 C 0.79417 0.55127 0.96569 0.0
C1313 C 0.77731 0.54575 0.97409 0.0
C1314 C 0.7767 0.53122 0.99053 0.0
C1315 C 0.80891 0.52771 0.99096 0.0
H1316 H 0.76342 0.52753 0.99609 0.0
H1317 H 0.82157 0.52135 0.99709 0.0
H1318 H 0.81832 0.48096 0.05827 0.0
H1319 H 0.76081 0.47623 0.03881 0.0
C1320 C 0.74542 0.50192 0.01515 0.0
C1321 C 0.7898 0.53671 0.06872 0.0
C1322 C 0.79222 0.46882 0.97206 0.0
C1323 C 0.8366 0.50044 0.0302 0.0
H1324 H 0.75251 0.54324 0.08109 0.0
H1325 H 0.72788 0.52415 0.05165 0.0
H1326 H 0.72978 0.48034 0.97321 0.0
H1327 H 0.75556 0.46205 0.94993 0.0
H1328 H 0.82951 0.45804 0.96523 0.0
H1329 H 0.85407 0.47511 0.99727 0.0
H1330 H 0.85245 0.52623 0.06725 0.0
H1331 H 0.8267 0.54615 0.08815 0.0
H1332 H 0.81777 0.453 0.08103 0.0
H1333 H 0.75955 0.44829 0.06097 0.0
H1334 H 0.82352 0.54607 0.9686 0.0
H1335 H 0.76458 0.55241 0.96767 0.0
C1336 C 0.12899 0.27551 0.37189 0.0
C1337 C 0.14396 0.26647 0.38422 0.0
C1338 C 0.11307 0.27981 0.38447 0.0
C1339 C 0.11183 0.27443 0.40969 0.0
C1340 C 0.12676 0.26506 0.42209 0.0
C1341 C 0.14265 0.2613 0.40925 0.0
C1342 C 0.09754 0.29004 0.37075 0.0
C1343 C 0.12584 0.25877 0.4488 0.0
C1344 C 0.07801 0.2976 0.4521 0.0
C1345 C 0.06343 0.28481 0.45075 0.0
C1346 C 0.09362 0.29463 0.43832 0.0
C1347 C 0.09485 0.27834 0.4231 0.0
C1348 C 0.08013 0.26548 0.42137 0.0
C1349 C 0.06455 0.26893 0.43506 0.0
C1350 C 0.10895 0.30877 0.44043 0.0
C1351 C 0.08099 0.24787 0.40547 0.0
H1352 H 0.12966 0.27922 0.35237 0.0
H1353 H 0.15404 0.25401 0.41865 0.0
H1354 H 0.0849 0.28139 0.36897 0.0
H1355 H 0.09427 0.30276 0.38175 0.0
H1356 H 0.10096 0.29391 0.35153 0.0
H1357 H 0.13859 0.25154 0.45568 0.0
H1358 H 0.12364 0.27076 0.46177 0.0
H1359 H 0.11393 0.24931 0.44983 0.0
H1360 H 0.07747 0.30977 0.46444 0.0
H1361 H 0.05325 0.25912 0.43349 0.0
H1362 H 0.11217 0.31303 0.42134 0.0
H1363 H 0.12167 0.30265 0.44937 0.0
H1364 H 0.10538 0.32123 0.45181 0.0
H1365 H 0.08303 0.25107 0.38556 0.0
H1366 H 0.06828 0.2394 0.40588 0.0
H1367 H 0.09297 0.23954 0.41238 0.0
C1368 C 0.75155 0.12354 0.34707 0.0
C1369 C 0.73531 0.14268 0.33969 0.0
C1370 C 0.74477 0.10887 0.37144 0.0
C1371 C 0.72212 0.11088 0.38329 0.0
C1372 C 0.70494 0.1265 0.37023 0.0
C1373 C 0.71037 0.14178 0.34576 0.0
C1374 C 0.75802 0.09501 0.38202 0.0
C1375 C 0.68618 0.12689 0.37992 0.0
C1376 C 0.70682 0.06757 0.41322 0.0
C1377 C 0.71199 0.07149 0.43875 0.0
C1378 C 0.70948 0.08063 0.39492 0.0
C1379 C 0.71715 0.09802 0.40252 0.0
C1380 C 0.72152 0.10235 0.42841 0.0
C1381 C 0.71904 0.08895 0.44627 0.0
C1382 C 0.70501 0.07547 0.36737 0.0
C1383 C 0.72943 0.12088 0.43718 0.0
H1384 H 0.76558 0.12363 0.34145 0.0
H1385 H 0.70075 0.15221 0.33915 0.0
H1386 H 0.76057 0.09778 0.40266 0.0
H1387 H 0.75183 0.08105 0.37927 0.0
H1388 H 0.77121 0.09556 0.37271 0.0
H1389 H 0.67775 0.13799 0.37111 0.0
H1390 H 0.67935 0.11337 0.37566 0.0
H1391 H 0.68744 0.12905 0.40078 0.0
H1392 H 0.70156 0.05398 0.40744 0.0
H1393 H 0.72294 0.09196 0.46609 0.0
H1394 H 0.71793 0.07512 0.35735 0.0
H1395 H 0.69591 0.08601 0.35844 0.0
H1396 H 0.69815 0.06179 0.36468 0.0
H1397 H 0.74343 0.12235 0.43035 0.0
H1398 H 0.73046 0.12268 0.45811 0.0
H1399 H 0.7207 0.13205 0.42908 0.0
C1400 C 0.87111 0.75563 0.38688 0.0
C1401 C 0.85497 0.74592 0.39105 0.0
C1402 C 0.88841 0.7494 0.3962 0.0
C1403 C 0.88965 0.73276 0.40933 0.0
C1404 C 0.87352 0.72247 0.41267 0.0
C1405 C 0.85632 0.72924 0.40359 0.0
C1406 C 0.90533 0.76081 0.39241 0.0
C1407 C 0.87441 0.70443 0.42599 0.0
C1408 C 0.93798 0.71311 0.41512 0.0
C1409 C 0.94406 0.71955 0.43944 0.0
C1410 C 0.91982 0.7163 0.40556 0.0
C1411 C 0.90782 0.72669 0.42045 0.0
C1412 C 0.91383 0.73275 0.44531 0.0
C1413 C 0.93187 0.72895 0.45459 0.0
C1414 C 0.91375 0.70925 0.37919 0.0
C1415 C 0.90157 0.74414 0.4616 0.0
H1416 H 0.87018 0.76821 0.3765 0.0
H1417 H 0.8439 0.72148 0.40631 0.0
H1418 H 0.91234 0.76491 0.41102 0.0
H1419 H 0.91529 0.75255 0.38186 0.0
H1420 H 0.90196 0.77347 0.38188 0.0
H1421 H 0.86074 0.69752 0.42557 0.0
H1422 H 0.88426 0.69497 0.41709 0.0
H1423 H 0.87958 0.70684 0.44601 0.0
H1424 H 0.94758 0.70607 0.40337 0.0
H1425 H 0.93675 0.73396 0.47338 0.0
H1426 H 0.91259 0.72095 0.36629 0.0
H1427 H 0.89995 0.70266 0.37887 0.0
H1428 H 0.92366 0.69912 0.37172 0.0
H1429 H 0.89874 0.75761 0.45286 0.0
H1430 H 0.90794 0.74675 0.48105 0.0
H1431 H 0.88811 0.73715 0.46285 0.0
C1432 C 0.29575 0.85663 0.37782 0.0
C1433 C 0.27843 0.84853 0.38035 0.0
C1434 C 0.29927 0.87502 0.38574 0.0
C1435 C 0.28541 0.88532 0.39726 0.0
C1436 C 0.26775 0.87743 0.39912 0.0
C1437 C 0.26445 0.85919 0.39045 0.0
C1438 C 0.31812 0.88314 0.38286 0.0
C1439 C 0.25268 0.88786 0.41166 0.0
C1440 C 0.30025 0.92146 0.44781 0.0
C1441 C 0.29587 0.93781 0.43558 0.0
C1442 C 0.29716 0.9043 0.43536 0.0
C1443 C 0.2899 0.90352 0.40986 0.0
C1444 C 0.28615 0.92005 0.39708 0.0
C1445 C 0.28894 0.93705 0.41025 0.0
C1446 C 0.30099 0.887 0.44983 0.0
C1447 C 0.2788 0.91976 0.36976 0.0
H1448 H 0.30673 0.84852 0.37026 0.0
H1449 H 0.25113 0.85291 0.3926 0.0
H1450 H 0.31685 0.89708 0.37501 0.0
H1451 H 0.32574 0.88464 0.40168 0.0
H1452 H 0.3264 0.87437 0.37035 0.0
H1453 H 0.23935 0.88025 0.40998 0.0
H1454 H 0.25683 0.89033 0.43203 0.0
H1455 H 0.25054 0.90151 0.40323 0.0
H1456 H 0.30533 0.9221 0.46753 0.0
H1457 H 0.28556 0.94977 0.40087 0.0
H1458 H 0.31084 0.8781 0.44001 0.0
H1459 H 0.28803 0.879 0.45063 0.0
H1460 H 0.30678 0.89003 0.46947 0.0
H1461 H 0.28747 0.91076 0.35811 0.0
H1462 H 0.27837 0.93375 0.36191 0.0
H1463 H 0.26464 0.91393 0.368 0.0
C1464 C 0.12599 0.72414 0.63879 0.0
C1465 C 0.13625 0.70788 0.63649 0.0
C1466 C 0.11076 0.72764 0.62194 0.0
C1467 C 0.10562 0.71449 0.60243 0.0
C1468 C 0.11657 0.6986 0.59902 0.0
C1469 C 0.13199 0.69567 0.61578 0.0
C1470 C 0.09981 0.74509 0.62558 0.0
C1471 C 0.11151 0.68426 0.57838 0.0
C1472 C 0.05509 0.71051 0.58005 0.0
C1473 C 0.05498 0.71808 0.55618 0.0
C1474 C 0.07151 0.70942 0.59539 0.0
C1475 C 0.08804 0.71657 0.58684 0.0
C1476 C 0.08778 0.72499 0.56315 0.0
C1477 C 0.07122 0.72546 0.54793 0.0
C1478 C 0.07127 0.70016 0.62041 0.0
C1479 C 0.105 0.73317 0.55367 0.0
H1480 H 0.12965 0.73396 0.6542 0.0
H1481 H 0.14029 0.68349 0.61305 0.0
H1482 H 0.09746 0.75209 0.60738 0.0
H1483 H 0.08608 0.74164 0.63208 0.0
H1484 H 0.10684 0.75485 0.6397 0.0
H1485 H 0.12189 0.67306 0.57759 0.0
H1486 H 0.09795 0.67805 0.58162 0.0
H1487 H 0.1101 0.69072 0.55972 0.0
H1488 H 0.04239 0.70499 0.58636 0.0
H1489 H 0.07097 0.7314 0.52943 0.0
H1490 H 0.07642 0.70979 0.63601 0.0
H1491 H 0.08063 0.68808 0.62053 0.0
H1492 H 0.05724 0.69541 0.62429 0.0
H1493 H 0.10199 0.74108 0.53632 0.0
H1494 H 0.11482 0.722 0.54932 0.0
H1495 H 0.11198 0.74242 0.56845 0.0
C1496 C 0.24863 0.13364 0.64709 0.0
C1497 C 0.25447 0.1376 0.67247 0.0
C1498 C 0.25779 0.12055 0.63257 0.0
C1499 C 0.27372 0.1118 0.64331 0.0
C1500 C 0.28087 0.11715 0.66792 0.0
C1501 C 0.27111 0.12989 0.68231 0.0
C1502 C 0.24977 0.11529 0.60627 0.0
C1503 C 0.29834 0.10876 0.67952 0.0
C1504 C 0.27881 0.06295 0.61822 0.0
C1505 C 0.29049 0.06529 0.59864 0.0
C1506 C 0.27405 0.07788 0.63381 0.0
C1507 C 0.28134 0.09555 0.6299 0.0
C1508 C 0.29431 0.09774 0.6115 0.0
C1509 C 0.29868 0.08254 0.59593 0.0
C1510 C 0.26027 0.07493 0.65336 0.0
C1511 C 0.30271 0.11627 0.60714 0.0
H1512 H 0.23642 0.14026 0.6388 0.0
H1513 H 0.2764 0.13342 0.70146 0.0
H1514 H 0.26046 0.11632 0.59244 0.0
H1515 H 0.24502 0.10073 0.60569 0.0
H1516 H 0.23791 0.12411 0.60018 0.0
H1517 H 0.30377 0.11663 0.6968 0.0
H1518 H 0.29553 0.09442 0.68474 0.0
H1519 H 0.30916 0.10818 0.66575 0.0
H1520 H 0.27279 0.04952 0.62069 0.0
H1521 H 0.30771 0.08441 0.58079 0.0
H1522 H 0.24736 0.08249 0.64814 0.0
H1523 H 0.26573 0.0805 0.67213 0.0
H1524 H 0.25682 0.06014 0.65506 0.0
H1525 H 0.29266 0.12457 0.59568 0.0
H1526 H 0.31545 0.11488 0.5968 0.0
H1527 H 0.30605 0.12401 0.62529 0.0
C1528 C 0.87802 0.31264 0.68426 0.0
C1529 C 0.86164 0.31833 0.6713 0.0
C1530 C 0.89395 0.30908 0.6714 0.0
C1531 C 0.89353 0.31156 0.64504 0.0
C1532 C 0.87689 0.31681 0.63174 0.0
C1533 C 0.86109 0.31997 0.64501 0.0
C1534 C 0.91132 0.30306 0.6861 0.0
C1535 C 0.87592 0.31964 0.6036 0.0
C1536 C 0.93776 0.32292 0.61474 0.0
C1537 C 0.94118 0.30631 0.60179 0.0
C1538 C 0.92247 0.3247 0.6294 0.0
C1539 C 0.91063 0.30937 0.63142 0.0
C1540 C 0.91461 0.29231 0.61929 0.0
C1541 C 0.92975 0.29105 0.60431 0.0
C1542 C 0.91851 0.34319 0.64176 0.0
C1543 C 0.90257 0.27556 0.62144 0.0
H1544 H 0.87845 0.31121 0.70456 0.0
H1545 H 0.84839 0.32419 0.63493 0.0
H1546 H 0.91683 0.29035 0.67718 0.0
H1547 H 0.92206 0.31389 0.68576 0.0
H1548 H 0.90896 0.30039 0.70612 0.0
H1549 H 0.86183 0.32336 0.59601 0.0
H1550 H 0.88559 0.33077 0.59939 0.0
H1551 H 0.88026 0.30692 0.59345 0.0
H1552 H 0.94658 0.33471 0.61245 0.0
H1553 H 0.9325 0.27823 0.59415 0.0
H1554 H 0.91717 0.34175 0.66229 0.0
H1555 H 0.90518 0.34853 0.63356 0.0
H1556 H 0.92947 0.3535 0.63918 0.0
H1557 H 0.9002 0.2733 0.64153 0.0
H1558 H 0.90873 0.26289 0.61324 0.0
H1559 H 0.8889 0.27779 0.61137 0.0
C1560 C 0.75822 0.87809 0.6474 0.0
C1561 C 0.75701 0.8788 0.67365 0.0
C1562 C 0.74711 0.88934 0.63176 0.0
C1563 C 0.73424 0.90131 0.64266 0.0
C1564 C 0.73139 0.90041 0.66868 0.0
C1565 C 0.74309 0.88947 0.68404 0.0
C1566 C 0.75053 0.88979 0.60404 0.0
C1567 C 0.71708 0.91221 0.68069 0.0
C1568 C 0.73341 0.94787 0.61348 0.0
C1569 C 0.71852 0.94609 0.59536 0.0
C1570 C 0.73807 0.93366 0.62978 0.0
C1571 C 0.72728 0.91736 0.62832 0.0
C1572 C 0.71124 0.9161 0.61155 0.0
C1573 C 0.7071 0.9305 0.59503 0.0
C1574 C 0.75526 0.93569 0.64743 0.0
C1575 C 0.69904 0.89923 0.60994 0.0
H1576 H 0.76885 0.86973 0.63933 0.0
H1577 H 0.74183 0.89 0.70428 0.0
H1578 H 0.7373 0.88912 0.5923 0.0
H1579 H 0.75739 0.90298 0.60024 0.0
H1580 H 0.75944 0.87825 0.59801 0.0
H1581 H 0.71357 0.90687 0.69914 0.0
H1582 H 0.72248 0.92645 0.68401 0.0
H1583 H 0.70429 0.91292 0.66804 0.0
H1584 H 0.74196 0.96015 0.61416 0.0
H1585 H 0.6955 0.92914 0.58109 0.0
H1586 H 0.76544 0.92499 0.64252 0.0
H1587 H 0.7519 0.93367 0.66721 0.0
H1588 H 0.76187 0.94943 0.64651 0.0
H1589 H 0.70454 0.88889 0.59655 0.0
H1590 H 0.68475 0.90263 0.6028 0.0
H1591 H 0.69858 0.89283 0.62857 0.0
C1592 C 0.88597 0.71239 0.66244 0.0
C1593 C 0.88911 0.7267 0.68069 0.0
C1594 C 0.89568 0.71155 0.64049 0.0
C1595 C 0.90904 0.72523 0.63686 0.0
C1596 C 0.91192 0.73999 0.65487 0.0
C1597 C 0.90191 0.74055 0.67658 0.0
C1598 C 0.89212 0.69567 0.62164 0.0
C1599 C 0.92608 0.75481 0.6517 0.0
C1600 C 0.94885 0.71187 0.59737 0.0
C1601 C 0.94392 0.7203 0.57452 0.0
C1602 C 0.93758 0.71335 0.61775 0.0
C1603 C 0.92089 0.72339 0.61515 0.0
C1604 C 0.91568 0.73171 0.592 0.0
C1605 C 0.92732 0.73014 0.57198 0.0
C1606 C 0.94367 0.7044 0.64221 0.0
C1607 C 0.89789 0.74232 0.58844 0.0
H1608 H 0.87617 0.7016 0.66563 0.0
H1609 H 0.90444 0.75156 0.69075 0.0
H1610 H 0.88942 0.70086 0.60231 0.0
H1611 H 0.90454 0.68679 0.62139 0.0
H1612 H 0.88022 0.68707 0.62617 0.0
H1613 H 0.92581 0.76595 0.66656 0.0
H1614 H 0.94007 0.74865 0.65251 0.0
H1615 H 0.92369 0.76098 0.63293 0.0
H1616 H 0.96179 0.70447 0.59952 0.0
H1617 H 0.92341 0.73654 0.55425 0.0
H1618 H 0.93304 0.69447 0.64726 0.0
H1619 H 0.94523 0.71502 0.65777 0.0
H1620 H 0.95698 0.69699 0.64108 0.0
H1621 H 0.88605 0.73342 0.59222 0.0
H1622 H 0.89562 0.74756 0.56905 0.0
H1623 H 0.898 0.7542 0.60219 0.0
C1624 C 0.29346 0.86618 0.61273 0.0
C1625 C 0.27558 0.86297 0.6201 0.0
C1626 C 0.29812 0.88302 0.60252 0.0
C1627 C 0.28449 0.89681 0.59913 0.0
C1628 C 0.26644 0.89364 0.60658 0.0
C1629 C 0.26222 0.87677 0.61692 0.0
C1630 C 0.31752 0.88593 0.5949 0.0
C1631 C 0.25147 0.90793 0.60306 0.0
C1632 C 0.29671 0.94692 0.59006 0.0
C1633 C 0.29347 0.94817 0.56387 0.0
C1634 C 0.29456 0.93008 0.60176 0.0
C1635 C 0.28875 0.91427 0.58686 0.0
C1636 C 0.2859 0.91546 0.56027 0.0
C1637 C 0.28836 0.93242 0.54909 0.0
C1638 C 0.29795 0.92931 0.63009 0.0
C1639 C 0.27959 0.899 0.54372 0.0
H1640 H 0.30374 0.85542 0.61466 0.0
H1641 H 0.24831 0.8742 0.62216 0.0
H1642 H 0.31734 0.88746 0.57415 0.0
H1643 H 0.32338 0.89884 0.60399 0.0
H1644 H 0.32678 0.8743 0.60016 0.0
H1645 H 0.23827 0.9035 0.61039 0.0
H1646 H 0.25589 0.9211 0.61291 0.0
H1647 H 0.24897 0.91073 0.58269 0.0
H1648 H 0.30057 0.95922 0.60139 0.0
H1649 H 0.28583 0.93355 0.52881 0.0
H1650 H 0.30749 0.91785 0.63503 0.0
H1651 H 0.28478 0.92654 0.63867 0.0
H1652 H 0.3039 0.94237 0.63864 0.0
H1653 H 0.28897 0.88717 0.5472 0.0
H1654 H 0.27905 0.90197 0.52328 0.0
H1655 H 0.26563 0.8947 0.5485 0.0
C1656 C 0.14783 0.31386 0.6393 0.0
C1657 C 0.14803 0.3002 0.66824 0.0
C1658 C 0.12719 0.31148 0.61867 0.0
C1659 C 0.10721 0.29957 0.62871 0.0
C1660 C 0.10656 0.29083 0.66024 0.0
C1661 C 0.12656 0.29267 0.68228 0.0
C1662 C 0.12665 0.32015 0.59354 0.0
C1663 C 0.08976 0.28145 0.6682 0.0
C1664 C 0.05929 0.31066 0.60114 0.0
C1665 C 0.05829 0.30009 0.57849 0.0
C1666 C 0.07533 0.31094 0.6174 0.0
C1667 C 0.09021 0.29926 0.61182 0.0
C1668 C 0.0889 0.28781 0.5896 0.0
C1669 C 0.07307 0.28864 0.57291 0.0
C1670 C 0.07614 0.32385 0.64041 0.0
C1671 C 0.10399 0.27437 0.58375 0.0
H1672 H 0.1603 0.31968 0.63285 0.0
H1673 H 0.12689 0.28619 0.70036 0.0
H1674 H 0.13404 0.31114 0.5803 0.0
H1675 H 0.11225 0.32207 0.58576 0.0
H1676 H 0.13399 0.33358 0.5954 0.0
H1677 H 0.08351 0.29018 0.68289 0.0
H1678 H 0.07954 0.27886 0.65196 0.0
H1679 H 0.0938 0.26824 0.6769 0.0
H1680 H 0.04752 0.31886 0.6061 0.0
H1681 H 0.07202 0.28003 0.55574 0.0
H1682 H 0.09026 0.32941 0.64496 0.0
H1683 H 0.07194 0.31628 0.65687 0.0
H1684 H 0.06651 0.33562 0.63769 0.0
H1685 H 0.11644 0.282 0.57908 0.0
H1686 H 0.09979 0.26481 0.56757 0.0
H1687 H 0.10782 0.26614 0.60057 0.0
C1688 C 0.71334 0.1487 0.6149 0.0
C1689 C 0.7308 0.15208 0.62721 0.0
C1690 C 0.7085 0.13111 0.60469 0.0
C1691 C 0.72148 0.1166 0.60672 0.0
C1692 C 0.73896 0.11984 0.61963 0.0
C1693 C 0.74343 0.13755 0.62962 0.0
C1694 C 0.68974 0.12818 0.59105 0.0
C1695 C 0.75318 0.10473 0.6222 0.0
C1696 C 0.70747 0.06634 0.59592 0.0
C1697 C 0.71274 0.06284 0.57135 0.0
C1698 C 0.70955 0.08401 0.60742 0.0
C1699 C 0.71733 0.09832 0.59405 0.0
C1700 C 0.72223 0.09486 0.56894 0.0
C1701 C 0.71986 0.07713 0.55789 0.0
C1702 C 0.70405 0.0872 0.63413 0.0
C1703 C 0.73062 0.1097 0.55406 0.0
H1704 H 0.70362 0.15995 0.61279 0.0
H1705 H 0.75699 0.14015 0.63892 0.0
H1706 H 0.69132 0.12494 0.57072 0.0
H1707 H 0.68271 0.11625 0.59873 0.0
H1708 H 0.68078 0.1405 0.59266 0.0
H1709 H 0.76575 0.10926 0.6339 0.0
H1710 H 0.74724 0.09259 0.63089 0.0
H1711 H 0.75727 0.10017 0.60321 0.0
H1712 H 0.70214 0.05513 0.6063 0.0
H1713 H 0.72401 0.07425 0.5389 0.0
H1714 H 0.69496 0.09944 0.63531 0.0
H1715 H 0.71652 0.09007 0.64693 0.0
H1716 H 0.69675 0.07513 0.64107 0.0
H1717 H 0.72169 0.12208 0.5537 0.0
H1718 H 0.73265 0.10503 0.53428 0.0
H1719 H 0.74419 0.11391 0.56336 0.0
C1720 C 0.90969 0.26733 0.34176 0.0
C1721 C 0.89315 0.26656 0.3539 0.0
C1722 C 0.92612 0.27354 0.35484 0.0
C1723 C 0.92608 0.27857 0.38085 0.0
C1724 C 0.90926 0.27855 0.3929 0.0
C1725 C 0.89299 0.2727 0.37922 0.0
C1726 C 0.94351 0.27382 0.34087 0.0
C1727 C 0.90856 0.28386 0.42062 0.0
C1728 C 0.96483 0.27142 0.43003 0.0
C1729 C 0.96694 0.28952 0.44015 0.0
C1730 C 0.9526 0.26749 0.40893 0.0
C1731 C 0.94354 0.28218 0.39652 0.0
C1732 C 0.94947 0.30042 0.40257 0.0
C1733 C 0.96171 0.30383 0.42392 0.0
C1734 C 0.94791 0.24767 0.40171 0.0
C1735 C 0.94167 0.31642 0.38796 0.0
H1736 H 0.90988 0.26268 0.32214 0.0
H1737 H 0.88022 0.27222 0.3886 0.0
H1738 H 0.95389 0.28372 0.34967 0.0
H1739 H 0.9497 0.25986 0.34078 0.0
H1740 H 0.94035 0.27744 0.32085 0.0
H1741 H 0.89431 0.28356 0.42693 0.0
H1742 H 0.91719 0.27425 0.43217 0.0
H1743 H 0.9143 0.29792 0.42446 0.0
H1744 H 0.97161 0.26008 0.43954 0.0
H1745 H 0.96645 0.31774 0.428 0.0
H1746 H 0.94841 0.24522 0.38103 0.0
H1747 H 0.93364 0.24466 0.40665 0.0
H1748 H 0.95745 0.2379 0.41159 0.0
H1749 H 0.94058 0.31296 0.36736 0.0
H1750 H 0.95021 0.32905 0.39157 0.0
H1751 H 0.92755 0.31944 0.39372 0.0
C1752 C 0.72894 0.8875 0.37144 0.0
C1753 C 0.71193 0.88207 0.35928 0.0
C1754 C 0.73002 0.90191 0.38986 0.0
C1755 C 0.71375 0.91135 0.39585 0.0
C1756 C 0.69656 0.90593 0.38365 0.0
C1757 C 0.69587 0.89138 0.3655 0.0
C1758 C 0.74858 0.90727 0.40255 0.0
C1759 C 0.67894 0.91577 0.38933 0.0
C1760 C 0.71246 0.93989 0.45711 0.0
C1761 C 0.71477 0.95772 0.44864 0.0
C1762 C 0.71244 0.92459 0.4402 0.0
C1763 C 0.71471 0.9273 0.41428 0.0
C1764 C 0.71725 0.94536 0.40578 0.0
C1765 C 0.71724 0.9604 0.42314 0.0
C1766 C 0.70977 0.90557 0.44997 0.0
C1767 C 0.71968 0.94882 0.37831 0.0
H1768 H 0.74145 0.88064 0.36628 0.0
H1769 H 0.68277 0.88747 0.35574 0.0
H1770 H 0.75207 0.92156 0.39783 0.0
H1771 H 0.74812 0.90702 0.4234 0.0
H1772 H 0.75977 0.89796 0.39671 0.0
H1773 H 0.66664 0.90953 0.37871 0.0
H1774 H 0.6769 0.9155 0.40985 0.0
H1775 H 0.67988 0.93045 0.38439 0.0
H1776 H 0.71056 0.93799 0.47694 0.0
H1777 H 0.71898 0.97429 0.4168 0.0
H1778 H 0.72138 0.89652 0.44504 0.0
H1779 H 0.69694 0.89932 0.44083 0.0
H1780 H 0.70885 0.90577 0.4708 0.0
H1781 H 0.73158 0.94084 0.37181 0.0
H1782 H 0.72197 0.96364 0.37493 0.0
H1783 H 0.70725 0.94404 0.36655 0.0
C1784 C 0.13594 0.74069 0.35849 0.0
C1785 C 0.15039 0.7279 0.35971 0.0
C1786 C 0.11933 0.73721 0.36945 0.0
C1787 C 0.1172 0.72061 0.38219 0.0
C1788 C 0.1315 0.70737 0.38279 0.0
C1789 C 0.14793 0.71116 0.37151 0.0
C1790 C 0.10436 0.75164 0.36829 0.0
C1791 C 0.12977 0.68957 0.39632 0.0
C1792 C 0.08493 0.72409 0.43516 0.0
C1793 C 0.06874 0.7161 0.42374 0.0
C1794 C 0.10096 0.72505 0.42208 0.0
C1795 C 0.10075 0.718 0.39684 0.0
C1796 C 0.08459 0.70943 0.38542 0.0
C1797 C 0.06875 0.70848 0.39912 0.0
C1798 C 0.11798 0.73407 0.43507 0.0
C1799 C 0.08383 0.70187 0.35851 0.0
H1800 H 0.1378 0.75366 0.34945 0.0
H1801 H 0.15912 0.70128 0.37253 0.0
H1802 H 0.09097 0.74532 0.36131 0.0
H1803 H 0.10266 0.75756 0.38755 0.0
H1804 H 0.10751 0.76303 0.35581 0.0
H1805 H 0.14138 0.68001 0.39307 0.0
H1806 H 0.12952 0.69257 0.41694 0.0
H1807 H 0.11662 0.68251 0.39003 0.0
H1808 H 0.08498 0.72974 0.45436 0.0
H1809 H 0.05619 0.70235 0.39029 0.0
H1810 H 0.1213 0.74678 0.42525 0.0
H1811 H 0.13 0.72472 0.43408 0.0
H1812 H 0.11619 0.73781 0.45524 0.0
H1813 H 0.08517 0.71335 0.34548 0.0
H1814 H 0.07073 0.69441 0.35306 0.0
H1815 H 0.09554 0.69237 0.35582 0.0
C1816 C 0.28722 0.12467 0.37812 0.0
C1817 C 0.30328 0.13552 0.37931 0.0
C1818 C 0.28581 0.10965 0.39383 0.0
C1819 C 0.30098 0.1051 0.41065 0.0
C1820 C 0.31723 0.11594 0.41186 0.0
C1821 C 0.31818 0.13101 0.39617 0.0
C1822 C 0.26821 0.09847 0.39214 0.0
C1823 C 0.33378 0.11137 0.42932 0.0
C1824 C 0.29353 0.07471 0.46589 0.0
C1825 C 0.29898 0.0575 0.45637 0.0
C1826 C 0.29393 0.09034 0.45112 0.0
C1827 C 0.3001 0.08864 0.4264 0.0
C1828 C 0.30566 0.07121 0.41679 0.0
C1829 C 0.30492 0.05579 0.43189 0.0
C1830 C 0.28775 0.10864 0.46193 0.0
C1831 C 0.31246 0.06887 0.39061 0.0
H1832 H 0.27583 0.12782 0.3647 0.0
H1833 H 0.33073 0.13913 0.39672 0.0
H1834 H 0.27105 0.08417 0.38546 0.0
H1835 H 0.2628 0.09765 0.41112 0.0
H1836 H 0.25736 0.10439 0.37906 0.0
H1837 H 0.34524 0.1214 0.42835 0.0
H1838 H 0.32981 0.11116 0.44912 0.0
H1839 H 0.3389 0.09741 0.42433 0.0
H1840 H 0.28889 0.07587 0.48488 0.0
H1841 H 0.30903 0.04237 0.42465 0.0
H1842 H 0.27631 0.11422 0.44954 0.0
H1843 H 0.29926 0.11874 0.46259 0.0
H1844 H 0.28303 0.10755 0.48129 0.0
H1845 H 0.3016 0.07318 0.3763 0.0
H1846 H 0.31637 0.05441 0.38606 0.0
H1847 H 0.32463 0.07787 0.38892 0.0
C1848 C 0.63432 0.77608 0.85851 0.0
C1849 C 0.64968 0.76693 0.86962 0.0
C1850 C 0.6194 0.78111 0.87269 0.0
C1851 C 0.61956 0.77633 0.89835 0.0
C1852 C 0.63501 0.76712 0.90967 0.0
C1853 C 0.6499 0.7626 0.89518 0.0
C1854 C 0.60328 0.79118 0.86007 0.0
C1855 C 0.63554 0.76147 0.93684 0.0
C1856 C 0.58641 0.79949 0.9418 0.0
C1857 C 0.57194 0.78658 0.94096 0.0
C1858 C 0.60189 0.79648 0.92776 0.0
C1859 C 0.60313 0.78001 0.91293 0.0
C1860 C 0.58867 0.76689 0.91206 0.0
C1861 C 0.57318 0.77044 0.92582 0.0
C1862 C 0.61693 0.81091 0.92883 0.0
C1863 C 0.58959 0.74904 0.8967 0.0
H1864 H 0.63384 0.77917 0.83864 0.0
H1865 H 0.66161 0.75525 0.90367 0.0
H1866 H 0.59082 0.78228 0.85897 0.0
H1867 H 0.60014 0.80377 0.87143 0.0
H1868 H 0.60596 0.79521 0.84065 0.0
H1869 H 0.64886 0.755 0.94306 0.0
H1870 H 0.63326 0.77362 0.94949 0.0
H1871 H 0.62424 0.75152 0.93918 0.0
H1872 H 0.58579 0.81188 0.9537 0.0
H1873 H 0.56197 0.76054 0.92453 0.0
H1874 H 0.61927 0.81525 0.90946 0.0
H1875 H 0.63007 0.80504 0.93681 0.0
H1876 H 0.61355 0.82328 0.94052 0.0
H1877 H 0.59042 0.75195 0.87642 0.0
H1878 H 0.57742 0.74005 0.89861 0.0
H1879 H 0.60224 0.74136 0.90277 0.0
C1880 C 0.26383 0.63174 0.85679 0.0
C1881 C 0.25419 0.65542 0.85673 0.0
C1882 C 0.25358 0.61646 0.87787 0.0
C1883 C 0.23795 0.62518 0.90051 0.0
C1884 C 0.23295 0.64951 0.90428 0.0
C1885 C 0.2426 0.66593 0.88404 0.0
C1886 C 0.25856 0.59655 0.87716 0.0
C1887 C 0.22089 0.65625 0.92424 0.0
C1888 C 0.21374 0.5854 0.92862 0.0
C1889 C 0.22503 0.58292 0.95079 0.0
C1890 C 0.21701 0.59999 0.91271 0.0
C1891 C 0.2319 0.61221 0.91909 0.0
C1892 C 0.24259 0.61042 0.94215 0.0
C1893 C 0.23891 0.59592 0.95782 0.0
C1894 C 0.205 0.60193 0.88861 0.0
C1895 C 0.25864 0.62315 0.94959 0.0
H1896 H 0.27206 0.6265 0.84189 0.0
H1897 H 0.23869 0.68031 0.88479 0.0
H1898 H 0.26387 0.59255 0.8963 0.0
H1899 H 0.24601 0.5882 0.87186 0.0
H1900 H 0.26908 0.59373 0.86335 0.0
H1901 H 0.21208 0.66763 0.91696 0.0
H1902 H 0.21224 0.64488 0.93042 0.0
H1903 H 0.22968 0.66178 0.9407 0.0
H1904 H 0.20295 0.57546 0.92307 0.0
H1905 H 0.24739 0.59436 0.97524 0.0
H1906 H 0.21304 0.59814 0.87218 0.0
H1907 H 0.2006 0.61649 0.88666 0.0
H1908 H 0.19256 0.59298 0.88797 0.0
H1909 H 0.26895 0.62208 0.9351 0.0
H1910 H 0.26556 0.61994 0.96825 0.0
H1911 H 0.25381 0.63762 0.95041 0.0
C1912 C 0.37142 0.25735 0.90889 0.0
C1913 C 0.35501 0.24787 0.91236 0.0
C1914 C 0.38855 0.25033 0.91763 0.0
C1915 C 0.38934 0.2331 0.92935 0.0
C1916 C 0.37293 0.22302 0.93179 0.0
C1917 C 0.35592 0.23059 0.92338 0.0
C1918 C 0.40576 0.26155 0.91481 0.0
C1919 C 0.37334 0.20437 0.94353 0.0
C1920 C 0.43741 0.21276 0.93389 0.0
C1921 C 0.44355 0.21839 0.95853 0.0
C1922 C 0.41926 0.21633 0.92458 0.0
C1923 C 0.40733 0.22625 0.94013 0.0
C1924 C 0.41334 0.23129 0.96538 0.0
C1925 C 0.43137 0.22714 0.97434 0.0
C1926 C 0.41321 0.21037 0.89775 0.0
C1927 C 0.40117 0.24214 0.98242 0.0
H1928 H 0.37085 0.27039 0.89957 0.0
H1929 H 0.3433 0.22299 0.92547 0.0
H1930 H 0.4128 0.26475 0.9337 0.0
H1931 H 0.41556 0.25352 0.90369 0.0
H1932 H 0.40274 0.27471 0.90531 0.0
H1933 H 0.35952 0.19772 0.94231 0.0
H1934 H 0.38309 0.19514 0.93402 0.0
H1935 H 0.37837 0.20582 0.96372 0.0
H1936 H 0.447 0.2062 0.92165 0.0
H1937 H 0.43631 0.23155 0.99337 0.0
H1938 H 0.41257 0.22256 0.88569 0.0
H1939 H 0.39919 0.20419 0.89677 0.0
H1940 H 0.42287 0.20023 0.88977 0.0
H1941 H 0.39871 0.25605 0.97487 0.0
H1942 H 0.40742 0.24375 0.00209 0.0
H1943 H 0.38754 0.23532 0.98286 0.0
C1944 C 0.74822 0.39435 0.8607 0.0
C1945 C 0.76589 0.3784 0.84878 0.0
C1946 C 0.75656 0.40988 0.88612 0.0
C1947 C 0.78095 0.41187 0.89494 0.0
C1948 C 0.79804 0.39954 0.87785 0.0
C1949 C 0.79109 0.38361 0.85209 0.0
C1950 C 0.74318 0.42118 0.90004 0.0
C1951 C 0.81803 0.4027 0.88489 0.0
C1952 C 0.79155 0.45829 0.92681 0.0
C1953 C 0.79229 0.4539 0.9523 0.0
C1954 C 0.78888 0.44445 0.90778 0.0
C1955 C 0.78688 0.42592 0.91455 0.0
C1956 C 0.7885 0.42137 0.9403 0.0
C1957 C 0.79116 0.43549 0.95899 0.0
C1958 C 0.7873 0.44976 0.88047 0.0
C1959 C 0.78654 0.40174 0.94811 0.0
H1960 H 0.73361 0.39185 0.85673 0.0
H1961 H 0.80105 0.37512 0.84287 0.0
H1962 H 0.74534 0.41876 0.92057 0.0
H1963 H 0.74583 0.436 0.89733 0.0
H1964 H 0.7288 0.41764 0.8932 0.0
H1965 H 0.8266 0.39363 0.87321 0.0
H1966 H 0.82145 0.41735 0.88216 0.0
H1967 H 0.82094 0.4 0.90523 0.0
H1968 H 0.79235 0.47261 0.92185 0.0
H1969 H 0.79167 0.43225 0.97882 0.0
H1970 H 0.77295 0.44737 0.87246 0.0
H1971 H 0.79649 0.44101 0.86927 0.0
H1972 H 0.79089 0.46447 0.87825 0.0
H1973 H 0.7721 0.39706 0.94357 0.0
H1974 H 0.79 0.40024 0.96866 0.0
H1975 H 0.79565 0.39258 0.93735 0.0
C1976 C 0.63579 0.19859 0.1309 0.0
C1977 C 0.64713 0.21428 0.13214 0.0
C1978 C 0.618 0.19892 0.1188 0.0
C1979 C 0.61152 0.21525 0.10742 0.0
C1980 C 0.62289 0.23112 0.1086 0.0
C1981 C 0.64051 0.23049 0.1211 0.0
C1982 C 0.60617 0.18177 0.11811 0.0
C1983 C 0.61651 0.24873 0.09647 0.0
C1984 C 0.57304 0.2113 0.05541 0.0
C1985 C 0.55777 0.21684 0.0684 0.0
C1986 C 0.59065 0.21068 0.0679 0.0
C1987 C 0.59291 0.21567 0.09399 0.0
C1988 C 0.57741 0.22121 0.10718 0.0
C1989 C 0.55995 0.2217 0.09416 0.0
C1990 C 0.60683 0.20474 0.05319 0.0
C1991 C 0.57929 0.2266 0.13498 0.0
H1992 H 0.64085 0.18605 0.1394 0.0
H1993 H 0.64923 0.24265 0.12211 0.0
H1994 H 0.59297 0.18487 0.12668 0.0
H1995 H 0.60272 0.17706 0.09823 0.0
H1996 H 0.6131 0.17033 0.12836 0.0
H1997 H 0.62704 0.25986 0.09912 0.0
H1998 H 0.61327 0.24613 0.07591 0.0
H1999 H 0.60365 0.25363 0.10459 0.0
H2000 H 0.57114 0.20751 0.03543 0.0
H2001 H 0.54798 0.22589 0.10403 0.0
H2002 H 0.61343 0.19243 0.06166 0.0
H2003 H 0.61738 0.21585 0.05422 0.0
H2004 H 0.60271 0.20141 0.03298 0.0
H2005 H 0.58521 0.215 0.14591 0.0
H2006 H 0.56585 0.23047 0.14243 0.0
H2007 H 0.58893 0.23843 0.13829 0.0
C2008 C 0.78936 0.63854 0.13255 0.0
C2009 C 0.77231 0.64178 0.14278 0.0
C2010 C 0.79357 0.62123 0.12184 0.0
C2011 C 0.78029 0.60691 0.12096 0.0
C2012 C 0.7632 0.60997 0.1317 0.0
C2013 C 0.75946 0.62734 0.14261 0.0
C2014 C 0.81202 0.61843 0.11084 0.0
C2015 C 0.74862 0.59509 0.13091 0.0
C2016 C 0.78146 0.56994 0.06877 0.0
C2017 C 0.78885 0.55499 0.08195 0.0
C2018 C 0.77878 0.58697 0.08122 0.0
C2019 C 0.7838 0.5891 0.10744 0.0
C2020 C 0.79169 0.57411 0.12071 0.0
C2021 C 0.79395 0.55712 0.10781 0.0
C2022 C 0.77016 0.60254 0.06643 0.0
C2023 C 0.79741 0.57592 0.14859 0.0
H2024 H 0.79931 0.64966 0.13256 0.0
H2025 H 0.74626 0.62981 0.15047 0.0
H2026 H 0.81889 0.606 0.11861 0.0
H2027 H 0.80998 0.6161 0.09005 0.0
H2028 H 0.82136 0.63046 0.11482 0.0
H2029 H 0.73636 0.59944 0.141 0.0
H2030 H 0.74407 0.59141 0.11096 0.0
H2031 H 0.75439 0.58245 0.13951 0.0
H2032 H 0.77741 0.56813 0.04877 0.0
H2033 H 0.79943 0.5454 0.11796 0.0
H2034 H 0.77937 0.61477 0.0681 0.0
H2035 H 0.75697 0.60666 0.07435 0.0
H2036 H 0.76736 0.5987 0.04606 0.0
H2037 H 0.80685 0.58787 0.1524 0.0
H2038 H 0.80442 0.56335 0.15573 0.0
H2039 H 0.7851 0.57854 0.15942 0.0
C2040 C 0.37555 0.80564 0.15541 0.0
C2041 C 0.35887 0.81276 0.14505 0.0
C2042 C 0.39077 0.8033 0.14075 0.0
C2043 C 0.38934 0.80847 0.11522 0.0
C2044 C 0.37237 0.81515 0.10442 0.0
C2045 C 0.35728 0.81707 0.11944 0.0
C2046 C 0.40852 0.79575 0.15277 0.0
C2047 C 0.37035 0.82087 0.07728 0.0
C2048 C 0.43365 0.82222 0.08683 0.0
C2049 C 0.43701 0.8067 0.07148 0.0
C2050 C 0.41806 0.82303 0.101 0.0
C2051 C 0.40585 0.80775 0.10019 0.0
C2052 C 0.40944 0.79188 0.08506 0.0
C2053 C 0.42489 0.79165 0.07061 0.0
C2054 C 0.4145 0.84031 0.11656 0.0
C2055 C 0.397 0.77517 0.08419 0.0
H2056 H 0.3768 0.80217 0.17517 0.0
H2057 H 0.34435 0.82244 0.11135 0.0
H2058 H 0.41345 0.78404 0.14106 0.0
H2059 H 0.41937 0.80656 0.15378 0.0
H2060 H 0.4069 0.791 0.17217 0.0
H2061 H 0.35603 0.82508 0.07148 0.0
H2062 H 0.37977 0.8326 0.0747 0.0
H2063 H 0.37437 0.8094 0.06446 0.0
H2064 H 0.44302 0.83388 0.08726 0.0
H2065 H 0.42765 0.77962 0.05878 0.0
H2066 H 0.41419 0.83702 0.13678 0.0
H2067 H 0.4008 0.84603 0.11052 0.0
H2068 H 0.42515 0.85107 0.11476 0.0
H2069 H 0.3959 0.77018 0.10356 0.0
H2070 H 0.4021 0.76372 0.07211 0.0
H2071 H 0.3829 0.77889 0.07677 0.0
C2072 C 0.2539 0.38802 0.16906 0.0
C2073 C 0.2461 0.37037 0.1654 0.0
C2074 C 0.24757 0.40261 0.15415 0.0
C2075 C 0.23268 0.39963 0.13578 0.0
C2076 C 0.2238 0.38226 0.13344 0.0
C2077 C 0.23067 0.36781 0.1482 0.0
C2078 C 0.25744 0.42095 0.15717 0.0
C2079 C 0.20755 0.37869 0.11459 0.0
C2080 C 0.21229 0.44269 0.10615 0.0
C2081 C 0.22216 0.4435 0.08443 0.0
C2082 C 0.21497 0.42806 0.12269 0.0
C2083 C 0.22783 0.41405 0.11728 0.0
C2084 C 0.23706 0.41435 0.09467 0.0
C2085 C 0.23406 0.42903 0.0785 0.0
C2086 C 0.20469 0.42805 0.14645 0.0
C2087 C 0.25077 0.39961 0.08808 0.0
H2088 H 0.26536 0.39029 0.18299 0.0
H2089 H 0.22423 0.35433 0.14584 0.0
H2090 H 0.26436 0.42371 0.13968 0.0
H2091 H 0.24742 0.43223 0.15998 0.0
H2092 H 0.268 0.42138 0.17336 0.0
H2093 H 0.20068 0.36533 0.1175 0.0
H2094 H 0.19725 0.3899 0.11591 0.0
H2095 H 0.21228 0.37848 0.09514 0.0
H2096 H 0.20312 0.45388 0.1108 0.0
H2097 H 0.24144 0.42948 0.06145 0.0
H2098 H 0.21437 0.43149 0.16304 0.0
H2099 H 0.1989 0.41419 0.14924 0.0
H2100 H 0.1933 0.43826 0.14602 0.0
H2101 H 0.26263 0.39996 0.10244 0.0
H2102 H 0.25608 0.40141 0.06917 0.0
H2103 H 0.24433 0.38578 0.08831 0.0
C2104 C 0.38161 0.21193 0.17249 0.0
C2105 C 0.38501 0.22411 0.1934 0.0
C2106 C 0.39251 0.2123 0.15169 0.0
C2107 C 0.40732 0.225 0.15197 0.0
C2108 C 0.41053 0.23765 0.17274 0.0
C2109 C 0.3993 0.23709 0.19319 0.0
C2110 C 0.38853 0.1987 0.1298 0.0
C2111 C 0.42626 0.25132 0.17378 0.0
C2112 C 0.44752 0.21131 0.11341 0.0
C2113 C 0.44451 0.22209 0.09213 0.0
C2114 C 0.43561 0.21228 0.13309 0.0
C2115 C 0.42017 0.22418 0.13132 0.0
C2116 C 0.41699 0.23505 0.10981 0.0
C2117 C 0.42929 0.23397 0.09052 0.0
C2118 C 0.43959 0.20061 0.15584 0.0
C2119 C 0.40054 0.24769 0.10712 0.0
H2120 H 0.37062 0.20184 0.17261 0.0
H2121 H 0.40197 0.24648 0.20938 0.0
H2122 H 0.38734 0.20597 0.11171 0.0
H2123 H 0.40014 0.18884 0.12877 0.0
H2124 H 0.37563 0.19077 0.13157 0.0
H2125 H 0.42624 0.26092 0.19055 0.0
H2126 H 0.43959 0.24383 0.17444 0.0
H2127 H 0.42551 0.2595 0.15647 0.0
H2128 H 0.45941 0.20229 0.11482 0.0
H2129 H 0.42686 0.2422 0.07397 0.0
H2130 H 0.42785 0.19113 0.15792 0.0
H2131 H 0.44113 0.20954 0.17327 0.0
H2132 H 0.45233 0.19229 0.15445 0.0
H2133 H 0.38762 0.23963 0.10781 0.0
H2134 H 0.39997 0.25514 0.08914 0.0
H2135 H 0.40099 0.25797 0.12313 0.0
C2136 C 0.79476 0.34423 0.11635 0.0
C2137 C 0.77797 0.33927 0.1258 0.0
C2138 C 0.79833 0.36254 0.11062 0.0
C2139 C 0.78479 0.37615 0.11453 0.0
C2140 C 0.76833 0.37141 0.12559 0.0
C2141 C 0.76505 0.35297 0.13093 0.0
C2142 C 0.81603 0.36704 0.09881 0.0
C2143 C 0.75366 0.38559 0.13032 0.0
C2144 C 0.79601 0.42684 0.10783 0.0
C2145 C 0.78832 0.42976 0.08334 0.0
C2146 C 0.79512 0.40939 0.11835 0.0
C2147 C 0.78659 0.39461 0.10381 0.0
C2148 C 0.77924 0.39746 0.07884 0.0
C2149 C 0.78012 0.41502 0.06898 0.0
C2150 C 0.80296 0.40685 0.14508 0.0
C2151 C 0.77028 0.38198 0.06256 0.0
H2152 H 0.80477 0.33362 0.11245 0.0
H2153 H 0.7521 0.34916 0.13833 0.0
H2154 H 0.81295 0.36987 0.07854 0.0
H2155 H 0.82252 0.37962 0.10799 0.0
H2156 H 0.82611 0.35556 0.10018 0.0
H2157 H 0.74288 0.38024 0.14204 0.0
H2158 H 0.75989 0.39815 0.13991 0.0
H2159 H 0.74691 0.38974 0.11198 0.0
H2160 H 0.80233 0.4383 0.1189 0.0
H2161 H 0.77447 0.41723 0.04987 0.0
H2162 H 0.81297 0.39531 0.14563 0.0
H2163 H 0.79172 0.40317 0.15712 0.0
H2164 H 0.80997 0.41948 0.15338 0.0
H2165 H 0.78003 0.37032 0.06093 0.0
H2166 H 0.76584 0.38639 0.04324 0.0
H2167 H 0.75803 0.37678 0.0715 0.0
C2168 C 0.61382 0.7561 0.13753 0.0
C2169 C 0.63225 0.762 0.13888 0.0
C2170 C 0.60026 0.76501 0.12241 0.0
C2171 C 0.60511 0.78064 0.10904 0.0
C2172 C 0.62346 0.78732 0.11144 0.0
C2173 C 0.63686 0.77783 0.12623 0.0
C2174 C 0.58083 0.7574 0.12023 0.0
C2175 C 0.62897 0.80429 0.09811 0.0
C2176 C 0.57279 0.788 0.05147 0.0
C2177 C 0.55972 0.79977 0.06152 0.0
C2178 C 0.5884 0.78258 0.06631 0.0
C2179 C 0.59101 0.78929 0.09169 0.0
C2180 C 0.57856 0.80236 0.10126 0.0
C2181 C 0.56283 0.80722 0.08614 0.0
C2182 C 0.60119 0.76843 0.0555 0.0
C2183 C 0.58107 0.81014 0.12803 0.0
H2184 H 0.61005 0.74427 0.14798 0.0
H2185 H 0.65101 0.78273 0.12778 0.0
H2186 H 0.571 0.7681 0.12625 0.0
H2187 H 0.57678 0.75344 0.10022 0.0
H2188 H 0.57935 0.74514 0.1319 0.0
H2189 H 0.64342 0.80857 0.10362 0.0
H2190 H 0.62759 0.80159 0.07736 0.0
H2191 H 0.61965 0.8159 0.10243 0.0
H2192 H 0.57012 0.78208 0.0325 0.0
H2193 H 0.55243 0.81593 0.0941 0.0
H2194 H 0.59943 0.75512 0.06474 0.0
H2195 H 0.61578 0.77273 0.05936 0.0
H2196 H 0.59839 0.76615 0.03477 0.0
H2197 H 0.57699 0.79962 0.14127 0.0
H2198 H 0.5725 0.82261 0.13086 0.0
H2199 H 0.59575 0.81372 0.13309 0.0
C2200 C 0.20947 0.65549 0.08747 0.0
C2201 C 0.22634 0.66427 0.09447 0.0
C2202 C 0.20842 0.63626 0.0841 0.0
C2203 C 0.22462 0.6256 0.08785 0.0
C2204 C 0.24156 0.63434 0.09579 0.0
C2205 C 0.24224 0.6536 0.09886 0.0
C2206 C 0.19011 0.62742 0.07557 0.0
C2207 C 0.2591 0.62341 0.10017 0.0
C2208 C 0.22028 0.57383 0.09412 0.0
C2209 C 0.22341 0.56752 0.0696 0.0
C2210 C 0.22058 0.59278 0.10042 0.0
C2211 C 0.22414 0.6055 0.08168 0.0
C2212 C 0.22735 0.59903 0.05686 0.0
C2213 C 0.22697 0.58006 0.05114 0.0
C2214 C 0.21708 0.59918 0.12703 0.0
C2215 C 0.23117 0.61213 0.03633 0.0
H2216 H 0.19719 0.66374 0.08397 0.0
H2217 H 0.25529 0.66038 0.10421 0.0
H2218 H 0.19083 0.62117 0.05627 0.0
H2219 H 0.18697 0.61616 0.08822 0.0
H2220 H 0.17859 0.63748 0.07528 0.0
H2221 H 0.2708 0.63212 0.10819 0.0
H2222 H 0.25695 0.61212 0.11322 0.0
H2223 H 0.26294 0.61695 0.08202 0.0
H2224 H 0.21755 0.56394 0.10825 0.0
H2225 H 0.22934 0.57496 0.03217 0.0
H2226 H 0.20505 0.60859 0.12677 0.0
H2227 H 0.22916 0.60709 0.13557 0.0
H2228 H 0.21441 0.58752 0.13929 0.0
H2229 H 0.21963 0.62203 0.03373 0.0
H2230 H 0.23301 0.60483 0.01792 0.0
H2231 H 0.24383 0.62025 0.04191 0.0
C2232 C 0.38069 0.79647 0.86497 0.0
C2233 C 0.37201 0.77955 0.86859 0.0
C2234 C 0.39919 0.79955 0.87352 0.0
C2235 C 0.40901 0.78567 0.88677 0.0
C2236 C 0.40059 0.76835 0.8896 0.0
C2237 C 0.38226 0.76545 0.88024 0.0
C2238 C 0.40787 0.81804 0.86962 0.0
C2239 C 0.41046 0.75331 0.9041 0.0
C2240 C 0.46049 0.78836 0.90542 0.0
C2241 C 0.46032 0.79536 0.9303 0.0
C2242 C 0.44389 0.78582 0.89042 0.0
C2243 C 0.42691 0.79008 0.90091 0.0
C2244 C 0.42686 0.79766 0.92585 0.0
C2245 C 0.44358 0.80033 0.94013 0.0
C2246 C 0.44446 0.77808 0.86373 0.0
C2247 C 0.40909 0.80221 0.93791 0.0
H2248 H 0.37296 0.80752 0.85608 0.0
H2249 H 0.37559 0.7524 0.88309 0.0
H2250 H 0.40895 0.82616 0.88777 0.0
H2251 H 0.42204 0.81628 0.86337 0.0
H2252 H 0.39964 0.82608 0.85542 0.0
H2253 H 0.40262 0.74013 0.90268 0.0
H2254 H 0.4243 0.75084 0.89709 0.0
H2255 H 0.41252 0.7577 0.92436 0.0
H2256 H 0.47352 0.78449 0.898 0.0
H2257 H 0.44353 0.80578 0.95939 0.0
H2258 H 0.43579 0.78649 0.85049 0.0
H2259 H 0.4387 0.7639 0.86248 0.0
H2260 H 0.45873 0.77758 0.85745 0.0
H2261 H 0.40085 0.81207 0.92631 0.0
H2262 H 0.41154 0.8083 0.95736 0.0
H2263 H 0.40067 0.78953 0.93881 0.0
C2264 C 0.19325 0.38729 0.88971 0.0
C2265 C 0.20697 0.38017 0.87483 0.0
C2266 C 0.19635 0.40326 0.90505 0.0
C2267 C 0.21365 0.41229 0.90563 0.0
C2268 C 0.22768 0.40506 0.89094 0.0
C2269 C 0.22408 0.38924 0.8754 0.0
C2270 C 0.18095 0.4107 0.92016 0.0
C2271 C 0.24636 0.41422 0.89133 0.0
C2272 C 0.21416 0.46309 0.92496 0.0
C2273 C 0.21987 0.46253 0.95063 0.0
C2274 C 0.2124 0.44682 0.90994 0.0
C2275 C 0.21673 0.4297 0.92089 0.0
C2276 C 0.22315 0.4292 0.94668 0.0
C2277 C 0.22458 0.44568 0.9613 0.0
C2278 C 0.2054 0.4479 0.88256 0.0
C2279 C 0.22811 0.41125 0.95893 0.0
H2280 H 0.17991 0.38051 0.8889 0.0
H2281 H 0.23463 0.38408 0.86354 0.0
H2282 H 0.18561 0.41191 0.94051 0.0
H2283 H 0.17715 0.42473 0.91401 0.0
H2284 H 0.16844 0.40183 0.91798 0.0
H2285 H 0.25617 0.40617 0.88017 0.0
H2286 H 0.2449 0.42815 0.88348 0.0
H2287 H 0.25237 0.41603 0.91107 0.0
H2288 H 0.21066 0.47625 0.91686 0.0
H2289 H 0.22908 0.44541 0.98122 0.0
H2290 H 0.19216 0.44027 0.87931 0.0
H2291 H 0.21534 0.44127 0.87016 0.0
H2292 H 0.20316 0.46234 0.87679 0.0
H2293 H 0.21565 0.4024 0.95891 0.0
H2294 H 0.23392 0.41336 0.97875 0.0
H2295 H 0.23831 0.40364 0.94797 0.0
C2296 C 0.64491 0.21033 0.88084 0.0
C2297 C 0.65447 0.22695 0.88658 0.0
C2298 C 0.62736 0.20736 0.88955 0.0
C2299 C 0.61947 0.22106 0.90505 0.0
C2300 C 0.62902 0.23783 0.91089 0.0
C2301 C 0.64629 0.24063 0.90138 0.0
C2302 C 0.61739 0.18948 0.88246 0.0
C2303 C 0.62123 0.25264 0.92777 0.0
C2304 C 0.56835 0.22235 0.91572 0.0
C2305 C 0.56807 0.2143 0.9393 0.0
C2306 C 0.58489 0.22389 0.90375 0.0
C2307 C 0.60155 0.21767 0.91603 0.0
C2308 C 0.60123 0.20916 0.93963 0.0
C2309 C 0.58443 0.20741 0.95086 0.0
C2310 C 0.58461 0.23265 0.87834 0.0
C2311 C 0.61873 0.20267 0.95356 0.0
H2312 H 0.65112 0.19955 0.86966 0.0
H2313 H 0.6537 0.25341 0.906 0.0
H2314 H 0.61594 0.18145 0.89963 0.0
H2315 H 0.60327 0.19229 0.87418 0.0
H2316 H 0.62475 0.18086 0.86868 0.0
H2317 H 0.63038 0.26492 0.93042 0.0
H2318 H 0.60754 0.25709 0.91965 0.0
H2319 H 0.61917 0.24708 0.94659 0.0
H2320 H 0.55564 0.22761 0.9068 0.0
H2321 H 0.5842 0.2014 0.96926 0.0
H2322 H 0.59193 0.22379 0.86483 0.0
H2323 H 0.59197 0.24607 0.88027 0.0
H2324 H 0.57034 0.23505 0.87022 0.0
H2325 H 0.62618 0.19294 0.94134 0.0
H2326 H 0.61602 0.19576 0.97129 0.0
H2327 H 0.62802 0.21461 0.95836 0.0
C2328 C 0.8153 0.63712 0.88267 0.0
C2329 C 0.80319 0.63803 0.861 0.0
C2330 C 0.81323 0.62353 0.90039 0.0
C2331 C 0.7988 0.61044 0.89619 0.0
C2332 C 0.78639 0.61141 0.8745 0.0
C2333 C 0.78879 0.62516 0.85709 0.0
C2334 C 0.82675 0.6229 0.92328 0.0
C2335 C 0.77087 0.59766 0.86938 0.0
C2336 C 0.80583 0.56438 0.92689 0.0
C2337 C 0.79513 0.56639 0.94779 0.0
C2338 C 0.80699 0.57857 0.90982 0.0
C2339 C 0.79729 0.59519 0.91385 0.0
C2340 C 0.78641 0.59729 0.93489 0.0
C2341 C 0.78541 0.58282 0.95159 0.0
C2342 C 0.81863 0.57577 0.88749 0.0
C2343 C 0.77598 0.61488 0.93986 0.0
H2344 H 0.82659 0.64691 0.88555 0.0
H2345 H 0.77958 0.62568 0.84015 0.0
H2346 H 0.81926 0.62304 0.94081 0.0
H2347 H 0.83474 0.6099 0.92262 0.0
H2348 H 0.83658 0.63467 0.92444 0.0
H2349 H 0.76185 0.6009 0.85235 0.0
H2350 H 0.77663 0.58364 0.86661 0.0
H2351 H 0.76229 0.59731 0.88586 0.0
H2352 H 0.81316 0.55159 0.92373 0.0
H2353 H 0.77727 0.58447 0.96789 0.0
H2354 H 0.8297 0.58635 0.88827 0.0
H2355 H 0.81003 0.57749 0.86962 0.0
H2356 H 0.8251 0.56192 0.88688 0.0
H2357 H 0.78577 0.62664 0.94252 0.0
H2358 H 0.76795 0.61422 0.95689 0.0
H2359 H 0.76636 0.6178 0.92333 0.0
loop_
_geom_bond_atom_site_label_1
_geom_bond_atom_site_label_2
_geom_bond_distance
_geom_bond_site_symmetry_2
_ccdc_geom_bond_type
C0 C1 1.560 . S
C0 H61 0.959 . S
C0 H62 0.959 . S
C0 H63 0.960 . S
C1 C0 1.560 . S
C1 O56 1.426 . S
C1 H60 0.980 . S
C2 C3 1.407 . S
C2 C7 1.418 . S
C2 O56 1.334 . S
C3 C2 1.407 . S
C3 C4 1.360 . S
C3 H64 0.929 . S
C4 C3 1.360 . S
C4 C5 1.401 . S
C4 C8 1.527 . S
C5 C4 1.401 . S
C5 C6 1.405 . S
C5 C38 1.587 . S
C6 C5 1.405 . S
C6 C7 1.332 . S
C6 C9 1.496 . S
C7 C2 1.418 . S
C7 C6 1.332 . S
C7 H65 0.929 . S
C8 C4 1.527 . S
C8 H66 0.959 . S
C8 H67 0.961 . S
C8 H68 0.961 . S
C9 C6 1.496 . S
C9 H69 0.960 . S
C9 H70 0.960 . S
C9 H71 0.961 . S
C10 C11 1.517 . S
C10 H73 0.961 . S
C10 H74 0.960 . S
C10 H75 0.959 . S
C11 C10 1.517 . S
C11 O59 1.468 . S
C11 H72 0.980 . S
C12 C13 1.349 . S
C12 C17 1.367 . S
C12 O59 1.408 . S
C13 C12 1.349 . S
C13 C14 1.407 . S
C13 H76 0.930 . S
C14 C13 1.407 . S
C14 C15 1.449 . S
C14 C18 1.535 . S
C15 C14 1.449 . S
C15 C16 1.384 . S
C15 C40 1.553 . S
C16 C15 1.384 . S
C16 C17 1.364 . S
C16 C19 1.450 . S
C17 C12 1.367 . S
C17 C16 1.364 . S
C17 H77 0.931 . S
C18 C14 1.535 . S
C18 H78 0.959 . S
C18 H79 0.961 . S
C18 H80 0.959 . S
C19 C16 1.450 . S
C19 H81 0.960 . S
C19 H82 0.960 . S
C19 H83 0.960 . S
C20 C21 1.309 . S
C20 C25 1.304 . S
C20 O58 1.435 . S
C21 C20 1.309 . S
C21 C22 1.476 . S
C21 H85 0.930 . S
C22 C21 1.476 . S
C22 C23 1.400 . S
C22 C26 1.567 . S
C23 C22 1.400 . S
C23 C24 1.373 . S
C23 C45 1.432 . S
C24 C23 1.373 . S
C24 C25 1.339 . S
C24 C27 1.530 . S
C25 C20 1.304 . S
C25 C24 1.339 . S
C25 H86 0.930 . S
C26 C22 1.567 . S
C26 H87 0.961 . S
C26 H88 0.960 . S
C26 H89 0.958 . S
C27 C24 1.530 . S
C27 H90 0.961 . S
C27 H91 0.960 . S
C27 H92 0.960 . S
C28 C29 1.530 . S
C28 H94 0.961 . S
C28 H95 0.961 . S
C28 H96 0.959 . S
C29 C28 1.530 . S
C29 O57 1.412 . S
C29 H93 0.980 . S
C30 C31 1.288 . S
C30 C35 1.377 . S
C30 O57 1.393 . S
C31 C30 1.288 . S
C31 C32 1.369 . S
C31 H97 0.932 . S
C32 C31 1.369 . S
C32 C33 1.398 . S
C32 C36 1.527 . S
C33 C32 1.398 . S
C33 C34 1.380 . S
C33 C47 1.497 . S
C34 C33 1.380 . S
C34 C35 1.383 . S
C34 C37 1.603 . S
C35 C30 1.377 . S
C35 C34 1.383 . S
C35 H98 0.929 . S
C36 C32 1.527 . S
C36 H99 0.961 . S
C36 H100 0.959 . S
C36 H101 0.959 . S
C37 C34 1.603 . S
C37 H102 0.960 . S
C37 H103 0.962 . S
C37 H104 0.961 . S
C38 C5 1.587 . S
C38 C39 1.360 . S
C38 C51 1.412 . S
C39 C38 1.360 . S
C39 C40 1.365 . S
C39 H105 0.929 . S
C40 C15 1.553 . S
C40 C39 1.365 . S
C40 C41 1.404 . S
C41 C40 1.404 . S
C41 C42 1.395 . S
C41 C52 1.451 . S
C42 C41 1.395 . S
C42 C43 1.322 . S
C42 H106 0.930 . S
C43 C42 1.322 . S
C43 C44 1.459 . S
C43 H107 0.929 . S
C44 C43 1.459 . S
C44 C45 1.445 . S
C44 C53 1.395 . S
C45 C23 1.432 . S
C45 C44 1.445 . S
C45 C46 1.370 . S
C46 C45 1.370 . S
C46 C47 1.438 . S
C46 H108 0.930 . S
C47 C33 1.497 . S
C47 C46 1.438 . S
C47 C48 1.360 . S
C48 C47 1.360 . S
C48 C49 1.401 . S
C48 C53 1.446 . S
C49 C48 1.401 . S
C49 C50 1.347 . S
C49 H109 0.929 . S
C50 C49 1.347 . S
C50 C51 1.455 . S
C50 H110 0.930 . S
C51 C38 1.412 . S
C51 C50 1.455 . S
C51 C52 1.331 . S
C52 C41 1.451 . S
C52 C51 1.331 . S
C52 C53 1.497 . S
C53 C44 1.395 . S
C53 C48 1.446 . S
C53 C52 1.497 . S
C54 C55 1.582 . S
C54 H111 0.962 . S
C54 H112 0.959 . S
C54 H113 0.958 . S
C55 C54 1.582 . S
C55 O58 1.458 . S
C55 H84 0.980 . S
O56 C1 1.426 . S
O56 C2 1.334 . S
O57 C29 1.412 . S
O57 C30 1.393 . S
O58 C20 1.435 . S
O58 C55 1.458 . S
O59 C11 1.468 . S
O59 C12 1.408 . S
H60 C1 0.980 . S
H61 C0 0.959 . S
H62 C0 0.959 . S
H63 C0 0.960 . S
H64 C3 0.929 . S
H65 C7 0.929 . S
H66 C8 0.959 . S
H67 C8 0.961 . S
H68 C8 0.961 . S
H69 C9 0.960 . S
H70 C9 0.960 . S
H71 C9 0.961 . S
H72 C11 0.980 . S
H73 C10 0.961 . S
H74 C10 0.960 . S
H75 C10 0.959 . S
H76 C13 0.930 . S
H77 C17 0.931 . S
H78 C18 0.959 . S
H79 C18 0.961 . S
H80 C18 0.959 . S
H81 C19 0.960 . S
H82 C19 0.960 . S
H83 C19 0.960 . S
H84 C55 0.980 . S
H85 C21 0.930 . S
H86 C25 0.930 . S
H87 C26 0.961 . S
H88 C26 0.960 . S
H89 C26 0.958 . S
H90 C27 0.961 . S
H91 C27 0.960 . S
H92 C27 0.960 . S
H93 C29 0.980 . S
H94 C28 0.961 . S
H95 C28 0.961 . S
H96 C28 0.959 . S
H97 C31 0.932 . S
H98 C35 0.929 . S
H99 C36 0.961 . S
H100 C36 0.959 . S
H101 C36 0.959 . S
H102 C37 0.960 . S
H103 C37 0.962 . S
H104 C37 0.961 . S
H105 C39 0.929 . S
H106 C42 0.930 . S
H107 C43 0.929 . S
H108 C46 0.930 . S
H109 C49 0.929 . S
H110 C50 0.930 . S
H111 C54 0.962 . S
H112 C54 0.959 . S
H113 C54 0.958 . S
C114 C115 1.560 . S
C114 H175 0.959 . S
C114 H176 0.959 . S
C114 H177 0.960 . S
C115 C114 1.560 . S
C115 O170 1.426 . S
C115 H174 0.980 . S
C116 C117 1.407 . S
C116 C121 1.418 . S
C116 O170 1.334 . S
C117 C116 1.407 . S
C117 C118 1.360 . S
C117 H178 0.929 . S
C118 C117 1.360 . S
C118 C119 1.401 . S
C118 C122 1.527 . S
C119 C118 1.401 . S
C119 C120 1.405 . S
C119 C152 1.587 . S
C120 C119 1.405 . S
C120 C121 1.332 . S
C120 C123 1.496 . S
C121 C116 1.418 . S
C121 C120 1.332 . S
C121 H179 0.929 . S
C122 C118 1.527 . S
C122 H180 0.959 . S
C122 H181 0.961 . S
C122 H182 0.961 . S
C123 C120 1.496 . S
C123 H183 0.960 . S
C123 H184 0.960 . S
C123 H185 0.961 . S
C124 C125 1.517 . S
C124 H187 0.961 . S
C124 H188 0.960 . S
C124 H189 0.959 . S
C125 C124 1.517 . S
C125 O173 1.468 . S
C125 H186 0.980 . S
C126 C127 1.349 . S
C126 C131 1.367 . S
C126 O173 1.408 . S
C127 C126 1.349 . S
C127 C128 1.407 . S
C127 H190 0.930 . S
C128 C127 1.407 . S
C128 C129 1.449 . S
C128 C132 1.535 . S
C129 C128 1.449 . S
C129 C130 1.384 . S
C129 C154 1.553 . S
C130 C129 1.384 . S
C130 C131 1.364 . S
C130 C133 1.450 . S
C131 C126 1.367 . S
C131 C130 1.364 . S
C131 H191 0.931 . S
C132 C128 1.535 . S
C132 H192 0.959 . S
C132 H193 0.961 . S
C132 H194 0.959 . S
C133 C130 1.450 . S
C133 H195 0.960 . S
C133 H196 0.960 . S
C133 H197 0.960 . S
C134 C135 1.309 . S
C134 C139 1.304 . S
C134 O172 1.435 . S
C135 C134 1.309 . S
C135 C136 1.476 . S
C135 H199 0.930 . S
C136 C135 1.476 . S
C136 C137 1.400 . S
C136 C140 1.567 . S
C137 C136 1.400 . S
C137 C138 1.373 . S
C137 C159 1.432 . S
C138 C137 1.373 . S
C138 C139 1.339 . S
C138 C141 1.530 . S
C139 C134 1.304 . S
C139 C138 1.339 . S
C139 H200 0.930 . S
C140 C136 1.567 . S
C140 H201 0.961 . S
C140 H202 0.960 . S
C140 H203 0.958 . S
C141 C138 1.530 . S
C141 H204 0.961 . S
C141 H205 0.960 . S
C141 H206 0.960 . S
C142 C143 1.530 . S
C142 H208 0.961 . S
C142 H209 0.961 . S
C142 H210 0.959 . S
C143 C142 1.530 . S
C143 O171 1.412 . S
C143 H207 0.980 . S
C144 C145 1.288 . S
C144 C149 1.377 . S
C144 O171 1.393 . S
C145 C144 1.288 . S
C145 C146 1.369 . S
C145 H211 0.932 . S
C146 C145 1.369 . S
C146 C147 1.398 . S
C146 C150 1.527 . S
C147 C146 1.398 . S
C147 C148 1.380 . S
C147 C161 1.497 . S
C148 C147 1.380 . S
C148 C149 1.383 . S
C148 C151 1.603 . S
C149 C144 1.377 . S
C149 C148 1.383 . S
C149 H212 0.929 . S
C150 C146 1.527 . S
C150 H213 0.961 . S
C150 H214 0.959 . S
C150 H215 0.959 . S
C151 C148 1.603 . S
C151 H216 0.960 . S
C151 H217 0.962 . S
C151 H218 0.961 . S
C152 C119 1.587 . S
C152 C153 1.360 . S
C152 C165 1.412 . S
C153 C152 1.360 . S
C153 C154 1.365 . S
C153 H219 0.929 . S
C154 C129 1.553 . S
C154 C153 1.365 . S
C154 C155 1.404 . S
C155 C154 1.404 . S
C155 C156 1.395 . S
C155 C166 1.451 . S
C156 C155 1.395 . S
C156 C157 1.322 . S
C156 H220 0.930 . S
C157 C156 1.322 . S
C157 C158 1.459 . S
C157 H221 0.929 . S
C158 C157 1.459 . S
C158 C159 1.445 . S
C158 C167 1.395 . S
C159 C137 1.432 . S
C159 C158 1.445 . S
C159 C160 1.370 . S
C160 C159 1.370 . S
C160 C161 1.438 . S
C160 H222 0.930 . S
C161 C147 1.497 . S
C161 C160 1.438 . S
C161 C162 1.360 . S
C162 C161 1.360 . S
C162 C163 1.401 . S
C162 C167 1.446 . S
C163 C162 1.401 . S
C163 C164 1.347 . S
C163 H223 0.929 . S
C164 C163 1.347 . S
C164 C165 1.455 . S
C164 H224 0.930 . S
C165 C152 1.412 . S
C165 C164 1.455 . S
C165 C166 1.331 . S
C166 C155 1.451 . S
C166 C165 1.331 . S
C166 C167 1.497 . S
C167 C158 1.395 . S
C167 C162 1.446 . S
C167 C166 1.497 . S
C168 C169 1.582 . S
C168 H225 0.962 . S
C168 H226 0.959 . S
C168 H227 0.958 . S
C169 C168 1.582 . S
C169 O172 1.458 . S
C169 H198 0.980 . S
O170 C115 1.426 . S
O170 C116 1.334 . S
O171 C143 1.412 . S
O171 C144 1.393 . S
O172 C134 1.435 . S
O172 C169 1.458 . S
O173 C125 1.468 . S
O173 C126 1.408 . S
H174 C115 0.980 . S
H175 C114 0.959 . S
H176 C114 0.959 . S
H177 C114 0.960 . S
H178 C117 0.929 . S
H179 C121 0.929 . S
H180 C122 0.959 . S
H181 C122 0.961 . S
H182 C122 0.961 . S
H183 C123 0.960 . S
H184 C123 0.960 . S
H185 C123 0.961 . S
H186 C125 0.980 . S
H187 C124 0.961 . S
H188 C124 0.960 . S
H189 C124 0.959 . S
H190 C127 0.930 . S
H191 C131 0.931 . S
H192 C132 0.959 . S
H193 C132 0.961 . S
H194 C132 0.959 . S
H195 C133 0.960 . S
H196 C133 0.960 . S
H197 C133 0.960 . S
H198 C169 0.980 . S
H199 C135 0.930 . S
H200 C139 0.930 . S
H201 C140 0.961 . S
H202 C140 0.960 . S
H203 C140 0.958 . S
H204 C141 0.961 . S
H205 C141 0.960 . S
H206 C141 0.960 . S
H207 C143 0.980 . S
H208 C142 0.961 . S
H209 C142 0.961 . S
H210 C142 0.959 . S
H211 C145 0.932 . S
H212 C149 0.929 . S
H213 C150 0.961 . S
H214 C150 0.959 . S
H215 C150 0.959 . S
H216 C151 0.960 . S
H217 C151 0.962 . S
H218 C151 0.961 . S
H219 C153 0.929 . S
H220 C156 0.930 . S
H221 C157 0.929 . S
H222 C160 0.930 . S
H223 C163 0.929 . S
H224 C164 0.930 . S
H225 C168 0.962 . S
H226 C168 0.959 . S
H227 C168 0.958 . S
C228 C229 1.560 . S
C228 H289 0.959 . S
C228 H290 0.959 . S
C228 H291 0.960 . S
C229 C228 1.560 . S
C229 O284 1.426 . S
C229 H288 0.980 . S
C230 C231 1.407 . S
C230 C235 1.418 . S
C230 O284 1.334 . S
C231 C230 1.407 . S
C231 C232 1.360 . S
C231 H292 0.929 . S
C232 C231 1.360 . S
C232 C233 1.401 . S
C232 C236 1.527 . S
C233 C232 1.401 . S
C233 C234 1.405 . S
C233 C266 1.587 . S
C234 C233 1.405 . S
C234 C235 1.332 . S
C234 C237 1.496 . S
C235 C230 1.418 . S
C235 C234 1.332 . S
C235 H293 0.929 . S
C236 C232 1.527 . S
C236 H294 0.959 . S
C236 H295 0.961 . S
C236 H296 0.961 . S
C237 C234 1.496 . S
C237 H297 0.960 . S
C237 H298 0.960 . S
C237 H299 0.961 . S
C238 C239 1.517 . S
C238 H301 0.961 . S
C238 H302 0.960 . S
C238 H303 0.959 . S
C239 C238 1.517 . S
C239 O287 1.468 . S
C239 H300 0.980 . S
C240 C241 1.349 . S
C240 C245 1.367 . S
C240 O287 1.408 . S
C241 C240 1.349 . S
C241 C242 1.407 . S
C241 H304 0.930 . S
C242 C241 1.407 . S
C242 C243 1.449 . S
C242 C246 1.535 . S
C243 C242 1.449 . S
C243 C244 1.384 . S
C243 C268 1.553 . S
C244 C243 1.384 . S
C244 C245 1.364 . S
C244 C247 1.450 . S
C245 C240 1.367 . S
C245 C244 1.364 . S
C245 H305 0.931 . S
C246 C242 1.535 . S
C246 H306 0.959 . S
C246 H307 0.961 . S
C246 H308 0.959 . S
C247 C244 1.450 . S
C247 H309 0.960 . S
C247 H310 0.960 . S
C247 H311 0.960 . S
C248 C249 1.309 . S
C248 C253 1.304 . S
C248 O286 1.435 . S
C249 C248 1.309 . S
C249 C250 1.476 . S
C249 H313 0.930 . S
C250 C249 1.476 . S
C250 C251 1.400 . S
C250 C254 1.567 . S
C251 C250 1.400 . S
C251 C252 1.373 . S
C251 C273 1.432 . S
C252 C251 1.373 . S
C252 C253 1.339 . S
C252 C255 1.530 . S
C253 C248 1.304 . S
C253 C252 1.339 . S
C253 H314 0.930 . S
C254 C250 1.567 . S
C254 H315 0.961 . S
C254 H316 0.960 . S
C254 H317 0.958 . S
C255 C252 1.530 . S
C255 H318 0.961 . S
C255 H319 0.960 . S
C255 H320 0.960 . S
C256 C257 1.530 . S
C256 H322 0.961 . S
C256 H323 0.961 . S
C256 H324 0.959 . S
C257 C256 1.530 . S
C257 O285 1.412 . S
C257 H321 0.980 . S
C258 C259 1.288 . S
C258 C263 1.377 . S
C258 O285 1.393 . S
C259 C258 1.288 . S
C259 C260 1.369 . S
C259 H325 0.932 . S
C260 C259 1.369 . S
C260 C261 1.398 . S
C260 C264 1.527 . S
C261 C260 1.398 . S
C261 C262 1.380 . S
C261 C275 1.497 . S
C262 C261 1.380 . S
C262 C263 1.383 . S
C262 C265 1.603 . S
C263 C258 1.377 . S
C263 C262 1.383 . S
C263 H326 0.929 . S
C264 C260 1.527 . S
C264 H327 0.961 . S
C264 H328 0.959 . S
C264 H329 0.959 . S
C265 C262 1.603 . S
C265 H330 0.960 . S
C265 H331 0.962 . S
C265 H332 0.961 . S
C266 C233 1.587 . S
C266 C267 1.360 . S
C266 C279 1.412 . S
C267 C266 1.360 . S
C267 C268 1.365 . S
C267 H333 0.929 . S
C268 C243 1.553 . S
C268 C267 1.365 . S
C268 C269 1.404 . S
C269 C268 1.404 . S
C269 C270 1.395 . S
C269 C280 1.451 . S
C270 C269 1.395 . S
C270 C271 1.322 . S
C270 H334 0.930 . S
C271 C270 1.322 . S
C271 C272 1.459 . S
C271 H335 0.929 . S
C272 C271 1.459 . S
C272 C273 1.445 . S
C272 C281 1.395 . S
C273 C251 1.432 . S
C273 C272 1.445 . S
C273 C274 1.370 . S
C274 C273 1.370 . S
C274 C275 1.438 . S
C274 H336 0.930 . S
C275 C261 1.497 . S
C275 C274 1.438 . S
C275 C276 1.360 . S
C276 C275 1.360 . S
C276 C277 1.401 . S
C276 C281 1.446 . S
C277 C276 1.401 . S
C277 C278 1.347 . S
C277 H337 0.929 . S
C278 C277 1.347 . S
C278 C279 1.455 . S
C278 H338 0.930 . S
C279 C266 1.412 . S
C279 C278 1.455 . S
C279 C280 1.331 . S
C280 C269 1.451 . S
C280 C279 1.331 . S
C280 C281 1.497 . S
C281 C272 1.395 . S
C281 C276 1.446 . S
C281 C280 1.497 . S
C282 C283 1.582 . S
C282 H339 0.962 . S
C282 H340 0.959 . S
C282 H341 0.958 . S
C283 C282 1.582 . S
C283 O286 1.458 . S
C283 H312 0.980 . S
O284 C229 1.426 . S
O284 C230 1.334 . S
O285 C257 1.412 . S
O285 C258 1.393 . S
O286 C248 1.435 . S
O286 C283 1.458 . S
O287 C239 1.468 . S
O287 C240 1.408 . S
H288 C229 0.980 . S
H289 C228 0.959 . S
H290 C228 0.959 . S
H291 C228 0.960 . S
H292 C231 0.929 . S
H293 C235 0.929 . S
H294 C236 0.959 . S
H295 C236 0.961 . S
H296 C236 0.961 . S
H297 C237 0.960 . S
H298 C237 0.960 . S
H299 C237 0.961 . S
H300 C239 0.980 . S
H301 C238 0.961 . S
H302 C238 0.960 . S
H303 C238 0.959 . S
H304 C241 0.930 . S
H305 C245 0.931 . S
H306 C246 0.959 . S
H307 C246 0.961 . S
H308 C246 0.959 . S
H309 C247 0.960 . S
H310 C247 0.960 . S
H311 C247 0.960 . S
H312 C283 0.980 . S
H313 C249 0.930 . S
H314 C253 0.930 . S
H315 C254 0.961 . S
H316 C254 0.960 . S
H317 C254 0.958 . S
H318 C255 0.961 . S
H319 C255 0.960 . S
H320 C255 0.960 . S
H321 C257 0.980 . S
H322 C256 0.961 . S
H323 C256 0.961 . S
H324 C256 0.959 . S
H325 C259 0.932 . S
H326 C263 0.929 . S
H327 C264 0.961 . S
H328 C264 0.959 . S
H329 C264 0.959 . S
H330 C265 0.960 . S
H331 C265 0.962 . S
H332 C265 0.961 . S
H333 C267 0.929 . S
H334 C270 0.930 . S
H335 C271 0.929 . S
H336 C274 0.930 . S
H337 C277 0.929 . S
H338 C278 0.930 . S
H339 C282 0.962 . S
H340 C282 0.959 . S
H341 C282 0.958 . S
C342 C343 1.560 . S
C342 H403 0.959 . S
C342 H404 0.959 . S
C342 H405 0.960 . S
C343 C342 1.560 . S
C343 O398 1.426 . S
C343 H402 0.980 . S
C344 C345 1.407 . S
C344 C349 1.418 . S
C344 O398 1.334 . S
C345 C344 1.407 . S
C345 C346 1.360 . S
C345 H406 0.929 . S
C346 C345 1.360 . S
C346 C347 1.401 . S
C346 C350 1.527 . S
C347 C346 1.401 . S
C347 C348 1.405 . S
C347 C380 1.587 . S
C348 C347 1.405 . S
C348 C349 1.332 . S
C348 C351 1.496 . S
C349 C344 1.418 . S
C349 C348 1.332 . S
C349 H407 0.929 . S
C350 C346 1.527 . S
C350 H408 0.959 . S
C350 H409 0.961 . S
C350 H410 0.961 . S
C351 C348 1.496 . S
C351 H411 0.960 . S
C351 H412 0.960 . S
C351 H413 0.961 . S
C352 C353 1.517 . S
C352 H415 0.961 . S
C352 H416 0.960 . S
C352 H417 0.959 . S
C353 C352 1.517 . S
C353 O401 1.468 . S
C353 H414 0.980 . S
C354 C355 1.349 . S
C354 C359 1.367 . S
C354 O401 1.408 . S
C355 C354 1.349 . S
C355 C356 1.407 . S
C355 H418 0.930 . S
C356 C355 1.407 . S
C356 C357 1.449 . S
C356 C360 1.535 . S
C357 C356 1.449 . S
C357 C358 1.384 . S
C357 C382 1.553 . S
C358 C357 1.384 . S
C358 C359 1.364 . S
C358 C361 1.450 . S
C359 C354 1.367 . S
C359 C358 1.364 . S
C359 H419 0.931 . S
C360 C356 1.535 . S
C360 H420 0.959 . S
C360 H421 0.961 . S
C360 H422 0.959 . S
C361 C358 1.450 . S
C361 H423 0.960 . S
C361 H424 0.960 . S
C361 H425 0.960 . S
C362 C363 1.309 . S
C362 C367 1.304 . S
C362 O400 1.435 . S
C363 C362 1.309 . S
C363 C364 1.476 . S
C363 H427 0.930 . S
C364 C363 1.476 . S
C364 C365 1.400 . S
C364 C368 1.567 . S
C365 C364 1.400 . S
C365 C366 1.373 . S
C365 C387 1.432 . S
C366 C365 1.373 . S
C366 C367 1.339 . S
C366 C369 1.530 . S
C367 C362 1.304 . S
C367 C366 1.339 . S
C367 H428 0.930 . S
C368 C364 1.567 . S
C368 H429 0.961 . S
C368 H430 0.960 . S
C368 H431 0.958 . S
C369 C366 1.530 . S
C369 H432 0.961 . S
C369 H433 0.960 . S
C369 H434 0.960 . S
C370 C371 1.530 . S
C370 H436 0.961 . S
C370 H437 0.961 . S
C370 H438 0.959 . S
C371 C370 1.530 . S
C371 O399 1.412 . S
C371 H435 0.980 . S
C372 C373 1.288 . S
C372 C377 1.377 . S
C372 O399 1.393 . S
C373 C372 1.288 . S
C373 C374 1.369 . S
C373 H439 0.932 . S
C374 C373 1.369 . S
C374 C375 1.398 . S
C374 C378 1.527 . S
C375 C374 1.398 . S
C375 C376 1.380 . S
C375 C389 1.497 . S
C376 C375 1.380 . S
C376 C377 1.383 . S
C376 C379 1.603 . S
C377 C372 1.377 . S
C377 C376 1.383 . S
C377 H440 0.929 . S
C378 C374 1.527 . S
C378 H441 0.961 . S
C378 H442 0.959 . S
C378 H443 0.959 . S
C379 C376 1.603 . S
C379 H444 0.960 . S
C379 H445 0.962 . S
C379 H446 0.961 . S
C380 C347 1.587 . S
C380 C381 1.360 . S
C380 C393 1.412 . S
C381 C380 1.360 . S
C381 C382 1.365 . S
C381 H447 0.929 . S
C382 C357 1.553 . S
C382 C381 1.365 . S
C382 C383 1.404 . S
C383 C382 1.404 . S
C383 C384 1.395 . S
C383 C394 1.451 . S
C384 C383 1.395 . S
C384 C385 1.322 . S
C384 H448 0.930 . S
C385 C384 1.322 . S
C385 C386 1.459 . S
C385 H449 0.929 . S
C386 C385 1.459 . S
C386 C387 1.445 . S
C386 C395 1.395 . S
C387 C365 1.432 . S
C387 C386 1.445 . S
C387 C388 1.370 . S
C388 C387 1.370 . S
C388 C389 1.438 . S
C388 H450 0.930 . S
C389 C375 1.497 . S
C389 C388 1.438 . S
C389 C390 1.360 . S
C390 C389 1.360 . S
C390 C391 1.401 . S
C390 C395 1.446 . S
C391 C390 1.401 . S
C391 C392 1.347 . S
C391 H451 0.929 . S
C392 C391 1.347 . S
C392 C393 1.455 . S
C392 H452 0.930 . S
C393 C380 1.412 . S
C393 C392 1.455 . S
C393 C394 1.331 . S
C394 C383 1.451 . S
C394 C393 1.331 . S
C394 C395 1.497 . S
C395 C386 1.395 . S
C395 C390 1.446 . S
C395 C394 1.497 . S
C396 C397 1.582 . S
C396 H453 0.962 . S
C396 H454 0.959 . S
C396 H455 0.958 . S
C397 C396 1.582 . S
C397 O400 1.458 . S
C397 H426 0.980 . S
O398 C343 1.426 . S
O398 C344 1.334 . S
O399 C371 1.412 . S
O399 C372 1.393 . S
O400 C362 1.435 . S
O400 C397 1.458 . S
O401 C353 1.468 . S
O401 C354 1.408 . S
H402 C343 0.980 . S
H403 C342 0.959 . S
H404 C342 0.959 . S
H405 C342 0.960 . S
H406 C345 0.929 . S
H407 C349 0.929 . S
H408 C350 0.959 . S
H409 C350 0.961 . S
H410 C350 0.961 . S
H411 C351 0.960 . S
H412 C351 0.960 . S
H413 C351 0.961 . S
H414 C353 0.980 . S
H415 C352 0.961 . S
H416 C352 0.960 . S
H417 C352 0.959 . S
H418 C355 0.930 . S
H419 C359 0.931 . S
H420 C360 0.959 . S
H421 C360 0.961 . S
H422 C360 0.959 . S
H423 C361 0.960 . S
H424 C361 0.960 . S
H425 C361 0.960 . S
H426 C397 0.980 . S
H427 C363 0.930 . S
H428 C367 0.930 . S
H429 C368 0.961 . S
H430 C368 0.960 . S
H431 C368 0.958 . S
H432 C369 0.961 . S
H433 C369 0.960 . S
H434 C369 0.960 . S
H435 C371 0.980 . S
H436 C370 0.961 . S
H437 C370 0.961 . S
H438 C370 0.959 . S
H439 C373 0.932 . S
H440 C377 0.929 . S
H441 C378 0.961 . S
H442 C378 0.959 . S
H443 C378 0.959 . S
H444 C379 0.960 . S
H445 C379 0.962 . S
H446 C379 0.961 . S
H447 C381 0.929 . S
H448 C384 0.930 . S
H449 C385 0.929 . S
H450 C388 0.930 . S
H451 C391 0.929 . S
H452 C392 0.930 . S
H453 C396 0.962 . S
H454 C396 0.959 . S
H455 C396 0.958 . S
C456 C457 1.560 . S
C456 H517 0.959 . S
C456 H518 0.959 . S
C456 H519 0.960 . S
C457 C456 1.560 . S
C457 O512 1.426 . S
C457 H516 0.980 . S
C458 C459 1.407 . S
C458 C463 1.418 . S
C458 O512 1.334 . S
C459 C458 1.407 . S
C459 C460 1.360 . S
C459 H520 0.929 . S
C460 C459 1.360 . S
C460 C461 1.401 . S
C460 C464 1.527 . S
C461 C460 1.401 . S
C461 C462 1.405 . S
C461 C494 1.587 . S
C462 C461 1.405 . S
C462 C463 1.332 . S
C462 C465 1.496 . S
C463 C458 1.418 . S
C463 C462 1.332 . S
C463 H521 0.929 . S
C464 C460 1.527 . S
C464 H522 0.959 . S
C464 H523 0.961 . S
C464 H524 0.961 . S
C465 C462 1.496 . S
C465 H525 0.960 . S
C465 H526 0.960 . S
C465 H527 0.961 . S
C466 C467 1.517 . S
C466 H529 0.961 . S
C466 H530 0.960 . S
C466 H531 0.959 . S
C467 C466 1.517 . S
C467 O515 1.468 . S
C467 H528 0.980 . S
C468 C469 1.349 . S
C468 C473 1.367 . S
C468 O515 1.408 . S
C469 C468 1.349 . S
C469 C470 1.407 . S
C469 H532 0.930 . S
C470 C469 1.407 . S
C470 C471 1.449 . S
C470 C474 1.535 . S
C471 C470 1.449 . S
C471 C472 1.384 . S
C471 C496 1.553 . S
C472 C471 1.384 . S
C472 C473 1.364 . S
C472 C475 1.450 . S
C473 C468 1.367 . S
C473 C472 1.364 . S
C473 H533 0.931 . S
C474 C470 1.535 . S
C474 H534 0.959 . S
C474 H535 0.961 . S
C474 H536 0.959 . S
C475 C472 1.450 . S
C475 H537 0.960 . S
C475 H538 0.960 . S
C475 H539 0.960 . S
C476 C477 1.309 . S
C476 C481 1.304 . S
C476 O514 1.435 . S
C477 C476 1.309 . S
C477 C478 1.476 . S
C477 H541 0.930 . S
C478 C477 1.476 . S
C478 C479 1.400 . S
C478 C482 1.567 . S
C479 C478 1.400 . S
C479 C480 1.373 . S
C479 C501 1.432 . S
C480 C479 1.373 . S
C480 C481 1.339 . S
C480 C483 1.530 . S
C481 C476 1.304 . S
C481 C480 1.339 . S
C481 H542 0.930 . S
C482 C478 1.567 . S
C482 H543 0.961 . S
C482 H544 0.960 . S
C482 H545 0.958 . S
C483 C480 1.530 . S
C483 H546 0.961 . S
C483 H547 0.960 . S
C483 H548 0.960 . S
C484 C485 1.530 . S
C484 H550 0.961 . S
C484 H551 0.961 . S
C484 H552 0.959 . S
C485 C484 1.530 . S
C485 O513 1.412 . S
C485 H549 0.980 . S
C486 C487 1.288 . S
C486 C491 1.377 . S
C486 O513 1.393 . S
C487 C486 1.288 . S
C487 C488 1.369 . S
C487 H553 0.932 . S
C488 C487 1.369 . S
C488 C489 1.398 . S
C488 C492 1.527 . S
C489 C488 1.398 . S
C489 C490 1.380 . S
C489 C503 1.497 . S
C490 C489 1.380 . S
C490 C491 1.383 . S
C490 C493 1.603 . S
C491 C486 1.377 . S
C491 C490 1.383 . S
C491 H554 0.929 . S
C492 C488 1.527 . S
C492 H555 0.961 . S
C492 H556 0.959 . S
C492 H557 0.959 . S
C493 C490 1.603 . S
C493 H558 0.960 . S
C493 H559 0.962 . S
C493 H560 0.961 . S
C494 C461 1.587 . S
C494 C495 1.360 . S
C494 C507 1.412 . S
C495 C494 1.360 . S
C495 C496 1.365 . S
C495 H561 0.929 . S
C496 C471 1.553 . S
C496 C495 1.365 . S
C496 C497 1.404 . S
C497 C496 1.404 . S
C497 C498 1.395 . S
C497 C508 1.451 . S
C498 C497 1.395 . S
C498 C499 1.322 . S
C498 H562 0.930 . S
C499 C498 1.322 . S
C499 C500 1.459 . S
C499 H563 0.929 . S
C500 C499 1.459 . S
C500 C501 1.445 . S
C500 C509 1.395 . S
C501 C479 1.432 . S
C501 C500 1.445 . S
C501 C502 1.370 . S
C502 C501 1.370 . S
C502 C503 1.438 . S
C502 H564 0.930 . S
C503 C489 1.497 . S
C503 C502 1.438 . S
C503 C504 1.360 . S
C504 C503 1.360 . S
C504 C505 1.401 . S
C504 C509 1.446 . S
C505 C504 1.401 . S
C505 C506 1.347 . S
C505 H565 0.929 . S
C506 C505 1.347 . S
C506 C507 1.455 . S
C506 H566 0.930 . S
C507 C494 1.412 . S
C507 C506 1.455 . S
C507 C508 1.331 . S
C508 C497 1.451 . S
C508 C507 1.331 . S
C508 C509 1.497 . S
C509 C500 1.395 . S
C509 C504 1.446 . S
C509 C508 1.497 . S
C510 C511 1.582 . S
C510 H567 0.962 . S
C510 H568 0.959 . S
C510 H569 0.958 . S
C511 C510 1.582 . S
C511 O514 1.458 . S
C511 H540 0.980 . S
O512 C457 1.426 . S
O512 C458 1.334 . S
O513 C485 1.412 . S
O513 C486 1.393 . S
O514 C476 1.435 . S
O514 C511 1.458 . S
O515 C467 1.468 . S
O515 C468 1.408 . S
H516 C457 0.980 . S
H517 C456 0.959 . S
H518 C456 0.959 . S
H519 C456 0.960 . S
H520 C459 0.929 . S
H521 C463 0.929 . S
H522 C464 0.959 . S
H523 C464 0.961 . S
H524 C464 0.961 . S
H525 C465 0.960 . S
H526 C465 0.960 . S
H527 C465 0.961 . S
H528 C467 0.980 . S
H529 C466 0.961 . S
H530 C466 0.960 . S
H531 C466 0.959 . S
H532 C469 0.930 . S
H533 C473 0.931 . S
H534 C474 0.959 . S
H535 C474 0.961 . S
H536 C474 0.959 . S
H537 C475 0.960 . S
H538 C475 0.960 . S
H539 C475 0.960 . S
H540 C511 0.980 . S
H541 C477 0.930 . S
H542 C481 0.930 . S
H543 C482 0.961 . S
H544 C482 0.960 . S
H545 C482 0.958 . S
H546 C483 0.961 . S
H547 C483 0.960 . S
H548 C483 0.960 . S
H549 C485 0.980 . S
H550 C484 0.961 . S
H551 C484 0.961 . S
H552 C484 0.959 . S
H553 C487 0.932 . S
H554 C491 0.929 . S
H555 C492 0.961 . S
H556 C492 0.959 . S
H557 C492 0.959 . S
H558 C493 0.960 . S
H559 C493 0.962 . S
H560 C493 0.961 . S
H561 C495 0.929 . S
H562 C498 0.930 . S
H563 C499 0.929 . S
H564 C502 0.930 . S
H565 C505 0.929 . S
H566 C506 0.930 . S
H567 C510 0.962 . S
H568 C510 0.959 . S
H569 C510 0.958 . S
C570 C571 1.560 . S
C570 H631 0.959 . S
C570 H632 0.959 . S
C570 H633 0.960 . S
C571 C570 1.560 . S
C571 O626 1.426 . S
C571 H630 0.980 . S
C572 C573 1.407 . S
C572 C577 1.418 . S
C572 O626 1.334 . S
C573 C572 1.407 . S
C573 C574 1.360 . S
C573 H634 0.929 . S
C574 C573 1.360 . S
C574 C575 1.401 . S
C574 C578 1.527 . S
C575 C574 1.401 . S
C575 C576 1.405 . S
C575 C608 1.587 . S
C576 C575 1.405 . S
C576 C577 1.332 . S
C576 C579 1.496 . S
C577 C572 1.418 . S
C577 C576 1.332 . S
C577 H635 0.929 . S
C578 C574 1.527 . S
C578 H636 0.959 . S
C578 H637 0.961 . S
C578 H638 0.961 . S
C579 C576 1.496 . S
C579 H639 0.960 . S
C579 H640 0.960 . S
C579 H641 0.961 . S
C580 C581 1.517 . S
C580 H643 0.961 . S
C580 H644 0.960 . S
C580 H645 0.959 . S
C581 C580 1.517 . S
C581 O629 1.468 . S
C581 H642 0.980 . S
C582 C583 1.349 . S
C582 C587 1.367 . S
C582 O629 1.408 . S
C583 C582 1.349 . S
C583 C584 1.407 . S
C583 H646 0.930 . S
C584 C583 1.407 . S
C584 C585 1.449 . S
C584 C588 1.535 . S
C585 C584 1.449 . S
C585 C586 1.384 . S
C585 C610 1.553 . S
C586 C585 1.384 . S
C586 C587 1.364 . S
C586 C589 1.450 . S
C587 C582 1.367 . S
C587 C586 1.364 . S
C587 H647 0.931 . S
C588 C584 1.535 . S
C588 H648 0.959 . S
C588 H649 0.961 . S
C588 H650 0.959 . S
C589 C586 1.450 . S
C589 H651 0.960 . S
C589 H652 0.960 . S
C589 H653 0.960 . S
C590 C591 1.309 . S
C590 C595 1.304 . S
C590 O628 1.435 . S
C591 C590 1.309 . S
C591 C592 1.476 . S
C591 H655 0.930 . S
C592 C591 1.476 . S
C592 C593 1.400 . S
C592 C596 1.567 . S
C593 C592 1.400 . S
C593 C594 1.373 . S
C593 C615 1.432 . S
C594 C593 1.373 . S
C594 C595 1.339 . S
C594 C597 1.530 . S
C595 C590 1.304 . S
C595 C594 1.339 . S
C595 H656 0.930 . S
C596 C592 1.567 . S
C596 H657 0.961 . S
C596 H658 0.960 . S
C596 H659 0.958 . S
C597 C594 1.530 . S
C597 H660 0.961 . S
C597 H661 0.960 . S
C597 H662 0.960 . S
C598 C599 1.530 . S
C598 H664 0.961 . S
C598 H665 0.961 . S
C598 H666 0.959 . S
C599 C598 1.530 . S
C599 O627 1.412 . S
C599 H663 0.980 . S
C600 C601 1.288 . S
C600 C605 1.377 . S
C600 O627 1.393 . S
C601 C600 1.288 . S
C601 C602 1.369 . S
C601 H667 0.932 . S
C602 C601 1.369 . S
C602 C603 1.398 . S
C602 C606 1.527 . S
C603 C602 1.398 . S
C603 C604 1.380 . S
C603 C617 1.497 . S
C604 C603 1.380 . S
C604 C605 1.383 . S
C604 C607 1.603 . S
C605 C600 1.377 . S
C605 C604 1.383 . S
C605 H668 0.929 . S
C606 C602 1.527 . S
C606 H669 0.961 . S
C606 H670 0.959 . S
C606 H671 0.959 . S
C607 C604 1.603 . S
C607 H672 0.960 . S
C607 H673 0.962 . S
C607 H674 0.961 . S
C608 C575 1.587 . S
C608 C609 1.360 . S
C608 C621 1.412 . S
C609 C608 1.360 . S
C609 C610 1.365 . S
C609 H675 0.929 . S
C610 C585 1.553 . S
C610 C609 1.365 . S
C610 C611 1.404 . S
C611 C610 1.404 . S
C611 C612 1.395 . S
C611 C622 1.451 . S
C612 C611 1.395 . S
C612 C613 1.322 . S
C612 H676 0.930 . S
C613 C612 1.322 . S
C613 C614 1.459 . S
C613 H677 0.929 . S
C614 C613 1.459 . S
C614 C615 1.445 . S
C614 C623 1.395 . S
C615 C593 1.432 . S
C615 C614 1.445 . S
C615 C616 1.370 . S
C616 C615 1.370 . S
C616 C617 1.438 . S
C616 H678 0.930 . S
C617 C603 1.497 . S
C617 C616 1.438 . S
C617 C618 1.360 . S
C618 C617 1.360 . S
C618 C619 1.401 . S
C618 C623 1.446 . S
C619 C618 1.401 . S
C619 C620 1.347 . S
C619 H679 0.929 . S
C620 C619 1.347 . S
C620 C621 1.455 . S
C620 H680 0.930 . S
C621 C608 1.412 . S
C621 C620 1.455 . S
C621 C622 1.331 . S
C622 C611 1.451 . S
C622 C621 1.331 . S
C622 C623 1.497 . S
C623 C614 1.395 . S
C623 C618 1.446 . S
C623 C622 1.497 . S
C624 C625 1.582 . S
C624 H681 0.962 . S
C624 H682 0.959 . S
C624 H683 0.958 . S
C625 C624 1.582 . S
C625 O628 1.458 . S
C625 H654 0.980 . S
O626 C571 1.426 . S
O626 C572 1.334 . S
O627 C599 1.412 . S
O627 C600 1.393 . S
O628 C590 1.435 . S
O628 C625 1.458 . S
O629 C581 1.468 . S
O629 C582 1.408 . S
H630 C571 0.980 . S
H631 C570 0.959 . S
H632 C570 0.959 . S
H633 C570 0.960 . S
H634 C573 0.929 . S
H635 C577 0.929 . S
H636 C578 0.959 . S
H637 C578 0.961 . S
H638 C578 0.961 . S
H639 C579 0.960 . S
H640 C579 0.960 . S
H641 C579 0.961 . S
H642 C581 0.980 . S
H643 C580 0.961 . S
H644 C580 0.960 . S
H645 C580 0.959 . S
H646 C583 0.930 . S
H647 C587 0.931 . S
H648 C588 0.959 . S
H649 C588 0.961 . S
H650 C588 0.959 . S
H651 C589 0.960 . S
H652 C589 0.960 . S
H653 C589 0.960 . S
H654 C625 0.980 . S
H655 C591 0.930 . S
H656 C595 0.930 . S
H657 C596 0.961 . S
H658 C596 0.960 . S
H659 C596 0.958 . S
H660 C597 0.961 . S
H661 C597 0.960 . S
H662 C597 0.960 . S
H663 C599 0.980 . S
H664 C598 0.961 . S
H665 C598 0.961 . S
H666 C598 0.959 . S
H667 C601 0.932 . S
H668 C605 0.929 . S
H669 C606 0.961 . S
H670 C606 0.959 . S
H671 C606 0.959 . S
H672 C607 0.960 . S
H673 C607 0.962 . S
H674 C607 0.961 . S
H675 C609 0.929 . S
H676 C612 0.930 . S
H677 C613 0.929 . S
H678 C616 0.930 . S
H679 C619 0.929 . S
H680 C620 0.930 . S
H681 C624 0.962 . S
H682 C624 0.959 . S
H683 C624 0.958 . S
C684 C685 1.560 . S
C684 H745 0.959 . S
C684 H746 0.959 . S
C684 H747 0.960 . S
C685 C684 1.560 . S
C685 O740 1.426 . S
C685 H744 0.980 . S
C686 C687 1.407 . S
C686 C691 1.418 . S
C686 O740 1.334 . S
C687 C686 1.407 . S
C687 C688 1.360 . S
C687 H748 0.929 . S
C688 C687 1.360 . S
C688 C689 1.401 . S
C688 C692 1.527 . S
C689 C688 1.401 . S
C689 C690 1.405 . S
C689 C722 1.587 . S
C690 C689 1.405 . S
C690 C691 1.332 . S
C690 C693 1.496 . S
C691 C686 1.418 . S
C691 C690 1.332 . S
C691 H749 0.929 . S
C692 C688 1.527 . S
C692 H750 0.959 . S
C692 H751 0.961 . S
C692 H752 0.961 . S
C693 C690 1.496 . S
C693 H753 0.960 . S
C693 H754 0.960 . S
C693 H755 0.961 . S
C694 C695 1.517 . S
C694 H757 0.961 . S
C694 H758 0.960 . S
C694 H759 0.959 . S
C695 C694 1.517 . S
C695 O743 1.468 . S
C695 H756 0.980 . S
C696 C697 1.349 . S
C696 C701 1.367 . S
C696 O743 1.408 . S
C697 C696 1.349 . S
C697 C698 1.407 . S
C697 H760 0.930 . S
C698 C697 1.407 . S
C698 C699 1.449 . S
C698 C702 1.535 . S
C699 C698 1.449 . S
C699 C700 1.384 . S
C699 C724 1.553 . S
C700 C699 1.384 . S
C700 C701 1.364 . S
C700 C703 1.450 . S
C701 C696 1.367 . S
C701 C700 1.364 . S
C701 H761 0.931 . S
C702 C698 1.535 . S
C702 H762 0.959 . S
C702 H763 0.961 . S
C702 H764 0.959 . S
C703 C700 1.450 . S
C703 H765 0.960 . S
C703 H766 0.960 . S
C703 H767 0.960 . S
C704 C705 1.309 . S
C704 C709 1.304 . S
C704 O742 1.435 . S
C705 C704 1.309 . S
C705 C706 1.476 . S
C705 H769 0.930 . S
C706 C705 1.476 . S
C706 C707 1.400 . S
C706 C710 1.567 . S
C707 C706 1.400 . S
C707 C708 1.373 . S
C707 C729 1.432 . S
C708 C707 1.373 . S
C708 C709 1.339 . S
C708 C711 1.530 . S
C709 C704 1.304 . S
C709 C708 1.339 . S
C709 H770 0.930 . S
C710 C706 1.567 . S
C710 H771 0.961 . S
C710 H772 0.960 . S
C710 H773 0.958 . S
C711 C708 1.530 . S
C711 H774 0.961 . S
C711 H775 0.960 . S
C711 H776 0.960 . S
C712 C713 1.530 . S
C712 H778 0.961 . S
C712 H779 0.961 . S
C712 H780 0.959 . S
C713 C712 1.530 . S
C713 O741 1.412 . S
C713 H777 0.980 . S
C714 C715 1.288 . S
C714 C719 1.377 . S
C714 O741 1.393 . S
C715 C714 1.288 . S
C715 C716 1.369 . S
C715 H781 0.932 . S
C716 C715 1.369 . S
C716 C717 1.398 . S
C716 C720 1.527 . S
C717 C716 1.398 . S
C717 C718 1.380 . S
C717 C731 1.497 . S
C718 C717 1.380 . S
C718 C719 1.383 . S
C718 C721 1.603 . S
C719 C714 1.377 . S
C719 C718 1.383 . S
C719 H782 0.929 . S
C720 C716 1.527 . S
C720 H783 0.961 . S
C720 H784 0.959 . S
C720 H785 0.959 . S
C721 C718 1.603 . S
C721 H786 0.960 . S
C721 H787 0.962 . S
C721 H788 0.961 . S
C722 C689 1.587 . S
C722 C723 1.360 . S
C722 C735 1.412 . S
C723 C722 1.360 . S
C723 C724 1.365 . S
C723 H789 0.929 . S
C724 C699 1.553 . S
C724 C723 1.365 . S
C724 C725 1.404 . S
C725 C724 1.404 . S
C725 C726 1.395 . S
C725 C736 1.451 . S
C726 C725 1.395 . S
C726 C727 1.322 . S
C726 H790 0.930 . S
C727 C726 1.322 . S
C727 C728 1.459 . S
C727 H791 0.929 . S
C728 C727 1.459 . S
C728 C729 1.445 . S
C728 C737 1.395 . S
C729 C707 1.432 . S
C729 C728 1.445 . S
C729 C730 1.370 . S
C730 C729 1.370 . S
C730 C731 1.438 . S
C730 H792 0.930 . S
C731 C717 1.497 . S
C731 C730 1.438 . S
C731 C732 1.360 . S
C732 C731 1.360 . S
C732 C733 1.401 . S
C732 C737 1.446 . S
C733 C732 1.401 . S
C733 C734 1.347 . S
C733 H793 0.929 . S
C734 C733 1.347 . S
C734 C735 1.455 . S
C734 H794 0.930 . S
C735 C722 1.412 . S
C735 C734 1.455 . S
C735 C736 1.331 . S
C736 C725 1.451 . S
C736 C735 1.331 . S
C736 C737 1.497 . S
C737 C728 1.395 . S
C737 C732 1.446 . S
C737 C736 1.497 . S
C738 C739 1.582 . S
C738 H795 0.962 . S
C738 H796 0.959 . S
C738 H797 0.958 . S
C739 C738 1.582 . S
C739 O742 1.458 . S
C739 H768 0.980 . S
O740 C685 1.426 . S
O740 C686 1.334 . S
O741 C713 1.412 . S
O741 C714 1.393 . S
O742 C704 1.435 . S
O742 C739 1.458 . S
O743 C695 1.468 . S
O743 C696 1.408 . S
H744 C685 0.980 . S
H745 C684 0.959 . S
H746 C684 0.959 . S
H747 C684 0.960 . S
H748 C687 0.929 . S
H749 C691 0.929 . S
H750 C692 0.959 . S
H751 C692 0.961 . S
H752 C692 0.961 . S
H753 C693 0.960 . S
H754 C693 0.960 . S
H755 C693 0.961 . S
H756 C695 0.980 . S
H757 C694 0.961 . S
H758 C694 0.960 . S
H759 C694 0.959 . S
H760 C697 0.930 . S
H761 C701 0.931 . S
H762 C702 0.959 . S
H763 C702 0.961 . S
H764 C702 0.959 . S
H765 C703 0.960 . S
H766 C703 0.960 . S
H767 C703 0.960 . S
H768 C739 0.980 . S
H769 C705 0.930 . S
H770 C709 0.930 . S
H771 C710 0.961 . S
H772 C710 0.960 . S
H773 C710 0.958 . S
H774 C711 0.961 . S
H775 C711 0.960 . S
H776 C711 0.960 . S
H777 C713 0.980 . S
H778 C712 0.961 . S
H779 C712 0.961 . S
H780 C712 0.959 . S
H781 C715 0.932 . S
H782 C719 0.929 . S
H783 C720 0.961 . S
H784 C720 0.959 . S
H785 C720 0.959 . S
H786 C721 0.960 . S
H787 C721 0.962 . S
H788 C721 0.961 . S
H789 C723 0.929 . S
H790 C726 0.930 . S
H791 C727 0.929 . S
H792 C730 0.930 . S
H793 C733 0.929 . S
H794 C734 0.930 . S
H795 C738 0.962 . S
H796 C738 0.959 . S
H797 C738 0.958 . S
C798 C799 1.560 . S
C798 H859 0.959 . S
C798 H860 0.959 . S
C798 H861 0.960 . S
C799 C798 1.560 . S
C799 O854 1.426 . S
C799 H858 0.980 . S
C800 C801 1.407 . S
C800 C805 1.418 . S
C800 O854 1.334 . S
C801 C800 1.407 . S
C801 C802 1.360 . S
C801 H862 0.929 . S
C802 C801 1.360 . S
C802 C803 1.401 . S
C802 C806 1.527 . S
C803 C802 1.401 . S
C803 C804 1.405 . S
C803 C836 1.587 . S
C804 C803 1.405 . S
C804 C805 1.332 . S
C804 C807 1.496 . S
C805 C800 1.418 . S
C805 C804 1.332 . S
C805 H863 0.929 . S
C806 C802 1.527 . S
C806 H864 0.959 . S
C806 H865 0.961 . S
C806 H866 0.961 . S
C807 C804 1.496 . S
C807 H867 0.960 . S
C807 H868 0.960 . S
C807 H869 0.961 . S
C808 C809 1.517 . S
C808 H871 0.961 . S
C808 H872 0.960 . S
C808 H873 0.959 . S
C809 C808 1.517 . S
C809 O857 1.468 . S
C809 H870 0.980 . S
C810 C811 1.349 . S
C810 C815 1.367 . S
C810 O857 1.408 . S
C811 C810 1.349 . S
C811 C812 1.407 . S
C811 H874 0.930 . S
C812 C811 1.407 . S
C812 C813 1.449 . S
C812 C816 1.535 . S
C813 C812 1.449 . S
C813 C814 1.384 . S
C813 C838 1.553 . S
C814 C813 1.384 . S
C814 C815 1.364 . S
C814 C817 1.450 . S
C815 C810 1.367 . S
C815 C814 1.364 . S
C815 H875 0.931 . S
C816 C812 1.535 . S
C816 H876 0.959 . S
C816 H877 0.961 . S
C816 H878 0.959 . S
C817 C814 1.450 . S
C817 H879 0.960 . S
C817 H880 0.960 . S
C817 H881 0.960 . S
C818 C819 1.309 . S
C818 C823 1.304 . S
C818 O856 1.435 . S
C819 C818 1.309 . S
C819 C820 1.476 . S
C819 H883 0.930 . S
C820 C819 1.476 . S
C820 C821 1.400 . S
C820 C824 1.567 . S
C821 C820 1.400 . S
C821 C822 1.373 . S
C821 C843 1.432 . S
C822 C821 1.373 . S
C822 C823 1.339 . S
C822 C825 1.530 . S
C823 C818 1.304 . S
C823 C822 1.339 . S
C823 H884 0.930 . S
C824 C820 1.567 . S
C824 H885 0.961 . S
C824 H886 0.960 . S
C824 H887 0.958 . S
C825 C822 1.530 . S
C825 H888 0.961 . S
C825 H889 0.960 . S
C825 H890 0.960 . S
C826 C827 1.530 . S
C826 H892 0.961 . S
C826 H893 0.961 . S
C826 H894 0.959 . S
C827 C826 1.530 . S
C827 O855 1.412 . S
C827 H891 0.980 . S
C828 C829 1.288 . S
C828 C833 1.377 . S
C828 O855 1.393 . S
C829 C828 1.288 . S
C829 C830 1.369 . S
C829 H895 0.932 . S
C830 C829 1.369 . S
C830 C831 1.398 . S
C830 C834 1.527 . S
C831 C830 1.398 . S
C831 C832 1.380 . S
C831 C845 1.497 . S
C832 C831 1.380 . S
C832 C833 1.383 . S
C832 C835 1.603 . S
C833 C828 1.377 . S
C833 C832 1.383 . S
C833 H896 0.929 . S
C834 C830 1.527 . S
C834 H897 0.961 . S
C834 H898 0.959 . S
C834 H899 0.959 . S
C835 C832 1.603 . S
C835 H900 0.960 . S
C835 H901 0.962 . S
C835 H902 0.961 . S
C836 C803 1.587 . S
C836 C837 1.360 . S
C836 C849 1.412 . S
C837 C836 1.360 . S
C837 C838 1.365 . S
C837 H903 0.929 . S
C838 C813 1.553 . S
C838 C837 1.365 . S
C838 C839 1.404 . S
C839 C838 1.404 . S
C839 C840 1.395 . S
C839 C850 1.451 . S
C840 C839 1.395 . S
C840 C841 1.322 . S
C840 H904 0.930 . S
C841 C840 1.322 . S
C841 C842 1.459 . S
C841 H905 0.929 . S
C842 C841 1.459 . S
C842 C843 1.445 . S
C842 C851 1.395 . S
C843 C821 1.432 . S
C843 C842 1.445 . S
C843 C844 1.370 . S
C844 C843 1.370 . S
C844 C845 1.438 . S
C844 H906 0.930 . S
C845 C831 1.497 . S
C845 C844 1.438 . S
C845 C846 1.360 . S
C846 C845 1.360 . S
C846 C847 1.401 . S
C846 C851 1.446 . S
C847 C846 1.401 . S
C847 C848 1.347 . S
C847 H907 0.929 . S
C848 C847 1.347 . S
C848 C849 1.455 . S
C848 H908 0.930 . S
C849 C836 1.412 . S
C849 C848 1.455 . S
C849 C850 1.331 . S
C850 C839 1.451 . S
C850 C849 1.331 . S
C850 C851 1.497 . S
C851 C842 1.395 . S
C851 C846 1.446 . S
C851 C850 1.497 . S
C852 C853 1.582 . S
C852 H909 0.962 . S
C852 H910 0.959 . S
C852 H911 0.958 . S
C853 C852 1.582 . S
C853 O856 1.458 . S
C853 H882 0.980 . S
O854 C799 1.426 . S
O854 C800 1.334 . S
O855 C827 1.412 . S
O855 C828 1.393 . S
O856 C818 1.435 . S
O856 C853 1.458 . S
O857 C809 1.468 . S
O857 C810 1.408 . S
H858 C799 0.980 . S
H859 C798 0.959 . S
H860 C798 0.959 . S
H861 C798 0.960 . S
H862 C801 0.929 . S
H863 C805 0.929 . S
H864 C806 0.959 . S
H865 C806 0.961 . S
H866 C806 0.961 . S
H867 C807 0.960 . S
H868 C807 0.960 . S
H869 C807 0.961 . S
H870 C809 0.980 . S
H871 C808 0.961 . S
H872 C808 0.960 . S
H873 C808 0.959 . S
H874 C811 0.930 . S
H875 C815 0.931 . S
H876 C816 0.959 . S
H877 C816 0.961 . S
H878 C816 0.959 . S
H879 C817 0.960 . S
H880 C817 0.960 . S
H881 C817 0.960 . S
H882 C853 0.980 . S
H883 C819 0.930 . S
H884 C823 0.930 . S
H885 C824 0.961 . S
H886 C824 0.960 . S
H887 C824 0.958 . S
H888 C825 0.961 . S
H889 C825 0.960 . S
H890 C825 0.960 . S
H891 C827 0.980 . S
H892 C826 0.961 . S
H893 C826 0.961 . S
H894 C826 0.959 . S
H895 C829 0.932 . S
H896 C833 0.929 . S
H897 C834 0.961 . S
H898 C834 0.959 . S
H899 C834 0.959 . S
H900 C835 0.960 . S
H901 C835 0.962 . S
H902 C835 0.961 . S
H903 C837 0.929 . S
H904 C840 0.930 . S
H905 C841 0.929 . S
H906 C844 0.930 . S
H907 C847 0.929 . S
H908 C848 0.930 . S
H909 C852 0.962 . S
H910 C852 0.959 . S
H911 C852 0.958 . S
C912 C913 1.443 . S
C912 N916 1.376 . S
C912 C950 1.389 . S
C913 C912 1.443 . S
C913 C914 1.340 . S
C913 H953 0.951 . S
C914 C913 1.340 . S
C914 C915 1.439 . S
C914 H954 0.950 . S
C915 C914 1.439 . S
C915 N916 1.374 . S
C915 C949 1.395 . S
N916 C912 1.376 . S
N916 C915 1.374 . S
N916 Co917 2.008 . S
Co917 N916 2.008 . S
Co917 N918 1.995 1_455 S
Co917 N923 2.008 1_455 S
Co917 N928 1.995 . S
Co917 N933 2.282 1_455 S
Co917 N939 2.282 . S
N918 Co917 1.995 1_655 S
N918 C919 1.376 . S
N918 C922 1.383 . S
C919 N918 1.376 . S
C919 C920 1.446 . S
C919 C949 1.391 1_655 S
C920 C919 1.446 . S
C920 C921 1.339 . S
C920 H955 0.949 . S
C921 C920 1.339 . S
C921 C922 1.439 . S
C921 H956 0.950 . S
C922 N918 1.383 . S
C922 C921 1.439 . S
C922 C951 1.392 . S
N923 Co917 2.008 1_655 S
N923 C924 1.376 . S
N923 C927 1.374 . S
C924 N923 1.376 . S
C924 C925 1.443 . S
C924 C951 1.389 . S
C925 C924 1.443 . S
C925 C926 1.340 . S
C925 H957 0.951 . S
C926 C925 1.340 . S
C926 C927 1.439 . S
C926 H958 0.950 . S
C927 N923 1.374 . S
C927 C926 1.439 . S
C927 C952 1.395 1_655 S
N928 Co917 1.995 . S
N928 C929 1.376 . S
N928 C932 1.383 . S
C929 N928 1.376 . S
C929 C930 1.446 . S
C929 C952 1.391 . S
C930 C929 1.446 . S
C930 C931 1.339 . S
C930 H959 0.949 . S
C931 C930 1.339 . S
C931 C932 1.439 . S
C931 H960 0.950 . S
C932 N928 1.383 . S
C932 C931 1.439 . S
C932 C950 1.392 . S
N933 Co917 2.282 1_655 S
N933 C936 1.332 . S
N933 C938 1.332 . S
C934 C935 1.386 . S
C934 C937 1.388 . S
C935 C934 1.386 . S
C935 C936 1.382 . S
C935 H961 0.950 . S
C936 N933 1.332 . S
C936 C935 1.382 . S
C936 H947 0.952 . S
C937 C934 1.388 . S
C937 C938 1.382 . S
C937 H962 0.950 . S
C938 N933 1.332 . S
C938 C937 1.382 . S
C938 H948 0.948 . S
N939 Co917 2.282 . S
N939 C943 1.332 . S
N939 C944 1.332 . S
C940 C941 1.388 . S
C940 C944 1.382 . S
C940 H963 0.950 . S
C941 C940 1.388 . S
C941 C942 1.386 . S
C942 C941 1.386 . S
C942 C943 1.382 . S
C942 H964 0.950 . S
C943 N939 1.332 . S
C943 C942 1.382 . S
C943 H945 0.952 . S
C944 N939 1.332 . S
C944 C940 1.382 . S
C944 H946 0.948 . S
H945 C943 0.952 . S
H946 C944 0.948 . S
H947 C936 0.952 . S
H948 C938 0.948 . S
C949 C915 1.395 . S
C949 C919 1.391 1_455 S
C950 C912 1.389 . S
C950 C932 1.392 . S
C951 C922 1.392 . S
C951 C924 1.389 . S
C952 C927 1.395 1_455 S
C952 C929 1.391 . S
H953 C913 0.951 . S
H954 C914 0.950 . S
H955 C920 0.949 . S
H956 C921 0.950 . S
H957 C925 0.951 . S
H958 C926 0.950 . S
H959 C930 0.949 . S
H960 C931 0.950 . S
H961 C935 0.950 . S
H962 C937 0.950 . S
H963 C940 0.950 . S
H964 C942 0.950 . S
C965 C966 1.443 . S
C965 N969 1.376 . S
C965 C1003 1.389 . S
C966 C965 1.443 . S
C966 C967 1.340 . S
C966 H1006 0.951 . S
C967 C966 1.340 . S
C967 C968 1.439 . S
C967 H1007 0.950 . S
C968 C967 1.439 . S
C968 N969 1.374 . S
C968 C1002 1.395 . S
N969 C965 1.376 . S
N969 C968 1.374 . S
N969 Co970 2.008 . S
Co970 N969 2.008 . S
Co970 N971 1.995 1_545 S
Co970 N976 2.008 1_545 S
Co970 N981 1.995 . S
Co970 N986 2.282 1_545 S
Co970 N992 2.282 . S
N971 Co970 1.995 1_565 S
N971 C972 1.376 . S
N971 C975 1.383 . S
C972 N971 1.376 . S
C972 C973 1.446 . S
C972 C1002 1.391 1_565 S
C973 C972 1.446 . S
C973 C974 1.339 . S
C973 H1008 0.949 . S
C974 C973 1.339 . S
C974 C975 1.439 . S
C974 H1009 0.950 . S
C975 N971 1.383 . S
C975 C974 1.439 . S
C975 C1004 1.392 . S
N976 Co970 2.008 1_565 S
N976 C977 1.376 . S
N976 C980 1.374 . S
C977 N976 1.376 . S
C977 C978 1.443 . S
C977 C1004 1.389 . S
C978 C977 1.443 . S
C978 C979 1.340 . S
C978 H1010 0.951 . S
C979 C978 1.340 . S
C979 C980 1.439 . S
C979 H1011 0.950 . S
C980 N976 1.374 . S
C980 C979 1.439 . S
C980 C1005 1.395 1_565 S
N981 Co970 1.995 . S
N981 C982 1.376 . S
N981 C985 1.383 . S
C982 N981 1.376 . S
C982 C983 1.446 . S
C982 C1005 1.391 . S
C983 C982 1.446 . S
C983 C984 1.339 . S
C983 H1012 0.949 . S
C984 C983 1.339 . S
C984 C985 1.439 . S
C984 H1013 0.950 . S
C985 N981 1.383 . S
C985 C984 1.439 . S
C985 C1003 1.392 . S
N986 Co970 2.282 1_565 S
N986 C989 1.332 . S
N986 C991 1.332 . S
C987 C988 1.386 . S
C987 C990 1.388 . S
C988 C987 1.386 . S
C988 C989 1.382 . S
C988 H1014 0.950 . S
C989 N986 1.332 . S
C989 C988 1.382 . S
C989 H1000 0.952 . S
C990 C987 1.388 . S
C990 C991 1.382 . S
C990 H1015 0.950 . S
C991 N986 1.332 . S
C991 C990 1.382 . S
C991 H1001 0.948 . S
N992 Co970 2.282 . S
N992 C996 1.332 . S
N992 C997 1.332 . S
C993 C994 1.388 . S
C993 C997 1.382 . S
C993 H1016 0.950 . S
C994 C993 1.388 . S
C994 C995 1.386 . S
C995 C994 1.386 . S
C995 C996 1.382 . S
C995 H1017 0.950 . S
C996 N992 1.332 . S
C996 C995 1.382 . S
C996 H998 0.952 . S
C997 N992 1.332 . S
C997 C993 1.382 . S
C997 H999 0.948 . S
H998 C996 0.952 . S
H999 C997 0.948 . S
H1000 C989 0.952 . S
H1001 C991 0.948 . S
C1002 C968 1.395 . S
C1002 C972 1.391 1_545 S
C1003 C965 1.389 . S
C1003 C985 1.392 . S
C1004 C975 1.392 . S
C1004 C977 1.389 . S
C1005 C980 1.395 1_545 S
C1005 C982 1.391 . S
H1006 C966 0.951 . S
H1007 C967 0.950 . S
H1008 C973 0.949 . S
H1009 C974 0.950 . S
H1010 C978 0.951 . S
H1011 C979 0.950 . S
H1012 C983 0.949 . S
H1013 C984 0.950 . S
H1014 C988 0.950 . S
H1015 C990 0.950 . S
H1016 C993 0.950 . S
H1017 C995 0.950 . S
C1018 C1019 1.443 . S
C1018 N1022 1.376 . S
C1018 C1056 1.389 . S
C1019 C1018 1.443 . S
C1019 C1020 1.340 . S
C1019 H1059 0.951 . S
C1020 C1019 1.340 . S
C1020 C1021 1.439 . S
C1020 H1060 0.950 . S
C1021 C1020 1.439 . S
C1021 N1022 1.374 . S
C1021 C1055 1.395 . S
N1022 C1018 1.376 . S
N1022 C1021 1.374 . S
N1022 Co1023 2.008 . S
Co1023 N1022 2.008 . S
Co1023 N1024 1.995 1_455 S
Co1023 N1029 2.008 1_455 S
Co1023 N1034 1.995 . S
Co1023 N1039 2.282 1_455 S
Co1023 N1045 2.282 . S
N1024 Co1023 1.995 1_655 S
N1024 C1025 1.376 . S
N1024 C1028 1.383 . S
C1025 N1024 1.376 . S
C1025 C1026 1.446 . S
C1025 C1055 1.391 1_655 S
C1026 C1025 1.446 . S
C1026 C1027 1.339 . S
C1026 H1061 0.949 . S
C1027 C1026 1.339 . S
C1027 C1028 1.439 . S
C1027 H1062 0.950 . S
C1028 N1024 1.383 . S
C1028 C1027 1.439 . S
C1028 C1057 1.392 . S
N1029 Co1023 2.008 1_655 S
N1029 C1030 1.376 . S
N1029 C1033 1.374 . S
C1030 N1029 1.376 . S
C1030 C1031 1.443 . S
C1030 C1057 1.389 . S
C1031 C1030 1.443 . S
C1031 C1032 1.340 . S
C1031 H1063 0.951 . S
C1032 C1031 1.340 . S
C1032 C1033 1.439 . S
C1032 H1064 0.950 . S
C1033 N1029 1.374 . S
C1033 C1032 1.439 . S
C1033 C1058 1.359 1_655 S
N1034 Co1023 1.995 . S
N1034 C1035 1.376 . S
N1034 C1038 1.383 . S
C1035 N1034 1.376 . S
C1035 C1036 1.446 . S
C1035 C1058 1.430 . S
C1036 C1035 1.446 . S
C1036 C1037 1.339 . S
C1036 H1065 0.949 . S
C1037 C1036 1.339 . S
C1037 C1038 1.439 . S
C1037 H1066 0.950 . S
C1038 N1034 1.383 . S
C1038 C1037 1.439 . S
C1038 C1056 1.392 . S
N1039 Co1023 2.282 1_655 S
N1039 C1042 1.332 . S
N1039 C1044 1.332 . S
C1040 C1041 1.386 . S
C1040 C1043 1.388 . S
C1041 C1040 1.386 . S
C1041 C1042 1.382 . S
C1041 H1067 0.950 . S
C1042 N1039 1.332 . S
C1042 C1041 1.382 . S
C1042 H1053 0.952 . S
C1043 C1040 1.388 . S
C1043 C1044 1.382 . S
C1043 H1068 0.950 . S
C1044 N1039 1.332 . S
C1044 C1043 1.382 . S
C1044 H1054 0.948 . S
N1045 Co1023 2.282 . S
N1045 C1049 1.332 . S
N1045 C1050 1.332 . S
C1046 C1047 1.388 . S
C1046 C1050 1.382 . S
C1046 H1069 0.950 . S
C1047 C1046 1.388 . S
C1047 C1048 1.386 . S
C1048 C1047 1.386 . S
C1048 C1049 1.382 . S
C1048 H1070 0.950 . S
C1049 N1045 1.332 . S
C1049 C1048 1.382 . S
C1049 H1051 0.952 . S
C1050 N1045 1.332 . S
C1050 C1046 1.382 . S
C1050 H1052 0.948 . S
H1051 C1049 0.952 . S
H1052 C1050 0.948 . S
H1053 C1042 0.952 . S
H1054 C1044 0.948 . S
C1055 C1021 1.395 . S
C1055 C1025 1.391 1_455 S
C1056 C1018 1.389 . S
C1056 C1038 1.392 . S
C1057 C1028 1.392 . S
C1057 C1030 1.389 . S
C1058 C1033 1.359 1_455 S
C1058 C1035 1.430 . S
H1059 C1019 0.951 . S
H1060 C1020 0.950 . S
H1061 C1026 0.949 . S
H1062 C1027 0.950 . S
H1063 C1031 0.951 . S
H1064 C1032 0.950 . S
H1065 C1036 0.949 . S
H1066 C1037 0.950 . S
H1067 C1041 0.950 . S
H1068 C1043 0.950 . S
H1069 C1046 0.950 . S
H1070 C1048 0.950 . S
C1071 C1072 1.443 . S
C1071 N1075 1.376 . S
C1071 C1109 1.389 . S
C1072 C1071 1.443 . S
C1072 C1073 1.340 . S
C1072 H1112 0.951 . S
C1073 C1072 1.340 . S
C1073 C1074 1.439 . S
C1073 H1113 0.950 . S
C1074 C1073 1.439 . S
C1074 N1075 1.374 . S
C1074 C1108 1.395 1_565 S
N1075 C1071 1.376 . S
N1075 C1074 1.374 . S
N1075 Co1076 2.008 1_565 S
Co1076 N1075 2.008 1_545 S
Co1076 N1077 1.995 . S
Co1076 N1082 2.008 . S
Co1076 N1087 1.995 1_545 S
Co1076 N1092 2.282 . S
Co1076 N1098 2.282 1_545 S
N1077 Co1076 1.995 . S
N1077 C1078 1.376 . S
N1077 C1081 1.383 . S
C1078 N1077 1.376 . S
C1078 C1079 1.446 . S
C1078 C1108 1.391 . S
C1079 C1078 1.446 . S
C1079 C1080 1.339 . S
C1079 H1114 0.949 . S
C1080 C1079 1.339 . S
C1080 C1081 1.439 . S
C1080 H1115 0.950 . S
C1081 N1077 1.383 . S
C1081 C1080 1.439 . S
C1081 C1110 1.392 . S
N1082 Co1076 2.008 . S
N1082 C1083 1.376 . S
N1082 C1086 1.374 . S
C1083 N1082 1.376 . S
C1083 C1084 1.443 . S
C1083 C1110 1.389 . S
C1084 C1083 1.443 . S
C1084 C1085 1.340 . S
C1084 H1116 0.951 . S
C1085 C1084 1.340 . S
C1085 C1086 1.439 . S
C1085 H1117 0.950 . S
C1086 N1082 1.374 . S
C1086 C1085 1.439 . S
C1086 C1111 1.395 . S
N1087 Co1076 1.995 1_565 S
N1087 C1088 1.376 . S
N1087 C1091 1.383 . S
C1088 N1087 1.376 . S
C1088 C1089 1.446 . S
C1088 C1111 1.391 1_565 S
C1089 C1088 1.446 . S
C1089 C1090 1.339 . S
C1089 H1118 0.949 . S
C1090 C1089 1.339 . S
C1090 C1091 1.439 . S
C1090 H1119 0.950 . S
C1091 N1087 1.383 . S
C1091 C1090 1.439 . S
C1091 C1109 1.392 . S
N1092 Co1076 2.282 . S
N1092 C1095 1.332 . S
N1092 C1097 1.332 . S
C1093 C1094 1.386 . S
C1093 C1096 1.388 . S
C1094 C1093 1.386 . S
C1094 C1095 1.382 . S
C1094 H1120 0.950 . S
C1095 N1092 1.332 . S
C1095 C1094 1.382 . S
C1095 H1106 0.952 . S
C1096 C1093 1.388 . S
C1096 C1097 1.382 . S
C1096 H1121 0.950 . S
C1097 N1092 1.332 . S
C1097 C1096 1.382 . S
C1097 H1107 0.948 . S
N1098 Co1076 2.282 1_565 S
N1098 C1102 1.332 . S
N1098 C1103 1.332 . S
C1099 C1100 1.388 . S
C1099 C1103 1.382 . S
C1099 H1122 0.950 . S
C1100 C1099 1.388 . S
C1100 C1101 1.386 . S
C1101 C1100 1.386 . S
C1101 C1102 1.382 . S
C1101 H1123 0.950 . S
C1102 N1098 1.332 . S
C1102 C1101 1.382 . S
C1102 H1104 0.952 . S
C1103 N1098 1.332 . S
C1103 C1099 1.382 . S
C1103 H1105 0.948 . S
H1104 C1102 0.952 . S
H1105 C1103 0.948 . S
H1106 C1095 0.952 . S
H1107 C1097 0.948 . S
C1108 C1074 1.395 1_545 S
C1108 C1078 1.391 . S
C1109 C1071 1.389 . S
C1109 C1091 1.392 . S
C1110 C1081 1.392 . S
C1110 C1083 1.389 . S
C1111 C1086 1.395 . S
C1111 C1088 1.391 1_545 S
H1112 C1072 0.951 . S
H1113 C1073 0.950 . S
H1114 C1079 0.949 . S
H1115 C1080 0.950 . S
H1116 C1084 0.951 . S
H1117 C1085 0.950 . S
H1118 C1089 0.949 . S
H1119 C1090 0.950 . S
H1120 C1094 0.950 . S
H1121 C1096 0.950 . S
H1122 C1099 0.950 . S
H1123 C1101 0.950 . S
C1124 C1125 1.443 . S
C1124 N1128 1.376 . S
C1124 C1162 1.389 . S
C1125 C1124 1.443 . S
C1125 C1126 1.340 . S
C1125 H1165 0.951 . S
C1126 C1125 1.340 . S
C1126 C1127 1.439 . S
C1126 H1166 0.950 . S
C1127 C1126 1.439 . S
C1127 N1128 1.374 . S
C1127 C1161 1.369 1_554 S
N1128 C1124 1.376 . S
N1128 C1127 1.374 . S
N1128 Co1129 2.020 . S
Co1129 N1128 2.020 . S
Co1129 N1130 1.981 1_554 S
Co1129 N1135 1.996 1_554 S
Co1129 N1140 2.009 . S
Co1129 N1145 2.302 . S
Co1129 N1151 2.263 1_554 S
N1130 Co1129 1.981 1_556 S
N1130 C1131 1.376 . S
N1130 C1134 1.383 . S
C1131 N1130 1.376 . S
C1131 C1132 1.446 . S
C1131 C1161 1.416 . S
C1132 C1131 1.446 . S
C1132 C1133 1.339 . S
C1132 H1167 0.949 . S
C1133 C1132 1.339 . S
C1133 C1134 1.439 . S
C1133 H1168 0.950 . S
C1134 N1130 1.383 . S
C1134 C1133 1.439 . S
C1134 C1163 1.392 . S
N1135 Co1129 1.996 1_556 S
N1135 C1136 1.376 . S
N1135 C1139 1.374 . S
C1136 N1135 1.376 . S
C1136 C1137 1.443 . S
C1136 C1163 1.389 . S
C1137 C1136 1.443 . S
C1137 C1138 1.340 . S
C1137 H1169 0.951 . S
C1138 C1137 1.340 . S
C1138 C1139 1.439 . S
C1138 H1170 0.950 . S
C1139 N1135 1.374 . S
C1139 C1138 1.439 . S
C1139 C1164 1.395 1_556 S
N1140 Co1129 2.009 . S
N1140 C1141 1.376 . S
N1140 C1144 1.383 . S
C1141 N1140 1.376 . S
C1141 C1142 1.446 . S
C1141 C1164 1.391 . S
C1142 C1141 1.446 . S
C1142 C1143 1.339 . S
C1142 H1171 0.949 . S
C1143 C1142 1.339 . S
C1143 C1144 1.439 . S
C1143 H1172 0.950 . S
C1144 N1140 1.383 . S
C1144 C1143 1.439 . S
C1144 C1162 1.392 . S
N1145 Co1129 2.302 . S
N1145 C1148 1.332 . S
N1145 C1150 1.332 . S
C1146 C1147 1.386 . S
C1146 C1149 1.388 . S
C1147 C1146 1.386 . S
C1147 C1148 1.382 . S
C1147 H1173 0.950 . S
C1148 N1145 1.332 . S
C1148 C1147 1.382 . S
C1148 H1159 0.952 . S
C1149 C1146 1.388 . S
C1149 C1150 1.382 . S
C1149 H1174 0.950 . S
C1150 N1145 1.332 . S
C1150 C1149 1.382 . S
C1150 H1160 0.948 . S
N1151 Co1129 2.263 1_556 S
N1151 C1155 1.332 . S
N1151 C1156 1.332 . S
C1152 C1153 1.388 . S
C1152 C1156 1.382 . S
C1152 H1175 0.950 . S
C1153 C1152 1.388 . S
C1153 C1154 1.386 . S
C1154 C1153 1.386 . S
C1154 C1155 1.382 . S
C1154 H1176 0.950 . S
C1155 N1151 1.332 . S
C1155 C1154 1.382 . S
C1155 H1157 0.952 . S
C1156 N1151 1.332 . S
C1156 C1152 1.382 . S
C1156 H1158 0.948 . S
H1157 C1155 0.952 . S
H1158 C1156 0.948 . S
H1159 C1148 0.952 . S
H1160 C1150 0.948 . S
C1161 C1127 1.369 1_556 S
C1161 C1131 1.416 . S
C1162 C1124 1.389 . S
C1162 C1144 1.392 . S
C1163 C1134 1.392 . S
C1163 C1136 1.389 . S
C1164 C1139 1.395 1_554 S
C1164 C1141 1.391 . S
H1165 C1125 0.951 . S
H1166 C1126 0.950 . S
H1167 C1132 0.949 . S
H1168 C1133 0.950 . S
H1169 C1137 0.951 . S
H1170 C1138 0.950 . S
H1171 C1142 0.949 . S
H1172 C1143 0.950 . S
H1173 C1147 0.950 . S
H1174 C1149 0.950 . S
H1175 C1152 0.950 . S
H1176 C1154 0.950 . S
C1177 C1178 1.443 . S
C1177 N1181 1.376 . S
C1177 C1215 1.389 . S
C1178 C1177 1.443 . S
C1178 C1179 1.340 . S
C1178 H1218 0.951 . S
C1179 C1178 1.340 . S
C1179 C1180 1.439 . S
C1179 H1219 0.950 . S
C1180 C1179 1.439 . S
C1180 N1181 1.374 . S
C1180 C1214 1.395 . S
N1181 C1177 1.376 . S
N1181 C1180 1.374 . S
N1181 Co1182 2.008 . S
Co1182 N1181 2.008 . S
Co1182 N1183 1.995 1_554 S
Co1182 N1188 2.023 . S
Co1182 N1193 1.995 . S
Co1182 N1198 2.282 . S
Co1182 N1204 2.282 1_554 S
N1183 Co1182 1.995 1_556 S
N1183 C1184 1.376 . S
N1183 C1187 1.383 . S
C1184 N1183 1.376 . S
C1184 C1185 1.446 . S
C1184 C1214 1.391 1_556 S
C1185 C1184 1.446 . S
C1185 C1186 1.339 . S
C1185 H1220 0.949 . S
C1186 C1185 1.339 . S
C1186 C1187 1.439 . S
C1186 H1221 0.950 . S
C1187 N1183 1.383 . S
C1187 C1186 1.439 . S
C1187 C1216 1.392 . S
N1188 Co1182 2.023 . S
N1188 C1189 1.357 1_554 S
N1188 C1192 1.381 . S
C1189 N1188 1.357 1_556 S
C1189 C1190 1.443 . S
C1189 C1216 1.389 . S
C1190 C1189 1.443 . S
C1190 C1191 1.340 . S
C1190 H1222 0.951 . S
C1191 C1190 1.340 . S
C1191 C1192 1.439 1_556 S
C1191 H1223 0.950 . S
C1192 N1188 1.381 . S
C1192 C1191 1.439 1_554 S
C1192 C1217 1.395 . S
N1193 Co1182 1.995 . S
N1193 C1194 1.376 . S
N1193 C1197 1.383 . S
C1194 N1193 1.376 . S
C1194 C1195 1.446 . S
C1194 C1217 1.391 . S
C1195 C1194 1.446 . S
C1195 C1196 1.339 . S
C1195 H1224 0.949 . S
C1196 C1195 1.339 . S
C1196 C1197 1.439 . S
C1196 H1225 0.950 . S
C1197 N1193 1.383 . S
C1197 C1196 1.439 . S
C1197 C1215 1.392 . S
N1198 Co1182 2.282 . S
N1198 C1201 1.332 . S
N1198 C1203 1.332 . S
C1199 C1200 1.386 . S
C1199 C1202 1.388 . S
C1200 C1199 1.386 . S
C1200 C1201 1.382 . S
C1200 H1226 0.950 . S
C1201 N1198 1.332 . S
C1201 C1200 1.382 . S
C1201 H1212 0.952 . S
C1202 C1199 1.388 . S
C1202 C1203 1.382 . S
C1202 H1227 0.950 . S
C1203 N1198 1.332 . S
C1203 C1202 1.382 . S
C1203 H1213 0.948 . S
N1204 Co1182 2.282 1_556 S
N1204 C1208 1.332 . S
N1204 C1209 1.332 . S
C1205 C1206 1.388 . S
C1205 C1209 1.382 . S
C1205 H1228 0.950 . S
C1206 C1205 1.388 . S
C1206 C1207 1.386 . S
C1207 C1206 1.386 . S
C1207 C1208 1.382 . S
C1207 H1229 0.950 . S
C1208 N1204 1.332 . S
C1208 C1207 1.382 . S
C1208 H1210 0.952 . S
C1209 N1204 1.332 . S
C1209 C1205 1.382 . S
C1209 H1211 0.948 . S
H1210 C1208 0.952 . S
H1211 C1209 0.948 . S
H1212 C1201 0.952 . S
H1213 C1203 0.948 . S
C1214 C1180 1.395 . S
C1214 C1184 1.391 1_554 S
C1215 C1177 1.389 . S
C1215 C1197 1.392 . S
C1216 C1187 1.392 . S
C1216 C1189 1.389 . S
C1217 C1192 1.395 . S
C1217 C1194 1.391 . S
H1218 C1178 0.951 . S
H1219 C1179 0.950 . S
H1220 C1185 0.949 . S
H1221 C1186 0.950 . S
H1222 C1190 0.951 . S
H1223 C1191 0.950 . S
H1224 C1195 0.949 . S
H1225 C1196 0.950 . S
H1226 C1200 0.950 . S
H1227 C1202 0.950 . S
H1228 C1205 0.950 . S
H1229 C1207 0.950 . S
C1230 C1231 1.443 . S
C1230 N1234 1.367 1_556 S
C1230 C1268 1.389 . S
C1231 C1230 1.443 . S
C1231 C1232 1.340 . S
C1231 H1271 0.951 . S
C1232 C1231 1.340 . S
C1232 C1233 1.439 1_556 S
C1232 H1272 0.950 . S
C1233 C1232 1.439 1_554 S
C1233 N1234 1.378 . S
C1233 C1267 1.395 . S
N1234 C1230 1.367 1_554 S
N1234 C1233 1.378 . S
N1234 Co1235 2.015 . S
Co1235 N1234 2.015 . S
Co1235 N1236 1.995 . S
Co1235 N1241 2.008 . S
Co1235 N1246 1.995 1_554 S
Co1235 N1251 2.282 1_554 S
Co1235 N1257 2.282 . S
N1236 Co1235 1.995 . S
N1236 C1237 1.376 . S
N1236 C1240 1.383 . S
C1237 N1236 1.376 . S
C1237 C1238 1.446 . S
C1237 C1267 1.391 . S
C1238 C1237 1.446 . S
C1238 C1239 1.339 . S
C1238 H1273 0.949 . S
C1239 C1238 1.339 . S
C1239 C1240 1.439 . S
C1239 H1274 0.950 . S
C1240 N1236 1.383 . S
C1240 C1239 1.439 . S
C1240 C1269 1.392 . S
N1241 Co1235 2.008 . S
N1241 C1242 1.376 . S
N1241 C1245 1.374 . S
C1242 N1241 1.376 . S
C1242 C1243 1.443 . S
C1242 C1269 1.389 . S
C1243 C1242 1.443 . S
C1243 C1244 1.340 . S
C1243 H1275 0.951 . S
C1244 C1243 1.340 . S
C1244 C1245 1.439 . S
C1244 H1276 0.950 . S
C1245 N1241 1.374 . S
C1245 C1244 1.439 . S
C1245 C1270 1.395 . S
N1246 Co1235 1.995 1_556 S
N1246 C1247 1.376 . S
N1246 C1250 1.383 . S
C1247 N1246 1.376 . S
C1247 C1248 1.446 . S
C1247 C1270 1.391 1_556 S
C1248 C1247 1.446 . S
C1248 C1249 1.339 . S
C1248 H1277 0.949 . S
C1249 C1248 1.339 . S
C1249 C1250 1.439 . S
C1249 H1278 0.950 . S
C1250 N1246 1.383 . S
C1250 C1249 1.439 . S
C1250 C1268 1.392 . S
N1251 Co1235 2.282 1_556 S
N1251 C1254 1.332 . S
N1251 C1256 1.332 . S
C1252 C1253 1.386 . S
C1252 C1255 1.388 . S
C1253 C1252 1.386 . S
C1253 C1254 1.382 . S
C1253 H1279 0.950 . S
C1254 N1251 1.332 . S
C1254 C1253 1.382 . S
C1254 H1265 0.952 . S
C1255 C1252 1.388 . S
C1255 C1256 1.382 . S
C1255 H1280 0.950 . S
C1256 N1251 1.332 . S
C1256 C1255 1.382 . S
C1256 H1266 0.948 . S
N1257 Co1235 2.282 . S
N1257 C1261 1.332 . S
N1257 C1262 1.332 . S
C1258 C1259 1.388 . S
C1258 C1262 1.382 . S
C1258 H1281 0.950 . S
C1259 C1258 1.388 . S
C1259 C1260 1.386 . S
C1260 C1259 1.386 . S
C1260 C1261 1.382 . S
C1260 H1282 0.950 . S
C1261 N1257 1.332 . S
C1261 C1260 1.382 . S
C1261 H1263 0.952 . S
C1262 N1257 1.332 . S
C1262 C1258 1.382 . S
C1262 H1264 0.948 . S
H1263 C1261 0.952 . S
H1264 C1262 0.948 . S
H1265 C1254 0.952 . S
H1266 C1256 0.948 . S
C1267 C1233 1.395 . S
C1267 C1237 1.391 . S
C1268 C1230 1.389 . S
C1268 C1250 1.392 . S
C1269 C1240 1.392 . S
C1269 C1242 1.389 . S
C1270 C1245 1.395 . S
C1270 C1247 1.391 1_554 S
H1271 C1231 0.951 . S
H1272 C1232 0.950 . S
H1273 C1238 0.949 . S
H1274 C1239 0.950 . S
H1275 C1243 0.951 . S
H1276 C1244 0.950 . S
H1277 C1248 0.949 . S
H1278 C1249 0.950 . S
H1279 C1253 0.950 . S
H1280 C1255 0.950 . S
H1281 C1258 0.950 . S
H1282 C1260 0.950 . S
C1283 C1284 1.443 . S
C1283 N1287 1.376 . S
C1283 C1321 1.389 . S
C1284 C1283 1.443 . S
C1284 C1285 1.340 . S
C1284 H1324 0.951 . S
C1285 C1284 1.340 . S
C1285 C1286 1.439 . S
C1285 H1325 0.950 . S
C1286 C1285 1.439 . S
C1286 N1287 1.374 . S
C1286 C1320 1.395 . S
N1287 C1283 1.376 . S
N1287 C1286 1.374 . S
N1287 Co1288 2.008 . S
Co1288 N1287 2.008 . S
Co1288 N1289 1.995 1_554 S
Co1288 N1294 2.008 . S
Co1288 N1299 1.995 . S
Co1288 N1304 2.282 . S
Co1288 N1310 2.282 1_554 S
N1289 Co1288 1.995 1_556 S
N1289 C1290 1.376 . S
N1289 C1293 1.383 . S
C1290 N1289 1.376 . S
C1290 C1291 1.446 . S
C1290 C1320 1.391 1_556 S
C1291 C1290 1.446 . S
C1291 C1292 1.339 . S
C1291 H1326 0.949 . S
C1292 C1291 1.339 . S
C1292 C1293 1.439 . S
C1292 H1327 0.950 . S
C1293 N1289 1.383 . S
C1293 C1292 1.439 . S
C1293 C1322 1.392 . S
N1294 Co1288 2.008 . S
N1294 C1295 1.376 1_554 S
N1294 C1298 1.374 . S
C1295 N1294 1.376 1_556 S
C1295 C1296 1.443 . S
C1295 C1322 1.389 . S
C1296 C1295 1.443 . S
C1296 C1297 1.340 . S
C1296 H1328 0.951 . S
C1297 C1296 1.340 . S
C1297 C1298 1.439 1_556 S
C1297 H1329 0.950 . S
C1298 N1294 1.374 . S
C1298 C1297 1.439 1_554 S
C1298 C1323 1.395 . S
N1299 Co1288 1.995 . S
N1299 C1300 1.376 . S
N1299 C1303 1.383 . S
C1300 N1299 1.376 . S
C1300 C1301 1.446 . S
C1300 C1323 1.391 . S
C1301 C1300 1.446 . S
C1301 C1302 1.339 . S
C1301 H1330 0.949 . S
C1302 C1301 1.339 . S
C1302 C1303 1.439 . S
C1302 H1331 0.950 . S
C1303 N1299 1.383 . S
C1303 C1302 1.439 . S
C1303 C1321 1.392 . S
N1304 Co1288 2.282 . S
N1304 C1307 1.332 . S
N1304 C1309 1.332 . S
C1305 C1306 1.386 . S
C1305 C1308 1.388 . S
C1306 C1305 1.386 . S
C1306 C1307 1.382 . S
C1306 H1332 0.950 . S
C1307 N1304 1.332 . S
C1307 C1306 1.382 . S
C1307 H1318 0.952 . S
C1308 C1305 1.388 . S
C1308 C1309 1.382 . S
C1308 H1333 0.950 . S
C1309 N1304 1.332 . S
C1309 C1308 1.382 . S
C1309 H1319 0.948 . S
N1310 Co1288 2.282 1_556 S
N1310 C1314 1.332 . S
N1310 C1315 1.332 . S
C1311 C1312 1.388 . S
C1311 C1315 1.382 . S
C1311 H1334 0.950 . S
C1312 C1311 1.388 . S
C1312 C1313 1.386 . S
C1313 C1312 1.386 . S
C1313 C1314 1.382 . S
C1313 H1335 0.950 . S
C1314 N1310 1.332 . S
C1314 C1313 1.382 . S
C1314 H1316 0.952 . S
C1315 N1310 1.332 . S
C1315 C1311 1.382 . S
C1315 H1317 0.948 . S
H1316 C1314 0.952 . S
H1317 C1315 0.948 . S
H1318 C1307 0.952 . S
H1319 C1309 0.948 . S
C1320 C1286 1.395 . S
C1320 C1290 1.391 1_554 S
C1321 C1283 1.389 . S
C1321 C1303 1.392 . S
C1322 C1293 1.392 . S
C1322 C1295 1.389 . S
C1323 C1298 1.395 . S
C1323 C1300 1.391 . S
H1324 C1284 0.951 . S
H1325 C1285 0.950 . S
H1326 C1291 0.949 . S
H1327 C1292 0.950 . S
H1328 C1296 0.951 . S
H1329 C1297 0.950 . S
H1330 C1301 0.949 . S
H1331 C1302 0.950 . S
H1332 C1306 0.950 . S
H1333 C1308 0.950 . S
H1334 C1311 0.950 . S
H1335 C1313 0.950 . S
C1336 C1337 1.391 . S
C1336 C1338 1.394 . S
C1336 H1352 0.931 . S
C1337 C1336 1.391 . S
C1337 C1341 1.376 . S
C1338 C1336 1.394 . S
C1338 C1339 1.369 . S
C1338 C1342 1.531 . S
C1339 C1338 1.369 . S
C1339 C1340 1.410 . S
C1339 C1347 1.503 . S
C1340 C1339 1.410 . S
C1340 C1341 1.392 . S
C1340 C1343 1.511 . S
C1341 C1337 1.376 . S
C1341 C1340 1.392 . S
C1341 H1353 0.929 . S
C1342 C1338 1.531 . S
C1342 H1354 0.960 . S
C1342 H1355 0.962 . S
C1342 H1356 0.960 . S
C1343 C1340 1.511 . S
C1343 H1357 0.961 . S
C1343 H1358 0.961 . S
C1343 H1359 0.961 . S
C1344 C1345 1.370 . S
C1344 C1346 1.363 . S
C1344 H1360 0.931 . S
C1345 C1344 1.370 . S
C1345 C1349 1.408 . S
C1346 C1344 1.363 . S
C1346 C1347 1.370 . S
C1346 C1350 1.524 . S
C1347 C1339 1.503 . S
C1347 C1346 1.370 . S
C1347 C1348 1.403 . S
C1348 C1347 1.403 . S
C1348 C1349 1.404 . S
C1348 C1351 1.539 . S
C1349 C1345 1.408 . S
C1349 C1348 1.404 . S
C1349 H1361 0.930 . S
C1350 C1346 1.524 . S
C1350 H1362 0.956 . S
C1350 H1363 0.961 . S
C1350 H1364 0.961 . S
C1351 C1348 1.539 . S
C1351 H1365 0.958 . S
C1351 H1366 0.961 . S
C1351 H1367 0.960 . S
H1352 C1336 0.931 . S
H1353 C1341 0.929 . S
H1354 C1342 0.960 . S
H1355 C1342 0.962 . S
H1356 C1342 0.960 . S
H1357 C1343 0.961 . S
H1358 C1343 0.961 . S
H1359 C1343 0.961 . S
H1360 C1344 0.931 . S
H1361 C1349 0.930 . S
H1362 C1350 0.956 . S
H1363 C1350 0.961 . S
H1364 C1350 0.961 . S
H1365 C1351 0.958 . S
H1366 C1351 0.961 . S
H1367 C1351 0.960 . S
C1368 C1369 1.391 . S
C1368 C1370 1.394 . S
C1368 H1384 0.931 . S
C1369 C1368 1.391 . S
C1369 C1373 1.376 . S
C1370 C1368 1.394 . S
C1370 C1371 1.369 . S
C1370 C1374 1.531 . S
C1371 C1370 1.369 . S
C1371 C1372 1.410 . S
C1371 C1379 1.503 . S
C1372 C1371 1.410 . S
C1372 C1373 1.392 . S
C1372 C1375 1.511 . S
C1373 C1369 1.376 . S
C1373 C1372 1.392 . S
C1373 H1385 0.929 . S
C1374 C1370 1.531 . S
C1374 H1386 0.960 . S
C1374 H1387 0.962 . S
C1374 H1388 0.960 . S
C1375 C1372 1.511 . S
C1375 H1389 0.961 . S
C1375 H1390 0.961 . S
C1375 H1391 0.961 . S
C1376 C1377 1.370 . S
C1376 C1378 1.363 . S
C1376 H1392 0.931 . S
C1377 C1376 1.370 . S
C1377 C1381 1.408 . S
C1378 C1376 1.363 . S
C1378 C1379 1.370 . S
C1378 C1382 1.524 . S
C1379 C1371 1.503 . S
C1379 C1378 1.370 . S
C1379 C1380 1.403 . S
C1380 C1379 1.403 . S
C1380 C1381 1.404 . S
C1380 C1383 1.539 . S
C1381 C1377 1.408 . S
C1381 C1380 1.404 . S
C1381 H1393 0.930 . S
C1382 C1378 1.524 . S
C1382 H1394 0.956 . S
C1382 H1395 0.961 . S
C1382 H1396 0.961 . S
C1383 C1380 1.539 . S
C1383 H1397 0.958 . S
C1383 H1398 0.961 . S
C1383 H1399 0.960 . S
H1384 C1368 0.931 . S
H1385 C1373 0.929 . S
H1386 C1374 0.960 . S
H1387 C1374 0.962 . S
H1388 C1374 0.960 . S
H1389 C1375 0.961 . S
H1390 C1375 0.961 . S
H1391 C1375 0.961 . S
H1392 C1376 0.931 . S
H1393 C1381 0.930 . S
H1394 C1382 0.956 . S
H1395 C1382 0.961 . S
H1396 C1382 0.961 . S
H1397 C1383 0.958 . S
H1398 C1383 0.961 . S
H1399 C1383 0.960 . S
C1400 C1401 1.391 . S
C1400 C1402 1.394 . S
C1400 H1416 0.931 . S
C1401 C1400 1.391 . S
C1401 C1405 1.376 . S
C1402 C1400 1.394 . S
C1402 C1403 1.369 . S
C1402 C1406 1.531 . S
C1403 C1402 1.369 . S
C1403 C1404 1.410 . S
C1403 C1411 1.503 . S
C1404 C1403 1.410 . S
C1404 C1405 1.392 . S
C1404 C1407 1.511 . S
C1405 C1401 1.376 . S
C1405 C1404 1.392 . S
C1405 H1417 0.929 . S
C1406 C1402 1.531 . S
C1406 H1418 0.960 . S
C1406 H1419 0.962 . S
C1406 H1420 0.960 . S
C1407 C1404 1.511 . S
C1407 H1421 0.961 . S
C1407 H1422 0.961 . S
C1407 H1423 0.961 . S
C1408 C1409 1.370 . S
C1408 C1410 1.363 . S
C1408 H1424 0.931 . S
C1409 C1408 1.370 . S
C1409 C1413 1.408 . S
C1410 C1408 1.363 . S
C1410 C1411 1.370 . S
C1410 C1414 1.524 . S
C1411 C1403 1.503 . S
C1411 C1410 1.370 . S
C1411 C1412 1.403 . S
C1412 C1411 1.403 . S
C1412 C1413 1.404 . S
C1412 C1415 1.539 . S
C1413 C1409 1.408 . S
C1413 C1412 1.404 . S
C1413 H1425 0.930 . S
C1414 C1410 1.524 . S
C1414 H1426 0.956 . S
C1414 H1427 0.961 . S
C1414 H1428 0.961 . S
C1415 C1412 1.539 . S
C1415 H1429 0.958 . S
C1415 H1430 0.961 . S
C1415 H1431 0.960 . S
H1416 C1400 0.931 . S
H1417 C1405 0.929 . S
H1418 C1406 0.960 . S
H1419 C1406 0.962 . S
H1420 C1406 0.960 . S
H1421 C1407 0.961 . S
H1422 C1407 0.961 . S
H1423 C1407 0.961 . S
H1424 C1408 0.931 . S
H1425 C1413 0.930 . S
H1426 C1414 0.956 . S
H1427 C1414 0.961 . S
H1428 C1414 0.961 . S
H1429 C1415 0.958 . S
H1430 C1415 0.961 . S
H1431 C1415 0.960 . S
C1432 C1433 1.391 . S
C1432 C1434 1.394 . S
C1432 H1448 0.931 . S
C1433 C1432 1.391 . S
C1433 C1437 1.376 . S
C1434 C1432 1.394 . S
C1434 C1435 1.369 . S
C1434 C1438 1.531 . S
C1435 C1434 1.369 . S
C1435 C1436 1.410 . S
C1435 C1443 1.503 . S
C1436 C1435 1.410 . S
C1436 C1437 1.392 . S
C1436 C1439 1.511 . S
C1437 C1433 1.376 . S
C1437 C1436 1.392 . S
C1437 H1449 0.929 . S
C1438 C1434 1.531 . S
C1438 H1450 0.960 . S
C1438 H1451 0.962 . S
C1438 H1452 0.960 . S
C1439 C1436 1.511 . S
C1439 H1453 0.961 . S
C1439 H1454 0.961 . S
C1439 H1455 0.961 . S
C1440 C1441 1.370 . S
C1440 C1442 1.363 . S
C1440 H1456 0.931 . S
C1441 C1440 1.370 . S
C1441 C1445 1.408 . S
C1442 C1440 1.363 . S
C1442 C1443 1.370 . S
C1442 C1446 1.524 . S
C1443 C1435 1.503 . S
C1443 C1442 1.370 . S
C1443 C1444 1.403 . S
C1444 C1443 1.403 . S
C1444 C1445 1.404 . S
C1444 C1447 1.539 . S
C1445 C1441 1.408 . S
C1445 C1444 1.404 . S
C1445 H1457 0.930 . S
C1446 C1442 1.524 . S
C1446 H1458 0.956 . S
C1446 H1459 0.961 . S
C1446 H1460 0.961 . S
C1447 C1444 1.539 . S
C1447 H1461 0.958 . S
C1447 H1462 0.961 . S
C1447 H1463 0.960 . S
H1448 C1432 0.931 . S
H1449 C1437 0.929 . S
H1450 C1438 0.960 . S
H1451 C1438 0.962 . S
H1452 C1438 0.960 . S
H1453 C1439 0.961 . S
H1454 C1439 0.961 . S
H1455 C1439 0.961 . S
H1456 C1440 0.931 . S
H1457 C1445 0.930 . S
H1458 C1446 0.956 . S
H1459 C1446 0.961 . S
H1460 C1446 0.961 . S
H1461 C1447 0.958 . S
H1462 C1447 0.961 . S
H1463 C1447 0.960 . S
C1464 C1465 1.391 . S
C1464 C1466 1.394 . S
C1464 H1480 0.931 . S
C1465 C1464 1.391 . S
C1465 C1469 1.376 . S
C1466 C1464 1.394 . S
C1466 C1467 1.369 . S
C1466 C1470 1.531 . S
C1467 C1466 1.369 . S
C1467 C1468 1.410 . S
C1467 C1475 1.503 . S
C1468 C1467 1.410 . S
C1468 C1469 1.392 . S
C1468 C1471 1.511 . S
C1469 C1465 1.376 . S
C1469 C1468 1.392 . S
C1469 H1481 0.929 . S
C1470 C1466 1.531 . S
C1470 H1482 0.960 . S
C1470 H1483 0.962 . S
C1470 H1484 0.960 . S
C1471 C1468 1.511 . S
C1471 H1485 0.961 . S
C1471 H1486 0.961 . S
C1471 H1487 0.961 . S
C1472 C1473 1.370 . S
C1472 C1474 1.363 . S
C1472 H1488 0.931 . S
C1473 C1472 1.370 . S
C1473 C1477 1.408 . S
C1474 C1472 1.363 . S
C1474 C1475 1.370 . S
C1474 C1478 1.524 . S
C1475 C1467 1.503 . S
C1475 C1474 1.370 . S
C1475 C1476 1.403 . S
C1476 C1475 1.403 . S
C1476 C1477 1.404 . S
C1476 C1479 1.539 . S
C1477 C1473 1.408 . S
C1477 C1476 1.404 . S
C1477 H1489 0.930 . S
C1478 C1474 1.524 . S
C1478 H1490 0.956 . S
C1478 H1491 0.961 . S
C1478 H1492 0.961 . S
C1479 C1476 1.539 . S
C1479 H1493 0.958 . S
C1479 H1494 0.961 . S
C1479 H1495 0.960 . S
H1480 C1464 0.931 . S
H1481 C1469 0.929 . S
H1482 C1470 0.960 . S
H1483 C1470 0.962 . S
H1484 C1470 0.960 . S
H1485 C1471 0.961 . S
H1486 C1471 0.961 . S
H1487 C1471 0.961 . S
H1488 C1472 0.931 . S
H1489 C1477 0.930 . S
H1490 C1478 0.956 . S
H1491 C1478 0.961 . S
H1492 C1478 0.961 . S
H1493 C1479 0.958 . S
H1494 C1479 0.961 . S
H1495 C1479 0.960 . S
C1496 C1497 1.391 . S
C1496 C1498 1.394 . S
C1496 H1512 0.931 . S
C1497 C1496 1.391 . S
C1497 C1501 1.376 . S
C1498 C1496 1.394 . S
C1498 C1499 1.369 . S
C1498 C1502 1.531 . S
C1499 C1498 1.369 . S
C1499 C1500 1.410 . S
C1499 C1507 1.503 . S
C1500 C1499 1.410 . S
C1500 C1501 1.392 . S
C1500 C1503 1.511 . S
C1501 C1497 1.376 . S
C1501 C1500 1.392 . S
C1501 H1513 0.929 . S
C1502 C1498 1.531 . S
C1502 H1514 0.960 . S
C1502 H1515 0.962 . S
C1502 H1516 0.960 . S
C1503 C1500 1.511 . S
C1503 H1517 0.961 . S
C1503 H1518 0.961 . S
C1503 H1519 0.961 . S
C1504 C1505 1.370 . S
C1504 C1506 1.363 . S
C1504 H1520 0.931 . S
C1505 C1504 1.370 . S
C1505 C1509 1.408 . S
C1506 C1504 1.363 . S
C1506 C1507 1.370 . S
C1506 C1510 1.524 . S
C1507 C1499 1.503 . S
C1507 C1506 1.370 . S
C1507 C1508 1.403 . S
C1508 C1507 1.403 . S
C1508 C1509 1.404 . S
C1508 C1511 1.539 . S
C1509 C1505 1.408 . S
C1509 C1508 1.404 . S
C1509 H1521 0.930 . S
C1510 C1506 1.524 . S
C1510 H1522 0.956 . S
C1510 H1523 0.961 . S
C1510 H1524 0.961 . S
C1511 C1508 1.539 . S
C1511 H1525 0.958 . S
C1511 H1526 0.961 . S
C1511 H1527 0.960 . S
H1512 C1496 0.931 . S
H1513 C1501 0.929 . S
H1514 C1502 0.960 . S
H1515 C1502 0.962 . S
H1516 C1502 0.960 . S
H1517 C1503 0.961 . S
H1518 C1503 0.961 . S
H1519 C1503 0.961 . S
H1520 C1504 0.931 . S
H1521 C1509 0.930 . S
H1522 C1510 0.956 . S
H1523 C1510 0.961 . S
H1524 C1510 0.961 . S
H1525 C1511 0.958 . S
H1526 C1511 0.961 . S
H1527 C1511 0.960 . S
C1528 C1529 1.391 . S
C1528 C1530 1.394 . S
C1528 H1544 0.931 . S
C1529 C1528 1.391 . S
C1529 C1533 1.376 . S
C1530 C1528 1.394 . S
C1530 C1531 1.369 . S
C1530 C1534 1.531 . S
C1531 C1530 1.369 . S
C1531 C1532 1.410 . S
C1531 C1539 1.503 . S
C1532 C1531 1.410 . S
C1532 C1533 1.392 . S
C1532 C1535 1.511 . S
C1533 C1529 1.376 . S
C1533 C1532 1.392 . S
C1533 H1545 0.929 . S
C1534 C1530 1.531 . S
C1534 H1546 0.960 . S
C1534 H1547 0.962 . S
C1534 H1548 0.960 . S
C1535 C1532 1.511 . S
C1535 H1549 0.961 . S
C1535 H1550 0.961 . S
C1535 H1551 0.961 . S
C1536 C1537 1.370 . S
C1536 C1538 1.363 . S
C1536 H1552 0.931 . S
C1537 C1536 1.370 . S
C1537 C1541 1.408 . S
C1538 C1536 1.363 . S
C1538 C1539 1.370 . S
C1538 C1542 1.524 . S
C1539 C1531 1.503 . S
C1539 C1538 1.370 . S
C1539 C1540 1.403 . S
C1540 C1539 1.403 . S
C1540 C1541 1.404 . S
C1540 C1543 1.539 . S
C1541 C1537 1.408 . S
C1541 C1540 1.404 . S
C1541 H1553 0.930 . S
C1542 C1538 1.524 . S
C1542 H1554 0.956 . S
C1542 H1555 0.961 . S
C1542 H1556 0.961 . S
C1543 C1540 1.539 . S
C1543 H1557 0.958 . S
C1543 H1558 0.961 . S
C1543 H1559 0.960 . S
H1544 C1528 0.931 . S
H1545 C1533 0.929 . S
H1546 C1534 0.960 . S
H1547 C1534 0.962 . S
H1548 C1534 0.960 . S
H1549 C1535 0.961 . S
H1550 C1535 0.961 . S
H1551 C1535 0.961 . S
H1552 C1536 0.931 . S
H1553 C1541 0.930 . S
H1554 C1542 0.956 . S
H1555 C1542 0.961 . S
H1556 C1542 0.961 . S
H1557 C1543 0.958 . S
H1558 C1543 0.961 . S
H1559 C1543 0.960 . S
C1560 C1561 1.391 . S
C1560 C1562 1.394 . S
C1560 H1576 0.931 . S
C1561 C1560 1.391 . S
C1561 C1565 1.376 . S
C1562 C1560 1.394 . S
C1562 C1563 1.369 . S
C1562 C1566 1.531 . S
C1563 C1562 1.369 . S
C1563 C1564 1.410 . S
C1563 C1571 1.503 . S
C1564 C1563 1.410 . S
C1564 C1565 1.392 . S
C1564 C1567 1.511 . S
C1565 C1561 1.376 . S
C1565 C1564 1.392 . S
C1565 H1577 0.929 . S
C1566 C1562 1.531 . S
C1566 H1578 0.960 . S
C1566 H1579 0.962 . S
C1566 H1580 0.960 . S
C1567 C1564 1.511 . S
C1567 H1581 0.961 . S
C1567 H1582 0.961 . S
C1567 H1583 0.961 . S
C1568 C1569 1.370 . S
C1568 C1570 1.363 . S
C1568 H1584 0.931 . S
C1569 C1568 1.370 . S
C1569 C1573 1.408 . S
C1570 C1568 1.363 . S
C1570 C1571 1.370 . S
C1570 C1574 1.524 . S
C1571 C1563 1.503 . S
C1571 C1570 1.370 . S
C1571 C1572 1.403 . S
C1572 C1571 1.403 . S
C1572 C1573 1.404 . S
C1572 C1575 1.539 . S
C1573 C1569 1.408 . S
C1573 C1572 1.404 . S
C1573 H1585 0.930 . S
C1574 C1570 1.524 . S
C1574 H1586 0.956 . S
C1574 H1587 0.961 . S
C1574 H1588 0.961 . S
C1575 C1572 1.539 . S
C1575 H1589 0.958 . S
C1575 H1590 0.961 . S
C1575 H1591 0.960 . S
H1576 C1560 0.931 . S
H1577 C1565 0.929 . S
H1578 C1566 0.960 . S
H1579 C1566 0.962 . S
H1580 C1566 0.960 . S
H1581 C1567 0.961 . S
H1582 C1567 0.961 . S
H1583 C1567 0.961 . S
H1584 C1568 0.931 . S
H1585 C1573 0.930 . S
H1586 C1574 0.956 . S
H1587 C1574 0.961 . S
H1588 C1574 0.961 . S
H1589 C1575 0.958 . S
H1590 C1575 0.961 . S
H1591 C1575 0.960 . S
C1592 C1593 1.391 . S
C1592 C1594 1.394 . S
C1592 H1608 0.931 . S
C1593 C1592 1.391 . S
C1593 C1597 1.376 . S
C1594 C1592 1.394 . S
C1594 C1595 1.369 . S
C1594 C1598 1.531 . S
C1595 C1594 1.369 . S
C1595 C1596 1.410 . S
C1595 C1603 1.503 . S
C1596 C1595 1.410 . S
C1596 C1597 1.392 . S
C1596 C1599 1.511 . S
C1597 C1593 1.376 . S
C1597 C1596 1.392 . S
C1597 H1609 0.929 . S
C1598 C1594 1.531 . S
C1598 H1610 0.960 . S
C1598 H1611 0.962 . S
C1598 H1612 0.960 . S
C1599 C1596 1.511 . S
C1599 H1613 0.961 . S
C1599 H1614 0.961 . S
C1599 H1615 0.961 . S
C1600 C1601 1.370 . S
C1600 C1602 1.363 . S
C1600 H1616 0.931 . S
C1601 C1600 1.370 . S
C1601 C1605 1.408 . S
C1602 C1600 1.363 . S
C1602 C1603 1.370 . S
C1602 C1606 1.524 . S
C1603 C1595 1.503 . S
C1603 C1602 1.370 . S
C1603 C1604 1.403 . S
C1604 C1603 1.403 . S
C1604 C1605 1.404 . S
C1604 C1607 1.539 . S
C1605 C1601 1.408 . S
C1605 C1604 1.404 . S
C1605 H1617 0.930 . S
C1606 C1602 1.524 . S
C1606 H1618 0.956 . S
C1606 H1619 0.961 . S
C1606 H1620 0.961 . S
C1607 C1604 1.539 . S
C1607 H1621 0.958 . S
C1607 H1622 0.961 . S
C1607 H1623 0.960 . S
H1608 C1592 0.931 . S
H1609 C1597 0.929 . S
H1610 C1598 0.960 . S
H1611 C1598 0.962 . S
H1612 C1598 0.960 . S
H1613 C1599 0.961 . S
H1614 C1599 0.961 . S
H1615 C1599 0.961 . S
H1616 C1600 0.931 . S
H1617 C1605 0.930 . S
H1618 C1606 0.956 . S
H1619 C1606 0.961 . S
H1620 C1606 0.961 . S
H1621 C1607 0.958 . S
H1622 C1607 0.961 . S
H1623 C1607 0.960 . S
C1624 C1625 1.391 . S
C1624 C1626 1.394 . S
C1624 H1640 0.931 . S
C1625 C1624 1.391 . S
C1625 C1629 1.376 . S
C1626 C1624 1.394 . S
C1626 C1627 1.369 . S
C1626 C1630 1.531 . S
C1627 C1626 1.369 . S
C1627 C1628 1.410 . S
C1627 C1635 1.503 . S
C1628 C1627 1.410 . S
C1628 C1629 1.392 . S
C1628 C1631 1.511 . S
C1629 C1625 1.376 . S
C1629 C1628 1.392 . S
C1629 H1641 0.929 . S
C1630 C1626 1.531 . S
C1630 H1642 0.960 . S
C1630 H1643 0.962 . S
C1630 H1644 0.960 . S
C1631 C1628 1.511 . S
C1631 H1645 0.961 . S
C1631 H1646 0.961 . S
C1631 H1647 0.961 . S
C1632 C1633 1.370 . S
C1632 C1634 1.363 . S
C1632 H1648 0.931 . S
C1633 C1632 1.370 . S
C1633 C1637 1.408 . S
C1634 C1632 1.363 . S
C1634 C1635 1.370 . S
C1634 C1638 1.524 . S
C1635 C1627 1.503 . S
C1635 C1634 1.370 . S
C1635 C1636 1.403 . S
C1636 C1635 1.403 . S
C1636 C1637 1.404 . S
C1636 C1639 1.539 . S
C1637 C1633 1.408 . S
C1637 C1636 1.404 . S
C1637 H1649 0.930 . S
C1638 C1634 1.524 . S
C1638 H1650 0.956 . S
C1638 H1651 0.961 . S
C1638 H1652 0.961 . S
C1639 C1636 1.539 . S
C1639 H1653 0.958 . S
C1639 H1654 0.961 . S
C1639 H1655 0.960 . S
H1640 C1624 0.931 . S
H1641 C1629 0.929 . S
H1642 C1630 0.960 . S
H1643 C1630 0.962 . S
H1644 C1630 0.960 . S
H1645 C1631 0.961 . S
H1646 C1631 0.961 . S
H1647 C1631 0.961 . S
H1648 C1632 0.931 . S
H1649 C1637 0.930 . S
H1650 C1638 0.956 . S
H1651 C1638 0.961 . S
H1652 C1638 0.961 . S
H1653 C1639 0.958 . S
H1654 C1639 0.961 . S
H1655 C1639 0.960 . S
C1656 C1657 1.391 . S
C1656 C1658 1.394 . S
C1656 H1672 0.931 . S
C1657 C1656 1.391 . S
C1657 C1661 1.376 . S
C1658 C1656 1.394 . S
C1658 C1659 1.369 . S
C1658 C1662 1.531 . S
C1659 C1658 1.369 . S
C1659 C1660 1.410 . S
C1659 C1667 1.503 . S
C1660 C1659 1.410 . S
C1660 C1661 1.392 . S
C1660 C1663 1.511 . S
C1661 C1657 1.376 . S
C1661 C1660 1.392 . S
C1661 H1673 0.929 . S
C1662 C1658 1.531 . S
C1662 H1674 0.960 . S
C1662 H1675 0.962 . S
C1662 H1676 0.960 . S
C1663 C1660 1.511 . S
C1663 H1677 0.961 . S
C1663 H1678 0.961 . S
C1663 H1679 0.961 . S
C1664 C1665 1.370 . S
C1664 C1666 1.363 . S
C1664 H1680 0.931 . S
C1665 C1664 1.370 . S
C1665 C1669 1.408 . S
C1666 C1664 1.363 . S
C1666 C1667 1.370 . S
C1666 C1670 1.524 . S
C1667 C1659 1.503 . S
C1667 C1666 1.370 . S
C1667 C1668 1.403 . S
C1668 C1667 1.403 . S
C1668 C1669 1.404 . S
C1668 C1671 1.539 . S
C1669 C1665 1.408 . S
C1669 C1668 1.404 . S
C1669 H1681 0.930 . S
C1670 C1666 1.524 . S
C1670 H1682 0.956 . S
C1670 H1683 0.961 . S
C1670 H1684 0.961 . S
C1671 C1668 1.539 . S
C1671 H1685 0.958 . S
C1671 H1686 0.961 . S
C1671 H1687 0.960 . S
H1672 C1656 0.931 . S
H1673 C1661 0.929 . S
H1674 C1662 0.960 . S
H1675 C1662 0.962 . S
H1676 C1662 0.960 . S
H1677 C1663 0.961 . S
H1678 C1663 0.961 . S
H1679 C1663 0.961 . S
H1680 C1664 0.931 . S
H1681 C1669 0.930 . S
H1682 C1670 0.956 . S
H1683 C1670 0.961 . S
H1684 C1670 0.961 . S
H1685 C1671 0.958 . S
H1686 C1671 0.961 . S
H1687 C1671 0.960 . S
C1688 C1689 1.391 . S
C1688 C1690 1.394 . S
C1688 H1704 0.931 . S
C1689 C1688 1.391 . S
C1689 C1693 1.376 . S
C1690 C1688 1.394 . S
C1690 C1691 1.369 . S
C1690 C1694 1.531 . S
C1691 C1690 1.369 . S
C1691 C1692 1.410 . S
C1691 C1699 1.503 . S
C1692 C1691 1.410 . S
C1692 C1693 1.392 . S
C1692 C1695 1.511 . S
C1693 C1689 1.376 . S
C1693 C1692 1.392 . S
C1693 H1705 0.929 . S
C1694 C1690 1.531 . S
C1694 H1706 0.960 . S
C1694 H1707 0.962 . S
C1694 H1708 0.960 . S
C1695 C1692 1.511 . S
C1695 H1709 0.961 . S
C1695 H1710 0.961 . S
C1695 H1711 0.961 . S
C1696 C1697 1.370 . S
C1696 C1698 1.363 . S
C1696 H1712 0.931 . S
C1697 C1696 1.370 . S
C1697 C1701 1.408 . S
C1698 C1696 1.363 . S
C1698 C1699 1.370 . S
C1698 C1702 1.524 . S
C1699 C1691 1.503 . S
C1699 C1698 1.370 . S
C1699 C1700 1.403 . S
C1700 C1699 1.403 . S
C1700 C1701 1.404 . S
C1700 C1703 1.539 . S
C1701 C1697 1.408 . S
C1701 C1700 1.404 . S
C1701 H1713 0.930 . S
C1702 C1698 1.524 . S
C1702 H1714 0.956 . S
C1702 H1715 0.961 . S
C1702 H1716 0.961 . S
C1703 C1700 1.539 . S
C1703 H1717 0.958 . S
C1703 H1718 0.961 . S
C1703 H1719 0.960 . S
H1704 C1688 0.931 . S
H1705 C1693 0.929 . S
H1706 C1694 0.960 . S
H1707 C1694 0.962 . S
H1708 C1694 0.960 . S
H1709 C1695 0.961 . S
H1710 C1695 0.961 . S
H1711 C1695 0.961 . S
H1712 C1696 0.931 . S
H1713 C1701 0.930 . S
H1714 C1702 0.956 . S
H1715 C1702 0.961 . S
H1716 C1702 0.961 . S
H1717 C1703 0.958 . S
H1718 C1703 0.961 . S
H1719 C1703 0.960 . S
C1720 C1721 1.391 . S
C1720 C1722 1.394 . S
C1720 H1736 0.931 . S
C1721 C1720 1.391 . S
C1721 C1725 1.376 . S
C1722 C1720 1.394 . S
C1722 C1723 1.369 . S
C1722 C1726 1.531 . S
C1723 C1722 1.369 . S
C1723 C1724 1.410 . S
C1723 C1731 1.503 . S
C1724 C1723 1.410 . S
C1724 C1725 1.392 . S
C1724 C1727 1.511 . S
C1725 C1721 1.376 . S
C1725 C1724 1.392 . S
C1725 H1737 0.929 . S
C1726 C1722 1.531 . S
C1726 H1738 0.960 . S
C1726 H1739 0.962 . S
C1726 H1740 0.960 . S
C1727 C1724 1.511 . S
C1727 H1741 0.961 . S
C1727 H1742 0.961 . S
C1727 H1743 0.961 . S
C1728 C1729 1.370 . S
C1728 C1730 1.363 . S
C1728 H1744 0.931 . S
C1729 C1728 1.370 . S
C1729 C1733 1.408 . S
C1730 C1728 1.363 . S
C1730 C1731 1.370 . S
C1730 C1734 1.524 . S
C1731 C1723 1.503 . S
C1731 C1730 1.370 . S
C1731 C1732 1.403 . S
C1732 C1731 1.403 . S
C1732 C1733 1.404 . S
C1732 C1735 1.539 . S
C1733 C1729 1.408 . S
C1733 C1732 1.404 . S
C1733 H1745 0.930 . S
C1734 C1730 1.524 . S
C1734 H1746 0.956 . S
C1734 H1747 0.961 . S
C1734 H1748 0.961 . S
C1735 C1732 1.539 . S
C1735 H1749 0.958 . S
C1735 H1750 0.961 . S
C1735 H1751 0.960 . S
H1736 C1720 0.931 . S
H1737 C1725 0.929 . S
H1738 C1726 0.960 . S
H1739 C1726 0.962 . S
H1740 C1726 0.960 . S
H1741 C1727 0.961 . S
H1742 C1727 0.961 . S
H1743 C1727 0.961 . S
H1744 C1728 0.931 . S
H1745 C1733 0.930 . S
H1746 C1734 0.956 . S
H1747 C1734 0.961 . S
H1748 C1734 0.961 . S
H1749 C1735 0.958 . S
H1750 C1735 0.961 . S
H1751 C1735 0.960 . S
C1752 C1753 1.391 . S
C1752 C1754 1.394 . S
C1752 H1768 0.931 . S
C1753 C1752 1.391 . S
C1753 C1757 1.376 . S
C1754 C1752 1.394 . S
C1754 C1755 1.369 . S
C1754 C1758 1.531 . S
C1755 C1754 1.369 . S
C1755 C1756 1.410 . S
C1755 C1763 1.503 . S
C1756 C1755 1.410 . S
C1756 C1757 1.392 . S
C1756 C1759 1.511 . S
C1757 C1753 1.376 . S
C1757 C1756 1.392 . S
C1757 H1769 0.929 . S
C1758 C1754 1.531 . S
C1758 H1770 0.960 . S
C1758 H1771 0.962 . S
C1758 H1772 0.960 . S
C1759 C1756 1.511 . S
C1759 H1773 0.961 . S
C1759 H1774 0.961 . S
C1759 H1775 0.961 . S
C1760 C1761 1.370 . S
C1760 C1762 1.363 . S
C1760 H1776 0.931 . S
C1761 C1760 1.370 . S
C1761 C1765 1.408 . S
C1762 C1760 1.363 . S
C1762 C1763 1.370 . S
C1762 C1766 1.524 . S
C1763 C1755 1.503 . S
C1763 C1762 1.370 . S
C1763 C1764 1.403 . S
C1764 C1763 1.403 . S
C1764 C1765 1.404 . S
C1764 C1767 1.539 . S
C1765 C1761 1.408 . S
C1765 C1764 1.404 . S
C1765 H1777 0.930 . S
C1766 C1762 1.524 . S
C1766 H1778 0.956 . S
C1766 H1779 0.961 . S
C1766 H1780 0.961 . S
C1767 C1764 1.539 . S
C1767 H1781 0.958 . S
C1767 H1782 0.961 . S
C1767 H1783 0.960 . S
H1768 C1752 0.931 . S
H1769 C1757 0.929 . S
H1770 C1758 0.960 . S
H1771 C1758 0.962 . S
H1772 C1758 0.960 . S
H1773 C1759 0.961 . S
H1774 C1759 0.961 . S
H1775 C1759 0.961 . S
H1776 C1760 0.931 . S
H1777 C1765 0.930 . S
H1778 C1766 0.956 . S
H1779 C1766 0.961 . S
H1780 C1766 0.961 . S
H1781 C1767 0.958 . S
H1782 C1767 0.961 . S
H1783 C1767 0.960 . S
C1784 C1785 1.391 . S
C1784 C1786 1.394 . S
C1784 H1800 0.931 . S
C1785 C1784 1.391 . S
C1785 C1789 1.376 . S
C1786 C1784 1.394 . S
C1786 C1787 1.369 . S
C1786 C1790 1.531 . S
C1787 C1786 1.369 . S
C1787 C1788 1.410 . S
C1787 C1795 1.503 . S
C1788 C1787 1.410 . S
C1788 C1789 1.392 . S
C1788 C1791 1.511 . S
C1789 C1785 1.376 . S
C1789 C1788 1.392 . S
C1789 H1801 0.929 . S
C1790 C1786 1.531 . S
C1790 H1802 0.960 . S
C1790 H1803 0.962 . S
C1790 H1804 0.960 . S
C1791 C1788 1.511 . S
C1791 H1805 0.961 . S
C1791 H1806 0.961 . S
C1791 H1807 0.961 . S
C1792 C1793 1.370 . S
C1792 C1794 1.363 . S
C1792 H1808 0.931 . S
C1793 C1792 1.370 . S
C1793 C1797 1.408 . S
C1794 C1792 1.363 . S
C1794 C1795 1.370 . S
C1794 C1798 1.524 . S
C1795 C1787 1.503 . S
C1795 C1794 1.370 . S
C1795 C1796 1.403 . S
C1796 C1795 1.403 . S
C1796 C1797 1.404 . S
C1796 C1799 1.539 . S
C1797 C1793 1.408 . S
C1797 C1796 1.404 . S
C1797 H1809 0.930 . S
C1798 C1794 1.524 . S
C1798 H1810 0.956 . S
C1798 H1811 0.961 . S
C1798 H1812 0.961 . S
C1799 C1796 1.539 . S
C1799 H1813 0.958 . S
C1799 H1814 0.961 . S
C1799 H1815 0.960 . S
H1800 C1784 0.931 . S
H1801 C1789 0.929 . S
H1802 C1790 0.960 . S
H1803 C1790 0.962 . S
H1804 C1790 0.960 . S
H1805 C1791 0.961 . S
H1806 C1791 0.961 . S
H1807 C1791 0.961 . S
H1808 C1792 0.931 . S
H1809 C1797 0.930 . S
H1810 C1798 0.956 . S
H1811 C1798 0.961 . S
H1812 C1798 0.961 . S
H1813 C1799 0.958 . S
H1814 C1799 0.961 . S
H1815 C1799 0.960 . S
C1816 C1817 1.391 . S
C1816 C1818 1.394 . S
C1816 H1832 0.931 . S
C1817 C1816 1.391 . S
C1817 C1821 1.376 . S
C1818 C1816 1.394 . S
C1818 C1819 1.369 . S
C1818 C1822 1.531 . S
C1819 C1818 1.369 . S
C1819 C1820 1.410 . S
C1819 C1827 1.503 . S
C1820 C1819 1.410 . S
C1820 C1821 1.392 . S
C1820 C1823 1.511 . S
C1821 C1817 1.376 . S
C1821 C1820 1.392 . S
C1821 H1833 0.929 . S
C1822 C1818 1.531 . S
C1822 H1834 0.960 . S
C1822 H1835 0.962 . S
C1822 H1836 0.960 . S
C1823 C1820 1.511 . S
C1823 H1837 0.961 . S
C1823 H1838 0.961 . S
C1823 H1839 0.961 . S
C1824 C1825 1.370 . S
C1824 C1826 1.363 . S
C1824 H1840 0.931 . S
C1825 C1824 1.370 . S
C1825 C1829 1.408 . S
C1826 C1824 1.363 . S
C1826 C1827 1.370 . S
C1826 C1830 1.524 . S
C1827 C1819 1.503 . S
C1827 C1826 1.370 . S
C1827 C1828 1.403 . S
C1828 C1827 1.403 . S
C1828 C1829 1.404 . S
C1828 C1831 1.539 . S
C1829 C1825 1.408 . S
C1829 C1828 1.404 . S
C1829 H1841 0.930 . S
C1830 C1826 1.524 . S
C1830 H1842 0.956 . S
C1830 H1843 0.961 . S
C1830 H1844 0.961 . S
C1831 C1828 1.539 . S
C1831 H1845 0.958 . S
C1831 H1846 0.961 . S
C1831 H1847 0.960 . S
H1832 C1816 0.931 . S
H1833 C1821 0.929 . S
H1834 C1822 0.960 . S
H1835 C1822 0.962 . S
H1836 C1822 0.960 . S
H1837 C1823 0.961 . S
H1838 C1823 0.961 . S
H1839 C1823 0.961 . S
H1840 C1824 0.931 . S
H1841 C1829 0.930 . S
H1842 C1830 0.956 . S
H1843 C1830 0.961 . S
H1844 C1830 0.961 . S
H1845 C1831 0.958 . S
H1846 C1831 0.961 . S
H1847 C1831 0.960 . S
C1848 C1849 1.391 . S
C1848 C1850 1.394 . S
C1848 H1864 0.931 . S
C1849 C1848 1.391 . S
C1849 C1853 1.376 . S
C1850 C1848 1.394 . S
C1850 C1851 1.369 . S
C1850 C1854 1.531 . S
C1851 C1850 1.369 . S
C1851 C1852 1.410 . S
C1851 C1859 1.503 . S
C1852 C1851 1.410 . S
C1852 C1853 1.392 . S
C1852 C1855 1.511 . S
C1853 C1849 1.376 . S
C1853 C1852 1.392 . S
C1853 H1865 0.929 . S
C1854 C1850 1.531 . S
C1854 H1866 0.960 . S
C1854 H1867 0.962 . S
C1854 H1868 0.960 . S
C1855 C1852 1.511 . S
C1855 H1869 0.961 . S
C1855 H1870 0.961 . S
C1855 H1871 0.961 . S
C1856 C1857 1.370 . S
C1856 C1858 1.363 . S
C1856 H1872 0.931 . S
C1857 C1856 1.370 . S
C1857 C1861 1.408 . S
C1858 C1856 1.363 . S
C1858 C1859 1.370 . S
C1858 C1862 1.524 . S
C1859 C1851 1.503 . S
C1859 C1858 1.370 . S
C1859 C1860 1.403 . S
C1860 C1859 1.403 . S
C1860 C1861 1.404 . S
C1860 C1863 1.539 . S
C1861 C1857 1.408 . S
C1861 C1860 1.404 . S
C1861 H1873 0.930 . S
C1862 C1858 1.524 . S
C1862 H1874 0.956 . S
C1862 H1875 0.961 . S
C1862 H1876 0.961 . S
C1863 C1860 1.539 . S
C1863 H1877 0.958 . S
C1863 H1878 0.961 . S
C1863 H1879 0.960 . S
H1864 C1848 0.931 . S
H1865 C1853 0.929 . S
H1866 C1854 0.960 . S
H1867 C1854 0.962 . S
H1868 C1854 0.960 . S
H1869 C1855 0.961 . S
H1870 C1855 0.961 . S
H1871 C1855 0.961 . S
H1872 C1856 0.931 . S
H1873 C1861 0.930 . S
H1874 C1862 0.956 . S
H1875 C1862 0.961 . S
H1876 C1862 0.961 . S
H1877 C1863 0.958 . S
H1878 C1863 0.961 . S
H1879 C1863 0.960 . S
C1880 C1881 1.391 . S
C1880 C1882 1.394 . S
C1880 H1896 0.931 . S
C1881 C1880 1.391 . S
C1881 C1885 1.376 . S
C1882 C1880 1.394 . S
C1882 C1883 1.369 . S
C1882 C1886 1.531 . S
C1883 C1882 1.369 . S
C1883 C1884 1.410 . S
C1883 C1891 1.503 . S
C1884 C1883 1.410 . S
C1884 C1885 1.392 . S
C1884 C1887 1.511 . S
C1885 C1881 1.376 . S
C1885 C1884 1.392 . S
C1885 H1897 0.929 . S
C1886 C1882 1.531 . S
C1886 H1898 0.960 . S
C1886 H1899 0.962 . S
C1886 H1900 0.960 . S
C1887 C1884 1.511 . S
C1887 H1901 0.961 . S
C1887 H1902 0.961 . S
C1887 H1903 0.961 . S
C1888 C1889 1.370 . S
C1888 C1890 1.363 . S
C1888 H1904 0.931 . S
C1889 C1888 1.370 . S
C1889 C1893 1.408 . S
C1890 C1888 1.363 . S
C1890 C1891 1.370 . S
C1890 C1894 1.524 . S
C1891 C1883 1.503 . S
C1891 C1890 1.370 . S
C1891 C1892 1.403 . S
C1892 C1891 1.403 . S
C1892 C1893 1.404 . S
C1892 C1895 1.539 . S
C1893 C1889 1.408 . S
C1893 C1892 1.404 . S
C1893 H1905 0.930 . S
C1894 C1890 1.524 . S
C1894 H1906 0.956 . S
C1894 H1907 0.961 . S
C1894 H1908 0.961 . S
C1895 C1892 1.539 . S
C1895 H1909 0.958 . S
C1895 H1910 0.961 . S
C1895 H1911 0.960 . S
H1896 C1880 0.931 . S
H1897 C1885 0.929 . S
H1898 C1886 0.960 . S
H1899 C1886 0.962 . S
H1900 C1886 0.960 . S
H1901 C1887 0.961 . S
H1902 C1887 0.961 . S
H1903 C1887 0.961 . S
H1904 C1888 0.931 . S
H1905 C1893 0.930 . S
H1906 C1894 0.956 . S
H1907 C1894 0.961 . S
H1908 C1894 0.961 . S
H1909 C1895 0.958 . S
H1910 C1895 0.961 . S
H1911 C1895 0.960 . S
C1912 C1913 1.391 . S
C1912 C1914 1.394 . S
C1912 H1928 0.931 . S
C1913 C1912 1.391 . S
C1913 C1917 1.376 . S
C1914 C1912 1.394 . S
C1914 C1915 1.369 . S
C1914 C1918 1.531 . S
C1915 C1914 1.369 . S
C1915 C1916 1.410 . S
C1915 C1923 1.503 . S
C1916 C1915 1.410 . S
C1916 C1917 1.392 . S
C1916 C1919 1.511 . S
C1917 C1913 1.376 . S
C1917 C1916 1.392 . S
C1917 H1929 0.929 . S
C1918 C1914 1.531 . S
C1918 H1930 0.960 . S
C1918 H1931 0.962 . S
C1918 H1932 0.960 . S
C1919 C1916 1.511 . S
C1919 H1933 0.961 . S
C1919 H1934 0.961 . S
C1919 H1935 0.961 . S
C1920 C1921 1.370 . S
C1920 C1922 1.363 . S
C1920 H1936 0.931 . S
C1921 C1920 1.370 . S
C1921 C1925 1.408 . S
C1922 C1920 1.363 . S
C1922 C1923 1.370 . S
C1922 C1926 1.524 . S
C1923 C1915 1.503 . S
C1923 C1922 1.370 . S
C1923 C1924 1.403 . S
C1924 C1923 1.403 . S
C1924 C1925 1.404 . S
C1924 C1927 1.539 . S
C1925 C1921 1.408 . S
C1925 C1924 1.404 . S
C1925 H1937 0.930 . S
C1926 C1922 1.524 . S
C1926 H1938 0.956 . S
C1926 H1939 0.961 . S
C1926 H1940 0.961 . S
C1927 C1924 1.539 . S
C1927 H1941 0.958 . S
C1927 H1942 0.961 . S
C1927 H1943 0.960 . S
H1928 C1912 0.931 . S
H1929 C1917 0.929 . S
H1930 C1918 0.960 . S
H1931 C1918 0.962 . S
H1932 C1918 0.960 . S
H1933 C1919 0.961 . S
H1934 C1919 0.961 . S
H1935 C1919 0.961 . S
H1936 C1920 0.931 . S
H1937 C1925 0.930 . S
H1938 C1926 0.956 . S
H1939 C1926 0.961 . S
H1940 C1926 0.961 . S
H1941 C1927 0.958 . S
H1942 C1927 0.961 . S
H1943 C1927 0.960 . S
C1944 C1945 1.391 . S
C1944 C1946 1.394 . S
C1944 H1960 0.931 . S
C1945 C1944 1.391 . S
C1945 C1949 1.376 . S
C1946 C1944 1.394 . S
C1946 C1947 1.369 . S
C1946 C1950 1.531 . S
C1947 C1946 1.369 . S
C1947 C1948 1.410 . S
C1947 C1955 1.503 . S
C1948 C1947 1.410 . S
C1948 C1949 1.392 . S
C1948 C1951 1.511 . S
C1949 C1945 1.376 . S
C1949 C1948 1.392 . S
C1949 H1961 0.929 . S
C1950 C1946 1.531 . S
C1950 H1962 0.960 . S
C1950 H1963 0.962 . S
C1950 H1964 0.960 . S
C1951 C1948 1.511 . S
C1951 H1965 0.961 . S
C1951 H1966 0.961 . S
C1951 H1967 0.961 . S
C1952 C1953 1.370 . S
C1952 C1954 1.363 . S
C1952 H1968 0.931 . S
C1953 C1952 1.370 . S
C1953 C1957 1.408 . S
C1954 C1952 1.363 . S
C1954 C1955 1.370 . S
C1954 C1958 1.524 . S
C1955 C1947 1.503 . S
C1955 C1954 1.370 . S
C1955 C1956 1.403 . S
C1956 C1955 1.403 . S
C1956 C1957 1.404 . S
C1956 C1959 1.539 . S
C1957 C1953 1.408 . S
C1957 C1956 1.404 . S
C1957 H1969 0.930 . S
C1958 C1954 1.524 . S
C1958 H1970 0.956 . S
C1958 H1971 0.961 . S
C1958 H1972 0.961 . S
C1959 C1956 1.539 . S
C1959 H1973 0.958 . S
C1959 H1974 0.961 . S
C1959 H1975 0.960 . S
H1960 C1944 0.931 . S
H1961 C1949 0.929 . S
H1962 C1950 0.960 . S
H1963 C1950 0.962 . S
H1964 C1950 0.960 . S
H1965 C1951 0.961 . S
H1966 C1951 0.961 . S
H1967 C1951 0.961 . S
H1968 C1952 0.931 . S
H1969 C1957 0.930 . S
H1970 C1958 0.956 . S
H1971 C1958 0.961 . S
H1972 C1958 0.961 . S
H1973 C1959 0.958 . S
H1974 C1959 0.961 . S
H1975 C1959 0.960 . S
C1976 C1977 1.391 . S
C1976 C1978 1.394 . S
C1976 H1992 0.931 . S
C1977 C1976 1.391 . S
C1977 C1981 1.376 . S
C1978 C1976 1.394 . S
C1978 C1979 1.369 . S
C1978 C1982 1.531 . S
C1979 C1978 1.369 . S
C1979 C1980 1.410 . S
C1979 C1987 1.503 . S
C1980 C1979 1.410 . S
C1980 C1981 1.392 . S
C1980 C1983 1.511 . S
C1981 C1977 1.376 . S
C1981 C1980 1.392 . S
C1981 H1993 0.929 . S
C1982 C1978 1.531 . S
C1982 H1994 0.960 . S
C1982 H1995 0.962 . S
C1982 H1996 0.960 . S
C1983 C1980 1.511 . S
C1983 H1997 0.961 . S
C1983 H1998 0.961 . S
C1983 H1999 0.961 . S
C1984 C1985 1.370 . S
C1984 C1986 1.363 . S
C1984 H2000 0.931 . S
C1985 C1984 1.370 . S
C1985 C1989 1.408 . S
C1986 C1984 1.363 . S
C1986 C1987 1.370 . S
C1986 C1990 1.524 . S
C1987 C1979 1.503 . S
C1987 C1986 1.370 . S
C1987 C1988 1.403 . S
C1988 C1987 1.403 . S
C1988 C1989 1.404 . S
C1988 C1991 1.539 . S
C1989 C1985 1.408 . S
C1989 C1988 1.404 . S
C1989 H2001 0.930 . S
C1990 C1986 1.524 . S
C1990 H2002 0.956 . S
C1990 H2003 0.961 . S
C1990 H2004 0.961 . S
C1991 C1988 1.539 . S
C1991 H2005 0.958 . S
C1991 H2006 0.961 . S
C1991 H2007 0.960 . S
H1992 C1976 0.931 . S
H1993 C1981 0.929 . S
H1994 C1982 0.960 . S
H1995 C1982 0.962 . S
H1996 C1982 0.960 . S
H1997 C1983 0.961 . S
H1998 C1983 0.961 . S
H1999 C1983 0.961 . S
H2000 C1984 0.931 . S
H2001 C1989 0.930 . S
H2002 C1990 0.956 . S
H2003 C1990 0.961 . S
H2004 C1990 0.961 . S
H2005 C1991 0.958 . S
H2006 C1991 0.961 . S
H2007 C1991 0.960 . S
C2008 C2009 1.391 . S
C2008 C2010 1.394 . S
C2008 H2024 0.931 . S
C2009 C2008 1.391 . S
C2009 C2013 1.376 . S
C2010 C2008 1.394 . S
C2010 C2011 1.369 . S
C2010 C2014 1.531 . S
C2011 C2010 1.369 . S
C2011 C2012 1.410 . S
C2011 C2019 1.503 . S
C2012 C2011 1.410 . S
C2012 C2013 1.392 . S
C2012 C2015 1.511 . S
C2013 C2009 1.376 . S
C2013 C2012 1.392 . S
C2013 H2025 0.929 . S
C2014 C2010 1.531 . S
C2014 H2026 0.960 . S
C2014 H2027 0.962 . S
C2014 H2028 0.960 . S
C2015 C2012 1.511 . S
C2015 H2029 0.961 . S
C2015 H2030 0.961 . S
C2015 H2031 0.961 . S
C2016 C2017 1.370 . S
C2016 C2018 1.363 . S
C2016 H2032 0.931 . S
C2017 C2016 1.370 . S
C2017 C2021 1.408 . S
C2018 C2016 1.363 . S
C2018 C2019 1.370 . S
C2018 C2022 1.524 . S
C2019 C2011 1.503 . S
C2019 C2018 1.370 . S
C2019 C2020 1.403 . S
C2020 C2019 1.403 . S
C2020 C2021 1.404 . S
C2020 C2023 1.539 . S
C2021 C2017 1.408 . S
C2021 C2020 1.404 . S
C2021 H2033 0.930 . S
C2022 C2018 1.524 . S
C2022 H2034 0.956 . S
C2022 H2035 0.961 . S
C2022 H2036 0.961 . S
C2023 C2020 1.539 . S
C2023 H2037 0.958 . S
C2023 H2038 0.961 . S
C2023 H2039 0.960 . S
H2024 C2008 0.931 . S
H2025 C2013 0.929 . S
H2026 C2014 0.960 . S
H2027 C2014 0.962 . S
H2028 C2014 0.960 . S
H2029 C2015 0.961 . S
H2030 C2015 0.961 . S
H2031 C2015 0.961 . S
H2032 C2016 0.931 . S
H2033 C2021 0.930 . S
H2034 C2022 0.956 . S
H2035 C2022 0.961 . S
H2036 C2022 0.961 . S
H2037 C2023 0.958 . S
H2038 C2023 0.961 . S
H2039 C2023 0.960 . S
C2040 C2041 1.391 . S
C2040 C2042 1.394 . S
C2040 H2056 0.931 . S
C2041 C2040 1.391 . S
C2041 C2045 1.376 . S
C2042 C2040 1.394 . S
C2042 C2043 1.369 . S
C2042 C2046 1.531 . S
C2043 C2042 1.369 . S
C2043 C2044 1.410 . S
C2043 C2051 1.503 . S
C2044 C2043 1.410 . S
C2044 C2045 1.392 . S
C2044 C2047 1.511 . S
C2045 C2041 1.376 . S
C2045 C2044 1.392 . S
C2045 H2057 0.929 . S
C2046 C2042 1.531 . S
C2046 H2058 0.960 . S
C2046 H2059 0.962 . S
C2046 H2060 0.960 . S
C2047 C2044 1.511 . S
C2047 H2061 0.961 . S
C2047 H2062 0.961 . S
C2047 H2063 0.961 . S
C2048 C2049 1.370 . S
C2048 C2050 1.363 . S
C2048 H2064 0.931 . S
C2049 C2048 1.370 . S
C2049 C2053 1.408 . S
C2050 C2048 1.363 . S
C2050 C2051 1.370 . S
C2050 C2054 1.524 . S
C2051 C2043 1.503 . S
C2051 C2050 1.370 . S
C2051 C2052 1.403 . S
C2052 C2051 1.403 . S
C2052 C2053 1.404 . S
C2052 C2055 1.539 . S
C2053 C2049 1.408 . S
C2053 C2052 1.404 . S
C2053 H2065 0.930 . S
C2054 C2050 1.524 . S
C2054 H2066 0.956 . S
C2054 H2067 0.961 . S
C2054 H2068 0.961 . S
C2055 C2052 1.539 . S
C2055 H2069 0.958 . S
C2055 H2070 0.961 . S
C2055 H2071 0.960 . S
H2056 C2040 0.931 . S
H2057 C2045 0.929 . S
H2058 C2046 0.960 . S
H2059 C2046 0.962 . S
H2060 C2046 0.960 . S
H2061 C2047 0.961 . S
H2062 C2047 0.961 . S
H2063 C2047 0.961 . S
H2064 C2048 0.931 . S
H2065 C2053 0.930 . S
H2066 C2054 0.956 . S
H2067 C2054 0.961 . S
H2068 C2054 0.961 . S
H2069 C2055 0.958 . S
H2070 C2055 0.961 . S
H2071 C2055 0.960 . S
C2072 C2073 1.391 . S
C2072 C2074 1.394 . S
C2072 H2088 0.931 . S
C2073 C2072 1.391 . S
C2073 C2077 1.376 . S
C2074 C2072 1.394 . S
C2074 C2075 1.369 . S
C2074 C2078 1.531 . S
C2075 C2074 1.369 . S
C2075 C2076 1.410 . S
C2075 C2083 1.503 . S
C2076 C2075 1.410 . S
C2076 C2077 1.392 . S
C2076 C2079 1.511 . S
C2077 C2073 1.376 . S
C2077 C2076 1.392 . S
C2077 H2089 0.929 . S
C2078 C2074 1.531 . S
C2078 H2090 0.960 . S
C2078 H2091 0.962 . S
C2078 H2092 0.960 . S
C2079 C2076 1.511 . S
C2079 H2093 0.961 . S
C2079 H2094 0.961 . S
C2079 H2095 0.961 . S
C2080 C2081 1.370 . S
C2080 C2082 1.363 . S
C2080 H2096 0.931 . S
C2081 C2080 1.370 . S
C2081 C2085 1.408 . S
C2082 C2080 1.363 . S
C2082 C2083 1.370 . S
C2082 C2086 1.524 . S
C2083 C2075 1.503 . S
C2083 C2082 1.370 . S
C2083 C2084 1.403 . S
C2084 C2083 1.403 . S
C2084 C2085 1.404 . S
C2084 C2087 1.539 . S
C2085 C2081 1.408 . S
C2085 C2084 1.404 . S
C2085 H2097 0.930 . S
C2086 C2082 1.524 . S
C2086 H2098 0.956 . S
C2086 H2099 0.961 . S
C2086 H2100 0.961 . S
C2087 C2084 1.539 . S
C2087 H2101 0.958 . S
C2087 H2102 0.961 . S
C2087 H2103 0.960 . S
H2088 C2072 0.931 . S
H2089 C2077 0.929 . S
H2090 C2078 0.960 . S
H2091 C2078 0.962 . S
H2092 C2078 0.960 . S
H2093 C2079 0.961 . S
H2094 C2079 0.961 . S
H2095 C2079 0.961 . S
H2096 C2080 0.931 . S
H2097 C2085 0.930 . S
H2098 C2086 0.956 . S
H2099 C2086 0.961 . S
H2100 C2086 0.961 . S
H2101 C2087 0.958 . S
H2102 C2087 0.961 . S
H2103 C2087 0.960 . S
C2104 C2105 1.391 . S
C2104 C2106 1.394 . S
C2104 H2120 0.931 . S
C2105 C2104 1.391 . S
C2105 C2109 1.376 . S
C2106 C2104 1.394 . S
C2106 C2107 1.369 . S
C2106 C2110 1.531 . S
C2107 C2106 1.369 . S
C2107 C2108 1.410 . S
C2107 C2115 1.503 . S
C2108 C2107 1.410 . S
C2108 C2109 1.392 . S
C2108 C2111 1.511 . S
C2109 C2105 1.376 . S
C2109 C2108 1.392 . S
C2109 H2121 0.929 . S
C2110 C2106 1.531 . S
C2110 H2122 0.960 . S
C2110 H2123 0.962 . S
C2110 H2124 0.960 . S
C2111 C2108 1.511 . S
C2111 H2125 0.961 . S
C2111 H2126 0.961 . S
C2111 H2127 0.961 . S
C2112 C2113 1.370 . S
C2112 C2114 1.363 . S
C2112 H2128 0.931 . S
C2113 C2112 1.370 . S
C2113 C2117 1.408 . S
C2114 C2112 1.363 . S
C2114 C2115 1.370 . S
C2114 C2118 1.524 . S
C2115 C2107 1.503 . S
C2115 C2114 1.370 . S
C2115 C2116 1.403 . S
C2116 C2115 1.403 . S
C2116 C2117 1.404 . S
C2116 C2119 1.539 . S
C2117 C2113 1.408 . S
C2117 C2116 1.404 . S
C2117 H2129 0.930 . S
C2118 C2114 1.524 . S
C2118 H2130 0.956 . S
C2118 H2131 0.961 . S
C2118 H2132 0.961 . S
C2119 C2116 1.539 . S
C2119 H2133 0.958 . S
C2119 H2134 0.961 . S
C2119 H2135 0.960 . S
H2120 C2104 0.931 . S
H2121 C2109 0.929 . S
H2122 C2110 0.960 . S
H2123 C2110 0.962 . S
H2124 C2110 0.960 . S
H2125 C2111 0.961 . S
H2126 C2111 0.961 . S
H2127 C2111 0.961 . S
H2128 C2112 0.931 . S
H2129 C2117 0.930 . S
H2130 C2118 0.956 . S
H2131 C2118 0.961 . S
H2132 C2118 0.961 . S
H2133 C2119 0.958 . S
H2134 C2119 0.961 . S
H2135 C2119 0.960 . S
C2136 C2137 1.391 . S
C2136 C2138 1.394 . S
C2136 H2152 0.931 . S
C2137 C2136 1.391 . S
C2137 C2141 1.376 . S
C2138 C2136 1.394 . S
C2138 C2139 1.369 . S
C2138 C2142 1.531 . S
C2139 C2138 1.369 . S
C2139 C2140 1.410 . S
C2139 C2147 1.503 . S
C2140 C2139 1.410 . S
C2140 C2141 1.392 . S
C2140 C2143 1.511 . S
C2141 C2137 1.376 . S
C2141 C2140 1.392 . S
C2141 H2153 0.929 . S
C2142 C2138 1.531 . S
C2142 H2154 0.960 . S
C2142 H2155 0.962 . S
C2142 H2156 0.960 . S
C2143 C2140 1.511 . S
C2143 H2157 0.961 . S
C2143 H2158 0.961 . S
C2143 H2159 0.961 . S
C2144 C2145 1.370 . S
C2144 C2146 1.363 . S
C2144 H2160 0.931 . S
C2145 C2144 1.370 . S
C2145 C2149 1.408 . S
C2146 C2144 1.363 . S
C2146 C2147 1.370 . S
C2146 C2150 1.524 . S
C2147 C2139 1.503 . S
C2147 C2146 1.370 . S
C2147 C2148 1.403 . S
C2148 C2147 1.403 . S
C2148 C2149 1.404 . S
C2148 C2151 1.539 . S
C2149 C2145 1.408 . S
C2149 C2148 1.404 . S
C2149 H2161 0.930 . S
C2150 C2146 1.524 . S
C2150 H2162 0.956 . S
C2150 H2163 0.961 . S
C2150 H2164 0.961 . S
C2151 C2148 1.539 . S
C2151 H2165 0.958 . S
C2151 H2166 0.961 . S
C2151 H2167 0.960 . S
H2152 C2136 0.931 . S
H2153 C2141 0.929 . S
H2154 C2142 0.960 . S
H2155 C2142 0.962 . S
H2156 C2142 0.960 . S
H2157 C2143 0.961 . S
H2158 C2143 0.961 . S
H2159 C2143 0.961 . S
H2160 C2144 0.931 . S
H2161 C2149 0.930 . S
H2162 C2150 0.956 . S
H2163 C2150 0.961 . S
H2164 C2150 0.961 . S
H2165 C2151 0.958 . S
H2166 C2151 0.961 . S
H2167 C2151 0.960 . S
C2168 C2169 1.391 . S
C2168 C2170 1.394 . S
C2168 H2184 0.931 . S
C2169 C2168 1.391 . S
C2169 C2173 1.376 . S
C2170 C2168 1.394 . S
C2170 C2171 1.369 . S
C2170 C2174 1.531 . S
C2171 C2170 1.369 . S
C2171 C2172 1.410 . S
C2171 C2179 1.503 . S
C2172 C2171 1.410 . S
C2172 C2173 1.392 . S
C2172 C2175 1.511 . S
C2173 C2169 1.376 . S
C2173 C2172 1.392 . S
C2173 H2185 0.929 . S
C2174 C2170 1.531 . S
C2174 H2186 0.960 . S
C2174 H2187 0.962 . S
C2174 H2188 0.960 . S
C2175 C2172 1.511 . S
C2175 H2189 0.961 . S
C2175 H2190 0.961 . S
C2175 H2191 0.961 . S
C2176 C2177 1.370 . S
C2176 C2178 1.363 . S
C2176 H2192 0.931 . S
C2177 C2176 1.370 . S
C2177 C2181 1.408 . S
C2178 C2176 1.363 . S
C2178 C2179 1.370 . S
C2178 C2182 1.524 . S
C2179 C2171 1.503 . S
C2179 C2178 1.370 . S
C2179 C2180 1.403 . S
C2180 C2179 1.403 . S
C2180 C2181 1.404 . S
C2180 C2183 1.539 . S
C2181 C2177 1.408 . S
C2181 C2180 1.404 . S
C2181 H2193 0.930 . S
C2182 C2178 1.524 . S
C2182 H2194 0.956 . S
C2182 H2195 0.961 . S
C2182 H2196 0.961 . S
C2183 C2180 1.539 . S
C2183 H2197 0.958 . S
C2183 H2198 0.961 . S
C2183 H2199 0.960 . S
H2184 C2168 0.931 . S
H2185 C2173 0.929 . S
H2186 C2174 0.960 . S
H2187 C2174 0.962 . S
H2188 C2174 0.960 . S
H2189 C2175 0.961 . S
H2190 C2175 0.961 . S
H2191 C2175 0.961 . S
H2192 C2176 0.931 . S
H2193 C2181 0.930 . S
H2194 C2182 0.956 . S
H2195 C2182 0.961 . S
H2196 C2182 0.961 . S
H2197 C2183 0.958 . S
H2198 C2183 0.961 . S
H2199 C2183 0.960 . S
C2200 C2201 1.391 . S
C2200 C2202 1.394 . S
C2200 H2216 0.931 . S
C2201 C2200 1.391 . S
C2201 C2205 1.376 . S
C2202 C2200 1.394 . S
C2202 C2203 1.369 . S
C2202 C2206 1.531 . S
C2203 C2202 1.369 . S
C2203 C2204 1.410 . S
C2203 C2211 1.503 . S
C2204 C2203 1.410 . S
C2204 C2205 1.392 . S
C2204 C2207 1.511 . S
C2205 C2201 1.376 . S
C2205 C2204 1.392 . S
C2205 H2217 0.929 . S
C2206 C2202 1.531 . S
C2206 H2218 0.960 . S
C2206 H2219 0.962 . S
C2206 H2220 0.960 . S
C2207 C2204 1.511 . S
C2207 H2221 0.961 . S
C2207 H2222 0.961 . S
C2207 H2223 0.961 . S
C2208 C2209 1.370 . S
C2208 C2210 1.363 . S
C2208 H2224 0.931 . S
C2209 C2208 1.370 . S
C2209 C2213 1.408 . S
C2210 C2208 1.363 . S
C2210 C2211 1.370 . S
C2210 C2214 1.524 . S
C2211 C2203 1.503 . S
C2211 C2210 1.370 . S
C2211 C2212 1.403 . S
C2212 C2211 1.403 . S
C2212 C2213 1.404 . S
C2212 C2215 1.539 . S
C2213 C2209 1.408 . S
C2213 C2212 1.404 . S
C2213 H2225 0.930 . S
C2214 C2210 1.524 . S
C2214 H2226 0.956 . S
C2214 H2227 0.961 . S
C2214 H2228 0.961 . S
C2215 C2212 1.539 . S
C2215 H2229 0.958 . S
C2215 H2230 0.961 . S
C2215 H2231 0.960 . S
H2216 C2200 0.931 . S
H2217 C2205 0.929 . S
H2218 C2206 0.960 . S
H2219 C2206 0.962 . S
H2220 C2206 0.960 . S
H2221 C2207 0.961 . S
H2222 C2207 0.961 . S
H2223 C2207 0.961 . S
H2224 C2208 0.931 . S
H2225 C2213 0.930 . S
H2226 C2214 0.956 . S
H2227 C2214 0.961 . S
H2228 C2214 0.961 . S
H2229 C2215 0.958 . S
H2230 C2215 0.961 . S
H2231 C2215 0.960 . S
C2232 C2233 1.391 . S
C2232 C2234 1.394 . S
C2232 H2248 0.931 . S
C2233 C2232 1.391 . S
C2233 C2237 1.376 . S
C2234 C2232 1.394 . S
C2234 C2235 1.369 . S
C2234 C2238 1.531 . S
C2235 C2234 1.369 . S
C2235 C2236 1.410 . S
C2235 C2243 1.503 . S
C2236 C2235 1.410 . S
C2236 C2237 1.392 . S
C2236 C2239 1.511 . S
C2237 C2233 1.376 . S
C2237 C2236 1.392 . S
C2237 H2249 0.929 . S
C2238 C2234 1.531 . S
C2238 H2250 0.960 . S
C2238 H2251 0.962 . S
C2238 H2252 0.960 . S
C2239 C2236 1.511 . S
C2239 H2253 0.961 . S
C2239 H2254 0.961 . S
C2239 H2255 0.961 . S
C2240 C2241 1.370 . S
C2240 C2242 1.363 . S
C2240 H2256 0.931 . S
C2241 C2240 1.370 . S
C2241 C2245 1.408 . S
C2242 C2240 1.363 . S
C2242 C2243 1.370 . S
C2242 C2246 1.524 . S
C2243 C2235 1.503 . S
C2243 C2242 1.370 . S
C2243 C2244 1.403 . S
C2244 C2243 1.403 . S
C2244 C2245 1.404 . S
C2244 C2247 1.539 . S
C2245 C2241 1.408 . S
C2245 C2244 1.404 . S
C2245 H2257 0.930 . S
C2246 C2242 1.524 . S
C2246 H2258 0.956 . S
C2246 H2259 0.961 . S
C2246 H2260 0.961 . S
C2247 C2244 1.539 . S
C2247 H2261 0.958 . S
C2247 H2262 0.961 . S
C2247 H2263 0.960 . S
H2248 C2232 0.931 . S
H2249 C2237 0.929 . S
H2250 C2238 0.960 . S
H2251 C2238 0.962 . S
H2252 C2238 0.960 . S
H2253 C2239 0.961 . S
H2254 C2239 0.961 . S
H2255 C2239 0.961 . S
H2256 C2240 0.931 . S
H2257 C2245 0.930 . S
H2258 C2246 0.956 . S
H2259 C2246 0.961 . S
H2260 C2246 0.961 . S
H2261 C2247 0.958 . S
H2262 C2247 0.961 . S
H2263 C2247 0.960 . S
C2264 C2265 1.391 . S
C2264 C2266 1.394 . S
C2264 H2280 0.931 . S
C2265 C2264 1.391 . S
C2265 C2269 1.376 . S
C2266 C2264 1.394 . S
C2266 C2267 1.369 . S
C2266 C2270 1.531 . S
C2267 C2266 1.369 . S
C2267 C2268 1.410 . S
C2267 C2275 1.503 . S
C2268 C2267 1.410 . S
C2268 C2269 1.392 . S
C2268 C2271 1.511 . S
C2269 C2265 1.376 . S
C2269 C2268 1.392 . S
C2269 H2281 0.929 . S
C2270 C2266 1.531 . S
C2270 H2282 0.960 . S
C2270 H2283 0.962 . S
C2270 H2284 0.960 . S
C2271 C2268 1.511 . S
C2271 H2285 0.961 . S
C2271 H2286 0.961 . S
C2271 H2287 0.961 . S
C2272 C2273 1.370 . S
C2272 C2274 1.363 . S
C2272 H2288 0.931 . S
C2273 C2272 1.370 . S
C2273 C2277 1.408 . S
C2274 C2272 1.363 . S
C2274 C2275 1.370 . S
C2274 C2278 1.524 . S
C2275 C2267 1.503 . S
C2275 C2274 1.370 . S
C2275 C2276 1.403 . S
C2276 C2275 1.403 . S
C2276 C2277 1.404 . S
C2276 C2279 1.539 . S
C2277 C2273 1.408 . S
C2277 C2276 1.404 . S
C2277 H2289 0.930 . S
C2278 C2274 1.524 . S
C2278 H2290 0.956 . S
C2278 H2291 0.961 . S
C2278 H2292 0.961 . S
C2279 C2276 1.539 . S
C2279 H2293 0.958 . S
C2279 H2294 0.961 . S
C2279 H2295 0.960 . S
H2280 C2264 0.931 . S
H2281 C2269 0.929 . S
H2282 C2270 0.960 . S
H2283 C2270 0.962 . S
H2284 C2270 0.960 . S
H2285 C2271 0.961 . S
H2286 C2271 0.961 . S
H2287 C2271 0.961 . S
H2288 C2272 0.931 . S
H2289 C2277 0.930 . S
H2290 C2278 0.956 . S
H2291 C2278 0.961 . S
H2292 C2278 0.961 . S
H2293 C2279 0.958 . S
H2294 C2279 0.961 . S
H2295 C2279 0.960 . S
C2296 C2297 1.391 . S
C2296 C2298 1.394 . S
C2296 H2312 0.931 . S
C2297 C2296 1.391 . S
C2297 C2301 1.376 . S
C2298 C2296 1.394 . S
C2298 C2299 1.369 . S
C2298 C2302 1.531 . S
C2299 C2298 1.369 . S
C2299 C2300 1.410 . S
C2299 C2307 1.503 . S
C2300 C2299 1.410 . S
C2300 C2301 1.392 . S
C2300 C2303 1.511 . S
C2301 C2297 1.376 . S
C2301 C2300 1.392 . S
C2301 H2313 0.929 . S
C2302 C2298 1.531 . S
C2302 H2314 0.960 . S
C2302 H2315 0.962 . S
C2302 H2316 0.960 . S
C2303 C2300 1.511 . S
C2303 H2317 0.961 . S
C2303 H2318 0.961 . S
C2303 H2319 0.961 . S
C2304 C2305 1.370 . S
C2304 C2306 1.363 . S
C2304 H2320 0.931 . S
C2305 C2304 1.370 . S
C2305 C2309 1.408 . S
C2306 C2304 1.363 . S
C2306 C2307 1.370 . S
C2306 C2310 1.524 . S
C2307 C2299 1.503 . S
C2307 C2306 1.370 . S
C2307 C2308 1.403 . S
C2308 C2307 1.403 . S
C2308 C2309 1.404 . S
C2308 C2311 1.539 . S
C2309 C2305 1.408 . S
C2309 C2308 1.404 . S
C2309 H2321 0.930 . S
C2310 C2306 1.524 . S
C2310 H2322 0.956 . S
C2310 H2323 0.961 . S
C2310 H2324 0.961 . S
C2311 C2308 1.539 . S
C2311 H2325 0.958 . S
C2311 H2326 0.961 . S
C2311 H2327 0.960 . S
H2312 C2296 0.931 . S
H2313 C2301 0.929 . S
H2314 C2302 0.960 . S
H2315 C2302 0.962 . S
H2316 C2302 0.960 . S
H2317 C2303 0.961 . S
H2318 C2303 0.961 . S
H2319 C2303 0.961 . S
H2320 C2304 0.931 . S
H2321 C2309 0.930 . S
H2322 C2310 0.956 . S
H2323 C2310 0.961 . S
H2324 C2310 0.961 . S
H2325 C2311 0.958 . S
H2326 C2311 0.961 . S
H2327 C2311 0.960 . S
C2328 C2329 1.391 . S
C2328 C2330 1.394 . S
C2328 H2344 0.931 . S
C2329 C2328 1.391 . S
C2329 C2333 1.376 . S
C2330 C2328 1.394 . S
C2330 C2331 1.369 . S
C2330 C2334 1.531 . S
C2331 C2330 1.369 . S
C2331 C2332 1.410 . S
C2331 C2339 1.503 . S
C2332 C2331 1.410 . S
C2332 C2333 1.392 . S
C2332 C2335 1.511 . S
C2333 C2329 1.376 . S
C2333 C2332 1.392 . S
C2333 H2345 0.929 . S
C2334 C2330 1.531 . S
C2334 H2346 0.960 . S
C2334 H2347 0.962 . S
C2334 H2348 0.960 . S
C2335 C2332 1.511 . S
C2335 H2349 0.961 . S
C2335 H2350 0.961 . S
C2335 H2351 0.961 . S
C2336 C2337 1.370 . S
C2336 C2338 1.363 . S
C2336 H2352 0.931 . S
C2337 C2336 1.370 . S
C2337 C2341 1.408 . S
C2338 C2336 1.363 . S
C2338 C2339 1.370 . S
C2338 C2342 1.524 . S
C2339 C2331 1.503 . S
C2339 C2338 1.370 . S
C2339 C2340 1.403 . S
C2340 C2339 1.403 . S
C2340 C2341 1.404 . S
C2340 C2343 1.539 . S
C2341 C2337 1.408 . S
C2341 C2340 1.404 . S
C2341 H2353 0.930 . S
C2342 C2338 1.524 . S
C2342 H2354 0.956 . S
C2342 H2355 0.961 . S
C2342 H2356 0.961 . S
C2343 C2340 1.539 . S
C2343 H2357 0.958 . S
C2343 H2358 0.961 . S
C2343 H2359 0.960 . S
H2344 C2328 0.931 . S
H2345 C2333 0.929 . S
H2346 C2334 0.960 . S
H2347 C2334 0.962 . S
H2348 C2334 0.960 . S
H2349 C2335 0.961 . S
H2350 C2335 0.961 . S
H2351 C2335 0.961 . S
H2352 C2336 0.931 . S
H2353 C2341 0.930 . S
H2354 C2342 0.956 . S
H2355 C2342 0.961 . S
H2356 C2342 0.961 . S
H2357 C2343 0.958 . S
H2358 C2343 0.961 . S
H2359 C2343 0.960 . S
C1345 C941 1.453 . S
C1337 C29 1.114 . S
C1377 C994 1.498 . S
C1369 C125 0.795 . S
C1409 C1057 1.554 . S
C1401 C257 1.197 . S
C1441 C1100 1.420 . S
C1433 C353 0.815 . S
C1465 C457 1.227 . S
C1473 C1056 1.507 . S
C1505 C1093 1.511 . S
C1497 C625 1.262 . S
C1537 C934 1.434 . S
C1529 C685 1.188 . S
C1569 C987 1.384 . S
C1561 C853 1.165 . S
C1601 C1040 1.649 . S
C1593 C809 1.154 . S
C1633 C1109 1.767 . S
C1625 C485 1.423 . S
C1665 C950 1.743 . S
C1657 C581 1.151 . S
C1697 C1003 1.683 . S
C1689 C713 1.373 . S
C1729 C951 1.723 . S
C1721 C169 1.273 . S
C1761 C1004 1.736 . S
C1753 C229 1.297 . S
C1793 C1047 1.637 . S
C1785 C397 1.250 . S
C1825 C1110 1.648 . S
C1817 C1 1.214 . S
C1857 C1153 1.421 . S
C1849 C827 1.063 . S
C1881 C467 1.124 . S
C1889 C1206 1.850 . S
C1913 C599 1.253 . S
C1921 C1268 1.581 . S
C1945 C695 1.033 . S
C1953 C1322 1.835 . S
C1977 C115 1.209 . S
C1985 C1269 1.474 . S
C2009 C283 1.542 . S
C2017 C1321 1.917 . S
C2041 C343 1.197 . S
C2049 C1146 1.461 . S
C2081 C1199 1.746 . S
C2073 C55 1.364 . S
C2113 C1259 1.604 . S
C2105 C11 1.121 . S
C2137 C143 1.013 . S
C2145 C1305 1.311 . S
C2169 C239 1.130 . S
C2177 C1162 1.803 . S
C2201 C371 1.010 . S
C2209 C1215 1.291 . S
C2241 C1163 1.665 . S
C2233 C511 1.195 . S
C2273 C1216 1.359 . S
C2265 C571 1.115 . S
C2297 C739 1.174 . S
C2305 C1252 1.675 . S
C2337 C1312 1.208 . S
C2329 C799 1.052 . S
