# Generated by pormake.
# Topology pyr, (3,6)-cn, num edge types: 1
# Building blocks:
#     Node 0, Type 0, BuildingBlock: ESEHIV_clean_linker_0, # of connection points: 3
#     Node 1, Type 0, BuildingBlock: ESEHIV_clean_linker_0, # of connection points: 3
#     Node 2, Type 0, BuildingBlock: ESEHIV_clean_linker_0, # of connection points: 3
#     Node 3, Type 0, BuildingBlock: ESEHIV_clean_linker_0, # of connection points: 3
#     Node 4, Type 0, BuildingBlock: ESEHIV_clean_linker_0, # of connection points: 3
#     Node 5, Type 0, BuildingBlock: ESEHIV_clean_linker_0, # of connection points: 3
#     Node 6, Type 0, BuildingBlock: ESEHIV_clean_linker_0, # of connection points: 3
#     Node 7, Type 0, BuildingBlock: ESEHIV_clean_linker_0, # of connection points: 3
#     Node 8, Type 1, BuildingBlock: PAMTUU_clean_sbu_0, # of connection points: 6
#     Node 9, Type 1, BuildingBlock: PAMTUU_clean_sbu_0, # of connection points: 6
#     Node 10, Type 1, BuildingBlock: PAMTUU_clean_sbu_0, # of connection points: 6
#     Node 11, Type 1, BuildingBlock: PAMTUU_clean_sbu_0, # of connection points: 6
#     Edge 12, Type (0, 1), BuildingBlock: TEMPAE_clean_linker_10, # of connection points: 2
#     Edge 13, Type (0, 1), BuildingBlock: TEMPAE_clean_linker_10, # of connection points: 2
#     Edge 14, Type (0, 1), BuildingBlock: TEMPAE_clean_linker_10, # of connection points: 2
#     Edge 15, Type (0, 1), BuildingBlock: TEMPAE_clean_linker_10, # of connection points: 2
#     Edge 16, Type (0, 1), BuildingBlock: TEMPAE_clean_linker_10, # of connection points: 2
#     Edge 17, Type (0, 1), BuildingBlock: TEMPAE_clean_linker_10, # of connection points: 2
#     Edge 18, Type (0, 1), BuildingBlock: TEMPAE_clean_linker_10, # of connection points: 2
#     Edge 19, Type (0, 1), BuildingBlock: TEMPAE_clean_linker_10, # of connection points: 2
#     Edge 20, Type (0, 1), BuildingBlock: TEMPAE_clean_linker_10, # of connection points: 2
#     Edge 21, Type (0, 1), BuildingBlock: TEMPAE_clean_linker_10, # of connection points: 2
#     Edge 22, Type (0, 1), BuildingBlock: TEMPAE_clean_linker_10, # of connection points: 2
#     Edge 23, Type (0, 1), BuildingBlock: TEMPAE_clean_linker_10, # of connection points: 2
#     Edge 24, Type (0, 1), BuildingBlock: TEMPAE_clean_linker_10, # of connection points: 2
#     Edge 25, Type (0, 1), BuildingBlock: TEMPAE_clean_linker_10, # of connection points: 2
#     Edge 26, Type (0, 1), BuildingBlock: TEMPAE_clean_linker_10, # of connection points: 2
#     Edge 27, Type (0, 1), BuildingBlock: TEMPAE_clean_linker_10, # of connection points: 2
#     Edge 28, Type (0, 1), BuildingBlock: TEMPAE_clean_linker_10, # of connection points: 2
#     Edge 29, Type (0, 1), BuildingBlock: TEMPAE_clean_linker_10, # of connection points: 2
#     Edge 30, Type (0, 1), BuildingBlock: TEMPAE_clean_linker_10, # of connection points: 2
#     Edge 31, Type (0, 1), BuildingBlock: TEMPAE_clean_linker_10, # of connection points: 2
#     Edge 32, Type (0, 1), BuildingBlock: TEMPAE_clean_linker_10, # of connection points: 2
#     Edge 33, Type (0, 1), BuildingBlock: TEMPAE_clean_linker_10, # of connection points: 2
#     Edge 34, Type (0, 1), BuildingBlock: TEMPAE_clean_linker_10, # of connection points: 2
#     Edge 35, Type (0, 1), BuildingBlock: TEMPAE_clean_linker_10, # of connection points: 2
# Relax obj value: 0.126
# Max RMSD: 0.142
# Mean RMSD: 0.057
data_MOF--net-pyr--node1-PAMTUU_clean_sbu_0--node2-ESEHIV_clean_linker_0--edge1-TEMPAE_clean_linker_10
_symmetry_space_group_name_H-M    P1
_symmetry_Int_Tables_number       1
_symmetry_cell_setting            triclinic
loop_
_symmetry_equiv_pos_as_xyz
'x, y, z'
_cell_length_a     36.193863
_cell_length_b     37.485692
_cell_length_c     36.590968
_cell_angle_alpha  90.096591
_cell_angle_beta   89.234955
_cell_angle_gamma 101.30494
loop_
_atom_site_label
_atom_site_type_symbol
_atom_site_fract_x
_atom_site_fract_y
_atom_site_fract_z
_atom_type_partial_charge
H0 H 0.32216 0.31546 0.2661 0.0
H1 H 0.41067 0.25461 0.27205 0.0
H2 H 0.38308 0.29641 0.1688 0.0
C3 C 0.34568 0.30602 0.25338 0.0
C4 C 0.3523 0.31134 0.21561 0.0
C5 C 0.36594 0.28491 0.27385 0.0
C6 C 0.39467 0.27078 0.25647 0.0
C7 C 0.39992 0.27337 0.21845 0.0
C8 C 0.3795 0.29469 0.19823 0.0
H9 H 0.14215 0.81996 0.75265 0.0
H10 H 0.21493 0.74279 0.75027 0.0
H11 H 0.147 0.75365 0.65703 0.0
C12 C 0.15153 0.79751 0.73913 0.0
C13 C 0.13958 0.78768 0.70341 0.0
C14 C 0.17867 0.78142 0.75609 0.0
C15 C 0.193 0.75428 0.73758 0.0
C16 C 0.18229 0.74453 0.70165 0.0
C17 C 0.15507 0.7609 0.68488 0.0
H18 H 0.70194 0.34394 0.9068 0.0
H19 H 0.71074 0.43132 0.82918 0.0
H20 H 0.61821 0.33864 0.82346 0.0
C21 C 0.69099 0.35588 0.88332 0.0
C22 C 0.65792 0.33679 0.86674 0.0
C23 C 0.71032 0.38997 0.87031 0.0
C24 C 0.69607 0.40507 0.83908 0.0
C25 C 0.66231 0.38739 0.82163 0.0
C26 C 0.64347 0.35321 0.83636 0.0
H27 H 0.84293 0.71853 0.41022 0.0
H28 H 0.92524 0.72855 0.32293 0.0
H29 H 0.83538 0.63357 0.33041 0.0
C30 C 0.85428 0.7074 0.38616 0.0
C31 C 0.83518 0.67377 0.3724 0.0
C32 C 0.8869 0.72757 0.36897 0.0
C33 C 0.90044 0.71314 0.33649 0.0
C34 C 0.88225 0.67895 0.32164 0.0
C35 C 0.84944 0.65994 0.34023 0.0
H36 H 0.63848 0.80847 0.79873 0.0
H37 H 0.72502 0.74553 0.80472 0.0
H38 H 0.67196 0.77334 0.90332 0.0
C39 C 0.65433 0.79259 0.81482 0.0
C40 C 0.65044 0.7918 0.8532 0.0
C41 C 0.68188 0.77684 0.79737 0.0
C42 C 0.70306 0.75699 0.81808 0.0
C43 C 0.69947 0.7555 0.85622 0.0
C44 C 0.67278 0.77246 0.87372 0.0
H45 H 0.82498 0.31122 0.30555 0.0
H46 H 0.92141 0.26071 0.29504 0.0
H47 H 0.88444 0.29074 0.40111 0.0
C48 C 0.84927 0.30287 0.31734 0.0
C49 C 0.85396 0.30553 0.35526 0.0
C50 C 0.87291 0.28603 0.29536 0.0
C51 C 0.903 0.2738 0.31174 0.0
C52 C 0.90689 0.27431 0.34994 0.0
C53 C 0.8829 0.29138 0.37156 0.0
H54 H 0.34505 0.7149 0.16448 0.0
H55 H 0.33527 0.62985 0.24468 0.0
H56 H 0.42489 0.72508 0.25169 0.0
C57 C 0.35551 0.70372 0.18867 0.0
C58 C 0.38758 0.72398 0.20587 0.0
C59 C 0.33585 0.67012 0.20263 0.0
C60 C 0.34959 0.65619 0.23478 0.0
C61 C 0.38225 0.67507 0.25317 0.0
C62 C 0.40049 0.70948 0.23828 0.0
H63 H 0.11311 0.3376 0.75185 0.0
H64 H 0.19219 0.34365 0.66223 0.0
H65 H 0.20712 0.42858 0.7431 0.0
C66 C 0.13812 0.35194 0.73773 0.0
C67 C 0.15808 0.38557 0.752 0.0
C68 C 0.15014 0.33663 0.70519 0.0
C69 C 0.18269 0.35541 0.68687 0.0
C70 C 0.20398 0.38825 0.70046 0.0
C71 C 0.19144 0.4029 0.73311 0.0
Tb72 Tb 0.05675 0.03608 0.52057 0.0
Tb73 Tb 0.97307 1.02865 0.55757 0.0
C74 C 0.98952 0.972 0.49709 0.0
C75 C 0.14925 0.07493 0.47887 0.0
C76 C 0.19821 0.13576 0.44886 0.0
C77 C 0.18604 0.10447 0.42765 0.0
C78 C 0.16192 0.07429 0.44258 0.0
C79 C 0.1617 0.10611 0.50031 0.0
C80 C 0.18624 0.13621 0.48544 0.0
C81 C 0.12204 0.04347 0.49324 0.0
O82 O 0.02723 0.06726 0.48477 0.0
O83 O 0.97992 0.0766 0.52386 0.0
O84 O 1.01029 0.0709 0.5899 0.0
O85 O 0.06007 0.08752 0.54974 0.0
O86 O 0.91571 1.02919 0.55163 0.0
O87 O 0.93886 1.022 0.60484 0.0
O88 O 0.99473 0.98206 0.57655 0.0
O89 O 0.05693 1.00861 0.57279 0.0
O90 O 0.02594 0.98241 0.50293 0.0
O91 O 0.96521 0.99081 0.51068 0.0
C92 C 0.99991 0.08418 0.49383 0.0
O93 O 0.11501 0.04308 0.52827 0.0
O94 O 0.09137 0.03367 0.47442 0.0
C95 C 0.04128 0.09379 0.57934 0.0
C96 C 0.87579 0.9932 0.59502 0.0
C97 C 0.81299 0.93898 0.61438 0.0
C98 C 0.8277 0.96686 0.63907 0.0
C99 C 0.85856 0.99373 0.62938 0.0
C100 C 0.8615 0.96544 0.57013 0.0
C101 C 0.83025 0.93856 0.57973 0.0
C102 C 0.90839 1.02208 0.58617 0.0
C103 C 0.02986 0.98281 0.58499 0.0
H104 H 0.19537 0.10329 0.39949 0.0
H105 H 0.15277 0.05056 0.42562 0.0
H106 H 0.15222 0.10747 0.52838 0.0
H107 H 0.19525 0.16007 0.50225 0.0
H108 H 0.81599 0.96753 0.66639 0.0
H109 H 0.86928 1.0148 0.64899 0.0
H110 H 0.87449 0.96444 0.54339 0.0
H111 H 0.81966 0.91751 0.56009 0.0
Tb112 Tb 0.56054 0.03577 0.0568 0.0
Tb113 Tb 0.48165 1.02585 1.0128 0.0
C114 C 0.54202 0.98057 0.99159 0.0
C115 C 0.64936 0.07781 0.10241 0.0
C116 C 0.69977 0.13785 0.13085 0.0
C117 C 0.68392 0.14013 0.09635 0.0
C118 C 0.65861 0.11041 0.08232 0.0
C119 C 0.66527 0.07556 0.13677 0.0
C120 C 0.69016 0.10535 0.15095 0.0
C121 C 0.62332 0.04591 0.08809 0.0
O122 O 0.56382 0.08749 1.02746 0.0
O123 O 0.52247 0.0671 0.98172 0.0
O124 O 0.48403 0.07383 0.04612 0.0
O125 O 0.52506 0.06379 0.09024 0.0
O126 O 0.4523 1.0202 0.96353 0.0
O127 O 0.42355 1.02531 1.01501 0.0
O128 O 0.46971 0.98574 0.05807 0.0
O129 O 0.52988 0.98175 0.07441 0.0
O130 O 0.56727 1.00569 1.00712 0.0
O131 O 0.50595 0.98038 0.99488 0.0
C132 C 0.54964 0.0923 0.99527 0.0
O133 O 0.59115 0.03659 0.10539 0.0
O134 O 0.61935 0.04441 0.05276 0.0
C135 C 0.49929 0.08087 0.07818 0.0
C136 C 0.38863 0.99081 0.9689 0.0
C137 C 0.3292 0.93834 0.94138 0.0
C138 C 0.32387 0.97369 0.94937 0.0
C139 C 0.3534 0.99971 0.96295 0.0
C140 C 0.39365 0.9551 0.96281 0.0
C141 C 0.36411 0.92902 0.94908 0.0
C142 C 0.41995 1.0196 0.97997 0.0
C143 C 0.49319 0.96894 0.07561 0.0
H144 H 0.69077 0.16498 0.08049 0.0
H145 H 0.6464 0.11293 0.05581 0.0
H146 H 0.65849 0.05069 0.15263 0.0
H147 H 0.70236 0.10281 0.17747 0.0
H148 H 0.29714 0.98149 0.94418 0.0
H149 H 0.34903 1.02711 0.96788 0.0
H150 H 0.42068 0.94773 0.96756 0.0
H151 H 0.36917 0.90211 0.94288 0.0
Tb152 Tb 0.52184 0.49193 0.51429 0.0
Tb153 Tb 0.52057 0.56644 0.55941 0.0
C154 C 0.48532 0.55653 0.47919 0.0
C155 C 0.56297 0.42019 0.47119 0.0
C156 C 0.63019 0.39586 0.4546 0.0
C157 C 0.60046 0.39094 0.42955 0.0
C158 C 0.56713 0.40298 0.43782 0.0
C159 C 0.59234 0.42466 0.49657 0.0
C160 C 0.62558 0.41234 0.48844 0.0
C161 C 0.52979 0.43669 0.47766 0.0
O162 O 0.57991 0.52284 0.51127 0.0
O163 O 0.57024 0.58022 0.52334 0.0
O164 O 0.55517 0.53725 0.59393 0.0
O165 O 0.54201 0.48012 0.56872 0.0
O166 O 0.52081 0.62269 0.56008 0.0
O167 O 0.51938 0.59253 0.61013 0.0
O168 O 0.46772 0.53059 0.57579 0.0
O169 O 0.4643 0.48122 0.5375 0.0
O170 O 0.50019 0.52729 0.47451 0.0
O171 O 0.48541 0.57187 0.51168 0.0
C172 C 0.5912 0.55837 0.50958 0.0
O173 O 0.51627 0.43508 0.5109 0.0
O174 O 0.53236 0.46897 0.46374 0.0
C175 C 0.55612 0.50213 0.59541 0.0
C176 C 0.47921 0.63475 0.60608 0.0
C177 C 0.40987 0.65638 0.6191 0.0
C178 C 0.44216 0.68221 0.6092 0.0
C179 C 0.47656 0.67141 0.60254 0.0
C180 C 0.44715 0.60918 0.61694 0.0
C181 C 0.41286 0.61987 0.62331 0.0
C182 C 0.51404 0.62252 0.59508 0.0
C183 C 0.44977 0.49905 0.5634 0.0
H184 H 0.60312 0.378 0.40341 0.0
H185 H 0.54495 0.39965 0.41777 0.0
H186 H 0.58997 0.43848 0.52227 0.0
H187 H 0.64813 0.41676 0.5081 0.0
H188 H 0.44056 0.71055 0.60572 0.0
H189 H 0.50083 0.69149 0.59385 0.0
H190 H 0.44835 0.58073 0.61999 0.0
H191 H 0.38865 0.59955 0.63161 0.0
Tb192 Tb 0.02334 0.56856 1.01623 0.0
Tb193 Tb 0.02108 0.49337 0.06095 0.0
C194 C 0.05798 0.50363 0.9803 0.0
C195 C 0.98755 0.64267 0.97413 0.0
C196 C 0.92021 0.66565 0.95689 0.0
C197 C 0.94831 0.66544 0.93 0.0
C198 C 0.98173 0.6541 0.93859 0.0
C199 C 0.95981 0.64359 1.00123 0.0
C200 C 0.92656 0.65521 0.99273 0.0
C201 C 0.02027 0.62593 0.98157 0.0
O202 O 0.97038 0.53391 0.99888 0.0
O203 O 0.96463 0.48371 0.03634 0.0
O204 O 0.99927 0.52926 0.10043 0.0
O205 O 0.98629 0.57415 0.06313 0.0
O206 O 1.01385 0.43637 0.06411 0.0
O207 O 0.02883 0.46968 0.11157 0.0
O208 O 0.07979 0.52282 0.06482 0.0
O209 O 0.07204 0.58072 0.05279 0.0
O210 O 0.05822 0.53893 0.98194 0.0
O211 O 0.04256 0.48164 1.00674 0.0
C212 C 0.95157 0.50209 1.01028 0.0
O213 O 0.03061 0.6256 1.0155 0.0
O214 O 0.01944 0.59458 0.96596 0.0
C215 C 0.98512 0.55877 0.09558 0.0
C216 C 0.05881 0.42027 0.10408 0.0
C217 C 0.12555 0.39527 0.12008 0.0
C218 C 0.09766 0.39565 0.14723 0.0
C219 C 0.06461 0.40793 0.13925 0.0
C220 C 0.08628 0.41954 0.07672 0.0
C221 C 0.11918 0.40693 0.08458 0.0
C222 C 0.02626 0.43748 0.09741 0.0
C223 C 0.09198 0.55826 0.06665 0.0
H224 H 0.9443 0.67377 0.90224 0.0
H225 H 1.00257 0.65327 0.91723 0.0
H226 H 0.96328 0.63435 1.02876 0.0
H227 H 0.90527 0.65486 1.0139 0.0
H228 H 0.10182 0.38753 0.17502 0.0
H229 H 0.04408 0.40887 0.16087 0.0
H230 H 0.08272 0.42944 0.04944 0.0
H231 H 0.13974 0.40659 0.06288 0.0
C232 C 0.34851 0.23373 0.31821 0.0
C233 C 0.35134 0.27084 0.31036 0.0
C234 C 0.32712 0.21745 0.34795 0.0
C235 C 0.30754 0.2386 0.37026 0.0
C236 C 0.31297 0.27663 0.3647 0.0
C237 C 0.33493 0.29238 0.33476 0.0
C238 C 0.32245 0.17679 0.35311 0.0
C239 C 0.29314 0.3002 0.38836 0.0
C240 C 0.21481 0.18032 0.39823 0.0
C241 C 0.22349 0.16753 0.43234 0.0
C242 C 0.24097 0.20625 0.37911 0.0
C243 C 0.27676 0.2195 0.39446 0.0
C244 C 0.28445 0.20901 0.43027 0.0
C245 C 0.25758 0.18301 0.4489 0.0
C246 C 0.23138 0.2171 0.34117 0.0
C247 C 0.32204 0.22293 0.44773 0.0
H248 H 0.36045 0.2165 0.29948 0.0
H249 H 0.33753 0.32119 0.32934 0.0
H250 H 0.32561 0.17008 0.38225 0.0
H251 H 0.29371 0.16332 0.34475 0.0
H252 H 0.34322 0.1652 0.3366 0.0
H253 H 0.30697 0.32935 0.38642 0.0
H254 H 0.26361 0.29749 0.37924 0.0
H255 H 0.29232 0.29156 0.4174 0.0
H256 H 0.18805 0.16885 0.38584 0.0
H257 H 0.26418 0.17322 0.47543 0.0
H258 H 0.24817 0.20501 0.32066 0.0
H259 H 0.23862 0.24707 0.33786 0.0
H260 H 0.20103 0.20775 0.33506 0.0
H261 H 0.34316 0.20797 0.43634 0.0
H262 H 0.3206 0.21893 0.47783 0.0
H263 H 0.33218 0.25225 0.44173 0.0
C264 C 0.23626 0.80602 0.79161 0.0
C265 C 0.19682 0.79741 0.79004 0.0
C266 C 0.25445 0.82552 0.82103 0.0
C267 C 0.23269 0.83681 0.84962 0.0
C268 C 0.19291 0.82658 0.84926 0.0
C269 C 0.17536 0.80712 0.81927 0.0
C270 C 0.29696 0.83608 0.82021 0.0
C271 C 0.16887 0.83777 0.87955 0.0
C272 C 0.29169 0.87549 0.93047 0.0
C273 C 0.29997 0.9126 0.9215 0.0
C274 C 0.26753 0.8505 0.90869 0.0
C275 C 0.25178 0.86298 0.87711 0.0
C276 C 0.25848 0.90064 0.86909 0.0
C277 C 0.28246 0.92496 0.8914 0.0
C278 C 0.26055 0.81059 0.91834 0.0
C279 C 0.24245 0.91506 0.8355 0.0
H280 H 0.25303 0.79922 0.76883 0.0
H281 H 0.14487 0.80029 0.81821 0.0
H282 H 0.30555 0.86596 0.81659 0.0
H283 H 0.3087 0.82898 0.84645 0.0
H284 H 0.30976 0.82253 0.79766 0.0
H285 H 0.13913 0.82303 0.87813 0.0
H286 H 0.18025 0.8327 0.90664 0.0
H287 H 0.1693 0.86737 0.87754 0.0
H288 H 0.30481 0.86591 0.95401 0.0
H289 H 0.2891 0.95352 0.88404 0.0
H290 H 0.27629 0.79618 0.89891 0.0
H291 H 0.23021 0.79824 0.91594 0.0
H292 H 0.26978 0.80599 0.94649 0.0
H293 H 0.25568 0.90573 0.81064 0.0
H294 H 0.24743 0.94526 0.83506 0.0
H295 H 0.21169 0.90435 0.834 0.0
C296 C 0.67122 0.42459 0.76169 0.0
C297 C 0.64695 0.40459 0.78824 0.0
C298 C 0.65746 0.44067 0.73065 0.0
C299 C 0.61806 0.43749 0.72522 0.0
C300 C 0.59339 0.41752 0.75193 0.0
C301 C 0.6079 0.4014 0.78254 0.0
C302 C 0.68538 0.46095 0.70331 0.0
C303 C 0.5513 0.41328 0.74832 0.0
C304 C 0.58223 0.50624 0.66088 0.0
C305 C 0.57315 0.48627 0.62839 0.0
C306 C 0.59656 0.49095 0.69214 0.0
C307 C 0.60276 0.45454 0.69164 0.0
C308 C 0.59411 0.43445 0.65875 0.0
C309 C 0.57942 0.45024 0.62808 0.0
C310 C 0.60473 0.51385 0.72608 0.0
C311 C 0.60033 0.39592 0.65586 0.0
H312 H 0.70136 0.42723 0.76473 0.0
H313 H 0.58834 0.38671 0.80251 0.0
H314 H 0.6804 0.44822 0.67596 0.0
H315 H 0.68143 0.48945 0.70083 0.0
H316 H 0.71502 0.46123 0.71102 0.0
H317 H 0.53563 0.3976 0.77132 0.0
H318 H 0.54355 0.44047 0.74725 0.0
H319 H 0.54209 0.39919 0.72235 0.0
H320 H 0.57758 0.53391 0.66218 0.0
H321 H 0.57285 0.43407 0.60359 0.0
H322 H 0.6348 0.51655 0.73338 0.0
H323 H 0.58767 0.50028 0.74939 0.0
H324 H 0.59847 0.54148 0.72261 0.0
H325 H 0.63017 0.39513 0.66167 0.0
H326 H 0.59336 0.38401 0.6284 0.0
H327 H 0.58271 0.37859 0.6766 0.0
C328 C 0.93626 0.66822 0.27881 0.0
C329 C 0.89736 0.66256 0.28732 0.0
C330 C 0.95047 0.65204 0.24774 0.0
C331 C 0.92563 0.62902 0.22391 0.0
C332 C 0.88642 0.62341 0.23211 0.0
C333 C 0.87294 0.64017 0.26311 0.0
C334 C 0.99241 0.6594 0.24056 0.0
C335 C 0.85841 0.59933 0.20809 0.0
C336 C 0.95816 0.61033 0.12524 0.0
C337 C 0.96856 0.57609 0.12814 0.0
C338 C 0.94448 0.62769 0.15577 0.0
C339 C 0.9405 0.61073 0.19075 0.0
C340 C 0.95058 0.57601 0.19378 0.0
C341 C 0.96449 0.5594 0.16287 0.0
C342 C 0.93461 0.6646 0.15057 0.0
C343 C 0.94671 0.55626 0.22993 0.0
H344 H 0.95599 0.68481 0.2969 0.0
H345 H 0.84284 0.63577 0.26811 0.0
H346 H 1.00293 0.63355 0.24171 0.0
H347 H 0.9987 0.67078 0.21268 0.0
H348 H 1.00812 0.6787 0.26063 0.0
H349 H 0.82892 0.59721 0.21801 0.0
H350 H 0.86065 0.61012 0.17977 0.0
H351 H 0.86488 0.57161 0.20694 0.0
H352 H 0.96121 0.62403 0.09901 0.0
H353 H 0.9723 0.53312 0.16605 0.0
H354 H 0.95201 0.6847 0.16877 0.0
H355 H 0.90469 0.66358 0.15833 0.0
H356 H 0.93912 0.67438 0.1219 0.0
H357 H 0.96446 0.57294 0.25062 0.0
H358 H 0.9551 0.52935 0.22804 0.0
H359 H 0.91709 0.55216 0.23992 0.0
C360 C 0.41355 0.21127 0.21036 0.0
C361 C 0.42073 0.24799 0.19975 0.0
C362 C 0.43001 0.18561 0.19176 0.0
C363 C 0.45429 0.1968 0.1616 0.0
C364 C 0.46263 0.23399 0.15128 0.0
C365 C 0.44548 0.25919 0.17035 0.0
C366 C 0.41985 0.14618 0.20334 0.0
C367 C 0.48865 0.24689 0.11938 0.0
C368 C 0.51084 0.12727 0.12846 0.0
C369 C 0.48839 0.11062 0.09985 0.0
C370 C 0.50095 0.15642 0.14801 0.0
C371 C 0.46765 0.16877 0.13897 0.0
C372 C 0.44509 0.15219 0.10997 0.0
C373 C 0.45581 0.12348 0.09072 0.0
C374 C 0.52581 0.17369 0.1786 0.0
C375 C 0.40904 0.16416 0.0998 0.0
H376 H 0.39373 0.20218 0.23249 0.0
H377 H 0.45109 0.28752 0.16211 0.0
H378 H 0.40359 0.12991 0.18143 0.0
H379 H 0.4457 0.13505 0.20754 0.0
H380 H 0.40268 0.14241 0.22895 0.0
H381 H 0.49539 0.27703 0.11727 0.0
H382 H 0.51532 0.23674 0.12192 0.0
H383 H 0.47528 0.23573 0.0936 0.0
H384 H 0.53631 0.11778 0.13535 0.0
H385 H 0.43825 0.11077 0.06866 0.0
H386 H 0.51032 0.1687 0.20505 0.0
H387 H 0.53329 0.20359 0.17467 0.0
H388 H 0.55217 0.16283 0.18039 0.0
H389 H 0.38874 0.15931 0.1231 0.0
H390 H 0.39555 0.14945 0.07555 0.0
H391 H 0.41472 0.19376 0.09391 0.0
C392 C 0.08666 0.8222 0.70358 0.0
C393 C 0.11518 0.80927 0.6843 0.0
C394 C 0.06831 0.84813 0.68816 0.0
C395 C 0.07808 0.86083 0.65226 0.0
C396 C 0.10465 0.84581 0.63161 0.0
C397 C 0.12316 0.82051 0.64798 0.0
C398 C 0.0403 0.86363 0.71116 0.0
C399 C 0.11524 0.85808 0.59293 0.0
C400 C 1.018 0.91708 0.60209 0.0
C401 C 0.03988 0.95219 0.60534 0.0
C402 C 0.0297 0.88697 0.61766 0.0
C403 C 0.0636 0.89236 0.63759 0.0
C404 C 0.08489 0.92801 0.64224 0.0
C405 C 0.07301 0.95744 0.62565 0.0
C406 C 1.00669 0.84934 0.61144 0.0
C407 C 0.12079 0.93499 0.66397 0.0
H408 H 0.07971 0.81312 0.73138 0.0
H409 H 0.14536 0.81113 0.63284 0.0
H410 H 0.05239 0.89238 0.71794 0.0
H411 H 1.01408 0.86346 0.69577 0.0
H412 H 0.03297 0.84832 0.73707 0.0
H413 H 0.13246 0.84046 0.57906 0.0
H414 H 0.08961 0.8581 0.57664 0.0
H415 H 0.13171 0.88636 0.5932 0.0
H416 H 0.9926 0.9129 0.58597 0.0
H417 H 0.08987 0.9846 0.6283 0.0
H418 H 1.00029 0.83472 0.6378 0.0
H419 H 0.02321 0.83338 0.59443 0.0
H420 H 0.97978 0.85 0.59745 0.0
H421 H 0.11556 0.92255 0.69152 0.0
H422 H 0.13253 0.9645 0.66718 0.0
H423 H 0.1423 0.92214 0.65012 0.0
C424 C 0.78018 0.41988 0.87222 0.0
C425 C 0.74516 0.40931 0.89024 0.0
C426 C 0.81347 0.4349 0.89157 0.0
C427 C 0.81208 0.44067 0.93002 0.0
C428 C 0.77649 0.43099 0.94805 0.0
C429 C 0.74395 0.41509 0.92825 0.0
C430 C 0.85046 0.44374 0.8709 0.0
C431 C 0.7727 0.43739 0.98853 0.0
C432 C 0.90167 0.44838 0.98893 0.0
C433 C 0.91479 0.48621 0.99161 0.0
C434 C 0.86896 0.43336 0.96879 0.0
C435 C 0.8476 0.45644 0.95138 0.0
C436 C 0.86025 0.49467 0.9548 0.0
C437 C 0.89364 0.50892 0.97417 0.0
C438 C 0.85765 0.39258 0.9655 0.0
C439 C 0.83838 0.52074 0.93802 0.0
H440 H 0.7818 0.41526 0.84305 0.0
H441 H 0.71721 0.40722 0.94262 0.0
H442 H 0.86311 0.47301 0.87395 0.0
H443 H 0.87057 0.42807 0.88251 0.0
H444 H 0.84723 0.43737 0.84132 0.0
H445 H 0.74296 0.43045 0.99828 0.0
H446 H 0.78937 0.42072 1.00392 0.0
H447 H 0.78418 0.46633 0.99507 0.0
H448 H 0.91772 0.43034 1.00167 0.0
H449 H 0.90311 0.53815 0.97587 0.0
H450 H 0.85642 0.38466 0.93623 0.0
H451 H 0.82907 0.38317 0.97739 0.0
H452 H 0.87755 0.37822 0.97952 0.0
H453 H 0.83754 0.51724 0.90793 0.0
H454 H 0.85082 0.54959 0.94423 0.0
H455 H 0.80882 0.51471 0.94828 0.0
C456 C 0.76734 0.63842 0.37313 0.0
C457 C 0.80023 0.65356 0.39215 0.0
C458 C 0.73369 0.62202 0.39178 0.0
C459 C 0.7326 0.62 0.4306 0.0
C460 C 0.76605 0.63431 0.44983 0.0
C461 C 0.79908 0.65095 0.43056 0.0
C462 C 0.69893 0.60763 0.36988 0.0
C463 C 0.76687 0.63243 0.491 0.0
C464 C 0.63788 0.61162 0.48256 0.0
C465 C 0.62807 0.57421 0.49053 0.0
C466 C 0.67134 0.62663 0.46301 0.0
C467 C 0.69639 0.60401 0.45116 0.0
C468 C 0.68687 0.56627 0.45944 0.0
C469 C 0.65298 0.5519 0.47868 0.0
C470 C 0.67972 0.66686 0.45473 0.0
C471 C 0.71256 0.54094 0.44798 0.0
H472 H 0.76753 0.64042 0.34358 0.0
H473 H 0.82424 0.66203 0.44573 0.0
H474 H 0.6881 0.57857 0.37649 0.0
H475 H 0.67639 0.62269 0.37728 0.0
H476 H 0.70439 0.61026 0.33996 0.0
H477 H 0.79538 0.64317 0.50193 0.0
H478 H 0.74691 0.64837 0.50297 0.0
H479 H 0.7576 0.60387 0.50026 0.0
H480 H 0.61903 0.62931 0.49111 0.0
H481 H 0.64601 0.52298 0.48443 0.0
H482 H 0.68279 0.67124 0.42477 0.0
H483 H 0.70684 0.67982 0.46716 0.0
H484 H 0.65729 0.68078 0.46516 0.0
H485 H 0.71635 0.54161 0.41784 0.0
H486 H 0.70149 0.5124 0.45659 0.0
H487 H 0.74082 0.55012 0.46001 0.0
C488 C 0.31013 0.31366 0.16198 0.0
C489 C 0.32631 0.32938 0.19432 0.0
C490 C 0.28031 0.32639 0.14554 0.0
C491 C 0.26598 0.35511 0.16215 0.0
C492 C 0.28377 0.37258 0.19341 0.0
C493 C 0.31393 0.35973 0.20887 0.0
C494 C 0.26263 0.30758 0.11174 0.0
C495 C 0.26931 0.40319 0.21208 0.0
C496 C 0.19601 0.4022 0.11429 0.0
C497 C 0.16153 0.38379 0.12917 0.0
C498 C 0.23021 0.39254 0.12388 0.0
C499 C 0.23004 0.36423 0.14945 0.0
C500 C 0.19536 0.34526 0.16421 0.0
C501 C 0.16158 0.35504 0.15365 0.0
C502 C 0.26657 0.41306 0.1072 0.0
C503 C 0.19395 0.31505 0.19178 0.0
H504 H 0.31917 0.29001 0.15063 0.0
H505 H 0.32672 0.37241 0.2335 0.0
H506 H 0.23479 0.29067 0.11899 0.0
H507 H 0.25783 0.32783 0.09115 0.0
H508 H 0.28038 0.28969 0.09914 0.0
H509 H 0.28833 0.41605 0.23402 0.0
H510 H 0.26593 0.4244 0.19201 0.0
H511 H 0.24112 0.3925 0.22438 0.0
H512 H 0.19642 0.42479 0.09575 0.0
H513 H 0.13513 0.34016 0.16476 0.0
H514 H 0.28298 0.39375 0.09517 0.0
H515 H 0.28413 0.42862 0.12871 0.0
H516 H 0.26166 0.43236 0.08561 0.0
H517 H 0.20721 0.29323 0.18006 0.0
H518 H 0.16468 0.30291 0.20053 0.0
H519 H 0.21022 0.32566 0.21631 0.0
C520 C 0.6612 0.27261 0.88723 0.0
C521 C 0.63956 0.29951 0.88164 0.0
C522 C 0.64581 0.23861 0.90373 0.0
C523 C 0.60772 0.23086 0.91624 0.0
C524 C 0.58558 0.25781 0.9104 0.0
C525 C 0.60149 0.29133 0.8929 0.0
C526 C 0.67068 0.21101 0.90814 0.0
C527 C 0.54525 0.25172 0.92376 0.0
C528 C 0.55869 0.13092 0.93686 0.0
C529 C 0.56398 0.12764 0.97469 0.0
C530 C 0.57266 0.16391 0.91763 0.0
C531 C 0.59176 0.1953 0.93647 0.0
C532 C 0.59651 0.19224 0.97478 0.0
C533 C 0.58315 0.15874 0.99311 0.0
C534 C 0.56752 0.16496 0.87684 0.0
C535 C 0.61574 0.22459 0.99667 0.0
H536 H 0.69055 0.27826 0.87866 0.0
H537 H 0.58444 0.31178 0.88927 0.0
H538 H 0.67499 0.20648 0.93759 0.0
H539 H 0.65686 0.18451 0.89637 0.0
H540 H 0.69869 0.21979 0.8947 0.0
H541 H 0.53137 0.27468 0.91667 0.0
H542 H 0.52886 0.22636 0.91185 0.0
H543 H 0.54425 0.24826 0.9539 0.0
H544 H 0.54417 0.10739 0.922 0.0
H545 H 0.58735 0.1571 1.02229 0.0
H546 H 0.59543 0.1722 0.86295 0.0
H547 H 0.55148 0.18629 0.86978 0.0
H548 H 0.55242 0.1385 0.86593 0.0
H549 H 0.64539 0.23316 0.98722 0.0
H550 H 0.61558 0.21864 1.02641 0.0
H551 H 0.60157 0.24792 0.99233 0.0
C552 C 0.9096 0.76707 0.42406 0.0
C553 C 0.90585 0.76362 0.38583 0.0
C554 C 0.92388 0.80086 0.44106 0.0
C555 C 0.9349 0.83287 0.41973 0.0
C556 C 0.93201 0.82955 0.38104 0.0
C557 C 0.9178 0.79522 0.36466 0.0
C558 C 0.9267 0.8023 0.48218 0.0
C559 C 0.94318 0.86255 0.35688 0.0
C560 C 0.93703 0.92505 0.46849 0.0
C561 C 0.97553 0.93713 0.47601 0.0
C562 C 0.92366 0.8919 0.44975 0.0
C563 C 0.9491 0.86953 0.43806 0.0
C564 C 0.988 0.8817 0.44537 0.0
C565 C 1.00062 0.91502 0.46398 0.0
C566 C 0.88202 0.88057 0.44281 0.0
C567 C 1.01644 0.85913 0.43404 0.0
H568 H 0.90113 0.74309 0.44098 0.0
H569 H 0.91492 0.79338 0.33525 0.0
H570 H 0.95608 0.81384 0.49019 0.0
H571 H 0.9086 0.82049 0.49343 0.0
H572 H 0.91801 0.77504 0.49499 0.0
H573 H 0.94031 0.85565 0.32739 0.0
H574 H 0.92529 0.88264 0.36349 0.0
H575 H 0.9728 0.8759 0.36208 0.0
H576 H 0.91708 0.94145 0.47747 0.0
H577 H 0.03038 0.92353 0.4695 0.0
H578 H 0.87071 0.85462 0.4572 0.0
H579 H 0.87714 0.87568 0.41319 0.0
H580 H 0.86595 0.90134 0.45219 0.0
H581 H 1.01001 0.83241 0.44815 0.0
H582 H 0.04575 0.87263 0.44053 0.0
H583 H 1.0147 0.85369 0.40424 0.0
C584 C 0.21613 0.69259 0.69702 0.0
C585 C 0.20492 0.72241 0.68049 0.0
C586 C 0.24627 0.67831 0.68267 0.0
C587 C 0.26519 0.69389 0.65069 0.0
C588 C 0.25128 0.72125 0.63167 0.0
C589 C 0.22135 0.73536 0.64691 0.0
C590 C 0.26007 0.64898 0.70374 0.0
C591 C 0.27012 0.73798 0.59702 0.0
C592 C 0.37057 0.69708 0.64753 0.0
C593 C 0.37305 0.66721 0.62529 0.0
C594 C 0.33561 0.70628 0.6555 0.0
C595 C 0.30239 0.68537 0.64043 0.0
C596 C 0.30485 0.6558 0.61706 0.0
C597 C 0.34018 0.6469 0.60997 0.0
C598 C 0.33413 0.73783 0.68087 0.0
C599 C 0.27019 0.63331 0.60001 0.0
H600 H 0.20308 0.68215 0.7227 0.0
H601 H 0.21298 0.7585 0.63401 0.0
H602 H 0.2658 0.62728 0.68513 0.0
H603 H 0.28693 0.66094 0.71725 0.0
H604 H 0.23947 0.63648 0.72509 0.0
H605 H 0.25207 0.75376 0.58216 0.0
H606 H 0.29688 0.75665 0.6039 0.0
H607 H 0.27718 0.71672 0.57854 0.0
H608 H 0.39589 0.71259 0.65963 0.0
H609 H 0.34214 0.624 0.5924 0.0
H610 H 0.31675 0.72809 0.70542 0.0
H611 H 0.32059 0.75817 0.66708 0.0
H612 H 0.36256 0.75157 0.6899 0.0
H613 H 0.2512 0.61902 0.62166 0.0
H614 H 0.27722 0.61273 0.5806 0.0
H615 H 0.25431 0.65119 0.58526 0.0
C616 C 0.73355 0.80688 0.75657 0.0
C617 C 0.6957 0.78973 0.76053 0.0
C618 C 0.74675 0.82597 0.72479 0.0
C619 C 0.72162 0.82736 0.69571 0.0
C620 C 0.68401 0.80768 0.69834 0.0
C621 C 0.6712 0.78964 0.73117 0.0
C622 C 0.78696 0.84701 0.72368 0.0
C623 C 0.65664 0.80705 0.66753 0.0
C624 C 0.75337 0.9175 0.64995 0.0
C625 C 0.78154 0.90943 0.62644 0.0
C626 C 0.73004 0.89005 0.67005 0.0
C627 C 0.73422 0.85354 0.66555 0.0
C628 C 0.75822 0.84471 0.63757 0.0
C629 C 0.78222 0.87286 0.61868 0.0
C630 C 0.70429 0.9007 0.69916 0.0
C631 C 0.76135 0.80581 0.63021 0.0
H632 H 0.75241 0.80754 0.77945 0.0
H633 H 0.64191 0.77632 0.73423 0.0
H634 H 0.80218 0.83884 0.69956 0.0
H635 H 0.78717 0.87656 0.72115 0.0
H636 H 0.8028 0.84265 0.74855 0.0
H637 H 0.63619 0.78074 0.66703 0.0
H638 H 0.64031 0.82888 0.67184 0.0
H639 H 0.67119 0.81137 0.64055 0.0
H640 H 0.75148 0.94563 0.65477 0.0
H641 H 0.80335 0.86615 0.60003 0.0
H642 H 0.71546 0.89639 0.72657 0.0
H643 H 0.67578 0.88343 0.69738 0.0
H644 H 0.70172 0.92966 0.69688 0.0
H645 H 0.78045 0.79715 0.65038 0.0
H646 H 0.773 0.80266 0.60241 0.0
H647 H 0.73342 0.7874 0.63304 0.0
C648 C 0.86075 0.23739 0.24794 0.0
C649 C 0.86033 0.27345 0.25811 0.0
C650 C 0.83891 0.22087 0.21903 0.0
C651 C 0.81572 0.24073 0.2001 0.0
C652 C 0.81877 0.27831 0.20709 0.0
C653 C 0.84126 0.29435 0.23601 0.0
C654 C 0.83716 0.18087 0.21192 0.0
C655 C 0.79528 0.30066 0.18679 0.0
C656 C 0.75851 0.18575 0.12587 0.0
C657 C 0.72671 0.16888 0.14612 0.0
C658 C 0.78696 0.21147 0.14224 0.0
C659 C 0.78325 0.22029 0.17956 0.0
C660 C 0.7498 0.20528 0.19919 0.0
C661 C 0.72201 0.17968 0.18221 0.0
C662 C 0.82195 0.22715 0.1203 0.0
C663 C 0.74438 0.21435 0.23892 0.0
H664 H 0.87514 0.22072 0.26466 0.0
H665 H 0.8416 0.32252 0.24301 0.0
H666 H 0.81049 0.165 0.22358 0.0
H667 H 0.8374 0.17528 0.18216 0.0
H668 H 0.86105 0.17099 0.22453 0.0
H669 H 0.80727 0.33023 0.1888 0.0
H670 H 0.7929 0.29286 0.15753 0.0
H671 H 0.76641 0.29568 0.1988 0.0
H672 H 0.76209 0.17741 0.09787 0.0
H673 H 0.69703 0.1671 0.19759 0.0
H674 H 0.84444 0.2119 0.12664 0.0
H675 H 0.83258 0.2561 0.12736 0.0
H676 H 0.81671 0.225 0.09046 0.0
H677 H 0.7647 0.20321 0.25584 0.0
H678 H 0.71544 0.20293 0.24914 0.0
H679 H 0.74998 0.24425 0.24293 0.0
C680 C 0.43599 0.66524 0.2959 0.0
C681 C 0.39725 0.65844 0.28729 0.0
C682 C 0.45018 0.64924 0.3268 0.0
C683 C 0.42557 0.62514 0.35054 0.0
C684 C 0.38651 0.61825 0.3422 0.0
C685 C 0.37303 0.63484 0.31135 0.0
C686 C 0.49192 0.65806 0.33392 0.0
C687 C 0.35864 0.59303 0.366 0.0
C688 C 0.46632 0.55707 0.41158 0.0
C689 C 0.46889 0.57346 0.44648 0.0
C690 C 0.45232 0.57322 0.3807 0.0
C691 C 0.44051 0.60722 0.38378 0.0
C692 C 0.44301 0.62388 0.41893 0.0
C693 C 0.45683 0.607 0.44942 0.0
C694 C 0.45022 0.55372 0.34449 0.0
C695 C 0.4313 0.66 0.42437 0.0
H696 H 0.45573 0.68269 0.27802 0.0
H697 H 0.34304 0.62938 0.30643 0.0
H698 H 0.49706 0.66941 0.36183 0.0
H699 H 0.50358 0.63282 0.33265 0.0
H700 H 0.50749 0.6779 0.3139 0.0
H701 H 0.32933 0.58978 0.35599 0.0
H702 H 0.36637 0.56583 0.36703 0.0
H703 H 0.35954 0.60358 0.39438 0.0
H704 H 0.47538 0.53136 0.40824 0.0
H705 H 0.45859 0.62052 0.47571 0.0
H706 H 0.46793 0.57109 0.32384 0.0
H707 H 0.42083 0.54854 0.33452 0.0
H708 H 0.45977 0.52737 0.34625 0.0
H709 H 0.4483 0.68073 0.40612 0.0
H710 H 0.43484 0.66973 0.45304 0.0
H711 H 0.40135 0.65776 0.41682 0.0
C712 C 0.10519 0.40137 0.7927 0.0
C713 C 0.14396 0.4029 0.78606 0.0
C714 C 0.09172 0.41812 0.82374 0.0
C715 C 0.11726 0.437 0.84973 0.0
C716 C 0.15639 0.43845 0.84336 0.0
C717 C 0.16912 0.42174 0.81193 0.0
C718 C 0.04986 0.41579 0.82857 0.0
C719 C 0.18504 0.45758 0.87004 0.0
C720 C 0.08485 0.5074 0.91482 0.0
C721 C 0.07483 0.48741 0.94727 0.0
C722 C 0.09858 0.49158 0.88327 0.0
C723 C 0.10307 0.45468 0.8836 0.0
C724 C 0.09359 0.4346 0.91648 0.0
C725 C 0.07956 0.45093 0.94743 0.0
C726 C 0.10784 0.51439 0.84924 0.0
C727 C 0.09805 0.3955 0.91897 0.0
H728 H 0.08511 0.38759 0.77312 0.0
H729 H 0.19906 0.42304 0.80795 0.0
H730 H 0.04012 0.40206 0.85478 0.0
H731 H 0.04352 0.44355 0.82987 0.0
H732 H 0.0335 0.40065 0.806 0.0
H733 H 0.21438 0.4565 0.86153 0.0
H734 H 0.18255 0.4865 0.87273 0.0
H735 H 0.17949 0.44497 0.89748 0.0
H736 H 0.08132 0.53542 0.91376 0.0
H737 H 0.07219 0.43483 0.97198 0.0
H738 H 0.09016 0.50165 0.82636 0.0
H739 H 0.13768 0.5156 0.84104 0.0
H740 H 0.10318 0.54258 0.85308 0.0
H741 H 0.0797 0.3788 0.89871 0.0
H742 H 0.09074 0.38375 0.94659 0.0
H743 H 0.12753 0.39344 0.91222 0.0
C744 C 0.60868 0.80605 0.90471 0.0
C745 C 0.62836 0.81634 0.87188 0.0
C746 C 0.59135 0.83075 0.92432 0.0
C747 C 0.59349 0.86641 0.91057 0.0
C748 C 0.61197 0.87646 0.87678 0.0
C749 C 0.62949 0.85153 0.85812 0.0
C750 C 0.5721 0.81916 0.96042 0.0
C751 C 0.61473 0.91415 0.86105 0.0
C752 C 0.53004 0.92803 0.94794 0.0
C753 C 0.55475 0.9511 0.97091 0.0
C754 C 0.54196 0.89982 0.92856 0.0
C755 C 0.57929 0.89434 0.93268 0.0
C756 C 0.60407 0.91709 0.9564 0.0
C757 C 0.59159 0.94531 0.97501 0.0
C758 C 0.51493 0.87642 0.90312 0.0
C759 C 0.644 0.9119 0.96182 0.0
H760 H 0.60744 0.77891 0.91544 0.0
H761 H 0.64544 0.86033 0.83339 0.0
H762 H 0.58788 0.83503 0.98286 0.0
H763 H 0.54321 0.82499 0.96097 0.0
H764 H 0.57035 0.78975 0.96597 0.0
H765 H 0.6268 0.9165 0.83288 0.0
H766 H 0.5865 0.92149 0.86052 0.0
H767 H 0.63286 0.93433 0.87862 0.0
H768 H 0.50149 0.93228 0.94469 0.0
H769 H 0.61073 0.96269 0.99308 0.0
H770 H 0.51257 0.84726 0.91006 0.0
H771 H 0.52585 0.88016 0.87462 0.0
H772 H 0.48635 0.8831 0.90427 0.0
H773 H 0.644 0.88347 0.97021 0.0
H774 H 0.65899 0.93057 0.9828 0.0
H775 H 0.66005 0.91678 0.93567 0.0
C776 C 0.92816 0.21503 0.35381 0.0
C777 C 0.93012 0.25049 0.3672 0.0
C778 C 0.94505 0.18988 0.37226 0.0
C779 C 0.96434 0.20026 0.40511 0.0
C780 C 0.96837 0.23657 0.41774 0.0
C781 C 0.95096 0.26126 0.39874 0.0
C782 C 0.93961 0.15136 0.35803 0.0
C783 C 0.98913 0.24873 0.45247 0.0
C784 C 0.95687 0.12475 0.47486 0.0
C785 C 0.99156 0.11377 0.47055 0.0
C786 C 0.94816 0.15329 0.45421 0.0
C787 C 0.97494 0.17171 0.42872 0.0
C788 C 1.01025 0.16115 0.42442 0.0
C789 C 1.01808 0.13204 0.44525 0.0
C790 C 0.90991 0.16326 0.45927 0.0
C791 C 0.03957 0.18046 0.39774 0.0
H792 H 0.91146 0.2061 0.32993 0.0
H793 H 0.95275 0.28865 0.40909 0.0
H794 H 0.96668 0.1417 0.35775 0.0
H795 H 0.91985 0.13304 0.37641 0.0
H796 H 0.92797 0.14883 0.32999 0.0
H797 H 0.99485 0.2788 0.45549 0.0
H798 H 0.97198 0.2366 0.47634 0.0
H799 H 1.01625 0.23917 0.45315 0.0
H800 H 0.93612 0.1107 0.49423 0.0
H801 H 0.0451 0.12394 0.4421 0.0
H802 H 0.89426 0.15923 0.43324 0.0
H803 H 0.91319 0.1924 0.4667 0.0
H804 H 0.89264 0.14672 0.48083 0.0
H805 H 0.02882 0.17651 0.36948 0.0
H806 H 0.06643 0.17043 0.39921 0.0
H807 H 0.04538 0.21015 0.4032 0.0
C808 C 0.26762 0.63486 0.2024 0.0
C809 C 0.30088 0.65015 0.18312 0.0
C810 C 0.234 0.61892 0.18405 0.0
C811 C 0.23318 0.61744 0.14519 0.0
C812 C 0.267 0.63185 0.12567 0.0
C813 C 0.29998 0.64805 0.14465 0.0
C814 C 0.19895 0.60449 0.20638 0.0
C815 C 0.26831 0.63058 0.08447 0.0
C816 C 0.15316 0.55061 0.09706 0.0
C817 C 0.1287 0.57337 0.08582 0.0
C818 C 0.18695 0.56438 0.11607 0.0
C819 C 0.19691 0.602 0.1249 0.0
C820 C 0.17225 0.62503 0.11375 0.0
C821 C 0.13894 0.61064 0.09436 0.0
C822 C 0.21213 0.53853 0.12663 0.0
C823 C 0.18091 0.66511 0.1226 0.0
H824 H 0.26746 0.63641 0.23197 0.0
H825 H 0.32533 0.65918 0.12915 0.0
H826 H 0.17668 0.61989 0.19968 0.0
H827 H 0.18794 0.57557 0.19946 0.0
H828 H 0.20413 0.60661 0.23623 0.0
H829 H 0.29701 0.64117 0.07322 0.0
H830 H 0.25881 0.6022 0.07489 0.0
H831 H 0.24873 0.64696 0.07312 0.0
H832 H 0.14596 0.52181 0.09092 0.0
H833 H 0.12052 0.62874 0.08633 0.0
H834 H 0.2155 0.53864 0.15672 0.0
H835 H 0.2406 0.54763 0.11432 0.0
H836 H 0.20087 0.51019 0.11766 0.0
H837 H 0.18376 0.669 0.15258 0.0
H838 H 0.15873 0.6794 0.11291 0.0
H839 H 0.2082 0.67806 0.10982 0.0
C840 C 0.23958 0.41042 0.6418 0.0
C841 C 0.23933 0.40672 0.68011 0.0
C842 C 0.27273 0.42584 0.62197 0.0
C843 C 0.30726 0.43747 0.64044 0.0
C844 C 0.30715 0.43404 0.67915 0.0
C845 C 0.27337 0.41915 0.69842 0.0
C846 C 0.2707 0.42986 0.58106 0.0
C847 C 0.34302 0.44556 0.70027 0.0
C848 C 0.40032 0.44514 0.58521 0.0
C849 C 0.41212 0.48292 0.58072 0.0
C850 C 0.36667 0.43012 0.60463 0.0
C851 C 0.34327 0.45316 0.61932 0.0
C852 C 0.35449 0.49127 0.61371 0.0
C853 C 0.38878 0.50557 0.59517 0.0
C854 C 0.35658 0.38949 0.61017 0.0
C855 C 0.33055 0.51724 0.62772 0.0
H856 H 0.21356 0.40141 0.6272 0.0
H857 H 0.27386 0.41625 0.72786 0.0
H858 H 0.2807 0.45875 0.57318 0.0
H859 H 0.28954 0.41383 0.56729 0.0
H860 H 0.24167 0.42064 0.57074 0.0
H861 H 0.33872 0.44044 0.73007 0.0
H862 H 0.36471 0.43063 0.69007 0.0
H863 H 0.3543 0.47497 0.69595 0.0
H864 H 0.41811 0.42728 0.57463 0.0
H865 H 0.39723 0.53474 0.59176 0.0
H866 H 0.32862 0.37854 0.59829 0.0
H867 H 0.35449 0.3832 0.63985 0.0
H868 H 0.37766 0.37519 0.5975 0.0
H869 H 0.30036 0.50687 0.62181 0.0
H870 H 0.33912 0.54474 0.61543 0.0
H871 H 0.33332 0.51983 0.6578 0.0
C872 C 0.76668 0.75836 0.87057 0.0
C873 C 0.72883 0.74255 0.87729 0.0
C874 C 0.7957 0.74508 0.88741 0.0
C875 C 0.78666 0.71507 0.91151 0.0
C876 C 0.74838 0.69981 0.91954 0.0
C877 C 0.71975 0.71393 0.90238 0.0
C878 C 0.83608 0.76242 0.87835 0.0
C879 C 0.73776 0.66779 0.9451 0.0
C880 C 0.86496 0.66159 0.91582 0.0
C881 C 0.88404 0.67595 0.94726 0.0
C882 C 0.83185 0.67252 0.90508 0.0
C883 C 0.81763 0.69866 0.92617 0.0
C884 C 0.83588 0.71211 0.9588 0.0
C885 C 0.86887 0.70049 0.96904 0.0
C886 C 0.81304 0.65728 0.87026 0.0
C887 C 0.82168 0.74013 0.98189 0.0
H888 H 0.77358 0.78091 0.85153 0.0
H889 H 0.6904 0.70186 0.90755 0.0
H890 H 0.85193 0.7704 0.90378 0.0
H891 H 0.85004 0.74251 0.86389 0.0
H892 H 0.83822 0.7869 0.86076 0.0
H893 H 0.70699 0.66119 0.95099 0.0
H894 H 0.7463 0.64355 0.93272 0.0
H895 H 0.75296 0.67334 0.97125 0.0
H896 H 0.87621 0.64201 0.89937 0.0
H897 H 0.88358 0.71164 0.99337 0.0
H898 H 0.81618 0.67907 0.84931 0.0
H899 H 0.78243 0.64739 0.87511 0.0
H900 H 0.82534 0.63454 0.85909 0.0
H901 H 0.82631 0.76642 0.96698 0.0
H902 H 0.83626 0.74455 1.00852 0.0
H903 H 0.79094 0.73176 0.9871 0.0
C904 C 0.41616 0.76254 0.1514 0.0
C905 C 0.40678 0.76017 0.18896 0.0
C906 C 0.4309 0.79623 0.13394 0.0
C907 C 0.43591 0.82937 0.15391 0.0
C908 C 0.42675 0.82717 0.19196 0.0
C909 C 0.4128 0.79289 0.20896 0.0
C910 C 0.44082 0.79631 0.09376 0.0
C911 C 0.43077 0.86128 0.21466 0.0
C912 C 0.50284 0.91458 0.11405 0.0
C913 C 0.47819 0.93379 0.09658 0.0
C914 C 0.48961 0.88125 0.13286 0.0
C915 C 0.45044 0.86598 0.13489 0.0
C916 C 0.42535 0.88538 0.11761 0.0
C917 C 0.43936 0.91861 0.09881 0.0
C918 C 0.51787 0.86204 0.15022 0.0
C919 C 0.38344 0.87085 0.11878 0.0
H920 H 0.41181 0.73772 0.13543 0.0
H921 H 0.4053 0.79184 0.23776 0.0
H922 H 0.4229 0.81175 0.07838 0.0
H923 H 0.47055 0.8102 0.08925 0.0
H924 H 0.43702 0.7684 0.08228 0.0
H925 H 0.42291 0.85538 0.24379 0.0
H926 H 0.46024 0.87664 0.21317 0.0
H927 H 0.41258 0.8792 0.20354 0.0
H928 H 0.53286 0.92543 0.11279 0.0
H929 H 0.41968 0.93265 0.08563 0.0
H930 H 0.51595 0.83474 0.13777 0.0
H931 H 0.5114 0.85788 0.17981 0.0
H932 H 0.54725 0.87742 0.14696 0.0
H933 H 0.37697 0.84406 0.10489 0.0
H934 H 0.36736 0.88946 0.10538 0.0
H935 H 0.37352 0.86652 0.14755 0.0
C936 C 0.12572 0.26822 0.70944 0.0
C937 C 0.12947 0.30089 0.68967 0.0
C938 C 0.11045 0.23407 0.69335 0.0
C939 C 0.09751 0.23217 0.6567 0.0
C940 C 0.10003 0.26533 0.63717 0.0
C941 C 0.11638 0.29891 0.65355 0.0
C942 C 0.10949 0.19983 0.71522 0.0
C943 C 0.08592 0.26536 0.59855 0.0
C944 C 0.09366 0.14568 0.59823 0.0
C945 C 0.05554 0.12824 0.60072 0.0
C946 C 0.10766 0.1786 0.61691 0.0
C947 C 0.083 0.19572 0.6382 0.0
C948 C 0.04441 0.17829 0.64078 0.0
C949 C 0.03134 0.14476 0.62256 0.0
C950 C 0.14909 0.19514 0.61371 0.0
C951 C 1.0166 0.19558 0.6621 0.0
H952 H 0.13617 0.26922 0.73712 0.0
H953 H 0.11914 0.32385 0.63791 0.0
H954 H 0.08043 0.1835 0.71642 0.0
H955 H 0.1275 0.18286 0.70156 0.0
H956 H 0.11955 0.20566 0.74356 0.0
H957 H 0.08679 0.29332 0.58811 0.0
H958 H 0.1034 0.25166 0.58018 0.0
H959 H 0.05652 0.24984 0.59714 0.0
H960 H 0.11288 0.13338 0.58172 0.0
H961 H 1.0018 0.132 0.62459 0.0
H962 H 0.16142 0.19982 0.64133 0.0
H963 H 0.15292 0.22198 0.59995 0.0
H964 H 0.16505 0.17763 0.59798 0.0
H965 H 0.02561 0.19985 0.69088 0.0
H966 H 0.98767 0.1788 0.66178 0.0
H967 H 1.01584 0.22273 0.65042 0.0
C968 C 0.83201 0.34931 0.39838 0.0
C969 C 0.82428 0.31738 0.37764 0.0
C970 C 0.80257 0.36312 0.41523 0.0
C971 C 0.76483 0.34426 0.41133 0.0
C972 C 0.75734 0.3109 0.39205 0.0
C973 C 0.78716 0.29798 0.37533 0.0
C974 C 0.81162 0.39878 0.43551 0.0
C975 C 0.71764 0.28972 0.38749 0.0
C976 C 0.68348 0.36458 0.46938 0.0
C977 C 0.66623 0.38472 0.44485 0.0
C978 C 0.71651 0.35229 0.45944 0.0
C979 C 0.73272 0.36064 0.42429 0.0
C980 C 0.71618 0.38219 0.40002 0.0
C981 C 0.68308 0.39382 0.41054 0.0
C982 C 0.73316 0.32919 0.48596 0.0
C983 C 0.73276 0.392 0.36241 0.0
H984 H 0.8608 0.36426 0.39999 0.0
H985 H 0.78137 0.27312 0.3594 0.0
H986 H 0.80112 0.42001 0.41987 0.0
H987 H 0.79719 0.39643 0.46259 0.0
H988 H 0.84239 0.40794 0.43955 0.0
H989 H 0.71697 0.26279 0.37451 0.0
H990 H 0.70294 0.28545 0.41439 0.0
H991 H 0.70156 0.30545 0.37021 0.0
H992 H 0.67047 0.35744 0.49591 0.0
H993 H 0.6702 0.40997 0.39178 0.0
H994 H 0.76377 0.33991 0.48901 0.0
H995 H 0.7299 0.30108 0.47517 0.0
H996 H 0.71935 0.32802 0.51335 0.0
H997 H 0.7631 0.40449 0.36437 0.0
H998 H 0.71818 0.41121 0.34796 0.0
H999 H 0.73061 0.367 0.34565 0.0
loop_
_geom_bond_atom_site_label_1
_geom_bond_atom_site_label_2
_geom_bond_distance
_geom_bond_site_symmetry_2
_ccdc_geom_bond_type
H0 C3 0.931 . S
H1 C6 0.928 . S
H2 C8 0.930 . S
C3 H0 0.931 . S
C3 C4 1.413 . S
C3 C5 1.360 . S
C4 C3 1.413 . S
C4 C8 1.429 . S
C5 C3 1.360 . S
C5 C6 1.372 . S
C6 H1 0.928 . S
C6 C5 1.372 . S
C6 C7 1.404 . S
C7 C6 1.404 . S
C7 C8 1.391 . S
C8 H2 0.930 . S
C8 C4 1.429 . S
C8 C7 1.391 . S
H9 C12 0.931 . S
H10 C15 0.928 . S
H11 C17 0.930 . S
C12 H9 0.931 . S
C12 C13 1.413 . S
C12 C14 1.360 . S
C13 C12 1.413 . S
C13 C17 1.429 . S
C14 C12 1.360 . S
C14 C15 1.372 . S
C15 H10 0.928 . S
C15 C14 1.372 . S
C15 C16 1.404 . S
C16 C15 1.404 . S
C16 C17 1.391 . S
C17 H11 0.930 . S
C17 C13 1.429 . S
C17 C16 1.391 . S
H18 C21 0.931 . S
H19 C24 0.928 . S
H20 C26 0.930 . S
C21 H18 0.931 . S
C21 C22 1.413 . S
C21 C23 1.360 . S
C22 C21 1.413 . S
C22 C26 1.429 . S
C23 C21 1.360 . S
C23 C24 1.372 . S
C24 H19 0.928 . S
C24 C23 1.372 . S
C24 C25 1.404 . S
C25 C24 1.404 . S
C25 C26 1.391 . S
C26 H20 0.930 . S
C26 C22 1.429 . S
C26 C25 1.391 . S
H27 C30 0.931 . S
H28 C33 0.928 . S
H29 C35 0.930 . S
C30 H27 0.931 . S
C30 C31 1.413 . S
C30 C32 1.360 . S
C31 C30 1.413 . S
C31 C35 1.429 . S
C32 C30 1.360 . S
C32 C33 1.372 . S
C33 H28 0.928 . S
C33 C32 1.372 . S
C33 C34 1.404 . S
C34 C33 1.404 . S
C34 C35 1.391 . S
C35 H29 0.930 . S
C35 C31 1.429 . S
C35 C34 1.391 . S
H36 C39 0.931 . S
H37 C42 0.928 . S
H38 C44 0.930 . S
C39 H36 0.931 . S
C39 C40 1.413 . S
C39 C41 1.360 . S
C40 C39 1.413 . S
C40 C44 1.429 . S
C41 C39 1.360 . S
C41 C42 1.372 . S
C42 H37 0.928 . S
C42 C41 1.372 . S
C42 C43 1.404 . S
C43 C42 1.404 . S
C43 C44 1.391 . S
C44 H38 0.930 . S
C44 C40 1.429 . S
C44 C43 1.391 . S
H45 C48 0.931 . S
H46 C51 0.928 . S
H47 C53 0.930 . S
C48 H45 0.931 . S
C48 C49 1.413 . S
C48 C50 1.360 . S
C49 C48 1.413 . S
C49 C53 1.429 . S
C50 C48 1.360 . S
C50 C51 1.372 . S
C51 H46 0.928 . S
C51 C50 1.372 . S
C51 C52 1.404 . S
C52 C51 1.404 . S
C52 C53 1.391 . S
C53 H47 0.930 . S
C53 C49 1.429 . S
C53 C52 1.391 . S
H54 C57 0.931 . S
H55 C60 0.928 . S
H56 C62 0.930 . S
C57 H54 0.931 . S
C57 C58 1.413 . S
C57 C59 1.360 . S
C58 C57 1.413 . S
C58 C62 1.429 . S
C59 C57 1.360 . S
C59 C60 1.372 . S
C60 H55 0.928 . S
C60 C59 1.372 . S
C60 C61 1.404 . S
C61 C60 1.404 . S
C61 C62 1.391 . S
C62 H56 0.930 . S
C62 C58 1.429 . S
C62 C61 1.391 . S
H63 C66 0.931 . S
H64 C69 0.928 . S
H65 C71 0.930 . S
C66 H63 0.931 . S
C66 C67 1.413 . S
C66 C68 1.360 . S
C67 C66 1.413 . S
C67 C71 1.429 . S
C68 C66 1.360 . S
C68 C69 1.372 . S
C69 H64 0.928 . S
C69 C68 1.372 . S
C69 C70 1.404 . S
C70 C69 1.404 . S
C70 C71 1.391 . S
C71 H65 0.930 . S
C71 C67 1.429 . S
C71 C70 1.391 . S
Tb72 C81 2.764 . S
Tb72 O82 2.325 1_455 S
Tb72 O85 2.303 . S
Tb72 O89 2.322 1_545 S
Tb72 O90 2.349 1_545 S
Tb72 O93 2.415 . S
Tb72 O94 2.399 . S
Tb73 O83 2.342 . S
Tb73 O84 2.373 . S
Tb73 O86 2.390 1_545 S
Tb73 O87 2.397 1_545 S
Tb73 O88 2.307 1_645 S
Tb73 O91 2.284 1_545 S
Tb73 C102 2.749 1_545 S
C74 O90 1.261 1_655 S
C74 O91 1.257 . S
C75 C78 1.358 . S
C75 C79 1.332 . S
C75 C81 1.504 . S
C76 C77 1.373 . S
C76 C80 1.308 . S
C77 C76 1.373 . S
C77 C78 1.429 . S
C77 H104 0.932 . S
C78 C75 1.358 . S
C78 C77 1.429 . S
C78 H105 0.930 . S
C79 C75 1.332 . S
C79 C80 1.394 . S
C79 H106 0.932 . S
C80 C76 1.308 . S
C80 C79 1.394 . S
C80 H107 0.929 . S
C81 Tb72 2.764 . S
C81 C75 1.504 . S
C81 O93 1.239 . S
C81 O94 1.263 . S
O82 Tb72 2.325 1_655 S
O82 C92 1.236 . S
O83 Tb73 2.342 . S
O83 C92 1.257 . S
O84 Tb73 2.373 . S
O84 C95 1.261 1_655 S
O85 Tb72 2.303 . S
O85 C95 1.257 . S
O86 Tb73 2.390 1_565 S
O86 C102 1.239 . S
O87 Tb73 2.397 1_565 S
O87 C102 1.263 . S
O88 Tb73 2.307 1_465 S
O88 C103 1.236 . S
O89 Tb72 2.322 1_565 S
O89 C103 1.257 . S
O90 Tb72 2.349 1_565 S
O90 C74 1.261 1_455 S
O91 Tb73 2.284 1_565 S
O91 C74 1.257 . S
C92 O82 1.236 . S
C92 O83 1.257 . S
O93 Tb72 2.415 . S
O93 C81 1.239 . S
O94 Tb72 2.399 . S
O94 C81 1.263 . S
C95 O84 1.261 1_455 S
C95 O85 1.257 . S
C96 C99 1.358 . S
C96 C100 1.332 . S
C96 C102 1.504 . S
C97 C98 1.373 . S
C97 C101 1.308 . S
C98 C97 1.373 . S
C98 C99 1.429 . S
C98 H108 0.932 . S
C99 C96 1.358 . S
C99 C98 1.429 . S
C99 H109 0.930 . S
C100 C96 1.332 . S
C100 C101 1.394 . S
C100 H110 0.932 . S
C101 C97 1.308 . S
C101 C100 1.394 . S
C101 H111 0.929 . S
C102 Tb73 2.749 1_565 S
C102 O86 1.239 . S
C102 O87 1.263 . S
C102 C96 1.504 . S
C103 O88 1.236 . S
C103 O89 1.257 . S
H104 C77 0.932 . S
H105 C78 0.930 . S
H106 C79 0.932 . S
H107 C80 0.929 . S
H108 C98 0.932 . S
H109 C99 0.930 . S
H110 C100 0.932 . S
H111 C101 0.929 . S
Tb112 C121 2.764 . S
Tb112 O122 2.325 1_554 S
Tb112 O125 2.303 . S
Tb112 O129 2.322 1_545 S
Tb112 O130 2.349 1_544 S
Tb112 O133 2.415 . S
Tb112 O134 2.399 . S
Tb113 O123 2.322 1_565 S
Tb113 O124 2.349 1_566 S
Tb113 O126 2.415 . S
Tb113 O127 2.399 . S
Tb113 O128 2.325 1_556 S
Tb113 O131 2.303 . S
Tb113 C142 2.764 . S
C114 O130 1.261 . S
C114 O131 1.257 . S
C115 C118 1.358 . S
C115 C119 1.332 . S
C115 C121 1.504 . S
C116 C117 1.373 . S
C116 C120 1.308 . S
C117 C116 1.373 . S
C117 C118 1.429 . S
C117 H144 0.932 . S
C118 C115 1.358 . S
C118 C117 1.429 . S
C118 H145 0.930 . S
C119 C115 1.332 . S
C119 C120 1.394 . S
C119 H146 0.932 . S
C120 C116 1.308 . S
C120 C119 1.394 . S
C120 H147 0.929 . S
C121 Tb112 2.764 . S
C121 C115 1.504 . S
C121 O133 1.239 . S
C121 O134 1.263 . S
O122 Tb112 2.325 1_556 S
O122 C132 1.236 . S
O123 Tb113 2.322 1_545 S
O123 C132 1.257 . S
O124 Tb113 2.349 1_544 S
O124 C135 1.261 . S
O125 Tb112 2.303 . S
O125 C135 1.257 . S
O126 Tb113 2.415 . S
O126 C142 1.239 . S
O127 Tb113 2.399 . S
O127 C142 1.263 . S
O128 Tb113 2.325 1_554 S
O128 C143 1.236 . S
O129 Tb112 2.322 1_565 S
O129 C143 1.257 . S
O130 Tb112 2.349 1_566 S
O130 C114 1.261 . S
O131 Tb113 2.303 . S
O131 C114 1.257 . S
C132 O122 1.236 . S
C132 O123 1.257 . S
O133 Tb112 2.415 . S
O133 C121 1.239 . S
O134 Tb112 2.399 . S
O134 C121 1.263 . S
C135 O124 1.261 . S
C135 O125 1.257 . S
C136 C139 1.358 . S
C136 C140 1.332 . S
C136 C142 1.504 . S
C137 C138 1.373 . S
C137 C141 1.308 . S
C138 C137 1.373 . S
C138 C139 1.429 . S
C138 H148 0.932 . S
C139 C136 1.358 . S
C139 C138 1.429 . S
C139 H149 0.930 . S
C140 C136 1.332 . S
C140 C141 1.394 . S
C140 H150 0.932 . S
C141 C137 1.308 . S
C141 C140 1.394 . S
C141 H151 0.929 . S
C142 Tb113 2.764 . S
C142 O126 1.239 . S
C142 O127 1.263 . S
C142 C136 1.504 . S
C143 O128 1.236 . S
C143 O129 1.257 . S
H144 C117 0.932 . S
H145 C118 0.930 . S
H146 C119 0.932 . S
H147 C120 0.929 . S
H148 C138 0.932 . S
H149 C139 0.930 . S
H150 C140 0.932 . S
H151 C141 0.929 . S
Tb152 C161 2.764 . S
Tb152 O162 2.325 . S
Tb152 O165 2.303 . S
Tb152 O169 2.322 . S
Tb152 O170 2.349 . S
Tb152 O173 2.415 . S
Tb152 O174 2.399 . S
Tb153 O163 2.322 . S
Tb153 O164 2.349 . S
Tb153 O166 2.415 . S
Tb153 O167 2.399 . S
Tb153 O168 2.325 . S
Tb153 O171 2.303 . S
Tb153 C182 2.764 . S
C154 O170 1.261 . S
C154 O171 1.257 . S
C155 C158 1.358 . S
C155 C159 1.332 . S
C155 C161 1.504 . S
C156 C157 1.373 . S
C156 C160 1.308 . S
C157 C156 1.373 . S
C157 C158 1.429 . S
C157 H184 0.932 . S
C158 C155 1.358 . S
C158 C157 1.429 . S
C158 H185 0.930 . S
C159 C155 1.332 . S
C159 C160 1.394 . S
C159 H186 0.932 . S
C160 C156 1.308 . S
C160 C159 1.394 . S
C160 H187 0.929 . S
C161 Tb152 2.764 . S
C161 C155 1.504 . S
C161 O173 1.239 . S
C161 O174 1.263 . S
O162 Tb152 2.325 . S
O162 C172 1.236 . S
O163 Tb153 2.322 . S
O163 C172 1.257 . S
O164 Tb153 2.349 . S
O164 C175 1.261 . S
O165 Tb152 2.303 . S
O165 C175 1.257 . S
O166 Tb153 2.415 . S
O166 C182 1.239 . S
O167 Tb153 2.399 . S
O167 C182 1.263 . S
O168 Tb153 2.325 . S
O168 C183 1.236 . S
O169 Tb152 2.322 . S
O169 C183 1.257 . S
O170 Tb152 2.349 . S
O170 C154 1.261 . S
O171 Tb153 2.303 . S
O171 C154 1.257 . S
C172 O162 1.236 . S
C172 O163 1.257 . S
O173 Tb152 2.415 . S
O173 C161 1.239 . S
O174 Tb152 2.399 . S
O174 C161 1.263 . S
C175 O164 1.261 . S
C175 O165 1.257 . S
C176 C179 1.358 . S
C176 C180 1.332 . S
C176 C182 1.504 . S
C177 C178 1.373 . S
C177 C181 1.308 . S
C178 C177 1.373 . S
C178 C179 1.429 . S
C178 H188 0.932 . S
C179 C176 1.358 . S
C179 C178 1.429 . S
C179 H189 0.930 . S
C180 C176 1.332 . S
C180 C181 1.394 . S
C180 H190 0.932 . S
C181 C177 1.308 . S
C181 C180 1.394 . S
C181 H191 0.929 . S
C182 Tb153 2.764 . S
C182 O166 1.239 . S
C182 O167 1.263 . S
C182 C176 1.504 . S
C183 O168 1.236 . S
C183 O169 1.257 . S
H184 C157 0.932 . S
H185 C158 0.930 . S
H186 C159 0.932 . S
H187 C160 0.929 . S
H188 C178 0.932 . S
H189 C179 0.930 . S
H190 C180 0.932 . S
H191 C181 0.929 . S
Tb192 C201 2.764 . S
Tb192 O202 2.325 . S
Tb192 O205 2.303 1_556 S
Tb192 O209 2.319 1_656 S
Tb192 O210 2.349 1_655 S
Tb192 O213 2.415 . S
Tb192 O214 2.399 . S
Tb193 O203 2.322 1_455 S
Tb193 O204 2.349 1_455 S
Tb193 O206 2.415 . S
Tb193 O207 2.399 . S
Tb193 O208 2.325 . S
Tb193 O211 2.303 1_554 S
Tb193 C222 2.764 . S
C194 O210 1.261 . S
C194 O211 1.257 . S
C195 C198 1.358 . S
C195 C199 1.332 . S
C195 C201 1.504 . S
C196 C197 1.373 . S
C196 C200 1.308 . S
C197 C196 1.373 . S
C197 C198 1.429 . S
C197 H224 0.932 . S
C198 C195 1.358 . S
C198 C197 1.429 . S
C198 H225 0.930 . S
C199 C195 1.332 . S
C199 C200 1.394 . S
C199 H226 0.932 . S
C200 C196 1.308 . S
C200 C199 1.394 . S
C200 H227 0.929 . S
C201 Tb192 2.764 . S
C201 C195 1.504 . S
C201 O213 1.239 . S
C201 O214 1.263 . S
O202 Tb192 2.325 . S
O202 C212 1.236 . S
O203 Tb193 2.322 1_655 S
O203 C212 1.257 1_554 S
O204 Tb193 2.349 1_655 S
O204 C215 1.261 . S
O205 Tb192 2.303 1_554 S
O205 C215 1.257 . S
O206 Tb193 2.415 . S
O206 C222 1.239 . S
O207 Tb193 2.399 . S
O207 C222 1.263 . S
O208 Tb193 2.325 . S
O208 C223 1.236 . S
O209 Tb192 2.319 1_454 S
O209 C223 1.263 . S
O210 Tb192 2.349 1_455 S
O210 C194 1.261 . S
O211 Tb193 2.303 1_556 S
O211 C194 1.257 . S
C212 O202 1.236 . S
C212 O203 1.257 1_556 S
O213 Tb192 2.415 . S
O213 C201 1.239 . S
O214 Tb192 2.399 . S
O214 C201 1.263 . S
C215 O204 1.261 . S
C215 O205 1.257 . S
C216 C219 1.358 . S
C216 C220 1.332 . S
C216 C222 1.504 . S
C217 C218 1.373 . S
C217 C221 1.308 . S
C218 C217 1.373 . S
C218 C219 1.429 . S
C218 H228 0.932 . S
C219 C216 1.358 . S
C219 C218 1.429 . S
C219 H229 0.930 . S
C220 C216 1.332 . S
C220 C221 1.394 . S
C220 H230 0.932 . S
C221 C217 1.308 . S
C221 C220 1.394 . S
C221 H231 0.929 . S
C222 Tb193 2.764 . S
C222 O206 1.239 . S
C222 O207 1.263 . S
C222 C216 1.504 . S
C223 O208 1.236 . S
C223 O209 1.263 . S
H224 C197 0.932 . S
H225 C198 0.930 . S
H226 C199 0.932 . S
H227 C200 0.929 . S
H228 C218 0.932 . S
H229 C219 0.930 . S
H230 C220 0.932 . S
H231 C221 0.929 . S
C232 C233 1.391 . S
C232 C234 1.394 . S
C232 H248 0.931 . S
C233 C232 1.391 . S
C233 C237 1.376 . S
C234 C232 1.394 . S
C234 C235 1.369 . S
C234 C238 1.531 . S
C235 C234 1.369 . S
C235 C236 1.410 . S
C235 C243 1.503 . S
C236 C235 1.410 . S
C236 C237 1.392 . S
C236 C239 1.511 . S
C237 C233 1.376 . S
C237 C236 1.392 . S
C237 H249 0.929 . S
C238 C234 1.531 . S
C238 H250 0.960 . S
C238 H251 0.962 . S
C238 H252 0.960 . S
C239 C236 1.511 . S
C239 H253 0.961 . S
C239 H254 0.961 . S
C239 H255 0.961 . S
C240 C241 1.370 . S
C240 C242 1.363 . S
C240 H256 0.931 . S
C241 C240 1.370 . S
C241 C245 1.408 . S
C242 C240 1.363 . S
C242 C243 1.370 . S
C242 C246 1.524 . S
C243 C235 1.503 . S
C243 C242 1.370 . S
C243 C244 1.403 . S
C244 C243 1.403 . S
C244 C245 1.404 . S
C244 C247 1.539 . S
C245 C241 1.408 . S
C245 C244 1.404 . S
C245 H257 0.930 . S
C246 C242 1.524 . S
C246 H258 0.956 . S
C246 H259 0.961 . S
C246 H260 0.961 . S
C247 C244 1.539 . S
C247 H261 0.958 . S
C247 H262 0.961 . S
C247 H263 0.960 . S
H248 C232 0.931 . S
H249 C237 0.929 . S
H250 C238 0.960 . S
H251 C238 0.962 . S
H252 C238 0.960 . S
H253 C239 0.961 . S
H254 C239 0.961 . S
H255 C239 0.961 . S
H256 C240 0.931 . S
H257 C245 0.930 . S
H258 C246 0.956 . S
H259 C246 0.961 . S
H260 C246 0.961 . S
H261 C247 0.958 . S
H262 C247 0.961 . S
H263 C247 0.960 . S
C264 C265 1.391 . S
C264 C266 1.394 . S
C264 H280 0.931 . S
C265 C264 1.391 . S
C265 C269 1.376 . S
C266 C264 1.394 . S
C266 C267 1.369 . S
C266 C270 1.531 . S
C267 C266 1.369 . S
C267 C268 1.410 . S
C267 C275 1.503 . S
C268 C267 1.410 . S
C268 C269 1.392 . S
C268 C271 1.511 . S
C269 C265 1.376 . S
C269 C268 1.392 . S
C269 H281 0.929 . S
C270 C266 1.531 . S
C270 H282 0.960 . S
C270 H283 0.962 . S
C270 H284 0.960 . S
C271 C268 1.511 . S
C271 H285 0.961 . S
C271 H286 0.961 . S
C271 H287 0.961 . S
C272 C273 1.370 . S
C272 C274 1.363 . S
C272 H288 0.931 . S
C273 C272 1.370 . S
C273 C277 1.408 . S
C274 C272 1.363 . S
C274 C275 1.370 . S
C274 C278 1.524 . S
C275 C267 1.503 . S
C275 C274 1.370 . S
C275 C276 1.403 . S
C276 C275 1.403 . S
C276 C277 1.404 . S
C276 C279 1.539 . S
C277 C273 1.408 . S
C277 C276 1.404 . S
C277 H289 0.930 . S
C278 C274 1.524 . S
C278 H290 0.956 . S
C278 H291 0.961 . S
C278 H292 0.961 . S
C279 C276 1.539 . S
C279 H293 0.958 . S
C279 H294 0.961 . S
C279 H295 0.960 . S
H280 C264 0.931 . S
H281 C269 0.929 . S
H282 C270 0.960 . S
H283 C270 0.962 . S
H284 C270 0.960 . S
H285 C271 0.961 . S
H286 C271 0.961 . S
H287 C271 0.961 . S
H288 C272 0.931 . S
H289 C277 0.930 . S
H290 C278 0.956 . S
H291 C278 0.961 . S
H292 C278 0.961 . S
H293 C279 0.958 . S
H294 C279 0.961 . S
H295 C279 0.960 . S
C296 C297 1.391 . S
C296 C298 1.394 . S
C296 H312 0.931 . S
C297 C296 1.391 . S
C297 C301 1.376 . S
C298 C296 1.394 . S
C298 C299 1.369 . S
C298 C302 1.531 . S
C299 C298 1.369 . S
C299 C300 1.410 . S
C299 C307 1.503 . S
C300 C299 1.410 . S
C300 C301 1.392 . S
C300 C303 1.511 . S
C301 C297 1.376 . S
C301 C300 1.392 . S
C301 H313 0.929 . S
C302 C298 1.531 . S
C302 H314 0.960 . S
C302 H315 0.962 . S
C302 H316 0.960 . S
C303 C300 1.511 . S
C303 H317 0.961 . S
C303 H318 0.961 . S
C303 H319 0.961 . S
C304 C305 1.370 . S
C304 C306 1.363 . S
C304 H320 0.931 . S
C305 C304 1.370 . S
C305 C309 1.408 . S
C306 C304 1.363 . S
C306 C307 1.370 . S
C306 C310 1.524 . S
C307 C299 1.503 . S
C307 C306 1.370 . S
C307 C308 1.403 . S
C308 C307 1.403 . S
C308 C309 1.404 . S
C308 C311 1.539 . S
C309 C305 1.408 . S
C309 C308 1.404 . S
C309 H321 0.930 . S
C310 C306 1.524 . S
C310 H322 0.956 . S
C310 H323 0.961 . S
C310 H324 0.961 . S
C311 C308 1.539 . S
C311 H325 0.958 . S
C311 H326 0.961 . S
C311 H327 0.960 . S
H312 C296 0.931 . S
H313 C301 0.929 . S
H314 C302 0.960 . S
H315 C302 0.962 . S
H316 C302 0.960 . S
H317 C303 0.961 . S
H318 C303 0.961 . S
H319 C303 0.961 . S
H320 C304 0.931 . S
H321 C309 0.930 . S
H322 C310 0.956 . S
H323 C310 0.961 . S
H324 C310 0.961 . S
H325 C311 0.958 . S
H326 C311 0.961 . S
H327 C311 0.960 . S
C328 C329 1.391 . S
C328 C330 1.394 . S
C328 H344 0.931 . S
C329 C328 1.391 . S
C329 C333 1.376 . S
C330 C328 1.394 . S
C330 C331 1.369 . S
C330 C334 1.531 . S
C331 C330 1.369 . S
C331 C332 1.410 . S
C331 C339 1.503 . S
C332 C331 1.410 . S
C332 C333 1.392 . S
C332 C335 1.511 . S
C333 C329 1.376 . S
C333 C332 1.392 . S
C333 H345 0.929 . S
C334 C330 1.531 . S
C334 H346 0.960 . S
C334 H347 0.962 . S
C334 H348 0.960 . S
C335 C332 1.511 . S
C335 H349 0.961 . S
C335 H350 0.961 . S
C335 H351 0.961 . S
C336 C337 1.370 . S
C336 C338 1.363 . S
C336 H352 0.931 . S
C337 C336 1.370 . S
C337 C341 1.408 . S
C338 C336 1.363 . S
C338 C339 1.370 . S
C338 C342 1.524 . S
C339 C331 1.503 . S
C339 C338 1.370 . S
C339 C340 1.403 . S
C340 C339 1.403 . S
C340 C341 1.404 . S
C340 C343 1.539 . S
C341 C337 1.408 . S
C341 C340 1.404 . S
C341 H353 0.930 . S
C342 C338 1.524 . S
C342 H354 0.956 . S
C342 H355 0.961 . S
C342 H356 0.961 . S
C343 C340 1.539 . S
C343 H357 0.958 . S
C343 H358 0.961 . S
C343 H359 0.960 . S
H344 C328 0.931 . S
H345 C333 0.929 . S
H346 C334 0.960 . S
H347 C334 0.962 . S
H348 C334 0.960 . S
H349 C335 0.961 . S
H350 C335 0.961 . S
H351 C335 0.961 . S
H352 C336 0.931 . S
H353 C341 0.930 . S
H354 C342 0.956 . S
H355 C342 0.961 . S
H356 C342 0.961 . S
H357 C343 0.958 . S
H358 C343 0.961 . S
H359 C343 0.960 . S
C360 C361 1.391 . S
C360 C362 1.394 . S
C360 H376 0.931 . S
C361 C360 1.391 . S
C361 C365 1.376 . S
C362 C360 1.394 . S
C362 C363 1.369 . S
C362 C366 1.531 . S
C363 C362 1.369 . S
C363 C364 1.410 . S
C363 C371 1.503 . S
C364 C363 1.410 . S
C364 C365 1.392 . S
C364 C367 1.511 . S
C365 C361 1.376 . S
C365 C364 1.392 . S
C365 H377 0.929 . S
C366 C362 1.531 . S
C366 H378 0.960 . S
C366 H379 0.962 . S
C366 H380 0.960 . S
C367 C364 1.511 . S
C367 H381 0.961 . S
C367 H382 0.961 . S
C367 H383 0.961 . S
C368 C369 1.370 . S
C368 C370 1.363 . S
C368 H384 0.931 . S
C369 C368 1.370 . S
C369 C373 1.408 . S
C370 C368 1.363 . S
C370 C371 1.370 . S
C370 C374 1.524 . S
C371 C363 1.503 . S
C371 C370 1.370 . S
C371 C372 1.403 . S
C372 C371 1.403 . S
C372 C373 1.404 . S
C372 C375 1.539 . S
C373 C369 1.408 . S
C373 C372 1.404 . S
C373 H385 0.930 . S
C374 C370 1.524 . S
C374 H386 0.956 . S
C374 H387 0.961 . S
C374 H388 0.961 . S
C375 C372 1.539 . S
C375 H389 0.958 . S
C375 H390 0.961 1_554 S
C375 H391 0.960 . S
H376 C360 0.931 . S
H377 C365 0.929 . S
H378 C366 0.960 . S
H379 C366 0.962 . S
H380 C366 0.960 . S
H381 C367 0.961 . S
H382 C367 0.961 . S
H383 C367 0.961 . S
H384 C368 0.931 . S
H385 C373 0.930 . S
H386 C374 0.956 . S
H387 C374 0.961 . S
H388 C374 0.961 . S
H389 C375 0.958 . S
H390 C375 0.961 1_556 S
H391 C375 0.960 . S
C392 C393 1.391 . S
C392 C394 1.394 . S
C392 H408 0.931 . S
C393 C392 1.391 . S
C393 C397 1.376 . S
C394 C392 1.394 . S
C394 C395 1.369 . S
C394 C398 1.531 . S
C395 C394 1.369 . S
C395 C396 1.410 . S
C395 C403 1.503 . S
C396 C395 1.410 . S
C396 C397 1.392 . S
C396 C399 1.511 . S
C397 C393 1.376 . S
C397 C396 1.392 . S
C397 H409 0.929 . S
C398 C394 1.531 . S
C398 H410 0.960 . S
C398 H411 0.951 1_455 S
C398 H412 0.960 . S
C399 C396 1.511 . S
C399 H413 0.961 . S
C399 H414 0.961 . S
C399 H415 0.961 . S
C400 C401 1.370 . S
C400 C402 1.363 . S
C400 H416 0.931 . S
C401 C400 1.370 . S
C401 C405 1.408 . S
C402 C400 1.363 . S
C402 C403 1.370 . S
C402 C406 1.524 . S
C403 C395 1.503 . S
C403 C402 1.370 . S
C403 C404 1.403 . S
C404 C403 1.403 . S
C404 C405 1.404 . S
C404 C407 1.539 . S
C405 C401 1.408 . S
C405 C404 1.404 . S
C405 H417 0.930 . S
C406 C402 1.524 . S
C406 H418 0.956 . S
C406 H419 0.961 . S
C406 H420 0.961 . S
C407 C404 1.539 . S
C407 H421 0.958 . S
C407 H422 0.961 . S
C407 H423 0.960 . S
H408 C392 0.931 . S
H409 C397 0.929 . S
H410 C398 0.960 . S
H411 C398 0.951 1_655 S
H412 C398 0.960 . S
H413 C399 0.961 . S
H414 C399 0.961 . S
H415 C399 0.961 . S
H416 C400 0.931 . S
H417 C405 0.930 . S
H418 C406 0.956 . S
H419 C406 0.961 . S
H420 C406 0.961 . S
H421 C407 0.958 . S
H422 C407 0.961 . S
H423 C407 0.960 . S
C424 C425 1.391 . S
C424 C426 1.394 . S
C424 H440 0.931 . S
C425 C424 1.391 . S
C425 C429 1.376 . S
C426 C424 1.394 . S
C426 C427 1.369 . S
C426 C430 1.531 . S
C427 C426 1.369 . S
C427 C428 1.410 . S
C427 C435 1.503 . S
C428 C427 1.410 . S
C428 C429 1.392 . S
C428 C431 1.511 . S
C429 C425 1.376 . S
C429 C428 1.392 . S
C429 H441 0.929 . S
C430 C426 1.531 . S
C430 H442 0.960 . S
C430 H443 0.962 . S
C430 H444 0.960 . S
C431 C428 1.511 . S
C431 H445 0.961 . S
C431 H446 0.961 . S
C431 H447 0.961 . S
C432 C433 1.370 . S
C432 C434 1.363 . S
C432 H448 0.931 . S
C433 C432 1.370 . S
C433 C437 1.408 . S
C434 C432 1.363 . S
C434 C435 1.370 . S
C434 C438 1.524 . S
C435 C427 1.503 . S
C435 C434 1.370 . S
C435 C436 1.403 . S
C436 C435 1.403 . S
C436 C437 1.404 . S
C436 C439 1.539 . S
C437 C433 1.408 . S
C437 C436 1.404 . S
C437 H449 0.930 . S
C438 C434 1.524 . S
C438 H450 0.956 . S
C438 H451 0.961 . S
C438 H452 0.961 . S
C439 C436 1.539 . S
C439 H453 0.958 . S
C439 H454 0.961 . S
C439 H455 0.960 . S
H440 C424 0.931 . S
H441 C429 0.929 . S
H442 C430 0.960 . S
H443 C430 0.962 . S
H444 C430 0.960 . S
H445 C431 0.961 . S
H446 C431 0.961 . S
H447 C431 0.961 . S
H448 C432 0.931 . S
H449 C437 0.930 . S
H450 C438 0.956 . S
H451 C438 0.961 . S
H452 C438 0.961 . S
H453 C439 0.958 . S
H454 C439 0.961 . S
H455 C439 0.960 . S
C456 C457 1.391 . S
C456 C458 1.394 . S
C456 H472 0.931 . S
C457 C456 1.391 . S
C457 C461 1.376 . S
C458 C456 1.394 . S
C458 C459 1.369 . S
C458 C462 1.531 . S
C459 C458 1.369 . S
C459 C460 1.410 . S
C459 C467 1.503 . S
C460 C459 1.410 . S
C460 C461 1.392 . S
C460 C463 1.511 . S
C461 C457 1.376 . S
C461 C460 1.392 . S
C461 H473 0.929 . S
C462 C458 1.531 . S
C462 H474 0.960 . S
C462 H475 0.962 . S
C462 H476 0.960 . S
C463 C460 1.511 . S
C463 H477 0.961 . S
C463 H478 0.961 . S
C463 H479 0.961 . S
C464 C465 1.370 . S
C464 C466 1.363 . S
C464 H480 0.931 . S
C465 C464 1.370 . S
C465 C469 1.408 . S
C466 C464 1.363 . S
C466 C467 1.370 . S
C466 C470 1.524 . S
C467 C459 1.503 . S
C467 C466 1.370 . S
C467 C468 1.403 . S
C468 C467 1.403 . S
C468 C469 1.404 . S
C468 C471 1.539 . S
C469 C465 1.408 . S
C469 C468 1.404 . S
C469 H481 0.930 . S
C470 C466 1.524 . S
C470 H482 0.956 . S
C470 H483 0.961 . S
C470 H484 0.961 . S
C471 C468 1.539 . S
C471 H485 0.958 . S
C471 H486 0.961 . S
C471 H487 0.960 . S
H472 C456 0.931 . S
H473 C461 0.929 . S
H474 C462 0.960 . S
H475 C462 0.962 . S
H476 C462 0.960 . S
H477 C463 0.961 . S
H478 C463 0.961 . S
H479 C463 0.961 . S
H480 C464 0.931 . S
H481 C469 0.930 . S
H482 C470 0.956 . S
H483 C470 0.961 . S
H484 C470 0.961 . S
H485 C471 0.958 . S
H486 C471 0.961 . S
H487 C471 0.960 . S
C488 C489 1.391 . S
C488 C490 1.394 . S
C488 H504 0.931 . S
C489 C488 1.391 . S
C489 C493 1.376 . S
C490 C488 1.394 . S
C490 C491 1.369 . S
C490 C494 1.531 . S
C491 C490 1.369 . S
C491 C492 1.410 . S
C491 C499 1.503 . S
C492 C491 1.410 . S
C492 C493 1.392 . S
C492 C495 1.511 . S
C493 C489 1.376 . S
C493 C492 1.392 . S
C493 H505 0.929 . S
C494 C490 1.531 . S
C494 H506 0.960 . S
C494 H507 0.962 . S
C494 H508 0.960 . S
C495 C492 1.511 . S
C495 H509 0.961 . S
C495 H510 0.961 . S
C495 H511 0.961 . S
C496 C497 1.370 . S
C496 C498 1.363 . S
C496 H512 0.931 . S
C497 C496 1.370 . S
C497 C501 1.408 . S
C498 C496 1.363 . S
C498 C499 1.370 . S
C498 C502 1.524 . S
C499 C491 1.503 . S
C499 C498 1.370 . S
C499 C500 1.403 . S
C500 C499 1.403 . S
C500 C501 1.404 . S
C500 C503 1.539 . S
C501 C497 1.408 . S
C501 C500 1.404 . S
C501 H513 0.930 . S
C502 C498 1.524 . S
C502 H514 0.956 . S
C502 H515 0.961 . S
C502 H516 0.961 . S
C503 C500 1.539 . S
C503 H517 0.958 . S
C503 H518 0.961 . S
C503 H519 0.960 . S
H504 C488 0.931 . S
H505 C493 0.929 . S
H506 C494 0.960 . S
H507 C494 0.962 . S
H508 C494 0.960 . S
H509 C495 0.961 . S
H510 C495 0.961 . S
H511 C495 0.961 . S
H512 C496 0.931 . S
H513 C501 0.930 . S
H514 C502 0.956 . S
H515 C502 0.961 . S
H516 C502 0.961 . S
H517 C503 0.958 . S
H518 C503 0.961 . S
H519 C503 0.960 . S
C520 C521 1.391 . S
C520 C522 1.394 . S
C520 H536 0.931 . S
C521 C520 1.391 . S
C521 C525 1.376 . S
C522 C520 1.394 . S
C522 C523 1.369 . S
C522 C526 1.531 . S
C523 C522 1.369 . S
C523 C524 1.410 . S
C523 C531 1.503 . S
C524 C523 1.410 . S
C524 C525 1.392 . S
C524 C527 1.511 . S
C525 C521 1.376 . S
C525 C524 1.392 . S
C525 H537 0.929 . S
C526 C522 1.531 . S
C526 H538 0.960 . S
C526 H539 0.962 . S
C526 H540 0.960 . S
C527 C524 1.511 . S
C527 H541 0.961 . S
C527 H542 0.961 . S
C527 H543 0.961 . S
C528 C529 1.370 . S
C528 C530 1.363 . S
C528 H544 0.931 . S
C529 C528 1.370 . S
C529 C533 1.408 . S
C530 C528 1.363 . S
C530 C531 1.370 . S
C530 C534 1.524 . S
C531 C523 1.503 . S
C531 C530 1.370 . S
C531 C532 1.403 . S
C532 C531 1.403 . S
C532 C533 1.404 . S
C532 C535 1.539 . S
C533 C529 1.408 . S
C533 C532 1.404 . S
C533 H545 0.930 . S
C534 C530 1.524 . S
C534 H546 0.956 . S
C534 H547 0.961 . S
C534 H548 0.961 . S
C535 C532 1.539 . S
C535 H549 0.958 . S
C535 H550 0.961 1_556 S
C535 H551 0.960 . S
H536 C520 0.931 . S
H537 C525 0.929 . S
H538 C526 0.960 . S
H539 C526 0.962 . S
H540 C526 0.960 . S
H541 C527 0.961 . S
H542 C527 0.961 . S
H543 C527 0.961 . S
H544 C528 0.931 . S
H545 C533 0.930 . S
H546 C534 0.956 . S
H547 C534 0.961 . S
H548 C534 0.961 . S
H549 C535 0.958 . S
H550 C535 0.961 1_554 S
H551 C535 0.960 . S
C552 C553 1.391 . S
C552 C554 1.394 . S
C552 H568 0.931 . S
C553 C552 1.391 . S
C553 C557 1.376 . S
C554 C552 1.394 . S
C554 C555 1.369 . S
C554 C558 1.531 . S
C555 C554 1.369 . S
C555 C556 1.410 . S
C555 C563 1.503 . S
C556 C555 1.410 . S
C556 C557 1.392 . S
C556 C559 1.511 . S
C557 C553 1.376 . S
C557 C556 1.392 . S
C557 H569 0.929 . S
C558 C554 1.531 . S
C558 H570 0.960 . S
C558 H571 0.962 . S
C558 H572 0.960 . S
C559 C556 1.511 . S
C559 H573 0.961 . S
C559 H574 0.961 . S
C559 H575 0.961 . S
C560 C561 1.370 . S
C560 C562 1.363 . S
C560 H576 0.931 . S
C561 C560 1.370 . S
C561 C565 1.408 . S
C562 C560 1.363 . S
C562 C563 1.370 . S
C562 C566 1.524 . S
C563 C555 1.503 . S
C563 C562 1.370 . S
C563 C564 1.403 . S
C564 C563 1.403 . S
C564 C565 1.404 . S
C564 C567 1.539 . S
C565 C561 1.408 . S
C565 C564 1.404 . S
C565 H577 0.930 . S
C566 C562 1.524 . S
C566 H578 0.956 . S
C566 H579 0.961 . S
C566 H580 0.961 . S
C567 C564 1.539 . S
C567 H581 0.958 . S
C567 H582 0.961 1_655 S
C567 H583 0.960 . S
H568 C552 0.931 . S
H569 C557 0.929 . S
H570 C558 0.960 . S
H571 C558 0.962 . S
H572 C558 0.960 . S
H573 C559 0.961 . S
H574 C559 0.961 . S
H575 C559 0.961 . S
H576 C560 0.931 . S
H577 C565 0.930 . S
H578 C566 0.956 . S
H579 C566 0.961 . S
H580 C566 0.961 . S
H581 C567 0.958 . S
H582 C567 0.961 1_455 S
H583 C567 0.960 . S
C584 C585 1.391 . S
C584 C586 1.394 . S
C584 H600 0.931 . S
C585 C584 1.391 . S
C585 C589 1.376 . S
C586 C584 1.394 . S
C586 C587 1.369 . S
C586 C590 1.531 . S
C587 C586 1.369 . S
C587 C588 1.410 . S
C587 C595 1.503 . S
C588 C587 1.410 . S
C588 C589 1.392 . S
C588 C591 1.511 . S
C589 C585 1.376 . S
C589 C588 1.392 . S
C589 H601 0.929 . S
C590 C586 1.531 . S
C590 H602 0.960 . S
C590 H603 0.962 . S
C590 H604 0.960 . S
C591 C588 1.511 . S
C591 H605 0.961 . S
C591 H606 0.961 . S
C591 H607 0.961 . S
C592 C593 1.370 . S
C592 C594 1.363 . S
C592 H608 0.931 . S
C593 C592 1.370 . S
C593 C597 1.408 . S
C594 C592 1.363 . S
C594 C595 1.370 . S
C594 C598 1.524 . S
C595 C587 1.503 . S
C595 C594 1.370 . S
C595 C596 1.403 . S
C596 C595 1.403 . S
C596 C597 1.404 . S
C596 C599 1.539 . S
C597 C593 1.408 . S
C597 C596 1.404 . S
C597 H609 0.930 . S
C598 C594 1.524 . S
C598 H610 0.956 . S
C598 H611 0.961 . S
C598 H612 0.961 . S
C599 C596 1.539 . S
C599 H613 0.958 . S
C599 H614 0.961 . S
C599 H615 0.960 . S
H600 C584 0.931 . S
H601 C589 0.929 . S
H602 C590 0.960 . S
H603 C590 0.962 . S
H604 C590 0.960 . S
H605 C591 0.961 . S
H606 C591 0.961 . S
H607 C591 0.961 . S
H608 C592 0.931 . S
H609 C597 0.930 . S
H610 C598 0.956 . S
H611 C598 0.961 . S
H612 C598 0.961 . S
H613 C599 0.958 . S
H614 C599 0.961 . S
H615 C599 0.960 . S
C616 C617 1.391 . S
C616 C618 1.394 . S
C616 H632 0.931 . S
C617 C616 1.391 . S
C617 C621 1.376 . S
C618 C616 1.394 . S
C618 C619 1.369 . S
C618 C622 1.531 . S
C619 C618 1.369 . S
C619 C620 1.410 . S
C619 C627 1.503 . S
C620 C619 1.410 . S
C620 C621 1.392 . S
C620 C623 1.511 . S
C621 C617 1.376 . S
C621 C620 1.392 . S
C621 H633 0.929 . S
C622 C618 1.531 . S
C622 H634 0.960 . S
C622 H635 0.962 . S
C622 H636 0.960 . S
C623 C620 1.511 . S
C623 H637 0.961 . S
C623 H638 0.961 . S
C623 H639 0.961 . S
C624 C625 1.370 . S
C624 C626 1.363 . S
C624 H640 0.931 . S
C625 C624 1.370 . S
C625 C629 1.408 . S
C626 C624 1.363 . S
C626 C627 1.370 . S
C626 C630 1.524 . S
C627 C619 1.503 . S
C627 C626 1.370 . S
C627 C628 1.403 . S
C628 C627 1.403 . S
C628 C629 1.404 . S
C628 C631 1.539 . S
C629 C625 1.408 . S
C629 C628 1.404 . S
C629 H641 0.930 . S
C630 C626 1.524 . S
C630 H642 0.956 . S
C630 H643 0.961 . S
C630 H644 0.961 . S
C631 C628 1.539 . S
C631 H645 0.958 . S
C631 H646 0.961 . S
C631 H647 0.960 . S
H632 C616 0.931 . S
H633 C621 0.929 . S
H634 C622 0.960 . S
H635 C622 0.962 . S
H636 C622 0.960 . S
H637 C623 0.961 . S
H638 C623 0.961 . S
H639 C623 0.961 . S
H640 C624 0.931 . S
H641 C629 0.930 . S
H642 C630 0.956 . S
H643 C630 0.961 . S
H644 C630 0.961 . S
H645 C631 0.958 . S
H646 C631 0.961 . S
H647 C631 0.960 . S
C648 C649 1.391 . S
C648 C650 1.394 . S
C648 H664 0.931 . S
C649 C648 1.391 . S
C649 C653 1.376 . S
C650 C648 1.394 . S
C650 C651 1.369 . S
C650 C654 1.531 . S
C651 C650 1.369 . S
C651 C652 1.410 . S
C651 C659 1.503 . S
C652 C651 1.410 . S
C652 C653 1.392 . S
C652 C655 1.511 . S
C653 C649 1.376 . S
C653 C652 1.392 . S
C653 H665 0.929 . S
C654 C650 1.531 . S
C654 H666 0.960 . S
C654 H667 0.962 . S
C654 H668 0.960 . S
C655 C652 1.511 . S
C655 H669 0.961 . S
C655 H670 0.961 . S
C655 H671 0.961 . S
C656 C657 1.370 . S
C656 C658 1.363 . S
C656 H672 0.931 . S
C657 C656 1.370 . S
C657 C661 1.408 . S
C658 C656 1.363 . S
C658 C659 1.370 . S
C658 C662 1.524 . S
C659 C651 1.503 . S
C659 C658 1.370 . S
C659 C660 1.403 . S
C660 C659 1.403 . S
C660 C661 1.404 . S
C660 C663 1.539 . S
C661 C657 1.408 . S
C661 C660 1.404 . S
C661 H673 0.930 . S
C662 C658 1.524 . S
C662 H674 0.956 . S
C662 H675 0.961 . S
C662 H676 0.961 . S
C663 C660 1.539 . S
C663 H677 0.958 . S
C663 H678 0.961 . S
C663 H679 0.960 . S
H664 C648 0.931 . S
H665 C653 0.929 . S
H666 C654 0.960 . S
H667 C654 0.962 . S
H668 C654 0.960 . S
H669 C655 0.961 . S
H670 C655 0.961 . S
H671 C655 0.961 . S
H672 C656 0.931 . S
H673 C661 0.930 . S
H674 C662 0.956 . S
H675 C662 0.961 . S
H676 C662 0.961 . S
H677 C663 0.958 . S
H678 C663 0.961 . S
H679 C663 0.960 . S
C680 C681 1.391 . S
C680 C682 1.394 . S
C680 H696 0.931 . S
C681 C680 1.391 . S
C681 C685 1.376 . S
C682 C680 1.394 . S
C682 C683 1.369 . S
C682 C686 1.531 . S
C683 C682 1.369 . S
C683 C684 1.410 . S
C683 C691 1.503 . S
C684 C683 1.410 . S
C684 C685 1.392 . S
C684 C687 1.511 . S
C685 C681 1.376 . S
C685 C684 1.392 . S
C685 H697 0.929 . S
C686 C682 1.531 . S
C686 H698 0.960 . S
C686 H699 0.962 . S
C686 H700 0.960 . S
C687 C684 1.511 . S
C687 H701 0.961 . S
C687 H702 0.961 . S
C687 H703 0.961 . S
C688 C689 1.370 . S
C688 C690 1.363 . S
C688 H704 0.931 . S
C689 C688 1.370 . S
C689 C693 1.408 . S
C690 C688 1.363 . S
C690 C691 1.370 . S
C690 C694 1.524 . S
C691 C683 1.503 . S
C691 C690 1.370 . S
C691 C692 1.403 . S
C692 C691 1.403 . S
C692 C693 1.404 . S
C692 C695 1.539 . S
C693 C689 1.408 . S
C693 C692 1.404 . S
C693 H705 0.930 . S
C694 C690 1.524 . S
C694 H706 0.956 . S
C694 H707 0.961 . S
C694 H708 0.961 . S
C695 C692 1.539 . S
C695 H709 0.958 . S
C695 H710 0.961 . S
C695 H711 0.960 . S
H696 C680 0.931 . S
H697 C685 0.929 . S
H698 C686 0.960 . S
H699 C686 0.962 . S
H700 C686 0.960 . S
H701 C687 0.961 . S
H702 C687 0.961 . S
H703 C687 0.961 . S
H704 C688 0.931 . S
H705 C693 0.930 . S
H706 C694 0.956 . S
H707 C694 0.961 . S
H708 C694 0.961 . S
H709 C695 0.958 . S
H710 C695 0.961 . S
H711 C695 0.960 . S
C712 C713 1.391 . S
C712 C714 1.394 . S
C712 H728 0.931 . S
C713 C712 1.391 . S
C713 C717 1.376 . S
C714 C712 1.394 . S
C714 C715 1.369 . S
C714 C718 1.531 . S
C715 C714 1.369 . S
C715 C716 1.410 . S
C715 C723 1.503 . S
C716 C715 1.410 . S
C716 C717 1.392 . S
C716 C719 1.511 . S
C717 C713 1.376 . S
C717 C716 1.392 . S
C717 H729 0.929 . S
C718 C714 1.531 . S
C718 H730 0.960 . S
C718 H731 0.962 . S
C718 H732 0.960 . S
C719 C716 1.511 . S
C719 H733 0.961 . S
C719 H734 0.961 . S
C719 H735 0.961 . S
C720 C721 1.370 . S
C720 C722 1.363 . S
C720 H736 0.931 . S
C721 C720 1.370 . S
C721 C725 1.408 . S
C722 C720 1.363 . S
C722 C723 1.370 . S
C722 C726 1.524 . S
C723 C715 1.503 . S
C723 C722 1.370 . S
C723 C724 1.403 . S
C724 C723 1.403 . S
C724 C725 1.404 . S
C724 C727 1.539 . S
C725 C721 1.408 . S
C725 C724 1.404 . S
C725 H737 0.930 . S
C726 C722 1.524 . S
C726 H738 0.956 . S
C726 H739 0.961 . S
C726 H740 0.961 . S
C727 C724 1.539 . S
C727 H741 0.958 . S
C727 H742 0.961 . S
C727 H743 0.960 . S
H728 C712 0.931 . S
H729 C717 0.929 . S
H730 C718 0.960 . S
H731 C718 0.962 . S
H732 C718 0.960 . S
H733 C719 0.961 . S
H734 C719 0.961 . S
H735 C719 0.961 . S
H736 C720 0.931 . S
H737 C725 0.930 . S
H738 C726 0.956 . S
H739 C726 0.961 . S
H740 C726 0.961 . S
H741 C727 0.958 . S
H742 C727 0.961 . S
H743 C727 0.960 . S
C744 C745 1.391 . S
C744 C746 1.394 . S
C744 H760 0.931 . S
C745 C744 1.391 . S
C745 C749 1.376 . S
C746 C744 1.394 . S
C746 C747 1.369 . S
C746 C750 1.531 . S
C747 C746 1.369 . S
C747 C748 1.410 . S
C747 C755 1.503 . S
C748 C747 1.410 . S
C748 C749 1.392 . S
C748 C751 1.511 . S
C749 C745 1.376 . S
C749 C748 1.392 . S
C749 H761 0.929 . S
C750 C746 1.531 . S
C750 H762 0.960 . S
C750 H763 0.962 . S
C750 H764 0.960 . S
C751 C748 1.511 . S
C751 H765 0.961 . S
C751 H766 0.961 . S
C751 H767 0.961 . S
C752 C753 1.370 . S
C752 C754 1.363 . S
C752 H768 0.931 . S
C753 C752 1.370 . S
C753 C757 1.408 . S
C754 C752 1.363 . S
C754 C755 1.370 . S
C754 C758 1.524 . S
C755 C747 1.503 . S
C755 C754 1.370 . S
C755 C756 1.403 . S
C756 C755 1.403 . S
C756 C757 1.404 . S
C756 C759 1.539 . S
C757 C753 1.408 . S
C757 C756 1.404 . S
C757 H769 0.949 . S
C758 C754 1.524 . S
C758 H770 0.956 . S
C758 H771 0.961 . S
C758 H772 0.961 . S
C759 C756 1.539 . S
C759 H773 0.958 . S
C759 H774 0.961 1_556 S
C759 H775 0.960 . S
H760 C744 0.931 . S
H761 C749 0.929 . S
H762 C750 0.960 . S
H763 C750 0.962 . S
H764 C750 0.960 . S
H765 C751 0.961 . S
H766 C751 0.961 . S
H767 C751 0.961 . S
H768 C752 0.931 . S
H769 C757 0.949 . S
H770 C758 0.956 . S
H771 C758 0.961 . S
H772 C758 0.961 . S
H773 C759 0.958 . S
H774 C759 0.961 1_554 S
H775 C759 0.960 . S
C776 C777 1.391 . S
C776 C778 1.394 . S
C776 H792 0.931 . S
C777 C776 1.391 . S
C777 C781 1.376 . S
C778 C776 1.394 . S
C778 C779 1.369 . S
C778 C782 1.531 . S
C779 C778 1.369 . S
C779 C780 1.410 . S
C779 C787 1.503 . S
C780 C779 1.410 . S
C780 C781 1.392 . S
C780 C783 1.511 . S
C781 C777 1.376 . S
C781 C780 1.392 . S
C781 H793 0.929 . S
C782 C778 1.531 . S
C782 H794 0.960 . S
C782 H795 0.962 . S
C782 H796 0.960 . S
C783 C780 1.511 . S
C783 H797 0.961 . S
C783 H798 0.961 . S
C783 H799 0.961 . S
C784 C785 1.370 . S
C784 C786 1.363 . S
C784 H800 0.931 . S
C785 C784 1.370 . S
C785 C789 1.408 . S
C786 C784 1.363 . S
C786 C787 1.370 . S
C786 C790 1.524 . S
C787 C779 1.503 . S
C787 C786 1.370 . S
C787 C788 1.403 . S
C788 C787 1.403 . S
C788 C789 1.404 . S
C788 C791 1.540 . S
C789 C785 1.408 . S
C789 C788 1.404 . S
C789 H801 0.930 1_655 S
C790 C786 1.524 . S
C790 H802 0.956 . S
C790 H803 0.961 . S
C790 H804 0.961 . S
C791 C788 1.540 . S
C791 H805 0.958 . S
C791 H806 0.960 1_655 S
C791 H807 0.960 . S
H792 C776 0.931 . S
H793 C781 0.929 . S
H794 C782 0.960 . S
H795 C782 0.962 . S
H796 C782 0.960 . S
H797 C783 0.961 . S
H798 C783 0.961 . S
H799 C783 0.961 . S
H800 C784 0.931 . S
H801 C789 0.930 1_455 S
H802 C790 0.956 . S
H803 C790 0.961 . S
H804 C790 0.961 . S
H805 C791 0.958 . S
H806 C791 0.960 1_455 S
H807 C791 0.960 . S
C808 C809 1.391 . S
C808 C810 1.394 . S
C808 H824 0.931 . S
C809 C808 1.391 . S
C809 C813 1.376 . S
C810 C808 1.394 . S
C810 C811 1.369 . S
C810 C814 1.531 . S
C811 C810 1.369 . S
C811 C812 1.410 . S
C811 C819 1.503 . S
C812 C811 1.410 . S
C812 C813 1.392 . S
C812 C815 1.511 . S
C813 C809 1.376 . S
C813 C812 1.392 . S
C813 H825 0.929 . S
C814 C810 1.531 . S
C814 H826 0.960 . S
C814 H827 0.962 . S
C814 H828 0.960 . S
C815 C812 1.511 . S
C815 H829 0.961 . S
C815 H830 0.961 . S
C815 H831 0.961 . S
C816 C817 1.370 . S
C816 C818 1.363 . S
C816 H832 0.931 . S
C817 C816 1.370 . S
C817 C821 1.408 . S
C818 C816 1.363 . S
C818 C819 1.370 . S
C818 C822 1.524 . S
C819 C811 1.503 . S
C819 C818 1.370 . S
C819 C820 1.403 . S
C820 C819 1.403 . S
C820 C821 1.404 . S
C820 C823 1.539 . S
C821 C817 1.408 . S
C821 C820 1.404 . S
C821 H833 0.930 . S
C822 C818 1.524 . S
C822 H834 0.956 . S
C822 H835 0.961 . S
C822 H836 0.961 . S
C823 C820 1.539 . S
C823 H837 0.958 . S
C823 H838 0.961 . S
C823 H839 0.960 . S
H824 C808 0.931 . S
H825 C813 0.929 . S
H826 C814 0.960 . S
H827 C814 0.962 . S
H828 C814 0.960 . S
H829 C815 0.961 . S
H830 C815 0.961 . S
H831 C815 0.961 . S
H832 C816 0.931 . S
H833 C821 0.930 . S
H834 C822 0.956 . S
H835 C822 0.961 . S
H836 C822 0.961 . S
H837 C823 0.958 . S
H838 C823 0.961 . S
H839 C823 0.960 . S
C840 C841 1.391 . S
C840 C842 1.394 . S
C840 H856 0.931 . S
C841 C840 1.391 . S
C841 C845 1.376 . S
C842 C840 1.394 . S
C842 C843 1.369 . S
C842 C846 1.531 . S
C843 C842 1.369 . S
C843 C844 1.410 . S
C843 C851 1.503 . S
C844 C843 1.410 . S
C844 C845 1.392 . S
C844 C847 1.511 . S
C845 C841 1.376 . S
C845 C844 1.392 . S
C845 H857 0.929 . S
C846 C842 1.531 . S
C846 H858 0.960 . S
C846 H859 0.962 . S
C846 H860 0.960 . S
C847 C844 1.511 . S
C847 H861 0.961 . S
C847 H862 0.961 . S
C847 H863 0.961 . S
C848 C849 1.370 . S
C848 C850 1.363 . S
C848 H864 0.931 . S
C849 C848 1.370 . S
C849 C853 1.408 . S
C850 C848 1.363 . S
C850 C851 1.370 . S
C850 C854 1.524 . S
C851 C843 1.503 . S
C851 C850 1.370 . S
C851 C852 1.403 . S
C852 C851 1.403 . S
C852 C853 1.404 . S
C852 C855 1.539 . S
C853 C849 1.408 . S
C853 C852 1.404 . S
C853 H865 0.930 . S
C854 C850 1.524 . S
C854 H866 0.956 . S
C854 H867 0.961 . S
C854 H868 0.961 . S
C855 C852 1.539 . S
C855 H869 0.958 . S
C855 H870 0.961 . S
C855 H871 0.960 . S
H856 C840 0.931 . S
H857 C845 0.929 . S
H858 C846 0.960 . S
H859 C846 0.962 . S
H860 C846 0.960 . S
H861 C847 0.961 . S
H862 C847 0.961 . S
H863 C847 0.961 . S
H864 C848 0.931 . S
H865 C853 0.930 . S
H866 C854 0.956 . S
H867 C854 0.961 . S
H868 C854 0.961 . S
H869 C855 0.958 . S
H870 C855 0.961 . S
H871 C855 0.960 . S
C872 C873 1.391 . S
C872 C874 1.394 . S
C872 H888 0.931 . S
C873 C872 1.391 . S
C873 C877 1.376 . S
C874 C872 1.394 . S
C874 C875 1.369 . S
C874 C878 1.531 . S
C875 C874 1.369 . S
C875 C876 1.410 . S
C875 C883 1.503 . S
C876 C875 1.410 . S
C876 C877 1.392 . S
C876 C879 1.511 . S
C877 C873 1.376 . S
C877 C876 1.392 . S
C877 H889 0.929 . S
C878 C874 1.531 . S
C878 H890 0.960 . S
C878 H891 0.962 . S
C878 H892 0.960 . S
C879 C876 1.511 . S
C879 H893 0.961 . S
C879 H894 0.961 . S
C879 H895 0.961 . S
C880 C881 1.370 . S
C880 C882 1.363 . S
C880 H896 0.931 . S
C881 C880 1.370 . S
C881 C885 1.408 . S
C882 C880 1.363 . S
C882 C883 1.370 . S
C882 C886 1.524 . S
C883 C875 1.503 . S
C883 C882 1.370 . S
C883 C884 1.403 . S
C884 C883 1.403 . S
C884 C885 1.404 . S
C884 C887 1.539 . S
C885 C881 1.408 . S
C885 C884 1.404 . S
C885 H897 0.930 . S
C886 C882 1.524 . S
C886 H898 0.956 . S
C886 H899 0.961 . S
C886 H900 0.961 . S
C887 C884 1.539 . S
C887 H901 0.958 . S
C887 H902 0.961 . S
C887 H903 0.960 . S
H888 C872 0.931 . S
H889 C877 0.929 . S
H890 C878 0.960 . S
H891 C878 0.962 . S
H892 C878 0.960 . S
H893 C879 0.961 . S
H894 C879 0.961 . S
H895 C879 0.961 . S
H896 C880 0.931 . S
H897 C885 0.930 . S
H898 C886 0.956 . S
H899 C886 0.961 . S
H900 C886 0.961 . S
H901 C887 0.958 . S
H902 C887 0.961 . S
H903 C887 0.960 . S
C904 C905 1.391 . S
C904 C906 1.394 . S
C904 H920 0.931 . S
C905 C904 1.391 . S
C905 C909 1.376 . S
C906 C904 1.394 . S
C906 C907 1.369 . S
C906 C910 1.531 . S
C907 C906 1.369 . S
C907 C908 1.410 . S
C907 C915 1.503 . S
C908 C907 1.410 . S
C908 C909 1.392 . S
C908 C911 1.511 . S
C909 C905 1.376 . S
C909 C908 1.392 . S
C909 H921 0.929 . S
C910 C906 1.531 . S
C910 H922 0.960 . S
C910 H923 0.962 . S
C910 H924 0.960 . S
C911 C908 1.511 . S
C911 H925 0.961 . S
C911 H926 0.961 . S
C911 H927 0.961 . S
C912 C913 1.370 . S
C912 C914 1.363 . S
C912 H928 0.931 . S
C913 C912 1.370 . S
C913 C917 1.408 . S
C914 C912 1.363 . S
C914 C915 1.370 . S
C914 C918 1.524 . S
C915 C907 1.503 . S
C915 C914 1.370 . S
C915 C916 1.403 . S
C916 C915 1.403 . S
C916 C917 1.404 . S
C916 C919 1.539 . S
C917 C913 1.408 . S
C917 C916 1.404 . S
C917 H929 0.930 . S
C918 C914 1.524 . S
C918 H930 0.956 . S
C918 H931 0.961 . S
C918 H932 0.961 . S
C919 C916 1.539 . S
C919 H933 0.973 . S
C919 H934 0.960 . S
C919 H935 0.960 . S
H920 C904 0.931 . S
H921 C909 0.929 . S
H922 C910 0.960 . S
H923 C910 0.962 . S
H924 C910 0.960 . S
H925 C911 0.961 . S
H926 C911 0.961 . S
H927 C911 0.961 . S
H928 C912 0.931 . S
H929 C917 0.930 . S
H930 C918 0.956 . S
H931 C918 0.961 . S
H932 C918 0.961 . S
H933 C919 0.973 . S
H934 C919 0.960 . S
H935 C919 0.960 . S
C936 C937 1.391 . S
C936 C938 1.394 . S
C936 H952 0.931 . S
C937 C936 1.391 . S
C937 C941 1.376 . S
C938 C936 1.394 . S
C938 C939 1.369 . S
C938 C942 1.531 . S
C939 C938 1.369 . S
C939 C940 1.410 . S
C939 C947 1.503 . S
C940 C939 1.410 . S
C940 C941 1.392 . S
C940 C943 1.511 . S
C941 C937 1.376 . S
C941 C940 1.392 . S
C941 H953 0.929 . S
C942 C938 1.531 . S
C942 H954 0.960 . S
C942 H955 0.962 . S
C942 H956 0.960 . S
C943 C940 1.511 . S
C943 H957 0.961 . S
C943 H958 0.961 . S
C943 H959 0.961 . S
C944 C945 1.370 . S
C944 C946 1.363 . S
C944 H960 0.931 . S
C945 C944 1.370 . S
C945 C949 1.408 . S
C946 C944 1.363 . S
C946 C947 1.370 . S
C946 C950 1.524 . S
C947 C939 1.503 . S
C947 C946 1.370 . S
C947 C948 1.403 . S
C948 C947 1.403 . S
C948 C949 1.404 . S
C948 C951 1.539 . S
C949 C945 1.408 . S
C949 C948 1.404 . S
C949 H961 0.930 1_455 S
C950 C946 1.524 . S
C950 H962 0.956 . S
C950 H963 0.961 . S
C950 H964 0.961 . S
C951 C948 1.539 . S
C951 H965 0.958 1_455 S
C951 H966 0.961 1_455 S
C951 H967 0.960 . S
H952 C936 0.931 . S
H953 C941 0.929 . S
H954 C942 0.960 . S
H955 C942 0.962 . S
H956 C942 0.960 . S
H957 C943 0.961 . S
H958 C943 0.961 . S
H959 C943 0.961 . S
H960 C944 0.931 . S
H961 C949 0.930 1_655 S
H962 C950 0.956 . S
H963 C950 0.961 . S
H964 C950 0.961 . S
H965 C951 0.958 1_655 S
H966 C951 0.961 1_655 S
H967 C951 0.960 . S
C968 C969 1.391 . S
C968 C970 1.394 . S
C968 H984 0.931 . S
C969 C968 1.391 . S
C969 C973 1.376 . S
C970 C968 1.394 . S
C970 C971 1.369 . S
C970 C974 1.531 . S
C971 C970 1.369 . S
C971 C972 1.410 . S
C971 C979 1.503 . S
C972 C971 1.410 . S
C972 C973 1.392 . S
C972 C975 1.511 . S
C973 C969 1.376 . S
C973 C972 1.392 . S
C973 H985 0.929 . S
C974 C970 1.531 . S
C974 H986 0.960 . S
C974 H987 0.962 . S
C974 H988 0.960 . S
C975 C972 1.511 . S
C975 H989 0.961 . S
C975 H990 0.961 . S
C975 H991 0.961 . S
C976 C977 1.370 . S
C976 C978 1.363 . S
C976 H992 0.931 . S
C977 C976 1.370 . S
C977 C981 1.408 . S
C978 C976 1.363 . S
C978 C979 1.370 . S
C978 C982 1.524 . S
C979 C971 1.503 . S
C979 C978 1.370 . S
C979 C980 1.403 . S
C980 C979 1.403 . S
C980 C981 1.404 . S
C980 C983 1.539 . S
C981 C977 1.408 . S
C981 C980 1.404 . S
C981 H993 0.930 . S
C982 C978 1.524 . S
C982 H994 0.956 . S
C982 H995 0.961 . S
C982 H996 0.961 . S
C983 C980 1.539 . S
C983 H997 0.958 . S
C983 H998 0.961 . S
C983 H999 0.960 . S
H984 C968 0.931 . S
H985 C973 0.929 . S
H986 C974 0.960 . S
H987 C974 0.962 . S
H988 C974 0.960 . S
H989 C975 0.961 . S
H990 C975 0.961 . S
H991 C975 0.961 . S
H992 C976 0.931 . S
H993 C981 0.930 . S
H994 C982 0.956 . S
H995 C982 0.961 . S
H996 C982 0.961 . S
H997 C983 0.958 . S
H998 C983 0.961 . S
H999 C983 0.960 . S
C233 C5 0.862 . S
C241 C76 0.820 . S
C265 C14 0.979 . S
C273 C137 1.000 . S
C305 C175 2.530 . S
C297 C25 2.574 . S
C329 C34 2.393 . S
C337 C215 2.348 . S
C369 C135 1.089 . S
C361 C7 1.083 . S
C401 C103 1.787 . S
C393 C13 1.705 . S
C433 C212 1.772 . S
C425 C23 1.790 . S
C465 C172 1.885 . S
C457 C31 1.908 . S
C489 C4 0.986 . S
C497 C217 1.026 . S
C529 C132 2.368 . S
C521 C22 2.360 . S
C553 C32 2.238 . S
C561 C74 2.197 . S
C585 C16 1.256 . S
C593 C177 1.284 . S
C625 C97 0.813 . S
C617 C41 0.820 . S
C649 C50 0.977 . S
C657 C116 1.012 . S
C681 C61 2.566 . S
C689 C154 2.525 . S
C713 C67 2.403 . S
C721 C194 2.369 . S
C745 C40 1.110 . S
C753 C114 1.109 . S
C785 C92 1.767 . S
C777 C52 1.712 . S
C817 C223 1.778 . S
C809 C59 1.785 . S
C849 C183 1.882 . S
C841 C70 1.904 . S
C873 C43 0.993 . S
C881 C196 1.015 . S
C913 C143 2.381 . S
C905 C58 2.373 . S
C945 C95 2.178 . S
C937 C68 2.220 . S
C969 C49 1.281 . S
C977 C156 1.289 . S
