# Generated by pormake.
# Topology apo, (3,6)-cn, num edge types: 1
# Building blocks:
#     Node 0, Type 0, BuildingBlock: BETDIP_clean_linker_0, # of connection points: 3
#     Node 1, Type 0, BuildingBlock: BETDIP_clean_linker_0, # of connection points: 3
#     Node 2, Type 0, BuildingBlock: BETDIP_clean_linker_0, # of connection points: 3
#     Node 3, Type 0, BuildingBlock: BETDIP_clean_linker_0, # of connection points: 3
#     Node 4, Type 0, BuildingBlock: BETDIP_clean_linker_0, # of connection points: 3
#     Node 5, Type 0, BuildingBlock: BETDIP_clean_linker_0, # of connection points: 3
#     Node 6, Type 0, BuildingBlock: BETDIP_clean_linker_0, # of connection points: 3
#     Node 7, Type 0, BuildingBlock: BETDIP_clean_linker_0, # of connection points: 3
#     Node 8, Type 1, BuildingBlock: KUMJIN_clean_sbu_1, # of connection points: 6
#     Node 9, Type 1, BuildingBlock: KUMJIN_clean_sbu_1, # of connection points: 6
#     Node 10, Type 1, BuildingBlock: KUMJIN_clean_sbu_1, # of connection points: 6
#     Node 11, Type 1, BuildingBlock: KUMJIN_clean_sbu_1, # of connection points: 6
#     Edge 12, Type (0, 1), BuildingBlock: UVAHIK_clean_linker_0, # of connection points: 2
#     Edge 13, Type (0, 1), BuildingBlock: UVAHIK_clean_linker_0, # of connection points: 2
#     Edge 14, Type (0, 1), BuildingBlock: UVAHIK_clean_linker_0, # of connection points: 2
#     Edge 15, Type (0, 1), BuildingBlock: UVAHIK_clean_linker_0, # of connection points: 2
#     Edge 16, Type (0, 1), BuildingBlock: UVAHIK_clean_linker_0, # of connection points: 2
#     Edge 17, Type (0, 1), BuildingBlock: UVAHIK_clean_linker_0, # of connection points: 2
#     Edge 18, Type (0, 1), BuildingBlock: UVAHIK_clean_linker_0, # of connection points: 2
#     Edge 19, Type (0, 1), BuildingBlock: UVAHIK_clean_linker_0, # of connection points: 2
#     Edge 20, Type (0, 1), BuildingBlock: UVAHIK_clean_linker_0, # of connection points: 2
#     Edge 21, Type (0, 1), BuildingBlock: UVAHIK_clean_linker_0, # of connection points: 2
#     Edge 22, Type (0, 1), BuildingBlock: UVAHIK_clean_linker_0, # of connection points: 2
#     Edge 23, Type (0, 1), BuildingBlock: UVAHIK_clean_linker_0, # of connection points: 2
#     Edge 24, Type (0, 1), BuildingBlock: UVAHIK_clean_linker_0, # of connection points: 2
#     Edge 25, Type (0, 1), BuildingBlock: UVAHIK_clean_linker_0, # of connection points: 2
#     Edge 26, Type (0, 1), BuildingBlock: UVAHIK_clean_linker_0, # of connection points: 2
#     Edge 27, Type (0, 1), BuildingBlock: UVAHIK_clean_linker_0, # of connection points: 2
#     Edge 28, Type (0, 1), BuildingBlock: UVAHIK_clean_linker_0, # of connection points: 2
#     Edge 29, Type (0, 1), BuildingBlock: UVAHIK_clean_linker_0, # of connection points: 2
#     Edge 30, Type (0, 1), BuildingBlock: UVAHIK_clean_linker_0, # of connection points: 2
#     Edge 31, Type (0, 1), BuildingBlock: UVAHIK_clean_linker_0, # of connection points: 2
#     Edge 32, Type (0, 1), BuildingBlock: UVAHIK_clean_linker_0, # of connection points: 2
#     Edge 33, Type (0, 1), BuildingBlock: UVAHIK_clean_linker_0, # of connection points: 2
#     Edge 34, Type (0, 1), BuildingBlock: UVAHIK_clean_linker_0, # of connection points: 2
#     Edge 35, Type (0, 1), BuildingBlock: UVAHIK_clean_linker_0, # of connection points: 2
# Relax obj value: 0.038
# Max RMSD: 0.187
# Mean RMSD: 0.149
data_MOF--net-apo--node1-KUMJIN_clean_sbu_1--node2-BETDIP_clean_linker_0--edge1-UVAHIK_clean_linker_0
_symmetry_space_group_name_H-M    P1
_symmetry_Int_Tables_number       1
_symmetry_cell_setting            triclinic
loop_
_symmetry_equiv_pos_as_xyz
'x, y, z'
_cell_length_a     35.212004
_cell_length_b     54.902011
_cell_length_c     64.837432
_cell_angle_alpha  90.041285
_cell_angle_beta   89.976292
_cell_angle_gamma 90.025549
loop_
_atom_site_label
_atom_site_type_symbol
_atom_site_fract_x
_atom_site_fract_y
_atom_site_fract_z
_atom_type_partial_charge
H0 H 0.28276 0.34359 0.44064 0.0
H1 H 0.29454 0.37433 0.37997 0.0
H2 H 0.35577 0.40557 0.43067 0.0
H3 H 0.23078 0.36112 0.37934 0.0
C4 C 0.23565 0.34268 0.38483 0.0
C5 C 0.29562 0.35688 0.43045 0.0
C6 C 0.32027 0.37477 0.43843 0.0
C7 C 0.28565 0.35684 0.40949 0.0
C8 C 0.30136 0.37447 0.39626 0.0
C9 C 0.32684 0.39196 0.40383 0.0
C10 C 0.33634 0.39188 0.42483 0.0
N11 N 0.26005 0.33883 0.40201 0.0
H12 H 0.22523 0.16132 0.94059 0.0
H13 H 0.21872 0.13058 0.87967 0.0
H14 H 0.15402 0.09886 0.92881 0.0
H15 H 0.28199 0.14459 0.88036 0.0
C16 C 0.27614 0.16295 0.88579 0.0
C17 C 0.21337 0.14797 0.93011 0.0
C18 C 0.18847 0.12987 0.9375 0.0
C19 C 0.22489 0.14815 0.90939 0.0
C20 C 0.21063 0.1304 0.89579 0.0
C21 C 0.18493 0.11273 0.90275 0.0
C22 C 0.17372 0.11269 0.9235 0.0
N23 N 0.25053 0.16646 0.90249 0.0
H24 H 0.77599 0.16224 0.57006 0.0
H25 H 0.78555 0.12703 0.62899 0.0
H26 H 0.85069 0.10084 0.57763 0.0
H27 H 0.73072 0.14433 0.63527 0.0
C28 C 0.73042 0.16149 0.62698 0.0
C29 C 0.78843 0.14821 0.57967 0.0
C30 C 0.81441 0.13151 0.57119 0.0
C31 C 0.7774 0.14664 0.60039 0.0
C32 C 0.79328 0.12833 0.61291 0.0
C33 C 0.81937 0.11147 0.60477 0.0
C34 C 0.82979 0.11329 0.5839 0.0
N35 N 0.75091 0.16399 0.60817 0.0
H36 H 0.72462 0.34197 0.07033 0.0
H37 H 0.71553 0.37739 0.12925 0.0
H38 H 0.65112 0.40414 0.07796 0.0
H39 H 0.76943 0.35891 0.13594 0.0
C40 C 0.76954 0.34193 0.12738 0.0
C41 C 0.71243 0.35613 0.07991 0.0
C42 C 0.68638 0.37283 0.07146 0.0
C43 C 0.72376 0.35776 0.10057 0.0
C44 C 0.70838 0.37627 0.11307 0.0
C45 C 0.68233 0.3931 0.10497 0.0
C46 C 0.67137 0.39124 0.08419 0.0
N47 N 0.74965 0.34004 0.10834 0.0
H48 H 0.72422 0.6615 0.5712 0.0
H49 H 0.71551 0.62889 0.63128 0.0
H50 H 0.66198 0.5945 0.57948 0.0
H51 H 0.77788 0.64449 0.632 0.0
C52 C 0.77139 0.66287 0.62686 0.0
C53 C 0.71346 0.64711 0.58104 0.0
C54 C 0.69198 0.6279 0.57255 0.0
C55 C 0.72285 0.64729 0.60206 0.0
C56 C 0.70918 0.62863 0.61493 0.0
C57 C 0.68754 0.60947 0.6068 0.0
C58 C 0.6792 0.60917 0.58565 0.0
N59 N 0.74617 0.66629 0.60997 0.0
H60 H 0.78073 0.84418 0.07071 0.0
H61 H 0.78618 0.87846 0.13026 0.0
H62 H 0.85255 0.90688 0.08036 0.0
H63 H 0.72503 0.86306 0.13157 0.0
C64 C 0.7303 0.84472 0.12593 0.0
C65 C 0.79237 0.85818 0.08065 0.0
C66 C 0.81789 0.87559 0.0727 0.0
C67 C 0.78032 0.85924 0.10126 0.0
C68 C 0.79444 0.87772 0.11419 0.0
C69 C 0.82051 0.89487 0.10668 0.0
C70 C 0.83233 0.89359 0.08604 0.0
N71 N 0.75479 0.84117 0.10874 0.0
H72 H 0.22414 0.84215 0.4392 0.0
H73 H 0.21699 0.87749 0.38022 0.0
H74 H 0.15292 0.90517 0.43147 0.0
H75 H 0.27138 0.85899 0.37432 0.0
C76 C 0.27048 0.8418 0.38255 0.0
C77 C 0.21252 0.85644 0.42956 0.0
C78 C 0.18748 0.87375 0.438 0.0
C79 C 0.22375 0.85773 0.40886 0.0
C80 C 0.20903 0.8764 0.39629 0.0
C81 C 0.18381 0.89386 0.40437 0.0
C82 C 0.17318 0.89228 0.42523 0.0
N83 N 0.24927 0.83973 0.40116 0.0
H84 H 0.28178 0.66463 0.93793 0.0
H85 H 0.2939 0.63115 0.87829 0.0
H86 H 0.35357 0.60189 0.93035 0.0
H87 H 0.23973 0.6492 0.87173 0.0
C88 C 0.23933 0.66611 0.8804 0.0
C89 C 0.29427 0.65072 0.92818 0.0
C90 C 0.31846 0.63308 0.93676 0.0
C91 C 0.28474 0.65005 0.9072 0.0
C92 C 0.30056 0.63179 0.89454 0.0
C93 C 0.32501 0.61406 0.90281 0.0
C94 C 0.33395 0.61504 0.9239 0.0
N95 N 0.25933 0.66801 0.8994 0.0
Eu96 Eu 0.05225 0.11895 0.23718 0.0
C97 C 0.88412 0.09247 0.25735 0.0
N98 N 0.90018 0.11476 0.25446 0.0
C99 C 0.84868 0.12671 0.23257 0.0
C100 C 0.84984 0.08627 0.24738 0.0
C101 C 0.88281 0.13201 0.24263 0.0
C102 C 0.8322 0.10372 0.23488 0.0
C103 C 0.8864 0.05236 0.27303 0.0
C104 C 0.90253 0.07564 0.26994 0.0
C105 C 0.85274 0.04598 0.26275 0.0
C106 C 0.83449 0.06288 0.25 0.0
Eu107 Eu 0.95705 0.12227 0.2725 0.0
N108 N 0.93519 0.08226 0.27976 0.0
C109 C 0.90395 0.0364 0.28686 0.0
C110 C 0.95005 0.06759 0.29474 0.0
C111 C 0.93547 0.04424 0.29806 0.0
H112 H 0.89524 0.14988 0.24111 0.0
H113 H 0.94803 0.03252 0.30961 0.0
H114 H 0.11518 0.091 0.26755 0.0
H115 H 0.05452 0.212 0.20587 0.0
H116 H 0.97234 0.07393 0.30474 0.0
H117 H 0.89244 0.01839 0.28965 0.0
H118 H 0.03398 0.16942 0.20769 0.0
H119 H 0.83509 0.14037 0.22308 0.0
H120 H 0.8402 0.02812 0.26484 0.0
H121 H 0.80836 0.05773 0.24232 0.0
H122 H 0.17365 0.10108 0.28701 0.0
H123 H 0.80586 0.09963 0.22697 0.0
H124 H 0.1079 0.22634 0.22744 0.0
N125 N 0.10833 0.12685 0.25586 0.0
C126 C 0.12247 0.14987 0.25463 0.0
C127 C 0.15948 0.11496 0.27801 0.0
C128 C 0.15541 0.15647 0.26566 0.0
C129 C 0.12647 0.1093 0.26703 0.0
C130 C 0.17391 0.13866 0.27741 0.0
N131 N 0.07119 0.16016 0.23241 0.0
C132 C 0.0554 0.17561 0.2183 0.0
C133 C 0.11679 0.19117 0.24172 0.0
C134 C 0.10297 0.16707 0.24294 0.0
C135 C 0.09816 0.20769 0.22881 0.0
C136 C 0.06785 0.19971 0.21672 0.0
H137 H 0.19928 0.14304 0.28611 0.0
H138 H 0.19352 0.18608 0.27343 0.0
H139 H 0.1599 0.2164 0.25238 0.0
O140 O 0.06691 0.11806 0.20389 0.0
O141 O 0.05557 0.13384 0.26989 0.0
O142 O 0.99902 0.15362 0.27415 0.0
O143 O 0.09771 0.0957 0.22608 0.0
O144 O 0.99957 0.13693 0.22317 0.0
O145 O 0.97179 0.15394 0.25187 0.0
O146 O 0.94403 0.12558 0.30589 0.0
O147 O 0.95259 0.10455 0.24065 0.0
O148 O 0.01127 0.08732 0.23527 0.0
O149 O 0.9122 0.14631 0.28293 0.0
O150 O 0.00867 0.10254 0.2858 0.0
O151 O 0.03992 0.08626 0.25745 0.0
C152 C 0.03561 0.15183 0.2775 0.0
C153 C 0.11858 0.09205 0.19066 0.0
C154 C 0.13787 0.08819 0.15455 0.0
C155 C 0.16554 0.07111 0.1605 0.0
C156 C 0.14649 0.0749 0.19609 0.0
C157 C 0.16978 0.06459 0.1811 0.0
C158 C 0.11454 0.09883 0.16979 0.0
C159 C 0.97638 0.15282 0.23182 0.0
C160 C 0.09392 0.10228 0.20698 0.0
C161 C 0.16847 0.18061 0.2649 0.0
C162 C 0.1492 0.19791 0.25299 0.0
C163 C 0.97439 0.08771 0.23243 0.0
C164 C 0.89306 0.15278 0.3183 0.0
C165 C 0.87546 0.15951 0.35435 0.0
C166 C 0.84807 0.1765 0.34789 0.0
C167 C 0.86538 0.16983 0.31232 0.0
C168 C 0.89781 0.14749 0.33941 0.0
C169 C 0.84307 0.18154 0.32703 0.0
C170 C 0.03117 0.08614 0.27722 0.0
C171 C 0.91695 0.14121 0.30229 0.0
H172 H 0.18428 0.06295 0.14918 0.0
H173 H 0.15036 0.06936 0.21199 0.0
H174 H 0.19123 0.05145 0.18548 0.0
H175 H 0.09304 0.11195 0.16538 0.0
H176 H 0.83012 0.18571 0.359 0.0
H177 H 0.86097 0.17426 0.29622 0.0
H178 H 0.91913 0.13446 0.34424 0.0
H179 H 0.82182 0.1946 0.32223 0.0
Eu180 Eu 0.45377 0.38742 0.73831 0.0
C181 C 0.62119 0.41387 0.75179 0.0
N182 N 0.60601 0.3911 0.75089 0.0
C183 C 0.65405 0.37859 0.72696 0.0
C184 C 0.653 0.42006 0.73965 0.0
C185 C 0.62225 0.37334 0.73909 0.0
C186 C 0.66934 0.40209 0.72713 0.0
C187 C 0.61908 0.45502 0.76542 0.0
C188 C 0.60401 0.43122 0.76439 0.0
C189 C 0.65025 0.46138 0.75301 0.0
C190 C 0.66717 0.44395 0.74018 0.0
Eu191 Eu 0.55175 0.38407 0.77136 0.0
N192 N 0.57341 0.4247 0.77605 0.0
C193 C 0.60299 0.47159 0.7793 0.0
C194 C 0.56033 0.44007 0.79103 0.0
C195 C 0.57405 0.4639 0.79247 0.0
H196 H 0.61044 0.35518 0.73899 0.0
H197 H 0.56278 0.47618 0.80401 0.0
H198 H 0.39541 0.41823 0.76948 0.0
H199 H 0.44286 0.29345 0.7096 0.0
H200 H 0.54002 0.43399 0.80233 0.0
H201 H 0.61375 0.49003 0.78055 0.0
H202 H 0.46661 0.3354 0.70994 0.0
H203 H 0.66666 0.36456 0.71744 0.0
H204 H 0.66187 0.47965 0.75347 0.0
H205 H 0.69135 0.44911 0.73081 0.0
H206 H 0.338 0.41054 0.79057 0.0
H207 H 0.69379 0.40615 0.71758 0.0
H208 H 0.38997 0.28153 0.73254 0.0
N209 N 0.39881 0.38184 0.75851 0.0
C210 C 0.38293 0.35925 0.75814 0.0
C211 C 0.35043 0.39596 0.78158 0.0
C212 C 0.35042 0.35402 0.77005 0.0
C213 C 0.3829 0.40026 0.76971 0.0
C214 C 0.33422 0.37273 0.78183 0.0
N215 N 0.43167 0.34667 0.73507 0.0
C216 C 0.44543 0.33026 0.72109 0.0
C217 C 0.38461 0.31742 0.74609 0.0
C218 C 0.40022 0.3411 0.74642 0.0
C219 C 0.40112 0.29991 0.73324 0.0
C220 C 0.43116 0.30651 0.72038 0.0
H221 H 0.30925 0.36941 0.7912 0.0
H222 H 0.31082 0.32588 0.77935 0.0
H223 H 0.34054 0.2939 0.75828 0.0
O224 O 0.43813 0.38747 0.70516 0.0
O225 O 0.45288 0.3729 0.77119 0.0
O226 O 0.50966 0.3531 0.77519 0.0
O227 O 0.4078 0.41028 0.72729 0.0
O228 O 0.50431 0.36736 0.724 0.0
O229 O 0.53591 0.35125 0.75214 0.0
O230 O 0.56772 0.38251 0.80443 0.0
O231 O 0.5521 0.39907 0.7386 0.0
O232 O 0.4952 0.41872 0.73469 0.0
O233 O 0.59832 0.36109 0.78141 0.0
O234 O 0.50137 0.40436 0.78551 0.0
O235 O 0.46881 0.42045 0.75757 0.0
C236 C 0.47299 0.3548 0.77848 0.0
C237 C 0.3858 0.41295 0.69201 0.0
C238 C 0.36592 0.41629 0.65596 0.0
C239 C 0.33765 0.43295 0.66198 0.0
C240 C 0.35728 0.42967 0.69751 0.0
C241 C 0.33339 0.43951 0.68258 0.0
C242 C 0.38983 0.40611 0.67114 0.0
C243 C 0.52745 0.35122 0.73239 0.0
C244 C 0.41106 0.40324 0.70827 0.0
C245 C 0.33555 0.3303 0.77014 0.0
C246 C 0.35261 0.31205 0.75822 0.0
C247 C 0.532 0.41744 0.73181 0.0
C248 C 0.62075 0.35688 0.81651 0.0
C249 C 0.63877 0.34985 0.85245 0.0
C250 C 0.66885 0.33505 0.84565 0.0
C251 C 0.6512 0.34207 0.81019 0.0
C252 C 0.6149 0.36102 0.83776 0.0
C253 C 0.67508 0.33132 0.82468 0.0
C254 C 0.47872 0.42081 0.77715 0.0
C255 C 0.59504 0.36711 0.80069 0.0
H256 H 0.31848 0.44075 0.65071 0.0
H257 H 0.35336 0.43523 0.7134 0.0
H258 H 0.31149 0.45232 0.68701 0.0
H259 H 0.4118 0.39333 0.66667 0.0
H260 H 0.68782 0.32649 0.85663 0.0
H261 H 0.65656 0.33864 0.794 0.0
H262 H 0.59147 0.3723 0.84287 0.0
H263 H 0.69841 0.31995 0.81964 0.0
Eu264 Eu 0.0481 0.88484 0.73758 0.0
C265 C 0.88167 0.85901 0.75542 0.0
N266 N 0.89655 0.88186 0.75454 0.0
C267 C 0.84548 0.895 0.73286 0.0
C268 C 0.8483 0.85315 0.74447 0.0
C269 C 0.87888 0.89992 0.74375 0.0
C270 C 0.83021 0.87151 0.73314 0.0
C271 C 0.88643 0.81725 0.76737 0.0
C272 C 0.90091 0.84122 0.76659 0.0
C273 C 0.85349 0.81128 0.75623 0.0
C274 C 0.83447 0.82918 0.74485 0.0
Eu275 Eu 0.95317 0.88851 0.77306 0.0
N276 N 0.93327 0.84737 0.77692 0.0
C277 C 0.90502 0.80008 0.77967 0.0
C278 C 0.94912 0.83127 0.79046 0.0
C279 C 0.93602 0.80728 0.7916 0.0
H280 H 0.89073 0.91807 0.74353 0.0
H281 H 0.94936 0.79447 0.80201 0.0
H282 H 0.10958 0.85678 0.76888 0.0
H283 H 0.05794 0.9747 0.70078 0.0
H284 H 0.97102 0.83687 0.801 0.0
H285 H 0.89479 0.78151 0.78069 0.0
H286 H 0.03294 0.93346 0.70568 0.0
H287 H 0.83163 0.9093 0.72419 0.0
H288 H 0.84225 0.79291 0.75652 0.0
H289 H 0.80905 0.82428 0.73639 0.0
H290 H 0.17004 0.86584 0.78675 0.0
H291 H 0.80453 0.86771 0.72452 0.0
H292 H 0.11418 0.98832 0.72045 0.0
N293 N 0.10524 0.89192 0.75547 0.0
C294 C 0.12169 0.91408 0.75254 0.0
C295 C 0.15664 0.87959 0.77727 0.0
C296 C 0.15618 0.92001 0.76242 0.0
C297 C 0.12234 0.87456 0.7673 0.0
C298 C 0.17357 0.90244 0.7749 0.0
N299 N 0.07051 0.92472 0.73036 0.0
C300 C 0.05557 0.93958 0.71555 0.0
C301 C 0.11992 0.95424 0.73694 0.0
C302 C 0.10345 0.93107 0.74004 0.0
C303 C 0.10241 0.97038 0.72324 0.0
C304 C 0.07052 0.96283 0.71221 0.0
H305 H 0.20005 0.90633 0.78274 0.0
H306 H 0.19823 0.94823 0.76737 0.0
H307 H 0.16666 0.97812 0.74499 0.0
O308 O 0.06025 0.88155 0.70408 0.0
O309 O 0.05278 0.90286 0.76929 0.0
O310 O 0.99415 0.92013 0.77493 0.0
O311 O 0.09272 0.86085 0.72679 0.0
O312 O 0.99645 0.90466 0.72446 0.0
O313 O 0.96539 0.9212 0.75279 0.0
O314 O 0.93924 0.88801 0.80633 0.0
O315 O 0.94954 0.87345 0.74042 0.0
O316 O 0.00601 0.85356 0.73627 0.0
O317 O 0.90837 0.91178 0.78521 0.0
O318 O 0.00588 0.87051 0.78692 0.0
O319 O 0.03402 0.85322 0.75839 0.0
C320 C 0.03113 0.91983 0.77744 0.0
C321 C 0.11093 0.85436 0.69127 0.0
C322 C 0.12773 0.84762 0.6551 0.0
C323 C 0.15507 0.83051 0.66137 0.0
C324 C 0.13857 0.83718 0.69705 0.0
C325 C 0.16046 0.82542 0.68219 0.0
C326 C 0.10581 0.85972 0.67018 0.0
C327 C 0.97417 0.9212 0.73302 0.0
C328 C 0.08744 0.86593 0.70746 0.0
C329 C 0.17193 0.94329 0.75977 0.0
C330 C 0.15384 0.96035 0.7471 0.0
C331 C 0.96946 0.85544 0.73284 0.0
C332 C 0.88872 0.91364 0.82104 0.0
C333 C 0.86607 0.91209 0.8567 0.0
C334 C 0.84074 0.93118 0.8523 0.0
C335 C 0.86314 0.93273 0.81711 0.0
C336 C 0.8904 0.90351 0.84101 0.0
C337 C 0.83946 0.94145 0.83267 0.0
C338 C 0.02901 0.8545 0.77841 0.0
C339 C 0.91244 0.90413 0.80402 0.0
H340 H 0.17268 0.82123 0.65014 0.0
H341 H 0.14326 0.83269 0.71311 0.0
H342 H 0.18167 0.81225 0.68684 0.0
H343 H 0.08453 0.87285 0.6655 0.0
H344 H 0.82211 0.93835 0.86414 0.0
H345 H 0.86127 0.94092 0.80195 0.0
H346 H 0.9098 0.88867 0.84422 0.0
H347 H 0.8199 0.95618 0.82947 0.0
Eu348 Eu 0.45946 0.62208 0.23959 0.0
C349 C 0.62103 0.65479 0.25382 0.0
N350 N 0.60967 0.63113 0.25322 0.0
C351 C 0.6606 0.62124 0.2302 0.0
C352 C 0.65229 0.66274 0.242 0.0
C353 C 0.62919 0.61423 0.24198 0.0
C354 C 0.67207 0.64562 0.2301 0.0
C355 C 0.61165 0.69592 0.26655 0.0
C356 C 0.60058 0.67122 0.26585 0.0
C357 C 0.64215 0.70401 0.25437 0.0
C358 C 0.66245 0.68746 0.24217 0.0
Eu359 Eu 0.55629 0.62095 0.27338 0.0
N360 N 0.57074 0.66298 0.2773 0.0
C361 C 0.59238 0.71168 0.27989 0.0
C362 C 0.55483 0.67772 0.2919 0.0
C363 C 0.56444 0.7024 0.29297 0.0
H364 H 0.62012 0.59541 0.24197 0.0
H365 H 0.55087 0.71412 0.3042 0.0
H366 H 0.40587 0.66856 0.25626 0.0
H367 H 0.42627 0.52506 0.23388 0.0
H368 H 0.53551 0.67053 0.30325 0.0
H369 H 0.6 0.73077 0.28087 0.0
H370 H 0.46516 0.56199 0.2293 0.0
H371 H 0.67581 0.60789 0.22111 0.0
H372 H 0.65067 0.72298 0.25454 0.0
H373 H 0.68607 0.69396 0.23298 0.0
H374 H 0.34327 0.67492 0.27269 0.0
H375 H 0.69619 0.65103 0.22079 0.0
H376 H 0.3627 0.52798 0.24994 0.0
N377 N 0.3998 0.63015 0.25459 0.0
C378 C 0.37676 0.61059 0.2576 0.0
C379 C 0.35243 0.65673 0.26862 0.0
C380 C 0.3405 0.6134 0.26651 0.0
C381 C 0.38803 0.65306 0.25959 0.0
C382 C 0.3286 0.63681 0.27218 0.0
N383 N 0.42486 0.58547 0.24343 0.0
C384 C 0.43784 0.56348 0.23664 0.0
C385 C 0.36605 0.56703 0.25435 0.0
C386 C 0.3894 0.58764 0.25162 0.0
C387 C 0.37974 0.54427 0.24806 0.0
C388 C 0.41568 0.54253 0.23906 0.0
H389 H 0.30096 0.63972 0.2791 0.0
H390 H 0.28936 0.59467 0.27626 0.0
H391 H 0.31172 0.55412 0.26562 0.0
O392 O 0.46036 0.61586 0.20625 0.0
O393 O 0.45658 0.60053 0.26964 0.0
O394 O 0.5175 0.58897 0.27927 0.0
O395 O 0.4197 0.64095 0.21933 0.0
O396 O 0.50806 0.5987 0.22748 0.0
O397 O 0.5472 0.58663 0.25461 0.0
O398 O 0.57525 0.62291 0.3059 0.0
O399 O 0.55528 0.6334 0.23978 0.0
O400 O 0.49961 0.65415 0.23828 0.0
O401 O 0.60432 0.59933 0.28387 0.0
O402 O 0.50224 0.63665 0.28793 0.0
O403 O 0.4746 0.65418 0.2596 0.0
C404 C 0.48037 0.58669 0.28004 0.0
C405 C 0.40098 0.61924 0.18957 0.0
C406 C 0.37445 0.61217 0.15529 0.0
C407 C 0.34459 0.5989 0.16433 0.0
C408 C 0.37068 0.60618 0.19823 0.0
C409 C 0.34275 0.596 0.18567 0.0
C410 C 0.40267 0.62232 0.16808 0.0
C411 C 0.53351 0.58403 0.2358 0.0
C412 C 0.43092 0.62966 0.20275 0.0
C413 C 0.31728 0.59287 0.26941 0.0
C414 C 0.33 0.56976 0.26332 0.0
C415 C 0.53516 0.65168 0.23283 0.0
C416 C 0.6298 0.59927 0.31858 0.0
C417 C 0.65014 0.59617 0.35457 0.0
C418 C 0.68141 0.58212 0.34819 0.0
C419 C 0.6613 0.58518 0.31269 0.0
C420 C 0.62451 0.60496 0.33961 0.0
C421 C 0.68693 0.57675 0.3274 0.0
C422 C 0.4784 0.65237 0.27966 0.0
C423 C 0.60261 0.60743 0.30265 0.0
H424 H 0.32225 0.59113 0.15491 0.0
H425 H 0.36839 0.60397 0.21468 0.0
H426 H 0.31948 0.58596 0.1925 0.0
H427 H 0.42608 0.63239 0.16133 0.0
H428 H 0.70186 0.57543 0.3593 0.0
H429 H 0.66621 0.58061 0.29665 0.0
H430 H 0.60016 0.61565 0.34436 0.0
H431 H 0.71114 0.56596 0.32268 0.0
C432 C 0.16394 0.93745 0.39902 0.0
C433 C 0.16859 0.91377 0.3911 0.0
C434 C 0.14938 0.95611 0.3867 0.0
C435 C 0.09509 0.96683 0.33832 0.0
H436 H 0.13352 0.03265 0.34446 0.0
C437 C 0.0586 0.04443 0.28145 0.0
C438 C 0.04759 0.06673 0.29026 0.0
C439 C 0.07349 0.02585 0.29374 0.0
C440 C 0.12233 0.01438 0.34269 0.0
H441 H 0.16124 0.89129 0.36385 0.0
H442 H 0.1374 0.92399 0.34214 0.0
H443 H 0.15978 1.00003 0.36561 0.0
H444 H 0.04427 0.08726 0.31877 0.0
H445 H 0.07073 0.05482 0.34026 0.0
H446 H 0.05819 0.98124 0.31506 0.0
C447 C 0.14427 0.92806 0.35805 0.0
C448 C 0.13726 0.99567 0.35486 0.0
C449 C 0.15852 0.90933 0.37044 0.0
C450 C 0.05231 0.07021 0.31158 0.0
C451 C 0.06765 0.05172 0.32384 0.0
C452 C 0.08048 0.9855 0.32601 0.0
C453 C 0.13937 0.9517 0.36602 0.0
C454 C 0.12377 0.97163 0.35289 0.0
C455 C 0.07818 0.02929 0.31507 0.0
C456 C 0.09386 0.00948 0.3281 0.0
H457 H 0.17184 0.94167 0.41477 0.0
H458 H 0.14558 0.97396 0.3935 0.0
H459 H 0.08344 0.94869 0.33661 0.0
H460 H 0.05524 0.0412 0.26506 0.0
H461 H 0.08168 0.00884 0.28653 0.0
C462 C 0.34432 0.57042 0.89743 0.0
C463 C 0.34073 0.59421 0.88963 0.0
C464 C 0.3594 0.55178 0.88527 0.0
C465 C 0.41659 0.54099 0.83788 0.0
H466 H 0.37684 0.47539 0.84322 0.0
C467 C 0.45309 0.46295 0.78128 0.0
C468 C 0.4635 0.44061 0.79019 0.0
C469 C 0.43864 0.48175 0.79349 0.0
C470 C 0.3884 0.49359 0.8417 0.0
H471 H 0.35032 0.61692 0.86274 0.0
H472 H 0.37501 0.58421 0.84123 0.0
H473 H 0.34968 0.50815 0.86389 0.0
H474 H 0.46662 0.42029 0.81878 0.0
H475 H 0.4407 0.45313 0.84014 0.0
H476 H 0.45465 0.52634 0.81524 0.0
C477 C 0.36699 0.58006 0.85697 0.0
C478 C 0.37296 0.51239 0.85359 0.0
C479 C 0.35226 0.59879 0.86922 0.0
C480 C 0.45896 0.43737 0.81154 0.0
C481 C 0.44397 0.45608 0.82371 0.0
C482 C 0.43169 0.52223 0.82581 0.0
C483 C 0.37088 0.55631 0.86485 0.0
C484 C 0.38695 0.53634 0.85191 0.0
C485 C 0.43376 0.47847 0.81481 0.0
C486 C 0.41783 0.49834 0.82765 0.0
H487 H 0.3352 0.56608 0.91295 0.0
H488 H 0.36241 0.53385 0.89201 0.0
H489 H 0.42862 0.55906 0.83641 0.0
H490 H 0.45643 0.46599 0.76487 0.0
H491 H 0.43074 0.49877 0.78621 0.0
C492 C 0.65437 0.59479 0.63866 0.0
C493 C 0.67401 0.58955 0.62035 0.0
C494 C 0.6411 0.57594 0.65126 0.0
C495 C 0.62015 0.50934 0.65035 0.0
H496 H 0.61492 0.51773 0.70968 0.0
C497 C 0.58065 0.43129 0.70634 0.0
C498 C 0.55084 0.43684 0.71993 0.0
C499 C 0.59802 0.44972 0.69484 0.0
C500 C 0.6162 0.51521 0.69312 0.0
H501 H 0.69622 0.56065 0.60109 0.0
H502 H 0.67445 0.52773 0.62337 0.0
H503 H 0.64149 0.55016 0.68834 0.0
H504 H 0.51638 0.46583 0.73269 0.0
H505 H 0.54715 0.4982 0.71275 0.0
H506 H 0.59558 0.47411 0.65534 0.0
C507 C 0.66801 0.5463 0.62776 0.0
C508 C 0.63118 0.53382 0.68084 0.0
C509 C 0.68069 0.56515 0.61502 0.0
C510 C 0.53912 0.46112 0.72215 0.0
C511 C 0.5569 0.47961 0.71091 0.0
C512 C 0.60578 0.49061 0.66267 0.0
C513 C 0.64773 0.55141 0.646 0.0
C514 C 0.63303 0.53125 0.65924 0.0
C515 C 0.58621 0.47404 0.69698 0.0
C516 C 0.60333 0.49345 0.68414 0.0
H517 H 0.6486 0.61348 0.64302 0.0
H518 H 0.62502 0.58068 0.66491 0.0
H519 H 0.62032 0.50678 0.63379 0.0
H520 H 0.5901 0.41266 0.70437 0.0
H521 H 0.62072 0.445 0.6843 0.0
C522 C 0.87438 0.91773 0.12282 0.0
C523 C 0.83512 0.91435 0.12034 0.0
C524 C 0.88815 0.93618 0.13569 0.0
C525 C 0.86628 0.99591 0.15586 0.0
H526 H 0.93724 0.98063 0.19966 0.0
C527 C 0.91998 0.0701 0.21222 0.0
C528 C 0.95715 0.06807 0.21983 0.0
C529 C 0.9036 0.05115 0.20085 0.0
C530 C 0.91797 0.98538 0.1873 0.0
H531 H 0.77945 0.92761 0.12903 0.0
H532 H 0.80365 0.96046 0.15112 0.0
H533 H 0.9123 0.94805 0.17801 0.0
H534 H 0.007 0.04486 0.22062 0.0
H535 H 0.9796 0.01265 0.19982 0.0
H536 H 0.87301 0.03327 0.16432 0.0
C537 C 0.82364 0.94862 0.14332 0.0
C538 C 0.90351 0.96662 0.17501 0.0
C539 C 0.80985 0.92983 0.1308 0.0
C540 C 0.9781 0.04699 0.21519 0.0
C541 C 0.96211 0.02828 0.20344 0.0
C542 C 0.88134 0.01477 0.16786 0.0
C543 C 0.8629 0.95189 0.14592 0.0
C544 C 0.8776 0.97173 0.15918 0.0
C545 C 0.92448 0.02994 0.19624 0.0
C546 C 0.90752 0.0098 0.18374 0.0
H547 H 0.89438 0.90596 0.11495 0.0
H548 H 0.91856 0.93845 0.13739 0.0
H549 H 0.84652 1.00029 0.14361 0.0
H550 H 0.90361 0.08646 0.21485 0.0
H551 H 0.87449 0.05317 0.19579 0.0
C552 C 0.84095 0.06825 0.61012 0.0
C553 C 0.83558 0.09188 0.61801 0.0
C554 C 0.85597 0.04981 0.62252 0.0
C555 C 0.91004 0.03973 0.67102 0.0
H556 H 0.87187 0.97378 0.66539 0.0
C557 C 0.94662 0.96283 0.72853 0.0
C558 C 0.95769 0.94047 0.71987 0.0
C559 C 0.93169 0.98127 0.71609 0.0
C560 C 0.88299 0.99208 0.66701 0.0
H561 H 0.84233 0.11458 0.64517 0.0
H562 H 0.86704 0.08225 0.66699 0.0
H563 H 0.84563 0.00609 0.6439 0.0
H564 H 0.9611 0.91965 0.69151 0.0
H565 H 0.93462 0.95183 0.66979 0.0
H566 H 0.94687 0.02566 0.69445 0.0
C567 C 0.86031 0.07805 0.65108 0.0
C568 C 0.86807 0.01061 0.65466 0.0
C569 C 0.84559 0.09655 0.63863 0.0
C570 C 0.953 0.93676 0.69858 0.0
C571 C 0.93766 0.9551 0.68618 0.0
C572 C 0.92466 0.02124 0.68351 0.0
C573 C 0.86574 0.05442 0.64319 0.0
C574 C 0.88147 0.03469 0.65645 0.0
C575 C 0.92706 0.97759 0.6948 0.0
C576 C 0.91136 0.99722 0.6816 0.0
H577 H 0.83316 0.06389 0.59439 0.0
H578 H 0.86021 0.03196 0.61579 0.0
H579 H 0.92157 0.05792 0.6726 0.0
H580 H 0.94995 0.96623 0.74489 0.0
H581 H 0.92343 0.99834 0.72318 0.0
C582 C 0.69087 0.42713 0.13032 0.0
C583 C 0.66658 0.41258 0.11835 0.0
C584 C 0.67617 0.44535 0.14312 0.0
C585 C 0.58835 0.48173 0.15271 0.0
H586 H 0.63949 0.49682 0.20408 0.0
C587 C 0.54601 0.56543 0.20122 0.0
C588 C 0.54856 0.56403 0.22281 0.0
C589 C 0.56028 0.54674 0.18881 0.0
C590 C 0.62446 0.49268 0.18994 0.0
H591 H 0.60788 0.40536 0.11058 0.0
H592 H 0.58193 0.43652 0.13342 0.0
H593 H 0.66348 0.46425 0.18235 0.0
H594 H 0.56765 0.54174 0.24834 0.0
H595 H 0.59129 0.50864 0.22676 0.0
H596 H 0.54828 0.50934 0.16075 0.0
C597 C 0.61246 0.43449 0.13253 0.0
C598 C 0.63867 0.4742 0.17724 0.0
C599 C 0.62725 0.41653 0.11948 0.0
C600 C 0.56554 0.54343 0.23173 0.0
C601 C 0.57929 0.52451 0.21932 0.0
C602 C 0.57383 0.49996 0.16555 0.0
C603 C 0.63671 0.44922 0.14452 0.0
C604 C 0.62101 0.46857 0.15834 0.0
C605 C 0.57694 0.52591 0.19765 0.0
C606 C 0.59184 0.50588 0.18428 0.0
H607 H 0.72136 0.42463 0.12957 0.0
H608 H 0.69589 0.45658 0.1517 0.0
H609 H 0.57413 0.47824 0.13821 0.0
H610 H 0.53348 0.58118 0.19383 0.0
H611 H 0.55867 0.54886 0.17224 0.0
C612 C 0.31868 0.42512 0.3777 0.0
C613 C 0.34277 0.41084 0.38998 0.0
C614 C 0.33347 0.44385 0.3655 0.0
C615 C 0.42024 0.48227 0.35945 0.0
H616 H 0.37345 0.49925 0.30727 0.0
C617 C 0.48819 0.54814 0.30034 0.0
C618 C 0.4645 0.5668 0.2929 0.0
C619 C 0.47323 0.5291 0.31211 0.0
C620 C 0.38663 0.49475 0.32187 0.0
H621 H 0.40121 0.4043 0.39867 0.0
H622 H 0.42739 0.43623 0.37676 0.0
H623 H 0.34817 0.46531 0.32732 0.0
H624 H 0.40673 0.58053 0.29294 0.0
H625 H 0.38038 0.54662 0.3126 0.0
H626 H 0.4594 0.51134 0.35353 0.0
C627 C 0.39691 0.43369 0.37702 0.0
C628 C 0.37208 0.47538 0.33345 0.0
C629 C 0.38201 0.41524 0.38948 0.0
C630 C 0.42558 0.56607 0.29775 0.0
C631 C 0.41049 0.54675 0.30916 0.0
C632 C 0.43514 0.50135 0.3477 0.0
C633 C 0.37282 0.44849 0.36504 0.0
C634 C 0.38861 0.4689 0.35246 0.0
C635 C 0.4342 0.52812 0.31649 0.0
C636 C 0.4184 0.50782 0.32885 0.0
H637 H 0.28824 0.42223 0.378 0.0
H638 H 0.31387 0.45504 0.35682 0.0
H639 H 0.43328 0.4783 0.37418 0.0
H640 H 0.51831 0.54808 0.29695 0.0
H641 H 0.49209 0.51489 0.31753 0.0
C642 C 0.13135 0.0902 0.88603 0.0
C643 C 0.17057 0.09378 0.88851 0.0
C644 C 0.11782 0.07192 0.87293 0.0
C645 C 0.14026 0.01254 0.85266 0.0
H646 H 0.06908 0.0274 0.80886 0.0
C647 C 0.08591 0.93769 0.79716 0.0
C648 C 0.04863 0.93966 0.7897 0.0
C649 C 0.10252 0.95681 0.80823 0.0
C650 C 0.08843 0.02277 0.82122 0.0
H651 H 0.22642 0.08111 0.87954 0.0
H652 H 0.20265 0.04852 0.85703 0.0
H653 H 0.09401 0.06018 0.83031 0.0
H654 H 0.99886 0.96292 0.78883 0.0
H655 H 0.02666 0.99543 0.80913 0.0
H656 H 0.13355 0.97511 0.84445 0.0
C657 C 0.18251 0.06011 0.865 0.0
C658 C 0.1029 0.04164 0.83338 0.0
C659 C 0.19605 0.07874 0.87775 0.0
C660 C 0.02783 0.96085 0.79417 0.0
C661 C 0.04405 0.97972 0.80562 0.0
C662 C 0.1252 0.99357 0.8408 0.0
C663 C 0.14329 0.05658 0.86247 0.0
C664 C 0.12885 0.03668 0.84922 0.0
C665 C 0.08177 0.97812 0.81268 0.0
C666 C 0.09891 0.99839 0.82493 0.0
H667 H 0.11122 0.10162 0.89417 0.0
H668 H 0.08745 0.06943 0.87128 0.0
H669 H 0.16005 0.00828 0.86493 0.0
H670 H 0.10218 0.92127 0.79468 0.0
H671 H 0.1317 0.95484 0.81319 0.0
C672 C 0.17357 0.14842 0.9723 0.0
C673 C 0.1798 0.12772 0.95993 0.0
C674 C 0.16656 0.146 0.99351 0.0
C675 C 0.18121 0.10241 0.0363 0.0
H676 H 0.10475 0.14023 0.06511 0.0
C677 C 0.13506 0.07603 0.11744 0.0
C678 C 0.1342 0.09458 0.13237 0.0
C679 C 0.13749 0.08168 0.09653 0.0
C680 C 0.12639 0.1297 0.05728 0.0
H681 H 0.18383 0.08827 0.96033 0.0
H682 H 0.17063 0.08406 0.99684 0.0
H683 H 0.11604 0.14731 0.02826 0.0
H684 H 0.13285 0.13365 0.137 0.0
H685 H 0.13702 0.14362 0.10015 0.0
H686 H 0.19144 0.08464 0.06505 0.0
C687 C 0.17156 0.10221 0.99031 0.0
C688 C 0.13294 0.13378 0.0362 0.0
C689 C 0.1786 0.10461 0.96925 0.0
C690 C 0.1334 0.11899 0.12582 0.0
C691 C 0.13585 0.12468 0.10476 0.0
C692 C 0.17458 0.09829 0.0572 0.0
C693 C 0.16586 0.12284 1.00278 0.0
C694 C 0.16005 0.11988 0.02541 0.0
C695 C 0.13913 0.10604 0.08996 0.0
C696 C 0.14672 0.11158 0.06789 0.0
H697 H 0.17402 0.16648 0.9656 0.0
H698 H 0.16247 0.16227 1.00269 0.0
H699 H 0.20303 0.09183 0.02865 0.0
H700 H 0.13491 0.05705 0.122 0.0
H701 H 0.13898 0.0669 0.08547 0.0
C702 C 0.33324 0.356 0.47334 0.0
C703 C 0.32746 0.37676 0.46102 0.0
C704 C 0.33939 0.3583 0.49463 0.0
C705 C 0.32318 0.40154 0.53758 0.0
H706 H 0.40009 0.36437 0.56656 0.0
C707 C 0.36808 0.42842 0.61885 0.0
C708 C 0.36963 0.40991 0.63377 0.0
C709 C 0.36573 0.42271 0.59793 0.0
C710 C 0.3783 0.3747 0.55868 0.0
H711 H 0.32308 0.41619 0.46158 0.0
H712 H 0.33464 0.4202 0.49828 0.0
H713 H 0.38936 0.35721 0.52966 0.0
H714 H 0.37226 0.37087 0.63839 0.0
H715 H 0.3682 0.36079 0.60154 0.0
H716 H 0.31222 0.41919 0.56633 0.0
C717 C 0.33411 0.4021 0.49164 0.0
C718 C 0.37208 0.37058 0.53758 0.0
C719 C 0.328 0.39981 0.47048 0.0
C720 C 0.37116 0.3855 0.62721 0.0
C721 C 0.36878 0.37975 0.60615 0.0
C722 C 0.32945 0.4057 0.55852 0.0
C723 C 0.3396 0.38141 0.50405 0.0
C724 C 0.34485 0.38428 0.52672 0.0
C725 C 0.36484 0.39832 0.59135 0.0
C726 C 0.35749 0.39265 0.56927 0.0
H727 H 0.33323 0.33799 0.46651 0.0
H728 H 0.34332 0.34199 0.50377 0.0
H729 H 0.30129 0.41196 0.52986 0.0
H730 H 0.36764 0.4474 0.62341 0.0
H731 H 0.36375 0.43745 0.58689 0.0
C732 C 0.66885 0.34837 0.04007 0.0
C733 C 0.67538 0.37116 0.04931 0.0
C734 C 0.66033 0.34663 0.01907 0.0
C735 C 0.62723 0.38176 0.97368 0.0
H736 H 0.6796 0.33112 0.94323 0.0
C737 C 0.63206 0.37645 0.88383 0.0
C738 C 0.63296 0.35312 0.87494 0.0
C739 C 0.6328 0.37918 0.90535 0.0
C740 C 0.66419 0.34513 0.9515 0.0
H741 H 0.67749 0.41007 0.04365 0.0
H742 H 0.66255 0.40703 0.00696 0.0
H743 H 0.68943 0.33481 0.98015 0.0
H744 H 0.63237 0.31444 0.88139 0.0
H745 H 0.63257 0.3191 0.91875 0.0
H746 H 0.60216 0.39212 0.94482 0.0
C747 C 0.66366 0.39051 0.01605 0.0
C748 C 0.66991 0.34726 0.97272 0.0
C749 C 0.67224 0.39224 0.03709 0.0
C750 C 0.63222 0.33264 0.88788 0.0
C751 C 0.63261 0.33534 0.90927 0.0
C752 C 0.62139 0.37958 0.95236 0.0
C753 C 0.65809 0.36765 0.00673 0.0
C754 C 0.65146 0.36554 0.98411 0.0
C755 C 0.6342 0.35861 0.91831 0.0
C756 C 0.63971 0.36114 0.94102 0.0
H757 H 0.67028 0.3318 0.0491 0.0
H758 H 0.6555 0.32877 0.01248 0.0
H759 H 0.61236 0.39594 0.98203 0.0
H760 H 0.63282 0.39253 0.87416 0.0
H761 H 0.63412 0.39738 0.91176 0.0
C762 C 0.83262 0.15547 0.53962 0.0
C763 C 0.82539 0.13289 0.54905 0.0
C764 C 0.84304 0.15667 0.51883 0.0
C765 C 0.83801 0.12193 0.47013 0.0
H766 H 0.91339 0.16869 0.45187 0.0
C767 C 0.87992 0.13053 0.38425 0.0
C768 C 0.87986 0.15451 0.37671 0.0
C769 C 0.87885 0.12613 0.40553 0.0
C770 C 0.89221 0.15558 0.45672 0.0
H771 H 0.8231 0.09387 0.54389 0.0
H772 H 0.84187 0.09595 0.50774 0.0
H773 H 0.89968 0.16459 0.48859 0.0
H774 H 0.88106 0.19261 0.38544 0.0
H775 H 0.87901 0.18501 0.4224 0.0
H776 H 0.83005 0.11323 0.43824 0.0
C777 C 0.83923 0.11275 0.51639 0.0
C778 C 0.88427 0.15328 0.47776 0.0
C779 C 0.82885 0.11155 0.53718 0.0
C780 C 0.88073 0.17393 0.39082 0.0
C781 C 0.8799 0.16956 0.41201 0.0
C782 C 0.84598 0.12421 0.44909 0.0
C783 C 0.84644 0.13533 0.50695 0.0
C784 C 0.85664 0.1367 0.4847 0.0
C785 C 0.87807 0.14563 0.41964 0.0
C786 C 0.87273 0.14135 0.44211 0.0
H787 H 0.83056 0.17223 0.54837 0.0
H788 H 0.8479 0.17439 0.51199 0.0
H789 H 0.81626 0.10916 0.47491 0.0
H790 H 0.87913 0.11522 0.37371 0.0
H791 H 0.8779 0.10748 0.41094 0.0
C792 C 0.83395 0.85384 0.03943 0.0
C793 C 0.82832 0.8757 0.05038 0.0
C794 C 0.84284 0.85423 0.01836 0.0
C795 C 0.88041 0.89427 0.97719 0.0
H796 H 0.82341 0.85262 0.9401 0.0
C797 C 0.9007 0.899 0.88876 0.0
C798 C 0.86655 0.90147 0.87776 0.0
C799 C 0.90025 0.89192 0.90953 0.0
C800 C 0.8397 0.86428 0.95027 0.0
H801 H 0.82705 0.91509 0.04746 0.0
H802 H 0.84309 0.9157 0.01102 0.0
H803 H 0.81491 0.84852 0.97735 0.0
H804 H 0.80548 0.89708 0.87942 0.0
H805 H 0.80464 0.88471 0.9155 0.0
H806 H 0.9042 0.91062 0.95014 0.0
C807 C 0.8412 0.89827 0.01878 0.0
C808 C 0.83505 0.8618 0.97161 0.0
C809 C 0.83205 0.8979 0.03973 0.0
C810 C 0.8322 0.89552 0.88759 0.0
C811 C 0.83177 0.88823 0.90821 0.0
C812 C 0.88525 0.89663 0.95587 0.0
C813 C 0.84659 0.87647 0.00781 0.0
C814 C 0.85468 0.87717 0.98529 0.0
C815 C 0.86568 0.88687 0.91958 0.0
C816 C 0.86431 0.88205 0.94215 0.0
H817 H 0.83178 0.83642 0.04716 0.0
H818 H 0.84707 0.83712 0.01036 0.0
H819 H 0.89629 0.90619 0.98734 0.0
H820 H 0.92756 0.90354 0.88157 0.0
H821 H 0.92687 0.89083 0.91784 0.0
C822 C 0.67367 0.64801 0.53897 0.0
C823 C 0.68354 0.62689 0.55004 0.0
C824 C 0.66496 0.64669 0.5179 0.0
C825 C 0.63464 0.60288 0.4777 0.0
H826 H 0.67792 0.64919 0.43917 0.0
C827 C 0.64935 0.58238 0.39133 0.0
C828 C 0.64475 0.60123 0.3769 0.0
C829 C 0.64819 0.58721 0.41245 0.0
C830 C 0.66501 0.63637 0.44974 0.0
H831 H 0.6933 0.58799 0.54734 0.0
H832 H 0.67791 0.5857 0.51086 0.0
H833 H 0.68799 0.65467 0.47617 0.0
H834 H 0.63405 0.63984 0.37331 0.0
H835 H 0.63181 0.64836 0.41044 0.0
H836 H 0.61226 0.5843 0.45135 0.0
C837 C 0.67611 0.60321 0.51851 0.0
C838 C 0.67086 0.63949 0.47095 0.0
C839 C 0.68495 0.60454 0.53947 0.0
C840 C 0.63757 0.62494 0.38408 0.0
C841 C 0.63665 0.62984 0.40532 0.0
C842 C 0.62875 0.59979 0.45655 0.0
C843 C 0.66579 0.62421 0.50748 0.0
C844 C 0.65649 0.62244 0.48513 0.0
C845 C 0.64245 0.61105 0.41974 0.0
C846 C 0.64461 0.61616 0.44227 0.0
H847 H 0.67197 0.66549 0.54666 0.0
H848 H 0.65693 0.66318 0.50986 0.0
H849 H 0.62246 0.58972 0.48824 0.0
H850 H 0.65454 0.56387 0.38626 0.0
H851 H 0.65317 0.57233 0.42306 0.0
C852 C 0.33552 0.65437 0.96993 0.0
C853 C 0.32684 0.6328 0.95922 0.0
C854 C 0.34441 0.65368 0.99098 0.0
C855 C 0.37634 0.61108 0.03182 0.0
H856 H 0.33476 0.65912 0.06941 0.0
C857 C 0.36796 0.59583 0.1194 0.0
C858 C 0.37553 0.61555 0.13259 0.0
C859 C 0.36635 0.59919 0.09808 0.0
C860 C 0.34707 0.64579 0.05907 0.0
H861 H 0.31923 0.59378 0.96236 0.0
H862 H 0.33439 0.59259 0.99891 0.0
H863 H 0.32292 0.66288 0.03244 0.0
H864 H 0.38797 0.65419 0.13378 0.0
H865 H 0.38525 0.66008 0.09638 0.0
H866 H 0.39974 0.59368 0.05846 0.0
C867 C 0.33537 0.60997 0.99102 0.0
C868 C 0.34028 0.64793 0.03788 0.0
C869 C 0.32659 0.61065 0.97006 0.0
C870 C 0.3823 0.63863 0.12397 0.0
C871 C 0.3804 0.64204 0.1026 0.0
C872 C 0.383 0.6089 0.05296 0.0
C873 C 0.3447 0.63142 1.00173 0.0
C874 C 0.35428 0.63035 0.02405 0.0
C875 C 0.37209 0.62238 0.08945 0.0
C876 C 0.36792 0.62599 0.06686 0.0
H877 H 0.3362 0.67169 0.96196 0.0
H878 H 0.3517 0.67052 0.99874 0.0
H879 H 0.38827 0.59752 0.02155 0.0
H880 H 0.36295 0.57779 0.12559 0.0
H881 H 0.35953 0.58371 0.0884 0.0
C882 C 0.16818 0.85029 0.46966 0.0
C883 C 0.17642 0.87268 0.46015 0.0
C884 C 0.15786 0.84937 0.49048 0.0
C885 C 0.16479 0.88426 0.53909 0.0
H886 H 0.08794 0.8387 0.55773 0.0
C887 C 0.12353 0.87658 0.62516 0.0
C888 C 0.12295 0.85263 0.63276 0.0
C889 C 0.12447 0.8809 0.60386 0.0
C890 C 0.10953 0.85149 0.55278 0.0
H891 H 0.18055 0.91166 0.4652 0.0
H892 H 0.1619 0.91008 0.50139 0.0
H893 H 0.10139 0.84245 0.52095 0.0
H894 H 0.12046 0.81453 0.62412 0.0
H895 H 0.12217 0.82198 0.58714 0.0
H896 H 0.17339 0.89298 0.57093 0.0
C897 C 0.1637 0.8932 0.49279 0.0
C898 C 0.11733 0.85358 0.5317 0.0
C899 C 0.174 0.89413 0.47198 0.0
C900 C 0.12125 0.83318 0.61869 0.0
C901 C 0.12192 0.83747 0.59748 0.0
C902 C 0.15695 0.88219 0.56016 0.0
C903 C 0.15554 0.87081 0.50232 0.0
C904 C 0.14549 0.86971 0.52462 0.0
C905 C 0.12444 0.86135 0.58979 0.0
C906 C 0.12967 0.86548 0.56729 0.0
H907 H 0.16942 0.83346 0.46097 0.0
H908 H 0.15225 0.83177 0.49738 0.0
H909 H 0.18696 0.89667 0.53421 0.0
H910 H 0.12498 0.8919 0.63567 0.0
H911 H 0.12597 0.89952 0.59841 0.0
C912 C 0.22353 0.29796 0.37918 0.0
C913 C 0.21498 0.3224 0.37482 0.0
C914 C 0.20446 0.27914 0.36889 0.0
C915 C 0.14588 0.26723 0.32206 0.0
H916 H 0.11977 0.20758 0.35073 0.0
C917 C 0.04326 0.19525 0.2883 0.0
C918 C 0.05525 0.17092 0.28944 0.0
C919 C 0.06326 0.21351 0.29873 0.0
C920 C 0.12715 0.22407 0.34249 0.0
H921 H 0.17962 0.34638 0.35662 0.0
H922 H 0.14551 0.31373 0.33915 0.0
H923 H 0.15339 0.23985 0.36909 0.0
H924 H 0.09678 0.1464 0.30267 0.0
H925 H 0.13154 0.17828 0.3211 0.0
H926 H 0.11886 0.25152 0.29558 0.0
C927 C 0.16752 0.30892 0.35007 0.0
C928 C 0.14655 0.24256 0.35298 0.0
C929 C 0.18682 0.32767 0.3602 0.0
C930 C 0.08708 0.16507 0.3015 0.0
C931 C 0.10681 0.18327 0.31211 0.0
C932 C 0.12616 0.24884 0.31165 0.0
C933 C 0.17626 0.28437 0.35413 0.0
C934 C 0.15609 0.26444 0.34292 0.0
C935 C 0.09525 0.20771 0.31074 0.0
C936 C 0.11651 0.2271 0.32177 0.0
H937 H 0.24534 0.29334 0.39028 0.0
H938 H 0.21237 0.2605 0.37223 0.0
H939 H 0.15343 0.28355 0.31363 0.0
H940 H 0.01893 0.20023 0.27899 0.0
H941 H 0.05353 0.23217 0.29752 0.0
C942 C 0.32611 0.17866 0.86216 0.0
C943 C 0.29674 0.18353 0.8762 0.0
C944 C 0.34549 0.1977 0.85249 0.0
C945 C 0.33563 0.26143 0.83677 0.0
H946 H 0.44552 0.25976 0.83303 0.0
C947 C 0.42205 0.34154 0.80285 0.0
C948 C 0.45377 0.33577 0.79068 0.0
C949 C 0.4029 0.32336 0.81377 0.0
C950 C 0.4148 0.26038 0.83367 0.0
H951 H 0.26428 0.21214 0.89108 0.0
H952 H 0.298 0.24553 0.87397 0.0
H953 H 0.41204 0.22741 0.85125 0.0
H954 H 0.49047 0.3066 0.78032 0.0
H955 H 0.45686 0.27471 0.79915 0.0
H956 H 0.33821 0.29407 0.81878 0.0
C957 C 0.30607 0.22694 0.87051 0.0
C958 C 0.39565 0.24187 0.8442 0.0
C959 C 0.28695 0.20785 0.88038 0.0
C960 C 0.4663 0.31155 0.78978 0.0
C961 C 0.44704 0.29332 0.80061 0.0
C962 C 0.35476 0.27985 0.82605 0.0
C963 C 0.33559 0.22204 0.85647 0.0
C964 C 0.35587 0.24215 0.84582 0.0
C965 C 0.41507 0.29898 0.81276 0.0
C966 C 0.39462 0.27953 0.82432 0.0
H967 H 0.33406 0.16006 0.85861 0.0
H968 H 0.3678 0.19335 0.84159 0.0
H969 H 0.30491 0.26197 0.83755 0.0
H970 H 0.41212 0.36017 0.80398 0.0
H971 H 0.3788 0.32849 0.82319 0.0
C972 C 0.69087 0.17894 0.65507 0.0
C973 C 0.70739 0.18166 0.63553 0.0
C974 C 0.66921 0.19764 0.66369 0.0
C975 C 0.65037 0.264 0.65995 0.0
H976 H 0.56405 0.24711 0.69427 0.0
C977 C 0.55035 0.33567 0.69812 0.0
C978 C 0.54456 0.33203 0.71935 0.0
C979 C 0.56815 0.31771 0.68618 0.0
C980 C 0.58811 0.25209 0.68474 0.0
H981 H 0.71405 0.20609 0.60952 0.0
H982 H 0.67538 0.23868 0.62436 0.0
H983 H 0.59866 0.2151 0.67628 0.0
H984 H 0.55211 0.30664 0.74462 0.0
H985 H 0.58249 0.27527 0.72376 0.0
H986 H 0.63934 0.30112 0.66846 0.0
C987 C 0.67973 0.22222 0.63323 0.0
C988 C 0.60812 0.23375 0.6745 0.0
C989 C 0.70173 0.2035 0.62466 0.0
C990 C 0.55628 0.31 0.72831 0.0
C991 C 0.57347 0.29197 0.71635 0.0
C992 C 0.63003 0.2824 0.67005 0.0
C993 C 0.66315 0.21951 0.65288 0.0
C994 C 0.64003 0.23937 0.66232 0.0
C995 C 0.57981 0.29566 0.6952 0.0
C996 C 0.59917 0.27656 0.68286 0.0
H997 H 0.69502 0.16234 0.66382 0.0
H998 H 0.65768 0.19503 0.67902 0.0
H999 H 0.67497 0.26903 0.65088 0.0
H1000 H 0.54177 0.35254 0.69085 0.0
H1001 H 0.5726 0.32097 0.66988 0.0
C1002 C 0.80509 0.3228 0.15623 0.0
C1003 C 0.79072 0.32105 0.13611 0.0
C1004 C 0.82437 0.30325 0.16515 0.0
C1005 C 0.87952 0.24839 0.15375 0.0
H1006 H 0.85246 0.23066 0.20973 0.0
C1007 C 0.9496 0.16737 0.19797 0.0
C1008 C 0.95666 0.17124 0.21905 0.0
C1009 C 0.92874 0.18445 0.18654 0.0
C1010 C 0.86073 0.23551 0.19417 0.0
H1011 H 0.78589 0.2976 0.10929 0.0
H1012 H 0.82024 0.26337 0.12487 0.0
H1013 H 0.81742 0.26273 0.19223 0.0
H1014 H 0.94885 0.1965 0.24445 0.0
H1015 H 0.91364 0.22627 0.22462 0.0
H1016 H 0.9236 0.22156 0.15593 0.0
C1017 C 0.81634 0.27991 0.13374 0.0
C1018 C 0.84051 0.25385 0.18413 0.0
C1019 C 0.79656 0.29944 0.12488 0.0
C1020 C 0.94345 0.19277 0.2283 0.0
C1021 C 0.92297 0.20981 0.21693 0.0
C1022 C 0.90009 0.23011 0.1639 0.0
C1023 C 0.83009 0.28155 0.15405 0.0
C1024 C 0.85004 0.26078 0.16394 0.0
C1025 C 0.91474 0.20575 0.19599 0.0
C1026 C 0.89136 0.22377 0.1844 0.0
H1027 H 0.80107 0.33927 0.16519 0.0
H1028 H 0.83506 0.30517 0.18073 0.0
H1029 H 0.88755 0.25343 0.1382 0.0
H1030 H 0.95935 0.15089 0.19045 0.0
H1031 H 0.9228 0.18069 0.17047 0.0
C1032 C 0.78134 0.70778 0.63275 0.0
C1033 C 0.79118 0.68349 0.63688 0.0
C1034 C 0.79988 0.72687 0.64298 0.0
C1035 C 0.85945 0.7395 0.68926 0.0
H1036 H 0.88332 0.79942 0.66041 0.0
C1037 C 0.96198 0.812 0.72205 0.0
C1038 C 0.9497 0.83628 0.72104 0.0
C1039 C 0.94186 0.79367 0.71181 0.0
C1040 C 0.87655 0.78285 0.6687 0.0
H1041 H 0.82824 0.66004 0.65459 0.0
H1042 H 0.86135 0.69318 0.67194 0.0
H1043 H 0.84974 0.76688 0.64234 0.0
H1044 H 0.9075 0.86063 0.7082 0.0
H1045 H 0.87248 0.82861 0.69011 0.0
H1046 H 0.88701 0.75539 0.71548 0.0
C1047 C 0.83876 0.69765 0.66127 0.0
C1048 C 0.85719 0.76422 0.65838 0.0
C1049 C 0.82003 0.67863 0.6512 0.0
C1050 C 0.91744 0.842 0.70928 0.0
C1051 C 0.89755 0.82373 0.69885 0.0
C1052 C 0.87911 0.75803 0.69949 0.0
C1053 C 0.82879 0.72205 0.65743 0.0
C1054 C 0.84854 0.74223 0.6685 0.0
C1055 C 0.90941 0.79934 0.70011 0.0
C1056 C 0.88801 0.77986 0.6893 0.0
H1057 H 0.75899 0.71206 0.62187 0.0
H1058 H 0.79107 0.74539 0.6398 0.0
H1059 H 0.85258 0.72308 0.69772 0.0
H1060 H 0.98665 0.80711 0.73114 0.0
H1061 H 0.95183 0.77506 0.71291 0.0
C1062 C 0.71832 0.79983 0.1307 0.0
C1063 C 0.71034 0.82413 0.13593 0.0
C1064 C 0.69985 0.7807 0.14089 0.0
C1065 C 0.64542 0.76702 0.18872 0.0
H1066 H 0.61396 0.70943 0.15858 0.0
C1067 C 0.54361 0.69534 0.22316 0.0
C1068 C 0.55393 0.67085 0.2206 0.0
C1069 C 0.56328 0.71369 0.2127 0.0
C1070 C 0.62289 0.72531 0.16723 0.0
H1071 H 0.67669 0.84753 0.15563 0.0
H1072 H 0.64378 0.81431 0.17303 0.0
H1073 H 0.64716 0.74211 0.14051 0.0
H1074 H 0.59194 0.64612 0.20476 0.0
H1075 H 0.62608 0.67819 0.18619 0.0
H1076 H 0.62059 0.75029 0.21535 0.0
C1077 C 0.66481 0.80988 0.16143 0.0
C1078 C 0.64201 0.74404 0.1569 0.0
C1079 C 0.68342 0.82894 0.15135 0.0
C1080 C 0.58352 0.66492 0.20698 0.0
C1081 C 0.60292 0.68324 0.19632 0.0
C1082 C 0.62609 0.74838 0.19899 0.0
C1083 C 0.67293 0.78548 0.15645 0.0
C1084 C 0.65336 0.76521 0.16749 0.0
C1085 C 0.59324 0.70784 0.19922 0.0
C1086 C 0.61443 0.72739 0.18834 0.0
H1087 H 0.73915 0.79555 0.11896 0.0
H1088 H 0.70719 0.76216 0.13681 0.0
H1089 H 0.65442 0.78278 0.19749 0.0
H1090 H 0.52104 0.70037 0.2337 0.0
H1091 H 0.55496 0.73247 0.21509 0.0
C1092 C 0.31291 0.82423 0.35575 0.0
C1093 C 0.29337 0.82129 0.37443 0.0
C1094 C 0.3347 0.80528 0.34761 0.0
C1095 C 0.34853 0.73846 0.34977 0.0
H1096 H 0.4422 0.75441 0.32134 0.0
C1097 C 0.44887 0.66565 0.31313 0.0
C1098 C 0.45985 0.67091 0.29279 0.0
C1099 C 0.4302 0.6833 0.32506 0.0
C1100 C 0.41606 0.74967 0.32919 0.0
H1101 H 0.28126 0.79611 0.39935 0.0
H1102 H 0.31987 0.76299 0.38526 0.0
H1103 H 0.40657 0.78645 0.33867 0.0
H1104 H 0.46112 0.69884 0.26918 0.0
H1105 H 0.42898 0.72951 0.28992 0.0
H1106 H 0.35826 0.70157 0.34011 0.0
C1107 C 0.31797 0.7799 0.37675 0.0
C1108 C 0.39553 0.76804 0.33907 0.0
C1109 C 0.296 0.79892 0.38488 0.0
C1110 C 0.45265 0.6942 0.28476 0.0
C1111 C 0.43452 0.71184 0.2967 0.0
C1112 C 0.36928 0.72 0.33997 0.0
C1113 C 0.3377 0.78288 0.35802 0.0
C1114 C 0.36106 0.76281 0.34911 0.0
C1115 C 0.42293 0.70661 0.31695 0.0
C1116 C 0.40286 0.72552 0.32921 0.0
H1117 H 0.31117 0.84123 0.34732 0.0
H1118 H 0.34879 0.80811 0.33296 0.0
H1119 H 0.32198 0.73377 0.35722 0.0
H1120 H 0.45412 0.64782 0.31966 0.0
H1121 H 0.42174 0.67882 0.34067 0.0
C1122 C 0.21058 0.70802 0.88362 0.0
C1123 C 0.21594 0.68639 0.87239 0.0
C1124 C 0.18802 0.72679 0.87562 0.0
C1125 C 0.11383 0.73841 0.83595 0.0
H1126 H 0.14541 0.80582 0.84114 0.0
C1127 C 0.05886 0.81363 0.78256 0.0
C1128 C 0.04756 0.83584 0.7914 0.0
C1129 C 0.07687 0.79592 0.79444 0.0
C1130 C 0.13599 0.7871 0.83983 0.0
H1131 H 0.20248 0.6675 0.84402 0.0
H1132 H 0.164 0.70025 0.82983 0.0
H1133 H 0.1822 0.77381 0.85812 0.0
H1134 H 0.04645 0.85702 0.81961 0.0
H1135 H 0.07876 0.82596 0.84047 0.0
H1136 H 0.06844 0.75162 0.81708 0.0
C1137 C 0.17629 0.70265 0.84501 0.0
C1138 C 0.157 0.76875 0.84956 0.0
C1139 C 0.1986 0.68393 0.85304 0.0
C1140 C 0.05473 0.84001 0.81243 0.0
C1141 C 0.07334 0.82234 0.82431 0.0
C1142 C 0.09311 0.75668 0.82611 0.0
C1143 C 0.17049 0.7243 0.85621 0.0
C1144 C 0.14658 0.74412 0.84741 0.0
C1145 C 0.08443 0.80008 0.81541 0.0
C1146 C 0.10433 0.78116 0.82764 0.0
H1147 H 0.22356 0.71042 0.89863 0.0
H1148 H 0.18392 0.74311 0.88474 0.0
H1149 H 0.10436 0.71973 0.83439 0.0
H1150 H 0.05364 0.80983 0.76641 0.0
H1151 H 0.08548 0.77907 0.78711 0.0
loop_
_geom_bond_atom_site_label_1
_geom_bond_atom_site_label_2
_geom_bond_distance
_geom_bond_site_symmetry_2
_ccdc_geom_bond_type
H0 C5 0.930 . S
H1 C8 0.930 . S
H2 C10 0.930 . S
H3 C4 1.016 . S
C4 H3 1.016 . S
C4 N11 1.286 . S
C5 H0 0.930 . S
C5 C6 1.397 . S
C5 C7 1.361 . S
C6 C5 1.397 . S
C6 C10 1.390 . S
C7 C5 1.361 . S
C7 C8 1.393 . S
C7 N11 1.413 . S
C8 H1 0.930 . S
C8 C7 1.393 . S
C8 C9 1.399 . S
C9 C8 1.399 . S
C9 C10 1.381 . S
C10 H2 0.930 . S
C10 C6 1.390 . S
C10 C9 1.381 . S
N11 C4 1.286 . S
N11 C7 1.413 . S
H12 C17 0.930 . S
H13 C20 0.930 . S
H14 C22 0.930 . S
H15 C16 1.016 . S
C16 H15 1.016 . S
C16 N23 1.286 . S
C17 H12 0.930 . S
C17 C18 1.397 . S
C17 C19 1.361 . S
C18 C17 1.397 . S
C18 C22 1.390 . S
C19 C17 1.361 . S
C19 C20 1.393 . S
C19 N23 1.413 . S
C20 H13 0.930 . S
C20 C19 1.393 . S
C20 C21 1.399 . S
C21 C20 1.399 . S
C21 C22 1.381 . S
C22 H14 0.930 . S
C22 C18 1.390 . S
C22 C21 1.381 . S
N23 C16 1.286 . S
N23 C19 1.413 . S
H24 C29 0.930 . S
H25 C32 0.930 . S
H26 C34 0.930 . S
H27 C28 1.016 . S
C28 H27 1.016 . S
C28 N35 1.286 . S
C29 H24 0.930 . S
C29 C30 1.397 . S
C29 C31 1.361 . S
C30 C29 1.397 . S
C30 C34 1.390 . S
C31 C29 1.361 . S
C31 C32 1.393 . S
C31 N35 1.413 . S
C32 H25 0.930 . S
C32 C31 1.393 . S
C32 C33 1.399 . S
C33 C32 1.399 . S
C33 C34 1.381 . S
C34 H26 0.930 . S
C34 C30 1.390 . S
C34 C33 1.381 . S
N35 C28 1.286 . S
N35 C31 1.413 . S
H36 C41 0.930 . S
H37 C44 0.930 . S
H38 C46 0.930 . S
H39 C40 1.016 . S
C40 H39 1.016 . S
C40 N47 1.286 . S
C41 H36 0.930 . S
C41 C42 1.397 . S
C41 C43 1.361 . S
C42 C41 1.397 . S
C42 C46 1.390 . S
C43 C41 1.361 . S
C43 C44 1.393 . S
C43 N47 1.413 . S
C44 H37 0.930 . S
C44 C43 1.393 . S
C44 C45 1.399 . S
C45 C44 1.399 . S
C45 C46 1.381 . S
C46 H38 0.930 . S
C46 C42 1.390 . S
C46 C45 1.381 . S
N47 C40 1.286 . S
N47 C43 1.413 . S
H48 C53 0.930 . S
H49 C56 0.930 . S
H50 C58 0.930 . S
H51 C52 1.016 . S
C52 H51 1.016 . S
C52 N59 1.286 . S
C53 H48 0.930 . S
C53 C54 1.397 . S
C53 C55 1.361 . S
C54 C53 1.397 . S
C54 C58 1.390 . S
C55 C53 1.361 . S
C55 C56 1.393 . S
C55 N59 1.413 . S
C56 H49 0.930 . S
C56 C55 1.393 . S
C56 C57 1.399 . S
C57 C56 1.399 . S
C57 C58 1.381 . S
C58 H50 0.930 . S
C58 C54 1.390 . S
C58 C57 1.381 . S
N59 C52 1.286 . S
N59 C55 1.413 . S
H60 C65 0.930 . S
H61 C68 0.930 . S
H62 C70 0.930 . S
H63 C64 1.016 . S
C64 H63 1.016 . S
C64 N71 1.286 . S
C65 H60 0.930 . S
C65 C66 1.397 . S
C65 C67 1.361 . S
C66 C65 1.397 . S
C66 C70 1.390 . S
C67 C65 1.361 . S
C67 C68 1.393 . S
C67 N71 1.413 . S
C68 H61 0.930 . S
C68 C67 1.393 . S
C68 C69 1.399 . S
C69 C68 1.399 . S
C69 C70 1.381 . S
C70 H62 0.930 . S
C70 C66 1.390 . S
C70 C69 1.381 . S
N71 C64 1.286 . S
N71 C67 1.413 . S
H72 C77 0.930 . S
H73 C80 0.930 . S
H74 C82 0.930 . S
H75 C76 1.016 . S
C76 H75 1.016 . S
C76 N83 1.286 . S
C77 H72 0.930 . S
C77 C78 1.397 . S
C77 C79 1.361 . S
C78 C77 1.397 . S
C78 C82 1.390 . S
C79 C77 1.361 . S
C79 C80 1.393 . S
C79 N83 1.413 . S
C80 H73 0.930 . S
C80 C79 1.393 . S
C80 C81 1.399 . S
C81 C80 1.399 . S
C81 C82 1.381 . S
C82 H74 0.930 . S
C82 C78 1.390 . S
C82 C81 1.381 . S
N83 C76 1.286 . S
N83 C79 1.413 . S
H84 C89 0.930 . S
H85 C92 0.930 . S
H86 C94 0.930 . S
H87 C88 1.016 . S
C88 H87 1.016 . S
C88 N95 1.286 . S
C89 H84 0.930 . S
C89 C90 1.397 . S
C89 C91 1.361 . S
C90 C89 1.397 . S
C90 C94 1.390 . S
C91 C89 1.361 . S
C91 C92 1.393 . S
C91 N95 1.413 . S
C92 H85 0.930 . S
C92 C91 1.393 . S
C92 C93 1.399 . S
C93 C92 1.399 . S
C93 C94 1.381 . S
C94 H86 0.930 . S
C94 C90 1.390 . S
C94 C93 1.381 . S
N95 C88 1.286 . S
N95 C91 1.413 . S
Eu96 N125 2.600 . S
Eu96 N131 2.562 . S
Eu96 O140 2.462 . S
Eu96 O141 2.373 . S
Eu96 O143 2.432 . S
Eu96 O144 2.311 . S
Eu96 O148 2.335 . S
Eu96 O151 2.372 . S
Eu96 C160 2.787 . S
C97 N98 1.365 . S
C97 C100 1.405 . S
C97 C104 1.448 . S
N98 C97 1.365 . S
N98 C101 1.319 . S
N98 Eu107 2.600 . S
C99 C101 1.397 . S
C99 C102 1.367 . S
C99 H119 0.931 . S
C100 C97 1.405 . S
C100 C102 1.403 . S
C100 C106 1.439 . S
C101 N98 1.319 . S
C101 C99 1.397 . S
C101 H112 0.930 . S
C102 C99 1.367 . S
C102 C100 1.403 . S
C102 H123 0.929 . S
C103 C104 1.430 . S
C103 C105 1.387 . S
C103 C109 1.404 . S
C104 C97 1.448 . S
C104 C103 1.430 . S
C104 N108 1.351 . S
C105 C103 1.387 . S
C105 C106 1.374 . S
C105 H120 0.931 . S
C106 C100 1.439 . S
C106 C105 1.374 . S
C106 H121 0.931 . S
Eu107 N98 2.600 . S
Eu107 N108 2.562 . S
Eu107 O142 2.335 1_655 S
Eu107 O145 2.372 . S
Eu107 O146 2.462 . S
Eu107 O147 2.373 . S
Eu107 O149 2.432 . S
Eu107 O150 2.291 1_655 S
Eu107 C171 2.787 . S
N108 C104 1.351 . S
N108 Eu107 2.562 . S
N108 C110 1.325 . S
C109 C103 1.404 . S
C109 C111 1.366 . S
C109 H117 0.930 . S
C110 N108 1.325 . S
C110 C111 1.416 . S
C110 H116 0.929 . S
C111 C109 1.366 . S
C111 C110 1.416 . S
C111 H113 0.930 . S
H112 C101 0.930 . S
H113 C111 0.930 . S
H114 C129 0.930 . S
H115 C136 0.930 . S
H116 C110 0.929 . S
H117 C109 0.930 . S
H118 C132 0.929 . S
H119 C99 0.931 . S
H120 C105 0.931 . S
H121 C106 0.931 . S
H122 C127 0.931 . S
H123 C102 0.929 . S
H124 C135 0.930 . S
N125 Eu96 2.600 . S
N125 C126 1.365 . S
N125 C129 1.319 . S
C126 N125 1.365 . S
C126 C128 1.405 . S
C126 C134 1.448 . S
C127 H122 0.931 . S
C127 C129 1.397 . S
C127 C130 1.367 . S
C128 C126 1.405 . S
C128 C130 1.403 . S
C128 C161 1.439 . S
C129 H114 0.930 . S
C129 N125 1.319 . S
C129 C127 1.397 . S
C130 C127 1.367 . S
C130 C128 1.403 . S
C130 H137 0.929 . S
N131 Eu96 2.562 . S
N131 C132 1.325 . S
N131 C134 1.351 . S
C132 H118 0.929 . S
C132 N131 1.325 . S
C132 C136 1.416 . S
C133 C134 1.430 . S
C133 C135 1.404 . S
C133 C162 1.387 . S
C134 C126 1.448 . S
C134 N131 1.351 . S
C134 C133 1.430 . S
C135 H124 0.930 . S
C135 C133 1.404 . S
C135 C136 1.366 . S
C136 H115 0.930 . S
C136 C132 1.416 . S
C136 C135 1.366 . S
H137 C130 0.929 . S
H138 C161 0.931 . S
H139 C162 0.931 . S
O140 Eu96 2.462 . S
O140 C160 1.252 . S
O141 Eu96 2.373 . S
O141 C152 1.249 . S
O142 Eu107 2.335 1_455 S
O142 C152 1.264 . S
O143 Eu96 2.432 . S
O143 C160 1.268 . S
O144 Eu96 2.311 . S
O144 C159 1.232 1_455 S
O145 Eu107 2.372 . S
O145 C159 1.257 . S
O146 Eu107 2.462 . S
O146 C171 1.252 . S
O147 Eu107 2.373 . S
O147 C163 1.249 . S
O148 Eu96 2.335 . S
O148 C163 1.264 1_455 S
O149 Eu107 2.432 . S
O149 C171 1.268 . S
O150 Eu107 2.291 1_455 S
O150 C170 1.255 . S
O151 Eu96 2.372 . S
O151 C170 1.257 . S
C152 O141 1.249 . S
C152 O142 1.264 . S
C153 C156 1.382 . S
C153 C158 1.390 . S
C153 C160 1.506 . S
C154 C155 1.398 . S
C154 C158 1.392 . S
C155 C154 1.398 . S
C155 C157 1.372 . S
C155 H172 0.931 . S
C156 C153 1.382 . S
C156 C157 1.390 . S
C156 H173 0.931 . S
C157 C155 1.372 . S
C157 C156 1.390 . S
C157 H174 0.929 . S
C158 C153 1.390 . S
C158 C154 1.392 . S
C158 H175 0.930 . S
C159 O144 1.232 1_655 S
C159 O145 1.257 . S
C160 Eu96 2.787 . S
C160 O140 1.252 . S
C160 O143 1.268 . S
C160 C153 1.506 . S
C161 C128 1.439 . S
C161 H138 0.931 . S
C161 C162 1.374 . S
C162 C133 1.387 . S
C162 H139 0.931 . S
C162 C161 1.374 . S
C163 O147 1.249 . S
C163 O148 1.264 1_655 S
C164 C167 1.382 . S
C164 C168 1.390 . S
C164 C171 1.506 . S
C165 C166 1.398 . S
C165 C168 1.392 . S
C166 C165 1.398 . S
C166 C169 1.372 . S
C166 H176 0.931 . S
C167 C164 1.382 . S
C167 C169 1.390 . S
C167 H177 0.931 . S
C168 C164 1.390 . S
C168 C165 1.392 . S
C168 H178 0.930 . S
C169 C166 1.372 . S
C169 C167 1.390 . S
C169 H179 0.929 . S
C170 O150 1.255 . S
C170 O151 1.257 . S
C171 Eu107 2.787 . S
C171 O146 1.252 . S
C171 O149 1.268 . S
C171 C164 1.506 . S
H172 C155 0.931 . S
H173 C156 0.931 . S
H174 C157 0.929 . S
H175 C158 0.930 . S
H176 C166 0.931 . S
H177 C167 0.931 . S
H178 C168 0.930 . S
H179 C169 0.929 . S
Eu180 N209 2.600 . S
Eu180 N215 2.562 . S
Eu180 O224 2.462 . S
Eu180 O225 2.373 . S
Eu180 O227 2.432 . S
Eu180 O228 2.291 . S
Eu180 O232 2.335 . S
Eu180 O235 2.372 . S
Eu180 C244 2.787 . S
C181 N182 1.365 . S
C181 C184 1.405 . S
C181 C188 1.448 . S
N182 C181 1.365 . S
N182 C185 1.319 . S
N182 Eu191 2.600 . S
C183 C185 1.397 . S
C183 C186 1.367 . S
C183 H203 0.931 . S
C184 C181 1.405 . S
C184 C186 1.403 . S
C184 C190 1.439 . S
C185 N182 1.319 . S
C185 C183 1.397 . S
C185 H196 0.930 . S
C186 C183 1.367 . S
C186 C184 1.403 . S
C186 H207 0.929 . S
C187 C188 1.430 . S
C187 C189 1.387 . S
C187 C193 1.404 . S
C188 C181 1.448 . S
C188 C187 1.430 . S
C188 N192 1.351 . S
C189 C187 1.387 . S
C189 C190 1.374 . S
C189 H204 0.931 . S
C190 C184 1.439 . S
C190 C189 1.374 . S
C190 H205 0.931 . S
Eu191 N182 2.600 . S
Eu191 N192 2.562 . S
Eu191 O226 2.335 . S
Eu191 O229 2.372 . S
Eu191 O230 2.462 . S
Eu191 O231 2.373 . S
Eu191 O233 2.432 . S
Eu191 O234 2.291 . S
Eu191 C255 2.787 . S
N192 C188 1.351 . S
N192 Eu191 2.562 . S
N192 C194 1.325 . S
C193 C187 1.404 . S
C193 C195 1.366 . S
C193 H201 0.930 . S
C194 N192 1.325 . S
C194 C195 1.416 . S
C194 H200 0.929 . S
C195 C193 1.366 . S
C195 C194 1.416 . S
C195 H197 0.930 . S
H196 C185 0.930 . S
H197 C195 0.930 . S
H198 C213 0.930 . S
H199 C220 0.930 . S
H200 C194 0.929 . S
H201 C193 0.930 . S
H202 C216 0.929 . S
H203 C183 0.931 . S
H204 C189 0.931 . S
H205 C190 0.931 . S
H206 C211 0.931 . S
H207 C186 0.929 . S
H208 C219 0.930 . S
N209 Eu180 2.600 . S
N209 C210 1.365 . S
N209 C213 1.319 . S
C210 N209 1.365 . S
C210 C212 1.405 . S
C210 C218 1.448 . S
C211 H206 0.931 . S
C211 C213 1.397 . S
C211 C214 1.367 . S
C212 C210 1.405 . S
C212 C214 1.403 . S
C212 C245 1.439 . S
C213 H198 0.930 . S
C213 N209 1.319 . S
C213 C211 1.397 . S
C214 C211 1.367 . S
C214 C212 1.403 . S
C214 H221 0.929 . S
N215 Eu180 2.562 . S
N215 C216 1.325 . S
N215 C218 1.351 . S
C216 H202 0.929 . S
C216 N215 1.325 . S
C216 C220 1.416 . S
C217 C218 1.430 . S
C217 C219 1.404 . S
C217 C246 1.387 . S
C218 C210 1.448 . S
C218 N215 1.351 . S
C218 C217 1.430 . S
C219 H208 0.930 . S
C219 C217 1.404 . S
C219 C220 1.366 . S
C220 H199 0.930 . S
C220 C216 1.416 . S
C220 C219 1.366 . S
H221 C214 0.929 . S
H222 C245 0.931 . S
H223 C246 0.931 . S
O224 Eu180 2.462 . S
O224 C244 1.252 . S
O225 Eu180 2.373 . S
O225 C236 1.249 . S
O226 Eu191 2.335 . S
O226 C236 1.264 . S
O227 Eu180 2.432 . S
O227 C244 1.268 . S
O228 Eu180 2.291 . S
O228 C243 1.255 . S
O229 Eu191 2.372 . S
O229 C243 1.257 . S
O230 Eu191 2.462 . S
O230 C255 1.252 . S
O231 Eu191 2.373 . S
O231 C247 1.249 . S
O232 Eu180 2.335 . S
O232 C247 1.264 . S
O233 Eu191 2.432 . S
O233 C255 1.268 . S
O234 Eu191 2.291 . S
O234 C254 1.255 . S
O235 Eu180 2.372 . S
O235 C254 1.257 . S
C236 O225 1.249 . S
C236 O226 1.264 . S
C237 C240 1.382 . S
C237 C242 1.390 . S
C237 C244 1.506 . S
C238 C239 1.398 . S
C238 C242 1.392 . S
C239 C238 1.398 . S
C239 C241 1.372 . S
C239 H256 0.931 . S
C240 C237 1.382 . S
C240 C241 1.390 . S
C240 H257 0.931 . S
C241 C239 1.372 . S
C241 C240 1.390 . S
C241 H258 0.929 . S
C242 C237 1.390 . S
C242 C238 1.392 . S
C242 H259 0.930 . S
C243 O228 1.255 . S
C243 O229 1.257 . S
C244 Eu180 2.787 . S
C244 O224 1.252 . S
C244 O227 1.268 . S
C244 C237 1.506 . S
C245 C212 1.439 . S
C245 H222 0.931 . S
C245 C246 1.374 . S
C246 C217 1.387 . S
C246 H223 0.931 . S
C246 C245 1.374 . S
C247 O231 1.249 . S
C247 O232 1.264 . S
C248 C251 1.382 . S
C248 C252 1.390 . S
C248 C255 1.506 . S
C249 C250 1.398 . S
C249 C252 1.392 . S
C250 C249 1.398 . S
C250 C253 1.372 . S
C250 H260 0.931 . S
C251 C248 1.382 . S
C251 C253 1.390 . S
C251 H261 0.931 . S
C252 C248 1.390 . S
C252 C249 1.392 . S
C252 H262 0.930 . S
C253 C250 1.372 . S
C253 C251 1.390 . S
C253 H263 0.929 . S
C254 O234 1.255 . S
C254 O235 1.257 . S
C255 Eu191 2.787 . S
C255 O230 1.252 . S
C255 O233 1.268 . S
C255 C248 1.506 . S
H256 C239 0.931 . S
H257 C240 0.931 . S
H258 C241 0.929 . S
H259 C242 0.930 . S
H260 C250 0.931 . S
H261 C251 0.931 . S
H262 C252 0.930 . S
H263 C253 0.929 . S
Eu264 N293 2.600 . S
Eu264 N299 2.562 . S
Eu264 O308 2.462 . S
Eu264 O309 2.373 . S
Eu264 O311 2.432 . S
Eu264 O312 2.291 . S
Eu264 O316 2.335 . S
Eu264 O319 2.372 . S
Eu264 C328 2.787 . S
C265 N266 1.365 . S
C265 C268 1.405 . S
C265 C272 1.448 . S
N266 C265 1.365 . S
N266 C269 1.319 . S
N266 Eu275 2.600 . S
C267 C269 1.397 . S
C267 C270 1.367 . S
C267 H287 0.931 . S
C268 C265 1.405 . S
C268 C270 1.403 . S
C268 C274 1.439 . S
C269 N266 1.319 . S
C269 C267 1.397 . S
C269 H280 0.930 . S
C270 C267 1.367 . S
C270 C268 1.403 . S
C270 H291 0.929 . S
C271 C272 1.430 . S
C271 C273 1.387 . S
C271 C277 1.404 . S
C272 C265 1.448 . S
C272 C271 1.430 . S
C272 N276 1.351 . S
C273 C271 1.387 . S
C273 C274 1.374 . S
C273 H288 0.931 . S
C274 C268 1.439 . S
C274 C273 1.374 . S
C274 H289 0.931 . S
Eu275 N266 2.600 . S
Eu275 N276 2.562 . S
Eu275 O310 2.335 1_655 S
Eu275 O313 2.372 . S
Eu275 O314 2.462 . S
Eu275 O315 2.373 . S
Eu275 O317 2.432 . S
Eu275 O318 2.291 1_655 S
Eu275 C339 2.787 . S
N276 C272 1.351 . S
N276 Eu275 2.562 . S
N276 C278 1.325 . S
C277 C271 1.404 . S
C277 C279 1.366 . S
C277 H285 0.930 . S
C278 N276 1.325 . S
C278 C279 1.416 . S
C278 H284 0.929 . S
C279 C277 1.366 . S
C279 C278 1.416 . S
C279 H281 0.930 . S
H280 C269 0.930 . S
H281 C279 0.930 . S
H282 C297 0.930 . S
H283 C304 0.930 . S
H284 C278 0.929 . S
H285 C277 0.930 . S
H286 C300 0.929 . S
H287 C267 0.931 . S
H288 C273 0.931 . S
H289 C274 0.931 . S
H290 C295 0.931 . S
H291 C270 0.929 . S
H292 C303 0.930 . S
N293 Eu264 2.600 . S
N293 C294 1.365 . S
N293 C297 1.319 . S
C294 N293 1.365 . S
C294 C296 1.405 . S
C294 C302 1.448 . S
C295 H290 0.931 . S
C295 C297 1.397 . S
C295 C298 1.367 . S
C296 C294 1.405 . S
C296 C298 1.403 . S
C296 C329 1.439 . S
C297 H282 0.930 . S
C297 N293 1.319 . S
C297 C295 1.397 . S
C298 C295 1.367 . S
C298 C296 1.403 . S
C298 H305 0.929 . S
N299 Eu264 2.562 . S
N299 C300 1.325 . S
N299 C302 1.351 . S
C300 H286 0.929 . S
C300 N299 1.325 . S
C300 C304 1.416 . S
C301 C302 1.430 . S
C301 C303 1.404 . S
C301 C330 1.387 . S
C302 C294 1.448 . S
C302 N299 1.351 . S
C302 C301 1.430 . S
C303 H292 0.930 . S
C303 C301 1.404 . S
C303 C304 1.366 . S
C304 H283 0.930 . S
C304 C300 1.416 . S
C304 C303 1.366 . S
H305 C298 0.929 . S
H306 C329 0.931 . S
H307 C330 0.931 . S
O308 Eu264 2.462 . S
O308 C328 1.252 . S
O309 Eu264 2.373 . S
O309 C320 1.249 . S
O310 Eu275 2.335 1_455 S
O310 C320 1.264 . S
O311 Eu264 2.432 . S
O311 C328 1.268 . S
O312 Eu264 2.291 . S
O312 C327 1.255 1_455 S
O313 Eu275 2.372 . S
O313 C327 1.257 . S
O314 Eu275 2.462 . S
O314 C339 1.252 . S
O315 Eu275 2.373 . S
O315 C331 1.249 . S
O316 Eu264 2.335 . S
O316 C331 1.264 1_455 S
O317 Eu275 2.432 . S
O317 C339 1.268 . S
O318 Eu275 2.291 1_455 S
O318 C338 1.255 . S
O319 Eu264 2.372 . S
O319 C338 1.257 . S
C320 O309 1.249 . S
C320 O310 1.264 . S
C321 C324 1.382 . S
C321 C326 1.390 . S
C321 C328 1.506 . S
C322 C323 1.398 . S
C322 C326 1.392 . S
C323 C322 1.398 . S
C323 C325 1.372 . S
C323 H340 0.931 . S
C324 C321 1.382 . S
C324 C325 1.390 . S
C324 H341 0.931 . S
C325 C323 1.372 . S
C325 C324 1.390 . S
C325 H342 0.929 . S
C326 C321 1.390 . S
C326 C322 1.392 . S
C326 H343 0.930 . S
C327 O312 1.255 1_655 S
C327 O313 1.257 . S
C328 Eu264 2.787 . S
C328 O308 1.252 . S
C328 O311 1.268 . S
C328 C321 1.506 . S
C329 C296 1.439 . S
C329 H306 0.931 . S
C329 C330 1.374 . S
C330 C301 1.387 . S
C330 H307 0.931 . S
C330 C329 1.374 . S
C331 O315 1.249 . S
C331 O316 1.264 1_655 S
C332 C335 1.382 . S
C332 C336 1.390 . S
C332 C339 1.506 . S
C333 C334 1.398 . S
C333 C336 1.392 . S
C334 C333 1.398 . S
C334 C337 1.372 . S
C334 H344 0.931 . S
C335 C332 1.382 . S
C335 C337 1.390 . S
C335 H345 0.931 . S
C336 C332 1.390 . S
C336 C333 1.392 . S
C336 H346 0.930 . S
C337 C334 1.372 . S
C337 C335 1.390 . S
C337 H347 0.929 . S
C338 O318 1.255 . S
C338 O319 1.257 . S
C339 Eu275 2.787 . S
C339 O314 1.252 . S
C339 O317 1.268 . S
C339 C332 1.506 . S
H340 C323 0.931 . S
H341 C324 0.931 . S
H342 C325 0.929 . S
H343 C326 0.930 . S
H344 C334 0.931 . S
H345 C335 0.931 . S
H346 C336 0.930 . S
H347 C337 0.929 . S
Eu348 N377 2.600 . S
Eu348 N383 2.562 . S
Eu348 O392 2.462 . S
Eu348 O393 2.373 . S
Eu348 O395 2.432 . S
Eu348 O396 2.291 . S
Eu348 O400 2.335 . S
Eu348 O403 2.372 . S
Eu348 C412 2.787 . S
C349 N350 1.365 . S
C349 C352 1.405 . S
C349 C356 1.448 . S
N350 C349 1.365 . S
N350 C353 1.319 . S
N350 Eu359 2.600 . S
C351 C353 1.397 . S
C351 C354 1.367 . S
C351 H371 0.931 . S
C352 C349 1.405 . S
C352 C354 1.403 . S
C352 C358 1.439 . S
C353 N350 1.319 . S
C353 C351 1.397 . S
C353 H364 0.930 . S
C354 C351 1.367 . S
C354 C352 1.403 . S
C354 H375 0.929 . S
C355 C356 1.430 . S
C355 C357 1.387 . S
C355 C361 1.404 . S
C356 C349 1.448 . S
C356 C355 1.430 . S
C356 N360 1.351 . S
C357 C355 1.387 . S
C357 C358 1.374 . S
C357 H372 0.931 . S
C358 C352 1.439 . S
C358 C357 1.374 . S
C358 H373 0.931 . S
Eu359 N350 2.600 . S
Eu359 N360 2.562 . S
Eu359 O394 2.335 . S
Eu359 O397 2.372 . S
Eu359 O398 2.462 . S
Eu359 O399 2.373 . S
Eu359 O401 2.432 . S
Eu359 O402 2.291 . S
Eu359 C423 2.787 . S
N360 C356 1.351 . S
N360 Eu359 2.562 . S
N360 C362 1.325 . S
C361 C355 1.404 . S
C361 C363 1.366 . S
C361 H369 0.930 . S
C362 N360 1.325 . S
C362 C363 1.416 . S
C362 H368 0.929 . S
C363 C361 1.366 . S
C363 C362 1.416 . S
C363 H365 0.930 . S
H364 C353 0.930 . S
H365 C363 0.930 . S
H366 C381 0.930 . S
H367 C388 0.930 . S
H368 C362 0.929 . S
H369 C361 0.930 . S
H370 C384 0.929 . S
H371 C351 0.931 . S
H372 C357 0.931 . S
H373 C358 0.931 . S
H374 C379 0.931 . S
H375 C354 0.929 . S
H376 C387 0.930 . S
N377 Eu348 2.600 . S
N377 C378 1.365 . S
N377 C381 1.319 . S
C378 N377 1.365 . S
C378 C380 1.405 . S
C378 C386 1.448 . S
C379 H374 0.931 . S
C379 C381 1.397 . S
C379 C382 1.367 . S
C380 C378 1.405 . S
C380 C382 1.403 . S
C380 C413 1.439 . S
C381 H366 0.930 . S
C381 N377 1.319 . S
C381 C379 1.397 . S
C382 C379 1.367 . S
C382 C380 1.403 . S
C382 H389 0.929 . S
N383 Eu348 2.562 . S
N383 C384 1.325 . S
N383 C386 1.351 . S
C384 H370 0.929 . S
C384 N383 1.325 . S
C384 C388 1.416 . S
C385 C386 1.430 . S
C385 C387 1.404 . S
C385 C414 1.387 . S
C386 C378 1.448 . S
C386 N383 1.351 . S
C386 C385 1.430 . S
C387 H376 0.930 . S
C387 C385 1.404 . S
C387 C388 1.366 . S
C388 H367 0.930 . S
C388 C384 1.416 . S
C388 C387 1.366 . S
H389 C382 0.929 . S
H390 C413 0.931 . S
H391 C414 0.931 . S
O392 Eu348 2.462 . S
O392 C412 1.252 . S
O393 Eu348 2.373 . S
O393 C404 1.249 . S
O394 Eu359 2.335 . S
O394 C404 1.264 . S
O395 Eu348 2.432 . S
O395 C412 1.268 . S
O396 Eu348 2.291 . S
O396 C411 1.255 . S
O397 Eu359 2.372 . S
O397 C411 1.257 . S
O398 Eu359 2.462 . S
O398 C423 1.252 . S
O399 Eu359 2.373 . S
O399 C415 1.249 . S
O400 Eu348 2.335 . S
O400 C415 1.264 . S
O401 Eu359 2.432 . S
O401 C423 1.268 . S
O402 Eu359 2.291 . S
O402 C422 1.255 . S
O403 Eu348 2.372 . S
O403 C422 1.257 . S
C404 O393 1.249 . S
C404 O394 1.264 . S
C405 C408 1.382 . S
C405 C410 1.390 . S
C405 C412 1.506 . S
C406 C407 1.398 . S
C406 C410 1.392 . S
C407 C406 1.398 . S
C407 C409 1.372 . S
C407 H424 0.931 . S
C408 C405 1.382 . S
C408 C409 1.390 . S
C408 H425 0.931 . S
C409 C407 1.372 . S
C409 C408 1.390 . S
C409 H426 0.929 . S
C410 C405 1.390 . S
C410 C406 1.392 . S
C410 H427 0.930 . S
C411 O396 1.255 . S
C411 O397 1.257 . S
C412 Eu348 2.787 . S
C412 O392 1.252 . S
C412 O395 1.268 . S
C412 C405 1.506 . S
C413 C380 1.439 . S
C413 H390 0.931 . S
C413 C414 1.374 . S
C414 C385 1.387 . S
C414 H391 0.931 . S
C414 C413 1.374 . S
C415 O399 1.249 . S
C415 O400 1.264 . S
C416 C419 1.382 . S
C416 C420 1.390 . S
C416 C423 1.506 . S
C417 C418 1.398 . S
C417 C420 1.392 . S
C418 C417 1.398 . S
C418 C421 1.372 . S
C418 H428 0.931 . S
C419 C416 1.382 . S
C419 C421 1.390 . S
C419 H429 0.931 . S
C420 C416 1.390 . S
C420 C417 1.392 . S
C420 H430 0.930 . S
C421 C418 1.372 . S
C421 C419 1.390 . S
C421 H431 0.929 . S
C422 O402 1.255 . S
C422 O403 1.257 . S
C423 Eu359 2.787 . S
C423 O398 1.252 . S
C423 O401 1.268 . S
C423 C416 1.506 . S
H424 C407 0.931 . S
H425 C408 0.931 . S
H426 C409 0.929 . S
H427 C410 0.930 . S
H428 C418 0.931 . S
H429 C419 0.931 . S
H430 C420 0.930 . S
H431 C421 0.929 . S
C432 C433 1.349 . S
C432 C434 1.327 . S
C432 H457 0.950 . S
C433 C432 1.349 . S
C433 C449 1.349 . S
C434 C432 1.327 . S
C434 C453 1.429 . S
C434 H458 0.950 . S
C435 C452 1.574 . S
C435 C454 1.368 . S
C435 H459 0.949 . S
H436 C440 0.949 . S
C437 C438 1.349 . S
C437 C439 1.327 . S
C437 H460 0.950 . S
C438 C437 1.349 . S
C438 C450 1.349 . S
C439 C437 1.327 . S
C439 C455 1.429 . S
C439 H461 0.950 1_545 S
C440 H436 0.949 . S
C440 C448 1.574 1_545 S
C440 C456 1.368 1_545 S
H441 C449 0.950 . S
H442 C447 0.950 . S
H443 C448 0.949 . S
H444 C450 0.950 . S
H445 C451 0.950 . S
H446 C452 0.949 . S
C447 H442 0.950 . S
C447 C449 1.327 . S
C447 C453 1.429 . S
C448 C440 1.574 1_565 S
C448 H443 0.949 . S
C448 C454 1.368 . S
C449 C433 1.349 . S
C449 H441 0.950 . S
C449 C447 1.327 . S
C450 C438 1.349 . S
C450 H444 0.950 . S
C450 C451 1.327 . S
C451 H445 0.950 . S
C451 C450 1.327 . S
C451 C455 1.429 . S
C452 C435 1.574 . S
C452 H446 0.949 . S
C452 C456 1.368 . S
C453 C434 1.429 . S
C453 C447 1.429 . S
C453 C454 1.523 . S
C454 C435 1.368 . S
C454 C448 1.368 . S
C454 C453 1.523 . S
C455 C439 1.429 . S
C455 C451 1.429 . S
C455 C456 1.523 1_545 S
C456 C440 1.368 1_565 S
C456 C452 1.368 . S
C456 C455 1.523 1_565 S
H457 C432 0.950 . S
H458 C434 0.950 . S
H459 C435 0.949 . S
H460 C437 0.950 . S
H461 C439 0.950 1_565 S
C462 C463 1.349 . S
C462 C464 1.327 . S
C462 H487 0.950 . S
C463 C462 1.349 . S
C463 C479 1.349 . S
C464 C462 1.327 . S
C464 C483 1.429 . S
C464 H488 0.950 . S
C465 C482 1.574 . S
C465 C484 1.368 . S
C465 H489 0.949 . S
H466 C470 0.949 . S
C467 C468 1.349 . S
C467 C469 1.327 . S
C467 H490 0.950 . S
C468 C467 1.349 . S
C468 C480 1.349 . S
C469 C467 1.327 . S
C469 C485 1.429 . S
C469 H491 0.950 . S
C470 H466 0.949 . S
C470 C478 1.574 . S
C470 C486 1.368 . S
H471 C479 0.950 . S
H472 C477 0.950 . S
H473 C478 0.949 . S
H474 C480 0.950 . S
H475 C481 0.950 . S
H476 C482 0.949 . S
C477 H472 0.950 . S
C477 C479 1.327 . S
C477 C483 1.429 . S
C478 C470 1.574 . S
C478 H473 0.949 . S
C478 C484 1.368 . S
C479 C463 1.349 . S
C479 H471 0.950 . S
C479 C477 1.327 . S
C480 C468 1.349 . S
C480 H474 0.950 . S
C480 C481 1.327 . S
C481 H475 0.950 . S
C481 C480 1.327 . S
C481 C485 1.429 . S
C482 C465 1.574 . S
C482 H476 0.949 . S
C482 C486 1.368 . S
C483 C464 1.429 . S
C483 C477 1.429 . S
C483 C484 1.523 . S
C484 C465 1.368 . S
C484 C478 1.368 . S
C484 C483 1.523 . S
C485 C469 1.429 . S
C485 C481 1.429 . S
C485 C486 1.523 . S
C486 C470 1.368 . S
C486 C482 1.368 . S
C486 C485 1.523 . S
H487 C462 0.950 . S
H488 C464 0.950 . S
H489 C465 0.949 . S
H490 C467 0.950 . S
H491 C469 0.950 . S
C492 C493 1.349 . S
C492 C494 1.327 . S
C492 H517 0.950 . S
C493 C492 1.349 . S
C493 C509 1.349 . S
C494 C492 1.327 . S
C494 C513 1.429 . S
C494 H518 0.950 . S
C495 C512 1.574 . S
C495 C514 1.368 . S
C495 H519 0.949 . S
H496 C500 0.949 . S
C497 C498 1.349 . S
C497 C499 1.327 . S
C497 H520 0.950 . S
C498 C497 1.349 . S
C498 C510 1.349 . S
C499 C497 1.327 . S
C499 C515 1.429 . S
C499 H521 0.950 . S
C500 H496 0.949 . S
C500 C508 1.574 . S
C500 C516 1.368 . S
H501 C509 0.950 . S
H502 C507 0.950 . S
H503 C508 0.949 . S
H504 C510 0.950 . S
H505 C511 0.950 . S
H506 C512 0.949 . S
C507 H502 0.950 . S
C507 C509 1.327 . S
C507 C513 1.429 . S
C508 C500 1.574 . S
C508 H503 0.949 . S
C508 C514 1.368 . S
C509 C493 1.349 . S
C509 H501 0.950 . S
C509 C507 1.327 . S
C510 C498 1.349 . S
C510 H504 0.950 . S
C510 C511 1.327 . S
C511 H505 0.950 . S
C511 C510 1.327 . S
C511 C515 1.429 . S
C512 C495 1.574 . S
C512 H506 0.949 . S
C512 C516 1.368 . S
C513 C494 1.429 . S
C513 C507 1.429 . S
C513 C514 1.523 . S
C514 C495 1.368 . S
C514 C508 1.368 . S
C514 C513 1.523 . S
C515 C499 1.429 . S
C515 C511 1.429 . S
C515 C516 1.523 . S
C516 C500 1.368 . S
C516 C512 1.368 . S
C516 C515 1.523 . S
H517 C492 0.950 . S
H518 C494 0.950 . S
H519 C495 0.949 . S
H520 C497 0.950 . S
H521 C499 0.950 . S
C522 C523 1.349 . S
C522 C524 1.327 . S
C522 H547 0.950 . S
C523 C522 1.349 . S
C523 C539 1.349 . S
C524 C522 1.327 . S
C524 C543 1.429 . S
C524 H548 0.950 . S
C525 C542 1.574 1_565 S
C525 C544 1.368 . S
C525 H549 0.949 . S
H526 C530 0.949 . S
C527 C528 1.349 . S
C527 C529 1.327 . S
C527 H550 0.950 . S
C528 C527 1.349 . S
C528 C540 1.349 . S
C529 C527 1.327 . S
C529 C545 1.429 . S
C529 H551 0.950 . S
C530 H526 0.949 . S
C530 C538 1.574 . S
C530 C546 1.368 . S
H531 C539 0.950 . S
H532 C537 0.950 . S
H533 C538 0.949 . S
H534 C540 0.950 . S
H535 C541 0.950 1_565 S
H536 C542 0.949 . S
C537 H532 0.950 . S
C537 C539 1.327 . S
C537 C543 1.429 . S
C538 C530 1.574 . S
C538 H533 0.949 . S
C538 C544 1.368 . S
C539 C523 1.349 . S
C539 H531 0.950 . S
C539 C537 1.327 . S
C540 C528 1.349 . S
C540 H534 0.950 . S
C540 C541 1.327 . S
C541 H535 0.950 1_545 S
C541 C540 1.327 . S
C541 C545 1.429 . S
C542 C525 1.574 1_545 S
C542 H536 0.949 . S
C542 C546 1.368 1_545 S
C543 C524 1.429 . S
C543 C537 1.429 . S
C543 C544 1.523 . S
C544 C525 1.368 . S
C544 C538 1.368 . S
C544 C543 1.523 . S
C545 C529 1.429 . S
C545 C541 1.429 . S
C545 C546 1.523 1_545 S
C546 C530 1.368 . S
C546 C542 1.368 1_565 S
C546 C545 1.523 1_565 S
H547 C522 0.950 . S
H548 C524 0.950 . S
H549 C525 0.949 . S
H550 C527 0.950 . S
H551 C529 0.950 . S
C552 C553 1.349 . S
C552 C554 1.327 . S
C552 H577 0.950 . S
C553 C552 1.349 . S
C553 C569 1.349 . S
C554 C552 1.327 . S
C554 C573 1.429 . S
C554 H578 0.950 . S
C555 C572 1.574 . S
C555 C574 1.368 . S
C555 H579 0.949 . S
H556 C560 0.949 . S
C557 C558 1.349 . S
C557 C559 1.327 . S
C557 H580 0.950 . S
C558 C557 1.349 . S
C558 C570 1.349 . S
C559 C557 1.327 . S
C559 C575 1.429 . S
C559 H581 0.950 1_565 S
C560 H556 0.949 . S
C560 C568 1.574 1_565 S
C560 C576 1.368 1_565 S
H561 C569 0.950 . S
H562 C567 0.950 . S
H563 C568 0.949 . S
H564 C570 0.950 . S
H565 C571 0.950 . S
H566 C572 0.949 . S
C567 H562 0.950 . S
C567 C569 1.327 . S
C567 C573 1.429 . S
C568 C560 1.574 1_545 S
C568 H563 0.949 . S
C568 C574 1.368 . S
C569 C553 1.349 . S
C569 H561 0.950 . S
C569 C567 1.327 . S
C570 C558 1.349 . S
C570 H564 0.950 . S
C570 C571 1.327 . S
C571 H565 0.950 . S
C571 C570 1.327 . S
C571 C575 1.429 . S
C572 C555 1.574 . S
C572 H566 0.949 . S
C572 C576 1.368 . S
C573 C554 1.429 . S
C573 C567 1.429 . S
C573 C574 1.523 . S
C574 C555 1.368 . S
C574 C568 1.368 . S
C574 C573 1.523 . S
C575 C559 1.429 . S
C575 C571 1.429 . S
C575 C576 1.523 1_565 S
C576 C560 1.368 1_545 S
C576 C572 1.368 . S
C576 C575 1.523 1_545 S
H577 C552 0.950 . S
H578 C554 0.950 . S
H579 C555 0.949 . S
H580 C557 0.950 . S
H581 C559 0.950 1_545 S
C582 C583 1.349 . S
C582 C584 1.327 . S
C582 H607 0.950 . S
C583 C582 1.349 . S
C583 C599 1.349 . S
C584 C582 1.327 . S
C584 C603 1.429 . S
C584 H608 0.950 . S
C585 C602 1.574 . S
C585 C604 1.368 . S
C585 H609 0.949 . S
H586 C590 0.949 . S
C587 C588 1.349 . S
C587 C589 1.327 . S
C587 H610 0.950 . S
C588 C587 1.349 . S
C588 C600 1.349 . S
C589 C587 1.327 . S
C589 C605 1.429 . S
C589 H611 0.950 . S
C590 H586 0.949 . S
C590 C598 1.574 . S
C590 C606 1.368 . S
H591 C599 0.950 . S
H592 C597 0.950 . S
H593 C598 0.949 . S
H594 C600 0.950 . S
H595 C601 0.950 . S
H596 C602 0.949 . S
C597 H592 0.950 . S
C597 C599 1.327 . S
C597 C603 1.429 . S
C598 C590 1.574 . S
C598 H593 0.949 . S
C598 C604 1.368 . S
C599 C583 1.349 . S
C599 H591 0.950 . S
C599 C597 1.327 . S
C600 C588 1.349 . S
C600 H594 0.950 . S
C600 C601 1.327 . S
C601 H595 0.950 . S
C601 C600 1.327 . S
C601 C605 1.429 . S
C602 C585 1.574 . S
C602 H596 0.949 . S
C602 C606 1.368 . S
C603 C584 1.429 . S
C603 C597 1.429 . S
C603 C604 1.523 . S
C604 C585 1.368 . S
C604 C598 1.368 . S
C604 C603 1.523 . S
C605 C589 1.429 . S
C605 C601 1.429 . S
C605 C606 1.523 . S
C606 C590 1.368 . S
C606 C602 1.368 . S
C606 C605 1.523 . S
H607 C582 0.950 . S
H608 C584 0.950 . S
H609 C585 0.949 . S
H610 C587 0.950 . S
H611 C589 0.950 . S
C612 C613 1.349 . S
C612 C614 1.327 . S
C612 H637 0.950 . S
C613 C612 1.349 . S
C613 C629 1.349 . S
C614 C612 1.327 . S
C614 C633 1.429 . S
C614 H638 0.950 . S
C615 C632 1.574 . S
C615 C634 1.368 . S
C615 H639 0.949 . S
H616 C620 0.949 . S
C617 C618 1.349 . S
C617 C619 1.327 . S
C617 H640 0.950 . S
C618 C617 1.349 . S
C618 C630 1.349 . S
C619 C617 1.327 . S
C619 C635 1.429 . S
C619 H641 0.950 . S
C620 H616 0.949 . S
C620 C628 1.574 . S
C620 C636 1.368 . S
H621 C629 0.950 . S
H622 C627 0.950 . S
H623 C628 0.949 . S
H624 C630 0.950 . S
H625 C631 0.950 . S
H626 C632 0.949 . S
C627 H622 0.950 . S
C627 C629 1.327 . S
C627 C633 1.429 . S
C628 C620 1.574 . S
C628 H623 0.949 . S
C628 C634 1.368 . S
C629 C613 1.349 . S
C629 H621 0.950 . S
C629 C627 1.327 . S
C630 C618 1.349 . S
C630 H624 0.950 . S
C630 C631 1.327 . S
C631 H625 0.950 . S
C631 C630 1.327 . S
C631 C635 1.429 . S
C632 C615 1.574 . S
C632 H626 0.949 . S
C632 C636 1.368 . S
C633 C614 1.429 . S
C633 C627 1.429 . S
C633 C634 1.523 . S
C634 C615 1.368 . S
C634 C628 1.368 . S
C634 C633 1.523 . S
C635 C619 1.429 . S
C635 C631 1.429 . S
C635 C636 1.523 . S
C636 C620 1.368 . S
C636 C632 1.368 . S
C636 C635 1.523 . S
H637 C612 0.950 . S
H638 C614 0.950 . S
H639 C615 0.949 . S
H640 C617 0.950 . S
H641 C619 0.950 . S
C642 C643 1.349 . S
C642 C644 1.327 . S
C642 H667 0.950 . S
C643 C642 1.349 . S
C643 C659 1.349 . S
C644 C642 1.327 . S
C644 C663 1.429 . S
C644 H668 0.950 . S
C645 C662 1.574 . S
C645 C664 1.368 . S
C645 H669 0.949 . S
H646 C650 0.949 . S
C647 C648 1.349 . S
C647 C649 1.327 . S
C647 H670 0.950 . S
C648 C647 1.349 . S
C648 C660 1.349 . S
C649 C647 1.327 . S
C649 C665 1.429 . S
C649 H671 0.950 . S
C650 H646 0.949 . S
C650 C658 1.574 . S
C650 C666 1.368 . S
H651 C659 0.950 . S
H652 C657 0.950 . S
H653 C658 0.949 . S
H654 C660 0.950 . S
H655 C661 0.950 1_545 S
H656 C662 0.949 1_565 S
C657 H652 0.950 . S
C657 C659 1.327 . S
C657 C663 1.429 . S
C658 C650 1.574 . S
C658 H653 0.949 . S
C658 C664 1.368 . S
C659 C643 1.349 . S
C659 H651 0.950 . S
C659 C657 1.327 . S
C660 C648 1.349 . S
C660 H654 0.950 . S
C660 C661 1.327 . S
C661 H655 0.950 1_565 S
C661 C660 1.327 . S
C661 C665 1.429 . S
C662 C645 1.574 . S
C662 H656 0.949 1_545 S
C662 C666 1.368 . S
C663 C644 1.429 . S
C663 C657 1.429 . S
C663 C664 1.523 . S
C664 C645 1.368 . S
C664 C658 1.368 . S
C664 C663 1.523 . S
C665 C649 1.429 . S
C665 C661 1.429 . S
C665 C666 1.523 1_565 S
C666 C650 1.368 . S
C666 C662 1.368 . S
C666 C665 1.523 1_545 S
H667 C642 0.950 . S
H668 C644 0.950 . S
H669 C645 0.949 . S
H670 C647 0.950 . S
H671 C649 0.950 . S
C672 C673 1.349 . S
C672 C674 1.327 . S
C672 H697 0.950 . S
C673 C672 1.349 . S
C673 C689 1.349 . S
C674 C672 1.327 . S
C674 C693 1.429 . S
C674 H698 0.950 . S
C675 C692 1.574 . S
C675 C694 1.368 . S
C675 H699 0.949 . S
H676 C680 0.949 . S
C677 C678 1.349 . S
C677 C679 1.327 . S
C677 H700 0.950 . S
C678 C677 1.349 . S
C678 C690 1.349 . S
C679 C677 1.327 . S
C679 C695 1.429 . S
C679 H701 0.950 . S
C680 H676 0.949 . S
C680 C688 1.574 . S
C680 C696 1.368 . S
H681 C689 0.950 . S
H682 C687 0.950 . S
H683 C688 0.949 . S
H684 C690 0.950 . S
H685 C691 0.950 . S
H686 C692 0.949 . S
C687 H682 0.950 . S
C687 C689 1.327 . S
C687 C693 1.429 . S
C688 C680 1.574 . S
C688 H683 0.949 . S
C688 C694 1.368 . S
C689 C673 1.349 . S
C689 H681 0.950 . S
C689 C687 1.327 . S
C690 C678 1.349 . S
C690 H684 0.950 . S
C690 C691 1.327 . S
C691 H685 0.950 . S
C691 C690 1.327 . S
C691 C695 1.429 . S
C692 C675 1.574 . S
C692 H686 0.949 . S
C692 C696 1.368 . S
C693 C674 1.429 . S
C693 C687 1.429 . S
C693 C694 1.523 1_556 S
C694 C675 1.368 . S
C694 C688 1.368 . S
C694 C693 1.523 1_554 S
C695 C679 1.429 . S
C695 C691 1.429 . S
C695 C696 1.523 . S
C696 C680 1.368 . S
C696 C692 1.368 . S
C696 C695 1.523 . S
H697 C672 0.950 . S
H698 C674 0.950 . S
H699 C675 0.949 . S
H700 C677 0.950 . S
H701 C679 0.950 . S
C702 C703 1.349 . S
C702 C704 1.327 . S
C702 H727 0.950 . S
C703 C702 1.349 . S
C703 C719 1.349 . S
C704 C702 1.327 . S
C704 C723 1.429 . S
C704 H728 0.950 . S
C705 C722 1.574 . S
C705 C724 1.368 . S
C705 H729 0.949 . S
H706 C710 0.949 . S
C707 C708 1.349 . S
C707 C709 1.327 . S
C707 H730 0.950 . S
C708 C707 1.349 . S
C708 C720 1.349 . S
C709 C707 1.327 . S
C709 C725 1.429 . S
C709 H731 0.950 . S
C710 H706 0.949 . S
C710 C718 1.574 . S
C710 C726 1.368 . S
H711 C719 0.950 . S
H712 C717 0.950 . S
H713 C718 0.949 . S
H714 C720 0.950 . S
H715 C721 0.950 . S
H716 C722 0.949 . S
C717 H712 0.950 . S
C717 C719 1.327 . S
C717 C723 1.429 . S
C718 C710 1.574 . S
C718 H713 0.949 . S
C718 C724 1.368 . S
C719 C703 1.349 . S
C719 H711 0.950 . S
C719 C717 1.327 . S
C720 C708 1.349 . S
C720 H714 0.950 . S
C720 C721 1.327 . S
C721 H715 0.950 . S
C721 C720 1.327 . S
C721 C725 1.429 . S
C722 C705 1.574 . S
C722 H716 0.949 . S
C722 C726 1.368 . S
C723 C704 1.429 . S
C723 C717 1.429 . S
C723 C724 1.523 . S
C724 C705 1.368 . S
C724 C718 1.368 . S
C724 C723 1.523 . S
C725 C709 1.429 . S
C725 C721 1.429 . S
C725 C726 1.523 . S
C726 C710 1.368 . S
C726 C722 1.368 . S
C726 C725 1.523 . S
H727 C702 0.950 . S
H728 C704 0.950 . S
H729 C705 0.949 . S
H730 C707 0.950 . S
H731 C709 0.950 . S
C732 C733 1.349 . S
C732 C734 1.327 . S
C732 H757 0.950 . S
C733 C732 1.349 . S
C733 C749 1.349 . S
C734 C732 1.327 . S
C734 C753 1.429 . S
C734 H758 0.950 . S
C735 C752 1.574 . S
C735 C754 1.368 . S
C735 H759 0.949 . S
H736 C740 0.949 . S
C737 C738 1.349 . S
C737 C739 1.327 . S
C737 H760 0.950 . S
C738 C737 1.349 . S
C738 C750 1.349 . S
C739 C737 1.327 . S
C739 C755 1.429 . S
C739 H761 0.950 . S
C740 H736 0.949 . S
C740 C748 1.574 . S
C740 C756 1.368 . S
H741 C749 0.950 . S
H742 C747 0.950 . S
H743 C748 0.949 . S
H744 C750 0.950 . S
H745 C751 0.950 . S
H746 C752 0.949 . S
C747 H742 0.950 . S
C747 C749 1.327 . S
C747 C753 1.429 . S
C748 C740 1.574 . S
C748 H743 0.949 . S
C748 C754 1.368 . S
C749 C733 1.349 . S
C749 H741 0.950 . S
C749 C747 1.327 . S
C750 C738 1.349 . S
C750 H744 0.950 . S
C750 C751 1.327 . S
C751 H745 0.950 . S
C751 C750 1.327 . S
C751 C755 1.429 . S
C752 C735 1.574 . S
C752 H746 0.949 . S
C752 C756 1.368 . S
C753 C734 1.429 . S
C753 C747 1.429 . S
C753 C754 1.523 1_554 S
C754 C735 1.368 . S
C754 C748 1.368 . S
C754 C753 1.523 1_556 S
C755 C739 1.429 . S
C755 C751 1.429 . S
C755 C756 1.523 . S
C756 C740 1.368 . S
C756 C752 1.368 . S
C756 C755 1.523 . S
H757 C732 0.950 . S
H758 C734 0.950 . S
H759 C735 0.949 . S
H760 C737 0.950 . S
H761 C739 0.950 . S
C762 C763 1.349 . S
C762 C764 1.327 . S
C762 H787 0.950 . S
C763 C762 1.349 . S
C763 C779 1.349 . S
C764 C762 1.327 . S
C764 C783 1.429 . S
C764 H788 0.950 . S
C765 C782 1.574 . S
C765 C784 1.368 . S
C765 H789 0.949 . S
H766 C770 0.949 . S
C767 C768 1.349 . S
C767 C769 1.327 . S
C767 H790 0.950 . S
C768 C767 1.349 . S
C768 C780 1.349 . S
C769 C767 1.327 . S
C769 C785 1.429 . S
C769 H791 0.950 . S
C770 H766 0.949 . S
C770 C778 1.574 . S
C770 C786 1.368 . S
H771 C779 0.950 . S
H772 C777 0.950 . S
H773 C778 0.949 . S
H774 C780 0.950 . S
H775 C781 0.950 . S
H776 C782 0.949 . S
C777 H772 0.950 . S
C777 C779 1.327 . S
C777 C783 1.429 . S
C778 C770 1.574 . S
C778 H773 0.949 . S
C778 C784 1.368 . S
C779 C763 1.349 . S
C779 H771 0.950 . S
C779 C777 1.327 . S
C780 C768 1.349 . S
C780 H774 0.950 . S
C780 C781 1.327 . S
C781 H775 0.950 . S
C781 C780 1.327 . S
C781 C785 1.429 . S
C782 C765 1.574 . S
C782 H776 0.949 . S
C782 C786 1.368 . S
C783 C764 1.429 . S
C783 C777 1.429 . S
C783 C784 1.523 . S
C784 C765 1.368 . S
C784 C778 1.368 . S
C784 C783 1.523 . S
C785 C769 1.429 . S
C785 C781 1.429 . S
C785 C786 1.523 . S
C786 C770 1.368 . S
C786 C782 1.368 . S
C786 C785 1.523 . S
H787 C762 0.950 . S
H788 C764 0.950 . S
H789 C765 0.949 . S
H790 C767 0.950 . S
H791 C769 0.950 . S
C792 C793 1.349 . S
C792 C794 1.327 . S
C792 H817 0.950 . S
C793 C792 1.349 . S
C793 C809 1.349 . S
C794 C792 1.327 . S
C794 C813 1.429 . S
C794 H818 0.915 1_554 S
C795 C812 1.574 . S
C795 C814 1.368 . S
C795 H819 0.949 . S
H796 C800 0.949 . S
C797 C798 1.349 . S
C797 C799 1.327 . S
C797 H820 0.950 . S
C798 C797 1.349 . S
C798 C810 1.349 . S
C799 C797 1.327 . S
C799 C815 1.429 . S
C799 H821 0.950 . S
C800 H796 0.949 . S
C800 C808 1.574 . S
C800 C816 1.368 . S
H801 C809 0.950 . S
H802 C807 0.950 . S
H803 C808 0.949 . S
H804 C810 0.950 . S
H805 C811 0.950 . S
H806 C812 0.949 . S
C807 H802 0.950 . S
C807 C809 1.327 . S
C807 C813 1.429 . S
C808 C800 1.574 . S
C808 H803 0.949 . S
C808 C814 1.368 . S
C809 C793 1.349 . S
C809 H801 0.950 . S
C809 C807 1.327 . S
C810 C798 1.349 . S
C810 H804 0.950 . S
C810 C811 1.327 . S
C811 H805 0.950 . S
C811 C810 1.327 . S
C811 C815 1.429 . S
C812 C795 1.574 . S
C812 H806 0.949 . S
C812 C816 1.368 . S
C813 C794 1.429 . S
C813 C807 1.429 . S
C813 C814 1.523 1_554 S
C814 C795 1.368 . S
C814 C808 1.368 . S
C814 C813 1.523 1_556 S
C815 C799 1.429 . S
C815 C811 1.429 . S
C815 C816 1.523 . S
C816 C800 1.368 . S
C816 C812 1.368 . S
C816 C815 1.523 . S
H817 C792 0.950 . S
H818 C794 0.915 1_556 S
H819 C795 0.949 . S
H820 C797 0.950 . S
H821 C799 0.950 . S
C822 C823 1.349 . S
C822 C824 1.327 . S
C822 H847 0.950 . S
C823 C822 1.349 . S
C823 C839 1.349 . S
C824 C822 1.327 . S
C824 C843 1.429 . S
C824 H848 0.950 . S
C825 C842 1.574 . S
C825 C844 1.368 . S
C825 H849 0.949 . S
H826 C830 0.949 . S
C827 C828 1.349 . S
C827 C829 1.327 . S
C827 H850 0.950 . S
C828 C827 1.349 . S
C828 C840 1.349 . S
C829 C827 1.327 . S
C829 C845 1.429 . S
C829 H851 0.950 . S
C830 H826 0.949 . S
C830 C838 1.574 . S
C830 C846 1.368 . S
H831 C839 0.950 . S
H832 C837 0.950 . S
H833 C838 0.949 . S
H834 C840 0.950 . S
H835 C841 0.950 . S
H836 C842 0.949 . S
C837 H832 0.950 . S
C837 C839 1.327 . S
C837 C843 1.429 . S
C838 C830 1.574 . S
C838 H833 0.949 . S
C838 C844 1.368 . S
C839 C823 1.349 . S
C839 H831 0.950 . S
C839 C837 1.327 . S
C840 C828 1.349 . S
C840 H834 0.950 . S
C840 C841 1.327 . S
C841 H835 0.950 . S
C841 C840 1.327 . S
C841 C845 1.429 . S
C842 C825 1.574 . S
C842 H836 0.949 . S
C842 C846 1.368 . S
C843 C824 1.429 . S
C843 C837 1.429 . S
C843 C844 1.523 . S
C844 C825 1.368 . S
C844 C838 1.368 . S
C844 C843 1.523 . S
C845 C829 1.429 . S
C845 C841 1.429 . S
C845 C846 1.523 . S
C846 C830 1.368 . S
C846 C842 1.368 . S
C846 C845 1.523 . S
H847 C822 0.950 . S
H848 C824 0.950 . S
H849 C825 0.949 . S
H850 C827 0.950 . S
H851 C829 0.950 . S
C852 C853 1.349 . S
C852 C854 1.327 . S
C852 H877 0.950 . S
C853 C852 1.349 . S
C853 C869 1.349 . S
C854 C852 1.327 . S
C854 C873 1.429 . S
C854 H878 0.950 . S
C855 C872 1.574 . S
C855 C874 1.368 . S
C855 H879 0.949 . S
H856 C860 0.949 . S
C857 C858 1.349 . S
C857 C859 1.327 . S
C857 H880 0.950 . S
C858 C857 1.349 . S
C858 C870 1.349 . S
C859 C857 1.327 . S
C859 C875 1.429 . S
C859 H881 0.950 . S
C860 H856 0.949 . S
C860 C868 1.574 . S
C860 C876 1.368 . S
H861 C869 0.950 . S
H862 C867 0.950 . S
H863 C868 0.949 . S
H864 C870 0.950 . S
H865 C871 0.950 . S
H866 C872 0.949 . S
C867 H862 0.950 . S
C867 C869 1.327 . S
C867 C873 1.429 . S
C868 C860 1.574 . S
C868 H863 0.949 . S
C868 C874 1.368 . S
C869 C853 1.349 . S
C869 H861 0.950 . S
C869 C867 1.327 . S
C870 C858 1.349 . S
C870 H864 0.950 . S
C870 C871 1.327 . S
C871 H865 0.950 . S
C871 C870 1.327 . S
C871 C875 1.429 . S
C872 C855 1.574 . S
C872 H866 0.949 . S
C872 C876 1.368 . S
C873 C854 1.429 . S
C873 C867 1.429 . S
C873 C874 1.523 1_556 S
C874 C855 1.368 . S
C874 C868 1.368 . S
C874 C873 1.523 1_554 S
C875 C859 1.429 . S
C875 C871 1.429 . S
C875 C876 1.523 . S
C876 C860 1.368 . S
C876 C872 1.368 . S
C876 C875 1.523 . S
H877 C852 0.950 . S
H878 C854 0.950 . S
H879 C855 0.949 . S
H880 C857 0.950 . S
H881 C859 0.950 . S
C882 C883 1.349 . S
C882 C884 1.327 . S
C882 H907 0.950 . S
C883 C882 1.349 . S
C883 C899 1.349 . S
C884 C882 1.327 . S
C884 C903 1.429 . S
C884 H908 0.950 . S
C885 C902 1.574 . S
C885 C904 1.368 . S
C885 H909 0.949 . S
H886 C890 0.949 . S
C887 C888 1.349 . S
C887 C889 1.327 . S
C887 H910 0.950 . S
C888 C887 1.349 . S
C888 C900 1.349 . S
C889 C887 1.327 . S
C889 C905 1.429 . S
C889 H911 0.950 . S
C890 H886 0.949 . S
C890 C898 1.574 . S
C890 C906 1.368 . S
H891 C899 0.950 . S
H892 C897 0.950 . S
H893 C898 0.949 . S
H894 C900 0.950 . S
H895 C901 0.950 . S
H896 C902 0.949 . S
C897 H892 0.950 . S
C897 C899 1.327 . S
C897 C903 1.429 . S
C898 C890 1.574 . S
C898 H893 0.949 . S
C898 C904 1.368 . S
C899 C883 1.349 . S
C899 H891 0.950 . S
C899 C897 1.327 . S
C900 C888 1.349 . S
C900 H894 0.950 . S
C900 C901 1.327 . S
C901 H895 0.950 . S
C901 C900 1.327 . S
C901 C905 1.429 . S
C902 C885 1.574 . S
C902 H896 0.949 . S
C902 C906 1.368 . S
C903 C884 1.429 . S
C903 C897 1.429 . S
C903 C904 1.523 . S
C904 C885 1.368 . S
C904 C898 1.368 . S
C904 C903 1.523 . S
C905 C889 1.429 . S
C905 C901 1.429 . S
C905 C906 1.523 . S
C906 C890 1.368 . S
C906 C902 1.368 . S
C906 C905 1.523 . S
H907 C882 0.950 . S
H908 C884 0.950 . S
H909 C885 0.949 . S
H910 C887 0.950 . S
H911 C889 0.950 . S
C912 C913 1.349 . S
C912 C914 1.327 . S
C912 H937 0.950 . S
C913 C912 1.349 . S
C913 C929 1.349 . S
C914 C912 1.327 . S
C914 C933 1.429 . S
C914 H938 0.950 . S
C915 C932 1.574 . S
C915 C934 1.368 . S
C915 H939 0.949 . S
H916 C920 0.949 . S
C917 C918 1.349 . S
C917 C919 1.327 . S
C917 H940 0.950 . S
C918 C917 1.349 . S
C918 C930 1.349 . S
C919 C917 1.327 . S
C919 C935 1.429 . S
C919 H941 0.950 . S
C920 H916 0.949 . S
C920 C928 1.574 . S
C920 C936 1.368 . S
H921 C929 0.950 . S
H922 C927 0.950 . S
H923 C928 0.949 . S
H924 C930 0.950 . S
H925 C931 0.950 . S
H926 C932 0.949 . S
C927 H922 0.950 . S
C927 C929 1.327 . S
C927 C933 1.429 . S
C928 C920 1.574 . S
C928 H923 0.949 . S
C928 C934 1.368 . S
C929 C913 1.349 . S
C929 H921 0.950 . S
C929 C927 1.327 . S
C930 C918 1.349 . S
C930 H924 0.950 . S
C930 C931 1.327 . S
C931 H925 0.950 . S
C931 C930 1.327 . S
C931 C935 1.429 . S
C932 C915 1.574 . S
C932 H926 0.949 . S
C932 C936 1.368 . S
C933 C914 1.429 . S
C933 C927 1.429 . S
C933 C934 1.523 . S
C934 C915 1.368 . S
C934 C928 1.368 . S
C934 C933 1.523 . S
C935 C919 1.429 . S
C935 C931 1.429 . S
C935 C936 1.523 . S
C936 C920 1.368 . S
C936 C932 1.368 . S
C936 C935 1.523 . S
H937 C912 0.950 . S
H938 C914 0.950 . S
H939 C915 0.949 . S
H940 C917 0.950 . S
H941 C919 0.950 . S
C942 C943 1.349 . S
C942 C944 1.327 . S
C942 H967 0.950 . S
C943 C942 1.349 . S
C943 C959 1.349 . S
C944 C942 1.327 . S
C944 C963 1.429 . S
C944 H968 0.950 . S
C945 C962 1.574 . S
C945 C964 1.368 . S
C945 H969 0.949 . S
H946 C950 0.949 . S
C947 C948 1.349 . S
C947 C949 1.327 . S
C947 H970 0.950 . S
C948 C947 1.349 . S
C948 C960 1.349 . S
C949 C947 1.327 . S
C949 C965 1.429 . S
C949 H971 0.950 . S
C950 H946 0.949 . S
C950 C958 1.574 . S
C950 C966 1.368 . S
H951 C959 0.950 . S
H952 C957 0.950 . S
H953 C958 0.949 . S
H954 C960 0.950 . S
H955 C961 0.950 . S
H956 C962 0.949 . S
C957 H952 0.950 . S
C957 C959 1.327 . S
C957 C963 1.429 . S
C958 C950 1.574 . S
C958 H953 0.949 . S
C958 C964 1.368 . S
C959 C943 1.349 . S
C959 H951 0.950 . S
C959 C957 1.327 . S
C960 C948 1.349 . S
C960 H954 0.950 . S
C960 C961 1.327 . S
C961 H955 0.950 . S
C961 C960 1.327 . S
C961 C965 1.429 . S
C962 C945 1.574 . S
C962 H956 0.949 . S
C962 C966 1.368 . S
C963 C944 1.429 . S
C963 C957 1.429 . S
C963 C964 1.523 . S
C964 C945 1.368 . S
C964 C958 1.368 . S
C964 C963 1.523 . S
C965 C949 1.429 . S
C965 C961 1.429 . S
C965 C966 1.523 . S
C966 C950 1.368 . S
C966 C962 1.368 . S
C966 C965 1.523 . S
H967 C942 0.950 . S
H968 C944 0.950 . S
H969 C945 0.949 . S
H970 C947 0.950 . S
H971 C949 0.950 . S
C972 C973 1.349 . S
C972 C974 1.327 . S
C972 H997 0.950 . S
C973 C972 1.349 . S
C973 C989 1.349 . S
C974 C972 1.327 . S
C974 C993 1.429 . S
C974 H998 0.950 . S
C975 C992 1.574 . S
C975 C994 1.368 . S
C975 H999 0.949 . S
H976 C980 0.949 . S
C977 C978 1.349 . S
C977 C979 1.327 . S
C977 H1000 0.950 . S
C978 C977 1.349 . S
C978 C990 1.349 . S
C979 C977 1.327 . S
C979 C995 1.429 . S
C979 H1001 0.950 . S
C980 H976 0.949 . S
C980 C988 1.574 . S
C980 C996 1.368 . S
H981 C989 0.950 . S
H982 C987 0.950 . S
H983 C988 0.949 . S
H984 C990 0.950 . S
H985 C991 0.950 . S
H986 C992 0.949 . S
C987 H982 0.950 . S
C987 C989 1.327 . S
C987 C993 1.429 . S
C988 C980 1.574 . S
C988 H983 0.949 . S
C988 C994 1.368 . S
C989 C973 1.349 . S
C989 H981 0.950 . S
C989 C987 1.327 . S
C990 C978 1.349 . S
C990 H984 0.950 . S
C990 C991 1.327 . S
C991 H985 0.950 . S
C991 C990 1.327 . S
C991 C995 1.429 . S
C992 C975 1.574 . S
C992 H986 0.949 . S
C992 C996 1.368 . S
C993 C974 1.429 . S
C993 C987 1.429 . S
C993 C994 1.523 . S
C994 C975 1.368 . S
C994 C988 1.368 . S
C994 C993 1.523 . S
C995 C979 1.429 . S
C995 C991 1.429 . S
C995 C996 1.523 . S
C996 C980 1.368 . S
C996 C992 1.368 . S
C996 C995 1.523 . S
H997 C972 0.950 . S
H998 C974 0.950 . S
H999 C975 0.949 . S
H1000 C977 0.950 . S
H1001 C979 0.950 . S
C1002 C1003 1.349 . S
C1002 C1004 1.327 . S
C1002 H1027 0.950 . S
C1003 C1002 1.349 . S
C1003 C1019 1.349 . S
C1004 C1002 1.327 . S
C1004 C1023 1.429 . S
C1004 H1028 0.950 . S
C1005 C1022 1.574 . S
C1005 C1024 1.368 . S
C1005 H1029 0.949 . S
H1006 C1010 0.949 . S
C1007 C1008 1.349 . S
C1007 C1009 1.327 . S
C1007 H1030 0.950 . S
C1008 C1007 1.349 . S
C1008 C1020 1.349 . S
C1009 C1007 1.327 . S
C1009 C1025 1.429 . S
C1009 H1031 0.950 . S
C1010 H1006 0.949 . S
C1010 C1018 1.574 . S
C1010 C1026 1.368 . S
H1011 C1019 0.950 . S
H1012 C1017 0.950 . S
H1013 C1018 0.949 . S
H1014 C1020 0.950 . S
H1015 C1021 0.950 . S
H1016 C1022 0.949 . S
C1017 H1012 0.950 . S
C1017 C1019 1.327 . S
C1017 C1023 1.429 . S
C1018 C1010 1.574 . S
C1018 H1013 0.949 . S
C1018 C1024 1.368 . S
C1019 C1003 1.349 . S
C1019 H1011 0.950 . S
C1019 C1017 1.327 . S
C1020 C1008 1.349 . S
C1020 H1014 0.950 . S
C1020 C1021 1.327 . S
C1021 H1015 0.950 . S
C1021 C1020 1.327 . S
C1021 C1025 1.429 . S
C1022 C1005 1.574 . S
C1022 H1016 0.949 . S
C1022 C1026 1.368 . S
C1023 C1004 1.429 . S
C1023 C1017 1.429 . S
C1023 C1024 1.523 . S
C1024 C1005 1.368 . S
C1024 C1018 1.368 . S
C1024 C1023 1.523 . S
C1025 C1009 1.429 . S
C1025 C1021 1.429 . S
C1025 C1026 1.523 . S
C1026 C1010 1.368 . S
C1026 C1022 1.368 . S
C1026 C1025 1.523 . S
H1027 C1002 0.950 . S
H1028 C1004 0.950 . S
H1029 C1005 0.949 . S
H1030 C1007 0.950 . S
H1031 C1009 0.950 . S
C1032 C1033 1.349 . S
C1032 C1034 1.327 . S
C1032 H1057 0.950 . S
C1033 C1032 1.349 . S
C1033 C1049 1.349 . S
C1034 C1032 1.327 . S
C1034 C1053 1.429 . S
C1034 H1058 0.950 . S
C1035 C1052 1.574 . S
C1035 C1054 1.368 . S
C1035 H1059 0.949 . S
H1036 C1040 0.949 . S
C1037 C1038 1.349 . S
C1037 C1039 1.327 . S
C1037 H1060 0.950 . S
C1038 C1037 1.349 . S
C1038 C1050 1.349 . S
C1039 C1037 1.327 . S
C1039 C1055 1.429 . S
C1039 H1061 0.950 . S
C1040 H1036 0.949 . S
C1040 C1048 1.574 . S
C1040 C1056 1.368 . S
H1041 C1049 0.950 . S
H1042 C1047 0.950 . S
H1043 C1048 0.949 . S
H1044 C1050 0.950 . S
H1045 C1051 0.950 . S
H1046 C1052 0.949 . S
C1047 H1042 0.950 . S
C1047 C1049 1.327 . S
C1047 C1053 1.429 . S
C1048 C1040 1.574 . S
C1048 H1043 0.949 . S
C1048 C1054 1.368 . S
C1049 C1033 1.349 . S
C1049 H1041 0.950 . S
C1049 C1047 1.327 . S
C1050 C1038 1.349 . S
C1050 H1044 0.950 . S
C1050 C1051 1.327 . S
C1051 H1045 0.950 . S
C1051 C1050 1.327 . S
C1051 C1055 1.429 . S
C1052 C1035 1.574 . S
C1052 H1046 0.949 . S
C1052 C1056 1.368 . S
C1053 C1034 1.429 . S
C1053 C1047 1.429 . S
C1053 C1054 1.523 . S
C1054 C1035 1.368 . S
C1054 C1048 1.368 . S
C1054 C1053 1.523 . S
C1055 C1039 1.429 . S
C1055 C1051 1.429 . S
C1055 C1056 1.523 . S
C1056 C1040 1.368 . S
C1056 C1052 1.368 . S
C1056 C1055 1.523 . S
H1057 C1032 0.950 . S
H1058 C1034 0.950 . S
H1059 C1035 0.949 . S
H1060 C1037 0.950 . S
H1061 C1039 0.950 . S
C1062 C1063 1.349 . S
C1062 C1064 1.327 . S
C1062 H1087 0.950 . S
C1063 C1062 1.349 . S
C1063 C1079 1.349 . S
C1064 C1062 1.327 . S
C1064 C1083 1.429 . S
C1064 H1088 0.950 . S
C1065 C1082 1.574 . S
C1065 C1084 1.368 . S
C1065 H1089 0.949 . S
H1066 C1070 0.949 . S
C1067 C1068 1.349 . S
C1067 C1069 1.327 . S
C1067 H1090 0.950 . S
C1068 C1067 1.349 . S
C1068 C1080 1.349 . S
C1069 C1067 1.327 . S
C1069 C1085 1.429 . S
C1069 H1091 0.950 . S
C1070 H1066 0.949 . S
C1070 C1078 1.574 . S
C1070 C1086 1.368 . S
H1071 C1079 0.950 . S
H1072 C1077 0.950 . S
H1073 C1078 0.949 . S
H1074 C1080 0.950 . S
H1075 C1081 0.950 . S
H1076 C1082 0.949 . S
C1077 H1072 0.950 . S
C1077 C1079 1.327 . S
C1077 C1083 1.429 . S
C1078 C1070 1.574 . S
C1078 H1073 0.949 . S
C1078 C1084 1.368 . S
C1079 C1063 1.349 . S
C1079 H1071 0.950 . S
C1079 C1077 1.327 . S
C1080 C1068 1.349 . S
C1080 H1074 0.950 . S
C1080 C1081 1.327 . S
C1081 H1075 0.950 . S
C1081 C1080 1.327 . S
C1081 C1085 1.429 . S
C1082 C1065 1.574 . S
C1082 H1076 0.949 . S
C1082 C1086 1.368 . S
C1083 C1064 1.429 . S
C1083 C1077 1.429 . S
C1083 C1084 1.523 . S
C1084 C1065 1.368 . S
C1084 C1078 1.368 . S
C1084 C1083 1.523 . S
C1085 C1069 1.429 . S
C1085 C1081 1.429 . S
C1085 C1086 1.523 . S
C1086 C1070 1.368 . S
C1086 C1082 1.368 . S
C1086 C1085 1.523 . S
H1087 C1062 0.950 . S
H1088 C1064 0.950 . S
H1089 C1065 0.949 . S
H1090 C1067 0.950 . S
H1091 C1069 0.950 . S
C1092 C1093 1.349 . S
C1092 C1094 1.327 . S
C1092 H1117 0.950 . S
C1093 C1092 1.349 . S
C1093 C1109 1.349 . S
C1094 C1092 1.327 . S
C1094 C1113 1.429 . S
C1094 H1118 0.950 . S
C1095 C1112 1.574 . S
C1095 C1114 1.368 . S
C1095 H1119 0.949 . S
H1096 C1100 0.949 . S
C1097 C1098 1.349 . S
C1097 C1099 1.327 . S
C1097 H1120 0.950 . S
C1098 C1097 1.349 . S
C1098 C1110 1.349 . S
C1099 C1097 1.327 . S
C1099 C1115 1.429 . S
C1099 H1121 0.950 . S
C1100 H1096 0.949 . S
C1100 C1108 1.574 . S
C1100 C1116 1.368 . S
H1101 C1109 0.950 . S
H1102 C1107 0.950 . S
H1103 C1108 0.949 . S
H1104 C1110 0.950 . S
H1105 C1111 0.950 . S
H1106 C1112 0.949 . S
C1107 H1102 0.950 . S
C1107 C1109 1.327 . S
C1107 C1113 1.429 . S
C1108 C1100 1.574 . S
C1108 H1103 0.949 . S
C1108 C1114 1.368 . S
C1109 C1093 1.349 . S
C1109 H1101 0.950 . S
C1109 C1107 1.327 . S
C1110 C1098 1.349 . S
C1110 H1104 0.950 . S
C1110 C1111 1.327 . S
C1111 H1105 0.950 . S
C1111 C1110 1.327 . S
C1111 C1115 1.429 . S
C1112 C1095 1.574 . S
C1112 H1106 0.949 . S
C1112 C1116 1.368 . S
C1113 C1094 1.429 . S
C1113 C1107 1.429 . S
C1113 C1114 1.523 . S
C1114 C1095 1.368 . S
C1114 C1108 1.368 . S
C1114 C1113 1.523 . S
C1115 C1099 1.429 . S
C1115 C1111 1.429 . S
C1115 C1116 1.523 . S
C1116 C1100 1.368 . S
C1116 C1112 1.368 . S
C1116 C1115 1.523 . S
H1117 C1092 0.950 . S
H1118 C1094 0.950 . S
H1119 C1095 0.949 . S
H1120 C1097 0.950 . S
H1121 C1099 0.950 . S
C1122 C1123 1.349 . S
C1122 C1124 1.327 . S
C1122 H1147 0.950 . S
C1123 C1122 1.349 . S
C1123 C1139 1.349 . S
C1124 C1122 1.327 . S
C1124 C1143 1.429 . S
C1124 H1148 0.950 . S
C1125 C1142 1.574 . S
C1125 C1144 1.368 . S
C1125 H1149 0.949 . S
H1126 C1130 0.949 . S
C1127 C1128 1.349 . S
C1127 C1129 1.327 . S
C1127 H1150 0.950 . S
C1128 C1127 1.349 . S
C1128 C1140 1.349 . S
C1129 C1127 1.327 . S
C1129 C1145 1.429 . S
C1129 H1151 0.950 . S
C1130 H1126 0.949 . S
C1130 C1138 1.574 . S
C1130 C1146 1.368 . S
H1131 C1139 0.950 . S
H1132 C1137 0.950 . S
H1133 C1138 0.949 . S
H1134 C1140 0.950 . S
H1135 C1141 0.950 . S
H1136 C1142 0.949 . S
C1137 H1132 0.950 . S
C1137 C1139 1.327 . S
C1137 C1143 1.429 . S
C1138 C1130 1.574 . S
C1138 H1133 0.949 . S
C1138 C1144 1.368 . S
C1139 C1123 1.349 . S
C1139 H1131 0.950 . S
C1139 C1137 1.327 . S
C1140 C1128 1.349 . S
C1140 H1134 0.950 . S
C1140 C1141 1.327 . S
C1141 H1135 0.950 . S
C1141 C1140 1.327 . S
C1141 C1145 1.429 . S
C1142 C1125 1.574 . S
C1142 H1136 0.949 . S
C1142 C1146 1.368 . S
C1143 C1124 1.429 . S
C1143 C1137 1.429 . S
C1143 C1144 1.523 . S
C1144 C1125 1.368 . S
C1144 C1138 1.368 . S
C1144 C1143 1.523 . S
C1145 C1129 1.429 . S
C1145 C1141 1.429 . S
C1145 C1146 1.523 . S
C1146 C1130 1.368 . S
C1146 C1142 1.368 . S
C1146 C1145 1.523 . S
H1147 C1122 0.950 . S
H1148 C1124 0.950 . S
H1149 C1125 0.949 . S
H1150 C1127 0.950 . S
H1151 C1129 0.950 . S
C433 C81 1.699 . S
C438 C170 1.680 . S
C468 C254 1.680 . S
C463 C93 1.699 . S
C498 C247 1.688 . S
C493 C57 1.691 . S
C523 C69 1.691 . S
C528 C163 1.688 . S
C558 C327 1.680 . S
C553 C33 1.695 . S
C588 C411 1.680 . S
C583 C45 1.695 . S
C613 C9 1.686 . S
C618 C404 1.688 . S
C643 C21 1.686 . S
C648 C320 1.688 . S
C678 C154 1.474 . S
C673 C18 1.628 . S
C708 C238 1.474 . S
C703 C6 1.628 . S
C738 C249 1.432 . S
C733 C42 1.639 . S
C768 C165 1.432 . S
C763 C30 1.639 . S
C798 C333 1.474 . S
C793 C66 1.636 . S
C823 C54 1.636 . S
C828 C417 1.474 . S
C858 C406 1.432 . S
C853 C90 1.645 . S
C883 C78 1.645 . S
C888 C322 1.432 . S
C918 C152 1.558 . S
C913 C4 1.543 . S
C948 C236 1.558 . S
C943 C16 1.543 . S
C973 C28 1.540 . S
C978 C243 1.530 . S
C1008 C159 1.530 . S
C1003 C40 1.540 . S
C1038 C331 1.558 . S
C1033 C52 1.538 . S
C1063 C64 1.538 . S
C1068 C415 1.558 . S
C1093 C76 1.535 . S
C1098 C422 1.530 . S
C1123 C88 1.536 . S
C1128 C338 1.530 . S
