# Generated by pormake.
# Topology dag, (6,3)-cn, num edge types: 1
# Building blocks:
#     Node 0, Type 0, BuildingBlock: OJICUG_clean_sbu_0, # of connection points: 6
#     Node 1, Type 0, BuildingBlock: OJICUG_clean_sbu_0, # of connection points: 6
#     Node 2, Type 0, BuildingBlock: OJICUG_clean_sbu_0, # of connection points: 6
#     Node 3, Type 0, BuildingBlock: OJICUG_clean_sbu_0, # of connection points: 6
#     Node 4, Type 1, BuildingBlock: ESEHIV_clean_linker_0, # of connection points: 3
#     Node 5, Type 1, BuildingBlock: ESEHIV_clean_linker_0, # of connection points: 3
#     Node 6, Type 1, BuildingBlock: ESEHIV_clean_linker_0, # of connection points: 3
#     Node 7, Type 1, BuildingBlock: ESEHIV_clean_linker_0, # of connection points: 3
#     Node 8, Type 1, BuildingBlock: ESEHIV_clean_linker_0, # of connection points: 3
#     Node 9, Type 1, BuildingBlock: ESEHIV_clean_linker_0, # of connection points: 3
#     Node 10, Type 1, BuildingBlock: ESEHIV_clean_linker_0, # of connection points: 3
#     Node 11, Type 1, BuildingBlock: ESEHIV_clean_linker_0, # of connection points: 3
#     Edge 12, Type (0, 1), BuildingBlock: MIFKUJ_clean_linker_0, # of connection points: 2
#     Edge 13, Type (0, 1), BuildingBlock: MIFKUJ_clean_linker_0, # of connection points: 2
#     Edge 14, Type (0, 1), BuildingBlock: MIFKUJ_clean_linker_0, # of connection points: 2
#     Edge 15, Type (0, 1), BuildingBlock: MIFKUJ_clean_linker_0, # of connection points: 2
#     Edge 16, Type (0, 1), BuildingBlock: MIFKUJ_clean_linker_0, # of connection points: 2
#     Edge 17, Type (0, 1), BuildingBlock: MIFKUJ_clean_linker_0, # of connection points: 2
#     Edge 18, Type (0, 1), BuildingBlock: MIFKUJ_clean_linker_0, # of connection points: 2
#     Edge 19, Type (0, 1), BuildingBlock: MIFKUJ_clean_linker_0, # of connection points: 2
#     Edge 20, Type (0, 1), BuildingBlock: MIFKUJ_clean_linker_0, # of connection points: 2
#     Edge 21, Type (0, 1), BuildingBlock: MIFKUJ_clean_linker_0, # of connection points: 2
#     Edge 22, Type (0, 1), BuildingBlock: MIFKUJ_clean_linker_0, # of connection points: 2
#     Edge 23, Type (0, 1), BuildingBlock: MIFKUJ_clean_linker_0, # of connection points: 2
#     Edge 24, Type (0, 1), BuildingBlock: MIFKUJ_clean_linker_0, # of connection points: 2
#     Edge 25, Type (0, 1), BuildingBlock: MIFKUJ_clean_linker_0, # of connection points: 2
#     Edge 26, Type (0, 1), BuildingBlock: MIFKUJ_clean_linker_0, # of connection points: 2
#     Edge 27, Type (0, 1), BuildingBlock: MIFKUJ_clean_linker_0, # of connection points: 2
#     Edge 28, Type (0, 1), BuildingBlock: MIFKUJ_clean_linker_0, # of connection points: 2
#     Edge 29, Type (0, 1), BuildingBlock: MIFKUJ_clean_linker_0, # of connection points: 2
#     Edge 30, Type (0, 1), BuildingBlock: MIFKUJ_clean_linker_0, # of connection points: 2
#     Edge 31, Type (0, 1), BuildingBlock: MIFKUJ_clean_linker_0, # of connection points: 2
#     Edge 32, Type (0, 1), BuildingBlock: MIFKUJ_clean_linker_0, # of connection points: 2
#     Edge 33, Type (0, 1), BuildingBlock: MIFKUJ_clean_linker_0, # of connection points: 2
#     Edge 34, Type (0, 1), BuildingBlock: MIFKUJ_clean_linker_0, # of connection points: 2
#     Edge 35, Type (0, 1), BuildingBlock: MIFKUJ_clean_linker_0, # of connection points: 2
# Relax obj value: 0.253
# Max RMSD: 0.198
# Mean RMSD: 0.163
data_MOF--net-dag--node1-OJICUG_clean_sbu_0--node2-ESEHIV_clean_linker_0--edge1-MIFKUJ_clean_linker_0
_symmetry_space_group_name_H-M    P1
_symmetry_Int_Tables_number       1
_symmetry_cell_setting            triclinic
loop_
_symmetry_equiv_pos_as_xyz
'x, y, z'
_cell_length_a     44.507157
_cell_length_b     46.438995
_cell_length_c     45.653656
_cell_angle_alpha  95.223855
_cell_angle_beta   90.072239
_cell_angle_gamma 90.043632
loop_
_atom_site_label
_atom_site_type_symbol
_atom_site_fract_x
_atom_site_fract_y
_atom_site_fract_z
_atom_type_partial_charge
Sc0 Sc 0.1168 0.83857 0.04032 0.0
Sc1 Sc 0.13868 0.76593 0.0425 0.0
Sc2 Sc 0.18758 0.82288 0.06878 0.0
O3 O 0.14774 0.80907 0.05045 0.0
C4 C 0.1779 0.86706 0.02005 0.0
C5 C 0.11115 0.79044 0.98563 0.0
C6 C 0.20856 0.76814 0.0264 0.0
C7 C 0.07485 0.79097 0.06492 0.0
C8 C 0.14232 0.86858 0.10096 0.0
C9 C 0.16955 0.77033 0.10596 0.0
O10 O 0.14957 0.86343 0.01873 0.0
O11 O 0.12398 0.77014 0.99783 0.0
O12 O 0.21334 0.79243 0.04079 0.0
O13 O 0.08108 0.81697 0.06078 0.0
O14 O 0.16721 0.85519 0.09949 0.0
O15 O 0.15235 0.75771 0.08647 0.0
O16 O 0.12227 0.8648 0.08119 0.0
O17 O 0.09286 0.7701 0.05843 0.0
O18 O 0.1839 0.79341 0.10222 0.0
O19 O 0.10677 0.81547 0.99861 0.0
O20 O 0.19468 0.85401 0.03715 0.0
O21 O 0.18296 0.75595 0.02533 0.0
Sc22 Sc 0.68914 0.67413 0.47144 0.0
Sc23 Sc 0.64131 0.7264 0.50764 0.0
Sc24 Sc 0.62218 0.65314 0.50332 0.0
O25 O 0.65099 0.68462 0.49416 0.0
C26 C 0.64414 0.62984 0.43867 0.0
C27 C 0.66753 0.73168 0.44396 0.0
C28 C 0.57722 0.70085 0.48612 0.0
C29 C 0.71262 0.72359 0.51814 0.0
C30 C 0.68439 0.62434 0.51548 0.0
C31 C 0.61848 0.69623 0.56214 0.0
O32 O 0.66564 0.64769 0.43736 0.0
O33 O 0.64864 0.73951 0.46402 0.0
O34 O 0.5854 0.67452 0.48399 0.0
O35 O 0.71655 0.69961 0.50284 0.0
O36 O 0.65733 0.62971 0.52314 0.0
O37 O 0.63307 0.71689 0.55242 0.0
O38 O 0.69771 0.63699 0.49555 0.0
O39 O 0.68726 0.73629 0.52026 0.0
O40 O 0.61119 0.67348 0.54614 0.0
O41 O 0.68471 0.70991 0.44498 0.0
O42 O 0.62858 0.62827 0.46176 0.0
O43 O 0.59397 0.72147 0.49683 0.0
Sc44 Sc 0.85373 0.22617 0.01584 0.0
Sc45 Sc 0.8094 0.17155 0.97756 0.0
Sc46 Sc 0.87538 0.15312 0.01381 0.0
O47 O 0.8461 0.18364 0.00248 0.0
C48 C 0.91992 0.20428 5e-05 0.0
C49 C 0.83097 0.22857 0.94973 0.0
C50 C 0.86055 0.13053 0.9474 0.0
C51 C 0.78271 0.22127 0.02334 0.0
C52 C 0.87197 0.19504 0.07301 0.0
C53 C 0.81213 0.12139 0.02035 0.0
O54 O 0.90035 0.22423 0.00309 0.0
O55 O 0.81783 0.2042 0.94835 0.0
O56 O 0.878 0.13283 0.96955 0.0
O57 O 0.80806 0.23276 0.02984 0.0
O58 O 0.87606 0.17048 0.05893 0.0
O59 O 0.79755 0.137 0.00382 0.0
O60 O 0.86455 0.21739 0.06048 0.0
O61 O 0.77961 0.19949 0.00455 0.0
O62 O 0.84008 0.12454 0.02543 0.0
O63 O 0.844 0.23982 0.97282 0.0
O64 O 0.91403 0.1781 0.00379 0.0
O65 O 0.8348 0.14241 0.94751 0.0
Sc66 Sc 0.38675 0.3489 0.53601 0.0
Sc67 Sc 0.32384 0.33026 0.57666 0.0
Sc68 Sc 0.37036 0.27544 0.54205 0.0
O69 O 0.36027 0.31815 0.55155 0.0
C70 C 0.38288 0.30217 0.48089 0.0
C71 C 0.32153 0.37685 0.53012 0.0
C72 C 0.29889 0.27565 0.53604 0.0
C73 C 0.37384 0.37569 0.60149 0.0
C74 C 0.43557 0.30226 0.55224 0.0
C75 C 0.34935 0.27718 0.60896 0.0
O76 O 0.38507 0.32808 0.49228 0.0
O77 O 0.30875 0.36196 0.54846 0.0
O78 O 0.32461 0.26459 0.53041 0.0
O79 O 0.39049 0.37246 0.57879 0.0
O80 O 0.41708 0.28154 0.55328 0.0
O81 O 0.33462 0.30052 0.60839 0.0
O82 O 0.42793 0.32712 0.54534 0.0
O83 O 0.34887 0.36262 0.60347 0.0
O84 O 0.36299 0.26514 0.58666 0.0
O85 O 0.34929 0.37468 0.52398 0.0
O86 O 0.37908 0.28069 0.49598 0.0
O87 O 0.29508 0.29919 0.55219 0.0
H88 H 0.03209 0.10612 0.28219 0.0
H89 H 0.0974 0.10003 0.35047 0.0
H90 H 0.04065 0.17551 0.35021 0.0
C91 C 0.04236 0.11491 0.30264 0.0
C92 C 0.03395 0.1425 0.31476 0.0
C93 C 0.06484 0.09922 0.31565 0.0
C94 C 0.07912 0.11162 0.3412 0.0
C95 C 0.07067 0.13922 0.35408 0.0
C96 C 0.04744 0.15422 0.34092 0.0
H97 H 0.5034 0.59942 0.79824 0.0
H98 H 0.4291 0.5931 0.85734 0.0
H99 H 0.48113 0.67148 0.85969 0.0
C100 C 0.49031 0.6082 0.81695 0.0
C101 C 0.49595 0.63663 0.8288 0.0
C102 C 0.46602 0.59234 0.8267 0.0
C103 C 0.44816 0.60492 0.84981 0.0
C104 C 0.45333 0.63349 0.86182 0.0
C105 C 0.47736 0.64921 0.85118 0.0
H106 H 0.76701 0.85137 0.09405 0.0
H107 H 0.76275 0.79048 0.15922 0.0
H108 H 0.70009 0.86134 0.16177 0.0
C109 C 0.75563 0.84303 0.11252 0.0
C110 C 0.7312 0.85828 0.12561 0.0
C111 C 0.76747 0.81887 0.12482 0.0
C112 C 0.75336 0.80888 0.14942 0.0
C113 C 0.72891 0.82398 0.16299 0.0
C114 C 0.71786 0.84861 0.15077 0.0
H115 H 0.73546 0.36286 0.60882 0.0
H116 H 0.74941 0.30074 0.67197 0.0
H117 H 0.80569 0.37634 0.67264 0.0
C118 C 0.74852 0.35468 0.62633 0.0
C119 C 0.7723 0.37151 0.63853 0.0
C120 C 0.73976 0.32914 0.63827 0.0
C121 C 0.75609 0.32018 0.66225 0.0
C122 C 0.77983 0.33711 0.67496 0.0
C123 C 0.78782 0.36279 0.66285 0.0
H124 H 0.49909 0.40444 0.25316 0.0
H125 H 0.57514 0.40835 0.19582 0.0
H126 H 0.51876 0.33286 0.18984 0.0
C127 C 0.51237 0.39509 0.23484 0.0
C128 C 0.50552 0.36711 0.22223 0.0
C129 C 0.53771 0.41007 0.22586 0.0
C130 C 0.55518 0.39736 0.20255 0.0
C131 C 0.54843 0.36958 0.18927 0.0
C132 C 0.52335 0.35476 0.19904 0.0
H133 H 0.19917 0.14182 0.92775 0.0
H134 H 0.2288 0.20464 0.87073 0.0
H135 H 0.27777 0.12494 0.87462 0.0
C136 C 0.21549 0.14896 0.91234 0.0
C137 C 0.23895 0.13038 0.9026 0.0
C138 C 0.21184 0.17587 0.90115 0.0
C139 C 0.23229 0.18435 0.88021 0.0
C140 C 0.25634 0.1662 0.87054 0.0
C141 C 0.25973 0.13938 0.88226 0.0
H142 H 0.27382 0.64553 0.45111 0.0
H143 H 0.26032 0.70548 0.38646 0.0
H144 H 0.19785 0.63534 0.39272 0.0
C145 C 0.25967 0.65371 0.43437 0.0
C146 C 0.23425 0.63796 0.42404 0.0
C147 C 0.26899 0.67804 0.42084 0.0
C148 C 0.25207 0.68747 0.39772 0.0
C149 C 0.22599 0.67256 0.38766 0.0
C150 C 0.21725 0.6477 0.40094 0.0
H151 H 0.98218 0.9023 0.76593 0.0
H152 H 0.96255 0.82908 0.70479 0.0
H153 H 0.9231 0.91195 0.693 0.0
C154 C 0.97166 0.89348 0.74564 0.0
C155 C 0.95247 0.91089 0.7304 0.0
C156 C 0.97568 0.8641 0.73632 0.0
C157 C 0.96077 0.8521 0.71098 0.0
C158 C 0.94128 0.86913 0.69544 0.0
C159 C 0.93795 0.89866 0.7049 0.0
H160 H 0.0878 0.88855 0.12073 0.0
H161 H 0.07741 0.9248 0.16142 0.0
H162 H 0.17232 0.93311 0.17971 0.0
H163 H 0.18288 0.89593 0.13941 0.0
H164 H 0.14177 0.936 0.22978 0.0
H165 H 0.13525 0.98268 0.14125 0.0
H166 H 0.11884 0.98972 0.0908 0.0
H167 H 0.02707 0.99574 0.1196 0.0
H168 H 0.0429 0.98833 0.17018 0.0
H169 H 0.12245 0.07961 0.30573 0.0
H170 H 0.13809 0.03672 0.2742 0.0
H171 H 0.04526 0.01305 0.25931 0.0
H172 H 0.02946 0.05536 0.29128 0.0
H173 H 0.07824 0.01915 0.20791 0.0
H174 H 0.08714 0.97248 0.29777 0.0
H175 H 0.10593 0.96732 0.34785 0.0
H176 H 0.19666 0.9645 0.31585 0.0
H177 H 0.17842 0.97006 0.26562 0.0
C178 C 0.10651 0.89801 0.13341 0.0
C179 C 0.13621 0.88964 0.12658 0.0
C180 C 0.10053 0.91879 0.15667 0.0
C181 C 0.12412 0.93217 0.17321 0.0
C182 C 0.15376 0.92318 0.16714 0.0
C183 C 0.15977 0.90201 0.14406 0.0
C184 C 0.11767 0.95615 0.19612 0.0
C185 C 0.12823 0.95439 0.22492 0.0
C186 C 0.09987 0.98011 0.18985 0.0
C187 C 0.09025 0.9847 0.15946 0.0
C188 C 0.11155 0.98531 0.13679 0.0
C189 C 0.10236 0.98939 0.10817 0.0
C190 C 0.07193 0.99311 0.10198 0.0
C191 C 0.05063 0.99283 0.12442 0.0
C192 C 0.05971 0.98871 0.15308 0.0
C193 C 0.1054 0.06481 0.29646 0.0
C194 C 0.07469 0.07103 0.30075 0.0
C195 C 0.11438 0.04038 0.27837 0.0
C196 C 0.0928 0.02186 0.26433 0.0
C197 C 0.06223 0.0272 0.26983 0.0
C198 C 0.05326 0.05142 0.288 0.0
C199 C 0.10171 0.99865 0.24163 0.0
C200 C 0.09178 0.00075 0.21275 0.0
C201 C 0.12045 0.97538 0.24781 0.0
C202 C 0.13142 0.97201 0.27799 0.0
C203 C 0.11111 0.97104 0.30145 0.0
C204 C 0.12166 0.96798 0.32986 0.0
C205 C 0.15248 0.96567 0.33504 0.0
C206 C 0.1728 0.96634 0.31181 0.0
C207 C 0.16237 0.96942 0.28337 0.0
H208 H 0.1606 0.96329 0.35705 0.0
H209 H 0.06485 0.99627 0.07981 0.0
H210 H 0.56623 0.67699 0.58301 0.0
H211 H 0.55124 0.67548 0.63409 0.0
H212 H 0.63451 0.71692 0.66261 0.0
H213 H 0.64901 0.71964 0.61097 0.0
H214 H 0.57482 0.64626 0.67213 0.0
H215 H 0.62534 0.74963 0.73339 0.0
H216 H 0.63755 0.79986 0.72418 0.0
H217 H 0.56936 0.79775 0.65739 0.0
H218 H 0.55651 0.74766 0.66645 0.0
H219 H 0.55454 0.62371 0.81637 0.0
H220 H 0.58456 0.64357 0.77808 0.0
H221 H 0.516 0.70743 0.76755 0.0
H222 H 0.48622 0.68796 0.80617 0.0
H223 H 0.5728 0.72656 0.75166 0.0
H224 H 0.50678 0.64469 0.73168 0.0
H225 H 0.48709 0.59649 0.74017 0.0
H226 H 0.57352 0.55891 0.71984 0.0
H227 H 0.59391 0.60705 0.71182 0.0
C228 C 0.58118 0.68612 0.60017 0.0
C229 C 0.60884 0.69827 0.59313 0.0
C230 C 0.57265 0.68518 0.62938 0.0
C231 C 0.59179 0.69589 0.6523 0.0
C232 C 0.61918 0.7088 0.64535 0.0
C233 C 0.62749 0.71031 0.6159 0.0
C234 C 0.58342 0.69171 0.68314 0.0
C235 C 0.57461 0.66389 0.68945 0.0
C236 C 0.58287 0.71463 0.70587 0.0
C237 C 0.59025 0.74479 0.70036 0.0
C238 C 0.61292 0.75992 0.71678 0.0
C239 C 0.61996 0.78836 0.71159 0.0
C240 C 0.60433 0.80195 0.69013 0.0
C241 C 0.58155 0.78716 0.67391 0.0
C242 C 0.57441 0.75873 0.67903 0.0
C243 C 0.54657 0.64279 0.80677 0.0
C244 C 0.51795 0.65409 0.81382 0.0
C245 C 0.5637 0.65413 0.78495 0.0
C246 C 0.55213 0.67652 0.76957 0.0
C247 C 0.52529 0.69012 0.77913 0.0
C248 C 0.50827 0.67896 0.80119 0.0
C249 C 0.56419 0.68131 0.7402 0.0
C250 C 0.57361 0.70903 0.73427 0.0
C251 C 0.56428 0.65858 0.71734 0.0
C252 C 0.55195 0.62949 0.72146 0.0
C253 C 0.52162 0.62617 0.72916 0.0
C254 C 0.51032 0.59887 0.73384 0.0
C255 C 0.52903 0.57466 0.73055 0.0
C256 C 0.55907 0.5777 0.72244 0.0
C257 C 0.57052 0.60498 0.71782 0.0
H258 H 0.52025 0.55355 0.73425 0.0
H259 H 0.60981 0.82396 0.68613 0.0
H260 H 0.76333 0.09067 0.9987 0.0
H261 H 0.74051 0.04855 0.01832 0.0
H262 H 0.80162 0.0577 0.09214 0.0
H263 H 0.82542 0.09883 0.07178 0.0
H264 H 0.80163 0.00551 0.07234 0.0
H265 H 0.72279 0.07289 0.09704 0.0
H266 H 0.68482 0.10995 0.0888 0.0
H267 H 0.63915 0.05008 0.02672 0.0
H268 H 0.67709 0.01276 0.03428 0.0
H269 H 0.73041 0.90924 0.15961 0.0
H270 H 0.73296 0.95752 0.14237 0.0
H271 H 0.71978 0.92083 0.05314 0.0
H272 H 0.71786 0.87223 0.07021 0.0
H273 H 0.69238 0.98675 0.08174 0.0
H274 H 0.78082 0.92296 0.05421 0.0
H275 H 0.81756 0.88692 0.06841 0.0
H276 H 0.84361 0.94393 0.14351 0.0
H277 H 0.80654 0.98004 0.13002 0.0
C278 C 0.77161 0.08386 0.0193 0.0
C279 C 0.79625 0.09788 0.03364 0.0
C280 C 0.75844 0.05987 0.03061 0.0
C281 C 0.76913 0.04999 0.0569 0.0
C282 C 0.79304 0.06474 0.07175 0.0
C283 C 0.80663 0.08827 0.06013 0.0
C284 C 0.75708 0.02307 0.0678 0.0
C285 C 0.77771 0.00177 0.07459 0.0
C286 C 0.72585 0.01774 0.0706 0.0
C287 C 0.70296 0.04011 0.06602 0.0
C288 C 0.70478 0.06769 0.08146 0.0
C289 C 0.68324 0.08873 0.07694 0.0
C290 C 0.65963 0.0824 0.05719 0.0
C291 C 0.65747 0.05497 0.04198 0.0
C292 C 0.67897 0.03385 0.0464 0.0
C293 C 0.72677 0.91157 0.13648 0.0
C294 C 0.72402 0.88709 0.11617 0.0
C295 C 0.72822 0.93913 0.12669 0.0
C296 C 0.72654 0.94257 0.09656 0.0
C297 C 0.72084 0.91849 0.07651 0.0
C298 C 0.71988 0.89082 0.08624 0.0
C299 C 0.73698 0.96983 0.08582 0.0
C300 C 0.71618 0.99092 0.07924 0.0
C301 C 0.76802 0.97537 0.08364 0.0
C302 C 0.79079 0.95402 0.09127 0.0
C303 C 0.79424 0.92769 0.07386 0.0
C304 C 0.81513 0.90727 0.08176 0.0
C305 C 0.8329 0.91313 0.10686 0.0
C306 C 0.82982 0.93942 0.12409 0.0
C307 C 0.80888 0.95985 0.11633 0.0
H308 H 0.84909 0.89734 0.11292 0.0
H309 H 0.64298 0.09872 0.05373 0.0
H310 H 0.48478 0.32888 0.53172 0.0
H311 H 0.53734 0.32273 0.54586 0.0
H312 H 0.51071 0.25981 0.60464 0.0
H313 H 0.45803 0.26514 0.58994 0.0
H314 H 0.54989 0.31768 0.62497 0.0
H315 H 0.54319 0.22856 0.56066 0.0
H316 H 0.53038 0.20052 0.51384 0.0
H317 H 0.59064 0.25268 0.46767 0.0
H318 H 0.60344 0.28135 0.5142 0.0
H319 H 0.69759 0.3032 0.67127 0.0
H320 H 0.64742 0.28729 0.65614 0.0
H321 H 0.66563 0.30847 0.56782 0.0
H322 H 0.71685 0.32191 0.58205 0.0
H323 H 0.6289 0.26576 0.56446 0.0
H324 H 0.6325 0.35742 0.62188 0.0
H325 H 0.6446 0.39151 0.66489 0.0
H326 H 0.58966 0.34259 0.7197 0.0
H327 H 0.57761 0.30793 0.67706 0.0
C328 C 0.49014 0.31354 0.54745 0.0
C329 C 0.46735 0.29751 0.55977 0.0
C330 C 0.52012 0.30997 0.55537 0.0
C331 C 0.52772 0.29072 0.5761 0.0
C332 C 0.50514 0.27458 0.58841 0.0
C333 C 0.47517 0.27764 0.57998 0.0
C334 C 0.55911 0.2892 0.58625 0.0
C335 C 0.56716 0.30578 0.61221 0.0
C336 C 0.58152 0.2746 0.56881 0.0
C337 C 0.57403 0.25728 0.54087 0.0
C338 C 0.55346 0.23425 0.54049 0.0
C339 C 0.54627 0.21819 0.51401 0.0
C340 C 0.55963 0.22486 0.48778 0.0
C341 C 0.58028 0.24756 0.488 0.0
C342 C 0.58754 0.26369 0.51442 0.0
C343 C 0.6915 0.30346 0.64834 0.0
C344 C 0.71131 0.31445 0.62803 0.0
C345 C 0.6625 0.29473 0.63981 0.0
C346 C 0.65234 0.29763 0.61109 0.0
C347 C 0.67275 0.30636 0.59022 0.0
C348 C 0.70199 0.31442 0.59853 0.0
C349 C 0.61996 0.29425 0.60346 0.0
C350 C 0.61169 0.27711 0.57776 0.0
C351 C 0.59732 0.30906 0.62073 0.0
C352 C 0.60447 0.32989 0.64638 0.0
C353 C 0.62319 0.35382 0.64316 0.0
C354 C 0.63002 0.37325 0.66746 0.0
C355 C 0.61799 0.36916 0.69504 0.0
C356 C 0.59903 0.34568 0.69835 0.0
C357 C 0.5922 0.32613 0.67413 0.0
H358 H 0.6233 0.38424 0.71382 0.0
H359 H 0.55402 0.21241 0.4673 0.0
H360 H 0.66243 0.63174 0.38116 0.0
H361 H 0.64929 0.59744 0.33882 0.0
H362 H 0.5965 0.54793 0.3955 0.0
H363 H 0.60922 0.58168 0.43749 0.0
H364 H 0.63554 0.51433 0.35858 0.0
H365 H 0.56263 0.59269 0.35359 0.0
H366 H 0.54904 0.64351 0.34865 0.0
H367 H 0.5946 0.64002 0.26554 0.0
H368 H 0.60878 0.58925 0.2702 0.0
H369 H 0.53532 0.42205 0.28562 0.0
H370 H 0.55669 0.46293 0.3152 0.0
H371 H 0.58874 0.49841 0.23693 0.0
H372 H 0.56523 0.45825 0.20658 0.0
H373 H 0.57038 0.54099 0.27699 0.0
H374 H 0.63655 0.46088 0.27757 0.0
H375 H 0.65054 0.41003 0.28158 0.0
H376 H 0.62099 0.41683 0.37143 0.0
H377 H 0.60641 0.46761 0.36786 0.0
C378 C 0.64807 0.6135 0.38455 0.0
C379 C 0.63684 0.6095 0.41272 0.0
C380 C 0.64054 0.59402 0.36036 0.0
C381 C 0.62192 0.57021 0.3641 0.0
C382 C 0.61097 0.56613 0.39218 0.0
C383 C 0.61819 0.58558 0.41616 0.0
C384 C 0.61344 0.54915 0.33916 0.0
C385 C 0.62133 0.52012 0.34071 0.0
C386 C 0.59588 0.55695 0.31528 0.0
C387 C 0.58707 0.58732 0.31241 0.0
C388 C 0.56995 0.60284 0.33438 0.0
C389 C 0.5621 0.63161 0.33161 0.0
C390 C 0.57104 0.64502 0.30684 0.0
C391 C 0.58775 0.62963 0.28474 0.0
C392 C 0.59568 0.60086 0.28742 0.0
C393 C 0.54599 0.43887 0.27439 0.0
C394 C 0.54843 0.4367 0.24353 0.0
C395 C 0.55872 0.46209 0.29149 0.0
C396 C 0.57505 0.48331 0.27834 0.0
C397 C 0.57653 0.48207 0.24755 0.0
C398 C 0.56329 0.45896 0.23027 0.0
C399 C 0.59136 0.50593 0.29721 0.0
C400 C 0.58515 0.5352 0.29444 0.0
C401 C 0.61084 0.49843 0.31987 0.0
C402 C 0.62029 0.46806 0.3224 0.0
C403 C 0.63295 0.45151 0.29816 0.0
C404 C 0.64097 0.42269 0.30036 0.0
C405 C 0.63663 0.4102 0.32674 0.0
C406 C 0.62436 0.42654 0.35102 0.0
C407 C 0.61626 0.45537 0.34894 0.0
H408 H 0.6428 0.38786 0.32837 0.0
H409 H 0.56495 0.6673 0.30474 0.0
H410 H 0.94059 0.25532 0.98111 0.0
H411 H 0.99041 0.26443 0.96081 0.0
H412 H 0.01824 0.17849 0.97734 0.0
H413 H 0.96898 0.16908 0.99737 0.0
H414 H 0.05179 0.2595 0.98368 0.0
H415 H 0.04729 0.1483 0.91642 0.0
H416 H 0.00768 0.11514 0.89582 0.0
H417 H 0.95017 0.18736 0.88406 0.0
H418 H 0.98955 0.22098 0.90418 0.0
H419 H 0.18918 0.18965 0.95609 0.0
H420 H 0.13964 0.20959 0.96858 0.0
H421 H 0.12339 0.22112 0.87718 0.0
H422 H 0.17282 0.20048 0.86448 0.0
H423 H 0.07983 0.19078 0.89841 0.0
H424 H 0.1261 0.2801 0.92828 0.0
H425 H 0.16332 0.31371 0.95247 0.0
H426 H 0.13651 0.28904 0.03697 0.0
H427 H 0.09944 0.25495 0.01331 0.0
C428 C 0.95745 0.2385 0.98075 0.0
C429 C 0.95064 0.21132 0.99052 0.0
C430 C 0.98587 0.2438 0.96924 0.0
C431 C 0.00772 0.22199 0.96729 0.0
C432 C 0.00146 0.19546 0.97837 0.0
C433 C 0.97323 0.19012 0.98976 0.0
C434 C 0.0365 0.22557 0.95196 0.0
C435 C 0.058 0.24486 0.96479 0.0
C436 C 0.044 0.20705 0.92675 0.0
C437 C 0.02136 0.18714 0.91196 0.0
C438 C 0.02637 0.15713 0.90905 0.0
C439 C 0.00389 0.13825 0.89761 0.0
C440 C 0.97635 0.14914 0.88895 0.0
C441 C 0.97144 0.17896 0.89103 0.0
C442 C 0.99384 0.19793 0.90241 0.0
C443 C 0.17528 0.197 0.93875 0.0
C444 C 0.18474 0.19333 0.90931 0.0
C445 C 0.14707 0.20866 0.94593 0.0
C446 C 0.12782 0.217 0.92383 0.0
C447 C 0.13793 0.21492 0.89459 0.0
C448 C 0.16623 0.2033 0.88739 0.0
C449 C 0.09596 0.22385 0.93095 0.0
C450 C 0.0737 0.2063 0.91663 0.0
C451 C 0.08776 0.24434 0.95449 0.0
C452 C 0.11 0.26487 0.96896 0.0
C453 C 0.12826 0.28169 0.95201 0.0
C454 C 0.14932 0.30085 0.96564 0.0
C455 C 0.15228 0.30349 0.99624 0.0
C456 C 0.13416 0.28699 0.01327 0.0
C457 C 0.11307 0.26778 -0.00024 0.0
H458 H 0.16861 0.31834 0.00674 0.0
H459 H 0.95882 0.13448 0.88057 0.0
H460 H 0.3253 0.39131 0.47387 0.0
H461 H 0.30007 0.43139 0.45277 0.0
H462 H 0.25453 0.45333 0.53526 0.0
H463 H 0.27823 0.412 0.55569 0.0
H464 H 0.21909 0.46559 0.49407 0.0
H465 H 0.32247 0.48677 0.51558 0.0
H466 H 0.37729 0.47907 0.51396 0.0
H467 H 0.37648 0.48204 0.42022 0.0
H468 H 0.32156 0.48938 0.42125 0.0
H469 H 0.22994 0.62306 0.48046 0.0
H470 H 0.23339 0.574 0.49626 0.0
H471 H 0.23298 0.53861 0.40565 0.0
H472 H 0.22889 0.58739 0.38975 0.0
H473 H 0.28852 0.53262 0.44912 0.0
H474 H 0.18204 0.5163 0.43192 0.0
H475 H 0.12839 0.52816 0.43887 0.0
H476 H 0.13715 0.52164 0.53171 0.0
H477 H 0.19101 0.51018 0.52537 0.0
C478 C 0.30951 0.40445 0.48727 0.0
C479 C 0.3039 0.39888 0.51645 0.0
C480 C 0.29521 0.42742 0.47529 0.0
C481 C 0.27608 0.44598 0.4927 0.0
C482 C 0.26929 0.43946 0.52141 0.0
C483 C 0.28289 0.41591 0.53311 0.0
C484 C 0.26502 0.47324 0.48176 0.0
C485 C 0.23434 0.48028 0.48439 0.0
C486 C 0.28483 0.49259 0.46915 0.0
C487 C 0.31788 0.48831 0.46846 0.0
C488 C 0.33396 0.48559 0.4946 0.0
C489 C 0.36505 0.48131 0.49379 0.0
C490 C 0.38034 0.47999 0.46699 0.0
C491 C 0.36459 0.48302 0.44096 0.0
C492 C 0.33349 0.48726 0.44164 0.0
C493 C 0.22951 0.6047 0.46402 0.0
C494 C 0.2291 0.60891 0.43393 0.0
C495 C 0.2314 0.57679 0.47304 0.0
C496 C 0.23328 0.55285 0.45206 0.0
C497 C 0.23116 0.55689 0.42209 0.0
C498 C 0.22873 0.58471 0.41308 0.0
C499 C 0.24278 0.52459 0.46114 0.0
C500 C 0.27331 0.51763 0.45845 0.0
C501 C 0.22301 0.50589 0.47439 0.0
C502 C 0.19064 0.51272 0.47821 0.0
C503 C 0.17262 0.51773 0.45386 0.0
C504 C 0.14215 0.52429 0.45768 0.0
C505 C 0.12939 0.52574 0.48572 0.0
C506 C 0.14707 0.52055 0.51 0.0
C507 C 0.17756 0.514 0.5063 0.0
H508 H 0.10579 0.53081 0.48863 0.0
H509 H 0.40441 0.47667 0.46641 0.0
H510 H 0.13473 0.75584 0.93906 0.0
H511 H 0.11594 0.75106 0.88797 0.0
H512 H 0.04181 0.80743 0.91405 0.0
H513 H 0.06052 0.81263 0.96435 0.0
H514 H 0.02575 0.75805 0.87458 0.0
H515 H 0.10274 0.83649 0.88783 0.0
H516 H 0.15508 0.85084 0.89986 0.0
H517 H 0.18716 0.78941 0.83099 0.0
H518 H 0.13499 0.77454 0.8188 0.0
H519 H 0.96697 0.86087 0.79451 0.0
H520 H 0.99427 0.83182 0.82742 0.0
H521 H 0.04845 0.79557 0.75491 0.0
H522 H 0.02087 0.8251 0.72148 0.0
H523 H 0.08217 0.81487 0.80581 0.0
H524 H 0.00219 0.75114 0.78168 0.0
H525 H 0.95 0.73601 0.77065 0.0
H526 H 0.9237 0.76568 0.8587 0.0
H527 H 0.9756 0.78147 0.87016 0.0
C528 C 0.11424 0.76684 0.9338 0.0
C529 C 0.09924 0.78488 0.95548 0.0
C530 C 0.10355 0.76407 0.90474 0.0
C531 C 0.07747 0.77887 0.89734 0.0
C532 C 0.06186 0.79571 0.91934 0.0
C533 C 0.07274 0.79888 0.94802 0.0
C534 C 0.06732 0.77961 0.86656 0.0
C535 C 0.03816 0.77003 0.85923 0.0
C536 C 0.08403 0.79427 0.84618 0.0
C537 C 0.11511 0.80424 0.85261 0.0
C538 C 0.121 0.82605 0.87531 0.0
C539 C 0.1506 0.83422 0.88218 0.0
C540 C 0.17442 0.82088 0.86632 0.0
C541 C 0.16868 0.79962 0.84333 0.0
C542 C 0.13912 0.79133 0.83641 0.0
C543 C 0.98471 0.84675 0.78553 0.0
C544 C 0.99204 0.8454 0.75554 0.0
C545 C 0.00012 0.82995 0.80429 0.0
C546 C 0.02316 0.8113 0.79354 0.0
C547 C 0.03061 0.80973 0.76355 0.0
C548 C 0.01486 0.82647 0.74455 0.0
C549 C 0.03981 0.7948 0.81461 0.0
C550 C 0.07014 0.80156 0.82024 0.0
C551 C 0.02422 0.77723 0.83331 0.0
C552 C 0.99289 0.7675 0.82678 0.0
C553 C 0.98526 0.75458 0.79868 0.0
C554 C 0.95571 0.74588 0.79234 0.0
C555 C 0.93355 0.74987 0.81396 0.0
C556 C 0.94091 0.76255 0.84198 0.0
C557 C 0.97042 0.77132 0.84844 0.0
H558 H 0.91068 0.74313 0.80901 0.0
H559 H 0.19733 0.82706 0.87178 0.0
H560 H 0.91797 0.11476 0.93144 0.0
H561 H 0.93381 0.08359 0.88805 0.0
H562 H 0.84168 0.07536 0.85916 0.0
H563 H 0.82561 0.10664 0.90227 0.0
H564 H 0.87167 0.02259 0.86298 0.0
H565 H 0.88663 0.1133 0.82391 0.0
H566 H 0.90653 0.16227 0.8202 0.0
H567 H 0.99637 0.12865 0.81418 0.0
H568 H 0.97712 0.07952 0.81897 0.0
H569 H 0.89673 0.93573 0.73369 0.0
H570 H 0.88169 0.97935 0.76371 0.0
H571 H 0.97391 0.99533 0.78938 0.0
H572 H 0.98946 0.95228 0.75818 0.0
H573 H 0.94311 0.04599 0.7852 0.0
H574 H 0.93007 0.95775 0.83092 0.0
H575 H 0.91187 0.90796 0.83401 0.0
H576 H 0.82065 0.93703 0.82828 0.0
H577 H 0.83837 0.98696 0.82466 0.0
C578 C 0.90108 0.10646 0.91576 0.0
C579 C 0.87047 0.11296 0.92044 0.0
C580 C 0.91022 0.08887 0.89087 0.0
C581 C 0.88892 0.07734 0.87038 0.0
C582 C 0.85846 0.08418 0.8747 0.0
C583 C 0.84933 0.10205 0.89935 0.0
C584 C 0.89802 0.05613 0.84581 0.0
C585 C 0.8869 0.02787 0.8457 0.0
C586 C 0.91865 0.06289 0.82385 0.0
C587 C 0.9304 0.09266 0.82215 0.0
C588 C 0.91068 0.11634 0.82233 0.0
C589 C 0.92185 0.14416 0.8199 0.0
C590 C 0.9527 0.14856 0.81682 0.0
C591 C 0.97246 0.12518 0.81642 0.0
C592 C 0.96143 0.09736 0.81914 0.0
C593 C 0.91404 0.94901 0.74479 0.0
C594 C 0.94432 0.94025 0.74379 0.0
C595 C 0.90532 0.97385 0.76221 0.0
C596 C 0.92659 0.99017 0.77931 0.0
C597 C 0.9571 0.98289 0.77654 0.0
C598 C 0.96591 0.95814 0.75891 0.0
C599 C 0.91665 0.01263 0.80242 0.0
C600 C 0.92773 0.04093 0.80241 0.0
C601 C 0.89629 0.00595 0.82463 0.0
C602 C 0.88555 0.97602 0.82721 0.0
C603 C 0.90614 0.95349 0.83012 0.0
C604 C 0.89591 0.92525 0.83198 0.0
C605 C 0.86512 0.91932 0.83127 0.0
C606 C 0.8445 0.94164 0.82878 0.0
C607 C 0.85461 0.96992 0.82683 0.0
H608 H 0.85725 0.89744 0.83272 0.0
H609 H 0.96132 0.17007 0.81482 0.0
H610 H 0.36387 0.33726 0.44037 0.0
H611 H 0.3764 0.33398 0.38814 0.0
H612 H 0.42307 0.25375 0.39644 0.0
H613 H 0.41002 0.25667 0.44895 0.0
H614 H 0.45812 0.29832 0.37507 0.0
H615 H 0.3651 0.25068 0.35312 0.0
H616 H 0.31047 0.24274 0.35602 0.0
H617 H 0.29422 0.3237 0.3203 0.0
H618 H 0.34877 0.33237 0.31759 0.0
H619 H 0.51159 0.31104 0.23494 0.0
H620 H 0.48195 0.28639 0.26989 0.0
H621 H 0.421 0.35874 0.27994 0.0
H622 H 0.44991 0.38317 0.24396 0.0
H623 H 0.39234 0.30698 0.28841 0.0
H624 H 0.48079 0.36029 0.32186 0.0
H625 H 0.53457 0.37296 0.32071 0.0
H626 H 0.55811 0.28639 0.3378 0.0
H627 H 0.50439 0.27308 0.33851 0.0
C628 C 0.37619 0.31855 0.43092 0.0
C629 C 0.38618 0.2973 0.44867 0.0
C630 C 0.38315 0.31661 0.40104 0.0
C631 C 0.40054 0.29357 0.38843 0.0
C632 C 0.40942 0.27158 0.40579 0.0
C633 C 0.40194 0.27324 0.43568 0.0
C634 C 0.4128 0.29505 0.35849 0.0
C635 C 0.44384 0.29926 0.35589 0.0
C636 C 0.39397 0.29735 0.3338 0.0
C637 C 0.36109 0.29223 0.3353 0.0
C638 C 0.3499 0.26691 0.34609 0.0
C639 C 0.31893 0.26226 0.34766 0.0
C640 C 0.29889 0.28272 0.33838 0.0
C641 C 0.30978 0.30786 0.32747 0.0
C642 C 0.34073 0.31263 0.32587 0.0
C643 C 0.49114 0.32122 0.24349 0.0
C644 C 0.48338 0.34933 0.23701 0.0
C645 C 0.47432 0.30713 0.26366 0.0
C646 C 0.44971 0.32103 0.27797 0.0
C647 C 0.44004 0.3477 0.26926 0.0
C648 C 0.45674 0.36176 0.24891 0.0
C649 C 0.43753 0.31043 0.30521 0.0
C650 C 0.40664 0.30497 0.30737 0.0
C651 C 0.45634 0.30757 0.32983 0.0
C652 C 0.48863 0.31559 0.32985 0.0
C653 C 0.49745 0.3439 0.32515 0.0
C654 C 0.52791 0.3512 0.3246 0.0
C655 C 0.54975 0.33046 0.3291 0.0
C656 C 0.54116 0.3024 0.33425 0.0
C657 C 0.51072 0.29496 0.33471 0.0
H658 H 0.57332 0.33615 0.32867 0.0
H659 H 0.27492 0.27908 0.33962 0.0
H660 H 0.1501 0.89809 0.9797 0.0
H661 H 0.17102 0.93734 0.95437 0.0
H662 H 0.25758 0.92441 0.99373 0.0
H663 H 0.23665 0.88523 0.01975 0.0
H664 H 0.24225 0.97929 0.00138 0.0
H665 H 0.24738 0.91026 0.91838 0.0
H666 H 0.23123 0.87153 0.88118 0.0
H667 H 0.16067 0.9258 0.8532 0.0
H668 H 0.17625 0.96483 0.89037 0.0
H669 H 0.28692 0.10068 0.92283 0.0
H670 H 0.28674 0.05118 0.9381 0.0
H671 H 0.19235 0.04366 0.91707 0.0
H672 H 0.19249 0.09258 0.90169 0.0
H673 H 0.22446 0.99517 0.8968 0.0
H674 H 0.21438 0.05981 0.9866 0.0
H675 H 0.23136 0.09905 0.02292 0.0
H676 H 0.31228 0.05205 0.03744 0.0
H677 H 0.29591 0.01269 0.00088 0.0
C678 C 0.1737 0.90325 0.98275 0.0
C679 C 0.19159 0.88861 0.00203 0.0
C680 C 0.18572 0.9256 0.96799 0.0
C681 C 0.21597 0.93368 0.97191 0.0
C682 C 0.2342 0.91849 0.99032 0.0
C683 C 0.22218 0.89608 0.00516 0.0
C684 C 0.22736 0.95983 0.95913 0.0
C685 C 0.23912 0.98244 0.97832 0.0
C686 C 0.22298 0.96415 0.92913 0.0
C687 C 0.21296 0.94046 0.90726 0.0
C688 C 0.22825 0.91386 0.90448 0.0
C689 C 0.21923 0.89187 0.88334 0.0
C690 C 0.19495 0.89622 0.86482 0.0
C691 C 0.17952 0.9225 0.86751 0.0
C692 C 0.18849 0.94459 0.88857 0.0
C693 C 0.26625 0.08829 0.92137 0.0
C694 C 0.23963 0.1005 0.91146 0.0
C695 C 0.26615 0.06016 0.93012 0.0
C696 C 0.23949 0.04387 0.92879 0.0
C697 C 0.21316 0.05585 0.91822 0.0
C698 C 0.2132 0.08389 0.90973 0.0
C699 C 0.23819 0.01467 0.93927 0.0
C700 C 0.22833 0.99159 0.91965 0.0
C701 C 0.24433 0.00989 0.96882 0.0
C702 C 0.25413 0.03352 0.99075 0.0
C703 C 0.23592 0.05798 0.99735 0.0
C704 C 0.2454 0.08021 0.01801 0.0
C705 C 0.27293 0.07809 0.0324 0.0
C706 C 0.291 0.0537 0.02622 0.0
C707 C 0.28163 0.03142 0.00554 0.0
H708 H 0.28023 0.09532 0.0484 0.0
H709 H 0.18813 0.87927 0.84832 0.0
H710 H 0.54063 0.74423 0.50937 0.0
H711 H 0.48734 0.75128 0.49806 0.0
H712 H 0.49113 0.67973 0.43102 0.0
H713 H 0.54406 0.67202 0.44271 0.0
H714 H 0.457 0.73456 0.41743 0.0
H715 H 0.46817 0.66191 0.48912 0.0
H716 H 0.48682 0.64713 0.5364 0.0
H717 H 0.43905 0.71753 0.58273 0.0
H718 H 0.42051 0.73296 0.53562 0.0
H719 H 0.31732 0.67155 0.38561 0.0
H720 H 0.36897 0.68602 0.39713 0.0
H721 H 0.34018 0.72655 0.48138 0.0
H722 H 0.2885 0.71013 0.47037 0.0
H723 H 0.38663 0.69867 0.49013 0.0
H724 H 0.36605 0.76593 0.42127 0.0
H725 H 0.34759 0.78397 0.37541 0.0
H726 H 0.41203 0.73115 0.32558 0.0
H727 H 0.43058 0.71239 0.37106 0.0
C728 C 0.5302 0.73033 0.49189 0.0
C729 C 0.54635 0.70745 0.47703 0.0
C730 C 0.49984 0.7344 0.48548 0.0
C731 C 0.48548 0.71603 0.46372 0.0
C732 C 0.50197 0.69418 0.44778 0.0
C733 C 0.53208 0.6897 0.45461 0.0
C734 C 0.45266 0.71748 0.45941 0.0
C735 C 0.44144 0.72676 0.43319 0.0
C736 C 0.43255 0.70838 0.48062 0.0
C737 C 0.44328 0.69878 0.50888 0.0
C738 C 0.46186 0.67436 0.50938 0.0
C739 C 0.47237 0.66585 0.53614 0.0
C740 C 0.46421 0.68144 0.56256 0.0
C741 C 0.44541 0.70551 0.56226 0.0
C742 C 0.43489 0.71414 0.53554 0.0
C743 C 0.32208 0.68393 0.40639 0.0
C744 C 0.29919 0.69002 0.42707 0.0
C745 C 0.35154 0.69245 0.4129 0.0
C746 C 0.35856 0.70806 0.43989 0.0
C747 C 0.33539 0.7147 0.46035 0.0
C748 C 0.30593 0.70548 0.45409 0.0
C749 C 0.39044 0.71503 0.44748 0.0
C750 C 0.40172 0.70726 0.47444 0.0
C751 C 0.41047 0.7262 0.42713 0.0
C752 C 0.39964 0.73765 0.39965 0.0
C753 C 0.3762 0.75803 0.40053 0.0
C754 C 0.36571 0.76839 0.37459 0.0
C755 C 0.37863 0.75871 0.3476 0.0
C756 C 0.40207 0.73866 0.34651 0.0
C757 C 0.41262 0.72818 0.37238 0.0
H758 H 0.37048 0.76676 0.32755 0.0
H759 H 0.47239 0.67483 0.58325 0.0
H760 H 0.43118 0.39338 0.61532 0.0
H761 H 0.44746 0.42681 0.65697 0.0
H762 H 0.3556 0.43689 0.68592 0.0
H763 H 0.33913 0.40313 0.64471 0.0
H764 H 0.38976 0.49017 0.68042 0.0
H765 H 0.39609 0.39886 0.72343 0.0
H766 H 0.41317 0.34852 0.72499 0.0
H767 H 0.50509 0.3768 0.72621 0.0
H768 H 0.48853 0.4273 0.72424 0.0
H769 H 0.40895 0.57322 0.813 0.0
H770 H 0.39429 0.53257 0.77868 0.0
H771 H 0.48741 0.50966 0.76479 0.0
H772 H 0.50235 0.54925 0.80081 0.0
H773 H 0.45397 0.46207 0.76212 0.0
H774 H 0.45112 0.5511 0.71775 0.0
H775 H 0.43748 0.60196 0.71303 0.0
H776 H 0.34397 0.57907 0.71027 0.0
H777 H 0.35703 0.5281 0.71524 0.0
C778 C 0.41445 0.40267 0.63058 0.0
C779 C 0.38385 0.39566 0.62672 0.0
C780 C 0.42381 0.42163 0.6544 0.0
C781 C 0.4027 0.43415 0.67447 0.0
C782 C 0.37218 0.42733 0.67064 0.0
C783 C 0.36285 0.40801 0.64715 0.0
C784 C 0.41233 0.45512 0.699 0.0
C785 C 0.40342 0.484 0.69853 0.0
C786 C 0.4311 0.44712 0.72191 0.0
C787 C 0.44107 0.41682 0.72339 0.0
C788 C 0.41994 0.39432 0.72378 0.0
C789 C 0.42953 0.36576 0.72479 0.0
C790 C 0.4602 0.35946 0.72562 0.0
C791 C 0.48134 0.38172 0.72554 0.0
C792 C 0.47186 0.41031 0.7245 0.0
C793 C 0.42639 0.55903 0.80357 0.0
C794 C 0.45693 0.5648 0.80962 0.0
C795 C 0.41793 0.53597 0.78353 0.0
C796 C 0.43978 0.51856 0.76855 0.0
C797 C 0.47016 0.523 0.77587 0.0
C798 C 0.47866 0.54583 0.7963 0.0
C799 C 0.43096 0.49717 0.74388 0.0
C800 C 0.44019 0.46828 0.74412 0.0
C801 C 0.41298 0.50524 0.72033 0.0
C802 C 0.40504 0.53584 0.71714 0.0
C803 C 0.42764 0.55695 0.71633 0.0
C804 C 0.42002 0.58578 0.71359 0.0
C805 C 0.38989 0.59374 0.71147 0.0
C806 C 0.36731 0.57287 0.71196 0.0
C807 C 0.3748 0.544 0.7147 0.0
H808 H 0.38403 0.61608 0.70936 0.0
H809 H 0.46758 0.33734 0.7264 0.0
H810 H 0.04377 0.73957 0.06005 0.0
H811 H 0.9909 0.73224 0.07277 0.0
H812 H 0.98462 0.82171 0.10707 0.0
H813 H 0.03705 0.82913 0.09472 0.0
H814 H 0.95429 0.78711 0.14125 0.0
H815 H 0.96399 0.80067 0.03729 0.0
H816 H 0.98265 0.78796 0.98692 0.0
H817 H 0.94082 0.70449 0.98571 0.0
H818 H 0.92228 0.7166 0.0363 0.0
H819 H 0.81732 0.85048 0.11657 0.0
H820 H 0.86843 0.83327 0.10744 0.0
H821 H 0.83763 0.74502 0.10458 0.0
H822 H 0.78583 0.76227 0.11387 0.0
H823 H 0.88473 0.76467 0.05715 0.0
H824 H 0.86674 0.75801 0.16028 0.0
H825 H 0.84682 0.77586 0.20894 0.0
H826 H 0.90391 0.85056 0.21035 0.0
H827 H 0.92376 0.83341 0.16143 0.0
C828 C 0.03124 0.7575 0.07082 0.0
C829 C 0.04449 0.78501 0.07609 0.0
C830 C 0.00103 0.75331 0.07794 0.0
C831 C 0.98378 0.77652 0.09057 0.0
C832 C 0.9975 0.8035 0.09734 0.0
C833 C 0.02747 0.80774 0.09009 0.0
C834 C 0.95093 0.77387 0.0949 0.0
C835 C 0.9391 0.78186 0.12293 0.0
C836 C 0.93109 0.7666 0.07107 0.0
C837 C 0.94213 0.75937 0.04068 0.0
C838 C 0.959 0.77951 0.02637 0.0
C839 C 0.96952 0.77244 0.99777 0.0
C840 C 0.96302 0.7454 0.98316 0.0
C841 C 0.94591 0.7254 0.99709 0.0
C842 C 0.9354 0.73235 0.02572 0.0
C843 C 0.8212 0.82741 0.11324 0.0
C844 C 0.79754 0.80771 0.11565 0.0
C845 C 0.85044 0.81762 0.10824 0.0
C846 C 0.85668 0.78794 0.10545 0.0
C847 C 0.83309 0.76802 0.10664 0.0
C848 C 0.80366 0.77787 0.11201 0.0
C849 C 0.88834 0.77852 0.10329 0.0
C850 C 0.89993 0.76862 0.07568 0.0
C851 C 0.90804 0.78434 0.12741 0.0
C852 C 0.89662 0.79448 0.15711 0.0
C853 C 0.87489 0.77834 0.17087 0.0
C854 C 0.86363 0.78832 0.19851 0.0
C855 C 0.87407 0.81434 0.21272 0.0
C856 C 0.89585 0.8304 0.19933 0.0
C857 C 0.90714 0.82054 0.17165 0.0
H858 H 0.86531 0.82204 0.23411 0.0
H859 H 0.97116 0.73997 0.96102 0.0
H860 H 0.67525 0.60625 0.57007 0.0
H861 H 0.70047 0.56628 0.59174 0.0
H862 H 0.75452 0.55026 0.51369 0.0
H863 H 0.73008 0.59063 0.49214 0.0
H864 H 0.71527 0.5012 0.53733 0.0
H865 H 0.79248 0.57339 0.56196 0.0
H866 H 0.81038 0.62086 0.58374 0.0
H867 H 0.7777 0.60196 0.66836 0.0
H868 H 0.75916 0.55454 0.64696 0.0
H869 H 0.79 0.38333 0.58397 0.0
H870 H 0.78641 0.43016 0.56346 0.0
H871 H 0.75976 0.47021 0.64851 0.0
H872 H 0.76482 0.42365 0.66925 0.0
H873 H 0.78862 0.50846 0.61971 0.0
H874 H 0.70791 0.44174 0.59936 0.0
H875 H 0.68512 0.39487 0.58188 0.0
H876 H 0.71648 0.40441 0.49437 0.0
H877 H 0.74 0.45111 0.51148 0.0
C878 C 0.69273 0.5944 0.55767 0.0
C879 C 0.70068 0.6015 0.52941 0.0
C880 C 0.70715 0.57173 0.5701 0.0
C881 C 0.72933 0.55557 0.55427 0.0
C882 C 0.73754 0.56271 0.52622 0.0
C883 C 0.72361 0.58576 0.51402 0.0
C884 C 0.74232 0.52986 0.56616 0.0
C885 C 0.73178 0.50266 0.55492 0.0
C886 C 0.76286 0.53212 0.58987 0.0
C887 C 0.77415 0.56054 0.60278 0.0
C888 C 0.78883 0.57947 0.58514 0.0
C889 C 0.79916 0.60635 0.59744 0.0
C890 C 0.7951 0.61446 0.6274 0.0
C891 C 0.78079 0.59567 0.64514 0.0
C892 C 0.77039 0.56878 0.63295 0.0
C893 C 0.7845 0.40242 0.5984 0.0
C894 C 0.77757 0.40012 0.62804 0.0
C895 C 0.78227 0.42907 0.58671 0.0
C896 C 0.77201 0.45349 0.6043 0.0
C897 C 0.76761 0.45165 0.63452 0.0
C898 C 0.77048 0.4251 0.64635 0.0
C899 C 0.76192 0.47956 0.5906 0.0
C900 C 0.77259 0.50686 0.60172 0.0
C901 C 0.74071 0.47752 0.5673 0.0
C902 C 0.726 0.44977 0.55676 0.0
C903 C 0.71008 0.43377 0.57642 0.0
C904 C 0.69705 0.40723 0.56659 0.0
C905 C 0.69941 0.39664 0.53705 0.0
C906 C 0.71472 0.41263 0.51726 0.0
C907 C 0.72793 0.43912 0.52701 0.0
H908 H 0.68932 0.37608 0.52947 0.0
H909 H 0.80312 0.63527 0.63688 0.0
H910 H 0.87208 0.24421 0.11181 0.0
H911 H 0.8881 0.24814 0.16344 0.0
H912 H 0.90171 0.15581 0.15799 0.0
H913 H 0.8851 0.15159 0.10722 0.0
H914 H 0.88188 0.1734 0.21061 0.0
H915 H 0.95928 0.20485 0.14347 0.0
H916 H 0.97883 0.23695 0.10768 0.0
H917 H 0.96506 0.31076 0.16999 0.0
H918 H 0.94515 0.27904 0.20602 0.0
H919 H 0.03967 0.15389 0.25817 0.0
H920 H 0.00329 0.17666 0.22786 0.0
H921 H 0.94509 0.19337 0.30307 0.0
H922 H 0.98179 0.16993 0.33368 0.0
H923 H 0.97709 0.22817 0.22673 0.0
H924 H 0.87236 0.18161 0.27542 0.0
H925 H 0.85708 0.14343 0.30668 0.0
H926 H 0.93197 0.09126 0.2751 0.0
H927 H 0.94743 0.12898 0.24346 0.0
C928 C 0.87796 0.2247 0.12181 0.0
C929 C 0.87783 0.19764 0.10515 0.0
C930 C 0.88711 0.227 0.15132 0.0
C931 C 0.89651 0.20232 0.1645 0.0
C932 C 0.89453 0.17518 0.1484 0.0
C933 C 0.88527 0.17285 0.11915 0.0
C934 C 0.91174 0.20438 0.19357 0.0
C935 C 0.90231 0.18593 0.21451 0.0
C936 C 0.93841 0.22071 0.19878 0.0
C937 C 0.9504 0.23969 0.17722 0.0
C938 C 0.96028 0.22795 0.14943 0.0
C939 C 0.97143 0.24606 0.12913 0.0
C940 C 0.97309 0.27589 0.13652 0.0
C941 C 0.96368 0.28766 0.16427 0.0
C942 C 0.95246 0.26965 0.18462 0.0
C943 C 0.01925 0.16269 0.26832 0.0
C944 C 0.01321 0.15978 0.29806 0.0
C945 C 0.9986 0.17597 0.25107 0.0
C946 C 0.97138 0.18659 0.26313 0.0
C947 C 0.96592 0.18518 0.29331 0.0
C948 C 0.98682 0.17188 0.31074 0.0
C949 C 0.94805 0.19601 0.24285 0.0
C950 C 0.95587 0.21675 0.22366 0.0
C951 C 0.9204 0.18112 0.23876 0.0
C952 C 0.91124 0.15825 0.25748 0.0
C953 C 0.88552 0.16197 0.27519 0.0
C954 C 0.87683 0.14042 0.29294 0.0
C955 C 0.89362 0.115 0.29297 0.0
C956 C 0.91905 0.11101 0.27515 0.0
C957 C 0.92779 0.13246 0.25732 0.0
H958 H 0.88687 0.09836 0.30675 0.0
H959 H 0.98173 0.28988 0.12078 0.0
H960 H 0.15571 0.71565 0.1202 0.0
H961 H 0.16059 0.69683 0.16839 0.0
H962 H 0.19323 0.77992 0.20524 0.0
H963 H 0.18942 0.79846 0.15725 0.0
H964 H 0.22623 0.74016 0.22401 0.0
H965 H 0.11979 0.755 0.21632 0.0
H966 H 0.06963 0.74933 0.1935 0.0
H967 H 0.07368 0.65759 0.19897 0.0
H968 H 0.12408 0.66268 0.22146 0.0
H969 H 0.2124 0.72718 0.37424 0.0
H970 H 0.19648 0.7417 0.32647 0.0
H971 H 0.18851 0.65215 0.29308 0.0
H972 H 0.20516 0.63737 0.34055 0.0
H973 H 0.14246 0.69217 0.27235 0.0
H974 H 0.25011 0.67948 0.28111 0.0
H975 H 0.29849 0.68762 0.30693 0.0
H976 H 0.2902 0.77905 0.30124 0.0
H977 H 0.24141 0.77149 0.2759 0.0
C978 C 0.16393 0.72986 0.1386 0.0
C979 C 0.17229 0.7585 0.13486 0.0
C980 C 0.16656 0.71914 0.16617 0.0
C981 C 0.17699 0.73705 0.19055 0.0
C982 C 0.18524 0.76564 0.18678 0.0
C983 C 0.18304 0.77621 0.15926 0.0
C984 C 0.18006 0.72613 0.21997 0.0
C985 C 0.20775 0.72996 0.2346 0.0
C986 C 0.15617 0.71228 0.23369 0.0
C987 C 0.12584 0.70919 0.22027 0.0
C988 C 0.11008 0.73359 0.21244 0.0
C989 C 0.08159 0.73049 0.1996 0.0
C990 C 0.06852 0.70311 0.19471 0.0
C991 C 0.08386 0.67878 0.20273 0.0
C992 C 0.11238 0.68176 0.21554 0.0
C993 C 0.20681 0.71057 0.35688 0.0
C994 C 0.21046 0.68115 0.36104 0.0
C995 C 0.19755 0.71889 0.32971 0.0
C996 C 0.19168 0.69795 0.3063 0.0
C997 C 0.19288 0.66857 0.31099 0.0
C998 C 0.20234 0.66019 0.33816 0.0
C999 C 0.1883 0.70675 0.2762 0.0
C1000 C 0.16078 0.70236 0.26152 0.0
C1001 C 0.21218 0.72043 0.26248 0.0
C1002 C 0.24198 0.72493 0.27684 0.0
C1003 C 0.25851 0.70133 0.28553 0.0
C1004 C 0.286 0.70584 0.30007 0.0
C1005 C 0.29738 0.73384 0.30578 0.0
C1006 C 0.28133 0.75738 0.29684 0.0
C1007 C 0.25377 0.75299 0.28237 0.0
H1008 H 0.31863 0.73729 0.3171 0.0
H1009 H 0.04646 0.70075 0.18476 0.0
H1010 H 0.71265 0.77189 0.55724 0.0
H1011 H 0.75565 0.79571 0.58208 0.0
H1012 H 0.81492 0.7316 0.53927 0.0
H1013 H 0.77186 0.70718 0.51464 0.0
H1014 H 0.82949 0.74257 0.59595 0.0
H1015 H 0.81116 0.79929 0.51594 0.0
H1016 H 0.78089 0.82728 0.48325 0.0
H1017 H 0.75874 0.88852 0.55618 0.0
H1018 H 0.78852 0.86069 0.58941 0.0
H1019 H 0.95552 0.82699 0.65131 0.0
H1020 H 0.92104 0.80172 0.61567 0.0
H1021 H 0.84782 0.85462 0.65135 0.0
H1022 H 0.88174 0.87954 0.687 0.0
H1023 H 0.84581 0.84783 0.59172 0.0
H1024 H 0.85934 0.78728 0.67209 0.0
H1025 H 0.88951 0.75907 0.70468 0.0
H1026 H 0.92118 0.70484 0.62989 0.0
H1027 H 0.89152 0.73303 0.59681 0.0
C1028 C 0.73479 0.76279 0.55302 0.0
C1029 C 0.73875 0.73767 0.53376 0.0
C1030 C 0.7594 0.77655 0.56716 0.0
C1031 C 0.78857 0.76575 0.56211 0.0
C1032 C 0.79262 0.74039 0.54336 0.0
C1033 C 0.76796 0.72649 0.52928 0.0
C1034 C 0.81466 0.78085 0.5768 0.0
C1035 C 0.83343 0.76546 0.59456 0.0
C1036 C 0.81966 0.81078 0.57518 0.0
C1037 C 0.80194 0.82778 0.55521 0.0
C1038 C 0.79969 0.81863 0.52505 0.0
C1039 C 0.78263 0.83448 0.50641 0.0
C1040 C 0.76787 0.85963 0.51764 0.0
C1041 C 0.77019 0.86903 0.54751 0.0
C1042 C 0.78719 0.85325 0.56625 0.0
C1043 C 0.93209 0.83329 0.65142 0.0
C1044 C 0.92144 0.85537 0.67194 0.0
C1045 C 0.91246 0.81888 0.63105 0.0
C1046 C 0.88183 0.8262 0.631 0.0
C1047 C 0.87139 0.84876 0.65085 0.0
C1048 C 0.8909 0.8631 0.67117 0.0
C1049 C 0.86008 0.8097 0.61138 0.0
C1050 C 0.84214 0.82483 0.59269 0.0
C1051 C 0.85592 0.77954 0.61206 0.0
C1052 C 0.87351 0.76246 0.63197 0.0
C1053 C 0.87292 0.76948 0.66259 0.0
C1054 C 0.8899 0.75348 0.68115 0.0
C1055 C 0.90732 0.73024 0.66936 0.0
C1056 C 0.90773 0.72289 0.63898 0.0
C1057 C 0.89084 0.73886 0.62032 0.0
H1058 H 0.92045 0.71788 0.68376 0.0
H1059 H 0.75466 0.87186 0.50318 0.0
H1060 H 0.72328 0.2108 0.00969 0.0
H1061 H 0.67919 0.23276 0.03495 0.0
H1062 H 0.73721 0.28212 0.09642 0.0
H1063 H 0.78117 0.26046 0.07157 0.0
H1064 H 0.69039 0.25579 0.12346 0.0
H1065 H 0.70611 0.31358 0.04134 0.0
H1066 H 0.71108 0.32086 0.98872 0.0
H1067 H 0.62253 0.28628 0.97225 0.0
H1068 H 0.61721 0.27842 0.02475 0.0
H1069 H 0.60963 0.36955 0.19259 0.0
H1070 H 0.64486 0.34165 0.16079 0.0
H1071 H 0.57142 0.30568 0.10761 0.0
H1072 H 0.53575 0.33466 0.13887 0.0
H1073 H 0.62004 0.31874 0.07402 0.0
H1074 H 0.60174 0.26617 0.15694 0.0
H1075 H 0.59631 0.2592 0.20956 0.0
H1076 H 0.6888 0.28256 0.22445 0.0
H1077 H 0.69468 0.29014 0.17198 0.0
C1078 C 0.72664 0.22628 0.02863 0.0
C1079 C 0.75578 0.23394 0.03853 0.0
C1080 C 0.70144 0.23885 0.04294 0.0
C1081 C 0.70502 0.25913 0.06743 0.0
C1082 C 0.734 0.26648 0.07756 0.0
C1083 C 0.75912 0.25415 0.06321 0.0
C1084 C 0.67878 0.27302 0.08272 0.0
C1085 C 0.67506 0.26965 0.1127 0.0
C1086 C 0.65824 0.29027 0.06837 0.0
C1087 C 0.66141 0.29508 0.03687 0.0
C1088 C 0.68781 0.30729 0.02644 0.0
C1089 C 0.69066 0.31157 0.99666 0.0
C1090 C 0.66717 0.30394 0.97713 0.0
C1091 C 0.64073 0.29211 0.98738 0.0
C1092 C 0.63778 0.28775 0.01715 0.0
C1093 C 0.60089 0.35631 0.17374 0.0
C1094 C 0.56983 0.35441 0.16823 0.0
C1095 C 0.62108 0.34006 0.15579 0.0
C1096 C 0.61069 0.3212 0.1322 0.0
C1097 C 0.57984 0.31997 0.12586 0.0
C1098 C 0.55953 0.33639 0.14381 0.0
C1099 C 0.63226 0.30223 0.11499 0.0
C1100 C 0.63504 0.30452 0.08468 0.0
C1101 C 0.65189 0.28379 0.12899 0.0
C1102 C 0.64859 0.2789 0.16053 0.0
C1103 C 0.62088 0.27 0.17146 0.0
C1104 C 0.61772 0.26592 0.20126 0.0
C1105 C 0.64218 0.27048 0.22034 0.0
C1106 C 0.66987 0.27905 0.20964 0.0
C1107 C 0.67314 0.2832 0.17986 0.0
H1108 H 0.63968 0.26732 0.24341 0.0
H1109 H 0.66942 0.30728 0.95408 0.0
H1110 H 0.35975 0.22018 0.61662 0.0
H1111 H 0.35466 0.19669 0.66234 0.0
H1112 H 0.33492 0.27914 0.70963 0.0
H1113 H 0.33974 0.30272 0.66422 0.0
H1114 H 0.37248 0.24312 0.74116 0.0
H1115 H 0.27877 0.23974 0.68599 0.0
H1116 H 0.2477 0.22742 0.64184 0.0
H1117 H 0.27014 0.13771 0.6439 0.0
H1118 H 0.30173 0.14959 0.68785 0.0
H1119 H 0.27941 0.21953 0.86184 0.0
H1120 H 0.30561 0.23349 0.81839 0.0
H1121 H 0.30472 0.14472 0.78106 0.0
H1122 H 0.27709 0.13086 0.82365 0.0
H1123 H 0.28443 0.17771 0.74296 0.0
H1124 H 0.37117 0.18013 0.8038 0.0
H1125 H 0.40214 0.19251 0.84796 0.0
H1126 H 0.394 0.2828 0.8359 0.0
H1127 H 0.36259 0.271 0.7919 0.0
C1128 C 0.3548 0.23335 0.63685 0.0
C1129 C 0.34973 0.26322 0.63678 0.0
C1130 C 0.35192 0.21991 0.6629 0.0
C1131 C 0.34425 0.23621 0.68923 0.0
C1132 C 0.3409 0.26623 0.68952 0.0
C1133 C 0.3434 0.2796 0.6635 0.0
C1134 C 0.33666 0.22192 0.71589 0.0
C1135 C 0.35326 0.2288 0.74171 0.0
C1136 C 0.31201 0.20275 0.71623 0.0
C1137 C 0.29291 0.19559 0.68994 0.0
C1138 C 0.27729 0.21742 0.67686 0.0
C1139 C 0.25955 0.21052 0.65191 0.0
C1140 C 0.25703 0.18181 0.64001 0.0
C1141 C 0.27218 0.15994 0.6531 0.0
C1142 C 0.29 0.16674 0.67803 0.0
C1143 C 0.28494 0.20295 0.84446 0.0
C1144 C 0.27598 0.17411 0.8462 0.0
C1145 C 0.30031 0.21089 0.81978 0.0
C1146 C 0.3074 0.1901 0.79653 0.0
C1147 C 0.29958 0.16111 0.79877 0.0
C1148 C 0.284 0.15319 0.82331 0.0
C1149 C 0.32001 0.19911 0.76871 0.0
C1150 C 0.30417 0.1914 0.74254 0.0
C1151 C 0.34543 0.21742 0.76814 0.0
C1152 C 0.36433 0.22466 0.79463 0.0
C1153 C 0.37578 0.20264 0.81068 0.0
C1154 C 0.39345 0.20956 0.83567 0.0
C1155 C 0.39999 0.23842 0.84476 0.0
C1156 C 0.38891 0.26044 0.82884 0.0
C1157 C 0.3712 0.25365 0.80384 0.0
H1158 H 0.41369 0.24373 0.86411 0.0
H1159 H 0.24328 0.17651 0.6207 0.0
H1160 H 0.71634 0.73699 0.40937 0.0
H1161 H 0.71927 0.7603 0.36372 0.0
H1162 H 0.62633 0.78572 0.3728 0.0
H1163 H 0.62327 0.7626 0.41911 0.0
H1164 H 0.64353 0.7559 0.31623 0.0
H1165 H 0.6726 0.83725 0.38135 0.0
H1166 H 0.70039 0.86252 0.42281 0.0
H1167 H 0.78394 0.84209 0.37885 0.0
H1168 H 0.75669 0.81629 0.33731 0.0
H1169 H 0.67062 0.82401 0.18295 0.0
H1170 H 0.65326 0.81496 0.23222 0.0
H1171 H 0.74449 0.79771 0.2575 0.0
H1172 H 0.76206 0.80803 0.20917 0.0
H1173 H 0.71837 0.83169 0.29887 0.0
H1174 H 0.69199 0.74328 0.23995 0.0
H1175 H 0.66662 0.71378 0.19956 0.0
H1176 H 0.58075 0.74396 0.23228 0.0
H1177 H 0.60567 0.77395 0.27266 0.0
C1178 C 0.69657 0.74777 0.40184 0.0
C1179 C 0.66955 0.74795 0.41774 0.0
C1180 C 0.69832 0.76116 0.37584 0.0
C1181 C 0.67305 0.77478 0.36505 0.0
C1182 C 0.64606 0.77536 0.38094 0.0
C1183 C 0.64441 0.76231 0.40736 0.0
C1184 C 0.67502 0.78691 0.33631 0.0
C1185 C 0.65926 0.77303 0.31243 0.0
C1186 C 0.69604 0.80879 0.3315 0.0
C1187 C 0.71256 0.8247 0.35624 0.0
C1188 C 0.69691 0.83798 0.38059 0.0
C1189 C 0.71257 0.85242 0.40411 0.0
C1190 C 0.74392 0.85387 0.40349 0.0
C1191 C 0.75966 0.84096 0.3793 0.0
C1192 C 0.74411 0.82647 0.35573 0.0
C1193 C 0.68694 0.81832 0.19906 0.0
C1194 C 0.71769 0.81646 0.19199 0.0
C1195 C 0.67697 0.813 0.22713 0.0
C1196 C 0.69756 0.80552 0.2485 0.0
C1197 C 0.72818 0.80349 0.24139 0.0
C1198 C 0.73815 0.80897 0.21353 0.0
C1199 C 0.68771 0.79993 0.27849 0.0
C1200 C 0.70202 0.8151 0.30264 0.0
C1201 C 0.66565 0.77894 0.28348 0.0
C1202 C 0.6507 0.76117 0.25905 0.0
C1203 C 0.66771 0.74385 0.23835 0.0
C1204 C 0.65342 0.727 0.2155 0.0
C1205 C 0.6221 0.72708 0.21329 0.0
C1206 C 0.60501 0.74398 0.23396 0.0
C1207 C 0.61921 0.76091 0.25683 0.0
H1208 H 0.61107 0.71399 0.1956 0.0
H1209 H 0.756 0.86502 0.42174 0.0
H1210 H 0.82807 0.20442 0.89339 0.0
H1211 H 0.82867 0.22895 0.84838 0.0
H1212 H 0.83638 0.31138 0.89956 0.0
H1213 H 0.83634 0.28682 0.94506 0.0
H1214 H 0.78917 0.3068 0.85611 0.0
H1215 H 0.89367 0.29051 0.86441 0.0
H1216 H 0.93979 0.26282 0.872 0.0
H1217 H 0.92132 0.2074 0.79358 0.0
H1218 H 0.87452 0.23408 0.78603 0.0
H1219 H 0.79321 0.37334 0.72374 0.0
H1220 H 0.81116 0.36022 0.77128 0.0
H1221 H 0.81504 0.27061 0.73708 0.0
H1222 H 0.79796 0.28369 0.68903 0.0
H1223 H 0.86227 0.28585 0.77493 0.0
H1224 H 0.75418 0.29534 0.77276 0.0
H1225 H 0.70659 0.32085 0.76533 0.0
H1226 H 0.73158 0.38753 0.83232 0.0
H1227 H 0.77958 0.3626 0.83983 0.0
C1228 C 0.82997 0.22777 0.89513 0.0
C1229 C 0.83195 0.24376 0.92274 0.0
C1230 C 0.83055 0.2417 0.86939 0.0
C1231 C 0.83279 0.27189 0.87074 0.0
C1232 C 0.83482 0.28802 0.8982 0.0
C1233 C 0.8348 0.274 0.92407 0.0
C1234 C 0.83109 0.28631 0.84328 0.0
C1235 C 0.80553 0.30288 0.8386 0.0
C1236 C 0.85217 0.28048 0.82034 0.0
C1237 C 0.88034 0.26421 0.82479 0.0
C1238 C 0.89919 0.27218 0.84897 0.0
C1239 C 0.92548 0.25665 0.85328 0.0
C1240 C 0.93342 0.23329 0.83336 0.0
C1241 C 0.91508 0.22542 0.80908 0.0
C1242 C 0.88863 0.24073 0.80479 0.0
C1243 C 0.79865 0.35093 0.72605 0.0
C1244 C 0.794 0.3295 0.70266 0.0
C1245 C 0.80871 0.34347 0.75331 0.0
C1246 C 0.81405 0.31443 0.75776 0.0
C1247 C 0.81099 0.29315 0.73407 0.0
C1248 C 0.80096 0.30061 0.70675 0.0
C1249 C 0.82008 0.30588 0.78765 0.0
C1250 C 0.84631 0.29031 0.79269 0.0
C1251 C 0.79952 0.31239 0.81095 0.0
C1252 C 0.77061 0.32731 0.80659 0.0
C1253 C 0.74963 0.31557 0.78573 0.0
C1254 C 0.72257 0.3299 0.78153 0.0
C1255 C 0.71611 0.35584 0.79828 0.0
C1256 C 0.73666 0.36746 0.81932 0.0
C1257 C 0.76379 0.35324 0.82356 0.0
H1258 H 0.69514 0.3669 0.795 0.0
H1259 H 0.95384 0.22139 0.83671 0.0
H1260 H 0.24551 0.29927 0.521 0.0
H1261 H 0.203 0.27447 0.49592 0.0
H1262 H 0.24928 0.19289 0.49729 0.0
H1263 H 0.29242 0.21787 0.52095 0.0
H1264 H 0.22779 0.19466 0.44683 0.0
H1265 H 0.18534 0.21316 0.54197 0.0
H1266 H 0.17072 0.24146 0.58805 0.0
H1267 H 0.11358 0.29467 0.5397 0.0
H1268 H 0.12819 0.26696 0.49325 0.0
H1269 H 0.09603 0.1138 0.40043 0.0
H1270 H 0.131 0.1359 0.43725 0.0
H1271 H 0.11855 0.21867 0.40342 0.0
H1272 H 0.08535 0.1967 0.36525 0.0
H1273 H 0.12087 0.21263 0.4733 0.0
H1274 H 0.17249 0.1947 0.37742 0.0
H1275 H 0.18581 0.16213 0.33364 0.0
H1276 H 0.22477 0.10205 0.38894 0.0
H1277 H 0.2112 0.13412 0.43308 0.0
C1278 C 0.24646 0.27601 0.51617 0.0
C1279 C 0.27229 0.26051 0.52281 0.0
C1280 C 0.22205 0.26179 0.50201 0.0
C1281 C 0.22265 0.23167 0.49502 0.0
C1282 C 0.24823 0.21612 0.50234 0.0
C1283 C 0.27288 0.23041 0.51588 0.0
C1284 C 0.19753 0.21665 0.47838 0.0
C1285 C 0.2045 0.19833 0.45309 0.0
C1286 C 0.16697 0.22137 0.4862 0.0
C1287 C 0.15807 0.23812 0.51408 0.0
C1288 C 0.16983 0.23104 0.54113 0.0
C1289 C 0.16152 0.24695 0.56733 0.0
C1290 C 0.14129 0.26989 0.5668 0.0
C1291 C 0.12927 0.27692 0.54007 0.0
C1292 C 0.13754 0.26109 0.5138 0.0
C1293 C 0.10067 0.13671 0.40071 0.0
C1294 C 0.08802 0.15329 0.37946 0.0
C1295 C 0.12035 0.14933 0.42204 0.0
C1296 C 0.12718 0.17884 0.42295 0.0
C1297 C 0.11322 0.19588 0.40315 0.0
C1298 C 0.09408 0.1832 0.3814 0.0
C1299 C 0.1515 0.19126 0.44211 0.0
C1300 C 0.1443 0.20898 0.4676 0.0
C1301 C 0.18188 0.18555 0.43499 0.0
C1302 C 0.19053 0.1666 0.40849 0.0
C1303 C 0.18366 0.17442 0.38022 0.0
C1304 C 0.19129 0.15609 0.35536 0.0
C1305 C 0.20604 0.12999 0.35851 0.0
C1306 C 0.21329 0.12224 0.38654 0.0
C1307 C 0.20565 0.14049 0.41147 0.0
H1308 H 0.21192 0.11581 0.33924 0.0
H1309 H 0.13487 0.28218 0.58711 0.0
H1310 H 0.20794 0.71635 0.99229 0.0
H1311 H 0.25028 0.69169 0.96695 0.0
H1312 H 0.30909 0.76153 0.99876 0.0
H1313 H 0.26709 0.78624 0.02444 0.0
H1314 H 0.28586 0.70749 0.92392 0.0
H1315 H 0.37843 0.73405 0.01178 0.0
H1316 H 0.38294 0.74297 0.06571 0.0
H1317 H 0.30333 0.69274 0.07652 0.0
H1318 H 0.29859 0.68319 0.02269 0.0
H1319 H 0.42834 0.68689 0.86008 0.0
H1320 H 0.38792 0.70844 0.89085 0.0
H1321 H 0.38703 0.63383 0.94061 0.0
H1322 H 0.42799 0.61225 0.91013 0.0
H1323 H 0.38002 0.6856 0.9759 0.0
H1324 H 0.3372 0.63679 0.88882 0.0
H1325 H 0.33179 0.62464 0.83537 0.0
H1326 H 0.30901 0.71282 0.82425 0.0
H1327 H 0.31478 0.7256 0.87761 0.0
C1328 C 0.22987 0.7265 0.99398 0.0
C1329 C 0.23406 0.75328 0.01054 0.0
C1330 C 0.25404 0.71237 0.97941 0.0
C1331 C 0.28288 0.72462 0.98125 0.0
C1332 C 0.28711 0.75146 0.99745 0.0
C1333 C 0.26299 0.76562 0.01201 0.0
C1334 C 0.30849 0.70957 0.96581 0.0
C1335 C 0.30641 0.70269 0.93531 0.0
C1336 C 0.33514 0.70287 0.98075 0.0
C1337 C 0.33802 0.70815 0.01318 0.0
C1338 C 0.36196 0.72481 0.02567 0.0
C1339 C 0.36455 0.72999 0.05622 0.0
C1340 C 0.34338 0.7185 0.07452 0.0
C1341 C 0.31965 0.70172 0.06232 0.0
C1342 C 0.31698 0.69645 0.03178 0.0
C1343 C 0.42006 0.67534 0.878 0.0
C1344 C 0.43132 0.64786 0.8827 0.0
C1345 C 0.39679 0.68758 0.89539 0.0
C1346 C 0.38428 0.67255 0.91773 0.0
C1347 C 0.39635 0.64571 0.9234 0.0
C1348 C 0.41959 0.63337 0.9059 0.0
C1349 C 0.35755 0.68422 0.93401 0.0
C1350 C 0.35943 0.69043 0.96459 0.0
C1351 C 0.3305 0.68987 0.91925 0.0
C1352 C 0.32668 0.6822 0.88719 0.0
C1353 C 0.33126 0.65363 0.87495 0.0
C1354 C 0.3281 0.64663 0.84467 0.0
C1355 C 0.32012 0.66796 0.82641 0.0
C1356 C 0.31521 0.69633 0.83842 0.0
C1357 C 0.31841 0.70346 0.86868 0.0
H1358 H 0.31769 0.66249 0.80298 0.0
H1359 H 0.34541 0.72256 0.09817 0.0
loop_
_geom_bond_atom_site_label_1
_geom_bond_atom_site_label_2
_geom_bond_distance
_geom_bond_site_symmetry_2
_ccdc_geom_bond_type
Sc0 O3 2.025 . S
Sc0 O10 2.105 . S
Sc0 O13 2.105 . S
Sc0 O16 2.105 . S
Sc0 O19 2.078 1_554 S
Sc1 O3 2.025 . S
Sc1 O11 2.105 1_554 S
Sc1 O15 2.105 . S
Sc1 O17 2.105 . S
Sc1 O21 2.105 . S
Sc2 O3 2.025 . S
Sc2 O12 2.105 . S
Sc2 O14 2.105 . S
Sc2 O18 2.105 . S
Sc2 O20 2.105 . S
O3 Sc0 2.025 . S
O3 Sc1 2.025 . S
O3 Sc2 2.025 . S
C4 O10 1.268 . S
C4 O20 1.268 . S
C5 O11 1.268 . S
C5 O19 1.281 . S
C6 O12 1.268 . S
C6 O21 1.268 . S
C7 O13 1.268 . S
C7 O17 1.268 . S
C8 O14 1.268 . S
C8 O16 1.268 . S
C9 O15 1.268 . S
C9 O18 1.268 . S
O10 Sc0 2.105 . S
O10 C4 1.268 . S
O11 Sc1 2.105 1_556 S
O11 C5 1.268 . S
O12 Sc2 2.105 . S
O12 C6 1.268 . S
O13 Sc0 2.105 . S
O13 C7 1.268 . S
O14 Sc2 2.105 . S
O14 C8 1.268 . S
O15 Sc1 2.105 . S
O15 C9 1.268 . S
O16 Sc0 2.105 . S
O16 C8 1.268 . S
O17 Sc1 2.105 . S
O17 C7 1.268 . S
O18 Sc2 2.105 . S
O18 C9 1.268 . S
O19 Sc0 2.078 1_556 S
O19 C5 1.281 . S
O20 Sc2 2.105 . S
O20 C4 1.268 . S
O21 Sc1 2.105 . S
O21 C6 1.268 . S
Sc22 O25 2.025 . S
Sc22 O32 2.105 . S
Sc22 O35 2.105 . S
Sc22 O38 2.105 . S
Sc22 O41 2.105 . S
Sc23 O25 2.025 . S
Sc23 O33 2.105 . S
Sc23 O37 2.105 . S
Sc23 O39 2.105 . S
Sc23 O43 2.105 . S
Sc24 O25 2.025 . S
Sc24 O34 2.105 . S
Sc24 O36 2.105 . S
Sc24 O40 2.105 . S
Sc24 O42 2.105 . S
O25 Sc22 2.025 . S
O25 Sc23 2.025 . S
O25 Sc24 2.025 . S
C26 O32 1.268 . S
C26 O42 1.268 . S
C27 O33 1.268 . S
C27 O41 1.268 . S
C28 O34 1.268 . S
C28 O43 1.268 . S
C29 O35 1.268 . S
C29 O39 1.268 . S
C30 O36 1.268 . S
C30 O38 1.268 . S
C31 O37 1.268 . S
C31 O40 1.268 . S
O32 Sc22 2.105 . S
O32 C26 1.268 . S
O33 Sc23 2.105 . S
O33 C27 1.268 . S
O34 Sc24 2.105 . S
O34 C28 1.268 . S
O35 Sc22 2.105 . S
O35 C29 1.268 . S
O36 Sc24 2.105 . S
O36 C30 1.268 . S
O37 Sc23 2.105 . S
O37 C31 1.268 . S
O38 Sc22 2.105 . S
O38 C30 1.268 . S
O39 Sc23 2.105 . S
O39 C29 1.268 . S
O40 Sc24 2.105 . S
O40 C31 1.268 . S
O41 Sc22 2.105 . S
O41 C27 1.268 . S
O42 Sc24 2.105 . S
O42 C26 1.268 . S
O43 Sc23 2.105 . S
O43 C28 1.268 . S
Sc44 O47 2.030 . S
Sc44 O54 2.105 1_554 S
Sc44 O57 2.105 . S
Sc44 O60 2.105 . S
Sc44 O63 2.105 1_554 S
Sc45 O47 2.014 1_556 S
Sc45 O55 2.105 . S
Sc45 O59 2.105 1_556 S
Sc45 O61 2.105 1_556 S
Sc45 O65 2.105 . S
Sc46 O47 2.033 . S
Sc46 O56 2.105 1_554 S
Sc46 O58 2.105 . S
Sc46 O62 2.105 . S
Sc46 O64 2.105 1_554 S
O47 Sc44 2.030 . S
O47 Sc45 2.014 1_554 S
O47 Sc46 2.033 . S
C48 O54 1.268 . S
C48 O64 1.268 . S
C49 O55 1.268 . S
C49 O63 1.268 . S
C50 O56 1.268 . S
C50 O65 1.268 . S
C51 O57 1.268 . S
C51 O61 1.268 . S
C52 O58 1.268 . S
C52 O60 1.268 . S
C53 O59 1.268 . S
C53 O62 1.268 . S
O54 Sc44 2.105 1_556 S
O54 C48 1.268 . S
O55 Sc45 2.105 . S
O55 C49 1.268 . S
O56 Sc46 2.105 1_556 S
O56 C50 1.268 . S
O57 Sc44 2.105 . S
O57 C51 1.268 . S
O58 Sc46 2.105 . S
O58 C52 1.268 . S
O59 Sc45 2.105 1_554 S
O59 C53 1.268 . S
O60 Sc44 2.105 . S
O60 C52 1.268 . S
O61 Sc45 2.105 1_554 S
O61 C51 1.268 . S
O62 Sc46 2.105 . S
O62 C53 1.268 . S
O63 Sc44 2.105 1_556 S
O63 C49 1.268 . S
O64 Sc46 2.105 1_556 S
O64 C48 1.268 . S
O65 Sc45 2.105 . S
O65 C50 1.268 . S
Sc66 O69 2.025 . S
Sc66 O76 2.105 . S
Sc66 O79 2.105 . S
Sc66 O82 2.105 . S
Sc66 O85 2.105 . S
Sc67 O69 2.025 . S
Sc67 O77 2.105 . S
Sc67 O81 2.105 . S
Sc67 O83 2.105 . S
Sc67 O87 2.105 . S
Sc68 O69 2.025 . S
Sc68 O78 2.105 . S
Sc68 O80 2.105 . S
Sc68 O84 2.105 . S
Sc68 O86 2.105 . S
O69 Sc66 2.025 . S
O69 Sc67 2.025 . S
O69 Sc68 2.025 . S
C70 O76 1.268 . S
C70 O86 1.268 . S
C71 O77 1.268 . S
C71 O85 1.268 . S
C72 O78 1.268 . S
C72 O87 1.268 . S
C73 O79 1.268 . S
C73 O83 1.268 . S
C74 O80 1.268 . S
C74 O82 1.268 . S
C75 O81 1.268 . S
C75 O84 1.268 . S
O76 Sc66 2.105 . S
O76 C70 1.268 . S
O77 Sc67 2.105 . S
O77 C71 1.268 . S
O78 Sc68 2.105 . S
O78 C72 1.268 . S
O79 Sc66 2.105 . S
O79 C73 1.268 . S
O80 Sc68 2.105 . S
O80 C74 1.268 . S
O81 Sc67 2.105 . S
O81 C75 1.268 . S
O82 Sc66 2.105 . S
O82 C74 1.268 . S
O83 Sc67 2.105 . S
O83 C73 1.268 . S
O84 Sc68 2.105 . S
O84 C75 1.268 . S
O85 Sc66 2.105 . S
O85 C71 1.268 . S
O86 Sc68 2.105 . S
O86 C70 1.268 . S
O87 Sc67 2.105 . S
O87 C72 1.268 . S
H88 C91 0.931 . S
H89 C94 0.928 . S
H90 C96 0.930 . S
C91 H88 0.931 . S
C91 C92 1.413 . S
C91 C93 1.360 . S
C92 C91 1.413 . S
C92 C96 1.429 . S
C93 C91 1.360 . S
C93 C94 1.372 . S
C94 H89 0.928 . S
C94 C93 1.372 . S
C94 C95 1.404 . S
C95 C94 1.404 . S
C95 C96 1.391 . S
C96 H90 0.930 . S
C96 C92 1.429 . S
C96 C95 1.391 . S
H97 C100 0.931 . S
H98 C103 0.928 . S
H99 C105 0.930 . S
C100 H97 0.931 . S
C100 C101 1.413 . S
C100 C102 1.360 . S
C101 C100 1.413 . S
C101 C105 1.429 . S
C102 C100 1.360 . S
C102 C103 1.372 . S
C103 H98 0.928 . S
C103 C102 1.372 . S
C103 C104 1.404 . S
C104 C103 1.404 . S
C104 C105 1.391 . S
C105 H99 0.930 . S
C105 C101 1.429 . S
C105 C104 1.391 . S
H106 C109 0.931 . S
H107 C112 0.928 . S
H108 C114 0.930 . S
C109 H106 0.931 . S
C109 C110 1.413 . S
C109 C111 1.360 . S
C110 C109 1.413 . S
C110 C114 1.429 . S
C111 C109 1.360 . S
C111 C112 1.372 . S
C112 H107 0.928 . S
C112 C111 1.372 . S
C112 C113 1.404 . S
C113 C112 1.404 . S
C113 C114 1.391 . S
C114 H108 0.930 . S
C114 C110 1.429 . S
C114 C113 1.391 . S
H115 C118 0.931 . S
H116 C121 0.928 . S
H117 C123 0.930 . S
C118 H115 0.931 . S
C118 C119 1.413 . S
C118 C120 1.360 . S
C119 C118 1.413 . S
C119 C123 1.429 . S
C120 C118 1.360 . S
C120 C121 1.372 . S
C121 H116 0.928 . S
C121 C120 1.372 . S
C121 C122 1.404 . S
C122 C121 1.404 . S
C122 C123 1.391 . S
C123 H117 0.930 . S
C123 C119 1.429 . S
C123 C122 1.391 . S
H124 C127 0.931 . S
H125 C130 0.928 . S
H126 C132 0.930 . S
C127 H124 0.931 . S
C127 C128 1.413 . S
C127 C129 1.360 . S
C128 C127 1.413 . S
C128 C132 1.429 . S
C129 C127 1.360 . S
C129 C130 1.372 . S
C130 H125 0.928 . S
C130 C129 1.372 . S
C130 C131 1.404 . S
C131 C130 1.404 . S
C131 C132 1.391 . S
C132 H126 0.930 . S
C132 C128 1.429 . S
C132 C131 1.391 . S
H133 C136 0.931 . S
H134 C139 0.928 . S
H135 C141 0.930 . S
C136 H133 0.931 . S
C136 C137 1.413 . S
C136 C138 1.360 . S
C137 C136 1.413 . S
C137 C141 1.429 . S
C138 C136 1.360 . S
C138 C139 1.372 . S
C139 H134 0.928 . S
C139 C138 1.372 . S
C139 C140 1.404 . S
C140 C139 1.404 . S
C140 C141 1.391 . S
C141 H135 0.930 . S
C141 C137 1.429 . S
C141 C140 1.391 . S
H142 C145 0.931 . S
H143 C148 0.928 . S
H144 C150 0.930 . S
C145 H142 0.931 . S
C145 C146 1.413 . S
C145 C147 1.360 . S
C146 C145 1.413 . S
C146 C150 1.429 . S
C147 C145 1.360 . S
C147 C148 1.372 . S
C148 H143 0.928 . S
C148 C147 1.372 . S
C148 C149 1.404 . S
C149 C148 1.404 . S
C149 C150 1.391 . S
C150 H144 0.930 . S
C150 C146 1.429 . S
C150 C149 1.391 . S
H151 C154 0.931 . S
H152 C157 0.928 . S
H153 C159 0.930 . S
C154 H151 0.931 . S
C154 C155 1.413 . S
C154 C156 1.360 . S
C155 C154 1.413 . S
C155 C159 1.429 . S
C156 C154 1.360 . S
C156 C157 1.372 . S
C157 H152 0.928 . S
C157 C156 1.372 . S
C157 C158 1.404 . S
C158 C157 1.404 . S
C158 C159 1.391 . S
C159 H153 0.930 . S
C159 C155 1.429 . S
C159 C158 1.391 . S
H160 C178 0.951 . S
H161 C180 0.951 . S
H162 C182 0.950 . S
H163 C183 0.950 . S
H164 C185 0.950 . S
H165 C188 0.950 . S
H166 C189 0.950 . S
H167 C191 0.949 . S
H168 C192 0.950 . S
H169 C193 0.951 . S
H170 C195 0.951 . S
H171 C197 0.950 . S
H172 C198 0.950 . S
H173 C200 0.950 . S
H174 C203 0.950 . S
H175 C204 0.950 . S
H176 C206 0.950 . S
H177 C207 0.950 . S
C178 H160 0.951 . S
C178 C179 1.366 . S
C178 C180 1.388 . S
C179 C178 1.366 . S
C179 C183 1.385 . S
C180 H161 0.951 . S
C180 C178 1.388 . S
C180 C181 1.366 . S
C181 C180 1.366 . S
C181 C182 1.414 . S
C181 C184 1.499 . S
C182 H162 0.950 . S
C182 C181 1.414 . S
C182 C183 1.374 . S
C183 H163 0.950 . S
C183 C179 1.385 . S
C183 C182 1.374 . S
C184 C181 1.499 . S
C184 C185 1.373 . S
C184 C186 1.389 . S
C185 H164 0.950 . S
C185 C184 1.373 . S
C185 C201 1.377 . S
C186 C184 1.389 . S
C186 C187 1.524 . S
C186 C200 1.377 1_565 S
C187 C186 1.524 . S
C187 C188 1.397 . S
C187 C192 1.363 . S
C188 H165 0.950 . S
C188 C187 1.397 . S
C188 C189 1.334 . S
C189 H166 0.950 . S
C189 C188 1.334 . S
C189 C190 1.287 . S
C190 C189 1.287 . S
C190 C191 1.524 . S
C190 H209 0.913 1_565 S
C191 H167 0.949 . S
C191 C190 1.524 . S
C191 C192 1.415 . S
C192 H168 0.950 . S
C192 C187 1.363 . S
C192 C191 1.415 . S
C193 H169 0.951 . S
C193 C194 1.366 . S
C193 C195 1.388 . S
C194 C193 1.366 . S
C194 C198 1.385 . S
C195 H170 0.951 . S
C195 C193 1.388 . S
C195 C196 1.366 . S
C196 C195 1.366 . S
C196 C197 1.414 . S
C196 C199 1.499 . S
C197 H171 0.950 . S
C197 C196 1.414 . S
C197 C198 1.374 . S
C198 H172 0.950 . S
C198 C194 1.385 . S
C198 C197 1.374 . S
C199 C196 1.499 . S
C199 C200 1.373 . S
C199 C201 1.389 1_545 S
C200 H173 0.950 . S
C200 C186 1.377 1_545 S
C200 C199 1.373 . S
C201 C185 1.377 . S
C201 C199 1.389 1_565 S
C201 C202 1.524 . S
C202 C201 1.524 . S
C202 C203 1.397 . S
C202 C207 1.363 . S
C203 H174 0.950 . S
C203 C202 1.397 . S
C203 C204 1.334 . S
C204 H175 0.950 . S
C204 C203 1.334 . S
C204 C205 1.287 . S
C205 C204 1.287 . S
C205 C206 1.524 . S
C205 H208 0.999 . S
C206 H176 0.950 . S
C206 C205 1.524 . S
C206 C207 1.415 . S
C207 H177 0.950 . S
C207 C202 1.363 . S
C207 C206 1.415 . S
H208 C205 0.999 . S
H209 C190 0.913 1_545 S
H210 C228 0.951 . S
H211 C230 0.951 . S
H212 C232 0.950 . S
H213 C233 0.950 . S
H214 C235 0.950 . S
H215 C238 0.950 . S
H216 C239 0.950 . S
H217 C241 0.950 . S
H218 C242 0.950 . S
H219 C243 0.951 . S
H220 C245 0.951 . S
H221 C247 0.950 . S
H222 C248 0.950 . S
H223 C250 0.950 . S
H224 C253 0.950 . S
H225 C254 0.950 . S
H226 C256 0.950 . S
H227 C257 0.950 . S
C228 H210 0.951 . S
C228 C229 1.366 . S
C228 C230 1.388 . S
C229 C228 1.366 . S
C229 C233 1.385 . S
C230 H211 0.951 . S
C230 C228 1.388 . S
C230 C231 1.366 . S
C231 C230 1.366 . S
C231 C232 1.414 . S
C231 C234 1.499 . S
C232 H212 0.950 . S
C232 C231 1.414 . S
C232 C233 1.374 . S
C233 H213 0.950 . S
C233 C229 1.385 . S
C233 C232 1.374 . S
C234 C231 1.499 . S
C234 C235 1.373 . S
C234 C236 1.389 . S
C235 H214 0.950 . S
C235 C234 1.373 . S
C235 C251 1.377 . S
C236 C234 1.389 . S
C236 C237 1.524 . S
C236 C250 1.377 . S
C237 C236 1.524 . S
C237 C238 1.397 . S
C237 C242 1.363 . S
C238 H215 0.950 . S
C238 C237 1.397 . S
C238 C239 1.334 . S
C239 H216 0.950 . S
C239 C238 1.334 . S
C239 C240 1.287 . S
C240 C239 1.287 . S
C240 C241 1.524 . S
C240 H259 0.913 . S
C241 H217 0.950 . S
C241 C240 1.524 . S
C241 C242 1.415 . S
C242 H218 0.950 . S
C242 C237 1.363 . S
C242 C241 1.415 . S
C243 H219 0.951 . S
C243 C244 1.366 . S
C243 C245 1.388 . S
C244 C243 1.366 . S
C244 C248 1.385 . S
C245 H220 0.951 . S
C245 C243 1.388 . S
C245 C246 1.366 . S
C246 C245 1.366 . S
C246 C247 1.414 . S
C246 C249 1.499 . S
C247 H221 0.950 . S
C247 C246 1.414 . S
C247 C248 1.374 . S
C248 H222 0.950 . S
C248 C244 1.385 . S
C248 C247 1.374 . S
C249 C246 1.499 . S
C249 C250 1.373 . S
C249 C251 1.389 . S
C250 H223 0.950 . S
C250 C236 1.377 . S
C250 C249 1.373 . S
C251 C235 1.377 . S
C251 C249 1.389 . S
C251 C252 1.524 . S
C252 C251 1.524 . S
C252 C253 1.397 . S
C252 C257 1.363 . S
C253 H224 0.950 . S
C253 C252 1.397 . S
C253 C254 1.334 . S
C254 H225 0.950 . S
C254 C253 1.334 . S
C254 C255 1.287 . S
C255 C254 1.287 . S
C255 C256 1.524 . S
C255 H258 0.999 . S
C256 H226 0.950 . S
C256 C255 1.524 . S
C256 C257 1.415 . S
C257 H227 0.950 . S
C257 C252 1.363 . S
C257 C256 1.415 . S
H258 C255 0.999 . S
H259 C240 0.913 . S
H260 C278 0.951 . S
H261 C280 0.951 . S
H262 C282 0.950 . S
H263 C283 0.950 . S
H264 C285 0.950 . S
H265 C288 0.950 . S
H266 C289 0.950 . S
H267 C291 0.950 . S
H268 C292 0.950 1_565 S
H269 C293 0.951 . S
H270 C295 0.951 . S
H271 C297 0.950 . S
H272 C298 0.950 . S
H273 C300 0.950 . S
H274 C303 0.950 . S
H275 C304 0.950 . S
H276 C306 0.950 . S
H277 C307 0.950 1_545 S
C278 H260 0.951 . S
C278 C279 1.366 . S
C278 C280 1.388 . S
C279 C278 1.366 . S
C279 C283 1.385 . S
C280 H261 0.951 . S
C280 C278 1.388 . S
C280 C281 1.366 . S
C281 C280 1.366 . S
C281 C282 1.414 . S
C281 C284 1.499 . S
C282 H262 0.950 . S
C282 C281 1.414 . S
C282 C283 1.374 . S
C283 H263 0.950 . S
C283 C279 1.385 . S
C283 C282 1.374 . S
C284 C281 1.499 . S
C284 C285 1.373 . S
C284 C286 1.389 . S
C285 H264 0.950 . S
C285 C284 1.373 . S
C285 C301 1.377 1_545 S
C286 C284 1.389 . S
C286 C287 1.524 . S
C286 C300 1.377 1_545 S
C287 C286 1.524 . S
C287 C288 1.397 . S
C287 C292 1.363 . S
C288 H265 0.950 . S
C288 C287 1.397 . S
C288 C289 1.334 . S
C289 H266 0.950 . S
C289 C288 1.334 . S
C289 C290 1.287 . S
C290 C289 1.287 . S
C290 C291 1.524 . S
C290 H309 0.913 . S
C291 H267 0.950 . S
C291 C290 1.524 . S
C291 C292 1.415 . S
C292 H268 0.950 1_545 S
C292 C287 1.363 . S
C292 C291 1.415 . S
C293 H269 0.951 . S
C293 C294 1.366 . S
C293 C295 1.388 . S
C294 C293 1.366 . S
C294 C298 1.385 . S
C295 H270 0.951 . S
C295 C293 1.388 . S
C295 C296 1.366 . S
C296 C295 1.366 . S
C296 C297 1.414 . S
C296 C299 1.499 . S
C297 H271 0.950 . S
C297 C296 1.414 . S
C297 C298 1.374 . S
C298 H272 0.950 . S
C298 C294 1.385 . S
C298 C297 1.374 . S
C299 C296 1.499 . S
C299 C300 1.373 . S
C299 C301 1.389 . S
C300 H273 0.950 . S
C300 C286 1.377 1_565 S
C300 C299 1.373 . S
C301 C285 1.377 1_565 S
C301 C299 1.389 . S
C301 C302 1.524 . S
C302 C301 1.524 . S
C302 C303 1.397 . S
C302 C307 1.363 . S
C303 H274 0.950 . S
C303 C302 1.397 . S
C303 C304 1.334 . S
C304 H275 0.950 . S
C304 C303 1.334 . S
C304 C305 1.287 . S
C305 C304 1.287 . S
C305 C306 1.524 . S
C305 H308 0.999 . S
C306 H276 0.950 . S
C306 C305 1.524 . S
C306 C307 1.415 . S
C307 H277 0.950 1_565 S
C307 C302 1.363 . S
C307 C306 1.415 . S
H308 C305 0.999 . S
H309 C290 0.913 . S
H310 C328 0.951 . S
H311 C330 0.951 . S
H312 C332 0.950 . S
H313 C333 0.950 . S
H314 C335 0.950 . S
H315 C338 0.950 . S
H316 C339 0.950 . S
H317 C341 0.950 . S
H318 C342 0.950 . S
H319 C343 0.951 . S
H320 C345 0.951 . S
H321 C347 0.950 . S
H322 C348 0.950 . S
H323 C350 0.950 . S
H324 C353 0.950 . S
H325 C354 0.950 . S
H326 C356 0.950 . S
H327 C357 0.950 . S
C328 H310 0.951 . S
C328 C329 1.366 . S
C328 C330 1.388 . S
C329 C328 1.366 . S
C329 C333 1.385 . S
C330 H311 0.951 . S
C330 C328 1.388 . S
C330 C331 1.366 . S
C331 C330 1.366 . S
C331 C332 1.414 . S
C331 C334 1.499 . S
C332 H312 0.950 . S
C332 C331 1.414 . S
C332 C333 1.374 . S
C333 H313 0.950 . S
C333 C329 1.385 . S
C333 C332 1.374 . S
C334 C331 1.499 . S
C334 C335 1.373 . S
C334 C336 1.389 . S
C335 H314 0.950 . S
C335 C334 1.373 . S
C335 C351 1.377 . S
C336 C334 1.389 . S
C336 C337 1.524 . S
C336 C350 1.377 . S
C337 C336 1.524 . S
C337 C338 1.397 . S
C337 C342 1.363 . S
C338 H315 0.950 . S
C338 C337 1.397 . S
C338 C339 1.334 . S
C339 H316 0.950 . S
C339 C338 1.334 . S
C339 C340 1.287 . S
C340 C339 1.287 . S
C340 C341 1.524 . S
C340 H359 0.913 . S
C341 H317 0.950 . S
C341 C340 1.524 . S
C341 C342 1.415 . S
C342 H318 0.950 . S
C342 C337 1.363 . S
C342 C341 1.415 . S
C343 H319 0.951 . S
C343 C344 1.366 . S
C343 C345 1.388 . S
C344 C343 1.366 . S
C344 C348 1.385 . S
C345 H320 0.951 . S
C345 C343 1.388 . S
C345 C346 1.366 . S
C346 C345 1.366 . S
C346 C347 1.414 . S
C346 C349 1.499 . S
C347 H321 0.950 . S
C347 C346 1.414 . S
C347 C348 1.374 . S
C348 H322 0.950 . S
C348 C344 1.385 . S
C348 C347 1.374 . S
C349 C346 1.499 . S
C349 C350 1.373 . S
C349 C351 1.389 . S
C350 H323 0.950 . S
C350 C336 1.377 . S
C350 C349 1.373 . S
C351 C335 1.377 . S
C351 C349 1.389 . S
C351 C352 1.524 . S
C352 C351 1.524 . S
C352 C353 1.397 . S
C352 C357 1.363 . S
C353 H324 0.950 . S
C353 C352 1.397 . S
C353 C354 1.334 . S
C354 H325 0.950 . S
C354 C353 1.334 . S
C354 C355 1.287 . S
C355 C354 1.287 . S
C355 C356 1.524 . S
C355 H358 0.999 . S
C356 H326 0.950 . S
C356 C355 1.524 . S
C356 C357 1.415 . S
C357 H327 0.950 . S
C357 C352 1.363 . S
C357 C356 1.415 . S
H358 C355 0.999 . S
H359 C340 0.913 . S
H360 C378 0.951 . S
H361 C380 0.951 . S
H362 C382 0.950 . S
H363 C383 0.950 . S
H364 C385 0.950 . S
H365 C388 0.950 . S
H366 C389 0.950 . S
H367 C391 0.950 . S
H368 C392 0.950 . S
H369 C393 0.951 . S
H370 C395 0.951 . S
H371 C397 0.950 . S
H372 C398 0.950 . S
H373 C400 0.950 . S
H374 C403 0.950 . S
H375 C404 0.950 . S
H376 C406 0.950 . S
H377 C407 0.950 . S
C378 H360 0.951 . S
C378 C379 1.366 . S
C378 C380 1.388 . S
C379 C378 1.366 . S
C379 C383 1.385 . S
C380 H361 0.951 . S
C380 C378 1.388 . S
C380 C381 1.366 . S
C381 C380 1.366 . S
C381 C382 1.414 . S
C381 C384 1.499 . S
C382 H362 0.950 . S
C382 C381 1.414 . S
C382 C383 1.374 . S
C383 H363 0.950 . S
C383 C379 1.385 . S
C383 C382 1.374 . S
C384 C381 1.499 . S
C384 C385 1.373 . S
C384 C386 1.389 . S
C385 H364 0.950 . S
C385 C384 1.373 . S
C385 C401 1.377 . S
C386 C384 1.389 . S
C386 C387 1.524 . S
C386 C400 1.377 . S
C387 C386 1.524 . S
C387 C388 1.397 . S
C387 C392 1.363 . S
C388 H365 0.950 . S
C388 C387 1.397 . S
C388 C389 1.334 . S
C389 H366 0.950 . S
C389 C388 1.334 . S
C389 C390 1.287 . S
C390 C389 1.287 . S
C390 C391 1.524 . S
C390 H409 0.913 . S
C391 H367 0.950 . S
C391 C390 1.524 . S
C391 C392 1.415 . S
C392 H368 0.950 . S
C392 C387 1.363 . S
C392 C391 1.415 . S
C393 H369 0.951 . S
C393 C394 1.366 . S
C393 C395 1.388 . S
C394 C393 1.366 . S
C394 C398 1.385 . S
C395 H370 0.951 . S
C395 C393 1.388 . S
C395 C396 1.366 . S
C396 C395 1.366 . S
C396 C397 1.414 . S
C396 C399 1.499 . S
C397 H371 0.950 . S
C397 C396 1.414 . S
C397 C398 1.374 . S
C398 H372 0.950 . S
C398 C394 1.385 . S
C398 C397 1.374 . S
C399 C396 1.499 . S
C399 C400 1.373 . S
C399 C401 1.389 . S
C400 H373 0.950 . S
C400 C386 1.377 . S
C400 C399 1.373 . S
C401 C385 1.377 . S
C401 C399 1.389 . S
C401 C402 1.524 . S
C402 C401 1.524 . S
C402 C403 1.397 . S
C402 C407 1.363 . S
C403 H374 0.950 . S
C403 C402 1.397 . S
C403 C404 1.334 . S
C404 H375 0.950 . S
C404 C403 1.334 . S
C404 C405 1.287 . S
C405 C404 1.287 . S
C405 C406 1.524 . S
C405 H408 0.999 . S
C406 H376 0.950 . S
C406 C405 1.524 . S
C406 C407 1.415 . S
C407 H377 0.950 . S
C407 C402 1.363 . S
C407 C406 1.415 . S
H408 C405 0.999 . S
H409 C390 0.913 . S
H410 C428 0.951 . S
H411 C430 0.951 . S
H412 C432 0.950 1_455 S
H413 C433 0.950 1_554 S
H414 C435 0.950 . S
H415 C438 0.950 . S
H416 C439 0.950 . S
H417 C441 0.950 . S
H418 C442 0.950 . S
H419 C443 0.951 . S
H420 C445 0.951 . S
H421 C447 0.950 . S
H422 C448 0.950 . S
H423 C450 0.950 . S
H424 C453 0.950 . S
H425 C454 0.950 . S
H426 C456 0.950 . S
H427 C457 0.950 . S
C428 H410 0.951 . S
C428 C429 1.366 . S
C428 C430 1.388 . S
C429 C428 1.366 . S
C429 C433 1.385 . S
C430 H411 0.951 . S
C430 C428 1.388 . S
C430 C431 1.366 1_655 S
C431 C430 1.366 1_455 S
C431 C432 1.414 1_455 S
C431 C434 1.499 . S
C432 H412 0.950 1_655 S
C432 C431 1.414 1_655 S
C432 C433 1.374 . S
C433 H413 0.950 1_556 S
C433 C429 1.385 . S
C433 C432 1.374 . S
C434 C431 1.499 . S
C434 C435 1.373 . S
C434 C436 1.389 . S
C435 H414 0.950 . S
C435 C434 1.373 . S
C435 C451 1.377 . S
C436 C434 1.389 . S
C436 C437 1.524 . S
C436 C450 1.377 . S
C437 C436 1.524 . S
C437 C438 1.397 . S
C437 C442 1.363 . S
C438 H415 0.950 . S
C438 C437 1.397 . S
C438 C439 1.334 1_455 S
C439 H416 0.950 . S
C439 C438 1.334 1_655 S
C439 C440 1.287 . S
C440 C439 1.287 . S
C440 C441 1.524 1_655 S
C440 H459 0.913 . S
C441 H417 0.950 . S
C441 C440 1.524 1_455 S
C441 C442 1.415 . S
C442 H418 0.950 . S
C442 C437 1.363 . S
C442 C441 1.415 . S
C443 H419 0.951 . S
C443 C444 1.366 . S
C443 C445 1.388 . S
C444 C443 1.366 . S
C444 C448 1.385 . S
C445 H420 0.951 . S
C445 C443 1.388 . S
C445 C446 1.366 . S
C446 C445 1.366 . S
C446 C447 1.414 . S
C446 C449 1.499 . S
C447 H421 0.950 . S
C447 C446 1.414 . S
C447 C448 1.374 . S
C448 H422 0.950 . S
C448 C444 1.385 . S
C448 C447 1.374 . S
C449 C446 1.499 . S
C449 C450 1.373 . S
C449 C451 1.389 . S
C450 H423 0.950 . S
C450 C436 1.377 . S
C450 C449 1.373 . S
C451 C435 1.377 . S
C451 C449 1.389 . S
C451 C452 1.524 . S
C452 C451 1.524 . S
C452 C453 1.397 . S
C452 C457 1.363 1_556 S
C453 H424 0.950 . S
C453 C452 1.397 . S
C453 C454 1.334 . S
C454 H425 0.950 . S
C454 C453 1.334 . S
C454 C455 1.287 1_556 S
C455 C454 1.287 1_554 S
C455 C456 1.524 . S
C455 H458 0.999 . S
C456 H426 0.950 . S
C456 C455 1.524 . S
C456 C457 1.415 . S
C457 H427 0.950 . S
C457 C452 1.363 1_554 S
C457 C456 1.415 . S
H458 C455 0.999 . S
H459 C440 0.913 . S
H460 C478 0.951 . S
H461 C480 0.951 . S
H462 C482 0.950 . S
H463 C483 0.950 . S
H464 C485 0.950 . S
H465 C488 0.950 . S
H466 C489 0.950 . S
H467 C491 0.950 . S
H468 C492 0.950 . S
H469 C493 0.951 . S
H470 C495 0.951 . S
H471 C497 0.950 . S
H472 C498 0.950 . S
H473 C500 0.950 . S
H474 C503 0.950 . S
H475 C504 0.950 . S
H476 C506 0.950 . S
H477 C507 0.950 . S
C478 H460 0.951 . S
C478 C479 1.366 . S
C478 C480 1.388 . S
C479 C478 1.366 . S
C479 C483 1.385 . S
C480 H461 0.951 . S
C480 C478 1.388 . S
C480 C481 1.366 . S
C481 C480 1.366 . S
C481 C482 1.414 . S
C481 C484 1.499 . S
C482 H462 0.950 . S
C482 C481 1.414 . S
C482 C483 1.374 . S
C483 H463 0.950 . S
C483 C479 1.385 . S
C483 C482 1.374 . S
C484 C481 1.499 . S
C484 C485 1.373 . S
C484 C486 1.389 . S
C485 H464 0.950 . S
C485 C484 1.373 . S
C485 C501 1.377 . S
C486 C484 1.389 . S
C486 C487 1.524 . S
C486 C500 1.377 . S
C487 C486 1.524 . S
C487 C488 1.397 . S
C487 C492 1.363 . S
C488 H465 0.950 . S
C488 C487 1.397 . S
C488 C489 1.334 . S
C489 H466 0.950 . S
C489 C488 1.334 . S
C489 C490 1.287 . S
C490 C489 1.287 . S
C490 C491 1.524 . S
C490 H509 0.913 . S
C491 H467 0.950 . S
C491 C490 1.524 . S
C491 C492 1.415 . S
C492 H468 0.950 . S
C492 C487 1.363 . S
C492 C491 1.415 . S
C493 H469 0.951 . S
C493 C494 1.366 . S
C493 C495 1.388 . S
C494 C493 1.366 . S
C494 C498 1.385 . S
C495 H470 0.951 . S
C495 C493 1.388 . S
C495 C496 1.366 . S
C496 C495 1.366 . S
C496 C497 1.414 . S
C496 C499 1.499 . S
C497 H471 0.950 . S
C497 C496 1.414 . S
C497 C498 1.374 . S
C498 H472 0.950 . S
C498 C494 1.385 . S
C498 C497 1.374 . S
C499 C496 1.499 . S
C499 C500 1.373 . S
C499 C501 1.389 . S
C500 H473 0.950 . S
C500 C486 1.377 . S
C500 C499 1.373 . S
C501 C485 1.377 . S
C501 C499 1.389 . S
C501 C502 1.524 . S
C502 C501 1.524 . S
C502 C503 1.397 . S
C502 C507 1.363 . S
C503 H474 0.950 . S
C503 C502 1.397 . S
C503 C504 1.334 . S
C504 H475 0.950 . S
C504 C503 1.334 . S
C504 C505 1.287 . S
C505 C504 1.287 . S
C505 C506 1.524 . S
C505 H508 0.999 . S
C506 H476 0.950 . S
C506 C505 1.524 . S
C506 C507 1.415 . S
C507 H477 0.950 . S
C507 C502 1.363 . S
C507 C506 1.415 . S
H508 C505 0.999 . S
H509 C490 0.913 . S
H510 C528 0.951 . S
H511 C530 0.951 . S
H512 C532 0.950 . S
H513 C533 0.950 . S
H514 C535 0.950 . S
H515 C538 0.950 . S
H516 C539 0.950 . S
H517 C541 0.950 . S
H518 C542 0.950 . S
H519 C543 0.951 . S
H520 C545 0.951 . S
H521 C547 0.950 . S
H522 C548 0.950 . S
H523 C550 0.950 . S
H524 C553 0.950 1_455 S
H525 C554 0.950 . S
H526 C556 0.950 . S
H527 C557 0.950 . S
C528 H510 0.951 . S
C528 C529 1.366 . S
C528 C530 1.388 . S
C529 C528 1.366 . S
C529 C533 1.385 . S
C530 H511 0.951 . S
C530 C528 1.388 . S
C530 C531 1.366 . S
C531 C530 1.366 . S
C531 C532 1.414 . S
C531 C534 1.499 . S
C532 H512 0.950 . S
C532 C531 1.414 . S
C532 C533 1.374 . S
C533 H513 0.950 . S
C533 C529 1.385 . S
C533 C532 1.374 . S
C534 C531 1.499 . S
C534 C535 1.373 . S
C534 C536 1.389 . S
C535 H514 0.950 . S
C535 C534 1.373 . S
C535 C551 1.377 . S
C536 C534 1.389 . S
C536 C537 1.524 . S
C536 C550 1.377 . S
C537 C536 1.524 . S
C537 C538 1.397 . S
C537 C542 1.363 . S
C538 H515 0.950 . S
C538 C537 1.397 . S
C538 C539 1.334 . S
C539 H516 0.950 . S
C539 C538 1.334 . S
C539 C540 1.287 . S
C540 C539 1.287 . S
C540 C541 1.524 . S
C540 H559 0.913 . S
C541 H517 0.950 . S
C541 C540 1.524 . S
C541 C542 1.415 . S
C542 H518 0.950 . S
C542 C537 1.363 . S
C542 C541 1.415 . S
C543 H519 0.951 . S
C543 C544 1.366 . S
C543 C545 1.388 . S
C544 C543 1.366 . S
C544 C548 1.385 1_655 S
C545 H520 0.951 . S
C545 C543 1.388 . S
C545 C546 1.366 1_655 S
C546 C545 1.366 1_455 S
C546 C547 1.414 . S
C546 C549 1.499 . S
C547 H521 0.950 . S
C547 C546 1.414 . S
C547 C548 1.374 . S
C548 H522 0.950 . S
C548 C544 1.385 1_455 S
C548 C547 1.374 . S
C549 C546 1.499 . S
C549 C550 1.373 . S
C549 C551 1.389 . S
C550 H523 0.950 . S
C550 C536 1.377 . S
C550 C549 1.373 . S
C551 C535 1.377 . S
C551 C549 1.389 . S
C551 C552 1.524 1_455 S
C552 C551 1.524 1_655 S
C552 C553 1.397 . S
C552 C557 1.363 . S
C553 H524 0.950 1_655 S
C553 C552 1.397 . S
C553 C554 1.334 . S
C554 H525 0.950 . S
C554 C553 1.334 . S
C554 C555 1.287 . S
C555 C554 1.287 . S
C555 C556 1.524 . S
C555 H558 0.999 . S
C556 H526 0.950 . S
C556 C555 1.524 . S
C556 C557 1.415 . S
C557 H527 0.950 . S
C557 C552 1.363 . S
C557 C556 1.415 . S
H558 C555 0.999 . S
H559 C540 0.913 . S
H560 C578 0.951 . S
H561 C580 0.951 . S
H562 C582 0.950 . S
H563 C583 0.950 . S
H564 C585 0.950 . S
H565 C588 0.950 . S
H566 C589 0.950 . S
H567 C591 0.950 . S
H568 C592 0.950 . S
H569 C593 0.951 . S
H570 C595 0.951 . S
H571 C597 0.950 . S
H572 C598 0.950 . S
H573 C600 0.950 . S
H574 C603 0.950 . S
H575 C604 0.950 . S
H576 C606 0.950 . S
H577 C607 0.950 . S
C578 H560 0.951 . S
C578 C579 1.366 . S
C578 C580 1.388 . S
C579 C578 1.366 . S
C579 C583 1.385 . S
C580 H561 0.951 . S
C580 C578 1.388 . S
C580 C581 1.366 . S
C581 C580 1.366 . S
C581 C582 1.414 . S
C581 C584 1.499 . S
C582 H562 0.950 . S
C582 C581 1.414 . S
C582 C583 1.374 . S
C583 H563 0.950 . S
C583 C579 1.385 . S
C583 C582 1.374 . S
C584 C581 1.499 . S
C584 C585 1.373 . S
C584 C586 1.389 . S
C585 H564 0.950 . S
C585 C584 1.373 . S
C585 C601 1.377 1_545 S
C586 C584 1.389 . S
C586 C587 1.524 . S
C586 C600 1.377 . S
C587 C586 1.524 . S
C587 C588 1.397 . S
C587 C592 1.363 . S
C588 H565 0.950 . S
C588 C587 1.397 . S
C588 C589 1.334 . S
C589 H566 0.950 . S
C589 C588 1.334 . S
C589 C590 1.287 . S
C590 C589 1.287 . S
C590 C591 1.524 . S
C590 H609 0.913 . S
C591 H567 0.950 . S
C591 C590 1.524 . S
C591 C592 1.415 . S
C592 H568 0.950 . S
C592 C587 1.363 . S
C592 C591 1.415 . S
C593 H569 0.951 . S
C593 C594 1.366 . S
C593 C595 1.388 . S
C594 C593 1.366 . S
C594 C598 1.385 . S
C595 H570 0.951 . S
C595 C593 1.388 . S
C595 C596 1.366 . S
C596 C595 1.366 . S
C596 C597 1.414 . S
C596 C599 1.499 . S
C597 H571 0.950 . S
C597 C596 1.414 . S
C597 C598 1.374 . S
C598 H572 0.950 . S
C598 C594 1.385 . S
C598 C597 1.374 . S
C599 C596 1.499 . S
C599 C600 1.373 1_565 S
C599 C601 1.389 . S
C600 H573 0.950 . S
C600 C586 1.377 . S
C600 C599 1.373 1_545 S
C601 C585 1.377 1_565 S
C601 C599 1.389 . S
C601 C602 1.524 . S
C602 C601 1.524 . S
C602 C603 1.397 . S
C602 C607 1.363 . S
C603 H574 0.950 . S
C603 C602 1.397 . S
C603 C604 1.334 . S
C604 H575 0.950 . S
C604 C603 1.334 . S
C604 C605 1.287 . S
C605 C604 1.287 . S
C605 C606 1.524 . S
C605 H608 0.999 . S
C606 H576 0.950 . S
C606 C605 1.524 . S
C606 C607 1.415 . S
C607 H577 0.950 . S
C607 C602 1.363 . S
C607 C606 1.415 . S
H608 C605 0.999 . S
H609 C590 0.913 . S
H610 C628 0.951 . S
H611 C630 0.951 . S
H612 C632 0.950 . S
H613 C633 0.950 . S
H614 C635 0.950 . S
H615 C638 0.950 . S
H616 C639 0.950 . S
H617 C641 0.950 . S
H618 C642 0.950 . S
H619 C643 0.951 . S
H620 C645 0.951 . S
H621 C647 0.950 . S
H622 C648 0.950 . S
H623 C650 0.950 . S
H624 C653 0.950 . S
H625 C654 0.950 . S
H626 C656 0.950 . S
H627 C657 0.950 . S
C628 H610 0.951 . S
C628 C629 1.366 . S
C628 C630 1.388 . S
C629 C628 1.366 . S
C629 C633 1.385 . S
C630 H611 0.951 . S
C630 C628 1.388 . S
C630 C631 1.366 . S
C631 C630 1.366 . S
C631 C632 1.414 . S
C631 C634 1.499 . S
C632 H612 0.950 . S
C632 C631 1.414 . S
C632 C633 1.374 . S
C633 H613 0.950 . S
C633 C629 1.385 . S
C633 C632 1.374 . S
C634 C631 1.499 . S
C634 C635 1.373 . S
C634 C636 1.389 . S
C635 H614 0.950 . S
C635 C634 1.373 . S
C635 C651 1.377 . S
C636 C634 1.389 . S
C636 C637 1.524 . S
C636 C650 1.377 . S
C637 C636 1.524 . S
C637 C638 1.397 . S
C637 C642 1.363 . S
C638 H615 0.950 . S
C638 C637 1.397 . S
C638 C639 1.334 . S
C639 H616 0.950 . S
C639 C638 1.334 . S
C639 C640 1.287 . S
C640 C639 1.287 . S
C640 C641 1.524 . S
C640 H659 0.913 . S
C641 H617 0.950 . S
C641 C640 1.524 . S
C641 C642 1.415 . S
C642 H618 0.950 . S
C642 C637 1.363 . S
C642 C641 1.415 . S
C643 H619 0.951 . S
C643 C644 1.366 . S
C643 C645 1.388 . S
C644 C643 1.366 . S
C644 C648 1.385 . S
C645 H620 0.951 . S
C645 C643 1.388 . S
C645 C646 1.366 . S
C646 C645 1.366 . S
C646 C647 1.414 . S
C646 C649 1.499 . S
C647 H621 0.950 . S
C647 C646 1.414 . S
C647 C648 1.374 . S
C648 H622 0.950 . S
C648 C644 1.385 . S
C648 C647 1.374 . S
C649 C646 1.499 . S
C649 C650 1.373 . S
C649 C651 1.389 . S
C650 H623 0.950 . S
C650 C636 1.377 . S
C650 C649 1.373 . S
C651 C635 1.377 . S
C651 C649 1.389 . S
C651 C652 1.524 . S
C652 C651 1.524 . S
C652 C653 1.397 . S
C652 C657 1.363 . S
C653 H624 0.950 . S
C653 C652 1.397 . S
C653 C654 1.334 . S
C654 H625 0.950 . S
C654 C653 1.334 . S
C654 C655 1.287 . S
C655 C654 1.287 . S
C655 C656 1.524 . S
C655 H658 0.999 . S
C656 H626 0.950 . S
C656 C655 1.524 . S
C656 C657 1.415 . S
C657 H627 0.950 . S
C657 C652 1.363 . S
C657 C656 1.415 . S
H658 C655 0.999 . S
H659 C640 0.913 . S
H660 C678 0.951 . S
H661 C680 0.951 . S
H662 C682 0.950 . S
H663 C683 0.950 . S
H664 C685 0.950 1_554 S
H665 C688 0.950 . S
H666 C689 0.950 . S
H667 C691 0.950 . S
H668 C692 0.950 . S
H669 C693 0.951 . S
H670 C695 0.951 . S
H671 C697 0.950 . S
H672 C698 0.950 . S
H673 C700 0.950 . S
H674 C703 0.950 1_556 S
H675 C704 0.950 . S
H676 C706 0.950 . S
H677 C707 0.950 . S
C678 H660 0.951 . S
C678 C679 1.366 1_556 S
C678 C680 1.388 . S
C679 C678 1.366 1_554 S
C679 C683 1.385 . S
C680 H661 0.951 . S
C680 C678 1.388 . S
C680 C681 1.366 . S
C681 C680 1.366 . S
C681 C682 1.414 . S
C681 C684 1.499 . S
C682 H662 0.950 . S
C682 C681 1.414 . S
C682 C683 1.374 1_556 S
C683 H663 0.950 . S
C683 C679 1.385 . S
C683 C682 1.374 1_554 S
C684 C681 1.499 . S
C684 C685 1.373 . S
C684 C686 1.389 . S
C685 H664 0.950 1_556 S
C685 C684 1.373 . S
C685 C701 1.377 1_565 S
C686 C684 1.389 . S
C686 C687 1.524 . S
C686 C700 1.377 1_565 S
C687 C686 1.524 . S
C687 C688 1.397 . S
C687 C692 1.363 . S
C688 H665 0.950 . S
C688 C687 1.397 . S
C688 C689 1.334 . S
C689 H666 0.950 . S
C689 C688 1.334 . S
C689 C690 1.287 . S
C690 C689 1.287 . S
C690 C691 1.524 . S
C690 H709 0.913 . S
C691 H667 0.950 . S
C691 C690 1.524 . S
C691 C692 1.415 . S
C692 H668 0.950 . S
C692 C687 1.363 . S
C692 C691 1.415 . S
C693 H669 0.951 . S
C693 C694 1.366 . S
C693 C695 1.388 . S
C694 C693 1.366 . S
C694 C698 1.385 . S
C695 H670 0.951 . S
C695 C693 1.388 . S
C695 C696 1.366 . S
C696 C695 1.366 . S
C696 C697 1.414 . S
C696 C699 1.499 . S
C697 H671 0.950 . S
C697 C696 1.414 . S
C697 C698 1.374 . S
C698 H672 0.950 . S
C698 C694 1.385 . S
C698 C697 1.374 . S
C699 C696 1.499 . S
C699 C700 1.373 . S
C699 C701 1.389 . S
C700 H673 0.950 . S
C700 C686 1.377 1_545 S
C700 C699 1.373 . S
C701 C685 1.377 1_545 S
C701 C699 1.389 . S
C701 C702 1.524 . S
C702 C701 1.524 . S
C702 C703 1.397 1_556 S
C702 C707 1.363 1_556 S
C703 H674 0.950 1_554 S
C703 C702 1.397 1_554 S
C703 C704 1.334 . S
C704 H675 0.950 . S
C704 C703 1.334 . S
C704 C705 1.287 . S
C705 C704 1.287 . S
C705 C706 1.524 . S
C705 H708 0.999 . S
C706 H676 0.950 . S
C706 C705 1.524 . S
C706 C707 1.415 . S
C707 H677 0.950 . S
C707 C702 1.363 1_554 S
C707 C706 1.415 . S
H708 C705 0.999 . S
H709 C690 0.913 . S
H710 C728 0.951 . S
H711 C730 0.951 . S
H712 C732 0.950 . S
H713 C733 0.950 . S
H714 C735 0.950 . S
H715 C738 0.950 . S
H716 C739 0.950 . S
H717 C741 0.950 . S
H718 C742 0.950 . S
H719 C743 0.951 . S
H720 C745 0.951 . S
H721 C747 0.950 . S
H722 C748 0.950 . S
H723 C750 0.950 . S
H724 C753 0.950 . S
H725 C754 0.950 . S
H726 C756 0.950 . S
H727 C757 0.950 . S
C728 H710 0.951 . S
C728 C729 1.366 . S
C728 C730 1.388 . S
C729 C728 1.366 . S
C729 C733 1.385 . S
C730 H711 0.951 . S
C730 C728 1.388 . S
C730 C731 1.366 . S
C731 C730 1.366 . S
C731 C732 1.414 . S
C731 C734 1.499 . S
C732 H712 0.950 . S
C732 C731 1.414 . S
C732 C733 1.374 . S
C733 H713 0.950 . S
C733 C729 1.385 . S
C733 C732 1.374 . S
C734 C731 1.499 . S
C734 C735 1.373 . S
C734 C736 1.389 . S
C735 H714 0.950 . S
C735 C734 1.373 . S
C735 C751 1.377 . S
C736 C734 1.389 . S
C736 C737 1.524 . S
C736 C750 1.377 . S
C737 C736 1.524 . S
C737 C738 1.397 . S
C737 C742 1.363 . S
C738 H715 0.950 . S
C738 C737 1.397 . S
C738 C739 1.334 . S
C739 H716 0.950 . S
C739 C738 1.334 . S
C739 C740 1.287 . S
C740 C739 1.287 . S
C740 C741 1.524 . S
C740 H759 0.913 . S
C741 H717 0.950 . S
C741 C740 1.524 . S
C741 C742 1.415 . S
C742 H718 0.950 . S
C742 C737 1.363 . S
C742 C741 1.415 . S
C743 H719 0.951 . S
C743 C744 1.366 . S
C743 C745 1.388 . S
C744 C743 1.366 . S
C744 C748 1.385 . S
C745 H720 0.951 . S
C745 C743 1.388 . S
C745 C746 1.366 . S
C746 C745 1.366 . S
C746 C747 1.414 . S
C746 C749 1.499 . S
C747 H721 0.950 . S
C747 C746 1.414 . S
C747 C748 1.374 . S
C748 H722 0.950 . S
C748 C744 1.385 . S
C748 C747 1.374 . S
C749 C746 1.499 . S
C749 C750 1.373 . S
C749 C751 1.389 . S
C750 H723 0.950 . S
C750 C736 1.377 . S
C750 C749 1.373 . S
C751 C735 1.377 . S
C751 C749 1.389 . S
C751 C752 1.524 . S
C752 C751 1.524 . S
C752 C753 1.397 . S
C752 C757 1.363 . S
C753 H724 0.950 . S
C753 C752 1.397 . S
C753 C754 1.334 . S
C754 H725 0.950 . S
C754 C753 1.334 . S
C754 C755 1.287 . S
C755 C754 1.287 . S
C755 C756 1.524 . S
C755 H758 0.999 . S
C756 H726 0.950 . S
C756 C755 1.524 . S
C756 C757 1.415 . S
C757 H727 0.950 . S
C757 C752 1.363 . S
C757 C756 1.415 . S
H758 C755 0.999 . S
H759 C740 0.913 . S
H760 C778 0.951 . S
H761 C780 0.951 . S
H762 C782 0.950 . S
H763 C783 0.950 . S
H764 C785 0.950 . S
H765 C788 0.950 . S
H766 C789 0.950 . S
H767 C791 0.950 . S
H768 C792 0.950 . S
H769 C793 0.951 . S
H770 C795 0.951 . S
H771 C797 0.950 . S
H772 C798 0.950 . S
H773 C800 0.950 . S
H774 C803 0.950 . S
H775 C804 0.950 . S
H776 C806 0.950 . S
H777 C807 0.950 . S
C778 H760 0.951 . S
C778 C779 1.366 . S
C778 C780 1.388 . S
C779 C778 1.366 . S
C779 C783 1.385 . S
C780 H761 0.951 . S
C780 C778 1.388 . S
C780 C781 1.366 . S
C781 C780 1.366 . S
C781 C782 1.414 . S
C781 C784 1.499 . S
C782 H762 0.950 . S
C782 C781 1.414 . S
C782 C783 1.374 . S
C783 H763 0.950 . S
C783 C779 1.385 . S
C783 C782 1.374 . S
C784 C781 1.499 . S
C784 C785 1.373 . S
C784 C786 1.389 . S
C785 H764 0.950 . S
C785 C784 1.373 . S
C785 C801 1.377 . S
C786 C784 1.389 . S
C786 C787 1.524 . S
C786 C800 1.377 . S
C787 C786 1.524 . S
C787 C788 1.397 . S
C787 C792 1.363 . S
C788 H765 0.950 . S
C788 C787 1.397 . S
C788 C789 1.334 . S
C789 H766 0.950 . S
C789 C788 1.334 . S
C789 C790 1.287 . S
C790 C789 1.287 . S
C790 C791 1.524 . S
C790 H809 0.913 . S
C791 H767 0.950 . S
C791 C790 1.524 . S
C791 C792 1.415 . S
C792 H768 0.950 . S
C792 C787 1.363 . S
C792 C791 1.415 . S
C793 H769 0.951 . S
C793 C794 1.366 . S
C793 C795 1.388 . S
C794 C793 1.366 . S
C794 C798 1.385 . S
C795 H770 0.951 . S
C795 C793 1.388 . S
C795 C796 1.366 . S
C796 C795 1.366 . S
C796 C797 1.414 . S
C796 C799 1.499 . S
C797 H771 0.950 . S
C797 C796 1.414 . S
C797 C798 1.374 . S
C798 H772 0.950 . S
C798 C794 1.385 . S
C798 C797 1.374 . S
C799 C796 1.499 . S
C799 C800 1.373 . S
C799 C801 1.389 . S
C800 H773 0.950 . S
C800 C786 1.377 . S
C800 C799 1.373 . S
C801 C785 1.377 . S
C801 C799 1.389 . S
C801 C802 1.524 . S
C802 C801 1.524 . S
C802 C803 1.397 . S
C802 C807 1.363 . S
C803 H774 0.950 . S
C803 C802 1.397 . S
C803 C804 1.334 . S
C804 H775 0.950 . S
C804 C803 1.334 . S
C804 C805 1.287 . S
C805 C804 1.287 . S
C805 C806 1.524 . S
C805 H808 0.999 . S
C806 H776 0.950 . S
C806 C805 1.524 . S
C806 C807 1.415 . S
C807 H777 0.950 . S
C807 C802 1.363 . S
C807 C806 1.415 . S
H808 C805 0.999 . S
H809 C790 0.913 . S
H810 C828 0.951 . S
H811 C830 0.951 1_655 S
H812 C832 0.950 . S
H813 C833 0.950 . S
H814 C835 0.950 . S
H815 C838 0.950 . S
H816 C839 0.950 . S
H817 C841 0.950 1_556 S
H818 C842 0.950 . S
H819 C843 0.951 . S
H820 C845 0.951 . S
H821 C847 0.950 . S
H822 C848 0.950 . S
H823 C850 0.950 . S
H824 C853 0.950 . S
H825 C854 0.950 . S
H826 C856 0.950 . S
H827 C857 0.950 . S
C828 H810 0.951 . S
C828 C829 1.366 . S
C828 C830 1.388 . S
C829 C828 1.366 . S
C829 C833 1.385 . S
C830 H811 0.951 1_455 S
C830 C828 1.388 . S
C830 C831 1.366 1_455 S
C831 C830 1.366 1_655 S
C831 C832 1.414 1_655 S
C831 C834 1.499 . S
C832 H812 0.950 . S
C832 C831 1.414 1_455 S
C832 C833 1.374 . S
C833 H813 0.950 . S
C833 C829 1.385 . S
C833 C832 1.374 . S
C834 C831 1.499 . S
C834 C835 1.373 . S
C834 C836 1.389 . S
C835 H814 0.950 . S
C835 C834 1.373 . S
C835 C851 1.377 . S
C836 C834 1.389 . S
C836 C837 1.524 . S
C836 C850 1.377 . S
C837 C836 1.524 . S
C837 C838 1.397 . S
C837 C842 1.363 . S
C838 H815 0.950 . S
C838 C837 1.397 . S
C838 C839 1.334 . S
C839 H816 0.950 . S
C839 C838 1.334 . S
C839 C840 1.287 . S
C840 C839 1.287 . S
C840 C841 1.524 . S
C840 H859 0.913 1_554 S
C841 H817 0.950 1_554 S
C841 C840 1.524 . S
C841 C842 1.415 . S
C842 H818 0.950 . S
C842 C837 1.363 . S
C842 C841 1.415 . S
C843 H819 0.951 . S
C843 C844 1.366 . S
C843 C845 1.388 . S
C844 C843 1.366 . S
C844 C848 1.385 . S
C845 H820 0.951 . S
C845 C843 1.388 . S
C845 C846 1.366 . S
C846 C845 1.366 . S
C846 C847 1.414 . S
C846 C849 1.499 . S
C847 H821 0.950 . S
C847 C846 1.414 . S
C847 C848 1.374 . S
C848 H822 0.950 . S
C848 C844 1.385 . S
C848 C847 1.374 . S
C849 C846 1.499 . S
C849 C850 1.373 . S
C849 C851 1.389 . S
C850 H823 0.950 . S
C850 C836 1.377 . S
C850 C849 1.373 . S
C851 C835 1.377 . S
C851 C849 1.389 . S
C851 C852 1.524 . S
C852 C851 1.524 . S
C852 C853 1.397 . S
C852 C857 1.363 . S
C853 H824 0.950 . S
C853 C852 1.397 . S
C853 C854 1.334 . S
C854 H825 0.950 . S
C854 C853 1.334 . S
C854 C855 1.287 . S
C855 C854 1.287 . S
C855 C856 1.524 . S
C855 H858 0.999 . S
C856 H826 0.950 . S
C856 C855 1.524 . S
C856 C857 1.415 . S
C857 H827 0.950 . S
C857 C852 1.363 . S
C857 C856 1.415 . S
H858 C855 0.999 . S
H859 C840 0.913 1_556 S
H860 C878 0.951 . S
H861 C880 0.951 . S
H862 C882 0.950 . S
H863 C883 0.950 . S
H864 C885 0.950 . S
H865 C888 0.950 . S
H866 C889 0.950 . S
H867 C891 0.950 . S
H868 C892 0.950 . S
H869 C893 0.951 . S
H870 C895 0.951 . S
H871 C897 0.950 . S
H872 C898 0.950 . S
H873 C900 0.950 . S
H874 C903 0.950 . S
H875 C904 0.950 . S
H876 C906 0.950 . S
H877 C907 0.950 . S
C878 H860 0.951 . S
C878 C879 1.366 . S
C878 C880 1.388 . S
C879 C878 1.366 . S
C879 C883 1.385 . S
C880 H861 0.951 . S
C880 C878 1.388 . S
C880 C881 1.366 . S
C881 C880 1.366 . S
C881 C882 1.414 . S
C881 C884 1.499 . S
C882 H862 0.950 . S
C882 C881 1.414 . S
C882 C883 1.374 . S
C883 H863 0.950 . S
C883 C879 1.385 . S
C883 C882 1.374 . S
C884 C881 1.499 . S
C884 C885 1.373 . S
C884 C886 1.389 . S
C885 H864 0.950 . S
C885 C884 1.373 . S
C885 C901 1.377 . S
C886 C884 1.389 . S
C886 C887 1.524 . S
C886 C900 1.377 . S
C887 C886 1.524 . S
C887 C888 1.397 . S
C887 C892 1.363 . S
C888 H865 0.950 . S
C888 C887 1.397 . S
C888 C889 1.334 . S
C889 H866 0.950 . S
C889 C888 1.334 . S
C889 C890 1.287 . S
C890 C889 1.287 . S
C890 C891 1.524 . S
C890 H909 0.913 . S
C891 H867 0.950 . S
C891 C890 1.524 . S
C891 C892 1.415 . S
C892 H868 0.950 . S
C892 C887 1.363 . S
C892 C891 1.415 . S
C893 H869 0.951 . S
C893 C894 1.366 . S
C893 C895 1.388 . S
C894 C893 1.366 . S
C894 C898 1.385 . S
C895 H870 0.951 . S
C895 C893 1.388 . S
C895 C896 1.366 . S
C896 C895 1.366 . S
C896 C897 1.414 . S
C896 C899 1.499 . S
C897 H871 0.950 . S
C897 C896 1.414 . S
C897 C898 1.374 . S
C898 H872 0.950 . S
C898 C894 1.385 . S
C898 C897 1.374 . S
C899 C896 1.499 . S
C899 C900 1.373 . S
C899 C901 1.389 . S
C900 H873 0.950 . S
C900 C886 1.377 . S
C900 C899 1.373 . S
C901 C885 1.377 . S
C901 C899 1.389 . S
C901 C902 1.524 . S
C902 C901 1.524 . S
C902 C903 1.397 . S
C902 C907 1.363 . S
C903 H874 0.950 . S
C903 C902 1.397 . S
C903 C904 1.334 . S
C904 H875 0.950 . S
C904 C903 1.334 . S
C904 C905 1.287 . S
C905 C904 1.287 . S
C905 C906 1.524 . S
C905 H908 0.999 . S
C906 H876 0.950 . S
C906 C905 1.524 . S
C906 C907 1.415 . S
C907 H877 0.950 . S
C907 C902 1.363 . S
C907 C906 1.415 . S
H908 C905 0.999 . S
H909 C890 0.913 . S
H910 C928 0.951 . S
H911 C930 0.951 . S
H912 C932 0.950 . S
H913 C933 0.950 . S
H914 C935 0.950 . S
H915 C938 0.950 . S
H916 C939 0.950 . S
H917 C941 0.950 . S
H918 C942 0.950 . S
H919 C943 0.951 . S
H920 C945 0.951 . S
H921 C947 0.950 . S
H922 C948 0.950 . S
H923 C950 0.950 . S
H924 C953 0.950 . S
H925 C954 0.950 . S
H926 C956 0.950 . S
H927 C957 0.950 . S
C928 H910 0.951 . S
C928 C929 1.366 . S
C928 C930 1.388 . S
C929 C928 1.366 . S
C929 C933 1.385 . S
C930 H911 0.951 . S
C930 C928 1.388 . S
C930 C931 1.366 . S
C931 C930 1.366 . S
C931 C932 1.414 . S
C931 C934 1.499 . S
C932 H912 0.950 . S
C932 C931 1.414 . S
C932 C933 1.374 . S
C933 H913 0.950 . S
C933 C929 1.385 . S
C933 C932 1.374 . S
C934 C931 1.499 . S
C934 C935 1.373 . S
C934 C936 1.389 . S
C935 H914 0.950 . S
C935 C934 1.373 . S
C935 C951 1.377 . S
C936 C934 1.389 . S
C936 C937 1.524 . S
C936 C950 1.377 . S
C937 C936 1.524 . S
C937 C938 1.397 . S
C937 C942 1.363 . S
C938 H915 0.950 . S
C938 C937 1.397 . S
C938 C939 1.334 . S
C939 H916 0.950 . S
C939 C938 1.334 . S
C939 C940 1.287 . S
C940 C939 1.287 . S
C940 C941 1.524 . S
C940 H959 0.913 . S
C941 H917 0.950 . S
C941 C940 1.524 . S
C941 C942 1.415 . S
C942 H918 0.950 . S
C942 C937 1.363 . S
C942 C941 1.415 . S
C943 H919 0.951 . S
C943 C944 1.366 . S
C943 C945 1.388 . S
C944 C943 1.366 . S
C944 C948 1.385 . S
C945 H920 0.951 . S
C945 C943 1.388 . S
C945 C946 1.366 1_455 S
C946 C945 1.366 1_655 S
C946 C947 1.414 . S
C946 C949 1.499 . S
C947 H921 0.950 . S
C947 C946 1.414 . S
C947 C948 1.374 1_655 S
C948 H922 0.950 . S
C948 C944 1.385 . S
C948 C947 1.374 1_455 S
C949 C946 1.499 . S
C949 C950 1.373 . S
C949 C951 1.389 . S
C950 H923 0.950 . S
C950 C936 1.377 . S
C950 C949 1.373 . S
C951 C935 1.377 . S
C951 C949 1.389 . S
C951 C952 1.524 . S
C952 C951 1.524 . S
C952 C953 1.397 . S
C952 C957 1.363 . S
C953 H924 0.950 . S
C953 C952 1.397 . S
C953 C954 1.334 . S
C954 H925 0.950 . S
C954 C953 1.334 . S
C954 C955 1.287 . S
C955 C954 1.287 . S
C955 C956 1.524 . S
C955 H958 0.999 . S
C956 H926 0.950 . S
C956 C955 1.524 . S
C956 C957 1.415 . S
C957 H927 0.950 . S
C957 C952 1.363 . S
C957 C956 1.415 . S
H958 C955 0.999 . S
H959 C940 0.913 . S
H960 C978 0.951 . S
H961 C980 0.951 . S
H962 C982 0.950 . S
H963 C983 0.950 . S
H964 C985 0.950 . S
H965 C988 0.950 . S
H966 C989 0.950 . S
H967 C991 0.950 . S
H968 C992 0.950 . S
H969 C993 0.951 . S
H970 C995 0.951 . S
H971 C997 0.950 . S
H972 C998 0.950 . S
H973 C1000 0.950 . S
H974 C1003 0.950 . S
H975 C1004 0.950 . S
H976 C1006 0.950 . S
H977 C1007 0.950 . S
C978 H960 0.951 . S
C978 C979 1.366 . S
C978 C980 1.388 . S
C979 C978 1.366 . S
C979 C983 1.385 . S
C980 H961 0.951 . S
C980 C978 1.388 . S
C980 C981 1.366 . S
C981 C980 1.366 . S
C981 C982 1.414 . S
C981 C984 1.499 . S
C982 H962 0.950 . S
C982 C981 1.414 . S
C982 C983 1.374 . S
C983 H963 0.950 . S
C983 C979 1.385 . S
C983 C982 1.374 . S
C984 C981 1.499 . S
C984 C985 1.373 . S
C984 C986 1.389 . S
C985 H964 0.950 . S
C985 C984 1.373 . S
C985 C1001 1.377 . S
C986 C984 1.389 . S
C986 C987 1.524 . S
C986 C1000 1.377 . S
C987 C986 1.524 . S
C987 C988 1.397 . S
C987 C992 1.363 . S
C988 H965 0.950 . S
C988 C987 1.397 . S
C988 C989 1.334 . S
C989 H966 0.950 . S
C989 C988 1.334 . S
C989 C990 1.287 . S
C990 C989 1.287 . S
C990 C991 1.524 . S
C990 H1009 0.913 . S
C991 H967 0.950 . S
C991 C990 1.524 . S
C991 C992 1.415 . S
C992 H968 0.950 . S
C992 C987 1.363 . S
C992 C991 1.415 . S
C993 H969 0.951 . S
C993 C994 1.366 . S
C993 C995 1.388 . S
C994 C993 1.366 . S
C994 C998 1.385 . S
C995 H970 0.951 . S
C995 C993 1.388 . S
C995 C996 1.366 . S
C996 C995 1.366 . S
C996 C997 1.414 . S
C996 C999 1.499 . S
C997 H971 0.950 . S
C997 C996 1.414 . S
C997 C998 1.374 . S
C998 H972 0.950 . S
C998 C994 1.385 . S
C998 C997 1.374 . S
C999 C996 1.499 . S
C999 C1000 1.373 . S
C999 C1001 1.389 . S
C1000 H973 0.950 . S
C1000 C986 1.377 . S
C1000 C999 1.373 . S
C1001 C985 1.377 . S
C1001 C999 1.389 . S
C1001 C1002 1.524 . S
C1002 C1001 1.524 . S
C1002 C1003 1.397 . S
C1002 C1007 1.363 . S
C1003 H974 0.950 . S
C1003 C1002 1.397 . S
C1003 C1004 1.334 . S
C1004 H975 0.950 . S
C1004 C1003 1.334 . S
C1004 C1005 1.287 . S
C1005 C1004 1.287 . S
C1005 C1006 1.524 . S
C1005 H1008 0.999 . S
C1006 H976 0.950 . S
C1006 C1005 1.524 . S
C1006 C1007 1.415 . S
C1007 H977 0.950 . S
C1007 C1002 1.363 . S
C1007 C1006 1.415 . S
H1008 C1005 0.999 . S
H1009 C990 0.913 . S
H1010 C1028 0.951 . S
H1011 C1030 0.951 . S
H1012 C1032 0.950 . S
H1013 C1033 0.950 . S
H1014 C1035 0.950 . S
H1015 C1038 0.950 . S
H1016 C1039 0.950 . S
H1017 C1041 0.950 . S
H1018 C1042 0.950 . S
H1019 C1043 0.951 . S
H1020 C1045 0.951 . S
H1021 C1047 0.950 . S
H1022 C1048 0.950 . S
H1023 C1050 0.950 . S
H1024 C1053 0.950 . S
H1025 C1054 0.950 . S
H1026 C1056 0.950 . S
H1027 C1057 0.950 . S
C1028 H1010 0.951 . S
C1028 C1029 1.366 . S
C1028 C1030 1.388 . S
C1029 C1028 1.366 . S
C1029 C1033 1.385 . S
C1030 H1011 0.951 . S
C1030 C1028 1.388 . S
C1030 C1031 1.366 . S
C1031 C1030 1.366 . S
C1031 C1032 1.414 . S
C1031 C1034 1.499 . S
C1032 H1012 0.950 . S
C1032 C1031 1.414 . S
C1032 C1033 1.374 . S
C1033 H1013 0.950 . S
C1033 C1029 1.385 . S
C1033 C1032 1.374 . S
C1034 C1031 1.499 . S
C1034 C1035 1.373 . S
C1034 C1036 1.389 . S
C1035 H1014 0.950 . S
C1035 C1034 1.373 . S
C1035 C1051 1.377 . S
C1036 C1034 1.389 . S
C1036 C1037 1.524 . S
C1036 C1050 1.377 . S
C1037 C1036 1.524 . S
C1037 C1038 1.397 . S
C1037 C1042 1.363 . S
C1038 H1015 0.950 . S
C1038 C1037 1.397 . S
C1038 C1039 1.334 . S
C1039 H1016 0.950 . S
C1039 C1038 1.334 . S
C1039 C1040 1.287 . S
C1040 C1039 1.287 . S
C1040 C1041 1.524 . S
C1040 H1059 0.913 . S
C1041 H1017 0.950 . S
C1041 C1040 1.524 . S
C1041 C1042 1.415 . S
C1042 H1018 0.950 . S
C1042 C1037 1.363 . S
C1042 C1041 1.415 . S
C1043 H1019 0.951 . S
C1043 C1044 1.366 . S
C1043 C1045 1.388 . S
C1044 C1043 1.366 . S
C1044 C1048 1.385 . S
C1045 H1020 0.951 . S
C1045 C1043 1.388 . S
C1045 C1046 1.366 . S
C1046 C1045 1.366 . S
C1046 C1047 1.414 . S
C1046 C1049 1.499 . S
C1047 H1021 0.950 . S
C1047 C1046 1.414 . S
C1047 C1048 1.374 . S
C1048 H1022 0.950 . S
C1048 C1044 1.385 . S
C1048 C1047 1.374 . S
C1049 C1046 1.499 . S
C1049 C1050 1.373 . S
C1049 C1051 1.389 . S
C1050 H1023 0.950 . S
C1050 C1036 1.377 . S
C1050 C1049 1.373 . S
C1051 C1035 1.377 . S
C1051 C1049 1.389 . S
C1051 C1052 1.524 . S
C1052 C1051 1.524 . S
C1052 C1053 1.397 . S
C1052 C1057 1.363 . S
C1053 H1024 0.950 . S
C1053 C1052 1.397 . S
C1053 C1054 1.334 . S
C1054 H1025 0.950 . S
C1054 C1053 1.334 . S
C1054 C1055 1.287 . S
C1055 C1054 1.287 . S
C1055 C1056 1.524 . S
C1055 H1058 0.999 . S
C1056 H1026 0.950 . S
C1056 C1055 1.524 . S
C1056 C1057 1.415 . S
C1057 H1027 0.950 . S
C1057 C1052 1.363 . S
C1057 C1056 1.415 . S
H1058 C1055 0.999 . S
H1059 C1040 0.913 . S
H1060 C1078 0.951 . S
H1061 C1080 0.951 . S
H1062 C1082 0.950 . S
H1063 C1083 0.950 . S
H1064 C1085 0.950 . S
H1065 C1088 0.950 . S
H1066 C1089 0.950 . S
H1067 C1091 0.950 1_556 S
H1068 C1092 0.950 . S
H1069 C1093 0.951 . S
H1070 C1095 0.951 . S
H1071 C1097 0.950 . S
H1072 C1098 0.950 . S
H1073 C1100 0.950 . S
H1074 C1103 0.950 . S
H1075 C1104 0.950 . S
H1076 C1106 0.950 . S
H1077 C1107 0.950 . S
C1078 H1060 0.951 . S
C1078 C1079 1.366 . S
C1078 C1080 1.388 . S
C1079 C1078 1.366 . S
C1079 C1083 1.385 . S
C1080 H1061 0.951 . S
C1080 C1078 1.388 . S
C1080 C1081 1.366 . S
C1081 C1080 1.366 . S
C1081 C1082 1.414 . S
C1081 C1084 1.499 . S
C1082 H1062 0.950 . S
C1082 C1081 1.414 . S
C1082 C1083 1.374 . S
C1083 H1063 0.950 . S
C1083 C1079 1.385 . S
C1083 C1082 1.374 . S
C1084 C1081 1.499 . S
C1084 C1085 1.373 . S
C1084 C1086 1.389 . S
C1085 H1064 0.950 . S
C1085 C1084 1.373 . S
C1085 C1101 1.377 . S
C1086 C1084 1.389 . S
C1086 C1087 1.524 . S
C1086 C1100 1.377 . S
C1087 C1086 1.524 . S
C1087 C1088 1.397 . S
C1087 C1092 1.363 . S
C1088 H1065 0.950 . S
C1088 C1087 1.397 . S
C1088 C1089 1.334 . S
C1089 H1066 0.950 . S
C1089 C1088 1.334 . S
C1089 C1090 1.287 . S
C1090 C1089 1.287 . S
C1090 C1091 1.524 . S
C1090 H1109 0.913 1_554 S
C1091 H1067 0.950 1_554 S
C1091 C1090 1.524 . S
C1091 C1092 1.415 . S
C1092 H1068 0.950 . S
C1092 C1087 1.363 . S
C1092 C1091 1.415 . S
C1093 H1069 0.951 . S
C1093 C1094 1.366 . S
C1093 C1095 1.388 . S
C1094 C1093 1.366 . S
C1094 C1098 1.385 . S
C1095 H1070 0.951 . S
C1095 C1093 1.388 . S
C1095 C1096 1.366 . S
C1096 C1095 1.366 . S
C1096 C1097 1.414 . S
C1096 C1099 1.499 . S
C1097 H1071 0.950 . S
C1097 C1096 1.414 . S
C1097 C1098 1.374 . S
C1098 H1072 0.950 . S
C1098 C1094 1.385 . S
C1098 C1097 1.374 . S
C1099 C1096 1.499 . S
C1099 C1100 1.373 . S
C1099 C1101 1.389 . S
C1100 H1073 0.950 . S
C1100 C1086 1.377 . S
C1100 C1099 1.373 . S
C1101 C1085 1.377 . S
C1101 C1099 1.389 . S
C1101 C1102 1.524 . S
C1102 C1101 1.524 . S
C1102 C1103 1.397 . S
C1102 C1107 1.363 . S
C1103 H1074 0.950 . S
C1103 C1102 1.397 . S
C1103 C1104 1.334 . S
C1104 H1075 0.950 . S
C1104 C1103 1.334 . S
C1104 C1105 1.287 . S
C1105 C1104 1.287 . S
C1105 C1106 1.524 . S
C1105 H1108 0.999 . S
C1106 H1076 0.950 . S
C1106 C1105 1.524 . S
C1106 C1107 1.415 . S
C1107 H1077 0.950 . S
C1107 C1102 1.363 . S
C1107 C1106 1.415 . S
H1108 C1105 0.999 . S
H1109 C1090 0.913 1_556 S
H1110 C1128 0.951 . S
H1111 C1130 0.951 . S
H1112 C1132 0.950 . S
H1113 C1133 0.950 . S
H1114 C1135 0.950 . S
H1115 C1138 0.950 . S
H1116 C1139 0.950 . S
H1117 C1141 0.950 . S
H1118 C1142 0.950 . S
H1119 C1143 0.951 . S
H1120 C1145 0.951 . S
H1121 C1147 0.950 . S
H1122 C1148 0.950 . S
H1123 C1150 0.950 . S
H1124 C1153 0.950 . S
H1125 C1154 0.950 . S
H1126 C1156 0.950 . S
H1127 C1157 0.950 . S
C1128 H1110 0.951 . S
C1128 C1129 1.366 . S
C1128 C1130 1.388 . S
C1129 C1128 1.366 . S
C1129 C1133 1.385 . S
C1130 H1111 0.951 . S
C1130 C1128 1.388 . S
C1130 C1131 1.366 . S
C1131 C1130 1.366 . S
C1131 C1132 1.414 . S
C1131 C1134 1.499 . S
C1132 H1112 0.950 . S
C1132 C1131 1.414 . S
C1132 C1133 1.374 . S
C1133 H1113 0.950 . S
C1133 C1129 1.385 . S
C1133 C1132 1.374 . S
C1134 C1131 1.499 . S
C1134 C1135 1.373 . S
C1134 C1136 1.389 . S
C1135 H1114 0.950 . S
C1135 C1134 1.373 . S
C1135 C1151 1.377 . S
C1136 C1134 1.389 . S
C1136 C1137 1.524 . S
C1136 C1150 1.377 . S
C1137 C1136 1.524 . S
C1137 C1138 1.397 . S
C1137 C1142 1.363 . S
C1138 H1115 0.950 . S
C1138 C1137 1.397 . S
C1138 C1139 1.334 . S
C1139 H1116 0.950 . S
C1139 C1138 1.334 . S
C1139 C1140 1.287 . S
C1140 C1139 1.287 . S
C1140 C1141 1.524 . S
C1140 H1159 0.913 . S
C1141 H1117 0.950 . S
C1141 C1140 1.524 . S
C1141 C1142 1.415 . S
C1142 H1118 0.950 . S
C1142 C1137 1.363 . S
C1142 C1141 1.415 . S
C1143 H1119 0.951 . S
C1143 C1144 1.366 . S
C1143 C1145 1.388 . S
C1144 C1143 1.366 . S
C1144 C1148 1.385 . S
C1145 H1120 0.951 . S
C1145 C1143 1.388 . S
C1145 C1146 1.366 . S
C1146 C1145 1.366 . S
C1146 C1147 1.414 . S
C1146 C1149 1.499 . S
C1147 H1121 0.950 . S
C1147 C1146 1.414 . S
C1147 C1148 1.374 . S
C1148 H1122 0.950 . S
C1148 C1144 1.385 . S
C1148 C1147 1.374 . S
C1149 C1146 1.499 . S
C1149 C1150 1.373 . S
C1149 C1151 1.389 . S
C1150 H1123 0.950 . S
C1150 C1136 1.377 . S
C1150 C1149 1.373 . S
C1151 C1135 1.377 . S
C1151 C1149 1.389 . S
C1151 C1152 1.524 . S
C1152 C1151 1.524 . S
C1152 C1153 1.397 . S
C1152 C1157 1.363 . S
C1153 H1124 0.950 . S
C1153 C1152 1.397 . S
C1153 C1154 1.334 . S
C1154 H1125 0.950 . S
C1154 C1153 1.334 . S
C1154 C1155 1.287 . S
C1155 C1154 1.287 . S
C1155 C1156 1.524 . S
C1155 H1158 0.999 . S
C1156 H1126 0.950 . S
C1156 C1155 1.524 . S
C1156 C1157 1.415 . S
C1157 H1127 0.950 . S
C1157 C1152 1.363 . S
C1157 C1156 1.415 . S
H1158 C1155 0.999 . S
H1159 C1140 0.913 . S
H1160 C1178 0.951 . S
H1161 C1180 0.951 . S
H1162 C1182 0.950 . S
H1163 C1183 0.950 . S
H1164 C1185 0.950 . S
H1165 C1188 0.950 . S
H1166 C1189 0.950 . S
H1167 C1191 0.950 . S
H1168 C1192 0.950 . S
H1169 C1193 0.951 . S
H1170 C1195 0.951 . S
H1171 C1197 0.950 . S
H1172 C1198 0.950 . S
H1173 C1200 0.950 . S
H1174 C1203 0.950 . S
H1175 C1204 0.950 . S
H1176 C1206 0.950 . S
H1177 C1207 0.950 . S
C1178 H1160 0.951 . S
C1178 C1179 1.366 . S
C1178 C1180 1.388 . S
C1179 C1178 1.366 . S
C1179 C1183 1.385 . S
C1180 H1161 0.951 . S
C1180 C1178 1.388 . S
C1180 C1181 1.366 . S
C1181 C1180 1.366 . S
C1181 C1182 1.414 . S
C1181 C1184 1.499 . S
C1182 H1162 0.950 . S
C1182 C1181 1.414 . S
C1182 C1183 1.374 . S
C1183 H1163 0.950 . S
C1183 C1179 1.385 . S
C1183 C1182 1.374 . S
C1184 C1181 1.499 . S
C1184 C1185 1.373 . S
C1184 C1186 1.389 . S
C1185 H1164 0.950 . S
C1185 C1184 1.373 . S
C1185 C1201 1.377 . S
C1186 C1184 1.389 . S
C1186 C1187 1.524 . S
C1186 C1200 1.377 . S
C1187 C1186 1.524 . S
C1187 C1188 1.397 . S
C1187 C1192 1.363 . S
C1188 H1165 0.950 . S
C1188 C1187 1.397 . S
C1188 C1189 1.334 . S
C1189 H1166 0.950 . S
C1189 C1188 1.334 . S
C1189 C1190 1.287 . S
C1190 C1189 1.287 . S
C1190 C1191 1.524 . S
C1190 H1209 0.913 . S
C1191 H1167 0.950 . S
C1191 C1190 1.524 . S
C1191 C1192 1.415 . S
C1192 H1168 0.950 . S
C1192 C1187 1.363 . S
C1192 C1191 1.415 . S
C1193 H1169 0.951 . S
C1193 C1194 1.366 . S
C1193 C1195 1.388 . S
C1194 C1193 1.366 . S
C1194 C1198 1.385 . S
C1195 H1170 0.951 . S
C1195 C1193 1.388 . S
C1195 C1196 1.366 . S
C1196 C1195 1.366 . S
C1196 C1197 1.414 . S
C1196 C1199 1.499 . S
C1197 H1171 0.950 . S
C1197 C1196 1.414 . S
C1197 C1198 1.374 . S
C1198 H1172 0.950 . S
C1198 C1194 1.385 . S
C1198 C1197 1.374 . S
C1199 C1196 1.499 . S
C1199 C1200 1.373 . S
C1199 C1201 1.389 . S
C1200 H1173 0.950 . S
C1200 C1186 1.377 . S
C1200 C1199 1.373 . S
C1201 C1185 1.377 . S
C1201 C1199 1.389 . S
C1201 C1202 1.524 . S
C1202 C1201 1.524 . S
C1202 C1203 1.397 . S
C1202 C1207 1.363 . S
C1203 H1174 0.950 . S
C1203 C1202 1.397 . S
C1203 C1204 1.334 . S
C1204 H1175 0.950 . S
C1204 C1203 1.334 . S
C1204 C1205 1.287 . S
C1205 C1204 1.287 . S
C1205 C1206 1.524 . S
C1205 H1208 0.999 . S
C1206 H1176 0.950 . S
C1206 C1205 1.524 . S
C1206 C1207 1.415 . S
C1207 H1177 0.950 . S
C1207 C1202 1.363 . S
C1207 C1206 1.415 . S
H1208 C1205 0.999 . S
H1209 C1190 0.913 . S
H1210 C1228 0.951 . S
H1211 C1230 0.951 . S
H1212 C1232 0.950 . S
H1213 C1233 0.950 . S
H1214 C1235 0.950 . S
H1215 C1238 0.950 . S
H1216 C1239 0.950 . S
H1217 C1241 0.950 . S
H1218 C1242 0.950 . S
H1219 C1243 0.951 . S
H1220 C1245 0.951 . S
H1221 C1247 0.950 . S
H1222 C1248 0.950 . S
H1223 C1250 0.950 . S
H1224 C1253 0.950 . S
H1225 C1254 0.950 . S
H1226 C1256 0.950 . S
H1227 C1257 0.950 . S
C1228 H1210 0.951 . S
C1228 C1229 1.366 . S
C1228 C1230 1.388 . S
C1229 C1228 1.366 . S
C1229 C1233 1.385 . S
C1230 H1211 0.951 . S
C1230 C1228 1.388 . S
C1230 C1231 1.366 . S
C1231 C1230 1.366 . S
C1231 C1232 1.414 . S
C1231 C1234 1.499 . S
C1232 H1212 0.950 . S
C1232 C1231 1.414 . S
C1232 C1233 1.374 . S
C1233 H1213 0.950 . S
C1233 C1229 1.385 . S
C1233 C1232 1.374 . S
C1234 C1231 1.499 . S
C1234 C1235 1.373 . S
C1234 C1236 1.389 . S
C1235 H1214 0.950 . S
C1235 C1234 1.373 . S
C1235 C1251 1.377 . S
C1236 C1234 1.389 . S
C1236 C1237 1.524 . S
C1236 C1250 1.377 . S
C1237 C1236 1.524 . S
C1237 C1238 1.397 . S
C1237 C1242 1.363 . S
C1238 H1215 0.950 . S
C1238 C1237 1.397 . S
C1238 C1239 1.334 . S
C1239 H1216 0.950 . S
C1239 C1238 1.334 . S
C1239 C1240 1.287 . S
C1240 C1239 1.287 . S
C1240 C1241 1.524 . S
C1240 H1259 0.913 . S
C1241 H1217 0.950 . S
C1241 C1240 1.524 . S
C1241 C1242 1.415 . S
C1242 H1218 0.950 . S
C1242 C1237 1.363 . S
C1242 C1241 1.415 . S
C1243 H1219 0.951 . S
C1243 C1244 1.366 . S
C1243 C1245 1.388 . S
C1244 C1243 1.366 . S
C1244 C1248 1.385 . S
C1245 H1220 0.951 . S
C1245 C1243 1.388 . S
C1245 C1246 1.366 . S
C1246 C1245 1.366 . S
C1246 C1247 1.414 . S
C1246 C1249 1.499 . S
C1247 H1221 0.950 . S
C1247 C1246 1.414 . S
C1247 C1248 1.374 . S
C1248 H1222 0.950 . S
C1248 C1244 1.385 . S
C1248 C1247 1.374 . S
C1249 C1246 1.499 . S
C1249 C1250 1.373 . S
C1249 C1251 1.389 . S
C1250 H1223 0.950 . S
C1250 C1236 1.377 . S
C1250 C1249 1.373 . S
C1251 C1235 1.377 . S
C1251 C1249 1.389 . S
C1251 C1252 1.524 . S
C1252 C1251 1.524 . S
C1252 C1253 1.397 . S
C1252 C1257 1.363 . S
C1253 H1224 0.950 . S
C1253 C1252 1.397 . S
C1253 C1254 1.334 . S
C1254 H1225 0.950 . S
C1254 C1253 1.334 . S
C1254 C1255 1.287 . S
C1255 C1254 1.287 . S
C1255 C1256 1.524 . S
C1255 H1258 0.999 . S
C1256 H1226 0.950 . S
C1256 C1255 1.524 . S
C1256 C1257 1.415 . S
C1257 H1227 0.950 . S
C1257 C1252 1.363 . S
C1257 C1256 1.415 . S
H1258 C1255 0.999 . S
H1259 C1240 0.913 . S
H1260 C1278 0.951 . S
H1261 C1280 0.951 . S
H1262 C1282 0.950 . S
H1263 C1283 0.950 . S
H1264 C1285 0.950 . S
H1265 C1288 0.950 . S
H1266 C1289 0.950 . S
H1267 C1291 0.950 . S
H1268 C1292 0.950 . S
H1269 C1293 0.951 . S
H1270 C1295 0.951 . S
H1271 C1297 0.950 . S
H1272 C1298 0.950 . S
H1273 C1300 0.950 . S
H1274 C1303 0.950 . S
H1275 C1304 0.950 . S
H1276 C1306 0.950 . S
H1277 C1307 0.950 . S
C1278 H1260 0.951 . S
C1278 C1279 1.366 . S
C1278 C1280 1.388 . S
C1279 C1278 1.366 . S
C1279 C1283 1.385 . S
C1280 H1261 0.951 . S
C1280 C1278 1.388 . S
C1280 C1281 1.366 . S
C1281 C1280 1.366 . S
C1281 C1282 1.414 . S
C1281 C1284 1.499 . S
C1282 H1262 0.950 . S
C1282 C1281 1.414 . S
C1282 C1283 1.374 . S
C1283 H1263 0.950 . S
C1283 C1279 1.385 . S
C1283 C1282 1.374 . S
C1284 C1281 1.499 . S
C1284 C1285 1.373 . S
C1284 C1286 1.389 . S
C1285 H1264 0.950 . S
C1285 C1284 1.373 . S
C1285 C1301 1.377 . S
C1286 C1284 1.389 . S
C1286 C1287 1.524 . S
C1286 C1300 1.377 . S
C1287 C1286 1.524 . S
C1287 C1288 1.397 . S
C1287 C1292 1.363 . S
C1288 H1265 0.950 . S
C1288 C1287 1.397 . S
C1288 C1289 1.334 . S
C1289 H1266 0.950 . S
C1289 C1288 1.334 . S
C1289 C1290 1.287 . S
C1290 C1289 1.287 . S
C1290 C1291 1.524 . S
C1290 H1309 0.913 . S
C1291 H1267 0.950 . S
C1291 C1290 1.524 . S
C1291 C1292 1.415 . S
C1292 H1268 0.950 . S
C1292 C1287 1.363 . S
C1292 C1291 1.415 . S
C1293 H1269 0.951 . S
C1293 C1294 1.366 . S
C1293 C1295 1.388 . S
C1294 C1293 1.366 . S
C1294 C1298 1.385 . S
C1295 H1270 0.951 . S
C1295 C1293 1.388 . S
C1295 C1296 1.366 . S
C1296 C1295 1.366 . S
C1296 C1297 1.414 . S
C1296 C1299 1.499 . S
C1297 H1271 0.950 . S
C1297 C1296 1.414 . S
C1297 C1298 1.374 . S
C1298 H1272 0.950 . S
C1298 C1294 1.385 . S
C1298 C1297 1.374 . S
C1299 C1296 1.499 . S
C1299 C1300 1.373 . S
C1299 C1301 1.389 . S
C1300 H1273 0.950 . S
C1300 C1286 1.377 . S
C1300 C1299 1.373 . S
C1301 C1285 1.377 . S
C1301 C1299 1.389 . S
C1301 C1302 1.524 . S
C1302 C1301 1.524 . S
C1302 C1303 1.397 . S
C1302 C1307 1.363 . S
C1303 H1274 0.950 . S
C1303 C1302 1.397 . S
C1303 C1304 1.334 . S
C1304 H1275 0.950 . S
C1304 C1303 1.334 . S
C1304 C1305 1.287 . S
C1305 C1304 1.287 . S
C1305 C1306 1.524 . S
C1305 H1308 0.999 . S
C1306 H1276 0.950 . S
C1306 C1305 1.524 . S
C1306 C1307 1.415 . S
C1307 H1277 0.950 . S
C1307 C1302 1.363 . S
C1307 C1306 1.415 . S
H1308 C1305 0.999 . S
H1309 C1290 0.913 . S
H1310 C1328 0.951 . S
H1311 C1330 0.961 . S
H1312 C1332 0.950 . S
H1313 C1333 0.950 . S
H1314 C1335 0.950 . S
H1315 C1338 0.950 . S
H1316 C1339 0.950 . S
H1317 C1341 0.950 . S
H1318 C1342 0.950 . S
H1319 C1343 0.951 . S
H1320 C1345 0.951 . S
H1321 C1347 0.950 . S
H1322 C1348 0.950 . S
H1323 C1350 0.950 . S
H1324 C1353 0.950 . S
H1325 C1354 0.950 . S
H1326 C1356 0.950 . S
H1327 C1357 0.950 . S
C1328 H1310 0.951 . S
C1328 C1329 1.366 1_554 S
C1328 C1330 1.388 1_554 S
C1329 C1328 1.366 1_556 S
C1329 C1333 1.385 . S
C1330 H1311 0.961 . S
C1330 C1328 1.388 1_556 S
C1330 C1331 1.366 . S
C1331 C1330 1.366 . S
C1331 C1332 1.414 . S
C1331 C1334 1.499 . S
C1332 H1312 0.950 . S
C1332 C1331 1.414 . S
C1332 C1333 1.374 . S
C1333 H1313 0.950 . S
C1333 C1329 1.385 . S
C1333 C1332 1.374 . S
C1334 C1331 1.499 . S
C1334 C1335 1.373 . S
C1334 C1336 1.389 . S
C1335 H1314 0.950 . S
C1335 C1334 1.373 . S
C1335 C1351 1.377 . S
C1336 C1334 1.389 . S
C1336 C1337 1.524 . S
C1336 C1350 1.377 . S
C1337 C1336 1.524 . S
C1337 C1338 1.397 . S
C1337 C1342 1.363 1_556 S
C1338 H1315 0.950 . S
C1338 C1337 1.397 . S
C1338 C1339 1.334 1_556 S
C1339 H1316 0.950 . S
C1339 C1338 1.334 1_554 S
C1339 C1340 1.287 . S
C1340 C1339 1.287 . S
C1340 C1341 1.524 . S
C1340 H1359 0.913 . S
C1341 H1317 0.950 . S
C1341 C1340 1.524 . S
C1341 C1342 1.415 . S
C1342 H1318 0.950 . S
C1342 C1337 1.363 1_554 S
C1342 C1341 1.415 . S
C1343 H1319 0.951 . S
C1343 C1344 1.366 . S
C1343 C1345 1.388 . S
C1344 C1343 1.366 . S
C1344 C1348 1.385 . S
C1345 H1320 0.951 . S
C1345 C1343 1.388 . S
C1345 C1346 1.366 . S
C1346 C1345 1.366 . S
C1346 C1347 1.414 . S
C1346 C1349 1.499 . S
C1347 H1321 0.950 . S
C1347 C1346 1.414 . S
C1347 C1348 1.374 . S
C1348 H1322 0.950 . S
C1348 C1344 1.385 . S
C1348 C1347 1.374 . S
C1349 C1346 1.499 . S
C1349 C1350 1.373 . S
C1349 C1351 1.389 . S
C1350 H1323 0.950 . S
C1350 C1336 1.377 . S
C1350 C1349 1.373 . S
C1351 C1335 1.377 . S
C1351 C1349 1.389 . S
C1351 C1352 1.524 . S
C1352 C1351 1.524 . S
C1352 C1353 1.397 . S
C1352 C1357 1.363 . S
C1353 H1324 0.950 . S
C1353 C1352 1.397 . S
C1353 C1354 1.334 . S
C1354 H1325 0.950 . S
C1354 C1353 1.334 . S
C1354 C1355 1.287 . S
C1355 C1354 1.287 . S
C1355 C1356 1.524 . S
C1355 H1358 0.999 . S
C1356 H1326 0.950 . S
C1356 C1355 1.524 . S
C1356 C1357 1.415 . S
C1357 H1327 0.950 . S
C1357 C1352 1.363 . S
C1357 C1356 1.415 . S
H1358 C1355 0.999 . S
H1359 C1340 0.913 . S
C179 C8 1.306 . S
C194 C93 1.307 . S
C229 C31 1.090 . S
C244 C101 1.085 . S
C279 C53 1.306 . S
C294 C110 1.298 . S
C344 C120 1.275 . S
C329 C74 1.256 . S
C394 C129 1.305 . S
C379 C26 1.302 . S
C429 C48 1.257 . S
C444 C138 1.274 . S
C479 C71 1.303 . S
C494 C146 1.293 . S
C529 C5 1.092 . S
C544 C156 1.090 . S
C579 C50 1.301 . S
C594 C155 1.303 . S
C644 C128 1.087 . S
C629 C70 1.089 . S
C694 C137 1.294 . S
C679 C4 1.305 . S
C729 C28 1.257 . S
C744 C147 1.279 . S
C794 C102 1.300 . S
C779 C73 1.303 . S
C829 C7 1.257 . S
C844 C111 1.278 . S
C894 C119 1.291 . S
C879 C30 1.301 . S
C944 C92 1.085 . S
C929 C52 1.089 . S
C994 C149 1.292 . S
C979 C9 1.309 . S
C1044 C158 1.225 . S
C1029 C29 1.227 . S
C1079 C51 1.225 . S
C1094 C131 1.221 . S
C1144 C140 1.289 . S
C1129 C75 1.312 . S
C1194 C113 1.294 . S
C1179 C27 1.312 . S
C1229 C49 1.308 . S
C1244 C122 1.287 . S
C1294 C95 1.224 . S
C1279 C72 1.227 . S
C1344 C104 1.220 . S
C1329 C6 1.227 1_556 S
