# Generated by pormake.
# Topology pyr, (3,6)-cn, num edge types: 1
# Building blocks:
#     Node 0, Type 0, BuildingBlock: PAMTOO_clean_linker_0, # of connection points: 3
#     Node 1, Type 0, BuildingBlock: PAMTOO_clean_linker_0, # of connection points: 3
#     Node 2, Type 0, BuildingBlock: PAMTOO_clean_linker_0, # of connection points: 3
#     Node 3, Type 0, BuildingBlock: PAMTOO_clean_linker_0, # of connection points: 3
#     Node 4, Type 0, BuildingBlock: PAMTOO_clean_linker_0, # of connection points: 3
#     Node 5, Type 0, BuildingBlock: PAMTOO_clean_linker_0, # of connection points: 3
#     Node 6, Type 0, BuildingBlock: PAMTOO_clean_linker_0, # of connection points: 3
#     Node 7, Type 0, BuildingBlock: PAMTOO_clean_linker_0, # of connection points: 3
#     Node 8, Type 1, BuildingBlock: PAMTOO_clean_sbu_0, # of connection points: 6
#     Node 9, Type 1, BuildingBlock: PAMTOO_clean_sbu_0, # of connection points: 6
#     Node 10, Type 1, BuildingBlock: PAMTOO_clean_sbu_0, # of connection points: 6
#     Node 11, Type 1, BuildingBlock: PAMTOO_clean_sbu_0, # of connection points: 6
#     Edge 12, Type (0, 1), BuildingBlock: XIVTED_clean_linker_0, # of connection points: 2
#     Edge 13, Type (0, 1), BuildingBlock: XIVTED_clean_linker_0, # of connection points: 2
#     Edge 14, Type (0, 1), BuildingBlock: XIVTED_clean_linker_0, # of connection points: 2
#     Edge 15, Type (0, 1), BuildingBlock: XIVTED_clean_linker_0, # of connection points: 2
#     Edge 16, Type (0, 1), BuildingBlock: XIVTED_clean_linker_0, # of connection points: 2
#     Edge 17, Type (0, 1), BuildingBlock: XIVTED_clean_linker_0, # of connection points: 2
#     Edge 18, Type (0, 1), BuildingBlock: XIVTED_clean_linker_0, # of connection points: 2
#     Edge 19, Type (0, 1), BuildingBlock: XIVTED_clean_linker_0, # of connection points: 2
#     Edge 20, Type (0, 1), BuildingBlock: XIVTED_clean_linker_0, # of connection points: 2
#     Edge 21, Type (0, 1), BuildingBlock: XIVTED_clean_linker_0, # of connection points: 2
#     Edge 22, Type (0, 1), BuildingBlock: XIVTED_clean_linker_0, # of connection points: 2
#     Edge 23, Type (0, 1), BuildingBlock: XIVTED_clean_linker_0, # of connection points: 2
#     Edge 24, Type (0, 1), BuildingBlock: XIVTED_clean_linker_0, # of connection points: 2
#     Edge 25, Type (0, 1), BuildingBlock: XIVTED_clean_linker_0, # of connection points: 2
#     Edge 26, Type (0, 1), BuildingBlock: XIVTED_clean_linker_0, # of connection points: 2
#     Edge 27, Type (0, 1), BuildingBlock: XIVTED_clean_linker_0, # of connection points: 2
#     Edge 28, Type (0, 1), BuildingBlock: XIVTED_clean_linker_0, # of connection points: 2
#     Edge 29, Type (0, 1), BuildingBlock: XIVTED_clean_linker_0, # of connection points: 2
#     Edge 30, Type (0, 1), BuildingBlock: XIVTED_clean_linker_0, # of connection points: 2
#     Edge 31, Type (0, 1), BuildingBlock: XIVTED_clean_linker_0, # of connection points: 2
#     Edge 32, Type (0, 1), BuildingBlock: XIVTED_clean_linker_0, # of connection points: 2
#     Edge 33, Type (0, 1), BuildingBlock: XIVTED_clean_linker_0, # of connection points: 2
#     Edge 34, Type (0, 1), BuildingBlock: XIVTED_clean_linker_0, # of connection points: 2
#     Edge 35, Type (0, 1), BuildingBlock: XIVTED_clean_linker_0, # of connection points: 2
# Relax obj value: 0.163
# Max RMSD: 0.265
# Mean RMSD: 0.143
data_MOF--net-pyr--node1-PAMTOO_clean_sbu_0--node2-PAMTOO_clean_linker_0--edge1-XIVTED_clean_linker_0
_symmetry_space_group_name_H-M    P1
_symmetry_Int_Tables_number       1
_symmetry_cell_setting            triclinic
loop_
_symmetry_equiv_pos_as_xyz
'x, y, z'
_cell_length_a     36.594932
_cell_length_b     39.961703
_cell_length_c     38.642263
_cell_angle_alpha  91.000897
_cell_angle_beta   89.952945
_cell_angle_gamma 107.99354
loop_
_atom_site_label
_atom_site_type_symbol
_atom_site_fract_x
_atom_site_fract_y
_atom_site_fract_z
_atom_type_partial_charge
H0 H 0.31106 0.30522 0.28282 0.0
H1 H 0.40331 0.26171 0.2632 0.0
H2 H 0.3705 0.32217 0.18557 0.0
H3 H 0.4084 0.27458 0.14743 0.0
C4 C 0.40057 0.26002 0.17194 0.0
O5 O 0.4139 0.28332 0.19938 0.0
H6 H 0.36858 0.24916 0.17206 0.0
C7 C 0.33428 0.3028 0.26657 0.0
C8 C 0.33817 0.31664 0.23315 0.0
C9 C 0.35795 0.2834 0.27818 0.0
C10 C 0.38538 0.27735 0.2554 0.0
C11 C 0.38968 0.29134 0.22215 0.0
C12 C 0.36699 0.31181 0.21151 0.0
H13 H 0.18475 0.83338 0.74277 0.0
H14 H 0.14255 0.75587 0.66157 0.0
H15 H 0.23731 0.75217 0.72498 0.0
H16 H 0.22171 0.76053 0.63348 0.0
C17 C 0.21274 0.73186 0.63911 0.0
O18 O 0.19472 0.72476 0.67087 0.0
H19 H 0.1917 0.71859 0.61861 0.0
C20 C 0.18513 0.80952 0.72919 0.0
C21 C 0.21321 0.79378 0.73787 0.0
C22 C 0.15952 0.79634 0.7016 0.0
C23 C 0.16143 0.76615 0.68344 0.0
C24 C 0.18975 0.75059 0.69161 0.0
C25 C 0.21508 0.76395 0.71923 0.0
H26 H 0.71664 0.32453 0.93159 0.0
H27 H 0.63112 0.30617 0.8511 0.0
H28 H 0.7235 0.4039 0.85598 0.0
H29 H 0.64147 0.40508 0.84461 0.0
C30 C 0.63495 0.38584 0.82251 0.0
O31 O 0.66174 0.3678 0.82163 0.0
H32 H 0.60596 0.36686 0.82678 0.0
C33 C 0.70537 0.33321 0.90865 0.0
C34 C 0.7245 0.36659 0.89558 0.0
C35 C 0.67198 0.31085 0.8929 0.0
C36 C 0.65668 0.32302 0.86391 0.0
C37 C 0.67516 0.35676 0.85071 0.0
C38 C 0.70893 0.3784 0.86671 0.0
H39 H 0.87738 0.7316 0.4429 0.0
H40 H 0.8663 0.65 0.36574 0.0
H41 H 0.96331 0.74409 0.36398 0.0
H42 H 0.92908 0.71305 0.29321 0.0
C43 C 0.91942 0.68481 0.30031 0.0
O44 O 0.93055 0.68182 0.33406 0.0
H45 H 0.88751 0.67529 0.29827 0.0
C46 C 0.888 0.7216 0.42005 0.0
C47 C 0.92272 0.742 0.40539 0.0
C48 C 0.86693 0.68859 0.40603 0.0
C49 C 0.88175 0.67547 0.37696 0.0
C50 C 0.91631 0.69544 0.36159 0.0
C51 C 0.93652 0.72891 0.37563 0.0
H52 H 0.67275 0.82169 0.87552 0.0
H53 H 0.66018 0.76312 0.96962 0.0
H54 H 0.72803 0.74181 0.88701 0.0
H55 H 0.6801 0.68259 0.92286 0.0
C56 C 0.69436 0.69194 0.94825 0.0
O57 O 0.70664 0.72819 0.95078 0.0
H58 H 0.67305 0.68118 0.96892 0.0
C59 C 0.67723 0.80032 0.89004 0.0
C60 C 0.70078 0.78149 0.87624 0.0
C61 C 0.66257 0.79422 0.92378 0.0
C62 C 0.67054 0.7679 0.94333 0.0
C63 C 0.69431 0.74935 0.93002 0.0
C64 C 0.70924 0.75607 0.89664 0.0
H65 H 0.8651 0.21831 0.4028 0.0
H66 H 0.85985 0.32385 0.39312 0.0
H67 H 0.94258 0.30341 0.46148 0.0
H68 H 0.92601 0.3895 0.47554 0.0
C69 C 0.90398 0.36427 0.46823 0.0
O70 O 0.91522 0.35174 0.43781 0.0
H71 H 0.90333 0.34601 0.48984 0.0
C72 C 0.87524 0.24591 0.41039 0.0
C73 C 0.90555 0.25768 0.4343 0.0
C74 C 0.85865 0.26948 0.39524 0.0
C75 C 0.87254 0.30534 0.40432 0.0
C76 C 0.90261 0.31736 0.42835 0.0
C77 C 0.91949 0.29371 0.4428 0.0
H78 H 0.368 0.71679 0.17023 0.0
H79 H 0.35854 0.63448 0.24333 0.0
H80 H 0.45173 0.73104 0.25181 0.0
H81 H 0.47271 0.66654 0.26942 0.0
C82 C 0.44417 0.6496 0.2783 0.0
O83 O 0.41893 0.66923 0.27984 0.0
H84 H 0.43358 0.62772 0.25899 0.0
C85 C 0.37926 0.70649 0.19214 0.0
C86 C 0.41282 0.72779 0.20871 0.0
C87 C 0.35935 0.67269 0.20394 0.0
C88 C 0.37315 0.66045 0.23368 0.0
C89 C 0.40635 0.68142 0.25098 0.0
C90 C 0.42602 0.71512 0.23853 0.0
H91 H 0.10552 0.31553 0.79443 0.0
H92 H 0.19476 0.41591 0.79604 0.0
H93 H 0.19872 0.33816 0.72061 0.0
H94 H 0.26969 0.37725 0.76055 0.0
C95 C 0.26835 0.4036 0.75288 0.0
O96 O 0.23159 0.40162 0.7427 0.0
H97 H 0.27663 0.42146 0.77588 0.0
C98 C 0.13211 0.33286 0.78428 0.0
C99 C 0.14946 0.32221 0.75488 0.0
C100 C 0.14824 0.36693 0.79935 0.0
C101 C 0.18207 0.38969 0.78516 0.0
C102 C 0.19984 0.37908 0.75691 0.0
C103 C 0.18389 0.34563 0.74224 0.0
Dy104 Dy 0.07594 0.04486 0.55517 0.0
Dy105 Dy 0.995 1.01978 0.59953 0.0
C106 C 0.0624 0.09148 0.62092 0.0
O107 O 0.07736 0.99827 0.58504 0.0
O108 O 0.0333 0.99551 0.62813 0.0
O109 O 0.13757 0.05667 0.55274 0.0
O110 O 0.10411 0.05382 0.50561 0.0
O111 O 0.99658 0.97277 0.56818 0.0
O112 O 0.03341 1.00211 0.5239 0.0
O113 O 0.9856 0.04974 0.55374 0.0
O114 O 0.047 0.08461 0.54309 0.0
O115 O 0.93332 0.99623 0.59731 0.0
O116 O 0.96167 1.017 0.64594 0.0
C117 C 0.06137 0.98576 0.61443 0.0
O118 O 0.08722 0.08292 0.60054 0.0
O119 O 0.02574 0.07324 0.62139 0.0
C120 C 0.16984 0.08678 0.5036 0.0
C121 C 0.23007 0.13767 0.47065 0.0
C122 C 0.21169 0.147 0.49967 0.0
C123 C 0.18169 0.12167 0.51606 0.0
C124 C 0.18831 0.07738 0.47507 0.0
C125 C 0.218 0.10249 0.4587 0.0
C126 C 0.13817 0.05928 0.51909 0.0
C127 C 0.00967 0.97316 0.53654 0.0
C128 C 0.00975 0.0781 0.54057 0.0
C129 C 0.90576 0.9673 0.64825 0.0
C130 C 0.85719 0.90973 0.68414 0.0
C131 C 0.84376 0.92273 0.65477 0.0
C132 C 0.86778 0.95134 0.63713 0.0
C133 C 0.91977 0.95352 0.67671 0.0
C134 C 0.89568 0.92514 0.69455 0.0
C135 C 0.92962 0.99897 0.63072 0.0
H136 H 0.22038 0.17382 0.50959 0.0
H137 H 0.16762 0.1293 0.53815 0.0
H138 H 0.17935 0.05054 0.46507 0.0
H139 H 0.23068 0.09443 0.43596 0.0
H140 H 0.8145 0.91115 0.64569 0.0
H141 H 0.85646 0.96144 0.6151 0.0
H142 H 0.94903 0.96517 0.68579 0.0
H143 H 0.90691 0.91623 0.71733 0.0
Dy144 Dy 0.50157 1.01785 0.04301 0.0
Dy145 Dy 0.5798 0.03985 0.0907 0.0
C146 C 0.51243 0.96663 0.10118 0.0
O147 O 0.48863 0.0421 0.09234 0.0
O148 O 0.54909 0.07813 0.10489 0.0
O149 O 0.44029 0.99328 1.03759 0.0
O150 O 0.47345 0.02319 0.99548 0.0
O151 O 0.59405 0.07409 0.04383 0.0
O152 O 0.53304 0.07387 1.03121 0.0
O153 O 0.5839 0.99497 0.05818 0.0
O154 O 0.54204 0.99541 1.0139 0.0
O155 O 0.6416 0.06025 0.09708 0.0
O156 O 0.60489 0.04148 0.14122 0.0
C157 C 0.51174 0.07026 0.10773 0.0
O158 O 0.50001 0.96848 0.06967 0.0
O159 O 0.53671 0.99424 0.11657 0.0
C160 C 0.41839 0.97698 0.98037 0.0
C161 C 0.38074 0.93098 0.92671 0.0
C162 C 0.40879 0.92294 0.94685 0.0
C163 C 0.42776 0.94601 0.97347 0.0
C164 C 0.38955 0.98434 0.96113 0.0
C165 C 0.37088 0.96157 0.93451 0.0
C166 C 0.43992 1.00332 1.00567 0.0
C167 C 0.5703 0.08766 1.02791 0.0
C168 C 0.56953 0.98471 1.02728 0.0
C169 C 0.66292 0.08557 0.15224 0.0
C170 C 0.70037 0.13653 0.20214 0.0
C171 C 0.67419 0.14344 0.17887 0.0
C172 C 0.65527 0.11789 0.15414 0.0
C173 C 0.69042 0.07947 0.17424 0.0
C174 C 0.70896 0.1047 0.19904 0.0
C175 C 0.63981 0.05633 0.13053 0.0
H176 H 0.41692 0.89956 0.94123 0.0
H177 H 0.45025 0.94016 0.98807 0.0
H178 H 0.38208 1.00818 0.96618 0.0
H179 H 0.34896 0.9681 0.9197 0.0
H180 H 0.66708 0.16777 0.1809 0.0
H181 H 0.63378 0.12279 0.13744 0.0
H182 H 0.6965 0.05459 0.17314 0.0
H183 H 0.72937 0.09897 0.21644 0.0
Dy184 Dy 0.54629 0.49109 0.53127 0.0
Dy185 Dy 0.55213 0.56471 0.57425 0.0
C186 C 0.58304 0.50468 0.60749 0.0
O187 O 0.49761 0.47708 0.5687 0.0
O188 O 0.49042 0.5317 0.57446 0.0
O189 O 0.54197 0.43582 0.52984 0.0
O190 O 0.54409 0.46385 0.48219 0.0
O191 O 0.53856 0.57313 0.51932 0.0
O192 O 0.50836 0.51616 0.5024 0.0
O193 O 0.61252 0.57258 0.55701 0.0
O194 O 0.59981 0.53099 0.51294 0.0
O195 O 0.56248 0.62107 0.57601 0.0
O196 O 0.54333 0.59044 0.62172 0.0
C197 C 0.47783 0.49764 0.57929 0.0
O198 O 0.58519 0.49166 0.57632 0.0
O199 O 0.56714 0.52967 0.61272 0.0
C200 C 0.57964 0.42333 0.48473 0.0
C201 C 0.64653 0.40471 0.46957 0.0
C202 C 0.63979 0.43359 0.45352 0.0
C203 C 0.60684 0.44288 0.46109 0.0
C204 C 0.58532 0.39344 0.49944 0.0
C205 C 0.61846 0.38428 0.49205 0.0
C206 C 0.54734 0.43558 0.49648 0.0
C207 C 0.51615 0.5502 0.49769 0.0
C208 C 0.62289 0.55879 0.52893 0.0
C209 C 0.51607 0.63491 0.61041 0.0
C210 C 0.45243 0.66022 0.61757 0.0
C211 C 0.44863 0.62791 0.60053 0.0
C212 C 0.48014 0.61562 0.59674 0.0
C213 C 0.52031 0.6671 0.6275 0.0
C214 C 0.48873 0.67976 0.63098 0.0
C215 C 0.54843 0.62063 0.60705 0.0
H216 H 0.66035 0.44949 0.43553 0.0
H217 H 0.60337 0.46603 0.44913 0.0
H218 H 0.56482 0.37791 0.51773 0.0
H219 H 0.62278 0.36205 0.50515 0.0
H220 H 0.42114 0.61168 0.59049 0.0
H221 H 0.47632 0.59079 0.58332 0.0
H222 H 0.54792 0.68239 0.63812 0.0
H223 H 0.49286 0.70492 0.6439 0.0
Dy224 Dy 0.04259 0.55429 1.03194 0.0
Dy225 Dy 0.03058 0.48538 0.08052 0.0
C226 C 0.00742 0.55141 0.10854 0.0
O227 O 0.10245 0.55897 0.04957 0.0
O228 O 0.0854 0.52488 0.09767 0.0
O229 O 0.05856 0.61065 1.02538 0.0
O230 O 0.03617 0.57541 0.98204 0.0
O231 O 0.06767 0.47723 1.03661 0.0
O232 O 0.05213 0.51258 0.9969 0.0
O233 O 0.98143 0.47101 0.04348 0.0
O234 O 0.97925 0.52623 1.03193 0.0
O235 O 0.01632 0.4292 0.08679 0.0
O236 O 0.03173 0.46413 0.13142 0.0
C237 C 0.11097 0.54854 0.0798 0.0
O238 O 0.03104 0.57034 0.08559 0.0
O239 O 0.9963 0.5168 0.10645 0.0
C240 C 0.01314 0.6238 0.98842 0.0
C241 C 0.94608 0.64328 0.97778 0.0
C242 C 0.96249 0.64556 1.01099 0.0
C243 C 0.9955 0.63574 1.01631 0.0
C244 C 0.99805 0.62332 0.95497 0.0
C245 C 0.96481 0.63284 0.94969 0.0
C246 C 0.04359 0.60735 0.99439 0.0
C247 C 0.06579 0.48676 1.00438 0.0
C248 C 0.96371 0.49192 1.03055 0.0
C249 C 0.05616 0.4166 0.12903 0.0
C250 C 0.1173 0.39285 0.15033 0.0
C251 C 0.11815 0.4084 0.11789 0.0
C252 C 0.08797 0.42031 0.10742 0.0
C253 C 0.0548 0.4006 0.16117 0.0
C254 C 0.08518 0.38881 0.1718 0.0
C255 C 0.02641 0.43235 0.11933 0.0
H256 H 0.94939 0.65424 1.03311 0.0
H257 H 0.00627 0.6363 0.04248 0.0
H258 H 0.01095 0.61397 0.93311 0.0
H259 H 0.95288 0.63045 0.9238 0.0
H260 H 0.14273 0.41237 0.10102 0.0
H261 H 0.08993 0.43319 0.08274 0.0
H262 H 0.03064 0.39788 0.17831 0.0
H263 H 0.08364 0.37668 0.19683 0.0
H264 H 0.33931 0.31125 0.33868 0.0
H265 H 0.29527 0.13096 0.44001 0.0
H266 H 0.36052 0.21802 0.29691 0.0
H267 H 0.23262 0.20544 0.45617 0.0
H268 H 0.33609 0.17069 0.39829 0.0
H269 H 0.31686 0.28003 0.39229 0.0
C270 C 0.33965 0.28437 0.34084 0.0
C271 C 0.35105 0.26702 0.31283 0.0
C272 C 0.31376 0.17849 0.41143 0.0
C273 C 0.32626 0.23159 0.37443 0.0
C274 C 0.29032 0.15582 0.43512 0.0
C275 C 0.25976 0.16444 0.45101 0.0
C276 C 0.30694 0.21021 0.40386 0.0
C277 C 0.25565 0.19756 0.44451 0.0
C278 C 0.32702 0.2667 0.37152 0.0
C279 C 0.35204 0.23255 0.31765 0.0
N280 N 0.27868 0.21908 0.42109 0.0
N281 N 0.33938 0.21584 0.34772 0.0
H282 H 0.23811 0.76457 0.79352 0.0
H283 H 0.37251 0.95247 0.86182 0.0
H284 H 0.25627 0.86244 0.74057 0.0
H285 H 0.34798 0.85909 0.92324 0.0
H286 H 0.33693 0.91718 0.81373 0.0
H287 H 0.28473 0.79605 0.83812 0.0
C288 C 0.25216 0.79259 0.79122 0.0
C289 C 0.24296 0.81115 0.76382 0.0
C290 C 0.33937 0.90421 0.8376 0.0
C291 C 0.29604 0.84704 0.81413 0.0
C292 C 0.35962 0.92441 0.86508 0.0
C293 C 0.36255 0.90871 0.89665 0.0
C294 C 0.32157 0.86797 0.84168 0.0
C295 C 0.34614 0.87214 0.89928 0.0
C296 C 0.2786 0.8105 0.8166 0.0
C297 C 0.26196 0.84732 0.76174 0.0
N298 N 0.32586 0.85296 0.87221 0.0
N299 N 0.2874 0.86406 0.78662 0.0
H300 H 0.62998 0.36009 0.75505 0.0
H301 H 0.59348 0.53063 0.67419 0.0
H302 H 0.6357 0.4542 0.81379 0.0
H303 H 0.60312 0.44359 0.61115 0.0
H304 H 0.61034 0.50316 0.72511 0.0
H305 H 0.62164 0.38996 0.70181 0.0
C306 C 0.63013 0.38721 0.75664 0.0
C307 C 0.63419 0.40483 0.78888 0.0
C308 C 0.60906 0.4901 0.70015 0.0
C309 C 0.62371 0.439 0.72819 0.0
C310 C 0.5994 0.50583 0.67093 0.0
C311 C 0.59675 0.48949 0.63812 0.0
C312 C 0.61584 0.45741 0.69693 0.0
C313 C 0.60488 0.45731 0.63579 0.0
C314 C 0.62521 0.40423 0.72629 0.0
C315 C 0.63323 0.43973 0.78951 0.0
N316 N 0.61372 0.44223 0.66476 0.0
N317 N 0.62798 0.45552 0.75979 0.0
H318 H 0.89906 0.6126 0.29156 0.0
H319 H 0.027 0.62245 0.12074 0.0
H320 H 0.97579 0.70845 0.25118 0.0
H321 H 0.95889 0.52375 0.16336 0.0
H322 H 0.00791 0.65358 0.16863 0.0
H323 H 0.92062 0.57897 0.24616 0.0
C324 C 0.92078 0.62648 0.27337 0.0
C325 C 0.93558 0.66338 0.27512 0.0
C326 C 0.99707 0.62511 0.16767 0.0
C327 C 0.96007 0.6252 0.22281 0.0
C328 C 0.00793 0.60717 0.14013 0.0
C329 C 0.9946 0.5702 0.13773 0.0
C330 C 0.97242 0.60624 0.19338 0.0
C331 C 0.96991 0.5522 0.16395 0.0
C332 C 0.93294 0.60732 0.24738 0.0
C333 C 0.96354 0.68008 0.25083 0.0
N334 N 0.95958 0.57036 0.19059 0.0
N335 N 0.97463 0.66096 0.22569 0.0
H336 H 0.47695 0.26492 0.17165 0.0
H337 H 0.43603 0.06241 0.12146 0.0
H338 H 0.36398 0.18881 0.17119 0.0
H339 H 0.55017 0.13548 0.13469 0.0
H340 H 0.40941 0.10708 0.14471 0.0
H341 H 0.5049 0.21694 0.16333 0.0
C342 C 0.45817 0.238 0.17043 0.0
C343 C 0.41823 0.23069 0.17212 0.0
C344 C 0.4403 0.11323 0.14289 0.0
C345 C 0.44965 0.17583 0.16194 0.0
C346 C 0.45553 0.0877 0.12958 0.0
C347 C 0.49538 0.09531 0.12572 0.0
C348 C 0.46505 0.14674 0.15209 0.0
C349 C 0.51924 0.12849 0.13694 0.0
C350 C 0.47402 0.21065 0.16558 0.0
C351 C 0.39496 0.19549 0.17003 0.0
N352 N 0.50369 0.15311 0.14922 0.0
N353 N 0.41098 0.16938 0.1647 0.0
H354 H 0.14874 0.81141 0.63455 0.0
H355 H 0.0406 0.9532 0.67734 0.0
H356 H 0.11736 0.83087 0.73897 0.0
H357 H 0.10677 0.95069 0.5852 0.0
H358 H 0.05795 0.90241 0.69891 0.0
H359 H 0.11988 0.85463 0.61395 0.0
C360 C 0.13497 0.82415 0.65311 0.0
C361 C 0.13571 0.81761 0.6886 0.0
C362 C 0.06854 0.91318 0.67401 0.0
C363 C 0.10353 0.86812 0.66519 0.0
C364 C 0.05881 0.94216 0.66175 0.0
C365 C 0.07248 0.95649 0.62954 0.0
C366 C 0.09148 0.89825 0.65356 0.0
C367 C 0.09574 0.94093 0.61031 0.0
C368 C 0.11893 0.84923 0.64137 0.0
C369 C 0.1179 0.83551 0.71143 0.0
N370 N 0.10432 0.91271 0.62255 0.0
N371 N 0.1028 0.86025 0.69938 0.0
H372 H 0.78399 0.34358 0.91467 0.0
H373 H 0.91731 0.52485 0.99766 0.0
H374 H 0.74953 0.4375 0.91358 0.0
H375 H 0.92628 0.42212 1.01989 0.0
H376 H 0.85946 0.4964 0.96269 0.0
H377 H 0.84118 0.37537 0.94739 0.0
C378 C 0.78849 0.37101 0.92135 0.0
C379 C 0.7615 0.38769 0.9119 0.0
C380 C 0.87411 0.48024 0.97544 0.0
C381 C 0.82754 0.42462 0.9495 0.0
C382 C 0.90704 0.4964 0.99548 0.0
C383 C 0.92684 0.47589 1.01179 0.0
C384 C 0.86129 0.44341 0.97143 0.0
C385 C 0.91222 0.43916 1.00789 0.0
C386 C 0.82123 0.38919 0.94009 0.0
C387 C 0.76953 0.4236 0.92046 0.0
N388 N 0.88064 0.42425 0.98804 0.0
N389 N 0.80179 0.4409 0.93902 0.0
H390 H 0.8116 0.71417 0.43398 0.0
H391 H 0.66331 0.53001 0.48396 0.0
H392 H 0.83689 0.61673 0.41558 0.0
H393 H 0.66828 0.62742 0.53671 0.0
H394 H 0.72276 0.56055 0.45356 0.0
H395 H 0.75427 0.68211 0.4656 0.0
C396 C 0.80533 0.68604 0.43669 0.0
C397 C 0.82982 0.66835 0.42249 0.0
C398 C 0.71096 0.57513 0.47197 0.0
C399 C 0.76313 0.63122 0.45821 0.0
C400 C 0.67702 0.55778 0.48934 0.0
C401 C 0.66074 0.57621 0.51296 0.0
C402 C 0.72837 0.61134 0.47771 0.0
C403 C 0.67986 0.61211 0.51891 0.0
C404 C 0.77241 0.66774 0.45472 0.0
C405 C 0.81901 0.63159 0.4259 0.0
N406 N 0.71239 0.62857 0.50112 0.0
N407 N 0.78648 0.61424 0.44341 0.0
H408 H 0.30616 0.36192 0.26671 0.0
H409 H 0.15836 0.35813 0.1129 0.0
H410 H 0.30352 0.30641 0.16942 0.0
H411 H 0.15204 0.40336 0.21411 0.0
H412 H 0.21465 0.34269 0.13183 0.0
H413 H 0.25304 0.38158 0.24635 0.0
C414 C 0.29459 0.35407 0.24099 0.0
C415 C 0.30929 0.33241 0.21979 0.0
C416 C 0.20096 0.35596 0.14993 0.0
C417 C 0.24854 0.3548 0.19633 0.0
C418 C 0.16888 0.36486 0.13911 0.0
C419 C 0.15047 0.382 0.16199 0.0
C420 C 0.21488 0.36439 0.18387 0.0
C421 C 0.16507 0.38974 0.19577 0.0
C422 C 0.26429 0.3653 0.22939 0.0
C423 C 0.2935 0.32343 0.18652 0.0
N424 N 0.19648 0.38094 0.20568 0.0
N425 N 0.26388 0.33451 0.17591 0.0
H426 H 0.59562 0.27549 0.9063 0.0
H427 H 0.64529 0.12237 1.01032 0.0
H428 H 0.7089 0.26429 0.91272 0.0
H429 H 0.52952 0.12547 0.99542 0.0
H430 H 0.66875 0.17432 0.97423 0.0
H431 H 0.57005 0.21986 0.93727 0.0
C432 C 0.615 0.26113 0.91375 0.0
C433 C 0.65454 0.27489 0.90723 0.0
C434 C 0.63818 0.1636 0.97877 0.0
C435 C 0.62566 0.21149 0.94316 0.0
C436 C 0.62477 0.13392 0.99952 0.0
C437 C 0.58534 0.11939 1.00609 0.0
C438 C 0.61208 0.17917 0.96451 0.0
C439 C 0.56018 0.13564 0.99117 0.0
C440 C 0.60047 0.22951 0.93168 0.0
C441 C 0.67833 0.25513 0.91774 0.0
N442 N 0.57395 0.16461 0.97125 0.0
N443 N 0.66363 0.22477 0.93532 0.0
H444 H 0.95393 0.80726 0.37567 0.0
H445 H 0.97447 0.90677 0.55939 0.0
H446 H 0.93844 0.75566 0.4741 0.0
H447 H 0.02118 0.9626 0.46676 0.0
H448 H 0.9585 0.85159 0.52669 0.0
H449 H 0.97809 0.86456 0.40642 0.0
C450 C 0.95623 0.80791 0.40363 0.0
C451 C 0.94363 0.77658 0.42233 0.0
C452 C 0.9723 0.87582 0.51337 0.0
C453 C 0.97045 0.84188 0.45762 0.0
C454 C 0.98125 0.90753 0.53206 0.0
C455 C 0.99911 0.93962 0.51588 0.0
C456 C 0.98079 0.87577 0.4779 0.0
C457 C 0.00738 0.93856 0.48035 0.0
C458 C 0.96974 0.84061 0.42118 0.0
C459 C 0.94708 0.77909 0.45858 0.0
N460 N 0.99796 0.90719 0.46249 0.0
N461 N 0.95968 0.81098 0.47491 0.0
H462 H 0.22474 0.67907 0.59873 0.0
H463 H 0.43308 0.69617 0.67269 0.0
H464 H 0.28027 0.75779 0.67558 0.0
H465 H 0.39371 0.6533 0.57111 0.0
H466 H 0.37487 0.71366 0.67907 0.0
H467 H 0.28359 0.66243 0.59388 0.0
C468 C 0.24925 0.69257 0.61484 0.0
C469 C 0.2477 0.71963 0.63778 0.0
C470 C 0.37916 0.70046 0.65541 0.0
C471 C 0.31498 0.70086 0.63238 0.0
C472 C 0.41249 0.69066 0.65161 0.0
C473 C 0.41835 0.67289 0.6214 0.0
C474 C 0.35129 0.69207 0.62904 0.0
C475 C 0.39019 0.66609 0.59523 0.0
C476 C 0.28284 0.68323 0.61195 0.0
C477 C 0.28026 0.73645 0.65797 0.0
N478 N 0.35785 0.67543 0.59977 0.0
N479 N 0.31264 0.72675 0.65488 0.0
H480 H 0.67082 0.80041 0.81717 0.0
H481 H 0.87204 0.85553 0.71848 0.0
H482 H 0.77451 0.78548 0.85785 0.0
H483 H 0.7816 0.90134 0.69904 0.0
H484 H 0.83069 0.81665 0.76053 0.0
H485 H 0.70575 0.82452 0.76466 0.0
C486 C 0.70078 0.80188 0.81499 0.0
C487 C 0.71982 0.79132 0.84227 0.0
C488 C 0.81982 0.83494 0.74666 0.0
C489 C 0.75965 0.81831 0.78206 0.0
C490 C 0.84344 0.85727 0.72279 0.0
C491 C 0.8306 0.88224 0.70556 0.0
C492 C 0.78302 0.83742 0.75319 0.0
C493 C 0.79279 0.8825 0.71152 0.0
C494 C 0.7206 0.81548 0.78496 0.0
C495 C 0.75844 0.79302 0.83755 0.0
N496 N 0.77048 0.86069 0.73509 0.0
N497 N 0.77715 0.80658 0.80818 0.0
H498 H 0.79422 0.21333 0.40119 0.0
H499 H 0.73901 0.20745 0.20038 0.0
H500 H 0.85262 0.29475 0.33063 0.0
H501 H 0.69898 0.12074 0.27006 0.0
H502 H 0.77143 0.2452 0.24939 0.0
H503 H 0.74898 0.18504 0.35528 0.0
C504 C 0.79717 0.22543 0.37604 0.0
C505 C 0.82748 0.25603 0.36944 0.0
C506 C 0.75519 0.218 0.25392 0.0
C507 C 0.77612 0.22365 0.31658 0.0
C508 C 0.73669 0.19657 0.22606 0.0
C509 C 0.71693 0.16092 0.23127 0.0
C510 C 0.75336 0.20357 0.28705 0.0
C511 C 0.71457 0.14797 0.26493 0.0
C512 C 0.7714 0.20929 0.34982 0.0
C513 C 0.82967 0.27106 0.33664 0.0
N514 N 0.73274 0.16921 0.29146 0.0
N515 N 0.80463 0.2544 0.31116 0.0
H516 H 0.4765 0.6857 0.33766 0.0
H517 H 0.47305 0.51266 0.44287 0.0
H518 H 0.42404 0.58021 0.29829 0.0
H519 H 0.52435 0.61876 0.48178 0.0
H520 H 0.45157 0.53641 0.39126 0.0
H521 H 0.49063 0.66144 0.39222 0.0
C522 C 0.46755 0.65743 0.34072 0.0
C523 C 0.44908 0.63499 0.31342 0.0
C524 C 0.46738 0.55447 0.41119 0.0
C525 C 0.46556 0.60681 0.37565 0.0
C526 C 0.47964 0.54089 0.44074 0.0
C527 C 0.50078 0.56363 0.46684 0.0
C528 C 0.47627 0.59112 0.40755 0.0
C529 C 0.50836 0.60005 0.46243 0.0
C530 C 0.47574 0.64353 0.37179 0.0
C531 C 0.43831 0.59849 0.31867 0.0
N532 N 0.4963 0.61256 0.43346 0.0
N533 N 0.44688 0.58557 0.34899 0.0
H534 H 0.12671 0.42624 0.8011 0.0
H535 H 0.0867 0.42561 1.00574 0.0
H536 H 0.12975 0.33982 0.86489 0.0
H537 H 0.07169 0.50332 0.9357 0.0
H538 H 0.10319 0.39369 0.95603 0.0
H539 H 0.10599 0.45396 0.85094 0.0
C540 C 0.12251 0.41286 0.82563 0.0
C541 C 0.12989 0.38059 0.82873 0.0
C542 C 0.09626 0.41773 0.95163 0.0
C543 C 0.10671 0.41273 0.88668 0.0
C544 C 0.08704 0.43612 0.98006 0.0
C545 C 0.07781 0.46742 0.97514 0.0
C546 C 0.09648 0.43076 0.91798 0.0
C547 C 0.07854 0.47944 0.94107 0.0
C548 C 0.1108 0.42879 0.85421 0.0
C549 C 0.12404 0.36454 0.86125 0.0
N550 N 0.0877 0.46124 0.91407 0.0
N551 N 0.11315 0.3809 0.88904 0.0
H552 H 0.67519 0.82389 0.98852 0.0
H553 H 0.54087 0.94689 0.96728 0.0
H554 H 0.609 0.82172 0.89561 0.0
H555 H 0.6279 0.96009 0.0463 0.0
H556 H 0.56051 0.89826 0.94186 0.0
H557 H 0.65107 0.86948 1.01264 0.0
C558 C 0.65498 0.83252 0.97339 0.0
C559 C 0.64406 0.81883 0.93999 0.0
C560 C 0.57529 0.91202 0.96468 0.0
C561 C 0.61701 0.87205 0.96721 0.0
C562 C 0.56426 0.93987 0.97908 0.0
C563 C 0.58267 0.95762 1.00904 0.0
C564 C 0.60467 0.90186 0.98057 0.0
C565 C 0.61263 0.94719 1.02334 0.0
C566 C 0.64158 0.85897 0.98703 0.0
C567 C 0.6184 0.83176 0.92138 0.0
N568 N 0.62247 0.92 1.00911 0.0
N569 N 0.6058 0.85777 0.93519 0.0
H570 H 0.98148 0.26425 0.44648 0.0
H571 H 0.93451 0.07261 0.5279 0.0
H572 H 0.86693 0.19263 0.4589 0.0
H573 H 0.04993 0.1423 0.51423 0.0
H574 H 0.90957 0.11641 0.50215 0.0
H575 H 0.00746 0.22045 0.47164 0.0
C576 C 0.96181 0.23942 0.45469 0.0
C577 C 0.92199 0.23203 0.45043 0.0
C578 C 0.94037 0.12212 0.50468 0.0
C579 C 0.95146 0.18171 0.4789 0.0
C580 C 0.95467 0.09706 0.51935 0.0
C581 C 0.99441 0.10374 0.52328 0.0
C582 C 0.96593 0.15425 0.49388 0.0
C583 C 0.01907 0.13596 0.51169 0.0
C584 C 0.97665 0.21434 0.46883 0.0
C585 C 0.89784 0.19926 0.46118 0.0
N586 N 0.00442 0.16006 0.4976 0.0
N587 N 0.91295 0.17537 0.47487 0.0
H588 H 0.29251 0.6282 0.23109 0.0
H589 H 0.17518 0.59722 0.05245 0.0
H590 H 0.34503 0.66747 0.13371 0.0
H591 H 0.13462 0.53742 0.14445 0.0
H592 H 0.23684 0.62531 0.08184 0.0
H593 H 0.23365 0.59619 0.19993 0.0
C594 C 0.29193 0.62987 0.20317 0.0
C595 C 0.32394 0.65095 0.1852 0.0
C596 C 0.21443 0.60587 0.09544 0.0
C597 C 0.25603 0.61476 0.14926 0.0
C598 C 0.1792 0.58986 0.07867 0.0
C599 C 0.14946 0.56493 0.09591 0.0
C600 C 0.21983 0.59719 0.12981 0.0
C601 C 0.1565 0.55648 0.12997 0.0
C602 C 0.25814 0.61172 0.18536 0.0
C603 C 0.32095 0.6523 0.14891 0.0
N604 N 0.1907 0.57268 0.14578 0.0
N605 N 0.28762 0.63474 0.13224 0.0
H606 H 0.29899 0.47191 0.73234 0.0
H607 H 0.44096 0.42824 0.59324 0.0
H608 H 0.29959 0.3667 0.70696 0.0
H609 H 0.43381 0.53278 0.61249 0.0
H610 H 0.3869 0.40487 0.63232 0.0
H611 H 0.34614 0.49453 0.68645 0.0
C612 C 0.30911 0.45364 0.71699 0.0
C613 C 0.29608 0.41754 0.72377 0.0
C614 C 0.39692 0.43289 0.62776 0.0
C615 C 0.34975 0.443 0.67119 0.0
C616 C 0.4278 0.44628 0.60535 0.0
C617 C 0.4422 0.48261 0.59959 0.0
C618 C 0.38036 0.45596 0.64483 0.0
C619 C 0.42382 0.50462 0.61609 0.0
C620 C 0.33591 0.46648 0.6908 0.0
C621 C 0.30947 0.3948 0.70286 0.0
N622 N 0.39414 0.491 0.63813 0.0
N623 N 0.33582 0.40791 0.67773 0.0
H624 H 0.72094 0.66847 1.00658 0.0
H625 H 0.9226 0.6751 0.9231 0.0
H626 H 0.74722 0.68957 0.8989 0.0
H627 H 0.88355 0.62616 1.02086 0.0
H628 H 0.85997 0.68379 0.91492 0.0
H629 H 0.78173 0.65544 1.01358 0.0
C630 C 0.7393 0.66976 0.98432 0.0
C631 C 0.72894 0.67952 0.95201 0.0
C632 C 0.86516 0.67111 0.93814 0.0
C633 C 0.79885 0.6658 0.95993 0.0
C634 C 0.90091 0.66606 0.94281 0.0
C635 C 0.90859 0.64995 0.97279 0.0
C636 C 0.83687 0.66024 0.96372 0.0
C637 C 0.87938 0.63933 0.99765 0.0
C638 C 0.77401 0.66252 0.98831 0.0
C639 C 0.75408 0.68173 0.92412 0.0
N640 N 0.84492 0.64474 0.9926 0.0
N641 N 0.78798 0.6751 0.92875 0.0
H642 H 0.42772 0.74411 0.14075 0.0
H643 H 0.52187 0.9522 0.16977 0.0
H644 H 0.44462 0.79184 0.24289 0.0
H645 H 0.47453 0.9021 0.07289 0.0
H646 H 0.50127 0.89428 0.19725 0.0
H647 H 0.45357 0.80211 0.11578 0.0
C648 C 0.43694 0.76684 0.15801 0.0
C649 C 0.43328 0.76299 0.19404 0.0
C650 C 0.49542 0.8961 0.17 0.0
C651 C 0.46344 0.83005 0.16534 0.0
C652 C 0.50716 0.92913 0.15427 0.0
C653 C 0.49978 0.93218 0.11893 0.0
C654 C 0.47667 0.86586 0.15013 0.0
C655 C 0.48067 0.90128 0.1002 0.0
C656 C 0.45176 0.80005 0.14367 0.0
C657 C 0.44681 0.7935 0.215 0.0
N658 N 0.46997 0.8696 0.11596 0.0
N659 N 0.46106 0.8258 0.20035 0.0
H660 H 0.14828 0.30907 0.68482 0.0
H661 H 0.0312 0.10599 0.6819 0.0
H662 H 0.11055 0.25607 0.78093 0.0
H663 H 0.12275 0.15142 0.61021 0.0
H664 H 0.05049 0.16126 0.71603 0.0
H665 H 0.12851 0.25259 0.65433 0.0
C666 C 0.13605 0.28559 0.69975 0.0
C667 C 0.1323 0.28764 0.73597 0.0
C668 C 0.06644 0.15897 0.69296 0.0
C669 C 0.10812 0.22228 0.70032 0.0
C670 C 0.05545 0.12751 0.67339 0.0
C671 C 0.07544 0.12396 0.64309 0.0
C672 C 0.09698 0.18751 0.68169 0.0
C673 C 0.10665 0.15277 0.63343 0.0
C674 C 0.12461 0.25326 0.6821 0.0
C675 C 0.11434 0.25603 0.75316 0.0
N676 N 0.11611 0.18339 0.65237 0.0
N677 N 0.10294 0.22465 0.7352 0.0
H678 H 0.88819 0.42454 0.45041 0.0
H679 H 0.65967 0.34048 0.46454 0.0
H680 H 0.83252 0.31617 0.47581 0.0
H681 H 0.71852 0.45227 0.46386 0.0
H682 H 0.72185 0.32969 0.46066 0.0
H683 H 0.82511 0.43371 0.44659 0.0
C684 C 0.86256 0.4027 0.45511 0.0
C685 C 0.86534 0.36978 0.4641 0.0
C686 C 0.72104 0.35656 0.46116 0.0
C687 C 0.79328 0.37981 0.45944 0.0
C688 C 0.68557 0.36276 0.46352 0.0
C689 C 0.6837 0.39736 0.46464 0.0
C690 C 0.75493 0.38513 0.45977 0.0
C691 C 0.7183 0.42514 0.46257 0.0
C692 C 0.82664 0.40789 0.45294 0.0
C693 C 0.8314 0.34209 0.46934 0.0
N694 N 0.75241 0.41841 0.46035 0.0
N695 N 0.79671 0.34774 0.4671 0.0
loop_
_geom_bond_atom_site_label_1
_geom_bond_atom_site_label_2
_geom_bond_distance
_geom_bond_site_symmetry_2
_ccdc_geom_bond_type
H0 C7 0.929 . S
H1 C10 0.930 . S
H2 C12 0.929 . S
H3 C4 0.969 . S
C4 H3 0.969 . S
C4 O5 1.550 . S
C4 H6 0.973 . S
O5 C4 1.550 . S
O5 C11 1.412 . S
H6 C4 0.973 . S
C7 H0 0.929 . S
C7 C8 1.400 . S
C7 C9 1.364 . S
C8 C7 1.400 . S
C8 C12 1.377 . S
C9 C7 1.364 . S
C9 C10 1.374 . S
C10 H1 0.930 . S
C10 C9 1.374 . S
C10 C11 1.383 . S
C11 O5 1.412 . S
C11 C10 1.383 . S
C11 C12 1.394 . S
C12 H2 0.929 . S
C12 C8 1.377 . S
C12 C11 1.394 . S
H13 C20 0.929 . S
H14 C23 0.930 . S
H15 C25 0.929 . S
H16 C17 0.969 . S
C17 H16 0.969 . S
C17 O18 1.550 . S
C17 H19 0.973 . S
O18 C17 1.550 . S
O18 C24 1.412 . S
H19 C17 0.973 . S
C20 H13 0.929 . S
C20 C21 1.400 . S
C20 C22 1.364 . S
C21 C20 1.400 . S
C21 C25 1.377 . S
C22 C20 1.364 . S
C22 C23 1.374 . S
C23 H14 0.930 . S
C23 C22 1.374 . S
C23 C24 1.383 . S
C24 O18 1.412 . S
C24 C23 1.383 . S
C24 C25 1.394 . S
C25 H15 0.929 . S
C25 C21 1.377 . S
C25 C24 1.394 . S
H26 C33 0.929 . S
H27 C36 0.930 . S
H28 C38 0.929 . S
H29 C30 0.969 . S
C30 H29 0.969 . S
C30 O31 1.550 . S
C30 H32 0.973 . S
O31 C30 1.550 . S
O31 C37 1.412 . S
H32 C30 0.973 . S
C33 H26 0.929 . S
C33 C34 1.400 . S
C33 C35 1.364 . S
C34 C33 1.400 . S
C34 C38 1.377 . S
C35 C33 1.364 . S
C35 C36 1.374 . S
C36 H27 0.930 . S
C36 C35 1.374 . S
C36 C37 1.383 . S
C37 O31 1.412 . S
C37 C36 1.383 . S
C37 C38 1.394 . S
C38 H28 0.929 . S
C38 C34 1.377 . S
C38 C37 1.394 . S
H39 C46 0.929 . S
H40 C49 0.930 . S
H41 C51 0.929 . S
H42 C43 0.969 . S
C43 H42 0.969 . S
C43 O44 1.550 . S
C43 H45 0.973 . S
O44 C43 1.550 . S
O44 C50 1.412 . S
H45 C43 0.973 . S
C46 H39 0.929 . S
C46 C47 1.400 . S
C46 C48 1.364 . S
C47 C46 1.400 . S
C47 C51 1.377 . S
C48 C46 1.364 . S
C48 C49 1.374 . S
C49 H40 0.930 . S
C49 C48 1.374 . S
C49 C50 1.383 . S
C50 O44 1.412 . S
C50 C49 1.383 . S
C50 C51 1.394 . S
C51 H41 0.929 . S
C51 C47 1.377 . S
C51 C50 1.394 . S
H52 C59 0.929 . S
H53 C62 0.930 . S
H54 C64 0.929 . S
H55 C56 0.969 . S
C56 H55 0.969 . S
C56 O57 1.550 . S
C56 H58 0.973 . S
O57 C56 1.550 . S
O57 C63 1.412 . S
H58 C56 0.973 . S
C59 H52 0.929 . S
C59 C60 1.400 . S
C59 C61 1.364 . S
C60 C59 1.400 . S
C60 C64 1.377 . S
C61 C59 1.364 . S
C61 C62 1.374 . S
C62 H53 0.930 . S
C62 C61 1.374 . S
C62 C63 1.383 . S
C63 O57 1.412 . S
C63 C62 1.383 . S
C63 C64 1.394 . S
C64 H54 0.929 . S
C64 C60 1.377 . S
C64 C63 1.394 . S
H65 C72 0.929 . S
H66 C75 0.930 . S
H67 C77 0.929 . S
H68 C69 0.969 . S
C69 H68 0.969 . S
C69 O70 1.550 . S
C69 H71 0.973 . S
O70 C69 1.550 . S
O70 C76 1.412 . S
H71 C69 0.973 . S
C72 H65 0.929 . S
C72 C73 1.400 . S
C72 C74 1.364 . S
C73 C72 1.400 . S
C73 C77 1.377 . S
C74 C72 1.364 . S
C74 C75 1.374 . S
C75 H66 0.930 . S
C75 C74 1.374 . S
C75 C76 1.383 . S
C76 O70 1.412 . S
C76 C75 1.383 . S
C76 C77 1.394 . S
C77 H67 0.929 . S
C77 C73 1.377 . S
C77 C76 1.394 . S
H78 C85 0.929 . S
H79 C88 0.930 . S
H80 C90 0.929 . S
H81 C82 0.969 . S
C82 H81 0.969 . S
C82 O83 1.550 . S
C82 H84 0.973 . S
O83 C82 1.550 . S
O83 C89 1.412 . S
H84 C82 0.973 . S
C85 H78 0.929 . S
C85 C86 1.400 . S
C85 C87 1.364 . S
C86 C85 1.400 . S
C86 C90 1.377 . S
C87 C85 1.364 . S
C87 C88 1.374 . S
C88 H79 0.930 . S
C88 C87 1.374 . S
C88 C89 1.383 . S
C89 O83 1.412 . S
C89 C88 1.383 . S
C89 C90 1.394 . S
C90 H80 0.929 . S
C90 C86 1.377 . S
C90 C89 1.394 . S
H91 C98 0.929 . S
H92 C101 0.930 . S
H93 C103 0.929 . S
H94 C95 0.969 . S
C95 H94 0.969 . S
C95 O96 1.550 . S
C95 H97 0.973 . S
O96 C95 1.550 . S
O96 C102 1.412 . S
H97 C95 0.973 . S
C98 H91 0.929 . S
C98 C99 1.400 . S
C98 C100 1.364 . S
C99 C98 1.400 . S
C99 C103 1.377 . S
C100 C98 1.364 . S
C100 C101 1.374 . S
C101 H92 0.930 . S
C101 C100 1.374 . S
C101 C102 1.383 . S
C102 O96 1.412 . S
C102 C101 1.383 . S
C102 C103 1.394 . S
C103 H93 0.929 . S
C103 C99 1.377 . S
C103 C102 1.394 . S
Dy104 O107 2.307 1_545 S
Dy104 O109 2.395 . S
Dy104 O110 2.379 . S
Dy104 O112 2.339 1_545 S
Dy104 O114 2.298 . S
Dy104 O118 2.275 . S
Dy104 C126 2.738 . S
Dy105 O108 2.298 1_645 S
Dy105 O111 2.275 1_545 S
Dy105 O113 2.307 . S
Dy105 O115 2.395 1_545 S
Dy105 O116 2.379 1_545 S
Dy105 O119 2.339 1_655 S
Dy105 C135 2.738 1_545 S
C106 O118 1.254 . S
C106 O119 1.257 . S
O107 Dy104 2.307 1_565 S
O107 C117 1.266 . S
O108 Dy105 2.298 1_465 S
O108 C117 1.236 . S
O109 Dy104 2.395 . S
O109 C126 1.255 . S
O110 Dy104 2.379 . S
O110 C126 1.249 . S
O111 Dy105 2.275 1_565 S
O111 C127 1.254 . S
O112 Dy104 2.339 1_565 S
O112 C127 1.257 1_455 S
O113 Dy105 2.307 . S
O113 C128 1.266 . S
O114 Dy104 2.298 . S
O114 C128 1.236 1_455 S
O115 Dy105 2.395 1_565 S
O115 C135 1.255 . S
O116 Dy105 2.379 1_565 S
O116 C135 1.249 . S
C117 O107 1.266 . S
C117 O108 1.236 . S
O118 Dy104 2.275 . S
O118 C106 1.254 . S
O119 Dy105 2.339 1_455 S
O119 C106 1.257 . S
C120 C123 1.344 . S
C120 C124 1.328 . S
C120 C126 1.516 . S
C121 C122 1.304 . S
C121 C125 1.323 . S
C122 C121 1.304 . S
C122 C123 1.371 . S
C122 H136 0.930 . S
C123 C120 1.344 . S
C123 C122 1.371 . S
C123 H137 0.931 . S
C124 C120 1.328 . S
C124 C125 1.433 . S
C124 H138 0.931 . S
C125 C121 1.323 . S
C125 C124 1.433 . S
C125 H139 0.933 . S
C126 Dy104 2.738 . S
C126 O109 1.255 . S
C126 O110 1.249 . S
C126 C120 1.516 . S
C127 O111 1.254 . S
C127 O112 1.257 1_655 S
C128 O113 1.266 . S
C128 O114 1.236 1_655 S
C129 C132 1.344 . S
C129 C133 1.328 . S
C129 C135 1.516 . S
C130 C131 1.304 . S
C130 C134 1.323 . S
C131 C130 1.304 . S
C131 C132 1.371 . S
C131 H140 0.930 . S
C132 C129 1.344 . S
C132 C131 1.371 . S
C132 H141 0.931 . S
C133 C129 1.328 . S
C133 C134 1.433 . S
C133 H142 0.931 . S
C134 C130 1.323 . S
C134 C133 1.433 . S
C134 H143 0.933 . S
C135 Dy105 2.738 1_565 S
C135 O115 1.255 . S
C135 O116 1.249 . S
C135 C129 1.516 . S
H136 C122 0.930 . S
H137 C123 0.931 . S
H138 C124 0.931 . S
H139 C125 0.933 . S
H140 C131 0.930 . S
H141 C132 0.931 . S
H142 C133 0.931 . S
H143 C134 0.933 . S
Dy144 O147 2.299 1_566 S
Dy144 O149 2.404 . S
Dy144 O150 2.380 . S
Dy144 O152 2.330 1_565 S
Dy144 O154 2.305 . S
Dy144 O158 2.282 1_556 S
Dy144 C166 2.744 . S
Dy145 O148 2.298 . S
Dy145 O151 2.275 1_554 S
Dy145 O153 2.307 1_544 S
Dy145 O155 2.395 . S
Dy145 O156 2.379 . S
Dy145 O159 2.339 1_545 S
Dy145 C175 2.738 . S
C146 O158 1.254 . S
C146 O159 1.257 . S
O147 Dy144 2.299 1_544 S
O147 C157 1.266 . S
O148 Dy145 2.298 . S
O148 C157 1.236 . S
O149 Dy144 2.404 . S
O149 C166 1.255 . S
O150 Dy144 2.380 . S
O150 C166 1.249 . S
O151 Dy145 2.275 1_556 S
O151 C167 1.254 . S
O152 Dy144 2.330 1_545 S
O152 C167 1.257 . S
O153 Dy145 2.307 1_566 S
O153 C168 1.266 . S
O154 Dy144 2.305 . S
O154 C168 1.236 . S
O155 Dy145 2.395 . S
O155 C175 1.255 . S
O156 Dy145 2.379 . S
O156 C175 1.249 . S
C157 O147 1.266 . S
C157 O148 1.236 . S
O158 Dy144 2.282 1_554 S
O158 C146 1.254 . S
O159 Dy145 2.339 1_565 S
O159 C146 1.257 . S
C160 C163 1.344 . S
C160 C164 1.328 . S
C160 C166 1.516 . S
C161 C162 1.304 . S
C161 C165 1.323 . S
C162 C161 1.304 . S
C162 C163 1.371 . S
C162 H176 0.930 . S
C163 C160 1.344 . S
C163 C162 1.371 . S
C163 H177 0.931 . S
C164 C160 1.328 . S
C164 C165 1.433 . S
C164 H178 0.931 . S
C165 C161 1.323 . S
C165 C164 1.433 . S
C165 H179 0.933 . S
C166 Dy144 2.744 . S
C166 O149 1.255 . S
C166 O150 1.249 . S
C166 C160 1.516 . S
C167 O151 1.254 . S
C167 O152 1.257 . S
C168 O153 1.266 . S
C168 O154 1.236 . S
C169 C172 1.344 . S
C169 C173 1.328 . S
C169 C175 1.516 . S
C170 C171 1.304 . S
C170 C174 1.323 . S
C171 C170 1.304 . S
C171 C172 1.371 . S
C171 H180 0.930 . S
C172 C169 1.344 . S
C172 C171 1.371 . S
C172 H181 0.931 . S
C173 C169 1.328 . S
C173 C174 1.433 . S
C173 H182 0.931 . S
C174 C170 1.323 . S
C174 C173 1.433 . S
C174 H183 0.933 . S
C175 Dy145 2.738 . S
C175 O155 1.255 . S
C175 O156 1.249 . S
C175 C169 1.516 . S
H176 C162 0.930 . S
H177 C163 0.931 . S
H178 C164 0.931 . S
H179 C165 0.933 . S
H180 C171 0.930 . S
H181 C172 0.931 . S
H182 C173 0.931 . S
H183 C174 0.933 . S
Dy184 O187 2.307 . S
Dy184 O189 2.395 . S
Dy184 O190 2.379 . S
Dy184 O192 2.339 . S
Dy184 O194 2.298 . S
Dy184 O198 2.275 . S
Dy184 C206 2.738 . S
Dy185 O188 2.298 . S
Dy185 O191 2.275 . S
Dy185 O193 2.307 . S
Dy185 O195 2.395 . S
Dy185 O196 2.379 . S
Dy185 O199 2.339 . S
Dy185 C215 2.738 . S
C186 O198 1.254 . S
C186 O199 1.257 . S
O187 Dy184 2.307 . S
O187 C197 1.266 . S
O188 Dy185 2.298 . S
O188 C197 1.236 . S
O189 Dy184 2.395 . S
O189 C206 1.255 . S
O190 Dy184 2.379 . S
O190 C206 1.249 . S
O191 Dy185 2.275 . S
O191 C207 1.254 . S
O192 Dy184 2.339 . S
O192 C207 1.257 . S
O193 Dy185 2.307 . S
O193 C208 1.266 . S
O194 Dy184 2.298 . S
O194 C208 1.236 . S
O195 Dy185 2.395 . S
O195 C215 1.255 . S
O196 Dy185 2.379 . S
O196 C215 1.249 . S
C197 O187 1.266 . S
C197 O188 1.236 . S
O198 Dy184 2.275 . S
O198 C186 1.254 . S
O199 Dy185 2.339 . S
O199 C186 1.257 . S
C200 C203 1.344 . S
C200 C204 1.328 . S
C200 C206 1.516 . S
C201 C202 1.304 . S
C201 C205 1.323 . S
C202 C201 1.304 . S
C202 C203 1.371 . S
C202 H216 0.930 . S
C203 C200 1.344 . S
C203 C202 1.371 . S
C203 H217 0.931 . S
C204 C200 1.328 . S
C204 C205 1.433 . S
C204 H218 0.931 . S
C205 C201 1.323 . S
C205 C204 1.433 . S
C205 H219 0.933 . S
C206 Dy184 2.738 . S
C206 O189 1.255 . S
C206 O190 1.249 . S
C206 C200 1.516 . S
C207 O191 1.254 . S
C207 O192 1.257 . S
C208 O193 1.266 . S
C208 O194 1.236 . S
C209 C212 1.344 . S
C209 C213 1.328 . S
C209 C215 1.516 . S
C210 C211 1.304 . S
C210 C214 1.323 . S
C211 C210 1.304 . S
C211 C212 1.371 . S
C211 H220 0.930 . S
C212 C209 1.344 . S
C212 C211 1.371 . S
C212 H221 0.931 . S
C213 C209 1.328 . S
C213 C214 1.433 . S
C213 H222 0.931 . S
C214 C210 1.323 . S
C214 C213 1.433 . S
C214 H223 0.933 . S
C215 Dy185 2.738 . S
C215 O195 1.255 . S
C215 O196 1.249 . S
C215 C209 1.516 . S
H216 C202 0.930 . S
H217 C203 0.931 . S
H218 C204 0.931 . S
H219 C205 0.933 . S
H220 C211 0.930 . S
H221 C212 0.931 . S
H222 C213 0.931 . S
H223 C214 0.933 . S
Dy224 O227 2.307 . S
Dy224 O229 2.395 1_455 S
Dy224 O230 2.379 1_454 S
Dy224 O232 2.339 1_554 S
Dy224 O234 2.298 1_455 S
Dy224 O238 2.275 . S
Dy224 C246 2.738 1_454 S
Dy225 O228 2.298 . S
Dy225 O231 2.275 . S
Dy225 O233 2.307 1_455 S
Dy225 O235 2.395 . S
Dy225 O236 2.379 . S
Dy225 O239 2.339 1_455 S
Dy225 C255 2.738 . S
C226 O238 1.254 1_655 S
C226 O239 1.257 . S
O227 Dy224 2.307 . S
O227 C237 1.266 . S
O228 Dy225 2.298 . S
O228 C237 1.236 . S
O229 Dy224 2.395 1_655 S
O229 C246 1.255 1_554 S
O230 Dy224 2.379 1_656 S
O230 C246 1.249 . S
O231 Dy225 2.275 . S
O231 C247 1.254 1_554 S
O232 Dy224 2.339 1_556 S
O232 C247 1.257 . S
O233 Dy225 2.307 1_655 S
O233 C248 1.266 . S
O234 Dy224 2.298 1_655 S
O234 C248 1.236 . S
O235 Dy225 2.395 . S
O235 C255 1.255 . S
O236 Dy225 2.379 . S
O236 C255 1.249 . S
C237 O227 1.266 . S
C237 O228 1.236 . S
O238 Dy224 2.275 . S
O238 C226 1.254 1_455 S
O239 Dy225 2.339 1_655 S
O239 C226 1.257 . S
C240 C243 1.344 . S
C240 C244 1.328 . S
C240 C246 1.516 . S
C241 C242 1.304 . S
C241 C245 1.323 . S
C242 C241 1.304 . S
C242 C243 1.371 . S
C242 H256 0.930 . S
C243 C240 1.344 . S
C243 C242 1.371 . S
C243 H257 0.931 1_556 S
C244 C240 1.328 . S
C244 C245 1.433 . S
C244 H258 0.931 . S
C245 C241 1.323 . S
C245 C244 1.433 . S
C245 H259 0.933 . S
C246 Dy224 2.738 1_656 S
C246 O229 1.255 1_556 S
C246 O230 1.249 . S
C246 C240 1.516 . S
C247 O231 1.254 1_556 S
C247 O232 1.257 . S
C248 O233 1.266 . S
C248 O234 1.236 . S
C249 C252 1.344 . S
C249 C253 1.328 . S
C249 C255 1.516 . S
C250 C251 1.304 . S
C250 C254 1.323 . S
C251 C250 1.304 . S
C251 C252 1.371 . S
C251 H260 0.930 . S
C252 C249 1.344 . S
C252 C251 1.371 . S
C252 H261 0.931 . S
C253 C249 1.328 . S
C253 C254 1.433 . S
C253 H262 0.931 . S
C254 C250 1.323 . S
C254 C253 1.433 . S
C254 H263 0.933 . S
C255 Dy225 2.738 . S
C255 O235 1.255 . S
C255 O236 1.249 . S
C255 C249 1.516 . S
H256 C242 0.930 . S
H257 C243 0.931 1_554 S
H258 C244 0.931 . S
H259 C245 0.933 . S
H260 C251 0.930 . S
H261 C252 0.931 . S
H262 C253 0.931 . S
H263 C254 0.933 . S
H264 C270 0.930 . S
H265 C274 0.930 . S
H266 C279 0.929 . S
H267 C277 0.929 . S
H268 C272 0.929 . S
H269 C278 0.929 . S
C270 H264 0.930 . S
C270 C271 1.367 . S
C270 C278 1.378 . S
C271 C270 1.367 . S
C271 C279 1.433 . S
C272 H268 0.929 . S
C272 C274 1.378 . S
C272 C276 1.350 . S
C273 C276 1.463 . S
C273 C278 1.350 . S
C273 N281 1.427 . S
C274 H265 0.930 . S
C274 C272 1.378 . S
C274 C275 1.367 . S
C275 C274 1.367 . S
C275 C277 1.433 . S
C276 C272 1.350 . S
C276 C273 1.463 . S
C276 N280 1.427 . S
C277 H267 0.929 . S
C277 C275 1.433 . S
C277 N280 1.384 . S
C278 H269 0.929 . S
C278 C270 1.378 . S
C278 C273 1.350 . S
C279 H266 0.929 . S
C279 C271 1.433 . S
C279 N281 1.384 . S
N280 C276 1.427 . S
N280 C277 1.384 . S
N281 C273 1.427 . S
N281 C279 1.384 . S
H282 C288 0.930 . S
H283 C292 0.930 . S
H284 C297 0.929 . S
H285 C295 0.929 . S
H286 C290 0.929 . S
H287 C296 0.929 . S
C288 H282 0.930 . S
C288 C289 1.367 . S
C288 C296 1.378 . S
C289 C288 1.367 . S
C289 C297 1.433 . S
C290 H286 0.929 . S
C290 C292 1.378 . S
C290 C294 1.350 . S
C291 C294 1.463 . S
C291 C296 1.350 . S
C291 N299 1.427 . S
C292 H283 0.930 . S
C292 C290 1.378 . S
C292 C293 1.367 . S
C293 C292 1.367 . S
C293 C295 1.433 . S
C294 C290 1.350 . S
C294 C291 1.463 . S
C294 N298 1.427 . S
C295 H285 0.929 . S
C295 C293 1.433 . S
C295 N298 1.384 . S
C296 H287 0.929 . S
C296 C288 1.378 . S
C296 C291 1.350 . S
C297 H284 0.929 . S
C297 C289 1.433 . S
C297 N299 1.384 . S
N298 C294 1.427 . S
N298 C295 1.384 . S
N299 C291 1.427 . S
N299 C297 1.384 . S
H300 C306 0.930 . S
H301 C310 0.930 . S
H302 C315 0.929 . S
H303 C313 0.929 . S
H304 C308 0.929 . S
H305 C314 0.929 . S
C306 H300 0.930 . S
C306 C307 1.367 . S
C306 C314 1.378 . S
C307 C306 1.367 . S
C307 C315 1.433 . S
C308 H304 0.929 . S
C308 C310 1.378 . S
C308 C312 1.350 . S
C309 C312 1.463 . S
C309 C314 1.350 . S
C309 N317 1.427 . S
C310 H301 0.930 . S
C310 C308 1.378 . S
C310 C311 1.367 . S
C311 C310 1.367 . S
C311 C313 1.433 . S
C312 C308 1.350 . S
C312 C309 1.463 . S
C312 N316 1.427 . S
C313 H303 0.929 . S
C313 C311 1.433 . S
C313 N316 1.384 . S
C314 H305 0.929 . S
C314 C306 1.378 . S
C314 C309 1.350 . S
C315 H302 0.929 . S
C315 C307 1.433 . S
C315 N317 1.384 . S
N316 C312 1.427 . S
N316 C313 1.384 . S
N317 C309 1.427 . S
N317 C315 1.384 . S
H318 C324 0.930 . S
H319 C328 0.930 . S
H320 C333 0.929 . S
H321 C331 0.929 . S
H322 C326 0.929 . S
H323 C332 0.929 . S
C324 H318 0.930 . S
C324 C325 1.367 . S
C324 C332 1.378 . S
C325 C324 1.367 . S
C325 C333 1.433 . S
C326 H322 0.929 . S
C326 C328 1.378 . S
C326 C330 1.350 . S
C327 C330 1.463 . S
C327 C332 1.350 . S
C327 N335 1.427 . S
C328 H319 0.930 . S
C328 C326 1.378 . S
C328 C329 1.367 . S
C329 C328 1.367 . S
C329 C331 1.433 . S
C330 C326 1.350 . S
C330 C327 1.463 . S
C330 N334 1.427 . S
C331 H321 0.929 . S
C331 C329 1.433 . S
C331 N334 1.384 . S
C332 H323 0.929 . S
C332 C324 1.378 . S
C332 C327 1.350 . S
C333 H320 0.929 . S
C333 C325 1.433 . S
C333 N335 1.384 . S
N334 C330 1.427 . S
N334 C331 1.384 . S
N335 C327 1.427 . S
N335 C333 1.384 . S
H336 C342 0.930 . S
H337 C346 0.930 . S
H338 C351 0.929 . S
H339 C349 0.929 . S
H340 C344 0.929 . S
H341 C350 0.929 . S
C342 H336 0.930 . S
C342 C343 1.367 . S
C342 C350 1.378 . S
C343 C342 1.367 . S
C343 C351 1.433 . S
C344 H340 0.929 . S
C344 C346 1.378 . S
C344 C348 1.350 . S
C345 C348 1.463 . S
C345 C350 1.350 . S
C345 N353 1.427 . S
C346 H337 0.930 . S
C346 C344 1.378 . S
C346 C347 1.367 . S
C347 C346 1.367 . S
C347 C349 1.433 . S
C348 C344 1.350 . S
C348 C345 1.463 . S
C348 N352 1.427 . S
C349 H339 0.929 . S
C349 C347 1.433 . S
C349 N352 1.384 . S
C350 H341 0.929 . S
C350 C342 1.378 . S
C350 C345 1.350 . S
C351 H338 0.929 . S
C351 C343 1.433 . S
C351 N353 1.384 . S
N352 C348 1.427 . S
N352 C349 1.384 . S
N353 C345 1.427 . S
N353 C351 1.384 . S
H354 C360 0.930 . S
H355 C364 0.930 . S
H356 C369 0.929 . S
H357 C367 0.929 . S
H358 C362 0.929 . S
H359 C368 0.929 . S
C360 H354 0.930 . S
C360 C361 1.367 . S
C360 C368 1.378 . S
C361 C360 1.367 . S
C361 C369 1.433 . S
C362 H358 0.929 . S
C362 C364 1.378 . S
C362 C366 1.350 . S
C363 C366 1.463 . S
C363 C368 1.350 . S
C363 N371 1.427 . S
C364 H355 0.930 . S
C364 C362 1.378 . S
C364 C365 1.367 . S
C365 C364 1.367 . S
C365 C367 1.433 . S
C366 C362 1.350 . S
C366 C363 1.463 . S
C366 N370 1.427 . S
C367 H357 0.929 . S
C367 C365 1.433 . S
C367 N370 1.384 . S
C368 H359 0.929 . S
C368 C360 1.378 . S
C368 C363 1.350 . S
C369 H356 0.929 . S
C369 C361 1.433 . S
C369 N371 1.384 . S
N370 C366 1.427 . S
N370 C367 1.384 . S
N371 C363 1.427 . S
N371 C369 1.384 . S
H372 C378 0.930 . S
H373 C382 0.930 . S
H374 C387 0.929 . S
H375 C385 0.929 . S
H376 C380 0.929 . S
H377 C386 0.929 . S
C378 H372 0.930 . S
C378 C379 1.367 . S
C378 C386 1.378 . S
C379 C378 1.367 . S
C379 C387 1.433 . S
C380 H376 0.929 . S
C380 C382 1.378 1_556 S
C380 C384 1.350 . S
C381 C384 1.463 . S
C381 C386 1.350 . S
C381 N389 1.427 . S
C382 H373 0.930 . S
C382 C380 1.378 1_554 S
C382 C383 1.367 . S
C383 C382 1.367 . S
C383 C385 1.433 1_554 S
C384 C380 1.350 . S
C384 C381 1.463 . S
C384 N388 1.427 . S
C385 H375 0.929 . S
C385 C383 1.433 1_556 S
C385 N388 1.384 . S
C386 H377 0.929 . S
C386 C378 1.378 . S
C386 C381 1.350 . S
C387 H374 0.929 . S
C387 C379 1.433 . S
C387 N389 1.384 . S
N388 C384 1.427 . S
N388 C385 1.384 . S
N389 C381 1.427 . S
N389 C387 1.384 . S
H390 C396 0.930 . S
H391 C400 0.930 . S
H392 C405 0.929 . S
H393 C403 0.929 . S
H394 C398 0.929 . S
H395 C404 0.929 . S
C396 H390 0.930 . S
C396 C397 1.367 . S
C396 C404 1.378 . S
C397 C396 1.367 . S
C397 C405 1.433 . S
C398 H394 0.929 . S
C398 C400 1.378 . S
C398 C402 1.350 . S
C399 C402 1.463 . S
C399 C404 1.350 . S
C399 N407 1.427 . S
C400 H391 0.930 . S
C400 C398 1.378 . S
C400 C401 1.367 . S
C401 C400 1.367 . S
C401 C403 1.433 . S
C402 C398 1.350 . S
C402 C399 1.463 . S
C402 N406 1.427 . S
C403 H393 0.929 . S
C403 C401 1.433 . S
C403 N406 1.384 . S
C404 H395 0.929 . S
C404 C396 1.378 . S
C404 C399 1.350 . S
C405 H392 0.929 . S
C405 C397 1.433 . S
C405 N407 1.384 . S
N406 C402 1.427 . S
N406 C403 1.384 . S
N407 C399 1.427 . S
N407 C405 1.384 . S
H408 C414 0.930 . S
H409 C418 0.930 . S
H410 C423 0.929 . S
H411 C421 0.929 . S
H412 C416 0.929 . S
H413 C422 0.929 . S
C414 H408 0.930 . S
C414 C415 1.367 . S
C414 C422 1.378 . S
C415 C414 1.367 . S
C415 C423 1.433 . S
C416 H412 0.929 . S
C416 C418 1.378 . S
C416 C420 1.350 . S
C417 C420 1.463 . S
C417 C422 1.350 . S
C417 N425 1.427 . S
C418 H409 0.930 . S
C418 C416 1.378 . S
C418 C419 1.367 . S
C419 C418 1.367 . S
C419 C421 1.433 . S
C420 C416 1.350 . S
C420 C417 1.463 . S
C420 N424 1.427 . S
C421 H411 0.929 . S
C421 C419 1.433 . S
C421 N424 1.384 . S
C422 H413 0.929 . S
C422 C414 1.378 . S
C422 C417 1.350 . S
C423 H410 0.929 . S
C423 C415 1.433 . S
C423 N425 1.384 . S
N424 C420 1.427 . S
N424 C421 1.384 . S
N425 C417 1.427 . S
N425 C423 1.384 . S
H426 C432 0.930 . S
H427 C436 0.930 . S
H428 C441 0.929 . S
H429 C439 0.929 . S
H430 C434 0.929 . S
H431 C440 0.929 . S
C432 H426 0.930 . S
C432 C433 1.367 . S
C432 C440 1.378 . S
C433 C432 1.367 . S
C433 C441 1.433 . S
C434 H430 0.929 . S
C434 C436 1.378 . S
C434 C438 1.350 . S
C435 C438 1.463 . S
C435 C440 1.350 . S
C435 N443 1.427 . S
C436 H427 0.930 . S
C436 C434 1.378 . S
C436 C437 1.367 . S
C437 C436 1.367 . S
C437 C439 1.433 . S
C438 C434 1.350 . S
C438 C435 1.463 . S
C438 N442 1.427 . S
C439 H429 0.929 . S
C439 C437 1.433 . S
C439 N442 1.384 . S
C440 H431 0.929 . S
C440 C432 1.378 . S
C440 C435 1.350 . S
C441 H428 0.929 . S
C441 C433 1.433 . S
C441 N443 1.384 . S
N442 C438 1.427 . S
N442 C439 1.384 . S
N443 C435 1.427 . S
N443 C441 1.384 . S
H444 C450 0.930 . S
H445 C454 0.930 . S
H446 C459 0.929 . S
H447 C457 0.929 . S
H448 C452 0.929 . S
H449 C458 0.929 . S
C450 H444 0.930 . S
C450 C451 1.367 . S
C450 C458 1.378 . S
C451 C450 1.367 . S
C451 C459 1.433 . S
C452 H448 0.929 . S
C452 C454 1.378 . S
C452 C456 1.350 . S
C453 C456 1.463 . S
C453 C458 1.350 . S
C453 N461 1.427 . S
C454 H445 0.930 . S
C454 C452 1.378 . S
C454 C455 1.367 . S
C455 C454 1.367 . S
C455 C457 1.433 . S
C456 C452 1.350 . S
C456 C453 1.463 . S
C456 N460 1.427 . S
C457 H447 0.929 . S
C457 C455 1.433 . S
C457 N460 1.384 . S
C458 H449 0.929 . S
C458 C450 1.378 . S
C458 C453 1.350 . S
C459 H446 0.929 . S
C459 C451 1.433 . S
C459 N461 1.384 . S
N460 C456 1.427 . S
N460 C457 1.384 . S
N461 C453 1.427 . S
N461 C459 1.384 . S
H462 C468 0.930 . S
H463 C472 0.930 . S
H464 C477 0.929 . S
H465 C475 0.929 . S
H466 C470 0.929 . S
H467 C476 0.929 . S
C468 H462 0.930 . S
C468 C469 1.367 . S
C468 C476 1.378 . S
C469 C468 1.367 . S
C469 C477 1.433 . S
C470 H466 0.929 . S
C470 C472 1.378 . S
C470 C474 1.350 . S
C471 C474 1.463 . S
C471 C476 1.350 . S
C471 N479 1.427 . S
C472 H463 0.930 . S
C472 C470 1.378 . S
C472 C473 1.367 . S
C473 C472 1.367 . S
C473 C475 1.433 . S
C474 C470 1.350 . S
C474 C471 1.463 . S
C474 N478 1.427 . S
C475 H465 0.929 . S
C475 C473 1.433 . S
C475 N478 1.384 . S
C476 H467 0.929 . S
C476 C468 1.378 . S
C476 C471 1.350 . S
C477 H464 0.929 . S
C477 C469 1.433 . S
C477 N479 1.384 . S
N478 C474 1.427 . S
N478 C475 1.384 . S
N479 C471 1.427 . S
N479 C477 1.384 . S
H480 C486 0.930 . S
H481 C490 0.930 . S
H482 C495 0.929 . S
H483 C493 0.929 . S
H484 C488 0.929 . S
H485 C494 0.929 . S
C486 H480 0.930 . S
C486 C487 1.367 . S
C486 C494 1.378 . S
C487 C486 1.367 . S
C487 C495 1.433 . S
C488 H484 0.929 . S
C488 C490 1.378 . S
C488 C492 1.350 . S
C489 C492 1.463 . S
C489 C494 1.350 . S
C489 N497 1.427 . S
C490 H481 0.930 . S
C490 C488 1.378 . S
C490 C491 1.367 . S
C491 C490 1.367 . S
C491 C493 1.433 . S
C492 C488 1.350 . S
C492 C489 1.463 . S
C492 N496 1.427 . S
C493 H483 0.929 . S
C493 C491 1.433 . S
C493 N496 1.384 . S
C494 H485 0.929 . S
C494 C486 1.378 . S
C494 C489 1.350 . S
C495 H482 0.929 . S
C495 C487 1.433 . S
C495 N497 1.384 . S
N496 C492 1.427 . S
N496 C493 1.384 . S
N497 C489 1.427 . S
N497 C495 1.384 . S
H498 C504 0.930 . S
H499 C508 0.930 . S
H500 C513 0.929 . S
H501 C511 0.929 . S
H502 C506 0.929 . S
H503 C512 0.929 . S
C504 H498 0.930 . S
C504 C505 1.367 . S
C504 C512 1.378 . S
C505 C504 1.367 . S
C505 C513 1.433 . S
C506 H502 0.929 . S
C506 C508 1.378 . S
C506 C510 1.350 . S
C507 C510 1.463 . S
C507 C512 1.350 . S
C507 N515 1.427 . S
C508 H499 0.930 . S
C508 C506 1.378 . S
C508 C509 1.367 . S
C509 C508 1.367 . S
C509 C511 1.433 . S
C510 C506 1.350 . S
C510 C507 1.463 . S
C510 N514 1.427 . S
C511 H501 0.929 . S
C511 C509 1.433 . S
C511 N514 1.384 . S
C512 H503 0.929 . S
C512 C504 1.378 . S
C512 C507 1.350 . S
C513 H500 0.929 . S
C513 C505 1.433 . S
C513 N515 1.384 . S
N514 C510 1.427 . S
N514 C511 1.384 . S
N515 C507 1.427 . S
N515 C513 1.384 . S
H516 C522 0.930 . S
H517 C526 0.930 . S
H518 C531 0.929 . S
H519 C529 0.929 . S
H520 C524 0.929 . S
H521 C530 0.929 . S
C522 H516 0.930 . S
C522 C523 1.367 . S
C522 C530 1.378 . S
C523 C522 1.367 . S
C523 C531 1.433 . S
C524 H520 0.929 . S
C524 C526 1.378 . S
C524 C528 1.350 . S
C525 C528 1.463 . S
C525 C530 1.350 . S
C525 N533 1.427 . S
C526 H517 0.930 . S
C526 C524 1.378 . S
C526 C527 1.367 . S
C527 C526 1.367 . S
C527 C529 1.433 . S
C528 C524 1.350 . S
C528 C525 1.463 . S
C528 N532 1.427 . S
C529 H519 0.929 . S
C529 C527 1.433 . S
C529 N532 1.384 . S
C530 H521 0.929 . S
C530 C522 1.378 . S
C530 C525 1.350 . S
C531 H518 0.929 . S
C531 C523 1.433 . S
C531 N533 1.384 . S
N532 C528 1.427 . S
N532 C529 1.384 . S
N533 C525 1.427 . S
N533 C531 1.384 . S
H534 C540 0.930 . S
H535 C544 0.930 . S
H536 C549 0.929 . S
H537 C547 0.929 . S
H538 C542 0.929 . S
H539 C548 0.929 . S
C540 H534 0.930 . S
C540 C541 1.367 . S
C540 C548 1.378 . S
C541 C540 1.367 . S
C541 C549 1.433 . S
C542 H538 0.929 . S
C542 C544 1.378 . S
C542 C546 1.350 . S
C543 C546 1.463 . S
C543 C548 1.350 . S
C543 N551 1.427 . S
C544 H535 0.930 . S
C544 C542 1.378 . S
C544 C545 1.367 . S
C545 C544 1.367 . S
C545 C547 1.433 . S
C546 C542 1.350 . S
C546 C543 1.463 . S
C546 N550 1.427 . S
C547 H537 0.929 . S
C547 C545 1.433 . S
C547 N550 1.384 . S
C548 H539 0.929 . S
C548 C540 1.378 . S
C548 C543 1.350 . S
C549 H536 0.929 . S
C549 C541 1.433 . S
C549 N551 1.384 . S
N550 C546 1.427 . S
N550 C547 1.384 . S
N551 C543 1.427 . S
N551 C549 1.384 . S
H552 C558 0.930 . S
H553 C562 0.930 . S
H554 C567 0.929 . S
H555 C565 0.929 . S
H556 C560 0.929 . S
H557 C566 0.929 . S
C558 H552 0.930 . S
C558 C559 1.367 . S
C558 C566 1.378 . S
C559 C558 1.367 . S
C559 C567 1.433 . S
C560 H556 0.929 . S
C560 C562 1.378 . S
C560 C564 1.350 . S
C561 C564 1.463 . S
C561 C566 1.350 . S
C561 N569 1.427 . S
C562 H553 0.930 . S
C562 C560 1.378 . S
C562 C563 1.367 . S
C563 C562 1.367 . S
C563 C565 1.433 . S
C564 C560 1.350 . S
C564 C561 1.463 . S
C564 N568 1.427 . S
C565 H555 0.929 . S
C565 C563 1.433 . S
C565 N568 1.384 . S
C566 H557 0.929 . S
C566 C558 1.378 . S
C566 C561 1.350 . S
C567 H554 0.929 . S
C567 C559 1.433 . S
C567 N569 1.384 . S
N568 C564 1.427 . S
N568 C565 1.384 . S
N569 C561 1.427 . S
N569 C567 1.384 . S
H570 C576 0.930 . S
H571 C580 0.930 . S
H572 C585 0.929 . S
H573 C583 0.929 . S
H574 C578 0.929 . S
H575 C584 0.929 1_455 S
C576 H570 0.930 . S
C576 C577 1.367 . S
C576 C584 1.378 . S
C577 C576 1.367 . S
C577 C585 1.433 . S
C578 H574 0.929 . S
C578 C580 1.378 . S
C578 C582 1.350 . S
C579 C582 1.463 . S
C579 C584 1.350 . S
C579 N587 1.427 . S
C580 H571 0.930 . S
C580 C578 1.378 . S
C580 C581 1.367 . S
C581 C580 1.367 . S
C581 C583 1.433 1_655 S
C582 C578 1.350 . S
C582 C579 1.463 . S
C582 N586 1.427 . S
C583 H573 0.929 . S
C583 C581 1.433 1_455 S
C583 N586 1.384 1_455 S
C584 H575 0.929 1_655 S
C584 C576 1.378 . S
C584 C579 1.350 . S
C585 H572 0.929 . S
C585 C577 1.433 . S
C585 N587 1.384 . S
N586 C582 1.427 . S
N586 C583 1.384 1_655 S
N587 C579 1.427 . S
N587 C585 1.384 . S
H588 C594 0.930 . S
H589 C598 0.930 . S
H590 C603 0.929 . S
H591 C601 0.929 . S
H592 C596 0.929 . S
H593 C602 0.929 . S
C594 H588 0.930 . S
C594 C595 1.367 . S
C594 C602 1.378 . S
C595 C594 1.367 . S
C595 C603 1.433 . S
C596 H592 0.929 . S
C596 C598 1.378 . S
C596 C600 1.350 . S
C597 C600 1.463 . S
C597 C602 1.350 . S
C597 N605 1.427 . S
C598 H589 0.930 . S
C598 C596 1.378 . S
C598 C599 1.367 . S
C599 C598 1.367 . S
C599 C601 1.433 . S
C600 C596 1.350 . S
C600 C597 1.463 . S
C600 N604 1.427 . S
C601 H591 0.929 . S
C601 C599 1.433 . S
C601 N604 1.384 . S
C602 H593 0.929 . S
C602 C594 1.378 . S
C602 C597 1.350 . S
C603 H590 0.929 . S
C603 C595 1.433 . S
C603 N605 1.384 . S
N604 C600 1.427 . S
N604 C601 1.384 . S
N605 C597 1.427 . S
N605 C603 1.384 . S
H606 C612 0.930 . S
H607 C616 0.930 . S
H608 C621 0.929 . S
H609 C619 0.929 . S
H610 C614 0.929 . S
H611 C620 0.929 . S
C612 H606 0.930 . S
C612 C613 1.367 . S
C612 C620 1.378 . S
C613 C612 1.367 . S
C613 C621 1.433 . S
C614 H610 0.929 . S
C614 C616 1.378 . S
C614 C618 1.350 . S
C615 C618 1.463 . S
C615 C620 1.350 . S
C615 N623 1.427 . S
C616 H607 0.930 . S
C616 C614 1.378 . S
C616 C617 1.367 . S
C617 C616 1.367 . S
C617 C619 1.433 . S
C618 C614 1.350 . S
C618 C615 1.463 . S
C618 N622 1.427 . S
C619 H609 0.929 . S
C619 C617 1.433 . S
C619 N622 1.384 . S
C620 H611 0.929 . S
C620 C612 1.378 . S
C620 C615 1.350 . S
C621 H608 0.929 . S
C621 C613 1.433 . S
C621 N623 1.384 . S
N622 C618 1.427 . S
N622 C619 1.384 . S
N623 C615 1.427 . S
N623 C621 1.384 . S
H624 C630 0.930 . S
H625 C634 0.930 . S
H626 C639 0.929 . S
H627 C637 0.929 . S
H628 C632 0.929 . S
H629 C638 0.929 . S
C630 H624 0.930 . S
C630 C631 1.367 . S
C630 C638 1.378 . S
C631 C630 1.367 . S
C631 C639 1.433 . S
C632 H628 0.929 . S
C632 C634 1.378 . S
C632 C636 1.350 . S
C633 C636 1.463 . S
C633 C638 1.350 . S
C633 N641 1.427 . S
C634 H625 0.930 . S
C634 C632 1.378 . S
C634 C635 1.367 . S
C635 C634 1.367 . S
C635 C637 1.433 . S
C636 C632 1.350 . S
C636 C633 1.463 . S
C636 N640 1.427 . S
C637 H627 0.929 . S
C637 C635 1.433 . S
C637 N640 1.384 . S
C638 H629 0.929 . S
C638 C630 1.378 . S
C638 C633 1.350 . S
C639 H626 0.929 . S
C639 C631 1.433 . S
C639 N641 1.384 . S
N640 C636 1.427 . S
N640 C637 1.384 . S
N641 C633 1.427 . S
N641 C639 1.384 . S
H642 C648 0.930 . S
H643 C652 0.930 . S
H644 C657 0.929 . S
H645 C655 0.929 . S
H646 C650 0.929 . S
H647 C656 0.929 . S
C648 H642 0.930 . S
C648 C649 1.367 . S
C648 C656 1.378 . S
C649 C648 1.367 . S
C649 C657 1.433 . S
C650 H646 0.929 . S
C650 C652 1.378 . S
C650 C654 1.350 . S
C651 C654 1.463 . S
C651 C656 1.350 . S
C651 N659 1.427 . S
C652 H643 0.930 . S
C652 C650 1.378 . S
C652 C653 1.367 . S
C653 C652 1.367 . S
C653 C655 1.433 . S
C654 C650 1.350 . S
C654 C651 1.463 . S
C654 N658 1.427 . S
C655 H645 0.929 . S
C655 C653 1.433 . S
C655 N658 1.384 . S
C656 H647 0.929 . S
C656 C648 1.378 . S
C656 C651 1.350 . S
C657 H644 0.929 . S
C657 C649 1.433 . S
C657 N659 1.384 . S
N658 C654 1.427 . S
N658 C655 1.384 . S
N659 C651 1.427 . S
N659 C657 1.384 . S
H660 C666 0.930 . S
H661 C670 0.930 . S
H662 C675 0.929 . S
H663 C673 0.929 . S
H664 C668 0.929 . S
H665 C674 0.929 . S
C666 H660 0.930 . S
C666 C667 1.367 . S
C666 C674 1.378 . S
C667 C666 1.367 . S
C667 C675 1.433 . S
C668 H664 0.929 . S
C668 C670 1.378 . S
C668 C672 1.350 . S
C669 C672 1.463 . S
C669 C674 1.350 . S
C669 N677 1.427 . S
C670 H661 0.930 . S
C670 C668 1.378 . S
C670 C671 1.367 . S
C671 C670 1.367 . S
C671 C673 1.433 . S
C672 C668 1.350 . S
C672 C669 1.463 . S
C672 N676 1.427 . S
C673 H663 0.929 . S
C673 C671 1.433 . S
C673 N676 1.384 . S
C674 H665 0.929 . S
C674 C666 1.378 . S
C674 C669 1.350 . S
C675 H662 0.929 . S
C675 C667 1.433 . S
C675 N677 1.384 . S
N676 C672 1.427 . S
N676 C673 1.384 . S
N677 C669 1.427 . S
N677 C675 1.384 . S
H678 C684 0.930 . S
H679 C688 0.930 . S
H680 C693 0.929 . S
H681 C691 0.929 . S
H682 C686 0.929 . S
H683 C692 0.929 . S
C684 H678 0.930 . S
C684 C685 1.367 . S
C684 C692 1.378 . S
C685 C684 1.367 . S
C685 C693 1.433 . S
C686 H682 0.929 . S
C686 C688 1.378 . S
C686 C690 1.350 . S
C687 C690 1.463 . S
C687 C692 1.350 . S
C687 N695 1.427 . S
C688 H679 0.930 . S
C688 C686 1.378 . S
C688 C689 1.367 . S
C689 C688 1.367 . S
C689 C691 1.433 . S
C690 C686 1.350 . S
C690 C687 1.463 . S
C690 N694 1.427 . S
C691 H681 0.929 . S
C691 C689 1.433 . S
C691 N694 1.384 . S
C692 H683 0.929 . S
C692 C684 1.378 . S
C692 C687 1.350 . S
C693 H680 0.929 . S
C693 C685 1.433 . S
C693 N695 1.384 . S
N694 C690 1.427 . S
N694 C691 1.384 . S
N695 C687 1.427 . S
N695 C693 1.384 . S
C271 C9 1.384 . S
C275 C121 1.444 . S
C289 C21 1.051 . S
C293 C161 1.083 . S
C311 C186 2.124 . S
C307 C30 2.139 . S
C325 C43 2.207 . S
C329 C226 2.287 . S
C347 C157 1.600 . S
C343 C4 1.427 . S
C365 C117 2.221 . S
C361 C22 2.157 . S
C383 C248 1.374 . S
C379 C34 1.409 . S
C401 C208 1.568 . S
C397 C48 1.576 . S
C415 C8 1.392 . S
C419 C250 1.410 . S
C437 C167 2.106 . S
C433 C35 2.124 . S
C451 C47 2.373 . S
C455 C127 2.322 . S
C469 C17 1.221 . S
C473 C210 1.265 . S
C491 C130 0.972 . S
C487 C60 0.966 . S
C505 C74 1.106 . S
C509 C170 1.128 . S
C523 C82 1.864 . S
C527 C207 1.874 . S
C541 C100 2.836 . S
C545 C247 2.767 . S
C559 C61 1.915 . S
C563 C168 1.990 . S
C581 C128 1.605 . S
C577 C73 1.547 . S
C599 C237 1.877 . S
C595 C87 1.897 . S
C617 C197 1.475 . S
C613 C95 1.490 . S
C631 C56 1.249 . S
C635 C241 1.237 . S
C653 C146 2.303 . S
C649 C86 2.340 . S
C671 C106 2.254 . S
C667 C99 2.286 . S
C685 C69 1.023 . S
C689 C201 1.142 . S
