# Generated by pormake.
# Topology anh, (6,3)-cn, num edge types: 1
# Building blocks:
#     Node 0, Type 0, BuildingBlock: MIFKUJ_clean_sbu_0, # of connection points: 6
#     Node 1, Type 0, BuildingBlock: MIFKUJ_clean_sbu_0, # of connection points: 6
#     Node 2, Type 0, BuildingBlock: MIFKUJ_clean_sbu_0, # of connection points: 6
#     Node 3, Type 1, BuildingBlock: VETTIZ_charged_linker_0, # of connection points: 3
#     Node 4, Type 1, BuildingBlock: VETTIZ_charged_linker_0, # of connection points: 3
#     Node 5, Type 1, BuildingBlock: VETTIZ_charged_linker_0, # of connection points: 3
#     Node 6, Type 1, BuildingBlock: VETTIZ_charged_linker_0, # of connection points: 3
#     Node 7, Type 1, BuildingBlock: VETTIZ_charged_linker_0, # of connection points: 3
#     Node 8, Type 1, BuildingBlock: VETTIZ_charged_linker_0, # of connection points: 3
#     Edge 9, Type (0, 1), BuildingBlock: KIFKEQ_clean_linker_1, # of connection points: 2
#     Edge 10, Type (0, 1), BuildingBlock: KIFKEQ_clean_linker_1, # of connection points: 2
#     Edge 11, Type (0, 1), BuildingBlock: KIFKEQ_clean_linker_1, # of connection points: 2
#     Edge 12, Type (0, 1), BuildingBlock: KIFKEQ_clean_linker_1, # of connection points: 2
#     Edge 13, Type (0, 1), BuildingBlock: KIFKEQ_clean_linker_1, # of connection points: 2
#     Edge 14, Type (0, 1), BuildingBlock: KIFKEQ_clean_linker_1, # of connection points: 2
#     Edge 15, Type (0, 1), BuildingBlock: KIFKEQ_clean_linker_1, # of connection points: 2
#     Edge 16, Type (0, 1), BuildingBlock: KIFKEQ_clean_linker_1, # of connection points: 2
#     Edge 17, Type (0, 1), BuildingBlock: KIFKEQ_clean_linker_1, # of connection points: 2
#     Edge 18, Type (0, 1), BuildingBlock: KIFKEQ_clean_linker_1, # of connection points: 2
#     Edge 19, Type (0, 1), BuildingBlock: KIFKEQ_clean_linker_1, # of connection points: 2
#     Edge 20, Type (0, 1), BuildingBlock: KIFKEQ_clean_linker_1, # of connection points: 2
#     Edge 21, Type (0, 1), BuildingBlock: KIFKEQ_clean_linker_1, # of connection points: 2
#     Edge 22, Type (0, 1), BuildingBlock: KIFKEQ_clean_linker_1, # of connection points: 2
#     Edge 23, Type (0, 1), BuildingBlock: KIFKEQ_clean_linker_1, # of connection points: 2
#     Edge 24, Type (0, 1), BuildingBlock: KIFKEQ_clean_linker_1, # of connection points: 2
#     Edge 25, Type (0, 1), BuildingBlock: KIFKEQ_clean_linker_1, # of connection points: 2
#     Edge 26, Type (0, 1), BuildingBlock: KIFKEQ_clean_linker_1, # of connection points: 2
# Relax obj value: 0.139
# Max RMSD: 0.186
# Mean RMSD: 0.147
data_MOF--net-anh--node1-MIFKUJ_clean_sbu_0--node2-VETTIZ_charged_linker_0--edge1-KIFKEQ_clean_linker_1
_symmetry_space_group_name_H-M    P1
_symmetry_Int_Tables_number       1
_symmetry_cell_setting            triclinic
loop_
_symmetry_equiv_pos_as_xyz
'x, y, z'
_cell_length_a     37.532636
_cell_length_b     37.543644
_cell_length_c     64.840928
_cell_angle_alpha  93.738896
_cell_angle_beta   90.79512
_cell_angle_gamma 119.99945
loop_
_atom_site_label
_atom_site_type_symbol
_atom_site_fract_x
_atom_site_fract_y
_atom_site_fract_z
_atom_type_partial_charge
Zn0 Zn 0.07357 0.57207 0.16544 0.0
Zn1 Zn 0.94275 0.4899 0.16732 0.0
C2 C 0.139 0.56177 0.17951 0.0
O3 O 0.13879 0.58657 0.19471 0.0
C4 C 0.87006 0.49286 0.16276 0.0
O5 O 0.86137 0.45998 0.15046 0.0
O6 O 0.10496 0.63202 0.15988 0.0
O7 O 0.02408 0.53912 0.14419 0.0
O8 O 0.9572 0.49586 0.13767 0.0
C9 C 0.12284 0.645 0.14323 0.0
O10 O 0.11967 0.61819 0.12821 0.0
O11 O 0.11299 0.55047 0.16422 0.0
C12 C 0.88394 0.41669 0.18504 0.0
O13 O 0.8785 0.44397 0.19615 0.0
O14 O 0.91291 0.42932 0.17258 0.0
O15 O 0.99643 0.52577 0.18199 0.0
O16 O 0.0568 0.56968 0.19528 0.0
O17 O 0.90523 0.51293 0.17226 0.0
C18 C 0.99315 0.51854 0.13129 0.0
C19 C 0.01922 0.54506 0.19797 0.0
Zn20 Zn 0.5602 0.06997 0.49572 0.0
Zn21 Zn 0.51174 0.9438 0.49644 0.0
C22 C 0.64461 0.12653 0.50946 0.0
O23 O 0.62759 0.13117 0.52623 0.0
C24 C 0.44579 0.86039 0.48836 0.0
O25 O 0.47403 0.85782 0.47767 0.0
O26 O 0.54414 0.11338 0.49384 0.0
O27 O 0.53674 0.03175 0.46991 0.0
O28 O 0.51257 0.96418 0.46838 0.0
C29 C 0.55486 0.13623 0.47885 0.0
O30 O 0.57546 0.1302 0.46413 0.0
O31 O 0.62182 0.10042 0.49478 0.0
C32 C 0.54267 0.89823 0.5136 0.0
O33 O 0.51545 0.89614 0.52673 0.0
O34 O 0.54992 0.92066 0.49859 0.0
O35 O 0.51985 0.9804 0.52215 0.0
O36 O 0.54401 0.04791 0.52348 0.0
O37 O 0.4544 0.89488 0.49761 0.0
C38 C 0.52101 0.99673 0.45973 0.0
C39 C 0.52988 0.01452 0.53224 0.0
Zn40 Zn 0.54071 0.4873 0.83687 0.0
Zn41 Zn 0.49893 0.56929 0.83459 0.0
C42 C 0.53242 0.41351 0.85253 0.0
O43 O 0.54583 0.43723 0.86994 0.0
C44 C 0.55687 0.6498 0.82252 0.0
O45 O 0.54767 0.6297 0.8041 0.0
O46 O 0.60293 0.51834 0.839 0.0
O47 O 0.52211 0.49462 0.80915 0.0
O48 O 0.50297 0.54169 0.8077 0.0
C49 C 0.6231 0.52372 0.82274 0.0
O50 O 0.60319 0.513 0.80455 0.0
O51 O 0.52642 0.4279 0.83643 0.0
C52 C 0.41074 0.53984 0.82842 0.0
O53 O 0.40623 0.50279 0.82819 0.0
O54 O 0.44664 0.57128 0.831 0.0
O55 O 0.49535 0.54357 0.86134 0.0
O56 O 0.51763 0.49884 0.86256 0.0
O57 O 0.54229 0.62959 0.83822 0.0
C58 C 0.51001 0.51471 0.79895 0.0
C59 C 0.5018 0.51878 0.87102 0.0
C60 C 0.61495 0.10612 0.18094 0.0
C61 C 0.65312 0.12934 0.19223 0.0
C62 C 0.6569 0.12005 0.21256 0.0
C63 C 0.58445 0.06887 0.21105 0.0
C64 C 0.58112 0.07571 0.19061 0.0
C65 C 0.53805 0.0478 0.18118 0.0
H66 H 0.33858 0.90742 0.19567 0.0
C67 C 0.54317 0.03878 0.21732 0.0
C68 C 0.51573 0.02587 0.19989 0.0
H69 H 0.39442 0.94612 0.13745 0.0
H70 H 0.46024 0.99336 0.15575 0.0
H71 H 0.40653 0.8945 0.21336 0.0
H72 H 0.38828 0.99872 0.22234 0.0
H73 H 0.40449 0.99156 0.24649 0.0
H74 H 0.35687 0.95116 0.23378 0.0
H75 H 0.36749 0.89385 0.22927 0.0
H76 H 0.41925 0.9126 0.23956 0.0
C77 C 0.53952 0.01759 0.16419 0.0
C78 C 0.52124 0.07476 0.17318 0.0
C79 C 0.52191 0.01162 0.29314 0.0
C80 C 0.48665 0.98907 0.30432 0.0
C81 C 0.44784 0.96703 0.29348 0.0
C82 C 0.44423 0.96774 0.27198 0.0
C83 C 0.47977 0.9908 0.2611 0.0
C84 C 0.51773 0.01228 0.27172 0.0
C85 C 0.55198 0.03632 0.25781 0.0
C86 C 0.52836 0.02532 0.237 0.0
C87 C 0.48617 0.99867 0.23903 0.0
C88 C 0.58246 0.0198 0.25838 0.0
C89 C 0.57122 0.08275 0.26506 0.0
C90 C 0.36472 0.92691 0.18688 0.0
C91 C 0.36135 0.92376 0.16518 0.0
C92 C 0.39639 0.94841 0.15421 0.0
C93 C 0.43449 0.97544 0.16483 0.0
C94 C 0.4376 0.97707 0.18657 0.0
C95 C 0.40296 0.953 0.19717 0.0
C96 C 0.41231 0.9557 0.21999 0.0
C97 C 0.45846 0.98472 0.22138 0.0
C98 C 0.47313 0.99784 0.20185 0.0
C99 C 0.40065 0.912 0.22606 0.0
C100 C 0.3892 0.97499 0.23141 0.0
H101 H 0.62763 0.08528 0.23768 0.0
H102 H 0.61139 0.11217 0.16516 0.0
H103 H 0.52658 0.09971 0.18521 0.0
H104 H 0.48775 0.05714 0.16938 0.0
H105 H 0.5369 0.08948 0.15915 0.0
H106 H 0.56637 0.01325 0.16696 0.0
H107 H 0.54201 0.02913 0.14863 0.0
H108 H 0.51236 0.98618 0.16392 0.0
H109 H 0.55229 0.02853 0.30086 0.0
H110 H 0.42006 0.94986 0.30167 0.0
H111 H 0.41382 0.95052 0.26469 0.0
H112 H 0.56641 0.98658 0.26134 0.0
H113 H 0.6071 0.03692 0.27079 0.0
H114 H 0.59672 0.02106 0.24342 0.0
H115 H 0.54697 0.0899 0.26986 0.0
H116 H 0.58684 0.10343 0.25282 0.0
H117 H 0.59341 0.09152 0.27855 0.0
H118 H 0.68581 0.13761 0.22163 0.0
C119 C 0.62288 0.08999 0.22199 0.0
C120 C 0.60558 0.64567 0.52276 0.0
C121 C 0.61379 0.68217 0.53444 0.0
C122 C 0.6186 0.68452 0.55616 0.0
C123 C 0.60187 0.61327 0.55447 0.0
C124 C 0.6003 0.61176 0.53311 0.0
C125 C 0.59148 0.57035 0.52339 0.0
H126 H 0.53403 0.37102 0.53604 0.0
C127 C 0.59077 0.57199 0.56057 0.0
C128 C 0.58537 0.54674 0.54246 0.0
H129 H 0.5679 0.43194 0.47941 0.0
H130 H 0.58137 0.49628 0.49796 0.0
H131 H 0.60734 0.43848 0.56261 0.0
H132 H 0.48369 0.41596 0.55445 0.0
H133 H 0.49764 0.42719 0.58105 0.0
H134 H 0.49655 0.38304 0.5677 0.0
H135 H 0.56555 0.39956 0.57566 0.0
H136 H 0.59519 0.4523 0.58674 0.0
C137 C 0.6298 0.57645 0.51187 0.0
C138 C 0.55158 0.55165 0.50935 0.0
C139 C 0.56 0.54004 0.63541 0.0
C140 C 0.54683 0.50393 0.64559 0.0
C141 C 0.54166 0.46809 0.63439 0.0
C142 C 0.54849 0.4679 0.61322 0.0
C143 C 0.56082 0.504 0.60312 0.0
C144 C 0.56707 0.53946 0.61428 0.0
C145 C 0.58149 0.57524 0.6011 0.0
C146 C 0.58188 0.55506 0.58006 0.0
C147 C 0.56931 0.51332 0.58134 0.0
C148 C 0.62534 0.60928 0.60931 0.0
C149 C 0.54894 0.5891 0.60147 0.0
C150 C 0.54362 0.39804 0.52755 0.0
C151 C 0.54918 0.39644 0.50624 0.0
C152 C 0.56313 0.43256 0.49584 0.0
C153 C 0.57105 0.46976 0.50663 0.0
C154 C 0.56553 0.47083 0.52806 0.0
C155 C 0.55234 0.43532 0.53811 0.0
C156 C 0.55038 0.44226 0.56101 0.0
C157 C 0.56479 0.48793 0.56318 0.0
C158 C 0.57306 0.50452 0.54384 0.0
C159 C 0.58087 0.43245 0.57224 0.0
C160 C 0.50485 0.41567 0.56654 0.0
H161 H 0.61559 0.6537 0.58278 0.0
H162 H 0.60238 0.64333 0.50602 0.0
H163 H 0.52716 0.55444 0.51757 0.0
H164 H 0.53862 0.51848 0.50484 0.0
H165 H 0.55712 0.56797 0.49502 0.0
H166 H 0.65856 0.60332 0.5191 0.0
H167 H 0.62744 0.58203 0.49542 0.0
H168 H 0.63484 0.54994 0.51258 0.0
H169 H 0.56499 0.56824 0.64377 0.0
H170 H 0.53153 0.43993 0.64197 0.0
H171 H 0.54353 0.43951 0.60552 0.0
H172 H 0.64131 0.5964 0.61816 0.0
H173 H 0.62425 0.63332 0.61977 0.0
H174 H 0.64582 0.62418 0.59663 0.0
H175 H 0.51731 0.56186 0.59915 0.0
H176 H 0.55174 0.60897 0.5891 0.0
H177 H 0.55084 0.60588 0.61658 0.0
H178 H 0.62472 0.7122 0.56548 0.0
C179 C 0.61274 0.65033 0.56621 0.0
C180 C 0.13672 0.57102 0.84823 0.0
C181 C 0.17233 0.57576 0.85853 0.0
C182 C 0.17532 0.57924 0.88032 0.0
C183 C 0.1076 0.57161 0.88141 0.0
C184 C 0.10488 0.56955 0.86003 0.0
C185 C 0.06518 0.56614 0.85206 0.0
H186 H 0.87758 0.54066 0.87439 0.0
C187 C 0.06912 0.56731 0.88922 0.0
C188 C 0.04401 0.56443 0.87216 0.0
H189 H 0.929 0.55633 0.81429 0.0
H190 H 0.99212 0.56329 0.82964 0.0
H191 H 0.90637 0.48116 0.88904 0.0
H192 H 0.95784 0.61238 0.89843 0.0
H193 H 0.96489 0.59626 0.92218 0.0
H194 H 0.91339 0.57641 0.91116 0.0
H195 H 0.88665 0.50421 0.9072 0.0
H196 H 0.92774 0.49496 0.91449 0.0
C197 C 0.0411 0.52571 0.8379 0.0
C198 C 0.07592 0.6055 0.84116 0.0
C199 C 0.04515 0.55476 0.96613 0.0
C200 C 0.01083 0.54646 0.97769 0.0
C201 C 0.97536 0.54254 0.96766 0.0
C202 C 0.97385 0.54635 0.94639 0.0
C203 C 0.00807 0.55387 0.93491 0.0
C204 C 0.04294 0.55799 0.94479 0.0
C205 C 0.07568 0.56448 0.92992 0.0
C206 C 0.0547 0.56377 0.90954 0.0
C207 C 0.01528 0.55765 0.91262 0.0
C208 C 0.08316 0.52747 0.93042 0.0
C209 C 0.11419 0.60729 0.93602 0.0
C210 C 0.90229 0.54529 0.86446 0.0
C211 C 0.89826 0.5473 0.84313 0.0
C212 C 0.93151 0.55448 0.8308 0.0
C213 C 0.96795 0.55847 0.83974 0.0
C214 C 0.97114 0.55579 0.86122 0.0
C215 C 0.93858 0.54973 0.87311 0.0
C216 C 0.94686 0.54865 0.89563 0.0
C217 C 0.99003 0.55535 0.89556 0.0
C218 C 0.00425 0.5591 0.8754 0.0
C219 C 0.91527 0.50523 0.90213 0.0
C220 C 0.94546 0.58502 0.90764 0.0
H221 H 0.1475 0.57967 0.90827 0.0
H222 H 0.13392 0.5688 0.83149 0.0
H223 H 0.10304 0.63303 0.84918 0.0
H224 H 0.05096 0.61296 0.84146 0.0
H225 H 0.08351 0.6026 0.82486 0.0
H226 H 0.0407 0.49962 0.84531 0.0
H227 H 0.05566 0.52847 0.82284 0.0
H228 H 0.00858 0.51667 0.83484 0.0
H229 H 0.07267 0.55753 0.97342 0.0
H230 H 0.94872 0.53658 0.97632 0.0
H231 H 0.9459 0.54294 0.93973 0.0
H232 H 0.05369 0.49826 0.9319 0.0
H233 H 0.10418 0.53188 0.9438 0.0
H234 H 0.09565 0.52165 0.91612 0.0
H235 H 0.10545 0.62914 0.94353 0.0
H236 H 0.1311 0.62268 0.92247 0.0
H237 H 0.13558 0.60483 0.94708 0.0
H238 H 0.20227 0.58257 0.88856 0.0
C239 C 0.1433 0.57723 0.89176 0.0
C240 C 0.93521 0.39359 0.47374 0.0
C241 C 0.90033 0.35826 0.46442 0.0
C242 C 0.88944 0.35686 0.44341 0.0
C243 C 0.94688 0.42582 0.44131 0.0
C244 C 0.95838 0.42682 0.4618 0.0
C245 C 0.99774 0.46613 0.46864 0.0
H246 H 0.15621 0.64814 0.44276 0.0
C247 C 0.97639 0.46537 0.43334 0.0
C248 C 0.00651 0.4892 0.44921 0.0
H249 H 0.14477 0.59134 0.49995 0.0
H250 H 0.07592 0.53638 0.48834 0.0
H251 H 0.12154 0.56686 0.41321 0.0
H252 H 0.06546 0.63353 0.43963 0.0
H253 H 0.03904 0.6113 0.41553 0.0
H254 H 0.09363 0.64828 0.41664 0.0
H255 H 0.13286 0.61682 0.40622 0.0
H256 H 0.09113 0.57034 0.39346 0.0
C257 C 0.03107 0.45478 0.47385 0.0
C258 C 0.98891 0.4887 0.4869 0.0
C259 C 0.95691 0.49244 0.35926 0.0
C260 C 0.97876 0.52697 0.34786 0.0
C261 C 0.01185 0.56332 0.35778 0.0
C262 C 0.02389 0.56491 0.37847 0.0
C263 C 0.00283 0.52973 0.38945 0.0
C264 C 0.96927 0.49466 0.38004 0.0
C265 C 0.94976 0.46093 0.39449 0.0
C266 C 0.97776 0.48137 0.41393 0.0
C267 C 0.00907 0.52134 0.41071 0.0
C268 C 0.95244 0.42326 0.38521 0.0
C269 C 0.90535 0.45223 0.39773 0.0
C270 C 0.13885 0.62385 0.4528 0.0
C271 C 0.15603 0.62345 0.47206 0.0
C272 C 0.13215 0.59202 0.48495 0.0
C273 C 0.09248 0.56002 0.47809 0.0
C274 C 0.07678 0.5596 0.45815 0.0
C275 C 0.09965 0.59179 0.44613 0.0
C276 C 0.0789 0.58653 0.42532 0.0
C277 C 0.0404 0.54495 0.42639 0.0
C278 C 0.03913 0.52917 0.44562 0.0
C279 C 0.10743 0.58527 0.40855 0.0
C280 C 0.06887 0.62175 0.42402 0.0
H281 H 0.90218 0.38757 0.41598 0.0
H282 H 0.94434 0.3951 0.48984 0.0
H283 H 0.95936 0.48805 0.48377 0.0
H284 H 0.01262 0.52164 0.4895 0.0
H285 H 0.9864 0.47369 0.50145 0.0
H286 H 0.02642 0.42743 0.46381 0.0
H287 H 0.0301 0.44721 0.49018 0.0
H288 H 0.06251 0.47935 0.47098 0.0
H289 H 0.93108 0.46421 0.35212 0.0
H290 H 0.02952 0.59019 0.3493 0.0
H291 H 0.04985 0.59319 0.38495 0.0
H292 H 0.98106 0.43334 0.3767 0.0
H293 H 0.92588 0.40325 0.37415 0.0
H294 H 0.95427 0.40443 0.39713 0.0
H295 H 0.90401 0.4812 0.39794 0.0
H296 H 0.89381 0.43992 0.41274 0.0
H297 H 0.88359 0.43054 0.38506 0.0
H298 H 0.86249 0.32993 0.43604 0.0
C299 C 0.91236 0.39046 0.43184 0.0
C300 C 0.58081 0.94779 0.81476 0.0
C301 C 0.58777 0.91864 0.80351 0.0
C302 C 0.58383 0.91505 0.78175 0.0
C303 C 0.56588 0.96855 0.78251 0.0
C304 C 0.5704 0.97286 0.80389 0.0
C305 C 0.56372 0.00706 0.81294 0.0
H306 H 0.52547 0.16171 0.79473 0.0
C307 C 0.55456 0.99844 0.77577 0.0
C308 C 0.55342 0.0215 0.79347 0.0
H309 H 0.55359 0.13325 0.85409 0.0
H310 H 0.55452 0.07342 0.8376 0.0
H311 H 0.58933 0.15184 0.77123 0.0
H312 H 0.46086 0.06699 0.77755 0.0
H313 H 0.47048 0.05986 0.75163 0.0
H314 H 0.47888 0.10958 0.76174 0.0
H315 H 0.54959 0.15511 0.75729 0.0
H316 H 0.57068 0.12419 0.74699 0.0
C317 C 0.60456 0.04083 0.82416 0.0
C318 C 0.52699 0.98836 0.82709 0.0
C319 C 0.52966 0.00315 0.69892 0.0
C320 C 0.52098 0.02914 0.68786 0.0
C321 C 0.51499 0.05921 0.6988 0.0
C322 C 0.51821 0.0638 0.72045 0.0
C323 C 0.52804 0.03839 0.73133 0.0
C324 C 0.5333 0.00851 0.72058 0.0
C325 C 0.54481 0.98524 0.73473 0.0
C326 C 0.54545 0.00608 0.75576 0.0
C327 C 0.5356 0.03703 0.75361 0.0
C328 C 0.58814 0.99278 0.7294 0.0
C329 C 0.51014 0.93938 0.73232 0.0
C330 C 0.53177 0.14256 0.80422 0.0
C331 C 0.5402 0.15239 0.82558 0.0
C332 C 0.54735 0.12629 0.83751 0.0
C333 C 0.54821 0.09192 0.82789 0.0
C334 C 0.5418 0.08385 0.8062 0.0
C335 C 0.53292 0.10871 0.79492 0.0
C336 C 0.52734 0.09672 0.77214 0.0
C337 C 0.53516 0.06093 0.77132 0.0
C338 C 0.54367 0.05322 0.79122 0.0
C339 C 0.5606 0.13374 0.76117 0.0
C340 C 0.48221 0.08278 0.76521 0.0
H341 H 0.56998 0.93493 0.75469 0.0
H342 H 0.58378 0.95119 0.83151 0.0
H343 H 0.50149 0.95874 0.81966 0.0
H344 H 0.51362 0.0084 0.8301 0.0
H345 H 0.53626 0.98196 0.84213 0.0
H346 H 0.63136 0.04544 0.81516 0.0
H347 H 0.6086 0.03211 0.8397 0.0
H348 H 0.60687 0.07134 0.82587 0.0
H349 H 0.53492 0.98011 0.69088 0.0
H350 H 0.50794 0.07931 0.69055 0.0
H351 H 0.51358 0.08747 0.72782 0.0
H352 H 0.60652 0.02261 0.7224 0.0
H353 H 0.58588 0.96799 0.71818 0.0
H354 H 0.60715 0.99547 0.74325 0.0
H355 H 0.47935 0.93685 0.73095 0.0
H356 H 0.50888 0.9224 0.74582 0.0
H357 H 0.51346 0.92312 0.71819 0.0
H358 H 0.58843 0.89239 0.77282 0.0
C359 C 0.5728 0.93962 0.77124 0.0
C360 C 0.61645 0.55482 0.15631 0.0
C361 C 0.65207 0.56179 0.14623 0.0
C362 C 0.65359 0.56605 0.12479 0.0
C363 C 0.58341 0.55222 0.12334 0.0
C364 C 0.58262 0.55051 0.14458 0.0
C365 C 0.54205 0.54286 0.15254 0.0
H366 H 0.34593 0.49747 0.13076 0.0
C367 C 0.54237 0.54263 0.11539 0.0
C368 C 0.51796 0.53744 0.1324 0.0
H369 H 0.40942 0.52837 0.19097 0.0
H370 H 0.47067 0.53538 0.17511 0.0
H371 H 0.41801 0.56853 0.10992 0.0
H372 H 0.38143 0.44037 0.11125 0.0
H373 H 0.39723 0.45379 0.08619 0.0
H374 H 0.35393 0.45732 0.09556 0.0
H375 H 0.37319 0.52799 0.09558 0.0
H376 H 0.42329 0.55137 0.08493 0.0
C377 C 0.54978 0.58165 0.16632 0.0
C378 C 0.52285 0.50279 0.16384 0.0
C379 C 0.51059 0.52488 0.03772 0.0
C380 C 0.47437 0.51273 0.02554 0.0
C381 C 0.43781 0.50303 0.03554 0.0
C382 C 0.43743 0.50572 0.05718 0.0
C383 C 0.47393 0.51813 0.06907 0.0
C384 C 0.50958 0.5271 0.05931 0.0
C385 C 0.54513 0.53851 0.07443 0.0
C386 C 0.52506 0.53565 0.0949 0.0
C387 C 0.48346 0.52375 0.09164 0.0
C388 C 0.57951 0.58325 0.07143 0.0
C389 C 0.55825 0.50552 0.07094 0.0
C390 C 0.3727 0.50478 0.14059 0.0
C391 C 0.37282 0.51168 0.16211 0.0
C392 C 0.40871 0.52265 0.17434 0.0
C393 C 0.44416 0.52692 0.1651 0.0
C394 C 0.44379 0.52087 0.14343 0.0
C395 C 0.40839 0.51005 0.1316 0.0
C396 C 0.4141 0.50775 0.1088 0.0
C397 C 0.45895 0.51938 0.10877 0.0
C398 C 0.47613 0.52652 0.12906 0.0
C399 C 0.40655 0.54028 0.09911 0.0
C400 C 0.38509 0.46264 0.09979 0.0
H401 H 0.62234 0.56394 0.09698 0.0
H402 H 0.61473 0.55196 0.17283 0.0
H403 H 0.52461 0.47792 0.15442 0.0
H404 H 0.48994 0.49059 0.16652 0.0
H405 H 0.5395 0.50787 0.17901 0.0
H406 H 0.57757 0.60994 0.1619 0.0
H407 H 0.55458 0.57851 0.1829 0.0
H408 H 0.5244 0.58835 0.1646 0.0
H409 H 0.53937 0.53302 0.03065 0.0
H410 H 0.40928 0.49289 0.02662 0.0
H411 H 0.40864 0.49798 0.06379 0.0
H412 H 0.5663 0.60197 0.06602 0.0
H413 H 0.60107 0.58363 0.05977 0.0
H414 H 0.59721 0.60019 0.08603 0.0
H415 H 0.5308 0.47422 0.06763 0.0
H416 H 0.57435 0.50296 0.08461 0.0
H417 H 0.57817 0.51181 0.05757 0.0
H418 H 0.68052 0.57104 0.11665 0.0
C419 C 0.61953 0.56135 0.11332 0.0
H420 H 0.1948 0.5764 0.21108 0.0
H421 H 0.15335 0.51711 0.14919 0.0
H422 H 0.24841 0.55781 0.21132 0.0
H423 H 0.20751 0.49949 0.14922 0.0
H424 H 0.29233 0.45154 0.15614 0.0
H425 H 0.23229 0.45814 0.16379 0.0
H426 H 0.31227 0.57929 0.19462 0.0
H427 H 0.37201 0.57202 0.18738 0.0
C428 C 0.19703 0.55928 0.19754 0.0
C429 C 0.17 0.54847 0.18004 0.0
C430 C 0.22784 0.54872 0.19768 0.0
C431 C 0.23232 0.52718 0.18031 0.0
C432 C 0.20454 0.51546 0.16302 0.0
C433 C 0.17366 0.52588 0.16291 0.0
C434 C 0.29681 0.47906 0.16503 0.0
C435 C 0.33668 0.51142 0.17104 0.0
C436 C 0.26255 0.48302 0.16926 0.0
C437 C 0.26753 0.5196 0.17942 0.0
C438 C 0.30726 0.55061 0.18685 0.0
C439 C 0.34154 0.54648 0.18275 0.0
H440 H 0.68569 0.13315 0.47429 0.0
H441 H 0.70284 0.18597 0.53738 0.0
H442 H 0.75403 0.18714 0.46721 0.0
H443 H 0.77242 0.23957 0.5305 0.0
H444 H 0.85805 0.35929 0.49787 0.0
H445 H 0.80124 0.29959 0.51201 0.0
H446 H 0.82584 0.21852 0.47192 0.0
H447 H 0.8812 0.27848 0.45717 0.0
C448 C 0.70446 0.15576 0.48683 0.0
C449 C 0.68858 0.15551 0.50633 0.0
C450 C 0.74399 0.18669 0.48281 0.0
C451 C 0.76891 0.21801 0.49826 0.0
C452 C 0.75387 0.21638 0.51814 0.0
C453 C 0.71406 0.18552 0.52212 0.0
C454 C 0.85186 0.32866 0.49255 0.0
C455 C 0.8735 0.32322 0.47637 0.0
C456 C 0.81938 0.29437 0.50066 0.0
C457 C 0.80836 0.25406 0.49285 0.0
C458 C 0.83268 0.24901 0.47791 0.0
C459 C 0.86462 0.28325 0.46959 0.0
H460 H 0.56257 0.70014 0.85657 0.0
H461 H 0.59348 0.70235 0.79254 0.0
H462 H 0.58129 0.77261 0.85732 0.0
H463 H 0.61155 0.77418 0.79321 0.0
H464 H 0.65146 0.90493 0.79703 0.0
H465 H 0.65592 0.84528 0.80637 0.0
H466 H 0.54714 0.80598 0.8414 0.0
H467 H 0.54345 0.86627 0.83236 0.0
C468 C 0.57424 0.71629 0.8428 0.0
C469 C 0.57606 0.69532 0.82439 0.0
C470 C 0.58471 0.75775 0.84321 0.0
C471 C 0.59756 0.77914 0.8253 0.0
C472 C 0.60218 0.75889 0.80738 0.0
C473 C 0.59154 0.7175 0.80693 0.0
C474 C 0.62933 0.88416 0.80727 0.0
C475 C 0.59683 0.8898 0.8138 0.0
C476 C 0.6317 0.8499 0.81251 0.0
C477 C 0.60138 0.82038 0.82425 0.0
C478 C 0.57111 0.82818 0.83241 0.0
C479 C 0.56893 0.8627 0.82725 0.0
H480 H 0.88151 0.56683 0.17977 0.0
H481 H 0.78802 0.44678 0.15276 0.0
H482 H 0.82966 0.58816 0.18258 0.0
H483 H 0.73665 0.46796 0.15562 0.0
H484 H 0.6452 0.50351 0.17124 0.0
H485 H 0.69973 0.48953 0.18124 0.0
H486 H 0.78932 0.60024 0.15475 0.0
H487 H 0.73487 0.61447 0.145 0.0
C488 C 0.84987 0.5449 0.17467 0.0
C489 C 0.83883 0.50531 0.16582 0.0
C490 C 0.82029 0.5571 0.17629 0.0
C491 C 0.77915 0.52963 0.16944 0.0
C492 C 0.76798 0.48958 0.16135 0.0
C493 C 0.79752 0.47761 0.15947 0.0
C494 C 0.67675 0.52566 0.16828 0.0
C495 C 0.68583 0.55976 0.15711 0.0
C496 C 0.70787 0.51748 0.17384 0.0
C497 C 0.74855 0.54344 0.16845 0.0
C498 C 0.75824 0.57974 0.15913 0.0
C499 C 0.72709 0.58776 0.15344 0.0
H500 H 0.42226 0.78072 0.47579 0.0
H501 H 0.37638 0.8566 0.50368 0.0
H502 H 0.35367 0.72041 0.47541 0.0
H503 H 0.30726 0.79622 0.50277 0.0
H504 H 0.18974 0.67254 0.50839 0.0
H505 H 0.2616 0.72792 0.51552 0.0
H506 H 0.29143 0.69923 0.45482 0.0
H507 H 0.22073 0.64397 0.44806 0.0
C508 C 0.39752 0.78453 0.48186 0.0
C509 C 0.4046 0.82355 0.48945 0.0
C510 C 0.35818 0.74995 0.48163 0.0
C511 C 0.32489 0.75359 0.48883 0.0
C512 C 0.3323 0.79231 0.49726 0.0
C513 C 0.37182 0.82696 0.49761 0.0
C514 C 0.21201 0.67784 0.4968 0.0
C515 C 0.19972 0.65436 0.47761 0.0
C516 C 0.25295 0.70964 0.50078 0.0
C517 C 0.28221 0.71802 0.48572 0.0
C518 C 0.26993 0.69337 0.46687 0.0
C519 C 0.22928 0.66195 0.4629 0.0
H520 H 0.51827 0.36271 0.81763 0.0
H521 H 0.53978 0.37155 0.88393 0.0
H522 H 0.52117 0.29928 0.81441 0.0
H523 H 0.54242 0.30744 0.88056 0.0
H524 H 0.49899 0.16405 0.85775 0.0
H525 H 0.49518 0.22687 0.86676 0.0
H526 H 0.58433 0.29016 0.82163 0.0
H527 H 0.58836 0.22827 0.81288 0.0
C528 C 0.5231 0.3509 0.83156 0.0
C529 C 0.52924 0.37247 0.85101 0.0
C530 C 0.52494 0.31465 0.82969 0.0
C531 C 0.53259 0.29888 0.84722 0.0
C532 C 0.53656 0.31907 0.86682 0.0
C533 C 0.53516 0.35576 0.8687 0.0
C534 C 0.51849 0.19183 0.85024 0.0
C535 C 0.54356 0.19134 0.83446 0.0
C536 C 0.51618 0.22757 0.85529 0.0
C537 C 0.53878 0.26291 0.84451 0.0
C538 C 0.56593 0.26304 0.82983 0.0
C539 C 0.56838 0.22774 0.82492 0.0
H540 H 0.61119 0.9033 0.49596 0.0
H541 H 0.50906 0.82724 0.53261 0.0
H542 H 0.6343 0.85236 0.49645 0.0
H543 H 0.53142 0.77657 0.53251 0.0
H544 H 0.55345 0.67492 0.50802 0.0
H545 H 0.54041 0.73006 0.49959 0.0
H546 H 0.65567 0.82047 0.53119 0.0
H547 H 0.66863 0.76518 0.53993 0.0
C548 C 0.59378 0.87584 0.50408 0.0
C549 C 0.55848 0.86933 0.51435 0.0
C550 C 0.60691 0.84683 0.5043 0.0
C551 C 0.58421 0.81052 0.51428 0.0
C552 C 0.54907 0.80415 0.52449 0.0
C553 C 0.53656 0.83337 0.5247 0.0
C554 C 0.57674 0.70665 0.51249 0.0
C555 C 0.61191 0.71584 0.52473 0.0
C556 C 0.56916 0.7381 0.50776 0.0
C557 C 0.59699 0.77926 0.51487 0.0
C558 C 0.63396 0.78892 0.52547 0.0
C559 C 0.64125 0.75736 0.5305 0.0
H560 H 0.67674 0.54242 0.79157 0.0
H561 H 0.66811 0.52845 0.85728 0.0
H562 H 0.74513 0.54907 0.79333 0.0
H563 H 0.73593 0.53477 0.85886 0.0
H564 H 0.82157 0.48468 0.84853 0.0
H565 H 0.75671 0.48312 0.84199 0.0
H566 H 0.82083 0.59665 0.81223 0.0
H567 H 0.88648 0.59849 0.81906 0.0
C568 C 0.68965 0.54141 0.80642 0.0
C569 C 0.66682 0.5345 0.82426 0.0
C570 C 0.72875 0.54527 0.80738 0.0
C571 C 0.74534 0.54171 0.82614 0.0
C572 C 0.72346 0.53696 0.84413 0.0
C573 C 0.68474 0.53363 0.84324 0.0
C574 C 0.82175 0.50892 0.84025 0.0
C575 C 0.85899 0.54197 0.83452 0.0
C576 C 0.78473 0.50816 0.83663 0.0
C577 C 0.78404 0.54028 0.82707 0.0
C578 C 0.82072 0.57168 0.81976 0.0
C579 C 0.85811 0.5726 0.82353 0.0
H580 H 0.1683 0.68404 0.11063 0.0
H581 H 0.14125 0.70736 0.17296 0.0
H582 H 0.22101 0.75673 0.11042 0.0
H583 H 0.19434 0.77913 0.17302 0.0
H584 H 0.28343 0.90905 0.17078 0.0
H585 H 0.21942 0.84505 0.16058 0.0
H586 H 0.28841 0.79876 0.12675 0.0
H587 H 0.35192 0.86333 0.13639 0.0
C588 C 0.17325 0.70472 0.12419 0.0
C589 C 0.15092 0.68978 0.14191 0.0
C590 C 0.20357 0.74636 0.1241 0.0
C591 C 0.21222 0.77387 0.14173 0.0
C592 C 0.18826 0.75918 0.15901 0.0
C593 C 0.15795 0.71775 0.15907 0.0
C594 C 0.28455 0.88562 0.16059 0.0
C595 C 0.32252 0.89085 0.15451 0.0
C596 C 0.24801 0.84884 0.15488 0.0
C597 C 0.2488 0.81627 0.14327 0.0
C598 C 0.28647 0.82313 0.13562 0.0
C599 C 0.32298 0.86017 0.14113 0.0
H600 H 0.57595 0.19287 0.45003 0.0
H601 H 0.51684 0.15924 0.50796 0.0
H602 H 0.56839 0.25395 0.45186 0.0
H603 H 0.51023 0.22041 0.51004 0.0
H604 H 0.48179 0.31994 0.50648 0.0
H605 H 0.47709 0.25418 0.49568 0.0
H606 H 0.59915 0.31945 0.47255 0.0
H607 H 0.60311 0.38514 0.48286 0.0
C608 C 0.56108 0.19831 0.46307 0.0
C609 C 0.54723 0.17131 0.47892 0.0
C610 C 0.5569 0.2334 0.46415 0.0
C611 C 0.53875 0.24217 0.48109 0.0
C612 C 0.52374 0.21435 0.49657 0.0
C613 C 0.52785 0.17935 0.49548 0.0
C614 C 0.50713 0.32007 0.49862 0.0
C615 C 0.54295 0.35747 0.49565 0.0
C616 C 0.50461 0.28248 0.49257 0.0
C617 C 0.53809 0.28151 0.48365 0.0
C618 C 0.57271 0.319 0.47928 0.0
C619 C 0.57504 0.35668 0.48518 0.0
H620 H 0.4099 0.61091 0.82298 0.0
H621 H 0.32942 0.48143 0.83058 0.0
H622 H 0.35124 0.62185 0.82412 0.0
H623 H 0.27085 0.49261 0.83235 0.0
H624 H 0.16714 0.51866 0.82839 0.0
H625 H 0.22427 0.51078 0.8157 0.0
H626 H 0.31065 0.62357 0.85181 0.0
H627 H 0.25392 0.63167 0.86389 0.0
C628 C 0.37963 0.5847 0.82478 0.0
C629 C 0.37441 0.5454 0.82701 0.0
C630 C 0.34599 0.591 0.82546 0.0
C631 C 0.30636 0.55824 0.82856 0.0
C632 C 0.30083 0.51849 0.82973 0.0
C633 C 0.33449 0.51212 0.82889 0.0
C634 C 0.19848 0.54234 0.83301 0.0
C635 C 0.20623 0.5756 0.84721 0.0
C636 C 0.23114 0.53762 0.82597 0.0
C637 C 0.27205 0.56626 0.83293 0.0
C638 C 0.27968 0.60106 0.84596 0.0
C639 C 0.24716 0.60565 0.853 0.0
H640 H 0.88656 0.35021 0.1663 0.0
H641 H 0.80924 0.38316 0.20192 0.0
H642 H 0.83109 0.27774 0.16326 0.0
H643 H 0.75436 0.31151 0.19869 0.0
H644 H 0.64957 0.19095 0.17417 0.0
H645 H 0.70732 0.25949 0.16938 0.0
H646 H 0.79265 0.22104 0.18855 0.0
H647 H 0.73482 0.15222 0.19319 0.0
C648 C 0.85792 0.34201 0.17354 0.0
C649 C 0.85236 0.37242 0.18441 0.0
C650 C 0.82622 0.30065 0.17174 0.0
C651 C 0.78825 0.28922 0.18044 0.0
C652 C 0.783 0.31957 0.19146 0.0
C653 C 0.8147 0.36059 0.19352 0.0
C654 C 0.68067 0.19667 0.17667 0.0
C655 C 0.68773 0.16644 0.18427 0.0
C656 C 0.71368 0.236 0.17414 0.0
C657 C 0.75434 0.2457 0.17898 0.0
C658 C 0.76161 0.2144 0.18475 0.0
C659 C 0.72855 0.17513 0.18747 0.0
H660 H 0.06345 0.54399 0.10993 0.0
H661 H 0.93343 0.50121 0.10185 0.0
H662 H 0.07008 0.54963 0.07259 0.0
H663 H 0.94004 0.50773 0.06498 0.0
H664 H 0.95242 0.48398 0.99792 0.0
H665 H 0.95054 0.4759 0.03488 0.0
H666 H 0.0679 0.58888 0.04502 0.0
H667 H 0.07018 0.59606 0.00774 0.0
C668 C 0.03645 0.5362 0.10021 0.0
C669 C 0.99798 0.52218 0.10881 0.0
C670 C 0.0402 0.53943 0.07885 0.0
C671 C 0.00553 0.52884 0.06573 0.0
C672 C 0.96722 0.5152 0.07448 0.0
C673 C 0.96346 0.51167 0.09569 0.0
C674 C 0.97782 0.50701 0.00807 0.0
C675 C 0.01122 0.54086 5e-05 0.0
C676 C 0.97673 0.50251 0.02926 0.0
C677 C 0.00879 0.53207 0.04301 0.0
C678 C 0.04285 0.56537 0.03488 0.0
C679 C 0.04413 0.56961 0.01357 0.0
H680 H 0.52047 0.05521 0.43704 0.0
H681 H 0.50432 0.93259 0.43111 0.0
H682 H 0.50998 0.05226 0.39977 0.0
H683 H 0.49522 0.93018 0.39365 0.0
H684 H 0.44415 0.92488 0.32855 0.0
H685 H 0.44983 0.92602 0.36611 0.0
H686 H 0.54488 0.05452 0.36925 0.0
H687 H 0.53741 0.05404 0.33197 0.0
C688 C 0.51491 0.02768 0.42777 0.0
C689 C 0.51346 0.99422 0.43707 0.0
C690 C 0.5091 0.02607 0.40635 0.0
C691 C 0.5021 0.99113 0.39364 0.0
C692 C 0.50007 0.9574 0.40297 0.0
C693 C 0.50551 0.95886 0.42445 0.0
C694 C 0.46585 0.95351 0.33729 0.0
C695 C 0.49033 0.98935 0.3272 0.0
C696 C 0.4695 0.95403 0.35881 0.0
C697 C 0.49782 0.99036 0.37075 0.0
C698 C 0.52231 0.02613 0.36062 0.0
C699 C 0.51848 0.02568 0.33916 0.0
H700 H 0.50921 0.56651 0.77142 0.0
H701 H 0.50735 0.45102 0.77472 0.0
H702 H 0.51583 0.56238 0.73424 0.0
H703 H 0.51188 0.44574 0.73737 0.0
H704 H 0.57455 0.47589 0.67611 0.0
H705 H 0.56154 0.47626 0.7128 0.0
H706 H 0.485 0.52975 0.70155 0.0
H707 H 0.49968 0.53086 0.66498 0.0
C708 C 0.50935 0.53978 0.76415 0.0
C709 C 0.5082 0.50932 0.77607 0.0
C710 C 0.51296 0.53728 0.74276 0.0
C711 C 0.51486 0.50392 0.73273 0.0
C712 C 0.51161 0.47243 0.74458 0.0
C713 C 0.50863 0.47525 0.76601 0.0
C714 C 0.55485 0.48756 0.68154 0.0
C715 C 0.53824 0.50348 0.66779 0.0
C716 C 0.5471 0.48754 0.70254 0.0
C717 C 0.52203 0.50289 0.71022 0.0
C718 C 0.50499 0.51833 0.69631 0.0
C719 C 0.51326 0.51888 0.67535 0.0
H720 H 0.52761 0.07432 0.55759 0.0
H721 H 0.52295 0.95705 0.5581 0.0
H722 H 0.52226 0.07665 0.59495 0.0
H723 H 0.51956 0.96019 0.59554 0.0
H724 H 0.47921 0.96009 0.66114 0.0
H725 H 0.47826 0.9557 0.62337 0.0
H726 H 0.56159 0.08755 0.62559 0.0
H727 H 0.56096 0.09181 0.66318 0.0
C728 C 0.52567 0.04913 0.56571 0.0
C729 C 0.52574 0.01552 0.55488 0.0
C730 C 0.52286 0.05057 0.58717 0.0
C731 C 0.52072 0.01873 0.59837 0.0
C732 C 0.52046 0.98495 0.58746 0.0
C733 C 0.52266 0.98324 0.56596 0.0
C734 C 0.49717 0.98803 0.65345 0.0
C735 C 0.52 0.02629 0.66499 0.0
C736 C 0.49683 0.98557 0.63184 0.0
C737 C 0.51985 0.02128 0.62135 0.0
C738 C 0.54277 0.05952 0.63303 0.0
C739 C 0.54261 0.062 0.65459 0.0
H740 H 0.48917 0.57051 0.89758 0.0
H741 H 0.49411 0.45775 0.89459 0.0
H742 H 0.48009 0.56687 0.9346 0.0
H743 H 0.48341 0.45317 0.93149 0.0
H744 H 0.51633 0.486 0.00076 0.0
H745 H 0.52019 0.486 0.9634 0.0
H746 H 0.43506 0.53171 0.96069 0.0
H747 H 0.43341 0.53436 -0.00178 0.0
C748 C 0.48765 0.54456 0.90477 0.0
C749 C 0.49272 0.51461 0.89316 0.0
C750 C 0.48222 0.54234 0.92601 0.0
C751 C 0.48122 0.50983 0.93612 0.0
C752 C 0.48491 0.47913 0.92433 0.0
C753 C 0.49082 0.48161 0.90314 0.0
C754 C 0.49877 0.49649 0.99224 0.0
C755 C 0.47481 0.51048 0.00257 0.0
C756 C 0.50046 0.49586 0.97073 0.0
C757 C 0.47792 0.50883 0.95895 0.0
C758 C 0.45328 0.52202 0.96925 0.0
C759 C 0.45188 0.523 0.99079 0.0
H760 H 0.04945 0.6036 0.23023 0.0
H761 H 0.95396 0.47832 0.21271 0.0
H762 H 0.0282 0.59623 0.26569 0.0
H763 H 0.93178 0.47085 0.24837 0.0
H764 H 0.96476 0.46489 0.31874 0.0
H765 H 0.96441 0.4674 0.28125 0.0
H766 H 0.97294 0.58666 0.28855 0.0
H767 H 0.97348 0.5842 0.32607 0.0
C768 C 0.02334 0.57467 0.23393 0.0
C769 C 0.00308 0.54153 0.21876 0.0
C770 C 0.01087 0.57054 0.2542 0.0
C771 C 0.97813 0.53301 0.25982 0.0
C772 C 0.95708 0.50014 0.24449 0.0
C773 C 0.9694 0.50448 0.22408 0.0
C774 C 0.96529 0.49105 0.31231 0.0
C775 C 0.96984 0.52466 0.32532 0.0
C776 C 0.96504 0.49248 0.29082 0.0
C777 C 0.96929 0.52753 0.28198 0.0
C778 C 0.97044 0.55962 0.29495 0.0
C779 C 0.97076 0.55822 0.31641 0.0
loop_
_geom_bond_atom_site_label_1
_geom_bond_atom_site_label_2
_geom_bond_distance
_geom_bond_site_symmetry_2
_ccdc_geom_bond_type
Zn0 O6 1.969 . S
Zn0 O7 1.965 . S
Zn0 O11 2.024 . S
Zn0 O16 1.969 . S
Zn1 O8 1.969 . S
Zn1 O14 1.969 . S
Zn1 O15 1.965 . S
Zn1 O17 2.024 . S
C2 O3 1.229 . S
C2 O11 1.058 . S
O3 C2 1.229 . S
C4 O5 1.229 . S
C4 O17 1.058 . S
O5 C4 1.229 . S
O6 Zn0 1.969 . S
O6 C9 1.267 . S
O7 Zn0 1.965 . S
O7 C18 1.260 1_455 S
O8 Zn1 1.969 . S
O8 C18 1.258 . S
C9 O6 1.267 . S
C9 O10 1.228 . S
O10 C9 1.228 . S
O11 Zn0 2.024 . S
O11 C2 1.058 . S
C12 O13 1.228 . S
C12 O14 1.267 . S
O13 C12 1.228 . S
O14 Zn1 1.969 . S
O14 C12 1.267 . S
O15 Zn1 1.965 . S
O15 C19 1.260 1_655 S
O16 Zn0 1.969 . S
O16 C19 1.258 . S
O17 Zn1 2.024 . S
O17 C4 1.058 . S
C18 O7 1.260 1_655 S
C18 O8 1.258 . S
C19 O15 1.260 1_455 S
C19 O16 1.258 . S
Zn20 O26 1.969 . S
Zn20 O27 1.965 . S
Zn20 O31 2.024 . S
Zn20 O36 1.969 . S
Zn21 O28 1.969 . S
Zn21 O34 1.969 . S
Zn21 O35 1.965 . S
Zn21 O37 2.024 . S
C22 O23 1.229 . S
C22 O31 1.058 . S
O23 C22 1.229 . S
C24 O25 1.229 . S
C24 O37 1.058 . S
O25 C24 1.229 . S
O26 Zn20 1.969 . S
O26 C29 1.267 . S
O27 Zn20 1.965 . S
O27 C38 1.260 . S
O28 Zn21 1.969 . S
O28 C38 1.258 1_565 S
C29 O26 1.267 . S
C29 O30 1.228 . S
O30 C29 1.228 . S
O31 Zn20 2.024 . S
O31 C22 1.058 . S
C32 O33 1.228 . S
C32 O34 1.267 . S
O33 C32 1.228 . S
O34 Zn21 1.969 . S
O34 C32 1.267 . S
O35 Zn21 1.965 . S
O35 C39 1.260 1_565 S
O36 Zn20 1.969 . S
O36 C39 1.258 . S
O37 Zn21 2.024 . S
O37 C24 1.058 . S
C38 O27 1.260 . S
C38 O28 1.258 1_545 S
C39 O35 1.260 1_545 S
C39 O36 1.258 . S
Zn40 O46 1.969 . S
Zn40 O47 1.965 . S
Zn40 O51 2.024 . S
Zn40 O56 1.969 . S
Zn41 O48 1.969 . S
Zn41 O54 1.969 . S
Zn41 O55 1.965 . S
Zn41 O57 2.024 . S
C42 O43 1.229 . S
C42 O51 1.058 . S
O43 C42 1.229 . S
C44 O45 1.229 . S
C44 O57 1.058 . S
O45 C44 1.229 . S
O46 Zn40 1.969 . S
O46 C49 1.267 . S
O47 Zn40 1.965 . S
O47 C58 1.260 . S
O48 Zn41 1.969 . S
O48 C58 1.258 . S
C49 O46 1.267 . S
C49 O50 1.228 . S
O50 C49 1.228 . S
O51 Zn40 2.024 . S
O51 C42 1.058 . S
C52 O53 1.228 . S
C52 O54 1.267 . S
O53 C52 1.228 . S
O54 Zn41 1.969 . S
O54 C52 1.267 . S
O55 Zn41 1.965 . S
O55 C59 1.260 . S
O56 Zn40 1.969 . S
O56 C59 1.258 . S
O57 Zn41 2.024 . S
O57 C44 1.058 . S
C58 O47 1.260 . S
C58 O48 1.258 . S
C59 O55 1.260 . S
C59 O56 1.258 . S
C60 C61 1.391 . S
C60 C64 1.391 . S
C60 H102 0.948 . S
C61 C60 1.391 . S
C61 C62 1.391 . S
C62 C61 1.391 . S
C62 H118 0.947 . S
C62 C119 1.392 . S
C63 C64 1.391 . S
C63 C67 1.397 . S
C63 C119 1.419 . S
C64 C60 1.391 . S
C64 C63 1.391 . S
C64 C65 1.399 . S
C65 C64 1.399 . S
C65 C68 1.396 . S
C65 C77 1.453 . S
C65 C78 1.684 . S
H66 C90 0.948 . S
C67 C63 1.397 . S
C67 C68 1.394 . S
C67 C86 1.723 . S
C68 C65 1.396 . S
C68 C67 1.394 . S
C68 C98 1.723 . S
H69 C92 0.947 . S
H70 C93 0.948 . S
H71 C99 0.982 . S
H72 C100 0.979 . S
H73 C100 0.980 . S
H74 C100 0.983 . S
H75 C99 0.979 . S
H76 C99 0.977 . S
C77 C65 1.453 . S
C77 H106 0.982 . S
C77 H107 0.979 . S
C77 H108 0.977 . S
C78 C65 1.684 . S
C78 H103 0.979 . S
C78 H104 0.980 . S
C78 H105 0.983 . S
C79 C80 1.391 . S
C79 C84 1.391 . S
C79 H109 0.948 . S
C80 C79 1.391 . S
C80 C81 1.391 1_545 S
C81 C80 1.391 1_565 S
C81 C82 1.392 . S
C81 H110 0.947 . S
C82 C81 1.392 . S
C82 C83 1.419 1_565 S
C82 H111 0.948 . S
C83 C82 1.419 1_545 S
C83 C84 1.391 . S
C83 C87 1.397 . S
C84 C79 1.391 . S
C84 C83 1.391 . S
C84 C85 1.399 . S
C85 C84 1.399 . S
C85 C86 1.396 . S
C85 C88 1.453 . S
C85 C89 1.684 . S
C86 C67 1.723 . S
C86 C85 1.396 . S
C86 C87 1.394 . S
C87 C83 1.397 . S
C87 C86 1.394 . S
C87 C97 1.723 1_545 S
C88 C85 1.453 . S
C88 H112 0.982 . S
C88 H113 0.979 . S
C88 H114 0.977 . S
C89 C85 1.684 . S
C89 H115 0.979 . S
C89 H116 0.980 . S
C89 H117 0.983 . S
C90 H66 0.948 . S
C90 C91 1.391 . S
C90 C95 1.391 . S
C91 C90 1.391 . S
C91 C92 1.391 . S
C92 H69 0.947 . S
C92 C91 1.391 . S
C92 C93 1.392 . S
C93 H70 0.948 . S
C93 C92 1.392 . S
C93 C94 1.419 . S
C94 C93 1.419 . S
C94 C95 1.391 . S
C94 C98 1.397 1_565 S
C95 C90 1.391 . S
C95 C94 1.391 . S
C95 C96 1.399 . S
C96 C95 1.399 . S
C96 C97 1.396 . S
C96 C99 1.453 . S
C96 C100 1.684 . S
C97 C87 1.723 1_565 S
C97 C96 1.396 . S
C97 C98 1.394 1_565 S
C98 C68 1.723 . S
C98 C94 1.397 1_545 S
C98 C97 1.394 1_545 S
C99 H71 0.982 . S
C99 H75 0.979 . S
C99 H76 0.977 . S
C99 C96 1.453 . S
C100 H72 0.979 . S
C100 H73 0.980 . S
C100 H74 0.983 . S
C100 C96 1.684 . S
H101 C119 0.948 . S
H102 C60 0.948 . S
H103 C78 0.979 . S
H104 C78 0.980 . S
H105 C78 0.983 . S
H106 C77 0.982 . S
H107 C77 0.979 . S
H108 C77 0.977 . S
H109 C79 0.948 . S
H110 C81 0.947 . S
H111 C82 0.948 . S
H112 C88 0.982 . S
H113 C88 0.979 . S
H114 C88 0.977 . S
H115 C89 0.979 . S
H116 C89 0.980 . S
H117 C89 0.983 . S
H118 C62 0.947 . S
C119 C62 1.392 . S
C119 C63 1.419 . S
C119 H101 0.948 . S
C120 C121 1.391 . S
C120 C124 1.391 . S
C120 H162 0.948 . S
C121 C120 1.391 . S
C121 C122 1.391 . S
C122 C121 1.391 . S
C122 H178 0.947 . S
C122 C179 1.392 . S
C123 C124 1.391 . S
C123 C127 1.397 . S
C123 C179 1.419 . S
C124 C120 1.391 . S
C124 C123 1.391 . S
C124 C125 1.399 . S
C125 C124 1.399 . S
C125 C128 1.396 . S
C125 C137 1.453 . S
C125 C138 1.684 . S
H126 C150 0.948 . S
C127 C123 1.397 . S
C127 C128 1.394 . S
C127 C146 1.723 . S
C128 C125 1.396 . S
C128 C127 1.394 . S
C128 C158 1.723 . S
H129 C152 0.947 . S
H130 C153 0.948 . S
H131 C159 0.982 . S
H132 C160 0.979 . S
H133 C160 0.980 . S
H134 C160 0.983 . S
H135 C159 0.979 . S
H136 C159 0.977 . S
C137 C125 1.453 . S
C137 H166 0.982 . S
C137 H167 0.979 . S
C137 H168 0.977 . S
C138 C125 1.684 . S
C138 H163 0.979 . S
C138 H164 0.980 . S
C138 H165 0.983 . S
C139 C140 1.391 . S
C139 C144 1.391 . S
C139 H169 0.948 . S
C140 C139 1.391 . S
C140 C141 1.391 . S
C141 C140 1.391 . S
C141 C142 1.392 . S
C141 H170 0.947 . S
C142 C141 1.392 . S
C142 C143 1.419 . S
C142 H171 0.948 . S
C143 C142 1.419 . S
C143 C144 1.391 . S
C143 C147 1.397 . S
C144 C139 1.391 . S
C144 C143 1.391 . S
C144 C145 1.399 . S
C145 C144 1.399 . S
C145 C146 1.396 . S
C145 C148 1.453 . S
C145 C149 1.684 . S
C146 C127 1.723 . S
C146 C145 1.396 . S
C146 C147 1.394 . S
C147 C143 1.397 . S
C147 C146 1.394 . S
C147 C157 1.723 . S
C148 C145 1.453 . S
C148 H172 0.982 . S
C148 H173 0.979 . S
C148 H174 0.977 . S
C149 C145 1.684 . S
C149 H175 0.979 . S
C149 H176 0.980 . S
C149 H177 0.983 . S
C150 H126 0.948 . S
C150 C151 1.391 . S
C150 C155 1.391 . S
C151 C150 1.391 . S
C151 C152 1.391 . S
C152 H129 0.947 . S
C152 C151 1.391 . S
C152 C153 1.392 . S
C153 H130 0.948 . S
C153 C152 1.392 . S
C153 C154 1.419 . S
C154 C153 1.419 . S
C154 C155 1.391 . S
C154 C158 1.397 . S
C155 C150 1.391 . S
C155 C154 1.391 . S
C155 C156 1.399 . S
C156 C155 1.399 . S
C156 C157 1.396 . S
C156 C159 1.453 . S
C156 C160 1.684 . S
C157 C147 1.723 . S
C157 C156 1.396 . S
C157 C158 1.394 . S
C158 C128 1.723 . S
C158 C154 1.397 . S
C158 C157 1.394 . S
C159 H131 0.982 . S
C159 H135 0.979 . S
C159 H136 0.977 . S
C159 C156 1.453 . S
C160 H132 0.979 . S
C160 H133 0.980 . S
C160 H134 0.983 . S
C160 C156 1.684 . S
H161 C179 0.948 . S
H162 C120 0.948 . S
H163 C138 0.979 . S
H164 C138 0.980 . S
H165 C138 0.983 . S
H166 C137 0.982 . S
H167 C137 0.979 . S
H168 C137 0.977 . S
H169 C139 0.948 . S
H170 C141 0.947 . S
H171 C142 0.948 . S
H172 C148 0.982 . S
H173 C148 0.979 . S
H174 C148 0.977 . S
H175 C149 0.979 . S
H176 C149 0.980 . S
H177 C149 0.983 . S
H178 C122 0.947 . S
C179 C122 1.392 . S
C179 C123 1.419 . S
C179 H161 0.948 . S
C180 C181 1.391 . S
C180 C184 1.391 . S
C180 H222 0.948 . S
C181 C180 1.391 . S
C181 C182 1.391 . S
C182 C181 1.391 . S
C182 H238 0.947 . S
C182 C239 1.392 . S
C183 C184 1.391 . S
C183 C187 1.397 . S
C183 C239 1.419 . S
C184 C180 1.391 . S
C184 C183 1.391 . S
C184 C185 1.399 . S
C185 C184 1.399 . S
C185 C188 1.396 . S
C185 C197 1.453 . S
C185 C198 1.684 . S
H186 C210 0.948 . S
C187 C183 1.397 . S
C187 C188 1.394 . S
C187 C206 1.723 . S
C188 C185 1.396 . S
C188 C187 1.394 . S
C188 C218 1.723 . S
H189 C212 0.947 . S
H190 C213 0.948 . S
H191 C219 0.982 . S
H192 C220 0.979 . S
H193 C220 0.980 . S
H194 C220 0.983 . S
H195 C219 0.979 . S
H196 C219 0.977 . S
C197 C185 1.453 . S
C197 H226 0.982 . S
C197 H227 0.979 . S
C197 H228 0.977 . S
C198 C185 1.684 . S
C198 H223 0.979 . S
C198 H224 0.980 . S
C198 H225 0.983 . S
C199 C200 1.391 . S
C199 C204 1.391 . S
C199 H229 0.948 . S
C200 C199 1.391 . S
C200 C201 1.391 1_455 S
C201 C200 1.391 1_655 S
C201 C202 1.392 . S
C201 H230 0.947 . S
C202 C201 1.392 . S
C202 C203 1.419 1_655 S
C202 H231 0.948 . S
C203 C202 1.419 1_455 S
C203 C204 1.391 . S
C203 C207 1.397 . S
C204 C199 1.391 . S
C204 C203 1.391 . S
C204 C205 1.399 . S
C205 C204 1.399 . S
C205 C206 1.396 . S
C205 C208 1.453 . S
C205 C209 1.684 . S
C206 C187 1.723 . S
C206 C205 1.396 . S
C206 C207 1.394 . S
C207 C203 1.397 . S
C207 C206 1.394 . S
C207 C217 1.723 1_455 S
C208 C205 1.453 . S
C208 H232 0.982 . S
C208 H233 0.979 . S
C208 H234 0.977 . S
C209 C205 1.684 . S
C209 H235 0.979 . S
C209 H236 0.980 . S
C209 H237 0.983 . S
C210 H186 0.948 . S
C210 C211 1.391 . S
C210 C215 1.391 . S
C211 C210 1.391 . S
C211 C212 1.391 . S
C212 H189 0.947 . S
C212 C211 1.391 . S
C212 C213 1.392 . S
C213 H190 0.948 . S
C213 C212 1.392 . S
C213 C214 1.419 . S
C214 C213 1.419 . S
C214 C215 1.391 . S
C214 C218 1.397 1_655 S
C215 C210 1.391 . S
C215 C214 1.391 . S
C215 C216 1.399 . S
C216 C215 1.399 . S
C216 C217 1.396 . S
C216 C219 1.453 . S
C216 C220 1.684 . S
C217 C207 1.723 1_655 S
C217 C216 1.396 . S
C217 C218 1.394 1_655 S
C218 C188 1.723 . S
C218 C214 1.397 1_455 S
C218 C217 1.394 1_455 S
C219 H191 0.982 . S
C219 H195 0.979 . S
C219 H196 0.977 . S
C219 C216 1.453 . S
C220 H192 0.979 . S
C220 H193 0.980 . S
C220 H194 0.983 . S
C220 C216 1.684 . S
H221 C239 0.948 . S
H222 C180 0.948 . S
H223 C198 0.979 . S
H224 C198 0.980 . S
H225 C198 0.983 . S
H226 C197 0.982 . S
H227 C197 0.979 . S
H228 C197 0.977 . S
H229 C199 0.948 . S
H230 C201 0.947 . S
H231 C202 0.948 . S
H232 C208 0.982 . S
H233 C208 0.979 . S
H234 C208 0.977 . S
H235 C209 0.979 . S
H236 C209 0.980 . S
H237 C209 0.983 . S
H238 C182 0.947 . S
C239 C182 1.392 . S
C239 C183 1.419 . S
C239 H221 0.948 . S
C240 C241 1.391 . S
C240 C244 1.391 . S
C240 H282 0.948 . S
C241 C240 1.391 . S
C241 C242 1.391 . S
C242 C241 1.391 . S
C242 H298 0.947 . S
C242 C299 1.392 . S
C243 C244 1.391 . S
C243 C247 1.397 . S
C243 C299 1.419 . S
C244 C240 1.391 . S
C244 C243 1.391 . S
C244 C245 1.399 . S
C245 C244 1.399 . S
C245 C248 1.396 1_655 S
C245 C257 1.453 1_655 S
C245 C258 1.684 . S
H246 C270 0.948 . S
C247 C243 1.397 . S
C247 C248 1.394 1_655 S
C247 C266 1.723 . S
C248 C245 1.396 1_455 S
C248 C247 1.394 1_455 S
C248 C278 1.723 . S
H249 C272 0.947 . S
H250 C273 0.948 . S
H251 C279 0.982 . S
H252 C280 0.979 . S
H253 C280 0.980 . S
H254 C280 0.983 . S
H255 C279 0.979 . S
H256 C279 0.977 . S
C257 C245 1.453 1_455 S
C257 H286 0.982 . S
C257 H287 0.979 . S
C257 H288 0.977 . S
C258 C245 1.684 . S
C258 H283 0.979 . S
C258 H284 0.980 1_655 S
C258 H285 0.983 . S
C259 C260 1.391 1_655 S
C259 C264 1.391 . S
C259 H289 0.948 . S
C260 C259 1.391 1_455 S
C260 C261 1.391 . S
C261 C260 1.391 . S
C261 C262 1.392 . S
C261 H290 0.947 . S
C262 C261 1.392 . S
C262 C263 1.419 . S
C262 H291 0.948 . S
C263 C262 1.419 . S
C263 C264 1.391 1_455 S
C263 C267 1.397 . S
C264 C259 1.391 . S
C264 C263 1.391 1_655 S
C264 C265 1.399 . S
C265 C264 1.399 . S
C265 C266 1.396 . S
C265 C268 1.453 . S
C265 C269 1.684 . S
C266 C247 1.723 . S
C266 C265 1.396 . S
C266 C267 1.394 1_655 S
C267 C263 1.397 . S
C267 C266 1.394 1_455 S
C267 C277 1.723 . S
C268 C265 1.453 . S
C268 H292 0.982 . S
C268 H293 0.979 . S
C268 H294 0.977 . S
C269 C265 1.684 . S
C269 H295 0.979 . S
C269 H296 0.980 . S
C269 H297 0.983 . S
C270 H246 0.948 . S
C270 C271 1.391 . S
C270 C275 1.391 . S
C271 C270 1.391 . S
C271 C272 1.391 . S
C272 H249 0.947 . S
C272 C271 1.391 . S
C272 C273 1.392 . S
C273 H250 0.948 . S
C273 C272 1.392 . S
C273 C274 1.419 . S
C274 C273 1.419 . S
C274 C275 1.391 . S
C274 C278 1.397 . S
C275 C270 1.391 . S
C275 C274 1.391 . S
C275 C276 1.399 . S
C276 C275 1.399 . S
C276 C277 1.396 . S
C276 C279 1.453 . S
C276 C280 1.684 . S
C277 C267 1.723 . S
C277 C276 1.396 . S
C277 C278 1.394 . S
C278 C248 1.723 . S
C278 C274 1.397 . S
C278 C277 1.394 . S
C279 H251 0.982 . S
C279 H255 0.979 . S
C279 H256 0.977 . S
C279 C276 1.453 . S
C280 H252 0.979 . S
C280 H253 0.980 . S
C280 H254 0.983 . S
C280 C276 1.684 . S
H281 C299 0.948 . S
H282 C240 0.948 . S
H283 C258 0.979 . S
H284 C258 0.980 1_455 S
H285 C258 0.983 . S
H286 C257 0.982 . S
H287 C257 0.979 . S
H288 C257 0.977 . S
H289 C259 0.948 . S
H290 C261 0.947 . S
H291 C262 0.948 . S
H292 C268 0.982 . S
H293 C268 0.979 . S
H294 C268 0.977 . S
H295 C269 0.979 . S
H296 C269 0.980 . S
H297 C269 0.983 . S
H298 C242 0.947 . S
C299 C242 1.392 . S
C299 C243 1.419 . S
C299 H281 0.948 . S
C300 C301 1.391 . S
C300 C304 1.391 . S
C300 H342 0.948 . S
C301 C300 1.391 . S
C301 C302 1.391 . S
C302 C301 1.391 . S
C302 H358 0.947 . S
C302 C359 1.392 . S
C303 C304 1.391 . S
C303 C307 1.397 . S
C303 C359 1.419 . S
C304 C300 1.391 . S
C304 C303 1.391 . S
C304 C305 1.399 . S
C305 C304 1.399 . S
C305 C308 1.396 1_565 S
C305 C317 1.453 1_565 S
C305 C318 1.684 . S
H306 C330 0.948 . S
C307 C303 1.397 . S
C307 C308 1.394 1_565 S
C307 C326 1.723 . S
C308 C305 1.396 1_545 S
C308 C307 1.394 1_545 S
C308 C338 1.723 . S
H309 C332 0.947 . S
H310 C333 0.948 . S
H311 C339 0.982 . S
H312 C340 0.979 . S
H313 C340 0.980 . S
H314 C340 0.983 . S
H315 C339 0.979 . S
H316 C339 0.977 . S
C317 C305 1.453 1_545 S
C317 H346 0.982 . S
C317 H347 0.979 . S
C317 H348 0.977 . S
C318 C305 1.684 . S
C318 H343 0.979 . S
C318 H344 0.980 1_565 S
C318 H345 0.983 . S
C319 C320 1.391 1_565 S
C319 C324 1.391 . S
C319 H349 0.948 . S
C320 C319 1.391 1_545 S
C320 C321 1.391 . S
C321 C320 1.391 . S
C321 C322 1.392 . S
C321 H350 0.947 . S
C322 C321 1.392 . S
C322 C323 1.419 . S
C322 H351 0.948 . S
C323 C322 1.419 . S
C323 C324 1.391 1_545 S
C323 C327 1.397 . S
C324 C319 1.391 . S
C324 C323 1.391 1_565 S
C324 C325 1.399 . S
C325 C324 1.399 . S
C325 C326 1.396 . S
C325 C328 1.453 . S
C325 C329 1.684 . S
C326 C307 1.723 . S
C326 C325 1.396 . S
C326 C327 1.394 1_565 S
C327 C323 1.397 . S
C327 C326 1.394 1_545 S
C327 C337 1.723 . S
C328 C325 1.453 . S
C328 H352 0.982 . S
C328 H353 0.979 . S
C328 H354 0.977 . S
C329 C325 1.684 . S
C329 H355 0.979 . S
C329 H356 0.980 . S
C329 H357 0.983 . S
C330 H306 0.948 . S
C330 C331 1.391 . S
C330 C335 1.391 . S
C331 C330 1.391 . S
C331 C332 1.391 . S
C332 H309 0.947 . S
C332 C331 1.391 . S
C332 C333 1.392 . S
C333 H310 0.948 . S
C333 C332 1.392 . S
C333 C334 1.419 . S
C334 C333 1.419 . S
C334 C335 1.391 . S
C334 C338 1.397 . S
C335 C330 1.391 . S
C335 C334 1.391 . S
C335 C336 1.399 . S
C336 C335 1.399 . S
C336 C337 1.396 . S
C336 C339 1.453 . S
C336 C340 1.684 . S
C337 C327 1.723 . S
C337 C336 1.396 . S
C337 C338 1.394 . S
C338 C308 1.723 . S
C338 C334 1.397 . S
C338 C337 1.394 . S
C339 H311 0.982 . S
C339 H315 0.979 . S
C339 H316 0.977 . S
C339 C336 1.453 . S
C340 H312 0.979 . S
C340 H313 0.980 . S
C340 H314 0.983 . S
C340 C336 1.684 . S
H341 C359 0.948 . S
H342 C300 0.948 . S
H343 C318 0.979 . S
H344 C318 0.980 1_545 S
H345 C318 0.983 . S
H346 C317 0.982 . S
H347 C317 0.979 . S
H348 C317 0.977 . S
H349 C319 0.948 . S
H350 C321 0.947 . S
H351 C322 0.948 . S
H352 C328 0.982 . S
H353 C328 0.979 . S
H354 C328 0.977 . S
H355 C329 0.979 . S
H356 C329 0.980 . S
H357 C329 0.983 . S
H358 C302 0.947 . S
C359 C302 1.392 . S
C359 C303 1.419 . S
C359 H341 0.948 . S
C360 C361 1.391 . S
C360 C364 1.391 . S
C360 H402 0.948 . S
C361 C360 1.391 . S
C361 C362 1.391 . S
C362 C361 1.391 . S
C362 H418 0.947 . S
C362 C419 1.392 . S
C363 C364 1.391 . S
C363 C367 1.397 . S
C363 C419 1.419 . S
C364 C360 1.391 . S
C364 C363 1.391 . S
C364 C365 1.399 . S
C365 C364 1.399 . S
C365 C368 1.396 . S
C365 C377 1.453 . S
C365 C378 1.684 . S
H366 C390 0.948 . S
C367 C363 1.397 . S
C367 C368 1.394 . S
C367 C386 1.723 . S
C368 C365 1.396 . S
C368 C367 1.394 . S
C368 C398 1.723 . S
H369 C392 0.947 . S
H370 C393 0.948 . S
H371 C399 0.982 . S
H372 C400 0.979 . S
H373 C400 0.980 . S
H374 C400 0.983 . S
H375 C399 0.979 . S
H376 C399 0.977 . S
C377 C365 1.453 . S
C377 H406 0.982 . S
C377 H407 0.979 . S
C377 H408 0.977 . S
C378 C365 1.684 . S
C378 H403 0.979 . S
C378 H404 0.980 . S
C378 H405 0.983 . S
C379 C380 1.391 . S
C379 C384 1.391 . S
C379 H409 0.948 . S
C380 C379 1.391 . S
C380 C381 1.391 . S
C381 C380 1.391 . S
C381 C382 1.392 . S
C381 H410 0.947 . S
C382 C381 1.392 . S
C382 C383 1.419 . S
C382 H411 0.948 . S
C383 C382 1.419 . S
C383 C384 1.391 . S
C383 C387 1.397 . S
C384 C379 1.391 . S
C384 C383 1.391 . S
C384 C385 1.399 . S
C385 C384 1.399 . S
C385 C386 1.396 . S
C385 C388 1.453 . S
C385 C389 1.684 . S
C386 C367 1.723 . S
C386 C385 1.396 . S
C386 C387 1.394 . S
C387 C383 1.397 . S
C387 C386 1.394 . S
C387 C397 1.723 . S
C388 C385 1.453 . S
C388 H412 0.982 . S
C388 H413 0.979 . S
C388 H414 0.977 . S
C389 C385 1.684 . S
C389 H415 0.979 . S
C389 H416 0.980 . S
C389 H417 0.983 . S
C390 H366 0.948 . S
C390 C391 1.391 . S
C390 C395 1.391 . S
C391 C390 1.391 . S
C391 C392 1.391 . S
C392 H369 0.947 . S
C392 C391 1.391 . S
C392 C393 1.392 . S
C393 H370 0.948 . S
C393 C392 1.392 . S
C393 C394 1.419 . S
C394 C393 1.419 . S
C394 C395 1.391 . S
C394 C398 1.397 . S
C395 C390 1.391 . S
C395 C394 1.391 . S
C395 C396 1.399 . S
C396 C395 1.399 . S
C396 C397 1.396 . S
C396 C399 1.453 . S
C396 C400 1.684 . S
C397 C387 1.723 . S
C397 C396 1.396 . S
C397 C398 1.394 . S
C398 C368 1.723 . S
C398 C394 1.397 . S
C398 C397 1.394 . S
C399 H371 0.982 . S
C399 H375 0.979 . S
C399 H376 0.977 . S
C399 C396 1.453 . S
C400 H372 0.979 . S
C400 H373 0.980 . S
C400 H374 0.983 . S
C400 C396 1.684 . S
H401 C419 0.948 . S
H402 C360 0.948 . S
H403 C378 0.979 . S
H404 C378 0.980 . S
H405 C378 0.983 . S
H406 C377 0.982 . S
H407 C377 0.979 . S
H408 C377 0.977 . S
H409 C379 0.948 . S
H410 C381 0.947 . S
H411 C382 0.948 . S
H412 C388 0.982 . S
H413 C388 0.979 . S
H414 C388 0.977 . S
H415 C389 0.979 . S
H416 C389 0.980 . S
H417 C389 0.983 . S
H418 C362 0.947 . S
C419 C362 1.392 . S
C419 C363 1.419 . S
C419 H401 0.948 . S
H420 C428 0.950 . S
H421 C433 0.950 . S
H422 C430 0.950 . S
H423 C432 0.950 . S
H424 C434 0.950 . S
H425 C436 0.950 . S
H426 C438 0.950 . S
H427 C439 0.950 . S
C428 H420 0.950 . S
C428 C429 1.386 . S
C428 C430 1.391 . S
C429 C428 1.386 . S
C429 C433 1.393 . S
C430 H422 0.950 . S
C430 C428 1.391 . S
C430 C431 1.400 . S
C431 C430 1.400 . S
C431 C432 1.398 . S
C431 C437 1.491 . S
C432 H423 0.950 . S
C432 C431 1.398 . S
C432 C433 1.391 . S
C433 H421 0.950 . S
C433 C429 1.393 . S
C433 C432 1.391 . S
C434 H424 0.950 . S
C434 C435 1.386 . S
C434 C436 1.391 . S
C435 C434 1.386 . S
C435 C439 1.393 . S
C436 H425 0.950 . S
C436 C434 1.391 . S
C436 C437 1.400 . S
C437 C431 1.491 . S
C437 C436 1.400 . S
C437 C438 1.398 . S
C438 H426 0.950 . S
C438 C437 1.398 . S
C438 C439 1.391 . S
C439 H427 0.950 . S
C439 C435 1.393 . S
C439 C438 1.391 . S
H440 C448 0.950 . S
H441 C453 0.950 . S
H442 C450 0.950 . S
H443 C452 0.950 . S
H444 C454 0.950 . S
H445 C456 0.950 . S
H446 C458 0.950 . S
H447 C459 0.950 . S
C448 H440 0.950 . S
C448 C449 1.386 . S
C448 C450 1.391 . S
C449 C448 1.386 . S
C449 C453 1.393 . S
C450 H442 0.950 . S
C450 C448 1.391 . S
C450 C451 1.400 . S
C451 C450 1.400 . S
C451 C452 1.398 . S
C451 C457 1.491 . S
C452 H443 0.950 . S
C452 C451 1.398 . S
C452 C453 1.391 . S
C453 H441 0.950 . S
C453 C449 1.393 . S
C453 C452 1.391 . S
C454 H444 0.950 . S
C454 C455 1.386 . S
C454 C456 1.391 . S
C455 C454 1.386 . S
C455 C459 1.393 . S
C456 H445 0.950 . S
C456 C454 1.391 . S
C456 C457 1.400 . S
C457 C451 1.491 . S
C457 C456 1.400 . S
C457 C458 1.398 . S
C458 H446 0.950 . S
C458 C457 1.398 . S
C458 C459 1.391 . S
C459 H447 0.950 . S
C459 C455 1.393 . S
C459 C458 1.391 . S
H460 C468 0.950 . S
H461 C473 0.950 . S
H462 C470 0.950 . S
H463 C472 0.950 . S
H464 C474 0.950 . S
H465 C476 0.950 . S
H466 C478 0.950 . S
H467 C479 0.950 . S
C468 H460 0.950 . S
C468 C469 1.386 . S
C468 C470 1.391 . S
C469 C468 1.386 . S
C469 C473 1.393 . S
C470 H462 0.950 . S
C470 C468 1.391 . S
C470 C471 1.400 . S
C471 C470 1.400 . S
C471 C472 1.398 . S
C471 C477 1.491 . S
C472 H463 0.950 . S
C472 C471 1.398 . S
C472 C473 1.391 . S
C473 H461 0.950 . S
C473 C469 1.393 . S
C473 C472 1.391 . S
C474 H464 0.950 . S
C474 C475 1.386 . S
C474 C476 1.391 . S
C475 C474 1.386 . S
C475 C479 1.393 . S
C476 H465 0.950 . S
C476 C474 1.391 . S
C476 C477 1.400 . S
C477 C471 1.491 . S
C477 C476 1.400 . S
C477 C478 1.398 . S
C478 H466 0.950 . S
C478 C477 1.398 . S
C478 C479 1.391 . S
C479 H467 0.950 . S
C479 C475 1.393 . S
C479 C478 1.391 . S
H480 C488 0.950 . S
H481 C493 0.950 . S
H482 C490 0.950 . S
H483 C492 0.950 . S
H484 C494 0.950 . S
H485 C496 0.950 . S
H486 C498 0.950 . S
H487 C499 0.950 . S
C488 H480 0.950 . S
C488 C489 1.386 . S
C488 C490 1.391 . S
C489 C488 1.386 . S
C489 C493 1.393 . S
C490 H482 0.950 . S
C490 C488 1.391 . S
C490 C491 1.400 . S
C491 C490 1.400 . S
C491 C492 1.398 . S
C491 C497 1.491 . S
C492 H483 0.950 . S
C492 C491 1.398 . S
C492 C493 1.391 . S
C493 H481 0.950 . S
C493 C489 1.393 . S
C493 C492 1.391 . S
C494 H484 0.950 . S
C494 C495 1.386 . S
C494 C496 1.391 . S
C495 C494 1.386 . S
C495 C499 1.393 . S
C496 H485 0.950 . S
C496 C494 1.391 . S
C496 C497 1.400 . S
C497 C491 1.491 . S
C497 C496 1.400 . S
C497 C498 1.398 . S
C498 H486 0.950 . S
C498 C497 1.398 . S
C498 C499 1.391 . S
C499 H487 0.950 . S
C499 C495 1.393 . S
C499 C498 1.391 . S
H500 C508 0.950 . S
H501 C513 0.950 . S
H502 C510 0.950 . S
H503 C512 0.950 . S
H504 C514 0.950 . S
H505 C516 0.950 . S
H506 C518 0.950 . S
H507 C519 0.950 . S
C508 H500 0.950 . S
C508 C509 1.386 . S
C508 C510 1.391 . S
C509 C508 1.386 . S
C509 C513 1.393 . S
C510 H502 0.950 . S
C510 C508 1.391 . S
C510 C511 1.400 . S
C511 C510 1.400 . S
C511 C512 1.398 . S
C511 C517 1.491 . S
C512 H503 0.950 . S
C512 C511 1.398 . S
C512 C513 1.391 . S
C513 H501 0.950 . S
C513 C509 1.393 . S
C513 C512 1.391 . S
C514 H504 0.950 . S
C514 C515 1.386 . S
C514 C516 1.391 . S
C515 C514 1.386 . S
C515 C519 1.393 . S
C516 H505 0.950 . S
C516 C514 1.391 . S
C516 C517 1.400 . S
C517 C511 1.491 . S
C517 C516 1.400 . S
C517 C518 1.398 . S
C518 H506 0.950 . S
C518 C517 1.398 . S
C518 C519 1.391 . S
C519 H507 0.950 . S
C519 C515 1.393 . S
C519 C518 1.391 . S
H520 C528 0.950 . S
H521 C533 0.950 . S
H522 C530 0.950 . S
H523 C532 0.950 . S
H524 C534 0.950 . S
H525 C536 0.950 . S
H526 C538 0.950 . S
H527 C539 0.950 . S
C528 H520 0.950 . S
C528 C529 1.386 . S
C528 C530 1.391 . S
C529 C528 1.386 . S
C529 C533 1.393 . S
C530 H522 0.950 . S
C530 C528 1.391 . S
C530 C531 1.400 . S
C531 C530 1.400 . S
C531 C532 1.398 . S
C531 C537 1.491 . S
C532 H523 0.950 . S
C532 C531 1.398 . S
C532 C533 1.391 . S
C533 H521 0.950 . S
C533 C529 1.393 . S
C533 C532 1.391 . S
C534 H524 0.950 . S
C534 C535 1.386 . S
C534 C536 1.391 . S
C535 C534 1.386 . S
C535 C539 1.393 . S
C536 H525 0.950 . S
C536 C534 1.391 . S
C536 C537 1.400 . S
C537 C531 1.491 . S
C537 C536 1.400 . S
C537 C538 1.398 . S
C538 H526 0.950 . S
C538 C537 1.398 . S
C538 C539 1.391 . S
C539 H527 0.950 . S
C539 C535 1.393 . S
C539 C538 1.391 . S
H540 C548 0.950 . S
H541 C553 0.950 . S
H542 C550 0.950 . S
H543 C552 0.950 . S
H544 C554 0.950 . S
H545 C556 0.950 . S
H546 C558 0.950 . S
H547 C559 0.950 . S
C548 H540 0.950 . S
C548 C549 1.386 . S
C548 C550 1.391 . S
C549 C548 1.386 . S
C549 C553 1.393 . S
C550 H542 0.950 . S
C550 C548 1.391 . S
C550 C551 1.400 . S
C551 C550 1.400 . S
C551 C552 1.398 . S
C551 C557 1.491 . S
C552 H543 0.950 . S
C552 C551 1.398 . S
C552 C553 1.391 . S
C553 H541 0.950 . S
C553 C549 1.393 . S
C553 C552 1.391 . S
C554 H544 0.950 . S
C554 C555 1.386 . S
C554 C556 1.391 . S
C555 C554 1.386 . S
C555 C559 1.393 . S
C556 H545 0.950 . S
C556 C554 1.391 . S
C556 C557 1.400 . S
C557 C551 1.491 . S
C557 C556 1.400 . S
C557 C558 1.398 . S
C558 H546 0.950 . S
C558 C557 1.398 . S
C558 C559 1.391 . S
C559 H547 0.950 . S
C559 C555 1.393 . S
C559 C558 1.391 . S
H560 C568 0.950 . S
H561 C573 0.950 . S
H562 C570 0.950 . S
H563 C572 0.950 . S
H564 C574 0.950 . S
H565 C576 0.950 . S
H566 C578 0.950 . S
H567 C579 0.950 . S
C568 H560 0.950 . S
C568 C569 1.386 . S
C568 C570 1.391 . S
C569 C568 1.386 . S
C569 C573 1.393 . S
C570 H562 0.950 . S
C570 C568 1.391 . S
C570 C571 1.400 . S
C571 C570 1.400 . S
C571 C572 1.398 . S
C571 C577 1.491 . S
C572 H563 0.950 . S
C572 C571 1.398 . S
C572 C573 1.391 . S
C573 H561 0.950 . S
C573 C569 1.393 . S
C573 C572 1.391 . S
C574 H564 0.950 . S
C574 C575 1.386 . S
C574 C576 1.391 . S
C575 C574 1.386 . S
C575 C579 1.393 . S
C576 H565 0.950 . S
C576 C574 1.391 . S
C576 C577 1.400 . S
C577 C571 1.491 . S
C577 C576 1.400 . S
C577 C578 1.398 . S
C578 H566 0.950 . S
C578 C577 1.398 . S
C578 C579 1.391 . S
C579 H567 0.950 . S
C579 C575 1.393 . S
C579 C578 1.391 . S
H580 C588 0.950 . S
H581 C593 0.950 . S
H582 C590 0.950 . S
H583 C592 0.950 . S
H584 C594 0.950 . S
H585 C596 0.950 . S
H586 C598 0.950 . S
H587 C599 0.950 . S
C588 H580 0.950 . S
C588 C589 1.386 . S
C588 C590 1.391 . S
C589 C588 1.386 . S
C589 C593 1.393 . S
C590 H582 0.950 . S
C590 C588 1.391 . S
C590 C591 1.400 . S
C591 C590 1.400 . S
C591 C592 1.398 . S
C591 C597 1.491 . S
C592 H583 0.950 . S
C592 C591 1.398 . S
C592 C593 1.391 . S
C593 H581 0.950 . S
C593 C589 1.393 . S
C593 C592 1.391 . S
C594 H584 0.950 . S
C594 C595 1.386 . S
C594 C596 1.391 . S
C595 C594 1.386 . S
C595 C599 1.393 . S
C596 H585 0.950 . S
C596 C594 1.391 . S
C596 C597 1.400 . S
C597 C591 1.491 . S
C597 C596 1.400 . S
C597 C598 1.398 . S
C598 H586 0.950 . S
C598 C597 1.398 . S
C598 C599 1.391 . S
C599 H587 0.950 . S
C599 C595 1.393 . S
C599 C598 1.391 . S
H600 C608 0.950 . S
H601 C613 0.950 . S
H602 C610 0.950 . S
H603 C612 0.950 . S
H604 C614 0.950 . S
H605 C616 0.950 . S
H606 C618 0.950 . S
H607 C619 0.950 . S
C608 H600 0.950 . S
C608 C609 1.386 . S
C608 C610 1.391 . S
C609 C608 1.386 . S
C609 C613 1.393 . S
C610 H602 0.950 . S
C610 C608 1.391 . S
C610 C611 1.400 . S
C611 C610 1.400 . S
C611 C612 1.398 . S
C611 C617 1.491 . S
C612 H603 0.950 . S
C612 C611 1.398 . S
C612 C613 1.391 . S
C613 H601 0.950 . S
C613 C609 1.393 . S
C613 C612 1.391 . S
C614 H604 0.950 . S
C614 C615 1.386 . S
C614 C616 1.391 . S
C615 C614 1.386 . S
C615 C619 1.393 . S
C616 H605 0.950 . S
C616 C614 1.391 . S
C616 C617 1.400 . S
C617 C611 1.491 . S
C617 C616 1.400 . S
C617 C618 1.398 . S
C618 H606 0.950 . S
C618 C617 1.398 . S
C618 C619 1.391 . S
C619 H607 0.950 . S
C619 C615 1.393 . S
C619 C618 1.391 . S
H620 C628 0.950 . S
H621 C633 0.950 . S
H622 C630 0.950 . S
H623 C632 0.950 . S
H624 C634 0.950 . S
H625 C636 0.950 . S
H626 C638 0.950 . S
H627 C639 0.950 . S
C628 H620 0.950 . S
C628 C629 1.386 . S
C628 C630 1.391 . S
C629 C628 1.386 . S
C629 C633 1.393 . S
C630 H622 0.950 . S
C630 C628 1.391 . S
C630 C631 1.400 . S
C631 C630 1.400 . S
C631 C632 1.398 . S
C631 C637 1.491 . S
C632 H623 0.950 . S
C632 C631 1.398 . S
C632 C633 1.391 . S
C633 H621 0.950 . S
C633 C629 1.393 . S
C633 C632 1.391 . S
C634 H624 0.950 . S
C634 C635 1.386 . S
C634 C636 1.391 . S
C635 C634 1.386 . S
C635 C639 1.393 . S
C636 H625 0.950 . S
C636 C634 1.391 . S
C636 C637 1.400 . S
C637 C631 1.491 . S
C637 C636 1.400 . S
C637 C638 1.398 . S
C638 H626 0.950 . S
C638 C637 1.398 . S
C638 C639 1.391 . S
C639 H627 0.950 . S
C639 C635 1.393 . S
C639 C638 1.391 . S
H640 C648 0.950 . S
H641 C653 0.950 . S
H642 C650 0.950 . S
H643 C652 0.950 . S
H644 C654 0.950 . S
H645 C656 0.950 . S
H646 C658 0.950 . S
H647 C659 0.950 . S
C648 H640 0.950 . S
C648 C649 1.386 . S
C648 C650 1.391 . S
C649 C648 1.386 . S
C649 C653 1.393 . S
C650 H642 0.950 . S
C650 C648 1.391 . S
C650 C651 1.400 . S
C651 C650 1.400 . S
C651 C652 1.398 . S
C651 C657 1.491 . S
C652 H643 0.950 . S
C652 C651 1.398 . S
C652 C653 1.391 . S
C653 H641 0.950 . S
C653 C649 1.393 . S
C653 C652 1.391 . S
C654 H644 0.950 . S
C654 C655 1.386 . S
C654 C656 1.391 . S
C655 C654 1.386 . S
C655 C659 1.393 . S
C656 H645 0.950 . S
C656 C654 1.391 . S
C656 C657 1.400 . S
C657 C651 1.491 . S
C657 C656 1.400 . S
C657 C658 1.398 . S
C658 H646 0.950 . S
C658 C657 1.398 . S
C658 C659 1.391 . S
C659 H647 0.950 . S
C659 C655 1.393 . S
C659 C658 1.391 . S
H660 C668 0.950 . S
H661 C673 0.950 . S
H662 C670 0.950 . S
H663 C672 0.950 . S
H664 C674 0.950 . S
H665 C676 0.950 . S
H666 C678 0.950 . S
H667 C679 0.950 . S
C668 H660 0.950 . S
C668 C669 1.386 . S
C668 C670 1.391 . S
C669 C668 1.386 . S
C669 C673 1.393 1_455 S
C670 H662 0.950 . S
C670 C668 1.391 . S
C670 C671 1.400 . S
C671 C670 1.400 . S
C671 C672 1.398 1_455 S
C671 C677 1.491 . S
C672 H663 0.950 . S
C672 C671 1.398 1_655 S
C672 C673 1.391 . S
C673 H661 0.950 . S
C673 C669 1.393 1_655 S
C673 C672 1.391 . S
C674 H664 0.950 . S
C674 C675 1.386 1_655 S
C674 C676 1.391 . S
C675 C674 1.386 1_455 S
C675 C679 1.393 . S
C676 H665 0.950 . S
C676 C674 1.391 . S
C676 C677 1.400 1_655 S
C677 C671 1.491 . S
C677 C676 1.400 1_455 S
C677 C678 1.398 . S
C678 H666 0.950 . S
C678 C677 1.398 . S
C678 C679 1.391 . S
C679 H667 0.950 . S
C679 C675 1.393 . S
C679 C678 1.391 . S
H680 C688 0.950 1_565 S
H681 C693 0.950 . S
H682 C690 0.950 1_565 S
H683 C692 0.950 . S
H684 C694 0.950 . S
H685 C696 0.950 . S
H686 C698 0.950 1_565 S
H687 C699 0.950 . S
C688 H680 0.950 1_545 S
C688 C689 1.386 . S
C688 C690 1.391 . S
C689 C688 1.386 . S
C689 C693 1.393 . S
C690 H682 0.950 1_545 S
C690 C688 1.391 . S
C690 C691 1.400 . S
C691 C690 1.400 . S
C691 C692 1.398 . S
C691 C697 1.491 . S
C692 H683 0.950 . S
C692 C691 1.398 . S
C692 C693 1.391 . S
C693 H681 0.950 . S
C693 C689 1.393 . S
C693 C692 1.391 . S
C694 H684 0.950 . S
C694 C695 1.386 . S
C694 C696 1.391 . S
C695 C694 1.386 . S
C695 C699 1.393 . S
C696 H685 0.950 . S
C696 C694 1.391 . S
C696 C697 1.400 . S
C697 C691 1.491 . S
C697 C696 1.400 . S
C697 C698 1.398 . S
C698 H686 0.950 1_545 S
C698 C697 1.398 . S
C698 C699 1.391 . S
C699 H687 0.950 . S
C699 C695 1.393 . S
C699 C698 1.391 . S
H700 C708 0.950 . S
H701 C713 0.950 . S
H702 C710 0.950 . S
H703 C712 0.950 . S
H704 C714 0.950 . S
H705 C716 0.950 . S
H706 C718 0.950 . S
H707 C719 0.950 . S
C708 H700 0.950 . S
C708 C709 1.386 . S
C708 C710 1.391 . S
C709 C708 1.386 . S
C709 C713 1.393 . S
C710 H702 0.950 . S
C710 C708 1.391 . S
C710 C711 1.400 . S
C711 C710 1.400 . S
C711 C712 1.398 . S
C711 C717 1.491 . S
C712 H703 0.950 . S
C712 C711 1.398 . S
C712 C713 1.391 . S
C713 H701 0.950 . S
C713 C709 1.393 . S
C713 C712 1.391 . S
C714 H704 0.950 . S
C714 C715 1.386 . S
C714 C716 1.391 . S
C715 C714 1.386 . S
C715 C719 1.393 . S
C716 H705 0.950 . S
C716 C714 1.391 . S
C716 C717 1.400 . S
C717 C711 1.491 . S
C717 C716 1.400 . S
C717 C718 1.398 . S
C718 H706 0.950 . S
C718 C717 1.398 . S
C718 C719 1.391 . S
C719 H707 0.950 . S
C719 C715 1.393 . S
C719 C718 1.391 . S
H720 C728 0.950 . S
H721 C733 0.950 . S
H722 C730 0.950 . S
H723 C732 0.950 . S
H724 C734 0.950 . S
H725 C736 0.950 . S
H726 C738 0.950 . S
H727 C739 0.950 . S
C728 H720 0.950 . S
C728 C729 1.386 . S
C728 C730 1.391 . S
C729 C728 1.386 . S
C729 C733 1.393 1_545 S
C730 H722 0.950 . S
C730 C728 1.391 . S
C730 C731 1.400 . S
C731 C730 1.400 . S
C731 C732 1.398 1_545 S
C731 C737 1.491 . S
C732 H723 0.950 . S
C732 C731 1.398 1_565 S
C732 C733 1.391 . S
C733 H721 0.950 . S
C733 C729 1.393 1_565 S
C733 C732 1.391 . S
C734 H724 0.950 . S
C734 C735 1.386 1_565 S
C734 C736 1.391 . S
C735 C734 1.386 1_545 S
C735 C739 1.393 . S
C736 H725 0.950 . S
C736 C734 1.391 . S
C736 C737 1.400 1_565 S
C737 C731 1.491 . S
C737 C736 1.400 1_545 S
C737 C738 1.398 . S
C738 H726 0.950 . S
C738 C737 1.398 . S
C738 C739 1.391 . S
C739 H727 0.950 . S
C739 C735 1.393 . S
C739 C738 1.391 . S
H740 C748 0.950 . S
H741 C753 0.950 . S
H742 C750 0.950 . S
H743 C752 0.950 . S
H744 C754 0.950 . S
H745 C756 0.950 . S
H746 C758 0.950 . S
H747 C759 0.950 . S
C748 H740 0.950 . S
C748 C749 1.386 . S
C748 C750 1.391 . S
C749 C748 1.386 . S
C749 C753 1.393 . S
C750 H742 0.950 . S
C750 C748 1.391 . S
C750 C751 1.400 . S
C751 C750 1.400 . S
C751 C752 1.398 . S
C751 C757 1.491 . S
C752 H743 0.950 . S
C752 C751 1.398 . S
C752 C753 1.391 . S
C753 H741 0.950 . S
C753 C749 1.393 . S
C753 C752 1.391 . S
C754 H744 0.950 . S
C754 C755 1.386 . S
C754 C756 1.391 . S
C755 C754 1.386 . S
C755 C759 1.393 . S
C756 H745 0.950 . S
C756 C754 1.391 . S
C756 C757 1.400 . S
C757 C751 1.491 . S
C757 C756 1.400 . S
C757 C758 1.398 . S
C758 H746 0.950 . S
C758 C757 1.398 . S
C758 C759 1.391 . S
C759 H747 0.950 . S
C759 C755 1.393 . S
C759 C758 1.391 . S
H760 C768 0.950 . S
H761 C773 0.950 . S
H762 C770 0.956 . S
H763 C772 0.944 . S
H764 C774 0.950 . S
H765 C776 0.950 . S
H766 C778 0.950 . S
H767 C779 0.950 . S
C768 H760 0.950 . S
C768 C769 1.386 . S
C768 C770 1.391 1_655 S
C769 C768 1.386 . S
C769 C773 1.393 . S
C770 H762 0.956 . S
C770 C768 1.391 1_455 S
C770 C771 1.403 . S
C771 C770 1.403 . S
C771 C772 1.404 1_455 S
C771 C777 1.491 . S
C772 H763 0.944 . S
C772 C771 1.404 1_655 S
C772 C773 1.391 . S
C773 H761 0.950 . S
C773 C769 1.393 . S
C773 C772 1.391 . S
C774 H764 0.950 . S
C774 C775 1.386 . S
C774 C776 1.391 . S
C775 C774 1.386 . S
C775 C779 1.393 . S
C776 H765 0.950 . S
C776 C774 1.391 . S
C776 C777 1.400 . S
C777 C771 1.491 . S
C777 C776 1.400 . S
C777 C778 1.398 . S
C778 H766 0.950 . S
C778 C777 1.398 . S
C778 C779 1.391 . S
C779 H767 0.950 . S
C779 C775 1.393 . S
C779 C778 1.391 . S
C429 C2 1.368 . S
C435 C391 1.447 . S
C449 C22 1.321 . S
C455 C241 1.370 . S
C469 C44 1.410 . S
C475 C301 1.390 . S
C489 C4 1.551 . S
C495 C361 1.555 . S
C515 C271 1.681 . S
C509 C24 1.599 . S
C535 C331 1.603 . S
C529 C42 1.496 . S
C549 C32 1.338 . S
C555 C121 1.256 . S
C569 C49 1.289 . S
C575 C211 1.313 . S
C589 C9 1.278 . S
C595 C91 1.297 . S
C615 C151 1.290 . S
C609 C29 1.257 . S
C635 C181 1.234 . S
C629 C52 1.277 . S
C649 C12 1.258 . S
C655 C61 1.258 . S
C675 C200 1.413 1_554 S
C669 C18 1.431 1_455 S
C689 C38 1.428 . S
C695 C80 1.412 . S
C709 C58 1.419 . S
C715 C140 1.404 . S
C735 C320 1.484 . S
C729 C39 1.491 . S
C755 C380 1.483 1_556 S
C749 C59 1.466 . S
C769 C19 1.477 1_655 S
C775 C260 1.459 . S
