# Generated by pormake.
# Topology anh, (6,3)-cn, num edge types: 1
# Building blocks:
#     Node 0, Type 0, BuildingBlock: CUKXOW_clean_sbu_0, # of connection points: 6
#     Node 1, Type 0, BuildingBlock: CUKXOW_clean_sbu_0, # of connection points: 6
#     Node 2, Type 0, BuildingBlock: CUKXOW_clean_sbu_0, # of connection points: 6
#     Node 3, Type 1, BuildingBlock: BETDIP_clean_linker_0, # of connection points: 3
#     Node 4, Type 1, BuildingBlock: BETDIP_clean_linker_0, # of connection points: 3
#     Node 5, Type 1, BuildingBlock: BETDIP_clean_linker_0, # of connection points: 3
#     Node 6, Type 1, BuildingBlock: BETDIP_clean_linker_0, # of connection points: 3
#     Node 7, Type 1, BuildingBlock: BETDIP_clean_linker_0, # of connection points: 3
#     Node 8, Type 1, BuildingBlock: BETDIP_clean_linker_0, # of connection points: 3
#     Edge 9, Type (0, 1), BuildingBlock: CIFDUS_clean_linker_0, # of connection points: 2
#     Edge 10, Type (0, 1), BuildingBlock: CIFDUS_clean_linker_0, # of connection points: 2
#     Edge 11, Type (0, 1), BuildingBlock: CIFDUS_clean_linker_0, # of connection points: 2
#     Edge 12, Type (0, 1), BuildingBlock: CIFDUS_clean_linker_0, # of connection points: 2
#     Edge 13, Type (0, 1), BuildingBlock: CIFDUS_clean_linker_0, # of connection points: 2
#     Edge 14, Type (0, 1), BuildingBlock: CIFDUS_clean_linker_0, # of connection points: 2
#     Edge 15, Type (0, 1), BuildingBlock: CIFDUS_clean_linker_0, # of connection points: 2
#     Edge 16, Type (0, 1), BuildingBlock: CIFDUS_clean_linker_0, # of connection points: 2
#     Edge 17, Type (0, 1), BuildingBlock: CIFDUS_clean_linker_0, # of connection points: 2
#     Edge 18, Type (0, 1), BuildingBlock: CIFDUS_clean_linker_0, # of connection points: 2
#     Edge 19, Type (0, 1), BuildingBlock: CIFDUS_clean_linker_0, # of connection points: 2
#     Edge 20, Type (0, 1), BuildingBlock: CIFDUS_clean_linker_0, # of connection points: 2
#     Edge 21, Type (0, 1), BuildingBlock: CIFDUS_clean_linker_0, # of connection points: 2
#     Edge 22, Type (0, 1), BuildingBlock: CIFDUS_clean_linker_0, # of connection points: 2
#     Edge 23, Type (0, 1), BuildingBlock: CIFDUS_clean_linker_0, # of connection points: 2
#     Edge 24, Type (0, 1), BuildingBlock: CIFDUS_clean_linker_0, # of connection points: 2
#     Edge 25, Type (0, 1), BuildingBlock: CIFDUS_clean_linker_0, # of connection points: 2
#     Edge 26, Type (0, 1), BuildingBlock: CIFDUS_clean_linker_0, # of connection points: 2
# Relax obj value: 0.083
# Max RMSD: 0.173
# Mean RMSD: 0.107
data_MOF--net-anh--node1-CUKXOW_clean_sbu_0--node2-BETDIP_clean_linker_0--edge1-CIFDUS_clean_linker_0
_symmetry_space_group_name_H-M    P1
_symmetry_Int_Tables_number       1
_symmetry_cell_setting            triclinic
loop_
_symmetry_equiv_pos_as_xyz
'x, y, z'
_cell_length_a     24.857447
_cell_length_b     24.535591
_cell_length_c     42.487783
_cell_angle_alpha  98.15235
_cell_angle_beta   88.887247
_cell_angle_gamma 110.68512
loop_
_atom_site_label
_atom_site_type_symbol
_atom_site_fract_x
_atom_site_fract_y
_atom_site_fract_z
_atom_type_partial_charge
Tb0 Tb 0.09898 0.5875 0.15374 0.0
C1 C 0.06634 0.535 0.21762 0.0
Tb2 Tb 1.02736 0.45507 0.15091 0.0
O3 O 1.02778 0.62163 0.15322 0.0
O4 O 1.01133 0.53353 0.15178 0.0
O5 O 0.10288 0.57722 0.2034 0.0
C6 C 0.95304 0.3488 0.15765 0.0
O7 O 1.02904 0.48627 0.20171 0.0
C8 C 0.1377 0.48039 0.13967 0.0
C9 C 0.05491 0.50829 0.08722 0.0
O10 O 1.0063 0.37035 0.16777 0.0
O11 O 0.94129 0.38718 0.14357 0.0
O12 O 0.09683 0.43265 0.1274 0.0
O13 O 0.1163 0.51007 0.15956 0.0
O14 O 1.01885 0.46559 0.10153 0.0
O15 O 0.09313 0.55687 0.10287 0.0
C16 C 0.18663 0.6893 0.15688 0.0
O17 O 0.14112 0.67952 0.17381 0.0
O18 O 0.18294 0.64154 0.13792 0.0
C19 C 0.98687 0.57074 0.15227 0.0
Tb20 Tb 0.54845 0.03988 0.49907 0.0
C21 C 0.60079 0.06867 0.43172 0.0
Tb22 Tb 0.67346 0.12529 0.49523 0.0
O23 O 0.51588 0.11071 0.51389 0.0
O24 O 0.58969 0.12613 0.48705 0.0
O25 O 0.5617 0.03104 0.44756 0.0
C26 C 0.76533 0.22452 0.49881 0.0
O27 O 0.64303 0.11486 0.44635 0.0
C28 C 0.65952 0.01303 0.49594 0.0
C29 C 0.61998 0.10236 0.56273 0.0
O30 O 0.75441 0.17974 0.47647 0.0
O31 O 0.72517 0.21291 0.51939 0.0
O32 O 0.70484 0.04965 0.48462 0.0
O33 O 0.63137 0.04258 0.50897 0.0
O34 O 0.65806 0.13926 0.54605 0.0
O35 O 0.57775 0.05472 0.54889 0.0
C36 C 0.4586 0.9387 0.49316 0.0
O37 O 0.4586 0.98866 0.50821 0.0
O38 O 0.50876 0.94609 0.4814 0.0
C39 C 0.55943 0.15078 0.50338 0.0
Tb40 Tb 0.52047 0.57023 0.82639 0.0
C41 C 0.59056 0.58511 0.89081 0.0
Tb42 Tb 0.65291 0.58941 0.826 0.0
O43 O 0.50094 0.48182 0.8005 0.0
O44 O 0.57357 0.51959 0.83019 0.0
O45 O 0.5473 0.59444 0.8771 0.0
C46 C 0.74516 0.55938 0.81732 0.0
O47 O 0.63306 0.57488 0.87459 0.0
C48 C 0.63327 0.68981 0.8317 0.0
C49 C 0.58758 0.5905 0.76294 0.0
O50 O 0.7418 0.60196 0.83844 0.0
O51 O 0.69677 0.5341 0.80123 0.0
O52 O 0.68492 0.6876 0.8307 0.0
O53 O 0.59941 0.63788 0.82968 0.0
O54 O 0.63015 0.57963 0.77598 0.0
O55 O 0.54333 0.59673 0.77933 0.0
C56 C 0.41176 0.56281 0.83602 0.0
O57 O 0.44211 0.54415 0.8533 0.0
O58 O 0.44337 0.58745 0.81359 0.0
C59 C 0.54745 0.47591 0.80998 0.0
H60 H 0.53641 0.95834 0.15098 0.0
H61 H 0.63726 0.03787 0.23755 0.0
H62 H 0.46528 0.91387 0.24096 0.0
H63 H 0.71012 0.03477 0.20063 0.0
C64 C 0.69564 0.0564 0.1837 0.0
C65 C 0.54075 0.96304 0.17666 0.0
C66 C 0.49506 0.93103 0.19419 0.0
C67 C 0.59217 1.00132 0.19213 0.0
C68 C 0.5977 0.0079 0.22551 0.0
C69 C 0.55209 0.97649 0.24343 0.0
C70 C 0.50093 0.93825 0.22747 0.0
N71 N 0.63673 0.03501 0.17387 0.0
H72 H 0.65127 0.53359 0.48576 0.0
H73 H 0.65312 0.65636 0.56963 0.0
H74 H 0.64045 0.48074 0.57892 0.0
H75 H 0.58539 0.66599 0.52833 0.0
C76 C 0.62208 0.68082 0.51324 0.0
C77 C 0.651 0.54392 0.51139 0.0
C78 C 0.64487 0.49988 0.53068 0.0
C79 C 0.65282 0.60036 0.5253 0.0
C80 C 0.65075 0.6129 0.55862 0.0
C81 C 0.64702 0.57006 0.57785 0.0
C82 C 0.6442 0.51402 0.56384 0.0
N83 N 0.65532 0.6441 0.50593 0.0
H84 H 1.0117 0.41459 0.80754 0.0
H85 H 0.06127 0.35009 0.88711 0.0
H86 H 0.99105 0.48827 0.90294 0.0
H87 H 0.0791 0.32675 0.77468 0.0
C88 C 0.09074 0.35569 0.79723 0.0
C89 C 1.01683 0.41682 0.83302 0.0
C90 C 0.99901 0.45633 0.85385 0.0
C91 C 1.03944 0.37864 0.84503 0.0
C92 C 1.0439 0.37973 0.87798 0.0
C93 C 1.02869 0.42108 0.899 0.0
C94 C 1.00598 0.45875 0.8867 0.0
N95 N 0.05723 0.33848 0.82401 0.0
H96 H 0.11429 0.65312 0.49892 0.0
H97 H 1.0236 0.56264 0.41055 0.0
H98 H 0.19064 0.69604 0.4097 0.0
H99 H 0.947 0.55991 0.44243 0.0
C100 C 0.96062 0.54124 0.46117 0.0
C101 C 0.11215 0.64638 0.47315 0.0
C102 C 0.15828 0.67975 0.45614 0.0
C103 C 0.06322 0.60409 0.45685 0.0
C104 C 0.0609 0.59539 0.42333 0.0
C105 C 0.10638 0.62862 0.40608 0.0
C106 C 0.15501 0.67033 0.42275 0.0
N107 N 1.01762 0.56901 0.47423 0.0
H108 H 0.63377 0.16357 0.84244 0.0
H109 H 0.63408 0.03436 0.76235 0.0
H110 H 0.62662 0.20075 0.74705 0.0
H111 H 0.55544 0.98604 0.80904 0.0
C112 C 0.59684 0.9959 0.82095 0.0
C113 C 0.63418 0.15095 0.81697 0.0
C114 C 0.62966 0.1887 0.79601 0.0
C115 C 0.63479 0.09478 0.80479 0.0
C116 C 0.63319 0.0775 0.77168 0.0
C117 C 0.63168 0.11619 0.75072 0.0
C118 C 0.62998 0.17144 0.76317 0.0
N119 N 0.6358 0.05505 0.82576 0.0
H120 H 0.51378 0.52681 0.16183 0.0
H121 H 0.62567 0.56584 0.08298 0.0
H122 H 0.4545 0.56897 0.07705 0.0
H123 H 0.62371 0.46216 0.10485 0.0
C124 C 0.6472 0.49547 0.12432 0.0
C125 C 0.52158 0.53955 0.13831 0.0
C126 C 0.47717 0.54737 0.12103 0.0
C127 C 0.57501 0.54468 0.1241 0.0
C128 C 0.58431 0.56045 0.09339 0.0
C129 C 0.54141 0.5701 0.07636 0.0
C130 C 0.48837 0.56332 0.09043 0.0
N131 N 0.61941 0.53341 0.14007 0.0
H132 H 0.23665 0.54833 0.17699 0.0
H133 H 0.17782 0.43483 0.08767 0.0
H134 H 0.27563 0.44134 0.07576 0.0
H135 H 0.37772 0.47834 0.08979 0.0
H136 H 0.4417 0.59292 0.17788 0.0
H137 H 0.34277 0.58552 0.19164 0.0
C138 C 0.24555 0.52558 0.15486 0.0
C139 C 0.19959 0.49119 0.13318 0.0
C140 C 0.30286 0.52878 0.14815 0.0
C141 C 0.21198 0.46149 0.10479 0.0
C142 C 0.26806 0.46496 0.09795 0.0
C143 C 0.37014 0.50152 0.11216 0.0
C144 C 0.4173 0.53623 0.13271 0.0
C145 C 0.3137 0.49808 0.11943 0.0
C146 C 0.40633 0.56539 0.16172 0.0
C147 C 0.3497 0.56168 0.16938 0.0
H148 H 0.80862 0.27212 0.44643 0.0
H149 H 0.81672 0.30889 0.54876 0.0
H150 H 0.88242 0.40994 0.54653 0.0
H151 H 0.93355 0.48959 0.51493 0.0
H152 H 0.9139 0.45473 0.41274 0.0
H153 H 0.85697 0.35133 0.41519 0.0
C154 C 0.82562 0.30209 0.4682 0.0
C155 C 0.80895 0.28322 0.4977 0.0
C156 C 0.86089 0.36059 0.46664 0.0
C157 C 0.8297 0.32264 0.5258 0.0
C158 C 0.86698 0.38034 0.52451 0.0
C159 C 0.91701 0.45897 0.49333 0.0
C160 C 0.92789 0.47905 0.46369 0.0
C161 C 0.8823 0.40009 0.49503 0.0
C162 C 0.90573 0.43976 0.43576 0.0
C163 C 0.87335 0.38079 0.43716 0.0
H164 H 0.70433 0.80438 0.83983 0.0
H165 H 0.52626 0.69242 0.82454 0.0
H166 H 0.49909 0.7779 0.82135 0.0
H167 H 0.52662 0.88396 0.82012 0.0
H168 H 0.70407 0.99718 0.83684 0.0
H169 H 0.73095 0.91214 0.84261 0.0
C170 C 0.65961 0.79897 0.83601 0.0
C171 C 0.61732 0.74229 0.83208 0.0
C172 C 0.64429 0.84854 0.83448 0.0
C173 C 0.55948 0.73563 0.82742 0.0
C174 C 0.54396 0.78448 0.82559 0.0
C175 C 0.57107 0.88996 0.82537 0.0
C176 C 0.61328 0.94647 0.82796 0.0
C177 C 0.58607 0.84102 0.82868 0.0
C178 C 0.67073 0.95402 0.83484 0.0
C179 C 0.68615 0.90538 0.83799 0.0
H180 H 0.89237 0.47017 0.13264 0.0
H181 H 0.9406 0.65324 0.17217 0.0
H182 H 0.84035 0.64611 0.17017 0.0
H183 H 0.73839 0.58971 0.15408 0.0
H184 H 0.69056 0.40861 0.11108 0.0
H185 H 0.78951 0.41278 0.1178 0.0
C186 C 0.88072 0.50814 0.14119 0.0
C187 C 0.92424 0.56211 0.15265 0.0
C188 C 0.82245 0.50418 0.13927 0.0
C189 C 0.90822 0.61112 0.16318 0.0
C190 C 0.85067 0.60716 0.16205 0.0
C191 C 0.74948 0.55095 0.14671 0.0
C192 C 0.70677 0.49871 0.13237 0.0
C193 C 0.80729 0.55418 0.14974 0.0
C194 C 0.72242 0.4493 0.12235 0.0
C195 C 0.7792 0.45169 0.12608 0.0
H196 H 0.35039 0.9163 0.51563 0.0
H197 H 0.45618 0.83588 0.4593 0.0
H198 H 0.37328 0.74547 0.44601 0.0
H199 H 0.26939 0.69263 0.44625 0.0
H200 H 0.16203 0.77186 0.50162 0.0
H201 H 0.24683 0.85872 0.52015 0.0
C202 C 0.35521 0.87868 0.50073 0.0
C203 C 0.40901 0.88289 0.48807 0.0
C204 C 0.30715 0.82665 0.49309 0.0
C205 C 0.41502 0.83382 0.46905 0.0
C206 C 0.36768 0.78209 0.46145 0.0
C207 C 0.26481 0.72861 0.46278 0.0
C208 C 0.20974 0.72628 0.4724 0.0
C209 C 0.31337 0.77851 0.47274 0.0
C210 C 0.20415 0.77269 0.49405 0.0
C211 C 0.25252 0.82253 0.50436 0.0
H212 H 0.6298 0.44652 0.83828 0.0
H213 H 0.48479 0.37808 0.77139 0.0
H214 H 0.49395 0.28174 0.76446 0.0
H215 H 0.54351 0.21752 0.77603 0.0
H216 H 0.6924 0.28352 0.83971 0.0
H217 H 0.68064 0.38 0.85008 0.0
C218 C 0.6006 0.41048 0.82208 0.0
C219 C 0.55678 0.41933 0.80526 0.0
C220 C 0.6063 0.3548 0.818 0.0
C221 C 0.51889 0.37236 0.78452 0.0
C222 C 0.5239 0.31718 0.78063 0.0
C223 C 0.57325 0.25299 0.79235 0.0
C224 C 0.61891 0.24387 0.80695 0.0
C225 C 0.56735 0.30802 0.79717 0.0
C226 C 0.6567 0.28965 0.82838 0.0
C227 C 0.6503 0.34481 0.83399 0.0
H228 H 0.71694 0.93755 0.47246 0.0
H229 H 0.57489 0.94833 0.53 0.0
H230 H 0.55007 0.84726 0.53839 0.0
H231 H 0.56849 0.75592 0.53107 0.0
H232 H 0.71152 0.74082 0.4764 0.0
H233 H 0.73616 0.84255 0.4653 0.0
C234 C 0.68063 0.91753 0.48675 0.0
C235 C 0.64741 0.9507 0.50015 0.0
C236 C 0.66673 0.85842 0.49213 0.0
C237 C 0.6008 0.92414 0.51889 0.0
C238 C 0.5865 0.86605 0.5239 0.0
C239 C 0.60498 0.77474 0.51657 0.0
C240 C 0.63796 0.74097 0.50454 0.0
C241 C 0.6191 0.83289 0.51077 0.0
C242 C 0.68529 0.76598 0.48592 0.0
C243 C 0.69941 0.82419 0.47964 0.0
H244 H 0.85178 0.61378 0.84434 0.0
H245 H 0.74563 0.45626 0.78468 0.0
H246 H 0.82038 0.41347 0.78648 0.0
H247 H 0.90978 0.41585 0.81106 0.0
H248 H 1.01521 0.57248 0.8716 0.0
H249 H 0.9475 0.62127 0.86291 0.0
C250 C 0.8456 0.57051 0.83134 0.0
C251 C 0.79337 0.53783 0.81475 0.0
C252 C 0.88852 0.54608 0.83269 0.0
C253 C 0.78566 0.48207 0.79771 0.0
C254 C 0.82826 0.45754 0.79879 0.0
C255 C 0.91884 0.4613 0.82148 0.0
C256 C 0.9669 0.4904 0.84219 0.0
C257 C 0.87911 0.48846 0.81698 0.0
C258 C 0.97798 0.5491 0.85584 0.0
C259 C 0.93922 0.57686 0.85101 0.0
H260 H 0.29081 0.71031 0.12999 0.0
H261 H 0.19546 0.79006 0.19525 0.0
H262 H 0.28218 0.87602 0.2098 0.0
H263 H 0.3866 0.92338 0.20829 0.0
H264 H 0.48364 0.84328 0.14469 0.0
H265 H 0.39475 0.76314 0.12458 0.0
C266 C 0.28902 0.74702 0.14697 0.0
C267 C 0.23723 0.74386 0.16181 0.0
C268 C 0.33932 0.79601 0.15559 0.0
C269 C 0.23511 0.79151 0.18373 0.0
C270 C 0.28463 0.84059 0.19209 0.0
C271 C 0.38805 0.88865 0.18976 0.0
C272 C 0.44129 0.88856 0.17822 0.0
C273 C 0.33719 0.84249 0.17886 0.0
C274 C 0.44291 0.8441 0.15385 0.0
C275 C 0.39223 0.79814 0.14256 0.0
H276 H 0.64588 0.2434 0.48206 0.0
H277 H 0.4895 0.20029 0.53467 0.0
H278 H 0.49968 0.30339 0.54477 0.0
H279 H 0.55456 0.40613 0.54151 0.0
H280 H 0.71248 0.45397 0.49098 0.0
H281 H 0.70005 0.34918 0.47682 0.0
C282 C 0.61409 0.2568 0.49561 0.0
C283 C 0.56709 0.21412 0.50773 0.0
C284 C 0.62037 0.31699 0.50161 0.0
C285 C 0.52612 0.23206 0.52514 0.0
C286 C 0.53181 0.29111 0.53093 0.0
C287 C 0.58592 0.39353 0.52704 0.0
C288 C 0.63432 0.43747 0.51732 0.0
C289 C 0.57891 0.3339 0.51962 0.0
C290 C 0.67457 0.42076 0.49848 0.0
C291 C 0.66765 0.36092 0.49066 0.0
H292 H 0.3389 0.5403 0.78535 0.0
H293 H 0.34396 0.53307 0.88598 0.0
H294 H 0.24163 0.47292 0.88354 0.0
H295 H 0.15624 0.41021 0.8515 0.0
H296 H 0.15174 0.41088 0.75015 0.0
H297 H 0.24892 0.48516 0.75395 0.0
C298 C 0.317 0.52708 0.80686 0.0
C299 C 0.34852 0.54105 0.83583 0.0
C300 C 0.25884 0.49016 0.80495 0.0
C301 C 0.32023 0.52288 0.86348 0.0
C302 C 0.26195 0.48808 0.86202 0.0
C303 C 0.17549 0.42781 0.83033 0.0
C304 C 0.14658 0.40547 0.80056 0.0
C305 C 0.2315 0.46954 0.83267 0.0
C306 C 0.1733 0.42754 0.7733 0.0
C307 C 0.22875 0.46997 0.77548 0.0
H308 H 0.84086 0.29787 0.13766 0.0
H309 H 0.97426 0.2702 0.18953 0.0
H310 H 0.90658 0.17589 0.2009 0.0
H311 H 0.80869 0.10318 0.19801 0.0
H312 H 0.67472 0.12985 0.14621 0.0
H313 H 0.74327 0.22234 0.13271 0.0
C314 C 0.85499 0.27091 0.15128 0.0
C315 C 0.9122 0.29084 0.16289 0.0
C316 C 0.81578 0.21666 0.15776 0.0
C317 C 0.93028 0.25568 0.18044 0.0
C318 C 0.89165 0.20181 0.18696 0.0
C319 C 0.79474 0.12911 0.18354 0.0
C320 C 0.73699 0.10997 0.17319 0.0
C321 C 0.83423 0.18216 0.17601 0.0
C322 C 0.71912 0.1437 0.15446 0.0
C323 C 0.75824 0.19666 0.1468 0.0
H324 H 1.01441 0.40592 0.04603 0.0
H325 H 0.09641 0.59411 0.04977 0.0
H326 H 0.09923 0.58276 -0.00807 0.0
H327 H 0.0766 0.52017 0.94039 0.0
H328 H 0.99457 0.33217 0.93563 0.0
H329 H 0.9949 0.34241 -0.00609 0.0
C330 C 1.03251 0.44443 0.03415 0.0
C331 C 0.05461 0.50082 0.05215 0.0
C332 C 1.03465 0.43756 0.00081 0.0
C333 C 0.07894 0.55023 0.03647 0.0
C334 C 0.0807 0.54382 0.0034 0.0
C335 C 0.05895 0.48143 0.95216 0.0
C336 C 1.03517 0.42559 0.9339 0.0
C337 C 0.05854 0.48781 0.98539 0.0
C338 C 1.01337 0.37558 0.9493 0.0
C339 C 1.01307 0.38151 0.98254 0.0
H340 H 0.54729 0.96765 0.39162 0.0
H341 H 0.64356 0.15291 0.39325 0.0
H342 H 0.6369 0.14084 0.33528 0.0
H343 H 0.60315 0.07797 0.28419 0.0
H344 H 0.51237 0.89145 0.28227 0.0
H345 H 0.5168 0.90395 0.34023 0.0
C346 C 0.56653 0.00538 0.37926 0.0
C347 C 0.59561 0.06107 0.39668 0.0
C348 C 0.56346 0.99798 0.34587 0.0
C349 C 0.62102 0.10948 0.38036 0.0
C350 C 0.61721 0.10266 0.34722 0.0
C351 C 0.58506 0.03985 0.29637 0.0
C352 C 0.55719 0.98393 0.27876 0.0
C353 C 0.5887 0.04709 0.32972 0.0
C354 C 0.53316 0.93525 0.29513 0.0
C355 C 0.53596 0.94224 0.32832 0.0
H356 H 0.67764 0.59415 0.72558 0.0
H357 H 0.50484 0.59616 0.7224 0.0
H358 H 0.50972 0.59526 0.66461 0.0
H359 H 0.56149 0.58687 0.61439 0.0
H360 H 0.73199 0.5801 0.61902 0.0
H361 H 0.72983 0.59025 0.67707 0.0
C362 C 0.64085 0.59458 0.71245 0.0
C363 C 0.59066 0.5946 0.72839 0.0
C364 C 0.64371 0.59322 0.67944 0.0
C365 C 0.54394 0.59594 0.71078 0.0
C366 C 0.54669 0.5953 0.67772 0.0
C367 C 0.59829 0.5886 0.62834 0.0
C368 C 0.64702 0.58313 0.61281 0.0
C369 C 0.59609 0.59302 0.66172 0.0
C370 C 0.69432 0.58452 0.63074 0.0
C371 C 0.69296 0.5901 0.6638 0.0
H372 H 0.56861 0.02666 0.60492 0.0
H373 H 0.69347 0.19966 0.59888 0.0
H374 H 0.71245 0.21574 0.65597 0.0
H375 H 0.69199 0.18273 0.70769 0.0
H376 H 0.56441 0.01253 0.71537 0.0
H377 H 0.54969 0.99238 0.65738 0.0
C378 C 0.59975 0.06796 0.61613 0.0
C379 C 0.62927 0.11198 0.59761 0.0
C380 C 0.61066 0.0771 0.64916 0.0
C381 C 0.66999 0.16499 0.61248 0.0
C382 C 0.68108 0.17427 0.64516 0.0
C383 C 0.66103 0.14112 0.69666 0.0
C384 C 0.62894 0.09944 0.71573 0.0
C385 C 0.65151 0.13082 0.66368 0.0
C386 C 0.5899 0.04519 0.70113 0.0
C387 C 0.581 0.03398 0.66805 0.0
H388 H 0.53897 0.63595 0.93759 0.0
H389 H 0.64003 0.52384 0.92108 0.0
H390 H 0.63549 0.51097 0.97692 0.0
H391 H 0.59883 0.52699 0.02977 0.0
H392 H 0.50358 0.64458 0.04796 0.0
H393 H 0.50936 0.65916 -0.00779 0.0
C394 C 0.56012 0.60894 0.94632 0.0
C395 C 0.58956 0.58079 0.92518 0.0
C396 C 0.55811 0.60227 0.97873 0.0
C397 C 0.6173 0.54634 0.93685 0.0
C398 C 0.61459 0.53871 0.9688 0.0
C399 C 0.58035 0.55687 0.02185 0.0
C400 C 0.55022 0.58398 0.04316 0.0
C401 C 0.58477 0.56607 0.9899 0.0
C402 C 0.5259 0.62188 0.03204 0.0
C403 C 0.52944 0.6306 0.00014 0.0
H404 H 0.1117 0.63677 0.25811 0.0
H405 H 1.02509 0.44962 0.25593 0.0
H406 H 1.03059 0.46191 0.31403 0.0
H407 H 0.06172 0.52565 0.36526 0.0
H408 H 0.14278 0.71358 0.36715 0.0
H409 H 0.13884 0.70079 0.30924 0.0
C410 C 0.09411 0.59861 0.27032 0.0
C411 C 0.0683 0.54235 0.25274 0.0
C412 C 0.09683 0.60604 0.30365 0.0
C413 C 0.04506 0.49346 0.26893 0.0
C414 C 0.04834 0.50042 0.30214 0.0
C415 C 0.07785 0.56396 0.35309 0.0
C416 C 0.1029 0.62046 0.37069 0.0
C417 C 0.07421 0.55652 0.31973 0.0
C418 C 0.12438 0.66941 0.35432 0.0
C419 C 0.12172 0.66225 0.32116 0.0
loop_
_geom_bond_atom_site_label_1
_geom_bond_atom_site_label_2
_geom_bond_distance
_geom_bond_site_symmetry_2
_ccdc_geom_bond_type
Tb0 O3 2.453 1_455 S
Tb0 O4 2.596 . S
Tb0 O5 2.374 . S
Tb0 O13 2.343 . S
Tb0 O15 2.353 . S
Tb0 O17 2.427 . S
Tb0 O18 2.513 . S
C1 O5 1.251 . S
C1 O7 1.263 . S
Tb2 O4 2.343 . S
Tb2 O7 2.353 . S
Tb2 O10 2.427 1_455 S
Tb2 O11 2.513 1_455 S
Tb2 O12 2.453 . S
Tb2 O13 2.596 . S
Tb2 O14 2.374 . S
O3 Tb0 2.453 1_655 S
O3 C19 1.245 . S
O4 Tb0 2.596 . S
O4 Tb2 2.343 . S
O4 C19 1.259 1_455 S
O5 Tb0 2.374 . S
O5 C1 1.251 . S
C6 O10 1.275 . S
C6 O11 1.246 . S
O7 C1 1.263 . S
O7 Tb2 2.353 . S
C8 O12 1.245 . S
C8 O13 1.259 . S
C9 O14 1.250 . S
C9 O15 1.263 . S
O10 Tb2 2.427 1_655 S
O10 C6 1.275 . S
O11 Tb2 2.513 1_655 S
O11 C6 1.246 . S
O12 Tb2 2.453 . S
O12 C8 1.245 . S
O13 Tb0 2.343 . S
O13 Tb2 2.596 . S
O13 C8 1.259 . S
O14 Tb2 2.374 . S
O14 C9 1.250 . S
O15 Tb0 2.353 . S
O15 C9 1.263 . S
C16 O17 1.275 . S
C16 O18 1.246 . S
O17 Tb0 2.427 . S
O17 C16 1.275 . S
O18 Tb0 2.513 . S
O18 C16 1.246 . S
C19 O3 1.245 . S
C19 O4 1.259 1_655 S
Tb20 O23 2.453 . S
Tb20 O24 2.596 . S
Tb20 O25 2.374 . S
Tb20 O33 2.343 1_545 S
Tb20 O35 2.353 . S
Tb20 O37 2.427 1_545 S
Tb20 O38 2.513 1_545 S
C21 O25 1.251 . S
C21 O27 1.263 . S
Tb22 O24 2.343 . S
Tb22 O27 2.353 . S
Tb22 O30 2.427 . S
Tb22 O31 2.513 . S
Tb22 O32 2.453 1_545 S
Tb22 O33 2.596 1_545 S
Tb22 O34 2.374 . S
O23 Tb20 2.453 . S
O23 C39 1.245 . S
O24 Tb20 2.596 . S
O24 Tb22 2.343 . S
O24 C39 1.259 . S
O25 Tb20 2.374 . S
O25 C21 1.251 . S
C26 O30 1.275 . S
C26 O31 1.246 . S
O27 C21 1.263 . S
O27 Tb22 2.353 . S
C28 O32 1.245 . S
C28 O33 1.259 . S
C29 O34 1.250 . S
C29 O35 1.263 . S
O30 Tb22 2.427 . S
O30 C26 1.275 . S
O31 Tb22 2.513 . S
O31 C26 1.246 . S
O32 Tb22 2.453 1_565 S
O32 C28 1.245 . S
O33 Tb20 2.343 1_565 S
O33 Tb22 2.596 1_565 S
O33 C28 1.259 . S
O34 Tb22 2.374 . S
O34 C29 1.250 . S
O35 Tb20 2.353 . S
O35 C29 1.263 . S
C36 O37 1.275 . S
C36 O38 1.246 . S
O37 Tb20 2.427 1_565 S
O37 C36 1.275 . S
O38 Tb20 2.513 1_565 S
O38 C36 1.246 . S
C39 O23 1.245 . S
C39 O24 1.259 . S
Tb40 O43 2.453 . S
Tb40 O44 2.596 . S
Tb40 O45 2.374 . S
Tb40 O53 2.343 . S
Tb40 O55 2.353 . S
Tb40 O57 2.427 . S
Tb40 O58 2.513 . S
C41 O45 1.251 . S
C41 O47 1.263 . S
Tb42 O44 2.343 . S
Tb42 O47 2.353 . S
Tb42 O50 2.427 . S
Tb42 O51 2.513 . S
Tb42 O52 2.453 . S
Tb42 O53 2.596 . S
Tb42 O54 2.374 . S
O43 Tb40 2.453 . S
O43 C59 1.245 . S
O44 Tb40 2.596 . S
O44 Tb42 2.343 . S
O44 C59 1.259 . S
O45 Tb40 2.374 . S
O45 C41 1.251 . S
C46 O50 1.275 . S
C46 O51 1.246 . S
O47 C41 1.263 . S
O47 Tb42 2.353 . S
C48 O52 1.245 . S
C48 O53 1.259 . S
C49 O54 1.250 . S
C49 O55 1.263 . S
O50 Tb42 2.427 . S
O50 C46 1.275 . S
O51 Tb42 2.513 . S
O51 C46 1.246 . S
O52 Tb42 2.453 . S
O52 C48 1.245 . S
O53 Tb40 2.343 . S
O53 Tb42 2.596 . S
O53 C48 1.259 . S
O54 Tb42 2.374 . S
O54 C49 1.250 . S
O55 Tb40 2.353 . S
O55 C49 1.263 . S
C56 O57 1.275 . S
C56 O58 1.246 . S
O57 Tb40 2.427 . S
O57 C56 1.275 . S
O58 Tb40 2.513 . S
O58 C56 1.246 . S
C59 O43 1.245 . S
C59 O44 1.259 . S
H60 C65 0.930 . S
H61 C68 0.930 . S
H62 C70 0.930 . S
H63 C64 1.016 . S
C64 H63 1.016 . S
C64 N71 1.286 . S
C65 H60 0.930 . S
C65 C66 1.397 . S
C65 C67 1.361 . S
C66 C65 1.397 . S
C66 C70 1.390 . S
C67 C65 1.361 . S
C67 C68 1.393 . S
C67 N71 1.413 . S
C68 H61 0.930 . S
C68 C67 1.393 . S
C68 C69 1.399 . S
C69 C68 1.399 . S
C69 C70 1.381 . S
C70 H62 0.930 . S
C70 C66 1.390 . S
C70 C69 1.381 . S
N71 C64 1.286 . S
N71 C67 1.413 . S
H72 C77 0.930 . S
H73 C80 0.930 . S
H74 C82 0.930 . S
H75 C76 1.016 . S
C76 H75 1.016 . S
C76 N83 1.286 . S
C77 H72 0.930 . S
C77 C78 1.397 . S
C77 C79 1.361 . S
C78 C77 1.397 . S
C78 C82 1.390 . S
C79 C77 1.361 . S
C79 C80 1.393 . S
C79 N83 1.413 . S
C80 H73 0.930 . S
C80 C79 1.393 . S
C80 C81 1.399 . S
C81 C80 1.399 . S
C81 C82 1.381 . S
C82 H74 0.930 . S
C82 C78 1.390 . S
C82 C81 1.381 . S
N83 C76 1.286 . S
N83 C79 1.413 . S
H84 C89 0.930 . S
H85 C92 0.930 . S
H86 C94 0.930 1_655 S
H87 C88 1.016 . S
C88 H87 1.016 . S
C88 N95 1.286 . S
C89 H84 0.930 . S
C89 C90 1.397 . S
C89 C91 1.361 . S
C90 C89 1.397 . S
C90 C94 1.390 . S
C91 C89 1.361 . S
C91 C92 1.393 . S
C91 N95 1.413 . S
C92 H85 0.930 . S
C92 C91 1.393 . S
C92 C93 1.399 . S
C93 C92 1.399 . S
C93 C94 1.381 . S
C94 H86 0.930 1_455 S
C94 C90 1.390 . S
C94 C93 1.381 . S
N95 C88 1.286 . S
N95 C91 1.413 . S
H96 C101 0.930 . S
H97 C104 0.930 . S
H98 C106 0.930 . S
H99 C100 1.016 . S
C100 H99 1.016 . S
C100 N107 1.286 . S
C101 H96 0.930 . S
C101 C102 1.397 . S
C101 C103 1.361 1_455 S
C102 C101 1.397 . S
C102 C106 1.390 . S
C103 C101 1.361 1_655 S
C103 C104 1.393 . S
C103 N107 1.413 . S
C104 H97 0.930 . S
C104 C103 1.393 . S
C104 C105 1.399 1_655 S
C105 C104 1.399 1_455 S
C105 C106 1.381 . S
C106 H98 0.930 . S
C106 C102 1.390 . S
C106 C105 1.381 . S
N107 C100 1.286 . S
N107 C103 1.413 . S
H108 C113 0.930 . S
H109 C116 0.930 1_565 S
H110 C118 0.930 . S
H111 C112 1.016 . S
C112 H111 1.016 . S
C112 N119 1.286 . S
C113 H108 0.930 . S
C113 C114 1.397 . S
C113 C115 1.361 . S
C114 C113 1.397 . S
C114 C118 1.390 . S
C115 C113 1.361 . S
C115 C116 1.393 . S
C115 N119 1.413 1_545 S
C116 H109 0.930 1_545 S
C116 C115 1.393 . S
C116 C117 1.399 . S
C117 C116 1.399 . S
C117 C118 1.381 . S
C118 H110 0.930 . S
C118 C114 1.390 . S
C118 C117 1.381 . S
N119 C112 1.286 . S
N119 C115 1.413 1_565 S
H120 C125 0.930 . S
H121 C128 0.930 . S
H122 C130 0.930 . S
H123 C124 1.016 . S
C124 H123 1.016 . S
C124 N131 1.286 . S
C125 H120 0.930 . S
C125 C126 1.397 . S
C125 C127 1.361 . S
C126 C125 1.397 . S
C126 C130 1.390 . S
C127 C125 1.361 . S
C127 C128 1.393 . S
C127 N131 1.413 . S
C128 H121 0.930 . S
C128 C127 1.393 . S
C128 C129 1.399 . S
C129 C128 1.399 . S
C129 C130 1.381 . S
C130 H122 0.930 . S
C130 C126 1.390 . S
C130 C129 1.381 . S
N131 C124 1.286 . S
N131 C127 1.413 . S
H132 C138 0.930 . S
H133 C141 0.930 . S
H134 C142 0.930 . S
H135 C143 0.930 . S
H136 C146 0.930 . S
H137 C147 0.930 . S
C138 H132 0.930 . S
C138 C139 1.355 . S
C138 C140 1.415 . S
C139 C138 1.355 . S
C139 C141 1.419 . S
C140 C138 1.415 . S
C140 C145 1.425 . S
C140 C147 1.409 . S
C141 H133 0.930 . S
C141 C139 1.419 . S
C141 C142 1.362 . S
C142 H134 0.930 . S
C142 C141 1.362 . S
C142 C145 1.409 . S
C143 H135 0.930 . S
C143 C144 1.355 . S
C143 C145 1.415 . S
C144 C143 1.355 . S
C144 C146 1.419 . S
C145 C140 1.425 . S
C145 C142 1.409 . S
C145 C143 1.415 . S
C146 H136 0.930 . S
C146 C144 1.419 . S
C146 C147 1.362 . S
C147 H137 0.930 . S
C147 C140 1.409 . S
C147 C146 1.362 . S
H148 C154 0.930 . S
H149 C157 0.930 . S
H150 C158 0.930 . S
H151 C159 0.930 . S
H152 C162 0.930 . S
H153 C163 0.930 . S
C154 H148 0.930 . S
C154 C155 1.355 . S
C154 C156 1.415 . S
C155 C154 1.355 . S
C155 C157 1.419 . S
C156 C154 1.415 . S
C156 C161 1.425 . S
C156 C163 1.409 . S
C157 H149 0.930 . S
C157 C155 1.419 . S
C157 C158 1.362 . S
C158 H150 0.930 . S
C158 C157 1.362 . S
C158 C161 1.409 . S
C159 H151 0.930 . S
C159 C160 1.355 . S
C159 C161 1.415 . S
C160 C159 1.355 . S
C160 C162 1.419 . S
C161 C156 1.425 . S
C161 C158 1.409 . S
C161 C159 1.415 . S
C162 H152 0.930 . S
C162 C160 1.419 . S
C162 C163 1.362 . S
C163 H153 0.930 . S
C163 C156 1.409 . S
C163 C162 1.362 . S
H164 C170 0.930 . S
H165 C173 0.930 . S
H166 C174 0.930 . S
H167 C175 0.930 . S
H168 C178 0.930 . S
H169 C179 0.930 . S
C170 H164 0.930 . S
C170 C171 1.355 . S
C170 C172 1.415 . S
C171 C170 1.355 . S
C171 C173 1.419 . S
C172 C170 1.415 . S
C172 C177 1.425 . S
C172 C179 1.409 . S
C173 H165 0.930 . S
C173 C171 1.419 . S
C173 C174 1.362 . S
C174 H166 0.930 . S
C174 C173 1.362 . S
C174 C177 1.409 . S
C175 H167 0.930 . S
C175 C176 1.355 . S
C175 C177 1.415 . S
C176 C175 1.355 . S
C176 C178 1.419 . S
C177 C172 1.425 . S
C177 C174 1.409 . S
C177 C175 1.415 . S
C178 H168 0.930 . S
C178 C176 1.419 . S
C178 C179 1.362 . S
C179 H169 0.930 . S
C179 C172 1.409 . S
C179 C178 1.362 . S
H180 C186 0.930 . S
H181 C189 0.930 . S
H182 C190 0.930 . S
H183 C191 0.930 . S
H184 C194 0.930 . S
H185 C195 0.930 . S
C186 H180 0.930 . S
C186 C187 1.355 . S
C186 C188 1.415 . S
C187 C186 1.355 . S
C187 C189 1.419 . S
C188 C186 1.415 . S
C188 C193 1.425 . S
C188 C195 1.409 . S
C189 H181 0.930 . S
C189 C187 1.419 . S
C189 C190 1.362 . S
C190 H182 0.930 . S
C190 C189 1.362 . S
C190 C193 1.409 . S
C191 H183 0.930 . S
C191 C192 1.355 . S
C191 C193 1.415 . S
C192 C191 1.355 . S
C192 C194 1.419 . S
C193 C188 1.425 . S
C193 C190 1.409 . S
C193 C191 1.415 . S
C194 H184 0.930 . S
C194 C192 1.419 . S
C194 C195 1.362 . S
C195 H185 0.930 . S
C195 C188 1.409 . S
C195 C194 1.362 . S
H196 C202 0.930 . S
H197 C205 0.930 . S
H198 C206 0.930 . S
H199 C207 0.930 . S
H200 C210 0.930 . S
H201 C211 0.930 . S
C202 H196 0.930 . S
C202 C203 1.355 . S
C202 C204 1.415 . S
C203 C202 1.355 . S
C203 C205 1.419 . S
C204 C202 1.415 . S
C204 C209 1.425 . S
C204 C211 1.409 . S
C205 H197 0.930 . S
C205 C203 1.419 . S
C205 C206 1.362 . S
C206 H198 0.930 . S
C206 C205 1.362 . S
C206 C209 1.409 . S
C207 H199 0.930 . S
C207 C208 1.355 . S
C207 C209 1.415 . S
C208 C207 1.355 . S
C208 C210 1.419 . S
C209 C204 1.425 . S
C209 C206 1.409 . S
C209 C207 1.415 . S
C210 H200 0.930 . S
C210 C208 1.419 . S
C210 C211 1.362 . S
C211 H201 0.930 . S
C211 C204 1.409 . S
C211 C210 1.362 . S
H212 C218 0.930 . S
H213 C221 0.930 . S
H214 C222 0.930 . S
H215 C223 0.930 . S
H216 C226 0.930 . S
H217 C227 0.930 . S
C218 H212 0.930 . S
C218 C219 1.355 . S
C218 C220 1.415 . S
C219 C218 1.355 . S
C219 C221 1.419 . S
C220 C218 1.415 . S
C220 C225 1.425 . S
C220 C227 1.409 . S
C221 H213 0.930 . S
C221 C219 1.419 . S
C221 C222 1.362 . S
C222 H214 0.930 . S
C222 C221 1.362 . S
C222 C225 1.409 . S
C223 H215 0.930 . S
C223 C224 1.355 . S
C223 C225 1.415 . S
C224 C223 1.355 . S
C224 C226 1.419 . S
C225 C220 1.425 . S
C225 C222 1.409 . S
C225 C223 1.415 . S
C226 H216 0.930 . S
C226 C224 1.419 . S
C226 C227 1.362 . S
C227 H217 0.930 . S
C227 C220 1.409 . S
C227 C226 1.362 . S
H228 C234 0.930 . S
H229 C237 0.930 . S
H230 C238 0.930 . S
H231 C239 0.930 . S
H232 C242 0.930 . S
H233 C243 0.930 . S
C234 H228 0.930 . S
C234 C235 1.355 . S
C234 C236 1.415 . S
C235 C234 1.355 . S
C235 C237 1.419 . S
C236 C234 1.415 . S
C236 C241 1.425 . S
C236 C243 1.409 . S
C237 H229 0.930 . S
C237 C235 1.419 . S
C237 C238 1.362 . S
C238 H230 0.930 . S
C238 C237 1.362 . S
C238 C241 1.409 . S
C239 H231 0.930 . S
C239 C240 1.355 . S
C239 C241 1.415 . S
C240 C239 1.355 . S
C240 C242 1.419 . S
C241 C236 1.425 . S
C241 C238 1.409 . S
C241 C239 1.415 . S
C242 H232 0.930 . S
C242 C240 1.419 . S
C242 C243 1.362 . S
C243 H233 0.930 . S
C243 C236 1.409 . S
C243 C242 1.362 . S
H244 C250 0.930 . S
H245 C253 0.930 . S
H246 C254 0.930 . S
H247 C255 0.930 . S
H248 C258 0.930 . S
H249 C259 0.930 . S
C250 H244 0.930 . S
C250 C251 1.355 . S
C250 C252 1.415 . S
C251 C250 1.355 . S
C251 C253 1.419 . S
C252 C250 1.415 . S
C252 C257 1.425 . S
C252 C259 1.409 . S
C253 H245 0.930 . S
C253 C251 1.419 . S
C253 C254 1.362 . S
C254 H246 0.930 . S
C254 C253 1.362 . S
C254 C257 1.409 . S
C255 H247 0.930 . S
C255 C256 1.355 . S
C255 C257 1.415 . S
C256 C255 1.355 . S
C256 C258 1.419 . S
C257 C252 1.425 . S
C257 C254 1.409 . S
C257 C255 1.415 . S
C258 H248 0.930 . S
C258 C256 1.419 . S
C258 C259 1.362 . S
C259 H249 0.930 . S
C259 C252 1.409 . S
C259 C258 1.362 . S
H260 C266 0.930 . S
H261 C269 0.930 . S
H262 C270 0.930 . S
H263 C271 0.930 . S
H264 C274 0.930 . S
H265 C275 0.930 . S
C266 H260 0.930 . S
C266 C267 1.355 . S
C266 C268 1.415 . S
C267 C266 1.355 . S
C267 C269 1.419 . S
C268 C266 1.415 . S
C268 C273 1.425 . S
C268 C275 1.409 . S
C269 H261 0.930 . S
C269 C267 1.419 . S
C269 C270 1.362 . S
C270 H262 0.930 . S
C270 C269 1.362 . S
C270 C273 1.409 . S
C271 H263 0.930 . S
C271 C272 1.355 . S
C271 C273 1.415 . S
C272 C271 1.355 . S
C272 C274 1.419 . S
C273 C268 1.425 . S
C273 C270 1.409 . S
C273 C271 1.415 . S
C274 H264 0.930 . S
C274 C272 1.419 . S
C274 C275 1.362 . S
C275 H265 0.930 . S
C275 C268 1.409 . S
C275 C274 1.362 . S
H276 C282 0.930 . S
H277 C285 0.930 . S
H278 C286 0.930 . S
H279 C287 0.930 . S
H280 C290 0.930 . S
H281 C291 0.930 . S
C282 H276 0.930 . S
C282 C283 1.355 . S
C282 C284 1.415 . S
C283 C282 1.355 . S
C283 C285 1.419 . S
C284 C282 1.415 . S
C284 C289 1.425 . S
C284 C291 1.409 . S
C285 H277 0.930 . S
C285 C283 1.419 . S
C285 C286 1.362 . S
C286 H278 0.930 . S
C286 C285 1.362 . S
C286 C289 1.409 . S
C287 H279 0.930 . S
C287 C288 1.355 . S
C287 C289 1.415 . S
C288 C287 1.355 . S
C288 C290 1.419 . S
C289 C284 1.425 . S
C289 C286 1.409 . S
C289 C287 1.415 . S
C290 H280 0.930 . S
C290 C288 1.419 . S
C290 C291 1.362 . S
C291 H281 0.930 . S
C291 C284 1.409 . S
C291 C290 1.362 . S
H292 C298 0.930 . S
H293 C301 0.930 . S
H294 C302 0.930 . S
H295 C303 0.930 . S
H296 C306 0.930 . S
H297 C307 0.930 . S
C298 H292 0.930 . S
C298 C299 1.355 . S
C298 C300 1.415 . S
C299 C298 1.355 . S
C299 C301 1.419 . S
C300 C298 1.415 . S
C300 C305 1.425 . S
C300 C307 1.409 . S
C301 H293 0.930 . S
C301 C299 1.419 . S
C301 C302 1.362 . S
C302 H294 0.930 . S
C302 C301 1.362 . S
C302 C305 1.409 . S
C303 H295 0.930 . S
C303 C304 1.355 . S
C303 C305 1.415 . S
C304 C303 1.355 . S
C304 C306 1.419 . S
C305 C300 1.425 . S
C305 C302 1.409 . S
C305 C303 1.415 . S
C306 H296 0.930 . S
C306 C304 1.419 . S
C306 C307 1.362 . S
C307 H297 0.930 . S
C307 C300 1.409 . S
C307 C306 1.362 . S
H308 C314 0.930 . S
H309 C317 0.930 . S
H310 C318 0.930 . S
H311 C319 0.930 . S
H312 C322 0.930 . S
H313 C323 0.930 . S
C314 H308 0.930 . S
C314 C315 1.355 . S
C314 C316 1.415 . S
C315 C314 1.355 . S
C315 C317 1.419 . S
C316 C314 1.415 . S
C316 C321 1.425 . S
C316 C323 1.409 . S
C317 H309 0.930 . S
C317 C315 1.419 . S
C317 C318 1.362 . S
C318 H310 0.930 . S
C318 C317 1.362 . S
C318 C321 1.409 . S
C319 H311 0.930 . S
C319 C320 1.355 . S
C319 C321 1.415 . S
C320 C319 1.355 . S
C320 C322 1.419 . S
C321 C316 1.425 . S
C321 C318 1.409 . S
C321 C319 1.415 . S
C322 H312 0.930 . S
C322 C320 1.419 . S
C322 C323 1.362 . S
C323 H313 0.930 . S
C323 C316 1.409 . S
C323 C322 1.362 . S
H324 C330 0.930 . S
H325 C333 0.930 . S
H326 C334 0.930 . S
H327 C335 0.930 . S
H328 C338 0.930 . S
H329 C339 0.930 . S
C330 H324 0.930 . S
C330 C331 1.355 . S
C330 C332 1.415 . S
C331 C330 1.355 . S
C331 C333 1.419 . S
C332 C330 1.415 . S
C332 C337 1.425 . S
C332 C339 1.409 1_554 S
C333 H325 0.930 . S
C333 C331 1.419 . S
C333 C334 1.362 . S
C334 H326 0.930 . S
C334 C333 1.362 . S
C334 C337 1.409 . S
C335 H327 0.930 . S
C335 C336 1.355 . S
C335 C337 1.415 1_556 S
C336 C335 1.355 . S
C336 C338 1.419 . S
C337 C332 1.425 . S
C337 C334 1.409 . S
C337 C335 1.415 1_554 S
C338 H328 0.930 . S
C338 C336 1.419 . S
C338 C339 1.362 . S
C339 H329 0.930 . S
C339 C332 1.409 1_556 S
C339 C338 1.362 . S
H340 C346 0.930 1_565 S
H341 C349 0.930 . S
H342 C350 0.930 . S
H343 C351 0.930 . S
H344 C354 0.930 1_565 S
H345 C355 0.925 1_565 S
C346 H340 0.930 1_545 S
C346 C347 1.355 . S
C346 C348 1.415 . S
C347 C346 1.355 . S
C347 C349 1.419 . S
C348 C346 1.415 . S
C348 C353 1.425 . S
C348 C355 1.412 . S
C349 H341 0.930 . S
C349 C347 1.419 . S
C349 C350 1.362 . S
C350 H342 0.930 . S
C350 C349 1.362 . S
C350 C353 1.409 . S
C351 H343 0.930 . S
C351 C352 1.355 . S
C351 C353 1.415 . S
C352 C351 1.355 . S
C352 C354 1.419 . S
C353 C348 1.425 . S
C353 C350 1.409 . S
C353 C351 1.415 . S
C354 H344 0.930 1_545 S
C354 C352 1.419 . S
C354 C355 1.364 . S
C355 H345 0.925 1_545 S
C355 C348 1.412 . S
C355 C354 1.364 . S
H356 C362 0.930 . S
H357 C365 0.930 . S
H358 C366 0.930 . S
H359 C367 0.930 . S
H360 C370 0.930 . S
H361 C371 0.930 . S
C362 H356 0.930 . S
C362 C363 1.355 . S
C362 C364 1.415 . S
C363 C362 1.355 . S
C363 C365 1.419 . S
C364 C362 1.415 . S
C364 C369 1.425 . S
C364 C371 1.409 . S
C365 H357 0.930 . S
C365 C363 1.419 . S
C365 C366 1.362 . S
C366 H358 0.930 . S
C366 C365 1.362 . S
C366 C369 1.409 . S
C367 H359 0.930 . S
C367 C368 1.355 . S
C367 C369 1.415 . S
C368 C367 1.355 . S
C368 C370 1.419 . S
C369 C364 1.425 . S
C369 C366 1.409 . S
C369 C367 1.415 . S
C370 H360 0.930 . S
C370 C368 1.419 . S
C370 C371 1.362 . S
C371 H361 0.930 . S
C371 C364 1.409 . S
C371 C370 1.362 . S
H372 C378 0.930 . S
H373 C381 0.930 . S
H374 C382 0.930 . S
H375 C383 0.930 . S
H376 C386 0.933 . S
H377 C387 0.930 1_565 S
C378 H372 0.930 . S
C378 C379 1.355 . S
C378 C380 1.415 . S
C379 C378 1.355 . S
C379 C381 1.419 . S
C380 C378 1.415 . S
C380 C385 1.425 . S
C380 C387 1.409 . S
C381 H373 0.930 . S
C381 C379 1.419 . S
C381 C382 1.362 . S
C382 H374 0.930 . S
C382 C381 1.362 . S
C382 C385 1.409 . S
C383 H375 0.930 . S
C383 C384 1.355 . S
C383 C385 1.415 . S
C384 C383 1.355 . S
C384 C386 1.419 . S
C385 C380 1.425 . S
C385 C382 1.409 . S
C385 C383 1.415 . S
C386 H376 0.933 . S
C386 C384 1.419 . S
C386 C387 1.362 . S
C387 H377 0.930 1_545 S
C387 C380 1.409 . S
C387 C386 1.362 . S
H388 C394 0.930 . S
H389 C397 0.930 . S
H390 C398 0.930 . S
H391 C399 0.930 . S
H392 C402 0.930 . S
H393 C403 0.930 1_556 S
C394 H388 0.930 . S
C394 C395 1.355 . S
C394 C396 1.415 . S
C395 C394 1.355 . S
C395 C397 1.419 . S
C396 C394 1.415 . S
C396 C401 1.425 . S
C396 C403 1.409 1_556 S
C397 H389 0.930 . S
C397 C395 1.419 . S
C397 C398 1.362 . S
C398 H390 0.930 . S
C398 C397 1.362 . S
C398 C401 1.409 . S
C399 H391 0.930 . S
C399 C400 1.355 . S
C399 C401 1.415 1_554 S
C400 C399 1.355 . S
C400 C402 1.419 . S
C401 C396 1.425 . S
C401 C398 1.409 . S
C401 C399 1.415 1_556 S
C402 H392 0.930 . S
C402 C400 1.419 . S
C402 C403 1.362 . S
C403 H393 0.930 1_554 S
C403 C396 1.409 1_554 S
C403 C402 1.362 . S
H404 C410 0.930 . S
H405 C413 0.930 1_655 S
H406 C414 0.930 . S
H407 C415 0.930 1_655 S
H408 C418 0.930 . S
H409 C419 0.930 . S
C410 H404 0.930 . S
C410 C411 1.355 . S
C410 C412 1.415 . S
C411 C410 1.355 . S
C411 C413 1.419 . S
C412 C410 1.415 . S
C412 C417 1.425 . S
C412 C419 1.409 . S
C413 H405 0.930 1_455 S
C413 C411 1.419 . S
C413 C414 1.362 1_455 S
C414 H406 0.930 . S
C414 C413 1.362 1_655 S
C414 C417 1.409 1_655 S
C415 H407 0.930 1_455 S
C415 C416 1.355 . S
C415 C417 1.415 . S
C416 C415 1.355 . S
C416 C418 1.419 . S
C417 C412 1.425 . S
C417 C414 1.409 1_455 S
C417 C415 1.415 . S
C418 H408 0.930 . S
C418 C416 1.419 . S
C418 C419 1.362 . S
C419 H409 0.930 . S
C419 C412 1.409 . S
C419 C418 1.362 . S
C139 C8 2.130 . S
C144 C126 2.209 . S
C155 C26 1.415 . S
C160 C100 1.360 . S
C171 C48 1.591 . S
C176 C112 1.581 . S
C187 C19 1.640 . S
C192 C124 1.608 . S
C208 C102 1.346 . S
C203 C36 1.376 . S
C224 C114 1.560 . S
C219 C59 1.457 . S
C235 C28 1.595 . S
C240 C76 1.582 . S
C251 C46 1.369 . S
C256 C90 1.422 1_655 S
C267 C16 1.330 . S
C272 C66 1.361 1_565 S
C288 C78 1.538 . S
C283 C39 1.483 . S
C304 C88 0.879 . S
C299 C56 0.887 . S
C315 C6 1.428 . S
C320 C64 1.434 . S
C336 C93 1.482 . S
C331 C9 1.437 . S
C347 C21 1.521 . S
C352 C69 1.519 . S
C363 C49 1.482 . S
C368 C81 1.466 . S
C384 C117 1.499 . S
C379 C29 1.484 . S
C400 C129 1.626 . S
C395 C41 1.617 . S
C411 C1 1.492 . S
C416 C105 1.491 . S
