# Generated by pormake.
# Topology pth, (4,4)-cn, num edge types: 1
# Building blocks:
#     Node 0, Type 0, BuildingBlock: QUQFOY_clean_sbu_1, # of connection points: 4
#     Node 1, Type 0, BuildingBlock: QUQFOY_clean_sbu_1, # of connection points: 4
#     Node 2, Type 0, BuildingBlock: QUQFOY_clean_sbu_1, # of connection points: 4
#     Node 3, Type 1, BuildingBlock: NAWXER_clean_linker_0, # of connection points: 4
#     Node 4, Type 1, BuildingBlock: NAWXER_clean_linker_0, # of connection points: 4
#     Node 5, Type 1, BuildingBlock: NAWXER_clean_linker_0, # of connection points: 4
#     Edge 6, Type (0, 1), BuildingBlock: AJUNOK_clean_linker_0, # of connection points: 2
#     Edge 7, Type (0, 1), BuildingBlock: AJUNOK_clean_linker_0, # of connection points: 2
#     Edge 8, Type (0, 1), BuildingBlock: AJUNOK_clean_linker_0, # of connection points: 2
#     Edge 9, Type (0, 1), BuildingBlock: AJUNOK_clean_linker_0, # of connection points: 2
#     Edge 10, Type (0, 1), BuildingBlock: AJUNOK_clean_linker_0, # of connection points: 2
#     Edge 11, Type (0, 1), BuildingBlock: AJUNOK_clean_linker_0, # of connection points: 2
#     Edge 12, Type (0, 1), BuildingBlock: AJUNOK_clean_linker_0, # of connection points: 2
#     Edge 13, Type (0, 1), BuildingBlock: AJUNOK_clean_linker_0, # of connection points: 2
#     Edge 14, Type (0, 1), BuildingBlock: AJUNOK_clean_linker_0, # of connection points: 2
#     Edge 15, Type (0, 1), BuildingBlock: AJUNOK_clean_linker_0, # of connection points: 2
#     Edge 16, Type (0, 1), BuildingBlock: AJUNOK_clean_linker_0, # of connection points: 2
#     Edge 17, Type (0, 1), BuildingBlock: AJUNOK_clean_linker_0, # of connection points: 2
# Relax obj value: 0.024
# Max RMSD: 0.124
# Mean RMSD: 0.071
data_MOF--net-pth--node1-QUQFOY_clean_sbu_1--node2-NAWXER_clean_linker_0--edge1-AJUNOK_clean_linker_0
_symmetry_space_group_name_H-M    P1
_symmetry_Int_Tables_number       1
_symmetry_cell_setting            triclinic
loop_
_symmetry_equiv_pos_as_xyz
'x, y, z'
_cell_length_a     22.270369
_cell_length_b     23.692056
_cell_length_c     51.746169
_cell_angle_alpha  89.983002
_cell_angle_beta   90.153419
_cell_angle_gamma 120.09923
loop_
_atom_site_label
_atom_site_type_symbol
_atom_site_fract_x
_atom_site_fract_y
_atom_site_fract_z
_atom_type_partial_charge
O0 O 0.04104 0.1045 0.03072 0.0
Cd1 Cd 0.962 0.04441 0.05499 0.0
Cd2 Cd 0.02757 0.97484 0.05294 0.0
O3 O 0.1047 0.05766 0.03485 0.0
O4 O 0.92413 0.09857 0.06887 0.0
O5 O 0.98175 0.06379 0.09288 0.0
C6 C 0.9514 0.09792 0.0908 0.0
C7 C 0.05041 0.91856 0.08503 0.0
C8 C 0.09656 0.10365 0.02614 0.0
C9 C 0.88555 0.9163 0.0288 0.0
O10 O 0.94106 0.91423 0.03138 0.0
O11 O 0.87998 0.96281 0.03837 0.0
O12 O 0.06704 0.91797 0.06124 0.0
O13 O 0.02481 0.95521 0.09099 0.0
O14 O 0.93761 0.05242 0.41316 0.0
Cd15 Cd 0.01956 0.07636 0.38901 0.0
Cd16 Cd 0.96727 0.94616 0.38827 0.0
O17 O 0.88649 0.94573 0.40831 0.0
O18 O 0.04846 0.16478 0.37527 0.0
O19 O 0.00045 0.07537 0.35101 0.0
C20 C 0.0243 0.13739 0.3532 0.0
C21 C 0.94651 0.86852 0.3562 0.0
C22 C 0.88745 0.99562 0.41791 0.0
C23 C 0.10683 0.03015 0.41375 0.0
O24 O 0.05688 0.9733 0.40891 0.0
O25 O 0.10516 0.08038 0.40626 0.0
O26 O 0.93487 0.85305 0.38026 0.0
O27 O 0.96671 0.92827 0.35005 0.0
O28 O 0.89294 0.96067 0.69915 0.0
Cd29 Cd 0.96003 0.94715 0.72239 0.0
Cd30 Cd 0.02731 0.07487 0.71982 0.0
O31 O 0.93715 0.06616 0.70524 0.0
O32 O 0.90136 0.856 0.7347 0.0
O33 O 0.94429 0.94127 0.76085 0.0
C34 C 0.90521 0.87908 0.75759 0.0
C35 C 0.09203 0.14772 0.75273 0.0
C36 C 0.8902 0.01244 0.6958 0.0
C37 C 0.08636 1.00402 0.69115 0.0
O38 O 0.08386 0.0561 0.6935 0.0
O39 O 0.04584 0.95358 0.70415 0.0
O40 O 0.08957 0.16749 0.72975 0.0
O41 O 0.05438 0.08603 0.75746 0.0
C42 C 0.9517 0.29298 0.26003 0.0
C43 C -0.00227 0.31146 0.28119 0.0
C44 C 0.947 0.3401 0.24521 0.0
C45 C 0.99115 0.40689 0.25025 0.0
C46 C 0.03893 0.37831 0.28697 0.0
C47 C 0.03596 0.4253 0.27163 0.0
C48 C 0.99123 0.4586 0.23395 0.0
C49 C 0.02371 0.32457 0.18149 0.0
C50 C 0.97566 0.2991 0.16097 0.0
C51 C 0.03183 0.3782 0.19576 0.0
C52 C 0.98989 0.4057 0.19055 0.0
C53 C 0.93794 0.33026 0.15458 0.0
C54 C 0.94442 0.38234 0.16935 0.0
C55 C 0.99269 0.45902 0.20657 0.0
C56 C 0.06354 0.73467 0.18149 0.0
C57 C 0.02821 0.7222 0.15782 0.0
C58 C 0.05324 0.68296 0.19753 0.0
C59 C 0.00584 0.61799 0.1905 0.0
C60 C 0.9811 0.65746 0.15076 0.0
C61 C 0.97011 0.60592 0.16691 0.0
C62 C -0.0032 0.56207 0.20644 0.0
C63 C 0.93074 0.67382 0.25871 0.0
C64 C 0.96622 0.6937 0.28239 0.0
C65 C 0.93956 0.6311 0.24256 0.0
C66 C 0.98553 0.60907 0.24952 0.0
C67 C 0.01224 0.67194 0.28928 0.0
C68 C 0.02169 0.63001 0.27304 0.0
C69 C 0.99215 0.56017 0.2337 0.0
H70 H 0.91996 0.24226 0.25458 0.0
H71 H 0.90986 0.32421 0.22949 0.0
H72 H 0.07372 0.39457 0.30345 0.0
H73 H 0.06957 0.47638 0.27633 0.0
H74 H 0.05459 0.30268 0.18675 0.0
H75 H 0.06981 0.39718 0.21122 0.0
H76 H 0.90344 0.31476 0.13804 0.0
H77 H 0.913 0.4039 0.16436 0.0
H78 H 0.10059 0.78423 0.18718 0.0
H79 H 0.08348 0.69381 0.21513 0.0
H80 H 0.95294 0.64675 0.13264 0.0
H81 H 0.93378 0.55643 0.16089 0.0
H82 H 0.89455 0.6896 0.25314 0.0
H83 H 0.90912 0.6141 0.22498 0.0
H84 H 0.04054 0.68706 0.30739 0.0
H85 H 0.05697 0.61345 0.279 0.0
N86 N 0.99084 0.50912 0.24627 0.0
N87 N -0.00443 0.51085 0.19404 0.0
C88 C 0.70589 0.02805 0.5115 0.0
C89 C 0.68372 0.98009 0.4921 0.0
C90 C 0.65796 0.03012 0.52826 0.0
C91 C 0.58707 0.98374 0.52611 0.0
C92 C 0.61288 0.93347 0.49012 0.0
C93 C 0.56505 0.93538 0.50695 0.0
C94 C 0.53455 0.98934 0.54155 0.0
C95 C 0.66427 0.95899 0.60192 0.0
C96 C 0.69168 1.00708 0.62134 0.0
C97 C 0.61595 0.95721 0.58413 0.0
C98 C 0.59539 1.00434 0.58518 0.0
C99 C 0.67181 0.05466 0.62205 0.0
C100 C 0.62404 0.05315 0.60421 0.0
C101 C 0.53933 1.00025 0.56852 0.0
C102 C 0.25969 0.96533 0.59481 0.0
C103 C 0.28051 1.00397 0.61717 0.0
C104 C 0.30937 0.96665 0.57798 0.0
C105 C 0.38058 1.00801 0.58295 0.0
C106 C 0.35123 0.04532 0.6222 0.0
C107 C 0.40083 0.04752 0.6052 0.0
C108 C 0.4344 1.00447 0.56739 0.0
C109 C 0.3434 0.07232 0.50368 0.0
C110 C 0.29676 0.02031 0.48782 0.0
C111 C 0.38469 0.06344 0.52174 0.0
C112 C 0.38149 1.003 0.52378 0.0
C113 C 0.29304 0.95944 0.49039 0.0
C114 C 0.33587 0.95123 0.50789 0.0
C115 C 0.43118 0.99611 0.54036 0.0
H116 H 0.76022 0.06474 0.51337 0.0
H117 H 0.67611 0.06926 0.54228 0.0
H118 H 0.59408 0.89694 0.47498 0.0
H119 H 0.51047 0.89979 0.50464 0.0
H120 H 0.67966 0.92237 0.60064 0.0
H121 H 0.59344 0.91811 0.57006 0.0
H122 H 0.69186 0.0921 0.63684 0.0
H123 H 0.60854 0.08972 0.60555 0.0
H124 H 0.2051 0.93285 0.59079 0.0
H125 H 0.29181 0.9333 0.56177 0.0
H126 H 0.36801 0.07568 0.63936 0.0
H127 H 0.45526 0.0793 0.60971 0.0
H128 H 0.34956 0.12042 0.50168 0.0
H129 H 0.42107 0.10443 0.53343 0.0
H130 H 0.25726 0.9181 0.47874 0.0
H131 H 0.33342 0.90445 0.50904 0.0
N132 N 0.48079 0.98809 0.52856 0.0
N133 N 0.48873 1.00679 0.58026 0.0
C134 C 0.319 0.30254 0.8472 0.0
C135 C 0.2844 0.3242 0.83069 0.0
C136 C 0.37008 0.34596 0.86438 0.0
C137 C 0.38707 0.4116 0.86534 0.0
C138 C 0.29987 0.38933 0.83247 0.0
C139 C 0.35125 0.43271 0.84937 0.0
C140 C 0.4445 0.45989 0.88168 0.0
C141 C 0.27752 0.32733 0.9377 0.0
C142 C 0.2994 0.29881 0.95659 0.0
C143 C 0.32574 0.37625 0.92156 0.0
C144 C 0.39663 0.39656 0.92363 0.0
C145 C 0.37011 0.3183 0.95833 0.0
C146 C 0.41831 0.36704 0.9421 0.0
C147 C 0.44923 0.45265 0.90858 0.0
C148 C 0.64372 0.72076 0.94365 0.0
C149 C 0.68913 0.71346 0.96046 0.0
C150 C 0.6007 0.67052 0.92677 0.0
C151 C 0.60094 0.61145 0.92683 0.0
C152 C 0.68903 0.65396 0.9604 0.0
C153 C 0.64459 0.6031 0.94399 0.0
C154 C 0.55211 0.55711 0.9102 0.0
C155 C 0.72733 0.68802 0.85742 0.0
C156 C 0.709 0.71016 0.83527 0.0
C157 C 0.67588 0.64157 0.87352 0.0
C158 C 0.60512 0.61747 0.86805 0.0
C159 C 0.63854 0.68676 0.82993 0.0
C160 C 0.58716 0.641 0.84617 0.0
C161 C 0.54971 0.56284 0.88313 0.0
H162 H 0.30825 0.25265 0.8462 0.0
H163 H 0.39765 0.3288 0.87634 0.0
H164 H 0.27286 0.40704 0.82049 0.0
H165 H 0.36327 0.48304 0.84991 0.0
H166 H 0.22315 0.31253 0.9357 0.0
H167 H 0.30773 0.39946 0.90804 0.0
H168 H 0.38836 0.29729 0.97279 0.0
H169 H 0.47283 0.38246 0.94425 0.0
H170 H 0.6404 0.7648 0.94381 0.0
H171 H 0.56593 0.67716 0.91409 0.0
H172 H 0.72357 0.64676 0.97297 0.0
H173 H 0.64487 0.55751 0.94445 0.0
H174 H 0.78131 0.70438 0.86161 0.0
H175 H 0.69166 0.6225 0.88951 0.0
H176 H 0.6232 0.70308 0.81289 0.0
H177 H 0.53318 0.62294 0.84131 0.0
N178 N 0.49527 0.51437 0.87001 0.0
N179 N 0.50261 0.50191 0.92182 0.0
C180 C 0.01891 0.18707 0.12231 0.0
C181 C 0.95441 0.14136 0.11174 0.0
C182 C 0.02513 0.23687 0.13875 0.0
C183 C 0.96678 0.242 0.14559 0.0
H184 H 0.0655 0.18661 0.11669 0.0
H185 H 0.07655 0.27313 0.14521 0.0
S186 S 0.78439 0.12649 0.1262 0.0
N187 N 0.83046 0.10015 0.11077 0.0
N188 N 0.84077 0.19066 0.14304 0.0
C189 C 0.90121 0.19343 0.13642 0.0
C190 C 0.89537 0.14392 0.11915 0.0
C191 C 0.82794 0.0441 0.4425 0.0
C192 C 0.83209 0.98854 0.43578 0.0
C193 C 0.77985 0.04069 0.46066 0.0
C194 C 0.73388 0.98163 0.47291 0.0
H195 H 0.86243 0.09099 0.43378 0.0
H196 H 0.77844 0.08472 0.46505 0.0
S197 S 0.72366 0.82207 0.46274 0.0
N198 N 0.7857 0.87237 0.44301 0.0
N199 N 0.69563 0.86636 0.4774 0.0
C200 C 0.73676 0.92548 0.4663 0.0
C201 C 0.78574 0.92884 0.44768 0.0
C202 C 0.80526 0.77325 0.77212 0.0
C203 C 0.86042 0.83573 0.77856 0.0
C204 C 0.75709 0.73313 0.79066 0.0
C205 C 0.76252 0.75336 0.81648 0.0
H206 H 0.7978 0.75561 0.7524 0.0
H207 H 0.71493 0.68587 0.78471 0.0
S208 S 0.89857 0.91057 0.84394 0.0
N209 N 0.91863 0.91496 0.813 0.0
N210 N 0.82819 0.83857 0.84796 0.0
C211 C 0.81838 0.81463 0.8235 0.0
C212 C 0.86722 0.85608 0.80451 0.0
C213 C 0.03414 0.8735 0.13009 0.0
C214 C 0.05399 0.87356 0.10424 0.0
C215 C 0.02839 0.82585 0.1477 0.0
C216 C 0.04147 0.77617 0.13998 0.0
H217 H 0.02098 0.90937 0.13664 0.0
H218 H 0.01107 0.82641 0.1672 0.0
S219 S 0.10148 0.75734 0.07555 0.0
N220 N 0.09199 0.82182 0.07259 0.0
N221 N 0.08014 0.73237 0.10565 0.0
C222 C 0.06406 0.77709 0.11463 0.0
C223 C 0.07068 0.82579 0.09678 0.0
C224 C 0.19712 1.00233 0.42562 0.0
C225 C 0.16246 0.03666 0.43101 0.0
C226 C 0.24242 0.99951 0.44372 0.0
C227 C 0.25298 0.02915 0.46823 0.0
H228 H 0.18821 0.97658 0.40745 0.0
H229 H 0.26841 0.97283 0.43859 0.0
S230 S 0.17064 0.12231 0.49191 0.0
N231 N 0.14102 0.10103 0.46213 0.0
N232 N 0.22289 0.09276 0.49689 0.0
C233 C 0.21873 0.0642 0.47367 0.0
C234 C 0.17412 0.06852 0.4549 0.0
C235 C 0.13538 0.17443 0.79852 0.0
C236 C 0.13954 0.1941 0.77257 0.0
C237 C 0.18211 0.21665 0.81727 0.0
C238 C 0.23476 0.28008 0.81077 0.0
H239 H 0.09588 0.12598 0.80442 0.0
H240 H 0.17676 0.19963 0.83702 0.0
S241 S 0.2713 0.35402 0.74534 0.0
N242 N 0.20257 0.28099 0.74132 0.0
N243 N 0.29061 0.35928 0.77637 0.0
C244 C 0.23991 0.3001 0.78489 0.0
C245 C 0.19228 0.25744 0.76586 0.0
C246 C 0.84829 0.0678 0.66566 0.0
C247 C 0.83608 0.01086 0.67867 0.0
C248 C 0.80132 0.06613 0.64719 0.0
C249 C 0.74021 1.00756 0.64114 0.0
H250 H 0.89556 0.11369 0.66913 0.0
H251 H 0.81368 0.11084 0.63718 0.0
S252 S 0.67998 0.84652 0.67188 0.0
N253 N 0.75591 0.89514 0.68554 0.0
N254 N 0.66707 0.89244 0.65118 0.0
C255 C 0.72613 0.95076 0.65465 0.0
C256 C 0.77412 0.95234 0.67335 0.0
C257 C 0.79288 0.80189 0.02053 0.0
C258 C 0.83013 0.86708 1.01244 0.0
C259 C 0.74597 0.75287 1.00383 0.0
C260 C 0.73607 0.76717 0.97824 0.0
H261 H 0.80076 0.78865 0.03977 0.0
H262 H 0.71782 0.70326 1.01098 0.0
S263 S 0.82575 0.93111 0.94766 0.0
N264 N 0.85561 0.94416 0.9776 0.0
N265 N 0.77029 0.85201 0.9456 0.0
C266 C 0.7735 0.8327 0.97005 0.0
C267 C 0.82 0.88264 0.9873 0.0
C268 C 0.96245 0.83974 0.31094 0.0
C269 C 0.9428 0.82057 0.33678 0.0
C270 C 0.96757 0.79765 0.29308 0.0
C271 C 0.95387 0.73524 0.3005 0.0
H272 H 0.97601 0.88828 0.30461 0.0
H273 H 0.9848 0.8149 0.27361 0.0
S274 S 0.89324 0.6583 0.36468 0.0
N275 N 0.90385 0.73205 0.36803 0.0
N276 N 0.91438 0.654 0.3345 0.0
C277 C 0.93133 0.71437 0.32583 0.0
C278 C 0.92549 0.75672 0.34394 0.0
C279 C 0.1717 0.97053 0.67747 0.0
C280 C 0.13368 1.00177 0.67188 0.0
C281 C 0.21927 0.97115 0.65956 0.0
C282 C 0.2286 1.00148 0.63537 0.0
H283 H 0.16597 0.94705 0.69599 0.0
H284 H 0.24906 0.94799 0.66463 0.0
S285 S 0.13813 0.08569 0.61073 0.0
N286 N 0.10669 0.0616 0.64009 0.0
N287 N 0.1947 0.06091 0.6063 0.0
C288 C 0.18954 0.03104 0.62928 0.0
C289 C 0.14234 0.03166 0.64761 0.0
C290 C 0.19901 0.14446 0.99654 0.0
C291 C 0.15047 0.15539 1.00968 0.0
C292 C 0.24735 0.19118 0.97951 0.0
C293 C 0.24895 0.2505 0.97505 0.0
H294 H 0.19868 0.09888 0.99893 0.0
H295 H 0.28284 0.18026 0.96939 0.0
S296 S 0.1388 0.30631 1.0069 0.0
N297 N 0.11075 0.23232 0.01847 0.0
N298 N 0.20204 0.32004 0.98676 0.0
C299 C 0.20236 0.26296 0.9887 0.0
C300 C 0.15308 0.21547 1.00594 0.0
C301 C 0.07601 0.23404 0.32414 0.0
C302 C 0.01792 0.17555 0.33202 0.0
C303 C 0.06919 0.27597 0.30679 0.0
C304 C 0.00362 0.26217 0.29738 0.0
H305 H 0.12697 0.24794 0.33175 0.0
H306 H 0.11574 0.32031 0.30115 0.0
S307 S 0.83494 0.11524 0.31349 0.0
N308 N 0.89317 0.1048 0.32927 0.0
N309 N 0.87911 0.18524 0.29801 0.0
C310 C 0.9451 0.203 0.30504 0.0
C311 C 0.95256 0.15943 0.3221 0.0
loop_
_geom_bond_atom_site_label_1
_geom_bond_atom_site_label_2
_geom_bond_distance
_geom_bond_site_symmetry_2
_ccdc_geom_bond_type
O0 Cd1 2.223 1_455 S
O0 C8 1.315 . S
Cd1 O0 2.223 1_655 S
Cd1 O4 2.297 . S
Cd1 O5 2.439 . S
Cd1 O11 2.240 1_545 S
Cd2 O3 2.240 1_565 S
Cd2 O10 2.223 1_455 S
Cd2 O12 2.297 . S
Cd2 O13 2.439 . S
O3 Cd2 2.240 1_545 S
O3 C8 1.279 . S
O4 Cd1 2.297 . S
O4 C6 1.247 . S
O5 Cd1 2.439 . S
O5 C6 1.208 . S
C6 O4 1.247 . S
C6 O5 1.208 . S
C7 O12 1.247 . S
C7 O13 1.208 . S
C8 O0 1.315 . S
C8 O3 1.279 . S
C9 O10 1.315 . S
C9 O11 1.279 . S
O10 Cd2 2.223 1_655 S
O10 C9 1.315 . S
O11 Cd1 2.240 1_565 S
O11 C9 1.279 . S
O12 Cd2 2.297 . S
O12 C7 1.247 . S
O13 Cd2 2.439 . S
O13 C7 1.208 . S
O14 Cd15 2.223 1_655 S
O14 C22 1.315 . S
Cd15 O14 2.223 1_455 S
Cd15 O18 2.297 . S
Cd15 O19 2.439 . S
Cd15 O25 2.240 . S
Cd16 O17 2.240 . S
Cd16 O24 2.223 1_655 S
Cd16 O26 2.297 . S
Cd16 O27 2.439 . S
O17 Cd16 2.240 . S
O17 C22 1.279 1_565 S
O18 Cd15 2.297 . S
O18 C20 1.247 . S
O19 Cd15 2.439 . S
O19 C20 1.208 . S
C20 O18 1.247 . S
C20 O19 1.208 . S
C21 O26 1.247 . S
C21 O27 1.208 . S
C22 O14 1.315 . S
C22 O17 1.279 1_545 S
C23 O24 1.315 . S
C23 O25 1.279 1_565 S
O24 Cd16 2.223 1_455 S
O24 C23 1.315 . S
O25 Cd15 2.240 . S
O25 C23 1.279 1_545 S
O26 Cd16 2.297 . S
O26 C21 1.247 . S
O27 Cd16 2.439 . S
O27 C21 1.208 . S
O28 Cd29 2.223 . S
O28 C36 1.315 . S
Cd29 O28 2.223 . S
Cd29 O32 2.297 . S
Cd29 O33 2.439 . S
Cd29 O39 2.240 1_655 S
Cd30 O31 2.240 1_455 S
Cd30 O38 2.223 . S
Cd30 O40 2.297 . S
Cd30 O41 2.439 . S
O31 Cd30 2.240 1_655 S
O31 C36 1.279 1_545 S
O32 Cd29 2.297 . S
O32 C34 1.247 . S
O33 Cd29 2.439 . S
O33 C34 1.208 . S
C34 O32 1.247 . S
C34 O33 1.208 . S
C35 O40 1.247 . S
C35 O41 1.208 . S
C36 O28 1.315 . S
C36 O31 1.279 1_565 S
C37 O38 1.315 . S
C37 O39 1.279 1_545 S
O38 Cd30 2.223 . S
O38 C37 1.315 . S
O39 Cd29 2.240 1_455 S
O39 C37 1.279 1_565 S
O40 Cd30 2.297 . S
O40 C35 1.247 . S
O41 Cd30 2.439 . S
O41 C35 1.208 . S
C42 C43 1.384 1_655 S
C42 C44 1.384 . S
C42 H70 0.931 . S
C43 C42 1.384 1_455 S
C43 C46 1.382 . S
C44 C42 1.384 . S
C44 C45 1.381 1_655 S
C44 H71 0.930 . S
C45 C44 1.381 1_455 S
C45 C47 1.381 . S
C45 C48 1.487 . S
C46 C43 1.382 . S
C46 C47 1.387 . S
C46 H72 0.930 . S
C47 C45 1.381 . S
C47 C46 1.387 . S
C47 H73 0.931 . S
C48 C45 1.487 . S
C48 C55 1.399 1_455 S
C48 N86 1.343 . S
C49 C50 1.384 1_455 S
C49 C51 1.384 . S
C49 H74 0.931 . S
C50 C49 1.384 1_655 S
C50 C53 1.382 . S
C51 C49 1.384 . S
C51 C52 1.381 1_455 S
C51 H75 0.930 . S
C52 C51 1.381 1_655 S
C52 C54 1.381 . S
C52 C55 1.487 . S
C53 C50 1.382 . S
C53 C54 1.387 . S
C53 H76 0.930 . S
C54 C52 1.381 . S
C54 C53 1.387 . S
C54 H77 0.931 . S
C55 C48 1.399 1_655 S
C55 C52 1.487 . S
C55 N87 1.343 . S
C56 C57 1.384 1_455 S
C56 C58 1.384 . S
C56 H78 0.931 . S
C57 C56 1.384 1_655 S
C57 C60 1.382 . S
C58 C56 1.384 . S
C58 C59 1.381 1_455 S
C58 H79 0.930 . S
C59 C58 1.381 1_655 S
C59 C61 1.381 . S
C59 C62 1.487 . S
C60 C57 1.382 . S
C60 C61 1.387 . S
C60 H80 0.930 . S
C61 C59 1.381 . S
C61 C60 1.387 . S
C61 H81 0.931 . S
C62 C59 1.487 . S
C62 C69 1.399 1_655 S
C62 N87 1.343 . S
C63 C64 1.384 1_655 S
C63 C65 1.384 . S
C63 H82 0.931 . S
C64 C63 1.384 1_455 S
C64 C67 1.382 . S
C65 C63 1.384 . S
C65 C66 1.381 1_655 S
C65 H83 0.930 . S
C66 C65 1.381 1_455 S
C66 C68 1.381 . S
C66 C69 1.487 . S
C67 C64 1.382 . S
C67 C68 1.387 . S
C67 H84 0.930 . S
C68 C66 1.381 . S
C68 C67 1.387 . S
C68 H85 0.931 . S
C69 C62 1.399 1_455 S
C69 C66 1.487 . S
C69 N86 1.343 . S
H70 C42 0.931 . S
H71 C44 0.930 . S
H72 C46 0.930 . S
H73 C47 0.931 . S
H74 C49 0.931 . S
H75 C51 0.930 . S
H76 C53 0.930 . S
H77 C54 0.931 . S
H78 C56 0.931 . S
H79 C58 0.930 . S
H80 C60 0.930 . S
H81 C61 0.931 . S
H82 C63 0.931 . S
H83 C65 0.930 . S
H84 C67 0.930 . S
H85 C68 0.931 . S
N86 C48 1.343 . S
N86 C69 1.343 . S
N87 C55 1.343 . S
N87 C62 1.343 . S
C88 C89 1.384 1_545 S
C88 C90 1.384 . S
C88 H116 0.931 . S
C89 C88 1.384 1_565 S
C89 C92 1.382 . S
C90 C88 1.384 . S
C90 C91 1.381 1_545 S
C90 H117 0.930 . S
C91 C90 1.381 1_565 S
C91 C93 1.381 . S
C91 C94 1.487 . S
C92 C89 1.382 . S
C92 C93 1.387 . S
C92 H118 0.930 . S
C93 C91 1.381 . S
C93 C92 1.387 . S
C93 H119 0.931 . S
C94 C91 1.487 . S
C94 C101 1.399 1_565 S
C94 N132 1.343 . S
C95 C96 1.384 1_565 S
C95 C97 1.384 . S
C95 H120 0.931 . S
C96 C95 1.384 1_545 S
C96 C99 1.382 . S
C97 C95 1.384 . S
C97 C98 1.381 1_565 S
C97 H121 0.930 . S
C98 C97 1.381 1_545 S
C98 C100 1.381 . S
C98 C101 1.487 . S
C99 C96 1.382 . S
C99 C100 1.387 . S
C99 H122 0.930 . S
C100 C98 1.381 . S
C100 C99 1.387 . S
C100 H123 0.931 . S
C101 C94 1.399 1_545 S
C101 C98 1.487 . S
C101 N133 1.343 . S
C102 C103 1.384 1_565 S
C102 C104 1.384 . S
C102 H124 0.931 . S
C103 C102 1.384 1_545 S
C103 C106 1.382 . S
C104 C102 1.384 . S
C104 C105 1.381 1_565 S
C104 H125 0.930 . S
C105 C104 1.381 1_545 S
C105 C107 1.381 . S
C105 C108 1.487 . S
C106 C103 1.382 . S
C106 C107 1.387 . S
C106 H126 0.930 . S
C107 C105 1.381 . S
C107 C106 1.387 . S
C107 H127 0.931 . S
C108 C105 1.487 . S
C108 C115 1.399 1_545 S
C108 N133 1.343 . S
C109 C110 1.384 1_545 S
C109 C111 1.384 . S
C109 H128 0.931 . S
C110 C109 1.384 1_565 S
C110 C113 1.382 . S
C111 C109 1.384 . S
C111 C112 1.381 1_545 S
C111 H129 0.930 . S
C112 C111 1.381 1_565 S
C112 C114 1.381 . S
C112 C115 1.487 . S
C113 C110 1.382 . S
C113 C114 1.387 . S
C113 H130 0.930 . S
C114 C112 1.381 . S
C114 C113 1.387 . S
C114 H131 0.931 . S
C115 C108 1.399 1_565 S
C115 C112 1.487 . S
C115 N132 1.343 . S
H116 C88 0.931 . S
H117 C90 0.930 . S
H118 C92 0.930 . S
H119 C93 0.931 . S
H120 C95 0.931 . S
H121 C97 0.930 . S
H122 C99 0.930 . S
H123 C100 0.931 . S
H124 C102 0.931 . S
H125 C104 0.930 . S
H126 C106 0.930 . S
H127 C107 0.931 . S
H128 C109 0.931 . S
H129 C111 0.930 . S
H130 C113 0.930 . S
H131 C114 0.931 . S
N132 C94 1.343 . S
N132 C115 1.343 . S
N133 C101 1.343 . S
N133 C108 1.343 . S
C134 C135 1.384 . S
C134 C136 1.384 . S
C134 H162 0.931 . S
C135 C134 1.384 . S
C135 C138 1.382 . S
C136 C134 1.384 . S
C136 C137 1.381 . S
C136 H163 0.930 . S
C137 C136 1.381 . S
C137 C139 1.381 . S
C137 C140 1.487 . S
C138 C135 1.382 . S
C138 C139 1.387 . S
C138 H164 0.930 . S
C139 C137 1.381 . S
C139 C138 1.387 . S
C139 H165 0.931 . S
C140 C137 1.487 . S
C140 C147 1.399 . S
C140 N178 1.343 . S
C141 C142 1.384 . S
C141 C143 1.384 . S
C141 H166 0.931 . S
C142 C141 1.384 . S
C142 C145 1.382 . S
C143 C141 1.384 . S
C143 C144 1.381 . S
C143 H167 0.930 . S
C144 C143 1.381 . S
C144 C146 1.381 . S
C144 C147 1.487 . S
C145 C142 1.382 . S
C145 C146 1.387 . S
C145 H168 0.930 . S
C146 C144 1.381 . S
C146 C145 1.387 . S
C146 H169 0.931 . S
C147 C140 1.399 . S
C147 C144 1.487 . S
C147 N179 1.343 . S
C148 C149 1.384 . S
C148 C150 1.384 . S
C148 H170 0.931 . S
C149 C148 1.384 . S
C149 C152 1.382 . S
C150 C148 1.384 . S
C150 C151 1.381 . S
C150 H171 0.930 . S
C151 C150 1.381 . S
C151 C153 1.381 . S
C151 C154 1.487 . S
C152 C149 1.382 . S
C152 C153 1.387 . S
C152 H172 0.930 . S
C153 C151 1.381 . S
C153 C152 1.387 . S
C153 H173 0.931 . S
C154 C151 1.487 . S
C154 C161 1.399 . S
C154 N179 1.343 . S
C155 C156 1.384 . S
C155 C157 1.384 . S
C155 H174 0.931 . S
C156 C155 1.384 . S
C156 C159 1.382 . S
C157 C155 1.384 . S
C157 C158 1.381 . S
C157 H175 0.930 . S
C158 C157 1.381 . S
C158 C160 1.381 . S
C158 C161 1.487 . S
C159 C156 1.382 . S
C159 C160 1.387 . S
C159 H176 0.930 . S
C160 C158 1.381 . S
C160 C159 1.387 . S
C160 H177 0.931 . S
C161 C154 1.399 . S
C161 C158 1.487 . S
C161 N178 1.343 . S
H162 C134 0.931 . S
H163 C136 0.930 . S
H164 C138 0.930 . S
H165 C139 0.931 . S
H166 C141 0.931 . S
H167 C143 0.930 . S
H168 C145 0.930 . S
H169 C146 0.931 . S
H170 C148 0.931 . S
H171 C150 0.930 . S
H172 C152 0.930 . S
H173 C153 0.931 . S
H174 C155 0.931 . S
H175 C157 0.930 . S
H176 C159 0.930 . S
H177 C160 0.931 . S
N178 C140 1.343 . S
N178 C161 1.343 . S
N179 C147 1.343 . S
N179 C154 1.343 . S
C180 C181 1.366 1_455 S
C180 C182 1.419 . S
C180 H184 0.930 . S
C181 C180 1.366 1_655 S
C181 C190 1.434 . S
C182 C180 1.419 . S
C182 C183 1.359 1_455 S
C182 H185 0.929 . S
C183 C182 1.359 1_655 S
C183 C189 1.431 . S
H184 C180 0.930 . S
H185 C182 0.929 . S
S186 N187 1.613 . S
S186 N188 1.610 . S
N187 S186 1.613 . S
N187 C190 1.350 . S
N188 S186 1.610 . S
N188 C189 1.351 . S
C189 C183 1.431 . S
C189 N188 1.351 . S
C189 C190 1.434 . S
C190 C181 1.434 . S
C190 N187 1.350 . S
C190 C189 1.434 . S
C191 C192 1.369 . S
C191 C193 1.419 . S
C191 H195 0.930 . S
C192 C191 1.369 . S
C192 C201 1.429 1_545 S
C193 C191 1.419 . S
C193 C194 1.367 . S
C193 H196 0.929 . S
C194 C193 1.367 . S
C194 C200 1.423 1_545 S
H195 C191 0.930 . S
H196 C193 0.929 . S
S197 N198 1.613 . S
S197 N199 1.610 . S
N198 S197 1.613 . S
N198 C201 1.350 . S
N199 S197 1.610 . S
N199 C200 1.351 . S
C200 C194 1.423 1_565 S
C200 N199 1.351 . S
C200 C201 1.434 . S
C201 C192 1.429 1_565 S
C201 N198 1.350 . S
C201 C200 1.434 . S
C202 C203 1.369 . S
C202 C204 1.419 . S
C202 H206 0.930 . S
C203 C202 1.369 . S
C203 C212 1.429 . S
C204 C202 1.419 . S
C204 C205 1.363 . S
C204 H207 0.929 . S
C205 C204 1.363 . S
C205 C211 1.428 . S
H206 C202 0.930 . S
H207 C204 0.929 . S
S208 N209 1.613 . S
S208 N210 1.610 . S
N209 S208 1.613 . S
N209 C212 1.350 . S
N210 S208 1.610 . S
N210 C211 1.351 . S
C211 C205 1.428 . S
C211 N210 1.351 . S
C211 C212 1.434 . S
C212 C203 1.429 . S
C212 N209 1.350 . S
C212 C211 1.434 . S
C213 C214 1.367 1_455 S
C213 C215 1.419 . S
C213 H217 0.930 . S
C214 C213 1.367 1_655 S
C214 C223 1.426 . S
C215 C213 1.419 . S
C215 C216 1.364 1_455 S
C215 H218 0.929 . S
C216 C215 1.364 1_655 S
C216 C222 1.429 . S
H217 C213 0.930 . S
H218 C215 0.929 . S
S219 N220 1.613 . S
S219 N221 1.610 . S
N220 S219 1.613 . S
N220 C223 1.350 . S
N221 S219 1.610 . S
N221 C222 1.351 . S
C222 C216 1.429 . S
C222 N221 1.351 . S
C222 C223 1.434 . S
C223 C214 1.426 . S
C223 N220 1.350 . S
C223 C222 1.434 . S
C224 C225 1.369 . S
C224 C226 1.419 . S
C224 H228 0.930 . S
C225 C224 1.369 . S
C225 C234 1.429 1_565 S
C226 C224 1.419 . S
C226 C227 1.365 . S
C226 H229 0.929 . S
C227 C226 1.365 . S
C227 C233 1.425 1_565 S
H228 C224 0.930 . S
H229 C226 0.929 . S
S230 N231 1.613 . S
S230 N232 1.610 . S
N231 S230 1.613 . S
N231 C234 1.350 . S
N232 S230 1.610 . S
N232 C233 1.351 . S
C233 C227 1.425 1_545 S
C233 N232 1.351 . S
C233 C234 1.434 . S
C234 C225 1.429 1_545 S
C234 N231 1.350 . S
C234 C233 1.434 . S
C235 C236 1.369 . S
C235 C237 1.419 . S
C235 H239 0.930 . S
C236 C235 1.369 . S
C236 C245 1.429 . S
C237 C235 1.419 . S
C237 C238 1.363 . S
C237 H240 0.929 . S
C238 C237 1.363 . S
C238 C244 1.428 . S
H239 C235 0.930 . S
H240 C237 0.929 . S
S241 N242 1.613 . S
S241 N243 1.610 . S
N242 S241 1.613 . S
N242 C245 1.350 . S
N243 S241 1.610 . S
N243 C244 1.351 . S
C244 C238 1.428 . S
C244 N243 1.351 . S
C244 C245 1.434 . S
C245 C236 1.429 . S
C245 N242 1.350 . S
C245 C244 1.434 . S
C246 C247 1.369 1_545 S
C246 C248 1.419 . S
C246 H250 0.930 . S
C247 C246 1.369 1_565 S
C247 C256 1.429 . S
C248 C246 1.419 . S
C248 C249 1.363 1_545 S
C248 H251 0.929 . S
C249 C248 1.363 1_565 S
C249 C255 1.428 . S
H250 C246 0.930 . S
H251 C248 0.929 . S
S252 N253 1.613 . S
S252 N254 1.610 . S
N253 S252 1.613 . S
N253 C256 1.350 . S
N254 S252 1.610 . S
N254 C255 1.351 . S
C255 C249 1.428 . S
C255 N254 1.351 . S
C255 C256 1.434 . S
C256 C247 1.429 . S
C256 N253 1.350 . S
C256 C255 1.434 . S
C257 C258 1.369 . S
C257 C259 1.419 . S
C257 H261 0.930 1_556 S
C258 C257 1.369 . S
C258 C267 1.429 . S
C259 C257 1.419 . S
C259 C260 1.363 . S
C259 H262 0.929 . S
C260 C259 1.363 . S
C260 C266 1.428 . S
H261 C257 0.930 1_554 S
H262 C259 0.929 . S
S263 N264 1.613 . S
S263 N265 1.610 . S
N264 S263 1.613 . S
N264 C267 1.350 . S
N265 S263 1.610 . S
N265 C266 1.351 . S
C266 C260 1.428 . S
C266 N265 1.351 . S
C266 C267 1.434 . S
C267 C258 1.429 . S
C267 N264 1.350 . S
C267 C266 1.434 . S
C268 C269 1.369 . S
C268 C270 1.419 . S
C268 H272 0.930 . S
C269 C268 1.369 . S
C269 C278 1.429 1_455 S
C270 C268 1.419 . S
C270 C271 1.366 . S
C270 H273 0.929 . S
C271 C270 1.366 . S
C271 C277 1.419 1_455 S
H272 C268 0.930 . S
H273 C270 0.929 . S
S274 N275 1.613 . S
S274 N276 1.610 . S
N275 S274 1.613 . S
N275 C278 1.350 . S
N276 S274 1.610 . S
N276 C277 1.351 . S
C277 C271 1.419 1_655 S
C277 N276 1.351 . S
C277 C278 1.434 . S
C278 C269 1.429 1_655 S
C278 N275 1.350 . S
C278 C277 1.434 . S
C279 C280 1.369 1_565 S
C279 C281 1.419 . S
C279 H283 0.930 . S
C280 C279 1.369 1_545 S
C280 C289 1.429 . S
C281 C279 1.419 . S
C281 C282 1.363 1_565 S
C281 H284 0.929 . S
C282 C281 1.363 1_545 S
C282 C288 1.428 . S
H283 C279 0.930 . S
H284 C281 0.929 . S
S285 N286 1.613 . S
S285 N287 1.610 . S
N286 S285 1.613 . S
N286 C289 1.350 . S
N287 S285 1.610 . S
N287 C288 1.351 . S
C288 C282 1.428 . S
C288 N287 1.351 . S
C288 C289 1.434 . S
C289 C280 1.429 . S
C289 N286 1.350 . S
C289 C288 1.434 . S
C290 C291 1.369 . S
C290 C292 1.419 . S
C290 H294 0.930 . S
C291 C290 1.369 . S
C291 C300 1.429 . S
C292 C290 1.419 . S
C292 C293 1.363 . S
C292 H295 0.929 . S
C293 C292 1.363 . S
C293 C299 1.428 . S
H294 C290 0.930 . S
H295 C292 0.929 . S
S296 N297 1.613 1_556 S
S296 N298 1.610 . S
N297 S296 1.613 1_554 S
N297 C300 1.350 1_554 S
N298 S296 1.610 . S
N298 C299 1.351 . S
C299 C293 1.428 . S
C299 N298 1.351 . S
C299 C300 1.434 . S
C300 C291 1.429 . S
C300 N297 1.350 1_556 S
C300 C299 1.434 . S
C301 C302 1.369 1_455 S
C301 C303 1.419 . S
C301 H305 0.930 . S
C302 C301 1.369 1_655 S
C302 C311 1.429 . S
C303 C301 1.419 . S
C303 C304 1.363 1_455 S
C303 H306 0.929 . S
C304 C303 1.363 1_655 S
C304 C310 1.428 . S
H305 C301 0.930 . S
H306 C303 0.929 . S
S307 N308 1.613 . S
S307 N309 1.610 . S
N308 S307 1.613 . S
N308 C311 1.350 . S
N309 S307 1.610 . S
N309 C310 1.351 . S
C310 C304 1.428 . S
C310 N309 1.351 . S
C310 C311 1.434 . S
C311 C302 1.429 . S
C311 N308 1.350 . S
C311 C310 1.434 . S
C183 C50 1.487 . S
C181 C6 1.461 . S
C192 C22 1.571 . S
C194 C89 1.595 1_545 S
C203 C34 1.292 . S
C205 C156 1.315 . S
C214 C7 1.469 1_655 S
C216 C57 1.486 . S
C227 C110 1.592 . S
C225 C23 1.570 . S
C236 C35 1.292 . S
C238 C135 1.312 . S
C249 C96 1.592 1_565 S
C247 C36 1.575 . S
C258 C9 1.755 1_556 S
C260 C149 1.792 . S
C271 C64 1.490 . S
C269 C21 1.457 1_455 S
C282 C103 1.590 . S
C280 C37 1.575 . S
C293 C142 1.790 . S
C291 C8 1.747 1_556 S
C302 C20 1.462 1_655 S
C304 C43 1.481 1_655 S
