# Generated by pormake.
# Topology pyr, (3,6)-cn, num edge types: 1
# Building blocks:
#     Node 0, Type 0, BuildingBlock: BETDIP_clean_linker_0, # of connection points: 3
#     Node 1, Type 0, BuildingBlock: BETDIP_clean_linker_0, # of connection points: 3
#     Node 2, Type 0, BuildingBlock: BETDIP_clean_linker_0, # of connection points: 3
#     Node 3, Type 0, BuildingBlock: BETDIP_clean_linker_0, # of connection points: 3
#     Node 4, Type 0, BuildingBlock: BETDIP_clean_linker_0, # of connection points: 3
#     Node 5, Type 0, BuildingBlock: BETDIP_clean_linker_0, # of connection points: 3
#     Node 6, Type 0, BuildingBlock: BETDIP_clean_linker_0, # of connection points: 3
#     Node 7, Type 0, BuildingBlock: BETDIP_clean_linker_0, # of connection points: 3
#     Node 8, Type 1, BuildingBlock: PAMTUU_clean_sbu_0, # of connection points: 6
#     Node 9, Type 1, BuildingBlock: PAMTUU_clean_sbu_0, # of connection points: 6
#     Node 10, Type 1, BuildingBlock: PAMTUU_clean_sbu_0, # of connection points: 6
#     Node 11, Type 1, BuildingBlock: PAMTUU_clean_sbu_0, # of connection points: 6
#     Edge 12, Type (0, 1), BuildingBlock: TEMPAE_clean_linker_10, # of connection points: 2
#     Edge 13, Type (0, 1), BuildingBlock: TEMPAE_clean_linker_10, # of connection points: 2
#     Edge 14, Type (0, 1), BuildingBlock: TEMPAE_clean_linker_10, # of connection points: 2
#     Edge 15, Type (0, 1), BuildingBlock: TEMPAE_clean_linker_10, # of connection points: 2
#     Edge 16, Type (0, 1), BuildingBlock: TEMPAE_clean_linker_10, # of connection points: 2
#     Edge 17, Type (0, 1), BuildingBlock: TEMPAE_clean_linker_10, # of connection points: 2
#     Edge 18, Type (0, 1), BuildingBlock: TEMPAE_clean_linker_10, # of connection points: 2
#     Edge 19, Type (0, 1), BuildingBlock: TEMPAE_clean_linker_10, # of connection points: 2
#     Edge 20, Type (0, 1), BuildingBlock: TEMPAE_clean_linker_10, # of connection points: 2
#     Edge 21, Type (0, 1), BuildingBlock: TEMPAE_clean_linker_10, # of connection points: 2
#     Edge 22, Type (0, 1), BuildingBlock: TEMPAE_clean_linker_10, # of connection points: 2
#     Edge 23, Type (0, 1), BuildingBlock: TEMPAE_clean_linker_10, # of connection points: 2
#     Edge 24, Type (0, 1), BuildingBlock: TEMPAE_clean_linker_10, # of connection points: 2
#     Edge 25, Type (0, 1), BuildingBlock: TEMPAE_clean_linker_10, # of connection points: 2
#     Edge 26, Type (0, 1), BuildingBlock: TEMPAE_clean_linker_10, # of connection points: 2
#     Edge 27, Type (0, 1), BuildingBlock: TEMPAE_clean_linker_10, # of connection points: 2
#     Edge 28, Type (0, 1), BuildingBlock: TEMPAE_clean_linker_10, # of connection points: 2
#     Edge 29, Type (0, 1), BuildingBlock: TEMPAE_clean_linker_10, # of connection points: 2
#     Edge 30, Type (0, 1), BuildingBlock: TEMPAE_clean_linker_10, # of connection points: 2
#     Edge 31, Type (0, 1), BuildingBlock: TEMPAE_clean_linker_10, # of connection points: 2
#     Edge 32, Type (0, 1), BuildingBlock: TEMPAE_clean_linker_10, # of connection points: 2
#     Edge 33, Type (0, 1), BuildingBlock: TEMPAE_clean_linker_10, # of connection points: 2
#     Edge 34, Type (0, 1), BuildingBlock: TEMPAE_clean_linker_10, # of connection points: 2
#     Edge 35, Type (0, 1), BuildingBlock: TEMPAE_clean_linker_10, # of connection points: 2
# Relax obj value: 0.122
# Max RMSD: 0.160
# Mean RMSD: 0.131
data_MOF--net-pyr--node1-PAMTUU_clean_sbu_0--node2-BETDIP_clean_linker_0--edge1-TEMPAE_clean_linker_10
_symmetry_space_group_name_H-M    P1
_symmetry_Int_Tables_number       1
_symmetry_cell_setting            triclinic
loop_
_symmetry_equiv_pos_as_xyz
'x, y, z'
_cell_length_a     38.523246
_cell_length_b     39.003586
_cell_length_c     39.002241
_cell_angle_alpha  91.248088
_cell_angle_beta   87.791603
_cell_angle_gamma 106.56404
loop_
_atom_site_label
_atom_site_type_symbol
_atom_site_fract_x
_atom_site_fract_y
_atom_site_fract_z
_atom_type_partial_charge
H0 H 0.33054 0.30405 0.25163 0.0
H1 H 0.3869 0.2837 0.15976 0.0
H2 H 0.38961 0.22577 0.25176 0.0
H3 H 0.34144 0.30093 0.13529 0.0
C4 C 0.33281 0.31911 0.15285 0.0
C5 C 0.34868 0.29069 0.23892 0.0
C6 C 0.35892 0.26402 0.25599 0.0
C7 C 0.35821 0.2977 0.20428 0.0
C8 C 0.37983 0.27888 0.1867 0.0
C9 C 0.39125 0.25275 0.20378 0.0
C10 C 0.38123 0.2461 0.23855 0.0
N11 N 0.34285 0.32169 0.18769 0.0
H12 H 0.16098 0.79785 0.76677 0.0
H13 H 0.16553 0.74459 0.66975 0.0
H14 H 0.23394 0.73335 0.75055 0.0
H15 H 0.1133 0.75873 0.66008 0.0
C16 C 0.11526 0.78296 0.67504 0.0
C17 C 0.17104 0.7792 0.75111 0.0
C18 C 0.19872 0.76618 0.76296 0.0
C19 C 0.15821 0.77106 0.71796 0.0
C20 C 0.17341 0.74945 0.69614 0.0
C21 C 0.2004 0.73532 0.70812 0.0
C22 C 0.21218 0.74314 0.74174 0.0
N23 N 0.13323 0.7887 0.70665 0.0
H24 H 0.72282 0.43282 0.84401 0.0
H25 H 0.6296 0.34022 0.8369 0.0
H26 H 0.70984 0.34401 0.91172 0.0
H27 H 0.60567 0.37979 0.80903 0.0
C28 C 0.62785 0.39869 0.79541 0.0
C29 C 0.70751 0.40653 0.85286 0.0
C30 C 0.72029 0.39103 0.88046 0.0
C31 C 0.67454 0.38904 0.83703 0.0
C32 C 0.65442 0.35462 0.84901 0.0
C33 C 0.66736 0.33792 0.8758 0.0
C34 C 0.70001 0.35662 0.89117 0.0
N35 N 0.66357 0.40647 0.80871 0.0
H36 H 0.81943 0.62964 0.35543 0.0
H37 H 0.9076 0.72488 0.33791 0.0
H38 H 0.82764 0.7233 0.41845 0.0
H39 H 0.89424 0.70023 0.27963 0.0
C40 C 0.89442 0.67307 0.28506 0.0
C41 C 0.83329 0.65716 0.36203 0.0
C42 C 0.81968 0.67438 0.38916 0.0
C43 C 0.86459 0.67526 0.34309 0.0
C44 C 0.88299 0.7109 0.35192 0.0
C45 C 0.86968 0.72838 0.37915 0.0
C46 C 0.83803 0.70992 0.39748 0.0
N47 N 0.87733 0.65664 0.31587 0.0
H48 H 0.64347 0.76614 0.93094 0.0
H49 H 0.70051 0.73404 0.84507 0.0
H50 H 0.65776 0.82327 0.83557 0.0
H51 H 0.67202 0.6759 0.87322 0.0
C52 C 0.6858 0.6882 0.89613 0.0
C53 C 0.65255 0.76928 0.90426 0.0
C54 C 0.64752 0.79754 0.88493 0.0
C55 C 0.67056 0.74559 0.88972 0.0
C56 C 0.68482 0.75093 0.85591 0.0
C57 C 0.68088 0.77932 0.83656 0.0
C58 C 0.66105 0.80156 0.85076 0.0
N59 N 0.67744 0.71885 0.91041 0.0
H60 H 0.86356 0.26914 0.318 0.0
H61 H 0.84706 0.31079 0.41841 0.0
H62 H 0.78641 0.32922 0.33448 0.0
H63 H 0.89313 0.29189 0.43333 0.0
C64 C 0.89708 0.27237 0.41449 0.0
C65 C 0.85126 0.28558 0.33437 0.0
C66 C 0.82404 0.29888 0.3218 0.0
C67 C 0.86048 0.29021 0.3689 0.0
C68 C 0.84217 0.30863 0.39124 0.0
C69 C 0.81591 0.32324 0.3786 0.0
C70 C 0.80773 0.31909 0.3438 0.0
N71 N 0.88523 0.2724 0.38046 0.0
H72 H 0.31852 0.64543 0.22326 0.0
H73 H 0.41225 0.73791 0.22836 0.0
H74 H 0.33734 0.72716 0.14699 0.0
H75 H 0.42996 0.70881 0.27022 0.0
C76 C 0.40931 0.68486 0.27835 0.0
C77 C 0.33485 0.67074 0.213 0.0
C78 C 0.32411 0.68391 0.1829 0.0
C79 C 0.36694 0.68926 0.22964 0.0
C80 C 0.38791 0.72272 0.21604 0.0
C81 C 0.37755 0.73659 0.18584 0.0
C82 C 0.34586 0.7166 0.16968 0.0
N83 N 0.37661 0.673 0.25949 0.0
H84 H 0.1144 0.32497 0.72087 0.0
H85 H 0.20455 0.41995 0.7091 0.0
H86 H 0.19486 0.3314 0.63967 0.0
H87 H 0.19094 0.43254 0.76159 0.0
C88 C 0.16268 0.4193 0.76777 0.0
C89 C 0.13923 0.33957 0.70751 0.0
C90 C 0.15207 0.32416 0.67851 0.0
C91 C 0.158 0.37396 0.71927 0.0
C92 C 0.18987 0.39318 0.70125 0.0
C93 C 0.20344 0.37769 0.6728 0.0
C94 C 0.1844 0.34331 0.66166 0.0
N95 N 0.14379 0.38833 0.74885 0.0
Tb96 Tb 0.04492 0.03199 0.51003 0.0
Tb97 Tb 0.96968 1.01559 0.55736 0.0
C98 C 0.97811 0.96498 0.49683 0.0
C99 C 0.12881 0.0775 0.45848 0.0
C100 C 0.18145 0.1366 0.42993 0.0
C101 C 0.15902 0.1107 0.4087 0.0
C102 C 0.1331 0.08144 0.42283 0.0
C103 C 0.15092 0.10353 0.47994 0.0
C104 C 0.17722 0.1328 0.46572 0.0
C105 C 0.10162 0.04564 0.47219 0.0
O106 O 0.02172 0.07516 0.50041 0.0
O107 O 0.96277 0.04378 0.51169 0.0
O108 O 1.00143 0.06925 0.57138 0.0
O109 O 0.0583 0.06569 0.55577 0.0
O110 O 0.91284 0.99909 0.55916 0.0
O111 O 0.94299 1.01824 0.60477 0.0
O112 O 1.00422 0.98984 0.58382 0.0
O113 O 0.04355 0.98504 0.53913 0.0
O114 O 1.00307 0.99191 0.48296 0.0
O115 O 0.96616 0.96664 0.52858 0.0
C116 C 0.987 0.07143 0.49824 0.0
O117 O 0.10112 0.03985 0.50505 0.0
O118 O 0.06908 0.03954 0.46065 0.0
C119 C 0.03682 0.08131 0.57289 0.0
C120 C 0.88632 0.97558 0.61204 0.0
C121 C 0.83936 0.92277 0.65324 0.0
C122 C 0.83154 0.95519 0.64741 0.0
C123 C 0.85487 0.98136 0.62699 0.0
C124 C 0.89395 0.94297 0.61694 0.0
C125 C 0.8705 0.91662 0.63739 0.0
C126 C 0.91107 1.00437 0.59221 0.0
C127 C 0.02922 0.97634 0.56994 0.0
H128 H 0.16216 0.11253 0.38101 0.0
H129 H 0.11658 0.0616 0.40579 0.0
H130 H 0.14814 0.1012 0.5076 0.0
H131 H 0.19421 0.1524 0.48262 0.0
H132 H 0.80748 0.96042 0.6589 0.0
H133 H 0.84858 1.00636 0.62325 0.0
H134 H 0.91824 0.93819 0.60544 0.0
H135 H 0.87726 0.89196 0.64165 0.0
Tb136 Tb 0.56117 0.04517 0.05227 0.0
Tb137 Tb 0.48814 0.02852 1.00743 0.0
C138 C 0.54656 0.98874 0.99186 0.0
C139 C 0.6451 0.08833 0.10049 0.0
C140 C 0.69467 0.14463 0.13446 0.0
C141 C 0.70433 0.11376 0.12404 0.0
C142 C 0.6797 0.08584 0.10724 0.0
C143 C 0.63561 0.11953 0.10966 0.0
C144 C 0.66026 0.14753 0.12659 0.0
C145 C 0.61951 0.05798 0.08392 0.0
O146 O 0.56612 0.0946 1.02443 0.0
O147 O 0.52984 0.07047 0.97973 0.0
O148 O 0.48896 0.07541 0.03837 0.0
O149 O 0.52471 0.06895 0.08202 0.0
O150 O 0.46343 1.01978 0.95986 0.0
O151 O 0.43235 0.02316 1.00661 0.0
O152 O 0.47337 0.99146 0.051 0.0
O153 O 0.52998 0.99091 0.06697 0.0
O154 O 0.57012 1.01552 1.0066 0.0
O155 O 0.51186 0.98595 0.993 0.0
C156 C 0.5548 0.09724 0.99344 0.0
O157 O 0.5874 0.04633 0.09863 0.0
O158 O 0.61797 0.0599 0.05076 0.0
C159 C 0.50084 0.08311 0.06944 0.0
C160 C 0.40212 0.98545 0.9626 0.0
C161 C 0.34677 0.92872 0.93579 0.0
C162 C 0.34029 0.96158 0.94452 0.0
C163 C 0.36779 0.98971 0.95772 0.0
C164 C 0.40829 0.95218 0.95562 0.0
C165 C 0.38081 0.92402 0.94223 0.0
C166 C 0.43127 1.01643 0.97373 0.0
C167 C 0.49456 0.97679 0.06779 0.0
H168 H 0.73079 0.11098 0.12933 0.0
H169 H 0.68751 0.06204 0.09991 0.0
H170 H 0.609 0.12191 0.10431 0.0
H171 H 0.65195 0.17085 0.13459 0.0
H172 H 0.31419 0.96581 0.94036 0.0
H173 H 0.3625 1.01513 0.96334 0.0
H174 H 0.43462 0.94833 0.95954 0.0
H175 H 0.38675 0.89914 0.93551 0.0
Tb176 Tb 0.5118 0.50032 0.5146 0.0
Tb177 Tb 0.51253 0.57229 0.55851 0.0
C178 C 0.48311 0.56119 0.48332 0.0
C179 C 0.5457 0.42836 0.47913 0.0
C180 C 0.60457 0.39915 0.47019 0.0
C181 C 0.56964 0.37976 0.45994 0.0
C182 C 0.54048 0.39439 0.46419 0.0
C183 C 0.58001 0.44705 0.49071 0.0
C184 C 0.6092 0.43284 0.486 0.0
C185 C 0.51607 0.44516 0.48171 0.0
O186 O 0.56819 0.5313 0.51679 0.0
O187 O 0.56116 0.58714 0.52545 0.0
O188 O 0.54673 0.5478 0.58816 0.0
O189 O 0.52608 0.49046 0.56687 0.0
O190 O 0.51494 0.62687 0.55852 0.0
O191 O 0.50732 0.59766 0.60569 0.0
O192 O 0.46654 0.52988 0.57735 0.0
O193 O 0.45531 0.49406 0.52957 0.0
O194 O 0.50154 0.53779 0.47752 0.0
O195 O 0.47727 0.57104 0.51506 0.0
C196 C 0.58082 0.56617 0.51506 0.0
O197 O 0.50002 0.44422 0.51184 0.0
O198 O 0.52367 0.4769 0.4684 0.0
C199 C 0.54351 0.51322 0.59026 0.0
C200 C 0.47271 0.63765 0.59905 0.0
C201 C 0.40898 0.65824 0.61276 0.0
C202 C 0.44331 0.68366 0.61359 0.0
C203 C 0.47491 0.6734 0.60682 0.0
C204 C 0.43856 0.6123 0.59776 0.0
C205 C 0.40704 0.62244 0.60472 0.0
C206 C 0.50566 0.62677 0.59096 0.0
C207 C 0.44478 0.50449 0.55941 0.0
H208 H 0.56486 0.35345 0.44828 0.0
H209 H 0.51406 0.37944 0.45539 0.0
H210 H 0.58448 0.47313 0.50267 0.0
H211 H 0.63563 0.44892 0.49375 0.0
H212 H 0.44576 0.71154 0.61922 0.0
H213 H 0.50102 0.69338 0.60747 0.0
H214 H 0.43624 0.58457 0.59146 0.0
H215 H 0.3812 0.60205 0.60433 0.0
Tb216 Tb 0.02394 0.57155 1.01543 0.0
Tb217 Tb 0.02102 0.49541 0.04991 0.0
C218 C 0.05527 0.51498 0.97738 0.0
C219 C 0.98915 0.63477 0.96957 0.0
C220 C 0.92485 0.64501 0.94551 0.0
C221 C 0.95283 0.67431 0.95695 0.0
C222 C 0.98467 0.66916 0.96909 0.0
C223 C 0.96217 0.60579 0.95631 0.0
C224 C 0.93026 0.61084 0.94446 0.0
C225 C 0.01849 0.62825 0.98906 0.0
O226 O 0.96783 0.53811 1.01117 0.0
O227 O 0.97635 0.48248 1.01406 0.0
O228 O 0.98425 0.51883 0.07993 0.0
O229 O 0.01808 0.57605 0.07074 0.0
O230 O 0.01957 0.44125 0.04412 0.0
O231 O 0.0191 0.46544 0.09436 0.0
O232 O 0.06982 0.53348 0.07003 0.0
O233 O 0.07909 0.58174 0.03393 0.0
O234 O 0.03507 0.5367 0.97451 0.0
O235 O 0.0606 0.5037 1.00757 0.0
C236 C 0.95675 0.5034 1.00518 0.0
O237 O 1.00912 0.61908 1.02068 0.0
O238 O 0.03664 0.60796 0.97452 0.0
C239 C 0.99419 0.5526 0.08936 0.0
C240 C 0.05465 0.42542 0.0857 0.0
C241 C 0.11632 0.40244 0.09769 0.0
C242 C 0.11661 0.43808 0.10439 0.0
C243 C 0.08615 0.44945 0.09841 0.0
C244 C 0.05403 0.38973 0.07938 0.0
C245 C 0.08456 0.37829 0.08537 0.0
C246 C 0.02349 0.43801 0.07683 0.0
C247 C 0.08997 0.56467 0.05842 0.0
H248 H 0.94929 0.70088 0.95829 0.0
H249 H 1.00497 0.69173 0.97969 0.0
H250 H 0.96505 0.57897 0.9566 0.0
H251 H 0.90934 0.58785 0.93541 0.0
H252 H 0.14036 0.45723 0.1144 0.0
H253 H 0.08737 0.47716 0.10345 0.0
H254 H 0.03014 0.37085 0.06925 0.0
H255 H 0.08357 0.35074 0.07963 0.0
C256 C 0.32623 0.21375 0.29394 0.0
C257 C 0.34116 0.25068 0.2895 0.0
C258 C 0.30392 0.20026 0.32254 0.0
C259 C 0.29627 0.22427 0.34746 0.0
C260 C 0.31315 0.26145 0.34441 0.0
C261 C 0.33528 0.27429 0.31527 0.0
C262 C 0.28643 0.16037 0.32471 0.0
C263 C 0.30622 0.2878 0.3708 0.0
C264 C 0.20275 0.18384 0.38574 0.0
C265 C 0.21037 0.16607 0.41406 0.0
C266 C 0.23071 0.20582 0.36545 0.0
C267 C 0.26716 0.21021 0.37387 0.0
C268 C 0.27487 0.19535 0.40447 0.0
C269 C 0.24628 0.17326 0.42425 0.0
C270 C 0.22123 0.22146 0.33322 0.0
C271 C 0.31335 0.20012 0.41469 0.0
H272 H 0.33011 0.19532 0.27394 0.0
H273 H 0.34705 0.30284 0.31211 0.0
H274 H 0.29055 0.15044 0.35023 0.0
H275 H 0.25678 0.15447 0.32158 0.0
H276 H 0.29739 0.14523 0.30468 0.0
H277 H 0.32686 0.31426 0.36871 0.0
H278 H 0.27921 0.29166 0.36694 0.0
H279 H 0.30605 0.27761 0.39716 0.0
H280 H 0.17489 0.17891 0.3783 0.0
H281 H 0.25227 0.15966 0.44624 0.0
H282 H 0.22845 0.20696 0.31049 0.0
H283 H 0.23692 0.25 0.33083 0.0
H284 H 0.19189 0.21939 0.33267 0.0
H285 H 0.32519 0.18201 0.39887 0.0
H286 H 0.31468 0.19369 0.44213 0.0
H287 H 0.33032 0.22792 0.41006 0.0
C288 C 0.25558 0.79329 0.79406 0.0
C289 C 0.21759 0.78141 0.7947 0.0
C290 C 0.27422 0.813 0.82144 0.0
C291 C 0.25441 0.82123 0.8502 0.0
C292 C 0.21619 0.80742 0.85207 0.0
C293 C 0.19816 0.78773 0.82417 0.0
C294 C 0.31502 0.8273 0.81836 0.0
C295 C 0.19423 0.81529 0.88254 0.0
C296 C 0.31293 0.86442 0.9243 0.0
C297 C 0.31944 0.90083 0.91699 0.0
C298 C 0.28999 0.83794 0.90397 0.0
C299 C 0.27357 0.84823 0.87561 0.0
C300 C 0.27877 0.88494 0.86912 0.0
C301 C 0.30163 0.91075 0.88986 0.0
C302 C 0.28472 0.79905 0.91186 0.0
C303 C 0.2619 0.89706 0.83899 0.0
H304 H 0.27084 0.78909 0.7712 0.0
H305 H 0.16882 0.77828 0.82494 0.0
H306 H 0.32278 0.85674 0.81508 0.0
H307 H 0.32752 0.82194 0.84205 0.0
H308 H 0.32654 0.81534 0.79617 0.0
H309 H 0.16578 0.79801 0.88266 0.0
H310 H 0.2066 0.81151 0.90688 0.0
H311 H 0.19393 0.84362 0.88183 0.0
H312 H 0.32629 0.85664 0.94552 0.0
H313 H 0.30692 0.93878 0.88373 0.0
H314 H 0.29936 0.78716 0.89203 0.0
H315 H 0.25562 0.78388 0.91116 0.0
H316 H 0.29503 0.79551 0.93737 0.0
H317 H 0.27382 0.88939 0.81468 0.0
H318 H 0.26628 0.92648 0.83914 0.0
H319 H 0.23234 0.8837 0.83909 0.0
C320 C 0.64472 0.43953 0.74284 0.0
C321 C 0.61844 0.41813 0.76544 0.0
C322 C 0.6348 0.45633 0.71424 0.0
C323 C 0.59763 0.45233 0.70801 0.0
C324 C 0.57117 0.43119 0.73118 0.0
C325 C 0.5818 0.41431 0.7591 0.0
C326 C 0.66415 0.47796 0.69027 0.0
C327 C 0.53133 0.42619 0.72641 0.0
C328 C 0.56873 0.51858 0.65049 0.0
C329 C 0.55935 0.49881 0.61989 0.0
C330 C 0.58163 0.50419 0.67894 0.0
C331 C 0.5861 0.4692 0.67704 0.0
C332 C 0.57763 0.44958 0.64584 0.0
C333 C 0.5642 0.46433 0.61808 0.0
C334 C 0.5896 0.52619 0.71149 0.0
C335 C 0.5823 0.41257 0.64186 0.0
H336 H 0.67309 0.44269 0.74712 0.0
H337 H 0.56114 0.39796 0.77624 0.0
H338 H 0.66055 0.46621 0.66402 0.0
H339 H 0.66212 0.50568 0.68874 0.0
H340 H 0.69171 0.479 0.69856 0.0
H341 H 0.5141 0.41036 0.74733 0.0
H342 H 0.52592 0.45261 0.72545 0.0
H343 H 0.52314 0.41231 0.70162 0.0
H344 H 0.56511 0.5451 0.65259 0.0
H345 H 0.55747 0.44864 0.59473 0.0
H346 H 0.61776 0.52905 0.71904 0.0
H347 H 0.57128 0.51229 0.73268 0.0
H348 H 0.58607 0.55328 0.70877 0.0
H349 H 0.61021 0.41298 0.64836 0.0
H350 H 0.57709 0.40168 0.6154 0.0
H351 H 0.56339 0.3941 0.65996 0.0
C352 C 0.91695 0.62113 0.26543 0.0
C353 C 0.90718 0.65203 0.25776 0.0
C354 C 0.93032 0.60206 0.23955 0.0
C355 C 0.93309 0.61369 0.20511 0.0
C356 C 0.92228 0.64436 0.19722 0.0
C357 C 0.91 0.66343 0.22371 0.0
C358 C 0.94249 0.57014 0.24921 0.0
C359 C 0.92406 0.6573 0.1608 0.0
C360 C 1.00084 0.59342 0.14013 0.0
C361 C 0.97897 0.56514 0.12102 0.0
C362 C 0.98657 0.60823 0.16855 0.0
C363 C 0.94919 0.59521 0.17749 0.0
C364 C 0.92708 0.5661 0.15867 0.0
C365 C 0.94239 0.55103 0.13091 0.0
C366 C 1.01138 0.6385 0.1884 0.0
C367 C 0.88697 0.55199 0.16684 0.0
H368 H 0.91507 0.61239 0.29181 0.0
H369 H 0.90229 0.68723 0.21774 0.0
H370 H 0.92815 0.54627 0.23404 0.0
H371 H 0.97189 0.57542 0.24301 0.0
H372 H 0.93755 0.56386 0.27693 0.0
H373 H 0.91202 0.67984 0.15861 0.0
H374 H 0.95269 0.6663 0.1513 0.0
H375 H 0.90958 0.6351 0.14374 0.0
H376 H 0.02923 0.60419 0.13268 0.0
H377 H 0.92539 0.52937 0.11596 0.0
H378 H 1.00835 0.6328 0.21628 0.0
H379 H 1.00389 0.66354 0.18456 0.0
H380 H 0.0403 0.64311 0.1803 0.0
H381 H 0.88206 0.54499 0.19436 0.0
H382 H 0.87392 0.52802 0.1511 0.0
H383 H 0.87366 0.57312 0.16205 0.0
C384 C 0.39861 0.19244 0.18944 0.0
C385 C 0.41037 0.22962 0.18487 0.0
C386 C 0.41567 0.16974 0.17177 0.0
C387 C 0.44524 0.18448 0.1488 0.0
C388 C 0.45756 0.22202 0.14427 0.0
C389 C 0.43983 0.24418 0.16227 0.0
C390 C 0.40137 0.12984 0.17702 0.0
C391 C 0.48907 0.23867 0.12003 0.0
C392 C 0.5027 0.12311 0.12128 0.0
C393 C 0.48763 0.1097 0.08984 0.0
C394 C 0.48993 0.14833 0.14039 0.0
C395 C 0.46134 0.16017 0.12782 0.0
C396 C 0.4464 0.14706 0.09593 0.0
C397 C 0.45972 0.1221 0.07737 0.0
C398 C 0.50661 0.16186 0.17426 0.0
C399 C 0.41571 0.15879 0.08172 0.0
H400 H 0.37542 0.18094 0.2064 0.0
H401 H 0.44911 0.2729 0.15883 0.0
H402 H 0.39077 0.11647 0.15262 0.0
H403 H 0.42354 0.11887 0.18448 0.0
H404 H 0.37931 0.12283 0.19708 0.0
H405 H 0.49671 0.26837 0.12094 0.0
H406 H 0.51297 0.22982 0.12639 0.0
H407 H 0.48203 0.2296 0.09337 0.0
H408 H 0.52443 0.11392 0.131 0.0
H409 H 0.44783 0.112 0.05311 0.0
H410 H 0.48601 0.15335 0.1954 0.0
H411 H 0.5157 0.19154 0.17464 0.0
H412 H 0.53008 0.15177 0.17943 0.0
H413 H 0.39151 0.15055 0.09928 0.0
H414 H 0.40811 0.14716 0.05588 0.0
H415 H 0.42337 0.18837 0.07997 0.0
C416 C 0.07798 0.80317 0.63319 0.0
C417 C 0.09888 0.81019 0.66248 0.0
C418 C 0.06389 0.82939 0.61979 0.0
C419 C 0.07136 0.86353 0.63586 0.0
C420 C 0.09176 0.87044 0.66593 0.0
C421 C 0.10514 0.84364 0.67897 0.0
C422 C 0.04192 0.82092 0.58786 0.0
C423 C 0.10069 0.90661 0.68358 0.0
C424 C 0.07348 0.94205 0.57941 0.0
C425 C 0.04035 0.94865 0.58836 0.0
C426 C 0.08392 0.91465 0.59493 0.0
C427 C 0.06045 0.89292 0.61972 0.0
C428 C 0.02701 0.89953 0.62907 0.0
C429 C 0.01745 0.92756 0.61344 0.0
C430 C 0.12008 0.90888 0.58463 0.0
C431 C 1.00113 0.87665 0.65514 0.0
H432 H 0.07304 0.7773 0.6205 0.0
H433 H 0.12135 0.84936 0.70161 0.0
H434 H 0.01598 0.82772 0.59197 0.0
H435 H 0.05699 0.83742 0.56631 0.0
H436 H 0.03588 0.79227 0.58022 0.0
H437 H 0.11492 0.90698 0.70789 0.0
H438 H 0.11823 0.92709 0.66628 0.0
H439 H 0.0756 0.91453 0.68933 0.0
H440 H 0.0914 0.9584 0.56018 0.0
H441 H 0.99165 0.93233 0.6202 0.0
H442 H 0.11595 0.88162 0.57357 0.0
H443 H 0.13677 0.91086 0.60755 0.0
H444 H 0.13549 0.92862 0.56547 0.0
H445 H 0.99323 0.84833 0.64631 0.0
H446 H 0.9762 0.88528 0.65958 0.0
H447 H 0.0146 0.87771 0.67993 0.0
C448 C 0.75631 0.4085 0.93445 0.0
C449 C 0.75468 0.4102 0.89853 0.0
C450 C 0.78855 0.42446 0.95187 0.0
C451 C 0.82059 0.44272 0.93322 0.0
C452 C 0.81903 0.44527 0.89706 0.0
C453 C 0.78628 0.42919 0.88024 0.0
C454 C 0.78828 0.42178 0.99043 0.0
C455 C 0.85222 0.46463 0.87601 0.0
C456 C 0.89797 0.50849 0.98144 0.0
C457 C 0.92156 0.48769 0.98736 0.0
C458 C 0.8652 0.49435 0.96417 0.0
C459 C 0.85567 0.45853 0.95161 0.0
C460 C 0.87948 0.43748 0.95734 0.0
C461 C 0.91177 0.45213 0.97519 0.0
C462 C 0.84111 0.51818 0.95912 0.0
C463 C 0.87086 0.39931 0.94445 0.0
H464 H 0.73211 0.39469 0.94916 0.0
H465 H 0.78571 0.4307 0.85257 0.0
H466 H 0.808 0.40758 0.99786 0.0
H467 H 0.79686 0.44898 1.00209 0.0
H468 H 0.76112 0.40737 1.00139 0.0
H469 H 0.84683 0.46437 0.84821 0.0
H470 H 0.86211 0.49282 0.88497 0.0
H471 H 0.87428 0.45206 0.87956 0.0
H472 H 0.90497 0.53601 0.99046 0.0
H473 H 0.92965 0.43569 0.97923 0.0
H474 H 0.81203 0.50321 0.96231 0.0
H475 H 0.84571 0.52893 0.93271 0.0
H476 H 0.84708 0.54111 0.97747 0.0
H477 H 0.84485 0.38325 0.95636 0.0
H478 H 0.89234 0.3866 0.95022 0.0
H479 H 0.86749 0.39842 0.91629 0.0
C480 C 0.75425 0.63911 0.3912 0.0
C481 C 0.78592 0.6558 0.40858 0.0
C482 C 0.7214 0.62393 0.40932 0.0
C483 C 0.72038 0.62503 0.44568 0.0
C484 C 0.75256 0.64095 0.46334 0.0
C485 C 0.78488 0.65639 0.44456 0.0
C486 C 0.6876 0.60753 0.38955 0.0
C487 C 0.75272 0.64213 0.50205 0.0
C488 C 0.62955 0.61823 0.49114 0.0
C489 C 0.61762 0.58187 0.4996 0.0
C490 C 0.66312 0.63269 0.47394 0.0
C491 C 0.68543 0.61034 0.46518 0.0
C492 C 0.67398 0.57385 0.47443 0.0
C493 C 0.64023 0.56006 0.49145 0.0
C494 C 0.67433 0.67173 0.46442 0.0
C495 C 0.69711 0.5492 0.46586 0.0
H496 H 0.75496 0.63895 0.36338 0.0
H497 H 0.80945 0.66906 0.45802 0.0
H498 H 0.67534 0.57934 0.39729 0.0
H499 H 0.66725 0.62215 0.39566 0.0
H500 H 0.69311 0.60819 0.36137 0.0
H501 H 0.78033 0.65401 0.51185 0.0
H502 H 0.73488 0.65813 0.51218 0.0
H503 H 0.74177 0.61473 0.51239 0.0
H504 H 0.61228 0.63529 0.49721 0.0
H505 H 0.63143 0.53199 0.49802 0.0
H506 H 0.67759 0.67428 0.43611 0.0
H507 H 0.70094 0.68553 0.47532 0.0
H508 H 0.65426 0.68568 0.4737 0.0
H509 H 0.70105 0.54737 0.43763 0.0
H510 H 0.68485 0.52179 0.47588 0.0
H511 H 0.72433 0.56015 0.47669 0.0
C512 C 0.29027 0.3564 0.16512 0.0
C513 C 0.30408 0.33481 0.14233 0.0
C514 C 0.26075 0.3685 0.15655 0.0
C515 C 0.24468 0.35885 0.12439 0.0
C516 C 0.25928 0.33805 0.10083 0.0
C517 C 0.28884 0.32627 0.11011 0.0
C518 C 0.24611 0.39077 0.18233 0.0
C519 C 0.243 0.32736 0.06624 0.0
C520 C 0.14605 0.35777 0.11889 0.0
C521 C 0.14915 0.39069 0.10344 0.0
C522 C 0.1769 0.34686 0.12534 0.0
C523 C 0.21173 0.36939 0.11611 0.0
C524 C 0.21503 0.40242 0.10006 0.0
C525 C 0.18373 0.41266 0.09391 0.0
C526 C 0.17224 0.31149 0.14264 0.0
C527 C 0.25166 0.42713 0.08972 0.0
H528 H 0.30201 0.36332 0.19003 0.0
H529 H 0.29949 0.30959 0.09246 0.0
H530 H 0.24525 0.41613 0.17053 0.0
H531 H 0.21792 0.37613 0.19034 0.0
H532 H 0.26265 0.39728 0.20558 0.0
H533 H 0.25877 0.31288 0.05011 0.0
H534 H 0.21486 0.30985 0.06973 0.0
H535 H 0.24159 0.35138 0.05227 0.0
H536 H 0.11949 0.34083 0.12667 0.0
H537 H 0.18633 0.4379 0.08147 0.0
H538 H 0.18568 0.31604 0.16766 0.0
H539 H 0.18544 0.29456 0.1267 0.0
H540 H 0.14327 0.29656 0.14718 0.0
H541 H 0.26817 0.43556 0.11274 0.0
H542 H 0.24953 0.45143 0.07664 0.0
H543 H 0.26647 0.41288 0.07229 0.0
C544 C 0.66701 0.27526 0.89149 0.0
C545 C 0.64786 0.30075 0.88821 0.0
C546 C 0.6508 0.2416 0.90656 0.0
C547 C 0.61443 0.23286 0.91947 0.0
C548 C 0.59462 0.25816 0.91552 0.0
C549 C 0.61139 0.29152 0.89973 0.0
C550 C 0.67305 0.21564 0.90938 0.0
C551 C 0.55604 0.25054 0.92916 0.0
C552 C 0.56448 0.13407 0.93893 0.0
C553 C 0.5697 0.13182 0.97424 0.0
C554 C 0.57858 0.16653 0.92089 0.0
C555 C 0.59798 0.19809 0.93844 0.0
C556 C 0.6028 0.19605 0.97418 0.0
C557 C 0.58898 0.16317 0.99143 0.0
C558 C 0.57315 0.16693 0.88282 0.0
C559 C 0.62272 0.22875 0.99434 0.0
H560 H 0.69511 0.28191 0.88256 0.0
H561 H 0.59639 0.31101 0.89772 0.0
H562 H 0.67729 0.21156 0.93679 0.0
H563 H 0.65838 0.18922 0.89842 0.0
H564 H 0.69996 0.22521 0.89596 0.0
H565 H 0.54365 0.27195 0.92271 0.0
H566 H 0.53928 0.22474 0.91864 0.0
H567 H 0.55529 0.24799 0.95748 0.0
H568 H 0.54973 0.11025 0.92518 0.0
H569 H 0.59305 0.16218 1.01869 0.0
H570 H 0.59986 0.1748 0.8689 0.0
H571 H 0.55903 0.18712 0.87695 0.0
H572 H 0.55716 0.14047 0.87285 0.0
H573 H 0.65118 0.2385 0.98449 0.0
H574 H 0.62284 0.22332 1.02218 0.0
H575 H 0.61002 0.25062 0.99103 0.0
C576 C 0.86929 0.79093 0.39393 0.0
C577 C 0.88872 0.76564 0.38956 0.0
C578 C 0.8853 0.82479 0.40832 0.0
C579 C 0.9215 0.83343 0.41908 0.0
C580 C 0.94174 0.80852 0.41339 0.0
C581 C 0.92515 0.77495 0.39846 0.0
C582 C 0.86291 0.85071 0.41341 0.0
C583 C 0.98027 0.81654 0.42477 0.0
C584 C 0.96986 0.9307 0.44095 0.0
C585 C 0.96385 0.9315 0.47665 0.0
C586 C 0.95643 0.89897 0.42181 0.0
C587 C 0.93696 0.8672 0.43883 0.0
C588 C 0.93125 0.86778 0.4749 0.0
C589 C 0.94453 0.89991 0.4933 0.0
C590 C 0.96267 0.89954 0.38336 0.0
C591 C 0.91098 0.83444 0.49414 0.0
H592 H 0.84117 0.78382 0.38682 0.0
H593 H 0.94009 0.7553 0.39536 0.0
H594 H 0.85753 0.85418 0.44123 0.0
H595 H 0.87795 0.87736 0.40322 0.0
H596 H 0.83653 0.84136 0.40063 0.0
H597 H 0.99329 0.79577 0.41585 0.0
H598 H 0.99674 0.84288 0.41499 0.0
H599 H 0.98059 0.81807 0.4532 0.0
H600 H 0.98472 0.95498 0.42786 0.0
H601 H 0.94003 0.90013 0.52091 0.0
H602 H 0.93626 0.89195 0.3706 0.0
H603 H 0.977 0.87957 0.37534 0.0
H604 H 0.97881 0.92626 0.37404 0.0
H605 H 0.88282 0.8247 0.48522 0.0
H606 H 0.90996 0.83908 0.52232 0.0
H607 H 0.92406 0.81286 0.48881 0.0
C608 C 0.22762 0.6855 0.69508 0.0
C609 C 0.22098 0.71719 0.68481 0.0
C610 C 0.2549 0.67319 0.67869 0.0
C611 C 0.27622 0.69332 0.65164 0.0
C612 C 0.26749 0.72362 0.63926 0.0
C613 C 0.23981 0.73516 0.65598 0.0
C614 C 0.2629 0.64041 0.69232 0.0
C615 C 0.28949 0.74577 0.61046 0.0
C616 C 0.37457 0.69274 0.64829 0.0
C617 C 0.37533 0.66867 0.62122 0.0
C618 C 0.34267 0.70154 0.65778 0.0
C619 C 0.31054 0.68571 0.63998 0.0
C620 C 0.31116 0.66187 0.61226 0.0
C621 C 0.34358 0.65371 0.60314 0.0
C622 C 0.34318 0.72722 0.68747 0.0
C623 C 0.27746 0.64447 0.59272 0.0
H624 H 0.21296 0.6716 0.71736 0.0
H625 H 0.23494 0.75988 0.64824 0.0
H626 H 0.26707 0.62262 0.67095 0.0
H627 H 0.28828 0.64866 0.70675 0.0
H628 H 0.24076 0.62496 0.70978 0.0
H629 H 0.27579 0.76469 0.60022 0.0
H630 H 0.31615 0.76146 0.62009 0.0
H631 H 0.29473 0.72839 0.58917 0.0
H632 H 0.39874 0.70402 0.66274 0.0
H633 H 0.34403 0.63551 0.58184 0.0
H634 H 0.32475 0.71332 0.70859 0.0
H635 H 0.3332 0.7497 0.67935 0.0
H636 H 0.37072 0.73838 0.69764 0.0
H637 H 0.25663 0.62718 0.61017 0.0
H638 H 0.28286 0.62788 0.57076 0.0
H639 H 0.26582 0.66514 0.58291 0.0
C640 C 0.73879 0.79143 0.8019 0.0
C641 C 0.70177 0.78923 0.80374 0.0
C642 C 0.76095 0.80778 0.77406 0.0
C643 C 0.74569 0.82231 0.7475 0.0
C644 C 0.70782 0.81746 0.74779 0.0
C645 C 0.68628 0.801 0.776 0.0
C646 C 0.80118 0.81235 0.77472 0.0
C647 C 0.69049 0.83223 0.71974 0.0
C648 C 0.80463 0.90827 0.70875 0.0
C649 C 0.81581 0.89645 0.67717 0.0
C650 C 0.78184 0.8843 0.73172 0.0
C651 C 0.76985 0.8475 0.7229 0.0
C652 C 0.78122 0.83524 0.69117 0.0
C653 C 0.80426 0.85993 0.66864 0.0
C654 C 0.77066 0.89843 0.7655 0.0
C655 C 0.76884 0.79621 0.68098 0.0
H656 H 0.75104 0.78269 0.82337 0.0
H657 H 0.65757 0.79885 0.77712 0.0
H658 H 0.81188 0.80656 0.74911 0.0
H659 H 0.81542 0.84052 0.78146 0.0
H660 H 0.80784 0.7947 0.79385 0.0
H661 H 0.6605 0.82135 0.72082 0.0
H662 H 0.69749 0.86178 0.72247 0.0
H663 H 0.7009 0.8261 0.69412 0.0
H664 H 0.81405 0.9364 0.71566 0.0
H665 H 0.81274 0.85079 0.64413 0.0
H666 H 0.7794 0.88518 0.78711 0.0
H667 H 0.74071 0.89219 0.76769 0.0
H668 H 0.78247 0.92782 0.76838 0.0
H669 H 0.77676 0.7798 0.70047 0.0
H670 H 0.78046 0.79096 0.65557 0.0
H671 H 0.73885 0.78715 0.68005 0.0
C672 C 0.77033 0.27315 0.28607 0.0
C673 C 0.80812 0.28609 0.28816 0.0
C674 C 0.75439 0.25507 0.25674 0.0
C675 C 0.77677 0.24963 0.22876 0.0
C676 C 0.81478 0.26478 0.22964 0.0
C677 C 0.83009 0.28275 0.25948 0.0
C678 C 0.71372 0.23924 0.25694 0.0
C679 C 0.83943 0.26 0.20003 0.0
C680 C 0.73602 0.16167 0.18344 0.0
C681 C 0.71924 0.17223 0.15592 0.0
C682 C 0.75656 0.18691 0.20621 0.0
C683 C 0.76049 0.2237 0.20135 0.0
C684 C 0.74515 0.23474 0.17266 0.0
C685 C 0.72445 0.20879 0.15033 0.0
C686 C 0.77226 0.17397 0.23664 0.0
C687 C 0.74924 0.27377 0.16643 0.0
H688 H 0.75311 0.27502 0.30825 0.0
H689 H 0.85928 0.29304 0.26082 0.0
H690 H 0.70261 0.24556 0.23283 0.0
H691 H 0.70692 0.20968 0.25857 0.0
H692 H 0.7 0.2492 0.27895 0.0
H693 H 0.86717 0.27853 0.20204 0.0
H694 H 0.8414 0.23216 0.19973 0.0
H695 H 0.8283 0.26441 0.17523 0.0
H696 H 0.73172 0.13345 0.18813 0.0
H697 H 0.71188 0.21706 0.12881 0.0
H698 H 0.75847 0.17978 0.26065 0.0
H699 H 0.80149 0.18829 0.23836 0.0
H700 H 0.76912 0.14476 0.23522 0.0
H701 H 0.73249 0.28376 0.18579 0.0
H702 H 0.74053 0.27825 0.14049 0.0
H703 H 0.7778 0.2899 0.16934 0.0
C704 C 0.45072 0.67826 0.32483 0.0
C705 C 0.41743 0.66498 0.30864 0.0
C706 C 0.46005 0.66084 0.35307 0.0
C707 C 0.43562 0.62893 0.36613 0.0
C708 C 0.40181 0.61536 0.34997 0.0
C709 C 0.39315 0.63339 0.32159 0.0
C710 C 0.49637 0.67668 0.36891 0.0
C711 C 0.37469 0.58161 0.36267 0.0
C712 C 0.47624 0.56798 0.41923 0.0
C713 C 0.46926 0.57722 0.45342 0.0
C714 C 0.46488 0.58385 0.39093 0.0
C715 C 0.44583 0.60992 0.39634 0.0
C716 C 0.43819 0.61896 0.43078 0.0
C717 C 0.44991 0.60269 0.45863 0.0
C718 C 0.47393 0.57312 0.35504 0.0
C719 C 0.41807 0.64641 0.43829 0.0
H720 H 0.46979 0.70256 0.31524 0.0
H721 H 0.36735 0.62267 0.30956 0.0
H722 H 0.49251 0.68269 0.3965 0.0
H723 H 0.51234 0.65706 0.36735 0.0
H724 H 0.51235 0.70166 0.35608 0.0
H725 H 0.34953 0.57452 0.34785 0.0
H726 H 0.38686 0.55903 0.36086 0.0
H727 H 0.36745 0.58486 0.39012 0.0
H728 H 0.4911 0.54849 0.41444 0.0
H729 H 0.44417 0.61032 0.48465 0.0
H730 H 0.49211 0.5966 0.34161 0.0
H731 H 0.44891 0.56392 0.34017 0.0
H732 H 0.48743 0.55146 0.35487 0.0
H733 H 0.43413 0.67275 0.42816 0.0
H734 H 0.41261 0.64941 0.46621 0.0
H735 H 0.3919 0.63883 0.42512 0.0
C736 C 0.16545 0.46401 0.81492 0.0
C737 C 0.14549 0.43321 0.79767 0.0
C738 C 0.15059 0.47789 0.84361 0.0
C739 C 0.11484 0.46047 0.85553 0.0
C740 C 0.09441 0.42943 0.83806 0.0
C741 C 0.10995 0.41618 0.80928 0.0
C742 C 0.17331 0.51107 0.86135 0.0
C743 C 0.05626 0.41002 0.85001 0.0
C744 C 0.09025 0.47624 0.94894 0.0
C745 C 0.071 0.50164 0.94615 0.0
C746 C 0.10434 0.46246 0.91971 0.0
C747 C 0.09925 0.47437 0.88673 0.0
C748 C 0.07996 0.50007 0.8837 0.0
C749 C 0.06603 0.51335 0.91339 0.0
C750 C 0.12471 0.43509 0.92414 0.0
C751 C 0.07409 0.51362 0.84905 0.0
H752 H 0.19291 0.47728 0.80597 0.0
H753 H 0.09433 0.39236 0.79609 0.0
H754 H 0.15908 0.53213 0.86208 0.0
H755 H 0.17731 0.50494 0.88831 0.0
H756 H 0.20032 0.52191 0.84841 0.0
H757 H 0.04373 0.38666 0.83332 0.0
H758 H 0.05632 0.40054 0.87662 0.0
H759 H 0.03909 0.42853 0.85042 0.0
H760 H 0.09417 0.46685 0.97405 0.0
H761 H 0.05117 0.53289 0.91088 0.0
H762 H 0.15282 0.44544 0.91352 0.0
H763 H 0.1116 0.41028 0.90963 0.0
H764 H 0.12585 0.42817 0.95148 0.0
H765 H 0.1006 0.52635 0.83599 0.0
H766 H 0.05826 0.53339 0.85099 0.0
H767 H 0.05954 0.49093 0.83256 0.0
C768 C 0.60179 0.81428 0.92513 0.0
C769 C 0.63054 0.82438 0.90073 0.0
C770 C 0.58627 0.83972 0.94035 0.0
C771 C 0.59918 0.87596 0.93035 0.0
C772 C 0.62772 0.88624 0.90542 0.0
C773 C 0.64346 0.86057 0.89148 0.0
C774 C 0.55647 0.82793 0.96754 0.0
C775 C 0.64201 0.92453 0.8937 0.0
C776 C 0.54156 0.93947 0.9484 0.0
C777 C 0.5595 0.95977 0.9759 0.0
C778 C 0.55395 0.91183 0.93339 0.0
C779 C 0.58424 0.90368 0.94699 0.0
C780 C 0.60167 0.92345 0.97546 0.0
C781 C 0.58942 0.95158 0.98922 0.0
C782 C 0.53528 0.89199 0.90249 0.0
C783 C 0.63341 0.91501 0.99132 0.0
H784 H 0.5913 0.78646 0.93232 0.0
H785 H 0.66637 0.86918 0.87359 0.0
H786 H 0.56495 0.84265 0.99189 0.0
H787 H 0.53176 0.83447 0.95969 0.0
H788 H 0.54948 0.79877 0.97247 0.0
H789 H 0.66227 0.92757 0.87209 0.0
H790 H 0.61939 0.93445 0.88546 0.0
H791 H 0.65493 0.94185 0.91531 0.0
H792 H 0.51834 0.94573 0.93816 0.0
H793 H 0.60292 0.96679 1.01094 0.0
H794 H 0.52598 0.86284 0.90741 0.0
H795 H 0.55473 0.89612 0.88017 0.0
H796 H 0.51159 0.90098 0.89555 0.0
H797 H 0.62623 0.88623 0.99784 0.0
H798 H 0.64216 0.93112 1.01492 0.0
H799 H 0.65671 0.92035 0.97263 0.0
C800 C 0.91862 0.21842 0.40151 0.0
C801 C 0.91322 0.24424 0.42511 0.0
C802 C 0.93192 0.1905 0.41194 0.0
C803 C 0.93996 0.18835 0.44678 0.0
C804 C 0.93529 0.21477 0.47057 0.0
C805 C 0.92197 0.24245 0.45941 0.0
C806 C 0.93668 0.1629 0.38581 0.0
C807 C 0.94363 0.21338 0.50795 0.0
C808 C 0.93791 0.09783 0.48205 0.0
C809 C 0.97492 0.10034 0.4829 0.0
C810 C 0.92618 0.12616 0.47005 0.0
C811 C 0.95208 0.15777 0.45858 0.0
C812 C 0.98945 0.16025 0.45872 0.0
C813 C 1.00043 0.1315 0.47087 0.0
C814 C 0.88607 0.1225 0.47019 0.0
C815 C 0.01784 0.1935 0.44659 0.0
H816 H 0.91203 0.21965 0.37489 0.0
H817 H 0.91779 0.2624 0.47765 0.0
H818 H 0.96487 0.16099 0.3857 0.0
H819 H 0.9185 0.1362 0.39281 0.0
H820 H 0.93059 0.1692 0.35946 0.0
H821 H 0.93977 0.23667 0.52288 0.0
H822 H 0.92578 0.18853 0.51952 0.0
H823 H 0.972 0.21263 0.51041 0.0
H824 H 0.91798 0.07391 0.4913 0.0
H825 H 0.0291 0.13375 0.47147 0.0
H826 H 0.87788 0.12659 0.44398 0.0
H827 H 0.87989 0.14343 0.48706 0.0
H828 H 0.86941 0.09589 0.4793 0.0
H829 H 0.01271 0.19962 0.41993 0.0
H830 H 0.04573 0.19076 0.44737 0.0
H831 H 0.01631 0.21671 0.46292 0.0
C832 C 0.29103 0.65815 0.12917 0.0
C833 C 0.29018 0.66399 0.16487 0.0
C834 C 0.25927 0.64124 0.11139 0.0
C835 C 0.22526 0.63043 0.12939 0.0
C836 C 0.22425 0.63613 0.16549 0.0
C837 C 0.25662 0.65239 0.18277 0.0
C838 C 0.26216 0.63504 0.07319 0.0
C839 C 0.18877 0.62577 0.18584 0.0
C840 C 0.13931 0.619 0.07781 0.0
C841 C 0.12545 0.58164 0.07502 0.0
C842 C 0.17135 0.63511 0.09561 0.0
C843 C 0.19084 0.61355 0.11042 0.0
C844 C 0.1774 0.57581 0.10689 0.0
C845 C 0.14484 0.56042 0.08973 0.0
C846 C 0.18398 0.67533 0.09912 0.0
C847 C 0.19744 0.55155 0.12125 0.0
H848 H 0.31678 0.66673 0.11507 0.0
H849 H 0.2555 0.65705 0.21023 0.0
H850 H 0.2502 0.60627 0.06699 0.0
H851 H 0.24655 0.65014 0.05959 0.0
H852 H 0.29067 0.64343 0.06314 0.0
H853 H 0.19234 0.6321 0.21361 0.0
H854 H 0.17019 0.64007 0.17589 0.0
H855 H 0.17544 0.59671 0.18277 0.0
H856 H 0.1245 0.63572 0.06692 0.0
H857 H 0.13471 0.53159 0.08753 0.0
H858 H 0.21156 0.68577 0.08733 0.0
H859 H 0.18567 0.68312 0.12667 0.0
H860 H 0.16561 0.68839 0.08679 0.0
H861 H 0.22592 0.55925 0.11122 0.0
H862 H 0.18469 0.52296 0.11473 0.0
H863 H 0.19816 0.55452 0.14958 0.0
C864 C 0.26544 0.38002 0.64971 0.0
C865 C 0.23802 0.39689 0.65497 0.0
C866 C 0.29842 0.39758 0.63299 0.0
C867 C 0.3039 0.43268 0.62067 0.0
C868 C 0.27605 0.44967 0.62546 0.0
C869 C 0.24353 0.43167 0.64288 0.0
C870 C 0.32768 0.37882 0.62912 0.0
C871 C 0.28067 0.48686 0.61227 0.0
C872 C 0.40104 0.4907 0.60956 0.0
C873 C 0.40829 0.48662 0.57438 0.0
C874 C 0.36717 0.47351 0.6248 0.0
C875 C 0.33947 0.45213 0.60432 0.0
C876 C 0.34627 0.44845 0.56865 0.0
C877 C 0.38075 0.46548 0.55413 0.0
C878 C 0.36129 0.47765 0.66302 0.0
C879 C 0.31718 0.4264 0.54589 0.0
H880 H 0.26127 0.3532 0.6593 0.0
H881 H 0.22218 0.44458 0.64667 0.0
H882 H 0.33561 0.37707 0.60164 0.0
H883 H 0.35218 0.39447 0.6425 0.0
H884 H 0.31894 0.35137 0.63975 0.0
H885 H 0.25579 0.4956 0.61653 0.0
H886 H 0.30331 0.50623 0.62527 0.0
H887 H 0.28779 0.48789 0.58439 0.0
H888 H 0.42216 0.50686 0.62549 0.0
H889 H 0.38605 0.46243 0.52691 0.0
H890 H 0.35439 0.45107 0.67536 0.0
H891 H 0.33814 0.48881 0.66823 0.0
H892 H 0.38557 0.49542 0.67527 0.0
H893 H 0.30925 0.39804 0.55394 0.0
H894 H 0.32618 0.42768 0.51842 0.0
H895 H 0.29262 0.43585 0.54859 0.0
C896 C 0.73198 0.65581 0.88411 0.0
C897 C 0.71897 0.67912 0.90539 0.0
C898 C 0.76501 0.64895 0.89031 0.0
C899 C 0.78529 0.66557 0.9187 0.0
C900 C 0.77171 0.68835 0.94089 0.0
C901 C 0.73873 0.69499 0.93388 0.0
C902 C 0.77864 0.62464 0.86598 0.0
C903 C 0.79234 0.70618 0.97168 0.0
C904 C 0.85724 0.62624 0.95121 0.0
C905 C 0.88915 0.64959 0.9373 0.0
C906 C 0.82324 0.63095 0.94522 0.0
C907 C 0.82108 0.65975 0.92477 0.0
C908 C 0.85318 0.68323 0.91032 0.0
C909 C 0.88688 0.67795 0.9169 0.0
C910 C 0.78971 0.60548 0.96128 0.0
C911 C 0.85194 0.71401 0.88804 0.0
H912 H 0.71673 0.64361 0.86202 0.0
H913 H 0.72869 0.71294 0.95048 0.0
H914 H 0.80476 0.63979 0.8536 0.0
H915 H 0.7838 0.60243 0.88031 0.0
H916 H 0.75916 0.61309 0.84562 0.0
H917 H 0.77736 0.7219 0.9872 0.0
H918 H 0.79789 0.68577 0.98833 0.0
H919 H 0.8189 0.72436 0.96315 0.0
H920 H 0.85897 0.60477 0.96761 0.0
H921 H 0.91149 0.69595 0.90598 0.0
H922 H 0.77027 0.5931 0.94119 0.0
H923 H 0.77597 0.62038 0.97911 0.0
H924 H 0.79599 0.58384 0.97569 0.0
H925 H 0.83448 0.70388 0.86592 0.0
H926 H 0.87926 0.72933 0.87813 0.0
H927 H 0.83978 0.73252 0.9029 0.0
C928 C 0.4061 0.77486 0.13484 0.0
C929 C 0.3989 0.77196 0.17049 0.0
C930 C 0.42253 0.80814 0.11912 0.0
C931 C 0.43196 0.84001 0.13922 0.0
C932 C 0.42549 0.83724 0.17536 0.0
C933 C 0.40936 0.80341 0.19051 0.0
C934 C 0.42928 0.80921 0.08072 0.0
C935 C 0.43472 0.87023 0.19798 0.0
C936 C 0.50071 0.92315 0.10018 0.0
C937 C 0.47837 0.94244 0.08713 0.0
C938 C 0.48613 0.89031 0.11737 0.0
C939 C 0.44805 0.87601 0.12225 0.0
C940 C 0.42536 0.89559 0.10961 0.0
C941 C 0.44066 0.92822 0.09216 0.0
C942 C 0.5116 0.87052 0.12979 0.0
C943 C 0.38471 0.88185 0.11424 0.0
H944 H 0.39851 0.75086 0.11901 0.0
H945 H 0.40368 0.80176 0.21795 0.0
H946 H 0.41332 0.82518 0.06893 0.0
H947 H 0.45829 0.8225 0.07449 0.0
H948 H 0.42184 0.78207 0.0688 0.0
H949 H 0.42909 0.86374 0.2256 0.0
H950 H 0.46377 0.88509 0.19426 0.0
H951 H 0.41874 0.88836 0.19065 0.0
H952 H 0.52984 0.93343 0.09648 0.0
H953 H 0.42292 0.9426 0.0824 0.0
H954 H 0.50612 0.84404 0.11674 0.0
H955 H 0.50698 0.86558 0.15772 0.0
H956 H 0.5405 0.88543 0.12488 0.0
H957 H 0.37469 0.85589 0.1005 0.0
H958 H 0.37076 0.90079 0.10445 0.0
H959 H 0.37709 0.87701 0.14181 0.0
C960 C 0.12109 0.25876 0.68744 0.0
C961 C 0.1322 0.28808 0.66539 0.0
C962 C 0.10491 0.2241 0.67458 0.0
C963 C 0.09937 0.21877 0.6389 0.0
C964 C 0.10968 0.24849 0.61672 0.0
C965 C 0.12608 0.28269 0.6302 0.0
C966 C 0.09448 0.19308 0.69902 0.0
C967 C 0.10379 0.24413 0.57861 0.0
C968 C 0.09034 0.12817 0.59594 0.0
C969 C 0.05277 0.11521 0.59203 0.0
C970 C 0.10576 0.16131 0.61214 0.0
C971 C 0.08315 0.18218 0.62449 0.0
C972 C 0.04518 0.16893 0.62125 0.0
C973 C 0.03046 0.1356 0.60522 0.0
C974 C 0.14636 0.17438 0.6153 0.0
C975 C 0.02014 0.19046 0.63372 0.0
H976 H 0.12606 0.26278 0.71461 0.0
H977 H 0.13427 0.30537 0.61312 0.0
H978 H 0.06531 0.17863 0.697 0.0
H979 H 0.10996 0.17378 0.69202 0.0
H980 H 0.09978 0.20177 0.72611 0.0
H981 H 0.11238 0.27009 0.56502 0.0
H982 H 0.11927 0.22639 0.56728 0.0
H983 H 0.07473 0.23122 0.5739 0.0
H984 H 0.10783 0.11264 0.58596 0.0
H985 H 1.00142 0.12598 0.6023 0.0
H986 H 0.15325 0.18166 0.64237 0.0
H987 H 0.15749 0.19886 0.59983 0.0
H988 H 0.15994 0.15403 0.60643 0.0
H989 H 0.02473 0.19811 0.66109 0.0
H990 H 0.99113 0.17559 0.63095 0.0
H991 H 0.02605 0.21558 0.61894 0.0
C992 C 0.76885 0.31483 0.42541 0.0
C993 C 0.7923 0.33765 0.40193 0.0
C994 C 0.73972 0.32454 0.44139 0.0
C995 C 0.73446 0.35805 0.43395 0.0
C996 C 0.75995 0.38234 0.41244 0.0
C997 C 0.78838 0.37164 0.3963 0.0
C998 C 0.71292 0.29771 0.46378 0.0
C999 C 0.75574 0.41863 0.40447 0.0
C1000 C 0.63936 0.36742 0.43168 0.0
C1001 C 0.63654 0.38557 0.46265 0.0
C1002 C 0.67059 0.35719 0.42273 0.0
C1003 C 0.70015 0.36594 0.44495 0.0
C1004 C 0.6973 0.38347 0.4766 0.0
C1005 C 0.66539 0.39272 0.48524 0.0
C1006 C 0.67238 0.33798 0.38893 0.0
C1007 C 0.72838 0.3935 0.50077 0.0
H1008 H 0.77165 0.28831 0.42927 0.0
H1009 H 0.80652 0.38911 0.37795 0.0
H1010 H 0.70583 0.31068 0.48757 0.0
H1011 H 0.68755 0.28654 0.44977 0.0
H1012 H 0.72351 0.27525 0.47092 0.0
H1013 H 0.78037 0.43607 0.39136 0.0
H1014 H 0.7325 0.41534 0.38753 0.0
H1015 H 0.7499 0.43227 0.42833 0.0
H1016 H 0.61763 0.36222 0.41373 0.0
H1017 H 0.66329 0.40608 0.50956 0.0
H1018 H 0.68026 0.31318 0.393 0.0
H1019 H 0.69338 0.35525 0.37162 0.0
H1020 H 0.64612 0.33078 0.37583 0.0
H1021 H 0.73724 0.36968 0.50669 0.0
H1022 H 0.72116 0.40536 0.52521 0.0
H1023 H 0.75188 0.41317 0.48827 0.0
loop_
_geom_bond_atom_site_label_1
_geom_bond_atom_site_label_2
_geom_bond_distance
_geom_bond_site_symmetry_2
_ccdc_geom_bond_type
H0 C5 0.930 . S
H1 C8 0.930 . S
H2 C10 0.930 . S
H3 C4 1.016 . S
C4 H3 1.016 . S
C4 N11 1.286 . S
C5 H0 0.930 . S
C5 C6 1.397 . S
C5 C7 1.361 . S
C6 C5 1.397 . S
C6 C10 1.390 . S
C7 C5 1.361 . S
C7 C8 1.393 . S
C7 N11 1.413 . S
C8 H1 0.930 . S
C8 C7 1.393 . S
C8 C9 1.399 . S
C9 C8 1.399 . S
C9 C10 1.381 . S
C10 H2 0.930 . S
C10 C6 1.390 . S
C10 C9 1.381 . S
N11 C4 1.286 . S
N11 C7 1.413 . S
H12 C17 0.930 . S
H13 C20 0.930 . S
H14 C22 0.930 . S
H15 C16 1.016 . S
C16 H15 1.016 . S
C16 N23 1.286 . S
C17 H12 0.930 . S
C17 C18 1.397 . S
C17 C19 1.361 . S
C18 C17 1.397 . S
C18 C22 1.390 . S
C19 C17 1.361 . S
C19 C20 1.393 . S
C19 N23 1.413 . S
C20 H13 0.930 . S
C20 C19 1.393 . S
C20 C21 1.399 . S
C21 C20 1.399 . S
C21 C22 1.381 . S
C22 H14 0.930 . S
C22 C18 1.390 . S
C22 C21 1.381 . S
N23 C16 1.286 . S
N23 C19 1.413 . S
H24 C29 0.930 . S
H25 C32 0.930 . S
H26 C34 0.930 . S
H27 C28 1.016 . S
C28 H27 1.016 . S
C28 N35 1.286 . S
C29 H24 0.930 . S
C29 C30 1.397 . S
C29 C31 1.361 . S
C30 C29 1.397 . S
C30 C34 1.390 . S
C31 C29 1.361 . S
C31 C32 1.393 . S
C31 N35 1.413 . S
C32 H25 0.930 . S
C32 C31 1.393 . S
C32 C33 1.399 . S
C33 C32 1.399 . S
C33 C34 1.381 . S
C34 H26 0.930 . S
C34 C30 1.390 . S
C34 C33 1.381 . S
N35 C28 1.286 . S
N35 C31 1.413 . S
H36 C41 0.930 . S
H37 C44 0.930 . S
H38 C46 0.930 . S
H39 C40 1.016 . S
C40 H39 1.016 . S
C40 N47 1.286 . S
C41 H36 0.930 . S
C41 C42 1.397 . S
C41 C43 1.361 . S
C42 C41 1.397 . S
C42 C46 1.390 . S
C43 C41 1.361 . S
C43 C44 1.393 . S
C43 N47 1.413 . S
C44 H37 0.930 . S
C44 C43 1.393 . S
C44 C45 1.399 . S
C45 C44 1.399 . S
C45 C46 1.381 . S
C46 H38 0.930 . S
C46 C42 1.390 . S
C46 C45 1.381 . S
N47 C40 1.286 . S
N47 C43 1.413 . S
H48 C53 0.930 . S
H49 C56 0.930 . S
H50 C58 0.930 . S
H51 C52 1.016 . S
C52 H51 1.016 . S
C52 N59 1.286 . S
C53 H48 0.930 . S
C53 C54 1.397 . S
C53 C55 1.361 . S
C54 C53 1.397 . S
C54 C58 1.390 . S
C55 C53 1.361 . S
C55 C56 1.393 . S
C55 N59 1.413 . S
C56 H49 0.930 . S
C56 C55 1.393 . S
C56 C57 1.399 . S
C57 C56 1.399 . S
C57 C58 1.381 . S
C58 H50 0.930 . S
C58 C54 1.390 . S
C58 C57 1.381 . S
N59 C52 1.286 . S
N59 C55 1.413 . S
H60 C65 0.930 . S
H61 C68 0.930 . S
H62 C70 0.930 . S
H63 C64 1.016 . S
C64 H63 1.016 . S
C64 N71 1.286 . S
C65 H60 0.930 . S
C65 C66 1.397 . S
C65 C67 1.361 . S
C66 C65 1.397 . S
C66 C70 1.390 . S
C67 C65 1.361 . S
C67 C68 1.393 . S
C67 N71 1.413 . S
C68 H61 0.930 . S
C68 C67 1.393 . S
C68 C69 1.399 . S
C69 C68 1.399 . S
C69 C70 1.381 . S
C70 H62 0.930 . S
C70 C66 1.390 . S
C70 C69 1.381 . S
N71 C64 1.286 . S
N71 C67 1.413 . S
H72 C77 0.930 . S
H73 C80 0.930 . S
H74 C82 0.930 . S
H75 C76 1.016 . S
C76 H75 1.016 . S
C76 N83 1.286 . S
C77 H72 0.930 . S
C77 C78 1.397 . S
C77 C79 1.361 . S
C78 C77 1.397 . S
C78 C82 1.390 . S
C79 C77 1.361 . S
C79 C80 1.393 . S
C79 N83 1.413 . S
C80 H73 0.930 . S
C80 C79 1.393 . S
C80 C81 1.399 . S
C81 C80 1.399 . S
C81 C82 1.381 . S
C82 H74 0.930 . S
C82 C78 1.390 . S
C82 C81 1.381 . S
N83 C76 1.286 . S
N83 C79 1.413 . S
H84 C89 0.930 . S
H85 C92 0.930 . S
H86 C94 0.930 . S
H87 C88 1.016 . S
C88 H87 1.016 . S
C88 N95 1.286 . S
C89 H84 0.930 . S
C89 C90 1.397 . S
C89 C91 1.361 . S
C90 C89 1.397 . S
C90 C94 1.390 . S
C91 C89 1.361 . S
C91 C92 1.393 . S
C91 N95 1.413 . S
C92 H85 0.930 . S
C92 C91 1.393 . S
C92 C93 1.399 . S
C93 C92 1.399 . S
C93 C94 1.381 . S
C94 H86 0.930 . S
C94 C90 1.390 . S
C94 C93 1.381 . S
N95 C88 1.286 . S
N95 C91 1.413 . S
Tb96 C105 2.764 . S
Tb96 O106 2.315 1_455 S
Tb96 O109 2.303 . S
Tb96 O113 2.322 1_545 S
Tb96 O114 2.349 1_545 S
Tb96 O117 2.415 . S
Tb96 O118 2.399 . S
Tb97 O107 2.309 1_565 S
Tb97 O108 2.336 1_565 S
Tb97 O110 2.431 . S
Tb97 O111 2.402 . S
Tb97 O112 2.337 1_655 S
Tb97 O115 2.314 . S
Tb97 C126 2.774 . S
C98 O114 1.261 1_655 S
C98 O115 1.257 . S
C99 C102 1.358 . S
C99 C103 1.332 . S
C99 C105 1.504 . S
C100 C101 1.373 . S
C100 C104 1.308 . S
C101 C100 1.373 . S
C101 C102 1.429 . S
C101 H128 0.932 . S
C102 C99 1.358 . S
C102 C101 1.429 . S
C102 H129 0.930 . S
C103 C99 1.332 . S
C103 C104 1.394 . S
C103 H130 0.932 . S
C104 C100 1.308 . S
C104 C103 1.394 . S
C104 H131 0.929 . S
C105 Tb96 2.764 . S
C105 C99 1.504 . S
C105 O117 1.239 . S
C105 O118 1.263 . S
O106 Tb96 2.315 1_655 S
O106 C116 1.245 . S
O107 Tb97 2.309 1_545 S
O107 C116 1.257 . S
O108 Tb97 2.336 1_545 S
O108 C119 1.261 1_655 S
O109 Tb96 2.303 . S
O109 C119 1.257 . S
O110 Tb97 2.431 . S
O110 C126 1.239 . S
O111 Tb97 2.402 . S
O111 C126 1.263 . S
O112 Tb97 2.337 1_455 S
O112 C127 1.236 . S
O113 Tb96 2.322 1_565 S
O113 C127 1.257 . S
O114 Tb96 2.349 1_565 S
O114 C98 1.261 1_455 S
O115 Tb97 2.314 . S
O115 C98 1.257 . S
C116 O106 1.245 . S
C116 O107 1.257 . S
O117 Tb96 2.415 . S
O117 C105 1.239 . S
O118 Tb96 2.399 . S
O118 C105 1.263 . S
C119 O108 1.261 1_455 S
C119 O109 1.257 . S
C120 C123 1.358 . S
C120 C124 1.332 . S
C120 C126 1.504 . S
C121 C122 1.373 . S
C121 C125 1.308 . S
C122 C121 1.373 . S
C122 C123 1.429 . S
C122 H132 0.932 . S
C123 C120 1.358 . S
C123 C122 1.429 . S
C123 H133 0.930 . S
C124 C120 1.332 . S
C124 C125 1.394 . S
C124 H134 0.932 . S
C125 C121 1.308 . S
C125 C124 1.394 . S
C125 H135 0.929 . S
C126 Tb97 2.774 . S
C126 O110 1.239 . S
C126 O111 1.263 . S
C126 C120 1.504 . S
C127 O112 1.236 . S
C127 O113 1.257 . S
H128 C101 0.932 . S
H129 C102 0.930 . S
H130 C103 0.932 . S
H131 C104 0.929 . S
H132 C122 0.932 . S
H133 C123 0.930 . S
H134 C124 0.932 . S
H135 C125 0.929 . S
Tb136 C145 2.764 . S
Tb136 O146 2.325 . S
Tb136 O149 2.303 . S
Tb136 O153 2.322 1_545 S
Tb136 O154 2.349 1_545 S
Tb136 O157 2.415 . S
Tb136 O158 2.399 . S
Tb137 O147 2.322 . S
Tb137 O148 2.349 1_556 S
Tb137 O150 2.415 1_545 S
Tb137 O151 2.399 1_545 S
Tb137 O152 2.325 1_546 S
Tb137 O155 2.303 1_545 S
Tb137 C166 2.764 1_545 S
C138 O154 1.261 1_556 S
C138 O155 1.257 . S
C139 C142 1.358 . S
C139 C143 1.332 . S
C139 C145 1.504 . S
C140 C141 1.373 . S
C140 C144 1.308 . S
C141 C140 1.373 . S
C141 C142 1.429 . S
C141 H168 0.932 . S
C142 C139 1.358 . S
C142 C141 1.429 . S
C142 H169 0.930 . S
C143 C139 1.332 . S
C143 C144 1.394 . S
C143 H170 0.932 . S
C144 C140 1.308 . S
C144 C143 1.394 . S
C144 H171 0.929 . S
C145 Tb136 2.764 . S
C145 C139 1.504 . S
C145 O157 1.239 . S
C145 O158 1.263 . S
O146 Tb136 2.325 . S
O146 C156 1.236 1_554 S
O147 Tb137 2.322 . S
O147 C156 1.257 . S
O148 Tb137 2.349 1_554 S
O148 C159 1.261 . S
O149 Tb136 2.303 . S
O149 C159 1.257 . S
O150 Tb137 2.415 1_565 S
O150 C166 1.239 . S
O151 Tb137 2.399 1_565 S
O151 C166 1.263 . S
O152 Tb137 2.325 1_564 S
O152 C167 1.236 . S
O153 Tb136 2.322 1_565 S
O153 C167 1.257 . S
O154 Tb136 2.349 1_565 S
O154 C138 1.261 1_554 S
O155 Tb137 2.303 1_565 S
O155 C138 1.257 . S
C156 O146 1.236 1_556 S
C156 O147 1.257 . S
O157 Tb136 2.415 . S
O157 C145 1.239 . S
O158 Tb136 2.399 . S
O158 C145 1.263 . S
C159 O148 1.261 . S
C159 O149 1.257 . S
C160 C163 1.358 . S
C160 C164 1.332 . S
C160 C166 1.504 . S
C161 C162 1.373 . S
C161 C165 1.308 . S
C162 C161 1.373 . S
C162 C163 1.429 . S
C162 H172 0.932 . S
C163 C160 1.358 . S
C163 C162 1.429 . S
C163 H173 0.930 . S
C164 C160 1.332 . S
C164 C165 1.394 . S
C164 H174 0.932 . S
C165 C161 1.308 . S
C165 C164 1.394 . S
C165 H175 0.929 . S
C166 Tb137 2.764 1_565 S
C166 O150 1.239 . S
C166 O151 1.263 . S
C166 C160 1.504 . S
C167 O152 1.236 . S
C167 O153 1.257 . S
H168 C141 0.932 . S
H169 C142 0.930 . S
H170 C143 0.932 . S
H171 C144 0.929 . S
H172 C162 0.932 . S
H173 C163 0.930 . S
H174 C164 0.932 . S
H175 C165 0.929 . S
Tb176 C185 2.764 . S
Tb176 O186 2.325 . S
Tb176 O189 2.303 . S
Tb176 O193 2.322 . S
Tb176 O194 2.349 . S
Tb176 O197 2.415 . S
Tb176 O198 2.399 . S
Tb177 O187 2.322 . S
Tb177 O188 2.349 . S
Tb177 O190 2.415 . S
Tb177 O191 2.399 . S
Tb177 O192 2.325 . S
Tb177 O195 2.303 . S
Tb177 C206 2.764 . S
C178 O194 1.261 . S
C178 O195 1.257 . S
C179 C182 1.358 . S
C179 C183 1.332 . S
C179 C185 1.504 . S
C180 C181 1.373 . S
C180 C184 1.308 . S
C181 C180 1.373 . S
C181 C182 1.429 . S
C181 H208 0.932 . S
C182 C179 1.358 . S
C182 C181 1.429 . S
C182 H209 0.930 . S
C183 C179 1.332 . S
C183 C184 1.394 . S
C183 H210 0.932 . S
C184 C180 1.308 . S
C184 C183 1.394 . S
C184 H211 0.929 . S
C185 Tb176 2.764 . S
C185 C179 1.504 . S
C185 O197 1.239 . S
C185 O198 1.263 . S
O186 Tb176 2.325 . S
O186 C196 1.236 . S
O187 Tb177 2.322 . S
O187 C196 1.257 . S
O188 Tb177 2.349 . S
O188 C199 1.261 . S
O189 Tb176 2.303 . S
O189 C199 1.257 . S
O190 Tb177 2.415 . S
O190 C206 1.239 . S
O191 Tb177 2.399 . S
O191 C206 1.263 . S
O192 Tb177 2.325 . S
O192 C207 1.236 . S
O193 Tb176 2.322 . S
O193 C207 1.257 . S
O194 Tb176 2.349 . S
O194 C178 1.261 . S
O195 Tb177 2.303 . S
O195 C178 1.257 . S
C196 O186 1.236 . S
C196 O187 1.257 . S
O197 Tb176 2.415 . S
O197 C185 1.239 . S
O198 Tb176 2.399 . S
O198 C185 1.263 . S
C199 O188 1.261 . S
C199 O189 1.257 . S
C200 C203 1.358 . S
C200 C204 1.332 . S
C200 C206 1.504 . S
C201 C202 1.373 . S
C201 C205 1.308 . S
C202 C201 1.373 . S
C202 C203 1.429 . S
C202 H212 0.932 . S
C203 C200 1.358 . S
C203 C202 1.429 . S
C203 H213 0.930 . S
C204 C200 1.332 . S
C204 C205 1.394 . S
C204 H214 0.932 . S
C205 C201 1.308 . S
C205 C204 1.394 . S
C205 H215 0.929 . S
C206 Tb177 2.764 . S
C206 O190 1.239 . S
C206 O191 1.263 . S
C206 C200 1.504 . S
C207 O192 1.236 . S
C207 O193 1.257 . S
H208 C181 0.932 . S
H209 C182 0.930 . S
H210 C183 0.932 . S
H211 C184 0.929 . S
H212 C202 0.932 . S
H213 C203 0.930 . S
H214 C204 0.932 . S
H215 C205 0.929 . S
Tb216 C225 2.764 1_455 S
Tb216 O226 2.325 1_455 S
Tb216 O229 2.303 1_456 S
Tb216 O233 2.322 1_556 S
Tb216 O234 2.349 . S
Tb216 O237 2.415 1_455 S
Tb216 O238 2.399 1_455 S
Tb217 O227 2.322 1_455 S
Tb217 O228 2.349 1_455 S
Tb217 O230 2.415 . S
Tb217 O231 2.399 . S
Tb217 O232 2.325 . S
Tb217 O235 2.303 1_554 S
Tb217 C246 2.764 . S
C218 O234 1.261 . S
C218 O235 1.257 . S
C219 C222 1.358 . S
C219 C223 1.332 . S
C219 C225 1.504 . S
C220 C221 1.373 . S
C220 C224 1.308 . S
C221 C220 1.373 . S
C221 C222 1.429 . S
C221 H248 0.932 . S
C222 C219 1.358 . S
C222 C221 1.429 . S
C222 H249 0.930 . S
C223 C219 1.332 . S
C223 C224 1.394 . S
C223 H250 0.932 . S
C224 C220 1.308 . S
C224 C223 1.394 . S
C224 H251 0.929 . S
C225 Tb216 2.764 1_655 S
C225 C219 1.504 . S
C225 O237 1.239 . S
C225 O238 1.263 . S
O226 Tb216 2.325 1_655 S
O226 C236 1.236 . S
O227 Tb217 2.322 1_655 S
O227 C236 1.257 1_554 S
O228 Tb217 2.349 1_655 S
O228 C239 1.261 . S
O229 Tb216 2.303 1_654 S
O229 C239 1.257 . S
O230 Tb217 2.415 . S
O230 C246 1.239 . S
O231 Tb217 2.399 . S
O231 C246 1.263 . S
O232 Tb217 2.325 . S
O232 C247 1.236 . S
O233 Tb216 2.322 1_554 S
O233 C247 1.257 . S
O234 Tb216 2.349 . S
O234 C218 1.261 . S
O235 Tb217 2.303 1_556 S
O235 C218 1.257 . S
C236 O226 1.236 . S
C236 O227 1.257 1_556 S
O237 Tb216 2.415 1_655 S
O237 C225 1.239 . S
O238 Tb216 2.399 1_655 S
O238 C225 1.263 . S
C239 O228 1.261 . S
C239 O229 1.257 . S
C240 C243 1.358 . S
C240 C244 1.332 . S
C240 C246 1.504 . S
C241 C242 1.373 . S
C241 C245 1.308 . S
C242 C241 1.373 . S
C242 C243 1.429 . S
C242 H252 0.932 . S
C243 C240 1.358 . S
C243 C242 1.429 . S
C243 H253 0.930 . S
C244 C240 1.332 . S
C244 C245 1.394 . S
C244 H254 0.932 . S
C245 C241 1.308 . S
C245 C244 1.394 . S
C245 H255 0.929 . S
C246 Tb217 2.764 . S
C246 O230 1.239 . S
C246 O231 1.263 . S
C246 C240 1.504 . S
C247 O232 1.236 . S
C247 O233 1.257 . S
H248 C221 0.932 . S
H249 C222 0.930 . S
H250 C223 0.932 . S
H251 C224 0.929 . S
H252 C242 0.932 . S
H253 C243 0.930 . S
H254 C244 0.932 . S
H255 C245 0.929 . S
C256 C257 1.391 . S
C256 C258 1.394 . S
C256 H272 0.931 . S
C257 C256 1.391 . S
C257 C261 1.376 . S
C258 C256 1.394 . S
C258 C259 1.369 . S
C258 C262 1.531 . S
C259 C258 1.369 . S
C259 C260 1.410 . S
C259 C267 1.503 . S
C260 C259 1.410 . S
C260 C261 1.392 . S
C260 C263 1.511 . S
C261 C257 1.376 . S
C261 C260 1.392 . S
C261 H273 0.929 . S
C262 C258 1.531 . S
C262 H274 0.960 . S
C262 H275 0.962 . S
C262 H276 0.960 . S
C263 C260 1.511 . S
C263 H277 0.961 . S
C263 H278 0.961 . S
C263 H279 0.961 . S
C264 C265 1.370 . S
C264 C266 1.363 . S
C264 H280 0.931 . S
C265 C264 1.370 . S
C265 C269 1.408 . S
C266 C264 1.363 . S
C266 C267 1.370 . S
C266 C270 1.524 . S
C267 C259 1.503 . S
C267 C266 1.370 . S
C267 C268 1.403 . S
C268 C267 1.403 . S
C268 C269 1.404 . S
C268 C271 1.539 . S
C269 C265 1.408 . S
C269 C268 1.404 . S
C269 H281 0.930 . S
C270 C266 1.524 . S
C270 H282 0.956 . S
C270 H283 0.961 . S
C270 H284 0.961 . S
C271 C268 1.539 . S
C271 H285 0.958 . S
C271 H286 0.961 . S
C271 H287 0.960 . S
H272 C256 0.931 . S
H273 C261 0.929 . S
H274 C262 0.960 . S
H275 C262 0.962 . S
H276 C262 0.960 . S
H277 C263 0.961 . S
H278 C263 0.961 . S
H279 C263 0.961 . S
H280 C264 0.931 . S
H281 C269 0.930 . S
H282 C270 0.956 . S
H283 C270 0.961 . S
H284 C270 0.961 . S
H285 C271 0.958 . S
H286 C271 0.961 . S
H287 C271 0.960 . S
C288 C289 1.391 . S
C288 C290 1.394 . S
C288 H304 0.931 . S
C289 C288 1.391 . S
C289 C293 1.376 . S
C290 C288 1.394 . S
C290 C291 1.369 . S
C290 C294 1.531 . S
C291 C290 1.369 . S
C291 C292 1.410 . S
C291 C299 1.503 . S
C292 C291 1.410 . S
C292 C293 1.392 . S
C292 C295 1.511 . S
C293 C289 1.376 . S
C293 C292 1.392 . S
C293 H305 0.929 . S
C294 C290 1.531 . S
C294 H306 0.960 . S
C294 H307 0.962 . S
C294 H308 0.960 . S
C295 C292 1.511 . S
C295 H309 0.961 . S
C295 H310 0.961 . S
C295 H311 0.961 . S
C296 C297 1.370 . S
C296 C298 1.363 . S
C296 H312 0.931 . S
C297 C296 1.370 . S
C297 C301 1.408 . S
C298 C296 1.363 . S
C298 C299 1.370 . S
C298 C302 1.524 . S
C299 C291 1.503 . S
C299 C298 1.370 . S
C299 C300 1.403 . S
C300 C299 1.403 . S
C300 C301 1.404 . S
C300 C303 1.539 . S
C301 C297 1.408 . S
C301 C300 1.404 . S
C301 H313 0.930 . S
C302 C298 1.524 . S
C302 H314 0.956 . S
C302 H315 0.961 . S
C302 H316 0.961 . S
C303 C300 1.539 . S
C303 H317 0.958 . S
C303 H318 0.961 . S
C303 H319 0.960 . S
H304 C288 0.931 . S
H305 C293 0.929 . S
H306 C294 0.960 . S
H307 C294 0.962 . S
H308 C294 0.960 . S
H309 C295 0.961 . S
H310 C295 0.961 . S
H311 C295 0.961 . S
H312 C296 0.931 . S
H313 C301 0.930 . S
H314 C302 0.956 . S
H315 C302 0.961 . S
H316 C302 0.961 . S
H317 C303 0.958 . S
H318 C303 0.961 . S
H319 C303 0.960 . S
C320 C321 1.391 . S
C320 C322 1.394 . S
C320 H336 0.931 . S
C321 C320 1.391 . S
C321 C325 1.376 . S
C322 C320 1.394 . S
C322 C323 1.369 . S
C322 C326 1.531 . S
C323 C322 1.369 . S
C323 C324 1.410 . S
C323 C331 1.503 . S
C324 C323 1.410 . S
C324 C325 1.392 . S
C324 C327 1.511 . S
C325 C321 1.376 . S
C325 C324 1.392 . S
C325 H337 0.929 . S
C326 C322 1.531 . S
C326 H338 0.960 . S
C326 H339 0.962 . S
C326 H340 0.960 . S
C327 C324 1.511 . S
C327 H341 0.961 . S
C327 H342 0.961 . S
C327 H343 0.961 . S
C328 C329 1.370 . S
C328 C330 1.363 . S
C328 H344 0.931 . S
C329 C328 1.370 . S
C329 C333 1.408 . S
C330 C328 1.363 . S
C330 C331 1.370 . S
C330 C334 1.524 . S
C331 C323 1.503 . S
C331 C330 1.370 . S
C331 C332 1.403 . S
C332 C331 1.403 . S
C332 C333 1.404 . S
C332 C335 1.539 . S
C333 C329 1.408 . S
C333 C332 1.404 . S
C333 H345 0.930 . S
C334 C330 1.524 . S
C334 H346 0.956 . S
C334 H347 0.961 . S
C334 H348 0.961 . S
C335 C332 1.539 . S
C335 H349 0.958 . S
C335 H350 0.961 . S
C335 H351 0.960 . S
H336 C320 0.931 . S
H337 C325 0.929 . S
H338 C326 0.960 . S
H339 C326 0.962 . S
H340 C326 0.960 . S
H341 C327 0.961 . S
H342 C327 0.961 . S
H343 C327 0.961 . S
H344 C328 0.931 . S
H345 C333 0.930 . S
H346 C334 0.956 . S
H347 C334 0.961 . S
H348 C334 0.961 . S
H349 C335 0.958 . S
H350 C335 0.961 . S
H351 C335 0.960 . S
C352 C353 1.391 . S
C352 C354 1.394 . S
C352 H368 0.931 . S
C353 C352 1.391 . S
C353 C357 1.376 . S
C354 C352 1.394 . S
C354 C355 1.369 . S
C354 C358 1.531 . S
C355 C354 1.369 . S
C355 C356 1.410 . S
C355 C363 1.503 . S
C356 C355 1.410 . S
C356 C357 1.392 . S
C356 C359 1.511 . S
C357 C353 1.376 . S
C357 C356 1.392 . S
C357 H369 0.929 . S
C358 C354 1.531 . S
C358 H370 0.960 . S
C358 H371 0.962 . S
C358 H372 0.960 . S
C359 C356 1.511 . S
C359 H373 0.961 . S
C359 H374 0.961 . S
C359 H375 0.961 . S
C360 C361 1.370 . S
C360 C362 1.363 . S
C360 H376 0.931 1_655 S
C361 C360 1.370 . S
C361 C365 1.408 . S
C362 C360 1.363 . S
C362 C363 1.370 . S
C362 C366 1.524 . S
C363 C355 1.503 . S
C363 C362 1.370 . S
C363 C364 1.403 . S
C364 C363 1.403 . S
C364 C365 1.404 . S
C364 C367 1.539 . S
C365 C361 1.408 . S
C365 C364 1.404 . S
C365 H377 0.930 . S
C366 C362 1.524 . S
C366 H378 0.956 . S
C366 H379 0.961 . S
C366 H380 0.961 1_655 S
C367 C364 1.539 . S
C367 H381 0.958 . S
C367 H382 0.961 . S
C367 H383 0.960 . S
H368 C352 0.931 . S
H369 C357 0.929 . S
H370 C358 0.960 . S
H371 C358 0.962 . S
H372 C358 0.960 . S
H373 C359 0.961 . S
H374 C359 0.961 . S
H375 C359 0.961 . S
H376 C360 0.931 1_455 S
H377 C365 0.930 . S
H378 C366 0.956 . S
H379 C366 0.961 . S
H380 C366 0.961 1_455 S
H381 C367 0.958 . S
H382 C367 0.961 . S
H383 C367 0.960 . S
C384 C385 1.391 . S
C384 C386 1.394 . S
C384 H400 0.931 . S
C385 C384 1.391 . S
C385 C389 1.376 . S
C386 C384 1.394 . S
C386 C387 1.369 . S
C386 C390 1.531 . S
C387 C386 1.369 . S
C387 C388 1.410 . S
C387 C395 1.503 . S
C388 C387 1.410 . S
C388 C389 1.392 . S
C388 C391 1.511 . S
C389 C385 1.376 . S
C389 C388 1.392 . S
C389 H401 0.929 . S
C390 C386 1.531 . S
C390 H402 0.960 . S
C390 H403 0.962 . S
C390 H404 0.960 . S
C391 C388 1.511 . S
C391 H405 0.961 . S
C391 H406 0.961 . S
C391 H407 0.961 . S
C392 C393 1.370 . S
C392 C394 1.363 . S
C392 H408 0.931 . S
C393 C392 1.370 . S
C393 C397 1.408 . S
C394 C392 1.363 . S
C394 C395 1.370 . S
C394 C398 1.524 . S
C395 C387 1.503 . S
C395 C394 1.370 . S
C395 C396 1.403 . S
C396 C395 1.403 . S
C396 C397 1.404 . S
C396 C399 1.539 . S
C397 C393 1.408 . S
C397 C396 1.404 . S
C397 H409 0.930 . S
C398 C394 1.524 . S
C398 H410 0.956 . S
C398 H411 0.961 . S
C398 H412 0.961 . S
C399 C396 1.539 . S
C399 H413 0.958 . S
C399 H414 0.961 . S
C399 H415 0.960 . S
H400 C384 0.931 . S
H401 C389 0.929 . S
H402 C390 0.960 . S
H403 C390 0.962 . S
H404 C390 0.960 . S
H405 C391 0.961 . S
H406 C391 0.961 . S
H407 C391 0.961 . S
H408 C392 0.931 . S
H409 C397 0.930 . S
H410 C398 0.956 . S
H411 C398 0.961 . S
H412 C398 0.961 . S
H413 C399 0.958 . S
H414 C399 0.961 . S
H415 C399 0.960 . S
C416 C417 1.391 . S
C416 C418 1.394 . S
C416 H432 0.931 . S
C417 C416 1.391 . S
C417 C421 1.376 . S
C418 C416 1.394 . S
C418 C419 1.369 . S
C418 C422 1.506 1_455 S
C419 C418 1.369 . S
C419 C420 1.410 . S
C419 C427 1.503 . S
C420 C419 1.410 . S
C420 C421 1.392 . S
C420 C423 1.511 . S
C421 C417 1.376 . S
C421 C420 1.392 . S
C421 H433 0.929 . S
C422 C418 1.506 1_655 S
C422 H434 0.980 . S
C422 H435 0.952 1_655 S
C422 H436 0.976 . S
C423 C420 1.511 . S
C423 H437 0.961 . S
C423 H438 0.961 . S
C423 H439 0.961 . S
C424 C425 1.370 . S
C424 C426 1.363 . S
C424 H440 0.931 . S
C425 C424 1.370 . S
C425 C429 1.408 . S
C426 C424 1.363 . S
C426 C427 1.370 . S
C426 C430 1.524 . S
C427 C419 1.503 . S
C427 C426 1.370 . S
C427 C428 1.403 . S
C428 C427 1.403 . S
C428 C429 1.404 . S
C428 C431 1.537 1_455 S
C429 C425 1.408 . S
C429 C428 1.404 . S
C429 H441 0.930 1_455 S
C430 C426 1.524 . S
C430 H442 0.956 . S
C430 H443 0.961 . S
C430 H444 0.961 . S
C431 C428 1.537 1_655 S
C431 H445 0.963 . S
C431 H446 0.963 . S
C431 H447 0.955 1_655 S
H432 C416 0.931 . S
H433 C421 0.929 . S
H434 C422 0.980 . S
H435 C422 0.952 1_455 S
H436 C422 0.976 . S
H437 C423 0.961 . S
H438 C423 0.961 . S
H439 C423 0.961 . S
H440 C424 0.931 . S
H441 C429 0.930 1_655 S
H442 C430 0.956 . S
H443 C430 0.961 . S
H444 C430 0.961 . S
H445 C431 0.963 . S
H446 C431 0.963 . S
H447 C431 0.955 1_455 S
C448 C449 1.391 . S
C448 C450 1.394 . S
C448 H464 0.931 . S
C449 C448 1.391 . S
C449 C453 1.376 . S
C450 C448 1.394 . S
C450 C451 1.369 . S
C450 C454 1.531 . S
C451 C450 1.369 . S
C451 C452 1.410 . S
C451 C459 1.503 . S
C452 C451 1.410 . S
C452 C453 1.392 . S
C452 C455 1.511 . S
C453 C449 1.376 . S
C453 C452 1.392 . S
C453 H465 0.929 . S
C454 C450 1.531 . S
C454 H466 0.960 . S
C454 H467 0.962 . S
C454 H468 0.960 . S
C455 C452 1.511 . S
C455 H469 0.961 . S
C455 H470 0.961 . S
C455 H471 0.961 . S
C456 C457 1.370 . S
C456 C458 1.363 . S
C456 H472 0.931 . S
C457 C456 1.370 . S
C457 C461 1.408 . S
C458 C456 1.363 . S
C458 C459 1.370 . S
C458 C462 1.524 . S
C459 C451 1.503 . S
C459 C458 1.370 . S
C459 C460 1.403 . S
C460 C459 1.403 . S
C460 C461 1.404 . S
C460 C463 1.539 . S
C461 C457 1.408 . S
C461 C460 1.404 . S
C461 H473 0.930 . S
C462 C458 1.524 . S
C462 H474 0.956 . S
C462 H475 0.961 . S
C462 H476 0.961 . S
C463 C460 1.539 . S
C463 H477 0.958 . S
C463 H478 0.961 . S
C463 H479 0.960 . S
H464 C448 0.931 . S
H465 C453 0.929 . S
H466 C454 0.960 . S
H467 C454 0.962 . S
H468 C454 0.960 . S
H469 C455 0.961 . S
H470 C455 0.961 . S
H471 C455 0.961 . S
H472 C456 0.931 . S
H473 C461 0.930 . S
H474 C462 0.956 . S
H475 C462 0.961 . S
H476 C462 0.961 . S
H477 C463 0.958 . S
H478 C463 0.961 . S
H479 C463 0.960 . S
C480 C481 1.391 . S
C480 C482 1.394 . S
C480 H496 0.931 . S
C481 C480 1.391 . S
C481 C485 1.376 . S
C482 C480 1.394 . S
C482 C483 1.369 . S
C482 C486 1.531 . S
C483 C482 1.369 . S
C483 C484 1.410 . S
C483 C491 1.503 . S
C484 C483 1.410 . S
C484 C485 1.392 . S
C484 C487 1.511 . S
C485 C481 1.376 . S
C485 C484 1.392 . S
C485 H497 0.929 . S
C486 C482 1.531 . S
C486 H498 0.960 . S
C486 H499 0.962 . S
C486 H500 0.960 . S
C487 C484 1.511 . S
C487 H501 0.961 . S
C487 H502 0.961 . S
C487 H503 0.961 . S
C488 C489 1.370 . S
C488 C490 1.363 . S
C488 H504 0.931 . S
C489 C488 1.370 . S
C489 C493 1.408 . S
C490 C488 1.363 . S
C490 C491 1.370 . S
C490 C494 1.524 . S
C491 C483 1.503 . S
C491 C490 1.370 . S
C491 C492 1.403 . S
C492 C491 1.403 . S
C492 C493 1.404 . S
C492 C495 1.539 . S
C493 C489 1.408 . S
C493 C492 1.404 . S
C493 H505 0.930 . S
C494 C490 1.524 . S
C494 H506 0.956 . S
C494 H507 0.961 . S
C494 H508 0.961 . S
C495 C492 1.539 . S
C495 H509 0.958 . S
C495 H510 0.961 . S
C495 H511 0.960 . S
H496 C480 0.931 . S
H497 C485 0.929 . S
H498 C486 0.960 . S
H499 C486 0.962 . S
H500 C486 0.960 . S
H501 C487 0.961 . S
H502 C487 0.961 . S
H503 C487 0.961 . S
H504 C488 0.931 . S
H505 C493 0.930 . S
H506 C494 0.956 . S
H507 C494 0.961 . S
H508 C494 0.961 . S
H509 C495 0.958 . S
H510 C495 0.961 . S
H511 C495 0.960 . S
C512 C513 1.391 . S
C512 C514 1.394 . S
C512 H528 0.931 . S
C513 C512 1.391 . S
C513 C517 1.376 . S
C514 C512 1.394 . S
C514 C515 1.369 . S
C514 C518 1.531 . S
C515 C514 1.369 . S
C515 C516 1.410 . S
C515 C523 1.503 . S
C516 C515 1.410 . S
C516 C517 1.392 . S
C516 C519 1.511 . S
C517 C513 1.376 . S
C517 C516 1.392 . S
C517 H529 0.929 . S
C518 C514 1.531 . S
C518 H530 0.960 . S
C518 H531 0.962 . S
C518 H532 0.960 . S
C519 C516 1.511 . S
C519 H533 0.961 . S
C519 H534 0.961 . S
C519 H535 0.961 . S
C520 C521 1.370 . S
C520 C522 1.363 . S
C520 H536 0.931 . S
C521 C520 1.370 . S
C521 C525 1.408 . S
C522 C520 1.363 . S
C522 C523 1.370 . S
C522 C526 1.524 . S
C523 C515 1.503 . S
C523 C522 1.370 . S
C523 C524 1.403 . S
C524 C523 1.403 . S
C524 C525 1.404 . S
C524 C527 1.539 . S
C525 C521 1.408 . S
C525 C524 1.404 . S
C525 H537 0.930 . S
C526 C522 1.524 . S
C526 H538 0.956 . S
C526 H539 0.961 . S
C526 H540 0.961 . S
C527 C524 1.539 . S
C527 H541 0.958 . S
C527 H542 0.961 . S
C527 H543 0.960 . S
H528 C512 0.931 . S
H529 C517 0.929 . S
H530 C518 0.960 . S
H531 C518 0.962 . S
H532 C518 0.960 . S
H533 C519 0.961 . S
H534 C519 0.961 . S
H535 C519 0.961 . S
H536 C520 0.931 . S
H537 C525 0.930 . S
H538 C526 0.956 . S
H539 C526 0.961 . S
H540 C526 0.961 . S
H541 C527 0.958 . S
H542 C527 0.961 . S
H543 C527 0.960 . S
C544 C545 1.391 . S
C544 C546 1.394 . S
C544 H560 0.931 . S
C545 C544 1.391 . S
C545 C549 1.376 . S
C546 C544 1.394 . S
C546 C547 1.369 . S
C546 C550 1.531 . S
C547 C546 1.369 . S
C547 C548 1.410 . S
C547 C555 1.503 . S
C548 C547 1.410 . S
C548 C549 1.392 . S
C548 C551 1.511 . S
C549 C545 1.376 . S
C549 C548 1.392 . S
C549 H561 0.929 . S
C550 C546 1.531 . S
C550 H562 0.960 . S
C550 H563 0.962 . S
C550 H564 0.960 . S
C551 C548 1.511 . S
C551 H565 0.961 . S
C551 H566 0.961 . S
C551 H567 0.961 . S
C552 C553 1.370 . S
C552 C554 1.363 . S
C552 H568 0.931 . S
C553 C552 1.370 . S
C553 C557 1.408 . S
C554 C552 1.363 . S
C554 C555 1.370 . S
C554 C558 1.524 . S
C555 C547 1.503 . S
C555 C554 1.370 . S
C555 C556 1.403 . S
C556 C555 1.403 . S
C556 C557 1.404 . S
C556 C559 1.539 . S
C557 C553 1.408 . S
C557 C556 1.404 . S
C557 H569 0.930 1_556 S
C558 C554 1.524 . S
C558 H570 0.956 . S
C558 H571 0.961 . S
C558 H572 0.961 . S
C559 C556 1.539 . S
C559 H573 0.958 1_556 S
C559 H574 0.961 1_556 S
C559 H575 0.960 . S
H560 C544 0.931 . S
H561 C549 0.929 . S
H562 C550 0.960 . S
H563 C550 0.962 . S
H564 C550 0.960 . S
H565 C551 0.961 . S
H566 C551 0.961 . S
H567 C551 0.961 . S
H568 C552 0.931 . S
H569 C557 0.930 1_554 S
H570 C558 0.956 . S
H571 C558 0.961 . S
H572 C558 0.961 . S
H573 C559 0.958 1_554 S
H574 C559 0.961 1_554 S
H575 C559 0.960 . S
C576 C577 1.391 . S
C576 C578 1.394 . S
C576 H592 0.931 . S
C577 C576 1.391 . S
C577 C581 1.376 . S
C578 C576 1.394 . S
C578 C579 1.369 . S
C578 C582 1.531 . S
C579 C578 1.369 . S
C579 C580 1.410 . S
C579 C587 1.503 . S
C580 C579 1.410 . S
C580 C581 1.392 . S
C580 C583 1.511 . S
C581 C577 1.376 . S
C581 C580 1.392 . S
C581 H593 0.929 . S
C582 C578 1.531 . S
C582 H594 0.960 . S
C582 H595 0.962 . S
C582 H596 0.960 . S
C583 C580 1.511 . S
C583 H597 0.961 . S
C583 H598 0.961 . S
C583 H599 0.961 . S
C584 C585 1.370 . S
C584 C586 1.363 . S
C584 H600 0.931 . S
C585 C584 1.370 . S
C585 C589 1.408 . S
C586 C584 1.363 . S
C586 C587 1.370 . S
C586 C590 1.524 . S
C587 C579 1.503 . S
C587 C586 1.370 . S
C587 C588 1.403 . S
C588 C587 1.403 . S
C588 C589 1.404 . S
C588 C591 1.539 . S
C589 C585 1.408 . S
C589 C588 1.404 . S
C589 H601 0.930 . S
C590 C586 1.524 . S
C590 H602 0.956 . S
C590 H603 0.961 . S
C590 H604 0.961 . S
C591 C588 1.539 . S
C591 H605 0.958 . S
C591 H606 0.961 . S
C591 H607 0.960 . S
H592 C576 0.931 . S
H593 C581 0.929 . S
H594 C582 0.960 . S
H595 C582 0.962 . S
H596 C582 0.960 . S
H597 C583 0.961 . S
H598 C583 0.961 . S
H599 C583 0.961 . S
H600 C584 0.931 . S
H601 C589 0.930 . S
H602 C590 0.956 . S
H603 C590 0.961 . S
H604 C590 0.961 . S
H605 C591 0.958 . S
H606 C591 0.961 . S
H607 C591 0.960 . S
C608 C609 1.391 . S
C608 C610 1.394 . S
C608 H624 0.931 . S
C609 C608 1.391 . S
C609 C613 1.376 . S
C610 C608 1.394 . S
C610 C611 1.369 . S
C610 C614 1.531 . S
C611 C610 1.369 . S
C611 C612 1.410 . S
C611 C619 1.503 . S
C612 C611 1.410 . S
C612 C613 1.392 . S
C612 C615 1.511 . S
C613 C609 1.376 . S
C613 C612 1.392 . S
C613 H625 0.929 . S
C614 C610 1.531 . S
C614 H626 0.960 . S
C614 H627 0.962 . S
C614 H628 0.960 . S
C615 C612 1.511 . S
C615 H629 0.961 . S
C615 H630 0.961 . S
C615 H631 0.961 . S
C616 C617 1.370 . S
C616 C618 1.363 . S
C616 H632 0.931 . S
C617 C616 1.370 . S
C617 C621 1.408 . S
C618 C616 1.363 . S
C618 C619 1.370 . S
C618 C622 1.524 . S
C619 C611 1.503 . S
C619 C618 1.370 . S
C619 C620 1.403 . S
C620 C619 1.403 . S
C620 C621 1.404 . S
C620 C623 1.539 . S
C621 C617 1.408 . S
C621 C620 1.404 . S
C621 H633 0.930 . S
C622 C618 1.524 . S
C622 H634 0.956 . S
C622 H635 0.961 . S
C622 H636 0.961 . S
C623 C620 1.539 . S
C623 H637 0.958 . S
C623 H638 0.961 . S
C623 H639 0.960 . S
H624 C608 0.931 . S
H625 C613 0.929 . S
H626 C614 0.960 . S
H627 C614 0.962 . S
H628 C614 0.960 . S
H629 C615 0.961 . S
H630 C615 0.961 . S
H631 C615 0.961 . S
H632 C616 0.931 . S
H633 C621 0.930 . S
H634 C622 0.956 . S
H635 C622 0.961 . S
H636 C622 0.961 . S
H637 C623 0.958 . S
H638 C623 0.961 . S
H639 C623 0.960 . S
C640 C641 1.391 . S
C640 C642 1.394 . S
C640 H656 0.931 . S
C641 C640 1.391 . S
C641 C645 1.376 . S
C642 C640 1.394 . S
C642 C643 1.369 . S
C642 C646 1.531 . S
C643 C642 1.369 . S
C643 C644 1.410 . S
C643 C651 1.503 . S
C644 C643 1.410 . S
C644 C645 1.392 . S
C644 C647 1.511 . S
C645 C641 1.376 . S
C645 C644 1.392 . S
C645 H657 0.929 . S
C646 C642 1.531 . S
C646 H658 0.960 . S
C646 H659 0.962 . S
C646 H660 0.960 . S
C647 C644 1.511 . S
C647 H661 0.961 . S
C647 H662 0.961 . S
C647 H663 0.961 . S
C648 C649 1.370 . S
C648 C650 1.363 . S
C648 H664 0.931 . S
C649 C648 1.370 . S
C649 C653 1.408 . S
C650 C648 1.363 . S
C650 C651 1.370 . S
C650 C654 1.524 . S
C651 C643 1.503 . S
C651 C650 1.370 . S
C651 C652 1.403 . S
C652 C651 1.403 . S
C652 C653 1.404 . S
C652 C655 1.539 . S
C653 C649 1.408 . S
C653 C652 1.404 . S
C653 H665 0.930 . S
C654 C650 1.524 . S
C654 H666 0.956 . S
C654 H667 0.961 . S
C654 H668 0.961 . S
C655 C652 1.539 . S
C655 H669 0.958 . S
C655 H670 0.961 . S
C655 H671 0.960 . S
H656 C640 0.931 . S
H657 C645 0.929 . S
H658 C646 0.960 . S
H659 C646 0.962 . S
H660 C646 0.960 . S
H661 C647 0.961 . S
H662 C647 0.961 . S
H663 C647 0.961 . S
H664 C648 0.931 . S
H665 C653 0.930 . S
H666 C654 0.956 . S
H667 C654 0.961 . S
H668 C654 0.961 . S
H669 C655 0.958 . S
H670 C655 0.961 . S
H671 C655 0.960 . S
C672 C673 1.391 . S
C672 C674 1.394 . S
C672 H688 0.931 . S
C673 C672 1.391 . S
C673 C677 1.376 . S
C674 C672 1.394 . S
C674 C675 1.369 . S
C674 C678 1.531 . S
C675 C674 1.369 . S
C675 C676 1.410 . S
C675 C683 1.503 . S
C676 C675 1.410 . S
C676 C677 1.392 . S
C676 C679 1.511 . S
C677 C673 1.376 . S
C677 C676 1.392 . S
C677 H689 0.929 . S
C678 C674 1.531 . S
C678 H690 0.960 . S
C678 H691 0.962 . S
C678 H692 0.960 . S
C679 C676 1.511 . S
C679 H693 0.961 . S
C679 H694 0.961 . S
C679 H695 0.961 . S
C680 C681 1.370 . S
C680 C682 1.363 . S
C680 H696 0.931 . S
C681 C680 1.370 . S
C681 C685 1.408 . S
C682 C680 1.363 . S
C682 C683 1.370 . S
C682 C686 1.524 . S
C683 C675 1.503 . S
C683 C682 1.370 . S
C683 C684 1.403 . S
C684 C683 1.403 . S
C684 C685 1.404 . S
C684 C687 1.539 . S
C685 C681 1.408 . S
C685 C684 1.404 . S
C685 H697 0.930 . S
C686 C682 1.524 . S
C686 H698 0.956 . S
C686 H699 0.961 . S
C686 H700 0.961 . S
C687 C684 1.539 . S
C687 H701 0.958 . S
C687 H702 0.961 . S
C687 H703 0.960 . S
H688 C672 0.931 . S
H689 C677 0.929 . S
H690 C678 0.960 . S
H691 C678 0.962 . S
H692 C678 0.960 . S
H693 C679 0.961 . S
H694 C679 0.961 . S
H695 C679 0.961 . S
H696 C680 0.931 . S
H697 C685 0.930 . S
H698 C686 0.956 . S
H699 C686 0.961 . S
H700 C686 0.961 . S
H701 C687 0.958 . S
H702 C687 0.961 . S
H703 C687 0.960 . S
C704 C705 1.391 . S
C704 C706 1.394 . S
C704 H720 0.931 . S
C705 C704 1.391 . S
C705 C709 1.376 . S
C706 C704 1.394 . S
C706 C707 1.369 . S
C706 C710 1.531 . S
C707 C706 1.369 . S
C707 C708 1.410 . S
C707 C715 1.503 . S
C708 C707 1.410 . S
C708 C709 1.392 . S
C708 C711 1.511 . S
C709 C705 1.376 . S
C709 C708 1.392 . S
C709 H721 0.929 . S
C710 C706 1.531 . S
C710 H722 0.960 . S
C710 H723 0.962 . S
C710 H724 0.960 . S
C711 C708 1.511 . S
C711 H725 0.961 . S
C711 H726 0.961 . S
C711 H727 0.961 . S
C712 C713 1.370 . S
C712 C714 1.363 . S
C712 H728 0.931 . S
C713 C712 1.370 . S
C713 C717 1.408 . S
C714 C712 1.363 . S
C714 C715 1.370 . S
C714 C718 1.524 . S
C715 C707 1.503 . S
C715 C714 1.370 . S
C715 C716 1.403 . S
C716 C715 1.403 . S
C716 C717 1.404 . S
C716 C719 1.539 . S
C717 C713 1.408 . S
C717 C716 1.404 . S
C717 H729 0.930 . S
C718 C714 1.524 . S
C718 H730 0.956 . S
C718 H731 0.961 . S
C718 H732 0.961 . S
C719 C716 1.539 . S
C719 H733 0.958 . S
C719 H734 0.961 . S
C719 H735 0.960 . S
H720 C704 0.931 . S
H721 C709 0.929 . S
H722 C710 0.960 . S
H723 C710 0.962 . S
H724 C710 0.960 . S
H725 C711 0.961 . S
H726 C711 0.961 . S
H727 C711 0.961 . S
H728 C712 0.931 . S
H729 C717 0.930 . S
H730 C718 0.956 . S
H731 C718 0.961 . S
H732 C718 0.961 . S
H733 C719 0.958 . S
H734 C719 0.961 . S
H735 C719 0.960 . S
C736 C737 1.391 . S
C736 C738 1.394 . S
C736 H752 0.931 . S
C737 C736 1.391 . S
C737 C741 1.376 . S
C738 C736 1.394 . S
C738 C739 1.369 . S
C738 C742 1.531 . S
C739 C738 1.369 . S
C739 C740 1.410 . S
C739 C747 1.503 . S
C740 C739 1.410 . S
C740 C741 1.392 . S
C740 C743 1.511 . S
C741 C737 1.376 . S
C741 C740 1.392 . S
C741 H753 0.929 . S
C742 C738 1.531 . S
C742 H754 0.960 . S
C742 H755 0.962 . S
C742 H756 0.960 . S
C743 C740 1.511 . S
C743 H757 0.961 . S
C743 H758 0.961 . S
C743 H759 0.961 . S
C744 C745 1.370 . S
C744 C746 1.363 . S
C744 H760 0.931 . S
C745 C744 1.370 . S
C745 C749 1.408 . S
C746 C744 1.363 . S
C746 C747 1.370 . S
C746 C750 1.524 . S
C747 C739 1.503 . S
C747 C746 1.370 . S
C747 C748 1.403 . S
C748 C747 1.403 . S
C748 C749 1.404 . S
C748 C751 1.539 . S
C749 C745 1.408 . S
C749 C748 1.404 . S
C749 H761 0.930 . S
C750 C746 1.524 . S
C750 H762 0.956 . S
C750 H763 0.961 . S
C750 H764 0.961 . S
C751 C748 1.539 . S
C751 H765 0.958 . S
C751 H766 0.961 . S
C751 H767 0.960 . S
H752 C736 0.931 . S
H753 C741 0.929 . S
H754 C742 0.960 . S
H755 C742 0.962 . S
H756 C742 0.960 . S
H757 C743 0.961 . S
H758 C743 0.961 . S
H759 C743 0.961 . S
H760 C744 0.931 . S
H761 C749 0.930 . S
H762 C750 0.956 . S
H763 C750 0.961 . S
H764 C750 0.961 . S
H765 C751 0.958 . S
H766 C751 0.961 . S
H767 C751 0.960 . S
C768 C769 1.391 . S
C768 C770 1.394 . S
C768 H784 0.931 . S
C769 C768 1.391 . S
C769 C773 1.376 . S
C770 C768 1.394 . S
C770 C771 1.369 . S
C770 C774 1.531 . S
C771 C770 1.369 . S
C771 C772 1.410 . S
C771 C779 1.503 . S
C772 C771 1.410 . S
C772 C773 1.392 . S
C772 C775 1.511 . S
C773 C769 1.376 . S
C773 C772 1.392 . S
C773 H785 0.929 . S
C774 C770 1.531 . S
C774 H786 0.960 . S
C774 H787 0.962 . S
C774 H788 0.960 . S
C775 C772 1.511 . S
C775 H789 0.961 . S
C775 H790 0.961 . S
C775 H791 0.961 . S
C776 C777 1.370 . S
C776 C778 1.363 . S
C776 H792 0.931 . S
C777 C776 1.370 . S
C777 C781 1.408 . S
C778 C776 1.363 . S
C778 C779 1.370 . S
C778 C782 1.524 . S
C779 C771 1.503 . S
C779 C778 1.370 . S
C779 C780 1.403 . S
C780 C779 1.403 . S
C780 C781 1.404 . S
C780 C783 1.539 . S
C781 C777 1.408 . S
C781 C780 1.404 . S
C781 H793 0.930 1_556 S
C782 C778 1.524 . S
C782 H794 0.956 . S
C782 H795 0.961 . S
C782 H796 0.961 . S
C783 C780 1.539 . S
C783 H797 0.958 . S
C783 H798 0.961 1_556 S
C783 H799 0.960 . S
H784 C768 0.931 . S
H785 C773 0.929 . S
H786 C774 0.960 . S
H787 C774 0.962 . S
H788 C774 0.960 . S
H789 C775 0.961 . S
H790 C775 0.961 . S
H791 C775 0.961 . S
H792 C776 0.931 . S
H793 C781 0.930 1_554 S
H794 C782 0.956 . S
H795 C782 0.961 . S
H796 C782 0.961 . S
H797 C783 0.958 . S
H798 C783 0.961 1_554 S
H799 C783 0.960 . S
C800 C801 1.391 . S
C800 C802 1.394 . S
C800 H816 0.931 . S
C801 C800 1.391 . S
C801 C805 1.376 . S
C802 C800 1.394 . S
C802 C803 1.369 . S
C802 C806 1.531 . S
C803 C802 1.369 . S
C803 C804 1.410 . S
C803 C811 1.503 . S
C804 C803 1.410 . S
C804 C805 1.392 . S
C804 C807 1.511 1_655 S
C805 C801 1.376 . S
C805 C804 1.392 . S
C805 H817 0.929 . S
C806 C802 1.531 . S
C806 H818 0.960 . S
C806 H819 0.962 . S
C806 H820 0.960 . S
C807 C804 1.511 1_455 S
C807 H821 0.961 . S
C807 H822 0.961 . S
C807 H823 0.961 . S
C808 C809 1.370 . S
C808 C810 1.363 . S
C808 H824 0.931 . S
C809 C808 1.370 . S
C809 C813 1.408 . S
C810 C808 1.363 . S
C810 C811 1.370 . S
C810 C814 1.524 . S
C811 C803 1.503 . S
C811 C810 1.370 . S
C811 C812 1.403 . S
C812 C811 1.403 . S
C812 C813 1.404 . S
C812 C815 1.539 . S
C813 C809 1.408 . S
C813 C812 1.404 . S
C813 H825 0.930 . S
C814 C810 1.524 . S
C814 H826 0.956 . S
C814 H827 0.961 . S
C814 H828 0.961 . S
C815 C812 1.539 . S
C815 H829 0.958 . S
C815 H830 0.961 1_655 S
C815 H831 0.960 . S
H816 C800 0.931 . S
H817 C805 0.929 . S
H818 C806 0.960 . S
H819 C806 0.962 . S
H820 C806 0.960 . S
H821 C807 0.961 . S
H822 C807 0.961 . S
H823 C807 0.961 . S
H824 C808 0.931 . S
H825 C813 0.930 . S
H826 C814 0.956 . S
H827 C814 0.961 . S
H828 C814 0.961 . S
H829 C815 0.958 . S
H830 C815 0.961 1_455 S
H831 C815 0.960 . S
C832 C833 1.391 . S
C832 C834 1.394 . S
C832 H848 0.931 . S
C833 C832 1.391 . S
C833 C837 1.376 . S
C834 C832 1.394 . S
C834 C835 1.369 . S
C834 C838 1.531 . S
C835 C834 1.369 . S
C835 C836 1.410 . S
C835 C843 1.503 . S
C836 C835 1.410 . S
C836 C837 1.392 . S
C836 C839 1.511 . S
C837 C833 1.376 . S
C837 C836 1.392 . S
C837 H849 0.929 . S
C838 C834 1.531 . S
C838 H850 0.960 . S
C838 H851 0.962 . S
C838 H852 0.960 . S
C839 C836 1.511 . S
C839 H853 0.961 . S
C839 H854 0.961 . S
C839 H855 0.961 . S
C840 C841 1.370 . S
C840 C842 1.363 . S
C840 H856 0.931 . S
C841 C840 1.370 . S
C841 C845 1.408 . S
C842 C840 1.363 . S
C842 C843 1.370 . S
C842 C846 1.524 . S
C843 C835 1.503 . S
C843 C842 1.370 . S
C843 C844 1.403 . S
C844 C843 1.403 . S
C844 C845 1.404 . S
C844 C847 1.539 . S
C845 C841 1.408 . S
C845 C844 1.404 . S
C845 H857 0.930 . S
C846 C842 1.524 . S
C846 H858 0.956 . S
C846 H859 0.961 . S
C846 H860 0.961 . S
C847 C844 1.539 . S
C847 H861 0.958 . S
C847 H862 0.961 . S
C847 H863 0.960 . S
H848 C832 0.931 . S
H849 C837 0.929 . S
H850 C838 0.960 . S
H851 C838 0.962 . S
H852 C838 0.960 . S
H853 C839 0.961 . S
H854 C839 0.961 . S
H855 C839 0.961 . S
H856 C840 0.931 . S
H857 C845 0.930 . S
H858 C846 0.956 . S
H859 C846 0.961 . S
H860 C846 0.961 . S
H861 C847 0.958 . S
H862 C847 0.961 . S
H863 C847 0.960 . S
C864 C865 1.391 . S
C864 C866 1.394 . S
C864 H880 0.931 . S
C865 C864 1.391 . S
C865 C869 1.376 . S
C866 C864 1.394 . S
C866 C867 1.369 . S
C866 C870 1.531 . S
C867 C866 1.369 . S
C867 C868 1.410 . S
C867 C875 1.503 . S
C868 C867 1.410 . S
C868 C869 1.392 . S
C868 C871 1.511 . S
C869 C865 1.376 . S
C869 C868 1.392 . S
C869 H881 0.929 . S
C870 C866 1.531 . S
C870 H882 0.960 . S
C870 H883 0.962 . S
C870 H884 0.960 . S
C871 C868 1.511 . S
C871 H885 0.961 . S
C871 H886 0.961 . S
C871 H887 0.961 . S
C872 C873 1.370 . S
C872 C874 1.363 . S
C872 H888 0.931 . S
C873 C872 1.370 . S
C873 C877 1.408 . S
C874 C872 1.363 . S
C874 C875 1.370 . S
C874 C878 1.524 . S
C875 C867 1.503 . S
C875 C874 1.370 . S
C875 C876 1.403 . S
C876 C875 1.403 . S
C876 C877 1.404 . S
C876 C879 1.539 . S
C877 C873 1.408 . S
C877 C876 1.404 . S
C877 H889 0.930 . S
C878 C874 1.524 . S
C878 H890 0.956 . S
C878 H891 0.961 . S
C878 H892 0.961 . S
C879 C876 1.539 . S
C879 H893 0.958 . S
C879 H894 0.961 . S
C879 H895 0.960 . S
H880 C864 0.931 . S
H881 C869 0.929 . S
H882 C870 0.960 . S
H883 C870 0.962 . S
H884 C870 0.960 . S
H885 C871 0.961 . S
H886 C871 0.961 . S
H887 C871 0.961 . S
H888 C872 0.931 . S
H889 C877 0.930 . S
H890 C878 0.956 . S
H891 C878 0.961 . S
H892 C878 0.961 . S
H893 C879 0.958 . S
H894 C879 0.961 . S
H895 C879 0.960 . S
C896 C897 1.391 . S
C896 C898 1.394 . S
C896 H912 0.931 . S
C897 C896 1.391 . S
C897 C901 1.376 . S
C898 C896 1.394 . S
C898 C899 1.369 . S
C898 C902 1.531 . S
C899 C898 1.369 . S
C899 C900 1.410 . S
C899 C907 1.503 . S
C900 C899 1.410 . S
C900 C901 1.392 . S
C900 C903 1.511 . S
C901 C897 1.376 . S
C901 C900 1.392 . S
C901 H913 0.929 . S
C902 C898 1.531 . S
C902 H914 0.960 . S
C902 H915 0.962 . S
C902 H916 0.960 . S
C903 C900 1.511 . S
C903 H917 0.961 . S
C903 H918 0.961 . S
C903 H919 0.961 . S
C904 C905 1.370 . S
C904 C906 1.363 . S
C904 H920 0.931 . S
C905 C904 1.370 . S
C905 C909 1.408 . S
C906 C904 1.363 . S
C906 C907 1.370 . S
C906 C910 1.524 . S
C907 C899 1.503 . S
C907 C906 1.370 . S
C907 C908 1.403 . S
C908 C907 1.403 . S
C908 C909 1.404 . S
C908 C911 1.539 . S
C909 C905 1.408 . S
C909 C908 1.404 . S
C909 H921 0.930 . S
C910 C906 1.524 . S
C910 H922 0.956 . S
C910 H923 0.961 . S
C910 H924 0.961 . S
C911 C908 1.539 . S
C911 H925 0.958 . S
C911 H926 0.961 . S
C911 H927 0.960 . S
H912 C896 0.931 . S
H913 C901 0.929 . S
H914 C902 0.960 . S
H915 C902 0.962 . S
H916 C902 0.960 . S
H917 C903 0.961 . S
H918 C903 0.961 . S
H919 C903 0.961 . S
H920 C904 0.931 . S
H921 C909 0.930 . S
H922 C910 0.956 . S
H923 C910 0.961 . S
H924 C910 0.961 . S
H925 C911 0.958 . S
H926 C911 0.961 . S
H927 C911 0.960 . S
C928 C929 1.391 . S
C928 C930 1.394 . S
C928 H944 0.931 . S
C929 C928 1.391 . S
C929 C933 1.376 . S
C930 C928 1.394 . S
C930 C931 1.369 . S
C930 C934 1.531 . S
C931 C930 1.369 . S
C931 C932 1.410 . S
C931 C939 1.503 . S
C932 C931 1.410 . S
C932 C933 1.392 . S
C932 C935 1.511 . S
C933 C929 1.376 . S
C933 C932 1.392 . S
C933 H945 0.929 . S
C934 C930 1.531 . S
C934 H946 0.960 . S
C934 H947 0.962 . S
C934 H948 0.960 . S
C935 C932 1.511 . S
C935 H949 0.961 . S
C935 H950 0.961 . S
C935 H951 0.961 . S
C936 C937 1.370 . S
C936 C938 1.363 . S
C936 H952 0.931 . S
C937 C936 1.370 . S
C937 C941 1.408 . S
C938 C936 1.363 . S
C938 C939 1.370 . S
C938 C942 1.524 . S
C939 C931 1.503 . S
C939 C938 1.370 . S
C939 C940 1.403 . S
C940 C939 1.403 . S
C940 C941 1.404 . S
C940 C943 1.539 . S
C941 C937 1.408 . S
C941 C940 1.404 . S
C941 H953 0.930 . S
C942 C938 1.524 . S
C942 H954 0.956 . S
C942 H955 0.961 . S
C942 H956 0.961 . S
C943 C940 1.539 . S
C943 H957 0.958 . S
C943 H958 0.961 . S
C943 H959 0.960 . S
H944 C928 0.931 . S
H945 C933 0.929 . S
H946 C934 0.960 . S
H947 C934 0.962 . S
H948 C934 0.960 . S
H949 C935 0.961 . S
H950 C935 0.961 . S
H951 C935 0.961 . S
H952 C936 0.931 . S
H953 C941 0.930 . S
H954 C942 0.956 . S
H955 C942 0.961 . S
H956 C942 0.961 . S
H957 C943 0.958 . S
H958 C943 0.961 . S
H959 C943 0.960 . S
C960 C961 1.391 . S
C960 C962 1.394 . S
C960 H976 0.931 . S
C961 C960 1.391 . S
C961 C965 1.376 . S
C962 C960 1.394 . S
C962 C963 1.369 . S
C962 C966 1.531 . S
C963 C962 1.369 . S
C963 C964 1.410 . S
C963 C971 1.503 . S
C964 C963 1.410 . S
C964 C965 1.392 . S
C964 C967 1.511 . S
C965 C961 1.376 . S
C965 C964 1.392 . S
C965 H977 0.929 . S
C966 C962 1.531 . S
C966 H978 0.960 . S
C966 H979 0.962 . S
C966 H980 0.960 . S
C967 C964 1.511 . S
C967 H981 0.961 . S
C967 H982 0.961 . S
C967 H983 0.961 . S
C968 C969 1.370 . S
C968 C970 1.363 . S
C968 H984 0.931 . S
C969 C968 1.370 . S
C969 C973 1.408 . S
C970 C968 1.363 . S
C970 C971 1.370 . S
C970 C974 1.524 . S
C971 C963 1.503 . S
C971 C970 1.370 . S
C971 C972 1.403 . S
C972 C971 1.403 . S
C972 C973 1.404 . S
C972 C975 1.539 . S
C973 C969 1.408 . S
C973 C972 1.404 . S
C973 H985 0.930 . S
C974 C970 1.524 . S
C974 H986 0.956 . S
C974 H987 0.961 . S
C974 H988 0.961 . S
C975 C972 1.539 . S
C975 H989 0.958 . S
C975 H990 0.961 . S
C975 H991 0.960 . S
H976 C960 0.931 . S
H977 C965 0.929 . S
H978 C966 0.960 . S
H979 C966 0.962 . S
H980 C966 0.960 . S
H981 C967 0.961 . S
H982 C967 0.961 . S
H983 C967 0.961 . S
H984 C968 0.931 . S
H985 C973 0.930 . S
H986 C974 0.956 . S
H987 C974 0.961 . S
H988 C974 0.961 . S
H989 C975 0.958 . S
H990 C975 0.961 . S
H991 C975 0.960 . S
C992 C993 1.391 . S
C992 C994 1.394 . S
C992 H1008 0.931 . S
C993 C992 1.391 . S
C993 C997 1.376 . S
C994 C992 1.394 . S
C994 C995 1.369 . S
C994 C998 1.531 . S
C995 C994 1.369 . S
C995 C996 1.410 . S
C995 C1003 1.503 . S
C996 C995 1.410 . S
C996 C997 1.392 . S
C996 C999 1.511 . S
C997 C993 1.376 . S
C997 C996 1.392 . S
C997 H1009 0.929 . S
C998 C994 1.531 . S
C998 H1010 0.960 . S
C998 H1011 0.962 . S
C998 H1012 0.960 . S
C999 C996 1.511 . S
C999 H1013 0.961 . S
C999 H1014 0.961 . S
C999 H1015 0.961 . S
C1000 C1001 1.370 . S
C1000 C1002 1.363 . S
C1000 H1016 0.931 . S
C1001 C1000 1.370 . S
C1001 C1005 1.408 . S
C1002 C1000 1.363 . S
C1002 C1003 1.370 . S
C1002 C1006 1.524 . S
C1003 C995 1.503 . S
C1003 C1002 1.370 . S
C1003 C1004 1.403 . S
C1004 C1003 1.403 . S
C1004 C1005 1.404 . S
C1004 C1007 1.539 . S
C1005 C1001 1.408 . S
C1005 C1004 1.404 . S
C1005 H1017 0.930 . S
C1006 C1002 1.524 . S
C1006 H1018 0.956 . S
C1006 H1019 0.961 . S
C1006 H1020 0.961 . S
C1007 C1004 1.539 . S
C1007 H1021 0.958 . S
C1007 H1022 0.961 . S
C1007 H1023 0.960 . S
H1008 C992 0.931 . S
H1009 C997 0.929 . S
H1010 C998 0.960 . S
H1011 C998 0.962 . S
H1012 C998 0.960 . S
H1013 C999 0.961 . S
H1014 C999 0.961 . S
H1015 C999 0.961 . S
H1016 C1000 0.931 . S
H1017 C1005 0.930 . S
H1018 C1006 0.956 . S
H1019 C1006 0.961 . S
H1020 C1006 0.961 . S
H1021 C1007 0.958 . S
H1022 C1007 0.961 . S
H1023 C1007 0.960 . S
C257 C6 0.937 . S
C265 C100 0.904 . S
C289 C18 1.297 . S
C297 C161 1.305 . S
C329 C199 2.641 . S
C321 C28 2.661 . S
C353 C40 1.755 . S
C361 C239 1.728 . S
C393 C159 1.416 . S
C385 C9 1.400 . S
C425 C127 1.917 . S
C417 C16 1.847 . S
C457 C236 1.768 . S
C449 C30 1.783 . S
C489 C196 1.514 . S
C481 C42 1.538 . S
C513 C4 1.034 . S
C521 C241 1.007 . S
C553 C156 2.597 . S
C545 C33 2.578 . S
C577 C45 1.905 . S
C585 C98 1.887 . S
C609 C21 1.508 . S
C617 C201 1.535 . S
C649 C121 0.931 . S
C641 C57 0.948 . S
C673 C66 1.300 . S
C681 C140 1.319 . S
C705 C76 2.718 . S
C713 C178 2.685 . S
C737 C88 1.655 . S
C745 C218 1.650 . S
C769 C54 1.376 . S
C777 C138 1.398 . S
C809 C116 2.001 . S
C801 C64 1.952 . S
C841 C247 1.650 . S
C833 C78 1.674 . S
C873 C207 1.589 . S
C865 C93 1.582 . S
C897 C52 0.958 . S
C905 C220 1.043 . S
C937 C167 2.595 . S
C929 C81 2.564 . S
C969 C119 1.866 . S
C961 C90 1.892 . S
C993 C69 1.502 . S
C1001 C180 1.542 . S
