# Generated by pormake.
# Topology pyr, (3,6)-cn, num edge types: 1
# Building blocks:
#     Node 0, Type 0, BuildingBlock: KAKCAD_clean_linker_0, # of connection points: 3
#     Node 1, Type 0, BuildingBlock: KAKCAD_clean_linker_0, # of connection points: 3
#     Node 2, Type 0, BuildingBlock: KAKCAD_clean_linker_0, # of connection points: 3
#     Node 3, Type 0, BuildingBlock: KAKCAD_clean_linker_0, # of connection points: 3
#     Node 4, Type 0, BuildingBlock: KAKCAD_clean_linker_0, # of connection points: 3
#     Node 5, Type 0, BuildingBlock: KAKCAD_clean_linker_0, # of connection points: 3
#     Node 6, Type 0, BuildingBlock: KAKCAD_clean_linker_0, # of connection points: 3
#     Node 7, Type 0, BuildingBlock: KAKCAD_clean_linker_0, # of connection points: 3
#     Node 8, Type 1, BuildingBlock: MIDCAF_clean_sbu_0, # of connection points: 6
#     Node 9, Type 1, BuildingBlock: MIDCAF_clean_sbu_0, # of connection points: 6
#     Node 10, Type 1, BuildingBlock: MIDCAF_clean_sbu_0, # of connection points: 6
#     Node 11, Type 1, BuildingBlock: MIDCAF_clean_sbu_0, # of connection points: 6
#     Edge 12, Type (0, 1), BuildingBlock: XUDNAN_clean_linker_2, # of connection points: 2
#     Edge 13, Type (0, 1), BuildingBlock: XUDNAN_clean_linker_2, # of connection points: 2
#     Edge 14, Type (0, 1), BuildingBlock: XUDNAN_clean_linker_2, # of connection points: 2
#     Edge 15, Type (0, 1), BuildingBlock: XUDNAN_clean_linker_2, # of connection points: 2
#     Edge 16, Type (0, 1), BuildingBlock: XUDNAN_clean_linker_2, # of connection points: 2
#     Edge 17, Type (0, 1), BuildingBlock: XUDNAN_clean_linker_2, # of connection points: 2
#     Edge 18, Type (0, 1), BuildingBlock: XUDNAN_clean_linker_2, # of connection points: 2
#     Edge 19, Type (0, 1), BuildingBlock: XUDNAN_clean_linker_2, # of connection points: 2
#     Edge 20, Type (0, 1), BuildingBlock: XUDNAN_clean_linker_2, # of connection points: 2
#     Edge 21, Type (0, 1), BuildingBlock: XUDNAN_clean_linker_2, # of connection points: 2
#     Edge 22, Type (0, 1), BuildingBlock: XUDNAN_clean_linker_2, # of connection points: 2
#     Edge 23, Type (0, 1), BuildingBlock: XUDNAN_clean_linker_2, # of connection points: 2
#     Edge 24, Type (0, 1), BuildingBlock: XUDNAN_clean_linker_2, # of connection points: 2
#     Edge 25, Type (0, 1), BuildingBlock: XUDNAN_clean_linker_2, # of connection points: 2
#     Edge 26, Type (0, 1), BuildingBlock: XUDNAN_clean_linker_2, # of connection points: 2
#     Edge 27, Type (0, 1), BuildingBlock: XUDNAN_clean_linker_2, # of connection points: 2
#     Edge 28, Type (0, 1), BuildingBlock: XUDNAN_clean_linker_2, # of connection points: 2
#     Edge 29, Type (0, 1), BuildingBlock: XUDNAN_clean_linker_2, # of connection points: 2
#     Edge 30, Type (0, 1), BuildingBlock: XUDNAN_clean_linker_2, # of connection points: 2
#     Edge 31, Type (0, 1), BuildingBlock: XUDNAN_clean_linker_2, # of connection points: 2
#     Edge 32, Type (0, 1), BuildingBlock: XUDNAN_clean_linker_2, # of connection points: 2
#     Edge 33, Type (0, 1), BuildingBlock: XUDNAN_clean_linker_2, # of connection points: 2
#     Edge 34, Type (0, 1), BuildingBlock: XUDNAN_clean_linker_2, # of connection points: 2
#     Edge 35, Type (0, 1), BuildingBlock: XUDNAN_clean_linker_2, # of connection points: 2
# Relax obj value: 0.019
# Max RMSD: 0.063
# Mean RMSD: 0.024
data_MOF--net-pyr--node1-MIDCAF_clean_sbu_0--node2-KAKCAD_clean_linker_0--edge1-XUDNAN_clean_linker_2
_symmetry_space_group_name_H-M    P1
_symmetry_Int_Tables_number       1
_symmetry_cell_setting            triclinic
loop_
_symmetry_equiv_pos_as_xyz
'x, y, z'
_cell_length_a     43.956177
_cell_length_b     43.959598
_cell_length_c     43.938949
_cell_angle_alpha  90.252717
_cell_angle_beta   89.94134
_cell_angle_gamma 90.295755
loop_
_atom_site_label
_atom_site_type_symbol
_atom_site_fract_x
_atom_site_fract_y
_atom_site_fract_z
_atom_type_partial_charge
C0 C 0.14063 0.20525 0.31352 0.0
C1 C 0.15159 0.18268 0.33331 0.0
C2 C 0.15722 0.21423 0.28796 0.0
C3 C 0.18642 0.20249 0.28198 0.0
C4 C 0.19801 0.18088 0.30247 0.0
C5 C 0.18066 0.17063 0.32716 0.0
C6 C 0.20425 0.21244 0.25444 0.0
C7 C 0.19773 0.24023 0.23996 0.0
C8 C 0.21229 0.2487 0.21284 0.0
C9 C 0.23555 0.23037 0.20115 0.0
C10 C 0.24341 0.20307 0.21557 0.0
C11 C 0.22725 0.19398 0.2417 0.0
C12 C 0.26823 0.18381 0.20302 0.0
C13 C 0.27088 0.17903 0.17149 0.0
C14 C 0.28985 0.17063 0.22244 0.0
C15 C 0.31389 0.15353 0.21053 0.0
C16 C 0.31682 0.14919 0.17893 0.0
C17 C 0.20162 0.27573 0.19583 0.0
C18 C 0.17032 0.27994 0.19119 0.0
C19 C 0.22223 0.29687 0.18348 0.0
C20 C 0.21165 0.32189 0.16699 0.0
C21 C 0.18026 0.32607 0.1623 0.0
C22 C 0.15979 0.30468 0.17455 0.0
C23 C 0.29484 0.16192 0.1596 0.0
H24 H 0.11906 0.21628 0.31732 0.0
H25 H 0.14647 0.23021 0.27284 0.0
H26 H 0.22054 0.17153 0.29971 0.0
H27 H 0.19033 0.15286 0.34094 0.0
H28 H 0.18122 0.25572 0.2495 0.0
H29 H 0.23224 0.17198 0.25133 0.0
H30 H 0.24723 0.23719 0.18053 0.0
H31 H 0.25429 0.18836 0.15595 0.0
H32 H 0.28861 0.17416 0.24682 0.0
H33 H 0.33057 0.14432 0.22604 0.0
H34 H 0.15392 0.26368 0.1999 0.0
H35 H 0.24648 0.29424 0.18683 0.0
H36 H 0.29602 0.15848 0.13521 0.0
H37 H 0.13554 0.30663 0.17079 0.0
H38 H 0.22805 0.33806 0.15817 0.0
C39 C 0.35153 0.8604 0.82063 0.0
C40 C 0.3819 0.85091 0.82443 0.0
C41 C 0.33299 0.84771 0.79796 0.0
C42 C 0.34444 0.8261 0.77716 0.0
C43 C 0.37477 0.8166 0.78104 0.0
C44 C 0.39277 0.82809 0.80466 0.0
C45 C 0.32537 0.81421 0.75119 0.0
C46 C 0.30067 0.83106 0.73975 0.0
C47 C 0.28344 0.82052 0.71485 0.0
C48 C 0.29193 0.79342 0.70016 0.0
C49 C 0.31681 0.77655 0.71055 0.0
C50 C 0.33247 0.78643 0.73669 0.0
C51 C 0.32792 0.74973 0.69305 0.0
C52 C 0.30767 0.72823 0.68047 0.0
C53 C 0.35927 0.74618 0.68796 0.0
C54 C 0.37016 0.72177 0.67084 0.0
C55 C 0.35004 0.70011 0.65835 0.0
C56 C 0.257 0.83832 0.70379 0.0
C57 C 0.2361 0.85086 0.72452 0.0
C58 C 0.25244 0.84287 0.67249 0.0
C59 C 0.22758 0.8596 0.66216 0.0
C60 C 0.2066 0.87212 0.68287 0.0
C61 C 0.21117 0.86754 0.71418 0.0
C62 C 0.31863 0.70365 0.6633 0.0
H63 H 0.34179 0.8781 0.83463 0.0
H64 H 0.30966 0.85528 0.7969 0.0
H65 H 0.38532 0.80062 0.7656 0.0
H66 H 0.4154 0.81891 0.80693 0.0
H67 H 0.29515 0.85303 0.74937 0.0
H68 H 0.35036 0.77215 0.74544 0.0
H69 H 0.27944 0.78571 0.6803 0.0
H70 H 0.28339 0.73025 0.6841 0.0
H71 H 0.37546 0.76271 0.69667 0.0
H72 H 0.39443 0.72025 0.66688 0.0
H73 H 0.23878 0.84743 0.74876 0.0
H74 H 0.26839 0.83393 0.65596 0.0
H75 H 0.30253 0.68726 0.65417 0.0
H76 H 0.19527 0.87652 0.73074 0.0
H77 H 0.22513 0.86318 0.63792 0.0
C78 C 0.80756 0.40207 0.83125 0.0
C79 C 0.82645 0.39121 0.8547 0.0
C80 C 0.78277 0.38509 0.82071 0.0
C81 C 0.77673 0.35558 0.83168 0.0
C82 C 0.79636 0.3441 0.85417 0.0
C83 C 0.82019 0.3618 0.86596 0.0
C84 C 0.75001 0.33731 0.82003 0.0
C85 C 0.73652 0.34416 0.79177 0.0
C86 C 0.71018 0.32905 0.78169 0.0
C87 C 0.6983 0.30498 0.79886 0.0
C88 C 0.71178 0.2968 0.82661 0.0
C89 C 0.73707 0.31348 0.8373 0.0
C90 C 0.69913 0.27117 0.84475 0.0
C91 C 0.66755 0.26767 0.84853 0.0
C92 C 0.71861 0.24985 0.85825 0.0
C93 C 0.70678 0.22552 0.875 0.0
C94 C 0.67518 0.22197 0.87877 0.0
C95 C 0.69415 0.33996 0.75412 0.0
C96 C 0.68851 0.37118 0.75072 0.0
C97 C 0.68413 0.31966 0.73139 0.0
C98 C 0.66911 0.33054 0.70553 0.0
C99 C 0.66342 0.36181 0.70229 0.0
C100 C 0.67324 0.38196 0.72518 0.0
C101 C 0.65572 0.24341 0.86537 0.0
H102 H 0.81145 0.42384 0.82065 0.0
H103 H 0.76828 0.3958 0.80411 0.0
H104 H 0.79359 0.32136 0.86302 0.0
H105 H 0.83322 0.35205 0.88426 0.0
H106 H 0.74625 0.36134 0.77713 0.0
H107 H 0.74585 0.30817 0.85961 0.0
H108 H 0.6783 0.2929 0.79081 0.0
H109 H 0.65195 0.28396 0.83882 0.0
H110 H 0.74303 0.2517 0.85542 0.0
H111 H 0.72242 0.20923 0.88462 0.0
H112 H 0.69567 0.38731 0.76804 0.0
H113 H 0.68825 0.29549 0.73344 0.0
H114 H 0.6313 0.24175 0.86826 0.0
H115 H 0.66948 0.40621 0.72315 0.0
H116 H 0.66168 0.31452 0.68825 0.0
C117 C 0.86331 0.67637 0.2188 0.0
C118 C 0.89332 0.68701 0.21431 0.0
C119 C 0.8448 0.68861 0.24168 0.0
C120 C 0.85598 0.71099 0.26189 0.0
C121 C 0.88607 0.72136 0.25754 0.0
C122 C 0.904 0.71026 0.23377 0.0
C123 C 0.83692 0.72298 0.28772 0.0
C124 C 0.81286 0.70572 0.30017 0.0
C125 C 0.79584 0.71655 0.32506 0.0
C126 C 0.80411 0.74428 0.3389 0.0
C127 C 0.82824 0.76173 0.32725 0.0
C128 C 0.84337 0.75156 0.30091 0.0
C129 C 0.83887 0.79003 0.34286 0.0
C130 C 0.81833 0.81099 0.35576 0.0
C131 C 0.87022 0.79639 0.34449 0.0
C132 C 0.88073 0.82353 0.35721 0.0
C133 C 0.86027 0.84482 0.36912 0.0
C134 C 0.76951 0.69865 0.33658 0.0
C135 C 0.74814 0.68632 0.31613 0.0
C136 C 0.76545 0.69384 0.3679 0.0
C137 C 0.74062 0.67693 0.37853 0.0
C138 C 0.71911 0.66465 0.3581 0.0
C139 C 0.72319 0.66962 0.32676 0.0
C140 C 0.82901 0.83818 0.36893 0.0
H141 H 0.85386 0.6582 0.20509 0.0
H142 H 0.8217 0.68022 0.24331 0.0
H143 H 0.89642 0.73785 0.27267 0.0
H144 H 0.92637 0.72016 0.23102 0.0
H145 H 0.80757 0.68335 0.29124 0.0
H146 H 0.86032 0.76627 0.2908 0.0
H147 H 0.79182 0.75215 0.3588 0.0
H148 H 0.79405 0.80685 0.35487 0.0
H149 H 0.88679 0.78044 0.3357 0.0
H150 H 0.90499 0.82808 0.35748 0.0
H151 H 0.75047 0.69 0.29188 0.0
H152 H 0.78176 0.70273 0.38416 0.0
H153 H 0.81287 0.85442 0.37801 0.0
H154 H 0.70687 0.66099 0.31038 0.0
H155 H 0.73858 0.6731 0.40278 0.0
C156 C 0.93621 0.92528 0.80433 0.0
C157 C 0.96815 0.927 0.8038 0.0
C158 C 0.92082 0.91744 0.83098 0.0
C159 C 0.93698 0.91102 0.85774 0.0
C160 C 0.96895 0.91204 0.85711 0.0
C161 C 0.98438 0.92012 0.83043 0.0
C162 C 0.92035 0.90385 0.88626 0.0
C163 C 0.92904 0.87914 0.90438 0.0
C164 C 0.91265 0.87166 0.93085 0.0
C165 C 0.8875 0.88947 0.93924 0.0
C166 C 0.87861 0.91437 0.92144 0.0
C167 C 0.89522 0.92143 0.89508 0.0
C168 C 0.85137 0.93243 0.92971 0.0
C169 C 0.82416 0.91773 0.93792 0.0
C170 C 0.85213 0.96441 0.92875 0.0
C171 C 0.82619 0.98131 0.9359 0.0
C172 C 0.7989 0.96656 0.94382 0.0
C173 C 0.92143 0.84487 0.94932 0.0
C174 C 0.92893 0.81726 0.93501 0.0
C175 C 0.92257 0.84668 0.98127 0.0
C176 C 0.93163 0.82159 0.99847 0.0
C177 C 0.93948 0.79408 0.98409 0.0
C178 C 0.93781 0.79218 0.95218 0.0
C179 C 0.79819 0.93459 0.94481 0.0
H180 H 0.923 0.93084 0.78433 0.0
H181 H 0.89619 0.91649 0.83068 0.0
H182 H 0.98199 0.90732 0.87744 0.0
H183 H 0.00901 0.92114 0.83067 0.0
H184 H 0.94842 0.86551 0.89766 0.0
H185 H 0.88832 0.94048 0.88115 0.0
H186 H 0.87462 0.88374 0.95949 0.0
H187 H 0.82281 0.89313 0.93859 0.0
H188 H 0.87286 0.97634 0.92266 0.0
H189 H 0.82737 0.00591 0.93491 0.0
H190 H 0.92793 0.81503 0.91047 0.0
H191 H 0.91707 0.86771 0.99293 0.0
H192 H 0.77761 0.92259 0.95125 0.0
H193 H 0.94414 0.77149 0.94034 0.0
H194 H 0.93258 0.82373 0.02302 0.0
C195 C 0.5672 0.07402 0.32454 0.0
C196 C 0.5643 0.09524 0.30078 0.0
C197 C 0.58343 0.08145 0.35097 0.0
C198 C 0.59664 0.1104 0.35439 0.0
C199 C 0.59316 0.13182 0.33107 0.0
C200 C 0.57736 0.1243 0.30454 0.0
C201 C 0.61504 0.11824 0.38159 0.0
C202 C 0.63876 0.09917 0.39106 0.0
C203 C 0.65882 0.10866 0.41413 0.0
C204 C 0.6542 0.13675 0.42874 0.0
C205 C 0.63031 0.15571 0.4198 0.0
C206 C 0.6109 0.14638 0.39621 0.0
C207 C 0.62727 0.1865 0.433 0.0
C208 C 0.62314 0.19074 0.46443 0.0
C209 C 0.62837 0.21193 0.41385 0.0
C210 C 0.62538 0.24117 0.42587 0.0
C211 C 0.62072 0.24551 0.4572 0.0
C212 C 0.68693 0.0914 0.42001 0.0
C213 C 0.6859 0.06123 0.43037 0.0
C214 C 0.71521 0.10527 0.41453 0.0
C215 C 0.74209 0.08929 0.41925 0.0
C216 C 0.74123 0.05929 0.43003 0.0
C217 C 0.71296 0.04539 0.43579 0.0
C218 C 0.61947 0.22008 0.47642 0.0
H219 H 0.5571 0.05157 0.3227 0.0
H220 H 0.58564 0.06461 0.36875 0.0
H221 H 0.60355 0.15415 0.33289 0.0
H222 H 0.57637 0.14103 0.28658 0.0
H223 H 0.64297 0.078 0.37905 0.0
H224 H 0.59281 0.16133 0.38888 0.0
H225 H 0.67003 0.14445 0.44609 0.0
H226 H 0.62219 0.17136 0.47955 0.0
H227 H 0.63171 0.20916 0.38956 0.0
H228 H 0.6261 0.26042 0.41056 0.0
H229 H 0.66426 0.05015 0.43464 0.0
H230 H 0.71647 0.12845 0.40631 0.0
H231 H 0.61585 0.22294 0.50065 0.0
H232 H 0.71185 0.0223 0.44424 0.0
H233 H 0.76364 0.10058 0.41499 0.0
C234 C 0.30744 0.57535 0.0917 0.0
C235 C 0.30798 0.5659 0.06104 0.0
C236 C 0.33338 0.58795 0.10528 0.0
C237 C 0.36022 0.59174 0.08838 0.0
C238 C 0.36141 0.58078 0.05839 0.0
C239 C 0.33568 0.56765 0.04498 0.0
C240 C 0.38539 0.61047 0.10077 0.0
C241 C 0.3981 0.60412 0.12933 0.0
C242 C 0.41965 0.62402 0.14258 0.0
C243 C 0.42774 0.65074 0.12688 0.0
C244 C 0.4155 0.65693 0.09812 0.0
C245 C 0.39476 0.63654 0.08498 0.0
C246 C 0.42255 0.68584 0.08268 0.0
C247 C 0.41385 0.71347 0.09607 0.0
C248 C 0.43703 0.68596 0.05418 0.0
C249 C 0.4432 0.7135 0.0395 0.0
C250 C 0.43415 0.74113 0.05278 0.0
C251 C 0.43324 0.6173 0.17292 0.0
C252 C 0.41594 0.60289 0.1957 0.0
C253 C 0.46368 0.62521 0.17939 0.0
C254 C 0.47639 0.61895 0.20784 0.0
C255 C 0.45914 0.60413 0.23024 0.0
C256 C 0.42883 0.59616 0.22391 0.0
C257 C 0.41934 0.7409 0.08109 0.0
H258 H 0.28656 0.57476 0.10478 0.0
H259 H 0.33188 0.59651 0.12839 0.0
H260 H 0.382 0.58327 0.04502 0.0
H261 H 0.33726 0.55986 0.02162 0.0
H262 H 0.39121 0.58354 0.14099 0.0
H263 H 0.38457 0.64191 0.0632 0.0
H264 H 0.44322 0.66708 0.13712 0.0
H265 H 0.40245 0.71377 0.11795 0.0
H266 H 0.44381 0.6648 0.0435 0.0
H267 H 0.45477 0.71326 0.01773 0.0
H268 H 0.39228 0.59706 0.19197 0.0
H269 H 0.47794 0.63584 0.16232 0.0
H270 H 0.41248 0.762 0.09186 0.0
H271 H 0.41493 0.58505 0.24099 0.0
H272 H 0.49991 0.62508 0.21212 0.0
C273 C 0.11821 0.31048 0.59502 0.0
C274 C 0.08836 0.30542 0.58454 0.0
C275 C 0.12671 0.33852 0.60737 0.0
C276 C 0.10549 0.36211 0.61008 0.0
C277 C 0.07549 0.35711 0.6003 0.0
C278 C 0.06704 0.3291 0.58742 0.0
C279 C 0.11515 0.39174 0.62309 0.0
C280 C 0.14159 0.40596 0.61206 0.0
C281 C 0.15327 0.43236 0.62602 0.0
C282 C 0.13749 0.44478 0.65091 0.0
C283 C 0.11078 0.43103 0.66216 0.0
C284 C 0.09954 0.40462 0.64784 0.0
C285 C 0.09574 0.44373 0.68973 0.0
C286 C 0.11353 0.45489 0.71396 0.0
C287 C 0.06383 0.44571 0.69181 0.0
C288 C 0.05016 0.45968 0.71707 0.0
C289 C 0.06827 0.4719 0.7404 0.0
C290 C 0.18277 0.44587 0.6158 0.0
C291 C 0.20638 0.427 0.60528 0.0
C292 C 0.18809 0.47751 0.61744 0.0
C293 C 0.2164 0.48977 0.60934 0.0
C294 C 0.23963 0.47075 0.59876 0.0
C295 C 0.23433 0.43935 0.59654 0.0
C296 C 0.09994 0.46904 0.73887 0.0
H297 H 0.13508 0.29264 0.59414 0.0
H298 H 0.14987 0.34164 0.61525 0.0
H299 H 0.05876 0.37505 0.60209 0.0
H300 H 0.04393 0.32621 0.57938 0.0
H301 H 0.15311 0.39616 0.59256 0.0
H302 H 0.07958 0.39321 0.65686 0.0
H303 H 0.14639 0.46492 0.66212 0.0
H304 H 0.13809 0.45299 0.71356 0.0
H305 H 0.0495 0.43741 0.67351 0.0
H306 H 0.02564 0.46184 0.71792 0.0
H307 H 0.20364 0.40253 0.60439 0.0
H308 H 0.1704 0.49289 0.62487 0.0
H309 H 0.11423 0.4782 0.75683 0.0
H310 H 0.25214 0.42426 0.58868 0.0
H311 H 0.22004 0.51411 0.611 0.0
Zn312 Zn 0.96554 0.05728 0.57105 0.0
Zn313 Zn 0.04789 0.99731 0.49991 0.0
Zn314 Zn 0.00712 0.02803 0.53519 0.0
C315 C 0.05672 0.05999 0.49097 0.0
C316 C 0.98881 0.98348 0.4791 0.0
O317 O 0.01264 0.01183 0.58243 0.0
O318 O 0.97585 0.03448 0.60856 0.0
C319 C 0.00792 0.10056 0.54783 0.0
O320 O 0.03447 0.06154 0.51003 0.0
O321 O 0.06826 0.03464 0.48395 0.0
O322 O 0.01643 0.97796 0.4735 0.0
O323 O 0.98133 0.00139 0.50112 0.0
O324 O 0.98488 0.09816 0.56494 0.0
O325 O 0.01849 0.07694 0.53399 0.0
O326 O 0.96067 0.01941 0.51752 0.0
O327 O 0.92895 0.04505 0.54714 0.0
C328 C 0.93351 0.02809 0.52433 0.0
O329 O 0.03555 0.99837 0.56435 0.0
O330 O 0.06679 0.97377 0.53332 0.0
C331 C 0.99805 0.01642 0.60747 0.0
C332 C 0.05733 0.97927 0.55992 0.0
Zn333 Zn 0.48835 0.0474 0.98775 0.0
Zn334 Zn 0.56251 0.97537 0.05595 0.0
Zn335 Zn 0.52671 0.01311 0.02386 0.0
C336 C 0.59983 0.00986 0.01737 0.0
C337 C 0.52174 0.93862 0.02517 0.0
O338 O 0.49608 0.03811 0.05481 0.0
O339 O 0.46558 0.06334 0.02378 0.0
C340 C 0.5498 0.06593 0.97795 0.0
O341 O 0.57448 0.02299 0.01112 0.0
O342 O 0.6007 0.98764 0.03543 0.0
O343 O 0.54304 0.93625 0.04424 0.0
O344 O 0.51406 0.96498 0.01506 0.0
O345 O 0.52279 0.0717 0.97002 0.0
O346 O 0.55527 0.04448 0.99707 0.0
O347 O 0.50056 0.9834 0.99284 0.0
O348 O 0.4709 0.01229 0.96428 0.0
C349 C 0.48085 0.98637 0.97137 0.0
O350 O 0.51971 0.02483 0.07226 0.0
O351 O 0.55228 0.99465 0.09566 0.0
C352 C 0.4732 0.0558 0.05044 0.0
C353 C 0.53287 0.01575 0.09678 0.0
Zn354 Zn 0.54501 0.54958 0.53893 0.0
Zn355 Zn 0.48111 0.47314 0.46946 0.0
Zn356 Zn 0.51394 0.5123 0.50209 0.0
C357 C 0.52859 0.44009 0.49335 0.0
C358 C 0.50267 0.51957 0.43026 0.0
O359 O 0.48154 0.53817 0.53126 0.0
O360 O 0.50994 0.5722 0.55555 0.0
C361 C 0.56173 0.4903 0.55337 0.0
O362 O 0.5341 0.46625 0.50567 0.0
O363 O 0.50609 0.43642 0.47592 0.0
O364 O 0.48571 0.49627 0.43096 0.0
O365 O 0.5166 0.52848 0.45454 0.0
O366 O 0.56286 0.51683 0.56444 0.0
O367 O 0.54651 0.48487 0.52885 0.0
O368 O 0.53951 0.54294 0.47195 0.0
O369 O 0.56907 0.56754 0.5047 0.0
C370 C 0.5615 0.56164 0.47754 0.0
O371 O 0.46605 0.51307 0.51887 0.0
O372 O 0.44268 0.47707 0.49225 0.0
C373 C 0.48405 0.56144 0.54914 0.0
C374 C 0.44206 0.49702 0.51297 0.0
Zn375 Zn 0.09019 0.5925 0.97147 0.0
Zn376 Zn 0.99594 0.49706 0.04465 0.0
Zn377 Zn 0.03412 0.53027 0.01125 0.0
C378 C 0.05619 0.47732 0.05696 0.0
C379 C 0.98137 0.48846 0.98224 0.0
O380 O 0.03332 0.58168 0.01907 0.0
O381 O 0.06569 0.61793 0.00088 0.0
C382 C 0.09579 0.53329 0.00221 0.0
O383 O 0.06221 0.49731 0.03646 0.0
O384 O 0.02904 0.47328 0.06577 0.0
O385 O 0.97469 0.47835 0.00833 0.0
O386 O 0.00249 0.50856 0.97908 0.0
O387 O 0.08059 0.55182 0.98687 0.0
O388 O 0.08025 0.51486 0.0181 0.0
O389 O 0.02453 0.52531 0.9632 0.0
O390 O 0.05842 0.56111 0.95497 0.0
C391 C 0.03918 0.54212 0.94445 0.0
O392 O 0.0134 0.56312 0.04071 0.0
O393 O 0.97894 0.53513 0.06455 0.0
C394 C 0.04272 0.60975 0.01686 0.0
C395 C 0.99145 0.56069 0.05977 0.0
H396 H 0.16996 0.15176 0.38572 0.0
H397 H 0.08864 0.18581 0.34077 0.0
H398 H 0.05772 0.16659 0.38251 0.0
H399 H 0.13649 0.08174 0.40167 0.0
H400 H 0.15621 0.07638 0.43718 0.0
H401 H 0.17324 0.09912 0.40777 0.0
H402 H 0.17808 0.14435 0.44564 0.0
H403 H 0.16075 0.1217 0.47512 0.0
H404 H 0.14469 0.15795 0.46517 0.0
H405 H 0.0343 0.14077 0.42746 0.0
H406 H 0.01985 0.10222 0.46576 0.0
H407 H 0.11455 0.07733 0.47582 0.0
C408 C 0.14575 0.15544 0.38415 0.0
C409 C 0.1325 0.17138 0.35949 0.0
C410 C 0.10034 0.17523 0.35951 0.0
C411 C 0.0822 0.16409 0.38326 0.0
C412 C 0.09612 0.14833 0.40674 0.0
C413 C 0.12709 0.14337 0.40699 0.0
C414 C 0.13582 0.1215 0.43205 0.0
C415 C 0.15134 0.093 0.41887 0.0
C416 C 0.15604 0.13733 0.45591 0.0
C417 C 0.10475 0.11411 0.44505 0.0
C418 C 0.0823 0.13086 0.43099 0.0
C419 C 0.05168 0.12759 0.4387 0.0
C420 C 0.04369 0.10576 0.4605 0.0
C421 C 0.06614 0.08695 0.47353 0.0
C422 C 0.09706 0.09163 0.46619 0.0
H423 H 0.36607 0.8827 0.87747 0.0
H424 H 0.4452 0.85393 0.82505 0.0
H425 H 0.47833 0.87837 0.86235 0.0
H426 H 0.39375 0.95645 0.888 0.0
H427 H 0.37768 0.96137 0.92546 0.0
H428 H 0.35984 0.93585 0.89873 0.0
H429 H 0.3638 0.89204 0.93785 0.0
H430 H 0.38198 0.91741 0.96467 0.0
H431 H 0.40038 0.88253 0.9536 0.0
H432 H 0.50371 0.90812 0.90402 0.0
H433 H 0.51838 0.94822 0.94105 0.0
H434 H 0.42328 0.96544 0.96004 0.0
C435 C 0.39025 0.88129 0.87337 0.0
C436 C 0.40238 0.8653 0.84799 0.0
C437 C 0.43459 0.86448 0.84456 0.0
C438 C 0.45394 0.87864 0.86569 0.0
C439 C 0.44105 0.89436 0.88995 0.0
C440 C 0.40994 0.89633 0.89355 0.0
C441 C 0.4018 0.9183 0.91896 0.0
C442 C 0.38212 0.94454 0.90706 0.0
C443 C 0.38605 0.90156 0.94533 0.0
C444 C 0.4332 0.92925 0.92818 0.0
C445 C 0.45557 0.91414 0.91207 0.0
C446 C 0.48639 0.92016 0.91671 0.0
C447 C 0.49452 0.94287 0.93772 0.0
C448 C 0.47188 0.95985 0.95294 0.0
C449 C 0.4409 0.95274 0.94843 0.0
H450 H 0.61718 0.40308 0.70076 0.0
H451 H 0.6748 0.34823 0.64239 0.0
H452 H 0.65225 0.37258 0.59702 0.0
H453 H 0.55019 0.40343 0.65004 0.0
H454 H 0.54087 0.44211 0.65995 0.0
H455 H 0.55941 0.41807 0.68732 0.0
H456 H 0.60259 0.45804 0.69318 0.0
H457 H 0.58435 0.48208 0.66574 0.0
H458 H 0.62318 0.47041 0.6599 0.0
H459 H 0.62823 0.40804 0.55865 0.0
H460 H 0.60213 0.44926 0.53076 0.0
H461 H 0.55817 0.47829 0.61379 0.0
C462 C 0.62478 0.39594 0.6784 0.0
C463 C 0.64774 0.37383 0.67502 0.0
C464 C 0.65701 0.36493 0.64543 0.0
C465 C 0.64442 0.3787 0.61958 0.0
C466 C 0.62232 0.401 0.62377 0.0
C467 C 0.6123 0.40924 0.65247 0.0
C468 C 0.58928 0.43465 0.651 0.0
C469 C 0.55809 0.42391 0.66277 0.0
C470 C 0.60054 0.46296 0.66848 0.0
C471 C 0.58858 0.44016 0.61707 0.0
C472 C 0.60764 0.42043 0.60166 0.0
C473 C 0.61241 0.42282 0.57037 0.0
C474 C 0.59712 0.4458 0.55451 0.0
C475 C 0.57697 0.46556 0.56978 0.0
C476 C 0.5729 0.46284 0.60148 0.0
H477 H 0.87694 0.65595 0.16109 0.0
H478 H 0.9566 0.68578 0.21236 0.0
H479 H 0.98942 0.66406 0.17318 0.0
H480 H 0.90743 0.58333 0.14569 0.0
H481 H 0.8897 0.57999 0.10883 0.0
H482 H 0.87227 0.60279 0.13805 0.0
H483 H 0.8721 0.64806 0.1012 0.0
H484 H 0.89151 0.6268 0.07191 0.0
H485 H 0.9074 0.66215 0.08586 0.0
H486 H 0.01443 0.63661 0.12994 0.0
H487 H 0.02908 0.59856 0.091 0.0
H488 H 0.93394 0.58039 0.0723 0.0
C489 C 0.90118 0.65804 0.16459 0.0
C490 C 0.91357 0.67364 0.19011 0.0
C491 C 0.94581 0.67547 0.19276 0.0
C492 C 0.96496 0.66286 0.17058 0.0
C493 C 0.95184 0.64767 0.14605 0.0
C494 C 0.92071 0.64456 0.14333 0.0
C495 C 0.91244 0.62377 0.11698 0.0
C496 C 0.89441 0.59582 0.12806 0.0
C497 C 0.89481 0.64122 0.0925 0.0
C498 C 0.94385 0.61506 0.10583 0.0
C499 C 0.96626 0.6299 0.12231 0.0
C500 C 0.99709 0.62493 0.11682 0.0
C501 C 0.0052 0.60342 0.09464 0.0
C502 C 0.98259 0.58684 0.07873 0.0
C503 C 0.95158 0.59306 0.08407 0.0
H504 H 0.35021 0.16263 0.12795 0.0
H505 H 0.34222 0.09639 0.2005 0.0
H506 H 0.38443 0.06697 0.17782 0.0
H507 H 0.363 0.10989 0.06869 0.0
H508 H 0.38954 0.13384 0.04852 0.0
H509 H 0.36054 0.1507 0.07197 0.0
H510 H 0.40191 0.18017 0.1023 0.0
H511 H 0.43108 0.1633 0.07895 0.0
H512 H 0.43258 0.15952 0.11975 0.0
H513 H 0.42546 0.04292 0.14478 0.0
H514 H 0.46091 0.02642 0.10413 0.0
H515 H 0.44146 0.10866 0.05381 0.0
C516 C 0.35727 0.14193 0.13912 0.0
C517 C 0.34284 0.13183 0.16602 0.0
C518 C 0.35314 0.1048 0.18008 0.0
C519 C 0.37704 0.08788 0.16732 0.0
C520 C 0.39053 0.09838 0.14059 0.0
C521 C 0.381 0.12484 0.12673 0.0
C522 C 0.39824 0.13066 0.09752 0.0
C523 C 0.37654 0.13129 0.07006 0.0
C524 C 0.41707 0.16017 0.09978 0.0
C525 C 0.41852 0.103 0.09667 0.0
C526 C 0.41404 0.08474 0.12182 0.0
C527 C 0.42943 0.05728 0.12522 0.0
C528 C 0.44963 0.04816 0.10213 0.0
C529 C 0.45433 0.06654 0.07616 0.0
C530 C 0.43861 0.09433 0.07361 0.0
H531 H 0.1708 0.86087 0.63281 0.0
H532 H 0.18339 0.92475 0.7074 0.0
H533 H 0.14175 0.95629 0.68722 0.0
H534 H 0.15984 0.91529 0.57643 0.0
H535 H 0.13176 0.89365 0.5556 0.0
H536 H 0.15976 0.87432 0.57807 0.0
H537 H 0.1168 0.84659 0.60767 0.0
H538 H 0.08862 0.86598 0.58528 0.0
H539 H 0.08759 0.86858 0.62622 0.0
H540 H 0.10275 0.98381 0.65566 0.0
H541 H 0.0706 0.00504 0.61482 0.0
H542 H 0.08285 0.92296 0.56159 0.0
C543 C 0.16471 0.88138 0.64505 0.0
C544 C 0.18036 0.89024 0.67177 0.0
C545 C 0.17146 0.91718 0.68717 0.0
C546 C 0.14787 0.93531 0.67584 0.0
C547 C 0.13323 0.9261 0.6492 0.0
C548 C 0.14128 0.8997 0.63407 0.0
C549 C 0.12354 0.89589 0.60479 0.0
C550 C 0.145 0.89474 0.5771 0.0
C551 C 0.10291 0.86758 0.60608 0.0
C552 C 0.105 0.92479 0.60524 0.0
C553 C 0.11053 0.94173 0.63126 0.0
C554 C 0.09762 0.97034 0.63562 0.0
C555 C 0.07899 0.98207 0.61258 0.0
C556 C 0.07327 0.96515 0.58575 0.0
C557 C 0.08628 0.93607 0.58224 0.0
H558 H 0.87671 0.37374 0.88982 0.0
H559 H 0.83433 0.45428 0.85104 0.0
H560 H 0.87488 0.48558 0.87228 0.0
H561 H 0.88897 0.40897 0.9602 0.0
H562 H 0.92399 0.38932 0.96798 0.0
H563 H 0.89562 0.37178 0.94414 0.0
H564 H 0.93552 0.36566 0.90102 0.0
H565 H 0.96401 0.38336 0.9248 0.0
H566 H 0.95605 0.39862 0.88766 0.0
H567 H 0.91916 0.50946 0.89959 0.0
H568 H 0.957 0.52451 0.93865 0.0
H569 H 0.96403 0.43058 0.9672 0.0
C570 C 0.87535 0.39784 0.88551 0.0
C571 C 0.85182 0.41066 0.86758 0.0
C572 C 0.85223 0.44277 0.86312 0.0
C573 C 0.8753 0.46118 0.87543 0.0
C574 C 0.89765 0.44764 0.89303 0.0
C575 C 0.89743 0.4168 0.8987 0.0
C576 C 0.92128 0.40853 0.9221 0.0
C577 C 0.90658 0.3938 0.95027 0.0
C578 C 0.94566 0.38781 0.90804 0.0
C579 C 0.93423 0.43972 0.92936 0.0
C580 C 0.92115 0.46181 0.91142 0.0
C581 C 0.92948 0.49238 0.91386 0.0
C582 C 0.95101 0.50071 0.93597 0.0
C583 C 0.96308 0.47869 0.95588 0.0
C584 C 0.95497 0.44779 0.9522 0.0
H585 H 0.68512 0.67476 0.40975 0.0
H586 H 0.69329 0.61344 0.33246 0.0
H587 H 0.6502 0.58304 0.35201 0.0
H588 H 0.67111 0.6177 0.46423 0.0
H589 H 0.64478 0.64016 0.48622 0.0
H590 H 0.67418 0.65862 0.46447 0.0
H591 H 0.6334 0.69049 0.43657 0.0
H592 H 0.60383 0.67196 0.45817 0.0
H593 H 0.60259 0.67138 0.41717 0.0
H594 H 0.60819 0.55727 0.382 0.0
H595 H 0.57266 0.53743 0.42097 0.0
H596 H 0.593 0.61515 0.47871 0.0
C597 C 0.67794 0.65495 0.39686 0.0
C598 C 0.69263 0.64666 0.36944 0.0
C599 C 0.68214 0.62067 0.35323 0.0
C600 C 0.65771 0.60316 0.3642 0.0
C601 C 0.64394 0.6119 0.39142 0.0
C602 C 0.65375 0.63717 0.40754 0.0
C603 C 0.63636 0.64077 0.43706 0.0
C604 C 0.65789 0.6392 0.46461 0.0
C605 C 0.61795 0.67041 0.43723 0.0
C606 C 0.61569 0.6132 0.43539 0.0
C607 C 0.62005 0.59701 0.40872 0.0
C608 C 0.60433 0.56998 0.40278 0.0
C609 C 0.58405 0.55897 0.42494 0.0
C610 C 0.57972 0.575 0.45261 0.0
C611 C 0.59558 0.60259 0.45761 0.0
H612 H 0.12866 0.35961 0.1727 0.0
H613 H 0.20515 0.35132 0.11063 0.0
H614 H 0.18375 0.39221 0.07892 0.0
H615 H 0.07302 0.36809 0.11615 0.0
H616 H 0.05033 0.39469 0.13758 0.0
H617 H 0.07346 0.36741 0.15717 0.0
H618 H 0.10034 0.41108 0.1867 0.0
H619 H 0.07722 0.43854 0.16721 0.0
H620 H 0.11811 0.44165 0.1659 0.0
H621 H 0.15176 0.43126 0.05182 0.0
H622 H 0.11192 0.46495 0.03162 0.0
H623 H 0.05572 0.44606 0.11065 0.0
C624 C 0.14104 0.36635 0.15249 0.0
C625 C 0.16867 0.35216 0.14425 0.0
C626 C 0.18422 0.3621 0.11777 0.0
C627 C 0.17216 0.38522 0.0995 0.0
C628 C 0.14454 0.39819 0.10801 0.0
C629 C 0.12923 0.38913 0.13393 0.0
C630 C 0.0991 0.40532 0.13717 0.0
C631 C 0.07241 0.38251 0.13699 0.0
C632 C 0.09868 0.42534 0.16595 0.0
C633 C 0.09948 0.42445 0.10866 0.0
C634 C 0.12603 0.42033 0.0923 0.0
C635 C 0.13105 0.43493 0.06465 0.0
C636 C 0.10832 0.45415 0.05342 0.0
C637 C 0.08081 0.45841 0.0697 0.0
C638 C 0.07653 0.44338 0.09773 0.0
H639 H 0.62413 0.18762 0.86647 0.0
H640 H 0.69728 0.19814 0.93205 0.0
H641 H 0.6754 0.15637 0.96259 0.0
H642 H 0.56564 0.17525 0.92027 0.0
H643 H 0.54536 0.14785 0.89724 0.0
H644 H 0.56827 0.17673 0.87935 0.0
H645 H 0.5985 0.13506 0.85057 0.0
H646 H 0.57572 0.10601 0.86848 0.0
H647 H 0.61657 0.10517 0.87179 0.0
H648 H 0.64333 0.11587 0.98796 0.0
H649 H 0.6032 0.08075 0.00618 0.0
H650 H 0.5515 0.0965 0.92392 0.0
C651 C 0.6356 0.18119 0.88724 0.0
C652 C 0.66253 0.19618 0.89675 0.0
C653 C 0.67692 0.18674 0.92398 0.0
C654 C 0.6646 0.1631 0.94156 0.0
C655 C 0.63791 0.14901 0.9316 0.0
C656 C 0.62361 0.15771 0.90506 0.0
C657 C 0.59446 0.1399 0.90005 0.0
C658 C 0.56681 0.1612 0.89919 0.0
C659 C 0.59645 0.12038 0.871 0.0
C660 C 0.59422 0.12028 0.92827 0.0
C661 C 0.61962 0.12561 0.94605 0.0
C662 C 0.62366 0.1111 0.97391 0.0
C663 C 0.60099 0.09087 0.98392 0.0
C664 C 0.57479 0.08517 0.96608 0.0
C665 C 0.57152 0.10007 0.93786 0.0
H666 H 0.86017 0.86768 0.42742 0.0
H667 H 0.88909 0.88698 0.33523 0.0
H668 H 0.91875 0.9311 0.35361 0.0
H669 H 0.85988 0.95146 0.45441 0.0
H670 H 0.87434 0.94148 0.49137 0.0
H671 H 0.84938 0.91562 0.47126 0.0
H672 H 0.88916 0.87277 0.47527 0.0
H673 H 0.91429 0.89794 0.49566 0.0
H674 H 0.92727 0.8793 0.46143 0.0
H675 H 0.9532 0.96461 0.38165 0.0
H676 H 0.98872 0.98849 0.41813 0.0
H677 H 0.93779 0.94994 0.49325 0.0
C678 C 0.87169 0.88215 0.41115 0.0
C679 C 0.87219 0.8744 0.37992 0.0
C680 C 0.88829 0.89294 0.35917 0.0
C681 C 0.90508 0.91805 0.36941 0.0
C682 C 0.90532 0.92447 0.40047 0.0
C683 C 0.88866 0.90747 0.42111 0.0
C684 C 0.89595 0.91716 0.45356 0.0
C685 C 0.86824 0.93232 0.46854 0.0
C686 C 0.90735 0.89018 0.47257 0.0
C687 C 0.92106 0.94027 0.44789 0.0
C688 C 0.92547 0.94462 0.41704 0.0
C689 C 0.94943 0.96215 0.40585 0.0
C690 C 0.96962 0.97537 0.42667 0.0
C691 C 0.96564 0.97117 0.45827 0.0
C692 C 0.94078 0.95389 0.46911 0.0
H693 H 0.40104 0.66647 0.66943 0.0
H694 H 0.32695 0.67609 0.60508 0.0
H695 H 0.35038 0.63691 0.57207 0.0
H696 H 0.45859 0.66232 0.61578 0.0
H697 H 0.48122 0.63518 0.63631 0.0
H698 H 0.45627 0.66035 0.6567 0.0
H699 H 0.42953 0.61405 0.68177 0.0
H700 H 0.45454 0.58869 0.66148 0.0
H701 H 0.4139 0.58429 0.65804 0.0
H702 H 0.38532 0.60037 0.54346 0.0
H703 H 0.42846 0.57079 0.52229 0.0
H704 H 0.47945 0.58686 0.60521 0.0
C705 C 0.38952 0.66018 0.64854 0.0
C706 C 0.36215 0.67441 0.63986 0.0
C707 C 0.34772 0.66524 0.61244 0.0
C708 C 0.36092 0.64306 0.59349 0.0
C709 C 0.38842 0.63013 0.60239 0.0
C710 C 0.4024 0.63831 0.6294 0.0
C711 C 0.43289 0.62299 0.63288 0.0
C712 C 0.45875 0.64662 0.63556 0.0
C713 C 0.43268 0.60121 0.66016 0.0
C714 C 0.43448 0.60571 0.60314 0.0
C715 C 0.40846 0.6096 0.58597 0.0
C716 C 0.40559 0.59686 0.55693 0.0
C717 C 0.43011 0.58009 0.54509 0.0
C718 C 0.45702 0.57634 0.5623 0.0
C719 C 0.45899 0.58916 0.5917 0.0
H720 H 0.95667 0.91069 0.74458 0.0
H721 H 0.01461 0.96851 0.80019 0.0
H722 H 0.03579 0.99196 0.75379 0.0
H723 H 0.01119 0.90271 0.67831 0.0
H724 H 0.98039 0.90394 0.6513 0.0
H725 H 0.97437 0.88753 0.68839 0.0
H726 H 0.92932 0.92433 0.69759 0.0
H727 H 0.93526 0.9408 0.66071 0.0
H728 H 0.93554 0.96474 0.69413 0.0
H729 H 0.04279 0.01593 0.70292 0.0
H730 H 0.03643 0.03703 0.65117 0.0
H731 H 0.97564 0.96284 0.62793 0.0
C732 C 0.97436 0.92778 0.74693 0.0
C733 C 0.98407 0.93771 0.77598 0.0
C734 C 0.00716 0.9602 0.77817 0.0
C735 C 0.0193 0.97368 0.75192 0.0
C736 C 0.00848 0.96407 0.72363 0.0
C737 C 0.98682 0.9413 0.72095 0.0
C738 C 0.97672 0.93728 0.68822 0.0
C739 C 0.98625 0.906 0.67583 0.0
C740 C 0.94218 0.9421 0.68499 0.0
C741 C 0.99469 0.96255 0.67318 0.0
C742 C 0.0133 0.97741 0.69391 0.0
C743 C 0.02919 0.00385 0.68624 0.0
C744 C 0.0255 0.01566 0.65689 0.0
C745 C 0.00656 0.00074 0.63553 0.0
C746 C 0.99133 0.97372 0.64361 0.0
H747 H 0.56615 0.04001 0.27131 0.0
H748 H 0.52977 0.13125 0.26302 0.0
H749 H 0.51242 0.11914 0.211 0.0
H750 H 0.59471 0.03308 0.19986 0.0
H751 H 0.58465 0.99365 0.19422 0.0
H752 H 0.59064 0.0081 0.23206 0.0
H753 H 0.53681 0.98976 0.24797 0.0
H754 H 0.53072 0.97492 0.21014 0.0
H755 H 0.50417 0.00161 0.22632 0.0
H756 H 0.50708 0.09976 0.1571 0.0
H757 H 0.51092 0.07334 0.10753 0.0
H758 H 0.54539 0.99325 0.15297 0.0
C759 C 0.55357 0.05718 0.25913 0.0
C760 C 0.54961 0.08669 0.27137 0.0
C761 C 0.53368 0.10864 0.25405 0.0
C762 C 0.52343 0.10189 0.22454 0.0
C763 C 0.52862 0.07287 0.21286 0.0
C764 C 0.54278 0.05069 0.22988 0.0
C765 C 0.54738 0.02191 0.2115 0.0
C766 C 0.58135 0.01374 0.20928 0.0
C767 C 0.52864 0.99549 0.22477 0.0
C768 C 0.53488 0.03182 0.18108 0.0
C769 C 0.52396 0.06122 0.18228 0.0
C770 C 0.51451 0.07635 0.15612 0.0
C771 C 0.51652 0.06107 0.12804 0.0
C772 C 0.52731 0.03083 0.12645 0.0
C773 C 0.53625 0.01608 0.15348 0.0
H774 H 0.45874 0.54909 0.25836 0.0
H775 H 0.48957 0.64227 0.26938 0.0
H776 H 0.50872 0.63008 0.32099 0.0
H777 H 0.43193 0.53834 0.33215 0.0
H778 H 0.44427 0.49942 0.33506 0.0
H779 H 0.43557 0.51516 0.2984 0.0
H780 H 0.48936 0.50068 0.27902 0.0
H781 H 0.49823 0.48486 0.31571 0.0
H782 H 0.52243 0.51383 0.29956 0.0
H783 H 0.51881 0.60852 0.37385 0.0
H784 H 0.5208 0.57918 0.42174 0.0
H785 H 0.48662 0.49958 0.37385 0.0
C786 C 0.46981 0.56683 0.27156 0.0
C787 C 0.47264 0.5966 0.26011 0.0
C788 C 0.48738 0.61925 0.27783 0.0
C789 C 0.49827 0.61253 0.3071 0.0
C790 C 0.49471 0.58295 0.31795 0.0
C791 C 0.48116 0.5604 0.30049 0.0
C792 C 0.47907 0.53071 0.31755 0.0
C793 C 0.44574 0.52032 0.321 0.0
C794 C 0.49843 0.50607 0.30203 0.0
C795 C 0.49258 0.54025 0.34775 0.0
C796 C 0.50163 0.57039 0.34765 0.0
C797 C 0.51251 0.58469 0.37394 0.0
C798 C 0.51381 0.56779 0.40101 0.0
C799 C 0.50466 0.53685 0.40145 0.0
C800 C 0.4943 0.52303 0.37426 0.0
H801 H 0.03659 0.45048 0.78957 0.0
H802 H 0.07256 0.53249 0.74851 0.0
H803 H 0.05957 0.56168 0.79477 0.0
H804 H 0.9744 0.48975 0.83785 0.0
H805 H 0.98087 0.46394 0.8689 0.0
H806 H 0.98569 0.4511 0.83016 0.0
H807 H 0.04058 0.43406 0.84313 0.0
H808 H 0.03584 0.44724 0.88158 0.0
H809 H 0.067 0.4614 0.85889 0.0
H810 H 0.05269 0.57944 0.84691 0.0
H811 H 0.05153 0.58538 0.90255 0.0
H812 H 0.01941 0.49237 0.91172 0.0
C813 C 0.04034 0.47484 0.79004 0.0
C814 C 0.05493 0.48959 0.76554 0.0
C815 C 0.06087 0.52115 0.76702 0.0
C816 C 0.05349 0.53785 0.79311 0.0
C817 C 0.04002 0.52261 0.81742 0.0
C818 C 0.03311 0.49188 0.81612 0.0
C819 C 0.02252 0.48038 0.84695 0.0
C820 C 0.98887 0.47073 0.84588 0.0
C821 C 0.04271 0.45425 0.85829 0.0
C822 C 0.02668 0.50889 0.86607 0.0
C823 C 0.03605 0.53311 0.84832 0.0
C824 C 0.04456 0.56095 0.86097 0.0
C825 C 0.04401 0.56404 0.89261 0.0
C826 C 0.03513 0.53941 0.9113 0.0
C827 C 0.02557 0.51175 0.89784 0.0
H828 H 0.74052 0.95576 0.92509 0.0
H829 H 0.79492 0.01655 0.98105 0.0
H830 H 0.74812 0.042 0.99891 0.0
H831 H 0.67864 0.01187 0.90663 0.0
H832 H 0.64981 0.98265 0.9088 0.0
H833 H 0.68765 0.97327 0.89609 0.0
H834 H 0.69135 0.93198 0.93789 0.0
H835 H 0.65362 0.94111 0.95051 0.0
H836 H 0.68484 0.94247 0.97707 0.0
H837 H 0.69579 0.05365 0.0181 0.0
H838 H 0.64254 0.05062 0.03637 0.0
H839 H 0.62196 0.98416 0.96646 0.0
C840 C 0.74258 0.97486 0.94061 0.0
C841 C 0.77129 0.98423 0.95168 0.0
C842 C 0.77315 0.00926 0.97199 0.0
C843 C 0.74669 0.02386 0.98223 0.0
C844 C 0.71862 0.01351 0.97149 0.0
C845 C 0.71645 0.98977 0.95083 0.0
C846 C 0.68365 0.9808 0.94521 0.0
C847 C 0.6744 0.98756 0.91222 0.0
C848 C 0.67806 0.94711 0.95317 0.0
C849 C 0.66774 0.00192 0.96728 0.0
C850 C 0.68822 0.02105 0.98185 0.0
C851 C 0.67938 0.03965 0.00609 0.0
C852 C 0.64914 0.03794 0.01624 0.0
C853 C 0.62815 0.01818 0.00184 0.0
C854 C 0.63739 1.00054 0.97671 0.0
H855 H 0.75988 0.03564 0.48402 0.0
H856 H 0.78816 0.0497 0.39071 0.0
H857 H 0.83997 0.0324 0.40354 0.0
H858 H 0.82117 0.06711 0.51632 0.0
H859 H 0.82463 0.04173 0.54824 0.0
H860 H 0.78829 0.04694 0.5305 0.0
H861 H 0.78371 0.98885 0.52113 0.0
H862 H 0.82016 0.98337 0.53906 0.0
H863 H 0.81358 0.96918 0.50108 0.0
H864 H 0.88997 0.02393 0.42801 0.0
H865 H 0.93422 0.02648 0.46238 0.0
H866 H 0.87444 0.01778 0.54028 0.0
C867 C 0.77672 0.03369 0.46611 0.0
C868 C 0.77012 0.04347 0.43633 0.0
C869 C 0.79286 0.04193 0.41359 0.0
C870 C 0.82225 0.032 0.42065 0.0
C871 C 0.82849 0.02365 0.45056 0.0
C872 C 0.80629 0.02415 0.47293 0.0
C873 C 0.81989 0.01864 0.50409 0.0
C874 C 0.8131 0.04519 0.52604 0.0
C875 C 0.80866 0.98819 0.5171 0.0
C876 C 0.85334 0.01716 0.49602 0.0
C877 C 0.85776 0.01911 0.46493 0.0
C878 C 0.88679 0.02142 0.4523 0.0
C879 C 0.91186 0.02257 0.47197 0.0
C880 C 0.90777 0.02125 0.50386 0.0
C881 C 0.87817 0.01799 0.51591 0.0
H882 H 0.25788 0.53476 0.08372 0.0
H883 H 0.29209 0.57943 0.00241 0.0
H884 H 0.24302 0.57076 0.97724 0.0
H885 H 0.20712 0.47862 0.04491 0.0
H886 H 0.17829 0.48249 0.07385 0.0
H887 H 0.21778 0.48773 0.08352 0.0
H888 H 0.2046 0.54098 0.10568 0.0
H889 H 0.16535 0.53578 0.09518 0.0
H890 H 0.18619 0.56848 0.08168 0.0
H891 H 0.18927 0.56327 0.96272 0.0
H892 H 0.13375 0.55583 0.95928 0.0
H893 H 0.13287 0.51733 0.05003 0.0
C894 C 0.25524 0.54238 0.06048 0.0
C895 C 0.27924 0.55746 0.04503 0.0
C896 C 0.2746 0.56706 0.01461 0.0
C897 C 0.24663 0.56244 1.00009 0.0
C898 C 0.22337 0.5482 0.0162 0.0
C899 C 0.22732 0.53812 0.04565 0.0
C900 C 0.19775 0.52571 0.05859 0.0
C901 C 0.20041 0.4916 0.06561 0.0
C902 C 0.1879 0.54383 0.08695 0.0
C903 C 0.17648 0.53117 0.03204 0.0
C904 C 0.19189 0.54394 0.00778 0.0
C905 C 0.177 0.55288 0.98137 0.0
C906 C 0.14547 0.54876 0.97972 0.0
C907 C 0.12916 0.53585 0.00429 0.0
C908 C 0.14492 0.52665 0.03067 0.0
H909 H 0.26724 0.46646 0.54366 0.0
H910 H 0.27956 0.50209 0.63487 0.0
H911 H 0.33252 0.51716 0.62195 0.0
H912 H 0.3381 0.43431 0.53492 0.0
H913 H 0.34278 0.44413 0.4954 0.0
H914 H 0.30523 0.43934 0.51097 0.0
H915 H 0.29078 0.4936 0.49336 0.0
H916 H 0.3283 0.49848 0.47748 0.0
H917 H 0.31401 0.52556 0.50483 0.0
H918 H 0.38636 0.52094 0.60079 0.0
H919 H 0.43466 0.51715 0.57199 0.0
H920 H 0.38504 0.48338 0.49351 0.0
C921 C 0.28097 0.47801 0.56064 0.0
C922 C 0.26962 0.48323 0.59017 0.0
C923 C 0.28802 0.49821 0.61203 0.0
C924 C 0.31804 0.50675 0.6049 0.0
C925 C 0.32887 0.50066 0.57565 0.0
C926 C 0.31064 0.48714 0.55372 0.0
C927 C 0.32785 0.48194 0.5244 0.0
C928 C 0.32853 0.44792 0.51595 0.0
C929 C 0.31444 0.50105 0.49849 0.0
C930 C 0.35896 0.49349 0.53356 0.0
C931 C 0.35923 0.50429 0.56314 0.0
C932 C 0.3862 0.51345 0.57729 0.0
C933 C 0.4135 0.51149 0.56071 0.0
C934 C 0.41345 0.50111 0.53018 0.0
C935 C 0.38574 0.49211 0.5166 0.0
H936 H 0.92586 0.73355 0.9764 0.0
H937 H 0.98039 0.79548 0.03103 0.0
H938 H 0.00554 0.7518 0.05519 0.0
H939 H 0.92069 0.67029 0.03419 0.0
H940 H 0.92432 0.64128 0.00535 0.0
H941 H 0.90554 0.67662 0.99672 0.0
H942 H 0.94215 0.68637 0.95176 0.0
H943 H 0.96054 0.65086 0.95928 0.0
H944 H 0.98264 0.68551 0.95818 0.0
H945 H 0.03286 0.70344 0.06387 0.0
H946 H 0.05906 0.65425 0.05686 0.0
H947 H 0.98551 0.62239 0.99955 0.0
C948 C 0.94252 0.73787 0.99405 0.0
C949 C 0.95107 0.76793 0.00192 0.0
C950 C 0.97308 0.77268 0.02499 0.0
C951 C 0.9875 0.74797 0.03886 0.0
C952 C 0.97931 0.7186 0.02981 0.0
C953 C 0.95702 0.71344 0.00818 0.0
C954 C 0.95514 0.68007 0.99958 0.0
C955 C 0.9246 0.66623 0.00955 0.0
C956 C 0.96046 0.67546 0.96519 0.0
C957 C 0.98114 0.66756 0.01827 0.0
C958 C 0.99449 0.69008 0.03598 0.0
C959 C 0.02194 0.68532 0.05113 0.0
C960 C 0.03667 0.65737 0.0471 0.0
C961 C 0.02363 0.63445 0.02859 0.0
C962 C 0.99503 0.63916 0.01503 0.0
H963 H 0.49007 0.76326 0.03828 0.0
H964 H 0.39424 0.78533 0.03623 0.0
H965 H 0.40677 0.83723 0.01832 0.0
H966 H 0.51273 0.82912 0.07122 0.0
H967 H 0.54838 0.83308 0.05126 0.0
H968 H 0.53185 0.79603 0.05635 0.0
H969 H 0.53312 0.78694 0.99801 0.0
H970 H 0.54979 0.82412 0.99275 0.0
H971 H 0.51526 0.81391 0.97302 0.0
H972 H 0.42973 0.88835 0.009 0.0
H973 H 0.46093 0.935 0.01287 0.0
H974 H 0.54209 0.88031 0.02212 0.0
C975 C 0.47179 0.77875 0.03287 0.0
C976 C 0.44124 0.7704 0.03801 0.0
C977 C 0.41777 0.79142 0.032 0.0
C978 C 0.42469 0.8208 0.02167 0.0
C979 C 0.45518 0.82874 0.01762 0.0
C980 C 0.47838 0.80829 0.02305 0.0
C981 C 0.50923 0.82369 0.02164 0.0
C982 C 0.52653 0.82029 0.05192 0.0
C983 C 0.52795 0.81143 0.99475 0.0
C984 C 0.49971 0.85626 0.01628 0.0
C985 C 0.46852 0.85859 0.01304 0.0
C986 C 0.45423 0.88673 0.01069 0.0
C987 C 0.47216 0.91315 0.01267 0.0
C988 C 0.50396 0.9112 0.01707 0.0
C989 C 0.51788 0.88238 0.01817 0.0
H990 H 0.03365 0.27469 0.58993 0.0
H991 H 0.12341 0.26759 0.54905 0.0
H992 H 0.11134 0.2155 0.53209 0.0
H993 H 0.02783 0.20133 0.61718 0.0
H994 H 0.98815 0.19599 0.60824 0.0
H995 H 0.00281 0.23364 0.61526 0.0
H996 H 0.98288 0.25133 0.56279 0.0
H997 H 0.96791 0.21372 0.55566 0.0
H998 H 0.99386 0.23088 0.5289 0.0
H999 H 0.09251 0.16191 0.5266 0.0
H1000 H 0.06617 0.11248 0.52849 0.0
H1001 H 0.98612 0.1561 0.56583 0.0
C1002 C 0.05054 0.26261 0.5767 0.0
C1003 C 0.07969 0.2753 0.5713 0.0
C1004 C 0.1012 0.25824 0.55428 0.0
C1005 C 0.09446 0.22868 0.54423 0.0
C1006 C 0.06585 0.21665 0.55067 0.0
C1007 C 0.04401 0.23325 0.56598 0.0
C1008 C 0.01534 0.21461 0.57077 0.0
C1009 C 0.00813 0.21119 0.60488 0.0
C1010 C 0.9884 0.22846 0.55349 0.0
C1011 C 0.02492 0.18461 0.55672 0.0
C1012 C 0.05415 0.18627 0.54527 0.0
C1013 C 0.06913 0.16063 0.53425 0.0
C1014 C 0.05376 0.13262 0.53486 0.0
C1015 C 0.02342 0.13051 0.54548 0.0
C1016 C 0.00894 0.15702 0.55655 0.0
H1017 H 0.57262 0.26643 0.49045 0.0
H1018 H 0.65769 0.29469 0.4492 0.0
H1019 H 0.64648 0.34821 0.46227 0.0
H1020 H 0.52986 0.3235 0.46136 0.0
H1021 H 0.50554 0.32911 0.49395 0.0
H1022 H 0.52293 0.29274 0.48754 0.0
H1023 H 0.54718 0.29487 0.54128 0.0
H1024 H 0.52961 0.33128 0.54794 0.0
H1025 H 0.57018 0.32724 0.55203 0.0
H1026 H 0.62263 0.3983 0.47154 0.0
H1027 H 0.58754 0.44181 0.47645 0.0
H1028 H 0.51761 0.38189 0.51168 0.0
C1029 C 0.58933 0.28385 0.48528 0.0
C1030 C 0.61616 0.27661 0.46921 0.0
C1031 C 0.63711 0.29994 0.46171 0.0
C1032 C 0.631 0.33031 0.46918 0.0
C1033 C 0.60386 0.33692 0.48419 0.0
C1034 C 0.5834 0.31436 0.49233 0.0
C1035 C 0.55423 0.32787 0.50476 0.0
C1036 C 0.52653 0.31771 0.48576 0.0
C1037 C 0.55007 0.31983 0.53851 0.0
C1038 C 0.56089 0.36147 0.50086 0.0
C1039 C 0.58993 0.36619 0.48961 0.0
C1040 C 0.60024 0.39501 0.48129 0.0
C1041 C 0.58027 0.41957 0.48422 0.0
C1042 C 0.55056 0.41521 0.4957 0.0
C1043 C 0.54075 0.38585 0.50412 0.0
loop_
_geom_bond_atom_site_label_1
_geom_bond_atom_site_label_2
_geom_bond_distance
_geom_bond_site_symmetry_2
_ccdc_geom_bond_type
C0 C1 1.386 . S
C0 C2 1.397 . S
C0 H24 0.931 . S
C1 C0 1.386 . S
C1 C5 1.397 . S
C2 C0 1.397 . S
C2 C3 1.384 . S
C2 H25 0.930 . S
C3 C2 1.384 . S
C3 C4 1.377 . S
C3 C6 1.481 . S
C4 C3 1.377 . S
C4 C5 1.389 . S
C4 H26 0.929 . S
C5 C1 1.397 . S
C5 C4 1.389 . S
C5 H27 0.931 . S
C6 C3 1.481 . S
C6 C7 1.387 . S
C6 C11 1.390 . S
C7 C6 1.387 . S
C7 C8 1.401 . S
C7 H28 0.930 . S
C8 C7 1.401 . S
C8 C9 1.376 . S
C8 C17 1.511 . S
C9 C8 1.376 . S
C9 C10 1.392 . S
C9 H30 0.931 . S
C10 C9 1.392 . S
C10 C11 1.361 . S
C10 C12 1.500 . S
C11 C6 1.390 . S
C11 C10 1.361 . S
C11 H29 0.931 . S
C12 C10 1.500 . S
C12 C13 1.371 . S
C12 C14 1.365 . S
C13 C12 1.371 . S
C13 C23 1.386 . S
C13 H31 0.931 . S
C14 C12 1.365 . S
C14 C15 1.409 . S
C14 H32 0.929 . S
C15 C14 1.409 . S
C15 C16 1.380 . S
C15 H33 0.930 . S
C16 C15 1.380 . S
C16 C23 1.357 . S
C17 C8 1.511 . S
C17 C18 1.341 . S
C17 C19 1.371 . S
C18 C17 1.341 . S
C18 C22 1.394 . S
C18 H34 0.930 . S
C19 C17 1.371 . S
C19 C20 1.392 . S
C19 H35 0.931 . S
C20 C19 1.392 . S
C20 C21 1.331 . S
C20 H38 0.932 . S
C21 C20 1.331 . S
C21 C22 1.336 . S
C22 C18 1.394 . S
C22 C21 1.336 . S
C22 H37 0.929 . S
C23 C13 1.386 . S
C23 C16 1.357 . S
C23 H36 0.928 . S
H24 C0 0.931 . S
H25 C2 0.930 . S
H26 C4 0.929 . S
H27 C5 0.931 . S
H28 C7 0.930 . S
H29 C11 0.931 . S
H30 C9 0.931 . S
H31 C13 0.931 . S
H32 C14 0.929 . S
H33 C15 0.930 . S
H34 C18 0.930 . S
H35 C19 0.931 . S
H36 C23 0.928 . S
H37 C22 0.929 . S
H38 C20 0.932 . S
C39 C40 1.386 . S
C39 C41 1.397 . S
C39 H63 0.931 . S
C40 C39 1.386 . S
C40 C44 1.397 . S
C41 C39 1.397 . S
C41 C42 1.384 . S
C41 H64 0.930 . S
C42 C41 1.384 . S
C42 C43 1.377 . S
C42 C45 1.481 . S
C43 C42 1.377 . S
C43 C44 1.389 . S
C43 H65 0.929 . S
C44 C40 1.397 . S
C44 C43 1.389 . S
C44 H66 0.931 . S
C45 C42 1.481 . S
C45 C46 1.387 . S
C45 C50 1.390 . S
C46 C45 1.387 . S
C46 C47 1.401 . S
C46 H67 0.930 . S
C47 C46 1.401 . S
C47 C48 1.376 . S
C47 C56 1.511 . S
C48 C47 1.376 . S
C48 C49 1.392 . S
C48 H69 0.931 . S
C49 C48 1.392 . S
C49 C50 1.361 . S
C49 C51 1.500 . S
C50 C45 1.390 . S
C50 C49 1.361 . S
C50 H68 0.931 . S
C51 C49 1.500 . S
C51 C52 1.371 . S
C51 C53 1.365 . S
C52 C51 1.371 . S
C52 C62 1.386 . S
C52 H70 0.931 . S
C53 C51 1.365 . S
C53 C54 1.409 . S
C53 H71 0.929 . S
C54 C53 1.409 . S
C54 C55 1.380 . S
C54 H72 0.930 . S
C55 C54 1.380 . S
C55 C62 1.357 . S
C56 C47 1.511 . S
C56 C57 1.341 . S
C56 C58 1.371 . S
C57 C56 1.341 . S
C57 C61 1.394 . S
C57 H73 0.930 . S
C58 C56 1.371 . S
C58 C59 1.392 . S
C58 H74 0.931 . S
C59 C58 1.392 . S
C59 C60 1.331 . S
C59 H77 0.932 . S
C60 C59 1.331 . S
C60 C61 1.336 . S
C61 C57 1.394 . S
C61 C60 1.336 . S
C61 H76 0.929 . S
C62 C52 1.386 . S
C62 C55 1.357 . S
C62 H75 0.928 . S
H63 C39 0.931 . S
H64 C41 0.930 . S
H65 C43 0.929 . S
H66 C44 0.931 . S
H67 C46 0.930 . S
H68 C50 0.931 . S
H69 C48 0.931 . S
H70 C52 0.931 . S
H71 C53 0.929 . S
H72 C54 0.930 . S
H73 C57 0.930 . S
H74 C58 0.931 . S
H75 C62 0.928 . S
H76 C61 0.929 . S
H77 C59 0.932 . S
C78 C79 1.386 . S
C78 C80 1.397 . S
C78 H102 0.931 . S
C79 C78 1.386 . S
C79 C83 1.397 . S
C80 C78 1.397 . S
C80 C81 1.384 . S
C80 H103 0.930 . S
C81 C80 1.384 . S
C81 C82 1.377 . S
C81 C84 1.481 . S
C82 C81 1.377 . S
C82 C83 1.389 . S
C82 H104 0.929 . S
C83 C79 1.397 . S
C83 C82 1.389 . S
C83 H105 0.931 . S
C84 C81 1.481 . S
C84 C85 1.387 . S
C84 C89 1.390 . S
C85 C84 1.387 . S
C85 C86 1.401 . S
C85 H106 0.930 . S
C86 C85 1.401 . S
C86 C87 1.376 . S
C86 C95 1.511 . S
C87 C86 1.376 . S
C87 C88 1.392 . S
C87 H108 0.931 . S
C88 C87 1.392 . S
C88 C89 1.361 . S
C88 C90 1.500 . S
C89 C84 1.390 . S
C89 C88 1.361 . S
C89 H107 0.931 . S
C90 C88 1.500 . S
C90 C91 1.371 . S
C90 C92 1.365 . S
C91 C90 1.371 . S
C91 C101 1.386 . S
C91 H109 0.931 . S
C92 C90 1.365 . S
C92 C93 1.409 . S
C92 H110 0.929 . S
C93 C92 1.409 . S
C93 C94 1.380 . S
C93 H111 0.930 . S
C94 C93 1.380 . S
C94 C101 1.357 . S
C95 C86 1.511 . S
C95 C96 1.341 . S
C95 C97 1.371 . S
C96 C95 1.341 . S
C96 C100 1.394 . S
C96 H112 0.930 . S
C97 C95 1.371 . S
C97 C98 1.392 . S
C97 H113 0.931 . S
C98 C97 1.392 . S
C98 C99 1.331 . S
C98 H116 0.932 . S
C99 C98 1.331 . S
C99 C100 1.336 . S
C100 C96 1.394 . S
C100 C99 1.336 . S
C100 H115 0.929 . S
C101 C91 1.386 . S
C101 C94 1.357 . S
C101 H114 0.928 . S
H102 C78 0.931 . S
H103 C80 0.930 . S
H104 C82 0.929 . S
H105 C83 0.931 . S
H106 C85 0.930 . S
H107 C89 0.931 . S
H108 C87 0.931 . S
H109 C91 0.931 . S
H110 C92 0.929 . S
H111 C93 0.930 . S
H112 C96 0.930 . S
H113 C97 0.931 . S
H114 C101 0.928 . S
H115 C100 0.929 . S
H116 C98 0.932 . S
C117 C118 1.386 . S
C117 C119 1.397 . S
C117 H141 0.931 . S
C118 C117 1.386 . S
C118 C122 1.397 . S
C119 C117 1.397 . S
C119 C120 1.384 . S
C119 H142 0.930 . S
C120 C119 1.384 . S
C120 C121 1.377 . S
C120 C123 1.481 . S
C121 C120 1.377 . S
C121 C122 1.389 . S
C121 H143 0.929 . S
C122 C118 1.397 . S
C122 C121 1.389 . S
C122 H144 0.931 . S
C123 C120 1.481 . S
C123 C124 1.387 . S
C123 C128 1.390 . S
C124 C123 1.387 . S
C124 C125 1.401 . S
C124 H145 0.930 . S
C125 C124 1.401 . S
C125 C126 1.376 . S
C125 C134 1.511 . S
C126 C125 1.376 . S
C126 C127 1.392 . S
C126 H147 0.931 . S
C127 C126 1.392 . S
C127 C128 1.361 . S
C127 C129 1.500 . S
C128 C123 1.390 . S
C128 C127 1.361 . S
C128 H146 0.931 . S
C129 C127 1.500 . S
C129 C130 1.371 . S
C129 C131 1.365 . S
C130 C129 1.371 . S
C130 C140 1.386 . S
C130 H148 0.931 . S
C131 C129 1.365 . S
C131 C132 1.409 . S
C131 H149 0.929 . S
C132 C131 1.409 . S
C132 C133 1.380 . S
C132 H150 0.930 . S
C133 C132 1.380 . S
C133 C140 1.357 . S
C134 C125 1.511 . S
C134 C135 1.341 . S
C134 C136 1.371 . S
C135 C134 1.341 . S
C135 C139 1.394 . S
C135 H151 0.930 . S
C136 C134 1.371 . S
C136 C137 1.392 . S
C136 H152 0.931 . S
C137 C136 1.392 . S
C137 C138 1.331 . S
C137 H155 0.932 . S
C138 C137 1.331 . S
C138 C139 1.336 . S
C139 C135 1.394 . S
C139 C138 1.336 . S
C139 H154 0.929 . S
C140 C130 1.386 . S
C140 C133 1.357 . S
C140 H153 0.928 . S
H141 C117 0.931 . S
H142 C119 0.930 . S
H143 C121 0.929 . S
H144 C122 0.931 . S
H145 C124 0.930 . S
H146 C128 0.931 . S
H147 C126 0.931 . S
H148 C130 0.931 . S
H149 C131 0.929 . S
H150 C132 0.930 . S
H151 C135 0.930 . S
H152 C136 0.931 . S
H153 C140 0.928 . S
H154 C139 0.929 . S
H155 C137 0.932 . S
C156 C157 1.386 . S
C156 C158 1.397 . S
C156 H180 0.931 . S
C157 C156 1.386 . S
C157 C161 1.397 1_565 S
C158 C156 1.397 . S
C158 C159 1.384 . S
C158 H181 0.930 . S
C159 C158 1.384 . S
C159 C160 1.377 . S
C159 C162 1.481 . S
C160 C159 1.377 . S
C160 C161 1.389 1_565 S
C160 H182 0.929 1_565 S
C161 C157 1.397 1_545 S
C161 C160 1.389 1_545 S
C161 H183 0.931 . S
C162 C159 1.481 . S
C162 C163 1.387 . S
C162 C167 1.390 . S
C163 C162 1.387 . S
C163 C164 1.401 . S
C163 H184 0.930 . S
C164 C163 1.401 . S
C164 C165 1.376 . S
C164 C173 1.511 . S
C165 C164 1.376 . S
C165 C166 1.392 . S
C165 H186 0.931 . S
C166 C165 1.392 . S
C166 C167 1.361 . S
C166 C168 1.500 . S
C167 C162 1.390 . S
C167 C166 1.361 . S
C167 H185 0.931 . S
C168 C166 1.500 . S
C168 C169 1.371 . S
C168 C170 1.365 . S
C169 C168 1.371 . S
C169 C179 1.386 . S
C169 H187 0.931 . S
C170 C168 1.365 . S
C170 C171 1.398 1_565 S
C170 H188 0.913 1_565 S
C171 C170 1.398 1_545 S
C171 C172 1.364 1_545 S
C171 H189 0.957 . S
C172 C171 1.364 1_565 S
C172 C179 1.357 . S
C173 C164 1.511 . S
C173 C174 1.341 . S
C173 C175 1.371 . S
C174 C173 1.341 . S
C174 C178 1.394 . S
C174 H190 0.930 . S
C175 C173 1.371 . S
C175 C176 1.392 . S
C175 H191 0.931 . S
C176 C175 1.392 . S
C176 C177 1.331 . S
C176 H194 0.932 1_556 S
C177 C176 1.331 . S
C177 C178 1.336 . S
C178 C174 1.394 . S
C178 C177 1.336 . S
C178 H193 0.929 1_655 S
C179 C169 1.386 . S
C179 C172 1.357 . S
C179 H192 0.928 . S
H180 C156 0.931 . S
H181 C158 0.930 . S
H182 C160 0.929 1_545 S
H183 C161 0.931 . S
H184 C163 0.930 . S
H185 C167 0.931 . S
H186 C165 0.931 . S
H187 C169 0.931 . S
H188 C170 0.913 1_545 S
H189 C171 0.957 . S
H190 C174 0.930 . S
H191 C175 0.931 . S
H192 C179 0.928 . S
H193 C178 0.929 1_455 S
H194 C176 0.932 1_554 S
C195 C196 1.386 . S
C195 C197 1.397 . S
C195 H219 0.931 . S
C196 C195 1.386 . S
C196 C200 1.397 . S
C197 C195 1.397 . S
C197 C198 1.384 . S
C197 H220 0.930 . S
C198 C197 1.384 . S
C198 C199 1.377 . S
C198 C201 1.481 . S
C199 C198 1.377 . S
C199 C200 1.389 . S
C199 H221 0.929 . S
C200 C196 1.397 . S
C200 C199 1.389 . S
C200 H222 0.931 . S
C201 C198 1.481 . S
C201 C202 1.387 . S
C201 C206 1.390 . S
C202 C201 1.387 . S
C202 C203 1.401 . S
C202 H223 0.930 . S
C203 C202 1.401 . S
C203 C204 1.376 . S
C203 C212 1.511 . S
C204 C203 1.376 . S
C204 C205 1.392 . S
C204 H225 0.931 . S
C205 C204 1.392 . S
C205 C206 1.361 . S
C205 C207 1.500 . S
C206 C201 1.390 . S
C206 C205 1.361 . S
C206 H224 0.931 . S
C207 C205 1.500 . S
C207 C208 1.371 . S
C207 C209 1.365 . S
C208 C207 1.371 . S
C208 C218 1.386 . S
C208 H226 0.931 . S
C209 C207 1.365 . S
C209 C210 1.409 . S
C209 H227 0.929 . S
C210 C209 1.409 . S
C210 C211 1.380 . S
C210 H228 0.930 . S
C211 C210 1.380 . S
C211 C218 1.357 . S
C212 C203 1.511 . S
C212 C213 1.341 . S
C212 C214 1.371 . S
C213 C212 1.341 . S
C213 C217 1.394 . S
C213 H229 0.930 . S
C214 C212 1.371 . S
C214 C215 1.392 . S
C214 H230 0.931 . S
C215 C214 1.392 . S
C215 C216 1.331 . S
C215 H233 0.932 . S
C216 C215 1.331 . S
C216 C217 1.336 . S
C217 C213 1.394 . S
C217 C216 1.336 . S
C217 H232 0.929 . S
C218 C208 1.386 . S
C218 C211 1.357 . S
C218 H231 0.928 . S
H219 C195 0.931 . S
H220 C197 0.930 . S
H221 C199 0.929 . S
H222 C200 0.931 . S
H223 C202 0.930 . S
H224 C206 0.931 . S
H225 C204 0.931 . S
H226 C208 0.931 . S
H227 C209 0.929 . S
H228 C210 0.930 . S
H229 C213 0.930 . S
H230 C214 0.931 . S
H231 C218 0.928 . S
H232 C217 0.929 . S
H233 C215 0.932 . S
C234 C235 1.386 . S
C234 C236 1.397 . S
C234 H258 0.931 . S
C235 C234 1.386 . S
C235 C239 1.397 . S
C236 C234 1.397 . S
C236 C237 1.384 . S
C236 H259 0.930 . S
C237 C236 1.384 . S
C237 C238 1.377 . S
C237 C240 1.481 . S
C238 C237 1.377 . S
C238 C239 1.389 . S
C238 H260 0.929 . S
C239 C235 1.397 . S
C239 C238 1.389 . S
C239 H261 0.931 . S
C240 C237 1.481 . S
C240 C241 1.387 . S
C240 C245 1.390 . S
C241 C240 1.387 . S
C241 C242 1.401 . S
C241 H262 0.930 . S
C242 C241 1.401 . S
C242 C243 1.376 . S
C242 C251 1.511 . S
C243 C242 1.376 . S
C243 C244 1.392 . S
C243 H264 0.931 . S
C244 C243 1.392 . S
C244 C245 1.361 . S
C244 C246 1.500 . S
C245 C240 1.390 . S
C245 C244 1.361 . S
C245 H263 0.931 . S
C246 C244 1.500 . S
C246 C247 1.371 . S
C246 C248 1.365 . S
C247 C246 1.371 . S
C247 C257 1.386 . S
C247 H265 0.931 . S
C248 C246 1.365 . S
C248 C249 1.409 . S
C248 H266 0.929 . S
C249 C248 1.409 . S
C249 C250 1.380 . S
C249 H267 0.930 . S
C250 C249 1.380 . S
C250 C257 1.357 . S
C251 C242 1.511 . S
C251 C252 1.341 . S
C251 C253 1.371 . S
C252 C251 1.341 . S
C252 C256 1.394 . S
C252 H268 0.930 . S
C253 C251 1.371 . S
C253 C254 1.392 . S
C253 H269 0.931 . S
C254 C253 1.392 . S
C254 C255 1.331 . S
C254 H272 0.932 . S
C255 C254 1.331 . S
C255 C256 1.336 . S
C256 C252 1.394 . S
C256 C255 1.336 . S
C256 H271 0.929 . S
C257 C247 1.386 . S
C257 C250 1.357 . S
C257 H270 0.928 . S
H258 C234 0.931 . S
H259 C236 0.930 . S
H260 C238 0.929 . S
H261 C239 0.931 . S
H262 C241 0.930 . S
H263 C245 0.931 . S
H264 C243 0.931 . S
H265 C247 0.931 . S
H266 C248 0.929 . S
H267 C249 0.930 . S
H268 C252 0.930 . S
H269 C253 0.931 . S
H270 C257 0.928 . S
H271 C256 0.929 . S
H272 C254 0.932 . S
C273 C274 1.386 . S
C273 C275 1.397 . S
C273 H297 0.931 . S
C274 C273 1.386 . S
C274 C278 1.397 . S
C275 C273 1.397 . S
C275 C276 1.384 . S
C275 H298 0.930 . S
C276 C275 1.384 . S
C276 C277 1.377 . S
C276 C279 1.481 . S
C277 C276 1.377 . S
C277 C278 1.389 . S
C277 H299 0.929 . S
C278 C274 1.397 . S
C278 C277 1.389 . S
C278 H300 0.931 . S
C279 C276 1.481 . S
C279 C280 1.387 . S
C279 C284 1.390 . S
C280 C279 1.387 . S
C280 C281 1.401 . S
C280 H301 0.930 . S
C281 C280 1.401 . S
C281 C282 1.376 . S
C281 C290 1.511 . S
C282 C281 1.376 . S
C282 C283 1.392 . S
C282 H303 0.931 . S
C283 C282 1.392 . S
C283 C284 1.361 . S
C283 C285 1.500 . S
C284 C279 1.390 . S
C284 C283 1.361 . S
C284 H302 0.931 . S
C285 C283 1.500 . S
C285 C286 1.371 . S
C285 C287 1.365 . S
C286 C285 1.371 . S
C286 C296 1.386 . S
C286 H304 0.931 . S
C287 C285 1.365 . S
C287 C288 1.409 . S
C287 H305 0.929 . S
C288 C287 1.409 . S
C288 C289 1.380 . S
C288 H306 0.930 . S
C289 C288 1.380 . S
C289 C296 1.357 . S
C290 C281 1.511 . S
C290 C291 1.341 . S
C290 C292 1.371 . S
C291 C290 1.341 . S
C291 C295 1.394 . S
C291 H307 0.930 . S
C292 C290 1.371 . S
C292 C293 1.392 . S
C292 H308 0.931 . S
C293 C292 1.392 . S
C293 C294 1.331 . S
C293 H311 0.932 . S
C294 C293 1.331 . S
C294 C295 1.336 . S
C295 C291 1.394 . S
C295 C294 1.336 . S
C295 H310 0.929 . S
C296 C286 1.386 . S
C296 C289 1.357 . S
C296 H309 0.928 . S
H297 C273 0.931 . S
H298 C275 0.930 . S
H299 C277 0.929 . S
H300 C278 0.931 . S
H301 C280 0.930 . S
H302 C284 0.931 . S
H303 C282 0.931 . S
H304 C286 0.931 . S
H305 C287 0.929 . S
H306 C288 0.930 . S
H307 C291 0.930 . S
H308 C292 0.931 . S
H309 C296 0.928 . S
H310 C295 0.929 . S
H311 C293 0.932 . S
Zn312 O318 1.920 . S
Zn312 O324 1.898 . S
Zn312 O327 1.905 . S
Zn313 O321 1.905 1_565 S
Zn313 O322 1.898 . S
Zn313 O330 1.920 . S
Zn314 O317 2.080 1_455 S
Zn314 O320 2.114 . S
Zn314 O323 2.120 1_445 S
Zn314 O325 2.120 . S
Zn314 O326 2.114 1_455 S
Zn314 O329 2.080 . S
C315 O320 1.166 . S
C315 O321 1.182 . S
C316 O322 1.167 1_655 S
C316 O323 1.299 . S
O317 Zn314 2.080 1_655 S
O317 C331 1.305 . S
O318 Zn312 1.920 . S
O318 C331 1.234 . S
C319 O324 1.167 1_455 S
C319 O325 1.299 . S
O320 Zn314 2.114 . S
O320 C315 1.166 . S
O321 Zn313 1.905 1_545 S
O321 C315 1.182 . S
O322 Zn313 1.898 . S
O322 C316 1.167 1_455 S
O323 Zn314 2.120 1_665 S
O323 C316 1.299 . S
O324 Zn312 1.898 . S
O324 C319 1.167 1_655 S
O325 Zn314 2.120 . S
O325 C319 1.299 . S
O326 Zn314 2.114 1_655 S
O326 C328 1.166 . S
O327 Zn312 1.905 . S
O327 C328 1.182 . S
C328 O326 1.166 . S
C328 O327 1.182 . S
O329 Zn314 2.080 . S
O329 C332 1.305 1_545 S
O330 Zn313 1.920 . S
O330 C332 1.234 . S
C331 O317 1.305 . S
C331 O318 1.234 . S
C332 O329 1.305 1_565 S
C332 O330 1.234 . S
Zn333 O339 1.920 1_556 S
Zn333 O345 1.898 . S
Zn333 O348 1.905 . S
Zn334 O342 1.905 . S
Zn334 O343 1.898 . S
Zn334 O351 1.920 . S
Zn335 O338 2.080 . S
Zn335 O341 2.114 1_545 S
Zn335 O344 2.120 1_545 S
Zn335 O346 2.120 . S
Zn335 O347 2.114 1_544 S
Zn335 O350 2.080 . S
C336 O341 1.166 . S
C336 O342 1.182 . S
C337 O343 1.167 . S
C337 O344 1.299 . S
O338 Zn335 2.080 . S
O338 C352 1.305 . S
O339 Zn333 1.920 1_554 S
O339 C352 1.234 . S
C340 O345 1.167 . S
C340 O346 1.299 1_556 S
O341 Zn335 2.114 1_565 S
O341 C336 1.166 . S
O342 Zn334 1.905 . S
O342 C336 1.182 . S
O343 Zn334 1.898 . S
O343 C337 1.167 . S
O344 Zn335 2.120 1_565 S
O344 C337 1.299 . S
O345 Zn333 1.898 . S
O345 C340 1.167 . S
O346 Zn335 2.120 . S
O346 C340 1.299 1_554 S
O347 Zn335 2.114 1_566 S
O347 C349 1.166 . S
O348 Zn333 1.905 . S
O348 C349 1.182 1_545 S
C349 O347 1.166 . S
C349 O348 1.182 1_565 S
O350 Zn335 2.080 . S
O350 C353 1.305 . S
O351 Zn334 1.920 . S
O351 C353 1.234 1_565 S
C352 O338 1.305 . S
C352 O339 1.234 . S
C353 O350 1.305 . S
C353 O351 1.234 1_545 S
Zn354 O360 1.920 . S
Zn354 O366 1.898 . S
Zn354 O369 1.905 . S
Zn355 O363 1.905 . S
Zn355 O364 1.898 . S
Zn355 O372 1.920 . S
Zn356 O359 2.080 . S
Zn356 O362 2.114 . S
Zn356 O365 2.120 . S
Zn356 O367 2.120 . S
Zn356 O368 2.114 . S
Zn356 O371 2.080 . S
C357 O362 1.166 . S
C357 O363 1.182 . S
C358 O364 1.167 . S
C358 O365 1.299 . S
O359 Zn356 2.080 . S
O359 C373 1.305 . S
O360 Zn354 1.920 . S
O360 C373 1.234 . S
C361 O366 1.167 . S
C361 O367 1.299 . S
O362 Zn356 2.114 . S
O362 C357 1.166 . S
O363 Zn355 1.905 . S
O363 C357 1.182 . S
O364 Zn355 1.898 . S
O364 C358 1.167 . S
O365 Zn356 2.120 . S
O365 C358 1.299 . S
O366 Zn354 1.898 . S
O366 C361 1.167 . S
O367 Zn356 2.120 . S
O367 C361 1.299 . S
O368 Zn356 2.114 . S
O368 C370 1.166 . S
O369 Zn354 1.905 . S
O369 C370 1.182 . S
C370 O368 1.166 . S
C370 O369 1.182 . S
O371 Zn356 2.080 . S
O371 C374 1.305 . S
O372 Zn355 1.920 . S
O372 C374 1.234 . S
C373 O359 1.305 . S
C373 O360 1.234 . S
C374 O371 1.305 . S
C374 O372 1.234 . S
Zn375 O381 1.920 . S
Zn375 O387 1.898 . S
Zn375 O390 1.905 . S
Zn376 O384 1.905 1_655 S
Zn376 O385 1.898 . S
Zn376 O393 1.920 . S
Zn377 O380 2.080 1_554 S
Zn377 O383 2.114 . S
Zn377 O386 2.120 1_454 S
Zn377 O388 2.120 . S
Zn377 O389 2.114 1_554 S
Zn377 O392 2.080 . S
C378 O383 1.166 . S
C378 O384 1.182 . S
C379 O385 1.167 1_556 S
C379 O386 1.299 . S
O380 Zn377 2.080 1_556 S
O380 C394 1.305 . S
O381 Zn375 1.920 . S
O381 C394 1.234 . S
C382 O387 1.167 1_554 S
C382 O388 1.299 . S
O383 Zn377 2.114 . S
O383 C378 1.166 . S
O384 Zn376 1.905 1_455 S
O384 C378 1.182 . S
O385 Zn376 1.898 . S
O385 C379 1.167 1_554 S
O386 Zn377 2.120 1_656 S
O386 C379 1.299 . S
O387 Zn375 1.898 . S
O387 C382 1.167 1_556 S
O388 Zn377 2.120 . S
O388 C382 1.299 . S
O389 Zn377 2.114 1_556 S
O389 C391 1.166 . S
O390 Zn375 1.905 . S
O390 C391 1.182 . S
C391 O389 1.166 . S
C391 O390 1.182 . S
O392 Zn377 2.080 . S
O392 C395 1.305 1_455 S
O393 Zn376 1.920 . S
O393 C395 1.234 . S
C394 O380 1.305 . S
C394 O381 1.234 . S
C395 O392 1.305 1_655 S
C395 O393 1.234 . S
H396 C408 0.930 . S
H397 C410 0.930 . S
H398 C411 0.930 . S
H399 C415 0.959 . S
H400 C415 0.959 . S
H401 C415 0.961 . S
H402 C416 0.960 . S
H403 C416 0.961 . S
H404 C416 0.959 . S
H405 C419 0.929 . S
H406 C420 0.931 . S
H407 C422 0.930 . S
C408 H396 0.930 . S
C408 C409 1.399 . S
C408 C413 1.399 . S
C409 C408 1.399 . S
C409 C410 1.376 . S
C410 H397 0.930 . S
C410 C409 1.376 . S
C410 C411 1.388 . S
C411 H398 0.930 . S
C411 C410 1.388 . S
C411 C412 1.390 . S
C412 C411 1.390 . S
C412 C413 1.394 . S
C412 C418 1.465 . S
C413 C408 1.399 . S
C413 C412 1.394 . S
C413 C414 1.516 . S
C414 C413 1.516 . S
C414 C415 1.502 . S
C414 C416 1.561 . S
C414 C417 1.526 . S
C415 H399 0.959 . S
C415 H400 0.959 . S
C415 H401 0.961 . S
C415 C414 1.502 . S
C416 H402 0.960 . S
C416 H403 0.961 . S
C416 H404 0.959 . S
C416 C414 1.561 . S
C417 C414 1.526 . S
C417 C418 1.396 . S
C417 C422 1.390 . S
C418 C412 1.465 . S
C418 C417 1.396 . S
C418 C419 1.399 . S
C419 H405 0.929 . S
C419 C418 1.399 . S
C419 C420 1.385 . S
C420 H406 0.931 . S
C420 C419 1.385 . S
C420 C421 1.389 . S
C421 C420 1.389 . S
C421 C422 1.387 . S
C422 H407 0.930 . S
C422 C417 1.390 . S
C422 C421 1.387 . S
H423 C435 0.930 . S
H424 C437 0.930 . S
H425 C438 0.930 . S
H426 C442 0.959 . S
H427 C442 0.959 . S
H428 C442 0.961 . S
H429 C443 0.960 . S
H430 C443 0.961 . S
H431 C443 0.959 . S
H432 C446 0.929 . S
H433 C447 0.931 1_545 S
H434 C449 0.930 . S
C435 H423 0.930 . S
C435 C436 1.399 . S
C435 C440 1.399 . S
C436 C435 1.399 . S
C436 C437 1.376 . S
C437 H424 0.930 . S
C437 C436 1.376 . S
C437 C438 1.388 . S
C438 H425 0.930 . S
C438 C437 1.388 . S
C438 C439 1.390 . S
C439 C438 1.390 . S
C439 C440 1.394 . S
C439 C445 1.465 . S
C440 C435 1.399 . S
C440 C439 1.394 . S
C440 C441 1.516 . S
C441 C440 1.516 . S
C441 C442 1.502 . S
C441 C443 1.561 . S
C441 C444 1.526 . S
C442 H426 0.959 . S
C442 H427 0.959 . S
C442 H428 0.961 . S
C442 C441 1.502 . S
C443 H429 0.960 . S
C443 H430 0.961 . S
C443 H431 0.959 . S
C443 C441 1.561 . S
C444 C441 1.526 . S
C444 C445 1.396 . S
C444 C449 1.390 . S
C445 C439 1.465 . S
C445 C444 1.396 . S
C445 C446 1.399 . S
C446 H432 0.929 . S
C446 C445 1.399 . S
C446 C447 1.385 . S
C447 H433 0.931 1_565 S
C447 C446 1.385 . S
C447 C448 1.389 . S
C448 C447 1.389 . S
C448 C449 1.387 . S
C449 H434 0.930 . S
C449 C444 1.390 . S
C449 C448 1.387 . S
H450 C462 0.930 . S
H451 C464 0.930 . S
H452 C465 0.930 . S
H453 C469 0.959 . S
H454 C469 0.959 . S
H455 C469 0.961 . S
H456 C470 0.960 . S
H457 C470 0.961 . S
H458 C470 0.959 . S
H459 C473 0.929 . S
H460 C474 0.931 . S
H461 C476 0.930 . S
C462 H450 0.930 . S
C462 C463 1.399 . S
C462 C467 1.399 . S
C463 C462 1.399 . S
C463 C464 1.376 . S
C464 H451 0.930 . S
C464 C463 1.376 . S
C464 C465 1.388 . S
C465 H452 0.930 . S
C465 C464 1.388 . S
C465 C466 1.390 . S
C466 C465 1.390 . S
C466 C467 1.394 . S
C466 C472 1.465 . S
C467 C462 1.399 . S
C467 C466 1.394 . S
C467 C468 1.516 . S
C468 C467 1.516 . S
C468 C469 1.502 . S
C468 C470 1.561 . S
C468 C471 1.526 . S
C469 H453 0.959 . S
C469 H454 0.959 . S
C469 H455 0.961 . S
C469 C468 1.502 . S
C470 H456 0.960 . S
C470 H457 0.961 . S
C470 H458 0.959 . S
C470 C468 1.561 . S
C471 C468 1.526 . S
C471 C472 1.396 . S
C471 C476 1.390 . S
C472 C466 1.465 . S
C472 C471 1.396 . S
C472 C473 1.399 . S
C473 H459 0.929 . S
C473 C472 1.399 . S
C473 C474 1.385 . S
C474 H460 0.931 . S
C474 C473 1.385 . S
C474 C475 1.389 . S
C475 C474 1.389 . S
C475 C476 1.387 . S
C476 H461 0.930 . S
C476 C471 1.390 . S
C476 C475 1.387 . S
H477 C489 0.930 . S
H478 C491 0.930 . S
H479 C492 0.930 . S
H480 C496 0.959 . S
H481 C496 0.959 . S
H482 C496 0.961 . S
H483 C497 0.960 . S
H484 C497 0.961 . S
H485 C497 0.959 . S
H486 C500 0.929 . S
H487 C501 0.931 . S
H488 C503 0.930 . S
C489 H477 0.930 . S
C489 C490 1.399 . S
C489 C494 1.399 . S
C490 C489 1.399 . S
C490 C491 1.376 . S
C491 H478 0.930 . S
C491 C490 1.376 . S
C491 C492 1.388 . S
C492 H479 0.930 . S
C492 C491 1.388 . S
C492 C493 1.390 . S
C493 C492 1.390 . S
C493 C494 1.394 . S
C493 C499 1.465 . S
C494 C489 1.399 . S
C494 C493 1.394 . S
C494 C495 1.516 . S
C495 C494 1.516 . S
C495 C496 1.502 . S
C495 C497 1.561 . S
C495 C498 1.526 . S
C496 H480 0.959 . S
C496 H481 0.959 . S
C496 H482 0.961 . S
C496 C495 1.502 . S
C497 H483 0.960 . S
C497 H484 0.961 . S
C497 H485 0.959 . S
C497 C495 1.561 . S
C498 C495 1.526 . S
C498 C499 1.396 . S
C498 C503 1.390 . S
C499 C493 1.465 . S
C499 C498 1.396 . S
C499 C500 1.399 . S
C500 H486 0.929 . S
C500 C499 1.399 . S
C500 C501 1.385 . S
C501 H487 0.931 . S
C501 C500 1.385 . S
C501 C502 1.389 . S
C502 C501 1.389 . S
C502 C503 1.387 . S
C503 H488 0.930 . S
C503 C498 1.390 . S
C503 C502 1.387 . S
H504 C516 0.930 . S
H505 C518 0.930 . S
H506 C519 0.930 . S
H507 C523 0.959 . S
H508 C523 0.959 . S
H509 C523 0.961 . S
H510 C524 0.960 . S
H511 C524 0.961 . S
H512 C524 0.959 . S
H513 C527 0.929 . S
H514 C528 0.931 . S
H515 C530 0.930 . S
C516 H504 0.930 . S
C516 C517 1.399 . S
C516 C521 1.399 . S
C517 C516 1.399 . S
C517 C518 1.376 . S
C518 H505 0.930 . S
C518 C517 1.376 . S
C518 C519 1.388 . S
C519 H506 0.930 . S
C519 C518 1.388 . S
C519 C520 1.390 . S
C520 C519 1.390 . S
C520 C521 1.394 . S
C520 C526 1.465 . S
C521 C516 1.399 . S
C521 C520 1.394 . S
C521 C522 1.516 . S
C522 C521 1.516 . S
C522 C523 1.502 . S
C522 C524 1.561 . S
C522 C525 1.526 . S
C523 H507 0.959 . S
C523 H508 0.959 . S
C523 H509 0.961 . S
C523 C522 1.502 . S
C524 H510 0.960 . S
C524 H511 0.961 . S
C524 H512 0.959 . S
C524 C522 1.561 . S
C525 C522 1.526 . S
C525 C526 1.396 . S
C525 C530 1.390 . S
C526 C520 1.465 . S
C526 C525 1.396 . S
C526 C527 1.399 . S
C527 H513 0.929 . S
C527 C526 1.399 . S
C527 C528 1.385 . S
C528 H514 0.931 . S
C528 C527 1.385 . S
C528 C529 1.389 . S
C529 C528 1.389 . S
C529 C530 1.387 . S
C530 H515 0.930 . S
C530 C525 1.390 . S
C530 C529 1.387 . S
H531 C543 0.930 . S
H532 C545 0.930 . S
H533 C546 0.930 . S
H534 C550 0.959 . S
H535 C550 0.959 . S
H536 C550 0.961 . S
H537 C551 0.960 . S
H538 C551 0.961 . S
H539 C551 0.959 . S
H540 C554 0.929 . S
H541 C555 0.931 1_545 S
H542 C557 0.930 . S
C543 H531 0.930 . S
C543 C544 1.399 . S
C543 C548 1.399 . S
C544 C543 1.399 . S
C544 C545 1.376 . S
C545 H532 0.930 . S
C545 C544 1.376 . S
C545 C546 1.388 . S
C546 H533 0.930 . S
C546 C545 1.388 . S
C546 C547 1.390 . S
C547 C546 1.390 . S
C547 C548 1.394 . S
C547 C553 1.465 . S
C548 C543 1.399 . S
C548 C547 1.394 . S
C548 C549 1.516 . S
C549 C548 1.516 . S
C549 C550 1.502 . S
C549 C551 1.561 . S
C549 C552 1.526 . S
C550 H534 0.959 . S
C550 H535 0.959 . S
C550 H536 0.961 . S
C550 C549 1.502 . S
C551 H537 0.960 . S
C551 H538 0.961 . S
C551 H539 0.959 . S
C551 C549 1.561 . S
C552 C549 1.526 . S
C552 C553 1.396 . S
C552 C557 1.390 . S
C553 C547 1.465 . S
C553 C552 1.396 . S
C553 C554 1.399 . S
C554 H540 0.929 . S
C554 C553 1.399 . S
C554 C555 1.385 . S
C555 H541 0.931 1_565 S
C555 C554 1.385 . S
C555 C556 1.389 . S
C556 C555 1.389 . S
C556 C557 1.387 . S
C557 H542 0.930 . S
C557 C552 1.390 . S
C557 C556 1.387 . S
H558 C570 0.930 . S
H559 C572 0.930 . S
H560 C573 0.930 . S
H561 C577 0.959 . S
H562 C577 0.959 . S
H563 C577 0.961 . S
H564 C578 0.960 . S
H565 C578 0.961 . S
H566 C578 0.959 . S
H567 C581 0.929 . S
H568 C582 0.931 . S
H569 C584 0.930 . S
C570 H558 0.930 . S
C570 C571 1.399 . S
C570 C575 1.399 . S
C571 C570 1.399 . S
C571 C572 1.376 . S
C572 H559 0.930 . S
C572 C571 1.376 . S
C572 C573 1.388 . S
C573 H560 0.930 . S
C573 C572 1.388 . S
C573 C574 1.390 . S
C574 C573 1.390 . S
C574 C575 1.394 . S
C574 C580 1.465 . S
C575 C570 1.399 . S
C575 C574 1.394 . S
C575 C576 1.516 . S
C576 C575 1.516 . S
C576 C577 1.502 . S
C576 C578 1.561 . S
C576 C579 1.526 . S
C577 H561 0.959 . S
C577 H562 0.959 . S
C577 H563 0.961 . S
C577 C576 1.502 . S
C578 H564 0.960 . S
C578 H565 0.961 . S
C578 H566 0.959 . S
C578 C576 1.561 . S
C579 C576 1.526 . S
C579 C580 1.396 . S
C579 C584 1.390 . S
C580 C574 1.465 . S
C580 C579 1.396 . S
C580 C581 1.399 . S
C581 H567 0.929 . S
C581 C580 1.399 . S
C581 C582 1.385 . S
C582 H568 0.931 . S
C582 C581 1.385 . S
C582 C583 1.389 . S
C583 C582 1.389 . S
C583 C584 1.387 . S
C584 H569 0.930 . S
C584 C579 1.390 . S
C584 C583 1.387 . S
H585 C597 0.930 . S
H586 C599 0.930 . S
H587 C600 0.930 . S
H588 C604 0.959 . S
H589 C604 0.959 . S
H590 C604 0.961 . S
H591 C605 0.960 . S
H592 C605 0.961 . S
H593 C605 0.959 . S
H594 C608 0.929 . S
H595 C609 0.931 . S
H596 C611 0.930 . S
C597 H585 0.930 . S
C597 C598 1.399 . S
C597 C602 1.399 . S
C598 C597 1.399 . S
C598 C599 1.376 . S
C599 H586 0.930 . S
C599 C598 1.376 . S
C599 C600 1.388 . S
C600 H587 0.930 . S
C600 C599 1.388 . S
C600 C601 1.390 . S
C601 C600 1.390 . S
C601 C602 1.394 . S
C601 C607 1.465 . S
C602 C597 1.399 . S
C602 C601 1.394 . S
C602 C603 1.516 . S
C603 C602 1.516 . S
C603 C604 1.502 . S
C603 C605 1.561 . S
C603 C606 1.526 . S
C604 H588 0.959 . S
C604 H589 0.959 . S
C604 H590 0.961 . S
C604 C603 1.502 . S
C605 H591 0.960 . S
C605 H592 0.961 . S
C605 H593 0.959 . S
C605 C603 1.561 . S
C606 C603 1.526 . S
C606 C607 1.396 . S
C606 C611 1.390 . S
C607 C601 1.465 . S
C607 C606 1.396 . S
C607 C608 1.399 . S
C608 H594 0.929 . S
C608 C607 1.399 . S
C608 C609 1.385 . S
C609 H595 0.931 . S
C609 C608 1.385 . S
C609 C610 1.389 . S
C610 C609 1.389 . S
C610 C611 1.387 . S
C611 H596 0.930 . S
C611 C606 1.390 . S
C611 C610 1.387 . S
H612 C624 0.930 . S
H613 C626 0.930 . S
H614 C627 0.930 . S
H615 C631 0.959 . S
H616 C631 0.959 . S
H617 C631 0.961 . S
H618 C632 0.960 . S
H619 C632 0.961 . S
H620 C632 0.959 . S
H621 C635 0.929 . S
H622 C636 0.931 . S
H623 C638 0.930 . S
C624 H612 0.930 . S
C624 C625 1.399 . S
C624 C629 1.399 . S
C625 C624 1.399 . S
C625 C626 1.376 . S
C626 H613 0.930 . S
C626 C625 1.376 . S
C626 C627 1.388 . S
C627 H614 0.930 . S
C627 C626 1.388 . S
C627 C628 1.390 . S
C628 C627 1.390 . S
C628 C629 1.394 . S
C628 C634 1.465 . S
C629 C624 1.399 . S
C629 C628 1.394 . S
C629 C630 1.516 . S
C630 C629 1.516 . S
C630 C631 1.502 . S
C630 C632 1.561 . S
C630 C633 1.526 . S
C631 H615 0.959 . S
C631 H616 0.959 . S
C631 H617 0.961 . S
C631 C630 1.502 . S
C632 H618 0.960 . S
C632 H619 0.961 . S
C632 H620 0.959 . S
C632 C630 1.561 . S
C633 C630 1.526 . S
C633 C634 1.396 . S
C633 C638 1.390 . S
C634 C628 1.465 . S
C634 C633 1.396 . S
C634 C635 1.399 . S
C635 H621 0.929 . S
C635 C634 1.399 . S
C635 C636 1.385 . S
C636 H622 0.931 . S
C636 C635 1.385 . S
C636 C637 1.389 . S
C637 C636 1.389 . S
C637 C638 1.387 . S
C638 H623 0.930 . S
C638 C633 1.390 . S
C638 C637 1.387 . S
H639 C651 0.930 . S
H640 C653 0.930 . S
H641 C654 0.930 . S
H642 C658 0.959 . S
H643 C658 0.959 . S
H644 C658 0.961 . S
H645 C659 0.960 . S
H646 C659 0.961 . S
H647 C659 0.959 . S
H648 C662 0.929 . S
H649 C663 0.908 1_554 S
H650 C665 0.930 . S
C651 H639 0.930 . S
C651 C652 1.399 . S
C651 C656 1.399 . S
C652 C651 1.399 . S
C652 C653 1.376 . S
C653 H640 0.930 . S
C653 C652 1.376 . S
C653 C654 1.388 . S
C654 H641 0.930 . S
C654 C653 1.388 . S
C654 C655 1.390 . S
C655 C654 1.390 . S
C655 C656 1.394 . S
C655 C661 1.465 . S
C656 C651 1.399 . S
C656 C655 1.394 . S
C656 C657 1.516 . S
C657 C656 1.516 . S
C657 C658 1.502 . S
C657 C659 1.561 . S
C657 C660 1.526 . S
C658 H642 0.959 . S
C658 H643 0.959 . S
C658 H644 0.961 . S
C658 C657 1.502 . S
C659 H645 0.960 . S
C659 H646 0.961 . S
C659 H647 0.959 . S
C659 C657 1.561 . S
C660 C657 1.526 . S
C660 C661 1.396 . S
C660 C665 1.390 . S
C661 C655 1.465 . S
C661 C660 1.396 . S
C661 C662 1.399 . S
C662 H648 0.929 . S
C662 C661 1.399 . S
C662 C663 1.385 . S
C663 H649 0.908 1_556 S
C663 C662 1.385 . S
C663 C664 1.389 . S
C664 C663 1.389 . S
C664 C665 1.387 . S
C665 H650 0.930 . S
C665 C660 1.390 . S
C665 C664 1.387 . S
H666 C678 0.930 . S
H667 C680 0.930 . S
H668 C681 0.930 . S
H669 C685 0.959 . S
H670 C685 0.959 . S
H671 C685 0.961 . S
H672 C686 0.960 . S
H673 C686 0.961 . S
H674 C686 0.959 . S
H675 C689 0.929 1_455 S
H676 C690 0.931 1_455 S
H677 C692 0.930 . S
C678 H666 0.930 . S
C678 C679 1.399 . S
C678 C683 1.399 . S
C679 C678 1.399 . S
C679 C680 1.376 . S
C680 H667 0.930 . S
C680 C679 1.376 . S
C680 C681 1.388 . S
C681 H668 0.930 . S
C681 C680 1.388 . S
C681 C682 1.390 . S
C682 C681 1.390 . S
C682 C683 1.394 . S
C682 C688 1.465 . S
C683 C678 1.399 . S
C683 C682 1.394 . S
C683 C684 1.516 . S
C684 C683 1.516 . S
C684 C685 1.502 . S
C684 C686 1.561 . S
C684 C687 1.526 . S
C685 H669 0.959 . S
C685 H670 0.959 . S
C685 H671 0.961 . S
C685 C684 1.502 . S
C686 H672 0.960 . S
C686 H673 0.961 . S
C686 H674 0.959 . S
C686 C684 1.561 . S
C687 C684 1.526 . S
C687 C688 1.396 . S
C687 C692 1.390 . S
C688 C682 1.465 . S
C688 C687 1.396 . S
C688 C689 1.399 . S
C689 H675 0.929 1_655 S
C689 C688 1.399 . S
C689 C690 1.385 . S
C690 H676 0.931 1_655 S
C690 C689 1.385 . S
C690 C691 1.389 . S
C691 C690 1.389 . S
C691 C692 1.387 . S
C692 H677 0.930 . S
C692 C687 1.390 . S
C692 C691 1.387 . S
H693 C705 0.930 . S
H694 C707 0.930 . S
H695 C708 0.930 . S
H696 C712 0.959 . S
H697 C712 0.959 . S
H698 C712 0.961 . S
H699 C713 0.960 . S
H700 C713 0.961 . S
H701 C713 0.959 . S
H702 C716 0.929 . S
H703 C717 0.931 . S
H704 C719 0.930 . S
C705 H693 0.930 . S
C705 C706 1.399 . S
C705 C710 1.399 . S
C706 C705 1.399 . S
C706 C707 1.376 . S
C707 H694 0.930 . S
C707 C706 1.376 . S
C707 C708 1.388 . S
C708 H695 0.930 . S
C708 C707 1.388 . S
C708 C709 1.390 . S
C709 C708 1.390 . S
C709 C710 1.394 . S
C709 C715 1.465 . S
C710 C705 1.399 . S
C710 C709 1.394 . S
C710 C711 1.516 . S
C711 C710 1.516 . S
C711 C712 1.502 . S
C711 C713 1.561 . S
C711 C714 1.526 . S
C712 H696 0.959 . S
C712 H697 0.959 . S
C712 H698 0.961 . S
C712 C711 1.502 . S
C713 H699 0.960 . S
C713 H700 0.961 . S
C713 H701 0.959 . S
C713 C711 1.561 . S
C714 C711 1.526 . S
C714 C715 1.396 . S
C714 C719 1.390 . S
C715 C709 1.465 . S
C715 C714 1.396 . S
C715 C716 1.399 . S
C716 H702 0.929 . S
C716 C715 1.399 . S
C716 C717 1.385 . S
C717 H703 0.931 . S
C717 C716 1.385 . S
C717 C718 1.389 . S
C718 C717 1.389 . S
C718 C719 1.387 . S
C719 H704 0.930 . S
C719 C714 1.390 . S
C719 C718 1.387 . S
H720 C732 0.930 1_455 S
H721 C734 0.930 . S
H722 C735 0.930 . S
H723 C739 0.959 . S
H724 C739 0.959 . S
H725 C739 0.961 . S
H726 C740 0.960 . S
H727 C740 0.961 . S
H728 C740 0.959 . S
H729 C743 0.929 . S
H730 C744 0.931 . S
H731 C746 0.930 1_455 S
C732 H720 0.930 1_655 S
C732 C733 1.399 1_565 S
C732 C737 1.399 . S
C733 C732 1.399 1_545 S
C733 C734 1.376 . S
C734 H721 0.930 . S
C734 C733 1.376 . S
C734 C735 1.388 . S
C735 H722 0.930 . S
C735 C734 1.388 . S
C735 C736 1.390 . S
C736 C735 1.390 . S
C736 C737 1.394 1_545 S
C736 C742 1.465 . S
C737 C732 1.399 . S
C737 C736 1.394 1_565 S
C737 C738 1.527 . S
C738 C737 1.527 . S
C738 C739 1.465 1_655 S
C738 C740 1.584 . S
C738 C741 1.535 . S
C739 H723 0.959 . S
C739 H724 0.959 . S
C739 H725 0.961 . S
C739 C738 1.465 1_455 S
C740 H726 0.960 . S
C740 H727 0.961 . S
C740 H728 0.959 . S
C740 C738 1.584 . S
C741 C738 1.535 . S
C741 C742 1.396 1_565 S
C741 C746 1.390 . S
C742 C736 1.465 . S
C742 C741 1.396 1_545 S
C742 C743 1.399 . S
C743 H729 0.929 . S
C743 C742 1.399 . S
C743 C744 1.385 . S
C744 H730 0.931 . S
C744 C743 1.385 . S
C744 C745 1.389 . S
C745 C744 1.389 . S
C745 C746 1.387 1_545 S
C746 H731 0.930 1_655 S
C746 C741 1.390 . S
C746 C745 1.387 1_565 S
H747 C759 0.930 . S
H748 C761 0.930 . S
H749 C762 0.930 . S
H750 C766 0.959 1_545 S
H751 C766 0.959 . S
H752 C766 0.961 . S
H753 C767 0.960 . S
H754 C767 0.961 . S
H755 C767 0.959 . S
H756 C770 0.929 . S
H757 C771 0.931 . S
H758 C773 0.930 1_565 S
C759 H747 0.930 . S
C759 C760 1.399 . S
C759 C764 1.399 . S
C760 C759 1.399 . S
C760 C761 1.376 . S
C761 H748 0.930 . S
C761 C760 1.376 . S
C761 C762 1.388 . S
C762 H749 0.930 . S
C762 C761 1.388 . S
C762 C763 1.390 . S
C763 C762 1.390 . S
C763 C764 1.394 . S
C763 C769 1.465 . S
C764 C759 1.399 . S
C764 C763 1.394 . S
C764 C765 1.508 1_545 S
C765 C764 1.508 1_565 S
C765 C766 1.506 . S
C765 C767 1.570 . S
C765 C768 1.520 1_565 S
C766 H750 0.959 1_565 S
C766 H751 0.959 . S
C766 H752 0.961 . S
C766 C765 1.506 . S
C767 H753 0.960 . S
C767 H754 0.961 . S
C767 H755 0.959 . S
C767 C765 1.570 . S
C768 C765 1.520 1_545 S
C768 C769 1.396 . S
C768 C773 1.390 . S
C769 C763 1.465 . S
C769 C768 1.396 . S
C769 C770 1.399 . S
C770 H756 0.929 . S
C770 C769 1.399 . S
C770 C771 1.385 . S
C771 H757 0.931 . S
C771 C770 1.385 . S
C771 C772 1.389 . S
C772 C771 1.389 . S
C772 C773 1.387 . S
C773 H758 0.930 1_545 S
C773 C768 1.390 . S
C773 C772 1.387 . S
H774 C786 0.930 . S
H775 C788 0.930 . S
H776 C789 0.930 . S
H777 C793 0.959 . S
H778 C793 0.959 . S
H779 C793 0.961 . S
H780 C794 0.960 . S
H781 C794 0.961 . S
H782 C794 0.959 . S
H783 C797 0.929 . S
H784 C798 0.931 . S
H785 C800 0.930 . S
C786 H774 0.930 . S
C786 C787 1.399 . S
C786 C791 1.399 . S
C787 C786 1.399 . S
C787 C788 1.376 . S
C788 H775 0.930 . S
C788 C787 1.376 . S
C788 C789 1.388 . S
C789 H776 0.930 . S
C789 C788 1.388 . S
C789 C790 1.390 . S
C790 C789 1.390 . S
C790 C791 1.394 . S
C790 C796 1.465 . S
C791 C786 1.399 . S
C791 C790 1.394 . S
C791 C792 1.516 . S
C792 C791 1.516 . S
C792 C793 1.502 . S
C792 C794 1.561 . S
C792 C795 1.526 . S
C793 H777 0.959 . S
C793 H778 0.959 . S
C793 H779 0.961 . S
C793 C792 1.502 . S
C794 H780 0.960 . S
C794 H781 0.961 . S
C794 H782 0.959 . S
C794 C792 1.561 . S
C795 C792 1.526 . S
C795 C796 1.396 . S
C795 C800 1.390 . S
C796 C790 1.465 . S
C796 C795 1.396 . S
C796 C797 1.399 . S
C797 H783 0.929 . S
C797 C796 1.399 . S
C797 C798 1.385 . S
C798 H784 0.931 . S
C798 C797 1.385 . S
C798 C799 1.389 . S
C799 C798 1.389 . S
C799 C800 1.387 . S
C800 H785 0.930 . S
C800 C795 1.390 . S
C800 C799 1.387 . S
H801 C813 0.930 . S
H802 C815 0.930 . S
H803 C816 0.930 . S
H804 C820 0.959 1_655 S
H805 C820 0.956 1_655 S
H806 C820 0.961 1_655 S
H807 C821 0.960 . S
H808 C821 0.961 . S
H809 C821 0.959 . S
H810 C824 0.929 . S
H811 C825 0.931 . S
H812 C827 0.930 . S
C813 H801 0.930 . S
C813 C814 1.399 . S
C813 C818 1.399 . S
C814 C813 1.399 . S
C814 C815 1.376 . S
C815 H802 0.930 . S
C815 C814 1.376 . S
C815 C816 1.388 . S
C816 H803 0.930 . S
C816 C815 1.388 . S
C816 C817 1.390 . S
C817 C816 1.390 . S
C817 C818 1.394 . S
C817 C823 1.465 . S
C818 C813 1.399 . S
C818 C817 1.394 . S
C818 C819 1.516 . S
C819 C818 1.516 . S
C819 C820 1.502 . S
C819 C821 1.561 . S
C819 C822 1.526 . S
C820 H804 0.959 1_455 S
C820 H805 0.956 1_455 S
C820 H806 0.961 1_455 S
C820 C819 1.502 . S
C821 H807 0.960 . S
C821 H808 0.961 . S
C821 H809 0.959 . S
C821 C819 1.561 . S
C822 C819 1.526 . S
C822 C823 1.396 . S
C822 C827 1.390 . S
C823 C817 1.465 . S
C823 C822 1.396 . S
C823 C824 1.399 . S
C824 H810 0.929 . S
C824 C823 1.399 . S
C824 C825 1.385 . S
C825 H811 0.931 . S
C825 C824 1.385 . S
C825 C826 1.389 . S
C826 C825 1.389 . S
C826 C827 1.387 . S
C827 H812 0.930 . S
C827 C822 1.390 . S
C827 C826 1.387 . S
H828 C840 0.930 . S
H829 C842 0.930 . S
H830 C843 0.930 . S
H831 C847 0.959 . S
H832 C847 0.959 . S
H833 C847 0.961 . S
H834 C848 0.960 . S
H835 C848 0.961 . S
H836 C848 0.959 . S
H837 C851 0.929 . S
H838 C852 0.931 . S
H839 C854 0.922 1_556 S
C840 H828 0.930 . S
C840 C841 1.399 . S
C840 C845 1.403 . S
C841 C840 1.399 . S
C841 C842 1.376 1_566 S
C842 H829 0.930 . S
C842 C841 1.376 1_544 S
C842 C843 1.388 . S
C843 H830 0.930 . S
C843 C842 1.388 . S
C843 C844 1.390 . S
C844 C843 1.390 . S
C844 C845 1.388 1_544 S
C844 C850 1.465 . S
C845 C840 1.403 . S
C845 C844 1.388 1_566 S
C845 C846 1.518 . S
C846 C845 1.518 . S
C846 C847 1.502 . S
C846 C848 1.561 1_556 S
C846 C849 1.526 1_556 S
C847 H831 0.959 . S
C847 H832 0.959 . S
C847 H833 0.961 . S
C847 C846 1.502 . S
C848 H834 0.960 . S
C848 H835 0.961 . S
C848 H836 0.959 . S
C848 C846 1.561 1_554 S
C849 C846 1.526 1_554 S
C849 C850 1.396 1_565 S
C849 C854 1.390 . S
C850 C844 1.465 . S
C850 C849 1.396 1_545 S
C850 C851 1.399 . S
C851 H837 0.929 . S
C851 C850 1.399 . S
C851 C852 1.385 . S
C852 H838 0.931 . S
C852 C851 1.385 . S
C852 C853 1.389 1_545 S
C853 C852 1.389 1_565 S
C853 C854 1.387 . S
C854 H839 0.922 1_554 S
C854 C849 1.390 . S
C854 C853 1.387 . S
H855 C867 0.930 . S
H856 C869 0.930 . S
H857 C870 0.930 . S
H858 C874 0.959 . S
H859 C874 0.959 . S
H860 C874 0.961 . S
H861 C875 0.960 1_565 S
H862 C875 0.961 1_565 S
H863 C875 0.959 . S
H864 C878 0.929 . S
H865 C879 0.931 . S
H866 C881 0.930 . S
C867 H855 0.930 . S
C867 C868 1.399 . S
C867 C872 1.399 . S
C868 C867 1.399 . S
C868 C869 1.376 . S
C869 H856 0.930 . S
C869 C868 1.376 . S
C869 C870 1.388 . S
C870 H857 0.930 . S
C870 C869 1.388 . S
C870 C871 1.390 . S
C871 C870 1.390 . S
C871 C872 1.394 . S
C871 C877 1.465 . S
C872 C867 1.399 . S
C872 C871 1.394 . S
C872 C873 1.516 . S
C873 C872 1.516 . S
C873 C874 1.502 1_545 S
C873 C875 1.561 . S
C873 C876 1.526 . S
C874 H858 0.959 . S
C874 H859 0.959 . S
C874 H860 0.961 . S
C874 C873 1.502 1_565 S
C875 H861 0.960 1_545 S
C875 H862 0.961 1_545 S
C875 H863 0.959 . S
C875 C873 1.561 . S
C876 C873 1.526 . S
C876 C877 1.396 . S
C876 C881 1.390 . S
C877 C871 1.465 . S
C877 C876 1.396 . S
C877 C878 1.399 . S
C878 H864 0.929 . S
C878 C877 1.399 . S
C878 C879 1.385 . S
C879 H865 0.931 . S
C879 C878 1.385 . S
C879 C880 1.389 . S
C880 C879 1.389 . S
C880 C881 1.387 . S
C881 H866 0.930 . S
C881 C876 1.390 . S
C881 C880 1.387 . S
H882 C894 0.930 . S
H883 C896 0.930 1_556 S
H884 C897 0.934 . S
H885 C901 0.959 . S
H886 C901 0.959 . S
H887 C901 0.961 . S
H888 C902 0.960 . S
H889 C902 0.961 . S
H890 C902 0.959 . S
H891 C905 0.929 . S
H892 C906 0.931 . S
H893 C908 0.930 . S
C894 H882 0.930 . S
C894 C895 1.399 . S
C894 C899 1.399 . S
C895 C894 1.399 . S
C895 C896 1.376 . S
C896 H883 0.930 1_554 S
C896 C895 1.376 . S
C896 C897 1.387 1_554 S
C897 H884 0.934 . S
C897 C896 1.387 1_556 S
C897 C898 1.387 1_556 S
C898 C897 1.387 1_554 S
C898 C899 1.394 . S
C898 C904 1.465 . S
C899 C894 1.399 . S
C899 C898 1.394 . S
C899 C900 1.516 . S
C900 C899 1.516 . S
C900 C901 1.502 . S
C900 C902 1.561 . S
C900 C903 1.526 . S
C901 H885 0.959 . S
C901 H886 0.959 . S
C901 H887 0.961 . S
C901 C900 1.502 . S
C902 H888 0.960 . S
C902 H889 0.961 . S
C902 H890 0.959 . S
C902 C900 1.561 . S
C903 C900 1.526 . S
C903 C904 1.396 . S
C903 C908 1.390 . S
C904 C898 1.465 . S
C904 C903 1.396 . S
C904 C905 1.399 1_554 S
C905 H891 0.929 . S
C905 C904 1.399 1_556 S
C905 C906 1.385 . S
C906 H892 0.931 . S
C906 C905 1.385 . S
C906 C907 1.389 1_556 S
C907 C906 1.389 1_554 S
C907 C908 1.387 . S
C908 H893 0.930 . S
C908 C903 1.390 . S
C908 C907 1.387 . S
H909 C921 0.930 . S
H910 C923 0.930 . S
H911 C924 0.930 . S
H912 C928 0.959 . S
H913 C928 0.959 . S
H914 C928 0.961 . S
H915 C929 0.960 . S
H916 C929 0.961 . S
H917 C929 0.959 . S
H918 C932 0.929 . S
H919 C933 0.931 . S
H920 C935 0.930 . S
C921 H909 0.930 . S
C921 C922 1.399 . S
C921 C926 1.399 . S
C922 C921 1.399 . S
C922 C923 1.376 . S
C923 H910 0.930 . S
C923 C922 1.376 . S
C923 C924 1.388 . S
C924 H911 0.930 . S
C924 C923 1.388 . S
C924 C925 1.390 . S
C925 C924 1.390 . S
C925 C926 1.394 . S
C925 C931 1.465 . S
C926 C921 1.399 . S
C926 C925 1.394 . S
C926 C927 1.516 . S
C927 C926 1.516 . S
C927 C928 1.502 . S
C927 C929 1.561 . S
C927 C930 1.526 . S
C928 H912 0.959 . S
C928 H913 0.959 . S
C928 H914 0.961 . S
C928 C927 1.502 . S
C929 H915 0.960 . S
C929 H916 0.961 . S
C929 H917 0.959 . S
C929 C927 1.561 . S
C930 C927 1.526 . S
C930 C931 1.396 . S
C930 C935 1.390 . S
C931 C925 1.465 . S
C931 C930 1.396 . S
C931 C932 1.399 . S
C932 H918 0.929 . S
C932 C931 1.399 . S
C932 C933 1.385 . S
C933 H919 0.931 . S
C933 C932 1.385 . S
C933 C934 1.389 . S
C934 C933 1.389 . S
C934 C935 1.387 . S
C935 H920 0.930 . S
C935 C930 1.390 . S
C935 C934 1.387 . S
H936 C948 0.930 . S
H937 C950 0.930 . S
H938 C951 0.930 . S
H939 C955 0.959 . S
H940 C955 0.959 . S
H941 C955 0.961 . S
H942 C956 0.960 . S
H943 C956 0.961 . S
H944 C956 0.959 . S
H945 C959 0.929 . S
H946 C960 0.931 . S
H947 C962 0.930 . S
C948 H936 0.930 . S
C948 C949 1.399 . S
C948 C953 1.405 . S
C949 C948 1.399 . S
C949 C950 1.376 1_656 S
C950 H937 0.930 . S
C950 C949 1.376 1_454 S
C950 C951 1.388 . S
C951 H938 0.930 . S
C951 C950 1.388 . S
C951 C952 1.390 . S
C952 C951 1.390 . S
C952 C953 1.385 1_454 S
C952 C958 1.465 . S
C953 C948 1.405 . S
C953 C952 1.385 1_656 S
C953 C954 1.518 . S
C954 C953 1.518 . S
C954 C955 1.502 . S
C954 C956 1.561 1_655 S
C954 C957 1.526 1_655 S
C955 H939 0.959 . S
C955 H940 0.959 . S
C955 H941 0.961 . S
C955 C954 1.502 . S
C956 H942 0.960 . S
C956 H943 0.961 . S
C956 H944 0.959 . S
C956 C954 1.561 1_455 S
C957 C954 1.526 1_455 S
C957 C958 1.396 1_556 S
C957 C962 1.390 . S
C958 C952 1.465 . S
C958 C957 1.396 1_554 S
C958 C959 1.399 . S
C959 H945 0.929 . S
C959 C958 1.399 . S
C959 C960 1.385 . S
C960 H946 0.931 . S
C960 C959 1.385 . S
C960 C961 1.389 1_554 S
C961 C960 1.389 1_556 S
C961 C962 1.387 . S
C962 H947 0.930 . S
C962 C957 1.390 . S
C962 C961 1.387 . S
H963 C975 0.930 . S
H964 C977 0.930 . S
H965 C978 0.930 . S
H966 C982 0.959 1_554 S
H967 C982 0.959 . S
H968 C982 0.961 . S
H969 C983 0.960 . S
H970 C983 0.961 . S
H971 C983 0.959 . S
H972 C986 0.929 . S
H973 C987 0.931 . S
H974 C989 0.930 . S
C975 H963 0.930 . S
C975 C976 1.399 . S
C975 C980 1.399 . S
C976 C975 1.399 . S
C976 C977 1.376 . S
C977 H964 0.930 . S
C977 C976 1.376 . S
C977 C978 1.388 . S
C978 H965 0.930 . S
C978 C977 1.388 . S
C978 C979 1.390 . S
C979 C978 1.390 . S
C979 C980 1.394 . S
C979 C985 1.465 . S
C980 C975 1.399 . S
C980 C979 1.394 . S
C980 C981 1.516 . S
C981 C980 1.516 . S
C981 C982 1.502 1_554 S
C981 C983 1.561 1_554 S
C981 C984 1.526 . S
C982 H966 0.959 1_556 S
C982 H967 0.959 . S
C982 H968 0.961 . S
C982 C981 1.502 1_556 S
C983 H969 0.960 . S
C983 H970 0.961 . S
C983 H971 0.959 . S
C983 C981 1.561 1_556 S
C984 C981 1.526 . S
C984 C985 1.396 . S
C984 C989 1.390 . S
C985 C979 1.465 . S
C985 C984 1.396 . S
C985 C986 1.399 . S
C986 H972 0.929 . S
C986 C985 1.399 . S
C986 C987 1.385 . S
C987 H973 0.931 . S
C987 C986 1.385 . S
C987 C988 1.389 . S
C988 C987 1.389 . S
C988 C989 1.387 . S
C989 H974 0.930 . S
C989 C984 1.390 . S
C989 C988 1.387 . S
H990 C1002 0.930 . S
H991 C1004 0.930 . S
H992 C1005 0.930 . S
H993 C1009 0.959 . S
H994 C1009 0.959 . S
H995 C1009 0.961 . S
H996 C1010 0.960 . S
H997 C1010 0.961 . S
H998 C1010 0.959 . S
H999 C1013 0.929 . S
H1000 C1014 0.931 . S
H1001 C1016 0.930 . S
C1002 H990 0.930 . S
C1002 C1003 1.399 . S
C1002 C1007 1.399 . S
C1003 C1002 1.399 . S
C1003 C1004 1.376 . S
C1004 H991 0.930 . S
C1004 C1003 1.376 . S
C1004 C1005 1.388 . S
C1005 H992 0.930 . S
C1005 C1004 1.388 . S
C1005 C1006 1.390 . S
C1006 C1005 1.390 . S
C1006 C1007 1.394 . S
C1006 C1012 1.465 . S
C1007 C1002 1.399 . S
C1007 C1006 1.394 . S
C1007 C1008 1.516 . S
C1008 C1007 1.516 . S
C1008 C1009 1.502 . S
C1008 C1010 1.561 1_455 S
C1008 C1011 1.526 . S
C1009 H993 0.959 . S
C1009 H994 0.959 . S
C1009 H995 0.961 . S
C1009 C1008 1.502 . S
C1010 H996 0.960 . S
C1010 H997 0.961 . S
C1010 H998 0.959 . S
C1010 C1008 1.561 1_655 S
C1011 C1008 1.526 . S
C1011 C1012 1.396 . S
C1011 C1016 1.390 . S
C1012 C1006 1.465 . S
C1012 C1011 1.396 . S
C1012 C1013 1.399 . S
C1013 H999 0.929 . S
C1013 C1012 1.399 . S
C1013 C1014 1.385 . S
C1014 H1000 0.931 . S
C1014 C1013 1.385 . S
C1014 C1015 1.389 . S
C1015 C1014 1.389 . S
C1015 C1016 1.387 . S
C1016 H1001 0.930 . S
C1016 C1011 1.390 . S
C1016 C1015 1.387 . S
H1017 C1029 0.930 . S
H1018 C1031 0.930 . S
H1019 C1032 0.930 . S
H1020 C1036 0.959 . S
H1021 C1036 0.959 . S
H1022 C1036 0.961 . S
H1023 C1037 0.960 . S
H1024 C1037 0.961 . S
H1025 C1037 0.959 . S
H1026 C1040 0.929 . S
H1027 C1041 0.931 . S
H1028 C1043 0.930 . S
C1029 H1017 0.930 . S
C1029 C1030 1.399 . S
C1029 C1034 1.399 . S
C1030 C1029 1.399 . S
C1030 C1031 1.376 . S
C1031 H1018 0.930 . S
C1031 C1030 1.376 . S
C1031 C1032 1.388 . S
C1032 H1019 0.930 . S
C1032 C1031 1.388 . S
C1032 C1033 1.390 . S
C1033 C1032 1.390 . S
C1033 C1034 1.394 . S
C1033 C1039 1.465 . S
C1034 C1029 1.399 . S
C1034 C1033 1.394 . S
C1034 C1035 1.516 . S
C1035 C1034 1.516 . S
C1035 C1036 1.502 . S
C1035 C1037 1.561 . S
C1035 C1038 1.526 . S
C1036 H1020 0.959 . S
C1036 H1021 0.959 . S
C1036 H1022 0.961 . S
C1036 C1035 1.502 . S
C1037 H1023 0.960 . S
C1037 H1024 0.961 . S
C1037 H1025 0.959 . S
C1037 C1035 1.561 . S
C1038 C1035 1.526 . S
C1038 C1039 1.396 . S
C1038 C1043 1.390 . S
C1039 C1033 1.465 . S
C1039 C1038 1.396 . S
C1039 C1040 1.399 . S
C1040 H1026 0.929 . S
C1040 C1039 1.399 . S
C1040 C1041 1.385 . S
C1041 H1027 0.931 . S
C1041 C1040 1.385 . S
C1041 C1042 1.389 . S
C1042 C1041 1.389 . S
C1042 C1043 1.387 . S
C1043 H1028 0.930 . S
C1043 C1038 1.390 . S
C1043 C1042 1.387 . S
C409 C1 1.541 . S
C421 C315 1.400 . S
C436 C40 1.508 . S
C448 C349 1.371 . S
C475 C361 1.433 . S
C463 C99 1.501 . S
C490 C118 1.497 . S
C502 C395 1.351 . S
C529 C352 1.470 . S
C517 C16 1.536 . S
C556 C332 1.450 . S
C544 C60 1.505 . S
C583 C379 1.413 . S
C571 C79 1.499 . S
C610 C370 1.422 . S
C598 C138 1.489 . S
C625 C21 1.527 . S
C637 C378 1.472 . S
C664 C340 1.456 . S
C652 C94 1.513 . S
C679 C133 1.489 . S
C691 C316 1.323 . S
C706 C55 1.512 . S
C718 C373 1.443 . S
C745 C331 1.583 . S
C733 C157 1.716 1_545 S
C760 C196 1.710 . S
C772 C353 1.665 . S
C787 C255 1.720 . S
C799 C358 1.683 . S
C814 C289 1.721 . S
C826 C391 1.598 . S
C841 C172 1.763 . S
C853 C336 1.654 . S
C880 C328 1.624 . S
C868 C216 1.712 . S
C907 C382 1.604 . S
C895 C235 1.736 . S
C934 C374 1.601 . S
C922 C294 1.643 . S
C949 C177 1.722 . S
C961 C394 1.618 . S
C988 C337 1.645 . S
C976 C250 1.712 . S
C1015 C319 1.622 . S
C1003 C274 1.725 . S
C1030 C211 1.674 . S
C1042 C357 1.631 . S
