# Generated by pormake.
# Topology anh, (6,3)-cn, num edge types: 1
# Building blocks:
#     Node 0, Type 0, BuildingBlock: PAMTUU_clean_sbu_0, # of connection points: 6
#     Node 1, Type 0, BuildingBlock: PAMTUU_clean_sbu_0, # of connection points: 6
#     Node 2, Type 0, BuildingBlock: PAMTUU_clean_sbu_0, # of connection points: 6
#     Node 3, Type 1, BuildingBlock: QEWDON_clean_linker_0, # of connection points: 3
#     Node 4, Type 1, BuildingBlock: QEWDON_clean_linker_0, # of connection points: 3
#     Node 5, Type 1, BuildingBlock: QEWDON_clean_linker_0, # of connection points: 3
#     Node 6, Type 1, BuildingBlock: QEWDON_clean_linker_0, # of connection points: 3
#     Node 7, Type 1, BuildingBlock: QEWDON_clean_linker_0, # of connection points: 3
#     Node 8, Type 1, BuildingBlock: QEWDON_clean_linker_0, # of connection points: 3
#     Edge 9, Type (0, 1), BuildingBlock: AJUNOK_clean_linker_0, # of connection points: 2
#     Edge 10, Type (0, 1), BuildingBlock: AJUNOK_clean_linker_0, # of connection points: 2
#     Edge 11, Type (0, 1), BuildingBlock: AJUNOK_clean_linker_0, # of connection points: 2
#     Edge 12, Type (0, 1), BuildingBlock: AJUNOK_clean_linker_0, # of connection points: 2
#     Edge 13, Type (0, 1), BuildingBlock: AJUNOK_clean_linker_0, # of connection points: 2
#     Edge 14, Type (0, 1), BuildingBlock: AJUNOK_clean_linker_0, # of connection points: 2
#     Edge 15, Type (0, 1), BuildingBlock: AJUNOK_clean_linker_0, # of connection points: 2
#     Edge 16, Type (0, 1), BuildingBlock: AJUNOK_clean_linker_0, # of connection points: 2
#     Edge 17, Type (0, 1), BuildingBlock: AJUNOK_clean_linker_0, # of connection points: 2
#     Edge 18, Type (0, 1), BuildingBlock: AJUNOK_clean_linker_0, # of connection points: 2
#     Edge 19, Type (0, 1), BuildingBlock: AJUNOK_clean_linker_0, # of connection points: 2
#     Edge 20, Type (0, 1), BuildingBlock: AJUNOK_clean_linker_0, # of connection points: 2
#     Edge 21, Type (0, 1), BuildingBlock: AJUNOK_clean_linker_0, # of connection points: 2
#     Edge 22, Type (0, 1), BuildingBlock: AJUNOK_clean_linker_0, # of connection points: 2
#     Edge 23, Type (0, 1), BuildingBlock: AJUNOK_clean_linker_0, # of connection points: 2
#     Edge 24, Type (0, 1), BuildingBlock: AJUNOK_clean_linker_0, # of connection points: 2
#     Edge 25, Type (0, 1), BuildingBlock: AJUNOK_clean_linker_0, # of connection points: 2
#     Edge 26, Type (0, 1), BuildingBlock: AJUNOK_clean_linker_0, # of connection points: 2
# Relax obj value: 0.330
# Max RMSD: 0.147
# Mean RMSD: 0.116
data_MOF--net-anh--node1-PAMTUU_clean_sbu_0--node2-QEWDON_clean_linker_0--edge1-AJUNOK_clean_linker_0
_symmetry_space_group_name_H-M    P1
_symmetry_Int_Tables_number       1
_symmetry_cell_setting            triclinic
loop_
_symmetry_equiv_pos_as_xyz
'x, y, z'
_cell_length_a     24.130996
_cell_length_b     24.07779
_cell_length_c     36.69079
_cell_angle_alpha  95.110679
_cell_angle_beta   94.462014
_cell_angle_gamma 120.1374
loop_
_atom_site_label
_atom_site_type_symbol
_atom_site_fract_x
_atom_site_fract_y
_atom_site_fract_z
_atom_type_partial_charge
Tb0 Tb 0.19483 0.78838 0.14851 0.0
Tb1 Tb 0.25867 0.7011 0.16048 0.0
C2 C 0.23266 0.72985 0.07956 0.0
C3 C 1.08276 0.84508 0.16113 0.0
C4 C 0.95439 0.78583 0.17551 0.0
C5 C 0.9741 0.82451 0.14706 0.0
C6 C 1.03792 0.85398 0.14 0.0
C7 C 1.06558 0.81392 0.19251 0.0
C8 C 1.00183 0.78513 0.19992 0.0
C9 C 1.14033 0.85417 0.14557 0.0
O10 O 1.11022 0.6925 0.15815 0.0
O11 O 1.15345 0.62747 0.15093 0.0
O12 O 0.21381 0.70399 0.20919 0.0
O13 O 0.22895 0.80349 0.20658 0.0
O14 O 0.25447 0.61333 0.14781 0.0
O15 O 0.32676 0.68615 0.19187 0.0
O16 O 0.34308 0.80463 0.17219 0.0
O17 O 0.29835 0.85782 0.1448 0.0
O18 O 0.20114 0.75709 0.0923 0.0
O19 O 0.2625 0.70961 0.10155 0.0
C20 C 1.10286 0.63345 0.15563 0.0
O21 O 0.19087 0.87037 0.16922 0.0
O22 O 1.12903 0.80747 0.11978 0.0
C23 C 0.21364 0.75482 0.22452 0.0
C24 C 0.33791 0.59568 0.16857 0.0
C25 C 0.37559 0.50466 0.15074 0.0
C26 C 0.3567 0.51069 0.18539 0.0
C27 C 0.33838 0.55616 0.19427 0.0
C28 C 0.35935 0.59192 0.13454 0.0
C29 C 0.37844 0.54692 0.12578 0.0
C30 C 0.30019 0.627 0.17444 0.0
C31 C 0.35009 0.8587 0.16074 0.0
H32 H 0.93911 0.82553 0.12722 0.0
H33 H 1.05037 0.87764 0.11563 0.0
H34 H 1.09962 0.80639 0.20922 0.0
H35 H 0.98827 0.75621 0.2222 0.0
H36 H 0.35314 0.4783 0.20494 0.0
H37 H 0.32033 0.55735 0.2203 0.0
H38 H 0.35802 0.62119 0.11408 0.0
H39 H 0.39379 0.54393 0.09906 0.0
Tb40 Tb 0.64513 0.16083 0.48126 0.0
Tb41 Tb 0.79928 0.23385 0.49445 0.0
C42 C 0.72273 0.20213 0.41495 0.0
C43 C 0.47006 1.0513 0.48405 0.0
C44 C 0.36142 0.94456 0.5034 0.0
C45 C 0.35609 0.99356 0.48803 0.0
C46 C 0.40992 1.04633 0.47848 0.0
C47 C 0.47735 1.00559 0.5018 0.0
C48 C 0.42305 0.95225 0.51152 0.0
C49 C 0.5242 1.10559 0.47161 0.0
O50 O 0.66544 1.0787 0.47812 0.0
O51 O 0.77536 0.13244 0.49701 0.0
O52 O 0.77026 0.23099 0.54942 0.0
O53 O 0.66666 0.14525 0.53588 0.0
O54 O 0.886 0.28532 0.47256 0.0
O55 O 0.88763 0.26793 0.52888 0.0
O56 O 0.78046 0.31644 0.49653 0.0
O57 O 0.67119 0.26314 0.49802 0.0
O58 O 0.67576 0.20073 0.43096 0.0
O59 O 0.76897 0.19923 0.43452 0.0
C60 C 0.71904 1.07725 0.48845 0.0
O61 O 0.56145 0.15422 0.49752 0.0
O62 O 0.5567 1.09185 0.44922 0.0
C63 C 0.71827 0.18377 0.55956 0.0
C64 C 0.9549 0.37503 0.51666 0.0
C65 C 0.94184 0.48256 0.5115 0.0
C66 C 0.92926 0.45378 0.54366 0.0
C67 C 0.93553 0.39962 0.54625 0.0
C68 C 0.98335 0.41455 0.48973 0.0
C69 C 0.97569 0.4677 0.48674 0.0
C70 C 0.92056 0.30413 0.50514 0.0
C71 C 0.72681 0.31809 0.49972 0.0
H72 H 0.30948 0.98904 0.48073 0.0
H73 H 0.40409 1.08209 0.46542 0.0
H74 H 0.52439 1.01017 0.50705 0.0
H75 H 0.42873 0.91573 0.52367 0.0
H76 H 0.9069 0.46748 0.56425 0.0
H77 H 0.9157 0.37174 0.56837 0.0
H78 H 1.00028 0.39774 0.46717 0.0
H79 H 0.98801 0.49129 0.46234 0.0
Tb80 Tb 0.72374 0.59527 0.80939 0.0
Tb81 Tb 0.79769 0.74566 0.83232 0.0
C82 C 0.7558 0.68377 0.74916 0.0
C83 C 0.70648 0.43978 0.80374 0.0
C84 C 0.77545 0.37864 0.82259 0.0
C85 C 0.75536 0.37724 0.78532 0.0
C86 C 0.72098 0.40734 0.776 0.0
C87 C 0.72918 0.44379 0.84102 0.0
C88 C 0.76322 0.41316 0.85037 0.0
C89 C 0.67534 0.47617 0.79329 0.0
O90 O 0.82739 0.62233 0.80869 0.0
O91 O 0.87983 0.72711 0.83811 0.0
O92 O 0.75622 0.69777 0.87951 0.0
O93 O 0.77164 0.61497 0.8646 0.0
O94 O 0.81778 0.83877 0.82379 0.0
O95 O 0.86041 0.82456 0.8734 0.0
O96 O 0.6942 0.71977 0.82146 0.0
O97 O 0.64494 0.61186 0.82642 0.0
O98 O 0.70915 0.63489 0.76152 0.0
O99 O 0.80456 0.73002 0.77294 0.0
C100 C 0.88196 0.67509 0.82503 0.0
O101 O 0.65923 0.50182 0.82034 0.0
O102 O 0.70399 0.5166 0.77016 0.0
C103 C 0.76437 0.65134 0.88957 0.0
C104 C 0.81301 0.88909 0.87984 0.0
C105 C 0.71566 0.91228 0.90013 0.0
C106 C 0.72088 0.86166 0.9128 0.0
C107 C 0.76933 0.85024 0.90282 0.0
C108 C 0.81268 0.94424 0.87101 0.0
C109 C 0.76449 0.95595 0.88119 0.0
C110 C 0.84563 0.86301 0.85791 0.0
C111 C 0.64127 0.66501 0.82534 0.0
H112 H 0.7628 0.34942 0.7634 0.0
H113 H 0.7053 0.40491 0.74711 0.0
H114 H 0.72001 0.46985 0.86303 0.0
H115 H 0.77723 0.4137 0.87922 0.0
H116 H 0.68388 0.82726 0.92726 0.0
H117 H 0.76849 0.80731 0.91014 0.0
H118 H 0.84542 0.97442 0.85308 0.0
H119 H 0.76125 0.99481 0.87039 0.0
H120 H 0.76731 0.27907 0.24526 0.0
C121 C 0.72573 0.23381 0.2316 0.0
C122 C 0.68956 0.18565 0.25341 0.0
C123 C 0.70679 0.22567 0.19311 0.0
H124 H 0.6059 1.09234 0.2547 0.0
C125 C 0.63335 0.12723 0.23694 0.0
C126 C 0.61007 0.11402 0.19886 0.0
C127 C 0.64787 0.16426 0.17717 0.0
C128 C 0.74449 0.28344 0.17091 0.0
H129 H 0.63149 0.15464 0.14782 0.0
C130 C 0.8119 0.33784 0.18063 0.0
C131 C 0.84041 0.39164 0.15902 0.0
C132 C 0.7092 0.28618 0.13944 0.0
H133 H 0.65874 0.24987 0.13097 0.0
C134 C 0.73641 0.33671 0.11856 0.0
H135 H 0.84142 0.33885 0.2047 0.0
C136 C 0.80005 0.38792 0.12803 0.0
H137 H 0.81801 0.42548 0.11047 0.0
H138 H 0.70711 0.3366 0.09461 0.0
H139 H 0.73946 0.73568 0.5759 0.0
C140 C 0.73842 0.69269 0.56355 0.0
C141 C 0.74236 0.65163 0.58747 0.0
C142 C 0.73097 0.67774 0.52462 0.0
H143 H 0.74133 0.56309 0.59211 0.0
C144 C 0.73982 0.59408 0.57288 0.0
C145 C 0.73434 0.57503 0.53473 0.0
C146 C 0.72943 0.61761 0.5108 0.0
C147 C 0.72407 0.72431 0.49938 0.0
H148 H 0.72532 0.6033 0.48167 0.0
C149 C 0.72549 0.78497 0.51198 0.0
C150 C 0.71711 0.82403 0.48629 0.0
C151 C 0.71469 0.70703 0.46069 0.0
H152 H 0.71226 0.66357 0.44824 0.0
C153 C 0.70738 0.74471 0.43617 0.0
H154 H 0.73232 0.80191 0.54112 0.0
C155 C 0.70835 0.80156 0.44858 0.0
H156 H 0.70207 0.82857 0.42816 0.0
H157 H 0.70039 0.72917 0.40671 0.0
H158 H 0.28974 0.68076 0.90841 0.0
C159 C 0.24755 0.6793 0.89481 0.0
C160 C 0.20691 0.68968 0.91691 0.0
C161 C 0.23415 0.66658 0.85571 0.0
H162 H 1.1203 0.69502 0.91695 0.0
C163 C 1.15152 0.68813 0.89972 0.0
C164 C 1.13402 0.67642 0.86116 0.0
C165 C 0.1761 0.6656 0.83934 0.0
C166 C 0.27834 0.65091 0.83269 0.0
H167 H 0.16384 0.65802 0.80968 0.0
C168 C 0.34476 0.66613 0.84502 0.0
C169 C 0.38079 0.64795 0.82113 0.0
C170 C 0.25115 0.61619 0.7968 0.0
H171 H 0.20178 0.60008 0.78584 0.0
C172 C 0.28547 0.59906 0.77402 0.0
H173 H 0.3686 0.69248 0.87233 0.0
C174 C 0.34858 0.61476 0.78574 0.0
H175 H 0.37247 0.59983 0.76672 0.0
H176 H 0.26231 0.57242 0.74662 0.0
H177 H 1.00117 0.71455 0.33829 0.0
C178 C 1.03759 0.73293 0.36249 0.0
C179 C 1.10248 0.75486 0.35836 0.0
C180 C 1.01991 0.7327 0.39814 0.0
H181 H 0.19883 0.79301 0.38598 0.0
C182 C 1.1488 0.77537 0.38962 0.0
C183 C 1.13142 0.77331 0.4252 0.0
C184 C 1.06765 0.75454 0.42922 0.0
C185 C 0.95132 0.70142 0.40414 0.0
H186 H 1.05451 0.75459 0.45681 0.0
C187 C 0.93198 0.65943 0.43044 0.0
C188 C 0.86917 0.62953 0.43914 0.0
C189 C 0.90545 0.71185 0.38496 0.0
H190 H 0.91906 0.74409 0.3643 0.0
C191 C 0.84142 0.68063 0.39286 0.0
H192 H 0.96607 0.64809 0.44386 0.0
C193 C 0.82297 0.63897 0.41976 0.0
H194 H 0.77321 0.61363 0.42489 0.0
H195 H 0.80597 0.68836 0.37794 0.0
H196 H 0.62226 1.01708 0.69306 0.0
C197 C 0.65762 1.05332 0.71533 0.0
C198 C 0.70709 0.11321 0.70745 0.0
C199 C 0.65282 1.0411 0.75211 0.0
H200 H 0.78005 0.21045 0.73085 0.0
C201 C 0.74845 0.16187 0.73683 0.0
C202 C 0.74433 0.15055 0.77366 0.0
C203 C 0.70064 1.08814 0.78045 0.0
C204 C 0.59335 0.98635 0.76281 0.0
H205 H 0.69936 1.07931 0.80879 0.0
C206 C 0.59836 0.96228 0.79549 0.0
C207 C 0.54462 0.929 0.81377 0.0
C208 C 0.53105 0.96744 0.74544 0.0
H209 H 0.52474 0.98541 0.72037 0.0
C210 C 0.47616 0.92828 0.76178 0.0
H211 H 0.64543 0.97332 0.80845 0.0
C212 C 0.48288 0.91015 0.79637 0.0
H213 H 0.44061 0.88277 0.80967 0.0
H214 H 0.42857 0.91456 0.74841 0.0
H215 H 0.63073 0.46153 0.00688 0.0
C216 C 0.65941 0.49445 0.03198 0.0
C217 C 0.70603 0.55902 0.02984 0.0
C218 C 0.64699 0.47396 0.06666 0.0
H219 H 0.77694 0.65231 0.06025 0.0
C220 C 0.74029 0.60268 0.06215 0.0
C221 C 0.72977 0.58221 0.09677 0.0
C222 C 0.68423 0.51764 0.09897 0.0
C223 C 0.58758 0.4126 0.0698 0.0
H224 H 0.67574 0.50216 0.12588 0.0
C225 C 0.54517 0.41611 0.09238 0.0
C226 C 0.48417 0.36221 0.09331 0.0
C227 C 0.56909 0.35317 0.04832 0.0
H228 H 0.60095 0.34945 0.03032 0.0
C229 C 0.50846 0.29833 0.04971 0.0
H230 H 0.55787 0.46275 0.10748 0.0
C231 C 0.46546 0.30296 0.07169 0.0
H232 H 0.41772 0.2611 0.07135 0.0
H233 H 0.49407 0.25264 0.03295 0.0
C234 C 0.36671 0.41651 0.10468 0.0
C235 C 0.39143 0.45396 0.14006 0.0
C236 C 0.39021 0.37722 0.09117 0.0
C237 C 0.43913 0.37427 0.11265 0.0
H238 H 0.33184 0.42069 0.08647 0.0
H239 H 0.37496 0.35462 0.06251 0.0
S240 S 0.51233 0.45395 0.20897 0.0
N241 N 0.46176 0.47903 0.19784 0.0
N242 N 0.50477 0.40399 0.1725 0.0
C243 C 0.45868 0.40535 0.14946 0.0
C244 C 0.43534 0.44584 0.16314 0.0
C245 C 0.9176 0.57258 0.51708 0.0
C246 C 0.90565 0.51323 0.49871 0.0
C247 C 0.89178 0.60667 0.50059 0.0
C248 C 0.85465 0.58258 0.46514 0.0
H249 H 0.9509 0.59497 0.54263 0.0
H250 H 0.90858 0.65599 0.51304 0.0
S251 S 0.79511 0.421 0.41143 0.0
N252 N 0.84258 0.42509 0.44778 0.0
N253 N 0.79537 0.48998 0.41673 0.0
C254 C 0.83423 0.51892 0.44973 0.0
C255 C 0.86046 0.48441 0.46625 0.0
C256 C 0.59847 0.85238 0.87651 0.0
C257 C 0.65253 0.90916 0.89651 0.0
C258 C 0.55097 0.85617 0.85421 0.0
C259 C 0.55715 0.91648 0.85123 0.0
H260 H 0.59777 0.80686 0.8735 0.0
H261 H 0.51567 0.81415 0.83492 0.0
S262 S 0.6731 1.07277 0.91002 0.0
N263 N 0.69692 1.0224 0.92142 0.0
N264 N 0.60767 1.02925 0.87903 0.0
C265 C 0.60183 0.96993 0.87754 0.0
C266 C 0.65018 0.96637 0.90023 0.0
C267 C 0.87299 0.66844 0.16981 0.0
C268 C 0.88579 0.73271 0.1718 0.0
C269 C 0.81653 0.61679 0.149 0.0
C270 C 0.77139 0.62803 0.12991 0.0
H271 H 0.91006 0.65871 0.18009 0.0
H272 H 0.81206 0.56957 0.14422 0.0
S273 S 0.77084 0.78204 0.1375 0.0
N274 N 0.84009 0.80098 0.16189 0.0
N275 N 0.73426 0.70359 0.12186 0.0
C276 C 0.77816 0.68951 0.13693 0.0
C277 C 0.83532 0.74202 0.15841 0.0
C278 C 0.24514 0.88203 0.5096 0.0
C279 C 0.30122 0.88132 0.50228 0.0
C280 C 0.18622 0.84095 0.48682 0.0
C281 C 0.18155 0.79576 0.45788 0.0
H282 H 0.24931 0.92194 0.5282 0.0
H283 H 1.14719 0.85048 0.48907 0.0
S284 S 0.30517 0.75143 0.44221 0.0
N285 N 0.3426 0.8167 0.47394 0.0
N286 N 0.22993 0.73526 0.43356 0.0
C287 C 0.23271 0.78362 0.45725 0.0
C288 C 0.29325 0.82703 0.47944 0.0
C289 C 0.83921 0.3254 0.81294 0.0
C290 C 0.79238 0.33005 0.83123 0.0
C291 C 0.83003 0.26447 0.8 0.0
C292 C 0.77251 0.20722 0.80377 0.0
H293 H 0.87757 0.36796 0.80388 0.0
H294 H 0.863 0.26247 0.78223 0.0
S295 S 0.64984 0.19712 0.86285 0.0
N296 N 0.70005 0.27545 0.86372 0.0
N297 N 0.67899 0.16075 0.83728 0.0
C298 C 0.7332 0.21241 0.82893 0.0
C299 C 0.74435 0.27449 0.84329 0.0
C300 C 0.77381 1.00925 0.50057 0.0
C301 C 0.71669 1.01168 0.49113 0.0
C302 C 0.77347 0.94965 0.50223 0.0
C303 C 0.71587 0.88777 0.49527 0.0
H304 H 0.82016 1.05413 0.5059 0.0
H305 H 0.81947 0.95209 0.50753 0.0
S306 S 0.55191 0.86398 0.47045 0.0
N307 N 0.59987 0.94369 0.47575 0.0
N308 N 0.59949 0.83426 0.47864 0.0
C309 C 0.65839 0.88956 0.48659 0.0
C310 C 0.65866 0.95009 0.48476 0.0
C311 C 1.00451 0.72971 0.85056 0.0
C312 C 0.94715 0.67538 0.83054 0.0
C313 C 1.06399 0.73032 0.85833 0.0
C314 C 1.07183 0.67714 0.84626 0.0
H315 H 1.00336 0.77241 0.86135 0.0
H316 H 1.10449 0.77315 0.8749 0.0
S317 S 0.9381 0.5213 0.79306 0.0
N318 N 0.90391 0.56555 0.79897 0.0
N319 N 1.01409 0.56737 0.81302 0.0
C320 C 1.01536 0.62277 0.82563 0.0
C321 C 0.9542 0.62175 0.81801 0.0
C322 C 0.47204 0.92969 0.18932 0.0
C323 C 0.41761 0.92327 0.16722 0.0
C324 C 0.53314 0.98945 0.19767 0.0
C325 C 0.54563 1.04802 0.18438 0.0
H326 H 0.46723 0.88817 0.2012 0.0
H327 H 0.57129 0.98974 0.21545 0.0
S328 S 0.42175 1.05983 0.12404 0.0
N329 N 0.38286 0.98337 0.13125 0.0
N330 N 0.49571 1.09318 0.14663 0.0
C331 C 0.49228 1.04197 0.16134 0.0
C332 C 0.42957 0.98105 0.15303 0.0
C333 C 0.76886 0.4314 0.53728 0.0
C334 C 0.7291 0.38395 0.50662 0.0
C335 C 0.77152 0.4921 0.5448 0.0
C336 C 0.73412 0.51063 0.52245 0.0
H337 H 0.7973 0.42078 0.55648 0.0
H338 H 0.80403 0.52517 0.5689 0.0
S339 S 0.62072 0.40401 0.43802 0.0
N340 N 0.65062 0.36053 0.45331 0.0
N341 N 0.65513 0.47265 0.46716 0.0
C342 C 0.69416 0.46341 0.49135 0.0
C343 C 0.69137 0.4011 0.48379 0.0
C344 C 0.5593 0.70125 0.80696 0.0
C345 C 0.5763 0.66366 0.82768 0.0
C346 C 0.49858 0.69855 0.80689 0.0
C347 C 0.45128 0.66132 0.82925 0.0
H348 H 0.59228 0.73135 0.78914 0.0
H349 H 0.48774 0.72508 0.78805 0.0
S350 S 0.47031 0.55413 0.88975 0.0
N351 N 0.53835 0.58686 0.87146 0.0
N352 N 0.42767 0.58467 0.87265 0.0
C353 C 0.46831 0.62462 0.85082 0.0
C354 C 0.52937 0.62541 0.84988 0.0
C355 C 0.97929 0.573 0.16148 0.0
C356 C 1.03713 0.57171 0.15981 0.0
C357 C 0.91841 0.51636 0.1641 0.0
C358 C 0.90996 0.45354 0.16571 0.0
H359 H 0.98049 0.61825 0.15984 0.0
H360 H 0.87639 0.52158 0.16375 0.0
S361 S 1.04553 0.4217 0.16499 0.0
N362 N 1.08083 0.50007 0.16221 0.0
N363 N 0.96829 0.39604 0.16677 0.0
C364 C 0.96778 0.45194 0.16549 0.0
C365 C 1.03004 0.50967 0.16263 0.0
C366 C 0.22011 0.76077 0.01699 0.0
C367 C 0.2331 0.72179 0.03848 0.0
C368 C 0.21456 0.75162 0.9782 0.0
C369 C 0.22102 0.70253 0.95859 0.0
H370 H 0.21338 0.7986 0.03022 0.0
H371 H 0.20402 0.78291 0.96334 0.0
S372 S 0.25638 0.58743 0.00134 0.0
N373 N 0.25433 0.63307 0.03698 0.0
N374 N 0.24233 0.61484 0.96411 0.0
C375 C 0.23581 0.6642 0.97969 0.0
C376 C 0.24212 0.67399 0.01946 0.0
C377 C 0.75145 0.18059 0.35195 0.0
C378 C 0.72073 0.20483 0.37408 0.0
C379 C 0.74354 0.17672 0.31297 0.0
C380 C 0.70561 0.19802 0.29468 0.0
H381 H 0.77971 0.1621 0.36465 0.0
H382 H 0.76576 0.15526 0.29695 0.0
S383 S 0.61961 0.27071 0.33936 0.0
N384 N 0.65401 0.25433 0.37413 0.0
N385 N 0.63994 0.24708 0.30163 0.0
C386 C 0.67694 0.22464 0.31646 0.0
C387 C 0.68439 0.22815 0.35589 0.0
C388 C 0.70097 0.62679 0.68495 0.0
C389 C 0.75273 0.68179 0.70793 0.0
C390 C 0.69755 0.61889 0.64635 0.0
C391 C 0.74514 0.66568 0.62844 0.0
H392 H 0.66303 0.58823 0.69676 0.0
H393 H 0.65736 0.57489 0.63029 0.0
S394 S 0.88923 0.82022 0.67456 0.0
N395 N 0.85193 0.78529 0.70912 0.0
N396 N 0.8448 0.77041 0.6363 0.0
C397 C 0.79612 0.72206 0.65061 0.0
C398 C 0.80007 0.73001 0.6903 0.0
C399 C 0.65805 0.13492 0.61133 0.0
C400 C 0.7177 0.16975 0.598 0.0
C401 C 0.65479 0.11548 0.64633 0.0
C402 C 0.71102 0.1295 0.66925 0.0
H403 H 0.61327 0.12258 0.5946 0.0
H404 H 0.60797 1.09036 0.65573 0.0
S405 S 0.87882 0.21591 0.64648 0.0
N406 N 0.83411 0.21582 0.61002 0.0
N407 N 0.82799 0.17793 0.67551 0.0
C408 C 0.77097 0.16362 0.65607 0.0
C409 C 0.77434 0.18417 0.62059 0.0
C410 C 0.71991 0.65045 0.94905 0.0
C411 C 0.75406 0.63161 0.92658 0.0
C412 C 0.70366 0.62607 -0.01759 0.0
C413 C 0.72047 0.58171 -0.00602 0.0
H414 H 0.70439 0.68302 0.94048 0.0
H415 H 0.67735 0.64148 -0.00088 0.0
S416 S 0.81579 0.52256 0.94766 0.0
N417 N 0.80894 0.57017 0.92021 0.0
N418 N 0.77657 0.52348 -0.0176 0.0
C419 C 0.75588 0.56382 0.97244 0.0
C420 C 0.7732 0.58908 0.93884 0.0
C421 C 0.2012 0.81175 0.28046 0.0
C422 C 0.18451 0.75312 0.25858 0.0
C423 C 0.17183 0.81204 0.31182 0.0
C424 C 1.1237 0.75384 0.32187 0.0
H425 H 0.23793 0.85776 0.27362 0.0
H426 H 0.18774 0.85802 0.32881 0.0
S427 S 1.05919 0.58767 0.27266 0.0
N428 N 1.11461 0.63534 0.24835 0.0
N429 N 1.05894 0.63639 0.30724 0.0
C430 C 1.10504 0.69504 0.29974 0.0
C431 C 1.13569 0.69454 0.26812 0.0
loop_
_geom_bond_atom_site_label_1
_geom_bond_atom_site_label_2
_geom_bond_distance
_geom_bond_site_symmetry_2
_ccdc_geom_bond_type
Tb0 C9 2.764 1_455 S
Tb0 O10 2.325 1_455 S
Tb0 O13 2.303 . S
Tb0 O17 2.322 . S
Tb0 O18 2.349 . S
Tb0 O21 2.415 1_455 S
Tb0 O22 2.399 1_455 S
Tb1 O11 2.322 1_455 S
Tb1 O12 2.349 . S
Tb1 O14 2.415 . S
Tb1 O15 2.399 . S
Tb1 O16 2.325 . S
Tb1 O19 2.303 . S
Tb1 C30 2.764 . S
C2 O18 1.261 . S
C2 O19 1.257 . S
C3 C6 1.358 . S
C3 C7 1.332 . S
C3 C9 1.504 . S
C4 C5 1.373 . S
C4 C8 1.308 . S
C5 C4 1.373 . S
C5 C6 1.429 . S
C5 H32 0.932 . S
C6 C3 1.358 . S
C6 C5 1.429 . S
C6 H33 0.930 . S
C7 C3 1.332 . S
C7 C8 1.394 . S
C7 H34 0.932 . S
C8 C4 1.308 . S
C8 C7 1.394 . S
C8 H35 0.929 . S
C9 Tb0 2.764 1_655 S
C9 C3 1.504 . S
C9 O21 1.239 . S
C9 O22 1.263 . S
O10 Tb0 2.325 1_655 S
O10 C20 1.236 . S
O11 Tb1 2.322 1_655 S
O11 C20 1.257 . S
O12 Tb1 2.349 . S
O12 C23 1.261 . S
O13 Tb0 2.303 . S
O13 C23 1.257 . S
O14 Tb1 2.415 . S
O14 C30 1.239 . S
O15 Tb1 2.399 . S
O15 C30 1.263 . S
O16 Tb1 2.325 . S
O16 C31 1.236 . S
O17 Tb0 2.322 . S
O17 C31 1.257 . S
O18 Tb0 2.349 . S
O18 C2 1.261 . S
O19 Tb1 2.303 . S
O19 C2 1.257 . S
C20 O10 1.236 . S
C20 O11 1.257 . S
O21 Tb0 2.415 1_655 S
O21 C9 1.239 . S
O22 Tb0 2.399 1_655 S
O22 C9 1.263 . S
C23 O12 1.261 . S
C23 O13 1.257 . S
C24 C27 1.358 . S
C24 C28 1.332 . S
C24 C30 1.504 . S
C25 C26 1.373 . S
C25 C29 1.308 . S
C26 C25 1.373 . S
C26 C27 1.429 . S
C26 H36 0.932 . S
C27 C24 1.358 . S
C27 C26 1.429 . S
C27 H37 0.930 . S
C28 C24 1.332 . S
C28 C29 1.394 . S
C28 H38 0.932 . S
C29 C25 1.308 . S
C29 C28 1.394 . S
C29 H39 0.929 . S
C30 Tb1 2.764 . S
C30 O14 1.239 . S
C30 O15 1.263 . S
C30 C24 1.504 . S
C31 O16 1.236 . S
C31 O17 1.257 . S
H32 C5 0.932 . S
H33 C6 0.930 . S
H34 C7 0.932 . S
H35 C8 0.929 . S
H36 C26 0.932 . S
H37 C27 0.930 . S
H38 C28 0.932 . S
H39 C29 0.929 . S
Tb40 C49 2.764 1_545 S
Tb40 O50 2.325 1_545 S
Tb40 O53 2.303 . S
Tb40 O57 2.322 . S
Tb40 O58 2.349 . S
Tb40 O61 2.415 1_545 S
Tb40 O62 2.399 1_545 S
Tb41 O51 2.322 . S
Tb41 O52 2.349 . S
Tb41 O54 2.415 . S
Tb41 O55 2.399 . S
Tb41 O56 2.325 . S
Tb41 O59 2.303 . S
Tb41 C70 2.764 . S
C42 O58 1.261 . S
C42 O59 1.257 . S
C43 C46 1.358 . S
C43 C47 1.332 . S
C43 C49 1.504 . S
C44 C45 1.373 . S
C44 C48 1.308 . S
C45 C44 1.373 . S
C45 C46 1.429 . S
C45 H72 0.932 . S
C46 C43 1.358 . S
C46 C45 1.429 . S
C46 H73 0.930 . S
C47 C43 1.332 . S
C47 C48 1.394 . S
C47 H74 0.932 . S
C48 C44 1.308 . S
C48 C47 1.394 . S
C48 H75 0.929 . S
C49 Tb40 2.764 1_565 S
C49 C43 1.504 . S
C49 O61 1.239 . S
C49 O62 1.263 . S
O50 Tb40 2.325 1_565 S
O50 C60 1.236 . S
O51 Tb41 2.322 . S
O51 C60 1.257 1_545 S
O52 Tb41 2.349 . S
O52 C63 1.261 . S
O53 Tb40 2.303 . S
O53 C63 1.257 . S
O54 Tb41 2.415 . S
O54 C70 1.239 . S
O55 Tb41 2.399 . S
O55 C70 1.263 . S
O56 Tb41 2.325 . S
O56 C71 1.236 . S
O57 Tb40 2.322 . S
O57 C71 1.257 . S
O58 Tb40 2.349 . S
O58 C42 1.261 . S
O59 Tb41 2.303 . S
O59 C42 1.257 . S
C60 O50 1.236 . S
C60 O51 1.257 1_565 S
O61 Tb40 2.415 1_565 S
O61 C49 1.239 . S
O62 Tb40 2.399 1_565 S
O62 C49 1.263 . S
C63 O52 1.261 . S
C63 O53 1.257 . S
C64 C67 1.358 . S
C64 C68 1.332 . S
C64 C70 1.504 . S
C65 C66 1.373 . S
C65 C69 1.308 . S
C66 C65 1.373 . S
C66 C67 1.429 . S
C66 H76 0.932 . S
C67 C64 1.358 . S
C67 C66 1.429 . S
C67 H77 0.930 . S
C68 C64 1.332 . S
C68 C69 1.394 . S
C68 H78 0.932 . S
C69 C65 1.308 . S
C69 C68 1.394 . S
C69 H79 0.929 . S
C70 Tb41 2.764 . S
C70 O54 1.239 . S
C70 O55 1.263 . S
C70 C64 1.504 . S
C71 O56 1.236 . S
C71 O57 1.257 . S
H72 C45 0.932 . S
H73 C46 0.930 . S
H74 C47 0.932 . S
H75 C48 0.929 . S
H76 C66 0.932 . S
H77 C67 0.930 . S
H78 C68 0.932 . S
H79 C69 0.929 . S
Tb80 C89 2.764 . S
Tb80 O90 2.325 . S
Tb80 O93 2.303 . S
Tb80 O97 2.322 . S
Tb80 O98 2.349 . S
Tb80 O101 2.415 . S
Tb80 O102 2.399 . S
Tb81 O91 2.322 . S
Tb81 O92 2.349 . S
Tb81 O94 2.415 . S
Tb81 O95 2.399 . S
Tb81 O96 2.325 . S
Tb81 O99 2.303 . S
Tb81 C110 2.764 . S
C82 O98 1.261 . S
C82 O99 1.257 . S
C83 C86 1.358 . S
C83 C87 1.332 . S
C83 C89 1.504 . S
C84 C85 1.373 . S
C84 C88 1.308 . S
C85 C84 1.373 . S
C85 C86 1.429 . S
C85 H112 0.932 . S
C86 C83 1.358 . S
C86 C85 1.429 . S
C86 H113 0.930 . S
C87 C83 1.332 . S
C87 C88 1.394 . S
C87 H114 0.932 . S
C88 C84 1.308 . S
C88 C87 1.394 . S
C88 H115 0.929 . S
C89 Tb80 2.764 . S
C89 C83 1.504 . S
C89 O101 1.239 . S
C89 O102 1.263 . S
O90 Tb80 2.325 . S
O90 C100 1.236 . S
O91 Tb81 2.322 . S
O91 C100 1.257 . S
O92 Tb81 2.349 . S
O92 C103 1.261 . S
O93 Tb80 2.303 . S
O93 C103 1.257 . S
O94 Tb81 2.415 . S
O94 C110 1.239 . S
O95 Tb81 2.399 . S
O95 C110 1.263 . S
O96 Tb81 2.325 . S
O96 C111 1.236 . S
O97 Tb80 2.322 . S
O97 C111 1.257 . S
O98 Tb80 2.349 . S
O98 C82 1.261 . S
O99 Tb81 2.303 . S
O99 C82 1.257 . S
C100 O90 1.236 . S
C100 O91 1.257 . S
O101 Tb80 2.415 . S
O101 C89 1.239 . S
O102 Tb80 2.399 . S
O102 C89 1.263 . S
C103 O92 1.261 . S
C103 O93 1.257 . S
C104 C107 1.358 . S
C104 C108 1.332 . S
C104 C110 1.504 . S
C105 C106 1.373 . S
C105 C109 1.308 . S
C106 C105 1.373 . S
C106 C107 1.429 . S
C106 H116 0.932 . S
C107 C104 1.358 . S
C107 C106 1.429 . S
C107 H117 0.930 . S
C108 C104 1.332 . S
C108 C109 1.394 . S
C108 H118 0.932 . S
C109 C105 1.308 . S
C109 C108 1.394 . S
C109 H119 0.929 . S
C110 Tb81 2.764 . S
C110 O94 1.239 . S
C110 O95 1.263 . S
C110 C104 1.504 . S
C111 O96 1.236 . S
C111 O97 1.257 . S
H112 C85 0.932 . S
H113 C86 0.930 . S
H114 C87 0.932 . S
H115 C88 0.929 . S
H116 C106 0.932 . S
H117 C107 0.930 . S
H118 C108 0.932 . S
H119 C109 0.929 . S
H120 C121 0.949 . S
C121 H120 0.949 . S
C121 C122 1.395 . S
C121 C123 1.391 . S
C122 C121 1.395 . S
C122 C125 1.390 . S
C123 C121 1.391 . S
C123 C127 1.387 . S
C123 C128 1.491 . S
H124 C125 0.950 1_565 S
C125 C122 1.390 . S
C125 H124 0.950 1_545 S
C125 C126 1.378 1_545 S
C126 C125 1.378 1_565 S
C126 C127 1.409 1_565 S
C127 C123 1.387 . S
C127 C126 1.409 1_545 S
C127 H129 0.951 . S
C128 C123 1.491 . S
C128 C130 1.382 . S
C128 C132 1.404 . S
H129 C127 0.951 . S
C130 C128 1.382 . S
C130 C131 1.390 . S
C130 H135 0.949 . S
C131 C130 1.390 . S
C131 C136 1.399 . S
C132 C128 1.404 . S
C132 H133 0.950 . S
C132 C134 1.375 . S
H133 C132 0.950 . S
C134 C132 1.375 . S
C134 C136 1.382 . S
C134 H138 0.950 . S
H135 C130 0.949 . S
C136 C131 1.399 . S
C136 C134 1.382 . S
C136 H137 0.952 . S
H137 C136 0.952 . S
H138 C134 0.950 . S
H139 C140 0.949 . S
C140 H139 0.949 . S
C140 C141 1.395 . S
C140 C142 1.391 . S
C141 C140 1.395 . S
C141 C144 1.390 . S
C142 C140 1.391 . S
C142 C146 1.387 . S
C142 C147 1.491 . S
H143 C144 0.950 . S
C144 C141 1.390 . S
C144 H143 0.950 . S
C144 C145 1.378 . S
C145 C144 1.378 . S
C145 C146 1.409 . S
C146 C142 1.387 . S
C146 C145 1.409 . S
C146 H148 0.951 . S
C147 C142 1.491 . S
C147 C149 1.382 . S
C147 C151 1.404 . S
H148 C146 0.951 . S
C149 C147 1.382 . S
C149 C150 1.390 . S
C149 H154 0.949 . S
C150 C149 1.390 . S
C150 C155 1.399 . S
C151 C147 1.404 . S
C151 H152 0.950 . S
C151 C153 1.375 . S
H152 C151 0.950 . S
C153 C151 1.375 . S
C153 C155 1.382 . S
C153 H157 0.950 . S
H154 C149 0.949 . S
C155 C150 1.399 . S
C155 C153 1.382 . S
C155 H156 0.952 . S
H156 C155 0.952 . S
H157 C153 0.950 . S
H158 C159 0.949 . S
C159 H158 0.949 . S
C159 C160 1.395 . S
C159 C161 1.391 . S
C160 C159 1.395 . S
C160 C163 1.390 1_455 S
C161 C159 1.391 . S
C161 C165 1.387 . S
C161 C166 1.491 . S
H162 C163 0.950 . S
C163 C160 1.390 1_655 S
C163 H162 0.950 . S
C163 C164 1.378 . S
C164 C163 1.378 . S
C164 C165 1.409 1_655 S
C165 C161 1.387 . S
C165 C164 1.409 1_455 S
C165 H167 0.951 . S
C166 C161 1.491 . S
C166 C168 1.382 . S
C166 C170 1.404 . S
H167 C165 0.951 . S
C168 C166 1.382 . S
C168 C169 1.390 . S
C168 H173 0.949 . S
C169 C168 1.390 . S
C169 C174 1.399 . S
C170 C166 1.404 . S
C170 H171 0.950 . S
C170 C172 1.375 . S
H171 C170 0.950 . S
C172 C170 1.375 . S
C172 C174 1.382 . S
C172 H176 0.950 . S
H173 C168 0.949 . S
C174 C169 1.399 . S
C174 C172 1.382 . S
C174 H175 0.952 . S
H175 C174 0.952 . S
H176 C172 0.950 . S
H177 C178 0.949 . S
C178 H177 0.949 . S
C178 C179 1.395 1_655 S
C178 C180 1.391 1_655 S
C179 C178 1.395 1_455 S
C179 C182 1.390 . S
C180 C178 1.391 1_455 S
C180 C184 1.387 . S
C180 C185 1.491 1_455 S
H181 C182 0.950 . S
C182 C179 1.390 . S
C182 H181 0.950 . S
C182 C183 1.378 . S
C183 C182 1.378 . S
C183 C184 1.409 . S
C184 C180 1.387 . S
C184 C183 1.409 . S
C184 H186 0.951 . S
C185 C180 1.491 1_655 S
C185 C187 1.382 . S
C185 C189 1.404 . S
H186 C184 0.951 . S
C187 C185 1.382 . S
C187 C188 1.390 . S
C187 H192 0.949 . S
C188 C187 1.390 . S
C188 C193 1.399 . S
C189 C185 1.404 . S
C189 H190 0.950 . S
C189 C191 1.375 . S
H190 C189 0.950 . S
C191 C189 1.375 . S
C191 C193 1.382 . S
C191 H195 0.950 . S
H192 C187 0.949 . S
C193 C188 1.399 . S
C193 C191 1.382 . S
C193 H194 0.952 . S
H194 C193 0.952 . S
H195 C191 0.950 . S
H196 C197 0.949 1_565 S
C197 H196 0.949 1_545 S
C197 C198 1.395 . S
C197 C199 1.391 . S
C198 C197 1.395 . S
C198 C201 1.390 . S
C199 C197 1.391 . S
C199 C203 1.387 . S
C199 C204 1.491 1_545 S
H200 C201 0.950 . S
C201 C198 1.390 . S
C201 H200 0.950 . S
C201 C202 1.378 . S
C202 C201 1.378 . S
C202 C203 1.409 . S
C203 C199 1.387 . S
C203 C202 1.409 . S
C203 H205 0.951 . S
C204 C199 1.491 1_565 S
C204 C206 1.382 . S
C204 C208 1.404 . S
H205 C203 0.951 . S
C206 C204 1.382 . S
C206 C207 1.390 . S
C206 H211 0.949 . S
C207 C206 1.390 . S
C207 C212 1.399 . S
C208 C204 1.404 . S
C208 H209 0.950 . S
C208 C210 1.375 . S
H209 C208 0.950 . S
C210 C208 1.375 . S
C210 C212 1.382 . S
C210 H214 0.950 . S
H211 C206 0.949 . S
C212 C207 1.399 . S
C212 C210 1.382 . S
C212 H213 0.952 . S
H213 C212 0.952 . S
H214 C210 0.950 . S
H215 C216 0.949 . S
C216 H215 0.949 . S
C216 C217 1.395 . S
C216 C218 1.391 . S
C217 C216 1.395 . S
C217 C220 1.390 . S
C218 C216 1.391 . S
C218 C222 1.387 . S
C218 C223 1.491 . S
H219 C220 0.950 . S
C220 C217 1.390 . S
C220 H219 0.950 . S
C220 C221 1.378 . S
C221 C220 1.378 . S
C221 C222 1.409 . S
C222 C218 1.387 . S
C222 C221 1.409 . S
C222 H224 0.951 . S
C223 C218 1.491 . S
C223 C225 1.382 . S
C223 C227 1.404 . S
H224 C222 0.951 . S
C225 C223 1.382 . S
C225 C226 1.390 . S
C225 H230 0.949 . S
C226 C225 1.390 . S
C226 C231 1.399 . S
C227 C223 1.404 . S
C227 H228 0.950 . S
C227 C229 1.375 . S
H228 C227 0.950 . S
C229 C227 1.375 . S
C229 C231 1.382 . S
C229 H233 0.950 . S
H230 C225 0.949 . S
C231 C226 1.399 . S
C231 C229 1.382 . S
C231 H232 0.952 . S
H232 C231 0.952 . S
H233 C229 0.950 . S
C234 C235 1.369 . S
C234 C236 1.419 . S
C234 H238 0.930 . S
C235 C234 1.369 . S
C235 C244 1.429 . S
C236 C234 1.419 . S
C236 C237 1.363 . S
C236 H239 0.929 . S
C237 C236 1.363 . S
C237 C243 1.428 . S
H238 C234 0.930 . S
H239 C236 0.929 . S
S240 N241 1.613 . S
S240 N242 1.610 . S
N241 S240 1.613 . S
N241 C244 1.350 . S
N242 S240 1.610 . S
N242 C243 1.351 . S
C243 C237 1.428 . S
C243 N242 1.351 . S
C243 C244 1.434 . S
C244 C235 1.429 . S
C244 N241 1.350 . S
C244 C243 1.434 . S
C245 C246 1.369 . S
C245 C247 1.419 . S
C245 H249 0.930 . S
C246 C245 1.369 . S
C246 C255 1.429 . S
C247 C245 1.419 . S
C247 C248 1.363 . S
C247 H250 0.929 . S
C248 C247 1.363 . S
C248 C254 1.428 . S
H249 C245 0.930 . S
H250 C247 0.929 . S
S251 N252 1.613 . S
S251 N253 1.610 . S
N252 S251 1.613 . S
N252 C255 1.350 . S
N253 S251 1.610 . S
N253 C254 1.351 . S
C254 C248 1.428 . S
C254 N253 1.351 . S
C254 C255 1.434 . S
C255 C246 1.429 . S
C255 N252 1.350 . S
C255 C254 1.434 . S
C256 C257 1.369 . S
C256 C258 1.419 . S
C256 H260 0.930 . S
C257 C256 1.369 . S
C257 C266 1.429 . S
C258 C256 1.419 . S
C258 C259 1.363 . S
C258 H261 0.929 . S
C259 C258 1.363 . S
C259 C265 1.428 . S
H260 C256 0.930 . S
H261 C258 0.929 . S
S262 N263 1.613 1_545 S
S262 N264 1.610 1_545 S
N263 S262 1.613 1_565 S
N263 C266 1.350 . S
N264 S262 1.610 1_565 S
N264 C265 1.351 . S
C265 C259 1.428 . S
C265 N264 1.351 . S
C265 C266 1.434 . S
C266 C257 1.429 . S
C266 N263 1.350 . S
C266 C265 1.434 . S
C267 C268 1.369 . S
C267 C269 1.419 . S
C267 H271 0.930 . S
C268 C267 1.369 . S
C268 C277 1.429 . S
C269 C267 1.419 . S
C269 C270 1.363 . S
C269 H272 0.929 . S
C270 C269 1.363 . S
C270 C276 1.428 . S
H271 C267 0.930 . S
H272 C269 0.929 . S
S273 N274 1.613 . S
S273 N275 1.610 . S
N274 S273 1.613 . S
N274 C277 1.350 . S
N275 S273 1.610 . S
N275 C276 1.351 . S
C276 C270 1.428 . S
C276 N275 1.351 . S
C276 C277 1.434 . S
C277 C268 1.429 . S
C277 N274 1.350 . S
C277 C276 1.434 . S
C278 C279 1.369 . S
C278 C280 1.419 . S
C278 H282 0.930 . S
C279 C278 1.369 . S
C279 C288 1.429 . S
C280 C278 1.419 . S
C280 C281 1.363 . S
C280 H283 0.929 . S
C281 C280 1.363 . S
C281 C287 1.428 . S
H282 C278 0.930 . S
H283 C280 0.929 . S
S284 N285 1.613 . S
S284 N286 1.610 . S
N285 S284 1.613 . S
N285 C288 1.350 . S
N286 S284 1.610 . S
N286 C287 1.351 . S
C287 C281 1.428 . S
C287 N286 1.351 . S
C287 C288 1.434 . S
C288 C279 1.429 . S
C288 N285 1.350 . S
C288 C287 1.434 . S
C289 C290 1.369 . S
C289 C291 1.419 . S
C289 H293 0.930 . S
C290 C289 1.369 . S
C290 C299 1.429 . S
C291 C289 1.419 . S
C291 C292 1.363 . S
C291 H294 0.929 . S
C292 C291 1.363 . S
C292 C298 1.428 . S
H293 C289 0.930 . S
H294 C291 0.929 . S
S295 N296 1.613 . S
S295 N297 1.610 . S
N296 S295 1.613 . S
N296 C299 1.350 . S
N297 S295 1.610 . S
N297 C298 1.351 . S
C298 C292 1.428 . S
C298 N297 1.351 . S
C298 C299 1.434 . S
C299 C290 1.429 . S
C299 N296 1.350 . S
C299 C298 1.434 . S
C300 C301 1.369 . S
C300 C302 1.419 . S
C300 H304 0.930 . S
C301 C300 1.369 . S
C301 C310 1.429 . S
C302 C300 1.419 . S
C302 C303 1.363 . S
C302 H305 0.929 . S
C303 C302 1.363 . S
C303 C309 1.428 . S
H304 C300 0.930 . S
H305 C302 0.929 . S
S306 N307 1.613 . S
S306 N308 1.610 . S
N307 S306 1.613 . S
N307 C310 1.350 . S
N308 S306 1.610 . S
N308 C309 1.351 . S
C309 C303 1.428 . S
C309 N308 1.351 . S
C309 C310 1.434 . S
C310 C301 1.429 . S
C310 N307 1.350 . S
C310 C309 1.434 . S
C311 C312 1.369 . S
C311 C313 1.419 . S
C311 H315 0.930 . S
C312 C311 1.369 . S
C312 C321 1.429 . S
C313 C311 1.419 . S
C313 C314 1.363 . S
C313 H316 0.929 . S
C314 C313 1.363 . S
C314 C320 1.428 . S
H315 C311 0.930 . S
H316 C313 0.929 . S
S317 N318 1.613 . S
S317 N319 1.610 . S
N318 S317 1.613 . S
N318 C321 1.350 . S
N319 S317 1.610 . S
N319 C320 1.351 . S
C320 C314 1.428 . S
C320 N319 1.351 . S
C320 C321 1.434 . S
C321 C312 1.429 . S
C321 N318 1.350 . S
C321 C320 1.434 . S
C322 C323 1.369 . S
C322 C324 1.419 . S
C322 H326 0.930 . S
C323 C322 1.369 . S
C323 C332 1.429 . S
C324 C322 1.419 . S
C324 C325 1.363 . S
C324 H327 0.929 . S
C325 C324 1.363 . S
C325 C331 1.428 . S
H326 C322 0.930 . S
H327 C324 0.929 . S
S328 N329 1.613 . S
S328 N330 1.610 . S
N329 S328 1.613 . S
N329 C332 1.350 . S
N330 S328 1.610 . S
N330 C331 1.351 . S
C331 C325 1.428 . S
C331 N330 1.351 . S
C331 C332 1.434 . S
C332 C323 1.429 . S
C332 N329 1.350 . S
C332 C331 1.434 . S
C333 C334 1.369 . S
C333 C335 1.419 . S
C333 H337 0.930 . S
C334 C333 1.369 . S
C334 C343 1.429 . S
C335 C333 1.419 . S
C335 C336 1.363 . S
C335 H338 0.929 . S
C336 C335 1.363 . S
C336 C342 1.428 . S
H337 C333 0.930 . S
H338 C335 0.929 . S
S339 N340 1.613 . S
S339 N341 1.610 . S
N340 S339 1.613 . S
N340 C343 1.350 . S
N341 S339 1.610 . S
N341 C342 1.351 . S
C342 C336 1.428 . S
C342 N341 1.351 . S
C342 C343 1.434 . S
C343 C334 1.429 . S
C343 N340 1.350 . S
C343 C342 1.434 . S
C344 C345 1.369 . S
C344 C346 1.419 . S
C344 H348 0.930 . S
C345 C344 1.369 . S
C345 C354 1.429 . S
C346 C344 1.419 . S
C346 C347 1.363 . S
C346 H349 0.929 . S
C347 C346 1.363 . S
C347 C353 1.428 . S
H348 C344 0.930 . S
H349 C346 0.929 . S
S350 N351 1.613 . S
S350 N352 1.610 . S
N351 S350 1.613 . S
N351 C354 1.350 . S
N352 S350 1.610 . S
N352 C353 1.351 . S
C353 C347 1.428 . S
C353 N352 1.351 . S
C353 C354 1.434 . S
C354 C345 1.429 . S
C354 N351 1.350 . S
C354 C353 1.434 . S
C355 C356 1.369 . S
C355 C357 1.419 . S
C355 H359 0.930 . S
C356 C355 1.369 . S
C356 C365 1.429 . S
C357 C355 1.419 . S
C357 C358 1.363 . S
C357 H360 0.929 . S
C358 C357 1.363 . S
C358 C364 1.428 . S
H359 C355 0.930 . S
H360 C357 0.929 . S
S361 N362 1.613 . S
S361 N363 1.610 . S
N362 S361 1.613 . S
N362 C365 1.350 . S
N363 S361 1.610 . S
N363 C364 1.351 . S
C364 C358 1.428 . S
C364 N363 1.351 . S
C364 C365 1.434 . S
C365 C356 1.429 . S
C365 N362 1.350 . S
C365 C364 1.434 . S
C366 C367 1.369 . S
C366 C368 1.419 . S
C366 H370 0.930 . S
C367 C366 1.369 . S
C367 C376 1.429 1_455 S
C368 C366 1.419 . S
C368 C369 1.363 1_554 S
C368 H371 0.929 1_554 S
C369 C368 1.363 1_556 S
C369 C375 1.428 1_455 S
H370 C366 0.930 . S
H371 C368 0.929 1_556 S
S372 N373 1.613 . S
S372 N374 1.610 1_554 S
N373 S372 1.613 . S
N373 C376 1.350 . S
N374 S372 1.610 1_556 S
N374 C375 1.351 . S
C375 C369 1.428 1_655 S
C375 N374 1.351 . S
C375 C376 1.434 1_556 S
C376 C367 1.429 1_655 S
C376 N373 1.350 . S
C376 C375 1.434 1_554 S
C377 C378 1.369 . S
C377 C379 1.419 . S
C377 H381 0.930 . S
C378 C377 1.369 . S
C378 C387 1.429 . S
C379 C377 1.419 . S
C379 C380 1.363 . S
C379 H382 0.929 . S
C380 C379 1.363 . S
C380 C386 1.428 . S
H381 C377 0.930 . S
H382 C379 0.929 . S
S383 N384 1.613 . S
S383 N385 1.610 . S
N384 S383 1.613 . S
N384 C387 1.350 . S
N385 S383 1.610 . S
N385 C386 1.351 . S
C386 C380 1.428 . S
C386 N385 1.351 . S
C386 C387 1.434 . S
C387 C378 1.429 . S
C387 N384 1.350 . S
C387 C386 1.434 . S
C388 C389 1.369 . S
C388 C390 1.419 . S
C388 H392 0.930 . S
C389 C388 1.369 . S
C389 C398 1.429 . S
C390 C388 1.419 . S
C390 C391 1.363 . S
C390 H393 0.929 . S
C391 C390 1.363 . S
C391 C397 1.428 . S
H392 C388 0.930 . S
H393 C390 0.929 . S
S394 N395 1.613 . S
S394 N396 1.610 . S
N395 S394 1.613 . S
N395 C398 1.350 . S
N396 S394 1.610 . S
N396 C397 1.351 . S
C397 C391 1.428 . S
C397 N396 1.351 . S
C397 C398 1.434 . S
C398 C389 1.429 . S
C398 N395 1.350 . S
C398 C397 1.434 . S
C399 C400 1.369 . S
C399 C401 1.419 . S
C399 H403 0.930 1_545 S
C400 C399 1.369 . S
C400 C409 1.429 . S
C401 C399 1.419 . S
C401 C402 1.363 . S
C401 H404 0.929 1_545 S
C402 C401 1.363 . S
C402 C408 1.428 . S
H403 C399 0.930 1_565 S
H404 C401 0.929 1_565 S
S405 N406 1.613 . S
S405 N407 1.610 . S
N406 S405 1.613 . S
N406 C409 1.350 . S
N407 S405 1.610 . S
N407 C408 1.351 . S
C408 C402 1.428 . S
C408 N407 1.351 . S
C408 C409 1.434 . S
C409 C400 1.429 . S
C409 N406 1.350 . S
C409 C408 1.434 . S
C410 C411 1.369 . S
C410 C412 1.419 1_556 S
C410 H414 0.930 . S
C411 C410 1.369 . S
C411 C420 1.429 . S
C412 C410 1.419 1_554 S
C412 C413 1.363 . S
C412 H415 0.929 . S
C413 C412 1.363 . S
C413 C419 1.428 . S
H414 C410 0.930 . S
H415 C412 0.929 . S
S416 N417 1.613 . S
S416 N418 1.610 1_556 S
N417 S416 1.613 . S
N417 C420 1.350 . S
N418 S416 1.610 1_554 S
N418 C419 1.351 . S
C419 C413 1.428 . S
C419 N418 1.351 . S
C419 C420 1.434 1_554 S
C420 C411 1.429 . S
C420 N417 1.350 . S
C420 C419 1.434 1_556 S
C421 C422 1.369 . S
C421 C423 1.419 . S
C421 H425 0.930 . S
C422 C421 1.369 . S
C422 C431 1.429 . S
C423 C421 1.419 . S
C423 C424 1.363 . S
C423 H426 0.929 . S
C424 C423 1.363 . S
C424 C430 1.428 . S
H425 C421 0.930 . S
H426 C423 0.929 . S
S427 N428 1.613 . S
S427 N429 1.610 . S
N428 S427 1.613 . S
N428 C431 1.350 1_655 S
N429 S427 1.610 . S
N429 C430 1.351 1_655 S
C430 C424 1.428 . S
C430 N429 1.351 1_455 S
C430 C431 1.434 . S
C431 C422 1.429 . S
C431 N428 1.350 1_455 S
C431 C430 1.434 . S
C235 C25 0.803 . S
C237 C226 0.751 . S
C246 C65 0.569 . S
C248 C188 0.687 . S
C257 C105 0.636 . S
C259 C207 0.645 . S
C268 C4 0.749 . S
C270 C221 0.715 . S
C281 C183 0.349 . S
C279 C44 0.475 . S
C292 C202 0.295 . S
C290 C84 0.442 . S
C301 C60 3.116 . S
C303 C150 3.031 . S
C312 C100 3.090 . S
C314 C164 3.046 . S
C323 C31 3.083 . S
C325 C126 3.026 . S
C336 C145 3.031 . S
C334 C71 3.079 . S
C347 C169 3.029 . S
C345 C111 3.097 . S
C356 C20 3.121 . S
C358 C131 3.039 . S
C369 C160 1.766 . S
C367 C2 1.746 . S
C378 C42 1.786 . S
C380 C122 1.784 . S
C389 C82 1.764 . S
C391 C141 1.776 . S
C402 C198 1.179 . S
C400 C63 1.158 . S
C413 C217 1.275 . S
C411 C103 1.287 . S
C422 C23 1.145 . S
C424 C179 1.168 . S
