# Generated by pormake.
# Topology zzz, (3,6)-cn, num edge types: 1
# Building blocks:
#     Node 0, Type 0, BuildingBlock: KAKCAD_clean_linker_0, # of connection points: 3
#     Node 1, Type 0, BuildingBlock: KAKCAD_clean_linker_0, # of connection points: 3
#     Node 2, Type 0, BuildingBlock: KAKCAD_clean_linker_0, # of connection points: 3
#     Node 3, Type 0, BuildingBlock: KAKCAD_clean_linker_0, # of connection points: 3
#     Node 4, Type 0, BuildingBlock: KAKCAD_clean_linker_0, # of connection points: 3
#     Node 5, Type 0, BuildingBlock: KAKCAD_clean_linker_0, # of connection points: 3
#     Node 6, Type 0, BuildingBlock: KAKCAD_clean_linker_0, # of connection points: 3
#     Node 7, Type 0, BuildingBlock: KAKCAD_clean_linker_0, # of connection points: 3
#     Node 8, Type 1, BuildingBlock: FUNLAD_clean_sbu_0, # of connection points: 6
#     Node 9, Type 1, BuildingBlock: FUNLAD_clean_sbu_0, # of connection points: 6
#     Node 10, Type 1, BuildingBlock: FUNLAD_clean_sbu_0, # of connection points: 6
#     Node 11, Type 1, BuildingBlock: FUNLAD_clean_sbu_0, # of connection points: 6
#     Edge 12, Type (0, 1), BuildingBlock: CIFDUS_clean_linker_0, # of connection points: 2
#     Edge 13, Type (0, 1), BuildingBlock: CIFDUS_clean_linker_0, # of connection points: 2
#     Edge 14, Type (0, 1), BuildingBlock: CIFDUS_clean_linker_0, # of connection points: 2
#     Edge 15, Type (0, 1), BuildingBlock: CIFDUS_clean_linker_0, # of connection points: 2
#     Edge 16, Type (0, 1), BuildingBlock: CIFDUS_clean_linker_0, # of connection points: 2
#     Edge 17, Type (0, 1), BuildingBlock: CIFDUS_clean_linker_0, # of connection points: 2
#     Edge 18, Type (0, 1), BuildingBlock: CIFDUS_clean_linker_0, # of connection points: 2
#     Edge 19, Type (0, 1), BuildingBlock: CIFDUS_clean_linker_0, # of connection points: 2
#     Edge 20, Type (0, 1), BuildingBlock: CIFDUS_clean_linker_0, # of connection points: 2
#     Edge 21, Type (0, 1), BuildingBlock: CIFDUS_clean_linker_0, # of connection points: 2
#     Edge 22, Type (0, 1), BuildingBlock: CIFDUS_clean_linker_0, # of connection points: 2
#     Edge 23, Type (0, 1), BuildingBlock: CIFDUS_clean_linker_0, # of connection points: 2
#     Edge 24, Type (0, 1), BuildingBlock: CIFDUS_clean_linker_0, # of connection points: 2
#     Edge 25, Type (0, 1), BuildingBlock: CIFDUS_clean_linker_0, # of connection points: 2
#     Edge 26, Type (0, 1), BuildingBlock: CIFDUS_clean_linker_0, # of connection points: 2
#     Edge 27, Type (0, 1), BuildingBlock: CIFDUS_clean_linker_0, # of connection points: 2
#     Edge 28, Type (0, 1), BuildingBlock: CIFDUS_clean_linker_0, # of connection points: 2
#     Edge 29, Type (0, 1), BuildingBlock: CIFDUS_clean_linker_0, # of connection points: 2
#     Edge 30, Type (0, 1), BuildingBlock: CIFDUS_clean_linker_0, # of connection points: 2
#     Edge 31, Type (0, 1), BuildingBlock: CIFDUS_clean_linker_0, # of connection points: 2
#     Edge 32, Type (0, 1), BuildingBlock: CIFDUS_clean_linker_0, # of connection points: 2
#     Edge 33, Type (0, 1), BuildingBlock: CIFDUS_clean_linker_0, # of connection points: 2
#     Edge 34, Type (0, 1), BuildingBlock: CIFDUS_clean_linker_0, # of connection points: 2
#     Edge 35, Type (0, 1), BuildingBlock: CIFDUS_clean_linker_0, # of connection points: 2
# Relax obj value: 0.272
# Max RMSD: 0.229
# Mean RMSD: 0.192
data_MOF--net-zzz--node1-FUNLAD_clean_sbu_0--node2-KAKCAD_clean_linker_0--edge1-CIFDUS_clean_linker_0
_symmetry_space_group_name_H-M    P1
_symmetry_Int_Tables_number       1
_symmetry_cell_setting            triclinic
loop_
_symmetry_equiv_pos_as_xyz
'x, y, z'
_cell_length_a     52.462033
_cell_length_b     57.466981
_cell_length_c     20.452639
_cell_angle_alpha  86.405654
_cell_angle_beta   86.384517
_cell_angle_gamma 92.282566
loop_
_atom_site_label
_atom_site_type_symbol
_atom_site_fract_x
_atom_site_fract_y
_atom_site_fract_z
_atom_type_partial_charge
C0 C 0.87479 0.42252 0.0142 0.0
C1 C 0.89549 0.41211 0.04304 0.0
C2 C 0.85297 0.42734 0.05271 0.0
C3 C 0.85131 0.42163 0.12077 0.0
C4 C 0.8707 0.4086 0.14788 0.0
C5 C 0.8927 0.40405 0.10945 0.0
C6 C 0.83223 0.43292 0.164 0.0
C7 C 0.80756 0.43702 0.14427 0.0
C8 C 0.7914 0.45183 0.1784 0.0
C9 C 0.80015 0.46228 0.23397 0.0
C10 C 0.82455 0.45784 0.2548 0.0
C11 C 0.84026 0.44308 0.22021 0.0
C12 C 0.83593 0.47072 0.30666 0.0
C13 C 0.85077 0.49121 0.28841 0.0
C14 C 0.83756 0.4598 0.36947 0.0
C15 C 0.85512 0.4684 0.41184 0.0
C16 C 0.87158 0.48772 0.39119 0.0
C17 C 0.76662 0.45794 0.15146 0.0
C18 C 0.75884 0.48112 0.14904 0.0
C19 C 0.75161 0.44099 0.12282 0.0
C20 C 0.73008 0.44722 0.09003 0.0
C21 C 0.72285 0.47051 0.08575 0.0
C22 C 0.73712 0.48731 0.11677 0.0
C23 C 0.86855 0.4996 0.33024 0.0
H24 H 0.87645 0.42911 0.96324 0.0
H25 H 0.83858 0.43751 0.02998 0.0
H26 H 0.86972 0.40342 0.19985 0.0
H27 H 0.90828 0.39574 0.13268 0.0
H28 H 0.80148 0.42965 0.10003 0.0
H29 H 0.85963 0.44102 0.23463 0.0
H30 H 0.78834 0.47417 0.26011 0.0
H31 H 0.85013 0.49959 0.2396 0.0
H32 H 0.82668 0.44367 0.38374 0.0
H33 H 0.85732 0.45881 0.4583 0.0
H34 H 0.7701 0.4947 0.16965 0.0
H35 H 0.75674 0.4229 0.1248 0.0
H36 H 0.88108 0.51449 0.31326 0.0
H37 H 0.73205 0.50541 0.11395 0.0
H38 H 0.71915 0.43383 0.06761 0.0
C39 C 0.01272 0.81746 0.99443 0.0
C40 C 0.00568 0.84072 0.99704 0.0
C41 C 0.99985 0.79984 0.03565 0.0
C42 C 0.97945 0.80513 0.07954 0.0
C43 C 0.97239 0.82845 0.08146 0.0
C44 C 0.98547 0.84604 0.04107 0.0
C45 C 0.96568 0.7866 0.12389 0.0
C46 C 0.96048 0.76423 0.10271 0.0
C47 C 0.94757 0.74671 0.14513 0.0
C48 C 0.93967 0.75184 0.20956 0.0
C49 C 0.94454 0.77422 0.23065 0.0
C50 C 0.95764 0.79132 0.18814 0.0
C51 C 0.93679 0.7806 0.29727 0.0
C52 C 0.91534 0.7941 0.30675 0.0
C53 C 0.95431 0.77881 0.34603 0.0
C54 C 0.9517 0.79204 0.40087 0.0
C55 C 0.93155 0.80737 0.40754 0.0
C56 C 0.94329 0.72301 0.12182 0.0
C57 C 0.9353 0.72031 0.05833 0.0
C58 C 0.9492 0.70311 0.16043 0.0
C59 C 0.94857 0.68113 0.13459 0.0
C60 C 0.94192 0.67863 0.06973 0.0
C61 C 0.93464 0.69839 0.03257 0.0
C62 C 0.91262 0.80726 0.36175 0.0
H63 H 0.02823 0.81295 0.96073 0.0
H64 H 0.00606 0.78215 0.03352 0.0
H65 H 0.95643 0.83314 0.11344 0.0
H66 H 0.97925 0.86376 0.04292 0.0
H67 H 0.96664 0.76035 0.05316 0.0
H68 H 0.96192 0.80832 0.20601 0.0
H69 H 0.92966 0.73862 0.24283 0.0
H70 H 0.90182 0.79593 0.26902 0.0
H71 H 0.97125 0.76884 0.33877 0.0
H72 H 0.96677 0.79182 0.43472 0.0
H73 H 0.93028 0.73529 0.02776 0.0
H74 H 0.95547 0.70466 0.20949 0.0
H75 H 0.89666 0.81857 0.36602 0.0
H76 H 0.9296 0.69717 0.98232 0.0
H77 H 0.95394 0.66619 0.16479 0.0
C78 C 0.69782 0.01206 0.98975 0.0
C79 C 0.67714 0.02542 0.0087 0.0
C80 C 0.71904 0.0109 0.02733 0.0
C81 C 0.71978 0.02292 0.08492 0.0
C82 C 0.69993 0.03774 0.10098 0.0
C83 C 0.67876 0.03907 0.06286 0.0
C84 C 0.73904 0.01703 0.13251 0.0
C85 C 0.76469 0.01475 0.11157 0.0
C86 C 0.78215 0.00558 0.15469 0.0
C87 C 0.77356 0.9985 0.22019 0.0
C88 C 0.74786 0.00142 0.24194 0.0
C89 C 0.73097 0.01074 0.19791 0.0
C90 C 0.73701 0.99446 0.3093 0.0
C91 C 0.72465 0.97236 0.32235 0.0
C92 C 0.73202 0.01193 0.35273 0.0
C93 C 0.71359 0.00798 0.40526 0.0
C94 C 0.69959 0.98649 0.41526 0.0
C95 C 0.80878 0.0027 0.12782 0.0
C96 C 0.81865 0.98043 0.12426 0.0
C97 C 0.82261 0.0219 0.09498 0.0
C98 C 0.84511 0.01881 0.05668 0.0
C99 C 0.85429 0.99637 0.04964 0.0
C100 C 0.84113 0.97727 0.0853 0.0
C101 C 0.70621 0.96835 0.3751 0.0
H102 H 0.69687 0.00141 0.948 0.0
H103 H 0.73391 -0.00081 0.01401 0.0
H104 H 0.70017 0.04732 0.14492 0.0
H105 H 0.66291 0.0494 0.07833 0.0
H106 H 0.77093 0.01945 0.06071 0.0
H107 H 0.71102 0.01203 0.2142 0.0
H108 H 0.78667 0.99103 0.25371 0.0
H109 H 0.72763 0.95883 0.28846 0.0
H110 H 0.74084 0.02927 0.34284 0.0
H111 H 0.70925 0.02222 0.43581 0.0
H112 H 0.8082 0.9653 0.14836 0.0
H113 H 0.81529 0.03924 0.09644 0.0
H114 H 0.69574 0.95165 0.38111 0.0
H115 H 0.84781 0.95979 0.08163 0.0
H116 H 0.85453 0.0339 0.02966 0.0
C117 C 0.5706 0.6833 0.44596 0.0
C118 C 0.58672 0.66432 0.45025 0.0
C119 C 0.57006 0.69707 0.38721 0.0
C120 C 0.58565 0.69203 0.33207 0.0
C121 C 0.6042 0.67524 0.33928 0.0
C122 C 0.60476 0.66149 0.39792 0.0
C123 C 0.57782 0.69902 0.26564 0.0
C124 C 0.57418 0.72239 0.24483 0.0
C125 C 0.56358 0.72775 0.18424 0.0
C126 C 0.55617 0.70947 0.14576 0.0
C127 C 0.55987 0.68625 0.16625 0.0
C128 C 0.57094 0.68121 0.22551 0.0
C129 C 0.55144 0.66685 0.12765 0.0
C130 C 0.52576 0.66399 0.11317 0.0
C131 C 0.56871 0.64998 0.11009 0.0
C132 C 0.56039 0.63029 0.07969 0.0
C133 C 0.53446 0.62677 0.06732 0.0
C134 C 0.56037 0.75225 0.15967 0.0
C135 C 0.53774 0.75843 0.13101 0.0
C136 C 0.58058 0.76905 0.15935 0.0
C137 C 0.57865 0.79123 0.128 0.0
C138 C 0.55643 0.79703 0.09658 0.0
C139 C 0.53578 0.78055 0.09995 0.0
C140 C 0.51729 0.64404 0.08359 0.0
H141 H 0.55681 0.68617 0.48602 0.0
H142 H 0.55556 0.70989 0.38291 0.0
H143 H 0.61649 0.67111 0.29737 0.0
H144 H 0.61745 0.64708 0.39951 0.0
H145 H 0.57918 0.73622 0.27598 0.0
H146 H 0.57293 0.66311 0.24218 0.0
H147 H 0.54801 0.71328 0.09908 0.0
H148 H 0.51208 0.67673 0.12705 0.0
H149 H 0.58866 0.65196 0.1205 0.0
H150 H 0.57435 0.61778 0.06605 0.0
H151 H 0.52168 0.74596 0.1315 0.0
H152 H 0.59831 0.76471 0.18065 0.0
H153 H 0.49718 0.64187 0.0752 0.0
H154 H 0.51816 0.78464 0.07774 0.0
H155 H 0.59495 0.80348 0.12605 0.0
C156 C 0.15861 0.59672 0.33034 0.0
C157 C 0.13626 0.58267 0.32623 0.0
C158 C 0.18051 0.59344 0.28966 0.0
C159 C 0.18046 0.57601 0.24431 0.0
C160 C 0.15764 0.56291 0.23801 0.0
C161 C 0.13587 0.56623 0.27821 0.0
C162 C 0.20443 0.56947 0.20855 0.0
C163 C 0.22716 0.56787 0.24093 0.0
C164 C 0.24847 0.55727 0.2123 0.0
C165 C 0.24678 0.5479 0.15058 0.0
C166 C 0.22446 0.55028 0.11674 0.0
C167 C 0.20374 0.56151 0.14525 0.0
C168 C 0.22052 0.53864 0.05567 0.0
C169 C 0.21646 0.55211 0.99794 0.0
C170 C 0.21418 0.51462 0.05957 0.0
C171 C 0.20169 0.50466 0.009 0.0
C172 C 0.19569 0.51855 0.95351 0.0
C173 C 0.27166 0.55495 0.24968 0.0
C174 C 0.28177 0.57428 0.27979 0.0
C175 C 0.28273 0.53324 0.25955 0.0
C176 C 0.30308 0.53082 0.30026 0.0
C177 C 0.31294 0.55012 0.33108 0.0
C178 C 0.30224 0.57192 0.31977 0.0
C179 C 0.20437 0.54208 0.94686 0.0
H180 H 0.15945 0.60966 0.36649 0.0
H181 H 0.19769 0.60403 0.29516 0.0
H182 H 0.15692 0.54897 0.20485 0.0
H183 H 0.11926 0.5547 0.2745 0.0
H184 H 0.22783 0.57349 0.29042 0.0
H185 H 0.18637 0.56274 0.11938 0.0
H186 H 0.26265 0.53886 0.12905 0.0
H187 H 0.22079 0.57076 0.99458 0.0
H188 H 0.21672 0.50403 0.10422 0.0
H189 H 0.19515 0.48649 0.01524 0.0
H190 H 0.27362 0.59122 0.2729 0.0
H191 H 0.27514 0.51802 0.23744 0.0
H192 H 0.19973 0.55321 0.90494 0.0
H193 H 0.3093 0.58708 0.34315 0.0
H194 H 0.31112 0.51385 0.30765 0.0
C195 C 0.03408 0.17305 0.42637 0.0
C196 C 0.04278 0.15029 0.43173 0.0
C197 C 0.04794 0.19042 0.38639 0.0
C198 C 0.07104 0.18542 0.3522 0.0
C199 C 0.07988 0.16265 0.35917 0.0
C200 C 0.06577 0.14526 0.39791 0.0
C201 C 0.0855 0.20355 0.3077 0.0
C202 C 0.08638 0.2271 0.32219 0.0
C203 C 0.09892 0.24432 0.27825 0.0
C204 C 0.11123 0.23775 0.21948 0.0
C205 C 0.11085 0.21418 0.20512 0.0
C206 C 0.0979 0.19736 0.24902 0.0
C207 C 0.12111 0.20643 0.14167 0.0
C208 C 0.10745 0.21087 0.0858 0.0
C209 C 0.13938 0.18919 0.14118 0.0
C210 C 0.14182 0.17482 0.08868 0.0
C211 C 0.12582 0.17741 0.03659 0.0
C212 C 0.09834 0.2691 0.29427 0.0
C213 C 0.07517 0.27824 0.31655 0.0
C214 C 0.1209 0.28322 0.29217 0.0
C215 C 0.12042 0.30569 0.31507 0.0
C216 C 0.09731 0.31448 0.33964 0.0
C217 C 0.07465 0.30064 0.33888 0.0
C218 C 0.10966 0.1963 0.03369 0.0
H219 H 0.01641 0.17729 0.4524 0.0
H220 H 0.04029 0.20762 0.38151 0.0
H221 H 0.09785 0.15823 0.3351 0.0
H222 H 0.07313 0.12792 0.4026 0.0
H223 H 0.07743 0.23212 0.3681 0.0
H224 H 0.09658 0.17942 0.23555 0.0
H225 H 0.12052 0.25088 0.1846 0.0
H226 H 0.09296 0.22379 0.08568 0.0
H227 H 0.14984 0.1853 0.18429 0.0
H228 H 0.15412 0.16014 0.09226 0.0
H229 H 0.05746 0.26779 0.31814 0.0
H230 H 0.13902 0.27654 0.27536 0.0
H231 H 0.09693 0.19838 0.99421 0.0
H232 H 0.05658 0.30674 0.35812 0.0
H233 H 0.13816 0.31603 0.31459 0.0
C234 C 0.36482 0.95248 0.38728 0.0
C235 C 0.36452 0.9671 0.43971 0.0
C236 C 0.34421 0.95168 0.34729 0.0
C237 C 0.32305 0.96545 0.35933 0.0
C238 C 0.32177 0.97821 0.4157 0.0
C239 C 0.34234 0.97903 0.45552 0.0
C240 C 0.3047 0.96978 0.30828 0.0
C241 C 0.27864 0.97176 0.32507 0.0
C242 C 0.26199 0.97978 0.2782 0.0
C243 C 0.27177 0.98571 0.21288 0.0
C244 C 0.29797 0.98319 0.19546 0.0
C245 C 0.31402 0.97516 0.24333 0.0
C246 C 0.31027 0.98935 0.12899 0.0
C247 C 0.31079 0.97255 0.08211 0.0
C248 C 0.32793 0.00851 0.12041 0.0
C249 C 0.34708 0.00985 0.0692 0.0
C250 C 0.3491 0.99196 0.02542 0.0
C251 C 0.23504 0.98315 0.30152 0.0
C252 C 0.22056 0.96441 0.33472 0.0
C253 C 0.22566 0.00567 0.30322 0.0
C254 C 0.20306 0.00954 0.34085 0.0
C255 C 0.18929 0.99092 0.37716 0.0
C256 C 0.19793 0.96821 0.37175 0.0
C257 C 0.32992 0.97389 0.03066 0.0
H258 H 0.3817 0.94308 0.37422 0.0
H259 H 0.34551 0.94144 0.30459 0.0
H260 H 0.3058 0.98908 0.4262 0.0
H261 H 0.34156 0.99017 0.49637 0.0
H262 H 0.27142 0.9679 0.37562 0.0
H263 H 0.33429 0.97415 0.23021 0.0
H264 H 0.25927 0.99231 0.17649 0.0
H265 H 0.29777 0.95734 0.0884 0.0
H266 H 0.32834 0.02139 0.15689 0.0
H267 H 0.36148 0.02394 0.06737 0.0
H268 H 0.22755 0.94692 0.33495 0.0
H269 H 0.23665 0.02047 0.27899 0.0
H270 H 0.3305 0.96003 0.99715 0.0
H271 H 0.18805 0.95347 0.39932 0.0
H272 H 0.1968 0.02721 0.34321 0.0
C273 C 0.44806 0.33574 0.03575 0.0
C274 C 0.46872 0.34622 0.99553 0.0
C275 C 0.45244 0.32002 0.08866 0.0
C276 C 0.47745 0.31425 0.10146 0.0
C277 C 0.49773 0.32267 0.05739 0.0
C278 C 0.49346 0.33851 0.00516 0.0
C279 C 0.48335 0.3066 0.16872 0.0
C280 C 0.48215 0.28307 0.19264 0.0
C281 C 0.48919 0.27717 0.25686 0.0
C282 C 0.49646 0.29498 0.29693 0.0
C283 C 0.49751 0.31836 0.27317 0.0
C284 C 0.49111 0.32399 0.20908 0.0
C285 C 0.50397 0.3372 0.31578 0.0
C286 C 0.49005 0.33873 0.37607 0.0
C287 C 0.52227 0.35495 0.2937 0.0
C288 C 0.52584 0.37444 0.33017 0.0
C289 C 0.51082 0.37654 0.38847 0.0
C290 C 0.48969 0.25265 0.28346 0.0
C291 C 0.46777 0.23768 0.28661 0.0
C292 C 0.51164 0.24499 0.31264 0.0
C293 C 0.51144 0.22321 0.34673 0.0
C294 C 0.48923 0.20853 0.35265 0.0
C295 C 0.46749 0.21582 0.32132 0.0
C296 C 0.49331 0.35836 0.4119 0.0
H297 H 0.42869 0.3408 0.0291 0.0
H298 H 0.43657 0.31402 0.12282 0.0
H299 H 0.51723 0.31884 0.0673 0.0
H300 H 0.51002 0.34624 0.97633 0.0
H301 H 0.47651 0.26953 0.16121 0.0
H302 H 0.49168 0.34216 0.19069 0.0
H303 H 0.5014 0.29063 0.34681 0.0
H304 H 0.47572 0.32532 0.39376 0.0
H305 H 0.53325 0.35403 0.24733 0.0
H306 H 0.53937 0.38835 0.31129 0.0
H307 H 0.45057 0.2433 0.26482 0.0
H308 H 0.5288 0.25622 0.31078 0.0
H309 H 0.48161 0.35969 0.457 0.0
H310 H 0.45018 0.20478 0.3245 0.0
H311 H 0.52842 0.21829 0.37078 0.0
C312 C 0.0362 0.95982 0.79467 0.0
N313 N 0.99048 0.95958 0.63517 0.0
C314 C 1.00268 0.93959 0.62428 0.0
C315 C 0.99035 0.92136 0.59534 0.0
C316 C 0.96527 0.92371 0.57669 0.0
C317 C 0.95321 0.94468 0.58719 0.0
C318 C 0.96621 0.96246 0.61714 0.0
Zn319 Zn 0.0095 0.98425 0.68362 0.0
C320 C 0.97871 -0.00019 0.798 0.0
N321 N 0.0517 0.03239 0.79045 0.0
C322 C 0.07594 0.03121 0.81044 0.0
C323 C 0.03726 0.0509 0.80347 0.0
C324 C 0.04661 0.06878 0.83905 0.0
C325 C 0.07116 0.06783 0.862 0.0
C326 C 0.08619 0.04899 0.84641 0.0
Zn327 Zn 0.03364 0.0073 0.74067 0.0
O328 O 0.02145 0.95758 0.74837 0.0
C329 C 0.06437 0.99141 0.62643 0.0
O330 O 0.04541 0.97996 0.80511 0.0
H331 H 0.01814 0.05176 0.78692 0.0
H332 H 0.02201 0.93766 0.63856 0.0
H333 H 0.08714 0.01639 0.79936 0.0
O334 O 0.04282 0.98112 0.62006 0.0
O335 O 0.06684 0.00423 0.67453 0.0
H336 H 0.95684 0.97846 0.62656 0.0
O337 O 0.02144 0.03402 0.67631 0.0
O338 O 0.99811 0.01156 0.61843 0.0
O339 O 1.00029 0.00985 0.8051 0.0
O340 O 0.97624 0.98752 0.74896 0.0
C341 C 0.00704 0.03173 0.62936 0.0
H342 H 1.0005 0.90566 0.58687 0.0
H343 H 0.93387 0.94714 0.57332 0.0
H344 H 0.03456 0.0832 0.84909 0.0
H345 H 0.10525 0.04769 0.86342 0.0
C346 C 0.49178 0.98113 0.62746 0.0
N347 N 0.51713 0.05007 0.64399 0.0
C348 C 0.52085 0.04986 0.57754 0.0
C349 C 0.51914 0.07016 0.53764 0.0
C350 C 0.51316 0.09099 0.56593 0.0
C351 C 0.50865 0.09078 0.63445 0.0
C352 C 0.51093 0.06997 0.67297 0.0
Zn353 Zn 0.52135 0.01866 0.69499 0.0
C354 C 0.4798 0.00574 0.79529 0.0
N355 N 0.5299 0.95008 0.78047 0.0
C356 C 0.53621 0.93116 0.74713 0.0
C357 C 0.52658 0.94861 0.84715 0.0
C358 C 0.52951 0.92753 0.88297 0.0
C359 C 0.53602 0.90766 0.85005 0.0
C360 C 0.5394 0.90969 0.7811 0.0
Zn361 Zn 0.52561 0.98181 0.73193 0.0
O362 O 0.49713 0.00277 0.63067 0.0
C363 C 0.56698 0.99541 0.63039 0.0
O364 O 0.50224 0.96644 0.66498 0.0
H365 H 0.5216 0.96386 0.87278 0.0
H366 H 0.52529 0.03387 0.55504 0.0
H367 H 0.53886 0.93274 0.69414 0.0
O368 O 0.55411 0.01363 0.63233 0.0
O369 O 0.55963 0.97764 0.66822 0.0
H370 H 0.5079 0.06975 0.72581 0.0
O371 O 0.54879 0.99759 0.79824 0.0
O372 O 0.54562 0.03396 0.76093 0.0
O373 O 0.49147 0.9867 0.79415 0.0
O374 O 0.48869 0.0233 0.7587 0.0
C375 C 0.55487 0.01914 0.80069 0.0
H376 H 0.5224 0.06957 0.48494 0.0
H377 H 0.50402 0.1066 0.65791 0.0
H378 H 0.52631 0.92676 0.9359 0.0
H379 H 0.54471 0.89491 0.75367 0.0
C380 C 0.52852 0.48202 0.61398 0.0
N381 N 0.46033 0.51383 0.66004 0.0
C382 C 0.46311 0.52032 0.59475 0.0
C383 C 0.44185 0.52349 0.5584 0.0
C384 C 0.41721 0.51999 0.58908 0.0
C385 C 0.41472 0.51316 0.65657 0.0
C386 C 0.4367 0.51022 0.69141 0.0
Zn387 Zn 0.49381 0.50916 0.70523 0.0
C388 C 0.4959 0.46489 0.78053 0.0
N389 N 0.56757 0.49972 0.77632 0.0
C390 C 0.5907 0.50239 0.74205 0.0
C391 C 0.56575 0.49329 0.8417 0.0
C392 C 0.58764 0.48942 0.87528 0.0
C393 C 0.61178 0.49197 0.84139 0.0
C394 C 0.61319 0.49848 0.77377 0.0
Zn395 Zn 0.5339 0.50482 0.73282 0.0
O396 O 0.50643 0.48952 0.62681 0.0
C397 C 0.53201 0.54882 0.65565 0.0
O398 O 0.54636 0.48669 0.65091 0.0
H399 H 0.54721 0.49101 0.86805 0.0
H400 H 0.48198 0.52287 0.57027 0.0
H401 H 0.59171 0.50751 0.69011 0.0
O402 O 0.50917 0.54056 0.65584 0.0
O403 O 0.54836 0.53718 0.68553 0.0
H404 H 0.43489 0.50498 0.74328 0.0
O405 O 0.52068 0.52305 0.81448 0.0
O406 O 0.48185 0.52876 0.78412 0.0
O407 O 0.51906 0.47246 0.77761 0.0
O408 O 0.47903 0.47747 0.7561 0.0
C409 C 0.49897 0.53175 0.82441 0.0
H410 H 0.44473 0.52827 0.5063 0.0
H411 H 0.39604 0.51034 0.68218 0.0
H412 H 0.58563 0.48403 0.92712 0.0
H413 H 0.63147 0.50073 0.74591 0.0
C414 C 0.05031 0.53356 0.6274 0.0
N415 N 0.04649 0.46144 0.60894 0.0
C416 C 0.04445 0.46603 0.54343 0.0
C417 C 0.05156 0.44964 0.49891 0.0
C418 C 0.06092 0.42829 0.52192 0.0
C419 C 0.06354 0.4243 0.58962 0.0
C420 C 0.05613 0.44117 0.63247 0.0
Zn421 Zn 0.03323 0.48489 0.67278 0.0
C422 C 0.06865 0.49413 0.77668 0.0
N423 N 0.00468 0.53464 0.80298 0.0
C424 C 0.99408 0.55434 0.77882 0.0
C425 C 0.00706 0.53054 0.86853 0.0
C426 C 0.99917 0.54687 0.91247 0.0
C427 C 0.98856 0.56755 0.88878 0.0
C428 C 0.98578 0.57107 0.82106 0.0
Zn429 Zn 0.01814 0.51118 0.7395 0.0
O430 O 0.05181 0.5124 0.61373 0.0
C431 C 0.98251 0.50192 0.63606 0.0
O432 O 0.03727 0.53875 0.67846 0.0
H433 H 0.01541 0.51469 0.88678 0.0
H434 H 0.03681 0.48228 0.52568 0.0
H435 H 0.99245 0.55729 0.72654 0.0
O436 O 1.00021 0.48859 0.61937 0.0
O437 O 0.98467 0.51385 0.68586 0.0
H438 H 0.05752 0.43785 0.68473 0.0
O439 O 0.99994 0.48362 0.79927 0.0
O440 O 0.01362 0.45741 0.73307 0.0
O441 O 0.0511 0.50772 0.79236 0.0
O442 O 0.06663 0.48191 0.72736 0.0
C443 C 1.00096 0.46249 0.78487 0.0
H444 H 0.04949 0.45353 0.44706 0.0
H445 H 0.07036 0.40797 0.60958 0.0
H446 H 1.00144 0.5434 0.9644 0.0
H447 H 0.978 0.58692 0.80068 0.0
H448 H 0.14413 0.96534 0.40003 0.0
H449 H 0.18497 0.0259 0.46187 0.0
H450 H 0.15049 0.03134 0.54481 0.0
H451 H 0.1089 0.0183 0.60223 0.0
H452 H 0.06821 0.95789 0.53859 0.0
H453 H 0.10248 0.95285 0.4553 0.0
C454 C 0.14553 0.97972 0.43167 0.0
C455 C 0.16722 0.99516 0.42437 0.0
C456 C 0.12566 0.98269 0.47968 0.0
C457 C 0.16842 0.01389 0.46546 0.0
C458 C 0.14877 0.01691 0.51347 0.0
C459 C 0.1076 0.00398 0.57033 0.0
C460 C 0.08597 0.98845 0.57715 0.0
C461 C 0.12735 0.00131 0.52147 0.0
C462 C 0.08455 0.97014 0.5347 0.0
C463 C 0.10417 0.96723 0.48684 0.0
H464 H 0.5261 0.17674 0.35718 0.0
H465 H 0.45135 0.19063 0.44223 0.0
H466 H 0.45227 0.15584 0.51728 0.0
H467 H 0.475 0.12181 0.56074 0.0
H468 H 0.54971 0.10844 0.47459 0.0
H469 H 0.54839 0.14293 0.39906 0.0
C470 C 0.51002 0.1722 0.39226 0.0
C471 C 0.48874 0.18631 0.39419 0.0
C472 C 0.51081 0.15238 0.43564 0.0
C473 C 0.46786 0.17993 0.43917 0.0
C474 C 0.46848 0.16016 0.48256 0.0
C475 C 0.49102 0.12665 0.52574 0.0
C476 C 0.51245 0.11272 0.52326 0.0
C477 C 0.48998 0.14637 0.4817 0.0
C478 C 0.53298 0.1189 0.47716 0.0
C479 C 0.53223 0.13858 0.43396 0.0
H480 H 0.31782 0.51646 0.42902 0.0
H481 H 0.35563 0.57856 0.3327 0.0
H482 H 0.39038 0.57537 0.40628 0.0
H483 H 0.41032 0.55477 0.49668 0.0
H484 H 0.37327 0.4923 0.59282 0.0
H485 H 0.33769 0.49603 0.52149 0.0
C486 C 0.33378 0.52916 0.42393 0.0
C487 C 0.3342 0.54768 0.37532 0.0
C488 C 0.35369 0.52728 0.46669 0.0
C489 C 0.35478 0.56425 0.36996 0.0
C490 C 0.37468 0.56241 0.41192 0.0
C491 C 0.39451 0.54189 0.50191 0.0
C492 C 0.39456 0.52318 0.54973 0.0
C493 C 0.37435 0.54399 0.46032 0.0
C494 C 0.37363 0.50696 0.55678 0.0
C495 C 0.35339 0.50898 0.51563 0.0
H496 H 0.06272 0.34813 0.32491 0.0
H497 H 0.13047 0.33168 0.42448 0.0
H498 H 0.12627 0.36645 0.48657 0.0
H499 H 0.10126 0.39971 0.51921 0.0
H500 H 0.03257 0.41503 0.42223 0.0
H501 H 0.03926 0.38261 0.35259 0.0
C502 C 0.07663 0.35222 0.36 0.0
C503 C 0.09674 0.33722 0.37041 0.0
C504 C 0.07383 0.37197 0.39639 0.0
C505 C 0.11491 0.34301 0.41512 0.0
C506 C 0.11239 0.36278 0.45111 0.0
C507 C 0.08779 0.39596 0.48274 0.0
C508 C 0.06638 0.40972 0.47625 0.0
C509 C 0.09159 0.37708 0.44325 0.0
C510 C 0.04934 0.40488 0.42794 0.0
C511 C 0.05305 0.38623 0.38833 0.0
H512 H 0.89889 0.02283 0.02773 0.0
H513 H 0.85906 0.96234 0.96221 0.0
H514 H 0.89347 0.9582 0.87802 0.0
H515 H 0.93467 0.97233 0.82081 0.0
H516 H 0.97452 0.03255 0.88818 0.0
H517 H 0.94026 0.03639 0.97255 0.0
C518 C 0.89769 0.00875 0.995 0.0
C519 C 0.87632 0.99293 0.0016 0.0
C520 C 0.91752 0.00653 0.94634 0.0
C521 C 0.87537 0.9746 0.95912 0.0
C522 C 0.89497 0.97234 0.91043 0.0
C523 C 0.93577 0.98636 0.85373 0.0
C524 C 0.95714 0.0022 0.8477 0.0
C525 C 0.91608 0.98831 0.90318 0.0
C526 C 0.95836 0.0201 0.89147 0.0
C527 C 0.93875 0.02232 0.93992 0.0
H528 H 0.53683 0.80466 0.97763 0.0
H529 H 0.57328 0.84043 0.12846 0.0
H530 H 0.57096 0.87762 0.06457 0.0
H531 H 0.55807 0.89999 0.96651 0.0
H532 H 0.52017 0.86415 0.81798 0.0
H533 H 0.5237 0.82696 0.88034 0.0
C534 C 0.54401 0.82061 0.99698 0.0
C535 C 0.55505 0.81974 0.05804 0.0
C536 C 0.54247 0.84192 0.96025 0.0
C537 C 0.56483 0.84055 0.08147 0.0
C538 C 0.56341 0.86184 0.04509 0.0
C539 C 0.55038 0.88408 0.94798 0.0
C540 C 0.53883 0.88495 0.88754 0.0
C541 C 0.55218 0.86274 0.98453 0.0
C542 C 0.52945 0.86404 0.86381 0.0
C543 C 0.53128 0.84275 0.89971 0.0
H544 H 0.71296 0.45858 0.96323 0.0
H545 H 0.68378 0.49795 0.12215 0.0
H546 H 0.64733 0.50879 0.05952 0.0
H547 H 0.62332 0.50631 0.96063 0.0
H548 H 0.65255 0.46702 0.80149 0.0
H549 H 0.6896 0.45711 0.86282 0.0
C550 C 0.69852 0.46942 0.98422 0.0
C551 C 0.70091 0.4773 0.04741 0.0
C552 C 0.67774 0.47568 0.94778 0.0
C553 C 0.68237 0.49173 0.07354 0.0
C554 C 0.66152 0.49787 0.03784 0.0
C555 C 0.63779 0.49554 0.93945 0.0
C556 C 0.63512 0.48731 0.87673 0.0
C557 C 0.65895 0.48984 0.97508 0.0
C558 C 0.65425 0.47373 0.84943 0.0
C559 C 0.67534 0.46792 0.88466 0.0
H560 H 0.9804 0.64868 0.08138 0.0
H561 H 0.90993 0.65817 0.98691 0.0
H562 H 0.91759 0.62394 0.92455 0.0
H563 H 0.9457 0.5928 0.89184 0.0
H564 H 0.01615 0.5836 0.98651 0.0
H565 H 0.00674 0.61587 0.05504 0.0
C566 C 0.96639 0.64298 0.04831 0.0
C567 C 0.9447 0.65609 0.03859 0.0
C568 C 0.97096 0.62337 0.01244 0.0
C569 C 0.92698 0.64861 0.99465 0.0
C570 C 0.93131 0.62901 0.95905 0.0
C571 C 0.95894 0.59785 0.92761 0.0
C572 C 0.98165 0.58592 0.9338 0.0
C573 C 0.95351 0.61656 0.96653 0.0
C574 C 0.99844 0.59239 0.9811 0.0
C575 C 0.99315 0.61093 0.02004 0.0
H576 H 0.02555 0.10779 0.39908 0.0
H577 H 0.02956 0.15169 0.56174 0.0
H578 H 0.01428 0.11889 0.63811 0.0
H579 H 0.00641 0.07666 0.65928 0.0
H580 H 1.00247 0.03248 0.49711 0.0
H581 H 0.01039 0.06656 0.41939 0.0
C582 C 0.02253 0.11018 0.45115 0.0
C583 C 0.02892 0.13189 0.47523 0.0
C584 C 0.01386 0.09124 0.49459 0.0
C585 C 0.02474 0.13506 0.54244 0.0
C586 C 0.01615 0.11631 0.58601 0.0
C587 C 0.0066 0.07462 0.60685 0.0
C588 C 0.00422 0.05217 0.58371 0.0
C589 C 0.01157 0.09417 0.5628 0.0
C590 C 0.00421 0.04964 0.5159 0.0
C591 C 0.00903 0.06908 0.47154 0.0
H592 H 0.39827 0.93694 0.49103 0.0
H593 H 0.38438 0.01009 0.45692 0.0
H594 H 0.42387 0.02063 0.50624 0.0
H595 H 0.4612 0.00942 0.56185 0.0
H596 H 0.47516 0.93662 0.60323 0.0
H597 H 0.43706 0.92553 0.54676 0.0
C598 C 0.40401 0.95514 0.49454 0.0
C599 C 0.38832 0.97272 0.47143 0.0
C600 C 0.42677 0.96112 0.52354 0.0
C601 C 0.39589 0.99627 0.47582 0.0
C602 C 0.41855 0.00232 0.50342 0.0
C603 C 0.45618 0.99107 0.55805 0.0
C604 C 0.47101 0.97387 0.58667 0.0
C605 C 0.43399 0.98492 0.52779 0.0
C606 C 0.46407 0.95021 0.58143 0.0
C607 C 0.44222 0.94388 0.54952 0.0
H608 H 0.55172 0.39797 0.43889 0.0
H609 H 0.47136 0.40404 0.41173 0.0
H610 H 0.47092 0.4395 0.47142 0.0
H611 H 0.49222 0.46657 0.53806 0.0
H612 H 0.57171 0.4594 0.57533 0.0
H613 H 0.57392 0.42687 0.50342 0.0
C614 C 0.53427 0.40728 0.44581 0.0
C615 C 0.51154 0.39849 0.42185 0.0
C616 C 0.53404 0.42737 0.48161 0.0
C617 C 0.48894 0.41047 0.43074 0.0
C618 C 0.48872 0.43073 0.46452 0.0
C619 C 0.5102 0.45816 0.52999 0.0
C620 C 0.53173 0.4653 0.5624 0.0
C621 C 0.51101 0.43904 0.49117 0.0
C622 C 0.55484 0.45422 0.55098 0.0
C623 C 0.55606 0.43552 0.51027 0.0
H624 H 0.13904 0.58543 0.45791 0.0
H625 H 0.08495 0.57854 0.30902 0.0
H626 H 0.05143 0.56571 0.39314 0.0
H627 H 0.04022 0.54916 0.50578 0.0
H628 H 0.09398 0.55635 0.65451 0.0
H629 H 0.12489 0.57692 0.57392 0.0
C630 C 0.11972 0.58203 0.44392 0.0
C631 C 0.1147 0.5823 0.37708 0.0
C632 C 0.10059 0.57443 0.49251 0.0
C633 C 0.08948 0.57782 0.36004 0.0
C634 C 0.0703 0.57046 0.40807 0.0
C635 C 0.05837 0.55605 0.52067 0.0
C636 C 0.06506 0.55143 0.5853 0.0
C637 C 0.07602 0.56753 0.47399 0.0
C638 C 0.08856 0.56005 0.60478 0.0
C639 C 0.10625 0.57158 0.55865 0.0
H640 H 0.02453 0.88328 0.02619 0.0
H641 H 0.01378 0.83987 0.86473 0.0
H642 H 0.02661 0.87276 0.78653 0.0
H643 H 0.03453 0.91487 0.76472 0.0
H644 H 0.04457 0.95879 0.92538 0.0
H645 H 0.03892 0.9246 0.00348 0.0
C646 C 0.02543 0.88101 0.97385 0.0
C647 C 0.01792 0.85935 0.95103 0.0
C648 C 0.03257 0.90006 0.92925 0.0
C649 C 0.01951 0.8564 0.8833 0.0
C650 C 0.02668 0.87522 0.83864 0.0
C651 C 0.03606 0.91687 0.81676 0.0
C652 C 0.03958 0.93927 0.83955 0.0
C653 C 0.03235 0.89728 0.86111 0.0
C654 C 0.04188 0.94168 0.90682 0.0
C655 C 0.0384 0.92218 0.95145 0.0
H656 H 0.6496 0.05789 0.94362 0.0
H657 H 0.64996 0.98499 0.00784 0.0
H658 H 0.61023 0.97737 0.95571 0.0
H659 H 0.57741 0.99059 0.88646 0.0
H660 H 0.57745 0.06269 0.81323 0.0
H661 H 0.61472 0.07167 0.87547 0.0
C662 C 0.64075 0.04045 0.94622 0.0
C663 C 0.65263 0.02192 0.97857 0.0
C664 C 0.61808 0.03609 0.91484 0.0
C665 C 0.64119 -0.00064 0.9822 0.0
C666 C 0.61849 0.99503 0.95273 0.0
C667 C 0.58532 0.00838 0.88434 0.0
C668 C 0.57477 0.02591 0.84483 0.0
C669 C 0.60705 0.01316 0.91806 0.0
C670 C 0.58524 0.04885 0.84327 0.0
C671 C 0.60663 0.05395 0.8785 0.0
H672 H 0.49843 0.62209 0.97721 0.0
H673 H 0.55047 0.58253 0.091 0.0
H674 H 0.54114 0.54826 0.03116 0.0
H675 H 0.5224 0.53108 0.93787 0.0
H676 H 0.46952 0.56984 0.82552 0.0
H677 H 0.47407 0.60254 0.89564 0.0
C678 C 0.50728 0.60585 0.99013 0.0
C679 C 0.52573 0.60518 0.03728 0.0
C680 C 0.50158 0.58601 0.95604 0.0
C681 C 0.53693 0.58387 0.05325 0.0
C682 C 0.53143 0.56415 0.01951 0.0
C683 C 0.51137 0.54648 0.92985 0.0
C684 C 0.4959 0.54823 0.87635 0.0
C685 C 0.51445 0.56527 0.96942 0.0
C686 C 0.4815 0.5681 0.86664 0.0
C687 C 0.48435 0.5869 0.90622 0.0
H688 H 0.90907 0.40162 0.91739 0.0
H689 H 0.93905 0.42938 0.08954 0.0
H690 H 0.97728 0.44466 0.02492 0.0
H691 H 0.99781 0.45675 0.91643 0.0
H692 H 0.96868 0.42913 0.74357 0.0
H693 H 0.93461 0.40701 0.81123 0.0
C694 C 0.92436 0.41041 0.9409 0.0
C695 C 0.9211 0.41462 0.00787 0.0
C696 C 0.9462 0.41953 0.90313 0.0
C697 C 0.94112 0.42581 0.03813 0.0
C698 C 0.96289 0.43482 0.00106 0.0
C699 C 0.98441 0.4453 0.89403 0.0
C700 C 0.98536 0.44466 0.82554 0.0
C701 C 0.96499 0.43278 0.93309 0.0
C702 C 0.96819 0.42975 0.79647 0.0
C703 C 0.94863 0.41729 0.83506 0.0
H704 H 0.08431 0.14925 0.04971 0.0
H705 H 0.15651 0.16036 0.93791 0.0
H706 H 0.14682 0.12611 0.87544 0.0
H707 H 0.11651 0.09372 0.851 0.0
H708 H 0.04511 0.08302 0.96794 0.0
H709 H 0.05585 0.11621 0.03081 0.0
C710 C 0.09782 0.14418 0.0113 0.0
C711 C 0.12075 0.15736 0.99703 0.0
C712 C 0.0923 0.12449 0.97707 0.0
C713 C 0.13854 0.1505 0.94864 0.0
C714 C 0.13302 0.13094 0.91334 0.0
C715 C 0.10356 0.09853 0.89088 0.0
C716 C 0.07991 0.08616 0.90433 0.0
C717 C 0.10984 0.11784 0.92694 0.0
C718 C 0.06324 0.09252 0.95606 0.0
C719 C 0.06934 0.11148 0.99201 0.0
H720 H 0.37669 0.02785 0.95422 0.0
H721 H 0.37514 0.95321 0.99611 0.0
H722 H 0.41503 0.95092 0.92974 0.0
H723 H 0.45127 0.97002 0.86211 0.0
H724 H 0.45327 0.04464 0.82036 0.0
H725 H 0.4128 0.04697 0.88516 0.0
C726 C 0.38505 0.01107 0.94894 0.0
C727 C 0.37258 0.99074 0.98014 0.0
C728 C 0.40837 0.00985 0.91116 0.0
C729 C 0.38378 0.96915 0.97184 0.0
C730 C 0.40686 0.96781 0.93436 0.0
C731 C 0.44294 0.98683 0.86735 0.0
C732 C 0.45551 0.00713 0.83653 0.0
C733 C 0.41945 0.98805 0.90421 0.0
C734 C 0.44417 0.02871 0.84355 0.0
C735 C 0.42094 0.03006 0.88057 0.0
H736 H 0.49512 0.35936 0.87856 0.0
H737 H 0.43515 0.38132 0.01244 0.0
H738 H 0.43567 0.41917 0.95171 0.0
H739 H 0.45748 0.44824 0.86992 0.0
H740 H 0.52129 0.42734 0.74731 0.0
H741 H 0.51539 0.38733 0.79489 0.0
C742 C 0.48212 0.37236 0.89469 0.0
C743 C 0.46542 0.36736 0.95084 0.0
C744 C 0.48354 0.39462 0.862 0.0
C745 C 0.44813 0.38434 0.9692 0.0
C746 C 0.44863 0.40624 0.93496 0.0
C747 C 0.46976 0.43477 0.85323 0.0
C748 C 0.48986 0.4406 0.80569 0.0
C749 C 0.46688 0.41189 0.88273 0.0
C750 C 0.50584 0.42317 0.78446 0.0
C751 C 0.50246 0.40031 0.81151 0.0
H752 H 0.14889 0.49975 0.98984 0.0
H753 H 0.1991 0.51953 0.81891 0.0
H754 H 0.16459 0.5106 0.74746 0.0
H755 H 0.11871 0.50092 0.73478 0.0
H756 H 0.06808 0.48573 0.90767 0.0
H757 H 0.10409 0.48872 0.97743 0.0
C758 C 0.15243 0.50154 0.93687 0.0
C759 C 0.17651 0.50998 0.90947 0.0
C760 C 0.1323 0.49732 0.89664 0.0
C761 C 0.18071 0.51289 0.84089 0.0
C762 C 0.16097 0.50787 0.80019 0.0
C763 C 0.11582 0.4978 0.78764 0.0
C764 C 0.091 0.49288 0.81641 0.0
C765 C 0.13649 0.5006 0.82758 0.0
C766 C 0.08714 0.48941 0.88485 0.0
C767 C 0.10767 0.49119 0.92462 0.0
H768 H 0.9215 0.8531 0.38591 0.0
H769 H 0.94539 0.80356 0.53491 0.0
H770 H 0.95592 0.83548 0.60347 0.0
H771 H 0.96272 0.87758 0.61525 0.0
H772 H 0.93918 0.92689 0.46552 0.0
H773 H 0.92338 0.89483 0.40379 0.0
C774 C 0.92824 0.84914 0.43423 0.0
C775 C 0.93284 0.82592 0.45494 0.0
C776 C 0.93451 0.86756 0.47299 0.0
C777 C 0.94202 0.82128 0.51735 0.0
C778 C 0.94804 0.83952 0.55656 0.0
C779 C 0.95389 0.88126 0.56938 0.0
C780 C 0.9524 0.90451 0.54445 0.0
C781 C 0.94516 0.86275 0.53387 0.0
C782 C 0.94051 0.90913 0.48568 0.0
C783 C 0.93162 0.8908 0.45022 0.0
H784 H 0.66263 0.01764 0.42969 0.0
H785 H 0.68353 0.94959 0.50316 0.0
H786 H 0.64419 0.94573 0.57542 0.0
H787 H 0.60358 0.96216 0.61841 0.0
H788 H 0.58377 0.0303 0.54086 0.0
H789 H 0.62279 0.03355 0.47029 0.0
C790 C 0.65883 0.00207 0.46219 0.0
C791 C 0.67627 0.9841 0.46159 0.0
C792 C 0.63616 -9e-05 0.50291 0.0
C793 C 0.67052 0.96375 0.50269 0.0
C794 C 0.648 0.96155 0.54406 0.0
C795 C 0.60777 0.97764 0.58584 0.0
C796 C 0.59059 0.99595 0.58551 0.0
C797 C 0.63058 0.97953 0.5446 0.0
C798 C 0.59648 0.0159 0.54278 0.0
C799 C 0.61891 0.01786 0.50217 0.0
H800 H 0.54034 0.64547 0.49228 0.0
H801 H 0.62058 0.63867 0.51973 0.0
H802 H 0.61081 0.60249 0.58847 0.0
H803 H 0.57936 0.57127 0.63393 0.0
H804 H 0.49943 0.57866 0.60095 0.0
H805 H 0.50926 0.61615 0.54173 0.0
C806 C 0.5557 0.6365 0.51479 0.0
C807 C 0.58113 0.64491 0.50138 0.0
C808 C 0.55001 0.61555 0.55256 0.0
C809 C 0.60082 0.63259 0.52942 0.0
C810 C 0.59524 0.61185 0.56845 0.0
C811 C 0.56412 0.58117 0.61405 0.0
C812 C 0.53872 0.57198 0.62154 0.0
C813 C 0.56991 0.60287 0.57914 0.0
C814 C 0.51919 0.5851 0.59558 0.0
C815 C 0.52475 0.60665 0.56176 0.0
H816 H 0.87377 0.49793 0.51963 0.0
H817 H 0.92072 0.48834 0.34348 0.0
H818 H 0.9593 0.49257 0.40317 0.0
H819 H 0.97964 0.49675 0.50657 0.0
H820 H 0.93356 0.50877 0.68221 0.0
H821 H 0.89472 0.50606 0.62187 0.0
C822 C 0.8925 0.49705 0.49449 0.0
C823 C 0.89449 0.49285 0.42741 0.0
C824 C 0.9147 0.49983 0.52903 0.0
C825 C 0.9188 0.49179 0.395 0.0
C826 C 0.94084 0.49407 0.42914 0.0
C827 C 0.96108 0.49894 0.53144 0.0
C828 C 0.95936 0.50271 0.5987 0.0
C829 C 0.93901 0.49776 0.49629 0.0
C830 C 0.9353 0.50587 0.63032 0.0
C831 C 0.91311 0.50422 0.59592 0.0
loop_
_geom_bond_atom_site_label_1
_geom_bond_atom_site_label_2
_geom_bond_distance
_geom_bond_site_symmetry_2
_ccdc_geom_bond_type
C0 C1 1.386 . S
C0 C2 1.397 . S
C0 H24 0.931 . S
C1 C0 1.386 . S
C1 C5 1.397 1_556 S
C2 C0 1.397 . S
C2 C3 1.384 1_556 S
C2 H25 0.930 . S
C3 C2 1.384 1_554 S
C3 C4 1.377 . S
C3 C6 1.481 . S
C4 C3 1.377 . S
C4 C5 1.389 . S
C4 H26 0.929 . S
C5 C1 1.397 1_554 S
C5 C4 1.389 . S
C5 H27 0.931 . S
C6 C3 1.481 . S
C6 C7 1.387 . S
C6 C11 1.390 . S
C7 C6 1.387 . S
C7 C8 1.401 . S
C7 H28 0.930 . S
C8 C7 1.401 . S
C8 C9 1.376 . S
C8 C17 1.511 . S
C9 C8 1.376 . S
C9 C10 1.392 . S
C9 H30 0.931 . S
C10 C9 1.392 . S
C10 C11 1.361 . S
C10 C12 1.500 . S
C11 C6 1.390 . S
C11 C10 1.361 . S
C11 H29 0.931 . S
C12 C10 1.500 . S
C12 C13 1.371 . S
C12 C14 1.365 . S
C13 C12 1.371 . S
C13 C23 1.386 . S
C13 H31 0.931 . S
C14 C12 1.365 . S
C14 C15 1.409 . S
C14 H32 0.929 . S
C15 C14 1.409 . S
C15 C16 1.380 . S
C15 H33 0.930 . S
C16 C15 1.380 . S
C16 C23 1.357 . S
C17 C8 1.511 . S
C17 C18 1.341 . S
C17 C19 1.371 . S
C18 C17 1.341 . S
C18 C22 1.394 . S
C18 H34 0.930 . S
C19 C17 1.371 . S
C19 C20 1.392 . S
C19 H35 0.931 . S
C20 C19 1.392 . S
C20 C21 1.331 . S
C20 H38 0.932 . S
C21 C20 1.331 . S
C21 C22 1.336 . S
C22 C18 1.394 . S
C22 C21 1.336 . S
C22 H37 0.929 . S
C23 C13 1.386 . S
C23 C16 1.357 . S
C23 H36 0.928 . S
H24 C0 0.931 . S
H25 C2 0.930 . S
H26 C4 0.929 . S
H27 C5 0.931 . S
H28 C7 0.930 . S
H29 C11 0.931 . S
H30 C9 0.931 . S
H31 C13 0.931 . S
H32 C14 0.929 . S
H33 C15 0.930 . S
H34 C18 0.930 . S
H35 C19 0.931 . S
H36 C23 0.928 . S
H37 C22 0.929 . S
H38 C20 0.932 . S
C39 C40 1.386 . S
C39 C41 1.397 . S
C39 H63 0.931 . S
C40 C39 1.386 . S
C40 C44 1.397 . S
C41 C39 1.397 . S
C41 C42 1.384 . S
C41 H64 0.930 . S
C42 C41 1.384 . S
C42 C43 1.377 . S
C42 C45 1.481 . S
C43 C42 1.377 . S
C43 C44 1.389 . S
C43 H65 0.929 . S
C44 C40 1.397 . S
C44 C43 1.389 . S
C44 H66 0.931 . S
C45 C42 1.481 . S
C45 C46 1.387 . S
C45 C50 1.390 1_556 S
C46 C45 1.387 . S
C46 C47 1.401 . S
C46 H67 0.930 . S
C47 C46 1.401 . S
C47 C48 1.376 1_556 S
C47 C56 1.511 . S
C48 C47 1.376 1_554 S
C48 C49 1.392 . S
C48 H69 0.931 . S
C49 C48 1.392 . S
C49 C50 1.361 . S
C49 C51 1.500 . S
C50 C45 1.390 1_554 S
C50 C49 1.361 . S
C50 H68 0.931 . S
C51 C49 1.500 . S
C51 C52 1.371 . S
C51 C53 1.365 . S
C52 C51 1.371 . S
C52 C62 1.386 . S
C52 H70 0.931 . S
C53 C51 1.365 . S
C53 C54 1.409 . S
C53 H71 0.929 . S
C54 C53 1.409 . S
C54 C55 1.380 . S
C54 H72 0.930 . S
C55 C54 1.380 . S
C55 C62 1.357 . S
C56 C47 1.511 . S
C56 C57 1.341 . S
C56 C58 1.371 1_556 S
C57 C56 1.341 . S
C57 C61 1.394 . S
C57 H73 0.930 . S
C58 C56 1.371 1_554 S
C58 C59 1.392 . S
C58 H74 0.931 . S
C59 C58 1.392 . S
C59 C60 1.331 1_554 S
C59 H77 0.932 . S
C60 C59 1.331 1_556 S
C60 C61 1.336 . S
C61 C57 1.394 . S
C61 C60 1.336 . S
C61 H76 0.929 . S
C62 C52 1.386 . S
C62 C55 1.357 . S
C62 H75 0.928 . S
H63 C39 0.931 . S
H64 C41 0.930 . S
H65 C43 0.929 . S
H66 C44 0.931 . S
H67 C46 0.930 . S
H68 C50 0.931 . S
H69 C48 0.931 . S
H70 C52 0.931 . S
H71 C53 0.929 . S
H72 C54 0.930 . S
H73 C57 0.930 . S
H74 C58 0.931 . S
H75 C62 0.928 . S
H76 C61 0.929 . S
H77 C59 0.932 . S
C78 C79 1.395 . S
C78 C80 1.397 . S
C78 H102 0.931 . S
C79 C78 1.395 . S
C79 C83 1.388 1_565 S
C80 C78 1.397 . S
C80 C81 1.389 . S
C80 H103 0.930 . S
C81 C80 1.389 . S
C81 C82 1.372 1_565 S
C81 C84 1.481 1_556 S
C82 C81 1.372 1_545 S
C82 C83 1.389 . S
C82 H104 0.929 1_556 S
C83 C79 1.388 1_545 S
C83 C82 1.389 . S
C83 H105 0.931 . S
C84 C81 1.481 1_554 S
C84 C85 1.390 . S
C84 C89 1.389 . S
C85 C84 1.390 . S
C85 C86 1.403 . S
C85 H106 0.930 1_554 S
C86 C85 1.403 . S
C86 C87 1.377 . S
C86 C95 1.515 . S
C87 C86 1.377 . S
C87 C88 1.389 . S
C87 H108 0.933 . S
C88 C87 1.389 . S
C88 C89 1.361 . S
C88 C90 1.497 1_565 S
C89 C84 1.389 . S
C89 C88 1.361 . S
C89 H107 0.931 . S
C90 C88 1.497 1_545 S
C90 C91 1.362 1_545 S
C90 C92 1.376 . S
C91 C90 1.362 1_565 S
C91 C101 1.386 . S
C91 H109 0.931 . S
C92 C90 1.376 . S
C92 C93 1.409 . S
C92 H110 0.929 . S
C93 C92 1.409 . S
C93 C94 1.379 . S
C93 H111 0.930 . S
C94 C93 1.379 . S
C94 C101 1.358 1_545 S
C95 C86 1.515 . S
C95 C96 1.330 1_554 S
C95 C97 1.371 1_565 S
C96 C95 1.330 1_556 S
C96 C100 1.397 . S
C96 H112 0.939 . S
C97 C95 1.371 1_545 S
C97 C98 1.392 . S
C97 H113 0.931 . S
C98 C97 1.392 . S
C98 C99 1.320 1_545 S
C98 H116 0.932 . S
C99 C98 1.320 1_565 S
C99 C100 1.346 1_554 S
C100 C96 1.397 . S
C100 C99 1.346 1_556 S
C100 H115 0.929 . S
C101 C91 1.386 . S
C101 C94 1.358 1_565 S
C101 H114 0.928 . S
H102 C78 0.931 . S
H103 C80 0.930 . S
H104 C82 0.929 1_554 S
H105 C83 0.931 . S
H106 C85 0.930 1_556 S
H107 C89 0.931 . S
H108 C87 0.933 . S
H109 C91 0.931 . S
H110 C92 0.929 . S
H111 C93 0.930 . S
H112 C96 0.939 . S
H113 C97 0.931 . S
H114 C101 0.928 . S
H115 C100 0.929 . S
H116 C98 0.932 . S
C117 C118 1.386 . S
C117 C119 1.397 . S
C117 H141 0.931 . S
C118 C117 1.386 . S
C118 C122 1.397 . S
C119 C117 1.397 . S
C119 C120 1.384 . S
C119 H142 0.930 . S
C120 C119 1.384 . S
C120 C121 1.377 . S
C120 C123 1.481 . S
C121 C120 1.377 . S
C121 C122 1.389 . S
C121 H143 0.929 . S
C122 C118 1.397 . S
C122 C121 1.389 . S
C122 H144 0.931 . S
C123 C120 1.481 . S
C123 C124 1.387 . S
C123 C128 1.390 . S
C124 C123 1.387 . S
C124 C125 1.401 . S
C124 H145 0.930 . S
C125 C124 1.401 . S
C125 C126 1.376 . S
C125 C134 1.511 . S
C126 C125 1.376 . S
C126 C127 1.392 . S
C126 H147 0.931 1_554 S
C127 C126 1.392 . S
C127 C128 1.361 . S
C127 C129 1.503 . S
C128 C123 1.390 . S
C128 C127 1.361 . S
C128 H146 0.931 . S
C129 C127 1.503 . S
C129 C130 1.367 1_554 S
C129 C131 1.365 . S
C130 C129 1.367 1_556 S
C130 C140 1.386 . S
C130 H148 0.931 . S
C131 C129 1.365 . S
C131 C132 1.409 1_554 S
C131 H149 0.929 . S
C132 C131 1.409 1_556 S
C132 C133 1.380 . S
C132 H150 0.930 . S
C133 C132 1.380 . S
C133 C140 1.357 . S
C134 C125 1.511 . S
C134 C135 1.341 . S
C134 C136 1.371 . S
C135 C134 1.341 . S
C135 C139 1.394 . S
C135 H151 0.930 . S
C136 C134 1.371 . S
C136 C137 1.392 1_554 S
C136 H152 0.931 1_554 S
C137 C136 1.392 1_556 S
C137 C138 1.331 1_556 S
C137 H155 0.932 . S
C138 C137 1.331 1_554 S
C138 C139 1.336 . S
C139 C135 1.394 . S
C139 C138 1.336 . S
C139 H154 0.929 . S
C140 C130 1.386 . S
C140 C133 1.357 . S
C140 H153 0.928 . S
H141 C117 0.931 . S
H142 C119 0.930 . S
H143 C121 0.929 . S
H144 C122 0.931 . S
H145 C124 0.930 . S
H146 C128 0.931 . S
H147 C126 0.931 1_556 S
H148 C130 0.931 . S
H149 C131 0.929 . S
H150 C132 0.930 . S
H151 C135 0.930 . S
H152 C136 0.931 1_556 S
H153 C140 0.928 . S
H154 C139 0.929 . S
H155 C137 0.932 . S
C156 C157 1.386 . S
C156 C158 1.397 . S
C156 H180 0.931 . S
C157 C156 1.386 . S
C157 C161 1.397 . S
C158 C156 1.397 . S
C158 C159 1.384 . S
C158 H181 0.930 . S
C159 C158 1.384 . S
C159 C160 1.377 . S
C159 C162 1.481 . S
C160 C159 1.377 . S
C160 C161 1.389 . S
C160 H182 0.929 . S
C161 C157 1.397 . S
C161 C160 1.389 . S
C161 H183 0.931 . S
C162 C159 1.481 . S
C162 C163 1.387 . S
C162 C167 1.390 . S
C163 C162 1.387 . S
C163 C164 1.401 . S
C163 H184 0.930 . S
C164 C163 1.401 . S
C164 C165 1.376 . S
C164 C173 1.511 . S
C165 C164 1.376 . S
C165 C166 1.392 . S
C165 H186 0.931 . S
C166 C165 1.392 . S
C166 C167 1.361 . S
C166 C168 1.500 . S
C167 C162 1.390 . S
C167 C166 1.361 . S
C167 H185 0.931 . S
C168 C166 1.500 . S
C168 C169 1.371 . S
C168 C170 1.365 . S
C169 C168 1.371 . S
C169 C179 1.386 . S
C169 H187 0.931 . S
C170 C168 1.365 . S
C170 C171 1.409 . S
C170 H188 0.929 . S
C171 C170 1.409 . S
C171 C172 1.380 . S
C171 H189 0.930 . S
C172 C171 1.380 . S
C172 C179 1.357 . S
C173 C164 1.511 . S
C173 C174 1.341 . S
C173 C175 1.371 . S
C174 C173 1.341 . S
C174 C178 1.394 . S
C174 H190 0.930 . S
C175 C173 1.371 . S
C175 C176 1.392 . S
C175 H191 0.931 . S
C176 C175 1.392 . S
C176 C177 1.331 . S
C176 H194 0.932 . S
C177 C176 1.331 . S
C177 C178 1.336 . S
C178 C174 1.394 . S
C178 C177 1.336 . S
C178 H193 0.929 . S
C179 C169 1.386 . S
C179 C172 1.357 . S
C179 H192 0.928 1_554 S
H180 C156 0.931 . S
H181 C158 0.930 . S
H182 C160 0.929 . S
H183 C161 0.931 . S
H184 C163 0.930 . S
H185 C167 0.931 . S
H186 C165 0.931 . S
H187 C169 0.931 . S
H188 C170 0.929 . S
H189 C171 0.930 . S
H190 C174 0.930 . S
H191 C175 0.931 . S
H192 C179 0.928 1_556 S
H193 C178 0.929 . S
H194 C176 0.932 . S
C195 C196 1.386 . S
C195 C197 1.397 . S
C195 H219 0.931 . S
C196 C195 1.386 . S
C196 C200 1.397 . S
C197 C195 1.397 . S
C197 C198 1.384 . S
C197 H220 0.930 . S
C198 C197 1.384 . S
C198 C199 1.377 . S
C198 C201 1.481 . S
C199 C198 1.377 . S
C199 C200 1.389 . S
C199 H221 0.929 . S
C200 C196 1.397 . S
C200 C199 1.389 . S
C200 H222 0.931 . S
C201 C198 1.481 . S
C201 C202 1.387 . S
C201 C206 1.390 . S
C202 C201 1.387 . S
C202 C203 1.401 . S
C202 H223 0.930 . S
C203 C202 1.401 . S
C203 C204 1.376 . S
C203 C212 1.511 . S
C204 C203 1.376 . S
C204 C205 1.392 . S
C204 H225 0.931 . S
C205 C204 1.392 . S
C205 C206 1.361 . S
C205 C207 1.500 . S
C206 C201 1.390 . S
C206 C205 1.361 . S
C206 H224 0.931 . S
C207 C205 1.500 . S
C207 C208 1.371 . S
C207 C209 1.365 . S
C208 C207 1.371 . S
C208 C218 1.386 . S
C208 H226 0.931 . S
C209 C207 1.365 . S
C209 C210 1.409 . S
C209 H227 0.929 . S
C210 C209 1.409 . S
C210 C211 1.380 . S
C210 H228 0.930 . S
C211 C210 1.380 . S
C211 C218 1.357 . S
C212 C203 1.511 . S
C212 C213 1.341 . S
C212 C214 1.371 . S
C213 C212 1.341 . S
C213 C217 1.394 . S
C213 H229 0.930 . S
C214 C212 1.371 . S
C214 C215 1.392 . S
C214 H230 0.931 . S
C215 C214 1.392 . S
C215 C216 1.331 . S
C215 H233 0.932 . S
C216 C215 1.331 . S
C216 C217 1.336 . S
C217 C213 1.394 . S
C217 C216 1.336 . S
C217 H232 0.929 . S
C218 C208 1.386 . S
C218 C211 1.357 . S
C218 H231 0.928 . S
H219 C195 0.931 . S
H220 C197 0.930 . S
H221 C199 0.929 . S
H222 C200 0.931 . S
H223 C202 0.930 . S
H224 C206 0.931 . S
H225 C204 0.931 . S
H226 C208 0.931 . S
H227 C209 0.929 . S
H228 C210 0.930 . S
H229 C213 0.930 . S
H230 C214 0.931 . S
H231 C218 0.928 . S
H232 C217 0.929 . S
H233 C215 0.932 . S
C234 C235 1.388 . S
C234 C236 1.397 . S
C234 H258 0.931 . S
C235 C234 1.388 . S
C235 C239 1.396 1_565 S
C236 C234 1.397 . S
C236 C237 1.382 . S
C236 H259 0.930 . S
C237 C236 1.382 . S
C237 C238 1.379 1_565 S
C237 C240 1.480 . S
C238 C237 1.379 1_545 S
C238 C239 1.389 . S
C238 H260 0.929 . S
C239 C235 1.396 1_545 S
C239 C238 1.389 . S
C239 H261 0.931 . S
C240 C237 1.480 . S
C240 C241 1.387 . S
C240 C245 1.392 . S
C241 C240 1.387 . S
C241 C242 1.401 . S
C241 H262 0.930 . S
C242 C241 1.401 . S
C242 C243 1.375 . S
C242 C251 1.511 . S
C243 C242 1.375 . S
C243 C244 1.393 1_565 S
C243 H264 0.934 . S
C244 C243 1.393 1_545 S
C244 C245 1.361 1_545 S
C244 C246 1.502 . S
C245 C240 1.392 . S
C245 C244 1.361 1_565 S
C245 H263 0.931 . S
C246 C244 1.502 . S
C246 C247 1.356 1_545 S
C246 C248 1.379 . S
C247 C246 1.356 1_565 S
C247 C257 1.386 . S
C247 H265 0.931 . S
C248 C246 1.379 . S
C248 C249 1.409 . S
C248 H266 0.929 . S
C249 C248 1.409 . S
C249 C250 1.385 . S
C249 H267 0.930 . S
C250 C249 1.385 . S
C250 C257 1.354 1_545 S
C251 C242 1.511 . S
C251 C252 1.341 . S
C251 C253 1.371 1_565 S
C252 C251 1.341 . S
C252 C256 1.394 . S
C252 H268 0.930 . S
C253 C251 1.371 1_545 S
C253 C254 1.392 . S
C253 H269 0.931 . S
C254 C253 1.392 . S
C254 C255 1.327 1_545 S
C254 H272 0.932 . S
C255 C254 1.327 1_565 S
C255 C256 1.341 . S
C256 C252 1.394 . S
C256 C255 1.341 . S
C256 H271 0.929 . S
C257 C247 1.386 . S
C257 C250 1.354 1_565 S
C257 H270 0.928 . S
H258 C234 0.931 . S
H259 C236 0.930 . S
H260 C238 0.929 . S
H261 C239 0.931 . S
H262 C241 0.930 . S
H263 C245 0.931 . S
H264 C243 0.934 . S
H265 C247 0.931 . S
H266 C248 0.929 . S
H267 C249 0.930 . S
H268 C252 0.930 . S
H269 C253 0.931 . S
H270 C257 0.928 . S
H271 C256 0.929 . S
H272 C254 0.932 . S
C273 C274 1.386 . S
C273 C275 1.397 . S
C273 H297 0.931 . S
C274 C273 1.386 . S
C274 C278 1.397 . S
C275 C273 1.397 . S
C275 C276 1.384 . S
C275 H298 0.930 . S
C276 C275 1.384 . S
C276 C277 1.377 . S
C276 C279 1.481 . S
C277 C276 1.377 . S
C277 C278 1.389 . S
C277 H299 0.929 . S
C278 C274 1.397 . S
C278 C277 1.389 . S
C278 H300 0.931 . S
C279 C276 1.481 . S
C279 C280 1.387 . S
C279 C284 1.390 . S
C280 C279 1.387 . S
C280 C281 1.401 . S
C280 H301 0.930 . S
C281 C280 1.401 . S
C281 C282 1.376 . S
C281 C290 1.511 . S
C282 C281 1.376 . S
C282 C283 1.392 . S
C282 H303 0.931 . S
C283 C282 1.392 . S
C283 C284 1.361 . S
C283 C285 1.500 . S
C284 C279 1.390 . S
C284 C283 1.361 . S
C284 H302 0.931 . S
C285 C283 1.500 . S
C285 C286 1.371 . S
C285 C287 1.365 . S
C286 C285 1.371 . S
C286 C296 1.386 . S
C286 H304 0.931 . S
C287 C285 1.365 . S
C287 C288 1.409 . S
C287 H305 0.929 . S
C288 C287 1.409 . S
C288 C289 1.380 . S
C288 H306 0.930 . S
C289 C288 1.380 . S
C289 C296 1.357 . S
C290 C281 1.511 . S
C290 C291 1.341 . S
C290 C292 1.371 . S
C291 C290 1.341 . S
C291 C295 1.394 . S
C291 H307 0.930 . S
C292 C290 1.371 . S
C292 C293 1.392 . S
C292 H308 0.931 . S
C293 C292 1.392 . S
C293 C294 1.331 . S
C293 H311 0.932 . S
C294 C293 1.331 . S
C294 C295 1.336 . S
C295 C291 1.394 . S
C295 C294 1.336 . S
C295 H310 0.929 . S
C296 C286 1.386 . S
C296 C289 1.357 . S
C296 H309 0.928 . S
H297 C273 0.931 . S
H298 C275 0.930 . S
H299 C277 0.929 . S
H300 C278 0.931 . S
H301 C280 0.930 . S
H302 C284 0.931 . S
H303 C282 0.931 . S
H304 C286 0.931 . S
H305 C287 0.929 . S
H306 C288 0.930 . S
H307 C291 0.930 . S
H308 C292 0.931 . S
H309 C296 0.928 . S
H310 C295 0.929 . S
H311 C293 0.932 . S
C312 O328 1.251 . S
C312 O330 1.254 . S
N313 C314 1.334 . S
N313 C318 1.307 . S
N313 Zn319 2.020 1_655 S
C314 N313 1.334 . S
C314 C315 1.382 . S
C314 H332 0.948 1_655 S
C315 C314 1.382 . S
C315 C316 1.390 . S
C315 H342 0.949 . S
C316 C315 1.390 . S
C316 C317 1.357 . S
C317 C316 1.357 . S
C317 C318 1.370 . S
C317 H343 0.950 . S
C318 N313 1.307 . S
C318 C317 1.370 . S
C318 H336 0.906 1_565 S
Zn319 N313 2.020 1_455 S
Zn319 O328 2.039 . S
Zn319 O334 2.034 . S
Zn319 O338 2.025 1_565 S
Zn319 O340 2.032 1_455 S
C320 O339 1.246 . S
C320 O340 1.239 1_545 S
N321 C322 1.307 . S
N321 C323 1.333 . S
N321 Zn327 2.020 . S
C322 N321 1.307 . S
C322 C326 1.370 . S
C322 H333 0.917 1_545 S
C323 N321 1.333 . S
C323 C324 1.379 . S
C323 H331 0.952 . S
C324 C323 1.379 . S
C324 C325 1.390 . S
C324 H344 0.949 . S
C325 C324 1.390 . S
C325 C326 1.357 . S
C326 C322 1.370 . S
C326 C325 1.357 . S
C326 H345 0.950 . S
Zn327 N321 2.020 . S
Zn327 O330 2.025 1_545 S
Zn327 O335 2.035 . S
Zn327 O337 2.039 . S
Zn327 O339 2.034 1_455 S
O328 C312 1.251 . S
O328 Zn319 2.039 . S
C329 O334 1.246 . S
C329 O335 1.234 1_565 S
O330 C312 1.254 . S
O330 Zn327 2.025 1_565 S
H331 C323 0.952 . S
H332 C314 0.948 1_455 S
H333 C322 0.917 1_565 S
O334 Zn319 2.034 . S
O334 C329 1.246 . S
O335 Zn327 2.035 . S
O335 C329 1.234 1_545 S
H336 C318 0.906 1_545 S
O337 Zn327 2.039 . S
O337 C341 1.251 . S
O338 Zn319 2.025 1_545 S
O338 C341 1.254 . S
O339 C320 1.246 . S
O339 Zn327 2.034 1_655 S
O340 Zn319 2.032 1_655 S
O340 C320 1.239 1_565 S
C341 O337 1.251 . S
C341 O338 1.254 . S
H342 C315 0.949 . S
H343 C317 0.950 . S
H344 C324 0.949 . S
H345 C326 0.950 . S
C346 O362 1.251 1_565 S
C346 O364 1.254 . S
N347 C348 1.333 . S
N347 C352 1.307 . S
N347 Zn353 2.020 . S
C348 N347 1.333 . S
C348 C349 1.379 . S
C348 H366 0.952 . S
C349 C348 1.379 . S
C349 C350 1.390 . S
C349 H376 0.949 . S
C350 C349 1.390 . S
C350 C351 1.357 . S
C351 C350 1.357 . S
C351 C352 1.370 . S
C351 H377 0.950 . S
C352 N347 1.307 . S
C352 C351 1.370 . S
C352 H370 0.948 . S
Zn353 N347 2.020 . S
Zn353 O362 2.039 . S
Zn353 O368 2.034 . S
Zn353 O372 2.025 . S
Zn353 O374 2.024 . S
C354 O373 1.246 1_545 S
C354 O374 1.249 . S
N355 C356 1.307 . S
N355 C357 1.333 . S
N355 Zn361 2.020 . S
C356 N355 1.307 . S
C356 C360 1.370 . S
C356 H367 0.948 . S
C357 N355 1.333 . S
C357 C358 1.379 . S
C357 H365 0.952 . S
C358 C357 1.379 . S
C358 C359 1.390 . S
C358 H378 0.949 . S
C359 C358 1.390 . S
C359 C360 1.357 . S
C360 C356 1.370 . S
C360 C359 1.357 . S
C360 H379 0.950 . S
Zn361 N355 2.020 . S
Zn361 O364 2.025 . S
Zn361 O369 2.024 . S
Zn361 O371 2.039 . S
Zn361 O373 2.034 . S
O362 C346 1.251 1_545 S
O362 Zn353 2.039 . S
C363 O368 1.246 1_565 S
C363 O369 1.249 . S
O364 C346 1.254 . S
O364 Zn361 2.025 . S
H365 C357 0.952 . S
H366 C348 0.952 . S
H367 C356 0.948 . S
O368 Zn353 2.034 . S
O368 C363 1.246 1_545 S
O369 Zn361 2.024 . S
O369 C363 1.249 . S
H370 C352 0.948 . S
O371 Zn361 2.039 . S
O371 C375 1.251 1_565 S
O372 Zn353 2.025 . S
O372 C375 1.254 . S
O373 C354 1.246 1_565 S
O373 Zn361 2.034 . S
O374 Zn353 2.024 . S
O374 C354 1.249 . S
C375 O371 1.251 1_545 S
C375 O372 1.254 . S
H376 C349 0.949 . S
H377 C351 0.950 . S
H378 C358 0.949 . S
H379 C360 0.950 . S
C380 O396 1.251 . S
C380 O398 1.254 . S
N381 C382 1.333 . S
N381 C386 1.307 . S
N381 Zn387 2.020 . S
C382 N381 1.333 . S
C382 C383 1.379 . S
C382 H400 0.952 . S
C383 C382 1.379 . S
C383 C384 1.390 . S
C383 H410 0.949 . S
C384 C383 1.390 . S
C384 C385 1.357 . S
C385 C384 1.357 . S
C385 C386 1.370 . S
C385 H411 0.950 . S
C386 N381 1.307 . S
C386 C385 1.370 . S
C386 H404 0.948 . S
Zn387 N381 2.020 . S
Zn387 O396 2.039 . S
Zn387 O402 2.034 . S
Zn387 O406 2.025 . S
Zn387 O408 2.024 . S
C388 O407 1.246 . S
C388 O408 1.249 . S
N389 C390 1.307 . S
N389 C391 1.333 . S
N389 Zn395 2.020 . S
C390 N389 1.307 . S
C390 C394 1.370 . S
C390 H401 0.948 . S
C391 N389 1.333 . S
C391 C392 1.379 . S
C391 H399 0.952 . S
C392 C391 1.379 . S
C392 C393 1.390 . S
C392 H412 0.949 . S
C393 C392 1.390 . S
C393 C394 1.357 . S
C394 C390 1.370 . S
C394 C393 1.357 . S
C394 H413 0.950 . S
Zn395 N389 2.020 . S
Zn395 O398 2.025 . S
Zn395 O403 2.024 . S
Zn395 O405 2.039 . S
Zn395 O407 2.034 . S
O396 C380 1.251 . S
O396 Zn387 2.039 . S
C397 O402 1.246 . S
C397 O403 1.249 . S
O398 C380 1.254 . S
O398 Zn395 2.025 . S
H399 C391 0.952 . S
H400 C382 0.952 . S
H401 C390 0.948 . S
O402 Zn387 2.034 . S
O402 C397 1.246 . S
O403 Zn395 2.024 . S
O403 C397 1.249 . S
H404 C386 0.948 . S
O405 Zn395 2.039 . S
O405 C409 1.251 . S
O406 Zn387 2.025 . S
O406 C409 1.254 . S
O407 C388 1.246 . S
O407 Zn395 2.034 . S
O408 Zn387 2.024 . S
O408 C388 1.249 . S
C409 O405 1.251 . S
C409 O406 1.254 . S
H410 C383 0.949 . S
H411 C385 0.950 . S
H412 C392 0.949 . S
H413 C394 0.950 . S
C414 O430 1.251 . S
C414 O432 1.254 . S
N415 C416 1.333 . S
N415 C420 1.307 . S
N415 Zn421 2.020 . S
C416 N415 1.333 . S
C416 C417 1.379 . S
C416 H434 0.952 . S
C417 C416 1.379 . S
C417 C418 1.390 . S
C417 H444 0.949 . S
C418 C417 1.390 . S
C418 C419 1.357 . S
C419 C418 1.357 . S
C419 C420 1.370 . S
C419 H445 0.950 . S
C420 N415 1.307 . S
C420 C419 1.370 . S
C420 H438 0.948 . S
Zn421 N415 2.020 . S
Zn421 O430 2.039 . S
Zn421 O436 2.032 1_455 S
Zn421 O440 2.025 1_455 S
Zn421 O442 2.024 . S
C422 O441 1.246 . S
C422 O442 1.249 . S
N423 C424 1.307 . S
N423 C425 1.333 1_455 S
N423 Zn429 2.020 . S
C424 N423 1.307 . S
C424 C428 1.370 1_455 S
C424 H435 0.948 . S
C425 N423 1.333 1_655 S
C425 C426 1.379 . S
C425 H433 0.952 . S
C426 C425 1.379 . S
C426 C427 1.390 . S
C426 H446 0.949 . S
C427 C426 1.390 . S
C427 C428 1.357 . S
C428 C424 1.370 1_655 S
C428 C427 1.357 . S
C428 H447 0.949 1_655 S
Zn429 N423 2.020 . S
Zn429 O432 2.025 . S
Zn429 O437 2.024 1_455 S
Zn429 O439 2.039 1_455 S
Zn429 O441 2.034 . S
O430 C414 1.251 . S
O430 Zn421 2.039 . S
C431 O436 1.247 . S
C431 O437 1.249 . S
O432 C414 1.254 . S
O432 Zn429 2.025 . S
H433 C425 0.952 . S
H434 C416 0.952 . S
H435 C424 0.948 . S
O436 Zn421 2.032 1_655 S
O436 C431 1.247 . S
O437 Zn429 2.024 1_655 S
O437 C431 1.249 . S
H438 C420 0.948 . S
O439 Zn429 2.039 1_655 S
O439 C443 1.251 . S
O440 Zn421 2.025 1_655 S
O440 C443 1.254 . S
O441 C422 1.246 . S
O441 Zn429 2.034 . S
O442 Zn421 2.024 . S
O442 C422 1.249 . S
C443 O439 1.251 . S
C443 O440 1.254 . S
H444 C417 0.949 . S
H445 C419 0.950 . S
H446 C426 0.949 . S
H447 C428 0.949 1_455 S
H448 C454 0.930 . S
H449 C457 0.930 . S
H450 C458 0.930 . S
H451 C459 0.930 . S
H452 C462 0.930 . S
H453 C463 0.933 . S
C454 H448 0.930 . S
C454 C455 1.352 1_545 S
C454 C456 1.414 1_545 S
C455 C454 1.352 1_565 S
C455 C457 1.424 . S
C456 C454 1.414 1_565 S
C456 C461 1.425 . S
C456 C463 1.409 . S
C457 H449 0.930 . S
C457 C455 1.424 . S
C457 C458 1.362 . S
C458 H450 0.930 . S
C458 C457 1.362 . S
C458 C461 1.409 . S
C459 H451 0.930 . S
C459 C460 1.355 . S
C459 C461 1.415 . S
C460 C459 1.355 . S
C460 C462 1.419 . S
C461 C456 1.425 . S
C461 C458 1.409 . S
C461 C459 1.415 . S
C462 H452 0.930 . S
C462 C460 1.419 . S
C462 C463 1.362 . S
C463 H453 0.933 . S
C463 C456 1.409 . S
C463 C462 1.362 . S
H464 C470 0.930 . S
H465 C473 0.930 . S
H466 C474 0.930 . S
H467 C475 0.930 . S
H468 C478 0.930 . S
H469 C479 0.930 . S
C470 H464 0.930 . S
C470 C471 1.355 . S
C470 C472 1.415 . S
C471 C470 1.355 . S
C471 C473 1.419 . S
C472 C470 1.415 . S
C472 C477 1.425 . S
C472 C479 1.409 . S
C473 H465 0.930 . S
C473 C471 1.419 . S
C473 C474 1.362 . S
C474 H466 0.930 . S
C474 C473 1.362 . S
C474 C477 1.409 . S
C475 H467 0.930 . S
C475 C476 1.355 . S
C475 C477 1.415 . S
C476 C475 1.355 . S
C476 C478 1.419 . S
C477 C472 1.425 . S
C477 C474 1.409 . S
C477 C475 1.415 . S
C478 H468 0.930 . S
C478 C476 1.419 . S
C478 C479 1.362 . S
C479 H469 0.930 . S
C479 C472 1.409 . S
C479 C478 1.362 . S
H480 C486 0.930 . S
H481 C489 0.930 . S
H482 C490 0.930 . S
H483 C491 0.930 . S
H484 C494 0.930 . S
H485 C495 0.930 . S
C486 H480 0.930 . S
C486 C487 1.355 . S
C486 C488 1.415 . S
C487 C486 1.355 . S
C487 C489 1.419 . S
C488 C486 1.415 . S
C488 C493 1.425 . S
C488 C495 1.409 . S
C489 H481 0.930 . S
C489 C487 1.419 . S
C489 C490 1.362 . S
C490 H482 0.930 . S
C490 C489 1.362 . S
C490 C493 1.409 . S
C491 H483 0.930 . S
C491 C492 1.355 . S
C491 C493 1.415 . S
C492 C491 1.355 . S
C492 C494 1.419 . S
C493 C488 1.425 . S
C493 C490 1.409 . S
C493 C491 1.415 . S
C494 H484 0.930 . S
C494 C492 1.419 . S
C494 C495 1.362 . S
C495 H485 0.930 . S
C495 C488 1.409 . S
C495 C494 1.362 . S
H496 C502 0.930 . S
H497 C505 0.930 . S
H498 C506 0.930 . S
H499 C507 0.930 . S
H500 C510 0.930 . S
H501 C511 0.930 . S
C502 H496 0.930 . S
C502 C503 1.355 . S
C502 C504 1.415 . S
C503 C502 1.355 . S
C503 C505 1.419 . S
C504 C502 1.415 . S
C504 C509 1.425 . S
C504 C511 1.409 . S
C505 H497 0.930 . S
C505 C503 1.419 . S
C505 C506 1.362 . S
C506 H498 0.930 . S
C506 C505 1.362 . S
C506 C509 1.409 . S
C507 H499 0.930 . S
C507 C508 1.355 . S
C507 C509 1.415 . S
C508 C507 1.355 . S
C508 C510 1.419 . S
C509 C504 1.425 . S
C509 C506 1.409 . S
C509 C507 1.415 . S
C510 H500 0.930 . S
C510 C508 1.419 . S
C510 C511 1.362 . S
C511 H501 0.930 . S
C511 C504 1.409 . S
C511 C510 1.362 . S
H512 C518 0.928 1_564 S
H513 C521 0.930 . S
H514 C522 0.930 . S
H515 C523 0.930 . S
H516 C526 0.930 1_565 S
H517 C527 0.941 . S
C518 H512 0.928 1_546 S
C518 C519 1.357 . S
C518 C520 1.415 . S
C519 C518 1.357 . S
C519 C521 1.419 . S
C520 C518 1.415 . S
C520 C525 1.425 . S
C520 C527 1.402 1_545 S
C521 H513 0.930 . S
C521 C519 1.419 . S
C521 C522 1.362 . S
C522 H514 0.930 . S
C522 C521 1.362 . S
C522 C525 1.409 . S
C523 H515 0.930 . S
C523 C524 1.355 . S
C523 C525 1.415 . S
C524 C523 1.355 . S
C524 C526 1.419 . S
C525 C520 1.425 . S
C525 C522 1.409 . S
C525 C523 1.415 . S
C526 H516 0.930 1_545 S
C526 C524 1.419 . S
C526 C527 1.362 1_545 S
C527 H517 0.941 . S
C527 C520 1.402 1_565 S
C527 C526 1.362 1_565 S
H528 C534 0.930 1_554 S
H529 C537 0.930 . S
H530 C538 0.930 . S
H531 C539 0.930 . S
H532 C542 0.930 . S
H533 C543 0.930 . S
C534 H528 0.930 1_556 S
C534 C535 1.355 . S
C534 C536 1.415 . S
C535 C534 1.355 . S
C535 C537 1.419 . S
C536 C534 1.415 . S
C536 C541 1.425 . S
C536 C543 1.409 . S
C537 H529 0.930 . S
C537 C535 1.419 . S
C537 C538 1.362 . S
C538 H530 0.930 . S
C538 C537 1.362 . S
C538 C541 1.409 . S
C539 H531 0.930 . S
C539 C540 1.355 . S
C539 C541 1.415 . S
C540 C539 1.355 . S
C540 C542 1.419 . S
C541 C536 1.425 . S
C541 C538 1.409 . S
C541 C539 1.415 . S
C542 H532 0.930 . S
C542 C540 1.419 . S
C542 C543 1.362 . S
C543 H533 0.930 . S
C543 C536 1.409 . S
C543 C542 1.362 . S
H544 C550 0.930 . S
H545 C553 0.930 1_554 S
H546 C554 0.930 . S
H547 C555 0.930 . S
H548 C558 0.930 . S
H549 C559 0.930 . S
C550 H544 0.930 . S
C550 C551 1.355 . S
C550 C552 1.415 1_554 S
C551 C550 1.355 . S
C551 C553 1.419 1_554 S
C552 C550 1.415 1_556 S
C552 C557 1.425 . S
C552 C559 1.409 . S
C553 H545 0.930 1_556 S
C553 C551 1.419 1_556 S
C553 C554 1.362 . S
C554 H546 0.930 . S
C554 C553 1.362 . S
C554 C557 1.409 . S
C555 H547 0.930 . S
C555 C556 1.355 . S
C555 C557 1.415 . S
C556 C555 1.355 . S
C556 C558 1.419 . S
C557 C552 1.425 . S
C557 C554 1.409 . S
C557 C555 1.415 . S
C558 H548 0.930 . S
C558 C556 1.419 . S
C558 C559 1.362 . S
C559 H549 0.930 . S
C559 C552 1.409 . S
C559 C558 1.362 . S
H560 C566 0.930 . S
H561 C569 0.930 . S
H562 C570 0.930 . S
H563 C571 0.930 . S
H564 C574 0.930 1_455 S
H565 C575 0.930 1_455 S
C566 H560 0.930 . S
C566 C567 1.355 . S
C566 C568 1.415 . S
C567 C566 1.355 . S
C567 C569 1.419 . S
C568 C566 1.415 . S
C568 C573 1.425 . S
C568 C575 1.409 . S
C569 H561 0.930 . S
C569 C567 1.419 . S
C569 C570 1.362 . S
C570 H562 0.930 . S
C570 C569 1.362 . S
C570 C573 1.409 . S
C571 H563 0.930 . S
C571 C572 1.355 . S
C571 C573 1.415 . S
C572 C571 1.355 . S
C572 C574 1.419 . S
C573 C568 1.425 . S
C573 C570 1.409 . S
C573 C571 1.415 . S
C574 H564 0.930 1_655 S
C574 C572 1.419 . S
C574 C575 1.362 . S
C575 H565 0.930 1_655 S
C575 C568 1.409 . S
C575 C574 1.362 . S
H576 C582 0.930 . S
H577 C585 0.930 . S
H578 C586 0.930 . S
H579 C587 0.930 . S
H580 C590 0.930 . S
H581 C591 0.930 . S
C582 H576 0.930 . S
C582 C583 1.355 . S
C582 C584 1.415 . S
C583 C582 1.355 . S
C583 C585 1.419 . S
C584 C582 1.415 . S
C584 C589 1.425 . S
C584 C591 1.409 . S
C585 H577 0.930 . S
C585 C583 1.419 . S
C585 C586 1.362 . S
C586 H578 0.930 . S
C586 C585 1.362 . S
C586 C589 1.409 . S
C587 H579 0.930 . S
C587 C588 1.355 . S
C587 C589 1.415 . S
C588 C587 1.355 . S
C588 C590 1.419 . S
C589 C584 1.425 . S
C589 C586 1.409 . S
C589 C587 1.415 . S
C590 H580 0.930 . S
C590 C588 1.419 . S
C590 C591 1.362 . S
C591 H581 0.930 . S
C591 C584 1.409 . S
C591 C590 1.362 . S
H592 C598 0.930 . S
H593 C601 0.930 . S
H594 C602 0.930 . S
H595 C603 0.918 1_545 S
H596 C606 0.930 . S
H597 C607 0.930 . S
C598 H592 0.930 . S
C598 C599 1.355 1_565 S
C598 C600 1.415 . S
C599 C598 1.355 1_545 S
C599 C601 1.419 . S
C600 C598 1.415 . S
C600 C605 1.412 1_565 S
C600 C607 1.409 . S
C601 H593 0.930 . S
C601 C599 1.419 . S
C601 C602 1.362 . S
C602 H594 0.930 . S
C602 C601 1.362 . S
C602 C605 1.426 . S
C603 H595 0.918 1_565 S
C603 C604 1.370 . S
C603 C605 1.410 1_565 S
C604 C603 1.370 . S
C604 C606 1.419 . S
C605 C600 1.412 1_545 S
C605 C602 1.426 . S
C605 C603 1.410 1_545 S
C606 H596 0.930 . S
C606 C604 1.419 . S
C606 C607 1.362 . S
C607 H597 0.930 . S
C607 C600 1.409 . S
C607 C606 1.362 . S
H608 C614 0.930 . S
H609 C617 0.930 . S
H610 C618 0.930 . S
H611 C619 0.930 . S
H612 C622 0.930 . S
H613 C623 0.930 . S
C614 H608 0.930 . S
C614 C615 1.355 . S
C614 C616 1.415 . S
C615 C614 1.355 . S
C615 C617 1.419 . S
C616 C614 1.415 . S
C616 C621 1.425 . S
C616 C623 1.409 . S
C617 H609 0.930 . S
C617 C615 1.419 . S
C617 C618 1.362 . S
C618 H610 0.930 . S
C618 C617 1.362 . S
C618 C621 1.409 . S
C619 H611 0.930 . S
C619 C620 1.355 . S
C619 C621 1.415 . S
C620 C619 1.355 . S
C620 C622 1.419 . S
C621 C616 1.425 . S
C621 C618 1.409 . S
C621 C619 1.415 . S
C622 H612 0.930 . S
C622 C620 1.419 . S
C622 C623 1.362 . S
C623 H613 0.930 . S
C623 C616 1.409 . S
C623 C622 1.362 . S
H624 C630 0.930 . S
H625 C633 0.930 . S
H626 C634 0.930 . S
H627 C635 0.930 . S
H628 C638 0.930 . S
H629 C639 0.930 . S
C630 H624 0.930 . S
C630 C631 1.355 . S
C630 C632 1.415 . S
C631 C630 1.355 . S
C631 C633 1.419 . S
C632 C630 1.415 . S
C632 C637 1.425 . S
C632 C639 1.409 . S
C633 H625 0.930 . S
C633 C631 1.419 . S
C633 C634 1.362 . S
C634 H626 0.930 . S
C634 C633 1.362 . S
C634 C637 1.409 . S
C635 H627 0.930 . S
C635 C636 1.355 . S
C635 C637 1.415 . S
C636 C635 1.355 . S
C636 C638 1.419 . S
C637 C632 1.425 . S
C637 C634 1.409 . S
C637 C635 1.415 . S
C638 H628 0.930 . S
C638 C636 1.419 . S
C638 C639 1.362 . S
C639 H629 0.930 . S
C639 C632 1.409 . S
C639 C638 1.362 . S
H640 C646 0.930 . S
H641 C649 0.930 . S
H642 C650 0.930 . S
H643 C651 0.930 . S
H644 C654 0.930 . S
H645 C655 0.930 . S
C646 H640 0.930 . S
C646 C647 1.355 . S
C646 C648 1.415 . S
C647 C646 1.355 . S
C647 C649 1.419 . S
C648 C646 1.415 . S
C648 C653 1.425 . S
C648 C655 1.409 . S
C649 H641 0.930 . S
C649 C647 1.419 . S
C649 C650 1.362 . S
C650 H642 0.930 . S
C650 C649 1.362 . S
C650 C653 1.409 . S
C651 H643 0.930 . S
C651 C652 1.355 . S
C651 C653 1.415 1_455 S
C652 C651 1.355 . S
C652 C654 1.419 1_455 S
C653 C648 1.425 . S
C653 C650 1.409 . S
C653 C651 1.415 1_655 S
C654 H644 0.930 . S
C654 C652 1.419 1_655 S
C654 C655 1.362 . S
C655 H645 0.930 . S
C655 C648 1.409 . S
C655 C654 1.362 . S
H656 C662 0.930 . S
H657 C665 0.930 . S
H658 C666 0.930 . S
H659 C667 0.930 . S
H660 C670 0.930 . S
H661 C671 0.930 . S
C662 H656 0.930 . S
C662 C663 1.355 1_545 S
C662 C664 1.415 . S
C663 C662 1.355 1_565 S
C663 C665 1.419 . S
C664 C662 1.415 . S
C664 C669 1.425 1_545 S
C664 C671 1.409 . S
C665 H657 0.930 . S
C665 C663 1.419 . S
C665 C666 1.362 . S
C666 H658 0.930 . S
C666 C665 1.362 . S
C666 C669 1.409 . S
C667 H659 0.930 . S
C667 C668 1.355 1_565 S
C667 C669 1.415 . S
C668 C667 1.355 1_545 S
C668 C670 1.419 . S
C669 C664 1.425 1_565 S
C669 C666 1.409 . S
C669 C667 1.415 . S
C670 H660 0.930 . S
C670 C668 1.419 . S
C670 C671 1.362 . S
C671 H661 0.930 . S
C671 C664 1.409 . S
C671 C670 1.362 . S
H672 C678 0.930 . S
H673 C681 0.930 . S
H674 C682 0.930 . S
H675 C683 0.930 . S
H676 C686 0.930 . S
H677 C687 0.930 . S
C678 H672 0.930 . S
C678 C679 1.355 . S
C678 C680 1.415 . S
C679 C678 1.355 . S
C679 C681 1.419 . S
C680 C678 1.415 . S
C680 C685 1.425 . S
C680 C687 1.409 . S
C681 H673 0.930 . S
C681 C679 1.419 . S
C681 C682 1.362 . S
C682 H674 0.930 . S
C682 C681 1.362 . S
C682 C685 1.409 . S
C683 H675 0.930 . S
C683 C684 1.355 . S
C683 C685 1.415 . S
C684 C683 1.355 . S
C684 C686 1.419 . S
C685 C680 1.425 . S
C685 C682 1.409 . S
C685 C683 1.415 . S
C686 H676 0.930 . S
C686 C684 1.419 . S
C686 C687 1.362 . S
C687 H677 0.930 . S
C687 C680 1.409 . S
C687 C686 1.362 . S
H688 C694 0.930 . S
H689 C697 0.925 1_554 S
H690 C698 0.930 . S
H691 C699 0.930 . S
H692 C702 0.930 . S
H693 C703 0.930 . S
C694 H688 0.930 . S
C694 C695 1.355 . S
C694 C696 1.415 . S
C695 C694 1.355 . S
C695 C697 1.419 . S
C696 C694 1.415 . S
C696 C701 1.425 . S
C696 C703 1.409 . S
C697 H689 0.925 1_556 S
C697 C695 1.419 . S
C697 C698 1.362 . S
C698 H690 0.930 . S
C698 C697 1.362 . S
C698 C701 1.409 . S
C699 H691 0.930 . S
C699 C700 1.355 . S
C699 C701 1.415 . S
C700 C699 1.355 . S
C700 C702 1.419 . S
C701 C696 1.425 . S
C701 C698 1.409 . S
C701 C699 1.415 . S
C702 H692 0.930 . S
C702 C700 1.419 . S
C702 C703 1.362 . S
C703 H693 0.930 . S
C703 C696 1.409 . S
C703 C702 1.362 . S
H704 C710 0.930 . S
H705 C713 0.930 . S
H706 C714 0.930 . S
H707 C715 0.930 . S
H708 C718 0.930 . S
H709 C719 0.930 . S
C710 H704 0.930 . S
C710 C711 1.355 . S
C710 C712 1.415 . S
C711 C710 1.355 . S
C711 C713 1.419 . S
C712 C710 1.415 . S
C712 C717 1.425 . S
C712 C719 1.409 . S
C713 H705 0.930 . S
C713 C711 1.419 . S
C713 C714 1.362 . S
C714 H706 0.930 . S
C714 C713 1.362 . S
C714 C717 1.409 . S
C715 H707 0.930 . S
C715 C716 1.355 . S
C715 C717 1.415 . S
C716 C715 1.355 . S
C716 C718 1.419 . S
C717 C712 1.425 . S
C717 C714 1.409 . S
C717 C715 1.415 . S
C718 H708 0.930 . S
C718 C716 1.419 . S
C718 C719 1.362 . S
C719 H709 0.930 . S
C719 C712 1.409 . S
C719 C718 1.362 . S
H720 C726 0.930 . S
H721 C729 0.930 . S
H722 C730 0.930 . S
H723 C731 0.930 . S
H724 C734 0.930 . S
H725 C735 0.930 . S
C726 H720 0.930 . S
C726 C727 1.343 1_545 S
C726 C728 1.415 . S
C727 C726 1.343 1_565 S
C727 C729 1.438 1_556 S
C728 C726 1.415 . S
C728 C733 1.425 1_545 S
C728 C735 1.409 . S
C729 H721 0.930 . S
C729 C727 1.438 1_554 S
C729 C730 1.362 . S
C730 H722 0.930 . S
C730 C729 1.362 . S
C730 C733 1.409 1_554 S
C731 H723 0.930 . S
C731 C732 1.355 1_565 S
C731 C733 1.415 . S
C732 C731 1.355 1_545 S
C732 C734 1.419 . S
C733 C728 1.425 1_565 S
C733 C730 1.409 1_556 S
C733 C731 1.415 . S
C734 H724 0.930 . S
C734 C732 1.419 . S
C734 C735 1.362 . S
C735 H725 0.930 . S
C735 C728 1.409 . S
C735 C734 1.362 . S
H736 C742 0.930 . S
H737 C745 0.930 . S
H738 C746 0.930 . S
H739 C747 0.930 . S
H740 C750 0.930 . S
H741 C751 0.930 . S
C742 H736 0.930 . S
C742 C743 1.355 . S
C742 C744 1.415 . S
C743 C742 1.355 . S
C743 C745 1.419 . S
C744 C742 1.415 . S
C744 C749 1.425 . S
C744 C751 1.409 . S
C745 H737 0.930 . S
C745 C743 1.419 . S
C745 C746 1.362 . S
C746 H738 0.930 . S
C746 C745 1.362 . S
C746 C749 1.409 . S
C747 H739 0.930 . S
C747 C748 1.355 . S
C747 C749 1.415 . S
C748 C747 1.355 . S
C748 C750 1.419 . S
C749 C744 1.425 . S
C749 C746 1.409 . S
C749 C747 1.415 . S
C750 H740 0.930 . S
C750 C748 1.419 . S
C750 C751 1.362 . S
C751 H741 0.930 . S
C751 C744 1.409 . S
C751 C750 1.362 . S
H752 C758 0.923 1_554 S
H753 C761 0.930 . S
H754 C762 0.930 . S
H755 C763 0.930 . S
H756 C766 0.930 . S
H757 C767 0.930 . S
C758 H752 0.923 1_556 S
C758 C759 1.355 . S
C758 C760 1.415 . S
C759 C758 1.355 . S
C759 C761 1.419 . S
C760 C758 1.415 . S
C760 C765 1.425 . S
C760 C767 1.409 . S
C761 H753 0.930 . S
C761 C759 1.419 . S
C761 C762 1.362 . S
C762 H754 0.930 . S
C762 C761 1.362 . S
C762 C765 1.409 . S
C763 H755 0.930 . S
C763 C764 1.355 . S
C763 C765 1.415 . S
C764 C763 1.355 . S
C764 C766 1.419 . S
C765 C760 1.425 . S
C765 C762 1.409 . S
C765 C763 1.415 . S
C766 H756 0.930 . S
C766 C764 1.419 . S
C766 C767 1.362 . S
C767 H757 0.930 . S
C767 C760 1.409 . S
C767 C766 1.362 . S
H768 C774 0.930 . S
H769 C777 0.930 . S
H770 C778 0.930 . S
H771 C779 0.930 . S
H772 C782 0.930 . S
H773 C783 0.930 . S
C774 H768 0.930 . S
C774 C775 1.355 . S
C774 C776 1.415 . S
C775 C774 1.355 . S
C775 C777 1.419 . S
C776 C774 1.415 . S
C776 C781 1.425 . S
C776 C783 1.409 . S
C777 H769 0.930 . S
C777 C775 1.419 . S
C777 C778 1.362 . S
C778 H770 0.930 . S
C778 C777 1.362 . S
C778 C781 1.409 . S
C779 H771 0.930 . S
C779 C780 1.355 . S
C779 C781 1.415 . S
C780 C779 1.355 . S
C780 C782 1.419 . S
C781 C776 1.425 . S
C781 C778 1.409 . S
C781 C779 1.415 . S
C782 H772 0.930 . S
C782 C780 1.419 . S
C782 C783 1.362 . S
C783 H773 0.930 . S
C783 C776 1.409 . S
C783 C782 1.362 . S
H784 C790 0.930 . S
H785 C793 0.930 . S
H786 C794 0.930 . S
H787 C795 0.930 . S
H788 C798 0.930 . S
H789 C799 0.930 . S
C790 H784 0.930 . S
C790 C791 1.355 1_565 S
C790 C792 1.415 . S
C791 C790 1.355 1_545 S
C791 C793 1.419 . S
C792 C790 1.415 . S
C792 C797 1.425 1_565 S
C792 C799 1.409 . S
C793 H785 0.930 . S
C793 C791 1.419 . S
C793 C794 1.362 . S
C794 H786 0.930 . S
C794 C793 1.362 . S
C794 C797 1.409 . S
C795 H787 0.930 . S
C795 C796 1.355 1_545 S
C795 C797 1.415 . S
C796 C795 1.355 1_565 S
C796 C798 1.419 . S
C797 C792 1.425 1_545 S
C797 C794 1.409 . S
C797 C795 1.415 . S
C798 H788 0.930 . S
C798 C796 1.419 . S
C798 C799 1.362 . S
C799 H789 0.930 . S
C799 C792 1.409 . S
C799 C798 1.362 . S
H800 C806 0.930 . S
H801 C809 0.930 . S
H802 C810 0.930 . S
H803 C811 0.930 . S
H804 C814 0.930 . S
H805 C815 0.930 . S
C806 H800 0.930 . S
C806 C807 1.355 . S
C806 C808 1.415 . S
C807 C806 1.355 . S
C807 C809 1.419 . S
C808 C806 1.415 . S
C808 C813 1.425 . S
C808 C815 1.409 . S
C809 H801 0.930 . S
C809 C807 1.419 . S
C809 C810 1.362 . S
C810 H802 0.930 . S
C810 C809 1.362 . S
C810 C813 1.409 . S
C811 H803 0.930 . S
C811 C812 1.355 . S
C811 C813 1.415 . S
C812 C811 1.355 . S
C812 C814 1.419 . S
C813 C808 1.425 . S
C813 C810 1.409 . S
C813 C811 1.415 . S
C814 H804 0.930 . S
C814 C812 1.419 . S
C814 C815 1.362 . S
C815 H805 0.930 . S
C815 C808 1.409 . S
C815 C814 1.362 . S
H816 C822 0.930 . S
H817 C825 0.930 . S
H818 C826 0.930 . S
H819 C827 0.930 . S
H820 C830 0.930 . S
H821 C831 0.930 . S
C822 H816 0.930 . S
C822 C823 1.355 . S
C822 C824 1.415 . S
C823 C822 1.355 . S
C823 C825 1.419 . S
C824 C822 1.415 . S
C824 C829 1.425 . S
C824 C831 1.409 . S
C825 H817 0.930 . S
C825 C823 1.419 . S
C825 C826 1.362 . S
C826 H818 0.930 . S
C826 C825 1.362 . S
C826 C829 1.409 . S
C827 H819 0.930 . S
C827 C828 1.355 . S
C827 C829 1.415 . S
C828 C827 1.355 . S
C828 C830 1.419 . S
C829 C824 1.425 . S
C829 C826 1.409 . S
C829 C827 1.415 . S
C830 H820 0.930 . S
C830 C828 1.419 . S
C830 C831 1.362 . S
C831 H821 0.930 . S
C831 C824 1.409 . S
C831 C830 1.362 . S
C455 C255 1.881 . S
C460 C329 1.908 . S
C476 C350 1.795 . S
C471 C294 1.758 . S
C492 C384 1.612 . S
C487 C177 1.587 . S
C508 C418 1.750 . S
C503 C216 1.703 . S
C524 C320 1.904 . S
C519 C99 1.883 1_546 S
C535 C138 1.698 1_556 S
C540 C359 1.758 . S
C551 C21 1.567 . S
C556 C393 1.605 . S
C567 C60 1.720 . S
C572 C427 1.736 . S
C588 C341 0.972 . S
C583 C196 0.928 . S
C604 C346 0.624 . S
C599 C235 0.594 1_545 S
C620 C380 0.847 . S
C615 C289 0.860 . S
C631 C157 0.438 . S
C636 C414 0.333 . S
C647 C40 0.835 . S
C652 C312 0.869 . S
C668 C375 0.606 . S
C663 C79 0.570 . S
C684 C409 0.777 . S
C679 C133 0.749 . S
C695 C1 0.315 . S
C700 C443 0.262 . S
C711 C211 1.686 . S
C716 C325 1.791 1_554 S
C727 C250 2.020 1_566 S
C732 C354 2.166 . S
C748 C388 1.916 . S
C743 C274 1.803 1_556 S
C764 C422 1.988 . S
C759 C172 1.860 1_556 S
C775 C55 1.666 . S
C780 C316 1.806 . S
C796 C363 2.183 . S
C791 C94 2.075 . S
C812 C397 1.921 . S
C807 C118 1.815 . S
C823 C16 1.806 . S
C828 C431 1.973 . S
