# Generated by pormake.
# Topology ftw, (4,12)-cn, num edge types: 1
# Building blocks:
#     Node 0, Type 0, BuildingBlock: GIZVER_clean_linker_0, # of connection points: 4
#     Node 1, Type 0, BuildingBlock: GIZVER_clean_linker_0, # of connection points: 4
#     Node 2, Type 0, BuildingBlock: GIZVER_clean_linker_0, # of connection points: 4
#     Node 3, Type 1, BuildingBlock: QEWDON_clean_sbu_0, # of connection points: 12
#     Edge 4, Type (0, 1), BuildingBlock: UVAHIK_clean_linker_0, # of connection points: 2
#     Edge 5, Type (0, 1), BuildingBlock: UVAHIK_clean_linker_0, # of connection points: 2
#     Edge 6, Type (0, 1), BuildingBlock: UVAHIK_clean_linker_0, # of connection points: 2
#     Edge 7, Type (0, 1), BuildingBlock: UVAHIK_clean_linker_0, # of connection points: 2
#     Edge 8, Type (0, 1), BuildingBlock: UVAHIK_clean_linker_0, # of connection points: 2
#     Edge 9, Type (0, 1), BuildingBlock: UVAHIK_clean_linker_0, # of connection points: 2
#     Edge 10, Type (0, 1), BuildingBlock: UVAHIK_clean_linker_0, # of connection points: 2
#     Edge 11, Type (0, 1), BuildingBlock: UVAHIK_clean_linker_0, # of connection points: 2
#     Edge 12, Type (0, 1), BuildingBlock: UVAHIK_clean_linker_0, # of connection points: 2
#     Edge 13, Type (0, 1), BuildingBlock: UVAHIK_clean_linker_0, # of connection points: 2
#     Edge 14, Type (0, 1), BuildingBlock: UVAHIK_clean_linker_0, # of connection points: 2
#     Edge 15, Type (0, 1), BuildingBlock: UVAHIK_clean_linker_0, # of connection points: 2
# Relax obj value: 0.120
# Max RMSD: 0.268
# Mean RMSD: 0.216
data_MOF--net-ftw--node1-QEWDON_clean_sbu_0--node2-GIZVER_clean_linker_0--edge1-UVAHIK_clean_linker_0
_symmetry_space_group_name_H-M    P1
_symmetry_Int_Tables_number       1
_symmetry_cell_setting            triclinic
loop_
_symmetry_equiv_pos_as_xyz
'x, y, z'
_cell_length_a     32.600915
_cell_length_b     30.402838
_cell_length_c     29.84306
_cell_angle_alpha  89.782266
_cell_angle_beta   89.834435
_cell_angle_gamma 90.184083
loop_
_atom_site_label
_atom_site_type_symbol
_atom_site_fract_x
_atom_site_fract_y
_atom_site_fract_z
_atom_type_partial_charge
H0 H 0.92229 0.45815 0.42022 0.0
H1 H 0.8965 0.44621 0.56111 0.0
H2 H 0.98176 0.35799 0.49863 0.0
H3 H 0.85811 0.48941 0.45449 0.0
H4 H 0.85171 0.48947 0.51405 0.0
H5 H 0.89777 0.54608 0.41769 0.0
H6 H 0.95088 0.64984 0.49577 0.0
H7 H 0.89721 0.53713 0.56166 0.0
C8 C 0.92786 0.44223 0.45218 0.0
C9 C 0.95565 0.40704 0.45494 0.0
C10 C 0.90643 0.45641 0.49039 0.0
C11 C 0.91326 0.43552 0.53169 0.0
C12 C 0.9408 0.40029 0.53498 0.0
C13 C 0.9621 0.38662 0.4966 0.0
C14 C 0.8749 0.49239 0.48676 0.0
C15 C 0.89543 0.53671 0.48944 0.0
C16 C 0.90535 0.55988 0.45008 0.0
C17 C 0.92531 0.60066 0.45237 0.0
C18 C 0.93535 0.61829 0.49427 0.0
C19 C 0.92499 0.59599 0.53406 0.0
C20 C 0.90546 0.5548 0.53132 0.0
H21 H 0.46957 0.05047 0.40757 0.0
H22 H 0.47297 0.06796 0.55025 0.0
H23 H 0.37199 -0.00098 0.48997 0.0
H24 H 0.50974 0.11094 0.44186 0.0
H25 H 0.51248 0.11641 0.50123 0.0
H26 H 0.55843 0.06634 0.40234 0.0
H27 H 0.65947 0.01204 0.47617 0.0
H28 H 0.55449 0.06235 0.54647 0.0
C29 C 0.45625 0.04442 0.44034 0.0
C30 C 0.41902 0.02112 0.44419 0.0
C31 C 0.47565 0.06158 0.4785 0.0
C32 C 0.45815 0.05433 0.52093 0.0
C33 C 0.42084 0.03143 0.5255 0.0
C34 C 0.40181 0.01461 0.48697 0.0
C35 C 0.51218 0.09187 0.47364 0.0
C36 C 0.55206 0.06688 0.47431 0.0
C37 C 0.57245 0.05734 0.43394 0.0
C38 C 0.61118 0.03723 0.43427 0.0
C39 C 0.62887 0.02586 0.47555 0.0
C40 C 0.60869 0.03441 0.5162 0.0
C41 C 0.57016 0.05498 0.51533 0.0
H42 H 0.53967 0.41725 0.16309 0.0
H43 H 0.58781 0.5486 0.14809 0.0
H44 H 0.6499 0.43935 0.08697 0.0
H45 H 0.51432 0.47766 0.21069 0.0
H46 H 0.53502 0.53202 0.20513 0.0
H47 H 0.46306 0.44992 0.15617 0.0
H48 H 0.39795 0.54686 0.07906 0.0
H49 H 0.50722 0.58356 0.1499 0.0
C50 C 0.56235 0.43974 0.14935 0.0
C51 C 0.59466 0.42338 0.12326 0.0
C52 C 0.55943 0.48506 0.15792 0.0
C53 C 0.58969 0.51372 0.14099 0.0
C54 C 0.62245 0.49751 0.11526 0.0
C55 C 0.62424 0.45238 0.10588 0.0
C56 C 0.52466 0.50277 0.18587 0.0
C57 C 0.48919 0.51525 0.15617 0.0
C58 C 0.46008 0.48332 0.14379 0.0
C59 C 0.42709 0.4944 0.1158 0.0
C60 C 0.42397 0.5376 0.09957 0.0
C61 C 0.45257 0.56983 0.11187 0.0
C62 C 0.48519 0.55861 0.14017 0.0
Zn63 Zn 0.09178 0.10864 0.96 0.0
Zn64 Zn 0.07509 0.09534 0.06583 0.0
O65 O 0.07952 0.06298 0.00781 0.0
H66 H 0.06644 0.03512 0.00163 0.0
C67 C 0.94372 0.087 0.89438 0.0
O68 O 0.97728 0.07533 0.91555 0.0
Zn69 Zn 0.95842 0.89987 0.04407 0.0
Zn70 Zn 0.93523 0.89223 0.93929 0.0
O71 O 0.94984 0.93555 0.98849 0.0
H72 H 0.95445 0.96681 0.98516 0.0
Zn73 Zn 0.90582 0.05267 0.97593 0.0
O74 O 0.95253 0.07351 0.01583 0.0
Zn75 Zn 0.92954 0.05587 0.07483 0.0
H76 H 0.96972 0.09881 0.00977 0.0
Zn77 Zn 0.10717 0.91753 0.94994 0.0
O78 O 0.07118 0.94224 0.99868 0.0
H79 H 0.04527 0.95686 0.99396 0.0
Zn80 Zn 0.10365 0.94152 0.0553 0.0
C81 C 0.07223 0.83817 0.91055 0.0
O82 O 0.08468 0.82153 0.94885 0.0
O83 O 0.10954 0.16823 0.98628 0.0
O84 O 0.09709 0.15782 0.05888 0.0
O85 O 0.92337 0.82959 0.96309 0.0
O86 O 0.94152 0.83621 0.03454 0.0
O87 O 0.84926 0.06068 0.00633 0.0
O88 O 0.86875 0.0702 0.07683 0.0
C89 C 0.1197 0.02567 0.10843 0.0
O90 O 0.1648 0.90013 0.97186 0.0
O91 O 0.16077 0.9162 0.0445 0.0
O92 O 0.89891 0.91343 0.88629 0.0
C93 C 0.10991 0.18191 0.02658 0.0
O94 O 0.12375 0.0882 0.90368 0.0
C95 C 0.91513 0.9631 0.0988 0.0
O96 O 0.90909 0.07867 0.91214 0.0
C97 C 0.92762 0.81325 0.00219 0.0
O98 O 0.07856 0.87869 0.90241 0.0
C99 C 0.99567 0.10211 0.1186 0.0
O100 O 0.1107 0.06605 0.11225 0.0
O101 O 0.10458 0.00437 0.07585 0.0
C102 C 0.84076 0.06941 0.04705 0.0
O103 O 0.92015 0.92237 0.09157 0.0
O104 O 0.93831 0.99068 0.07906 0.0
C105 C 0.03646 0.89406 0.09606 0.0
O106 O 0.95849 0.09019 0.12315 0.0
O107 O 0.01555 0.08955 0.0843 0.0
C108 C 0.18075 0.9016 0.0108 0.0
O109 O 0.07387 0.9046 0.10152 0.0
O110 O 0.01775 0.90728 0.06134 0.0
C111 C 0.87745 0.94826 0.88782 0.0
O112 O 0.87892 0.97302 0.92377 0.0
C113 C 0.15491 0.06355 0.90821 0.0
O114 O 0.1653 0.05033 0.94857 0.0
C115 C 0.95081 0.38109 0.37551 0.0
C116 C 0.97459 0.38798 0.41405 0.0
C117 C 0.96617 0.35637 0.3399 0.0
C118 C 0.03713 0.26582 0.32065 0.0
H119 H 0.00584 0.28429 0.19683 0.0
C120 C 0.03108 0.1722 0.137 0.0
C121 C 0.01347 0.13248 0.15149 0.0
C122 C 0.03974 0.20558 0.16768 0.0
C123 C 0.01567 0.27889 0.23103 0.0
H124 H 0.03434 0.37731 0.4439 0.0
H125 H 0.0611 0.3339 0.38166 0.0
H126 H 0.99592 0.34299 0.25102 0.0
H127 H 0.99181 0.09571 0.2091 0.0
H128 H 0.00651 0.15389 0.26285 0.0
H129 H 0.0558 0.20124 0.30089 0.0
C130 C 0.03034 0.34707 0.37936 0.0
C131 C 0.00952 0.31241 0.26219 0.0
C132 C 0.01502 0.37193 0.41495 0.0
C133 C 0.00614 0.12584 0.19733 0.0
C134 C 0.01474 0.15914 0.22805 0.0
C135 C 0.04324 0.23225 0.28949 0.0
C136 C 0.00564 0.33793 0.34202 0.0
C137 C 0.01892 0.30574 0.30762 0.0
C138 C 0.03035 0.19996 0.21338 0.0
C139 C 0.03135 0.2379 0.24461 0.0
H140 H 0.9194 0.39246 0.37392 0.0
H141 H 0.94611 0.34952 0.31189 0.0
H142 H 0.0445 0.25948 0.35544 0.0
H143 H 0.03488 0.17891 0.10164 0.0
H144 H 0.0518 0.23658 0.15531 0.0
C145 C 0.63641 0.06301 0.35877 0.0
C146 C 0.63464 0.03022 0.3921 0.0
C147 C 0.66196 0.05809 0.32135 0.0
C148 C 0.7227 0.9747 0.25886 0.0
H149 H 0.787 0.07549 0.22007 0.0
C150 C 0.84151 0.95667 0.11885 0.0
C151 C 0.87953 0.97732 0.12538 0.0
C152 C 0.80789 0.96743 0.14556 0.0
C153 C 0.76942 0.04699 0.23066 0.0
H154 H 0.6569 0.96569 0.41116 0.0
H155 H 0.70215 0.95766 0.34702 0.0
H156 H 0.7348 0.08444 0.27808 0.0
H157 H 0.91242 0.02585 0.16413 0.0
H158 H 0.85393 0.04379 0.21233 0.0
H159 H 0.75862 0.93666 0.21364 0.0
C160 C 0.68353 0.987 0.34923 0.0
C161 C 0.73906 0.05222 0.26348 0.0
C162 C 0.6579 0.99181 0.38639 0.0
C163 C 0.88324 0.00977 0.15838 0.0
C164 C 0.84966 0.0201 0.18575 0.0
C165 C 0.75319 0.9694 0.22648 0.0
C166 C 0.68632 0.02029 0.31647 0.0
C167 C 0.71581 0.01594 0.27855 0.0
C168 C 0.81176 -0.00162 0.1802 0.0
C169 C 0.77734 0.00531 0.21232 0.0
H170 H 0.61914 0.09317 0.36232 0.0
H171 H 0.66294 0.08412 0.29649 0.0
H172 H 0.70495 0.94617 0.26899 0.0
H173 H 0.83785 0.93191 0.09313 0.0
H174 H 0.779 0.95086 0.1395 0.0
C175 C 0.90323 0.6379 0.38173 0.0
C176 C 0.93471 0.62595 0.41128 0.0
C177 C 0.91141 0.66595 0.34554 0.0
C178 C 0.98854 0.74851 0.30831 0.0
H179 H 0.93028 0.7414 0.19551 0.0
C180 C 0.01326 0.88073 0.17409 0.0
C181 C 0.01582 0.86653 0.12963 0.0
C182 C 0.99834 0.85248 0.20734 0.0
C183 C 0.94708 0.74368 0.22667 0.0
H184 H 0.99957 0.63157 0.42528 0.0
H185 H 0.01447 0.6788 0.36104 0.0
H186 H 0.9169 0.68688 0.25381 0.0
H187 H 0.00522 0.81236 0.08439 0.0
H188 H 0.98025 0.76219 0.14249 0.0
H189 H 0.02034 0.80362 0.28069 0.0
C190 C 0.98312 0.66816 0.36652 0.0
C191 C 0.93903 0.71267 0.26037 0.0
C192 C 0.97477 0.6408 0.40308 0.0
C193 C 1.00248 0.82415 0.11847 0.0
C194 C 0.98823 0.7955 0.15183 0.0
C195 C 0.99699 0.779 0.27452 0.0
C196 C 0.95138 0.68205 0.3379 0.0
C197 C 0.95978 0.71463 0.30161 0.0
C198 C 0.98684 0.80899 0.19691 0.0
C199 C 0.97638 0.77712 0.23324 0.0
H200 H 0.87201 0.62701 0.38773 0.0
H201 H 0.8861 0.67624 0.32461 0.0
H202 H 0.00455 0.75178 0.33986 0.0
H203 H 0.02348 0.91345 0.1832 0.0
H204 H 0.99672 0.86448 0.24141 0.0
C205 C 0.37329 0.968 0.40314 0.0
C206 C 0.39546 0.00779 0.40372 0.0
C207 C 0.34656 0.9584 0.36788 0.0
C208 C 0.31666 0.99221 0.25257 0.0
H209 H 0.20796 0.9547 0.28993 0.0
C210 C 0.18328 0.98376 0.12655 0.0
C211 C 0.14786 0.00561 0.14107 0.0
C212 C 0.21411 0.97266 0.15713 0.0
C213 C 0.23822 0.96493 0.2789 0.0
H214 H 0.40788 0.06791 0.36665 0.0
H215 H 0.36166 0.05106 0.30519 0.0
H216 H 0.26325 0.95773 0.34469 0.0
H217 H 0.11619 0.03229 0.19863 0.0
H218 H 0.16966 0.0129 0.2521 0.0
H219 H 0.29111 0.00153 0.18726 0.0
C220 C 0.36519 0.02702 0.33176 0.0
C221 C 0.27004 0.96627 0.31019 0.0
C222 C 0.39181 0.03668 0.36705 0.0
C223 C 0.14299 0.01476 0.1868 0.0
C224 C 0.17359 0.00349 0.21739 0.0
C225 C 0.28486 0.99074 0.22123 0.0
C226 C 0.3415 0.98827 0.33226 0.0
C227 C 0.30939 0.98104 0.29766 0.0
C228 C 0.21004 0.98341 0.20276 0.0
C229 C 0.24499 0.9782 0.2343 0.0
H230 H 0.37586 0.94472 0.43054 0.0
H231 H 0.32925 0.92794 0.36894 0.0
H232 H 0.34672 0.00322 0.24171 0.0
H233 H 0.18852 0.9782 0.09125 0.0
H234 H 0.24179 0.9572 0.14479 0.0
C235 C 0.94945 0.59158 0.61395 0.0
C236 C 0.93387 0.61653 0.57812 0.0
C237 C 0.95958 0.6118 0.65453 0.0
C238 C 0.94483 0.7152 0.71926 0.0
H239 H 0.0481 0.68297 0.77432 0.0
C240 C 0.03323 0.82893 0.83906 0.0
C241 C 0.0516 0.81006 0.87706 0.0
C242 C 0.01471 0.80239 0.80677 0.0
C243 C 0.01888 0.6919 0.75973 0.0
H244 H 0.91499 0.68192 0.55756 0.0
H245 H 0.9338 0.71724 0.62735 0.0
H246 H 0.02294 0.64131 0.71033 0.0
H247 H 0.06429 0.74857 0.91138 0.0
H248 H 0.03227 0.70217 0.85455 0.0
H249 H 0.94166 0.76684 0.76777 0.0
C250 C 0.93783 0.68202 0.62455 0.0
C251 C 0.00438 0.66797 0.72311 0.0
C252 C 0.92761 0.66184 0.58419 0.0
C253 C 0.05053 0.7641 0.88239 0.0
C254 C 0.03233 0.73751 0.84983 0.0
C255 C 0.95949 0.73931 0.75564 0.0
C256 C 0.95429 0.65739 0.66012 0.0
C257 C 0.96755 0.67984 0.70189 0.0
C258 C 0.01444 0.7564 0.81158 0.0
C259 C 0.99701 0.72838 0.77575 0.0
H260 H 0.95476 0.55662 0.61029 0.0
H261 H 0.97177 0.59177 0.68142 0.0
H262 H 0.91591 0.72467 0.70437 0.0
H263 H 0.03336 0.86423 0.83405 0.0
H264 H 1.00153 0.81785 0.77742 0.0
C265 C 0.39801 0.06658 0.59727 0.0
C266 C 0.39919 0.02939 0.56945 0.0
C267 C 0.37374 0.06678 0.63587 0.0
C268 C 0.31507 0.99608 0.71501 0.0
H269 H 0.2526 0.10292 0.73307 0.0
C270 C 0.21815 0.03025 0.87459 0.0
C271 C 0.18106 0.05309 0.86906 0.0
C272 C 0.24455 0.02382 0.83818 0.0
C273 C 0.26948 0.07266 0.72832 0.0
H274 H 0.37737 0.96237 0.56181 0.0
H275 H 0.3342 0.96307 0.62879 0.0
H276 H 0.30042 0.09841 0.67073 0.0
H277 H 0.14165 0.08513 0.8205 0.0
H278 H 0.18732 0.07337 0.75702 0.0
H279 H 0.28323 0.97011 0.7723 0.0
C280 C 0.35234 0.99199 0.62085 0.0
C281 C 0.29741 0.07032 0.69293 0.0
C282 C 0.37677 0.99174 0.58223 0.0
C283 C 0.17018 0.0678 0.82603 0.0
C284 C 0.19649 0.06128 0.78967 0.0
C285 C 0.28703 -0.00156 0.75055 0.0
C286 C 0.34981 0.0299 0.64754 0.0
C287 C 0.32064 0.03208 0.68586 0.0
C288 C 0.23436 0.04002 0.79546 0.0
C289 C 0.26385 0.03677 0.75752 0.0
H290 H 0.41448 0.09634 0.58831 0.0
H291 H 0.37306 0.09625 0.65612 0.0
H292 H 0.33264 0.96623 0.71062 0.0
H293 H 0.2274 0.01838 0.90729 0.0
H294 H 0.27358 0.00754 0.84386 0.0
C295 C 0.90891 0.3615 0.60043 0.0
C296 C 0.94438 0.37457 0.57707 0.0
C297 C 0.9116 0.33267 0.63678 0.0
C298 C 0.97867 0.24655 0.68281 0.0
H299 H 0.90528 0.25455 0.78489 0.0
C300 C 0.9842 0.12994 0.83755 0.0
C301 C 0.94606 0.11549 0.85421 0.0
C302 C 0.98611 0.1614 0.8033 0.0
C303 C 0.92575 0.25174 0.75639 0.0
H304 H 0.01065 0.36956 0.57477 0.0
H305 H 0.01547 0.31954 0.63882 0.0
H306 H 0.90577 0.31299 0.7288 0.0
H307 H 0.88007 0.1209 0.84635 0.0
H308 H 0.88353 0.17558 0.78665 0.0
H309 H 0.99863 0.1852 0.71073 0.0
C310 C 0.98549 0.33086 0.62841 0.0
C311 C 0.92606 0.28521 0.72429 0.0
C312 C 0.98277 0.35961 0.59191 0.0
C313 C 0.90995 0.13161 0.83457 0.0
C314 C 0.91189 0.16315 0.80059 0.0
C315 C 0.97853 0.21316 0.71514 0.0
C316 C 0.94985 0.31638 0.6507 0.0
C317 C 0.95207 0.2827 0.68677 0.0
C318 C 0.94994 0.17907 0.78531 0.0
C319 C 0.95159 0.21513 0.75185 0.0
H320 H 0.87884 0.37189 0.58935 0.0
H321 H 0.88347 0.32171 0.65274 0.0
H322 H 0.9987 0.24329 0.65401 0.0
H323 H 0.01258 0.11809 0.85193 0.0
H324 H 0.01586 0.17312 0.79213 0.0
C325 C 0.63148 0.05503 0.59389 0.0
C326 C 0.62964 0.02399 0.55912 0.0
C327 C 0.65604 0.04739 0.63156 0.0
C328 C 0.74799 0.98522 0.66366 0.0
H329 H 0.71677 0.01322 0.78568 0.0
C330 C 0.84517 0.93046 0.81405 0.0
C331 C 0.84959 0.9594 0.85033 0.0
C332 C 0.81789 0.93989 0.77938 0.0
C333 C 0.72614 0.00578 0.75171 0.0
H334 H 0.64972 0.95936 0.5381 0.0
H335 H 0.69232 0.946 0.60367 0.0
H336 H 0.66814 0.02572 0.72469 0.0
H337 H 0.82913 0.02138 0.87828 0.0
H338 H 0.7818 0.03816 0.81725 0.0
H339 H 0.80593 0.96559 0.69023 0.0
C340 C 0.67562 0.97667 0.60142 0.0
C341 C 0.69823 0.01283 0.71682 0.0
C342 C 0.65112 0.98426 0.56393 0.0
C343 C 0.82634 -0.00171 0.85089 0.0
C344 C 0.79903 0.00779 0.81606 0.0
C345 C 0.77585 0.97834 0.69838 0.0
C346 C 0.67922 0.0086 0.63512 0.0
C347 C 0.70872 0.00214 0.67246 0.0
C348 C 0.79441 0.97861 0.77993 0.0
C349 C 0.76518 0.98807 0.74291 0.0
H350 H 0.61554 0.08611 0.591 0.0
H351 H 0.65828 0.07269 0.6569 0.0
H352 H 0.7574 0.97762 0.62972 0.0
H353 H 0.86242 0.90011 0.81262 0.0
H354 H 0.81468 0.91633 0.75248 0.0
C355 C 0.37803 0.45923 0.06208 0.0
C356 C 0.39427 0.46208 0.10555 0.0
C357 C 0.34463 0.43175 0.05326 0.0
C358 C 0.25699 0.37721 0.10861 0.0
H359 H 0.25556 0.30509 0.00182 0.0
C360 C 0.14292 0.23382 0.08078 0.0
C361 C 0.13138 0.22373 0.03661 0.0
C362 C 0.1707 0.26791 0.08919 0.0
C363 C 0.25503 0.32564 0.03137 0.0
H364 H 0.38855 0.43797 0.17375 0.0
H365 H 0.3305 0.3894 0.15819 0.0
H366 H 0.31423 0.35249 0.01631 0.0
H367 H 0.13676 0.24442 0.96715 0.0
H368 H 0.18427 0.30448 0.98197 0.0
H369 H 0.1978 0.35013 0.12378 0.0
C370 C 0.34339 0.4088 0.13105 0.0
C371 C 0.28881 0.35266 0.03976 0.0
C372 C 0.37696 0.43613 0.13983 0.0
C373 C 0.14547 0.25086 0.00151 0.0
C374 C 0.173 0.28509 0.00996 0.0
C375 C 0.22305 0.35028 0.10013 0.0
C376 C 0.32662 0.40664 0.08777 0.0
C377 C 0.29033 0.3785 0.07862 0.0
C378 C 0.18726 0.29284 0.05365 0.0
C379 C 0.22178 0.32395 0.06152 0.0
H380 H 0.39091 0.47866 0.03495 0.0
H381 H 0.33229 0.43097 0.01961 0.0
H382 H 0.257 0.39731 0.1385 0.0
H383 H 0.13253 0.21372 0.10866 0.0
H384 H 0.18102 0.27291 0.12325 0.0
C385 C 0.44166 0.62598 0.05212 0.0
C386 C 0.44538 0.61573 0.09776 0.0
C387 C 0.4255 0.6664 0.03871 0.0
C388 C 0.38679 0.77499 0.08047 0.0
H389 H 0.30566 0.75649 0.98766 0.0
C390 C 0.23776 0.87605 0.06092 0.0
C391 C 0.22208 0.88255 0.01754 0.0
C392 C 0.27385 0.85209 0.06738 0.0
C393 C 0.32868 0.76271 0.01298 0.0
H394 H 0.43763 0.64009 0.16523 0.0
H395 H 0.40806 0.7102 0.14215 0.0
H396 H 0.35428 0.69896 0.00448 0.0
H397 H 0.23402 0.87228 0.94673 0.0
H398 H 0.29689 0.83084 0.95807 0.0
H399 H 0.35912 0.83823 0.09025 0.0
C400 C 0.41849 0.68779 0.11645 0.0
C401 C 0.35682 0.72962 0.02262 0.0
C402 C 0.43536 0.64759 0.1298 0.0
C403 C 0.24482 0.86729 0.98066 0.0
C404 C 0.28085 0.84345 0.98712 0.0
C405 C 0.35829 0.80812 0.07099 0.0
C406 C 0.41176 0.69693 0.07076 0.0
C407 C 0.38583 0.7349 0.057 0.0
C408 C 0.29497 0.83423 0.03058 0.0
C409 C 0.3285 0.80198 0.03761 0.0
H410 H 0.44936 0.60182 0.02688 0.0
H411 H 0.42185 0.67277 0.00322 0.0
H412 H 0.40901 0.78045 0.10678 0.0
H413 H 0.22116 0.88756 0.09007 0.0
H414 H 0.28381 0.84539 0.10131 0.0
C415 C 0.61274 0.34931 0.15274 0.0
C416 C 0.60011 0.37572 0.11679 0.0
C417 C 0.62598 0.30626 0.14524 0.0
C418 C 0.67082 0.24141 0.05293 0.0
H419 H 0.67328 0.14934 0.14319 0.0
C420 C 0.7698 0.09113 0.02435 0.0
C421 C 0.7991 0.08541 0.05837 0.0
C422 C 0.7346 0.11601 0.03212 0.0
C423 C 0.67255 0.17466 0.11758 0.0
H424 H 0.58839 0.37768 0.04557 0.0
H425 H 0.60925 0.3017 0.03248 0.0
H426 H 0.62966 0.21375 0.15443 0.0
H427 H 0.81179 0.09673 0.12877 0.0
H428 H 0.75038 0.14034 0.14218 0.0
H429 H 0.71409 0.20296 0.0165 0.0
C430 C 0.61054 0.31438 0.06629 0.0
C431 C 0.64777 0.2117 0.12405 0.0
C432 C 0.59815 0.35771 0.07372 0.0
C433 C 0.79017 0.10103 0.10163 0.0
C434 C 0.75481 0.12586 0.10941 0.0
C435 C 0.69502 0.2043 0.04625 0.0
C436 C 0.62633 0.28866 0.10162 0.0
C437 C 0.64742 0.24614 0.0923 0.0
C438 C 0.72782 0.13551 0.07408 0.0
C439 C 0.69696 0.17099 0.07891 0.0
H440 H 0.61483 0.3629 0.18617 0.0
H441 H 0.63829 0.28792 0.17326 0.0
H442 H 0.67235 0.26741 0.0281 0.0
H443 H 0.77529 0.07894 0.99081 0.0
H444 H 0.71386 0.12216 0.00451 0.0
C445 C 0.67204 0.52472 0.05683 0.0
C446 C 0.65638 0.52691 0.10069 0.0
C447 C 0.70568 0.55058 0.04406 0.0
C448 C 0.79509 0.60857 0.08989 0.0
H449 H 0.7902 0.67836 0.98113 0.0
C450 C 0.90137 0.75669 0.05634 0.0
C451 C 0.90975 0.76935 0.01187 0.0
C452 C 0.87621 0.72044 0.06542 0.0
C453 C 0.79266 0.65836 0.01109 0.0
H454 H 0.6637 0.55762 0.16561 0.0
H455 H 0.72248 0.60282 0.1433 0.0
H456 H 0.73369 0.62916 2e-05 0.0
H457 H 0.90184 0.7511 0.94222 0.0
H458 H 0.85917 0.68697 0.95811 0.0
H459 H 0.854 0.63765 0.10113 0.0
C460 C 0.70877 0.58106 0.11885 0.0
C461 C 0.76005 0.63035 0.022 0.0
C462 C 0.67485 0.55562 0.13145 0.0
C463 C 0.89547 0.74263 0.97685 0.0
C464 C 0.87067 0.70607 0.98596 0.0
C465 C 0.82795 0.63622 0.07875 0.0
C466 C 0.72464 0.57865 0.07511 0.0
C467 C 0.76058 0.60583 0.06193 0.0
C468 C 0.85925 0.69565 0.03026 0.0
C469 C 0.82683 0.66215 0.03962 0.0
H470 H 0.6583 0.50292 0.03243 0.0
H471 H 0.71734 0.54804 0.01015 0.0
H472 H 0.79656 0.58945 0.12055 0.0
H473 H 0.9119 0.77645 0.08419 0.0
H474 H 0.86805 0.71369 0.09996 0.0
loop_
_geom_bond_atom_site_label_1
_geom_bond_atom_site_label_2
_geom_bond_distance
_geom_bond_site_symmetry_2
_ccdc_geom_bond_type
H0 C8 0.930 . S
H1 C11 0.930 . S
H2 C13 0.930 . S
H3 C14 0.970 . S
H4 C14 0.970 . S
H5 C16 0.930 . S
H6 C18 0.930 . S
H7 C20 0.930 . S
C8 H0 0.930 . S
C8 C9 1.382 . S
C8 C10 1.426 . S
C9 C8 1.382 . S
C9 C13 1.389 1_655 S
C10 C8 1.426 . S
C10 C11 1.375 . S
C10 C14 1.532 . S
C11 H1 0.930 . S
C11 C10 1.375 . S
C11 C12 1.416 . S
C12 C11 1.416 . S
C12 C13 1.371 1_655 S
C13 H2 0.930 . S
C13 C9 1.389 1_455 S
C13 C12 1.371 1_455 S
C14 H3 0.970 . S
C14 H4 0.970 . S
C14 C10 1.532 . S
C14 C15 1.499 . S
C15 C14 1.499 . S
C15 C16 1.370 . S
C15 C20 1.415 . S
C16 H5 0.930 . S
C16 C15 1.370 . S
C16 C17 1.407 . S
C17 C16 1.407 . S
C17 C18 1.365 1_655 S
C18 H6 0.930 . S
C18 C17 1.365 1_455 S
C18 C19 1.393 1_455 S
C19 C18 1.393 1_655 S
C19 C20 1.387 . S
C20 H7 0.930 . S
C20 C15 1.415 . S
C20 C19 1.387 . S
H21 C29 0.930 . S
H22 C32 0.930 . S
H23 C34 0.930 . S
H24 C35 0.970 . S
H25 C35 0.970 . S
H26 C37 0.930 . S
H27 C39 0.930 . S
H28 C41 0.930 . S
C29 H21 0.930 . S
C29 C30 1.382 . S
C29 C31 1.426 . S
C30 C29 1.382 . S
C30 C34 1.389 1_545 S
C31 C29 1.426 . S
C31 C32 1.375 . S
C31 C35 1.532 . S
C32 H22 0.930 . S
C32 C31 1.375 . S
C32 C33 1.416 . S
C33 C32 1.416 . S
C33 C34 1.371 1_545 S
C34 H23 0.930 . S
C34 C30 1.389 1_565 S
C34 C33 1.371 1_565 S
C35 H24 0.970 . S
C35 H25 0.970 . S
C35 C31 1.532 . S
C35 C36 1.499 . S
C36 C35 1.499 . S
C36 C37 1.370 . S
C36 C41 1.415 . S
C37 H26 0.930 . S
C37 C36 1.370 . S
C37 C38 1.407 . S
C38 C37 1.407 . S
C38 C39 1.365 1_545 S
C39 H27 0.930 . S
C39 C38 1.365 1_565 S
C39 C40 1.393 1_565 S
C40 C39 1.393 1_545 S
C40 C41 1.387 . S
C41 H28 0.930 . S
C41 C36 1.415 . S
C41 C40 1.387 . S
H42 C50 0.930 . S
H43 C53 0.930 . S
H44 C55 0.930 . S
H45 C56 0.970 . S
H46 C56 0.970 . S
H47 C58 0.930 . S
H48 C60 0.930 1_556 S
H49 C62 0.930 . S
C50 H42 0.930 . S
C50 C51 1.382 . S
C50 C52 1.426 . S
C51 C50 1.382 . S
C51 C55 1.389 . S
C52 C50 1.426 . S
C52 C53 1.375 . S
C52 C56 1.532 . S
C53 H43 0.930 . S
C53 C52 1.375 . S
C53 C54 1.416 . S
C54 C53 1.416 . S
C54 C55 1.371 . S
C55 H44 0.930 . S
C55 C51 1.389 . S
C55 C54 1.371 . S
C56 H45 0.970 . S
C56 H46 0.970 . S
C56 C52 1.532 . S
C56 C57 1.499 . S
C57 C56 1.499 . S
C57 C58 1.370 . S
C57 C62 1.415 . S
C58 H47 0.930 . S
C58 C57 1.370 . S
C58 C59 1.407 . S
C59 C58 1.407 . S
C59 C60 1.365 . S
C60 H48 0.930 1_554 S
C60 C59 1.365 . S
C60 C61 1.393 . S
C61 C60 1.393 . S
C61 C62 1.387 . S
C62 H49 0.930 . S
C62 C57 1.415 . S
C62 C61 1.387 . S
Zn63 O65 1.933 1_556 S
Zn63 O83 1.985 . S
Zn63 O94 1.955 . S
Zn64 O65 1.911 . S
Zn64 O84 1.970 . S
Zn64 O100 1.945 . S
Zn64 O107 1.981 . S
O65 Zn63 1.933 1_554 S
O65 Zn64 1.911 . S
O65 H66 0.841 . S
H66 O65 0.841 . S
C67 O68 1.246 . S
C67 O96 1.276 1_455 S
O68 C67 1.246 . S
Zn69 O71 1.911 . S
Zn69 O86 1.970 . S
Zn69 O103 1.945 . S
Zn69 O110 1.981 . S
Zn70 O71 1.933 1_556 S
Zn70 O85 1.985 . S
Zn70 O92 1.955 . S
O71 Zn69 1.911 . S
O71 Zn70 1.933 1_554 S
O71 H72 0.841 . S
H72 O71 0.841 . S
Zn73 O74 1.933 1_556 S
Zn73 O87 1.985 . S
Zn73 O96 1.955 . S
O74 Zn73 1.933 1_554 S
O74 Zn75 1.911 . S
O74 H76 0.841 . S
Zn75 O74 1.911 . S
Zn75 O88 1.970 . S
Zn75 O104 1.981 . S
Zn75 O106 1.945 . S
H76 O74 0.841 . S
Zn77 O78 1.933 1_556 S
Zn77 O90 1.985 . S
Zn77 O98 1.955 . S
O78 Zn77 1.933 1_554 S
O78 H79 0.841 . S
O78 Zn80 1.911 . S
H79 O78 0.841 . S
Zn80 O78 1.911 . S
Zn80 O91 1.970 . S
Zn80 O101 1.981 . S
Zn80 O109 1.945 . S
C81 O82 1.246 . S
C81 O98 1.276 1_655 S
O82 C81 1.246 . S
O83 Zn63 1.985 . S
O83 C93 1.245 1_556 S
O84 Zn64 1.970 . S
O84 C93 1.263 . S
O85 Zn70 1.985 . S
O85 C97 1.245 1_556 S
O86 Zn69 1.970 . S
O86 C97 1.263 . S
O87 Zn73 1.985 . S
O87 C102 1.245 1_556 S
O88 Zn75 1.970 . S
O88 C102 1.263 . S
C89 O100 1.277 . S
C89 O101 1.236 1_545 S
O90 Zn77 1.985 . S
O90 C108 1.245 1_556 S
O91 Zn80 1.970 . S
O91 C108 1.263 . S
O92 Zn70 1.955 . S
O92 C111 1.276 1_565 S
C93 O83 1.245 1_554 S
C93 O84 1.263 . S
O94 Zn63 1.955 . S
O94 C113 1.276 1_545 S
C95 O103 1.273 . S
C95 O104 1.239 1_565 S
O96 C67 1.276 1_655 S
O96 Zn73 1.955 . S
C97 O85 1.245 1_554 S
C97 O86 1.263 . S
O98 Zn77 1.955 . S
O98 C81 1.276 1_455 S
C99 O106 1.265 1_455 S
C99 O107 1.243 . S
O100 Zn64 1.945 . S
O100 C89 1.277 . S
O101 Zn80 1.981 . S
O101 C89 1.236 1_565 S
C102 O87 1.245 1_554 S
C102 O88 1.263 . S
O103 Zn69 1.945 . S
O103 C95 1.273 . S
O104 Zn75 1.981 . S
O104 C95 1.239 1_545 S
C105 O109 1.266 . S
C105 O110 1.242 1_455 S
O106 Zn75 1.945 . S
O106 C99 1.265 1_655 S
O107 Zn64 1.981 . S
O107 C99 1.243 . S
C108 O90 1.245 1_554 S
C108 O91 1.263 . S
O109 Zn80 1.945 . S
O109 C105 1.266 . S
O110 Zn69 1.981 . S
O110 C105 1.242 1_655 S
C111 O92 1.276 1_545 S
C111 O112 1.246 . S
O112 C111 1.246 . S
C113 O94 1.276 1_565 S
C113 O114 1.246 . S
O114 C113 1.246 . S
C115 C116 1.349 . S
C115 C117 1.327 . S
C115 H140 0.950 . S
C116 C115 1.349 . S
C116 C132 1.349 1_655 S
C117 C115 1.327 . S
C117 C136 1.420 1_655 S
C117 H141 0.950 . S
C118 C135 1.574 . S
C118 C137 1.368 . S
C118 H142 0.949 . S
H119 C123 0.949 . S
C120 C121 1.349 . S
C120 C122 1.327 . S
C120 H143 0.950 . S
C121 C120 1.349 . S
C121 C133 1.349 1_455 S
C122 C120 1.327 . S
C122 C138 1.429 . S
C122 H144 0.950 . S
C123 H119 0.949 . S
C123 C131 1.574 . S
C123 C139 1.368 1_655 S
H124 C132 0.950 . S
H125 C130 0.950 . S
H126 C131 0.949 . S
H127 C133 0.950 . S
H128 C134 0.950 . S
H129 C135 0.949 . S
C130 H125 0.950 . S
C130 C132 1.327 . S
C130 C136 1.436 . S
C131 C123 1.574 . S
C131 H126 0.949 . S
C131 C137 1.368 1_655 S
C132 C116 1.349 1_455 S
C132 H124 0.950 . S
C132 C130 1.327 . S
C133 C121 1.349 1_655 S
C133 H127 0.950 . S
C133 C134 1.327 . S
C134 H128 0.950 . S
C134 C133 1.327 . S
C134 C138 1.429 1_655 S
C135 C118 1.574 . S
C135 H129 0.949 . S
C135 C139 1.368 . S
C136 C117 1.420 1_455 S
C136 C130 1.436 . S
C136 C137 1.523 . S
C137 C118 1.368 . S
C137 C131 1.368 1_455 S
C137 C136 1.523 . S
C138 C122 1.429 . S
C138 C134 1.429 1_455 S
C138 C139 1.523 . S
C139 C123 1.368 1_455 S
C139 C135 1.368 . S
C139 C138 1.523 . S
H140 C115 0.950 . S
H141 C117 0.950 . S
H142 C118 0.949 . S
H143 C120 0.950 . S
H144 C122 0.950 . S
C145 C146 1.349 1_545 S
C145 C147 1.327 . S
C145 H170 0.950 . S
C146 C145 1.349 1_565 S
C146 C162 1.349 . S
C147 C145 1.327 . S
C147 C166 1.438 . S
C147 H171 0.950 . S
C148 C165 1.574 . S
C148 C167 1.368 1_565 S
C148 H172 0.949 . S
H149 C153 0.949 . S
C150 C151 1.349 1_565 S
C150 C152 1.327 . S
C150 H173 0.950 . S
C151 C150 1.349 1_545 S
C151 C163 1.349 . S
C152 C150 1.327 . S
C152 C168 1.429 1_565 S
C152 H174 0.950 . S
C153 H149 0.949 . S
C153 C161 1.574 . S
C153 C169 1.368 . S
H154 C162 0.950 . S
H155 C160 0.950 . S
H156 C161 0.949 . S
H157 C163 0.950 . S
H158 C164 0.950 . S
H159 C165 0.949 . S
C160 H155 0.950 . S
C160 C162 1.327 . S
C160 C166 1.419 1_565 S
C161 C153 1.574 . S
C161 H156 0.949 . S
C161 C167 1.368 . S
C162 C146 1.349 . S
C162 H154 0.950 . S
C162 C160 1.327 . S
C163 C151 1.349 . S
C163 H157 0.950 . S
C163 C164 1.327 . S
C164 H158 0.950 . S
C164 C163 1.327 . S
C164 C168 1.429 . S
C165 C148 1.574 . S
C165 H159 0.949 . S
C165 C169 1.368 1_565 S
C166 C147 1.438 . S
C166 C160 1.419 1_545 S
C166 C167 1.523 . S
C167 C148 1.368 1_545 S
C167 C161 1.368 . S
C167 C166 1.523 . S
C168 C152 1.429 1_545 S
C168 C164 1.429 . S
C168 C169 1.523 . S
C169 C153 1.368 . S
C169 C165 1.368 1_545 S
C169 C168 1.523 . S
H170 C145 0.950 . S
H171 C147 0.950 . S
H172 C148 0.949 . S
H173 C150 0.950 . S
H174 C152 0.950 . S
C175 C176 1.349 1_655 S
C175 C177 1.327 . S
C175 H200 0.950 . S
C176 C175 1.349 1_455 S
C176 C192 1.349 . S
C177 C175 1.327 . S
C177 C196 1.429 1_655 S
C177 H201 0.950 . S
C178 C195 1.574 . S
C178 C197 1.368 1_455 S
C178 H202 0.949 . S
H179 C183 0.949 . S
C180 C181 1.349 1_455 S
C180 C182 1.327 . S
C180 H203 0.950 . S
C181 C180 1.349 1_655 S
C181 C193 1.349 . S
C182 C180 1.327 . S
C182 C198 1.429 1_455 S
C182 H204 0.950 . S
C183 H179 0.949 . S
C183 C191 1.574 . S
C183 C199 1.368 . S
H184 C192 0.950 . S
H185 C190 0.950 . S
H186 C191 0.949 . S
H187 C193 0.950 . S
H188 C194 0.950 . S
H189 C195 0.949 . S
C190 H185 0.950 . S
C190 C192 1.327 . S
C190 C196 1.428 . S
C191 C183 1.574 . S
C191 H186 0.949 . S
C191 C197 1.368 . S
C192 C176 1.349 . S
C192 H184 0.950 . S
C192 C190 1.327 . S
C193 C181 1.349 . S
C193 H187 0.950 . S
C193 C194 1.327 . S
C194 H188 0.950 . S
C194 C193 1.327 . S
C194 C198 1.429 . S
C195 C178 1.574 . S
C195 H189 0.949 . S
C195 C199 1.368 1_455 S
C196 C177 1.429 1_455 S
C196 C190 1.428 . S
C196 C197 1.523 1_455 S
C197 C178 1.368 1_655 S
C197 C191 1.368 . S
C197 C196 1.523 1_655 S
C198 C182 1.429 1_655 S
C198 C194 1.429 . S
C198 C199 1.523 . S
C199 C183 1.368 . S
C199 C195 1.368 1_655 S
C199 C198 1.523 . S
H200 C175 0.950 . S
H201 C177 0.950 . S
H202 C178 0.949 . S
H203 C180 0.950 . S
H204 C182 0.950 . S
C205 C206 1.349 1_565 S
C205 C207 1.327 . S
C205 H230 0.950 . S
C206 C205 1.349 1_545 S
C206 C222 1.349 . S
C207 C205 1.327 . S
C207 C226 1.427 . S
C207 H231 0.950 . S
C208 C225 1.574 . S
C208 C227 1.368 1_545 S
C208 H232 0.949 . S
H209 C213 0.949 . S
C210 C211 1.349 1_545 S
C210 C212 1.327 . S
C210 H233 0.950 . S
C211 C210 1.349 1_565 S
C211 C223 1.349 . S
C212 C210 1.327 . S
C212 C228 1.429 1_545 S
C212 H234 0.950 . S
C213 H209 0.949 . S
C213 C221 1.574 . S
C213 C229 1.368 . S
H214 C222 0.950 . S
H215 C220 0.950 . S
H216 C221 0.949 . S
H217 C223 0.950 . S
H218 C224 0.950 . S
H219 C225 0.949 . S
C220 H215 0.950 . S
C220 C222 1.327 . S
C220 C226 1.430 1_545 S
C221 C213 1.574 . S
C221 H216 0.949 . S
C221 C227 1.368 . S
C222 C206 1.349 . S
C222 H214 0.950 . S
C222 C220 1.327 . S
C223 C211 1.349 . S
C223 H217 0.950 . S
C223 C224 1.327 . S
C224 H218 0.950 . S
C224 C223 1.327 . S
C224 C228 1.429 . S
C225 C208 1.574 . S
C225 H219 0.949 . S
C225 C229 1.368 1_545 S
C226 C207 1.427 . S
C226 C220 1.430 1_565 S
C226 C227 1.523 . S
C227 C208 1.368 1_565 S
C227 C221 1.368 . S
C227 C226 1.523 . S
C228 C212 1.429 1_565 S
C228 C224 1.429 . S
C228 C229 1.523 . S
C229 C213 1.368 . S
C229 C225 1.368 1_565 S
C229 C228 1.523 . S
H230 C205 0.950 . S
H231 C207 0.950 . S
H232 C208 0.949 . S
H233 C210 0.950 . S
H234 C212 0.950 . S
C235 C236 1.349 1_455 S
C235 C237 1.327 . S
C235 H260 0.950 . S
C236 C235 1.349 1_655 S
C236 C252 1.349 . S
C237 C235 1.327 . S
C237 C256 1.429 1_455 S
C237 H261 0.950 . S
C238 C255 1.574 . S
C238 C257 1.368 . S
C238 H262 0.949 . S
H239 C243 0.949 . S
C240 C241 1.349 . S
C240 C242 1.327 . S
C240 H263 0.950 . S
C241 C240 1.349 . S
C241 C253 1.349 1_655 S
C242 C240 1.327 . S
C242 C258 1.429 . S
C242 H264 0.950 . S
C243 H239 0.949 . S
C243 C251 1.574 . S
C243 C259 1.368 1_455 S
H244 C252 0.950 . S
H245 C250 0.950 . S
H246 C251 0.949 . S
H247 C253 0.950 . S
H248 C254 0.950 . S
H249 C255 0.949 . S
C250 H245 0.950 . S
C250 C252 1.327 . S
C250 C256 1.429 . S
C251 C243 1.574 . S
C251 H246 0.949 . S
C251 C257 1.368 1_455 S
C252 C236 1.349 . S
C252 H244 0.950 . S
C252 C250 1.327 . S
C253 C241 1.349 1_455 S
C253 H247 0.950 . S
C253 C254 1.327 . S
C254 H248 0.950 . S
C254 C253 1.327 . S
C254 C258 1.429 1_455 S
C255 C238 1.574 . S
C255 H249 0.949 . S
C255 C259 1.368 . S
C256 C237 1.429 1_655 S
C256 C250 1.429 . S
C256 C257 1.523 . S
C257 C238 1.368 . S
C257 C251 1.368 1_655 S
C257 C256 1.523 . S
C258 C242 1.429 . S
C258 C254 1.429 1_655 S
C258 C259 1.523 . S
C259 C243 1.368 1_655 S
C259 C255 1.368 . S
C259 C258 1.523 . S
H260 C235 0.950 . S
H261 C237 0.950 . S
H262 C238 0.949 . S
H263 C240 0.950 . S
H264 C242 0.950 . S
C265 C266 1.349 1_545 S
C265 C267 1.327 . S
C265 H290 0.950 . S
C266 C265 1.349 1_565 S
C266 C282 1.349 . S
C267 C265 1.327 . S
C267 C286 1.429 1_545 S
C267 H291 0.950 . S
C268 C285 1.574 . S
C268 C287 1.368 . S
C268 H292 0.949 . S
H269 C273 0.949 . S
C270 C271 1.349 . S
C270 C272 1.327 . S
C270 H293 0.950 . S
C271 C270 1.349 . S
C271 C283 1.349 1_565 S
C272 C270 1.327 . S
C272 C288 1.429 . S
C272 H294 0.950 . S
C273 H269 0.949 . S
C273 C281 1.574 . S
C273 C289 1.368 1_545 S
H274 C282 0.950 . S
H275 C280 0.950 . S
H276 C281 0.949 . S
H277 C283 0.950 . S
H278 C284 0.950 . S
H279 C285 0.949 . S
C280 H275 0.950 . S
C280 C282 1.327 . S
C280 C286 1.429 . S
C281 C273 1.574 . S
C281 H276 0.949 . S
C281 C287 1.368 1_545 S
C282 C266 1.349 . S
C282 H274 0.950 . S
C282 C280 1.327 . S
C283 C271 1.349 1_545 S
C283 H277 0.950 . S
C283 C284 1.327 . S
C284 H278 0.950 . S
C284 C283 1.327 . S
C284 C288 1.429 1_545 S
C285 C268 1.574 . S
C285 H279 0.949 . S
C285 C289 1.368 . S
C286 C267 1.429 1_565 S
C286 C280 1.429 . S
C286 C287 1.523 . S
C287 C268 1.368 . S
C287 C281 1.368 1_565 S
C287 C286 1.523 . S
C288 C272 1.429 . S
C288 C284 1.429 1_565 S
C288 C289 1.523 . S
C289 C273 1.368 1_565 S
C289 C285 1.368 . S
C289 C288 1.523 . S
H290 C265 0.950 . S
H291 C267 0.950 . S
H292 C268 0.949 . S
H293 C270 0.950 . S
H294 C272 0.950 . S
C295 C296 1.349 1_655 S
C295 C297 1.327 . S
C295 H320 0.950 . S
C296 C295 1.349 1_455 S
C296 C312 1.349 . S
C297 C295 1.327 . S
C297 C316 1.429 1_655 S
C297 H321 0.950 . S
C298 C315 1.574 . S
C298 C317 1.368 . S
C298 H322 0.949 . S
H299 C303 0.949 . S
C300 C301 1.349 . S
C300 C302 1.327 . S
C300 H323 0.950 . S
C301 C300 1.349 . S
C301 C313 1.349 1_455 S
C302 C300 1.327 . S
C302 C318 1.429 . S
C302 H324 0.950 . S
C303 H299 0.949 . S
C303 C311 1.574 . S
C303 C319 1.368 1_655 S
H304 C312 0.950 . S
H305 C310 0.950 . S
H306 C311 0.949 . S
H307 C313 0.950 . S
H308 C314 0.950 . S
H309 C315 0.949 . S
C310 H305 0.950 . S
C310 C312 1.327 . S
C310 C316 1.429 . S
C311 C303 1.574 . S
C311 H306 0.949 . S
C311 C317 1.368 1_655 S
C312 C296 1.349 . S
C312 H304 0.950 . S
C312 C310 1.327 . S
C313 C301 1.349 1_655 S
C313 H307 0.950 . S
C313 C314 1.327 . S
C314 H308 0.950 . S
C314 C313 1.327 . S
C314 C318 1.429 1_655 S
C315 C298 1.574 . S
C315 H309 0.949 . S
C315 C319 1.368 . S
C316 C297 1.429 1_455 S
C316 C310 1.429 . S
C316 C317 1.523 . S
C317 C298 1.368 . S
C317 C311 1.368 1_455 S
C317 C316 1.523 . S
C318 C302 1.429 . S
C318 C314 1.429 1_455 S
C318 C319 1.523 . S
C319 C303 1.368 1_455 S
C319 C315 1.368 . S
C319 C318 1.523 . S
H320 C295 0.950 . S
H321 C297 0.950 . S
H322 C298 0.949 . S
H323 C300 0.950 . S
H324 C302 0.950 . S
C325 C326 1.349 . S
C325 C327 1.327 . S
C325 H350 0.950 . S
C326 C325 1.349 . S
C326 C342 1.349 1_545 S
C327 C325 1.327 . S
C327 C346 1.429 . S
C327 H351 0.950 . S
C328 C345 1.574 . S
C328 C347 1.368 1_565 S
C328 H352 0.949 . S
H329 C333 0.949 . S
C330 C331 1.349 1_565 S
C330 C332 1.327 . S
C330 H353 0.950 . S
C331 C330 1.349 1_545 S
C331 C343 1.349 . S
C332 C330 1.327 . S
C332 C348 1.429 1_565 S
C332 H354 0.950 . S
C333 H329 0.949 . S
C333 C341 1.574 . S
C333 C349 1.368 . S
H334 C342 0.950 . S
H335 C340 0.950 . S
H336 C341 0.949 . S
H337 C343 0.950 . S
H338 C344 0.950 . S
H339 C345 0.949 . S
C340 H335 0.950 . S
C340 C342 1.327 . S
C340 C346 1.429 1_565 S
C341 C333 1.574 . S
C341 H336 0.949 . S
C341 C347 1.368 . S
C342 C326 1.349 1_565 S
C342 H334 0.950 . S
C342 C340 1.327 . S
C343 C331 1.349 . S
C343 H337 0.950 . S
C343 C344 1.327 . S
C344 H338 0.950 . S
C344 C343 1.327 . S
C344 C348 1.429 . S
C345 C328 1.574 . S
C345 H339 0.949 . S
C345 C349 1.368 1_565 S
C346 C327 1.429 . S
C346 C340 1.429 1_545 S
C346 C347 1.523 . S
C347 C328 1.368 1_545 S
C347 C341 1.368 . S
C347 C346 1.523 . S
C348 C332 1.429 1_545 S
C348 C344 1.429 . S
C348 C349 1.523 . S
C349 C333 1.368 . S
C349 C345 1.368 1_545 S
C349 C348 1.523 . S
H350 C325 0.950 . S
H351 C327 0.950 . S
H352 C328 0.949 . S
H353 C330 0.950 . S
H354 C332 0.950 . S
C355 C356 1.349 1_556 S
C355 C357 1.327 . S
C355 H380 0.950 . S
C356 C355 1.349 1_554 S
C356 C372 1.349 . S
C357 C355 1.327 . S
C357 C376 1.429 1_556 S
C357 H381 0.950 . S
C358 C375 1.574 . S
C358 C377 1.368 . S
C358 H382 0.949 . S
H359 C363 0.949 . S
C360 C361 1.349 . S
C360 C362 1.327 . S
C360 H383 0.950 . S
C361 C360 1.349 . S
C361 C373 1.349 1_554 S
C362 C360 1.327 . S
C362 C378 1.429 . S
C362 H384 0.950 . S
C363 H359 0.949 . S
C363 C371 1.574 . S
C363 C379 1.368 1_556 S
H364 C372 0.950 . S
H365 C370 0.950 . S
H366 C371 0.949 . S
H367 C373 0.950 . S
H368 C374 0.950 . S
H369 C375 0.949 . S
C370 H365 0.950 . S
C370 C372 1.327 . S
C370 C376 1.429 . S
C371 C363 1.574 . S
C371 H366 0.949 . S
C371 C377 1.368 1_556 S
C372 C356 1.349 . S
C372 H364 0.950 . S
C372 C370 1.327 . S
C373 C361 1.349 1_556 S
C373 H367 0.950 . S
C373 C374 1.327 . S
C374 H368 0.950 . S
C374 C373 1.327 . S
C374 C378 1.429 1_556 S
C375 C358 1.574 . S
C375 H369 0.949 . S
C375 C379 1.368 . S
C376 C357 1.429 1_554 S
C376 C370 1.429 . S
C376 C377 1.523 . S
C377 C358 1.368 . S
C377 C371 1.368 1_554 S
C377 C376 1.523 . S
C378 C362 1.429 . S
C378 C374 1.429 1_554 S
C378 C379 1.523 . S
C379 C363 1.368 1_554 S
C379 C375 1.368 . S
C379 C378 1.523 . S
H380 C355 0.950 . S
H381 C357 0.950 . S
H382 C358 0.949 . S
H383 C360 0.950 . S
H384 C362 0.950 . S
C385 C386 1.349 1_556 S
C385 C387 1.327 . S
C385 H410 0.950 . S
C386 C385 1.349 1_554 S
C386 C402 1.349 . S
C387 C385 1.327 . S
C387 C406 1.429 1_556 S
C387 H411 0.950 . S
C388 C405 1.574 . S
C388 C407 1.368 . S
C388 H412 0.949 . S
H389 C393 0.949 . S
C390 C391 1.349 . S
C390 C392 1.327 . S
C390 H413 0.950 . S
C391 C390 1.349 . S
C391 C403 1.349 1_554 S
C392 C390 1.327 . S
C392 C408 1.429 . S
C392 H414 0.950 . S
C393 H389 0.949 . S
C393 C401 1.574 . S
C393 C409 1.368 1_556 S
H394 C402 0.950 . S
H395 C400 0.950 . S
H396 C401 0.949 . S
H397 C403 0.950 . S
H398 C404 0.950 . S
H399 C405 0.949 . S
C400 H395 0.950 . S
C400 C402 1.327 . S
C400 C406 1.429 . S
C401 C393 1.574 . S
C401 H396 0.949 . S
C401 C407 1.368 1_556 S
C402 C386 1.349 . S
C402 H394 0.950 . S
C402 C400 1.327 . S
C403 C391 1.349 1_556 S
C403 H397 0.950 . S
C403 C404 1.327 . S
C404 H398 0.950 . S
C404 C403 1.327 . S
C404 C408 1.429 1_556 S
C405 C388 1.574 . S
C405 H399 0.949 . S
C405 C409 1.368 . S
C406 C387 1.429 1_554 S
C406 C400 1.429 . S
C406 C407 1.523 . S
C407 C388 1.368 . S
C407 C401 1.368 1_554 S
C407 C406 1.523 . S
C408 C392 1.429 . S
C408 C404 1.429 1_554 S
C408 C409 1.523 . S
C409 C393 1.368 1_554 S
C409 C405 1.368 . S
C409 C408 1.523 . S
H410 C385 0.950 . S
H411 C387 0.950 . S
H412 C388 0.949 . S
H413 C390 0.950 . S
H414 C392 0.950 . S
C415 C416 1.349 . S
C415 C417 1.327 . S
C415 H440 0.950 . S
C416 C415 1.349 . S
C416 C432 1.349 1_554 S
C417 C415 1.327 . S
C417 C436 1.429 . S
C417 H441 0.950 . S
C418 C435 1.574 . S
C418 C437 1.368 1_556 S
C418 H442 0.949 . S
H419 C423 0.949 . S
C420 C421 1.349 1_556 S
C420 C422 1.327 . S
C420 H443 0.950 . S
C421 C420 1.349 1_554 S
C421 C433 1.349 . S
C422 C420 1.327 . S
C422 C438 1.429 1_556 S
C422 H444 0.950 . S
C423 H419 0.949 . S
C423 C431 1.574 . S
C423 C439 1.368 . S
H424 C432 0.950 . S
H425 C430 0.950 . S
H426 C431 0.949 . S
H427 C433 0.950 . S
H428 C434 0.950 . S
H429 C435 0.949 . S
C430 H425 0.950 . S
C430 C432 1.327 . S
C430 C436 1.429 1_556 S
C431 C423 1.574 . S
C431 H426 0.949 . S
C431 C437 1.368 . S
C432 C416 1.349 1_556 S
C432 H424 0.950 . S
C432 C430 1.327 . S
C433 C421 1.349 . S
C433 H427 0.950 . S
C433 C434 1.327 . S
C434 H428 0.950 . S
C434 C433 1.327 . S
C434 C438 1.429 . S
C435 C418 1.574 . S
C435 H429 0.949 . S
C435 C439 1.368 1_556 S
C436 C417 1.429 . S
C436 C430 1.429 1_554 S
C436 C437 1.523 . S
C437 C418 1.368 1_554 S
C437 C431 1.368 . S
C437 C436 1.523 . S
C438 C422 1.429 1_554 S
C438 C434 1.429 . S
C438 C439 1.523 . S
C439 C423 1.368 . S
C439 C435 1.368 1_554 S
C439 C438 1.523 . S
H440 C415 0.950 . S
H441 C417 0.950 . S
H442 C418 0.949 . S
H443 C420 0.950 . S
H444 C422 0.950 . S
C445 C446 1.349 1_556 S
C445 C447 1.327 . S
C445 H470 0.950 . S
C446 C445 1.349 1_554 S
C446 C462 1.349 . S
C447 C445 1.327 . S
C447 C466 1.429 1_556 S
C447 H471 0.950 . S
C448 C465 1.574 . S
C448 C467 1.368 . S
C448 H472 0.949 . S
H449 C453 0.949 . S
C450 C451 1.349 . S
C450 C452 1.327 . S
C450 H473 0.950 . S
C451 C450 1.349 . S
C451 C463 1.349 1_554 S
C452 C450 1.327 . S
C452 C468 1.429 . S
C452 H474 0.950 . S
C453 H449 0.949 . S
C453 C461 1.574 . S
C453 C469 1.368 1_556 S
H454 C462 0.950 . S
H455 C460 0.950 . S
H456 C461 0.949 . S
H457 C463 0.950 . S
H458 C464 0.950 . S
H459 C465 0.949 . S
C460 H455 0.950 . S
C460 C462 1.327 . S
C460 C466 1.429 . S
C461 C453 1.574 . S
C461 H456 0.949 . S
C461 C467 1.368 1_556 S
C462 C446 1.349 . S
C462 H454 0.950 . S
C462 C460 1.327 . S
C463 C451 1.349 1_556 S
C463 H457 0.950 . S
C463 C464 1.327 . S
C464 H458 0.950 . S
C464 C463 1.327 . S
C464 C468 1.429 1_556 S
C465 C448 1.574 . S
C465 H459 0.949 . S
C465 C469 1.368 . S
C466 C447 1.429 1_554 S
C466 C460 1.429 . S
C466 C467 1.523 . S
C467 C448 1.368 . S
C467 C461 1.368 1_554 S
C467 C466 1.523 . S
C468 C452 1.429 . S
C468 C464 1.429 1_554 S
C468 C469 1.523 . S
C469 C453 1.368 1_554 S
C469 C465 1.368 . S
C469 C468 1.523 . S
H470 C445 0.950 . S
H471 C447 0.950 . S
H472 C448 0.949 . S
H473 C450 0.950 . S
H474 C452 0.950 . S
C121 C99 1.244 . S
C116 C9 1.282 . S
C151 C95 1.686 1_545 S
C146 C38 1.722 1_565 S
C181 C105 1.258 1_655 S
C176 C17 1.284 1_455 S
C211 C89 1.670 1_565 S
C206 C30 1.726 . S
C236 C19 1.404 . S
C241 C81 1.350 . S
C271 C113 1.800 . S
C266 C33 1.847 1_565 S
C296 C12 1.409 1_455 S
C301 C67 1.372 . S
C326 C40 1.850 . S
C331 C111 1.777 . S
C356 C59 1.409 . S
C361 C93 1.428 . S
C386 C61 1.418 . S
C391 C108 1.403 . S
C421 C102 1.413 . S
C416 C51 1.420 . S
C451 C97 1.423 . S
C446 C54 1.396 . S
