# Generated by pormake.
# Topology pts, (4,4)-cn, num edge types: 1
# Building blocks:
#     Node 0, Type 0, BuildingBlock: MUDLON_clean_linker_0, # of connection points: 4
#     Node 1, Type 0, BuildingBlock: MUDLON_clean_linker_0, # of connection points: 4
#     Node 2, Type 1, BuildingBlock: AZAVOO_clean_sbu_0, # of connection points: 4
#     Node 3, Type 1, BuildingBlock: AZAVOO_clean_sbu_0, # of connection points: 4
#     Edge 4, Type (0, 1), BuildingBlock: FUNLAD_clean_linker_1, # of connection points: 2
#     Edge 5, Type (0, 1), BuildingBlock: FUNLAD_clean_linker_1, # of connection points: 2
#     Edge 6, Type (0, 1), BuildingBlock: FUNLAD_clean_linker_1, # of connection points: 2
#     Edge 7, Type (0, 1), BuildingBlock: FUNLAD_clean_linker_1, # of connection points: 2
#     Edge 8, Type (0, 1), BuildingBlock: FUNLAD_clean_linker_1, # of connection points: 2
#     Edge 9, Type (0, 1), BuildingBlock: FUNLAD_clean_linker_1, # of connection points: 2
#     Edge 10, Type (0, 1), BuildingBlock: FUNLAD_clean_linker_1, # of connection points: 2
#     Edge 11, Type (0, 1), BuildingBlock: FUNLAD_clean_linker_1, # of connection points: 2
# Relax obj value: 0.017
# Max RMSD: 0.069
# Mean RMSD: 0.066
data_MOF--net-pts--node1-AZAVOO_clean_sbu_0--node2-MUDLON_clean_linker_0--edge1-FUNLAD_clean_linker_1
_symmetry_space_group_name_H-M    P1
_symmetry_Int_Tables_number       1
_symmetry_cell_setting            triclinic
loop_
_symmetry_equiv_pos_as_xyz
'x, y, z'
_cell_length_a     34.631415
_cell_length_b     35.611023
_cell_length_c     45.734342
_cell_angle_alpha  89.884072
_cell_angle_beta   95.739345
_cell_angle_gamma 89.960136
loop_
_atom_site_label
_atom_site_type_symbol
_atom_site_fract_x
_atom_site_fract_y
_atom_site_fract_z
_atom_type_partial_charge
H0 H 0.71481 0.12118 0.03121 0.0
N1 N 0.672 0.07232 0.99857 0.0
H2 H 0.75899 0.10831 0.07547 0.0
H3 H 0.6826 0.0044 0.02618 0.0
H4 H 0.72768 0.99099 0.06983 0.0
H5 H 0.70134 0.00697 0.97807 0.0
H6 H 0.73663 0.00038 0.93483 0.0
H7 H 0.68114 0.12403 0.95786 0.0
H8 H 0.71603 0.11746 0.91394 0.0
H9 H 0.62337 0.11961 0.02024 0.0
H10 H 0.62825 0.01173 0.97842 0.0
H11 H 0.55357 0.1128 0.02168 0.0
H12 H 0.55781 0.00536 0.9781 0.0
H13 H 0.34929 0.10364 0.03146 0.0
H14 H 0.31635 0.09513 0.07588 0.0
H15 H 0.35027 0.97827 0.07894 0.0
H16 H 0.38326 0.9872 0.03464 0.0
H17 H 0.36702 0.98033 0.98256 0.0
H18 H 0.31733 0.96282 0.94288 0.0
H19 H 0.29437 0.08041 0.92496 0.0
H20 H 0.34378 0.0973 0.9645 0.0
H21 H 0.42584 0.11166 0.99322 0.0
H22 H 0.49585 0.11539 0.99113 0.0
H23 H 0.50496 0.99559 0.00623 0.0
N24 N 0.38377 0.05143 0.00184 0.0
H25 H 0.43445 0.99212 0.00636 0.0
C26 C 0.69607 0.06375 0.02524 0.0
C27 C 0.71743 0.09278 0.03968 0.0
C28 C 0.74257 0.08538 0.06483 0.0
C29 C 0.74743 0.0486 0.07562 0.0
C30 C 0.72535 0.01947 0.06151 0.0
C31 C 0.69954 0.02708 0.03663 0.0
C32 C 0.68911 0.06631 0.97149 0.0
C33 C 0.70441 0.03129 0.96434 0.0
C34 C 0.7249 0.02761 0.93964 0.0
C35 C 0.73007 0.05878 0.92148 0.0
C36 C 0.71288 0.09315 0.92778 0.0
C37 C 0.6929 0.09692 0.95272 0.0
C38 C 0.63088 0.0666 0.99888 0.0
C39 C 0.60914 0.09458 0.01108 0.0
C40 C 0.56913 0.0907 0.01161 0.0
C41 C 0.54962 0.05878 0.99952 0.0
C42 C 0.5717 0.03026 0.98775 0.0
C43 C 0.61203 0.03399 0.98764 0.0
C44 C 0.36875 0.04623 0.02977 0.0
C45 C 0.34991 0.07634 0.04198 0.0
C46 C 0.33066 0.07123 0.06713 0.0
C47 C 0.32981 0.03562 0.08049 0.0
C48 C 0.35022 0.00589 0.06897 0.0
C49 C 0.36925 0.01101 0.04368 0.0
C50 C 0.35903 0.04019 0.97629 0.0
C51 C 0.35175 0.00221 0.96968 0.0
C52 C 0.32334 0.99228 0.94706 0.0
C53 C 0.30229 0.02008 0.93041 0.0
C54 C 0.31064 0.0581 0.93661 0.0
C55 C 0.33876 0.06793 0.95933 0.0
C56 C 0.42507 0.0519 1.00046 0.0
C57 C 0.44307 0.08627 0.99598 0.0
C58 C 0.48318 0.08829 0.99507 0.0
C59 C 0.50648 0.05588 0.99906 0.0
C60 C 0.48813 0.02115 0.00297 0.0
C61 C 0.44774 0.01913 0.00344 0.0
H62 H 0.99832 0.6526 0.52732 0.0
N63 N 0.07015 0.64343 0.50791 0.0
H64 H 0.98293 0.69113 0.56873 0.0
H65 H 0.11941 0.68013 0.54573 0.0
H66 H 0.10476 0.71767 0.58765 0.0
H67 H 0.12657 0.65018 0.47298 0.0
H68 H 0.12684 0.68899 0.42865 0.0
H69 H 0.0091 0.68488 0.48192 0.0
H70 H 0.00914 0.7238 0.4386 0.0
H71 H 1.00254 0.61634 0.47882 0.0
H72 H 0.10655 0.58435 0.53286 0.0
H73 H 0.98198 0.55104 0.47582 0.0
H74 H 0.08532 0.51886 0.53119 0.0
H75 H 0.91958 0.34282 0.51273 0.0
H76 H 0.91447 0.30623 0.55772 0.0
H77 H 0.03533 0.32833 0.58503 0.0
H78 H 0.04003 0.36499 0.54039 0.0
H79 H 0.0508 0.33626 0.49508 0.0
H80 H 0.07055 0.2978 0.45516 0.0
H81 H 0.96325 0.32476 0.40291 0.0
H82 H 0.94374 0.3638 0.44303 0.0
H83 H 0.93803 0.43549 0.49967 0.0
H84 H 0.95831 0.50124 0.50361 0.0
H85 H 0.07737 0.46701 0.49896 0.0
N86 N 0.9823 0.37537 0.49541 0.0
H87 H 0.05713 0.4018 0.49648 0.0
C88 C 0.06013 0.66393 0.53324 0.0
C89 C 0.02166 0.66679 0.54035 0.0
C90 C 0.01291 0.68877 0.56411 0.0
C91 C 0.04228 0.70835 0.58119 0.0
C92 C 0.08096 0.70422 0.57463 0.0
C93 C 0.0896 0.6824 0.55078 0.0
C94 C 0.06808 0.66468 0.48089 0.0
C95 C 0.10074 0.66586 0.4652 0.0
C96 C 0.10078 0.68797 0.43992 0.0
C97 C 0.06802 0.70931 0.42968 0.0
C98 C 0.03483 0.70741 0.44513 0.0
C99 C 0.03484 0.68523 0.47038 0.0
C100 C 0.05657 0.60519 0.50577 0.0
C101 C 0.02102 0.59532 0.49009 0.0
C102 C 0.00903 0.55784 0.48866 0.0
C103 C 0.03202 0.52953 0.50318 0.0
C104 C 0.06722 0.53971 0.51923 0.0
C105 C 0.07933 0.57711 0.52039 0.0
C106 C 0.98016 0.35609 0.52294 0.0
C107 C 0.94483 0.33986 0.52856 0.0
C108 C 0.94197 0.31913 0.55422 0.0
C109 C 0.97464 0.31371 0.57453 0.0
C110 C 0.00986 0.33106 0.56941 0.0
C111 C 0.01256 0.35219 0.54387 0.0
C112 C 0.99553 0.353 0.47208 0.0
C113 C 0.03152 0.33428 0.47508 0.0
C114 C 0.04289 0.31226 0.45218 0.0
C115 C 0.01826 0.30777 0.42616 0.0
C116 C 0.98255 0.32695 0.42297 0.0
C117 C 0.97143 0.34941 0.44575 0.0
C118 C 0.99575 0.41367 0.49748 0.0
C119 C 0.96848 0.44234 0.49956 0.0
C120 C 0.98014 0.47987 0.5016 0.0
C121 C 0.01951 0.48954 0.50144 0.0
C122 C 0.04688 0.46065 0.49953 0.0
C123 C 0.03521 0.42313 0.49778 0.0
Mg124 Mg 0.0594 0.00396 0.27276 0.0
O125 O 1.00567 0.99803 0.23913 0.0
O126 O 0.95401 0.9887 0.26397 0.0
Mg127 Mg 0.97465 0.98584 0.31297 0.0
C128 C 0.96926 0.99312 0.23991 0.0
C129 C 0.12793 0.01261 0.23511 0.0
O130 O 0.14064 0.98623 0.25379 0.0
O131 O 0.03965 0.06261 0.28552 0.0
O132 O 0.98991 0.04851 0.31141 0.0
O133 O 0.06977 0.9417 0.27299 0.0
O134 O 0.03327 0.97104 0.30266 0.0
C135 C 0.01265 0.07228 0.30113 0.0
C136 C 0.04711 0.94008 0.29383 0.0
O137 O 0.09463 0.02687 0.23702 0.0
Mg138 Mg 0.99798 0.00616 0.73038 0.0
O139 O 0.05823 0.00412 0.75714 0.0
O140 O 0.10261 -0.00013 0.72487 0.0
Mg141 Mg 0.07185 0.99777 0.67841 0.0
C142 C 0.09347 0.00199 0.75115 0.0
C143 C 0.93221 0.0215 0.76891 0.0
O144 O 0.91357 0.01066 0.74391 0.0
O145 O 0.00843 0.06698 0.7166 0.0
O146 O 0.05177 0.05858 0.68391 0.0
O147 O 0.99413 0.94319 0.7301 0.0
O148 O 0.01961 0.97703 0.69635 0.0
C149 C 0.03004 0.07973 0.69775 0.0
C150 C 0.01173 0.94456 0.70643 0.0
O151 O 0.969 0.02385 0.77094 0.0
H152 H 0.31608 0.00455 0.12017 0.0
C153 C 0.30742 0.02829 0.10599 0.0
H154 H 0.26495 0.07067 0.09667 0.0
H155 H 0.17391 0.95026 0.17692 0.0
H156 H 0.17653 0.90741 0.13602 0.0
H157 H 0.21243 0.92411 0.09391 0.0
H158 H 0.24623 0.9835 0.09257 0.0
C159 C 0.27507 0.04738 0.11074 0.0
C160 C 0.25192 0.03762 0.13545 0.0
C161 C 0.23167 0.00298 0.13557 0.0
C162 C 0.21024 0.99369 0.15955 0.0
C163 C 0.19061 0.95877 0.15926 0.0
C164 C 0.19176 0.93394 0.13588 0.0
C165 C 0.21202 0.94331 0.1122 0.0
C166 C 0.23161 0.97744 0.11184 0.0
H167 H 0.13988 0.04674 0.19656 0.0
C168 C 0.15141 0.02488 0.21161 0.0
H169 H 0.19712 0.98634 0.22224 0.0
H170 H 0.28613 0.1068 0.14153 0.0
H171 H 0.28238 0.15015 0.182 0.0
H172 H 0.2452 0.13401 0.22355 0.0
H173 H 0.21141 0.0745 0.22484 0.0
C174 C 0.18592 0.00914 0.20801 0.0
C175 C 0.20811 0.01945 0.18293 0.0
C176 C 0.22776 0.05435 0.18257 0.0
C177 C 0.24951 0.06351 0.15872 0.0
C178 C 0.26907 0.09845 0.15902 0.0
C179 C 0.26724 0.12357 0.18215 0.0
C180 C 0.24629 0.1145 0.20553 0.0
C181 C 0.22685 0.08029 0.20592 0.0
H182 H 0.94291 0.28545 0.60809 0.0
C183 C 0.97128 0.28866 0.60012 0.0
H184 H 0.02875 0.2679 0.6029 0.0
H185 H 0.03912 0.18863 0.72525 0.0
H186 H 0.08004 0.24313 0.737 0.0
H187 H 0.08194 0.29546 0.70171 0.0
H188 H 0.04315 0.29364 0.65445 0.0
C189 C 1.00037 0.26601 0.61095 0.0
C190 C 0.9951 0.23671 0.63352 0.0
C191 C 0.01751 0.2385 0.66119 0.0
C192 C 0.01642 0.2084 0.68158 0.0
C193 C 0.03934 0.21065 0.70892 0.0
C194 C 0.06274 0.2418 0.71596 0.0
C195 C 0.0638 0.27128 0.69609 0.0
C196 C 0.04149 0.26983 0.66901 0.0
H197 H 0.05082 0.12969 0.67607 0.0
C198 C 0.02843 0.11964 0.68922 0.0
H199 H 0.97352 0.13151 0.70345 0.0
H200 H 0.9498 0.2224 0.58167 0.0
H201 H 0.9072 0.16939 0.57138 0.0
H202 H 0.90221 0.1195 0.60827 0.0
H203 H 0.94046 0.12226 0.65561 0.0
C204 C 0.99773 0.14178 0.69232 0.0
C205 C 0.9928 0.17668 0.67436 0.0
C206 C 0.96844 0.17594 0.64756 0.0
C207 C 0.97028 0.20546 0.62673 0.0
C208 C 0.94831 0.20199 0.599 0.0
C209 C 0.92393 0.17137 0.59261 0.0
C210 C 0.92121 0.14323 0.61334 0.0
C211 C 0.94334 0.14518 0.64043 0.0
H212 H 0.7802 0.06437 0.11772 0.0
C213 C 0.77547 0.04182 0.10175 0.0
H214 H 0.79417 0.98821 0.08918 0.0
H215 H 0.9295 0.06065 0.18928 0.0
H216 H 0.93785 0.10877 0.15305 0.0
H217 H 0.89766 0.10908 0.10537 0.0
H218 H 0.84798 0.06194 0.09417 0.0
C219 C 0.7977 0.01081 0.10514 0.0
C220 C 0.82718 0.00623 0.13103 0.0
C221 C 0.85811 0.0323 0.13628 0.0
C222 C 0.88327 0.03039 0.16282 0.0
C223 C 0.91121 0.05915 0.16876 0.0
C224 C 0.91608 0.08725 0.14823 0.0
C225 C 0.89332 0.08756 0.12146 0.0
C226 C 0.86465 0.0605 0.11544 0.0
H227 H 0.95752 0.9929 0.19148 0.0
C228 C 0.94398 0.99392 0.21191 0.0
H229 H 0.89148 -0.0011 0.23141 0.0
H230 H 0.77248 0.95046 0.12698 0.0
H231 H 0.76742 0.89918 0.1613 0.0
H232 H 0.81401 0.89307 0.20551 0.0
H233 H 0.8657 0.93844 0.21584 0.0
C234 C 0.90527 0.99817 0.21108 0.0
C235 C 0.87955 0.00047 0.18295 0.0
C236 C 0.84999 0.9732 0.17685 0.0
C237 C 0.8236 0.97627 0.15102 0.0
C238 C 0.79368 0.94924 0.14601 0.0
C239 C 0.79039 0.91964 0.16556 0.0
C240 C 0.81658 0.91623 0.19047 0.0
C241 C 0.84607 0.94258 0.19617 0.0
H242 H 1.00175 0.73098 0.61135 0.0
C243 C 0.03107 0.73344 0.60494 0.0
H244 H 0.08296 0.76551 0.61111 0.0
H245 H 0.96099 0.89141 0.65145 0.0
H246 H 0.93595 0.89266 0.6 0.0
H247 H 0.95884 0.84701 0.56505 0.0
H248 H 0.00622 0.79949 0.58144 0.0
C249 C 0.05374 0.76117 0.61695 0.0
C250 C 0.03925 0.78835 0.63795 0.0
C251 C 0.01232 0.81662 0.6277 0.0
C252 C 1.00046 0.844 0.64753 0.0
C253 C 0.97222 0.87091 0.63706 0.0
C254 C 0.95738 0.87177 0.60762 0.0
C255 C 0.97016 0.846 0.58798 0.0
C256 C 0.9973 0.81871 0.59775 0.0
H257 H 0.03916 0.91455 0.67211 0.0
C258 C 0.02241 0.91067 0.69079 0.0
H259 H 0.99282 0.87146 0.71529 0.0
H260 H 0.08903 0.73648 0.66497 0.0
H261 H 0.11425 0.73556 0.71649 0.0
H262 H 0.09526 0.78436 0.75054 0.0
H263 H 0.05079 0.83429 0.73332 0.0
C264 C 0.00942 0.87625 0.69669 0.0
C265 C 0.01699 0.84418 0.67722 0.0
C266 C 0.04269 0.81511 0.68769 0.0
C267 C 0.05387 0.78715 0.66801 0.0
C268 C 0.07984 0.75855 0.67896 0.0
C269 C 0.09446 0.75767 0.70847 0.0
C270 C 0.08375 0.78514 0.72765 0.0
C271 C 0.05824 0.81365 0.71749 0.0
H272 H 0.25541 0.98222 0.91178 0.0
C273 C 0.26984 0.00878 0.90844 0.0
H274 H 0.27159 0.0564 0.88094 0.0
H275 H 0.15673 0.93883 0.79887 0.0
H276 H 0.2119 0.89655 0.80086 0.0
H277 H 0.27276 0.91155 0.83133 0.0
H278 H 0.27847 0.96834 0.86052 0.0
C279 C 0.25736 0.03002 0.885 0.0
C280 C 0.22142 0.02081 0.86563 0.0
C281 C 0.21931 0.98825 0.84768 0.0
C282 C 0.18501 0.98068 0.82878 0.0
C283 C 0.18274 0.94685 0.81248 0.0
C284 C 0.21409 0.92219 0.8136 0.0
C285 C 0.24829 0.93055 0.83085 0.0
C286 C 0.25107 0.96317 0.84769 0.0
H287 H 0.15489 0.00556 0.76856 0.0
C288 C 0.12555 0.00319 0.77493 0.0
H289 H 0.09115 0.00051 0.81048 0.0
H290 H 0.21459 0.08409 0.89873 0.0
H291 H 0.15999 0.12699 0.89572 0.0
H292 H 0.10216 0.11577 0.86082 0.0
H293 H 0.09841 0.0614 0.82894 0.0
C294 C 0.12026 0.00206 0.80363 0.0
C295 C 0.15382 0.00678 0.82648 0.0
C296 C 0.1556 0.03884 0.84489 0.0
C297 C 0.1893 0.04572 0.86459 0.0
C298 C 0.19006 0.07779 0.88296 0.0
C299 C 0.15885 0.10263 0.88154 0.0
C300 C 0.12628 0.09628 0.86193 0.0
C301 C 0.12451 0.06487 0.84375 0.0
H302 H 0.06115 0.27772 0.40201 0.0
C303 C 0.03026 0.28204 0.40326 0.0
H304 H 0.97384 0.26333 0.38824 0.0
H305 H 0.00743 0.18291 0.27219 0.0
H306 H 0.97128 0.23754 0.25261 0.0
H307 H 0.95665 0.28981 0.28511 0.0
H308 H 0.97775 0.28776 0.33735 0.0
C309 C 1.00481 0.26026 0.38693 0.0
C310 C 0.01755 0.2306 0.36704 0.0
C311 C 1.00554 0.23257 0.33649 0.0
C312 C 0.01414 0.20259 0.31767 0.0
C313 C 1.00135 0.20493 0.28737 0.0
C314 C 0.98076 0.23613 0.27587 0.0
C315 C 0.97253 0.26557 0.29418 0.0
C316 C 0.98472 0.26399 0.32414 0.0
H317 H 0.98214 0.11909 0.31982 0.0
C318 C 0.0085 0.11166 0.31005 0.0
H319 H 0.06547 0.12904 0.30374 0.0
H320 H 0.04236 0.21535 0.42507 0.0
H321 H 0.08085 0.16227 0.44359 0.0
H322 H 0.10006 0.113 0.41008 0.0
H323 H 0.08009 0.11643 0.35775 0.0
C324 C 0.03774 0.1365 0.31133 0.0
C325 C 0.03503 0.17092 0.32936 0.0
C326 C 0.04901 0.16985 0.35954 0.0
C327 C 0.03934 0.19913 0.37862 0.0
C328 C 0.05054 0.19524 0.40916 0.0
C329 C 0.07234 0.16455 0.42022 0.0
C330 C 0.08304 0.13675 0.40138 0.0
C331 C 0.07137 0.13907 0.37141 0.0
H332 H 0.74547 0.07477 0.87726 0.0
C333 C 0.75323 0.05635 0.89593 0.0
H334 H 0.7938 0.01649 0.9146 0.0
H335 H 0.85012 0.95762 0.79654 0.0
H336 H 0.81623 0.90322 0.81301 0.0
H337 H 0.77776 0.90739 0.85545 0.0
H338 H 0.77318 0.96592 0.88183 0.0
C339 C 0.78494 0.03447 0.89591 0.0
C340 C 0.80799 0.03259 0.87009 0.0
C341 C 0.81002 0.99825 0.85469 0.0
C342 C 0.83162 0.99604 0.82987 0.0
C343 C 0.83362 0.96115 0.81523 0.0
C344 C 0.81439 0.92961 0.82449 0.0
C345 C 0.79279 0.93194 0.84842 0.0
C346 C 0.79049 0.96575 0.8634 0.0
H347 H 0.92768 0.03497 0.81566 0.0
C348 C 0.91105 0.02851 0.79486 0.0
H349 H 0.85551 0.01798 0.77303 0.0
H350 H 0.81526 0.10125 0.8972 0.0
H351 H 0.84734 0.15621 0.87981 0.0
H352 H 0.87994 0.15384 0.8343 0.0
H353 H 0.88142 0.09624 0.80631 0.0
C354 C 0.87217 0.02566 0.79355 0.0
C355 C 0.85091 0.02825 0.82026 0.0
C356 C 0.84889 0.06265 0.83565 0.0
C357 C 0.82827 0.06456 0.86104 0.0
C358 C 0.82884 0.09863 0.87702 0.0
C359 C 0.84743 0.13035 0.86741 0.0
C360 C 0.86592 0.12898 0.84186 0.0
C361 C 0.86674 0.09562 0.82608 0.0
H362 H 0.09982 0.74094 0.398 0.0
C363 C 0.07099 0.73541 0.40453 0.0
H364 H 0.01121 0.74839 0.39485 0.0
H365 H 0.10149 0.89981 0.3504 0.0
H366 H 0.12505 0.90818 0.40166 0.0
H367 H 0.11136 0.86095 0.43877 0.0
H368 H 0.07492 0.8048 0.42473 0.0
C369 C 0.04083 0.75431 0.39061 0.0
C370 C 0.04691 0.78412 0.36864 0.0
C371 C 0.06678 0.8177 0.37759 0.0
C372 C 0.07277 0.84593 0.35651 0.0
C373 C 0.09466 0.87818 0.36569 0.0
C374 C 0.10858 0.88326 0.39504 0.0
C375 C 0.10102 0.85661 0.41589 0.0
C376 C 0.08031 0.82424 0.40744 0.0
H377 H 0.01873 0.90599 0.3255 0.0
C378 C 0.03892 0.90478 0.30877 0.0
H379 H 0.08004 0.87124 0.28951 0.0
H380 H 0.00806 0.72319 0.34413 0.0
H381 H 0.98238 0.71615 0.29305 0.0
H382 H 0.99039 0.76647 0.25699 0.0
H383 H 0.02437 0.82414 0.27175 0.0
C384 C 0.05931 0.8732 0.30577 0.0
C385 C 0.05679 0.84167 0.32691 0.0
C386 C 0.03698 0.80823 0.31795 0.0
C387 C 0.03207 0.77937 0.33884 0.0
C388 C 0.01229 0.74614 0.32925 0.0
C389 C 0.99747 0.74172 0.29999 0.0
C390 C 1.00199 0.77006 0.27968 0.0
C391 C 0.0215 0.803 0.28842 0.0
loop_
_geom_bond_atom_site_label_1
_geom_bond_atom_site_label_2
_geom_bond_distance
_geom_bond_site_symmetry_2
_ccdc_geom_bond_type
H0 C27 0.929 . S
N1 C26 1.413 1_556 S
N1 C32 1.453 . S
N1 C38 1.424 . S
H2 C28 0.930 . S
H3 C31 0.928 1_565 S
H4 C30 0.929 . S
H5 C33 0.930 . S
H6 C34 0.932 . S
H7 C37 0.929 . S
H8 C36 0.931 . S
H9 C39 0.929 . S
H10 C43 0.932 1_565 S
H11 C40 0.931 . S
H12 C42 0.929 . S
H13 C45 0.929 . S
H14 C46 0.930 . S
H15 C48 0.929 . S
H16 C49 0.928 1_565 S
H17 C51 0.930 . S
H18 C52 0.932 . S
H19 C54 0.931 . S
H20 C55 0.929 . S
H21 C57 0.929 . S
H22 C58 0.931 . S
H23 C60 0.929 . S
N24 C44 1.433 1_556 S
N24 C50 1.435 . S
N24 C56 1.423 . S
H25 C61 0.932 1_565 S
C26 N1 1.413 1_554 S
C26 C27 1.363 . S
C26 C31 1.373 . S
C27 H0 0.929 . S
C27 C26 1.363 . S
C27 C28 1.385 . S
C28 H2 0.930 . S
C28 C27 1.385 . S
C28 C29 1.357 . S
C29 C28 1.357 . S
C29 C30 1.406 1_545 S
C30 H4 0.929 . S
C30 C29 1.406 1_565 S
C30 C31 1.391 1_565 S
C31 H3 0.928 1_545 S
C31 C26 1.373 . S
C31 C30 1.391 1_545 S
C32 N1 1.453 . S
C32 C33 1.358 1_545 S
C32 C37 1.371 . S
C33 H5 0.930 . S
C33 C32 1.358 1_565 S
C33 C34 1.405 . S
C34 H6 0.932 . S
C34 C33 1.405 . S
C34 C35 1.383 1_565 S
C35 C34 1.383 1_545 S
C35 C36 1.393 . S
C36 H8 0.931 . S
C36 C35 1.393 . S
C36 C37 1.382 . S
C37 H7 0.929 . S
C37 C32 1.371 . S
C37 C36 1.382 . S
C38 N1 1.424 . S
C38 C39 1.362 1_556 S
C38 C43 1.388 . S
C39 H9 0.929 . S
C39 C38 1.362 1_554 S
C39 C40 1.376 . S
C40 H11 0.931 . S
C40 C39 1.376 . S
C40 C41 1.396 1_554 S
C41 C40 1.396 1_556 S
C41 C42 1.348 . S
C41 C59 1.472 . S
C42 H12 0.929 . S
C42 C41 1.348 . S
C42 C43 1.443 . S
C43 H10 0.932 1_545 S
C43 C38 1.388 . S
C43 C42 1.443 . S
C44 N24 1.433 1_554 S
C44 C45 1.363 . S
C44 C49 1.373 . S
C45 H13 0.929 . S
C45 C44 1.363 . S
C45 C46 1.385 . S
C46 H14 0.930 . S
C46 C45 1.385 . S
C46 C47 1.357 . S
C47 C46 1.357 . S
C47 C48 1.406 1_545 S
C48 H15 0.929 . S
C48 C47 1.406 1_565 S
C48 C49 1.391 1_565 S
C49 H16 0.928 1_545 S
C49 C44 1.373 . S
C49 C48 1.391 1_545 S
C50 N24 1.435 . S
C50 C51 1.358 1_545 S
C50 C55 1.371 . S
C51 H17 0.930 . S
C51 C50 1.358 1_565 S
C51 C52 1.405 . S
C52 H18 0.932 . S
C52 C51 1.405 . S
C52 C53 1.383 1_565 S
C53 C52 1.383 1_545 S
C53 C54 1.393 . S
C54 H19 0.931 . S
C54 C53 1.393 . S
C54 C55 1.382 . S
C55 H20 0.929 . S
C55 C50 1.371 . S
C55 C54 1.382 . S
C56 N24 1.423 . S
C56 C57 1.362 1_556 S
C56 C61 1.388 . S
C57 H21 0.929 . S
C57 C56 1.362 1_554 S
C57 C58 1.376 . S
C58 H22 0.931 . S
C58 C57 1.376 . S
C58 C59 1.396 1_554 S
C59 C41 1.472 . S
C59 C58 1.396 1_556 S
C59 C60 1.348 . S
C60 H23 0.929 . S
C60 C59 1.348 . S
C60 C61 1.443 . S
C61 H25 0.932 1_545 S
C61 C56 1.388 . S
C61 C60 1.443 . S
H62 C89 0.929 . S
N63 C88 1.433 . S
N63 C94 1.435 . S
N63 C100 1.424 . S
H64 C90 0.930 . S
H65 C93 0.931 . S
H66 C92 0.929 . S
H67 C95 0.930 . S
H68 C96 0.932 . S
H69 C99 0.929 . S
H70 C98 0.931 1_655 S
H71 C101 0.929 . S
H72 C105 0.932 . S
H73 C102 0.931 . S
H74 C104 0.929 . S
H75 C107 0.929 . S
H76 C108 0.930 . S
H77 C110 0.929 . S
H78 C111 0.931 . S
H79 C113 0.930 . S
H80 C114 0.932 . S
H81 C116 0.931 1_655 S
H82 C117 0.929 . S
H83 C119 0.929 . S
H84 C120 0.931 . S
H85 C122 0.929 . S
N86 C106 1.433 . S
N86 C112 1.435 . S
N86 C118 1.424 . S
H87 C123 0.932 . S
C88 N63 1.433 . S
C88 C89 1.363 1_455 S
C88 C93 1.370 . S
C89 H62 0.929 . S
C89 C88 1.363 1_655 S
C89 C90 1.385 . S
C90 H64 0.930 . S
C90 C89 1.385 . S
C90 C91 1.357 1_655 S
C91 C90 1.357 1_455 S
C91 C92 1.406 . S
C92 H66 0.929 . S
C92 C91 1.406 . S
C92 C93 1.391 . S
C93 H65 0.931 . S
C93 C88 1.370 . S
C93 C92 1.391 . S
C94 N63 1.435 . S
C94 C95 1.358 . S
C94 C99 1.371 1_455 S
C95 H67 0.930 . S
C95 C94 1.358 . S
C95 C96 1.405 . S
C96 H68 0.932 . S
C96 C95 1.405 . S
C96 C97 1.383 . S
C97 C96 1.383 . S
C97 C98 1.393 . S
C98 H70 0.931 1_455 S
C98 C97 1.393 . S
C98 C99 1.382 1_455 S
C99 H69 0.929 . S
C99 C94 1.371 1_655 S
C99 C98 1.382 1_655 S
C100 N63 1.424 . S
C100 C101 1.356 1_455 S
C100 C105 1.394 . S
C101 H71 0.929 . S
C101 C100 1.356 1_655 S
C101 C102 1.376 . S
C102 H73 0.931 . S
C102 C101 1.376 . S
C102 C103 1.396 . S
C103 C102 1.396 . S
C103 C104 1.348 1_655 S
C103 C121 1.472 . S
C104 H74 0.929 . S
C104 C103 1.348 1_455 S
C104 C105 1.443 . S
C105 H72 0.932 . S
C105 C100 1.394 . S
C105 C104 1.443 . S
C106 N86 1.433 . S
C106 C107 1.363 1_455 S
C106 C111 1.370 . S
C107 H75 0.929 . S
C107 C106 1.363 1_655 S
C107 C108 1.385 . S
C108 H76 0.930 . S
C108 C107 1.385 . S
C108 C109 1.357 1_655 S
C109 C108 1.357 1_455 S
C109 C110 1.406 . S
C110 H77 0.929 . S
C110 C109 1.406 . S
C110 C111 1.391 . S
C111 H78 0.931 . S
C111 C106 1.370 . S
C111 C110 1.391 . S
C112 N86 1.435 . S
C112 C113 1.358 . S
C112 C117 1.371 1_455 S
C113 H79 0.930 . S
C113 C112 1.358 . S
C113 C114 1.405 . S
C114 H80 0.932 . S
C114 C113 1.405 . S
C114 C115 1.383 . S
C115 C114 1.383 . S
C115 C116 1.393 . S
C116 H81 0.931 1_455 S
C116 C115 1.393 . S
C116 C117 1.382 1_455 S
C117 H82 0.929 . S
C117 C112 1.371 1_655 S
C117 C116 1.382 1_655 S
C118 N86 1.424 . S
C118 C119 1.356 1_455 S
C118 C123 1.394 . S
C119 H83 0.929 . S
C119 C118 1.356 1_655 S
C119 C120 1.376 . S
C120 H84 0.931 . S
C120 C119 1.376 . S
C120 C121 1.396 . S
C121 C103 1.472 . S
C121 C120 1.396 . S
C121 C122 1.348 1_655 S
C122 H85 0.929 . S
C122 C121 1.348 1_455 S
C122 C123 1.443 . S
C123 H87 0.932 . S
C123 C118 1.394 . S
C123 C122 1.443 . S
Mg124 O125 2.028 . S
Mg124 O131 1.986 . S
Mg124 O133 2.114 1_545 S
Mg124 O134 2.251 1_545 S
Mg124 O137 2.010 . S
O125 Mg124 2.028 . S
O125 C128 1.250 1_455 S
O126 Mg127 2.028 . S
O126 C128 1.248 . S
Mg127 O126 2.028 . S
Mg127 O132 2.032 1_655 S
Mg127 O134 2.079 1_645 S
C128 O125 1.250 1_655 S
C128 O126 1.248 . S
C129 O130 1.264 . S
C129 O137 1.249 . S
O130 C129 1.264 . S
O131 Mg124 1.986 . S
O131 C135 1.246 . S
O132 Mg127 2.032 1_455 S
O132 C135 1.259 . S
O133 Mg124 2.114 1_565 S
O133 C136 1.252 . S
O134 Mg124 2.251 1_565 S
O134 Mg127 2.079 1_465 S
O134 C136 1.273 . S
C135 O131 1.246 . S
C135 O132 1.259 . S
C136 O133 1.252 . S
C136 O134 1.273 . S
O137 Mg124 2.010 . S
O137 C129 1.249 . S
Mg138 O139 2.028 1_655 S
Mg138 O145 1.986 . S
Mg138 O147 2.114 1_545 S
Mg138 O148 2.251 1_645 S
Mg138 O151 2.010 . S
O139 Mg138 2.028 1_455 S
O139 C142 1.250 . S
O140 Mg141 2.028 . S
O140 C142 1.248 . S
Mg141 O140 2.028 . S
Mg141 O146 2.032 . S
Mg141 O148 2.079 1_545 S
C142 O139 1.250 . S
C142 O140 1.248 . S
C143 O144 1.264 . S
C143 O151 1.249 . S
O144 C143 1.264 . S
O145 Mg138 1.986 . S
O145 C149 1.246 1_655 S
O146 Mg141 2.032 . S
O146 C149 1.259 . S
O147 Mg138 2.114 1_565 S
O147 C150 1.252 1_655 S
O148 Mg138 2.251 1_465 S
O148 Mg141 2.079 1_565 S
O148 C150 1.273 . S
C149 O145 1.246 1_455 S
C149 O146 1.259 . S
C150 O147 1.252 1_455 S
C150 O148 1.273 . S
O151 Mg138 2.010 . S
O151 C143 1.249 . S
H152 C153 0.951 . S
C153 H152 0.951 . S
C153 C159 1.265 . S
H154 C159 0.950 . S
H155 C163 0.949 . S
H156 C164 0.950 . S
H157 C165 0.951 . S
H158 C166 0.951 . S
C159 C153 1.265 . S
C159 H154 0.950 . S
C159 C160 1.478 . S
C160 C159 1.478 . S
C160 C161 1.397 1_545 S
C160 C177 1.394 . S
C161 C160 1.397 1_565 S
C161 C162 1.438 . S
C161 C166 1.429 . S
C162 C161 1.438 . S
C162 C163 1.428 . S
C162 C175 1.394 1_565 S
C163 H155 0.949 . S
C163 C162 1.428 . S
C163 C164 1.345 . S
C164 H156 0.950 . S
C164 C163 1.345 . S
C164 C165 1.424 . S
C165 H157 0.951 . S
C165 C164 1.424 . S
C165 C166 1.347 . S
C166 H158 0.951 . S
C166 C161 1.429 . S
C166 C165 1.347 . S
H167 C168 0.951 . S
C168 H167 0.951 . S
C168 C174 1.265 . S
H169 C174 0.950 . S
H170 C178 0.949 . S
H171 C179 0.950 . S
H172 C180 0.951 . S
H173 C181 0.951 . S
C174 C168 1.265 . S
C174 H169 0.950 . S
C174 C175 1.478 . S
C175 C162 1.394 1_545 S
C175 C174 1.478 . S
C175 C176 1.397 . S
C176 C175 1.397 . S
C176 C177 1.438 . S
C176 C181 1.429 . S
C177 C160 1.394 . S
C177 C176 1.438 . S
C177 C178 1.428 . S
C178 H170 0.949 . S
C178 C177 1.428 . S
C178 C179 1.345 . S
C179 H171 0.950 . S
C179 C178 1.345 . S
C179 C180 1.424 . S
C180 H172 0.951 . S
C180 C179 1.424 . S
C180 C181 1.347 . S
C181 H173 0.951 . S
C181 C176 1.429 . S
C181 C180 1.347 . S
H182 C183 0.951 1_655 S
C183 H182 0.951 1_455 S
C183 C189 1.265 . S
H184 C189 0.950 . S
H185 C193 0.949 . S
H186 C194 0.950 . S
H187 C195 0.951 . S
H188 C196 0.951 . S
C189 C183 1.265 . S
C189 H184 0.950 . S
C189 C190 1.478 . S
C190 C189 1.478 . S
C190 C191 1.397 . S
C190 C207 1.394 1_455 S
C191 C190 1.397 . S
C191 C192 1.438 . S
C191 C196 1.429 . S
C192 C191 1.438 . S
C192 C193 1.428 . S
C192 C205 1.401 . S
C193 H185 0.949 . S
C193 C192 1.428 . S
C193 C194 1.345 . S
C194 H186 0.950 . S
C194 C193 1.345 . S
C194 C195 1.424 . S
C195 H187 0.951 . S
C195 C194 1.424 . S
C195 C196 1.347 . S
C196 H188 0.951 . S
C196 C191 1.429 . S
C196 C195 1.347 . S
H197 C198 0.951 . S
C198 H197 0.951 . S
C198 C204 1.265 1_455 S
H199 C204 0.950 . S
H200 C208 0.949 . S
H201 C209 0.950 . S
H202 C210 0.951 . S
H203 C211 0.951 . S
C204 C198 1.265 1_655 S
C204 H199 0.950 . S
C204 C205 1.475 1_655 S
C205 C192 1.401 . S
C205 C204 1.475 1_455 S
C205 C206 1.393 1_455 S
C206 C205 1.393 1_655 S
C206 C207 1.438 . S
C206 C211 1.429 . S
C207 C190 1.394 1_655 S
C207 C206 1.438 . S
C207 C208 1.428 . S
C208 H200 0.949 . S
C208 C207 1.428 . S
C208 C209 1.345 . S
C209 H201 0.950 . S
C209 C208 1.345 . S
C209 C210 1.424 . S
C210 H202 0.951 . S
C210 C209 1.424 . S
C210 C211 1.347 . S
C211 H203 0.951 . S
C211 C206 1.429 . S
C211 C210 1.347 . S
H212 C213 0.951 . S
C213 H212 0.951 . S
C213 C219 1.265 . S
H214 C219 0.950 1_565 S
H215 C223 0.949 . S
H216 C224 0.950 . S
H217 C225 0.951 . S
H218 C226 0.951 . S
C219 C213 1.265 . S
C219 H214 0.950 1_545 S
C219 C220 1.478 . S
C220 C219 1.478 . S
C220 C221 1.397 . S
C220 C237 1.394 1_545 S
C221 C220 1.397 . S
C221 C222 1.438 . S
C221 C226 1.429 . S
C222 C221 1.438 . S
C222 C223 1.428 . S
C222 C235 1.394 . S
C223 H215 0.949 . S
C223 C222 1.428 . S
C223 C224 1.345 . S
C224 H216 0.950 . S
C224 C223 1.345 . S
C224 C225 1.424 . S
C225 H217 0.951 . S
C225 C224 1.424 . S
C225 C226 1.347 . S
C226 H218 0.951 . S
C226 C221 1.429 . S
C226 C225 1.347 . S
H227 C228 0.951 . S
C228 H227 0.951 . S
C228 C234 1.265 . S
H229 C234 0.950 . S
H230 C238 0.949 . S
H231 C239 0.950 . S
H232 C240 0.951 . S
H233 C241 0.951 . S
C234 C228 1.265 . S
C234 H229 0.950 . S
C234 C235 1.478 . S
C235 C222 1.394 . S
C235 C234 1.478 . S
C235 C236 1.397 1_545 S
C236 C235 1.397 1_565 S
C236 C237 1.438 . S
C236 C241 1.429 . S
C237 C220 1.394 1_565 S
C237 C236 1.438 . S
C237 C238 1.428 . S
C238 H230 0.949 . S
C238 C237 1.428 . S
C238 C239 1.345 . S
C239 H231 0.950 . S
C239 C238 1.345 . S
C239 C240 1.424 . S
C240 H232 0.951 . S
C240 C239 1.424 . S
C240 C241 1.347 . S
C241 H233 0.951 . S
C241 C236 1.429 . S
C241 C240 1.347 . S
H242 C243 0.951 1_655 S
C243 H242 0.951 1_455 S
C243 C249 1.265 . S
H244 C249 0.950 . S
H245 C253 0.949 . S
H246 C254 0.950 . S
H247 C255 0.951 . S
H248 C256 0.951 . S
C249 C243 1.265 . S
C249 H244 0.950 . S
C249 C250 1.478 . S
C250 C249 1.478 . S
C250 C251 1.397 . S
C250 C267 1.394 1_455 S
C251 C250 1.397 . S
C251 C252 1.438 . S
C251 C256 1.429 . S
C252 C251 1.438 . S
C252 C253 1.428 . S
C252 C265 1.394 . S
C253 H245 0.949 . S
C253 C252 1.428 . S
C253 C254 1.345 . S
C254 H246 0.950 . S
C254 C253 1.345 . S
C254 C255 1.424 . S
C255 H247 0.951 . S
C255 C254 1.424 . S
C255 C256 1.347 . S
C256 H248 0.951 . S
C256 C251 1.429 . S
C256 C255 1.347 . S
H257 C258 0.951 . S
C258 H257 0.951 . S
C258 C264 1.265 1_455 S
H259 C264 0.950 . S
H260 C268 0.949 . S
H261 C269 0.950 . S
H262 C270 0.951 . S
H263 C271 0.951 . S
C264 C258 1.265 1_655 S
C264 H259 0.950 . S
C264 C265 1.478 1_655 S
C265 C252 1.394 . S
C265 C264 1.478 1_455 S
C265 C266 1.397 1_455 S
C266 C265 1.397 1_655 S
C266 C267 1.438 . S
C266 C271 1.429 . S
C267 C250 1.394 1_655 S
C267 C266 1.438 . S
C267 C268 1.428 . S
C268 H260 0.949 . S
C268 C267 1.428 . S
C268 C269 1.345 . S
C269 H261 0.950 . S
C269 C268 1.345 . S
C269 C270 1.424 . S
C270 H262 0.951 . S
C270 C269 1.424 . S
C270 C271 1.347 . S
C271 H263 0.951 . S
C271 C266 1.429 . S
C271 C270 1.347 . S
H272 C273 0.951 . S
C273 H272 0.951 . S
C273 C279 1.265 . S
H274 C279 0.950 . S
H275 C283 0.949 . S
H276 C284 0.950 . S
H277 C285 0.951 . S
H278 C286 0.951 . S
C279 C273 1.265 . S
C279 H274 0.950 . S
C279 C280 1.478 . S
C280 C279 1.478 . S
C280 C281 1.397 1_545 S
C280 C297 1.394 . S
C281 C280 1.397 1_565 S
C281 C282 1.438 . S
C281 C286 1.429 . S
C282 C281 1.438 . S
C282 C283 1.428 . S
C282 C295 1.394 1_565 S
C283 H275 0.949 . S
C283 C282 1.428 . S
C283 C284 1.345 . S
C284 H276 0.950 . S
C284 C283 1.345 . S
C284 C285 1.424 . S
C285 H277 0.951 . S
C285 C284 1.424 . S
C285 C286 1.347 . S
C286 H278 0.951 . S
C286 C281 1.429 . S
C286 C285 1.347 . S
H287 C288 0.951 . S
C288 H287 0.951 . S
C288 C294 1.265 . S
H289 C294 0.950 . S
H290 C298 0.949 . S
H291 C299 0.950 . S
H292 C300 0.951 . S
H293 C301 0.951 . S
C294 C288 1.265 . S
C294 H289 0.950 . S
C294 C295 1.478 . S
C295 C282 1.394 1_545 S
C295 C294 1.478 . S
C295 C296 1.397 . S
C296 C295 1.397 . S
C296 C297 1.438 . S
C296 C301 1.429 . S
C297 C280 1.394 . S
C297 C296 1.438 . S
C297 C298 1.428 . S
C298 H290 0.949 . S
C298 C297 1.428 . S
C298 C299 1.345 . S
C299 H291 0.950 . S
C299 C298 1.345 . S
C299 C300 1.424 . S
C300 H292 0.951 . S
C300 C299 1.424 . S
C300 C301 1.347 . S
C301 H293 0.951 . S
C301 C296 1.429 . S
C301 C300 1.347 . S
H302 C303 0.951 . S
C303 H302 0.951 . S
C303 C309 1.265 . S
H304 C309 0.950 1_655 S
H305 C313 0.949 . S
H306 C314 0.950 . S
H307 C315 0.954 . S
H308 C316 0.950 1_655 S
C309 C303 1.265 . S
C309 H304 0.950 1_455 S
C309 C310 1.478 . S
C310 C309 1.478 . S
C310 C311 1.397 . S
C310 C327 1.394 . S
C311 C310 1.397 . S
C311 C312 1.438 . S
C311 C316 1.429 . S
C312 C311 1.438 . S
C312 C313 1.428 . S
C312 C325 1.394 . S
C313 H305 0.949 . S
C313 C312 1.428 . S
C313 C314 1.345 . S
C314 H306 0.950 . S
C314 C313 1.345 . S
C314 C315 1.421 1_455 S
C315 H307 0.954 . S
C315 C314 1.421 1_655 S
C315 C316 1.346 1_655 S
C316 H308 0.950 1_455 S
C316 C311 1.429 . S
C316 C315 1.346 1_455 S
H317 C318 0.951 . S
C318 H317 0.951 . S
C318 C324 1.265 . S
H319 C324 0.950 . S
H320 C328 0.949 . S
H321 C329 0.950 . S
H322 C330 0.951 . S
H323 C331 0.951 . S
C324 C318 1.265 . S
C324 H319 0.950 . S
C324 C325 1.478 . S
C325 C312 1.394 . S
C325 C324 1.478 . S
C325 C326 1.397 . S
C326 C325 1.397 . S
C326 C327 1.438 . S
C326 C331 1.429 . S
C327 C310 1.394 . S
C327 C326 1.438 . S
C327 C328 1.428 . S
C328 H320 0.949 . S
C328 C327 1.428 . S
C328 C329 1.345 . S
C329 H321 0.950 . S
C329 C328 1.345 . S
C329 C330 1.424 . S
C330 H322 0.951 . S
C330 C329 1.424 . S
C330 C331 1.347 . S
C331 H323 0.951 . S
C331 C326 1.429 . S
C331 C330 1.347 . S
H332 C333 0.951 . S
C333 H332 0.951 . S
C333 C339 1.265 . S
H334 C339 0.950 . S
H335 C343 0.949 . S
H336 C344 0.950 . S
H337 C345 0.951 . S
H338 C346 0.951 . S
C339 C333 1.265 . S
C339 H334 0.950 . S
C339 C340 1.478 . S
C340 C339 1.478 . S
C340 C341 1.397 1_545 S
C340 C357 1.394 . S
C341 C340 1.397 1_565 S
C341 C342 1.438 . S
C341 C346 1.429 . S
C342 C341 1.438 . S
C342 C343 1.428 . S
C342 C355 1.394 1_565 S
C343 H335 0.949 . S
C343 C342 1.428 . S
C343 C344 1.345 . S
C344 H336 0.950 . S
C344 C343 1.345 . S
C344 C345 1.424 . S
C345 H337 0.951 . S
C345 C344 1.424 . S
C345 C346 1.347 . S
C346 H338 0.951 . S
C346 C341 1.429 . S
C346 C345 1.347 . S
H347 C348 0.951 . S
C348 H347 0.951 . S
C348 C354 1.265 . S
H349 C354 0.950 . S
H350 C358 0.949 . S
H351 C359 0.950 . S
H352 C360 0.951 . S
H353 C361 0.951 . S
C354 C348 1.265 . S
C354 H349 0.950 . S
C354 C355 1.478 . S
C355 C342 1.394 1_545 S
C355 C354 1.478 . S
C355 C356 1.397 . S
C356 C355 1.397 . S
C356 C357 1.438 . S
C356 C361 1.429 . S
C357 C340 1.394 . S
C357 C356 1.438 . S
C357 C358 1.428 . S
C358 H350 0.949 . S
C358 C357 1.428 . S
C358 C359 1.345 . S
C359 H351 0.950 . S
C359 C358 1.345 . S
C359 C360 1.424 . S
C360 H352 0.951 . S
C360 C359 1.424 . S
C360 C361 1.347 . S
C361 H353 0.951 . S
C361 C356 1.429 . S
C361 C360 1.347 . S
H362 C363 0.951 . S
C363 H362 0.951 . S
C363 C369 1.265 . S
H364 C369 0.950 . S
H365 C373 0.949 . S
H366 C374 0.950 . S
H367 C375 0.951 . S
H368 C376 0.951 . S
C369 C363 1.265 . S
C369 H364 0.950 . S
C369 C370 1.478 . S
C370 C369 1.478 . S
C370 C371 1.397 . S
C370 C387 1.394 . S
C371 C370 1.397 . S
C371 C372 1.438 . S
C371 C376 1.429 . S
C372 C371 1.438 . S
C372 C373 1.428 . S
C372 C385 1.394 . S
C373 H365 0.949 . S
C373 C372 1.428 . S
C373 C374 1.345 . S
C374 H366 0.950 . S
C374 C373 1.345 . S
C374 C375 1.424 . S
C375 H367 0.951 . S
C375 C374 1.424 . S
C375 C376 1.347 . S
C376 H368 0.951 . S
C376 C371 1.429 . S
C376 C375 1.347 . S
H377 C378 0.951 . S
C378 H377 0.951 . S
C378 C384 1.265 . S
H379 C384 0.950 . S
H380 C388 0.949 . S
H381 C389 0.950 . S
H382 C390 0.951 . S
H383 C391 0.951 . S
C384 C378 1.265 . S
C384 H379 0.950 . S
C384 C385 1.478 . S
C385 C372 1.394 . S
C385 C384 1.478 . S
C385 C386 1.397 . S
C386 C385 1.397 . S
C386 C387 1.438 . S
C386 C391 1.429 . S
C387 C370 1.394 . S
C387 C386 1.438 . S
C387 C388 1.428 1_455 S
C388 H380 0.949 . S
C388 C387 1.428 1_655 S
C388 C389 1.345 . S
C389 H381 0.950 . S
C389 C388 1.345 . S
C389 C390 1.424 . S
C390 H382 0.951 . S
C390 C389 1.424 . S
C390 C391 1.347 1_655 S
C391 H383 0.951 . S
C391 C386 1.429 . S
C391 C390 1.347 1_455 S
C168 C129 1.510 . S
C153 C47 1.678 . S
C198 C149 1.691 . S
C183 C109 1.628 . S
C228 C128 1.701 . S
C213 C29 1.651 . S
C258 C150 1.741 . S
C243 C91 1.599 . S
C288 C142 1.322 . S
C273 C53 1.354 . S
C318 C135 1.332 . S
C303 C115 1.379 . S
C348 C143 1.295 . S
C333 C35 1.417 . S
C363 C97 1.403 . S
C378 C136 1.389 . S
