# Generated by pormake.
# Topology dag, (6,3)-cn, num edge types: 1
# Building blocks:
#     Node 0, Type 0, BuildingBlock: IZENUY_clean_sbu_0, # of connection points: 6
#     Node 1, Type 0, BuildingBlock: IZENUY_clean_sbu_0, # of connection points: 6
#     Node 2, Type 0, BuildingBlock: IZENUY_clean_sbu_0, # of connection points: 6
#     Node 3, Type 0, BuildingBlock: IZENUY_clean_sbu_0, # of connection points: 6
#     Node 4, Type 1, BuildingBlock: BELTOD_clean_linker_0, # of connection points: 3
#     Node 5, Type 1, BuildingBlock: BELTOD_clean_linker_0, # of connection points: 3
#     Node 6, Type 1, BuildingBlock: BELTOD_clean_linker_0, # of connection points: 3
#     Node 7, Type 1, BuildingBlock: BELTOD_clean_linker_0, # of connection points: 3
#     Node 8, Type 1, BuildingBlock: BELTOD_clean_linker_0, # of connection points: 3
#     Node 9, Type 1, BuildingBlock: BELTOD_clean_linker_0, # of connection points: 3
#     Node 10, Type 1, BuildingBlock: BELTOD_clean_linker_0, # of connection points: 3
#     Node 11, Type 1, BuildingBlock: BELTOD_clean_linker_0, # of connection points: 3
#     Edge 12, Type (0, 1), BuildingBlock: OJICUG_clean_linker_0, # of connection points: 2
#     Edge 13, Type (0, 1), BuildingBlock: OJICUG_clean_linker_0, # of connection points: 2
#     Edge 14, Type (0, 1), BuildingBlock: OJICUG_clean_linker_0, # of connection points: 2
#     Edge 15, Type (0, 1), BuildingBlock: OJICUG_clean_linker_0, # of connection points: 2
#     Edge 16, Type (0, 1), BuildingBlock: OJICUG_clean_linker_0, # of connection points: 2
#     Edge 17, Type (0, 1), BuildingBlock: OJICUG_clean_linker_0, # of connection points: 2
#     Edge 18, Type (0, 1), BuildingBlock: OJICUG_clean_linker_0, # of connection points: 2
#     Edge 19, Type (0, 1), BuildingBlock: OJICUG_clean_linker_0, # of connection points: 2
#     Edge 20, Type (0, 1), BuildingBlock: OJICUG_clean_linker_0, # of connection points: 2
#     Edge 21, Type (0, 1), BuildingBlock: OJICUG_clean_linker_0, # of connection points: 2
#     Edge 22, Type (0, 1), BuildingBlock: OJICUG_clean_linker_0, # of connection points: 2
#     Edge 23, Type (0, 1), BuildingBlock: OJICUG_clean_linker_0, # of connection points: 2
#     Edge 24, Type (0, 1), BuildingBlock: OJICUG_clean_linker_0, # of connection points: 2
#     Edge 25, Type (0, 1), BuildingBlock: OJICUG_clean_linker_0, # of connection points: 2
#     Edge 26, Type (0, 1), BuildingBlock: OJICUG_clean_linker_0, # of connection points: 2
#     Edge 27, Type (0, 1), BuildingBlock: OJICUG_clean_linker_0, # of connection points: 2
#     Edge 28, Type (0, 1), BuildingBlock: OJICUG_clean_linker_0, # of connection points: 2
#     Edge 29, Type (0, 1), BuildingBlock: OJICUG_clean_linker_0, # of connection points: 2
#     Edge 30, Type (0, 1), BuildingBlock: OJICUG_clean_linker_0, # of connection points: 2
#     Edge 31, Type (0, 1), BuildingBlock: OJICUG_clean_linker_0, # of connection points: 2
#     Edge 32, Type (0, 1), BuildingBlock: OJICUG_clean_linker_0, # of connection points: 2
#     Edge 33, Type (0, 1), BuildingBlock: OJICUG_clean_linker_0, # of connection points: 2
#     Edge 34, Type (0, 1), BuildingBlock: OJICUG_clean_linker_0, # of connection points: 2
#     Edge 35, Type (0, 1), BuildingBlock: OJICUG_clean_linker_0, # of connection points: 2
# Relax obj value: 0.238
# Max RMSD: 0.188
# Mean RMSD: 0.156
data_MOF--net-dag--node1-IZENUY_clean_sbu_0--node2-BELTOD_clean_linker_0--edge1-OJICUG_clean_linker_0
_symmetry_space_group_name_H-M    P1
_symmetry_Int_Tables_number       1
_symmetry_cell_setting            triclinic
loop_
_symmetry_equiv_pos_as_xyz
'x, y, z'
_cell_length_a     32.625591
_cell_length_b     35.061315
_cell_length_c     29.237407
_cell_angle_alpha  95.24258
_cell_angle_beta   89.768527
_cell_angle_gamma 90.441291
loop_
_atom_site_label
_atom_site_type_symbol
_atom_site_fract_x
_atom_site_fract_y
_atom_site_fract_z
_atom_type_partial_charge
Fe0 Fe 0.205 0.8732 0.0932 0.0
Fe1 Fe 0.12931 0.89896 0.04375 0.0
O2 O 0.15768 0.86195 0.06537 0.0
Fe3 Fe 0.13904 0.81416 0.05955 0.0
O4 O 0.1401 0.81108 0.12095 0.0
O5 O 0.20193 0.83475 0.13145 0.0
O6 O 0.17955 0.90398 0.13784 0.0
C7 C 0.15739 0.93193 0.12961 0.0
C8 C 0.22424 0.80794 0.03907 0.0
O9 O 0.14551 0.93568 0.08905 0.0
C10 C 0.11737 0.83666 0.97596 0.0
O11 O 0.21734 0.91397 0.06009 0.0
O12 O 0.17099 0.91017 0.00597 0.0
O13 O 0.19051 0.79318 0.05089 0.0
O14 O 0.23245 0.84287 0.0501 0.0
C15 C 0.06813 0.85862 0.08294 0.0
O16 O 0.10737 0.86901 0.99525 0.0
O17 O 0.13633 0.81304 0.9977 0.0
C18 C 0.20547 0.92182 0.02086 0.0
O19 O 0.08622 0.89019 0.08011 0.0
O20 O 0.08446 0.82736 0.06708 0.0
C21 C 0.1716 0.81632 0.14537 0.0
Fe22 Fe 0.69833 0.61917 0.46082 0.0
Fe23 Fe 0.63034 0.67403 0.49885 0.0
O24 O 0.65051 0.62713 0.48878 0.0
Fe25 Fe 0.62298 0.58719 0.50582 0.0
O26 O 0.66389 0.57604 0.54416 0.0
O27 O 0.71108 0.5769 0.49069 0.0
O28 O 0.7242 0.64762 0.50637 0.0
C29 C 0.71514 0.68144 0.52142 0.0
C30 C 0.65344 0.56058 0.41917 0.0
O31 O 0.68101 0.69624 0.51203 0.0
C32 C 0.5631 0.6277 0.46668 0.0
O33 O 0.69551 0.65991 0.42648 0.0
O34 O 0.63367 0.68234 0.43851 0.0
O35 O 0.6423 0.55366 0.45907 0.0
O36 O 0.67403 0.59037 0.41337 0.0
C37 C 0.60598 0.64411 0.57821 0.0
O38 O 0.57681 0.65867 0.48722 0.0
O39 O 0.5814 0.59635 0.46824 0.0
C40 C 0.66561 0.6791 0.41426 0.0
O41 O 0.62474 0.67048 0.56021 0.0
O42 O 0.59778 0.61279 0.55523 0.0
C43 C 0.69946 0.5677 0.52963 0.0
Fe44 Fe 0.86162 0.20063 0.01745 0.0
Fe45 Fe 0.88128 0.11543 0.02152 0.0
O46 O 0.84853 0.15156 0.00526 0.0
Fe47 Fe 0.80206 0.13804 0.97676 0.0
O48 O 0.81896 0.16022 0.92664 0.0
O49 O 0.83907 0.21482 0.96381 0.0
O50 O 0.9101 0.19539 0.98656 0.0
C51 C 0.93744 0.17161 0.99437 0.0
C52 C 0.77899 0.20307 0.03419 0.0
O53 O 0.92876 0.1423 0.01474 0.0
C54 C 0.80288 0.08953 0.04411 0.0
O55 O 0.88638 0.19426 0.07294 0.0
O56 O 0.87725 0.13298 0.0812 0.0
O57 O 0.77374 0.1807 -0.00164 0.0
O58 O 0.8145 0.21003 0.0497 0.0
C59 C 0.85731 0.08219 0.93844 0.0
O60 O 0.83957 0.08225 0.03232 0.0
O61 O 0.78311 0.11514 0.02625 0.0
C62 C 0.88487 0.16662 0.09811 0.0
O63 O 0.88724 0.09528 0.96233 0.0
O64 O 0.82126 0.09269 0.94913 0.0
C65 C 0.83032 0.19473 0.92667 0.0
Fe66 Fe 0.3978 0.37937 0.55239 0.0
Fe67 Fe 0.3131 0.36088 0.59072 0.0
O68 O 0.36059 0.34542 0.56606 0.0
Fe69 Fe 0.37071 0.29583 0.55456 0.0
O70 O 0.4263 0.3004 0.563 0.0
O71 O 0.43541 0.36039 0.58967 0.0
O72 O 0.3849 0.4145 0.6004 0.0
C73 C 0.36608 0.41094 0.63773 0.0
C74 C 0.39987 0.32391 0.47639 0.0
O75 O 0.33812 0.38614 0.64007 0.0
C76 C 0.28696 0.30123 0.53164 0.0
O77 O 0.36286 0.40007 0.51392 0.0
O78 O 0.31008 0.40464 0.56083 0.0
O79 O 0.37591 0.30031 0.49315 0.0
O80 O 0.4171 0.35044 0.50177 0.0
C81 C 0.33413 0.29719 0.6386 0.0
O82 O 0.28485 0.33672 0.54301 0.0
O83 O 0.31701 0.28199 0.54387 0.0
C84 C 0.32753 0.4124 0.52409 0.0
O85 O 0.30767 0.31984 0.62495 0.0
O86 O 0.36597 0.28872 0.6152 0.0
C87 C 0.44777 0.32627 0.58461 0.0
P88 P 0.05091 0.13823 0.37865 0.0
H89 H 0.07227 0.05729 0.38309 0.0
H90 H 0.10031 0.00885 0.32611 0.0
H91 H 0.11397 0.09478 0.23007 0.0
H92 H 0.08468 0.14224 0.28593 0.0
H93 H 0.06763 0.16499 0.47431 0.0
H94 H 0.1215 0.20585 0.51087 0.0
H95 H 0.16934 0.22673 0.37761 0.0
H96 H 0.11665 0.18475 0.34101 0.0
H97 H 0.96329 0.12325 0.36955 0.0
H98 H 0.05126 0.20129 0.31803 0.0
O99 O 0.02867 0.11524 0.41986 0.0
H100 H 0.9141 0.13961 0.31239 0.0
H101 H 0.00384 0.21518 0.25824 0.0
C102 C 0.0758 0.10343 0.33876 0.0
C103 C 0.08145 0.06572 0.34983 0.0
C104 C 0.09779 0.03807 0.31732 0.0
C105 C 0.10893 0.04782 0.27329 0.0
C106 C 0.10488 0.08606 0.26325 0.0
C107 C 0.08833 0.11345 0.29552 0.0
C108 C 0.08793 0.1717 0.40481 0.0
C109 C 0.08945 0.17847 0.45279 0.0
C110 C 0.12014 0.20183 0.47372 0.0
C111 C 0.14924 0.21938 0.44689 0.0
C112 C 0.14686 0.21377 0.39888 0.0
C113 C 0.11667 0.18975 0.37799 0.0
C114 C 0.01134 0.16048 0.34771 0.0
C115 C 0.97182 0.14456 0.34662 0.0
C116 C 0.94383 0.15361 0.31338 0.0
C117 C 0.95541 0.17765 0.27944 0.0
C118 C 0.99365 0.19648 0.28355 0.0
C119 C 0.02119 0.1882 0.31772 0.0
P120 P 0.44726 0.63158 0.87691 0.0
H121 H 0.53553 0.6285 0.86254 0.0
H122 H 0.57772 0.63771 0.79523 0.0
H123 H 0.47308 0.68209 0.72816 0.0
H124 H 0.43056 0.67215 0.79556 0.0
H125 H 0.37545 0.61726 0.93139 0.0
H126 H 0.32318 0.65866 0.96866 0.0
H127 H 0.3784 0.75607 0.91082 0.0
H128 H 0.4317 0.71446 0.87531 0.0
H129 H 0.48187 0.55573 0.85833 0.0
H130 H 0.37004 0.61301 0.828 0.0
O131 O 0.47553 0.62058 0.92122 0.0
H132 H 0.46114 0.50012 0.80671 0.0
H133 H 0.34887 0.55716 0.77684 0.0
C134 C 0.48006 0.65049 0.83457 0.0
C135 C 0.5219 0.64159 0.83417 0.0
C136 C 0.54598 0.6466 0.79555 0.0
C137 C 0.52865 0.66064 0.7566 0.0
C138 C 0.48732 0.67176 0.75804 0.0
C139 C 0.46306 0.66625 0.79658 0.0
C140 C 0.40686 0.66259 0.89969 0.0
C141 C 0.37599 0.64748 0.92631 0.0
C142 C 0.34596 0.67124 0.94747 0.0
C143 C 0.34622 0.7108 0.94258 0.0
C144 C 0.37735 0.72584 0.91571 0.0
C145 C 0.40761 0.70198 0.89481 0.0
C146 C 0.42706 0.58809 0.84787 0.0
C147 C 0.45225 0.55583 0.84174 0.0
C148 C 0.44054 0.52422 0.81203 0.0
C149 C 0.40337 0.52436 0.78795 0.0
C150 C 0.37737 0.55609 0.79555 0.0
C151 C 0.38941 0.58797 0.82486 0.0
P152 P 0.788 0.89115 0.2503 0.0
H153 H 0.77576 0.97165 0.28235 0.0
H154 H 0.76182 0.02576 0.23846 0.0
H155 H 0.72646 0.9481 0.12205 0.0
H156 H 0.73934 0.89367 0.16679 0.0
H157 H 0.72395 0.88689 0.31752 0.0
H158 H 0.6854 0.8336 0.34426 0.0
H159 H 0.73703 0.75787 0.23417 0.0
H160 H 0.77622 0.81175 0.20803 0.0
H161 H 0.82473 0.92509 0.17098 0.0
H162 H 0.84873 0.82965 0.25014 0.0
O163 O 0.8079 0.90809 0.30068 0.0
H164 H 0.88752 0.91294 0.12848 0.0
H165 H 0.91349 0.8182 0.20813 0.0
C166 C 0.75968 0.92872 0.22724 0.0
C167 C 0.76302 0.96612 0.24825 0.0
C168 C 0.75483 -0.00288 0.2232 0.0
C169 C 0.74407 0.99097 0.17661 0.0
C170 C 0.73469 0.95359 0.15792 0.0
C171 C 0.74227 0.92247 0.18338 0.0
C172 C 0.75375 0.85292 0.26178 0.0
C173 C 0.72636 0.85893 0.29861 0.0
C174 C 0.70397 0.82842 0.31358 0.0
C175 C 0.70847 0.79126 0.29172 0.0
C176 C 0.73348 0.78602 0.25227 0.0
C177 C 0.75596 0.81674 0.23732 0.0
C178 C 0.83103 0.87761 0.2132 0.0
C179 C 0.84273 0.90076 0.17861 0.0
C180 C 0.8793 0.89414 0.15453 0.0
C181 C 0.90578 0.86483 0.16516 0.0
C182 C 0.89356 0.84077 0.19879 0.0
C183 C 0.85657 0.84731 0.22282 0.0
P184 P 0.75998 0.30861 0.62389 0.0
H185 H 0.81831 0.35595 0.57671 0.0
H186 H 0.81778 0.42385 0.56442 0.0
H187 H 0.71439 0.43994 0.65747 0.0
H188 H 0.71808 0.37361 0.67257 0.0
H189 H 0.74896 0.23518 0.65949 0.0
H190 H 0.7705 0.20952 0.73 0.0
H191 H 0.83634 0.31487 0.76968 0.0
H192 H 0.81319 0.34089 0.69935 0.0
H193 H 0.70482 0.29451 0.54564 0.0
H194 H 0.69531 0.30705 0.69344 0.0
O195 O 0.78323 0.28612 0.57828 0.0
H196 H 0.62992 0.29407 0.53994 0.0
H197 H 0.62053 0.30739 0.68786 0.0
C198 C 0.76711 0.35949 0.62404 0.0
C199 C 0.79636 0.3745 0.59535 0.0
C200 C 0.79567 0.41335 0.58804 0.0
C201 C 0.76496 0.43748 0.60841 0.0
C202 C 0.73852 0.42277 0.64082 0.0
C203 C 0.74008 0.38429 0.64902 0.0
C204 C 0.77902 0.28999 0.67467 0.0
C205 C 0.76813 0.25269 0.68334 0.0
C206 C 0.78082 0.23796 0.72353 0.0
C207 C 0.80529 0.26011 0.75552 0.0
C208 C 0.81709 0.29728 0.74604 0.0
C209 C 0.80403 0.31212 0.70579 0.0
C210 C 0.70558 0.30015 0.6199 0.0
C211 C 0.68664 0.29616 0.57682 0.0
C212 C 0.64392 0.29602 0.57362 0.0
C213 C 0.61961 0.30076 0.61351 0.0
C214 C 0.63865 0.30378 0.65665 0.0
C215 C 0.68132 0.30324 0.6598 0.0
P216 P 0.53356 0.36098 0.1732 0.0
H217 H 0.52207 0.44437 0.19088 0.0
H218 H 0.55497 0.49246 0.24546 0.0
H219 H 0.63431 0.40514 0.29025 0.0
H220 H 0.60117 0.35752 0.23655 0.0
H221 H 0.54261 0.27713 0.15264 0.0
H222 H 0.60036 0.23842 0.12138 0.0
H223 H 0.66771 0.34187 0.09974 0.0
H224 H 0.61038 0.38014 0.13107 0.0
H225 H 0.44723 0.37091 0.19588 0.0
H226 H 0.54783 0.30345 0.23829 0.0
O227 O 0.5063 0.38041 0.13323 0.0
H228 H 0.40755 0.35483 0.2626 0.0
H229 H 0.50795 0.28691 0.30481 0.0
C230 C 0.55949 0.39755 0.20948 0.0
C231 C 0.54692 0.43581 0.21205 0.0
C232 C 0.56586 0.46323 0.243 0.0
C233 C 0.59719 0.45248 0.27204 0.0
C234 C 0.61006 0.4142 0.26856 0.0
C235 C 0.59122 0.38699 0.23777 0.0
C236 C 0.57283 0.33144 0.14548 0.0
C237 C 0.56983 0.29139 0.14121 0.0
C238 C 0.60273 0.26935 0.12319 0.0
C239 C 0.63883 0.28722 0.10909 0.0
C240 C 0.64074 0.32735 0.11148 0.0
C241 C 0.60788 0.34921 0.12912 0.0
C242 C 0.50023 0.33781 0.21152 0.0
C243 C 0.46011 0.35121 0.21829 0.0
C244 C 0.43749 0.34214 0.25653 0.0
C245 C 0.45471 0.31959 0.28872 0.0
C246 C 0.49371 0.3038 0.28009 0.0
C247 C 0.51651 0.31323 0.24201 0.0
P248 P 0.24851 0.19387 0.94479 0.0
H249 H 0.31271 0.14323 0.97405 0.0
H250 H 0.31374 0.07418 0.98134 0.0
H251 H 0.1921 0.06384 0.92282 0.0
H252 H 0.19228 0.13179 0.91389 0.0
H253 H 0.30788 0.25203 0.921 0.0
H254 H 0.3317 0.27198 0.8472 0.0
H255 H 0.25365 0.18618 0.77608 0.0
H256 H 0.23047 0.16583 0.84982 0.0
H257 H 0.19895 0.19318 0.02673 0.0
H258 H 0.1808 0.21862 0.88669 0.0
O259 O 0.27691 0.21462 0.98758 0.0
H260 H 0.12491 0.19297 0.03886 0.0
H261 H 0.10659 0.21762 0.8984 0.0
C262 C 0.25196 0.14272 0.94471 0.0
C263 C 0.28661 0.12584 0.96223 0.0
C264 C 0.28708 0.08639 0.96645 0.0
C265 C 0.25281 0.06334 0.9532 0.0
C266 C 0.21929 0.08032 0.93295 0.0
C267 C 0.21907 0.11951 0.92842 0.0
C268 C 0.26722 0.20763 0.89079 0.0
C269 C 0.2962 0.23724 0.88956 0.0
C270 C 0.31 0.24845 0.84747 0.0
C271 C 0.29448 0.23053 0.80617 0.0
C272 C 0.26596 0.20045 0.80755 0.0
C273 C 0.25271 0.18888 0.84958 0.0
C274 C 0.19553 0.20584 0.95588 0.0
C275 C 0.17911 0.19982 -0.00103 0.0
C276 C 0.13676 0.1993 0.0057 0.0
C277 C 0.10997 0.20461 0.96931 0.0
C278 C 0.12649 0.21348 0.92706 0.0
C279 C 0.16903 0.21392 0.92033 0.0
P280 P 0.28517 0.59571 0.29644 0.0
H281 H 0.24994 0.51859 0.28679 0.0
H282 H 0.24613 0.4721 0.3437 0.0
H283 H 0.2659 0.56276 0.45174 0.0
H284 H 0.26869 0.60937 0.39458 0.0
H285 H 0.31353 0.66052 0.25178 0.0
H286 H 0.28072 0.71834 0.23112 0.0
H287 H 0.16816 0.68436 0.29508 0.0
H288 H 0.20192 0.62595 0.31643 0.0
H289 H 0.35566 0.547 0.30345 0.0
H290 H 0.32342 0.66394 0.34602 0.0
O291 O 0.29026 0.57007 0.2458 0.0
H292 H 0.42076 0.55605 0.34332 0.0
H293 H 0.3898 0.6744 0.38265 0.0
C294 C 0.26041 0.56726 0.33652 0.0
C295 C 0.25134 0.52882 0.32283 0.0
C296 C 0.24944 0.50219 0.3554 0.0
C297 C 0.257 0.51372 0.40192 0.0
C298 C 0.2601 0.55303 0.41611 0.0
C299 C 0.26166 0.57973 0.38344 0.0
C300 C 0.2604 0.63954 0.28646 0.0
C301 C 0.2821 0.66591 0.26243 0.0
C302 C 0.26335 0.6991 0.25092 0.0
C303 C 0.22209 0.70625 0.26232 0.0
C304 C 0.20015 0.67971 0.28643 0.0
C305 C 0.21933 0.64646 0.29859 0.0
C306 C 0.33536 0.60512 0.3202 0.0
C307 C 0.36326 0.57504 0.32007 0.0
C308 C 0.40063 0.5804 0.34283 0.0
C309 C 0.4111 0.61621 0.36583 0.0
C310 C 0.38289 0.64636 0.36569 0.0
C311 C 0.34509 0.64064 0.34381 0.0
P312 P 0.87718 0.80509 0.79623 0.0
H313 H 0.82465 0.86682 0.76667 0.0
H314 H 0.82382 0.93581 0.78798 0.0
H315 H 0.92596 0.92399 0.87939 0.0
H316 H 0.92792 0.85611 0.8562 0.0
H317 H 0.84058 0.73203 0.76736 0.0
H318 H 0.80802 0.70578 0.69634 0.0
H319 H 0.83477 0.81044 0.63454 0.0
H320 H 0.86911 0.83628 0.7057 0.0
H321 H 0.91679 0.7519 0.85316 0.0
H322 H 0.95197 0.82532 0.74896 0.0
O323 O 0.84949 0.78767 0.83782 0.0
H324 H 0.98728 0.75074 0.87917 0.0
H325 H 0.02317 0.82435 0.77496 0.0
C326 C 0.87754 0.85643 0.8081 0.0
C327 C 0.84779 0.87934 0.78995 0.0
C328 C 0.84703 0.91879 0.80271 0.0
C329 C 0.87517 0.93575 0.83507 0.0
C330 C 0.90469 0.91244 0.85326 0.0
C331 C 0.9057 0.87329 0.8401 0.0
C332 C 0.85578 0.78657 0.74227 0.0
C333 C 0.83962 0.74936 0.73856 0.0
C334 C 0.82125 0.73431 0.69794 0.0
C335 C 0.81866 0.75632 0.66033 0.0
C336 C 0.83604 0.79323 0.66344 0.0
C337 C 0.85532 0.80802 0.70404 0.0
C338 C 0.92919 0.78949 0.79998 0.0
C339 C 0.94003 0.76636 0.83448 0.0
C340 C 0.98058 0.76556 0.84917 0.0
C341 C 0.0106 0.78821 0.82975 0.0
C342 C 0.00051 0.80706 0.79092 0.0
C343 C 0.95992 0.8075 0.77593 0.0
C344 C 0.12005 0.99153 0.15716 0.0
C345 C 0.14646 0.9618 0.16669 0.0
H346 H 0.08702 0.04113 0.18317 0.0
C347 C 0.16075 0.96048 0.21184 0.0
H348 H 0.108 0.99325 0.12295 0.0
C349 C 0.14884 0.98842 0.24663 0.0
C350 C 0.12242 0.01814 0.23689 0.0
H351 H 0.181 0.93786 0.22036 0.0
H352 H 0.16056 0.98691 0.28102 0.0
C353 C 0.10814 0.01921 0.19175 0.0
C354 C 0.57441 0.68591 0.64327 0.0
C355 C 0.59002 0.65026 0.62563 0.0
H356 H 0.54184 0.71711 0.69871 0.0
C357 C 0.58746 0.61913 0.6525 0.0
H358 H 0.57575 0.71028 0.62303 0.0
C359 C 0.56896 0.62321 0.69573 0.0
C360 C 0.55183 0.65833 0.71274 0.0
H361 H 0.5993 0.59136 0.63973 0.0
H362 H 0.56663 0.59841 0.71518 0.0
C363 C 0.5549 0.68978 0.6863 0.0
C364 C 0.81032 0.05717 0.11471 0.0
C365 C 0.78464 0.06759 0.0797 0.0
H366 H 0.81707 0.02568 0.17294 0.0
C367 C 0.74351 0.05529 0.0786 0.0
H368 H 0.84214 0.06614 0.11628 0.0
C369 C 0.72909 0.0311 0.11103 0.0
C370 C 0.75536 0.02034 0.14559 0.0
H371 H 0.72325 0.06292 0.05169 0.0
H372 H 0.69792 0.02025 0.10868 0.0
C373 C 0.79581 0.03421 0.14743 0.0
C374 C 0.50991 0.28502 0.57481 0.0
C375 C 0.49065 0.31781 0.59607 0.0
H376 H 0.56602 0.2541 0.56349 0.0
C377 C 0.5136 0.34354 0.62565 0.0
H378 H 0.49313 0.26466 0.55173 0.0
C379 C 0.55524 0.33713 0.63274 0.0
C380 C 0.57476 0.30522 0.60985 0.0
H381 H 0.4996 0.36898 0.64258 0.0
H382 H 0.57256 0.3579 0.65472 0.0
C383 C 0.55164 0.27899 0.5813 0.0
C384 C 0.63211 0.49501 0.38868 0.0
C385 C 0.64301 0.53254 0.3802 0.0
H386 H 0.6089 0.44065 0.36129 0.0
C387 C 0.64031 0.54344 0.33524 0.0
H388 H 0.63378 0.48575 0.42298 0.0
C389 C 0.62571 0.51744 0.29967 0.0
C390 C 0.61422 0.48007 0.30854 0.0
H391 H 0.64815 0.57234 0.32789 0.0
H392 H 0.62323 0.52653 0.26538 0.0
C393 C 0.61801 0.46908 0.35329 0.0
C394 C 0.01148 0.15524 -0.00048 0.0
C395 C 0.98125 0.1799 0.98521 0.0
H396 H 0.07527 0.14378 0.0056 0.0
C397 C 0.99368 0.21276 0.96435 0.0
H398 H 0.00326 0.12956 0.01549 0.0
C399 C 0.03549 0.22094 0.95868 0.0
C400 C 0.06549 0.19664 0.97428 0.0
H401 H 0.97119 0.23233 0.95289 0.0
H402 H 0.04437 0.24657 0.94296 0.0
C403 C 0.05293 0.16355 0.99424 0.0
C404 C 0.27593 0.46256 0.50878 0.0
C405 C 0.30708 0.43707 0.49303 0.0
H406 H 0.23526 0.50716 0.49205 0.0
C407 C 0.31896 0.43511 0.44673 0.0
H408 H 0.26609 0.46451 0.54434 0.0
C409 C 0.30098 0.45878 0.41698 0.0
C410 C 0.27084 0.48525 0.43281 0.0
H411 H 0.34246 0.41542 0.43343 0.0
H412 H 0.312 0.45741 0.38186 0.0
C413 C 0.25824 0.48683 0.47896 0.0
C414 C 0.09466 0.78453 0.91699 0.0
C415 C 0.09943 0.82381 0.93081 0.0
H416 H 0.06292 0.74207 0.87275 0.0
C417 C 0.08187 0.85065 0.90411 0.0
H418 H 0.1082 0.76311 0.93659 0.0
C419 C 0.05637 0.83857 0.86739 0.0
C420 C 0.04773 0.79941 0.85687 0.0
H421 H 0.08553 0.8811 0.91348 0.0
H422 H 0.04042 0.86015 0.85018 0.0
C423 C 0.06879 0.77243 0.88042 0.0
C424 C 0.82812 0.02795 0.88727 0.0
C425 C 0.86275 0.04829 0.90502 0.0
H426 H 0.80474 0.97646 0.85223 0.0
C427 C 0.90188 0.03375 0.89393 0.0
H428 H 0.79745 0.03842 0.8948 0.0
C429 C 0.9061 -0.00172 0.86835 0.0
C430 C 0.87128 0.97645 0.8539 0.0
H431 H 0.92918 0.049 0.90647 0.0
H432 H 0.93666 0.98734 0.8614 0.0
C433 C 0.83231 0.99238 0.86234 0.0
C434 C 0.41605 0.28575 0.40127 0.0
C435 C 0.40949 0.32107 0.4269 0.0
H436 H 0.43645 0.25741 0.33679 0.0
C437 C 0.41488 0.35507 0.40565 0.0
H438 H 0.41231 0.25918 0.4171 0.0
C439 C 0.42746 0.35405 0.36006 0.0
C440 C 0.43588 0.31902 0.3348 0.0
H441 H 0.4101 0.38268 0.42467 0.0
H442 H 0.43246 0.3809 0.34515 0.0
C443 C 0.42986 0.28475 0.3556 0.0
C444 C 0.25217 0.97876 0.02456 0.0
C445 C 0.22593 0.95317 -0.00121 0.0
H446 H 0.28073 0.03389 0.03075 0.0
C447 C 0.21493 0.96113 0.95427 0.0
H448 H 0.26138 0.97343 0.05895 0.0
C449 C 0.22683 -0.00436 0.93758 0.0
C450 C 0.24936 0.02314 0.96538 0.0
H451 H 0.19531 0.94163 0.93328 0.0
H452 H 0.21645 0.00161 0.90385 0.0
C453 C 0.26352 0.0135 0.00819 0.0
C454 C 0.52208 0.60383 0.39892 0.0
C455 C 0.52492 0.62741 0.44021 0.0
H456 H 0.48498 0.58333 0.34201 0.0
C457 C 0.49097 0.64909 0.45602 0.0
H458 H 0.5482 0.5873 0.38568 0.0
C459 C 0.45402 0.64582 0.43177 0.0
C460 C 0.45079 0.62155 0.39068 0.0
H461 H 0.49255 0.66735 0.48793 0.0
H462 H 0.42777 0.66147 0.44604 0.0
C463 C 0.48568 0.60133 0.37412 0.0
C464 C 0.41438 0.45596 0.68118 0.0
C465 C 0.37561 0.43823 0.67789 0.0
H466 H 0.45347 0.49669 0.71881 0.0
C467 C 0.34628 0.44777 0.71233 0.0
H468 H 0.4377 0.449 0.65533 0.0
C469 C 0.35523 0.47554 0.74857 0.0
C470 C 0.39395 0.49345 0.75144 0.0
H471 H 0.31613 0.43458 0.7106 0.0
H472 H 0.33194 0.4831 0.77425 0.0
C473 C 0.42353 0.48304 0.7177 0.0
C474 C 0.00889 0.89434 0.11969 0.0
C475 C 0.02644 0.8591 0.10358 0.0
H476 H 0.95795 0.92352 0.1521 0.0
C477 C 0.00403 0.82519 0.10832 0.0
H478 H 0.02523 0.92109 0.11717 0.0
C479 C 0.96485 0.8267 0.12852 0.0
C480 C 0.94734 0.86213 0.14401 0.0
H481 H 0.01672 0.79757 0.0965 0.0
H482 H 0.94808 0.80025 0.13146 0.0
C483 C 0.97004 0.8958 0.13959 0.0
C484 C 0.7188 0.53553 0.59923 0.0
C485 C 0.72284 0.53887 0.552 0.0
H486 H 0.73163 0.50236 0.65514 0.0
C487 C 0.74639 0.51199 0.52514 0.0
H488 H 0.70133 0.55634 0.6208 0.0
C489 C 0.76244 0.48034 0.54423 0.0
C490 C 0.75617 0.47528 0.591 0.0
H491 H 0.74998 0.51384 0.48855 0.0
H492 H 0.77719 0.45867 0.52126 0.0
C493 C 0.73593 0.50439 0.61872 0.0
C494 C 0.8959 0.14086 0.17373 0.0
C495 C 0.89744 0.17212 0.14693 0.0
H496 H 0.91318 0.11785 0.23541 0.0
C497 C 0.9138 0.20711 0.16638 0.0
H498 H 0.88333 0.11352 0.16018 0.0
C499 C 0.9305 0.20991 0.21071 0.0
C500 C 0.93122 0.17776 0.23631 0.0
H501 H 0.91511 0.23187 0.14681 0.0
H502 H 0.94395 0.2369 0.22429 0.0
C503 C 0.91269 0.14355 0.21754 0.0
C504 C 0.15331 0.76032 0.18885 0.0
C505 C 0.17719 0.79342 0.18474 0.0
H506 H 0.14901 0.70631 0.21733 0.0
C507 C 0.2105 0.80119 0.21447 0.0
H508 H 0.12719 0.75371 0.16669 0.0
C509 C 0.22259 0.77429 0.24388 0.0
C510 C 0.20179 0.73905 0.24375 0.0
H511 H 0.22893 0.82687 0.21277 0.0
H512 H 0.25011 0.77977 0.26411 0.0
C513 C 0.16563 0.73322 0.21808 0.0
C514 C 0.78064 0.6856 0.56539 0.0
C515 C 0.74486 0.70349 0.55161 0.0
H516 H 0.83228 0.68872 0.61046 0.0
C517 C 0.73657 0.74118 0.56985 0.0
H518 H 0.78821 0.65671 0.55187 0.0
C519 C 0.76232 0.75965 0.60322 0.0
C520 C 0.7964 0.74053 0.619 0.0
H521 H 0.7094 0.75582 0.55978 0.0
H522 H 0.75429 0.78791 0.61856 0.0
C523 C 0.80599 0.70386 0.5989 0.0
C524 C 0.7484 0.25472 0.08856 0.0
C525 C 0.74323 0.22364 0.0552 0.0
H526 H 0.71925 0.29908 0.13194 0.0
C527 C 0.7033 0.21262 0.04119 0.0
H528 H 0.7787 0.2638 0.10024 0.0
C529 C 0.66934 0.23271 0.05943 0.0
C530 C 0.67458 0.26441 0.09179 0.0
H531 H 0.69823 0.1886 0.01577 0.0
H532 H 0.63904 0.22406 0.04729 0.0
C533 C 0.7144 0.27501 0.10653 0.0
C534 C 0.28379 0.27168 0.69229 0.0
C535 C 0.32485 0.27766 0.67997 0.0
H536 H 0.24226 0.2516 0.74167 0.0
C537 C 0.35625 0.26642 0.70847 0.0
H538 H 0.25897 0.27988 0.67079 0.0
C539 C 0.34657 0.25069 0.74954 0.0
C540 C 0.30543 0.24518 0.76193 0.0
H541 H 0.38812 0.2709 0.69974 0.0
H542 H 0.37112 0.24297 0.77168 0.0
C543 C 0.2742 0.25531 0.73265 0.0
C544 C 0.70724 0.69911 0.34867 0.0
C545 C 0.67155 0.70319 0.37573 0.0
H546 H 0.74683 0.72365 0.30094 0.0
C547 C 0.64439 0.733 0.36867 0.0
H548 H 0.72856 0.67613 0.35271 0.0
C549 C 0.65469 0.76017 0.33828 0.0
C550 C 0.6923 0.75801 0.31444 0.0
H551 H 0.61636 0.73666 0.38851 0.0
H552 H 0.63419 0.78395 0.33524 0.0
C553 C 0.71754 0.72622 0.31846 0.0
C554 C 0.83147 0.18973 0.8413 0.0
C555 C 0.82857 0.21266 0.8831 0.0
H556 H 0.82808 0.18702 0.76821 0.0
C557 C 0.8219 0.25214 0.88261 0.0
H558 H 0.83736 0.15931 0.84067 0.0
C559 C 0.81579 0.26797 0.841 0.0
C560 C 0.81679 0.24464 0.79922 0.0
H561 H 0.81957 0.27046 0.9144 0.0
H562 H 0.8085 0.2981 0.84179 0.0
C563 C 0.82598 0.20559 0.79982 0.0
C564 C 0.22509 0.29908 0.48097 0.0
C565 C 0.25145 0.28084 0.50984 0.0
H566 H 0.172 0.2934 0.43753 0.0
C567 C 0.24357 0.24263 0.51819 0.0
H568 H 0.23062 0.32849 0.47396 0.0
C569 C 0.20982 0.22306 0.49831 0.0
C570 C 0.18383 0.24105 0.46898 0.0
H571 H 0.26322 0.22796 0.54057 0.0
H572 H 0.20438 0.19361 0.50525 0.0
C573 C 0.19176 0.27911 0.46016 0.0
C574 C 0.29588 0.79646 0.0093 0.0
C575 C 0.25542 0.78329 0.01425 0.0
H576 H 0.35629 0.78388 0.98382 0.0
C577 C 0.24486 0.74644 0.99466 0.0
H578 H 0.30511 0.82468 0.02402 0.0
C579 C 0.27406 0.72326 0.97087 0.0
C580 C 0.31473 0.73617 0.9664 0.0
H581 H 0.21386 0.73555 0.99731 0.0
H582 H 0.26459 0.69528 0.95566 0.0
C583 C 0.3252 0.77313 0.98587 0.0
loop_
_geom_bond_atom_site_label_1
_geom_bond_atom_site_label_2
_geom_bond_distance
_geom_bond_site_symmetry_2
_ccdc_geom_bond_type
Fe0 O2 1.918 . S
Fe0 O5 1.997 . S
Fe0 O6 2.002 . S
Fe0 O11 1.976 . S
Fe0 O14 1.996 . S
Fe1 O2 1.918 . S
Fe1 O9 1.997 . S
Fe1 O12 1.996 . S
Fe1 O16 1.976 1_554 S
Fe1 O19 2.002 . S
O2 Fe0 1.918 . S
O2 Fe1 1.918 . S
O2 Fe3 1.918 . S
Fe3 O2 1.918 . S
Fe3 O4 2.002 . S
Fe3 O13 1.976 . S
Fe3 O17 1.996 1_554 S
Fe3 O20 1.997 . S
O4 Fe3 2.002 . S
O4 C21 1.295 . S
O5 Fe0 1.997 . S
O5 C21 1.235 . S
O6 Fe0 2.002 . S
O6 C7 1.295 . S
C7 O6 1.295 . S
C7 O9 1.235 . S
C8 O13 1.287 . S
C8 O14 1.255 . S
O9 Fe1 1.997 . S
O9 C7 1.235 . S
C10 O16 1.287 . S
C10 O17 1.255 . S
O11 Fe0 1.976 . S
O11 C18 1.287 . S
O12 Fe1 1.996 . S
O12 C18 1.255 . S
O13 Fe3 1.976 . S
O13 C8 1.287 . S
O14 Fe0 1.996 . S
O14 C8 1.255 . S
C15 O19 1.295 . S
C15 O20 1.235 . S
O16 Fe1 1.976 1_556 S
O16 C10 1.287 . S
O17 Fe3 1.996 1_556 S
O17 C10 1.255 . S
C18 O11 1.287 . S
C18 O12 1.255 . S
O19 Fe1 2.002 . S
O19 C15 1.295 . S
O20 Fe3 1.997 . S
O20 C15 1.235 . S
C21 O4 1.295 . S
C21 O5 1.235 . S
Fe22 O24 1.918 . S
Fe22 O27 1.997 . S
Fe22 O28 2.002 . S
Fe22 O33 1.976 . S
Fe22 O36 1.996 . S
Fe23 O24 1.918 . S
Fe23 O31 1.997 . S
Fe23 O34 1.996 . S
Fe23 O38 1.976 . S
Fe23 O41 2.002 . S
O24 Fe22 1.918 . S
O24 Fe23 1.918 . S
O24 Fe25 1.918 . S
Fe25 O24 1.918 . S
Fe25 O26 2.002 . S
Fe25 O35 1.976 . S
Fe25 O39 1.996 . S
Fe25 O42 1.997 . S
O26 Fe25 2.002 . S
O26 C43 1.295 . S
O27 Fe22 1.997 . S
O27 C43 1.235 . S
O28 Fe22 2.002 . S
O28 C29 1.295 . S
C29 O28 1.295 . S
C29 O31 1.235 . S
C30 O35 1.287 . S
C30 O36 1.255 . S
O31 Fe23 1.997 . S
O31 C29 1.235 . S
C32 O38 1.287 . S
C32 O39 1.255 . S
O33 Fe22 1.976 . S
O33 C40 1.287 . S
O34 Fe23 1.996 . S
O34 C40 1.255 . S
O35 Fe25 1.976 . S
O35 C30 1.287 . S
O36 Fe22 1.996 . S
O36 C30 1.255 . S
C37 O41 1.295 . S
C37 O42 1.235 . S
O38 Fe23 1.976 . S
O38 C32 1.287 . S
O39 Fe25 1.996 . S
O39 C32 1.255 . S
C40 O33 1.287 . S
C40 O34 1.255 . S
O41 Fe23 2.002 . S
O41 C37 1.295 . S
O42 Fe25 1.997 . S
O42 C37 1.235 . S
C43 O26 1.295 . S
C43 O27 1.235 . S
Fe44 O46 1.918 . S
Fe44 O49 1.997 1_554 S
Fe44 O50 2.002 1_554 S
Fe44 O55 1.976 . S
Fe44 O58 1.996 . S
Fe45 O46 1.918 . S
Fe45 O53 1.997 1_554 S
Fe45 O56 1.996 . S
Fe45 O60 1.976 . S
Fe45 O63 2.002 1_554 S
O46 Fe44 1.918 . S
O46 Fe45 1.918 . S
O46 Fe47 1.918 1_554 S
Fe47 O46 1.918 1_556 S
Fe47 O48 2.002 . S
Fe47 O57 1.976 1_556 S
Fe47 O61 1.996 1_556 S
Fe47 O64 1.997 . S
O48 Fe47 2.002 . S
O48 C65 1.295 . S
O49 Fe44 1.997 1_556 S
O49 C65 1.235 . S
O50 Fe44 2.002 1_556 S
O50 C51 1.295 . S
C51 O50 1.295 . S
C51 O53 1.235 . S
C52 O57 1.287 . S
C52 O58 1.255 . S
O53 Fe45 1.997 1_556 S
O53 C51 1.235 . S
C54 O60 1.287 . S
C54 O61 1.255 . S
O55 Fe44 1.976 . S
O55 C62 1.287 . S
O56 Fe45 1.996 . S
O56 C62 1.255 . S
O57 Fe47 1.976 1_554 S
O57 C52 1.287 . S
O58 Fe44 1.996 . S
O58 C52 1.255 . S
C59 O63 1.295 . S
C59 O64 1.235 . S
O60 Fe45 1.976 . S
O60 C54 1.287 . S
O61 Fe47 1.996 1_554 S
O61 C54 1.255 . S
C62 O55 1.287 . S
C62 O56 1.255 . S
O63 Fe45 2.002 1_556 S
O63 C59 1.295 . S
O64 Fe47 1.997 . S
O64 C59 1.235 . S
C65 O48 1.295 . S
C65 O49 1.235 . S
Fe66 O68 1.918 . S
Fe66 O71 1.997 . S
Fe66 O72 2.002 . S
Fe66 O77 1.976 . S
Fe66 O80 1.996 . S
Fe67 O68 1.918 . S
Fe67 O75 1.997 . S
Fe67 O78 1.996 . S
Fe67 O82 1.976 . S
Fe67 O85 2.002 . S
O68 Fe66 1.918 . S
O68 Fe67 1.918 . S
O68 Fe69 1.918 . S
Fe69 O68 1.918 . S
Fe69 O70 2.002 . S
Fe69 O79 1.976 . S
Fe69 O83 1.996 . S
Fe69 O86 1.997 . S
O70 Fe69 2.002 . S
O70 C87 1.295 . S
O71 Fe66 1.997 . S
O71 C87 1.235 . S
O72 Fe66 2.002 . S
O72 C73 1.295 . S
C73 O72 1.295 . S
C73 O75 1.235 . S
C74 O79 1.287 . S
C74 O80 1.255 . S
O75 Fe67 1.997 . S
O75 C73 1.235 . S
C76 O82 1.287 . S
C76 O83 1.255 . S
O77 Fe66 1.976 . S
O77 C84 1.287 . S
O78 Fe67 1.996 . S
O78 C84 1.255 . S
O79 Fe69 1.976 . S
O79 C74 1.287 . S
O80 Fe66 1.996 . S
O80 C74 1.255 . S
C81 O85 1.295 . S
C81 O86 1.235 . S
O82 Fe67 1.976 . S
O82 C76 1.287 . S
O83 Fe69 1.996 . S
O83 C76 1.255 . S
C84 O77 1.287 . S
C84 O78 1.255 . S
O85 Fe67 2.002 . S
O85 C81 1.295 . S
O86 Fe69 1.997 . S
O86 C81 1.235 . S
C87 O70 1.295 . S
C87 O71 1.235 . S
P88 O99 1.490 . S
P88 C102 1.812 . S
P88 C108 1.803 . S
P88 C114 1.819 . S
H89 C103 0.941 . S
H90 C104 0.939 1_565 S
H91 C106 0.940 . S
H92 C107 0.940 . S
H93 C109 0.939 . S
H94 C110 0.942 . S
H95 C112 0.940 . S
H96 C113 0.939 . S
H97 C115 0.941 . S
H98 C119 0.939 . S
O99 P88 1.490 . S
H100 C116 0.939 . S
H101 C118 0.940 . S
C102 P88 1.812 . S
C102 C103 1.389 . S
C102 C107 1.391 . S
C103 H89 0.941 . S
C103 C102 1.389 . S
C103 C104 1.397 . S
C104 H90 0.939 1_545 S
C104 C103 1.397 . S
C104 C105 1.378 . S
C105 C104 1.378 . S
C105 C106 1.378 . S
C106 H91 0.940 . S
C106 C105 1.378 . S
C106 C107 1.396 . S
C107 H92 0.940 . S
C107 C102 1.391 . S
C107 C106 1.396 . S
C108 P88 1.803 . S
C108 C109 1.378 . S
C108 C113 1.400 . S
C109 H93 0.939 . S
C109 C108 1.378 . S
C109 C110 1.361 . S
C110 H94 0.942 . S
C110 C109 1.361 . S
C110 C111 1.369 . S
C111 C110 1.369 . S
C111 C112 1.404 . S
C112 H95 0.940 . S
C112 C111 1.404 . S
C112 C113 1.389 . S
C113 H96 0.939 . S
C113 C108 1.400 . S
C113 C112 1.389 . S
C114 P88 1.819 . S
C114 C115 1.391 1_455 S
C114 C119 1.391 . S
C115 H97 0.941 . S
C115 C114 1.391 1_655 S
C115 C116 1.396 . S
C116 H100 0.939 . S
C116 C115 1.396 . S
C116 C117 1.397 . S
C117 C116 1.397 . S
C117 C118 1.385 1_655 S
C118 H101 0.940 . S
C118 C117 1.385 1_455 S
C118 C119 1.388 . S
C119 H98 0.939 . S
C119 C114 1.391 . S
C119 C118 1.388 . S
P120 O131 1.490 . S
P120 C134 1.812 . S
P120 C140 1.803 . S
P120 C146 1.819 . S
H121 C135 0.941 . S
H122 C136 0.939 . S
H123 C138 0.940 . S
H124 C139 0.940 . S
H125 C141 0.939 . S
H126 C142 0.942 1_554 S
H127 C144 0.940 . S
H128 C145 0.939 . S
H129 C147 0.941 . S
H130 C151 0.939 . S
O131 P120 1.490 . S
H132 C148 0.939 . S
H133 C150 0.940 . S
C134 P120 1.812 . S
C134 C135 1.389 . S
C134 C139 1.391 . S
C135 H121 0.941 . S
C135 C134 1.389 . S
C135 C136 1.397 . S
C136 H122 0.939 . S
C136 C135 1.397 . S
C136 C137 1.378 . S
C137 C136 1.378 . S
C137 C138 1.378 . S
C138 H123 0.940 . S
C138 C137 1.378 . S
C138 C139 1.396 . S
C139 H124 0.940 . S
C139 C134 1.391 . S
C139 C138 1.396 . S
C140 P120 1.803 . S
C140 C141 1.378 . S
C140 C145 1.400 . S
C141 H125 0.939 . S
C141 C140 1.378 . S
C141 C142 1.361 . S
C142 H126 0.942 1_556 S
C142 C141 1.361 . S
C142 C143 1.369 . S
C143 C142 1.369 . S
C143 C144 1.404 . S
C144 H127 0.940 . S
C144 C143 1.404 . S
C144 C145 1.389 . S
C145 H128 0.939 . S
C145 C140 1.400 . S
C145 C144 1.389 . S
C146 P120 1.819 . S
C146 C147 1.391 . S
C146 C151 1.391 . S
C147 H129 0.941 . S
C147 C146 1.391 . S
C147 C148 1.396 . S
C148 H132 0.939 . S
C148 C147 1.396 . S
C148 C149 1.397 . S
C149 C148 1.397 . S
C149 C150 1.385 . S
C150 H133 0.940 . S
C150 C149 1.385 . S
C150 C151 1.388 . S
C151 H130 0.939 . S
C151 C146 1.391 . S
C151 C150 1.388 . S
P152 O163 1.490 . S
P152 C166 1.812 . S
P152 C172 1.803 . S
P152 C178 1.819 . S
H153 C167 0.941 . S
H154 C168 0.939 . S
H155 C170 0.940 . S
H156 C171 0.940 . S
H157 C173 0.939 . S
H158 C174 0.942 . S
H159 C176 0.940 . S
H160 C177 0.939 . S
H161 C179 0.941 . S
H162 C183 0.939 . S
O163 P152 1.490 . S
H164 C180 0.939 . S
H165 C182 0.940 . S
C166 P152 1.812 . S
C166 C167 1.389 . S
C166 C171 1.391 . S
C167 H153 0.941 . S
C167 C166 1.389 . S
C167 C168 1.397 . S
C168 H154 0.939 . S
C168 C167 1.397 . S
C168 C169 1.378 . S
C169 C168 1.378 . S
C169 C170 1.378 . S
C170 H155 0.940 . S
C170 C169 1.378 . S
C170 C171 1.396 . S
C171 H156 0.940 . S
C171 C166 1.391 . S
C171 C170 1.396 . S
C172 P152 1.803 . S
C172 C173 1.378 . S
C172 C177 1.400 . S
C173 H157 0.939 . S
C173 C172 1.378 . S
C173 C174 1.361 . S
C174 H158 0.942 . S
C174 C173 1.361 . S
C174 C175 1.369 . S
C175 C174 1.369 . S
C175 C176 1.404 . S
C176 H159 0.940 . S
C176 C175 1.404 . S
C176 C177 1.389 . S
C177 H160 0.939 . S
C177 C172 1.400 . S
C177 C176 1.389 . S
C178 P152 1.819 . S
C178 C179 1.391 . S
C178 C183 1.391 . S
C179 H161 0.941 . S
C179 C178 1.391 . S
C179 C180 1.396 . S
C180 H164 0.939 . S
C180 C179 1.396 . S
C180 C181 1.397 . S
C181 C180 1.397 . S
C181 C182 1.385 . S
C182 H165 0.940 . S
C182 C181 1.385 . S
C182 C183 1.388 . S
C183 H162 0.939 . S
C183 C178 1.391 . S
C183 C182 1.388 . S
P184 O195 1.490 . S
P184 C198 1.812 . S
P184 C204 1.803 . S
P184 C210 1.819 . S
H185 C199 0.941 . S
H186 C200 0.939 . S
H187 C202 0.940 . S
H188 C203 0.940 . S
H189 C205 0.939 . S
H190 C206 0.942 . S
H191 C208 0.940 . S
H192 C209 0.939 . S
H193 C211 0.941 . S
H194 C215 0.939 . S
O195 P184 1.490 . S
H196 C212 0.939 . S
H197 C214 0.940 . S
C198 P184 1.812 . S
C198 C199 1.389 . S
C198 C203 1.391 . S
C199 H185 0.941 . S
C199 C198 1.389 . S
C199 C200 1.397 . S
C200 H186 0.939 . S
C200 C199 1.397 . S
C200 C201 1.378 . S
C201 C200 1.378 . S
C201 C202 1.378 . S
C202 H187 0.940 . S
C202 C201 1.378 . S
C202 C203 1.396 . S
C203 H188 0.940 . S
C203 C198 1.391 . S
C203 C202 1.396 . S
C204 P184 1.803 . S
C204 C205 1.378 . S
C204 C209 1.400 . S
C205 H189 0.939 . S
C205 C204 1.378 . S
C205 C206 1.361 . S
C206 H190 0.942 . S
C206 C205 1.361 . S
C206 C207 1.369 . S
C207 C206 1.369 . S
C207 C208 1.404 . S
C208 H191 0.940 . S
C208 C207 1.404 . S
C208 C209 1.389 . S
C209 H192 0.939 . S
C209 C204 1.400 . S
C209 C208 1.389 . S
C210 P184 1.819 . S
C210 C211 1.391 . S
C210 C215 1.391 . S
C211 H193 0.941 . S
C211 C210 1.391 . S
C211 C212 1.396 . S
C212 H196 0.939 . S
C212 C211 1.396 . S
C212 C213 1.397 . S
C213 C212 1.397 . S
C213 C214 1.385 . S
C214 H197 0.940 . S
C214 C213 1.385 . S
C214 C215 1.388 . S
C215 H194 0.939 . S
C215 C210 1.391 . S
C215 C214 1.388 . S
P216 O227 1.490 . S
P216 C230 1.812 . S
P216 C236 1.803 . S
P216 C242 1.819 . S
H217 C231 0.941 . S
H218 C232 0.939 . S
H219 C234 0.940 . S
H220 C235 0.940 . S
H221 C237 0.939 . S
H222 C238 0.942 . S
H223 C240 0.940 . S
H224 C241 0.939 . S
H225 C243 0.941 . S
H226 C247 0.939 . S
O227 P216 1.490 . S
H228 C244 0.939 . S
H229 C246 0.940 . S
C230 P216 1.812 . S
C230 C231 1.389 . S
C230 C235 1.391 . S
C231 H217 0.941 . S
C231 C230 1.389 . S
C231 C232 1.397 . S
C232 H218 0.939 . S
C232 C231 1.397 . S
C232 C233 1.378 . S
C233 C232 1.378 . S
C233 C234 1.378 . S
C234 H219 0.940 . S
C234 C233 1.378 . S
C234 C235 1.396 . S
C235 H220 0.940 . S
C235 C230 1.391 . S
C235 C234 1.396 . S
C236 P216 1.803 . S
C236 C237 1.378 . S
C236 C241 1.400 . S
C237 H221 0.939 . S
C237 C236 1.378 . S
C237 C238 1.361 . S
C238 H222 0.942 . S
C238 C237 1.361 . S
C238 C239 1.369 . S
C239 C238 1.369 . S
C239 C240 1.404 . S
C240 H223 0.940 . S
C240 C239 1.404 . S
C240 C241 1.389 . S
C241 H224 0.939 . S
C241 C236 1.400 . S
C241 C240 1.389 . S
C242 P216 1.819 . S
C242 C243 1.391 . S
C242 C247 1.391 . S
C243 H225 0.941 . S
C243 C242 1.391 . S
C243 C244 1.396 . S
C244 H228 0.939 . S
C244 C243 1.396 . S
C244 C245 1.397 . S
C245 C244 1.397 . S
C245 C246 1.385 . S
C246 H229 0.940 . S
C246 C245 1.385 . S
C246 C247 1.388 . S
C247 H226 0.939 . S
C247 C242 1.391 . S
C247 C246 1.388 . S
P248 O259 1.490 1_556 S
P248 C262 1.812 . S
P248 C268 1.803 . S
P248 C274 1.819 . S
H249 C263 0.941 1_554 S
H250 C264 0.939 1_554 S
H251 C266 0.940 . S
H252 C267 0.940 . S
H253 C269 0.939 . S
H254 C270 0.942 . S
H255 C272 0.940 . S
H256 C273 0.939 . S
H257 C275 0.941 . S
H258 C279 0.939 . S
O259 P248 1.490 1_554 S
H260 C276 0.939 . S
H261 C278 0.940 . S
C262 P248 1.812 . S
C262 C263 1.389 . S
C262 C267 1.391 . S
C263 H249 0.941 1_556 S
C263 C262 1.389 . S
C263 C264 1.397 . S
C264 H250 0.939 1_556 S
C264 C263 1.397 . S
C264 C265 1.378 . S
C265 C264 1.378 . S
C265 C266 1.378 . S
C266 H251 0.940 . S
C266 C265 1.378 . S
C266 C267 1.396 . S
C267 H252 0.940 . S
C267 C262 1.391 . S
C267 C266 1.396 . S
C268 P248 1.803 . S
C268 C269 1.378 . S
C268 C273 1.400 . S
C269 H253 0.939 . S
C269 C268 1.378 . S
C269 C270 1.361 . S
C270 H254 0.942 . S
C270 C269 1.361 . S
C270 C271 1.369 . S
C271 C270 1.369 . S
C271 C272 1.404 . S
C272 H255 0.940 . S
C272 C271 1.404 . S
C272 C273 1.389 . S
C273 H256 0.939 . S
C273 C268 1.400 . S
C273 C272 1.389 . S
C274 P248 1.819 . S
C274 C275 1.391 1_556 S
C274 C279 1.391 . S
C275 H257 0.941 . S
C275 C274 1.391 1_554 S
C275 C276 1.396 . S
C276 H260 0.939 . S
C276 C275 1.396 . S
C276 C277 1.397 1_554 S
C277 C276 1.397 1_556 S
C277 C278 1.385 . S
C278 H261 0.940 . S
C278 C277 1.385 . S
C278 C279 1.388 . S
C279 H258 0.939 . S
C279 C274 1.391 . S
C279 C278 1.388 . S
P280 O291 1.490 . S
P280 C294 1.812 . S
P280 C300 1.803 . S
P280 C306 1.819 . S
H281 C295 0.941 . S
H282 C296 0.939 . S
H283 C298 0.940 . S
H284 C299 0.940 . S
H285 C301 0.939 . S
H286 C302 0.942 . S
H287 C304 0.940 . S
H288 C305 0.939 . S
H289 C307 0.941 . S
H290 C311 0.939 . S
O291 P280 1.490 . S
H292 C308 0.939 . S
H293 C310 0.940 . S
C294 P280 1.812 . S
C294 C295 1.389 . S
C294 C299 1.391 . S
C295 H281 0.941 . S
C295 C294 1.389 . S
C295 C296 1.397 . S
C296 H282 0.939 . S
C296 C295 1.397 . S
C296 C297 1.378 . S
C297 C296 1.378 . S
C297 C298 1.378 . S
C298 H283 0.940 . S
C298 C297 1.378 . S
C298 C299 1.396 . S
C299 H284 0.940 . S
C299 C294 1.391 . S
C299 C298 1.396 . S
C300 P280 1.803 . S
C300 C301 1.378 . S
C300 C305 1.400 . S
C301 H285 0.939 . S
C301 C300 1.378 . S
C301 C302 1.361 . S
C302 H286 0.942 . S
C302 C301 1.361 . S
C302 C303 1.369 . S
C303 C302 1.369 . S
C303 C304 1.404 . S
C304 H287 0.940 . S
C304 C303 1.404 . S
C304 C305 1.389 . S
C305 H288 0.939 . S
C305 C300 1.400 . S
C305 C304 1.389 . S
C306 P280 1.819 . S
C306 C307 1.391 . S
C306 C311 1.391 . S
C307 H289 0.941 . S
C307 C306 1.391 . S
C307 C308 1.396 . S
C308 H292 0.939 . S
C308 C307 1.396 . S
C308 C309 1.397 . S
C309 C308 1.397 . S
C309 C310 1.385 . S
C310 H293 0.940 . S
C310 C309 1.385 . S
C310 C311 1.388 . S
C311 H290 0.939 . S
C311 C306 1.391 . S
C311 C310 1.388 . S
P312 O323 1.490 . S
P312 C326 1.812 . S
P312 C332 1.803 . S
P312 C338 1.819 . S
H313 C327 0.941 . S
H314 C328 0.939 . S
H315 C330 0.940 . S
H316 C331 0.940 . S
H317 C333 0.939 . S
H318 C334 0.942 . S
H319 C336 0.940 . S
H320 C337 0.939 . S
H321 C339 0.941 . S
H322 C343 0.939 . S
O323 P312 1.490 . S
H324 C340 0.939 1_455 S
H325 C342 0.940 . S
C326 P312 1.812 . S
C326 C327 1.389 . S
C326 C331 1.391 . S
C327 H313 0.941 . S
C327 C326 1.389 . S
C327 C328 1.397 . S
C328 H314 0.939 . S
C328 C327 1.397 . S
C328 C329 1.378 . S
C329 C328 1.378 . S
C329 C330 1.378 . S
C330 H315 0.940 . S
C330 C329 1.378 . S
C330 C331 1.396 . S
C331 H316 0.940 . S
C331 C326 1.391 . S
C331 C330 1.396 . S
C332 P312 1.803 . S
C332 C333 1.378 . S
C332 C337 1.400 . S
C333 H317 0.939 . S
C333 C332 1.378 . S
C333 C334 1.361 . S
C334 H318 0.942 . S
C334 C333 1.361 . S
C334 C335 1.369 . S
C335 C334 1.369 . S
C335 C336 1.404 . S
C336 H319 0.940 . S
C336 C335 1.404 . S
C336 C337 1.389 . S
C337 H320 0.939 . S
C337 C332 1.400 . S
C337 C336 1.389 . S
C338 P312 1.819 . S
C338 C339 1.391 . S
C338 C343 1.391 . S
C339 H321 0.941 . S
C339 C338 1.391 . S
C339 C340 1.396 . S
C340 H324 0.939 1_655 S
C340 C339 1.396 . S
C340 C341 1.397 1_655 S
C341 C340 1.397 1_455 S
C341 C342 1.385 . S
C342 H325 0.940 . S
C342 C341 1.385 . S
C342 C343 1.388 1_455 S
C343 H322 0.939 . S
C343 C338 1.391 . S
C343 C342 1.388 1_655 S
C344 C345 1.387 . S
C344 H348 0.950 . S
C344 C353 1.390 . S
C345 C344 1.387 . S
C345 C347 1.387 . S
H346 C353 0.950 1_545 S
C347 C345 1.387 . S
C347 C349 1.390 . S
C347 H351 0.950 . S
H348 C344 0.950 . S
C349 C347 1.390 . S
C349 C350 1.387 . S
C349 H352 0.950 . S
C350 C349 1.387 . S
C350 C353 1.387 . S
H351 C347 0.950 . S
H352 C349 0.950 . S
C353 C344 1.390 . S
C353 H346 0.950 1_565 S
C353 C350 1.387 . S
C354 C355 1.387 . S
C354 H358 0.950 . S
C354 C363 1.390 . S
C355 C354 1.387 . S
C355 C357 1.387 . S
H356 C363 0.950 . S
C357 C355 1.387 . S
C357 C359 1.390 . S
C357 H361 0.950 . S
H358 C354 0.950 . S
C359 C357 1.390 . S
C359 C360 1.387 . S
C359 H362 0.950 . S
C360 C359 1.387 . S
C360 C363 1.387 . S
H361 C357 0.950 . S
H362 C359 0.950 . S
C363 C354 1.390 . S
C363 H356 0.950 . S
C363 C360 1.387 . S
C364 C365 1.387 . S
C364 H368 0.950 . S
C364 C373 1.390 . S
C365 C364 1.387 . S
C365 C367 1.387 . S
H366 C373 0.950 . S
C367 C365 1.387 . S
C367 C369 1.390 1_545 S
C367 H371 0.950 . S
H368 C364 0.950 . S
C369 C367 1.390 1_565 S
C369 C370 1.387 . S
C369 H372 0.950 . S
C370 C369 1.387 . S
C370 C373 1.387 1_565 S
H371 C367 0.950 . S
H372 C369 0.950 . S
C373 C364 1.390 . S
C373 H366 0.950 . S
C373 C370 1.387 1_545 S
C374 C375 1.387 . S
C374 H378 0.950 . S
C374 C383 1.390 . S
C375 C374 1.387 . S
C375 C377 1.387 . S
H376 C383 0.950 . S
C377 C375 1.387 . S
C377 C379 1.390 . S
C377 H381 0.950 . S
H378 C374 0.950 . S
C379 C377 1.390 . S
C379 C380 1.387 . S
C379 H382 0.950 . S
C380 C379 1.387 . S
C380 C383 1.387 . S
H381 C377 0.950 . S
H382 C379 0.950 . S
C383 C374 1.390 . S
C383 H376 0.950 . S
C383 C380 1.387 . S
C384 C385 1.387 . S
C384 H388 0.950 . S
C384 C393 1.390 . S
C385 C384 1.387 . S
C385 C387 1.387 . S
H386 C393 0.950 . S
C387 C385 1.387 . S
C387 C389 1.390 . S
C387 H391 0.950 . S
H388 C384 0.950 . S
C389 C387 1.390 . S
C389 C390 1.387 . S
C389 H392 0.950 . S
C390 C389 1.387 . S
C390 C393 1.387 . S
H391 C387 0.950 . S
H392 C389 0.950 . S
C393 C384 1.390 . S
C393 H386 0.950 . S
C393 C390 1.387 . S
C394 C395 1.387 1_455 S
C394 H398 0.950 1_455 S
C394 C403 1.390 . S
C395 C394 1.387 1_655 S
C395 C397 1.387 1_656 S
H396 C403 0.950 . S
C397 C395 1.387 1_454 S
C397 C399 1.390 . S
C397 H401 0.950 1_455 S
H398 C394 0.950 1_655 S
C399 C397 1.390 . S
C399 C400 1.387 1_554 S
C399 H402 0.950 . S
C400 C399 1.387 1_556 S
C400 C403 1.387 . S
H401 C397 0.950 1_655 S
H402 C399 0.950 . S
C403 C394 1.390 . S
C403 H396 0.950 . S
C403 C400 1.387 . S
C404 C405 1.387 . S
C404 H408 0.950 . S
C404 C413 1.390 . S
C405 C404 1.387 . S
C405 C407 1.387 . S
H406 C413 0.950 . S
C407 C405 1.387 . S
C407 C409 1.390 . S
C407 H411 0.950 . S
H408 C404 0.950 . S
C409 C407 1.390 . S
C409 C410 1.387 . S
C409 H412 0.950 . S
C410 C409 1.387 . S
C410 C413 1.387 . S
H411 C407 0.950 . S
H412 C409 0.950 . S
C413 C404 1.390 . S
C413 H406 0.950 . S
C413 C410 1.387 . S
C414 C415 1.387 . S
C414 H418 0.950 . S
C414 C423 1.390 . S
C415 C414 1.387 . S
C415 C417 1.387 . S
H416 C423 0.950 . S
C417 C415 1.387 . S
C417 C419 1.390 . S
C417 H421 0.950 . S
H418 C414 0.950 . S
C419 C417 1.390 . S
C419 C420 1.387 . S
C419 H422 0.950 . S
C420 C419 1.387 . S
C420 C423 1.387 . S
H421 C417 0.950 . S
H422 C419 0.950 . S
C423 C414 1.390 . S
C423 H416 0.950 . S
C423 C420 1.387 . S
C424 C425 1.387 . S
C424 H428 0.950 . S
C424 C433 1.390 . S
C425 C424 1.387 . S
C425 C427 1.387 . S
H426 C433 0.950 1_565 S
C427 C425 1.387 . S
C427 C429 1.390 . S
C427 H431 0.950 . S
H428 C424 0.950 . S
C429 C427 1.390 . S
C429 C430 1.387 . S
C429 H432 0.950 . S
C430 C429 1.387 . S
C430 C433 1.387 . S
H431 C427 0.950 . S
H432 C429 0.950 . S
C433 C424 1.390 . S
C433 H426 0.950 1_545 S
C433 C430 1.387 . S
C434 C435 1.387 . S
C434 H438 0.950 . S
C434 C443 1.390 . S
C435 C434 1.387 . S
C435 C437 1.387 . S
H436 C443 0.950 . S
C437 C435 1.387 . S
C437 C439 1.390 . S
C437 H441 0.950 . S
H438 C434 0.950 . S
C439 C437 1.390 . S
C439 C440 1.387 . S
C439 H442 0.950 . S
C440 C439 1.387 . S
C440 C443 1.387 . S
H441 C437 0.950 . S
H442 C439 0.950 . S
C443 C434 1.390 . S
C443 H436 0.950 . S
C443 C440 1.387 . S
C444 C445 1.387 . S
C444 H448 0.950 . S
C444 C453 1.390 1_565 S
C445 C444 1.387 . S
C445 C447 1.387 1_554 S
H446 C453 0.950 . S
C447 C445 1.387 1_556 S
C447 C449 1.390 . S
C447 H451 0.950 . S
H448 C444 0.950 . S
C449 C447 1.390 . S
C449 C450 1.387 1_565 S
C449 H452 0.950 . S
C450 C449 1.387 1_545 S
C450 C453 1.387 1_556 S
H451 C447 0.950 . S
H452 C449 0.950 . S
C453 C444 1.390 1_545 S
C453 H446 0.950 . S
C453 C450 1.387 1_554 S
C454 C455 1.387 . S
C454 H458 0.950 . S
C454 C463 1.390 . S
C455 C454 1.387 . S
C455 C457 1.387 . S
H456 C463 0.950 . S
C457 C455 1.387 . S
C457 C459 1.390 . S
C457 H461 0.950 . S
H458 C454 0.950 . S
C459 C457 1.390 . S
C459 C460 1.387 . S
C459 H462 0.950 . S
C460 C459 1.387 . S
C460 C463 1.387 . S
H461 C457 0.950 . S
H462 C459 0.950 . S
C463 C454 1.390 . S
C463 H456 0.950 . S
C463 C460 1.387 . S
C464 C465 1.387 . S
C464 H468 0.950 . S
C464 C473 1.390 . S
C465 C464 1.387 . S
C465 C467 1.387 . S
H466 C473 0.950 . S
C467 C465 1.387 . S
C467 C469 1.390 . S
C467 H471 0.950 . S
H468 C464 0.950 . S
C469 C467 1.390 . S
C469 C470 1.387 . S
C469 H472 0.950 . S
C470 C469 1.387 . S
C470 C473 1.387 . S
H471 C467 0.950 . S
H472 C469 0.950 . S
C473 C464 1.390 . S
C473 H466 0.950 . S
C473 C470 1.387 . S
C474 C475 1.387 1_655 S
C474 H478 0.950 1_655 S
C474 C483 1.390 . S
C475 C474 1.387 1_455 S
C475 C477 1.387 1_455 S
H476 C483 0.950 . S
C477 C475 1.387 1_655 S
C477 C479 1.390 . S
C477 H481 0.950 1_655 S
H478 C474 0.950 1_455 S
C479 C477 1.390 . S
C479 C480 1.387 . S
C479 H482 0.950 . S
C480 C479 1.387 . S
C480 C483 1.387 . S
H481 C477 0.950 1_455 S
H482 C479 0.950 . S
C483 C474 1.390 . S
C483 H476 0.950 . S
C483 C480 1.387 . S
C484 C485 1.387 . S
C484 H488 0.950 . S
C484 C493 1.390 . S
C485 C484 1.387 . S
C485 C487 1.387 . S
H486 C493 0.950 . S
C487 C485 1.387 . S
C487 C489 1.390 . S
C487 H491 0.950 . S
H488 C484 0.950 . S
C489 C487 1.390 . S
C489 C490 1.387 . S
C489 H492 0.950 . S
C490 C489 1.387 . S
C490 C493 1.387 . S
H491 C487 0.950 . S
H492 C489 0.950 . S
C493 C484 1.390 . S
C493 H486 0.950 . S
C493 C490 1.387 . S
C494 C495 1.387 . S
C494 H498 0.950 . S
C494 C503 1.390 . S
C495 C494 1.387 . S
C495 C497 1.387 . S
H496 C503 0.950 . S
C497 C495 1.387 . S
C497 C499 1.390 . S
C497 H501 0.950 . S
H498 C494 0.950 . S
C499 C497 1.390 . S
C499 C500 1.387 . S
C499 H502 0.950 . S
C500 C499 1.387 . S
C500 C503 1.387 . S
H501 C497 0.950 . S
H502 C499 0.950 . S
C503 C494 1.390 . S
C503 H496 0.950 . S
C503 C500 1.387 . S
C504 C505 1.387 . S
C504 H508 0.950 . S
C504 C513 1.390 . S
C505 C504 1.387 . S
C505 C507 1.387 . S
H506 C513 0.950 . S
C507 C505 1.387 . S
C507 C509 1.390 . S
C507 H511 0.950 . S
H508 C504 0.950 . S
C509 C507 1.390 . S
C509 C510 1.387 . S
C509 H512 0.950 . S
C510 C509 1.387 . S
C510 C513 1.387 . S
H511 C507 0.950 . S
H512 C509 0.950 . S
C513 C504 1.390 . S
C513 H506 0.950 . S
C513 C510 1.387 . S
C514 C515 1.387 . S
C514 H518 0.950 . S
C514 C523 1.390 . S
C515 C514 1.387 . S
C515 C517 1.387 . S
H516 C523 0.950 . S
C517 C515 1.387 . S
C517 C519 1.390 . S
C517 H521 0.950 . S
H518 C514 0.950 . S
C519 C517 1.390 . S
C519 C520 1.387 . S
C519 H522 0.950 . S
C520 C519 1.387 . S
C520 C523 1.387 . S
H521 C517 0.950 . S
H522 C519 0.950 . S
C523 C514 1.390 . S
C523 H516 0.950 . S
C523 C520 1.387 . S
C524 C525 1.387 . S
C524 H528 0.950 . S
C524 C533 1.390 . S
C525 C524 1.387 . S
C525 C527 1.387 . S
H526 C533 0.950 . S
C527 C525 1.387 . S
C527 C529 1.390 . S
C527 H531 0.950 . S
H528 C524 0.950 . S
C529 C527 1.390 . S
C529 C530 1.387 . S
C529 H532 0.950 . S
C530 C529 1.387 . S
C530 C533 1.387 . S
H531 C527 0.950 . S
H532 C529 0.950 . S
C533 C524 1.390 . S
C533 H526 0.950 . S
C533 C530 1.387 . S
C534 C535 1.387 . S
C534 H538 0.950 . S
C534 C543 1.390 . S
C535 C534 1.387 . S
C535 C537 1.387 . S
H536 C543 0.950 . S
C537 C535 1.387 . S
C537 C539 1.390 . S
C537 H541 0.950 . S
H538 C534 0.950 . S
C539 C537 1.390 . S
C539 C540 1.387 . S
C539 H542 0.950 . S
C540 C539 1.387 . S
C540 C543 1.387 . S
H541 C537 0.950 . S
H542 C539 0.950 . S
C543 C534 1.390 . S
C543 H536 0.950 . S
C543 C540 1.387 . S
C544 C545 1.387 . S
C544 H548 0.950 . S
C544 C553 1.390 . S
C545 C544 1.387 . S
C545 C547 1.387 . S
H546 C553 0.950 . S
C547 C545 1.387 . S
C547 C549 1.390 . S
C547 H551 0.950 . S
H548 C544 0.950 . S
C549 C547 1.390 . S
C549 C550 1.387 . S
C549 H552 0.950 . S
C550 C549 1.387 . S
C550 C553 1.387 . S
H551 C547 0.950 . S
H552 C549 0.950 . S
C553 C544 1.390 . S
C553 H546 0.950 . S
C553 C550 1.387 . S
C554 C555 1.387 . S
C554 H558 0.950 . S
C554 C563 1.390 . S
C555 C554 1.387 . S
C555 C557 1.387 . S
H556 C563 0.950 . S
C557 C555 1.387 . S
C557 C559 1.390 . S
C557 H561 0.950 . S
H558 C554 0.950 . S
C559 C557 1.390 . S
C559 C560 1.387 . S
C559 H562 0.950 . S
C560 C559 1.387 . S
C560 C563 1.387 . S
H561 C557 0.950 . S
H562 C559 0.950 . S
C563 C554 1.390 . S
C563 H556 0.950 . S
C563 C560 1.387 . S
C564 C565 1.387 . S
C564 H568 0.950 . S
C564 C573 1.390 . S
C565 C564 1.387 . S
C565 C567 1.387 . S
H566 C573 0.950 . S
C567 C565 1.387 . S
C567 C569 1.390 . S
C567 H571 0.950 . S
H568 C564 0.950 . S
C569 C567 1.390 . S
C569 C570 1.387 . S
C569 H572 0.950 . S
C570 C569 1.387 . S
C570 C573 1.387 . S
H571 C567 0.950 . S
H572 C569 0.950 . S
C573 C564 1.390 . S
C573 H566 0.950 . S
C573 C570 1.387 . S
C574 C575 1.387 . S
C574 H578 0.950 . S
C574 C583 1.390 . S
C575 C574 1.387 . S
C575 C577 1.387 1_556 S
H576 C583 0.950 . S
C577 C575 1.387 1_554 S
C577 C579 1.390 . S
C577 H581 0.950 . S
H578 C574 0.950 . S
C579 C577 1.390 . S
C579 C580 1.387 1_554 S
C579 H582 0.950 . S
C580 C579 1.387 1_556 S
C580 C583 1.387 . S
H581 C577 0.950 . S
H582 C579 0.950 . S
C583 C574 1.390 . S
C583 H576 0.950 . S
C583 C580 1.387 . S
C345 C7 1.629 . S
C350 C105 1.601 1_565 S
C355 C37 1.560 . S
C360 C137 1.502 . S
C365 C54 1.725 . S
C370 C169 1.513 . S
C380 C213 1.555 . S
C375 C87 1.522 . S
C390 C233 1.524 . S
C385 C30 1.543 . S
C395 C51 1.557 . S
C400 C277 1.591 . S
C405 C84 1.753 . S
C410 C297 1.532 . S
C415 C10 1.544 . S
C420 C341 1.321 . S
C425 C59 1.627 . S
C430 C329 1.459 1_545 S
C440 C245 1.525 . S
C435 C74 1.580 . S
C450 C265 1.704 . S
C445 C18 1.774 . S
C455 C32 1.534 . S
C460 C309 1.395 . S
C470 C149 1.632 . S
C465 C73 1.652 . S
C475 C15 1.537 . S
C480 C181 1.410 . S
C490 C201 1.704 . S
C485 C43 1.764 . S
C500 C117 1.510 . S
C495 C62 1.554 . S
C510 C303 1.445 . S
C505 C21 1.648 . S
C520 C335 1.311 . S
C515 C29 1.433 . S
C525 C52 1.422 . S
C530 C239 1.414 . S
C540 C271 1.642 . S
C535 C81 1.650 . S
C550 C175 1.431 . S
C545 C40 1.615 . S
C555 C65 1.620 . S
C560 C207 1.610 . S
C570 C111 1.436 . S
C565 C76 1.438 . S
C580 C143 1.451 . S
C575 C8 1.441 1_556 S
