# Generated by pormake.
# Topology pyr, (3,6)-cn, num edge types: 1
# Building blocks:
#     Node 0, Type 0, BuildingBlock: BELTOD_clean_linker_0, # of connection points: 3
#     Node 1, Type 0, BuildingBlock: BELTOD_clean_linker_0, # of connection points: 3
#     Node 2, Type 0, BuildingBlock: BELTOD_clean_linker_0, # of connection points: 3
#     Node 3, Type 0, BuildingBlock: BELTOD_clean_linker_0, # of connection points: 3
#     Node 4, Type 0, BuildingBlock: BELTOD_clean_linker_0, # of connection points: 3
#     Node 5, Type 0, BuildingBlock: BELTOD_clean_linker_0, # of connection points: 3
#     Node 6, Type 0, BuildingBlock: BELTOD_clean_linker_0, # of connection points: 3
#     Node 7, Type 0, BuildingBlock: BELTOD_clean_linker_0, # of connection points: 3
#     Node 8, Type 1, BuildingBlock: JUFBIX_clean_sbu_0, # of connection points: 6
#     Node 9, Type 1, BuildingBlock: JUFBIX_clean_sbu_0, # of connection points: 6
#     Node 10, Type 1, BuildingBlock: JUFBIX_clean_sbu_0, # of connection points: 6
#     Node 11, Type 1, BuildingBlock: JUFBIX_clean_sbu_0, # of connection points: 6
#     Edge 12, Type (0, 1), BuildingBlock: ZUJKAS_clean_linker_0, # of connection points: 2
#     Edge 13, Type (0, 1), BuildingBlock: ZUJKAS_clean_linker_0, # of connection points: 2
#     Edge 14, Type (0, 1), BuildingBlock: ZUJKAS_clean_linker_0, # of connection points: 2
#     Edge 15, Type (0, 1), BuildingBlock: ZUJKAS_clean_linker_0, # of connection points: 2
#     Edge 16, Type (0, 1), BuildingBlock: ZUJKAS_clean_linker_0, # of connection points: 2
#     Edge 17, Type (0, 1), BuildingBlock: ZUJKAS_clean_linker_0, # of connection points: 2
#     Edge 18, Type (0, 1), BuildingBlock: ZUJKAS_clean_linker_0, # of connection points: 2
#     Edge 19, Type (0, 1), BuildingBlock: ZUJKAS_clean_linker_0, # of connection points: 2
#     Edge 20, Type (0, 1), BuildingBlock: ZUJKAS_clean_linker_0, # of connection points: 2
#     Edge 21, Type (0, 1), BuildingBlock: ZUJKAS_clean_linker_0, # of connection points: 2
#     Edge 22, Type (0, 1), BuildingBlock: ZUJKAS_clean_linker_0, # of connection points: 2
#     Edge 23, Type (0, 1), BuildingBlock: ZUJKAS_clean_linker_0, # of connection points: 2
#     Edge 24, Type (0, 1), BuildingBlock: ZUJKAS_clean_linker_0, # of connection points: 2
#     Edge 25, Type (0, 1), BuildingBlock: ZUJKAS_clean_linker_0, # of connection points: 2
#     Edge 26, Type (0, 1), BuildingBlock: ZUJKAS_clean_linker_0, # of connection points: 2
#     Edge 27, Type (0, 1), BuildingBlock: ZUJKAS_clean_linker_0, # of connection points: 2
#     Edge 28, Type (0, 1), BuildingBlock: ZUJKAS_clean_linker_0, # of connection points: 2
#     Edge 29, Type (0, 1), BuildingBlock: ZUJKAS_clean_linker_0, # of connection points: 2
#     Edge 30, Type (0, 1), BuildingBlock: ZUJKAS_clean_linker_0, # of connection points: 2
#     Edge 31, Type (0, 1), BuildingBlock: ZUJKAS_clean_linker_0, # of connection points: 2
#     Edge 32, Type (0, 1), BuildingBlock: ZUJKAS_clean_linker_0, # of connection points: 2
#     Edge 33, Type (0, 1), BuildingBlock: ZUJKAS_clean_linker_0, # of connection points: 2
#     Edge 34, Type (0, 1), BuildingBlock: ZUJKAS_clean_linker_0, # of connection points: 2
#     Edge 35, Type (0, 1), BuildingBlock: ZUJKAS_clean_linker_0, # of connection points: 2
# Relax obj value: 0.039
# Max RMSD: 0.086
# Mean RMSD: 0.038
data_MOF--net-pyr--node1-JUFBIX_clean_sbu_0--node2-BELTOD_clean_linker_0--edge1-ZUJKAS_clean_linker_0
_symmetry_space_group_name_H-M    P1
_symmetry_Int_Tables_number       1
_symmetry_cell_setting            triclinic
loop_
_symmetry_equiv_pos_as_xyz
'x, y, z'
_cell_length_a     53.760296
_cell_length_b     51.880485
_cell_length_c     53.334711
_cell_angle_alpha  86.171299
_cell_angle_beta   90.309674
_cell_angle_gamma 91.689905
loop_
_atom_site_label
_atom_site_type_symbol
_atom_site_fract_x
_atom_site_fract_y
_atom_site_fract_z
_atom_type_partial_charge
P0 P 0.1968 0.17979 0.19706 0.0
H1 H 0.24727 0.19467 0.18126 0.0
H2 H 0.279 0.17362 0.15848 0.0
H3 H 0.22782 0.10927 0.14824 0.0
H4 H 0.19622 0.13034 0.17225 0.0
H5 H 0.1536 0.20868 0.20974 0.0
H6 H 0.12905 0.24099 0.18614 0.0
H7 H 0.17037 0.22837 0.11903 0.0
H8 H 0.19465 0.19574 0.14275 0.0
H9 H 0.21157 0.15689 0.24588 0.0
H10 H 0.14681 0.15391 0.19813 0.0
O11 O 0.21266 0.20065 0.21403 0.0
H12 H 0.18912 0.13207 0.27933 0.0
H13 H 0.12417 0.12825 0.23141 0.0
C14 C 0.21946 0.16391 0.17886 0.0
C15 C 0.24282 0.17597 0.17424 0.0
C16 C 0.26097 0.16395 0.16087 0.0
C17 C 0.25617 0.13963 0.15132 0.0
C18 C 0.23244 0.12778 0.15557 0.0
C19 C 0.21425 0.13985 0.16918 0.0
C20 C 0.1757 0.19941 0.17799 0.0
C21 C 0.15698 0.21239 0.1898 0.0
C22 C 0.14314 0.23112 0.17632 0.0
C23 C 0.14783 0.2375 0.15069 0.0
C24 C 0.16607 0.22381 0.13867 0.0
C25 C 0.17999 0.20508 0.15224 0.0
C26 C 0.18078 0.15766 0.21965 0.0
C27 C 0.19257 0.15051 0.24246 0.0
C28 C 0.17967 0.13611 0.2616 0.0
C29 C 0.15463 0.1282 0.25833 0.0
C30 C 0.14323 0.1344 0.23488 0.0
C31 C 0.15621 0.14892 0.21571 0.0
P32 P 0.43623 0.91484 0.58907 0.0
H33 H 0.48107 0.9307 0.61595 0.0
H34 H 0.48855 0.94108 0.65954 0.0
H35 H 0.41005 0.92931 0.67509 0.0
H36 H 0.4029 0.91842 0.63183 0.0
H37 H 0.46284 0.88227 0.55597 0.0
H38 H 0.46594 0.83543 0.55507 0.0
H39 H 0.41994 0.825 0.62142 0.0
H40 H 0.41647 0.87178 0.6218 0.0
H41 H 0.40874 0.96221 0.59074 0.0
H42 H 0.3962 0.88633 0.56374 0.0
O43 O 0.45699 0.9302 0.56984 0.0
H44 H 0.36587 0.97301 0.58 0.0
H45 H 0.35356 0.89713 0.55252 0.0
C46 C 0.44138 0.92434 0.62056 0.0
C47 C 0.46547 0.93065 0.62872 0.0
C48 C 0.4697 0.93662 0.65361 0.0
C49 C 0.44988 0.93607 0.67078 0.0
C50 C 0.42576 0.92967 0.66243 0.0
C51 C 0.42159 0.92372 0.6376 0.0
C52 C 0.43982 0.88048 0.58922 0.0
C53 C 0.45362 0.8699 0.57043 0.0
C54 C 0.45542 0.84312 0.56999 0.0
C55 C 0.44328 0.82648 0.58825 0.0
C56 C 0.42935 0.83725 0.60697 0.0
C57 C 0.42758 0.86402 0.60737 0.0
C58 C 0.40547 0.92331 0.57862 0.0
C59 C 0.39682 0.94798 0.58228 0.0
C60 C 0.37236 0.95417 0.57597 0.0
C61 C 0.35621 0.93583 0.56562 0.0
C62 C 0.36537 0.9115 0.56093 0.0
C63 C 0.38982 0.90533 0.56731 0.0
P64 P 0.69801 0.32674 0.83142 0.0
H65 H 0.72847 0.30656 0.87298 0.0
H66 H 0.76084 0.3262 0.89851 0.0
H67 H 0.74714 0.40074 0.86067 0.0
H68 H 0.71449 0.38106 0.83565 0.0
H69 H 0.67187 0.28057 0.81617 0.0
H70 H 0.6437 0.24895 0.83791 0.0
H71 H 0.64721 0.2929 0.90396 0.0
H72 H 0.67583 0.32435 0.88205 0.0
H73 H 0.71097 0.35347 0.78339 0.0
H74 H 0.64927 0.35074 0.83488 0.0
O75 O 0.71564 0.30957 0.81343 0.0
H76 H 0.68843 0.38261 0.75422 0.0
H77 H 0.62662 0.38036 0.80591 0.0
C78 C 0.71887 0.34234 0.85262 0.0
C79 C 0.73212 0.32721 0.87054 0.0
C80 C 0.75079 0.33844 0.88495 0.0
C81 C 0.75672 0.36504 0.88153 0.0
C82 C 0.74288 0.38027 0.86399 0.0
C83 C 0.7242 0.36899 0.84959 0.0
C84 C 0.67638 0.30442 0.8477 0.0
C85 C 0.6666 0.28338 0.83535 0.0
C86 C 0.65029 0.26543 0.84775 0.0
C87 C 0.64324 0.26829 0.87275 0.0
C88 C 0.65258 0.28989 0.88486 0.0
C89 C 0.6689 0.3079 0.87236 0.0
C90 C 0.68157 0.34953 0.81101 0.0
C91 C 0.69257 0.35925 0.78845 0.0
C92 C 0.67972 0.37613 0.77188 0.0
C93 C 0.65563 0.38376 0.77765 0.0
C94 C 0.64497 0.37455 0.80071 0.0
C95 C 0.65791 0.35767 0.81733 0.0
P96 P 0.89006 0.6758 0.39998 0.0
H97 H 0.93602 0.70229 0.38371 0.0
H98 H 0.96869 0.72461 0.40647 0.0
H99 H 0.93487 0.69693 0.47689 0.0
H100 H 0.90209 0.67475 0.45394 0.0
H101 H 0.86473 0.66974 0.3525 0.0
H102 H 0.87582 0.64869 0.31464 0.0
H103 H 0.94492 0.62506 0.34966 0.0
H104 H 0.93366 0.64623 0.38754 0.0
H105 H 0.84808 0.68587 0.43157 0.0
H106 H 0.88747 0.61941 0.41062 0.0
O107 O 0.87448 0.70206 0.39049 0.0
H108 H 0.81736 0.65766 0.4538 0.0
H109 H 0.85689 0.59082 0.43332 0.0
C110 C 0.9168 0.68667 0.41711 0.0
C111 C 0.93608 0.70034 0.40406 0.0
C112 C 0.95482 0.713 0.41711 0.0
C113 C 0.95436 0.71252 0.44349 0.0
C114 C 0.93564 0.69771 0.45656 0.0
C115 C 0.91694 0.68496 0.44344 0.0
C116 C 0.89868 0.66009 0.37247 0.0
C117 C 0.88232 0.66014 0.35196 0.0
C118 C 0.88859 0.64794 0.33044 0.0
C119 C 0.91131 0.63538 0.32917 0.0
C120 C 0.92748 0.63497 0.34999 0.0
C121 C 0.92108 0.64704 0.37161 0.0
C122 C 0.86962 0.65468 0.41895 0.0
C123 C 0.85026 0.66515 0.43203 0.0
C124 C 0.83284 0.64895 0.44499 0.0
C125 C 0.83459 0.62192 0.44525 0.0
C126 C 0.85485 0.61153 0.43317 0.0
C127 C 0.87233 0.62784 0.42022 0.0
P128 P 0.8454 0.86053 0.87817 0.0
H129 H 0.81869 0.85834 0.92548 0.0
H130 H 0.77696 0.87026 0.9371 0.0
H131 H 0.75928 0.88735 0.85872 0.0
H132 H 0.80141 0.87565 0.84729 0.0
H133 H 0.892 0.83541 0.87049 0.0
H134 H 0.90776 0.79322 0.88452 0.0
H135 H 0.8356 0.7708 0.91546 0.0
H136 H 0.82004 0.81323 0.9015 0.0
H137 H 0.86407 0.91068 0.85698 0.0
H138 H 0.8456 0.83614 0.82965 0.0
O139 O 0.86231 0.87797 0.8976 0.0
H140 H 0.87994 0.92575 0.8156 0.0
H141 H 0.8616 0.85113 0.78796 0.0
C142 C 0.81321 0.86601 0.88553 0.0
C143 C 0.80572 0.8643 0.91074 0.0
C144 C 0.78174 0.87107 0.91736 0.0
C145 C 0.76461 0.87985 0.89889 0.0
C146 C 0.77203 0.88098 0.8735 0.0
C147 C 0.79609 0.87409 0.86689 0.0
C148 C 0.8548 0.82753 0.88475 0.0
C149 C 0.87941 0.82124 0.87986 0.0
C150 C 0.88841 0.79702 0.8879 0.0
C151 C 0.87302 0.77852 0.90125 0.0
C152 C 0.8481 0.78466 0.90554 0.0
C153 C 0.83909 0.80894 0.89739 0.0
C154 C 0.85408 0.87213 0.84655 0.0
C155 C 0.86333 0.89755 0.84203 0.0
C156 C 0.87254 0.90613 0.81835 0.0
C157 C 0.87243 0.88954 0.79852 0.0
C158 C 0.86197 0.86441 0.80279 0.0
C159 C 0.85288 0.85578 0.82663 0.0
P160 P 0.65881 0.21432 0.352 0.0
H161 H 0.67467 0.23751 0.39786 0.0
H162 H 0.65328 0.26422 0.42647 0.0
H163 H 0.5847 0.25296 0.38544 0.0
H164 H 0.60607 0.22581 0.35731 0.0
H165 H 0.70898 0.20568 0.33478 0.0
H166 H 0.74274 0.17962 0.3522 0.0
H167 H 0.69615 0.15338 0.41521 0.0
H168 H 0.6627 0.18032 0.39798 0.0
H169 H 0.6347 0.22402 0.30338 0.0
H170 H 0.638 0.16143 0.36063 0.0
O171 O 0.67139 0.23808 0.3331 0.0
H172 H 0.60959 0.19671 0.27696 0.0
H173 H 0.61326 0.13372 0.334 0.0
C174 C 0.64188 0.22932 0.37574 0.0
C175 C 0.65487 0.24018 0.39549 0.0
C176 C 0.64267 0.25563 0.41168 0.0
C177 C 0.61731 0.2608 0.40815 0.0
C178 C 0.60414 0.24904 0.3889 0.0
C179 C 0.61637 0.23355 0.37273 0.0
C180 C 0.68356 0.19525 0.36534 0.0
C181 C 0.70612 0.1945 0.35246 0.0
C182 C 0.72533 0.17937 0.36234 0.0
C183 C 0.72219 0.16439 0.38513 0.0
C184 C 0.69935 0.16501 0.39785 0.0
C185 C 0.68018 0.18029 0.38798 0.0
C186 C 0.6388 0.19451 0.33363 0.0
C187 C 0.63008 0.20436 0.31025 0.0
C188 C 0.61575 0.18871 0.29515 0.0
C189 C 0.6098 0.16292 0.30323 0.0
C190 C 0.61753 0.1535 0.32726 0.0
C191 C 0.63187 0.16924 0.3424 0.0
P192 P 0.35721 0.63486 0.16602 0.0
H193 H 0.33702 0.61063 0.12233 0.0
H194 H 0.29479 0.60103 0.10828 0.0
H195 H 0.26568 0.63632 0.17276 0.0
H196 H 0.30835 0.64531 0.18705 0.0
H197 H 0.38832 0.65535 0.12423 0.0
H198 H 0.40171 0.69905 0.1095 0.0
H199 H 0.35874 0.72994 0.16817 0.0
H200 H 0.34524 0.68586 0.18283 0.0
H201 H 0.33882 0.59327 0.20099 0.0
H202 H 0.38559 0.66198 0.20431 0.0
O203 O 0.37582 0.61444 0.15286 0.0
H204 H 0.34841 0.5813 0.24515 0.0
H205 H 0.39462 0.65045 0.2485 0.0
C206 C 0.32578 0.6282 0.15598 0.0
C207 C 0.32158 0.61619 0.13354 0.0
C208 C 0.29735 0.61094 0.12538 0.0
C209 C 0.27675 0.6179 0.13936 0.0
C210 C 0.28109 0.63037 0.16172 0.0
C211 C 0.30543 0.6356 0.16987 0.0
C212 C 0.36625 0.66735 0.15498 0.0
C213 C 0.38176 0.67146 0.13398 0.0
C214 C 0.38927 0.6965 0.12545 0.0
C215 C 0.38138 0.71793 0.13776 0.0
C216 C 0.36538 0.71377 0.15852 0.0
C217 C 0.35763 0.68866 0.16687 0.0
C218 C 0.36087 0.6289 0.1995 0.0
C219 C 0.35059 0.60614 0.21138 0.0
C220 C 0.3562 0.59922 0.23652 0.0
C221 C 0.37213 0.61504 0.25024 0.0
C222 C 0.38196 0.63813 0.23847 0.0
C223 C 0.37667 0.6448 0.21321 0.0
P224 P 0.12693 0.33962 0.63727 0.0
H225 H 0.13142 0.29738 0.60491 0.0
H226 H 0.10104 0.27168 0.58288 0.0
H227 H 0.0429 0.32193 0.60388 0.0
H228 H 0.07369 0.34716 0.6268 0.0
H229 H 0.16766 0.37238 0.65248 0.0
H230 H 0.19392 0.4051 0.63011 0.0
H231 H 0.14925 0.39774 0.56312 0.0
H232 H 0.12328 0.36431 0.58573 0.0
H233 H 0.11255 0.31299 0.68488 0.0
H234 H 0.10856 0.39 0.64957 0.0
O235 O 0.14788 0.31803 0.6471 0.0
H236 H 0.09608 0.32811 0.72377 0.0
H237 H 0.09268 0.40544 0.68854 0.0
C238 C 0.10465 0.32368 0.61797 0.0
C239 C 0.11218 0.30301 0.6046 0.0
C240 C 0.09473 0.2885 0.59171 0.0
C241 C 0.06938 0.29462 0.59164 0.0
C242 C 0.06216 0.31642 0.60389 0.0
C243 C 0.07973 0.33089 0.61693 0.0
C244 C 0.14373 0.36584 0.62072 0.0
C245 C 0.16334 0.37804 0.63306 0.0
C246 C 0.17819 0.39698 0.62026 0.0
C247 C 0.17366 0.40419 0.59477 0.0
C248 C 0.15335 0.3925 0.58266 0.0
C249 C 0.13847 0.37343 0.59558 0.0
C250 C 0.11234 0.35053 0.66467 0.0
C251 C 0.10807 0.33315 0.68552 0.0
C252 C 0.09874 0.34183 0.70773 0.0
C253 C 0.09341 0.36804 0.70934 0.0
C254 C 0.09651 0.38512 0.68789 0.0
C255 C 0.10581 0.37638 0.66567 0.0
Co256 Co 0.99119 1.00226 0.51463 0.0
C257 C 0.01642 0.95594 0.51275 0.0
Co258 Co 0.0279 1.0017 0.53322 0.0
C259 C 0.94687 0.01993 0.48835 0.0
C260 C 0.94475 0.97962 0.49995 0.0
N261 N 0.96016 1.00065 0.49951 0.0
N262 N 0.92369 0.01178 0.48213 0.0
C263 C 0.92237 0.98639 0.48929 0.0
H264 H 0.95362 0.0398 0.48599 0.0
H265 H 0.94916 0.96075 0.50836 0.0
C266 C 1.00298 0.04812 0.53503 0.0
N267 N 0.05854 0.00306 0.54894 0.0
C268 C 0.08063 0.99521 0.54085 0.0
C269 C 0.0635 0.01283 0.57128 0.0
N270 N 0.09923 0.9998 0.55723 0.0
C271 C 0.08846 0.01088 0.57642 0.0
C272 C 0.02957 0.01916 0.48237 0.0
O273 O 0.98571 0.03653 0.52351 0.0
O274 O 0.02274 0.03626 0.5408 0.0
O275 O 0.04275 0.01396 0.50189 0.0
O276 O 1.00605 0.01564 0.48371 0.0
O277 O 0.033 0.96713 0.52552 0.0
H278 H 0.0498 0.02091 0.58306 0.0
H279 H 0.08303 0.98667 0.52308 0.0
O280 O 0.9971 0.96811 0.50592 0.0
O281 O 0.97647 0.9889 0.54557 0.0
O282 O 0.01272 0.9894 0.56439 0.0
C283 C 0.98938 0.98473 0.56537 0.0
H284 H 0.90622 0.9737 0.48744 0.0
H285 H 0.09787 0.01683 0.59316 0.0
Co286 Co 0.49128 0.99947 0.9981 0.0
C287 C 0.487 0.96017 0.0364 0.0
Co288 Co 0.51322 0.00666 0.03207 0.0
C289 C 0.47919 0.99313 0.94607 0.0
C290 C 0.44802 0.9846 0.97034 0.0
N291 N 0.47208 0.99268 0.97033 0.0
N292 N 0.46057 0.98542 0.93095 0.0
C293 C 0.44089 0.98012 0.94618 0.0
H294 H 0.49793 0.99816 0.9398 0.0
H295 H 0.43653 0.98166 0.98693 0.0
C296 C 0.51751 0.046 0.99376 0.0
N297 N 0.53265 0.01342 0.05972 0.0
C298 C 0.52575 0.01536 0.08381 0.0
C299 C 0.55723 0.01933 0.05931 0.0
N300 N 0.54508 0.02238 0.09844 0.0
C301 C 0.56491 0.0248 0.08299 0.0
C302 C 0.53919 0.98086 0.99626 0.0
O303 O 0.50216 0.0318 0.98229 0.0
O304 O 0.52473 0.03847 0.01571 0.0
O305 O 0.5404 0.98938 0.01804 0.0
O306 O 0.51903 0.9832 0.98386 0.0
O307 O 0.50156 0.97483 0.0483 0.0
H308 H 0.5687 0.02053 0.04264 0.0
H309 H 0.50681 0.01221 0.09032 0.0
O310 O 0.4806 0.96722 0.01406 0.0
O311 O 0.46366 0.01576 0.01257 0.0
O312 O 0.48589 0.02387 0.04581 0.0
C313 C 0.46534 0.02524 0.03393 0.0
H314 H 0.42267 0.97333 0.94036 0.0
H315 H 0.58343 0.03136 0.08808 0.0
Co316 Co 0.51898 0.53212 0.52354 0.0
C317 C 0.47929 0.53521 0.48958 0.0
Co318 Co 0.4843 0.51279 0.53767 0.0
C319 C 0.5711 0.54282 0.51278 0.0
C320 C 0.54772 0.57357 0.49944 0.0
N321 N 0.54712 0.54984 0.51142 0.0
N322 N 0.58664 0.56135 0.50224 0.0
C323 C 0.57193 0.58068 0.49379 0.0
H324 H 0.57702 0.52466 0.52171 0.0
H325 H 0.53154 0.58499 0.49517 0.0
C326 C 0.52412 0.50956 0.57152 0.0
N327 N 0.45607 0.49512 0.54972 0.0
C328 C 0.432 0.50089 0.54568 0.0
C329 C 0.4554 0.47253 0.56377 0.0
N330 N 0.41634 0.48276 0.55667 0.0
C331 C 0.43104 0.46492 0.56812 0.0
C332 C 0.51576 0.48135 0.51241 0.0
O333 O 0.53577 0.52268 0.55411 0.0
O334 O 0.50134 0.50341 0.56822 0.0
O335 O 0.4951 0.48207 0.52379 0.0
O336 O 0.52952 0.50167 0.50996 0.0
O337 O 0.46754 0.52236 0.50707 0.0
H338 H 0.4716 0.46194 0.56996 0.0
H339 H 0.42611 0.51798 0.53474 0.0
O340 O 0.50206 0.54136 0.49288 0.0
O341 O 0.50829 0.5625 0.5373 0.0
O342 O 0.47366 0.54359 0.55141 0.0
C343 C 0.48778 0.56367 0.54878 0.0
H344 H 0.57816 0.5986 0.48393 0.0
H345 H 0.42467 0.44716 0.57818 0.0
Co346 Co 0.0177 0.50284 1.00199 0.0
C347 C 0.97082 0.47969 0.99959 0.0
Co348 Co 0.99707 0.50334 0.03746 0.0
C349 C 0.03572 0.48531 0.95551 0.0
C350 C 0.04931 0.52347 0.96206 0.0
N351 N 0.03515 0.50364 0.97225 0.0
N352 N 0.04957 0.49295 0.93515 0.0
C353 C 0.05821 0.51696 0.93929 0.0
H354 H 0.02556 0.46701 0.95795 0.0
H355 H 0.05266 0.54165 0.9705 0.0
C356 C 0.04394 0.52655 0.03985 0.0
N357 N 0.97954 0.50253 0.06712 0.0
C358 C 0.97844 0.52105 0.08361 0.0
C359 C 0.96518 0.48274 0.07711 0.0
N360 N 0.96391 0.51362 0.10351 0.0
C361 C 0.95548 0.48953 0.09945 0.0
C362 C 0.02635 0.45988 0.03431 0.0
O363 O 0.04468 0.52063 0.01714 0.0
O364 O 0.02446 0.52076 0.05265 0.0
O365 O 0.01109 0.47091 0.04794 0.0
O366 O 0.03203 0.47057 0.01285 0.0
O367 O 0.96988 0.48598 0.02216 0.0
H368 H 0.96216 0.46445 0.0688 0.0
H369 H 0.98801 0.53968 0.08097 0.0
O370 O 0.99051 0.48504 0.987 0.0
O371 O 1.00333 0.53501 0.99132 0.0
O372 O 0.98308 0.53583 0.02676 0.0
C373 C 0.98837 0.54625 1.0051 0.0
H374 H 0.07013 0.52902 0.92681 0.0
H375 H 0.94364 0.47745 0.112 0.0
H376 H 0.10555 0.13356 0.27125 0.0
H377 H 0.08339 0.11372 0.30797 0.0
H378 H 0.1492 0.07308 0.33127 0.0
H379 H 0.17133 0.09206 0.29426 0.0
H380 H 0.07782 0.05622 0.32548 0.0
H381 H 0.12825 0.11788 0.39171 0.0
H382 H 0.1258 0.12689 0.35849 0.0
H383 H 0.14678 0.10232 0.36946 0.0
C384 C 0.11525 0.12003 0.28386 0.0
C385 C 0.1404 0.11464 0.27971 0.0
C386 C 0.10255 0.10883 0.30497 0.0
C387 C 0.11473 0.09218 0.32252 0.0
C388 C 0.13954 0.08616 0.31815 0.0
H389 H 0.07923 0.02148 0.4709 0.0
H390 H 0.09898 0.03828 0.43172 0.0
C391 C 0.1522 0.09718 0.29698 0.0
C392 C 0.10176 0.08154 0.34572 0.0
H393 H 0.10094 0.08536 0.40943 0.0
C394 C 0.08277 0.06261 0.34385 0.0
C395 C 0.10835 0.08981 0.36966 0.0
C396 C 0.12829 0.11046 0.37264 0.0
C397 C 0.07054 0.05133 0.36536 0.0
C398 C 0.07697 0.05975 0.38939 0.0
C399 C 0.09593 0.07882 0.39113 0.0
C400 C 0.06458 0.04893 0.41302 0.0
C401 C 0.05143 0.0299 0.36212 0.0
C402 C 0.0386 0.04942 0.41584 0.0
C403 C 0.0272 0.03952 0.4382 0.0
C404 C 0.04156 0.02931 0.45845 0.0
C405 C 0.06757 0.02916 0.45572 0.0
C406 C 0.07892 0.03881 0.43328 0.0
H407 H 0.05417 0.02051 0.34426 0.0
H408 H 0.05216 0.0149 0.37794 0.0
H409 H 0.03258 0.03809 0.36155 0.0
H410 H 0.0271 0.05778 0.40088 0.0
H411 H 0.00715 0.04021 0.43972 0.0
H412 H 0.48005 0.97406 0.68912 0.0
H413 H 0.48668 0.98336 0.73316 0.0
H414 H 0.43568 0.9207 0.75643 0.0
H415 H 0.4296 0.91075 0.71271 0.0
H416 H 0.45139 0.99701 0.76733 0.0
H417 H 0.4959 0.90622 0.80124 0.0
H418 H 0.49281 0.91594 0.76825 0.0
H419 H 0.46696 0.90063 0.7853 0.0
C420 C 0.47056 0.96202 0.70366 0.0
C421 C 0.45431 0.94165 0.69742 0.0
C422 C 0.47426 0.96745 0.72877 0.0
C423 C 0.46196 0.95248 0.74806 0.0
C424 C 0.44573 0.93218 0.74188 0.0
H425 H 0.43352 0.95122 0.90502 0.0
H426 H 0.43582 0.94499 0.86014 0.0
C427 C 0.44203 0.92674 0.71684 0.0
C428 C 0.46511 0.95864 0.77462 0.0
H429 H 0.47981 0.93191 0.83283 0.0
C430 C 0.45795 0.98295 0.78163 0.0
C431 C 0.47376 0.94027 0.79319 0.0
C432 C 0.48304 0.9144 0.78661 0.0
C433 C 0.4581 0.98891 0.80693 0.0
C434 C 0.46584 0.97015 0.82555 0.0
C435 C 0.47375 0.94617 0.81847 0.0
C436 C 0.46459 0.97446 0.85263 0.0
C437 C 0.44902 0.01479 0.8137 0.0
C438 C 0.48012 0.99304 0.86326 0.0
C439 C 0.47878 0.99673 0.88895 0.0
C440 C 0.46187 0.9819 0.90441 0.0
C441 C 0.44643 0.96326 0.89362 0.0
C442 C 0.44785 0.95952 0.868 0.0
H443 H 0.43978 0.02537 0.79758 0.0
H444 H 0.43572 0.01233 0.8296 0.0
H445 H 0.46507 0.02685 0.81973 0.0
H446 H 0.49335 0.00456 0.8517 0.0
H447 H 0.49081 0.01133 0.89667 0.0
H448 H 0.6063 0.37932 0.76491 0.0
H449 H 0.58402 0.40445 0.73192 0.0
H450 H 0.65057 0.45064 0.71521 0.0
H451 H 0.67294 0.42586 0.74835 0.0
H452 H 0.57677 0.45958 0.72385 0.0
H453 H 0.63122 0.41962 0.6478 0.0
H454 H 0.63068 0.40518 0.67955 0.0
H455 H 0.6493 0.43393 0.67198 0.0
C456 C 0.61611 0.3951 0.75452 0.0
C457 C 0.64149 0.40042 0.75914 0.0
C458 C 0.60337 0.40936 0.7356 0.0
C459 C 0.61577 0.4291 0.72088 0.0
C460 C 0.6408 0.43514 0.72605 0.0
H461 H 0.57247 0.51971 0.58505 0.0
H462 H 0.59447 0.50238 0.62249 0.0
C463 C 0.65355 0.42092 0.74496 0.0
C464 C 0.60276 0.44277 0.69957 0.0
H465 H 0.60249 0.45159 0.63556 0.0
C466 C 0.58236 0.45789 0.70453 0.0
C467 C 0.61016 0.44051 0.67442 0.0
C468 C 0.6314 0.42379 0.66797 0.0
C469 C 0.56928 0.47105 0.68496 0.0
C470 C 0.5765 0.46854 0.65977 0.0
C471 C 0.59703 0.45357 0.65487 0.0
C472 C 0.56261 0.48054 0.63808 0.0
C473 C 0.54811 0.48782 0.69148 0.0
C474 C 0.53739 0.47403 0.63438 0.0
C475 C 0.52474 0.48398 0.61308 0.0
C476 C 0.53714 0.50045 0.59488 0.0
C477 C 0.56235 0.50714 0.59872 0.0
C478 C 0.57496 0.49723 0.6201 0.0
H479 H 0.54977 0.49386 0.71103 0.0
H480 H 0.54734 0.50538 0.67844 0.0
H481 H 0.53028 0.47669 0.68996 0.0
H482 H 0.52762 0.46069 0.64765 0.0
H483 H 0.50539 0.47827 0.61062 0.0
H484 H 0.88183 0.60446 0.30125 0.0
H485 H 0.89259 0.58513 0.2623 0.0
H486 H 0.96655 0.61933 0.26569 0.0
H487 H 0.95596 0.63857 0.3048 0.0
H488 H 0.90757 0.60997 0.21739 0.0
H489 H 0.98032 0.54406 0.25541 0.0
H490 H 0.95918 0.55958 0.2754 0.0
H491 H 0.98558 0.57732 0.26181 0.0
C492 C 0.90039 0.60783 0.2937 0.0
C493 C 0.9181 0.62295 0.30607 0.0
C494 C 0.90652 0.59674 0.27151 0.0
C495 C 0.93045 0.60054 0.26131 0.0
C496 C 0.94816 0.61568 0.27357 0.0
H497 H 0.99461 0.54881 0.12412 0.0
H498 H 0.98669 0.57199 0.1617 0.0
C499 C 0.94209 0.62666 0.29587 0.0
C500 C 0.9365 0.58926 0.23742 0.0
H501 H 0.97472 0.54713 0.21124 0.0
C502 C 0.92224 0.59621 0.21604 0.0
C503 C 0.95571 0.57139 0.23575 0.0
C504 C 0.97096 0.56243 0.25834 0.0
C505 C 0.92665 0.58573 0.19298 0.0
C506 C 0.94565 0.5677 0.1914 0.0
C507 C 0.96021 0.56105 0.21261 0.0
C508 C 0.95001 0.55464 0.16814 0.0
C509 C 0.91104 0.59406 0.17044 0.0
C510 C 0.93201 0.53723 0.1595 0.0
C511 C 0.93647 0.52399 0.13813 0.0
C512 C 0.95902 0.52796 0.12503 0.0
C513 C 0.97694 0.54562 0.13363 0.0
C514 C 0.97253 0.55874 0.15514 0.0
H515 H 0.90133 0.61226 0.17322 0.0
H516 H 0.92269 0.59689 0.15329 0.0
H517 H 0.89674 0.57876 0.16724 0.0
H518 H 0.91464 0.53362 0.16951 0.0
H519 H 0.92226 0.51068 0.13181 0.0
H520 H 0.26628 0.08768 0.15177 0.0
H521 H 0.30013 0.06741 0.13067 0.0
H522 H 0.32604 0.14211 0.0994 0.0
H523 H 0.29143 0.1623 0.119 0.0
H524 H 0.32926 0.10837 0.06541 0.0
H525 H 0.37101 0.06588 0.1533 0.0
H526 H 0.33946 0.05486 0.14885 0.0
H527 H 0.34617 0.08846 0.15334 0.0
C528 C 0.27892 0.09982 0.14012 0.0
C529 C 0.27611 0.12679 0.13747 0.0
C530 C 0.29859 0.08819 0.12836 0.0
C531 C 0.3162 0.10323 0.11395 0.0
C532 C 0.31298 0.13001 0.11063 0.0
H533 H 0.46427 0.05468 0.07475 0.0
H534 H 0.42812 0.07382 0.09318 0.0
C535 C 0.29321 0.14161 0.12213 0.0
C536 C 0.33792 0.0913 0.10221 0.0
H537 H 0.38808 0.05345 0.11512 0.0
C538 C 0.34213 0.0964 0.07633 0.0
C539 C 0.35509 0.076 0.11641 0.0
C540 C 0.3529 0.07118 0.14454 0.0
C541 C 0.36278 0.08664 0.0643 0.0
C542 C 0.37942 0.07053 0.07832 0.0
C543 C 0.37529 0.06554 0.10423 0.0
C544 C 0.40147 0.05909 0.06668 0.0
C545 C 0.36689 0.09445 0.03683 0.0
C546 C 0.39873 0.04417 0.04572 0.0
C547 C 0.41947 0.03355 0.03489 0.0
C548 C 0.44344 0.03711 0.04508 0.0
C549 C 0.44612 0.05163 0.06634 0.0
C550 C 0.42541 0.06254 0.07696 0.0
H551 H 0.35756 0.11276 0.03112 0.0
H552 H 0.38701 0.09699 0.03245 0.0
H553 H 0.35885 0.07919 0.02534 0.0
H554 H 0.38048 0.04044 0.03785 0.0
H555 H 0.41664 0.02218 0.01875 0.0
H556 H 0.33658 0.98093 0.54565 0.0
H557 H 0.29253 0.99133 0.54158 0.0
H558 H 0.27176 0.91413 0.57044 0.0
H559 H 0.31564 0.9038 0.57532 0.0
H560 H 0.25248 0.96759 0.51505 0.0
H561 H 0.23802 0.96154 0.6184 0.0
H562 H 0.26858 0.96332 0.60443 0.0
H563 H 0.25092 0.93331 0.60638 0.0
C564 C 0.32263 0.96619 0.55118 0.0
C565 C 0.32962 0.9416 0.56099 0.0
C566 C 0.29751 0.9721 0.54866 0.0
C567 C 0.27897 0.95359 0.55603 0.0
C568 C 0.28583 0.92877 0.56496 0.0
H569 H 0.1188 0.9615 0.53197 0.0
H570 H 0.16272 0.95063 0.52998 0.0
C571 C 0.31092 0.92284 0.5675 0.0
C572 C 0.25248 0.96054 0.55529 0.0
H573 H 0.20228 0.96742 0.59286 0.0
C574 C 0.24145 0.96757 0.53202 0.0
C575 C 0.23832 0.96079 0.57753 0.0
C576 C 0.24956 0.95457 0.60315 0.0
C577 C 0.21643 0.97461 0.53039 0.0
C578 C 0.20214 0.9743 0.5526 0.0
C579 C 0.21327 0.96746 0.57586 0.0
C580 C 0.17573 0.98162 0.55238 0.0
C581 C 0.20565 0.98281 0.50503 0.0
C582 C 0.16849 1.00245 0.56583 0.0
C583 C 0.14347 0.00863 0.56708 0.0
C584 C 0.12514 0.99402 0.55497 0.0
C585 C 0.13249 0.97334 0.54121 0.0
C586 C 0.15757 0.96712 0.54002 0.0
H587 H 0.22042 0.98792 0.49092 0.0
H588 H 0.19409 0.96664 0.49819 0.0
H589 H 0.19357 0.99967 0.50632 0.0
H590 H 0.18224 0.01387 0.5755 0.0
H591 H 0.1385 0.0249 0.57751 0.0
H592 H 0.80241 0.34455 0.89084 0.0
H593 H 0.83796 0.36385 0.91215 0.0
H594 H 0.79541 0.43111 0.92404 0.0
H595 H 0.7596 0.41184 0.90278 0.0
H596 H 0.84259 0.44327 0.90526 0.0
H597 H 0.84746 0.37194 0.98721 0.0
H598 H 0.84767 0.35758 0.95751 0.0
H599 H 0.82063 0.37415 0.96676 0.0
C600 C 0.80043 0.36326 0.89836 0.0
C601 C 0.77806 0.37655 0.89526 0.0
C602 C 0.8208 0.37428 0.91053 0.0
C603 C 0.81922 0.39874 0.92003 0.0
C604 C 0.79699 0.41215 0.91692 0.0
H605 H 0.92558 0.46753 0.02108 0.0
H606 H 0.88885 0.44841 1.00153 0.0
C607 C 0.77658 0.40115 0.9047 0.0
C608 C 0.84107 0.41067 0.93245 0.0
H609 H 0.88208 0.40135 0.98113 0.0
C610 C 0.85116 0.43418 0.92192 0.0
C611 C 0.85206 0.39893 0.95435 0.0
C612 C 0.84128 0.37439 0.96729 0.0
C613 C 0.87225 0.44603 0.93241 0.0
C614 C 0.88379 0.43379 0.95376 0.0
C615 C 0.8734 0.41054 0.96458 0.0
C616 C 0.90635 0.44508 0.9655 0.0
C617 C 0.88173 0.47174 0.92078 0.0
C618 C 0.92855 0.44916 0.95186 0.0
C619 C 0.94962 0.46016 0.96297 0.0
C620 C 0.94891 0.46711 0.988 0.0
C621 C 0.92678 0.46247 1.00175 0.0
C622 C 0.90574 0.45153 0.99061 0.0
H623 H 0.86728 0.48159 0.909 0.0
H624 H 0.88797 0.48473 0.93545 0.0
H625 H 0.89785 0.46861 0.90856 0.0
H626 H 0.92961 0.4438 0.93263 0.0
H627 H 0.9664 0.46332 0.9519 0.0
H628 H 0.81343 0.5789 0.42585 0.0
H629 H 0.77435 0.5568 0.4388 0.0
H630 H 0.76924 0.60546 0.50091 0.0
H631 H 0.80883 0.62692 0.48876 0.0
H632 H 0.74988 0.55415 0.51163 0.0
H633 H 0.71316 0.60057 0.42226 0.0
H634 H 0.73844 0.5791 0.41928 0.0
H635 H 0.74354 0.60875 0.43438 0.0
C636 C 0.80448 0.5843 0.44278 0.0
C637 C 0.81399 0.60503 0.45601 0.0
C638 C 0.78203 0.57177 0.45003 0.0
C639 C 0.76867 0.57994 0.47043 0.0
C640 C 0.7792 0.59902 0.48497 0.0
H641 H 0.61866 0.60251 0.50036 0.0
H642 H 0.66344 0.60243 0.49353 0.0
C643 C 0.8017 0.61143 0.47786 0.0
C644 C 0.74242 0.57147 0.47464 0.0
H645 H 0.68438 0.57901 0.44949 0.0
C646 C 0.73554 0.55914 0.49793 0.0
C647 C 0.72379 0.57836 0.45677 0.0
C648 C 0.72995 0.59259 0.43183 0.0
C649 C 0.71037 0.55421 0.50407 0.0
C650 C 0.69185 0.56178 0.48644 0.0
C651 C 0.69877 0.57317 0.46286 0.0
C652 C 0.66515 0.56089 0.49286 0.0
C653 C 0.7036 0.54218 0.52973 0.0
C654 C 0.65137 0.53747 0.49499 0.0
C655 C 0.62561 0.53747 0.49874 0.0
C656 C 0.61333 0.56091 0.50023 0.0
C657 C 0.62744 0.5842 0.49879 0.0
C658 C 0.65305 0.58417 0.49508 0.0
H659 H 0.72019 0.53912 0.54195 0.0
H660 H 0.69058 0.55468 0.53909 0.0
H661 H 0.69391 0.52323 0.52776 0.0
H662 H 0.66042 0.51933 0.49302 0.0
H663 H 0.61521 0.51925 0.49958 0.0
H664 H 0.13751 0.2846 0.16779 0.0
H665 H 0.11641 0.32054 0.14567 0.0
H666 H 0.10807 0.27648 0.08029 0.0
H667 H 0.12886 0.2401 0.1025 0.0
H668 H 0.13063 0.34809 0.09975 0.0
H669 H 0.03674 0.30103 0.09346 0.0
H670 H 0.06039 0.28878 0.11488 0.0
H671 H 0.06213 0.28332 0.08206 0.0
C672 C 0.13091 0.28234 0.14883 0.0
C673 C 0.13471 0.25928 0.13704 0.0
C674 C 0.119 0.30303 0.13613 0.0
C675 C 0.11041 0.30116 0.11141 0.0
C676 C 0.11424 0.27826 0.09947 0.0
H677 H 0.06348 0.43365 0.01271 0.0
H678 H 0.08391 0.39465 0.02992 0.0
C679 C 0.12631 0.25755 0.11214 0.0
C680 C 0.09785 0.32343 0.09816 0.0
H681 H 0.04201 0.34294 0.07367 0.0
C682 C 0.11129 0.34693 0.09391 0.0
C683 C 0.07254 0.32198 0.09079 0.0
C684 C 0.05695 0.29753 0.09564 0.0
C685 C 0.10014 0.36899 0.08254 0.0
C686 C 0.07488 0.3675 0.075 0.0
C687 C 0.06142 0.344 0.07925 0.0
C688 C 0.06182 0.39049 0.06381 0.0
C689 C 0.11528 0.39393 0.07931 0.0
C690 C 0.04219 0.40078 0.07681 0.0
C691 C 0.03048 0.42305 0.06704 0.0
C692 C 0.03799 0.43545 0.04391 0.0
C693 C 0.05725 0.42469 0.03059 0.0
C694 C 0.06905 0.40245 0.04046 0.0
H695 H 0.13271 0.39323 0.0906 0.0
H696 H 0.1204 0.39763 0.05924 0.0
H697 H 0.10431 0.41043 0.08485 0.0
H698 H 0.03623 0.39185 0.0948 0.0
H699 H 0.01568 0.4307 0.07779 0.0
H700 H 0.60217 0.24294 0.85457 0.0
H701 H 0.57765 0.20743 0.87556 0.0
H702 H 0.62274 0.21267 0.94222 0.0
H703 H 0.64754 0.24801 0.92131 0.0
H704 H 0.59649 0.16021 0.89414 0.0
H705 H 0.5516 0.21015 0.97001 0.0
H706 H 0.5656 0.22739 0.94286 0.0
H707 H 0.58478 0.21508 0.96838 0.0
C708 C 0.60684 0.23661 0.87373 0.0
C709 C 0.62689 0.2483 0.88623 0.0
C710 C 0.59272 0.2164 0.88573 0.0
C711 C 0.59819 0.20758 0.91053 0.0
C712 C 0.61784 0.21952 0.92326 0.0
H713 H 0.5521 0.0793 0.01256 0.0
H714 H 0.57033 0.11871 0.99171 0.0
C715 C 0.63201 0.23974 0.91127 0.0
C716 C 0.58448 0.18475 0.92244 0.0
H717 H 0.54876 0.16416 0.97306 0.0
C718 C 0.58585 0.16109 0.91127 0.0
C719 C 0.57072 0.18596 0.94484 0.0
C720 C 0.56784 0.21105 0.95715 0.0
C721 C 0.57441 0.13844 0.92224 0.0
C722 C 0.56077 0.13959 0.94475 0.0
C723 C 0.55918 0.16332 0.95579 0.0
C724 C 0.54876 0.11619 0.95756 0.0
C725 C 0.57775 0.11332 0.91009 0.0
C726 C 0.53022 0.1019 0.94545 0.0
C727 C 0.51981 0.07925 0.95728 0.0
C728 C 0.5276 0.07059 0.98154 0.0
C729 C 0.54569 0.08535 0.99385 0.0
C730 C 0.55613 0.10793 0.98199 0.0
H731 H 0.5936 0.11458 0.89674 0.0
H732 H 0.58094 0.09726 0.92447 0.0
H733 H 0.56064 0.10852 0.89944 0.0
H734 H 0.52389 0.10821 0.92679 0.0
H735 H 0.50581 0.06843 0.94734 0.0
H736 H 0.94144 0.74369 0.47997 0.0
H737 H 0.96566 0.77984 0.49512 0.0
H738 H 0.02882 0.75906 0.45202 0.0
H739 H 1.00438 0.72274 0.43637 0.0
H740 H 0.01025 0.78886 0.51945 0.0
H741 H 0.0123 0.82985 0.42008 0.0
H742 H 0.99373 0.80144 0.42964 0.0
H743 H 0.02687 0.79941 0.42662 0.0
C744 C 0.96072 0.74624 0.47429 0.0
C745 C 0.97092 0.73054 0.45674 0.0
C746 C 0.97455 0.767 0.48293 0.0
C747 C 0.99885 0.77245 0.47428 0.0
C748 C 0.00989 0.7555 0.45848 0.0
H749 H 0.05468 0.92332 0.52488 0.0
H750 H 0.05729 0.87775 0.51552 0.0
C751 C 0.99595 0.73477 0.44961 0.0
C752 C 0.01088 0.79759 0.47944 0.0
H753 H 0.02348 0.85748 0.45115 0.0
C754 C 0.01377 0.80377 0.50455 0.0
C755 C 0.0153 0.81699 0.45988 0.0
C756 C 0.01179 0.81179 0.43253 0.0
C757 C 0.01919 0.82924 0.51067 0.0
C758 C 0.02217 0.84883 0.49111 0.0
C759 C 0.0212 0.8423 0.46604 0.0
C760 C 0.02192 0.87654 0.49602 0.0
C761 C 0.01975 0.83537 0.53794 0.0
C762 C 1.00148 0.89096 0.48765 0.0
C763 C 0.99998 0.91682 0.49279 0.0
C764 C 0.01894 0.92885 0.50644 0.0
C765 C 0.03972 0.91453 0.51442 0.0
C766 C 0.04121 0.88852 0.5092 0.0
H767 H 0.01436 0.81835 0.55071 0.0
H768 H 0.03883 0.84194 0.54304 0.0
H769 H 0.00698 0.85126 0.54109 0.0
H770 H 0.98639 0.88203 0.47746 0.0
H771 H 0.98375 0.92725 0.48632 0.0
H772 H 0.48441 0.799 0.5788 0.0
H773 H 0.48714 0.75222 0.57696 0.0
H774 H 0.40929 0.74266 0.59551 0.0
H775 H 0.40617 0.78956 0.59661 0.0
H776 H 0.47626 0.71288 0.61521 0.0
H777 H 0.41576 0.70402 0.53094 0.0
H778 H 0.42869 0.73469 0.53961 0.0
H779 H 0.40269 0.71984 0.55658 0.0
C780 C 0.46779 0.78699 0.58222 0.0
C781 C 0.44504 0.79802 0.58769 0.0
C782 C 0.46943 0.76026 0.58136 0.0
C783 C 0.44836 0.74405 0.58584 0.0
C784 C 0.42568 0.75489 0.59166 0.0
H785 H 0.44235 0.57645 0.56697 0.0
H786 H 0.4303 0.61891 0.57991 0.0
C787 C 0.42401 0.78166 0.59252 0.0
C788 C 0.45036 0.71583 0.58428 0.0
H789 H 0.43317 0.66592 0.54869 0.0
C790 C 0.46666 0.70254 0.60083 0.0
C791 C 0.43763 0.70239 0.56563 0.0
C792 C 0.42032 0.7159 0.54702 0.0
C793 C 0.47117 0.67629 0.59873 0.0
C794 C 0.45934 0.66316 0.57936 0.0
C795 C 0.44216 0.6761 0.56355 0.0
C796 C 0.46666 0.63702 0.57339 0.0
C797 C 0.48891 0.66294 0.61698 0.0
C798 C 0.49099 0.63331 0.56535 0.0
C799 C 0.49785 0.60932 0.55787 0.0
C800 C 0.48049 0.58849 0.55822 0.0
C801 C 0.45616 0.5921 0.56662 0.0
C802 C 0.44924 0.61629 0.57398 0.0
H803 H 0.49027 0.67279 0.63483 0.0
H804 H 0.48305 0.64242 0.62131 0.0
H805 H 0.50775 0.66339 0.60852 0.0
H806 H 0.50456 0.64921 0.56426 0.0
H807 H 0.51673 0.60723 0.55147 0.0
H808 H 0.91655 0.91632 0.79034 0.0
H809 H 0.93547 0.93132 0.75015 0.0
H810 H 0.87392 0.89738 0.71063 0.0
H811 H 0.8547 0.88238 0.75089 0.0
H812 H 0.94793 0.89903 0.70805 0.0
H813 H 0.88011 0.9755 0.68244 0.0
H814 H 0.88425 0.96246 0.7144 0.0
H815 H 0.86762 0.94387 0.69224 0.0
C816 C 0.9069 0.91221 0.77312 0.0
C817 C 0.88398 0.89831 0.77388 0.0
C818 C 0.91783 0.92067 0.75016 0.0
C819 C 0.90601 0.9157 0.7274 0.0
C820 C 0.88325 0.90166 0.72799 0.0
H821 H 0.94168 0.96559 0.57186 0.0
H822 H 0.92195 0.94786 0.61073 0.0
C823 C 0.87237 0.89295 0.751 0.0
C824 C 0.91769 0.92514 0.70313 0.0
H825 H 0.91163 0.96929 0.65315 0.0
C826 C 0.94002 0.91437 0.696 0.0
C827 C 0.90727 0.94506 0.6874 0.0
C828 C 0.88357 0.95761 0.69443 0.0
C829 C 0.95209 0.9228 0.67343 0.0
C830 C 0.94198 0.94317 0.65789 0.0
C831 C 0.9195 0.95377 0.665 0.0
C832 C 0.95432 0.95376 0.6342 0.0
C833 C 0.97523 0.90931 0.66624 0.0
C834 C 0.97907 0.96335 0.63432 0.0
C835 C 0.99051 0.97328 0.61201 0.0
C836 C 0.97733 0.97428 0.58913 0.0
C837 C 0.95242 0.96512 0.58913 0.0
C838 C 0.94108 0.95497 0.61138 0.0
H839 H 0.97598 0.88956 0.67558 0.0
H840 H 0.97625 0.90783 0.6456 0.0
H841 H 0.99187 0.92046 0.67231 0.0
H842 H 0.98952 0.96339 0.65172 0.0
H843 H 0.00963 0.9804 0.61276 0.0
H844 H 0.57186 0.12712 0.31384 0.0
H845 H 0.55141 0.09845 0.28464 0.0
H846 H 0.59863 0.13093 0.22474 0.0
H847 H 0.61899 0.15939 0.25355 0.0
H848 H 0.54819 0.12767 0.21176 0.0
H849 H 0.58189 0.03462 0.25577 0.0
H850 H 0.56546 0.05521 0.27545 0.0
H851 H 0.59543 0.06545 0.26321 0.0
C852 C 0.5779 0.12801 0.29445 0.0
C853 C 0.59693 0.14562 0.28594 0.0
C854 C 0.56624 0.11163 0.27784 0.0
C855 C 0.57362 0.1125 0.25259 0.0
C856 C 0.59256 0.13007 0.24413 0.0
H857 H 0.58357 0.02235 0.13136 0.0
H858 H 0.58461 0.04129 0.1719 0.0
C859 C 0.6041 0.14641 0.2606 0.0
C860 C 0.56198 0.09535 0.23449 0.0
H861 H 0.56105 0.0332 0.21712 0.0
C862 C 0.55053 0.10692 0.21307 0.0
C863 C 0.56516 0.06834 0.23638 0.0
C864 C 0.57776 0.05504 0.25883 0.0
C865 C 0.54368 0.09252 0.19268 0.0
C866 C 0.54782 0.06563 0.19407 0.0
C867 C 0.55781 0.05378 0.21619 0.0
C868 C 0.5456 0.05051 0.17151 0.0
C869 C 0.53382 0.10662 0.16916 0.0
C870 C 0.52309 0.04843 0.15824 0.0
C871 C 0.52255 0.03806 0.13468 0.0
C872 C 0.5445 0.02934 0.12417 0.0
C873 C 0.5665 0.02955 0.13853 0.0
C874 C 0.56706 0.04011 0.16189 0.0
H875 H 0.53599 0.12794 0.16972 0.0
H876 H 0.54358 0.10068 0.15227 0.0
H877 H 0.51371 0.10178 0.16709 0.0
H878 H 0.50617 0.05581 0.16561 0.0
H879 H 0.50524 0.03813 0.12425 0.0
H880 H 0.39022 0.5685 0.26686 0.0
H881 H 0.40561 0.55553 0.30888 0.0
H882 H 0.38655 0.62967 0.33431 0.0
H883 H 0.37209 0.64308 0.29187 0.0
H884 H 0.43049 0.61814 0.35049 0.0
H885 H 0.3696 0.53189 0.3713 0.0
H886 H 0.38652 0.52912 0.34281 0.0
H887 H 0.36434 0.55432 0.34463 0.0
C888 C 0.38899 0.58187 0.28154 0.0
C889 C 0.3798 0.60671 0.27621 0.0
C890 C 0.39766 0.5744 0.30561 0.0
C891 C 0.39674 0.59136 0.32502 0.0
C892 C 0.38734 0.61616 0.31973 0.0
H893 H 0.42923 0.53762 0.48063 0.0
H894 H 0.4085 0.55266 0.44159 0.0
C895 C 0.37908 0.62381 0.29552 0.0
C896 C 0.40694 0.58381 0.35038 0.0
H897 H 0.4063 0.5353 0.39697 0.0
C898 C 0.42496 0.60015 0.36077 0.0
C899 C 0.39947 0.56058 0.36411 0.0
C900 C 0.37872 0.54315 0.35525 0.0
C901 C 0.4362 0.59361 0.38406 0.0
C902 C 0.43 0.56953 0.39694 0.0
C903 C 0.41142 0.55355 0.38695 0.0
C904 C 0.44263 0.56047 0.42068 0.0
C905 C 0.45432 0.61284 0.39471 0.0
C906 C 0.4687 0.55941 0.42189 0.0
C907 C 0.48058 0.55127 0.44429 0.0
C908 C 0.46661 0.54334 0.46578 0.0
C909 C 0.4405 0.54362 0.46437 0.0
C910 C 0.42863 0.55221 0.44207 0.0
H911 H 0.45053 0.6329 0.38738 0.0
H912 H 0.45352 0.61199 0.41555 0.0
H913 H 0.47348 0.6085 0.389 0.0
H914 H 0.47991 0.56478 0.40547 0.0
H915 H 0.50072 0.55095 0.44468 0.0
H916 H 0.11305 0.3553 0.75563 0.0
H917 H 0.10343 0.37348 0.79539 0.0
H918 H 0.04904 0.42204 0.75789 0.0
H919 H 0.05804 0.40339 0.71806 0.0
H920 H 0.10931 0.42568 0.80426 0.0
H921 H 0.01178 0.39053 0.82047 0.0
H922 H 0.03217 0.37644 0.79866 0.0
H923 H 0.0174 0.40636 0.78994 0.0
C924 C 0.09862 0.3694 0.75591 0.0
C925 C 0.08622 0.37784 0.7337 0.0
C926 C 0.09328 0.37989 0.77862 0.0
C927 C 0.07537 0.39888 0.77959 0.0
C928 C 0.06264 0.40708 0.75759 0.0
H929 H 0.06064 0.51303 0.88813 0.0
H930 H 0.06728 0.48923 0.85093 0.0
C931 C 0.06799 0.39661 0.73482 0.0
C932 C 0.07132 0.41138 0.80328 0.0
H933 H 0.02731 0.42274 0.84677 0.0
C934 C 0.09143 0.42493 0.81364 0.0
C935 C 0.04803 0.41012 0.81555 0.0
C936 C 0.02614 0.39489 0.80576 0.0
C937 C 0.08872 0.43777 0.83572 0.0
C938 C 0.06522 0.43726 0.8475 0.0
C939 C 0.04524 0.42322 0.8375 0.0
C940 C 0.06101 0.45154 0.87007 0.0
C941 C 0.11105 0.45166 0.84634 0.0
C942 C 0.05488 0.43819 0.89302 0.0
C943 C 0.05121 0.45174 0.91442 0.0
C944 C 0.05343 0.47889 0.91315 0.0
C945 C 0.05928 0.49215 0.88995 0.0
C946 C 0.06299 0.47859 0.86862 0.0
H947 H 0.12877 0.44506 0.83865 0.0
H948 H 0.10983 0.4727 0.84137 0.0
H949 H 0.11159 0.44869 0.86715 0.0
H950 H 0.05325 0.41728 0.89443 0.0
H951 H 0.04697 0.4409 0.93198 0.0
H952 H 0.73353 0.8585 0.93599 0.0
H953 H 0.69432 0.87501 0.95031 0.0
H954 H 0.69934 0.93756 0.893 0.0
H955 H 0.73906 0.92167 0.87908 0.0
H956 H 0.6881 0.95456 0.93876 0.0
H957 H 0.62537 0.87164 0.91926 0.0
H958 H 0.65162 0.86251 0.93844 0.0
H959 H 0.65644 0.87542 0.90662 0.0
C960 C 0.72634 0.87577 0.92637 0.0
C961 C 0.73959 0.88871 0.90633 0.0
C962 C 0.70369 0.88503 0.93442 0.0
C963 C 0.69359 0.90736 0.92254 0.0
C964 C 0.70662 0.9202 0.90238 0.0
H965 H 0.54397 0.96268 0.94932 0.0
H966 H 0.58111 0.94535 0.93086 0.0
C967 C 0.72927 0.91094 0.8943 0.0
C968 C 0.67015 0.91803 0.93196 0.0
H969 H 0.609 0.9029 0.94513 0.0
C970 C 0.67078 0.94329 0.94 0.0
C971 C 0.64738 0.90353 0.93333 0.0
C972 C 0.64501 0.87687 0.92372 0.0
C973 C 0.64957 0.95417 0.94989 0.0
C974 C 0.62709 0.93926 0.95227 0.0
C975 C 0.62626 0.91425 0.94362 0.0
C976 C 0.60432 0.94929 0.96373 0.0
C977 C 0.65138 0.9817 0.9574 0.0
C978 C 0.60476 0.95684 0.98855 0.0
C979 C 0.58357 0.96679 0.99914 0.0
C980 C 0.56133 0.96924 0.98525 0.0
C981 C 0.56075 0.96111 0.96058 0.0
C982 C 0.582 0.95118 0.94998 0.0
H983 H 0.66717 0.99262 0.94792 0.0
H984 H 0.63396 0.992 0.95281 0.0
H985 H 0.65454 0.98166 0.97798 0.0
H986 H 0.62153 0.95504 0.99978 0.0
H987 H 0.58471 0.97269 0.01823 0.0
H988 H 0.75404 0.13564 0.35934 0.0
H989 H 0.78848 0.11011 0.37618 0.0
H990 H 0.77064 0.12995 0.45112 0.0
H991 H 0.73683 0.15659 0.4343 0.0
H992 H 0.82044 0.13466 0.44156 0.0
H993 H 0.78341 0.0398 0.41387 0.0
H994 H 0.78595 0.0636 0.38795 0.0
H995 H 0.76469 0.06813 0.41312 0.0
C996 C 0.75754 0.13477 0.37939 0.0
C997 C 0.74264 0.14817 0.39548 0.0
C998 C 0.77704 0.11988 0.38901 0.0
C999 C 0.78184 0.11778 0.41493 0.0
C1000 C 0.76711 0.13117 0.43106 0.0
H1001 H 0.87461 0.00408 0.49171 0.0
H1002 H 0.8406 0.03065 0.47564 0.0
C1003 C 0.74767 0.14621 0.42144 0.0
C1004 C 0.80259 0.10208 0.42514 0.0
H1005 H 0.82547 0.0413 0.42797 0.0
C1006 C 0.82152 0.11422 0.4387 0.0
C1007 C 0.80376 0.07535 0.42165 0.0
C1008 C 0.78325 0.06087 0.40858 0.0
C1009 C 0.8418 0.10041 0.44859 0.0
C1010 C 0.84343 0.0739 0.44428 0.0
C1011 C 0.82433 0.06171 0.43099 0.0
C1012 C 0.86435 0.05816 0.45405 0.0
C1013 C 0.86097 0.11422 0.46401 0.0
C1014 C 0.88901 0.06468 0.44706 0.0
C1015 C 0.90854 0.04952 0.45632 0.0
C1016 C 0.90368 0.02738 0.47239 0.0
C1017 C 0.87893 0.02079 0.47908 0.0
C1018 C 0.85948 0.03603 0.47002 0.0
H1019 H 0.85357 0.13205 0.47126 0.0
H1020 H 0.8674 0.1015 0.48019 0.0
H1021 H 0.87731 0.11992 0.45206 0.0
H1022 H 0.89313 0.08133 0.43427 0.0
H1023 H 0.92739 0.05486 0.45061 0.0
H1024 H 0.23647 0.60016 0.16773 0.0
H1025 H 0.19513 0.58699 0.15271 0.0
H1026 H 0.21753 0.60798 0.07643 0.0
H1027 H 0.25862 0.6217 0.0912 0.0
H1028 H 0.15877 0.61643 0.11948 0.0
H1029 H 0.1954 0.52915 0.07907 0.0
H1030 H 0.21213 0.54632 0.10257 0.0
H1031 H 0.21189 0.55906 0.07043 0.0
C1032 C 0.23249 0.60239 0.1478 0.0
C1033 C 0.251 0.61173 0.13066 0.0
C1034 C 0.20889 0.59475 0.13926 0.0
C1035 C 0.20345 0.5962 0.11346 0.0
C1036 C 0.22152 0.60636 0.0964 0.0
H1037 H 0.08625 0.54536 0.01626 0.0
H1038 H 0.12366 0.56355 0.03526 0.0
C1039 C 0.24503 0.61407 0.10489 0.0
C1040 C 0.17926 0.5862 0.10412 0.0
H1041 H 0.15362 0.53905 0.06961 0.0
C1042 C 0.15752 0.59943 0.10871 0.0
C1043 C 0.17779 0.56402 0.09011 0.0
C1044 C 0.20047 0.54862 0.08536 0.0
C1045 C 0.13439 0.5915 0.09891 0.0
C1046 C 0.13297 0.56945 0.08461 0.0
C1047 C 0.15472 0.55601 0.08046 0.0
C1048 C 0.10935 0.56013 0.07323 0.0
C1049 C 0.11187 0.60728 0.10323 0.0
C1050 C 0.08874 0.55226 0.08822 0.0
C1051 C 0.06717 0.54197 0.07735 0.0
C1052 C 0.06596 0.53907 0.05132 0.0
C1053 C 0.08654 0.54726 0.03636 0.0
C1054 C 0.10798 0.55767 0.0472 0.0
H1055 H 0.1172 0.62701 0.10866 0.0
H1056 H 0.09998 0.60899 0.08615 0.0
H1057 H 0.10065 0.5976 0.11873 0.0
H1058 H 0.08954 0.55343 0.1084 0.0
H1059 H 0.0517 0.5357 0.08942 0.0
H1060 H 0.19746 0.44762 0.61067 0.0
H1061 H 0.23456 0.46905 0.59239 0.0
H1062 H 0.22757 0.42305 0.5281 0.0
H1063 H 0.1913 0.4003 0.54711 0.0
H1064 H 0.27033 0.41649 0.54892 0.0
H1065 H 0.25767 0.52151 0.53943 0.0
H1066 H 0.24871 0.50952 0.57042 0.0
H1067 H 0.23164 0.49883 0.54361 0.0
C1068 C 0.20353 0.44237 0.59242 0.0
C1069 C 0.19172 0.42183 0.58065 0.0
C1070 C 0.22456 0.45502 0.58172 0.0
C1071 C 0.23387 0.44781 0.55875 0.0
C1072 C 0.2207 0.429 0.54582 0.0
H1073 H 0.3871 0.50258 0.51879 0.0
H1074 H 0.34181 0.49643 0.51489 0.0
C1075 C 0.19984 0.41608 0.55667 0.0
C1076 C 0.25956 0.45603 0.55109 0.0
H1077 H 0.30048 0.50778 0.5488 0.0
C1078 C 0.27671 0.43655 0.54818 0.0
C1079 C 0.26806 0.48218 0.54985 0.0
C1080 C 0.25042 0.50416 0.55072 0.0
C1081 C 0.30223 0.44231 0.54609 0.0
C1082 C 0.3109 0.46813 0.54747 0.0
C1083 C 0.29375 0.48791 0.5483 0.0
C1084 C 0.33771 0.47427 0.5505 0.0
C1085 C 0.31983 0.42052 0.54348 0.0
C1086 C 0.3501 0.46454 0.57214 0.0
C1087 C 0.37577 0.46803 0.57444 0.0
C1088 C 0.38959 0.48143 0.55518 0.0
C1089 C 0.37695 0.49226 0.53399 0.0
C1090 C 0.35114 0.48871 0.53168 0.0
H1091 H 0.31029 0.40364 0.53544 0.0
H1092 H 0.33589 0.42686 0.53134 0.0
H1093 H 0.32709 0.41409 0.56232 0.0
H1094 H 0.33991 0.45374 0.58707 0.0
H1095 H 0.38487 0.45996 0.59121 0.0
H1096 H 0.86394 0.7529 0.94722 0.0
H1097 H 0.88298 0.71351 0.96516 0.0
H1098 H 0.92475 0.70817 0.89704 0.0
H1099 H 0.90571 0.74743 0.87888 0.0
H1100 H 0.88334 0.66338 0.94912 0.0
H1101 H 0.97913 0.70602 0.95083 0.0
H1102 H 0.95205 0.72546 0.94572 0.0
H1103 H 0.96456 0.70864 0.92043 0.0
C1104 C 0.87694 0.74321 0.93589 0.0
C1105 C 0.88337 0.75354 0.91161 0.0
C1106 C 0.88793 0.72073 0.94626 0.0
C1107 C 0.90569 0.70812 0.93268 0.0
C1108 C 0.91159 0.7179 0.90817 0.0
H1109 H 0.99561 0.57285 0.95953 0.0
H1110 H 0.97509 0.6118 0.94284 0.0
C1111 C 0.90064 0.74037 0.89779 0.0
C1112 C 0.91805 0.68479 0.94414 0.0
H1113 H 0.9749 0.66077 0.96042 0.0
C1114 C 0.90334 0.66285 0.95173 0.0
C1115 C 0.94417 0.68408 0.94758 0.0
C1116 C 0.96092 0.70737 0.94095 0.0
C1117 C 0.91407 0.64006 0.96205 0.0
C1118 C 0.94021 0.6393 0.96533 0.0
C1119 C 0.95489 0.66131 0.95789 0.0
C1120 C 0.95279 0.61573 0.97593 0.0
C1121 C 0.89736 0.61675 0.96867 0.0
C1122 C 0.94746 0.60512 1.00032 0.0
C1123 C 0.9592 0.58277 0.00997 0.0
C1124 C 0.97663 0.57061 0.99547 0.0
C1125 C 0.98226 0.58161 0.97124 0.0
C1126 C 0.97054 0.60392 0.96164 0.0
H1127 H 0.87894 0.61831 0.95923 0.0
H1128 H 0.90606 0.59875 0.96337 0.0
H1129 H 0.89421 0.6151 0.98926 0.0
H1130 H 0.93426 0.61418 0.01195 0.0
H1131 H 0.95448 0.57493 0.02874 0.0
H1132 H 0.39944 0.75624 0.16634 0.0
H1133 H 0.41649 0.79897 0.15158 0.0
H1134 H 0.40099 0.78176 0.07499 0.0
H1135 H 0.38381 0.73919 0.08955 0.0
H1136 H 0.45777 0.80767 0.11523 0.0
H1137 H 0.37018 0.85404 0.08346 0.0
H1138 H 0.37063 0.82623 0.10572 0.0
H1139 H 0.37472 0.82236 0.07281 0.0
C1140 C 0.39934 0.76174 0.14639 0.0
C1141 C 0.39028 0.74439 0.12909 0.0
C1142 C 0.4092 0.78605 0.138 0.0
C1143 C 0.40981 0.79354 0.11223 0.0
C1144 C 0.40044 0.77643 0.09497 0.0
H1145 H 0.45994 0.92251 0.01431 0.0
H1146 H 0.44224 0.8824 0.03416 0.0
C1147 C 0.39079 0.75207 0.1033 0.0
C1148 C 0.42114 0.81879 0.10316 0.0
H1149 H 0.40798 0.87606 0.07138 0.0
C1150 C 0.44692 0.82278 0.10585 0.0
C1151 C 0.40688 0.83832 0.09087 0.0
C1152 C 0.37903 0.83523 0.08815 0.0
C1153 C 0.45899 0.8455 0.09575 0.0
C1154 C 0.44476 0.86497 0.08317 0.0
C1155 C 0.41888 0.86112 0.08097 0.0
C1156 C 0.45634 0.8891 0.07132 0.0
C1157 C 0.48696 0.84798 0.09779 0.0
C1158 C 0.47017 0.90628 0.08561 0.0
C1159 C 0.48055 0.9292 0.07424 0.0
C1160 C 0.47699 0.93549 0.04843 0.0
C1161 C 0.46307 0.91826 0.03422 0.0
C1162 C 0.45288 0.89533 0.04555 0.0
H1163 H 0.4955 0.82892 0.10199 0.0
H1164 H 0.49517 0.85702 0.08015 0.0
H1165 H 0.49194 0.86042 0.1133 0.0
H1166 H 0.47262 0.90218 0.10563 0.0
H1167 H 0.49098 0.94217 0.08575 0.0
H1168 H 0.023 0.28027 0.61007 0.0
H1169 H 0.99686 0.24376 0.59814 0.0
H1170 H 0.0481 0.23032 0.53877 0.0
H1171 H 0.07319 0.26795 0.5492 0.0
H1172 H 1.00176 0.21614 0.52606 0.0
H1173 H 0.02308 0.17526 0.62282 0.0
H1174 H 1.00506 0.20387 0.62095 0.0
H1175 H 0.0368 0.20542 0.61028 0.0
C1176 C 0.02824 0.2702 0.59385 0.0
C1177 C 0.05065 0.2766 0.58105 0.0
C1178 C 0.01341 0.24907 0.58728 0.0
C1179 C 0.02106 0.23368 0.56824 0.0
C1180 C 0.04199 0.24165 0.55381 0.0
H1181 H 0.03847 0.07843 0.55578 0.0
H1182 H 0.03638 0.12379 0.564 0.0
C1183 C 0.05653 0.26302 0.56001 0.0
C1184 C 0.00972 0.20763 0.56529 0.0
H1185 H 1.00533 0.14734 0.59503 0.0
C1186 C 1.00206 0.20113 0.54122 0.0
C1187 C 0.01027 0.18806 0.58513 0.0
C1188 C 0.0194 0.19333 0.6112 0.0
C1189 C 0.99666 0.17535 0.53605 0.0
C1190 C 0.99835 0.15574 0.55566 0.0
C1191 C 1.00407 0.16251 0.58008 0.0
C1192 C 0.99849 0.12798 0.55072 0.0
C1193 C 0.991 0.16912 0.50934 0.0
C1194 C 0.97776 0.11515 0.54065 0.0
C1195 C 0.97898 0.08902 0.53566 0.0
C1196 C 1.00086 0.0754 0.54095 0.0
C1197 C 0.02132 0.08829 0.55148 0.0
C1198 C 0.02015 0.11426 0.55624 0.0
H1199 H 0.99402 0.18614 0.49581 0.0
H1200 H 1.00283 0.15329 0.50373 0.0
H1201 H 0.97127 0.16248 0.50792 0.0
H1202 H 0.96072 0.12528 0.53665 0.0
H1203 H 0.96287 0.07956 0.52763 0.0
H1204 H 0.63702 0.30744 0.41986 0.0
H1205 H 0.61634 0.3418 0.43997 0.0
H1206 H 0.54957 0.29396 0.44824 0.0
H1207 H 0.57035 0.25905 0.42843 0.0
H1208 H 0.56952 0.36322 0.4191 0.0
H1209 H 0.5628 0.32476 0.51903 0.0
H1210 H 0.58582 0.31382 0.49789 0.0
H1211 H 0.55386 0.30366 0.49482 0.0
C1212 C 0.61815 0.30391 0.4265 0.0
C1213 C 0.60535 0.28046 0.42265 0.0
C1214 C 0.60632 0.32365 0.43782 0.0
C1215 C 0.58154 0.3203 0.44565 0.0
C1216 C 0.56881 0.29674 0.4425 0.0
H1217 H 0.4906 0.4346 0.51339 0.0
H1218 H 0.50444 0.39462 0.49656 0.0
C1219 C 0.58064 0.27694 0.43106 0.0
C1220 C 0.56869 0.34232 0.45535 0.0
H1221 H 0.54694 0.36604 0.50893 0.0
C1222 C 0.56442 0.36382 0.4387 0.0
C1223 C 0.56188 0.3428 0.48084 0.0
C1224 C 0.56635 0.32013 0.49934 0.0
C1225 C 0.55393 0.38612 0.447 0.0
C1226 C 0.54811 0.38709 0.47274 0.0
C1227 C 0.55156 0.36524 0.48924 0.0
C1228 C 0.53967 0.41112 0.48302 0.0
C1229 C 0.54922 0.40844 0.42812 0.0
C1230 C 0.55508 0.43345 0.48127 0.0
C1231 C 0.54725 0.45627 0.49073 0.0
C1232 C 0.5239 0.45712 0.50235 0.0
C1233 C 0.50863 0.43459 0.50443 0.0
C1234 C 0.5165 0.41174 0.49489 0.0
H1235 H 0.54756 0.40195 0.40873 0.0
H1236 H 0.53199 0.41844 0.43266 0.0
H1237 H 0.56509 0.4226 0.42844 0.0
H1238 H 0.57327 0.4332 0.47266 0.0
H1239 H 0.55956 0.4732 0.48902 0.0
loop_
_geom_bond_atom_site_label_1
_geom_bond_atom_site_label_2
_geom_bond_distance
_geom_bond_site_symmetry_2
_ccdc_geom_bond_type
P0 O11 1.490 . S
P0 C14 1.812 . S
P0 C20 1.803 . S
P0 C26 1.819 . S
H1 C15 0.941 . S
H2 C16 0.939 . S
H3 C18 0.940 . S
H4 C19 0.940 . S
H5 C21 0.939 . S
H6 C22 0.942 . S
H7 C24 0.940 . S
H8 C25 0.939 . S
H9 C27 0.941 . S
H10 C31 0.939 . S
O11 P0 1.490 . S
H12 C28 0.939 . S
H13 C30 0.940 . S
C14 P0 1.812 . S
C14 C15 1.389 . S
C14 C19 1.391 . S
C15 H1 0.941 . S
C15 C14 1.389 . S
C15 C16 1.397 . S
C16 H2 0.939 . S
C16 C15 1.397 . S
C16 C17 1.378 . S
C17 C16 1.378 . S
C17 C18 1.378 . S
C18 H3 0.940 . S
C18 C17 1.378 . S
C18 C19 1.396 . S
C19 H4 0.940 . S
C19 C14 1.391 . S
C19 C18 1.396 . S
C20 P0 1.803 . S
C20 C21 1.378 . S
C20 C25 1.400 . S
C21 H5 0.939 . S
C21 C20 1.378 . S
C21 C22 1.361 . S
C22 H6 0.942 . S
C22 C21 1.361 . S
C22 C23 1.369 . S
C23 C22 1.369 . S
C23 C24 1.404 . S
C24 H7 0.940 . S
C24 C23 1.404 . S
C24 C25 1.389 . S
C25 H8 0.939 . S
C25 C20 1.400 . S
C25 C24 1.389 . S
C26 P0 1.819 . S
C26 C27 1.391 . S
C26 C31 1.391 . S
C27 H9 0.941 . S
C27 C26 1.391 . S
C27 C28 1.396 . S
C28 H12 0.939 . S
C28 C27 1.396 . S
C28 C29 1.397 . S
C29 C28 1.397 . S
C29 C30 1.385 . S
C30 H13 0.940 . S
C30 C29 1.385 . S
C30 C31 1.388 . S
C31 H10 0.939 . S
C31 C26 1.391 . S
C31 C30 1.388 . S
P32 O43 1.490 . S
P32 C46 1.812 . S
P32 C52 1.803 . S
P32 C58 1.819 . S
H33 C47 0.941 . S
H34 C48 0.939 . S
H35 C50 0.940 . S
H36 C51 0.940 . S
H37 C53 0.939 . S
H38 C54 0.942 . S
H39 C56 0.940 . S
H40 C57 0.939 . S
H41 C59 0.941 . S
H42 C63 0.939 . S
O43 P32 1.490 . S
H44 C60 0.939 . S
H45 C62 0.940 . S
C46 P32 1.812 . S
C46 C47 1.389 . S
C46 C51 1.391 . S
C47 H33 0.941 . S
C47 C46 1.389 . S
C47 C48 1.397 . S
C48 H34 0.939 . S
C48 C47 1.397 . S
C48 C49 1.378 . S
C49 C48 1.378 . S
C49 C50 1.378 . S
C50 H35 0.940 . S
C50 C49 1.378 . S
C50 C51 1.396 . S
C51 H36 0.940 . S
C51 C46 1.391 . S
C51 C50 1.396 . S
C52 P32 1.803 . S
C52 C53 1.378 . S
C52 C57 1.400 . S
C53 H37 0.939 . S
C53 C52 1.378 . S
C53 C54 1.361 . S
C54 H38 0.942 . S
C54 C53 1.361 . S
C54 C55 1.369 . S
C55 C54 1.369 . S
C55 C56 1.404 . S
C56 H39 0.940 . S
C56 C55 1.404 . S
C56 C57 1.389 . S
C57 H40 0.939 . S
C57 C52 1.400 . S
C57 C56 1.389 . S
C58 P32 1.819 . S
C58 C59 1.391 . S
C58 C63 1.391 . S
C59 H41 0.941 . S
C59 C58 1.391 . S
C59 C60 1.396 . S
C60 H44 0.939 . S
C60 C59 1.396 . S
C60 C61 1.397 . S
C61 C60 1.397 . S
C61 C62 1.385 . S
C62 H45 0.940 . S
C62 C61 1.385 . S
C62 C63 1.388 . S
C63 H42 0.939 . S
C63 C58 1.391 . S
C63 C62 1.388 . S
P64 O75 1.490 . S
P64 C78 1.812 . S
P64 C84 1.803 . S
P64 C90 1.819 . S
H65 C79 0.941 . S
H66 C80 0.939 . S
H67 C82 0.940 . S
H68 C83 0.940 . S
H69 C85 0.939 . S
H70 C86 0.942 . S
H71 C88 0.940 . S
H72 C89 0.939 . S
H73 C91 0.941 . S
H74 C95 0.939 . S
O75 P64 1.490 . S
H76 C92 0.939 . S
H77 C94 0.940 . S
C78 P64 1.812 . S
C78 C79 1.389 . S
C78 C83 1.391 . S
C79 H65 0.941 . S
C79 C78 1.389 . S
C79 C80 1.397 . S
C80 H66 0.939 . S
C80 C79 1.397 . S
C80 C81 1.378 . S
C81 C80 1.378 . S
C81 C82 1.378 . S
C82 H67 0.940 . S
C82 C81 1.378 . S
C82 C83 1.396 . S
C83 H68 0.940 . S
C83 C78 1.391 . S
C83 C82 1.396 . S
C84 P64 1.803 . S
C84 C85 1.378 . S
C84 C89 1.400 . S
C85 H69 0.939 . S
C85 C84 1.378 . S
C85 C86 1.361 . S
C86 H70 0.942 . S
C86 C85 1.361 . S
C86 C87 1.369 . S
C87 C86 1.369 . S
C87 C88 1.404 . S
C88 H71 0.940 . S
C88 C87 1.404 . S
C88 C89 1.389 . S
C89 H72 0.939 . S
C89 C84 1.400 . S
C89 C88 1.389 . S
C90 P64 1.819 . S
C90 C91 1.391 . S
C90 C95 1.391 . S
C91 H73 0.941 . S
C91 C90 1.391 . S
C91 C92 1.396 . S
C92 H76 0.939 . S
C92 C91 1.396 . S
C92 C93 1.397 . S
C93 C92 1.397 . S
C93 C94 1.385 . S
C94 H77 0.940 . S
C94 C93 1.385 . S
C94 C95 1.388 . S
C95 H74 0.939 . S
C95 C90 1.391 . S
C95 C94 1.388 . S
P96 O107 1.490 . S
P96 C110 1.812 . S
P96 C116 1.803 . S
P96 C122 1.819 . S
H97 C111 0.941 . S
H98 C112 0.939 . S
H99 C114 0.940 . S
H100 C115 0.940 . S
H101 C117 0.939 . S
H102 C118 0.942 . S
H103 C120 0.940 . S
H104 C121 0.939 . S
H105 C123 0.941 . S
H106 C127 0.939 . S
O107 P96 1.490 . S
H108 C124 0.939 . S
H109 C126 0.940 . S
C110 P96 1.812 . S
C110 C111 1.389 . S
C110 C115 1.391 . S
C111 H97 0.941 . S
C111 C110 1.389 . S
C111 C112 1.397 . S
C112 H98 0.939 . S
C112 C111 1.397 . S
C112 C113 1.378 . S
C113 C112 1.378 . S
C113 C114 1.378 . S
C114 H99 0.940 . S
C114 C113 1.378 . S
C114 C115 1.396 . S
C115 H100 0.940 . S
C115 C110 1.391 . S
C115 C114 1.396 . S
C116 P96 1.803 . S
C116 C117 1.378 . S
C116 C121 1.400 . S
C117 H101 0.939 . S
C117 C116 1.378 . S
C117 C118 1.361 . S
C118 H102 0.942 . S
C118 C117 1.361 . S
C118 C119 1.369 . S
C119 C118 1.369 . S
C119 C120 1.404 . S
C120 H103 0.940 . S
C120 C119 1.404 . S
C120 C121 1.389 . S
C121 H104 0.939 . S
C121 C116 1.400 . S
C121 C120 1.389 . S
C122 P96 1.819 . S
C122 C123 1.391 . S
C122 C127 1.391 . S
C123 H105 0.941 . S
C123 C122 1.391 . S
C123 C124 1.396 . S
C124 H108 0.939 . S
C124 C123 1.396 . S
C124 C125 1.397 . S
C125 C124 1.397 . S
C125 C126 1.385 . S
C126 H109 0.940 . S
C126 C125 1.385 . S
C126 C127 1.388 . S
C127 H106 0.939 . S
C127 C122 1.391 . S
C127 C126 1.388 . S
P128 O139 1.490 . S
P128 C142 1.812 . S
P128 C148 1.803 . S
P128 C154 1.819 . S
H129 C143 0.941 . S
H130 C144 0.939 . S
H131 C146 0.940 . S
H132 C147 0.940 . S
H133 C149 0.939 . S
H134 C150 0.942 . S
H135 C152 0.940 . S
H136 C153 0.939 . S
H137 C155 0.941 . S
H138 C159 0.939 . S
O139 P128 1.490 . S
H140 C156 0.939 . S
H141 C158 0.940 . S
C142 P128 1.812 . S
C142 C143 1.389 . S
C142 C147 1.391 . S
C143 H129 0.941 . S
C143 C142 1.389 . S
C143 C144 1.397 . S
C144 H130 0.939 . S
C144 C143 1.397 . S
C144 C145 1.378 . S
C145 C144 1.378 . S
C145 C146 1.378 . S
C146 H131 0.940 . S
C146 C145 1.378 . S
C146 C147 1.396 . S
C147 H132 0.940 . S
C147 C142 1.391 . S
C147 C146 1.396 . S
C148 P128 1.803 . S
C148 C149 1.378 . S
C148 C153 1.400 . S
C149 H133 0.939 . S
C149 C148 1.378 . S
C149 C150 1.361 . S
C150 H134 0.942 . S
C150 C149 1.361 . S
C150 C151 1.369 . S
C151 C150 1.369 . S
C151 C152 1.404 . S
C152 H135 0.940 . S
C152 C151 1.404 . S
C152 C153 1.389 . S
C153 H136 0.939 . S
C153 C148 1.400 . S
C153 C152 1.389 . S
C154 P128 1.819 . S
C154 C155 1.391 . S
C154 C159 1.391 . S
C155 H137 0.941 . S
C155 C154 1.391 . S
C155 C156 1.396 . S
C156 H140 0.939 . S
C156 C155 1.396 . S
C156 C157 1.397 . S
C157 C156 1.397 . S
C157 C158 1.385 . S
C158 H141 0.940 . S
C158 C157 1.385 . S
C158 C159 1.388 . S
C159 H138 0.939 . S
C159 C154 1.391 . S
C159 C158 1.388 . S
P160 O171 1.490 . S
P160 C174 1.812 . S
P160 C180 1.803 . S
P160 C186 1.819 . S
H161 C175 0.941 . S
H162 C176 0.939 . S
H163 C178 0.940 . S
H164 C179 0.940 . S
H165 C181 0.939 . S
H166 C182 0.942 . S
H167 C184 0.940 . S
H168 C185 0.939 . S
H169 C187 0.941 . S
H170 C191 0.939 . S
O171 P160 1.490 . S
H172 C188 0.939 . S
H173 C190 0.940 . S
C174 P160 1.812 . S
C174 C175 1.389 . S
C174 C179 1.391 . S
C175 H161 0.941 . S
C175 C174 1.389 . S
C175 C176 1.397 . S
C176 H162 0.939 . S
C176 C175 1.397 . S
C176 C177 1.378 . S
C177 C176 1.378 . S
C177 C178 1.378 . S
C178 H163 0.940 . S
C178 C177 1.378 . S
C178 C179 1.396 . S
C179 H164 0.940 . S
C179 C174 1.391 . S
C179 C178 1.396 . S
C180 P160 1.803 . S
C180 C181 1.378 . S
C180 C185 1.400 . S
C181 H165 0.939 . S
C181 C180 1.378 . S
C181 C182 1.361 . S
C182 H166 0.942 . S
C182 C181 1.361 . S
C182 C183 1.369 . S
C183 C182 1.369 . S
C183 C184 1.404 . S
C184 H167 0.940 . S
C184 C183 1.404 . S
C184 C185 1.389 . S
C185 H168 0.939 . S
C185 C180 1.400 . S
C185 C184 1.389 . S
C186 P160 1.819 . S
C186 C187 1.391 . S
C186 C191 1.391 . S
C187 H169 0.941 . S
C187 C186 1.391 . S
C187 C188 1.396 . S
C188 H172 0.939 . S
C188 C187 1.396 . S
C188 C189 1.397 . S
C189 C188 1.397 . S
C189 C190 1.385 . S
C190 H173 0.940 . S
C190 C189 1.385 . S
C190 C191 1.388 . S
C191 H170 0.939 . S
C191 C186 1.391 . S
C191 C190 1.388 . S
P192 O203 1.490 . S
P192 C206 1.812 . S
P192 C212 1.803 . S
P192 C218 1.819 . S
H193 C207 0.941 . S
H194 C208 0.939 . S
H195 C210 0.940 . S
H196 C211 0.940 . S
H197 C213 0.939 . S
H198 C214 0.942 . S
H199 C216 0.940 . S
H200 C217 0.939 . S
H201 C219 0.941 . S
H202 C223 0.939 . S
O203 P192 1.490 . S
H204 C220 0.939 . S
H205 C222 0.940 . S
C206 P192 1.812 . S
C206 C207 1.389 . S
C206 C211 1.391 . S
C207 H193 0.941 . S
C207 C206 1.389 . S
C207 C208 1.397 . S
C208 H194 0.939 . S
C208 C207 1.397 . S
C208 C209 1.378 . S
C209 C208 1.378 . S
C209 C210 1.378 . S
C210 H195 0.940 . S
C210 C209 1.378 . S
C210 C211 1.396 . S
C211 H196 0.940 . S
C211 C206 1.391 . S
C211 C210 1.396 . S
C212 P192 1.803 . S
C212 C213 1.378 . S
C212 C217 1.400 . S
C213 H197 0.939 . S
C213 C212 1.378 . S
C213 C214 1.361 . S
C214 H198 0.942 . S
C214 C213 1.361 . S
C214 C215 1.369 . S
C215 C214 1.369 . S
C215 C216 1.404 . S
C216 H199 0.940 . S
C216 C215 1.404 . S
C216 C217 1.389 . S
C217 H200 0.939 . S
C217 C212 1.400 . S
C217 C216 1.389 . S
C218 P192 1.819 . S
C218 C219 1.391 . S
C218 C223 1.391 . S
C219 H201 0.941 . S
C219 C218 1.391 . S
C219 C220 1.396 . S
C220 H204 0.939 . S
C220 C219 1.396 . S
C220 C221 1.397 . S
C221 C220 1.397 . S
C221 C222 1.385 . S
C222 H205 0.940 . S
C222 C221 1.385 . S
C222 C223 1.388 . S
C223 H202 0.939 . S
C223 C218 1.391 . S
C223 C222 1.388 . S
P224 O235 1.490 . S
P224 C238 1.812 . S
P224 C244 1.803 . S
P224 C250 1.819 . S
H225 C239 0.941 . S
H226 C240 0.939 . S
H227 C242 0.940 . S
H228 C243 0.940 . S
H229 C245 0.939 . S
H230 C246 0.942 . S
H231 C248 0.940 . S
H232 C249 0.939 . S
H233 C251 0.941 . S
H234 C255 0.939 . S
O235 P224 1.490 . S
H236 C252 0.939 . S
H237 C254 0.940 . S
C238 P224 1.812 . S
C238 C239 1.389 . S
C238 C243 1.391 . S
C239 H225 0.941 . S
C239 C238 1.389 . S
C239 C240 1.397 . S
C240 H226 0.939 . S
C240 C239 1.397 . S
C240 C241 1.378 . S
C241 C240 1.378 . S
C241 C242 1.378 . S
C242 H227 0.940 . S
C242 C241 1.378 . S
C242 C243 1.396 . S
C243 H228 0.940 . S
C243 C238 1.391 . S
C243 C242 1.396 . S
C244 P224 1.803 . S
C244 C245 1.378 . S
C244 C249 1.400 . S
C245 H229 0.939 . S
C245 C244 1.378 . S
C245 C246 1.361 . S
C246 H230 0.942 . S
C246 C245 1.361 . S
C246 C247 1.369 . S
C247 C246 1.369 . S
C247 C248 1.404 . S
C248 H231 0.940 . S
C248 C247 1.404 . S
C248 C249 1.389 . S
C249 H232 0.939 . S
C249 C244 1.400 . S
C249 C248 1.389 . S
C250 P224 1.819 . S
C250 C251 1.391 . S
C250 C255 1.391 . S
C251 H233 0.941 . S
C251 C250 1.391 . S
C251 C252 1.396 . S
C252 H236 0.939 . S
C252 C251 1.396 . S
C252 C253 1.397 . S
C253 C252 1.397 . S
C253 C254 1.385 . S
C254 H237 0.940 . S
C254 C253 1.385 . S
C254 C255 1.388 . S
C255 H234 0.939 . S
C255 C250 1.391 . S
C255 C254 1.388 . S
Co256 N261 2.057 . S
Co256 O273 2.021 . S
Co256 O276 2.062 . S
Co256 O280 2.117 1_545 S
Co256 O281 2.020 . S
C257 O277 1.259 1_655 S
C257 O280 1.258 . S
Co258 N267 2.057 . S
Co258 O274 2.117 1_565 S
Co258 O275 2.020 1_565 S
Co258 O277 2.021 . S
Co258 O282 2.062 . S
C259 N261 1.316 . S
C259 N262 1.347 . S
C259 H264 0.931 . S
C260 N261 1.375 . S
C260 C263 1.350 . S
C260 H265 0.930 1_545 S
N261 Co256 2.057 . S
N261 C259 1.316 . S
N261 C260 1.375 . S
N262 C259 1.347 . S
N262 C263 1.373 . S
C263 C260 1.350 . S
C263 N262 1.373 . S
C263 H284 0.931 . S
H264 C259 0.931 . S
H265 C260 0.930 1_565 S
C266 O273 1.259 1_455 S
C266 O274 1.258 . S
N267 Co258 2.057 . S
N267 C268 1.316 . S
N267 C269 1.375 1_565 S
C268 N267 1.316 . S
C268 N270 1.347 . S
C268 H279 0.931 . S
C269 N267 1.375 1_545 S
C269 C271 1.346 1_545 S
C269 H278 0.930 . S
N270 C268 1.347 . S
N270 C271 1.382 . S
C271 C269 1.346 1_565 S
C271 N270 1.382 . S
C271 H285 0.927 1_565 S
C272 O275 1.256 . S
C272 O276 1.255 1_455 S
O273 Co256 2.021 . S
O273 C266 1.259 1_655 S
O274 Co258 2.117 1_545 S
O274 C266 1.258 . S
O275 Co258 2.020 1_545 S
O275 C272 1.256 . S
O276 Co256 2.062 . S
O276 C272 1.255 1_655 S
O277 C257 1.259 1_455 S
O277 Co258 2.021 . S
H278 C269 0.930 . S
H279 C268 0.931 . S
O280 Co256 2.117 1_565 S
O280 C257 1.258 . S
O281 Co256 2.020 . S
O281 C283 1.256 1_545 S
O282 Co258 2.062 . S
O282 C283 1.255 1_455 S
C283 O281 1.256 1_565 S
C283 O282 1.255 1_655 S
H284 C263 0.931 . S
H285 C271 0.927 1_545 S
Co286 N291 2.057 1_545 S
Co286 O303 2.021 . S
Co286 O306 2.062 1_545 S
Co286 O310 2.117 1_546 S
Co286 O311 2.020 1_556 S
C287 O307 1.259 . S
C287 O310 1.258 . S
Co288 N297 2.057 . S
Co288 O304 2.117 . S
Co288 O305 2.020 . S
Co288 O307 2.021 1_545 S
Co288 O312 2.062 . S
C289 N291 1.316 . S
C289 N292 1.347 . S
C289 H294 0.931 1_565 S
C290 N291 1.375 . S
C290 C293 1.350 . S
C290 H295 0.930 . S
N291 Co286 2.057 1_565 S
N291 C289 1.316 . S
N291 C290 1.375 . S
N292 C289 1.347 . S
N292 C293 1.373 . S
C293 C290 1.350 . S
C293 N292 1.373 . S
C293 H314 0.931 . S
H294 C289 0.931 1_545 S
H295 C290 0.930 . S
C296 O303 1.259 . S
C296 O304 1.258 1_556 S
N297 Co288 2.057 . S
N297 C298 1.316 . S
N297 C299 1.375 . S
C298 N297 1.316 . S
C298 N300 1.347 . S
C298 H309 0.931 . S
C299 N297 1.375 . S
C299 C301 1.350 . S
C299 H308 0.930 . S
N300 C298 1.347 . S
N300 C301 1.373 . S
C301 C299 1.350 . S
C301 N300 1.373 . S
C301 H315 0.931 . S
C302 O305 1.256 1_566 S
C302 O306 1.255 . S
O303 Co286 2.021 . S
O303 C296 1.259 . S
O304 Co288 2.117 . S
O304 C296 1.258 1_554 S
O305 Co288 2.020 . S
O305 C302 1.256 1_544 S
O306 Co286 2.062 1_565 S
O306 C302 1.255 . S
O307 C287 1.259 . S
O307 Co288 2.021 1_565 S
H308 C299 0.930 . S
H309 C298 0.931 . S
O310 Co286 2.117 1_564 S
O310 C287 1.258 . S
O311 Co286 2.020 1_554 S
O311 C313 1.256 . S
O312 Co288 2.062 . S
O312 C313 1.255 . S
C313 O311 1.256 . S
C313 O312 1.255 . S
H314 C293 0.931 . S
H315 C301 0.931 . S
Co316 N321 2.057 . S
Co316 O333 2.021 . S
Co316 O336 2.062 . S
Co316 O340 2.117 . S
Co316 O341 2.020 . S
C317 O337 1.259 . S
C317 O340 1.258 . S
Co318 N327 2.057 . S
Co318 O334 2.117 . S
Co318 O335 2.020 . S
Co318 O337 2.021 . S
Co318 O342 2.062 . S
C319 N321 1.316 . S
C319 N322 1.347 . S
C319 H324 0.931 . S
C320 N321 1.375 . S
C320 C323 1.350 . S
C320 H325 0.930 . S
N321 Co316 2.057 . S
N321 C319 1.316 . S
N321 C320 1.375 . S
N322 C319 1.347 . S
N322 C323 1.373 . S
C323 C320 1.350 . S
C323 N322 1.373 . S
C323 H344 0.931 . S
H324 C319 0.931 . S
H325 C320 0.930 . S
C326 O333 1.259 . S
C326 O334 1.258 . S
N327 Co318 2.057 . S
N327 C328 1.316 . S
N327 C329 1.375 . S
C328 N327 1.316 . S
C328 N330 1.347 . S
C328 H339 0.931 . S
C329 N327 1.375 . S
C329 C331 1.350 . S
C329 H338 0.930 . S
N330 C328 1.347 . S
N330 C331 1.373 . S
C331 C329 1.350 . S
C331 N330 1.373 . S
C331 H345 0.931 . S
C332 O335 1.256 . S
C332 O336 1.255 . S
O333 Co316 2.021 . S
O333 C326 1.259 . S
O334 Co318 2.117 . S
O334 C326 1.258 . S
O335 Co318 2.020 . S
O335 C332 1.256 . S
O336 Co316 2.062 . S
O336 C332 1.255 . S
O337 C317 1.259 . S
O337 Co318 2.021 . S
H338 C329 0.930 . S
H339 C328 0.931 . S
O340 Co316 2.117 . S
O340 C317 1.258 . S
O341 Co316 2.020 . S
O341 C343 1.256 . S
O342 Co318 2.062 . S
O342 C343 1.255 . S
C343 O341 1.256 . S
C343 O342 1.255 . S
H344 C323 0.931 . S
H345 C331 0.931 . S
Co346 N351 2.057 . S
Co346 O363 2.021 . S
Co346 O366 2.051 1_556 S
Co346 O370 2.117 1_455 S
Co346 O371 2.008 1_455 S
C347 O367 1.271 . S
C347 O370 1.251 1_554 S
Co348 N357 2.057 . S
Co348 O364 2.117 1_655 S
Co348 O365 2.020 1_655 S
Co348 O367 2.021 . S
Co348 O372 2.062 . S
C349 N351 1.316 . S
C349 N352 1.347 . S
C349 H354 0.931 . S
C350 N351 1.375 1_655 S
C350 C353 1.350 1_655 S
C350 H355 0.930 . S
N351 Co346 2.057 . S
N351 C349 1.316 . S
N351 C350 1.375 1_455 S
N352 C349 1.347 . S
N352 C353 1.373 . S
C353 C350 1.350 1_455 S
C353 N352 1.373 . S
C353 H374 0.931 1_455 S
H354 C349 0.931 . S
H355 C350 0.930 . S
C356 O363 1.259 1_554 S
C356 O364 1.258 . S
N357 Co348 2.057 . S
N357 C358 1.316 . S
N357 C359 1.375 1_655 S
C358 N357 1.316 . S
C358 N360 1.347 . S
C358 H369 0.931 . S
C359 N357 1.375 1_455 S
C359 C361 1.350 1_455 S
C359 H368 0.930 . S
N360 C358 1.347 . S
N360 C361 1.373 . S
C361 C359 1.350 1_655 S
C361 N360 1.373 . S
C361 H375 0.931 1_655 S
C362 O365 1.256 . S
C362 O366 1.281 . S
O363 Co346 2.021 . S
O363 C356 1.259 1_556 S
O364 Co348 2.117 1_455 S
O364 C356 1.258 . S
O365 Co348 2.020 1_455 S
O365 C362 1.256 . S
O366 Co346 2.051 1_554 S
O366 C362 1.281 . S
O367 C347 1.271 . S
O367 Co348 2.021 . S
H368 C359 0.930 . S
H369 C358 0.931 . S
O370 Co346 2.117 1_655 S
O370 C347 1.251 1_556 S
O371 Co346 2.008 1_655 S
O371 C373 1.272 . S
O372 Co348 2.062 . S
O372 C373 1.255 1_554 S
C373 O371 1.272 . S
C373 O372 1.255 1_556 S
H374 C353 0.931 1_655 S
H375 C361 0.931 1_455 S
H376 C384 0.929 . S
H377 C386 0.930 . S
H378 C388 0.930 . S
H379 C391 0.929 . S
H380 C394 0.930 . S
H381 C396 0.960 . S
H382 C396 0.960 . S
H383 C396 0.960 . S
C384 H376 0.929 . S
C384 C385 1.377 . S
C384 C386 1.384 . S
C385 C384 1.377 . S
C385 C391 1.390 . S
C386 H377 0.930 . S
C386 C384 1.384 . S
C386 C387 1.372 . S
C387 C386 1.372 . S
C387 C388 1.400 . S
C387 C392 1.490 . S
C388 H378 0.930 . S
C388 C387 1.400 . S
C388 C391 1.386 . S
H389 C405 0.930 . S
H390 C406 0.931 . S
C391 H379 0.929 . S
C391 C385 1.390 . S
C391 C388 1.386 . S
C392 C387 1.490 . S
C392 C394 1.395 . S
C392 C395 1.403 . S
H393 C399 0.930 . S
C394 H380 0.930 . S
C394 C392 1.395 . S
C394 C397 1.403 . S
C395 C392 1.403 . S
C395 C396 1.524 . S
C395 C399 1.400 . S
C396 H381 0.960 . S
C396 H382 0.960 . S
C396 H383 0.960 . S
C396 C395 1.524 . S
C397 C394 1.403 . S
C397 C398 1.392 . S
C397 C401 1.500 1_455 S
C398 C397 1.392 . S
C398 C399 1.385 . S
C398 C400 1.478 . S
C399 H393 0.930 . S
C399 C395 1.400 . S
C399 C398 1.385 . S
C400 C398 1.478 . S
C400 C402 1.381 . S
C400 C406 1.383 . S
C401 C397 1.500 1_655 S
C401 H407 0.957 . S
C401 H408 0.961 . S
C401 H409 0.957 . S
C402 C400 1.381 . S
C402 C403 1.394 . S
C402 H410 0.930 . S
C403 C402 1.394 . S
C403 C404 1.383 . S
C403 H411 0.929 . S
C404 C403 1.383 . S
C404 C405 1.377 . S
C405 H389 0.930 . S
C405 C404 1.377 . S
C405 C406 1.379 . S
C406 H390 0.931 . S
C406 C400 1.383 . S
C406 C405 1.379 . S
H407 C401 0.957 . S
H408 C401 0.961 . S
H409 C401 0.957 . S
H410 C402 0.930 . S
H411 C403 0.929 . S
H412 C420 0.929 . S
H413 C422 0.930 . S
H414 C424 0.930 . S
H415 C427 0.929 . S
H416 C430 0.930 . S
H417 C432 0.960 . S
H418 C432 0.960 . S
H419 C432 0.960 . S
C420 H412 0.929 . S
C420 C421 1.377 . S
C420 C422 1.384 . S
C421 C420 1.377 . S
C421 C427 1.390 . S
C422 H413 0.930 . S
C422 C420 1.384 . S
C422 C423 1.372 . S
C423 C422 1.372 . S
C423 C424 1.400 . S
C423 C428 1.490 . S
C424 H414 0.930 . S
C424 C423 1.400 . S
C424 C427 1.386 . S
H425 C441 0.930 . S
H426 C442 0.931 . S
C427 H415 0.929 . S
C427 C421 1.390 . S
C427 C424 1.386 . S
C428 C423 1.490 . S
C428 C430 1.395 . S
C428 C431 1.403 . S
H429 C435 0.930 . S
C430 H416 0.930 . S
C430 C428 1.395 . S
C430 C433 1.403 . S
C431 C428 1.403 . S
C431 C432 1.524 . S
C431 C435 1.400 . S
C432 H417 0.960 . S
C432 H418 0.960 . S
C432 H419 0.960 . S
C432 C431 1.524 . S
C433 C430 1.403 . S
C433 C434 1.392 . S
C433 C437 1.495 . S
C434 C433 1.392 . S
C434 C435 1.385 . S
C434 C436 1.478 . S
C435 H429 0.930 . S
C435 C431 1.400 . S
C435 C434 1.385 . S
C436 C434 1.478 . S
C436 C438 1.381 . S
C436 C442 1.383 . S
C437 C433 1.495 . S
C437 H443 0.959 . S
C437 H444 0.961 . S
C437 H445 0.960 1_565 S
C438 C436 1.381 . S
C438 C439 1.394 . S
C438 H446 0.930 . S
C439 C438 1.394 . S
C439 C440 1.383 . S
C439 H447 0.929 1_565 S
C440 C439 1.383 . S
C440 C441 1.377 . S
C441 H425 0.930 . S
C441 C440 1.377 . S
C441 C442 1.379 . S
C442 H426 0.931 . S
C442 C436 1.383 . S
C442 C441 1.379 . S
H443 C437 0.959 . S
H444 C437 0.961 . S
H445 C437 0.960 1_545 S
H446 C438 0.930 . S
H447 C439 0.929 1_545 S
H448 C456 0.929 . S
H449 C458 0.930 . S
H450 C460 0.930 . S
H451 C463 0.929 . S
H452 C466 0.930 . S
H453 C468 0.960 . S
H454 C468 0.960 . S
H455 C468 0.960 . S
C456 H448 0.929 . S
C456 C457 1.377 . S
C456 C458 1.384 . S
C457 C456 1.377 . S
C457 C463 1.390 . S
C458 H449 0.930 . S
C458 C456 1.384 . S
C458 C459 1.372 . S
C459 C458 1.372 . S
C459 C460 1.400 . S
C459 C464 1.490 . S
C460 H450 0.930 . S
C460 C459 1.400 . S
C460 C463 1.386 . S
H461 C477 0.930 . S
H462 C478 0.931 . S
C463 H451 0.929 . S
C463 C457 1.390 . S
C463 C460 1.386 . S
C464 C459 1.490 . S
C464 C466 1.395 . S
C464 C467 1.403 . S
H465 C471 0.930 . S
C466 H452 0.930 . S
C466 C464 1.395 . S
C466 C469 1.403 . S
C467 C464 1.403 . S
C467 C468 1.524 . S
C467 C471 1.400 . S
C468 H453 0.960 . S
C468 H454 0.960 . S
C468 H455 0.960 . S
C468 C467 1.524 . S
C469 C466 1.403 . S
C469 C470 1.392 . S
C469 C473 1.495 . S
C470 C469 1.392 . S
C470 C471 1.385 . S
C470 C472 1.478 . S
C471 H465 0.930 . S
C471 C467 1.400 . S
C471 C470 1.385 . S
C472 C470 1.478 . S
C472 C474 1.381 . S
C472 C478 1.383 . S
C473 C469 1.495 . S
C473 H479 0.959 . S
C473 H480 0.961 . S
C473 H481 0.960 . S
C474 C472 1.381 . S
C474 C475 1.394 . S
C474 H482 0.930 . S
C475 C474 1.394 . S
C475 C476 1.383 . S
C475 H483 0.929 . S
C476 C475 1.383 . S
C476 C477 1.377 . S
C477 H461 0.930 . S
C477 C476 1.377 . S
C477 C478 1.379 . S
C478 H462 0.931 . S
C478 C472 1.383 . S
C478 C477 1.379 . S
H479 C473 0.959 . S
H480 C473 0.961 . S
H481 C473 0.960 . S
H482 C474 0.930 . S
H483 C475 0.929 . S
H484 C492 0.929 . S
H485 C494 0.930 . S
H486 C496 0.930 . S
H487 C499 0.929 . S
H488 C502 0.930 . S
H489 C504 0.957 1_455 S
H490 C504 0.960 . S
H491 C504 0.960 . S
C492 H484 0.929 . S
C492 C493 1.377 . S
C492 C494 1.384 . S
C493 C492 1.377 . S
C493 C499 1.390 . S
C494 H485 0.930 . S
C494 C492 1.384 . S
C494 C495 1.372 . S
C495 C494 1.372 . S
C495 C496 1.400 . S
C495 C500 1.490 . S
C496 H486 0.930 . S
C496 C495 1.400 . S
C496 C499 1.386 . S
H497 C513 0.930 . S
H498 C514 0.931 . S
C499 H487 0.929 . S
C499 C493 1.390 . S
C499 C496 1.386 . S
C500 C495 1.490 . S
C500 C502 1.395 . S
C500 C503 1.403 . S
H501 C507 0.930 . S
C502 H488 0.930 . S
C502 C500 1.395 . S
C502 C505 1.403 . S
C503 C500 1.403 . S
C503 C504 1.524 . S
C503 C507 1.400 . S
C504 H489 0.957 1_655 S
C504 H490 0.960 . S
C504 H491 0.960 . S
C504 C503 1.524 . S
C505 C502 1.403 . S
C505 C506 1.392 . S
C505 C509 1.495 . S
C506 C505 1.392 . S
C506 C507 1.385 . S
C506 C508 1.478 . S
C507 H501 0.930 . S
C507 C503 1.400 . S
C507 C506 1.385 . S
C508 C506 1.478 . S
C508 C510 1.381 . S
C508 C514 1.383 . S
C509 C505 1.495 . S
C509 H515 0.959 . S
C509 H516 0.961 . S
C509 H517 0.960 . S
C510 C508 1.381 . S
C510 C511 1.394 . S
C510 H518 0.930 . S
C511 C510 1.394 . S
C511 C512 1.383 . S
C511 H519 0.929 . S
C512 C511 1.383 . S
C512 C513 1.377 . S
C513 H497 0.930 . S
C513 C512 1.377 . S
C513 C514 1.379 . S
C514 H498 0.931 . S
C514 C508 1.383 . S
C514 C513 1.379 . S
H515 C509 0.959 . S
H516 C509 0.961 . S
H517 C509 0.960 . S
H518 C510 0.930 . S
H519 C511 0.929 . S
H520 C528 0.929 . S
H521 C530 0.930 . S
H522 C532 0.930 . S
H523 C535 0.929 . S
H524 C538 0.930 . S
H525 C540 0.960 . S
H526 C540 0.960 . S
H527 C540 0.960 . S
C528 H520 0.929 . S
C528 C529 1.377 . S
C528 C530 1.384 . S
C529 C528 1.377 . S
C529 C535 1.390 . S
C530 H521 0.930 . S
C530 C528 1.384 . S
C530 C531 1.372 . S
C531 C530 1.372 . S
C531 C532 1.400 . S
C531 C536 1.490 . S
C532 H522 0.930 . S
C532 C531 1.400 . S
C532 C535 1.386 . S
H533 C549 0.930 . S
H534 C550 0.931 . S
C535 H523 0.929 . S
C535 C529 1.390 . S
C535 C532 1.386 . S
C536 C531 1.490 . S
C536 C538 1.395 . S
C536 C539 1.403 . S
H537 C543 0.930 . S
C538 H524 0.930 . S
C538 C536 1.395 . S
C538 C541 1.403 . S
C539 C536 1.403 . S
C539 C540 1.524 . S
C539 C543 1.400 . S
C540 H525 0.960 . S
C540 H526 0.960 . S
C540 H527 0.960 . S
C540 C539 1.524 . S
C541 C538 1.403 . S
C541 C542 1.392 . S
C541 C545 1.495 . S
C542 C541 1.392 . S
C542 C543 1.385 . S
C542 C544 1.478 . S
C543 H537 0.930 . S
C543 C539 1.400 . S
C543 C542 1.385 . S
C544 C542 1.478 . S
C544 C546 1.381 . S
C544 C550 1.383 . S
C545 C541 1.495 . S
C545 H551 0.959 . S
C545 H552 0.961 . S
C545 H553 0.960 . S
C546 C544 1.381 . S
C546 C547 1.394 . S
C546 H554 0.930 . S
C547 C546 1.394 . S
C547 C548 1.383 . S
C547 H555 0.894 1_545 S
C548 C547 1.383 . S
C548 C549 1.377 . S
C549 H533 0.930 . S
C549 C548 1.377 . S
C549 C550 1.379 . S
C550 H534 0.931 . S
C550 C544 1.383 . S
C550 C549 1.379 . S
H551 C545 0.959 . S
H552 C545 0.961 . S
H553 C545 0.960 . S
H554 C546 0.930 . S
H555 C547 0.894 1_565 S
H556 C564 0.929 . S
H557 C566 0.930 . S
H558 C568 0.930 . S
H559 C571 0.929 . S
H560 C574 0.930 . S
H561 C576 0.960 . S
H562 C576 0.960 . S
H563 C576 0.960 . S
C564 H556 0.929 . S
C564 C565 1.377 . S
C564 C566 1.384 . S
C565 C564 1.377 . S
C565 C571 1.390 . S
C566 H557 0.930 . S
C566 C564 1.384 . S
C566 C567 1.372 . S
C567 C566 1.372 . S
C567 C568 1.400 . S
C567 C572 1.490 . S
C568 H558 0.930 . S
C568 C567 1.400 . S
C568 C571 1.386 . S
H569 C585 0.930 . S
H570 C586 0.931 . S
C571 H559 0.929 . S
C571 C565 1.390 . S
C571 C568 1.386 . S
C572 C567 1.490 . S
C572 C574 1.395 . S
C572 C575 1.403 . S
H573 C579 0.930 . S
C574 H560 0.930 . S
C574 C572 1.395 . S
C574 C577 1.403 . S
C575 C572 1.403 . S
C575 C576 1.524 . S
C575 C579 1.400 . S
C576 H561 0.960 . S
C576 H562 0.960 . S
C576 H563 0.960 . S
C576 C575 1.524 . S
C577 C574 1.403 . S
C577 C578 1.392 . S
C577 C581 1.495 . S
C578 C577 1.392 . S
C578 C579 1.385 . S
C578 C580 1.478 . S
C579 H573 0.930 . S
C579 C575 1.400 . S
C579 C578 1.385 . S
C580 C578 1.478 . S
C580 C582 1.381 . S
C580 C586 1.383 . S
C581 C577 1.495 . S
C581 H587 0.959 . S
C581 H588 0.961 . S
C581 H589 0.960 . S
C582 C580 1.381 . S
C582 C583 1.394 . S
C582 H590 0.930 . S
C583 C582 1.394 . S
C583 C584 1.383 . S
C583 H591 0.929 . S
C584 C583 1.383 . S
C584 C585 1.377 . S
C585 H569 0.930 . S
C585 C584 1.377 . S
C585 C586 1.379 . S
C586 H570 0.931 . S
C586 C580 1.383 . S
C586 C585 1.379 . S
H587 C581 0.959 . S
H588 C581 0.961 . S
H589 C581 0.960 . S
H590 C582 0.930 . S
H591 C583 0.929 . S
H592 C600 0.929 . S
H593 C602 0.930 . S
H594 C604 0.930 . S
H595 C607 0.929 . S
H596 C610 0.930 . S
H597 C612 0.960 1_554 S
H598 C612 0.960 . S
H599 C612 0.960 . S
C600 H592 0.929 . S
C600 C601 1.377 . S
C600 C602 1.384 . S
C601 C600 1.377 . S
C601 C607 1.390 . S
C602 H593 0.930 . S
C602 C600 1.384 . S
C602 C603 1.372 . S
C603 C602 1.372 . S
C603 C604 1.400 . S
C603 C608 1.490 . S
C604 H594 0.930 . S
C604 C603 1.400 . S
C604 C607 1.386 . S
H605 C621 0.930 . S
H606 C622 0.931 . S
C607 H595 0.929 . S
C607 C601 1.390 . S
C607 C604 1.386 . S
C608 C603 1.490 . S
C608 C610 1.395 . S
C608 C611 1.403 . S
H609 C615 0.930 . S
C610 H596 0.930 . S
C610 C608 1.395 . S
C610 C613 1.403 . S
C611 C608 1.403 . S
C611 C612 1.524 . S
C611 C615 1.400 . S
C612 H597 0.960 1_556 S
C612 H598 0.960 . S
C612 H599 0.960 . S
C612 C611 1.524 . S
C613 C610 1.403 . S
C613 C614 1.392 . S
C613 C617 1.495 . S
C614 C613 1.392 . S
C614 C615 1.385 . S
C614 C616 1.478 . S
C615 H609 0.930 . S
C615 C611 1.400 . S
C615 C614 1.385 . S
C616 C614 1.478 . S
C616 C618 1.381 . S
C616 C622 1.383 . S
C617 C613 1.495 . S
C617 H623 0.959 . S
C617 H624 0.961 . S
C617 H625 0.960 . S
C618 C616 1.381 . S
C618 C619 1.394 . S
C618 H626 0.930 . S
C619 C618 1.394 . S
C619 C620 1.383 . S
C619 H627 0.929 . S
C620 C619 1.383 . S
C620 C621 1.377 . S
C621 H605 0.930 . S
C621 C620 1.377 . S
C621 C622 1.379 . S
C622 H606 0.931 . S
C622 C616 1.383 . S
C622 C621 1.379 . S
H623 C617 0.959 . S
H624 C617 0.961 . S
H625 C617 0.960 . S
H626 C618 0.930 . S
H627 C619 0.929 . S
H628 C636 0.929 . S
H629 C638 0.930 . S
H630 C640 0.930 . S
H631 C643 0.929 . S
H632 C646 0.930 . S
H633 C648 0.960 . S
H634 C648 0.960 . S
H635 C648 0.960 . S
C636 H628 0.929 . S
C636 C637 1.377 . S
C636 C638 1.384 . S
C637 C636 1.377 . S
C637 C643 1.390 . S
C638 H629 0.930 . S
C638 C636 1.384 . S
C638 C639 1.372 . S
C639 C638 1.372 . S
C639 C640 1.400 . S
C639 C644 1.490 . S
C640 H630 0.930 . S
C640 C639 1.400 . S
C640 C643 1.386 . S
H641 C657 0.930 . S
H642 C658 0.931 . S
C643 H631 0.929 . S
C643 C637 1.390 . S
C643 C640 1.386 . S
C644 C639 1.490 . S
C644 C646 1.395 . S
C644 C647 1.403 . S
H645 C651 0.930 . S
C646 H632 0.930 . S
C646 C644 1.395 . S
C646 C649 1.403 . S
C647 C644 1.403 . S
C647 C648 1.524 . S
C647 C651 1.400 . S
C648 H633 0.960 . S
C648 H634 0.960 . S
C648 H635 0.960 . S
C648 C647 1.524 . S
C649 C646 1.403 . S
C649 C650 1.392 . S
C649 C653 1.495 . S
C650 C649 1.392 . S
C650 C651 1.385 . S
C650 C652 1.478 . S
C651 H645 0.930 . S
C651 C647 1.400 . S
C651 C650 1.385 . S
C652 C650 1.478 . S
C652 C654 1.381 . S
C652 C658 1.383 . S
C653 C649 1.495 . S
C653 H659 0.959 . S
C653 H660 0.961 . S
C653 H661 0.960 . S
C654 C652 1.381 . S
C654 C655 1.394 . S
C654 H662 0.930 . S
C655 C654 1.394 . S
C655 C656 1.383 . S
C655 H663 0.929 . S
C656 C655 1.383 . S
C656 C657 1.377 . S
C657 H641 0.930 . S
C657 C656 1.377 . S
C657 C658 1.379 . S
C658 H642 0.931 . S
C658 C652 1.383 . S
C658 C657 1.379 . S
H659 C653 0.959 . S
H660 C653 0.961 . S
H661 C653 0.960 . S
H662 C654 0.930 . S
H663 C655 0.929 . S
H664 C672 0.929 . S
H665 C674 0.930 . S
H666 C676 0.930 . S
H667 C679 0.929 . S
H668 C682 0.930 . S
H669 C684 0.976 . S
H670 C684 0.960 . S
H671 C684 0.960 . S
C672 H664 0.929 . S
C672 C673 1.377 . S
C672 C674 1.384 . S
C673 C672 1.377 . S
C673 C679 1.390 . S
C674 H665 0.930 . S
C674 C672 1.384 . S
C674 C675 1.372 . S
C675 C674 1.372 . S
C675 C676 1.400 . S
C675 C680 1.490 . S
C676 H666 0.930 . S
C676 C675 1.400 . S
C676 C679 1.386 . S
H677 C693 0.930 . S
H678 C694 0.931 . S
C679 H667 0.929 . S
C679 C673 1.390 . S
C679 C676 1.386 . S
C680 C675 1.490 . S
C680 C682 1.395 . S
C680 C683 1.403 . S
H681 C687 0.930 . S
C682 H668 0.930 . S
C682 C680 1.395 . S
C682 C685 1.403 . S
C683 C680 1.403 . S
C683 C684 1.524 . S
C683 C687 1.400 . S
C684 H669 0.976 . S
C684 H670 0.960 . S
C684 H671 0.960 . S
C684 C683 1.524 . S
C685 C682 1.403 . S
C685 C686 1.392 . S
C685 C689 1.495 . S
C686 C685 1.392 . S
C686 C687 1.385 . S
C686 C688 1.478 . S
C687 H681 0.930 . S
C687 C683 1.400 . S
C687 C686 1.385 . S
C688 C686 1.478 . S
C688 C690 1.381 . S
C688 C694 1.383 . S
C689 C685 1.495 . S
C689 H695 0.959 . S
C689 H696 0.961 . S
C689 H697 0.960 . S
C690 C688 1.381 . S
C690 C691 1.394 . S
C690 H698 0.930 . S
C691 C690 1.394 . S
C691 C692 1.383 . S
C691 H699 0.929 . S
C692 C691 1.383 . S
C692 C693 1.377 . S
C693 H677 0.930 . S
C693 C692 1.377 . S
C693 C694 1.379 . S
C694 H678 0.931 . S
C694 C688 1.383 . S
C694 C693 1.379 . S
H695 C689 0.959 . S
H696 C689 0.961 . S
H697 C689 0.960 . S
H698 C690 0.930 . S
H699 C691 0.929 . S
H700 C708 0.929 . S
H701 C710 0.930 . S
H702 C712 0.930 . S
H703 C715 0.929 . S
H704 C718 0.930 . S
H705 C720 0.960 . S
H706 C720 0.960 . S
H707 C720 0.960 . S
C708 H700 0.929 . S
C708 C709 1.377 . S
C708 C710 1.384 . S
C709 C708 1.377 . S
C709 C715 1.390 . S
C710 H701 0.930 . S
C710 C708 1.384 . S
C710 C711 1.372 . S
C711 C710 1.372 . S
C711 C712 1.400 . S
C711 C716 1.490 . S
C712 H702 0.930 . S
C712 C711 1.400 . S
C712 C715 1.386 . S
H713 C729 0.909 1_554 S
H714 C730 0.931 1_554 S
C715 H703 0.929 . S
C715 C709 1.390 . S
C715 C712 1.386 . S
C716 C711 1.490 . S
C716 C718 1.395 . S
C716 C719 1.403 . S
H717 C723 0.930 . S
C718 H704 0.930 . S
C718 C716 1.395 . S
C718 C721 1.403 . S
C719 C716 1.403 . S
C719 C720 1.524 . S
C719 C723 1.400 . S
C720 H705 0.960 . S
C720 H706 0.960 . S
C720 H707 0.960 . S
C720 C719 1.524 . S
C721 C718 1.403 . S
C721 C722 1.392 . S
C721 C725 1.495 . S
C722 C721 1.392 . S
C722 C723 1.385 . S
C722 C724 1.478 . S
C723 H717 0.930 . S
C723 C719 1.400 . S
C723 C722 1.385 . S
C724 C722 1.478 . S
C724 C726 1.381 . S
C724 C730 1.383 . S
C725 C721 1.495 . S
C725 H731 0.959 . S
C725 H732 0.961 . S
C725 H733 0.960 . S
C726 C724 1.381 . S
C726 C727 1.394 . S
C726 H734 0.930 . S
C727 C726 1.394 . S
C727 C728 1.383 . S
C727 H735 0.929 . S
C728 C727 1.383 . S
C728 C729 1.392 . S
C729 H713 0.909 1_556 S
C729 C728 1.392 . S
C729 C730 1.385 . S
C730 H714 0.931 1_556 S
C730 C724 1.383 . S
C730 C729 1.385 . S
H731 C725 0.959 . S
H732 C725 0.961 . S
H733 C725 0.960 . S
H734 C726 0.930 . S
H735 C727 0.929 . S
H736 C744 0.929 . S
H737 C746 0.930 . S
H738 C748 0.930 . S
H739 C751 0.929 . S
H740 C754 0.930 . S
H741 C756 0.960 . S
H742 C756 0.960 . S
H743 C756 0.960 . S
C744 H736 0.929 . S
C744 C745 1.377 . S
C744 C746 1.384 . S
C745 C744 1.377 . S
C745 C751 1.390 . S
C746 H737 0.930 . S
C746 C744 1.384 . S
C746 C747 1.372 . S
C747 C746 1.372 . S
C747 C748 1.400 . S
C747 C752 1.490 . S
C748 H738 0.930 . S
C748 C747 1.400 . S
C748 C751 1.386 . S
H749 C765 0.930 1_455 S
H750 C766 0.931 . S
C751 H739 0.929 . S
C751 C745 1.390 . S
C751 C748 1.386 . S
C752 C747 1.490 . S
C752 C754 1.395 . S
C752 C755 1.403 . S
H753 C759 0.930 . S
C754 H740 0.930 . S
C754 C752 1.395 . S
C754 C757 1.403 . S
C755 C752 1.403 . S
C755 C756 1.524 . S
C755 C759 1.400 . S
C756 H741 0.960 . S
C756 H742 0.960 . S
C756 H743 0.960 . S
C756 C755 1.524 . S
C757 C754 1.403 . S
C757 C758 1.392 . S
C757 C761 1.495 . S
C758 C757 1.392 . S
C758 C759 1.385 . S
C758 C760 1.478 . S
C759 H753 0.930 . S
C759 C755 1.400 . S
C759 C758 1.385 . S
C760 C758 1.478 . S
C760 C762 1.381 . S
C760 C766 1.383 . S
C761 C757 1.495 . S
C761 H767 0.959 . S
C761 H768 0.961 1_655 S
C761 H769 0.960 . S
C762 C760 1.381 . S
C762 C763 1.394 . S
C762 H770 0.930 . S
C763 C762 1.394 . S
C763 C764 1.383 . S
C763 H771 0.929 . S
C764 C763 1.383 . S
C764 C765 1.377 . S
C765 H749 0.930 1_655 S
C765 C764 1.377 . S
C765 C766 1.379 . S
C766 H750 0.931 . S
C766 C760 1.383 . S
C766 C765 1.379 . S
H767 C761 0.959 . S
H768 C761 0.961 1_455 S
H769 C761 0.960 . S
H770 C762 0.930 . S
H771 C763 0.929 . S
H772 C780 0.929 . S
H773 C782 0.930 . S
H774 C784 0.930 . S
H775 C787 0.929 . S
H776 C790 0.930 . S
H777 C792 0.960 . S
H778 C792 0.960 . S
H779 C792 0.960 . S
C780 H772 0.929 . S
C780 C781 1.377 . S
C780 C782 1.384 . S
C781 C780 1.377 . S
C781 C787 1.390 . S
C782 H773 0.930 . S
C782 C780 1.384 . S
C782 C783 1.372 . S
C783 C782 1.372 . S
C783 C784 1.400 . S
C783 C788 1.490 . S
C784 H774 0.930 . S
C784 C783 1.400 . S
C784 C787 1.386 . S
H785 C801 0.930 . S
H786 C802 0.931 . S
C787 H775 0.929 . S
C787 C781 1.390 . S
C787 C784 1.386 . S
C788 C783 1.490 . S
C788 C790 1.395 . S
C788 C791 1.403 . S
H789 C795 0.930 . S
C790 H776 0.930 . S
C790 C788 1.395 . S
C790 C793 1.403 . S
C791 C788 1.403 . S
C791 C792 1.524 . S
C791 C795 1.400 . S
C792 H777 0.960 . S
C792 H778 0.960 . S
C792 H779 0.960 . S
C792 C791 1.524 . S
C793 C790 1.403 . S
C793 C794 1.392 . S
C793 C797 1.495 . S
C794 C793 1.392 . S
C794 C795 1.385 . S
C794 C796 1.478 . S
C795 H789 0.930 . S
C795 C791 1.400 . S
C795 C794 1.385 . S
C796 C794 1.478 . S
C796 C798 1.381 . S
C796 C802 1.383 . S
C797 C793 1.495 . S
C797 H803 0.959 . S
C797 H804 0.961 . S
C797 H805 0.960 . S
C798 C796 1.381 . S
C798 C799 1.394 . S
C798 H806 0.930 . S
C799 C798 1.394 . S
C799 C800 1.383 . S
C799 H807 0.929 . S
C800 C799 1.383 . S
C800 C801 1.377 . S
C801 H785 0.930 . S
C801 C800 1.377 . S
C801 C802 1.379 . S
C802 H786 0.931 . S
C802 C796 1.383 . S
C802 C801 1.379 . S
H803 C797 0.959 . S
H804 C797 0.961 . S
H805 C797 0.960 . S
H806 C798 0.930 . S
H807 C799 0.929 . S
H808 C816 0.929 . S
H809 C818 0.930 . S
H810 C820 0.930 . S
H811 C823 0.929 . S
H812 C826 0.930 . S
H813 C828 0.960 . S
H814 C828 0.960 . S
H815 C828 0.960 . S
C816 H808 0.929 . S
C816 C817 1.377 . S
C816 C818 1.384 . S
C817 C816 1.377 . S
C817 C823 1.390 . S
C818 H809 0.930 . S
C818 C816 1.384 . S
C818 C819 1.372 . S
C819 C818 1.372 . S
C819 C820 1.400 . S
C819 C824 1.490 . S
C820 H810 0.930 . S
C820 C819 1.400 . S
C820 C823 1.386 . S
H821 C837 0.930 . S
H822 C838 0.931 . S
C823 H811 0.929 . S
C823 C817 1.390 . S
C823 C820 1.386 . S
C824 C819 1.490 . S
C824 C826 1.395 . S
C824 C827 1.403 . S
H825 C831 0.930 . S
C826 H812 0.930 . S
C826 C824 1.395 . S
C826 C829 1.403 . S
C827 C824 1.403 . S
C827 C828 1.524 . S
C827 C831 1.400 . S
C828 H813 0.960 . S
C828 H814 0.960 . S
C828 H815 0.960 . S
C828 C827 1.524 . S
C829 C826 1.403 . S
C829 C830 1.392 . S
C829 C833 1.495 1_655 S
C830 C829 1.392 . S
C830 C831 1.385 . S
C830 C832 1.478 . S
C831 H825 0.930 . S
C831 C827 1.400 . S
C831 C830 1.385 . S
C832 C830 1.478 . S
C832 C834 1.381 . S
C832 C838 1.383 . S
C833 C829 1.495 1_455 S
C833 H839 0.959 . S
C833 H840 0.961 . S
C833 H841 0.960 . S
C834 C832 1.381 . S
C834 C835 1.388 1_565 S
C834 H842 0.930 1_565 S
C835 C834 1.388 1_545 S
C835 C836 1.350 1_545 S
C835 H843 0.970 . S
C836 C835 1.350 1_565 S
C836 C837 1.377 . S
C837 H821 0.930 . S
C837 C836 1.377 . S
C837 C838 1.379 . S
C838 H822 0.931 . S
C838 C832 1.383 . S
C838 C837 1.379 . S
H839 C833 0.959 . S
H840 C833 0.961 . S
H841 C833 0.960 . S
H842 C834 0.930 1_545 S
H843 C835 0.970 . S
H844 C852 0.929 . S
H845 C854 0.930 . S
H846 C856 0.930 . S
H847 C859 0.929 . S
H848 C862 0.930 . S
H849 C864 0.960 . S
H850 C864 0.960 . S
H851 C864 0.960 . S
C852 H844 0.929 . S
C852 C853 1.377 . S
C852 C854 1.384 . S
C853 C852 1.377 . S
C853 C859 1.390 . S
C854 H845 0.930 . S
C854 C852 1.384 . S
C854 C855 1.372 . S
C855 C854 1.372 . S
C855 C856 1.400 . S
C855 C860 1.490 . S
C856 H846 0.930 . S
C856 C855 1.400 . S
C856 C859 1.386 . S
H857 C873 0.930 . S
H858 C874 0.931 . S
C859 H847 0.929 . S
C859 C853 1.390 . S
C859 C856 1.386 . S
C860 C855 1.490 . S
C860 C862 1.395 . S
C860 C863 1.403 . S
H861 C867 0.930 . S
C862 H848 0.930 . S
C862 C860 1.395 . S
C862 C865 1.403 . S
C863 C860 1.403 . S
C863 C864 1.524 . S
C863 C867 1.400 . S
C864 H849 0.960 . S
C864 H850 0.960 . S
C864 H851 0.960 . S
C864 C863 1.524 . S
C865 C862 1.403 . S
C865 C866 1.392 . S
C865 C869 1.495 . S
C866 C865 1.392 . S
C866 C867 1.385 . S
C866 C868 1.478 . S
C867 H861 0.930 . S
C867 C863 1.400 . S
C867 C866 1.385 . S
C868 C866 1.478 . S
C868 C870 1.381 . S
C868 C874 1.383 . S
C869 C865 1.495 . S
C869 H875 0.959 . S
C869 H876 0.961 . S
C869 H877 0.960 . S
C870 C868 1.381 . S
C870 C871 1.394 . S
C870 H878 0.930 . S
C871 C870 1.394 . S
C871 C872 1.383 . S
C871 H879 0.929 . S
C872 C871 1.383 . S
C872 C873 1.377 . S
C873 H857 0.930 . S
C873 C872 1.377 . S
C873 C874 1.379 . S
C874 H858 0.931 . S
C874 C868 1.383 . S
C874 C873 1.379 . S
H875 C869 0.959 . S
H876 C869 0.961 . S
H877 C869 0.960 . S
H878 C870 0.930 . S
H879 C871 0.929 . S
H880 C888 0.929 . S
H881 C890 0.930 . S
H882 C892 0.930 . S
H883 C895 0.929 . S
H884 C898 0.930 . S
H885 C900 0.960 . S
H886 C900 0.960 . S
H887 C900 0.960 . S
C888 H880 0.929 . S
C888 C889 1.377 . S
C888 C890 1.384 . S
C889 C888 1.377 . S
C889 C895 1.390 . S
C890 H881 0.930 . S
C890 C888 1.384 . S
C890 C891 1.372 . S
C891 C890 1.372 . S
C891 C892 1.400 . S
C891 C896 1.490 . S
C892 H882 0.930 . S
C892 C891 1.400 . S
C892 C895 1.386 . S
H893 C909 0.930 . S
H894 C910 0.931 . S
C895 H883 0.929 . S
C895 C889 1.390 . S
C895 C892 1.386 . S
C896 C891 1.490 . S
C896 C898 1.395 . S
C896 C899 1.403 . S
H897 C903 0.930 . S
C898 H884 0.930 . S
C898 C896 1.395 . S
C898 C901 1.403 . S
C899 C896 1.403 . S
C899 C900 1.524 . S
C899 C903 1.400 . S
C900 H885 0.960 . S
C900 H886 0.960 . S
C900 H887 0.960 . S
C900 C899 1.524 . S
C901 C898 1.403 . S
C901 C902 1.392 . S
C901 C905 1.495 . S
C902 C901 1.392 . S
C902 C903 1.385 . S
C902 C904 1.478 . S
C903 H897 0.930 . S
C903 C899 1.400 . S
C903 C902 1.385 . S
C904 C902 1.478 . S
C904 C906 1.381 . S
C904 C910 1.383 . S
C905 C901 1.495 . S
C905 H911 0.959 . S
C905 H912 0.961 . S
C905 H913 0.960 . S
C906 C904 1.381 . S
C906 C907 1.394 . S
C906 H914 0.930 . S
C907 C906 1.394 . S
C907 C908 1.383 . S
C907 H915 0.929 . S
C908 C907 1.383 . S
C908 C909 1.377 . S
C909 H893 0.930 . S
C909 C908 1.377 . S
C909 C910 1.379 . S
C910 H894 0.931 . S
C910 C904 1.383 . S
C910 C909 1.379 . S
H911 C905 0.959 . S
H912 C905 0.961 . S
H913 C905 0.960 . S
H914 C906 0.930 . S
H915 C907 0.929 . S
H916 C924 0.929 . S
H917 C926 0.930 . S
H918 C928 0.930 . S
H919 C931 0.929 . S
H920 C934 0.930 . S
H921 C936 0.976 . S
H922 C936 0.960 . S
H923 C936 0.960 . S
C924 H916 0.929 . S
C924 C925 1.377 . S
C924 C926 1.384 . S
C925 C924 1.377 . S
C925 C931 1.390 . S
C926 H917 0.930 . S
C926 C924 1.384 . S
C926 C927 1.372 . S
C927 C926 1.372 . S
C927 C928 1.400 . S
C927 C932 1.490 . S
C928 H918 0.930 . S
C928 C927 1.400 . S
C928 C931 1.386 . S
H929 C945 0.930 . S
H930 C946 0.931 . S
C931 H919 0.929 . S
C931 C925 1.390 . S
C931 C928 1.386 . S
C932 C927 1.490 . S
C932 C934 1.395 . S
C932 C935 1.403 . S
H933 C939 0.930 . S
C934 H920 0.930 . S
C934 C932 1.395 . S
C934 C937 1.403 . S
C935 C932 1.403 . S
C935 C936 1.524 . S
C935 C939 1.400 . S
C936 H921 0.976 . S
C936 H922 0.960 . S
C936 H923 0.960 . S
C936 C935 1.524 . S
C937 C934 1.403 . S
C937 C938 1.392 . S
C937 C941 1.495 . S
C938 C937 1.392 . S
C938 C939 1.385 . S
C938 C940 1.478 . S
C939 H933 0.930 . S
C939 C935 1.400 . S
C939 C938 1.385 . S
C940 C938 1.478 . S
C940 C942 1.381 . S
C940 C946 1.383 . S
C941 C937 1.495 . S
C941 H947 0.959 . S
C941 H948 0.961 . S
C941 H949 0.960 . S
C942 C940 1.381 . S
C942 C943 1.394 . S
C942 H950 0.930 . S
C943 C942 1.394 . S
C943 C944 1.383 . S
C943 H951 0.929 . S
C944 C943 1.383 . S
C944 C945 1.377 . S
C945 H929 0.930 . S
C945 C944 1.377 . S
C945 C946 1.379 . S
C946 H930 0.931 . S
C946 C940 1.383 . S
C946 C945 1.379 . S
H947 C941 0.959 . S
H948 C941 0.961 . S
H949 C941 0.960 . S
H950 C942 0.930 . S
H951 C943 0.929 . S
H952 C960 0.929 . S
H953 C962 0.930 . S
H954 C964 0.930 . S
H955 C967 0.929 . S
H956 C970 0.930 . S
H957 C972 0.960 . S
H958 C972 0.960 . S
H959 C972 0.960 . S
C960 H952 0.929 . S
C960 C961 1.377 . S
C960 C962 1.384 . S
C961 C960 1.377 . S
C961 C967 1.390 . S
C962 H953 0.930 . S
C962 C960 1.384 . S
C962 C963 1.372 . S
C963 C962 1.372 . S
C963 C964 1.400 . S
C963 C968 1.490 . S
C964 H954 0.930 . S
C964 C963 1.400 . S
C964 C967 1.386 . S
H965 C981 0.930 1_545 S
H966 C982 0.931 1_545 S
C967 H955 0.929 . S
C967 C961 1.390 . S
C967 C964 1.386 . S
C968 C963 1.490 . S
C968 C970 1.395 . S
C968 C971 1.403 . S
H969 C975 0.930 . S
C970 H956 0.930 . S
C970 C968 1.395 . S
C970 C973 1.403 . S
C971 C968 1.403 . S
C971 C972 1.524 . S
C971 C975 1.400 . S
C972 H957 0.960 . S
C972 H958 0.960 . S
C972 H959 0.960 . S
C972 C971 1.524 . S
C973 C970 1.403 . S
C973 C974 1.392 . S
C973 C977 1.495 1_556 S
C974 C973 1.392 . S
C974 C975 1.385 . S
C974 C976 1.478 . S
C975 H969 0.930 . S
C975 C971 1.400 . S
C975 C974 1.385 . S
C976 C974 1.478 . S
C976 C978 1.381 . S
C976 C982 1.383 . S
C977 C973 1.495 1_554 S
C977 H983 0.959 . S
C977 H984 0.961 . S
C977 H985 0.960 . S
C978 C976 1.381 . S
C978 C979 1.394 1_556 S
C978 H986 0.930 1_556 S
C979 C978 1.394 1_554 S
C979 C980 1.383 1_554 S
C979 H987 0.929 . S
C980 C979 1.383 1_556 S
C980 C981 1.377 . S
C981 H965 0.930 1_565 S
C981 C980 1.377 . S
C981 C982 1.379 . S
C982 H966 0.931 1_565 S
C982 C976 1.383 . S
C982 C981 1.379 . S
H983 C977 0.959 . S
H984 C977 0.961 . S
H985 C977 0.960 . S
H986 C978 0.930 1_554 S
H987 C979 0.929 . S
H988 C996 0.929 . S
H989 C998 0.930 . S
H990 C1000 0.930 . S
H991 C1003 0.929 . S
H992 C1006 0.930 . S
H993 C1008 0.960 . S
H994 C1008 0.960 . S
H995 C1008 0.960 . S
C996 H988 0.929 . S
C996 C997 1.377 . S
C996 C998 1.384 . S
C997 C996 1.377 . S
C997 C1003 1.390 . S
C998 H989 0.930 . S
C998 C996 1.384 . S
C998 C999 1.372 . S
C999 C998 1.372 . S
C999 C1000 1.400 . S
C999 C1004 1.490 . S
C1000 H990 0.930 . S
C1000 C999 1.400 . S
C1000 C1003 1.386 . S
H1001 C1017 0.930 . S
H1002 C1018 0.931 . S
C1003 H991 0.929 . S
C1003 C997 1.390 . S
C1003 C1000 1.386 . S
C1004 C999 1.490 . S
C1004 C1006 1.395 . S
C1004 C1007 1.403 . S
H1005 C1011 0.930 . S
C1006 H992 0.930 . S
C1006 C1004 1.395 . S
C1006 C1009 1.403 . S
C1007 C1004 1.403 . S
C1007 C1008 1.524 . S
C1007 C1011 1.400 . S
C1008 H993 0.960 . S
C1008 H994 0.960 . S
C1008 H995 0.960 . S
C1008 C1007 1.524 . S
C1009 C1006 1.403 . S
C1009 C1010 1.392 . S
C1009 C1013 1.495 . S
C1010 C1009 1.392 . S
C1010 C1011 1.385 . S
C1010 C1012 1.478 . S
C1011 H1005 0.930 . S
C1011 C1007 1.400 . S
C1011 C1010 1.385 . S
C1012 C1010 1.478 . S
C1012 C1014 1.381 . S
C1012 C1018 1.383 . S
C1013 C1009 1.495 . S
C1013 H1019 0.959 . S
C1013 H1020 0.961 . S
C1013 H1021 0.960 . S
C1014 C1012 1.381 . S
C1014 C1015 1.394 . S
C1014 H1022 0.930 . S
C1015 C1014 1.394 . S
C1015 C1016 1.383 . S
C1015 H1023 0.929 . S
C1016 C1015 1.383 . S
C1016 C1017 1.377 . S
C1017 H1001 0.930 . S
C1017 C1016 1.377 . S
C1017 C1018 1.379 . S
C1018 H1002 0.931 . S
C1018 C1012 1.383 . S
C1018 C1017 1.379 . S
H1019 C1013 0.959 . S
H1020 C1013 0.961 . S
H1021 C1013 0.960 . S
H1022 C1014 0.930 . S
H1023 C1015 0.929 . S
H1024 C1032 0.929 . S
H1025 C1034 0.930 . S
H1026 C1036 0.930 . S
H1027 C1039 0.929 . S
H1028 C1042 0.930 . S
H1029 C1044 0.960 . S
H1030 C1044 0.960 . S
H1031 C1044 0.960 . S
C1032 H1024 0.929 . S
C1032 C1033 1.377 . S
C1032 C1034 1.384 . S
C1033 C1032 1.377 . S
C1033 C1039 1.390 . S
C1034 H1025 0.930 . S
C1034 C1032 1.384 . S
C1034 C1035 1.372 . S
C1035 C1034 1.372 . S
C1035 C1036 1.400 . S
C1035 C1040 1.490 . S
C1036 H1026 0.930 . S
C1036 C1035 1.400 . S
C1036 C1039 1.386 . S
H1037 C1053 0.910 1_556 S
H1038 C1054 0.931 . S
C1039 H1027 0.929 . S
C1039 C1033 1.390 . S
C1039 C1036 1.386 . S
C1040 C1035 1.490 . S
C1040 C1042 1.395 . S
C1040 C1043 1.403 . S
H1041 C1047 0.930 . S
C1042 H1028 0.930 . S
C1042 C1040 1.395 . S
C1042 C1045 1.403 . S
C1043 C1040 1.403 . S
C1043 C1044 1.524 . S
C1043 C1047 1.400 . S
C1044 H1029 0.960 . S
C1044 H1030 0.960 . S
C1044 H1031 0.960 . S
C1044 C1043 1.524 . S
C1045 C1042 1.403 . S
C1045 C1046 1.392 . S
C1045 C1049 1.495 . S
C1046 C1045 1.392 . S
C1046 C1047 1.385 . S
C1046 C1048 1.478 . S
C1047 H1041 0.930 . S
C1047 C1043 1.400 . S
C1047 C1046 1.385 . S
C1048 C1046 1.478 . S
C1048 C1050 1.381 . S
C1048 C1054 1.383 . S
C1049 C1045 1.495 . S
C1049 H1055 0.959 . S
C1049 H1056 0.961 . S
C1049 H1057 0.960 . S
C1050 C1048 1.381 . S
C1050 C1051 1.394 . S
C1050 H1058 0.930 . S
C1051 C1050 1.394 . S
C1051 C1052 1.383 . S
C1051 H1059 0.929 . S
C1052 C1051 1.383 . S
C1052 C1053 1.377 . S
C1053 H1037 0.910 1_554 S
C1053 C1052 1.377 . S
C1053 C1054 1.379 . S
C1054 H1038 0.931 . S
C1054 C1048 1.383 . S
C1054 C1053 1.379 . S
H1055 C1049 0.959 . S
H1056 C1049 0.961 . S
H1057 C1049 0.960 . S
H1058 C1050 0.930 . S
H1059 C1051 0.929 . S
H1060 C1068 0.929 . S
H1061 C1070 0.930 . S
H1062 C1072 0.930 . S
H1063 C1075 0.929 . S
H1064 C1078 0.930 . S
H1065 C1080 0.960 . S
H1066 C1080 0.960 . S
H1067 C1080 0.960 . S
C1068 H1060 0.929 . S
C1068 C1069 1.377 . S
C1068 C1070 1.384 . S
C1069 C1068 1.377 . S
C1069 C1075 1.390 . S
C1070 H1061 0.930 . S
C1070 C1068 1.384 . S
C1070 C1071 1.372 . S
C1071 C1070 1.372 . S
C1071 C1072 1.400 . S
C1071 C1076 1.490 . S
C1072 H1062 0.930 . S
C1072 C1071 1.400 . S
C1072 C1075 1.386 . S
H1073 C1089 0.930 . S
H1074 C1090 0.931 . S
C1075 H1063 0.929 . S
C1075 C1069 1.390 . S
C1075 C1072 1.386 . S
C1076 C1071 1.490 . S
C1076 C1078 1.395 . S
C1076 C1079 1.403 . S
H1077 C1083 0.930 . S
C1078 H1064 0.930 . S
C1078 C1076 1.395 . S
C1078 C1081 1.403 . S
C1079 C1076 1.403 . S
C1079 C1080 1.524 . S
C1079 C1083 1.400 . S
C1080 H1065 0.960 . S
C1080 H1066 0.960 . S
C1080 H1067 0.960 . S
C1080 C1079 1.524 . S
C1081 C1078 1.403 . S
C1081 C1082 1.392 . S
C1081 C1085 1.495 . S
C1082 C1081 1.392 . S
C1082 C1083 1.385 . S
C1082 C1084 1.478 . S
C1083 H1077 0.930 . S
C1083 C1079 1.400 . S
C1083 C1082 1.385 . S
C1084 C1082 1.478 . S
C1084 C1086 1.381 . S
C1084 C1090 1.383 . S
C1085 C1081 1.495 . S
C1085 H1091 0.959 . S
C1085 H1092 0.961 . S
C1085 H1093 0.960 . S
C1086 C1084 1.381 . S
C1086 C1087 1.394 . S
C1086 H1094 0.930 . S
C1087 C1086 1.394 . S
C1087 C1088 1.383 . S
C1087 H1095 0.929 . S
C1088 C1087 1.383 . S
C1088 C1089 1.377 . S
C1089 H1073 0.930 . S
C1089 C1088 1.377 . S
C1089 C1090 1.379 . S
C1090 H1074 0.931 . S
C1090 C1084 1.383 . S
C1090 C1089 1.379 . S
H1091 C1085 0.959 . S
H1092 C1085 0.961 . S
H1093 C1085 0.960 . S
H1094 C1086 0.930 . S
H1095 C1087 0.929 . S
H1096 C1104 0.929 . S
H1097 C1106 0.930 . S
H1098 C1108 0.930 . S
H1099 C1111 0.929 . S
H1100 C1114 0.930 . S
H1101 C1116 0.983 . S
H1102 C1116 0.960 . S
H1103 C1116 0.960 . S
C1104 H1096 0.929 . S
C1104 C1105 1.377 . S
C1104 C1106 1.384 . S
C1105 C1104 1.377 . S
C1105 C1111 1.390 . S
C1106 H1097 0.930 . S
C1106 C1104 1.384 . S
C1106 C1107 1.372 . S
C1107 C1106 1.372 . S
C1107 C1108 1.400 . S
C1107 C1112 1.490 . S
C1108 H1098 0.930 . S
C1108 C1107 1.400 . S
C1108 C1111 1.386 . S
H1109 C1125 0.952 . S
H1110 C1126 0.931 . S
C1111 H1099 0.929 . S
C1111 C1105 1.390 . S
C1111 C1108 1.386 . S
C1112 C1107 1.490 . S
C1112 C1114 1.395 . S
C1112 C1115 1.403 . S
H1113 C1119 0.930 . S
C1114 H1100 0.930 . S
C1114 C1112 1.395 . S
C1114 C1117 1.403 . S
C1115 C1112 1.403 . S
C1115 C1116 1.524 . S
C1115 C1119 1.400 . S
C1116 H1101 0.983 . S
C1116 H1102 0.960 . S
C1116 H1103 0.960 . S
C1116 C1115 1.524 . S
C1117 C1114 1.403 . S
C1117 C1118 1.392 . S
C1117 C1121 1.495 . S
C1118 C1117 1.392 . S
C1118 C1119 1.385 . S
C1118 C1120 1.478 . S
C1119 H1113 0.930 . S
C1119 C1115 1.400 . S
C1119 C1118 1.385 . S
C1120 C1118 1.478 . S
C1120 C1122 1.381 . S
C1120 C1126 1.383 . S
C1121 C1117 1.495 . S
C1121 H1127 0.959 . S
C1121 H1128 0.961 . S
C1121 H1129 0.960 . S
C1122 C1120 1.381 . S
C1122 C1123 1.389 1_556 S
C1122 H1130 0.930 1_556 S
C1123 C1122 1.389 1_554 S
C1123 C1124 1.370 1_554 S
C1123 H1131 0.948 . S
C1124 C1123 1.370 1_556 S
C1124 C1125 1.377 . S
C1125 H1109 0.952 . S
C1125 C1124 1.377 . S
C1125 C1126 1.379 . S
C1126 H1110 0.931 . S
C1126 C1120 1.383 . S
C1126 C1125 1.379 . S
H1127 C1121 0.959 . S
H1128 C1121 0.961 . S
H1129 C1121 0.960 . S
H1130 C1122 0.930 1_554 S
H1131 C1123 0.948 . S
H1132 C1140 0.929 . S
H1133 C1142 0.930 . S
H1134 C1144 0.930 . S
H1135 C1147 0.929 . S
H1136 C1150 0.930 . S
H1137 C1152 0.960 . S
H1138 C1152 0.960 . S
H1139 C1152 0.960 . S
C1140 H1132 0.929 . S
C1140 C1141 1.377 . S
C1140 C1142 1.384 . S
C1141 C1140 1.377 . S
C1141 C1147 1.390 . S
C1142 H1133 0.930 . S
C1142 C1140 1.384 . S
C1142 C1143 1.372 . S
C1143 C1142 1.372 . S
C1143 C1144 1.400 . S
C1143 C1148 1.490 . S
C1144 H1134 0.930 . S
C1144 C1143 1.400 . S
C1144 C1147 1.386 . S
H1145 C1161 0.930 . S
H1146 C1162 0.931 . S
C1147 H1135 0.929 . S
C1147 C1141 1.390 . S
C1147 C1144 1.386 . S
C1148 C1143 1.490 . S
C1148 C1150 1.395 . S
C1148 C1151 1.403 . S
H1149 C1155 0.930 . S
C1150 H1136 0.930 . S
C1150 C1148 1.395 . S
C1150 C1153 1.403 . S
C1151 C1148 1.403 . S
C1151 C1152 1.524 . S
C1151 C1155 1.400 . S
C1152 H1137 0.960 . S
C1152 H1138 0.960 . S
C1152 H1139 0.960 . S
C1152 C1151 1.524 . S
C1153 C1150 1.403 . S
C1153 C1154 1.392 . S
C1153 C1157 1.495 . S
C1154 C1153 1.392 . S
C1154 C1155 1.385 . S
C1154 C1156 1.478 . S
C1155 H1149 0.930 . S
C1155 C1151 1.400 . S
C1155 C1154 1.385 . S
C1156 C1154 1.478 . S
C1156 C1158 1.381 . S
C1156 C1162 1.383 . S
C1157 C1153 1.495 . S
C1157 H1163 0.959 . S
C1157 H1164 0.961 . S
C1157 H1165 0.960 . S
C1158 C1156 1.381 . S
C1158 C1159 1.394 . S
C1158 H1166 0.930 . S
C1159 C1158 1.394 . S
C1159 C1160 1.383 . S
C1159 H1167 0.929 . S
C1160 C1159 1.383 . S
C1160 C1161 1.377 . S
C1161 H1145 0.930 . S
C1161 C1160 1.377 . S
C1161 C1162 1.379 . S
C1162 H1146 0.931 . S
C1162 C1156 1.383 . S
C1162 C1161 1.379 . S
H1163 C1157 0.959 . S
H1164 C1157 0.961 . S
H1165 C1157 0.960 . S
H1166 C1158 0.930 . S
H1167 C1159 0.929 . S
H1168 C1176 0.929 . S
H1169 C1178 0.930 . S
H1170 C1180 0.930 . S
H1171 C1183 0.929 . S
H1172 C1186 0.930 . S
H1173 C1188 0.960 . S
H1174 C1188 0.960 . S
H1175 C1188 0.960 . S
C1176 H1168 0.929 . S
C1176 C1177 1.377 . S
C1176 C1178 1.384 . S
C1177 C1176 1.377 . S
C1177 C1183 1.390 . S
C1178 H1169 0.930 . S
C1178 C1176 1.384 . S
C1178 C1179 1.372 . S
C1179 C1178 1.372 . S
C1179 C1180 1.400 . S
C1179 C1184 1.490 . S
C1180 H1170 0.930 . S
C1180 C1179 1.400 . S
C1180 C1183 1.386 . S
H1181 C1197 0.930 . S
H1182 C1198 0.931 . S
C1183 H1171 0.929 . S
C1183 C1177 1.390 . S
C1183 C1180 1.386 . S
C1184 C1179 1.490 . S
C1184 C1186 1.395 . S
C1184 C1187 1.403 . S
H1185 C1191 0.930 . S
C1186 H1172 0.930 . S
C1186 C1184 1.395 . S
C1186 C1189 1.403 . S
C1187 C1184 1.403 . S
C1187 C1188 1.524 . S
C1187 C1191 1.400 . S
C1188 H1173 0.960 . S
C1188 H1174 0.960 . S
C1188 H1175 0.960 . S
C1188 C1187 1.524 . S
C1189 C1186 1.403 . S
C1189 C1190 1.392 . S
C1189 C1193 1.495 1_455 S
C1190 C1189 1.392 . S
C1190 C1191 1.385 . S
C1190 C1192 1.478 . S
C1191 H1185 0.930 . S
C1191 C1187 1.400 . S
C1191 C1190 1.385 . S
C1192 C1190 1.478 . S
C1192 C1194 1.381 . S
C1192 C1198 1.383 . S
C1193 C1189 1.495 1_655 S
C1193 H1199 0.959 . S
C1193 H1200 0.961 . S
C1193 H1201 0.960 . S
C1194 C1192 1.381 . S
C1194 C1195 1.394 . S
C1194 H1202 0.930 . S
C1195 C1194 1.394 . S
C1195 C1196 1.383 . S
C1195 H1203 0.929 . S
C1196 C1195 1.383 . S
C1196 C1197 1.377 . S
C1197 H1181 0.930 . S
C1197 C1196 1.377 . S
C1197 C1198 1.379 . S
C1198 H1182 0.931 . S
C1198 C1192 1.383 . S
C1198 C1197 1.379 . S
H1199 C1193 0.959 . S
H1200 C1193 0.961 . S
H1201 C1193 0.960 . S
H1202 C1194 0.930 . S
H1203 C1195 0.929 . S
H1204 C1212 0.929 . S
H1205 C1214 0.930 . S
H1206 C1216 0.930 . S
H1207 C1219 0.929 . S
H1208 C1222 0.930 . S
H1209 C1224 0.960 . S
H1210 C1224 0.960 . S
H1211 C1224 0.960 . S
C1212 H1204 0.929 . S
C1212 C1213 1.377 . S
C1212 C1214 1.384 . S
C1213 C1212 1.377 . S
C1213 C1219 1.390 . S
C1214 H1205 0.930 . S
C1214 C1212 1.384 . S
C1214 C1215 1.372 . S
C1215 C1214 1.372 . S
C1215 C1216 1.400 . S
C1215 C1220 1.490 . S
C1216 H1206 0.930 . S
C1216 C1215 1.400 . S
C1216 C1219 1.386 . S
H1217 C1233 0.930 . S
H1218 C1234 0.931 . S
C1219 H1207 0.929 . S
C1219 C1213 1.390 . S
C1219 C1216 1.386 . S
C1220 C1215 1.490 . S
C1220 C1222 1.395 . S
C1220 C1223 1.403 . S
H1221 C1227 0.930 . S
C1222 H1208 0.930 . S
C1222 C1220 1.395 . S
C1222 C1225 1.403 . S
C1223 C1220 1.403 . S
C1223 C1224 1.524 . S
C1223 C1227 1.400 . S
C1224 H1209 0.960 . S
C1224 H1210 0.960 . S
C1224 H1211 0.960 . S
C1224 C1223 1.524 . S
C1225 C1222 1.403 . S
C1225 C1226 1.392 . S
C1225 C1229 1.495 . S
C1226 C1225 1.392 . S
C1226 C1227 1.385 . S
C1226 C1228 1.478 . S
C1227 H1221 0.930 . S
C1227 C1223 1.400 . S
C1227 C1226 1.385 . S
C1228 C1226 1.478 . S
C1228 C1230 1.381 . S
C1228 C1234 1.383 . S
C1229 C1225 1.495 . S
C1229 H1235 0.959 . S
C1229 H1236 0.961 . S
C1229 H1237 0.960 . S
C1230 C1228 1.381 . S
C1230 C1231 1.394 . S
C1230 H1238 0.930 . S
C1231 C1230 1.394 . S
C1231 C1232 1.383 . S
C1231 H1239 0.929 . S
C1232 C1231 1.383 . S
C1232 C1233 1.377 . S
C1233 H1217 0.930 . S
C1233 C1232 1.377 . S
C1233 C1234 1.379 . S
C1234 H1218 0.931 . S
C1234 C1228 1.383 . S
C1234 C1233 1.379 . S
H1235 C1229 0.959 . S
H1236 C1229 0.961 . S
H1237 C1229 0.960 . S
H1238 C1230 0.930 . S
H1239 C1231 0.929 . S
C385 C29 2.115 . S
C404 C272 2.222 . S
C421 C49 1.050 . S
C440 N292 1.033 . S
C476 C326 1.995 . S
C457 C93 1.902 . S
C493 C119 1.189 . S
C512 N360 1.226 . S
C548 C313 2.328 . S
C529 C17 2.247 . S
C584 N270 1.156 . S
C565 C61 1.231 . S
C620 C347 1.929 1_556 S
C601 C81 1.853 . S
C656 N322 1.043 . S
C637 C125 0.975 . S
C673 C23 1.720 . S
C692 C362 1.799 . S
C728 C296 1.659 . S
C709 C87 1.583 . S
C745 C113 1.397 . S
C764 C257 1.466 . S
C781 C55 1.428 . S
C800 C343 1.429 . S
C836 C283 2.146 . S
C817 C157 2.138 . S
C853 C189 1.062 . S
C872 N300 1.077 . S
C889 C221 1.954 . S
C908 C317 1.962 . S
C925 C253 1.231 . S
C944 N352 1.288 . S
C961 C145 2.385 . S
C980 C302 2.382 . S
C1016 N262 1.143 . S
C997 C183 1.096 . S
C1052 C356 1.970 . S
C1033 C209 1.962 . S
C1088 N330 0.932 . S
C1069 C247 0.945 . S
C1105 C151 1.819 . S
C1124 C373 1.818 . S
C1160 C287 1.658 . S
C1141 C215 1.665 . S
C1196 C266 1.448 . S
C1177 C241 1.376 . S
C1213 C177 1.394 . S
C1232 C332 1.470 . S
