# Generated by pormake.
# Topology anh, (6,3)-cn, num edge types: 1
# Building blocks:
#     Node 0, Type 0, BuildingBlock: BETFEN_clean_sbu_0, # of connection points: 6
#     Node 1, Type 0, BuildingBlock: BETFEN_clean_sbu_0, # of connection points: 6
#     Node 2, Type 0, BuildingBlock: BETFEN_clean_sbu_0, # of connection points: 6
#     Node 3, Type 1, BuildingBlock: PAMTOO_clean_linker_0, # of connection points: 3
#     Node 4, Type 1, BuildingBlock: PAMTOO_clean_linker_0, # of connection points: 3
#     Node 5, Type 1, BuildingBlock: PAMTOO_clean_linker_0, # of connection points: 3
#     Node 6, Type 1, BuildingBlock: PAMTOO_clean_linker_0, # of connection points: 3
#     Node 7, Type 1, BuildingBlock: PAMTOO_clean_linker_0, # of connection points: 3
#     Node 8, Type 1, BuildingBlock: PAMTOO_clean_linker_0, # of connection points: 3
#     Edge 9, Type (0, 1), BuildingBlock: EYOCIG_clean_linker_4, # of connection points: 2
#     Edge 10, Type (0, 1), BuildingBlock: EYOCIG_clean_linker_4, # of connection points: 2
#     Edge 11, Type (0, 1), BuildingBlock: EYOCIG_clean_linker_4, # of connection points: 2
#     Edge 12, Type (0, 1), BuildingBlock: EYOCIG_clean_linker_4, # of connection points: 2
#     Edge 13, Type (0, 1), BuildingBlock: EYOCIG_clean_linker_4, # of connection points: 2
#     Edge 14, Type (0, 1), BuildingBlock: EYOCIG_clean_linker_4, # of connection points: 2
#     Edge 15, Type (0, 1), BuildingBlock: EYOCIG_clean_linker_4, # of connection points: 2
#     Edge 16, Type (0, 1), BuildingBlock: EYOCIG_clean_linker_4, # of connection points: 2
#     Edge 17, Type (0, 1), BuildingBlock: EYOCIG_clean_linker_4, # of connection points: 2
#     Edge 18, Type (0, 1), BuildingBlock: EYOCIG_clean_linker_4, # of connection points: 2
#     Edge 19, Type (0, 1), BuildingBlock: EYOCIG_clean_linker_4, # of connection points: 2
#     Edge 20, Type (0, 1), BuildingBlock: EYOCIG_clean_linker_4, # of connection points: 2
#     Edge 21, Type (0, 1), BuildingBlock: EYOCIG_clean_linker_4, # of connection points: 2
#     Edge 22, Type (0, 1), BuildingBlock: EYOCIG_clean_linker_4, # of connection points: 2
#     Edge 23, Type (0, 1), BuildingBlock: EYOCIG_clean_linker_4, # of connection points: 2
#     Edge 24, Type (0, 1), BuildingBlock: EYOCIG_clean_linker_4, # of connection points: 2
#     Edge 25, Type (0, 1), BuildingBlock: EYOCIG_clean_linker_4, # of connection points: 2
#     Edge 26, Type (0, 1), BuildingBlock: EYOCIG_clean_linker_4, # of connection points: 2
# Relax obj value: 0.204
# Max RMSD: 0.202
# Mean RMSD: 0.123
data_MOF--net-anh--node1-BETFEN_clean_sbu_0--node2-PAMTOO_clean_linker_0--edge1-EYOCIG_clean_linker_4
_symmetry_space_group_name_H-M    P1
_symmetry_Int_Tables_number       1
_symmetry_cell_setting            triclinic
loop_
_symmetry_equiv_pos_as_xyz
'x, y, z'
_cell_length_a     23.699943
_cell_length_b     25.035157
_cell_length_c     39.251161
_cell_angle_alpha  86.349866
_cell_angle_beta   93.134225
_cell_angle_gamma 98.971361
loop_
_atom_site_label
_atom_site_type_symbol
_atom_site_fract_x
_atom_site_fract_y
_atom_site_fract_z
_atom_type_partial_charge
Pr0 Pr 1.04248 0.54585 0.14563 0.0
Pr1 Pr 0.06961 0.66422 0.13924 0.0
C2 C 0.99291 0.44362 0.15961 0.0
C3 C 0.93288 0.41624 0.15783 0.0
C4 C 0.90979 0.39048 0.12819 0.0
C5 C 0.85388 0.36259 0.12717 0.0
C6 C 0.82071 0.35992 0.1558 0.0
C7 C 0.84236 0.38744 0.18475 0.0
C8 C 0.89805 0.41545 0.1858 0.0
C9 C 0.05803 0.58593 0.07884 0.0
C10 C 0.93413 0.61927 0.13984 0.0
C11 C 0.11799 0.76584 0.12231 0.0
C12 C 0.17691 0.79517 0.12621 0.0
C13 C 0.19584 0.81997 0.15678 0.0
C14 C 0.25142 0.84745 0.16057 0.0
C15 C 0.28886 0.85069 0.13393 0.0
C16 C 0.27106 0.82527 0.10363 0.0
C17 C 0.21524 0.79773 0.09973 0.0
C18 C 0.05747 0.62472 0.20664 0.0
C19 C 0.17836 0.59058 0.14544 0.0
O20 O 1.00688 0.47855 0.18324 0.0
O21 O 1.01611 0.45959 0.13053 0.0
O22 O 1.02902 0.60551 0.09957 0.0
O23 O 0.0792 0.54412 0.09188 0.0
O24 O 0.97076 0.66128 0.12912 0.0
O25 O 0.95182 0.57345 0.15073 0.0
O26 O 0.10968 0.72758 0.10058 0.0
O27 O 0.09025 0.75275 0.15029 0.0
O28 O 0.0847 0.6046 0.18521 0.0
O29 O 1.03666 0.66702 0.194 0.0
O30 O 0.14153 0.54799 0.15527 0.0
O31 O 0.16084 0.63695 0.13555 0.0
H32 H 0.93534 0.39063 0.10613 0.0
H33 H 0.83768 0.34097 0.10473 0.0
H34 H 0.81711 0.3853 0.20715 0.0
H35 H 0.91421 0.43521 0.20889 0.0
H36 H 0.16767 0.81861 0.17774 0.0
H37 H 0.26482 0.86713 0.18413 0.0
H38 H 0.29969 0.82778 0.08279 0.0
H39 H 0.20199 0.77886 0.07591 0.0
Pr40 Pr 0.71603 0.10443 0.5033 0.0
Pr41 Pr 0.58266 0.08204 0.50164 0.0
C42 C 0.82462 0.14934 0.49366 0.0
C43 C 0.85288 0.20644 0.49126 0.0
C44 C 0.88505 0.22899 0.51952 0.0
C45 C 0.90992 0.2835 0.51798 0.0
C46 C 0.90324 0.31593 0.48812 0.0
C47 C 0.87094 0.29402 0.46002 0.0
C48 C 0.84586 0.2397 0.46153 0.0
C49 C 0.66705 1.08114 0.56544 0.0
C50 C 0.64204 0.21505 0.50492 0.0
C51 C 0.47883 1.04036 0.52256 0.0
C52 C 0.44124 0.98892 0.51559 0.0
C53 C 0.41626 0.97924 0.48278 0.0
C54 C 0.38282 0.92954 0.47636 0.0
C55 C 0.37412 0.88882 0.5025 0.0
C56 C 0.39991 0.89753 0.53501 0.0
C57 C 0.43314 0.94736 0.54155 0.0
C58 C 0.6154 0.08614 0.4342 0.0
C59 C 0.65769 0.97203 0.50289 0.0
O60 O 0.78895 0.13282 0.4684 0.0
O61 O 0.80633 0.13108 0.52368 0.0
O62 O 0.65036 0.11204 0.54181 0.0
O63 O 0.71238 1.06161 0.55821 0.0
O64 O 0.59339 0.17971 0.50596 0.0
O65 O 0.69174 0.19637 0.50279 0.0
O66 O 0.52578 1.03516 0.54086 0.0
O67 O 0.48643 1.07753 0.49734 0.0
O68 O 0.64868 0.09201 0.46025 0.0
O69 O 0.56243 1.07883 0.4424 0.0
O70 O 0.70542 1.00729 0.49767 0.0
O71 O 0.60883 0.99094 0.50688 0.0
H72 H 0.89098 0.20448 0.54281 0.0
H73 H 0.93517 0.29996 0.53982 0.0
H74 H 0.86578 0.31873 0.4367 0.0
H75 H 0.82109 0.2239 0.43938 0.0
H76 H 0.42241 1.00993 0.46204 0.0
H77 H 0.36303 0.92319 0.45109 0.0
H78 H 0.39349 0.8663 0.55545 0.0
H79 H 0.45259 0.95342 0.56692 0.0
Pr80 Pr 0.61375 0.56937 0.82529 0.0
Pr81 Pr 0.63374 0.68127 0.82124 0.0
C82 C 0.5939 0.462 0.82523 0.0
C83 C 0.63303 0.42478 0.83907 0.0
C84 C 0.63559 0.40959 0.87422 0.0
C85 C 0.67088 0.37258 0.88696 0.0
C86 C 0.70286 0.34932 0.86467 0.0
C87 C 0.70531 0.36902 0.8304 0.0
C88 C 0.67045 0.4063 0.81762 0.0
C89 C 0.62713 0.61014 0.89037 0.0
C90 C 0.74843 0.61843 0.82722 0.0
C91 C 0.66301 0.78625 0.83273 0.0
C92 C 0.62952 0.82392 0.84588 0.0
C93 C 0.62869 0.87379 0.82798 0.0
C94 C 0.58566 0.90378 0.83311 0.0
C95 C 0.54323 0.88436 0.85633 0.0
C96 C 0.54638 0.83669 0.87638 0.0
C97 C 0.5895 0.80626 0.87106 0.0
C98 C 0.61955 0.64284 0.75548 0.0
C99 C 0.49974 0.63003 0.82043 0.0
O100 O 0.60977 0.49199 0.7979 0.0
O101 O 0.57231 0.48845 0.84764 0.0
O102 O 0.59633 0.62684 0.86613 0.0
O103 O 0.65558 0.57397 0.88091 0.0
O104 O 0.72912 0.66426 0.83034 0.0
O105 O 0.71268 0.57379 0.82245 0.0
O106 O 0.67673 0.74788 0.85428 0.0
O107 O 0.6445 0.7691 0.80278 0.0
O108 O 0.64966 0.62402 0.77954 0.0
O109 O 0.59492 0.68174 0.76507 0.0
O110 O 0.51986 0.58761 0.8104 0.0
O111 O 0.53561 0.67185 0.831 0.0
H112 H 0.6083 0.4241 0.89166 0.0
H113 H 0.66727 0.35699 0.91329 0.0
H114 H 0.72904 0.35084 0.81258 0.0
H115 H 0.6707 0.4184 0.79062 0.0
H116 H 0.65853 0.88744 0.80812 0.0
H117 H 0.58347 0.94058 0.81729 0.0
H118 H 0.51372 0.82127 0.89428 0.0
H119 H 0.58905 0.76729 0.88483 0.0
H120 H 0.67041 0.19266 0.25888 0.0
H121 H 0.56361 1.0367 0.26394 0.0
H122 H 0.58864 0.12509 0.16719 0.0
H123 H 0.47356 1.07645 0.17735 0.0
C124 C 0.48022 1.03893 0.19275 0.0
O125 O 0.53763 1.03679 0.19816 0.0
H126 H 0.45957 1.03778 0.2176 0.0
C127 C 0.64283 0.16025 0.24636 0.0
C128 C 0.63193 0.16427 0.21087 0.0
C129 C 0.61843 0.11418 0.26563 0.0
C130 C 0.58309 1.07233 0.24928 0.0
C131 C 0.57234 1.07654 0.21385 0.0
C132 C 0.59689 0.12237 0.19465 0.0
H133 H 0.64219 0.71875 0.58236 0.0
H134 H 0.64626 0.54778 0.58274 0.0
H135 H 0.65696 0.6444 0.48715 0.0
H136 H 0.58949 0.49818 0.49124 0.0
C137 C 0.6167 0.49206 0.51465 0.0
O138 O 0.65817 0.53973 0.51791 0.0
H139 H 0.588 0.48816 0.53642 0.0
C140 C 0.64444 0.68355 0.56799 0.0
C141 C 0.64975 0.6903 0.53241 0.0
C142 C 0.64268 0.6328 0.58578 0.0
C143 C 0.64631 0.58619 0.56833 0.0
C144 C 0.65025 0.58785 0.53266 0.0
C145 C 0.65217 0.64113 0.51449 0.0
H146 H 0.9948 0.62338 0.90793 0.0
H147 H 0.17805 0.63957 0.90776 0.0
H148 H 0.07836 0.63134 0.81246 0.0
H149 H 0.19349 0.57838 0.81249 0.0
C150 C 0.21237 0.5981 0.8359 0.0
O151 O 0.1843 0.64132 0.84133 0.0
H152 H 0.20735 0.56765 0.85786 0.0
C153 C 1.03356 0.62696 0.89386 0.0
C154 C 1.02981 0.62707 0.85818 0.0
C155 C 0.08654 0.63125 0.91171 0.0
C156 C 0.13693 0.63606 0.8939 0.0
C157 C 0.13454 0.6356 0.85808 0.0
C158 C 0.08057 0.63111 0.8401 0.0
H159 H 1.00811 0.52045 0.38402 0.0
H160 H 0.14731 0.65321 0.37774 0.0
H161 H 0.10036 0.5777 0.47557 0.0
H162 H 0.1304 0.69392 0.47676 0.0
C163 C 0.16021 0.70177 0.45549 0.0
O164 O 0.17018 0.6536 0.44381 0.0
H165 H 0.14177 0.72649 0.43443 0.0
C166 C 1.04125 0.54854 0.39641 0.0
C167 C 0.04978 0.54503 0.43207 0.0
C168 C 0.0764 0.58745 0.37671 0.0
C169 C 0.11975 0.62309 0.39277 0.0
C170 C 0.12806 0.61968 0.4284 0.0
C171 C 0.09313 0.58061 0.44804 0.0
H172 H 0.50038 0.99912 0.72696 0.0
H173 H 0.58626 0.1606 0.70235 0.0
H174 H 0.52942 0.11647 0.80355 0.0
H175 H 0.52004 0.21062 0.792 0.0
C176 C 0.56573 0.22432 0.78643 0.0
O177 O 0.58539 0.19334 0.76333 0.0
H178 H 0.57032 0.26702 0.77614 0.0
C179 C 0.51431 1.04049 0.73393 0.0
C180 C 0.50711 1.05534 0.76709 0.0
C181 C 0.5436 1.0784 0.71072 0.0
C182 C 0.56266 0.13144 0.72001 0.0
C183 C 0.55724 0.1455 0.75331 0.0
C184 C 0.53078 0.1068 0.7771 0.0
H185 H 0.68779 0.62251 0.06226 0.0
H186 H 0.50586 0.61916 0.06194 0.0
H187 H 0.60418 0.61597 0.15765 0.0
H188 H 0.47427 0.55178 0.16108 0.0
C189 C 0.46074 0.57052 0.13618 0.0
O190 O 0.49925 0.61697 0.12838 0.0
H191 H 0.46004 0.54068 0.11628 0.0
C192 C 0.64922 0.62098 0.07624 0.0
C193 C 0.65285 0.61938 0.11199 0.0
C194 C 0.59669 0.62069 0.05818 0.0
C195 C 0.54655 0.61895 0.07593 0.0
C196 C 0.54851 0.61672 0.11185 0.0
C197 C 0.60211 0.61699 0.12999 0.0
C198 C 0.29051 0.5863 0.14319 0.0
C199 C 0.23923 0.58692 0.14451 0.0
C200 C 0.3507 0.58548 0.14072 0.0
C201 C 0.40124 0.58217 0.13846 0.0
C202 C 0.95608 0.41603 0.47878 0.0
C203 C 0.93319 0.37033 0.48487 0.0
C204 C 0.98717 0.46518 0.46626 0.0
C205 C 1.01675 0.50226 0.45186 0.0
C206 C 0.46785 0.94474 0.84169 0.0
C207 C 0.49398 0.91112 0.85501 0.0
C208 C 0.46539 0.98531 0.81564 0.0
C209 C 0.48396 1.01598 0.79273 0.0
C210 C 0.82161 0.62288 0.13845 0.0
C211 C 0.87302 0.62223 0.13884 0.0
C212 C 0.76084 0.62192 0.13536 0.0
C213 C 0.70981 0.62055 0.12851 0.0
C214 C 0.30146 0.80114 0.48858 0.0
C215 C 0.335 0.84013 0.49639 0.0
C216 C 0.25626 0.76144 0.47794 0.0
C217 C 0.21407 0.73235 0.46803 0.0
C218 C 0.68279 0.24986 0.86144 0.0
C219 C 0.70526 0.29287 0.87098 0.0
C220 C 0.63866 0.22478 0.83998 0.0
C221 C 0.60192 0.22087 0.81754 0.0
C222 C 0.65725 0.85993 0.5078 0.0
C223 C 0.65845 0.91071 0.50549 0.0
C224 C 0.65525 0.79938 0.51182 0.0
C225 C 0.65328 0.74884 0.51748 0.0
C226 C 0.86127 0.61828 0.83043 0.0
C227 C 0.80973 0.61753 0.82889 0.0
C228 C 0.92194 0.62059 0.83439 0.0
C229 C 0.97288 0.62363 0.84164 0.0
C230 C 0.38568 0.91431 0.14586 0.0
C231 C 0.34349 0.88413 0.13736 0.0
C232 C 0.42612 0.95506 0.1599 0.0
C233 C 0.45349 0.99237 0.17413 0.0
C234 C 0.64168 0.32638 0.50874 0.0
C235 C 0.64155 0.27605 0.50703 0.0
C236 C 0.64103 0.38622 0.51102 0.0
C237 C 0.63691 0.43573 0.51288 0.0
C238 C 0.3868 0.62738 0.82462 0.0
C239 C 0.43824 0.62868 0.82274 0.0
C240 C 0.32627 0.62305 0.82823 0.0
C241 C 0.27472 0.61549 0.83169 0.0
C242 C 0.72541 0.29189 0.16363 0.0
C243 C 0.76883 0.32213 0.15799 0.0
C244 C 0.68486 0.24947 0.17645 0.0
C245 C 0.65964 0.20987 0.19092 0.0
C246 C 0.07336 0.61737 0.01423 0.0
C247 C 0.06465 0.60524 0.04389 0.0
C248 C 0.08303 0.62592 0.979 0.0
C249 C 0.08785 0.6287 0.9485 0.0
C250 C 0.63762 0.0986 0.36891 0.0
C251 C 0.63224 0.09357 0.39939 0.0
C252 C 0.63556 0.10495 0.33284 0.0
C253 C 0.62847 0.11018 0.3022 0.0
C254 C 0.62918 0.62996 0.68937 0.0
C255 C 0.62583 0.6347 0.71975 0.0
C256 C 0.63374 0.62816 0.65342 0.0
C257 C 0.63783 0.62903 0.62268 0.0
C258 C 0.61076 1.06049 0.62179 0.0
C259 C 0.63797 1.06859 0.59653 0.0
C260 C 0.58112 1.05771 0.65205 0.0
C261 C 0.56141 1.06235 0.67908 0.0
C262 C 0.60941 0.6206 0.95551 0.0
C263 C 0.61711 0.61618 0.92569 0.0
C264 C 0.60032 0.62228 -0.00922 0.0
C265 C 0.59545 0.62154 0.0213 0.0
C266 C 0.06156 0.60132 0.2732 0.0
C267 C 0.06054 0.61087 0.24269 0.0
C268 C 0.06458 0.59402 0.3092 0.0
C269 C 0.06903 0.59014 0.33998 0.0
loop_
_geom_bond_atom_site_label_1
_geom_bond_atom_site_label_2
_geom_bond_distance
_geom_bond_site_symmetry_2
_ccdc_geom_bond_type
Pr0 C2 2.880 . S
Pr0 O20 2.562 . S
Pr0 O21 2.490 . S
Pr0 O22 2.695 1_655 S
Pr0 O23 2.512 . S
Pr0 O25 2.437 . S
Pr0 O28 2.436 . S
Pr0 O30 2.438 1_655 S
Pr1 C11 2.880 . S
Pr1 O22 2.436 . S
Pr1 O24 2.438 1_455 S
Pr1 O26 2.562 . S
Pr1 O27 2.490 . S
Pr1 O28 2.695 1_455 S
Pr1 O29 2.512 . S
Pr1 O31 2.437 . S
C2 Pr0 2.880 . S
C2 C3 1.491 . S
C2 O20 1.254 . S
C2 O21 1.225 . S
C3 C2 1.491 . S
C3 C4 1.392 . S
C3 C8 1.356 . S
C4 C3 1.392 . S
C4 C5 1.368 . S
C4 H32 0.929 . S
C5 C4 1.368 . S
C5 C6 1.386 . S
C5 H33 0.929 . S
C6 C5 1.386 . S
C6 C7 1.373 . S
C7 C6 1.373 . S
C7 C8 1.409 . S
C7 H34 0.931 . S
C8 C3 1.356 . S
C8 C7 1.409 . S
C8 H35 0.930 . S
C9 O22 1.270 . S
C9 O23 1.248 1_455 S
C10 O24 1.267 . S
C10 O25 1.278 . S
C11 Pr1 2.880 . S
C11 C12 1.491 . S
C11 O26 1.254 . S
C11 O27 1.225 . S
C12 C11 1.491 . S
C12 C13 1.392 . S
C12 C17 1.356 . S
C13 C12 1.392 . S
C13 C14 1.368 . S
C13 H36 0.929 . S
C14 C13 1.368 . S
C14 C15 1.386 . S
C14 H37 0.929 . S
C15 C14 1.386 . S
C15 C16 1.373 . S
C16 C15 1.373 . S
C16 C17 1.409 . S
C16 H38 0.931 . S
C17 C12 1.356 . S
C17 C16 1.409 . S
C17 H39 0.930 . S
C18 O28 1.270 1_455 S
C18 O29 1.248 . S
C19 O30 1.267 . S
C19 O31 1.278 . S
O20 Pr0 2.562 . S
O20 C2 1.254 . S
O21 Pr0 2.490 . S
O21 C2 1.225 . S
O22 Pr0 2.695 1_455 S
O22 Pr1 2.436 . S
O22 C9 1.270 . S
O23 Pr0 2.512 . S
O23 C9 1.248 1_655 S
O24 Pr1 2.438 1_655 S
O24 C10 1.267 . S
O25 Pr0 2.437 . S
O25 C10 1.278 . S
O26 Pr1 2.562 . S
O26 C11 1.254 . S
O27 Pr1 2.490 . S
O27 C11 1.225 . S
O28 Pr0 2.436 . S
O28 Pr1 2.695 1_655 S
O28 C18 1.270 1_655 S
O29 Pr1 2.512 . S
O29 C18 1.248 . S
O30 Pr0 2.438 1_455 S
O30 C19 1.267 . S
O31 Pr1 2.437 . S
O31 C19 1.278 . S
H32 C4 0.929 . S
H33 C5 0.929 . S
H34 C7 0.931 . S
H35 C8 0.930 . S
H36 C13 0.929 . S
H37 C14 0.929 . S
H38 C16 0.931 . S
H39 C17 0.930 . S
Pr40 C42 2.880 . S
Pr40 O60 2.562 . S
Pr40 O61 2.490 . S
Pr40 O62 2.695 1_545 S
Pr40 O63 2.512 . S
Pr40 O65 2.437 . S
Pr40 O68 2.436 . S
Pr40 O70 2.438 1_545 S
Pr41 C51 2.880 . S
Pr41 O62 2.435 . S
Pr41 O64 2.438 1_565 S
Pr41 O66 2.562 . S
Pr41 O67 2.490 . S
Pr41 O68 2.695 1_565 S
Pr41 O69 2.511 . S
Pr41 O71 2.437 . S
C42 Pr40 2.880 . S
C42 C43 1.491 . S
C42 O60 1.254 . S
C42 O61 1.225 . S
C43 C42 1.491 . S
C43 C44 1.392 . S
C43 C48 1.356 . S
C44 C43 1.392 . S
C44 C45 1.368 . S
C44 H72 0.929 . S
C45 C44 1.368 . S
C45 C46 1.386 . S
C45 H73 0.929 . S
C46 C45 1.386 . S
C46 C47 1.373 . S
C47 C46 1.373 . S
C47 C48 1.409 . S
C47 H74 0.931 . S
C48 C43 1.356 . S
C48 C47 1.409 . S
C48 H75 0.930 . S
C49 O62 1.270 1_545 S
C49 O63 1.248 . S
C50 O64 1.267 . S
C50 O65 1.278 . S
C51 Pr41 2.880 . S
C51 C52 1.491 . S
C51 O66 1.254 . S
C51 O67 1.225 . S
C52 C51 1.491 . S
C52 C53 1.392 . S
C52 C57 1.356 . S
C53 C52 1.392 . S
C53 C54 1.368 . S
C53 H76 0.929 . S
C54 C53 1.368 . S
C54 C55 1.386 . S
C54 H77 0.929 . S
C55 C54 1.386 . S
C55 C56 1.373 . S
C56 C55 1.373 . S
C56 C57 1.409 . S
C56 H78 0.931 . S
C57 C52 1.356 . S
C57 C56 1.409 . S
C57 H79 0.930 . S
C58 O68 1.270 . S
C58 O69 1.243 1_545 S
C59 O70 1.267 . S
C59 O71 1.278 . S
O60 Pr40 2.562 . S
O60 C42 1.254 . S
O61 Pr40 2.490 . S
O61 C42 1.225 . S
O62 Pr40 2.695 1_565 S
O62 Pr41 2.435 . S
O62 C49 1.270 1_565 S
O63 Pr40 2.512 . S
O63 C49 1.248 . S
O64 Pr41 2.438 1_545 S
O64 C50 1.267 . S
O65 Pr40 2.437 . S
O65 C50 1.278 . S
O66 Pr41 2.562 . S
O66 C51 1.254 . S
O67 Pr41 2.490 . S
O67 C51 1.225 . S
O68 Pr40 2.436 . S
O68 Pr41 2.695 1_545 S
O68 C58 1.270 . S
O69 Pr41 2.511 . S
O69 C58 1.243 1_565 S
O70 Pr40 2.438 1_565 S
O70 C59 1.267 . S
O71 Pr41 2.437 . S
O71 C59 1.278 . S
H72 C44 0.929 . S
H73 C45 0.929 . S
H74 C47 0.931 . S
H75 C48 0.930 . S
H76 C53 0.929 . S
H77 C54 0.929 . S
H78 C56 0.931 . S
H79 C57 0.930 . S
Pr80 C82 2.880 . S
Pr80 O100 2.562 . S
Pr80 O101 2.490 . S
Pr80 O102 2.695 . S
Pr80 O103 2.512 . S
Pr80 O105 2.437 . S
Pr80 O108 2.436 . S
Pr80 O110 2.438 . S
Pr81 C91 2.880 . S
Pr81 O102 2.436 . S
Pr81 O104 2.438 . S
Pr81 O106 2.562 . S
Pr81 O107 2.490 . S
Pr81 O108 2.695 . S
Pr81 O109 2.512 . S
Pr81 O111 2.437 . S
C82 Pr80 2.880 . S
C82 C83 1.491 . S
C82 O100 1.254 . S
C82 O101 1.225 . S
C83 C82 1.491 . S
C83 C84 1.392 . S
C83 C88 1.356 . S
C84 C83 1.392 . S
C84 C85 1.368 . S
C84 H112 0.929 . S
C85 C84 1.368 . S
C85 C86 1.386 . S
C85 H113 0.929 . S
C86 C85 1.386 . S
C86 C87 1.373 . S
C87 C86 1.373 . S
C87 C88 1.409 . S
C87 H114 0.931 . S
C88 C83 1.356 . S
C88 C87 1.409 . S
C88 H115 0.930 . S
C89 O102 1.270 . S
C89 O103 1.248 . S
C90 O104 1.267 . S
C90 O105 1.278 . S
C91 Pr81 2.880 . S
C91 C92 1.491 . S
C91 O106 1.254 . S
C91 O107 1.225 . S
C92 C91 1.491 . S
C92 C93 1.392 . S
C92 C97 1.356 . S
C93 C92 1.392 . S
C93 C94 1.368 . S
C93 H116 0.929 . S
C94 C93 1.368 . S
C94 C95 1.386 . S
C94 H117 0.929 . S
C95 C94 1.386 . S
C95 C96 1.373 . S
C96 C95 1.373 . S
C96 C97 1.409 . S
C96 H118 0.931 . S
C97 C92 1.356 . S
C97 C96 1.409 . S
C97 H119 0.930 . S
C98 O108 1.270 . S
C98 O109 1.248 . S
C99 O110 1.267 . S
C99 O111 1.278 . S
O100 Pr80 2.562 . S
O100 C82 1.254 . S
O101 Pr80 2.490 . S
O101 C82 1.225 . S
O102 Pr80 2.695 . S
O102 Pr81 2.436 . S
O102 C89 1.270 . S
O103 Pr80 2.512 . S
O103 C89 1.248 . S
O104 Pr81 2.438 . S
O104 C90 1.267 . S
O105 Pr80 2.437 . S
O105 C90 1.278 . S
O106 Pr81 2.562 . S
O106 C91 1.254 . S
O107 Pr81 2.490 . S
O107 C91 1.225 . S
O108 Pr80 2.436 . S
O108 Pr81 2.695 . S
O108 C98 1.270 . S
O109 Pr81 2.512 . S
O109 C98 1.248 . S
O110 Pr80 2.438 . S
O110 C99 1.267 . S
O111 Pr81 2.437 . S
O111 C99 1.278 . S
H112 C84 0.929 . S
H113 C85 0.929 . S
H114 C87 0.931 . S
H115 C88 0.930 . S
H116 C93 0.929 . S
H117 C94 0.929 . S
H118 C96 0.931 . S
H119 C97 0.930 . S
H120 C127 0.929 . S
H121 C130 0.930 1_565 S
H122 C132 0.929 . S
H123 C124 0.969 . S
C124 H123 0.969 . S
C124 O125 1.550 . S
C124 H126 0.973 . S
O125 C124 1.550 . S
O125 C131 1.412 1_565 S
H126 C124 0.973 . S
C127 H120 0.929 . S
C127 C128 1.400 . S
C127 C129 1.364 . S
C128 C127 1.400 . S
C128 C132 1.377 . S
C129 C127 1.364 . S
C129 C130 1.374 . S
C130 H121 0.930 1_545 S
C130 C129 1.374 . S
C130 C131 1.383 . S
C131 O125 1.412 1_545 S
C131 C130 1.383 . S
C131 C132 1.394 . S
C132 H122 0.929 . S
C132 C128 1.377 . S
C132 C131 1.394 . S
H133 C140 0.929 . S
H134 C143 0.930 . S
H135 C145 0.929 . S
H136 C137 0.969 . S
C137 H136 0.969 . S
C137 O138 1.550 . S
C137 H139 0.973 . S
O138 C137 1.550 . S
O138 C144 1.412 . S
H139 C137 0.973 . S
C140 H133 0.929 . S
C140 C141 1.400 . S
C140 C142 1.364 . S
C141 C140 1.400 . S
C141 C145 1.377 . S
C142 C140 1.364 . S
C142 C143 1.374 . S
C143 H134 0.930 . S
C143 C142 1.374 . S
C143 C144 1.383 . S
C144 O138 1.412 . S
C144 C143 1.383 . S
C144 C145 1.394 . S
C145 H135 0.929 . S
C145 C141 1.377 . S
C145 C144 1.394 . S
H146 C153 0.929 . S
H147 C156 0.930 . S
H148 C158 0.929 . S
H149 C150 0.969 . S
C150 H149 0.969 . S
C150 O151 1.550 . S
C150 H152 0.973 . S
O151 C150 1.550 . S
O151 C157 1.412 . S
H152 C150 0.973 . S
C153 H146 0.929 . S
C153 C154 1.400 . S
C153 C155 1.364 1_655 S
C154 C153 1.400 . S
C154 C158 1.377 1_655 S
C155 C153 1.364 1_455 S
C155 C156 1.374 . S
C156 H147 0.930 . S
C156 C155 1.374 . S
C156 C157 1.383 . S
C157 O151 1.412 . S
C157 C156 1.383 . S
C157 C158 1.394 . S
C158 H148 0.929 . S
C158 C154 1.377 1_455 S
C158 C157 1.394 . S
H159 C166 0.929 . S
H160 C169 0.930 . S
H161 C171 0.929 . S
H162 C163 0.969 . S
C163 H162 0.969 . S
C163 O164 1.550 . S
C163 H165 0.973 . S
O164 C163 1.550 . S
O164 C170 1.412 . S
H165 C163 0.973 . S
C166 H159 0.929 . S
C166 C167 1.400 . S
C166 C168 1.364 1_655 S
C167 C166 1.400 . S
C167 C171 1.377 1_655 S
C168 C166 1.364 1_455 S
C168 C169 1.374 . S
C169 H160 0.930 . S
C169 C168 1.374 . S
C169 C170 1.383 . S
C170 O164 1.412 . S
C170 C169 1.383 . S
C170 C171 1.394 . S
C171 H161 0.929 . S
C171 C167 1.377 1_455 S
C171 C170 1.394 . S
H172 C179 0.929 . S
H173 C182 0.930 . S
H174 C184 0.929 . S
H175 C176 0.969 . S
C176 H175 0.969 . S
C176 O177 1.550 . S
C176 H178 0.973 . S
O177 C176 1.550 . S
O177 C183 1.412 . S
H178 C176 0.973 . S
C179 H172 0.929 . S
C179 C180 1.400 . S
C179 C181 1.364 1_565 S
C180 C179 1.400 . S
C180 C184 1.377 . S
C181 C179 1.364 1_545 S
C181 C182 1.374 . S
C182 H173 0.930 . S
C182 C181 1.374 . S
C182 C183 1.383 . S
C183 O177 1.412 . S
C183 C182 1.383 . S
C183 C184 1.394 1_545 S
C184 H174 0.929 . S
C184 C180 1.377 . S
C184 C183 1.394 1_565 S
H185 C192 0.929 . S
H186 C195 0.930 . S
H187 C197 0.929 . S
H188 C189 0.969 . S
C189 H188 0.969 . S
C189 O190 1.550 . S
C189 H191 0.973 . S
O190 C189 1.550 . S
O190 C196 1.412 . S
H191 C189 0.973 . S
C192 H185 0.929 . S
C192 C193 1.400 . S
C192 C194 1.364 . S
C193 C192 1.400 . S
C193 C197 1.377 . S
C194 C192 1.364 . S
C194 C195 1.374 . S
C195 H186 0.930 . S
C195 C194 1.374 . S
C195 C196 1.383 . S
C196 O190 1.412 . S
C196 C195 1.383 . S
C196 C197 1.394 . S
C197 H187 0.929 . S
C197 C193 1.377 . S
C197 C196 1.394 . S
C198 C199 1.170 . S
C198 C200 1.380 . S
C199 C198 1.170 . S
C200 C198 1.380 . S
C200 C201 1.170 . S
C201 C200 1.170 . S
C202 C203 1.170 . S
C202 C204 1.380 . S
C203 C202 1.170 . S
C204 C202 1.380 . S
C204 C205 1.170 . S
C205 C204 1.170 . S
C206 C207 1.170 . S
C206 C208 1.380 . S
C207 C206 1.170 . S
C208 C206 1.380 . S
C208 C209 1.170 . S
C209 C208 1.170 . S
C210 C211 1.170 . S
C210 C212 1.380 . S
C211 C210 1.170 . S
C212 C210 1.380 . S
C212 C213 1.170 . S
C213 C212 1.170 . S
C214 C215 1.170 . S
C214 C216 1.380 . S
C215 C214 1.170 . S
C216 C214 1.380 . S
C216 C217 1.170 . S
C217 C216 1.170 . S
C218 C219 1.170 . S
C218 C220 1.380 . S
C219 C218 1.170 . S
C220 C218 1.380 . S
C220 C221 1.170 . S
C221 C220 1.170 . S
C222 C223 1.170 . S
C222 C224 1.380 . S
C223 C222 1.170 . S
C224 C222 1.380 . S
C224 C225 1.170 . S
C225 C224 1.170 . S
C226 C227 1.170 . S
C226 C228 1.380 . S
C227 C226 1.170 . S
C228 C226 1.380 . S
C228 C229 1.170 . S
C229 C228 1.170 . S
C230 C231 1.170 . S
C230 C232 1.380 . S
C231 C230 1.170 . S
C232 C230 1.380 . S
C232 C233 1.170 . S
C233 C232 1.170 . S
C234 C235 1.170 . S
C234 C236 1.380 . S
C235 C234 1.170 . S
C236 C234 1.380 . S
C236 C237 1.170 . S
C237 C236 1.170 . S
C238 C239 1.170 . S
C238 C240 1.380 . S
C239 C238 1.170 . S
C240 C238 1.380 . S
C240 C241 1.170 . S
C241 C240 1.170 . S
C242 C243 1.170 . S
C242 C244 1.380 . S
C243 C242 1.170 . S
C244 C242 1.380 . S
C244 C245 1.170 . S
C245 C244 1.170 . S
C246 C247 1.170 . S
C246 C248 1.380 1_554 S
C247 C246 1.170 . S
C248 C246 1.380 1_556 S
C248 C249 1.170 . S
C249 C248 1.170 . S
C250 C251 1.170 . S
C250 C252 1.380 . S
C251 C250 1.170 . S
C252 C250 1.380 . S
C252 C253 1.170 . S
C253 C252 1.170 . S
C254 C255 1.170 . S
C254 C256 1.380 . S
C255 C254 1.170 . S
C256 C254 1.380 . S
C256 C257 1.170 . S
C257 C256 1.170 . S
C258 C259 1.170 . S
C258 C260 1.380 . S
C259 C258 1.170 . S
C260 C258 1.380 . S
C260 C261 1.170 . S
C261 C260 1.170 . S
C262 C263 1.170 . S
C262 C264 1.380 1_556 S
C263 C262 1.170 . S
C264 C262 1.380 1_554 S
C264 C265 1.170 . S
C265 C264 1.170 . S
C266 C267 1.170 . S
C266 C268 1.380 . S
C267 C266 1.170 . S
C268 C266 1.380 . S
C268 C269 1.170 . S
C269 C268 1.170 . S
C199 C19 1.946 . S
C201 C189 1.799 . S
C203 C46 1.328 . S
C205 C167 1.365 . S
C207 C95 0.652 . S
C209 C180 0.438 . S
C211 C10 1.914 . S
C213 C193 1.871 . S
C217 C163 1.323 . S
C215 C55 1.352 . S
C221 C176 1.055 . S
C219 C86 1.033 . S
C223 C59 3.066 . S
C225 C141 3.030 . S
C227 C90 1.912 . S
C229 C154 1.902 . S
C231 C15 1.359 . S
C233 C124 1.336 . S
C237 C137 2.902 . S
C235 C50 3.084 . S
C241 C150 1.809 . S
C239 C99 1.981 . S
C243 C6 1.148 . S
C245 C128 1.179 . S
C249 C155 1.458 . S
C247 C9 1.391 . S
C251 C58 1.480 . S
C253 C129 1.592 . S
C255 C98 1.723 . S
C257 C142 1.758 . S
C261 C181 1.262 . S
C259 C49 1.274 . S
C265 C194 1.411 . S
C263 C89 1.386 . S
C267 C18 1.487 . S
C269 C168 1.533 . S
