# Generated by pormake.
# Topology pyr, (3,6)-cn, num edge types: 1
# Building blocks:
#     Node 0, Type 0, BuildingBlock: VETTIZ_charged_linker_0, # of connection points: 3
#     Node 1, Type 0, BuildingBlock: VETTIZ_charged_linker_0, # of connection points: 3
#     Node 2, Type 0, BuildingBlock: VETTIZ_charged_linker_0, # of connection points: 3
#     Node 3, Type 0, BuildingBlock: VETTIZ_charged_linker_0, # of connection points: 3
#     Node 4, Type 0, BuildingBlock: VETTIZ_charged_linker_0, # of connection points: 3
#     Node 5, Type 0, BuildingBlock: VETTIZ_charged_linker_0, # of connection points: 3
#     Node 6, Type 0, BuildingBlock: VETTIZ_charged_linker_0, # of connection points: 3
#     Node 7, Type 0, BuildingBlock: VETTIZ_charged_linker_0, # of connection points: 3
#     Node 8, Type 1, BuildingBlock: BETDAH_clean_sbu_0, # of connection points: 6
#     Node 9, Type 1, BuildingBlock: BETDAH_clean_sbu_0, # of connection points: 6
#     Node 10, Type 1, BuildingBlock: BETDAH_clean_sbu_0, # of connection points: 6
#     Node 11, Type 1, BuildingBlock: BETDAH_clean_sbu_0, # of connection points: 6
#     Edge 12, Type (0, 1), None
#     Edge 13, Type (0, 1), None
#     Edge 14, Type (0, 1), None
#     Edge 15, Type (0, 1), None
#     Edge 16, Type (0, 1), None
#     Edge 17, Type (0, 1), None
#     Edge 18, Type (0, 1), None
#     Edge 19, Type (0, 1), None
#     Edge 20, Type (0, 1), None
#     Edge 21, Type (0, 1), None
#     Edge 22, Type (0, 1), None
#     Edge 23, Type (0, 1), None
#     Edge 24, Type (0, 1), None
#     Edge 25, Type (0, 1), None
#     Edge 26, Type (0, 1), None
#     Edge 27, Type (0, 1), None
#     Edge 28, Type (0, 1), None
#     Edge 29, Type (0, 1), None
#     Edge 30, Type (0, 1), None
#     Edge 31, Type (0, 1), None
#     Edge 32, Type (0, 1), None
#     Edge 33, Type (0, 1), None
#     Edge 34, Type (0, 1), None
#     Edge 35, Type (0, 1), None
# Relax obj value: 0.230
# Max RMSD: 0.162
# Mean RMSD: 0.078
data_MOF--net-pyr--node1-BETDAH_clean_sbu_0--node2-VETTIZ_charged_linker_0--edge1-none
_symmetry_space_group_name_H-M    P1
_symmetry_Int_Tables_number       1
_symmetry_cell_setting            triclinic
loop_
_symmetry_equiv_pos_as_xyz
'x, y, z'
_cell_length_a     25.489585
_cell_length_b     26.158361
_cell_length_c     23.566466
_cell_angle_alpha  90.605799
_cell_angle_beta   88.573275
_cell_angle_gamma 103.75843
loop_
_atom_site_label
_atom_site_type_symbol
_atom_site_fract_x
_atom_site_fract_y
_atom_site_fract_z
_atom_type_partial_charge
C0 C 0.39965 0.27054 0.49233 0.0
C1 C 0.361 0.28929 0.52496 0.0
C2 C 0.36369 0.34381 0.52453 0.0
C3 C 0.42028 0.35177 0.44032 0.0
C4 C 0.42871 0.30246 0.44928 0.0
C5 C 0.45981 0.28496 0.40064 0.0
H6 H 0.46373 0.23252 0.141 0.0
C7 C 0.43322 0.36558 0.3805 0.0
C8 C 0.46247 0.33005 0.35868 0.0
H9 H 0.58305 0.21001 0.25946 0.0
H10 H 0.56381 0.28223 0.31905 0.0
H11 H 0.50365 0.35965 0.15026 0.0
H12 H 0.36766 0.2514 0.22866 0.0
H13 H 0.34731 0.30281 0.19347 0.0
H14 H 0.37923 0.26009 0.15338 0.0
H15 H 0.44038 0.33984 0.11516 0.0
H16 H 0.45399 0.39509 0.16383 0.0
C17 C 0.51555 0.28073 0.42176 0.0
C18 C 0.42726 0.23157 0.37693 0.0
C19 C 0.28951 0.43952 0.28703 0.0
C20 C 0.27 0.43558 0.23153 0.0
C21 C 0.30032 0.41774 0.18795 0.0
C22 C 0.34702 0.40069 0.20032 0.0
C23 C 0.36284 0.40007 0.25696 0.0
C24 C 0.33526 0.42081 0.29899 0.0
C25 C 0.35777 0.4172 0.35684 0.0
C26 C 0.40305 0.38934 0.3427 0.0
C27 C 0.40513 0.37908 0.28392 0.0
C28 C 0.38075 0.47372 0.37885 0.0
C29 C 0.31197 0.38465 0.39603 0.0
C30 C 0.48491 0.24214 0.18043 0.0
C31 C 0.52244 0.21391 0.19767 0.0
C32 C 0.55224 0.22966 0.24704 0.0
C33 C 0.54009 0.26925 0.28218 0.0
C34 C 0.4973 0.29138 0.26788 0.0
C35 C 0.47402 0.28189 0.21577 0.0
C36 C 0.43604 0.31705 0.20553 0.0
C37 C 0.43814 0.34608 0.26241 0.0
C38 C 0.47135 0.32729 0.29945 0.0
C39 C 0.45927 0.35477 0.15595 0.0
C40 C 0.37944 0.28127 0.19451 0.0
H41 H 0.39318 0.41635 0.48025 0.0
H42 H 0.40091 0.22958 0.4939 0.0
H43 H 0.38635 0.23451 0.36422 0.0
H44 H 0.44771 0.21836 0.33957 0.0
H45 H 0.4228 0.19981 0.4088 0.0
H46 H 0.51399 0.27129 0.46777 0.0
H47 H 0.52946 0.24827 0.40022 0.0
H48 H 0.54651 0.31799 0.41515 0.0
H49 H 0.26818 0.45484 0.32104 0.0
H50 H 0.28662 0.41469 0.14464 0.0
H51 H 0.36773 0.38639 0.16573 0.0
H52 H 0.40538 0.49856 0.34517 0.0
H53 H 0.34751 0.49238 0.39216 0.0
H54 H 0.40777 0.47473 0.41498 0.0
H55 H 0.27085 0.38227 0.38008 0.0
H56 H 0.31519 0.34323 0.39994 0.0
H57 H 0.31156 0.40263 0.43876 0.0
H58 H 0.33711 0.36026 0.55188 0.0
C59 C 0.39452 0.37569 0.4824 0.0
C60 C 0.08323 0.93306 0.6663 0.0
C61 C 0.05444 0.97094 0.6814 0.0
C62 C 0.03395 0.97188 0.7373 0.0
C63 C 0.07823 0.90296 0.76348 0.0
C64 C 0.09541 0.90038 0.7078 0.0
C65 C 0.13275 0.86425 0.69953 0.0
H66 H 0.30001 0.73397 0.81579 0.0
C67 C 0.10331 0.86781 0.79708 0.0
C68 C 0.13454 0.84443 0.75949 0.0
H69 H 0.2932 0.78091 0.64114 0.0
H70 H 0.20998 0.80594 0.66193 0.0
H71 H 0.29537 0.81366 0.87104 0.0
H72 H 0.16351 0.69045 0.83829 0.0
H73 H 0.15259 0.71468 0.90666 0.0
H74 H 0.21549 0.69693 0.88991 0.0
H75 H 0.25858 0.78207 0.9305 0.0
H76 H 0.24697 0.84288 0.90355 0.0
C77 C 0.18861 0.89755 0.67788 0.0
C78 C 0.10589 0.81918 0.65902 0.0
C79 C 0.13414 0.90176 1.00396 0.0
C80 C 0.17765 0.89025 1.03303 0.0
C81 C 0.18758 0.83977 1.02489 0.0
C82 C 0.16569 0.80899 0.97845 0.0
C83 C 0.1372 0.83074 0.93894 0.0
C84 C 0.11688 0.87345 0.95422 0.0
C85 C 0.09054 0.89316 0.90496 0.0
C86 C 0.10578 0.86014 0.85649 0.0
C87 C 0.13429 0.82441 0.87687 0.0
C88 C 0.11628 0.95289 0.89737 0.0
C89 C 0.02884 0.87969 0.9165 0.0
C90 C 0.28091 0.75007 0.78198 0.0
C91 C 0.30439 0.75663 0.7271 0.0
C92 C 0.27661 0.77555 0.68398 0.0
C93 C 0.22851 0.79093 0.6963 0.0
C94 C 0.20881 0.78927 0.75264 0.0
C95 C 0.23424 0.76796 0.79415 0.0
C96 C 0.20974 0.77205 0.85224 0.0
C97 C 0.16641 0.80136 0.83882 0.0
C98 C 0.16626 0.81121 0.78042 0.0
C99 C 0.2545 0.80407 0.89151 0.0
C100 C 0.18414 0.71561 0.87336 0.0
H101 H 0.02883 0.93979 0.82046 0.0
H102 H 0.0994 0.93103 0.62359 0.0
H103 H 0.06213 0.80493 0.66988 0.0
H104 H 0.1231 0.78434 0.66208 0.0
H105 H 0.10946 0.83278 0.61428 0.0
H106 H 0.19294 0.9405 0.68474 0.0
H107 H 0.19483 0.89156 0.6317 0.0
H108 H 0.2228 0.88898 0.70094 0.0
H109 H 0.12149 0.9377 1.01308 0.0
H110 H 0.21755 0.82674 1.04889 0.0
H111 H 0.17671 0.77238 0.97143 0.0
H112 H 0.16086 0.96117 0.90182 0.0
H113 H 0.09999 0.97658 0.9297 0.0
H114 H 0.11051 0.96841 0.85555 0.0
H115 H 1.00566 0.8751 0.87701 0.0
H116 H 1.01697 0.91014 0.94381 0.0
H117 H 1.01526 0.84122 0.93856 0.0
H118 H 1.01084 1.00019 0.74957 0.0
C119 C 0.0446 0.93701 0.7782 0.0
C120 C 0.61614 0.23462 1.00037 0.0
C121 C 0.56368 0.2056 0.98866 0.0
C122 C 0.53431 0.22659 0.94825 0.0
C123 C 0.60817 0.30508 0.93497 0.0
C124 C 0.63696 0.28405 0.97411 0.0
C125 C 0.68858 0.32255 0.98905 0.0
H126 H 0.85601 0.56498 0.9853 0.0
C127 C 0.63934 0.3604 0.92098 0.0
C128 C 0.68514 0.37085 0.95535 0.0
H129 H 0.86783 0.42759 1.08024 0.0
H130 H 0.7879 0.37747 1.03749 0.0
H131 H 0.71643 0.544 0.99622 0.0
H132 H 0.82213 0.50086 0.86688 0.0
H133 H 0.77135 0.52538 0.83529 0.0
H134 H 0.82013 0.56834 0.87899 0.0
H135 H 0.7675 0.59204 0.95929 0.0
H136 H 0.70312 0.56483 0.92795 0.0
C137 C 0.68802 0.33215 1.05434 0.0
C138 C 0.73595 0.30023 0.96564 0.0
C139 C 0.58402 0.46998 0.76067 0.0
C140 C 0.60344 0.52274 0.74191 0.0
C141 C 0.64667 0.55471 0.77181 0.0
C142 C 0.6711 0.53486 0.81727 0.0
C143 C 0.65202 0.48216 0.83487 0.0
C144 C 0.6081 0.45091 0.8076 0.0
C145 C 0.58921 0.39792 0.83699 0.0
C146 C 0.63195 0.40044 0.88226 0.0
C147 C 0.66898 0.45044 0.881 0.0
C148 C 0.53285 0.39532 0.86422 0.0
C149 C 0.58942 0.35355 0.79349 0.0
C150 C 0.84065 0.52427 0.99755 0.0
C151 C 0.86865 0.50073 1.03735 0.0
C152 C 0.84752 0.44731 1.05064 0.0
C153 C 0.80041 0.41801 1.02564 0.0
C154 C 0.77257 0.44179 0.98676 0.0
C155 C 0.79289 0.49398 0.97266 0.0
C156 C 0.75868 0.51116 0.92792 0.0
C157 C 0.7143 0.46088 0.91829 0.0
C158 C 0.72257 0.42088 0.95407 0.0
C159 C 0.73517 0.55564 0.95372 0.0
C160 C 0.7947 0.52771 0.87435 0.0
H161 H 0.53171 0.28883 0.89088 0.0
H162 H 0.63876 0.22124 1.03295 0.0
H163 H 0.72744 0.28406 0.92207 0.0
H164 H 0.7744 0.33031 0.96145 0.0
H165 H 0.74233 0.26796 0.99234 0.0
H166 H 0.64636 0.32174 1.07305 0.0
H167 H 0.71184 0.30826 1.07641 0.0
H168 H 0.70315 0.3741 1.06588 0.0
H169 H 0.54966 0.44464 0.74043 0.0
H170 H 0.66219 0.5954 0.7595 0.0
H171 H 0.70385 0.56165 0.83751 0.0
H172 H 0.53067 0.43418 0.88248 0.0
H173 H 0.50072 0.38421 0.83228 0.0
H174 H 0.52346 0.36761 0.90005 0.0
H175 H 0.62943 0.36011 0.77123 0.0
H176 H 0.58172 0.31451 0.81367 0.0
H177 H 0.55819 0.35225 0.7611 0.0
H178 H 0.49335 0.2058 0.9389 0.0
C179 C 0.55637 0.27532 0.92088 0.0
C180 C 0.97347 0.92609 0.44824 0.0
C181 C 0.94869 0.95757 0.48538 0.0
C182 C 0.89299 0.93981 0.49707 0.0
C183 C 0.88996 0.8571 0.44869 0.0
C184 C 0.94239 0.87602 0.42919 0.0
C185 C 0.95729 0.8368 0.38654 0.0
H186 H 0.88574 0.58783 0.26326 0.0
C187 C 0.86956 0.80227 0.42863 0.0
C188 C 0.90762 0.78954 0.39017 0.0
H189 H 1.02396 0.71274 0.21812 0.0
H190 H 0.99772 0.76901 0.29113 0.0
H191 H 0.89399 0.61001 0.40447 0.0
H192 H 0.79739 0.66185 0.27821 0.0
H193 H 0.75752 0.63534 0.33819 0.0
H194 H 0.789 0.59342 0.29499 0.0
H195 H 0.84261 0.56438 0.36655 0.0
H196 H 0.82589 0.59952 0.42773 0.0
C197 C 1.00903 0.82185 0.40551 0.0
C198 C 0.96342 0.8627 0.32746 0.0
C199 C 0.70531 0.69582 0.53486 0.0
C200 C 0.67372 0.64425 0.53165 0.0
C201 C 0.68735 0.61051 0.48939 0.0
C202 C 0.73285 0.62797 0.45233 0.0
C203 C 0.76443 0.68022 0.45658 0.0
C204 C 0.7492 0.71293 0.49707 0.0
C205 C 0.78248 0.76819 0.49369 0.0
C206 C 0.82376 0.76321 0.44746 0.0
C207 C 0.81351 0.71177 0.42508 0.0
C208 C 0.80835 0.78247 0.55246 0.0
C209 C 0.74473 0.80356 0.47517 0.0
C210 C 0.91012 0.6275 0.26845 0.0
C211 C 0.95696 0.64551 0.23371 0.0
C212 C 0.98743 0.69758 0.24313 0.0
C213 C 0.97194 0.73052 0.28548 0.0
C214 C 0.92466 0.71221 0.31902 0.0
C215 C 0.89471 0.66114 0.31015 0.0
C216 C 0.8457 0.64773 0.34974 0.0
C217 C 0.84967 0.6993 0.38221 0.0
C218 C 0.89664 0.73761 0.36462 0.0
C219 C 0.8519 0.60282 0.38921 0.0
C220 C 0.79444 0.63348 0.31366 0.0
H221 H 0.82266 0.87962 0.49273 0.0
H222 H 1.01563 0.93931 0.43574 0.0
H223 H 0.92998 0.88241 0.32044 0.0
H224 H 0.96132 0.834 0.29256 0.0
H225 H 1.00217 0.89293 0.32349 0.0
H226 H 1.00447 0.8086 0.45043 0.0
H227 H 0.04435 0.85613 0.40221 0.0
H228 H 1.01806 0.78932 0.37982 0.0
H229 H 0.69494 0.72335 0.56533 0.0
H230 H 0.66318 0.57063 0.48536 0.0
H231 H 0.74145 0.60042 0.4214 0.0
H232 H 0.82669 0.75056 0.56733 0.0
H233 H 0.77754 0.78777 0.58473 0.0
H234 H 0.84104 0.81849 0.5525 0.0
H235 H 0.70577 0.7804 0.45831 0.0
H236 H 0.76282 0.83012 0.43976 0.0
H237 H 0.73452 0.82735 0.51131 0.0
H238 H 0.87144 0.96368 0.52181 0.0
C239 C 0.86408 0.89042 0.47957 0.0
C240 C 0.74619 0.74251 0.97756 0.0
C241 C 0.77641 0.71136 0.94801 0.0
C242 C 0.75568 0.68567 0.89742 0.0
C243 C 0.68707 0.73484 0.898 0.0
C244 C 0.70082 0.75323 0.95168 0.0
C245 C 0.66393 0.78704 0.97348 0.0
H246 H 0.52901 0.96791 0.90989 0.0
C247 C 0.64883 0.76266 0.87549 0.0
C248 C 0.63123 0.79049 0.92035 0.0
H249 H 0.5543 0.91144 1.07592 0.0
H250 H 0.58356 0.83745 1.03303 0.0
H251 H 0.47826 0.84009 0.85589 0.0
H252 H 0.60583 0.9701 0.84632 0.0
H253 H 0.64077 0.92774 0.81076 0.0
H254 H 0.58185 0.9432 0.78055 0.0
H255 H 0.48764 0.90506 0.82666 0.0
H256 H 0.50302 0.85252 0.78523 0.0
C257 C 0.62804 0.75795 1.02293 0.0
C258 C 0.69903 0.84136 0.991 0.0
C259 C 0.70259 0.84315 0.68577 0.0
C260 C 0.68996 0.88843 0.66375 0.0
C261 C 0.63693 0.89479 0.67283 0.0
C262 C 0.60332 0.86519 0.71468 0.0
C263 C 0.62405 0.83087 0.74793 0.0
C264 C 0.6699 0.8158 0.72959 0.0
C265 C 0.68597 0.77853 0.77015 0.0
C266 C 0.64468 0.7784 0.81874 0.0
C267 C 0.61115 0.81252 0.80665 0.0
C268 C 0.6797 0.72438 0.74046 0.0
C269 C 0.74496 0.80234 0.7885 0.0
C270 C 0.54044 0.93922 0.93682 0.0
C271 C 0.54009 0.9454 0.99592 0.0
C272 C 0.55455 0.90731 1.03012 0.0
C273 C 0.57224 0.86511 1.00545 0.0
C274 C 0.57689 0.86197 0.94616 0.0
C275 C 0.55889 0.89708 0.9128 0.0
C276 C 0.56302 0.88487 0.85056 0.0
C277 C 0.58835 0.83722 0.85219 0.0
C278 C 0.59784 0.8255 0.90872 0.0
C279 C 0.50495 0.86992 0.82804 0.0
C280 C 0.5997 0.9336 0.8203 0.0
H281 H 0.69341 0.67535 0.83562 0.0
H282 H 0.75948 0.76058 1.01787 0.0
H283 H 0.72554 0.85967 0.95486 0.0
H284 H 0.67464 0.86906 1.0047 0.0
H285 H 0.72507 0.83746 1.02701 0.0
H286 H 0.63303 0.71723 1.02866 0.0
H287 H 0.63795 0.77883 1.06401 0.0
H288 H 0.58441 0.7537 1.01517 0.0
H289 H 0.74135 0.83467 0.67652 0.0
H290 H 0.62407 0.92676 0.65293 0.0
H291 H 0.56453 0.87304 0.72302 0.0
H292 H 0.68154 0.72803 0.69343 0.0
H293 H 0.71316 0.70586 0.75062 0.0
H294 H 0.6405 0.69707 0.75215 0.0
H295 H 0.74901 0.84263 0.80624 0.0
H296 H 0.75898 0.77877 0.82062 0.0
H297 H 0.77395 0.80444 0.75222 0.0
H298 H 0.776 0.65882 0.87579 0.0
C299 C 0.70963 0.69603 0.8733 0.0
C300 C 0.97054 0.24701 0.52715 0.0
C301 C 0.99679 0.20708 0.51231 0.0
C302 C 1.01708 0.20489 0.4565 0.0
C303 C 0.97612 0.27584 0.42951 0.0
C304 C 0.95977 0.28009 0.48521 0.0
C305 C 0.92446 0.31826 0.49286 0.0
H306 H 0.75298 0.44177 0.37456 0.0
C307 C 0.95153 0.31075 0.39513 0.0
C308 C 0.92177 0.33618 0.43218 0.0
H309 H 0.76935 0.40784 0.55158 0.0
H310 H 0.85209 0.38221 0.52942 0.0
H311 H 0.75777 0.35974 0.3238 0.0
H312 H 0.89138 0.48559 0.34576 0.0
H313 H 0.89756 0.45835 0.27773 0.0
H314 H 0.83619 0.47762 0.29789 0.0
H315 H 0.79112 0.39058 0.26203 0.0
H316 H 0.80564 0.33121 0.28941 0.0
C317 C 0.86841 0.28783 0.51722 0.0
C318 C 0.95422 0.36412 0.53085 0.0
C319 C 0.92023 0.26951 0.1891 0.0
C320 C 0.87667 0.27902 0.15867 0.0
C321 C 0.86402 0.32843 0.16581 0.0
C322 C 0.88445 0.36065 0.21184 0.0
C323 C 0.91419 0.34126 0.25216 0.0
C324 C 0.93577 0.29893 0.23849 0.0
C325 C 0.96163 0.28044 0.28876 0.0
C326 C 0.94747 0.3157 0.33555 0.0
C327 C 0.91826 0.35028 0.3139 0.0
C328 C 0.93392 0.22141 0.29894 0.0
C329 C 1.02333 0.29149 0.27723 0.0
C330 C 0.77428 0.42859 0.40858 0.0
C331 C 0.75352 0.42547 0.46463 0.0
C332 C 0.78387 0.4103 0.50789 0.0
C333 C 0.83167 0.39465 0.49488 0.0
C334 C 0.84855 0.39249 0.4379 0.0
C335 C 0.82104 0.4109 0.396 0.0
C336 C 0.84357 0.40386 0.33759 0.0
C337 C 0.88752 0.37541 0.35141 0.0
C338 C 0.88992 0.36887 0.41027 0.0
C339 C 0.7976 0.36986 0.30115 0.0
C340 C 0.86832 0.45918 0.31296 0.0
H341 H 1.02328 0.23623 0.37294 0.0
H342 H 0.95493 0.25019 0.5699 0.0
H343 H 0.99782 0.37623 0.51848 0.0
H344 H 0.93867 0.39988 0.52665 0.0
H345 H 0.95139 0.35228 0.57617 0.0
H346 H 0.86254 0.2444 0.51366 0.0
H347 H 0.86336 0.29701 0.56287 0.0
H348 H 0.83424 0.29593 0.49374 0.0
H349 H 0.9341 0.23398 0.18136 0.0
H350 H 0.83322 0.33935 0.14109 0.0
H351 H 0.8715 0.39639 0.21785 0.0
H352 H 0.88941 0.21441 0.29451 0.0
H353 H 0.94899 0.19574 0.26786 0.0
H354 H 0.93917 0.20715 0.34152 0.0
H355 H 0.04661 0.30247 0.31638 0.0
H356 H 0.03479 0.25698 0.25716 0.0
H357 H 0.03743 0.32547 0.24817 0.0
H358 H 0.03847 0.17511 0.44449 0.0
C359 C 1.00804 0.24014 0.41523 0.0
C360 C 0.47119 0.70174 0.43704 0.0
C361 C 0.45016 0.65016 0.45846 0.0
C362 C 0.40503 0.61862 0.431 0.0
C363 C 0.40149 0.68922 0.36456 0.0
C364 C 0.44696 0.72003 0.38975 0.0
C365 C 0.46719 0.7715 0.35784 0.0
H366 H 0.42205 0.94408 0.15532 0.0
C367 C 0.38526 0.71981 0.31693 0.0
C368 C 0.42401 0.76866 0.31302 0.0
H369 H 0.56773 0.95803 0.24848 0.0
H370 H 0.5275 0.87697 0.29933 0.0
H371 H 0.33291 0.88773 0.26691 0.0
H372 H 0.41166 0.84083 0.11899 0.0
H373 H 0.35348 0.79024 0.12821 0.0
H374 H 0.3472 0.85629 0.11416 0.0
H375 H 0.31864 0.90147 0.19562 0.0
H376 H 0.28459 0.84112 0.22949 0.0
C377 C 0.46926 0.81785 0.39936 0.0
C378 C 0.52272 0.77111 0.33017 0.0
C379 C 0.21104 0.64692 0.20369 0.0
C380 C 0.18415 0.66998 0.16233 0.0
C381 C 0.20724 0.72237 0.14636 0.0
C382 C 0.25531 0.75108 0.17002 0.0
C383 C 0.28198 0.72781 0.21052 0.0
C384 C 0.25964 0.67673 0.2275 0.0
C385 C 0.29287 0.6603 0.27379 0.0
C386 C 0.33956 0.70935 0.2801 0.0
C387 C 0.33266 0.74838 0.24222 0.0
C388 C 0.25706 0.64939 0.32824 0.0
C389 C 0.31301 0.61218 0.2522 0.0
C390 C 0.44442 0.93076 0.18815 0.0
C391 C 0.49745 0.95878 0.19888 0.0
C392 C 0.52638 0.93795 0.23982 0.0
C393 C 0.50318 0.8904 0.2689 0.0
C394 C 0.45065 0.86164 0.25597 0.0
C395 C 0.42246 0.8824 0.21603 0.0
C396 C 0.36986 0.84479 0.20249 0.0
C397 C 0.37165 0.79739 0.23858 0.0
C398 C 0.41779 0.80762 0.27242 0.0
C399 C 0.3238 0.86989 0.22412 0.0
C400 C 0.37001 0.83244 0.13774 0.0
H401 H 0.3464 0.61128 0.36666 0.0
H402 H 0.5069 0.72663 0.45544 0.0
H403 H 0.52334 0.73109 0.31414 0.0
H404 H 0.53225 0.79689 0.29272 0.0
H405 H 0.55556 0.78292 0.36123 0.0
H406 H 0.42978 0.81334 0.42229 0.0
H407 H 0.5009 0.81945 0.43136 0.0
H408 H 0.47774 0.85611 0.37746 0.0
H409 H 0.19415 0.60706 0.21799 0.0
H410 H 0.18787 0.74165 0.11543 0.0
H411 H 0.26949 0.79081 0.15586 0.0
H412 H 0.23443 0.68054 0.33494 0.0
H413 H 0.22709 0.61097 0.32518 0.0
H414 H 0.28053 0.64962 0.36691 0.0
H415 H 0.32734 0.61779 0.20722 0.0
H416 H 0.34776 0.60607 0.27595 0.0
H417 H 0.28011 0.57568 0.25444 0.0
H418 H 0.38817 0.57885 0.44559 0.0
C419 C 0.38057 0.63773 0.38506 0.0
C420 C 0.07699 0.2504 0.74646 0.0
C421 C 0.10002 0.22109 0.70516 0.0
C422 C 0.15407 0.24161 0.68781 0.0
C423 C 0.15917 0.32112 0.74299 0.0
C424 C 0.10815 0.30051 0.76555 0.0
C425 C 0.09419 0.3387 0.81012 0.0
H426 H 0.16692 0.5857 0.93844 0.0
C427 C 0.18005 0.37519 0.76515 0.0
C428 C 0.14328 0.38658 0.80592 0.0
H429 H 0.02871 0.46013 0.98191 0.0
H430 H 0.05503 0.40481 0.90802 0.0
H431 H 0.16043 0.56674 0.79645 0.0
H432 H 0.25514 0.50916 0.92068 0.0
H433 H 0.29514 0.5386 0.86184 0.0
H434 H 0.26364 0.57836 0.90789 0.0
H435 H 0.21094 0.61075 0.83708 0.0
H436 H 0.22927 0.57779 0.77512 0.0
C437 C 0.04147 0.35322 0.79372 0.0
C438 C 0.09022 0.31182 0.86852 0.0
C439 C 0.34695 0.48003 0.66335 0.0
C440 C 0.38037 0.53058 0.66808 0.0
C441 C 0.3677 0.56418 0.71118 0.0
C442 C 0.32153 0.54736 0.74774 0.0
C443 C 0.28826 0.49592 0.74204 0.0
C444 C 0.30256 0.46362 0.70054 0.0
C445 C 0.26721 0.40941 0.70133 0.0
C446 C 0.22627 0.41423 0.74762 0.0
C447 C 0.23804 0.46469 0.77238 0.0
C448 C 0.24133 0.39859 0.64191 0.0
C449 C 0.3029 0.3716 0.71881 0.0
C450 C 0.14244 0.54609 0.93256 0.0
C451 C 0.09549 0.52766 0.96711 0.0
C452 C 0.06513 0.47568 0.95698 0.0
C453 C 0.08063 0.44337 0.91395 0.0
C454 C 0.12772 0.46224 0.88028 0.0
C455 C 0.15786 0.51309 0.89011 0.0
C456 C 0.20706 0.52689 0.85072 0.0
C457 C 0.2024 0.47621 0.81645 0.0
C458 C 0.15521 0.43773 0.83345 0.0
C459 C 0.20207 0.5732 0.81281 0.0
C460 C 0.25822 0.53924 0.88696 0.0
H461 H 0.2226 0.30337 0.6876 0.0
H462 H 0.03597 0.23558 0.76213 0.0
H463 H 0.12497 0.29356 0.87403 0.0
H464 H 0.09159 0.33972 0.9041 0.0
H465 H 0.05247 0.28029 0.87258 0.0
H466 H 0.04425 0.36667 0.7489 0.0
H467 H 1.00654 0.31867 0.798 0.0
H468 H 0.03301 0.38553 0.82016 0.0
H469 H 0.35595 0.45257 0.63194 0.0
H470 H 0.39303 0.60349 0.71613 0.0
H471 H 0.3136 0.57472 0.77927 0.0
H472 H 0.23495 0.43535 0.62287 0.0
H473 H 0.26751 0.38231 0.61196 0.0
H474 H 0.20071 0.37185 0.64302 0.0
H475 H 0.33912 0.39241 0.74248 0.0
H476 H 0.28145 0.34064 0.74859 0.0
H477 H 0.31766 0.35284 0.68111 0.0
H478 H 0.17431 0.22049 0.65796 0.0
C479 C 0.18299 0.29063 0.70579 0.0
Ho480 Ho 0.0742 0.09111 0.56519 0.0
Ho481 Ho 0.97403 0.08603 0.6284 0.0
C482 C 0.07055 0.17231 0.67399 0.0
C483 C 0.17026 0.12318 0.52202 0.0
C484 C 0.21639 0.16816 0.5331 0.0
C485 C 0.21402 0.2201 0.52161 0.0
C486 C 0.26024 0.26113 0.52584 0.0
C487 C 0.30984 0.25107 0.54157 0.0
C488 C 0.31048 0.19991 0.55875 0.0
C489 C 0.26437 0.15881 0.55401 0.0
C490 C 0.05006 1.01052 0.63875 0.0
C491 C 0.97782 1.00577 0.51773 0.0
C492 C 0.87916 1.05634 0.67568 0.0
C493 C 0.83014 1.01523 0.66477 0.0
C494 C 0.83256 0.96785 0.63761 0.0
C495 C 0.78545 0.92842 0.63001 0.0
C496 C 0.73534 0.93496 0.65153 0.0
C497 C 0.73306 0.98421 0.67515 0.0
C498 C 0.77997 1.0239 0.68144 0.0
C499 C 0.99848 0.16663 0.55489 0.0
O500 O 0.09312 0.16109 0.62553 0.0
O501 O 1.02304 0.14336 0.69061 0.0
O502 O 0.15817 0.08837 0.5624 0.0
O503 O 0.1274 0.13299 0.49907 0.0
O504 O 0.06921 1.00804 0.58775 0.0
O505 O 0.04508 1.05675 0.64962 0.0
O506 O 0.95369 1.01789 0.565 0.0
O507 O 0.02653 1.03329 0.50288 0.0
O508 O 0.89152 0.09301 0.63735 0.0
O509 O 0.92133 1.04093 0.69288 0.0
O510 O 0.97866 0.16911 0.60558 0.0
O511 O 1.00324 0.12035 0.54408 0.0
H512 H 0.1773 0.22883 0.50661 0.0
H513 H 0.25792 0.29981 0.51183 0.0
H514 H 0.34767 0.19088 0.57193 0.0
H515 H 0.26694 0.11922 0.5643 0.0
H516 H 0.87101 0.96053 0.62417 0.0
H517 H 0.78889 0.89162 0.61061 0.0
H518 H 0.69581 0.99106 0.69309 0.0
H519 H 0.7773 1.0606 0.70173 0.0
Ho520 Ho 0.58838 0.08769 0.10312 0.0
Ho521 Ho 0.47312 1.07502 1.08228 0.0
C522 C 0.52674 0.16635 0.1659 0.0
C523 C 0.69243 0.11046 0.11152 0.0
C524 C 0.74126 0.15278 0.1183 0.0
C525 C 0.75026 0.20006 1.08819 0.0
C526 C 0.79686 0.23997 0.09711 0.0
C527 C 0.83483 0.23335 0.13712 0.0
C528 C 0.82622 0.18442 0.16507 0.0
C529 C 0.78021 0.14475 0.15551 0.0
C530 C 0.52585 1.00338 0.161 0.0
C531 C 0.53464 0.99529 1.02175 0.0
C532 C 0.36932 1.0529 1.07213 0.0
C533 C 0.31911 1.01197 1.06756 0.0
C534 C 0.31086 0.96365 1.09541 0.0
C535 C 0.26244 0.92541 1.08919 0.0
C536 C 0.22196 0.93451 1.05355 0.0
C537 C 0.23018 0.98453 1.02796 0.0
C538 C 0.27794 1.02264 1.03518 0.0
C539 C 0.53564 0.16023 1.02584 0.0
O540 O 0.57402 0.16066 0.14653 0.0
O541 O 0.48154 0.1322 0.15387 0.0
O542 O 0.6591 0.10024 0.15523 0.0
O543 O 0.66771 0.10739 1.06325 0.0
O544 O 0.57362 1.00623 0.14003 0.0
O545 O 0.51403 1.04751 0.15402 0.0
O546 O 0.48793 1.00003 1.04365 0.0
O547 O 0.57941 1.03103 1.03082 0.0
O548 O 0.40317 1.05936 1.02868 0.0
O549 O 0.39333 1.05824 0.12093 0.0
O550 O 0.48775 0.15682 1.04656 0.0
O551 O 0.54744 0.11592 1.03177 0.0
H552 H 0.72062 0.20625 1.05888 0.0
H553 H 0.80211 0.27655 1.07426 0.0
H554 H 0.85306 0.17723 0.19725 0.0
H555 H 0.77423 0.10817 0.17873 0.0
H556 H 0.34238 0.95531 0.12077 0.0
H557 H 0.25781 0.88818 0.11057 0.0
H558 H 0.20153 0.99392 0.99917 0.0
H559 H 0.28341 1.06011 1.01381 0.0
Ho560 Ho 0.5195 0.53792 0.56888 0.0
Ho561 Ho 0.53523 0.6361 0.63124 0.0
C562 C 0.57804 0.54577 0.69357 0.0
C563 C 0.5417 0.46067 0.5117 0.0
C564 C 0.59396 0.44714 0.50243 0.0
C565 C 0.63595 0.46478 0.54059 0.0
C566 C 0.6878 0.4583 0.52816 0.0
C567 C 0.69874 0.43393 0.47727 0.0
C568 C 0.65634 0.41603 0.43924 0.0
C569 C 0.60459 0.42315 0.45151 0.0
C570 C 0.42813 0.54562 0.62823 0.0
C571 C 0.476 0.62756 0.5067 0.0
C572 C 0.51441 0.71448 0.68745 0.0
C573 C 0.46328 0.73065 0.69483 0.0
C574 C 0.42408 0.71953 0.65274 0.0
C575 C 0.37251 0.72758 0.66321 0.0
C576 C 0.35912 0.74731 0.71592 0.0
C577 C 0.39897 0.75922 0.75767 0.0
C578 C 0.45027 0.75024 0.7474 0.0
C579 C 0.62642 0.62813 0.57176 0.0
O580 O 0.5651 0.51867 0.64594 0.0
O581 O 0.5697 0.59357 0.69897 0.0
O582 O 0.52116 0.45544 0.5633 0.0
O583 O 0.53934 0.5052 0.489 0.0
O584 O 0.4291 0.52175 0.57969 0.0
O585 O 0.47622 0.56053 0.64463 0.0
O586 O 0.48907 0.65478 0.55425 0.0
O587 O 0.48448 0.57987 0.50129 0.0
O588 O 0.53694 0.71935 0.63672 0.0
O589 O 0.51372 0.66918 0.71023 0.0
O590 O 0.62562 0.6513 0.62069 0.0
O591 O 0.57828 0.61369 0.55546 0.0
H592 H 0.62925 0.48509 0.57927 0.0
H593 H 0.71951 0.47337 0.55794 0.0
H594 H 0.663 0.39635 0.4 0.0
H595 H 0.57313 0.41101 0.42071 0.0
H596 H 0.43258 0.70311 0.61229 0.0
H597 H 0.34286 0.71714 0.63035 0.0
H598 H 0.39069 0.77548 0.79843 0.0
H599 H 0.47946 0.75745 0.78095 0.0
Ho600 Ho 0.02657 0.54141 0.13551 0.0
Ho601 Ho 1.02515 0.63073 1.06588 0.0
C602 C 0.13108 0.64178 0.13766 0.0
C603 C 0.05759 0.46524 0.18308 0.0
C604 C 0.1121 0.45879 0.19574 0.0
C605 C 0.15632 0.47884 0.15885 0.0
C606 C 0.20779 0.47222 0.17083 0.0
C607 C 0.21619 0.44577 0.22013 0.0
C608 C 0.17199 0.42674 0.25753 0.0
C609 C 0.1205 0.43327 0.24545 0.0
C610 C 0.97491 0.6096 0.18995 0.0
C611 C 0.92108 0.52956 1.06283 0.0
C612 C 0.99136 0.70567 1.01939 0.0
C613 C 0.93642 0.70819 1.00202 0.0
C614 C 0.89287 0.70071 1.0416 0.0
C615 C 0.84085 0.70138 1.02428 0.0
C616 C 0.83101 0.7088 0.96696 0.0
C617 C 0.87449 0.71599 0.92744 0.0
C618 C 0.9266 0.71597 0.94482 0.0
C619 C 0.07728 0.56309 1.01134 0.0
O620 O 0.11249 0.59072 0.14576 0.0
O621 O 0.10229 0.66864 0.10957 0.0
O622 O 0.04132 0.50167 0.21192 0.0
O623 O 0.04636 0.46565 0.12937 0.0
O624 O 0.95868 0.55856 0.19117 0.0
O625 O 1.01799 0.62164 0.15956 0.0
O626 O 0.94 0.58034 1.05333 0.0
O627 O 0.94928 0.50331 1.09247 0.0
O628 O 1.01421 0.67371 0.99034 0.0
O629 O 0.99867 0.70315 1.07384 0.0
O630 O 0.09309 0.61419 1.01011 0.0
O631 O 0.03409 0.55057 1.0417 0.0
H632 H 0.15109 0.49941 0.12052 0.0
H633 H 0.24101 0.48787 0.14154 0.0
H634 H 0.17689 0.4056 0.29556 0.0
H635 H 0.08714 0.41805 0.27476 0.0
H636 H 0.89877 0.69403 1.08602 0.0
H637 H 0.8082 0.6955 1.05564 0.0
H638 H 0.86839 0.72263 0.88305 0.0
H639 H 0.95926 0.7218 0.91346 0.0
loop_
_geom_bond_atom_site_label_1
_geom_bond_atom_site_label_2
_geom_bond_distance
_geom_bond_site_symmetry_2
_ccdc_geom_bond_type
C0 C1 1.391 . S
C0 C4 1.391 . S
C0 H42 0.948 . S
C1 C0 1.391 . S
C1 C2 1.391 . S
C2 C1 1.391 . S
C2 H58 0.947 . S
C2 C59 1.392 . S
C3 C4 1.391 . S
C3 C7 1.397 . S
C3 C59 1.419 . S
C4 C0 1.391 . S
C4 C3 1.391 . S
C4 C5 1.399 . S
C5 C4 1.399 . S
C5 C8 1.396 . S
C5 C17 1.453 . S
C5 C18 1.684 . S
H6 C30 0.948 . S
C7 C3 1.397 . S
C7 C8 1.394 . S
C7 C26 1.723 . S
C8 C5 1.396 . S
C8 C7 1.394 . S
C8 C38 1.723 . S
H9 C32 0.947 . S
H10 C33 0.948 . S
H11 C39 0.982 . S
H12 C40 0.979 . S
H13 C40 0.980 . S
H14 C40 0.983 . S
H15 C39 0.979 . S
H16 C39 0.977 . S
C17 C5 1.453 . S
C17 H46 0.982 . S
C17 H47 0.979 . S
C17 H48 0.977 . S
C18 C5 1.684 . S
C18 H43 0.979 . S
C18 H44 0.980 . S
C18 H45 0.983 . S
C19 C20 1.391 . S
C19 C24 1.391 . S
C19 H49 0.948 . S
C20 C19 1.391 . S
C20 C21 1.391 . S
C21 C20 1.391 . S
C21 C22 1.392 . S
C21 H50 0.947 . S
C22 C21 1.392 . S
C22 C23 1.419 . S
C22 H51 0.948 . S
C23 C22 1.419 . S
C23 C24 1.391 . S
C23 C27 1.397 . S
C24 C19 1.391 . S
C24 C23 1.391 . S
C24 C25 1.399 . S
C25 C24 1.399 . S
C25 C26 1.396 . S
C25 C28 1.453 . S
C25 C29 1.684 . S
C26 C7 1.723 . S
C26 C25 1.396 . S
C26 C27 1.394 . S
C27 C23 1.397 . S
C27 C26 1.394 . S
C27 C37 1.723 . S
C28 C25 1.453 . S
C28 H52 0.982 . S
C28 H53 0.979 . S
C28 H54 0.977 . S
C29 C25 1.684 . S
C29 H55 0.979 . S
C29 H56 0.980 . S
C29 H57 0.983 . S
C30 H6 0.948 . S
C30 C31 1.391 . S
C30 C35 1.391 . S
C31 C30 1.391 . S
C31 C32 1.391 . S
C32 H9 0.947 . S
C32 C31 1.391 . S
C32 C33 1.392 . S
C33 H10 0.948 . S
C33 C32 1.392 . S
C33 C34 1.419 . S
C34 C33 1.419 . S
C34 C35 1.391 . S
C34 C38 1.397 . S
C35 C30 1.391 . S
C35 C34 1.391 . S
C35 C36 1.399 . S
C36 C35 1.399 . S
C36 C37 1.396 . S
C36 C39 1.453 . S
C36 C40 1.684 . S
C37 C27 1.723 . S
C37 C36 1.396 . S
C37 C38 1.394 . S
C38 C8 1.723 . S
C38 C34 1.397 . S
C38 C37 1.394 . S
C39 H11 0.982 . S
C39 H15 0.979 . S
C39 H16 0.977 . S
C39 C36 1.453 . S
C40 H12 0.979 . S
C40 H13 0.980 . S
C40 H14 0.983 . S
C40 C36 1.684 . S
H41 C59 0.948 . S
H42 C0 0.948 . S
H43 C18 0.979 . S
H44 C18 0.980 . S
H45 C18 0.983 . S
H46 C17 0.982 . S
H47 C17 0.979 . S
H48 C17 0.977 . S
H49 C19 0.948 . S
H50 C21 0.947 . S
H51 C22 0.948 . S
H52 C28 0.982 . S
H53 C28 0.979 . S
H54 C28 0.977 . S
H55 C29 0.979 . S
H56 C29 0.980 . S
H57 C29 0.983 . S
H58 C2 0.947 . S
C59 C2 1.392 . S
C59 C3 1.419 . S
C59 H41 0.948 . S
C60 C61 1.391 . S
C60 C64 1.391 . S
C60 H102 0.948 . S
C61 C60 1.391 . S
C61 C62 1.391 . S
C62 C61 1.391 . S
C62 H118 0.947 . S
C62 C119 1.392 . S
C63 C64 1.391 . S
C63 C67 1.397 . S
C63 C119 1.419 . S
C64 C60 1.391 . S
C64 C63 1.391 . S
C64 C65 1.399 . S
C65 C64 1.399 . S
C65 C68 1.396 . S
C65 C77 1.453 . S
C65 C78 1.684 . S
H66 C90 0.948 . S
C67 C63 1.397 . S
C67 C68 1.394 . S
C67 C86 1.723 . S
C68 C65 1.396 . S
C68 C67 1.394 . S
C68 C98 1.723 . S
H69 C92 0.947 . S
H70 C93 0.948 . S
H71 C99 0.982 . S
H72 C100 0.979 . S
H73 C100 0.980 . S
H74 C100 0.983 . S
H75 C99 0.979 . S
H76 C99 0.977 . S
C77 C65 1.453 . S
C77 H106 0.982 . S
C77 H107 0.979 . S
C77 H108 0.977 . S
C78 C65 1.684 . S
C78 H103 0.979 . S
C78 H104 0.980 . S
C78 H105 0.983 . S
C79 C80 1.391 . S
C79 C84 1.391 . S
C79 H109 0.948 . S
C80 C79 1.391 . S
C80 C81 1.391 . S
C81 C80 1.391 . S
C81 C82 1.392 . S
C81 H110 0.947 . S
C82 C81 1.392 . S
C82 C83 1.419 . S
C82 H111 0.948 . S
C83 C82 1.419 . S
C83 C84 1.391 . S
C83 C87 1.397 . S
C84 C79 1.391 . S
C84 C83 1.391 . S
C84 C85 1.399 . S
C85 C84 1.399 . S
C85 C86 1.396 . S
C85 C88 1.453 . S
C85 C89 1.684 . S
C86 C67 1.723 . S
C86 C85 1.396 . S
C86 C87 1.394 . S
C87 C83 1.397 . S
C87 C86 1.394 . S
C87 C97 1.723 . S
C88 C85 1.453 . S
C88 H112 0.982 . S
C88 H113 0.979 . S
C88 H114 0.977 . S
C89 C85 1.684 . S
C89 H115 0.979 . S
C89 H116 0.980 . S
C89 H117 0.983 . S
C90 H66 0.948 . S
C90 C91 1.391 . S
C90 C95 1.391 . S
C91 C90 1.391 . S
C91 C92 1.391 . S
C92 H69 0.947 . S
C92 C91 1.391 . S
C92 C93 1.392 . S
C93 H70 0.948 . S
C93 C92 1.392 . S
C93 C94 1.419 . S
C94 C93 1.419 . S
C94 C95 1.391 . S
C94 C98 1.397 . S
C95 C90 1.391 . S
C95 C94 1.391 . S
C95 C96 1.399 . S
C96 C95 1.399 . S
C96 C97 1.396 . S
C96 C99 1.453 . S
C96 C100 1.684 . S
C97 C87 1.723 . S
C97 C96 1.396 . S
C97 C98 1.394 . S
C98 C68 1.723 . S
C98 C94 1.397 . S
C98 C97 1.394 . S
C99 H71 0.982 . S
C99 H75 0.979 . S
C99 H76 0.977 . S
C99 C96 1.453 . S
C100 H72 0.979 . S
C100 H73 0.980 . S
C100 H74 0.983 . S
C100 C96 1.684 . S
H101 C119 0.948 . S
H102 C60 0.948 . S
H103 C78 0.979 . S
H104 C78 0.980 . S
H105 C78 0.983 . S
H106 C77 0.982 . S
H107 C77 0.979 . S
H108 C77 0.977 . S
H109 C79 0.948 . S
H110 C81 0.947 . S
H111 C82 0.948 . S
H112 C88 0.982 . S
H113 C88 0.979 . S
H114 C88 0.977 . S
H115 C89 0.979 . S
H116 C89 0.980 . S
H117 C89 0.983 . S
H118 C62 0.947 . S
C119 C62 1.392 . S
C119 C63 1.419 . S
C119 H101 0.948 . S
C120 C121 1.391 . S
C120 C124 1.391 . S
C120 H162 0.948 . S
C121 C120 1.391 . S
C121 C122 1.391 . S
C122 C121 1.391 . S
C122 H178 0.947 . S
C122 C179 1.392 . S
C123 C124 1.391 . S
C123 C127 1.397 . S
C123 C179 1.419 . S
C124 C120 1.391 . S
C124 C123 1.391 . S
C124 C125 1.399 . S
C125 C124 1.399 . S
C125 C128 1.396 . S
C125 C137 1.453 . S
C125 C138 1.684 . S
H126 C150 0.948 . S
C127 C123 1.397 . S
C127 C128 1.394 . S
C127 C146 1.723 . S
C128 C125 1.396 . S
C128 C127 1.394 . S
C128 C158 1.723 . S
H129 C152 0.947 . S
H130 C153 0.948 . S
H131 C159 0.982 . S
H132 C160 0.979 . S
H133 C160 0.980 . S
H134 C160 0.983 . S
H135 C159 0.979 . S
H136 C159 0.977 . S
C137 C125 1.453 . S
C137 H166 0.982 . S
C137 H167 0.979 . S
C137 H168 0.977 . S
C138 C125 1.684 . S
C138 H163 0.979 . S
C138 H164 0.980 . S
C138 H165 0.983 . S
C139 C140 1.391 . S
C139 C144 1.391 . S
C139 H169 0.948 . S
C140 C139 1.391 . S
C140 C141 1.391 . S
C141 C140 1.391 . S
C141 C142 1.392 . S
C141 H170 0.947 . S
C142 C141 1.392 . S
C142 C143 1.419 . S
C142 H171 0.948 . S
C143 C142 1.419 . S
C143 C144 1.391 . S
C143 C147 1.397 . S
C144 C139 1.391 . S
C144 C143 1.391 . S
C144 C145 1.399 . S
C145 C144 1.399 . S
C145 C146 1.396 . S
C145 C148 1.453 . S
C145 C149 1.684 . S
C146 C127 1.723 . S
C146 C145 1.396 . S
C146 C147 1.394 . S
C147 C143 1.397 . S
C147 C146 1.394 . S
C147 C157 1.723 . S
C148 C145 1.453 . S
C148 H172 0.982 . S
C148 H173 0.979 . S
C148 H174 0.977 . S
C149 C145 1.684 . S
C149 H175 0.979 . S
C149 H176 0.980 . S
C149 H177 0.983 . S
C150 H126 0.948 . S
C150 C151 1.391 . S
C150 C155 1.391 . S
C151 C150 1.391 . S
C151 C152 1.391 . S
C152 H129 0.947 . S
C152 C151 1.391 . S
C152 C153 1.392 . S
C153 H130 0.948 . S
C153 C152 1.392 . S
C153 C154 1.419 . S
C154 C153 1.419 . S
C154 C155 1.391 . S
C154 C158 1.397 . S
C155 C150 1.391 . S
C155 C154 1.391 . S
C155 C156 1.399 . S
C156 C155 1.399 . S
C156 C157 1.396 . S
C156 C159 1.453 . S
C156 C160 1.684 . S
C157 C147 1.723 . S
C157 C156 1.396 . S
C157 C158 1.394 . S
C158 C128 1.723 . S
C158 C154 1.397 . S
C158 C157 1.394 . S
C159 H131 0.982 . S
C159 H135 0.979 . S
C159 H136 0.977 . S
C159 C156 1.453 . S
C160 H132 0.979 . S
C160 H133 0.980 . S
C160 H134 0.983 . S
C160 C156 1.684 . S
H161 C179 0.948 . S
H162 C120 0.948 . S
H163 C138 0.979 . S
H164 C138 0.980 . S
H165 C138 0.983 . S
H166 C137 0.982 . S
H167 C137 0.979 . S
H168 C137 0.977 . S
H169 C139 0.948 . S
H170 C141 0.947 . S
H171 C142 0.948 . S
H172 C148 0.982 . S
H173 C148 0.979 . S
H174 C148 0.977 . S
H175 C149 0.979 . S
H176 C149 0.980 . S
H177 C149 0.983 . S
H178 C122 0.947 . S
C179 C122 1.392 . S
C179 C123 1.419 . S
C179 H161 0.948 . S
C180 C181 1.391 . S
C180 C184 1.391 . S
C180 H222 0.948 . S
C181 C180 1.391 . S
C181 C182 1.391 . S
C182 C181 1.391 . S
C182 H238 0.947 . S
C182 C239 1.392 . S
C183 C184 1.391 . S
C183 C187 1.397 . S
C183 C239 1.419 . S
C184 C180 1.391 . S
C184 C183 1.391 . S
C184 C185 1.399 . S
C185 C184 1.399 . S
C185 C188 1.396 . S
C185 C197 1.453 . S
C185 C198 1.684 . S
H186 C210 0.948 . S
C187 C183 1.397 . S
C187 C188 1.394 . S
C187 C206 1.723 . S
C188 C185 1.396 . S
C188 C187 1.394 . S
C188 C218 1.723 . S
H189 C212 0.947 . S
H190 C213 0.948 . S
H191 C219 0.982 . S
H192 C220 0.979 . S
H193 C220 0.980 . S
H194 C220 0.983 . S
H195 C219 0.979 . S
H196 C219 0.977 . S
C197 C185 1.453 . S
C197 H226 0.982 . S
C197 H227 0.979 . S
C197 H228 0.977 . S
C198 C185 1.684 . S
C198 H223 0.979 . S
C198 H224 0.980 . S
C198 H225 0.983 . S
C199 C200 1.391 . S
C199 C204 1.391 . S
C199 H229 0.948 . S
C200 C199 1.391 . S
C200 C201 1.391 . S
C201 C200 1.391 . S
C201 C202 1.392 . S
C201 H230 0.947 . S
C202 C201 1.392 . S
C202 C203 1.419 . S
C202 H231 0.948 . S
C203 C202 1.419 . S
C203 C204 1.391 . S
C203 C207 1.397 . S
C204 C199 1.391 . S
C204 C203 1.391 . S
C204 C205 1.399 . S
C205 C204 1.399 . S
C205 C206 1.396 . S
C205 C208 1.453 . S
C205 C209 1.684 . S
C206 C187 1.723 . S
C206 C205 1.396 . S
C206 C207 1.394 . S
C207 C203 1.397 . S
C207 C206 1.394 . S
C207 C217 1.723 . S
C208 C205 1.453 . S
C208 H232 0.982 . S
C208 H233 0.979 . S
C208 H234 0.977 . S
C209 C205 1.684 . S
C209 H235 0.979 . S
C209 H236 0.980 . S
C209 H237 0.983 . S
C210 H186 0.948 . S
C210 C211 1.391 . S
C210 C215 1.391 . S
C211 C210 1.391 . S
C211 C212 1.391 . S
C212 H189 0.947 . S
C212 C211 1.391 . S
C212 C213 1.392 . S
C213 H190 0.948 . S
C213 C212 1.392 . S
C213 C214 1.419 . S
C214 C213 1.419 . S
C214 C215 1.391 . S
C214 C218 1.397 . S
C215 C210 1.391 . S
C215 C214 1.391 . S
C215 C216 1.399 . S
C216 C215 1.399 . S
C216 C217 1.396 . S
C216 C219 1.453 . S
C216 C220 1.684 . S
C217 C207 1.723 . S
C217 C216 1.396 . S
C217 C218 1.394 . S
C218 C188 1.723 . S
C218 C214 1.397 . S
C218 C217 1.394 . S
C219 H191 0.982 . S
C219 H195 0.979 . S
C219 H196 0.977 . S
C219 C216 1.453 . S
C220 H192 0.979 . S
C220 H193 0.980 . S
C220 H194 0.983 . S
C220 C216 1.684 . S
H221 C239 0.948 . S
H222 C180 0.948 . S
H223 C198 0.979 . S
H224 C198 0.980 . S
H225 C198 0.983 . S
H226 C197 0.982 . S
H227 C197 0.979 . S
H228 C197 0.977 . S
H229 C199 0.948 . S
H230 C201 0.947 . S
H231 C202 0.948 . S
H232 C208 0.982 . S
H233 C208 0.979 . S
H234 C208 0.977 . S
H235 C209 0.979 . S
H236 C209 0.980 . S
H237 C209 0.983 . S
H238 C182 0.947 . S
C239 C182 1.392 . S
C239 C183 1.419 . S
C239 H221 0.948 . S
C240 C241 1.391 . S
C240 C244 1.391 . S
C240 H282 0.948 . S
C241 C240 1.391 . S
C241 C242 1.391 . S
C242 C241 1.391 . S
C242 H298 0.947 . S
C242 C299 1.392 . S
C243 C244 1.391 . S
C243 C247 1.397 . S
C243 C299 1.419 . S
C244 C240 1.391 . S
C244 C243 1.391 . S
C244 C245 1.399 . S
C245 C244 1.399 . S
C245 C248 1.396 . S
C245 C257 1.453 . S
C245 C258 1.684 . S
H246 C270 0.948 . S
C247 C243 1.397 . S
C247 C248 1.394 . S
C247 C266 1.723 . S
C248 C245 1.396 . S
C248 C247 1.394 . S
C248 C278 1.723 . S
H249 C272 0.947 . S
H250 C273 0.948 . S
H251 C279 0.982 . S
H252 C280 0.979 . S
H253 C280 0.980 . S
H254 C280 0.983 . S
H255 C279 0.979 . S
H256 C279 0.977 . S
C257 C245 1.453 . S
C257 H286 0.982 . S
C257 H287 0.979 . S
C257 H288 0.977 . S
C258 C245 1.684 . S
C258 H283 0.979 . S
C258 H284 0.980 . S
C258 H285 0.983 . S
C259 C260 1.391 . S
C259 C264 1.391 . S
C259 H289 0.948 . S
C260 C259 1.391 . S
C260 C261 1.391 . S
C261 C260 1.391 . S
C261 C262 1.392 . S
C261 H290 0.947 . S
C262 C261 1.392 . S
C262 C263 1.419 . S
C262 H291 0.948 . S
C263 C262 1.419 . S
C263 C264 1.391 . S
C263 C267 1.397 . S
C264 C259 1.391 . S
C264 C263 1.391 . S
C264 C265 1.399 . S
C265 C264 1.399 . S
C265 C266 1.396 . S
C265 C268 1.453 . S
C265 C269 1.684 . S
C266 C247 1.723 . S
C266 C265 1.396 . S
C266 C267 1.394 . S
C267 C263 1.397 . S
C267 C266 1.394 . S
C267 C277 1.723 . S
C268 C265 1.453 . S
C268 H292 0.982 . S
C268 H293 0.979 . S
C268 H294 0.977 . S
C269 C265 1.684 . S
C269 H295 0.979 . S
C269 H296 0.980 . S
C269 H297 0.983 . S
C270 H246 0.948 . S
C270 C271 1.391 . S
C270 C275 1.391 . S
C271 C270 1.391 . S
C271 C272 1.391 . S
C272 H249 0.947 . S
C272 C271 1.391 . S
C272 C273 1.392 . S
C273 H250 0.948 . S
C273 C272 1.392 . S
C273 C274 1.419 . S
C274 C273 1.419 . S
C274 C275 1.391 . S
C274 C278 1.397 . S
C275 C270 1.391 . S
C275 C274 1.391 . S
C275 C276 1.399 . S
C276 C275 1.399 . S
C276 C277 1.396 . S
C276 C279 1.453 . S
C276 C280 1.684 . S
C277 C267 1.723 . S
C277 C276 1.396 . S
C277 C278 1.394 . S
C278 C248 1.723 . S
C278 C274 1.397 . S
C278 C277 1.394 . S
C279 H251 0.982 . S
C279 H255 0.979 . S
C279 H256 0.977 . S
C279 C276 1.453 . S
C280 H252 0.979 . S
C280 H253 0.980 . S
C280 H254 0.983 . S
C280 C276 1.684 . S
H281 C299 0.948 . S
H282 C240 0.948 . S
H283 C258 0.979 . S
H284 C258 0.980 . S
H285 C258 0.983 . S
H286 C257 0.982 . S
H287 C257 0.979 . S
H288 C257 0.977 . S
H289 C259 0.948 . S
H290 C261 0.947 . S
H291 C262 0.948 . S
H292 C268 0.982 . S
H293 C268 0.979 . S
H294 C268 0.977 . S
H295 C269 0.979 . S
H296 C269 0.980 . S
H297 C269 0.983 . S
H298 C242 0.947 . S
C299 C242 1.392 . S
C299 C243 1.419 . S
C299 H281 0.948 . S
C300 C301 1.391 . S
C300 C304 1.391 . S
C300 H342 0.948 . S
C301 C300 1.391 . S
C301 C302 1.391 . S
C302 C301 1.391 . S
C302 H358 0.947 . S
C302 C359 1.392 . S
C303 C304 1.391 . S
C303 C307 1.397 . S
C303 C359 1.419 . S
C304 C300 1.391 . S
C304 C303 1.391 . S
C304 C305 1.399 . S
C305 C304 1.399 . S
C305 C308 1.396 . S
C305 C317 1.453 . S
C305 C318 1.684 . S
H306 C330 0.948 . S
C307 C303 1.397 . S
C307 C308 1.394 . S
C307 C326 1.723 . S
C308 C305 1.396 . S
C308 C307 1.394 . S
C308 C338 1.723 . S
H309 C332 0.947 . S
H310 C333 0.948 . S
H311 C339 0.982 . S
H312 C340 0.979 . S
H313 C340 0.980 . S
H314 C340 0.983 . S
H315 C339 0.979 . S
H316 C339 0.977 . S
C317 C305 1.453 . S
C317 H346 0.982 . S
C317 H347 0.979 . S
C317 H348 0.977 . S
C318 C305 1.684 . S
C318 H343 0.979 . S
C318 H344 0.980 . S
C318 H345 0.983 . S
C319 C320 1.391 . S
C319 C324 1.391 . S
C319 H349 0.948 . S
C320 C319 1.391 . S
C320 C321 1.391 . S
C321 C320 1.391 . S
C321 C322 1.392 . S
C321 H350 0.947 . S
C322 C321 1.392 . S
C322 C323 1.419 . S
C322 H351 0.948 . S
C323 C322 1.419 . S
C323 C324 1.391 . S
C323 C327 1.397 . S
C324 C319 1.391 . S
C324 C323 1.391 . S
C324 C325 1.399 . S
C325 C324 1.399 . S
C325 C326 1.396 . S
C325 C328 1.453 . S
C325 C329 1.684 . S
C326 C307 1.723 . S
C326 C325 1.396 . S
C326 C327 1.394 . S
C327 C323 1.397 . S
C327 C326 1.394 . S
C327 C337 1.723 . S
C328 C325 1.453 . S
C328 H352 0.982 . S
C328 H353 0.979 . S
C328 H354 0.977 . S
C329 C325 1.684 . S
C329 H355 0.979 . S
C329 H356 0.980 . S
C329 H357 0.983 . S
C330 H306 0.948 . S
C330 C331 1.391 . S
C330 C335 1.391 . S
C331 C330 1.391 . S
C331 C332 1.391 . S
C332 H309 0.947 . S
C332 C331 1.391 . S
C332 C333 1.392 . S
C333 H310 0.948 . S
C333 C332 1.392 . S
C333 C334 1.419 . S
C334 C333 1.419 . S
C334 C335 1.391 . S
C334 C338 1.397 . S
C335 C330 1.391 . S
C335 C334 1.391 . S
C335 C336 1.399 . S
C336 C335 1.399 . S
C336 C337 1.396 . S
C336 C339 1.453 . S
C336 C340 1.684 . S
C337 C327 1.723 . S
C337 C336 1.396 . S
C337 C338 1.394 . S
C338 C308 1.723 . S
C338 C334 1.397 . S
C338 C337 1.394 . S
C339 H311 0.982 . S
C339 H315 0.979 . S
C339 H316 0.977 . S
C339 C336 1.453 . S
C340 H312 0.979 . S
C340 H313 0.980 . S
C340 H314 0.983 . S
C340 C336 1.684 . S
H341 C359 0.948 . S
H342 C300 0.948 . S
H343 C318 0.979 . S
H344 C318 0.980 . S
H345 C318 0.983 . S
H346 C317 0.982 . S
H347 C317 0.979 . S
H348 C317 0.977 . S
H349 C319 0.948 . S
H350 C321 0.947 . S
H351 C322 0.948 . S
H352 C328 0.982 . S
H353 C328 0.979 . S
H354 C328 0.977 . S
H355 C329 0.979 . S
H356 C329 0.980 . S
H357 C329 0.983 . S
H358 C302 0.947 . S
C359 C302 1.392 . S
C359 C303 1.419 . S
C359 H341 0.948 . S
C360 C361 1.391 . S
C360 C364 1.391 . S
C360 H402 0.948 . S
C361 C360 1.391 . S
C361 C362 1.391 . S
C362 C361 1.391 . S
C362 H418 0.947 . S
C362 C419 1.392 . S
C363 C364 1.391 . S
C363 C367 1.397 . S
C363 C419 1.419 . S
C364 C360 1.391 . S
C364 C363 1.391 . S
C364 C365 1.399 . S
C365 C364 1.399 . S
C365 C368 1.396 . S
C365 C377 1.453 . S
C365 C378 1.684 . S
H366 C390 0.948 . S
C367 C363 1.397 . S
C367 C368 1.394 . S
C367 C386 1.723 . S
C368 C365 1.396 . S
C368 C367 1.394 . S
C368 C398 1.723 . S
H369 C392 0.947 . S
H370 C393 0.948 . S
H371 C399 0.982 . S
H372 C400 0.979 . S
H373 C400 0.980 . S
H374 C400 0.983 . S
H375 C399 0.979 . S
H376 C399 0.977 . S
C377 C365 1.453 . S
C377 H406 0.982 . S
C377 H407 0.979 . S
C377 H408 0.977 . S
C378 C365 1.684 . S
C378 H403 0.979 . S
C378 H404 0.980 . S
C378 H405 0.983 . S
C379 C380 1.391 . S
C379 C384 1.391 . S
C379 H409 0.948 . S
C380 C379 1.391 . S
C380 C381 1.391 . S
C381 C380 1.391 . S
C381 C382 1.392 . S
C381 H410 0.947 . S
C382 C381 1.392 . S
C382 C383 1.419 . S
C382 H411 0.948 . S
C383 C382 1.419 . S
C383 C384 1.391 . S
C383 C387 1.397 . S
C384 C379 1.391 . S
C384 C383 1.391 . S
C384 C385 1.399 . S
C385 C384 1.399 . S
C385 C386 1.396 . S
C385 C388 1.453 . S
C385 C389 1.684 . S
C386 C367 1.723 . S
C386 C385 1.396 . S
C386 C387 1.394 . S
C387 C383 1.397 . S
C387 C386 1.394 . S
C387 C397 1.723 . S
C388 C385 1.453 . S
C388 H412 0.982 . S
C388 H413 0.979 . S
C388 H414 0.977 . S
C389 C385 1.684 . S
C389 H415 0.979 . S
C389 H416 0.980 . S
C389 H417 0.983 . S
C390 H366 0.948 . S
C390 C391 1.391 . S
C390 C395 1.391 . S
C391 C390 1.391 . S
C391 C392 1.391 . S
C392 H369 0.947 . S
C392 C391 1.391 . S
C392 C393 1.392 . S
C393 H370 0.948 . S
C393 C392 1.392 . S
C393 C394 1.419 . S
C394 C393 1.419 . S
C394 C395 1.391 . S
C394 C398 1.397 . S
C395 C390 1.391 . S
C395 C394 1.391 . S
C395 C396 1.399 . S
C396 C395 1.399 . S
C396 C397 1.396 . S
C396 C399 1.453 . S
C396 C400 1.684 . S
C397 C387 1.723 . S
C397 C396 1.396 . S
C397 C398 1.394 . S
C398 C368 1.723 . S
C398 C394 1.397 . S
C398 C397 1.394 . S
C399 H371 0.982 . S
C399 H375 0.979 . S
C399 H376 0.977 . S
C399 C396 1.453 . S
C400 H372 0.979 . S
C400 H373 0.980 . S
C400 H374 0.983 . S
C400 C396 1.684 . S
H401 C419 0.948 . S
H402 C360 0.948 . S
H403 C378 0.979 . S
H404 C378 0.980 . S
H405 C378 0.983 . S
H406 C377 0.982 . S
H407 C377 0.979 . S
H408 C377 0.977 . S
H409 C379 0.948 . S
H410 C381 0.947 . S
H411 C382 0.948 . S
H412 C388 0.982 . S
H413 C388 0.979 . S
H414 C388 0.977 . S
H415 C389 0.979 . S
H416 C389 0.980 . S
H417 C389 0.983 . S
H418 C362 0.947 . S
C419 C362 1.392 . S
C419 C363 1.419 . S
C419 H401 0.948 . S
C420 C421 1.391 . S
C420 C424 1.391 . S
C420 H462 0.948 . S
C421 C420 1.391 . S
C421 C422 1.391 . S
C422 C421 1.391 . S
C422 H478 0.947 . S
C422 C479 1.392 . S
C423 C424 1.391 . S
C423 C427 1.397 . S
C423 C479 1.419 . S
C424 C420 1.391 . S
C424 C423 1.391 . S
C424 C425 1.399 . S
C425 C424 1.399 . S
C425 C428 1.396 . S
C425 C437 1.453 . S
C425 C438 1.684 . S
H426 C450 0.948 . S
C427 C423 1.397 . S
C427 C428 1.394 . S
C427 C446 1.723 . S
C428 C425 1.396 . S
C428 C427 1.394 . S
C428 C458 1.723 . S
H429 C452 0.947 . S
H430 C453 0.948 . S
H431 C459 0.982 . S
H432 C460 0.979 . S
H433 C460 0.980 . S
H434 C460 0.983 . S
H435 C459 0.979 . S
H436 C459 0.977 . S
C437 C425 1.453 . S
C437 H466 0.982 . S
C437 H467 0.979 . S
C437 H468 0.977 . S
C438 C425 1.684 . S
C438 H463 0.979 . S
C438 H464 0.980 . S
C438 H465 0.983 . S
C439 C440 1.391 . S
C439 C444 1.391 . S
C439 H469 0.948 . S
C440 C439 1.391 . S
C440 C441 1.391 . S
C441 C440 1.391 . S
C441 C442 1.392 . S
C441 H470 0.947 . S
C442 C441 1.392 . S
C442 C443 1.419 . S
C442 H471 0.948 . S
C443 C442 1.419 . S
C443 C444 1.391 . S
C443 C447 1.397 . S
C444 C439 1.391 . S
C444 C443 1.391 . S
C444 C445 1.399 . S
C445 C444 1.399 . S
C445 C446 1.396 . S
C445 C448 1.453 . S
C445 C449 1.684 . S
C446 C427 1.723 . S
C446 C445 1.396 . S
C446 C447 1.394 . S
C447 C443 1.397 . S
C447 C446 1.394 . S
C447 C457 1.723 . S
C448 C445 1.453 . S
C448 H472 0.982 . S
C448 H473 0.979 . S
C448 H474 0.977 . S
C449 C445 1.684 . S
C449 H475 0.979 . S
C449 H476 0.980 . S
C449 H477 0.983 . S
C450 H426 0.948 . S
C450 C451 1.391 . S
C450 C455 1.391 . S
C451 C450 1.391 . S
C451 C452 1.391 . S
C452 H429 0.947 . S
C452 C451 1.391 . S
C452 C453 1.392 . S
C453 H430 0.948 . S
C453 C452 1.392 . S
C453 C454 1.419 . S
C454 C453 1.419 . S
C454 C455 1.391 . S
C454 C458 1.397 . S
C455 C450 1.391 . S
C455 C454 1.391 . S
C455 C456 1.399 . S
C456 C455 1.399 . S
C456 C457 1.396 . S
C456 C459 1.453 . S
C456 C460 1.684 . S
C457 C447 1.723 . S
C457 C456 1.396 . S
C457 C458 1.394 . S
C458 C428 1.723 . S
C458 C454 1.397 . S
C458 C457 1.394 . S
C459 H431 0.982 . S
C459 H435 0.979 . S
C459 H436 0.977 . S
C459 C456 1.453 . S
C460 H432 0.979 . S
C460 H433 0.980 . S
C460 H434 0.983 . S
C460 C456 1.684 . S
H461 C479 0.948 . S
H462 C420 0.948 . S
H463 C438 0.979 . S
H464 C438 0.980 . S
H465 C438 0.983 . S
H466 C437 0.982 . S
H467 C437 0.979 . S
H468 C437 0.977 . S
H469 C439 0.948 . S
H470 C441 0.947 . S
H471 C442 0.948 . S
H472 C448 0.982 . S
H473 C448 0.979 . S
H474 C448 0.977 . S
H475 C449 0.979 . S
H476 C449 0.980 . S
H477 C449 0.983 . S
H478 C422 0.947 . S
C479 C422 1.392 . S
C479 C423 1.419 . S
C479 H461 0.948 . S
Ho480 C483 2.811 . S
Ho480 O500 2.322 . S
Ho480 O502 2.378 . S
Ho480 O503 2.524 . S
Ho480 O504 2.381 1_545 S
Ho480 O505 2.669 1_545 S
Ho480 O507 2.346 1_445 S
Ho480 O511 2.305 1_455 S
Ho481 C492 2.811 . S
Ho481 O501 2.346 1_665 S
Ho481 O505 2.305 1_655 S
Ho481 O506 2.322 . S
Ho481 O508 2.378 . S
Ho481 O509 2.524 . S
Ho481 O510 2.381 1_565 S
Ho481 O511 2.669 1_565 S
C482 O500 1.259 . S
C482 O501 1.268 . S
C483 Ho480 2.811 . S
C483 C484 1.488 . S
C483 O502 1.215 . S
C483 O503 1.289 . S
C484 C483 1.488 . S
C484 C485 1.348 . S
C484 C489 1.413 . S
C485 C484 1.348 . S
C485 C486 1.442 . S
C485 H512 0.930 . S
C486 C485 1.442 . S
C486 C487 1.381 . S
C486 H513 0.931 . S
C487 C486 1.381 . S
C487 C488 1.321 . S
C488 C487 1.321 . S
C488 C489 1.403 . S
C488 H514 0.934 . S
C489 C484 1.413 . S
C489 C488 1.403 . S
C489 H515 0.930 . S
C490 O504 1.275 . S
C490 O505 1.256 . S
C491 O506 1.259 . S
C491 O507 1.268 . S
C492 Ho481 2.811 . S
C492 C493 1.488 . S
C492 O508 1.215 . S
C492 O509 1.289 . S
C493 C492 1.488 . S
C493 C494 1.348 . S
C493 C498 1.413 . S
C494 C493 1.348 . S
C494 C495 1.442 . S
C494 H516 0.930 . S
C495 C494 1.442 . S
C495 C496 1.381 . S
C495 H517 0.931 . S
C496 C495 1.381 . S
C496 C497 1.321 . S
C497 C496 1.321 . S
C497 C498 1.403 . S
C497 H518 0.934 . S
C498 C493 1.413 . S
C498 C497 1.403 . S
C498 H519 0.930 . S
C499 O510 1.275 . S
C499 O511 1.256 . S
O500 Ho480 2.322 . S
O500 C482 1.259 . S
O501 Ho481 2.346 1_445 S
O501 C482 1.268 . S
O502 Ho480 2.378 . S
O502 C483 1.215 . S
O503 Ho480 2.524 . S
O503 C483 1.289 . S
O504 Ho480 2.381 1_565 S
O504 C490 1.275 . S
O505 Ho480 2.669 1_565 S
O505 Ho481 2.305 1_455 S
O505 C490 1.256 . S
O506 Ho481 2.322 . S
O506 C491 1.259 . S
O507 Ho480 2.346 1_665 S
O507 C491 1.268 . S
O508 Ho481 2.378 . S
O508 C492 1.215 . S
O509 Ho481 2.524 . S
O509 C492 1.289 . S
O510 Ho481 2.381 1_545 S
O510 C499 1.275 . S
O511 Ho480 2.305 1_655 S
O511 Ho481 2.669 1_545 S
O511 C499 1.256 . S
H512 C485 0.930 . S
H513 C486 0.931 . S
H514 C488 0.934 . S
H515 C489 0.930 . S
H516 C494 0.930 . S
H517 C495 0.931 . S
H518 C497 0.934 . S
H519 C498 0.930 . S
Ho520 C523 2.811 1_565 S
Ho520 O540 2.322 1_565 S
Ho520 O542 2.378 1_565 S
Ho520 O543 2.524 1_565 S
Ho520 O544 2.381 . S
Ho520 O545 2.669 . S
Ho520 O547 2.346 1_554 S
Ho520 O551 2.305 1_564 S
Ho521 C532 2.811 1_545 S
Ho521 O541 2.346 1_556 S
Ho521 O545 2.305 1_546 S
Ho521 O546 2.322 1_545 S
Ho521 O548 2.378 1_545 S
Ho521 O549 2.524 1_545 S
Ho521 O550 2.381 . S
Ho521 O551 2.669 . S
C522 O540 1.259 . S
C522 O541 1.268 . S
C523 Ho520 2.811 1_545 S
C523 C524 1.488 . S
C523 O542 1.215 . S
C523 O543 1.289 . S
C524 C523 1.488 . S
C524 C525 1.348 . S
C524 C529 1.413 . S
C525 C524 1.348 . S
C525 C526 1.442 . S
C525 H552 0.930 . S
C526 C525 1.442 . S
C526 C527 1.381 . S
C526 H553 0.931 . S
C527 C526 1.381 . S
C527 C528 1.321 . S
C528 C527 1.321 . S
C528 C529 1.403 . S
C528 H554 0.934 . S
C529 C524 1.413 . S
C529 C528 1.403 . S
C529 H555 0.930 . S
C530 O544 1.275 . S
C530 O545 1.256 . S
C531 O546 1.259 . S
C531 O547 1.268 . S
C532 Ho521 2.811 1_565 S
C532 C533 1.488 . S
C532 O548 1.215 . S
C532 O549 1.289 . S
C533 C532 1.488 . S
C533 C534 1.348 . S
C533 C538 1.413 . S
C534 C533 1.348 . S
C534 C535 1.442 . S
C534 H556 0.930 . S
C535 C534 1.442 . S
C535 C536 1.381 . S
C535 H557 0.931 . S
C536 C535 1.381 . S
C536 C537 1.321 . S
C537 C536 1.321 . S
C537 C538 1.403 . S
C537 H558 0.934 . S
C538 C533 1.413 . S
C538 C537 1.403 . S
C538 H559 0.930 . S
C539 O550 1.275 . S
C539 O551 1.256 . S
O540 Ho520 2.322 1_545 S
O540 C522 1.259 . S
O541 Ho521 2.346 1_554 S
O541 C522 1.268 . S
O542 Ho520 2.378 1_545 S
O542 C523 1.215 . S
O543 Ho520 2.524 1_545 S
O543 C523 1.289 . S
O544 Ho520 2.381 . S
O544 C530 1.275 . S
O545 Ho520 2.669 . S
O545 Ho521 2.305 1_564 S
O545 C530 1.256 . S
O546 Ho521 2.322 1_565 S
O546 C531 1.259 . S
O547 Ho520 2.346 1_556 S
O547 C531 1.268 . S
O548 Ho521 2.378 1_565 S
O548 C532 1.215 . S
O549 Ho521 2.524 1_565 S
O549 C532 1.289 . S
O550 Ho521 2.381 . S
O550 C539 1.275 . S
O551 Ho520 2.305 1_546 S
O551 Ho521 2.669 . S
O551 C539 1.256 . S
H552 C525 0.930 . S
H553 C526 0.931 . S
H554 C528 0.934 . S
H555 C529 0.930 . S
H556 C534 0.930 . S
H557 C535 0.931 . S
H558 C537 0.934 . S
H559 C538 0.930 . S
Ho560 C563 2.811 . S
Ho560 O580 2.322 . S
Ho560 O582 2.378 . S
Ho560 O583 2.524 . S
Ho560 O584 2.381 . S
Ho560 O585 2.669 . S
Ho560 O587 2.346 . S
Ho560 O591 2.305 . S
Ho561 C572 2.811 . S
Ho561 O581 2.346 . S
Ho561 O585 2.305 . S
Ho561 O586 2.322 . S
Ho561 O588 2.378 . S
Ho561 O589 2.524 . S
Ho561 O590 2.381 . S
Ho561 O591 2.669 . S
C562 O580 1.259 . S
C562 O581 1.268 . S
C563 Ho560 2.811 . S
C563 C564 1.488 . S
C563 O582 1.215 . S
C563 O583 1.289 . S
C564 C563 1.488 . S
C564 C565 1.348 . S
C564 C569 1.413 . S
C565 C564 1.348 . S
C565 C566 1.442 . S
C565 H592 0.930 . S
C566 C565 1.442 . S
C566 C567 1.381 . S
C566 H593 0.931 . S
C567 C566 1.381 . S
C567 C568 1.321 . S
C568 C567 1.321 . S
C568 C569 1.403 . S
C568 H594 0.934 . S
C569 C564 1.413 . S
C569 C568 1.403 . S
C569 H595 0.930 . S
C570 O584 1.275 . S
C570 O585 1.256 . S
C571 O586 1.259 . S
C571 O587 1.268 . S
C572 Ho561 2.811 . S
C572 C573 1.488 . S
C572 O588 1.215 . S
C572 O589 1.289 . S
C573 C572 1.488 . S
C573 C574 1.348 . S
C573 C578 1.413 . S
C574 C573 1.348 . S
C574 C575 1.442 . S
C574 H596 0.930 . S
C575 C574 1.442 . S
C575 C576 1.381 . S
C575 H597 0.931 . S
C576 C575 1.381 . S
C576 C577 1.321 . S
C577 C576 1.321 . S
C577 C578 1.403 . S
C577 H598 0.934 . S
C578 C573 1.413 . S
C578 C577 1.403 . S
C578 H599 0.930 . S
C579 O590 1.275 . S
C579 O591 1.256 . S
O580 Ho560 2.322 . S
O580 C562 1.259 . S
O581 Ho561 2.346 . S
O581 C562 1.268 . S
O582 Ho560 2.378 . S
O582 C563 1.215 . S
O583 Ho560 2.524 . S
O583 C563 1.289 . S
O584 Ho560 2.381 . S
O584 C570 1.275 . S
O585 Ho560 2.669 . S
O585 Ho561 2.305 . S
O585 C570 1.256 . S
O586 Ho561 2.322 . S
O586 C571 1.259 . S
O587 Ho560 2.346 . S
O587 C571 1.268 . S
O588 Ho561 2.378 . S
O588 C572 1.215 . S
O589 Ho561 2.524 . S
O589 C572 1.289 . S
O590 Ho561 2.381 . S
O590 C579 1.275 . S
O591 Ho560 2.305 . S
O591 Ho561 2.669 . S
O591 C579 1.256 . S
H592 C565 0.930 . S
H593 C566 0.931 . S
H594 C568 0.934 . S
H595 C569 0.930 . S
H596 C574 0.930 . S
H597 C575 0.931 . S
H598 C577 0.934 . S
H599 C578 0.930 . S
Ho600 C603 2.811 . S
Ho600 O620 2.322 . S
Ho600 O622 2.378 . S
Ho600 O623 2.524 . S
Ho600 O624 2.381 1_455 S
Ho600 O625 2.669 1_455 S
Ho600 O627 2.346 1_454 S
Ho600 O631 2.305 1_554 S
Ho601 C612 2.811 . S
Ho601 O621 2.346 1_656 S
Ho601 O625 2.305 1_556 S
Ho601 O626 2.322 . S
Ho601 O628 2.378 . S
Ho601 O629 2.524 . S
Ho601 O630 2.381 1_655 S
Ho601 O631 2.669 1_655 S
C602 O620 1.259 . S
C602 O621 1.268 . S
C603 Ho600 2.811 . S
C603 C604 1.488 . S
C603 O622 1.215 . S
C603 O623 1.289 . S
C604 C603 1.488 . S
C604 C605 1.348 . S
C604 C609 1.413 . S
C605 C604 1.348 . S
C605 C606 1.442 . S
C605 H632 0.930 . S
C606 C605 1.442 . S
C606 C607 1.381 . S
C606 H633 0.931 . S
C607 C606 1.381 . S
C607 C608 1.321 . S
C608 C607 1.321 . S
C608 C609 1.403 . S
C608 H634 0.934 . S
C609 C604 1.413 . S
C609 C608 1.403 . S
C609 H635 0.930 . S
C610 O624 1.275 . S
C610 O625 1.256 . S
C611 O626 1.259 . S
C611 O627 1.268 . S
C612 Ho601 2.811 . S
C612 C613 1.488 . S
C612 O628 1.215 . S
C612 O629 1.289 . S
C613 C612 1.488 . S
C613 C614 1.348 . S
C613 C618 1.413 . S
C614 C613 1.348 . S
C614 C615 1.442 . S
C614 H636 0.930 . S
C615 C614 1.442 . S
C615 C616 1.381 . S
C615 H637 0.931 . S
C616 C615 1.381 . S
C616 C617 1.321 . S
C617 C616 1.321 . S
C617 C618 1.403 . S
C617 H638 0.934 . S
C618 C613 1.413 . S
C618 C617 1.403 . S
C618 H639 0.930 . S
C619 O630 1.275 . S
C619 O631 1.256 . S
O620 Ho600 2.322 . S
O620 C602 1.259 . S
O621 Ho601 2.346 1_454 S
O621 C602 1.268 . S
O622 Ho600 2.378 . S
O622 C603 1.215 . S
O623 Ho600 2.524 . S
O623 C603 1.289 . S
O624 Ho600 2.381 1_655 S
O624 C610 1.275 . S
O625 Ho600 2.669 1_655 S
O625 Ho601 2.305 1_554 S
O625 C610 1.256 . S
O626 Ho601 2.322 . S
O626 C611 1.259 . S
O627 Ho600 2.346 1_656 S
O627 C611 1.268 . S
O628 Ho601 2.378 . S
O628 C612 1.215 . S
O629 Ho601 2.524 . S
O629 C612 1.289 . S
O630 Ho601 2.381 1_455 S
O630 C619 1.275 . S
O631 Ho600 2.305 1_556 S
O631 Ho601 2.669 1_455 S
O631 C619 1.256 . S
H632 C605 0.930 . S
H633 C606 0.931 . S
H634 C608 0.934 . S
H635 C609 0.930 . S
H636 C614 0.930 . S
H637 C615 0.931 . S
H638 C617 0.934 . S
H639 C618 0.930 . S
C1 C487 1.898 . S
C80 C536 1.616 . S
C562 C140 3.552 . S
C211 C610 3.553 . S
C522 C31 4.300 . S
C490 C61 1.553 . S
C611 C151 2.464 . S
C579 C200 2.308 . S
C20 C607 3.013 . S
C539 C121 3.359 . S
C181 C491 3.206 . S
C91 C576 2.821 . S
C496 C260 2.191 . S
C320 C527 1.616 . S
C361 C571 3.554 . S
C451 C619 3.552 . S
C271 C531 4.449 . S
C499 C301 1.553 . S
C602 C380 2.410 . S
C570 C440 2.308 . S
C241 C616 2.692 . S
C530 C391 3.362 . S
C482 C421 3.206 . S
C331 C567 2.821 . S
