# Generated by pormake.
# Topology anh, (6,3)-cn, num edge types: 1
# Building blocks:
#     Node 0, Type 0, BuildingBlock: CUKXOW_clean_sbu_0, # of connection points: 6
#     Node 1, Type 0, BuildingBlock: CUKXOW_clean_sbu_0, # of connection points: 6
#     Node 2, Type 0, BuildingBlock: CUKXOW_clean_sbu_0, # of connection points: 6
#     Node 3, Type 1, BuildingBlock: KAKCAD_clean_linker_0, # of connection points: 3
#     Node 4, Type 1, BuildingBlock: KAKCAD_clean_linker_0, # of connection points: 3
#     Node 5, Type 1, BuildingBlock: KAKCAD_clean_linker_0, # of connection points: 3
#     Node 6, Type 1, BuildingBlock: KAKCAD_clean_linker_0, # of connection points: 3
#     Node 7, Type 1, BuildingBlock: KAKCAD_clean_linker_0, # of connection points: 3
#     Node 8, Type 1, BuildingBlock: KAKCAD_clean_linker_0, # of connection points: 3
#     Edge 9, Type (0, 1), None
#     Edge 10, Type (0, 1), None
#     Edge 11, Type (0, 1), None
#     Edge 12, Type (0, 1), None
#     Edge 13, Type (0, 1), None
#     Edge 14, Type (0, 1), None
#     Edge 15, Type (0, 1), None
#     Edge 16, Type (0, 1), None
#     Edge 17, Type (0, 1), None
#     Edge 18, Type (0, 1), None
#     Edge 19, Type (0, 1), None
#     Edge 20, Type (0, 1), None
#     Edge 21, Type (0, 1), None
#     Edge 22, Type (0, 1), None
#     Edge 23, Type (0, 1), None
#     Edge 24, Type (0, 1), None
#     Edge 25, Type (0, 1), None
#     Edge 26, Type (0, 1), None
# Relax obj value: 0.143
# Max RMSD: 0.195
# Mean RMSD: 0.144
data_MOF--net-anh--node1-CUKXOW_clean_sbu_0--node2-KAKCAD_clean_linker_0--edge1-none
_symmetry_space_group_name_H-M    P1
_symmetry_Int_Tables_number       1
_symmetry_cell_setting            triclinic
loop_
_symmetry_equiv_pos_as_xyz
'x, y, z'
_cell_length_a     18.304163
_cell_length_b     17.707377
_cell_length_c     36.054758
_cell_angle_alpha  92.467782
_cell_angle_beta   88.893984
_cell_angle_gamma 108.13052
loop_
_atom_site_label
_atom_site_type_symbol
_atom_site_fract_x
_atom_site_fract_y
_atom_site_fract_z
_atom_type_partial_charge
Tb0 Tb 0.11931 0.69309 0.16179 0.0
C1 C 0.08284 0.57524 0.22643 0.0
Tb2 Tb 1.03295 0.51156 0.14469 0.0
O3 O 1.00873 0.71449 0.17782 0.0
O4 O 1.01002 0.6214 0.1424 0.0
O5 O 0.13237 0.64034 0.21336 0.0
C6 C 0.90839 0.38377 0.14554 0.0
O7 O 1.0313 0.52295 0.20524 0.0
C8 C 0.18492 0.53819 0.15058 0.0
C9 C 0.08542 0.62931 0.07812 0.0
O10 O 0.91589 0.4515 0.1627 0.0
O11 O 0.97166 0.3873 0.12739 0.0
O12 O 0.13498 0.46882 0.14285 0.0
O13 O 0.14579 0.58569 0.15505 0.0
O14 O 1.04184 0.55755 0.08861 0.0
O15 O 0.12317 0.68751 0.1017 0.0
C16 C 0.23201 0.83226 0.1661 0.0
O17 O 0.17602 0.8086 0.18988 0.0
O18 O 0.223 0.77839 0.13964 0.0
C19 C 0.96516 0.6507 0.16051 0.0
Tb20 Tb 0.56018 0.93924 0.48326 0.0
C21 C 0.65119 0.99723 0.41111 0.0
Tb22 Tb 0.73211 0.03183 0.49027 0.0
O23 O 0.53506 0.0448 0.4642 0.0
O24 O 0.62705 0.05616 0.49924 0.0
O25 O 0.59236 0.94131 0.42515 0.0
C26 C 0.86734 0.14549 0.48619 0.0
O27 O 0.70609 0.04594 0.43221 0.0
C28 C 0.69813 0.87756 0.49502 0.0
C29 C 0.63661 0.98454 0.56339 0.0
O30 O 0.81104 0.14716 0.50819 0.0
O31 O 0.84813 0.07865 0.46697 0.0
O32 O 0.76029 0.92768 0.50895 0.0
O33 O 0.66508 0.91452 0.47551 0.0
O34 O 0.7004 0.03273 0.54874 0.0
O35 O 0.5787 0.93864 0.54298 0.0
C36 C 0.42651 0.82324 0.48415 0.0
O37 O 0.43464 0.8983 0.48973 0.0
O38 O 0.49294 0.81411 0.47727 0.0
C39 C 0.59519 0.09471 0.48006 0.0
Tb40 Tb 0.44915 0.46791 0.82216 0.0
C41 C 0.5432 0.48918 0.89792 0.0
Tb42 Tb 0.61243 0.47444 0.81912 0.0
O43 O 0.40277 0.33966 0.81062 0.0
O44 O 0.5098 0.38921 0.83652 0.0
O45 O 0.47914 0.48883 0.88113 0.0
C46 C 0.75602 0.47583 0.80553 0.0
O47 O 0.60189 0.4764 0.87943 0.0
C48 C 0.5867 0.61309 0.81982 0.0
C49 C 0.51923 0.44019 0.74589 0.0
O50 O 0.71122 0.43624 0.83124 0.0
O51 O 0.71624 0.50795 0.78585 0.0
O52 O 0.64497 0.60207 0.83577 0.0
O53 O 0.55035 0.54956 0.80289 0.0
O54 O 0.5703 0.41941 0.76516 0.0
O55 O 0.47138 0.47369 0.76264 0.0
C56 C 0.35076 0.54725 0.83343 0.0
O57 O 0.33426 0.47854 0.8154 0.0
O58 O 0.4194 0.56727 0.84658 0.0
C59 C 0.46558 0.32666 0.8211 0.0
C60 C 0.69169 0.08336 0.35625 0.0
C61 C 0.65226 1.00913 0.37074 0.0
C62 C 0.68476 0.09714 0.31873 0.0
C63 C 0.63899 0.03661 0.29486 0.0
C64 C 0.60355 0.961 0.30905 0.0
C65 C 0.6095 0.94766 0.34659 0.0
C66 C 0.62275 0.0537 0.25631 0.0
C67 C 0.6797 0.1045 0.23423 0.0
C68 C 0.66202 0.12423 0.19885 0.0
C69 C 0.58688 0.09132 0.18508 0.0
C70 C 0.52954 0.03958 0.20665 0.0
C71 C 0.54804 0.02177 0.24215 0.0
C72 C 0.45054 1.00073 0.19243 0.0
C73 C 0.38647 0.99541 0.21559 0.0
C74 C 0.43917 0.95936 0.15784 0.0
C75 C 0.36629 0.90845 0.14803 0.0
C76 C 0.30365 0.89838 0.17259 0.0
C77 C 0.72091 0.18504 0.1782 0.0
C78 C 0.7092 0.25794 0.17172 0.0
C79 C 0.7924 0.17485 0.16909 0.0
C80 C 0.85234 0.23793 0.15519 0.0
C81 C 0.84206 0.31249 0.15133 0.0
C82 C 0.76958 0.32145 0.15886 0.0
C83 C 0.31369 0.94465 0.20577 0.0
H84 H 0.725 0.13199 0.37423 0.0
H85 H 0.71235 0.15626 0.30891 0.0
H86 H 0.56953 0.91236 0.29131 0.0
H87 H 0.57943 0.88943 0.35681 0.0
H88 H 0.73751 0.13037 0.24485 0.0
H89 H 0.50351 0.98282 0.25895 0.0
H90 H 0.57298 0.10667 0.15789 0.0
H91 H 0.39343 0.02753 0.24221 0.0
H92 H 0.48747 0.96204 0.13953 0.0
H93 H 0.36007 0.8734 0.12223 0.0
H94 H 0.65482 0.26734 0.17886 0.0
H95 H 0.80266 0.11911 0.17406 0.0
H96 H 0.26633 0.9383 0.22511 0.0
H97 H 0.76053 0.37863 0.15625 0.0
H98 H 0.90804 0.23 0.14999 0.0
C99 C 0.48614 0.47813 0.68368 0.0
C100 C 0.52458 0.4376 0.70492 0.0
C101 C 0.49986 0.48502 0.64547 0.0
C102 C 0.55182 0.45103 0.62777 0.0
C103 C 0.5881 0.40819 0.64886 0.0
C104 C 0.57461 0.40151 0.68696 0.0
C105 C 0.57027 0.46161 0.58768 0.0
C106 C 0.58486 0.5361 0.57206 0.0
C107 C 0.60836 0.54776 0.5347 0.0
C108 C 0.61715 0.48279 0.51284 0.0
C109 C 0.60233 0.4078 0.52842 0.0
C110 C 0.57816 0.39793 0.56548 0.0
C111 C 0.61404 0.33813 0.50795 0.0
C112 C 0.56226 0.29619 0.48039 0.0
C113 C 0.66602 0.30313 0.52231 0.0
C114 C 0.66241 0.22543 0.51159 0.0
C115 C 0.60719 0.18104 0.486 0.0
C116 C 0.62719 0.62932 0.5201 0.0
C117 C 0.58045 0.67713 0.52964 0.0
C118 C 0.6956 0.66314 0.50011 0.0
C119 C 0.71785 0.74362 0.49115 0.0
C120 C 0.67157 0.79129 0.50145 0.0
C121 C 0.60282 0.75721 0.52077 0.0
C122 C 0.55901 0.21811 0.46938 0.0
H123 H 0.44741 0.50687 0.6967 0.0
H124 H 0.47041 0.51757 0.62985 0.0
H125 H 0.62909 0.38198 0.63615 0.0
H126 H 0.60528 0.37001 0.70249 0.0
H127 H 0.58135 0.58614 0.5896 0.0
H128 H 0.56608 0.33989 0.57724 0.0
H129 H 0.63615 0.49062 0.48421 0.0
H130 H 0.52071 0.32147 0.46943 0.0
H131 H 0.70568 0.33389 0.54401 0.0
H132 H 0.6995 0.19851 0.52532 0.0
H133 H 0.52743 0.6532 0.54506 0.0
H134 H 0.73355 0.62846 0.49286 0.0
H135 H 0.51589 0.18529 0.44953 0.0
H136 H 0.56777 0.79302 0.5306 0.0
H137 H 0.77188 0.76901 0.47675 0.0
C138 C 0.1374 0.7231 0.0274 0.0
C139 C 0.08636 0.65041 0.03897 0.0
C140 C 0.13523 0.74709 -0.00873 0.0
C141 C 0.08194 0.69907 0.96596 0.0
C142 C 1.03133 0.62603 0.97733 0.0
C143 C 1.03348 0.60194 0.01352 0.0
C144 C 0.08448 0.72044 0.9267 0.0
C145 C 0.15422 0.7359 0.90716 0.0
C146 C 0.15463 0.73096 0.86817 0.0
C147 C 0.0872 0.72411 0.84903 0.0
C148 C 1.01727 0.69899 0.86798 0.0
C149 C 1.01604 0.70457 0.90685 0.0
C150 C 0.95426 0.6384 0.84886 0.0
C151 C 0.92816 0.65203 0.81432 0.0
C152 C 0.92735 0.56189 0.8632 0.0
C153 C 0.86894 0.5026 0.84545 0.0
C154 C 0.83643 0.51921 0.81324 0.0
C155 C 0.21004 0.69605 0.85006 0.0
C156 C 0.28795 0.72469 0.85935 0.0
C157 C 0.1813 0.62171 0.83079 0.0
C158 C 0.22793 0.57404 0.82393 0.0
C159 C 0.30356 0.59983 0.83637 0.0
C160 C 0.33452 0.6767 0.85255 0.0
C161 C 0.86989 0.59236 0.79637 0.0
H162 H 0.17915 0.76197 0.04628 0.0
H163 H 0.17544 0.80301 0.98303 0.0
H164 H 0.99115 0.58652 0.95802 0.0
H165 H 0.9933 0.54588 0.02159 0.0
H166 H 0.20553 0.73739 0.92211 0.0
H167 H 0.96134 0.68458 0.92136 0.0
H168 H 0.08764 0.71678 0.81898 0.0
H169 H 0.95085 0.70944 0.80196 0.0
H170 H 0.95033 0.54829 0.88864 0.0
H171 H 0.84471 0.44641 0.85874 0.0
H172 H 0.31124 0.78145 0.87418 0.0
H173 H 0.12102 0.59687 0.82382 0.0
H174 H 0.84617 0.60632 0.77121 0.0
H175 H 0.39386 0.69846 0.86149 0.0
H176 H 0.20365 0.51548 0.81086 0.0
C177 C 1.02348 0.51093 0.28488 0.0
C178 C 0.08769 0.55896 0.26584 0.0
C179 C 1.02839 0.4978 0.3226 0.0
C180 C 0.09797 0.53149 0.34173 0.0
C181 C 0.1626 0.5775 0.32214 0.0
C182 C 0.15727 0.5918 0.28478 0.0
C183 C 0.1039 0.51989 0.382 0.0
C184 C 0.06677 0.44645 0.39769 0.0
C185 C 0.07652 0.43491 0.43544 0.0
C186 C 0.12531 0.49708 0.45733 0.0
C187 C 0.16201 0.57071 0.44197 0.0
C188 C 0.14967 0.58219 0.40474 0.0
C189 C 0.22145 0.63322 0.46247 0.0
C190 C 0.21953 0.71201 0.46394 0.0
C191 C 0.28777 0.61713 0.47377 0.0
C192 C 0.35369 0.67954 0.48304 0.0
C193 C 0.35356 0.75858 0.48171 0.0
C194 C 1.03352 0.35867 0.45199 0.0
C195 C 0.99235 0.35856 0.48527 0.0
C196 C 1.02765 0.28598 0.43305 0.0
C197 C 0.97749 0.21502 0.44584 0.0
C198 C 0.93219 0.21589 0.47758 0.0
C199 C 0.94186 0.2877 0.4979 0.0
C200 C 0.28517 0.77445 0.4739 0.0
H201 H 0.96906 0.48498 0.27086 0.0
H202 H 0.97735 0.46262 0.33687 0.0
H203 H 0.21778 0.60236 0.33558 0.0
H204 H 0.20809 0.62788 0.27061 0.0
H205 H 1.03045 0.39805 0.38056 0.0
H206 H 0.17846 0.63943 0.39315 0.0
H207 H 0.13545 0.48799 0.48609 0.0
H208 H 0.16884 0.72545 0.45514 0.0
H209 H 0.29064 0.55686 0.47246 0.0
H210 H 0.40588 0.66613 0.48935 0.0
H211 H 0.99564 0.41378 0.50033 0.0
H212 H 0.05974 0.28439 0.40763 0.0
H213 H 0.28394 0.83509 0.47284 0.0
H214 H 0.90738 0.28983 0.52246 0.0
H215 H 0.97103 0.16029 0.42971 0.0
C216 C 0.57327 0.91941 0.62058 0.0
C217 C 0.62678 0.98441 0.6041 0.0
C218 C 0.56058 0.92011 0.65881 0.0
C219 C 0.6005 0.98615 0.68136 0.0
C220 C 0.65408 0.0513 0.66501 0.0
C221 C 0.66764 0.05016 0.62667 0.0
C222 C 0.58573 0.98607 0.72185 0.0
C223 C 0.58449 0.91959 0.7417 0.0
C224 C 0.56526 0.91512 0.77952 0.0
C225 C 0.54781 0.97932 0.79803 0.0
C226 C 0.54827 0.04651 0.77812 0.0
C227 C 0.56806 0.04955 0.74024 0.0
C228 C 0.52235 0.11177 0.79493 0.0
C229 C 0.45211 0.11965 0.78375 0.0
C230 C 0.57187 0.17279 0.81709 0.0
C231 C 0.5525 0.24193 0.82676 0.0
C232 C 0.48328 0.25092 0.81442 0.0
C233 C 0.56005 0.83988 0.79751 0.0
C234 C 0.50762 0.76886 0.78343 0.0
C235 C 0.61702 0.83581 0.8222 0.0
C236 C 0.62402 0.76174 0.8309 0.0
C237 C 0.57438 0.69094 0.81485 0.0
C238 C 0.51479 0.69531 0.79191 0.0
C239 C 0.43257 0.18826 0.79355 0.0
H240 H 0.54099 0.86786 0.60392 0.0
H241 H 0.5185 0.86938 0.67071 0.0
H242 H 0.68577 0.10272 0.6819 0.0
H243 H 0.7088 0.10135 0.61466 0.0
H244 H 0.59795 0.87024 0.72747 0.0
H245 H 0.56694 0.10035 0.72474 0.0
H246 H 0.53114 0.9757 0.82706 0.0
H247 H 0.41358 0.07382 0.76617 0.0
H248 H 0.62695 0.16857 0.82544 0.0
H249 H 0.59267 0.28926 0.84289 0.0
H250 H 0.46383 0.77052 0.76395 0.0
H251 H 0.65898 0.8898 0.83282 0.0
H252 H 0.37892 0.19341 0.7836 0.0
H253 H 0.47556 0.64196 0.77914 0.0
H254 H 0.67033 0.76008 0.84877 0.0
C255 C 0.6013 0.48351 0.96005 0.0
C256 C 0.54914 0.50642 0.93859 0.0
C257 C 0.60708 0.50149 -0.00165 0.0
C258 C 0.56202 0.54439 0.01604 0.0
C259 C 0.51054 0.56797 -0.00578 0.0
C260 C 0.5037 0.5486 0.95615 0.0
C261 C 0.56793 0.56363 0.05701 0.0
C262 C 0.63845 0.57947 0.07533 0.0
C263 C 0.64507 0.59264 0.11418 0.0
C264 C 0.57804 0.59438 0.13481 0.0
C265 C 0.50629 0.58062 0.11647 0.0
C266 C 0.50271 0.56452 0.07796 0.0
C267 C 0.43122 0.57578 0.13572 0.0
C268 C 0.37937 0.5006 0.14304 0.0
C269 C 0.40228 0.64111 0.13691 0.0
C270 C 0.32338 0.63084 0.144 0.0
C271 C 0.27092 0.55463 0.14916 0.0
C272 C 0.72289 0.60193 0.13123 0.0
C273 C 0.76728 0.55452 0.11702 0.0
C274 C 0.75782 0.66241 0.15795 0.0
C275 C 0.83553 0.67709 0.16851 0.0
C276 C 0.8805 0.63188 0.15259 0.0
C277 C 0.84448 0.56993 0.12701 0.0
C278 C 0.30082 0.49023 0.14958 0.0
H279 H 0.63698 0.45077 0.94736 0.0
H280 H 0.64631 0.48072 0.01411 0.0
H281 H 0.47601 0.60249 0.00636 0.0
H282 H 0.46377 0.5683 0.94032 0.0
H283 H 0.68939 0.58212 0.05898 0.0
H284 H 0.44746 0.55043 0.0644 0.0
H285 H 0.5811 0.60413 0.16466 0.0
H286 H 0.3987 0.4486 0.14119 0.0
H287 H 0.43982 0.69948 0.13015 0.0
H288 H 0.30294 0.68177 0.14325 0.0
H289 H 0.74295 0.50639 0.09692 0.0
H290 H 0.72632 0.7006 0.16948 0.0
H291 H 0.26262 0.43057 0.15343 0.0
H292 H 0.87665 0.53429 0.11365 0.0
H293 H 0.86108 0.72547 0.18829 0.0
loop_
_geom_bond_atom_site_label_1
_geom_bond_atom_site_label_2
_geom_bond_distance
_geom_bond_site_symmetry_2
_ccdc_geom_bond_type
Tb0 O3 2.453 1_455 S
Tb0 O4 2.596 1_455 S
Tb0 O5 2.374 . S
Tb0 O13 2.343 . S
Tb0 O15 2.353 . S
Tb0 O17 2.427 . S
Tb0 O18 2.513 . S
C1 O5 1.251 . S
C1 O7 1.263 . S
Tb2 O4 2.343 . S
Tb2 O7 2.353 1_655 S
Tb2 O10 2.427 . S
Tb2 O11 2.513 . S
Tb2 O12 2.453 1_655 S
Tb2 O13 2.596 1_655 S
Tb2 O14 2.374 1_655 S
O3 Tb0 2.453 1_655 S
O3 C19 1.245 . S
O4 Tb0 2.596 1_655 S
O4 Tb2 2.343 . S
O4 C19 1.259 . S
O5 Tb0 2.374 . S
O5 C1 1.251 . S
C6 O10 1.275 . S
C6 O11 1.246 . S
O7 C1 1.263 . S
O7 Tb2 2.353 1_455 S
C8 O12 1.245 . S
C8 O13 1.259 . S
C9 O14 1.250 . S
C9 O15 1.263 . S
O10 Tb2 2.427 . S
O10 C6 1.275 . S
O11 Tb2 2.513 . S
O11 C6 1.246 . S
O12 Tb2 2.453 1_455 S
O12 C8 1.245 . S
O13 Tb0 2.343 . S
O13 Tb2 2.596 1_455 S
O13 C8 1.259 . S
O14 Tb2 2.374 1_455 S
O14 C9 1.250 . S
O15 Tb0 2.353 . S
O15 C9 1.263 . S
C16 O17 1.275 . S
C16 O18 1.246 . S
O17 Tb0 2.427 . S
O17 C16 1.275 . S
O18 Tb0 2.513 . S
O18 C16 1.246 . S
C19 O3 1.245 . S
C19 O4 1.259 . S
Tb20 O23 2.453 . S
Tb20 O24 2.596 . S
Tb20 O25 2.374 . S
Tb20 O33 2.343 1_545 S
Tb20 O35 2.353 . S
Tb20 O37 2.427 1_545 S
Tb20 O38 2.513 1_545 S
C21 O25 1.251 . S
C21 O27 1.263 . S
Tb22 O24 2.343 . S
Tb22 O27 2.353 . S
Tb22 O30 2.427 . S
Tb22 O31 2.513 . S
Tb22 O32 2.453 1_545 S
Tb22 O33 2.596 1_545 S
Tb22 O34 2.374 . S
O23 Tb20 2.453 . S
O23 C39 1.245 . S
O24 Tb20 2.596 . S
O24 Tb22 2.343 . S
O24 C39 1.259 . S
O25 Tb20 2.374 . S
O25 C21 1.251 . S
C26 O30 1.275 . S
C26 O31 1.246 . S
O27 C21 1.263 . S
O27 Tb22 2.353 . S
C28 O32 1.245 . S
C28 O33 1.259 . S
C29 O34 1.250 . S
C29 O35 1.263 . S
O30 Tb22 2.427 . S
O30 C26 1.275 . S
O31 Tb22 2.513 . S
O31 C26 1.246 . S
O32 Tb22 2.453 1_565 S
O32 C28 1.245 . S
O33 Tb20 2.343 1_565 S
O33 Tb22 2.596 1_565 S
O33 C28 1.259 . S
O34 Tb22 2.374 . S
O34 C29 1.250 . S
O35 Tb20 2.353 . S
O35 C29 1.263 . S
C36 O37 1.275 . S
C36 O38 1.246 . S
O37 Tb20 2.427 1_565 S
O37 C36 1.275 . S
O38 Tb20 2.513 1_565 S
O38 C36 1.246 . S
C39 O23 1.245 . S
C39 O24 1.259 . S
Tb40 O43 2.453 . S
Tb40 O44 2.596 . S
Tb40 O45 2.374 . S
Tb40 O53 2.343 . S
Tb40 O55 2.353 . S
Tb40 O57 2.427 . S
Tb40 O58 2.513 . S
C41 O45 1.251 . S
C41 O47 1.263 . S
Tb42 O44 2.343 . S
Tb42 O47 2.353 . S
Tb42 O50 2.427 . S
Tb42 O51 2.513 . S
Tb42 O52 2.453 . S
Tb42 O53 2.596 . S
Tb42 O54 2.374 . S
O43 Tb40 2.453 . S
O43 C59 1.245 . S
O44 Tb40 2.596 . S
O44 Tb42 2.343 . S
O44 C59 1.259 . S
O45 Tb40 2.374 . S
O45 C41 1.251 . S
C46 O50 1.275 . S
C46 O51 1.246 . S
O47 C41 1.263 . S
O47 Tb42 2.353 . S
C48 O52 1.245 . S
C48 O53 1.259 . S
C49 O54 1.250 . S
C49 O55 1.263 . S
O50 Tb42 2.427 . S
O50 C46 1.275 . S
O51 Tb42 2.513 . S
O51 C46 1.246 . S
O52 Tb42 2.453 . S
O52 C48 1.245 . S
O53 Tb40 2.343 . S
O53 Tb42 2.596 . S
O53 C48 1.259 . S
O54 Tb42 2.374 . S
O54 C49 1.250 . S
O55 Tb40 2.353 . S
O55 C49 1.263 . S
C56 O57 1.275 . S
C56 O58 1.246 . S
O57 Tb40 2.427 . S
O57 C56 1.275 . S
O58 Tb40 2.513 . S
O58 C56 1.246 . S
C59 O43 1.245 . S
C59 O44 1.259 . S
C60 C61 1.386 . S
C60 C62 1.397 . S
C60 H84 0.931 . S
C61 C60 1.386 . S
C61 C65 1.399 . S
C62 C60 1.397 . S
C62 C63 1.384 . S
C62 H85 0.930 . S
C63 C62 1.384 . S
C63 C64 1.377 1_545 S
C63 C66 1.481 . S
C64 C63 1.377 1_565 S
C64 C65 1.389 1_565 S
C64 H86 0.929 . S
C65 C61 1.399 . S
C65 C64 1.389 1_545 S
C65 H87 0.929 1_545 S
C66 C63 1.481 . S
C66 C67 1.387 . S
C66 C71 1.390 1_545 S
C67 C66 1.387 . S
C67 C68 1.401 . S
C67 H88 0.930 . S
C68 C67 1.401 . S
C68 C69 1.376 . S
C68 C77 1.511 . S
C69 C68 1.376 . S
C69 C70 1.392 1_545 S
C69 H90 0.931 . S
C70 C69 1.392 1_565 S
C70 C71 1.361 . S
C70 C72 1.500 . S
C71 C66 1.390 1_565 S
C71 C70 1.361 . S
C71 H89 0.931 . S
C72 C70 1.500 . S
C72 C73 1.371 . S
C72 C74 1.365 . S
C73 C72 1.371 . S
C73 C83 1.386 . S
C73 H91 0.931 . S
C74 C72 1.365 . S
C74 C75 1.409 . S
C74 H92 0.929 . S
C75 C74 1.409 . S
C75 C76 1.380 . S
C75 H93 0.930 . S
C76 C75 1.380 . S
C76 C83 1.357 . S
C77 C68 1.511 . S
C77 C78 1.341 . S
C77 C79 1.371 . S
C78 C77 1.341 . S
C78 C82 1.394 . S
C78 H94 0.930 . S
C79 C77 1.371 . S
C79 C80 1.392 . S
C79 H95 0.931 . S
C80 C79 1.392 . S
C80 C81 1.331 . S
C80 H98 0.932 . S
C81 C80 1.331 . S
C81 C82 1.336 . S
C82 C78 1.394 . S
C82 C81 1.336 . S
C82 H97 0.929 . S
C83 C73 1.386 . S
C83 C76 1.357 . S
C83 H96 0.928 . S
H84 C60 0.931 . S
H85 C62 0.930 . S
H86 C64 0.929 . S
H87 C65 0.929 1_565 S
H88 C67 0.930 . S
H89 C71 0.931 . S
H90 C69 0.931 . S
H91 C73 0.931 . S
H92 C74 0.929 . S
H93 C75 0.930 . S
H94 C78 0.930 . S
H95 C79 0.931 . S
H96 C83 0.928 . S
H97 C82 0.929 . S
H98 C80 0.932 . S
C99 C100 1.386 . S
C99 C101 1.397 . S
C99 H123 0.931 . S
C100 C99 1.386 . S
C100 C104 1.397 . S
C101 C99 1.397 . S
C101 C102 1.384 . S
C101 H124 0.930 . S
C102 C101 1.384 . S
C102 C103 1.377 . S
C102 C105 1.481 . S
C103 C102 1.377 . S
C103 C104 1.389 . S
C103 H125 0.929 . S
C104 C100 1.397 . S
C104 C103 1.389 . S
C104 H126 0.931 . S
C105 C102 1.481 . S
C105 C106 1.387 . S
C105 C110 1.390 . S
C106 C105 1.387 . S
C106 C107 1.401 . S
C106 H127 0.930 . S
C107 C106 1.401 . S
C107 C108 1.376 . S
C107 C116 1.511 . S
C108 C107 1.376 . S
C108 C109 1.392 . S
C108 H129 0.931 . S
C109 C108 1.392 . S
C109 C110 1.361 . S
C109 C111 1.500 . S
C110 C105 1.390 . S
C110 C109 1.361 . S
C110 H128 0.931 . S
C111 C109 1.500 . S
C111 C112 1.371 . S
C111 C113 1.365 . S
C112 C111 1.371 . S
C112 C122 1.386 . S
C112 H130 0.931 . S
C113 C111 1.365 . S
C113 C114 1.409 . S
C113 H131 0.929 . S
C114 C113 1.409 . S
C114 C115 1.380 . S
C114 H132 0.930 . S
C115 C114 1.380 . S
C115 C122 1.357 . S
C116 C107 1.511 . S
C116 C117 1.341 . S
C116 C118 1.371 . S
C117 C116 1.341 . S
C117 C121 1.394 . S
C117 H133 0.930 . S
C118 C116 1.371 . S
C118 C119 1.392 . S
C118 H134 0.931 . S
C119 C118 1.392 . S
C119 C120 1.331 . S
C119 H137 0.932 . S
C120 C119 1.331 . S
C120 C121 1.336 . S
C121 C117 1.394 . S
C121 C120 1.336 . S
C121 H136 0.929 . S
C122 C112 1.386 . S
C122 C115 1.357 . S
C122 H135 0.928 . S
H123 C99 0.931 . S
H124 C101 0.930 . S
H125 C103 0.929 . S
H126 C104 0.931 . S
H127 C106 0.930 . S
H128 C110 0.931 . S
H129 C108 0.931 . S
H130 C112 0.931 . S
H131 C113 0.929 . S
H132 C114 0.930 . S
H133 C117 0.930 . S
H134 C118 0.931 . S
H135 C122 0.928 . S
H136 C121 0.929 . S
H137 C119 0.932 . S
C138 C139 1.386 . S
C138 C140 1.397 1_554 S
C138 H162 0.931 . S
C139 C138 1.386 . S
C139 C143 1.397 1_455 S
C140 C138 1.397 1_556 S
C140 C141 1.384 . S
C140 H163 0.930 . S
C141 C140 1.384 . S
C141 C142 1.380 . S
C141 C144 1.481 . S
C142 C141 1.380 . S
C142 C143 1.389 1_456 S
C142 H164 0.927 1_455 S
C143 C139 1.397 1_655 S
C143 C142 1.389 1_654 S
C143 H165 0.931 . S
C144 C141 1.481 . S
C144 C145 1.387 . S
C144 C149 1.390 . S
C145 C144 1.387 . S
C145 C146 1.401 . S
C145 H166 0.930 . S
C146 C145 1.401 . S
C146 C147 1.376 . S
C146 C155 1.511 . S
C147 C146 1.376 . S
C147 C148 1.392 . S
C147 H168 0.931 . S
C148 C147 1.392 . S
C148 C149 1.361 . S
C148 C150 1.500 1_455 S
C149 C144 1.390 . S
C149 C148 1.361 . S
C149 H167 0.931 1_455 S
C150 C148 1.500 1_655 S
C150 C151 1.371 . S
C150 C152 1.365 . S
C151 C150 1.371 . S
C151 C161 1.386 . S
C151 H169 0.936 . S
C152 C150 1.365 . S
C152 C153 1.409 . S
C152 H170 0.929 . S
C153 C152 1.409 . S
C153 C154 1.380 . S
C153 H171 0.930 . S
C154 C153 1.380 . S
C154 C161 1.357 . S
C155 C146 1.511 . S
C155 C156 1.341 . S
C155 C157 1.371 . S
C156 C155 1.341 . S
C156 C160 1.394 . S
C156 H172 0.930 . S
C157 C155 1.371 . S
C157 C158 1.392 . S
C157 H173 0.931 . S
C158 C157 1.392 . S
C158 C159 1.331 . S
C158 H176 0.932 . S
C159 C158 1.331 . S
C159 C160 1.336 . S
C160 C156 1.394 . S
C160 C159 1.336 . S
C160 H175 0.929 . S
C161 C151 1.386 . S
C161 C154 1.357 . S
C161 H174 0.928 . S
H162 C138 0.931 . S
H163 C140 0.930 . S
H164 C142 0.927 1_655 S
H165 C143 0.931 . S
H166 C145 0.930 . S
H167 C149 0.931 1_655 S
H168 C147 0.931 . S
H169 C151 0.936 . S
H170 C152 0.929 . S
H171 C153 0.930 . S
H172 C156 0.930 . S
H173 C157 0.931 . S
H174 C161 0.928 . S
H175 C160 0.929 . S
H176 C158 0.932 . S
C177 C178 1.386 . S
C177 C179 1.397 . S
C177 H201 0.931 . S
C178 C177 1.386 . S
C178 C182 1.397 1_655 S
C179 C177 1.397 . S
C179 C180 1.384 . S
C179 H202 0.930 . S
C180 C179 1.384 . S
C180 C181 1.377 1_655 S
C180 C183 1.481 . S
C181 C180 1.377 1_455 S
C181 C182 1.389 . S
C181 H203 0.929 . S
C182 C178 1.397 1_455 S
C182 C181 1.389 . S
C182 H204 0.931 . S
C183 C180 1.481 . S
C183 C184 1.387 . S
C183 C188 1.390 1_655 S
C184 C183 1.387 . S
C184 C185 1.401 . S
C184 H205 0.930 . S
C185 C184 1.401 . S
C185 C186 1.381 . S
C185 C194 1.511 . S
C186 C185 1.381 . S
C186 C187 1.387 1_655 S
C186 H207 0.932 . S
C187 C186 1.387 1_455 S
C187 C188 1.361 . S
C187 C189 1.500 . S
C188 C183 1.390 1_455 S
C188 C187 1.361 . S
C188 H206 0.931 . S
C189 C187 1.500 . S
C189 C190 1.371 . S
C189 C191 1.365 . S
C190 C189 1.371 . S
C190 C200 1.386 . S
C190 H208 0.931 . S
C191 C189 1.365 . S
C191 C192 1.409 . S
C191 H209 0.929 . S
C192 C191 1.409 . S
C192 C193 1.380 . S
C192 H210 0.930 . S
C193 C192 1.380 . S
C193 C200 1.357 . S
C194 C185 1.511 . S
C194 C195 1.341 . S
C194 C196 1.371 . S
C195 C194 1.341 . S
C195 C199 1.394 . S
C195 H211 0.930 . S
C196 C194 1.371 . S
C196 C197 1.392 . S
C196 H212 0.931 . S
C197 C196 1.392 . S
C197 C198 1.331 . S
C197 H215 0.932 . S
C198 C197 1.331 . S
C198 C199 1.336 . S
C199 C195 1.394 . S
C199 C198 1.336 . S
C199 H214 0.929 . S
C200 C190 1.386 . S
C200 C193 1.357 . S
C200 H213 0.928 . S
H201 C177 0.931 . S
H202 C179 0.930 . S
H203 C181 0.929 . S
H204 C182 0.931 . S
H205 C184 0.930 . S
H206 C188 0.931 . S
H207 C186 0.932 . S
H208 C190 0.931 . S
H209 C191 0.929 . S
H210 C192 0.930 . S
H211 C195 0.930 . S
H212 C196 0.931 . S
H213 C200 0.928 . S
H214 C199 0.929 . S
H215 C197 0.932 . S
C216 C217 1.386 . S
C216 C218 1.397 . S
C216 H240 0.931 . S
C217 C216 1.386 . S
C217 C221 1.397 1_565 S
C218 C216 1.397 . S
C218 C219 1.384 1_565 S
C218 H241 0.930 . S
C219 C218 1.384 1_545 S
C219 C220 1.377 . S
C219 C222 1.481 . S
C220 C219 1.377 . S
C220 C221 1.389 . S
C220 H242 0.929 . S
C221 C217 1.397 1_545 S
C221 C220 1.389 . S
C221 H243 0.931 . S
C222 C219 1.481 . S
C222 C223 1.387 1_545 S
C222 C227 1.390 . S
C223 C222 1.387 1_565 S
C223 C224 1.401 . S
C223 H244 0.930 . S
C224 C223 1.401 . S
C224 C225 1.376 1_565 S
C224 C233 1.511 . S
C225 C224 1.376 1_545 S
C225 C226 1.392 . S
C225 H246 0.931 . S
C226 C225 1.392 . S
C226 C227 1.361 . S
C226 C228 1.500 . S
C227 C222 1.390 . S
C227 C226 1.361 . S
C227 H245 0.931 . S
C228 C226 1.500 . S
C228 C229 1.371 . S
C228 C230 1.365 . S
C229 C228 1.371 . S
C229 C239 1.386 . S
C229 H247 0.931 . S
C230 C228 1.365 . S
C230 C231 1.409 . S
C230 H248 0.929 . S
C231 C230 1.409 . S
C231 C232 1.380 . S
C231 H249 0.930 . S
C232 C231 1.380 . S
C232 C239 1.357 . S
C233 C224 1.511 . S
C233 C234 1.341 . S
C233 C235 1.371 . S
C234 C233 1.341 . S
C234 C238 1.394 . S
C234 H250 0.930 . S
C235 C233 1.371 . S
C235 C236 1.392 . S
C235 H251 0.931 . S
C236 C235 1.392 . S
C236 C237 1.331 . S
C236 H254 0.932 . S
C237 C236 1.331 . S
C237 C238 1.336 . S
C238 C234 1.394 . S
C238 C237 1.336 . S
C238 H253 0.929 . S
C239 C229 1.386 . S
C239 C232 1.357 . S
C239 H252 0.928 . S
H240 C216 0.931 . S
H241 C218 0.930 . S
H242 C220 0.929 . S
H243 C221 0.931 . S
H244 C223 0.930 . S
H245 C227 0.931 . S
H246 C225 0.931 . S
H247 C229 0.931 . S
H248 C230 0.929 . S
H249 C231 0.930 . S
H250 C234 0.930 . S
H251 C235 0.931 . S
H252 C239 0.928 . S
H253 C238 0.929 . S
H254 C236 0.932 . S
C255 C256 1.386 . S
C255 C257 1.397 1_556 S
C255 H279 0.931 . S
C256 C255 1.386 . S
C256 C260 1.397 . S
C257 C255 1.397 1_554 S
C257 C258 1.384 . S
C257 H280 0.930 . S
C258 C257 1.384 . S
C258 C259 1.377 . S
C258 C261 1.481 . S
C259 C258 1.377 . S
C259 C260 1.389 1_554 S
C259 H281 0.929 . S
C260 C256 1.397 . S
C260 C259 1.389 1_556 S
C260 H282 0.931 . S
C261 C258 1.481 . S
C261 C262 1.387 . S
C261 C266 1.390 . S
C262 C261 1.387 . S
C262 C263 1.401 . S
C262 H283 0.930 . S
C263 C262 1.401 . S
C263 C264 1.376 . S
C263 C272 1.511 . S
C264 C263 1.376 . S
C264 C265 1.392 . S
C264 H285 0.931 . S
C265 C264 1.392 . S
C265 C266 1.361 . S
C265 C267 1.500 . S
C266 C261 1.390 . S
C266 C265 1.361 . S
C266 H284 0.931 . S
C267 C265 1.500 . S
C267 C268 1.371 . S
C267 C269 1.365 . S
C268 C267 1.371 . S
C268 C278 1.386 . S
C268 H286 0.931 . S
C269 C267 1.365 . S
C269 C270 1.409 . S
C269 H287 0.929 . S
C270 C269 1.409 . S
C270 C271 1.380 . S
C270 H288 0.930 . S
C271 C270 1.380 . S
C271 C278 1.357 . S
C272 C263 1.511 . S
C272 C273 1.341 . S
C272 C274 1.371 . S
C273 C272 1.341 . S
C273 C277 1.394 . S
C273 H289 0.930 . S
C274 C272 1.371 . S
C274 C275 1.392 . S
C274 H290 0.931 . S
C275 C274 1.392 . S
C275 C276 1.331 . S
C275 H293 0.932 . S
C276 C275 1.331 . S
C276 C277 1.336 . S
C277 C273 1.394 . S
C277 C276 1.336 . S
C277 H292 0.929 . S
C278 C268 1.386 . S
C278 C271 1.357 . S
C278 H291 0.928 . S
H279 C255 0.931 . S
H280 C257 0.930 . S
H281 C259 0.929 . S
H282 C260 0.931 . S
H283 C262 0.930 . S
H284 C266 0.931 . S
H285 C264 0.931 . S
H286 C268 0.931 . S
H287 C269 0.929 . S
H288 C270 0.930 . S
H289 C273 0.930 . S
H290 C274 0.931 . S
H291 C278 0.928 . S
H292 C277 0.929 . S
H293 C275 0.932 . S
C8 C271 2.922 . S
C26 C198 1.542 . S
C48 C237 2.000 . S
C19 C276 2.819 . S
C193 C36 1.849 . S
C232 C59 2.546 . S
C28 C120 2.085 . S
C46 C154 1.352 . S
C16 C76 2.034 . S
C115 C39 2.485 . S
C159 C56 1.061 . S
C6 C81 1.843 . S
C139 C9 1.405 . S
C21 C61 1.622 . S
C49 C100 1.530 . S
C217 C29 1.550 1_565 S
C256 C41 1.700 . S
C1 C178 1.554 1_455 S
