# Generated by pormake.
# Topology apo, (3,6)-cn, num edge types: 1
# Building blocks:
#     Node 0, Type 0, BuildingBlock: BETDIP_clean_linker_0, # of connection points: 3
#     Node 1, Type 0, BuildingBlock: BETDIP_clean_linker_0, # of connection points: 3
#     Node 2, Type 0, BuildingBlock: BETDIP_clean_linker_0, # of connection points: 3
#     Node 3, Type 0, BuildingBlock: BETDIP_clean_linker_0, # of connection points: 3
#     Node 4, Type 0, BuildingBlock: BETDIP_clean_linker_0, # of connection points: 3
#     Node 5, Type 0, BuildingBlock: BETDIP_clean_linker_0, # of connection points: 3
#     Node 6, Type 0, BuildingBlock: BETDIP_clean_linker_0, # of connection points: 3
#     Node 7, Type 0, BuildingBlock: BETDIP_clean_linker_0, # of connection points: 3
#     Node 8, Type 1, BuildingBlock: KUMBOL_clean_sbu_1, # of connection points: 6
#     Node 9, Type 1, BuildingBlock: KUMBOL_clean_sbu_1, # of connection points: 6
#     Node 10, Type 1, BuildingBlock: KUMBOL_clean_sbu_1, # of connection points: 6
#     Node 11, Type 1, BuildingBlock: KUMBOL_clean_sbu_1, # of connection points: 6
#     Edge 12, Type (0, 1), BuildingBlock: OJICUG_clean_linker_0, # of connection points: 2
#     Edge 13, Type (0, 1), BuildingBlock: OJICUG_clean_linker_0, # of connection points: 2
#     Edge 14, Type (0, 1), BuildingBlock: OJICUG_clean_linker_0, # of connection points: 2
#     Edge 15, Type (0, 1), BuildingBlock: OJICUG_clean_linker_0, # of connection points: 2
#     Edge 16, Type (0, 1), BuildingBlock: OJICUG_clean_linker_0, # of connection points: 2
#     Edge 17, Type (0, 1), BuildingBlock: OJICUG_clean_linker_0, # of connection points: 2
#     Edge 18, Type (0, 1), BuildingBlock: OJICUG_clean_linker_0, # of connection points: 2
#     Edge 19, Type (0, 1), BuildingBlock: OJICUG_clean_linker_0, # of connection points: 2
#     Edge 20, Type (0, 1), BuildingBlock: OJICUG_clean_linker_0, # of connection points: 2
#     Edge 21, Type (0, 1), BuildingBlock: OJICUG_clean_linker_0, # of connection points: 2
#     Edge 22, Type (0, 1), BuildingBlock: OJICUG_clean_linker_0, # of connection points: 2
#     Edge 23, Type (0, 1), BuildingBlock: OJICUG_clean_linker_0, # of connection points: 2
#     Edge 24, Type (0, 1), BuildingBlock: OJICUG_clean_linker_0, # of connection points: 2
#     Edge 25, Type (0, 1), BuildingBlock: OJICUG_clean_linker_0, # of connection points: 2
#     Edge 26, Type (0, 1), BuildingBlock: OJICUG_clean_linker_0, # of connection points: 2
#     Edge 27, Type (0, 1), BuildingBlock: OJICUG_clean_linker_0, # of connection points: 2
#     Edge 28, Type (0, 1), BuildingBlock: OJICUG_clean_linker_0, # of connection points: 2
#     Edge 29, Type (0, 1), BuildingBlock: OJICUG_clean_linker_0, # of connection points: 2
#     Edge 30, Type (0, 1), BuildingBlock: OJICUG_clean_linker_0, # of connection points: 2
#     Edge 31, Type (0, 1), BuildingBlock: OJICUG_clean_linker_0, # of connection points: 2
#     Edge 32, Type (0, 1), BuildingBlock: OJICUG_clean_linker_0, # of connection points: 2
#     Edge 33, Type (0, 1), BuildingBlock: OJICUG_clean_linker_0, # of connection points: 2
#     Edge 34, Type (0, 1), BuildingBlock: OJICUG_clean_linker_0, # of connection points: 2
#     Edge 35, Type (0, 1), BuildingBlock: OJICUG_clean_linker_0, # of connection points: 2
# Relax obj value: 0.037
# Max RMSD: 0.218
# Mean RMSD: 0.169
data_MOF--net-apo--node1-KUMBOL_clean_sbu_1--node2-BETDIP_clean_linker_0--edge1-OJICUG_clean_linker_0
_symmetry_space_group_name_H-M    P1
_symmetry_Int_Tables_number       1
_symmetry_cell_setting            triclinic
loop_
_symmetry_equiv_pos_as_xyz
'x, y, z'
_cell_length_a     20.703168
_cell_length_b     30.233824
_cell_length_c     39.444632
_cell_angle_alpha  89.722024
_cell_angle_beta   90.125717
_cell_angle_gamma 91.066386
loop_
_atom_site_label
_atom_site_type_symbol
_atom_site_fract_x
_atom_site_fract_y
_atom_site_fract_z
_atom_type_partial_charge
H0 H 0.28928 0.35325 0.45671 0.0
H1 H 0.32684 0.39566 0.35442 0.0
H2 H 0.41168 0.46783 0.43711 0.0
H3 H 0.22661 0.365 0.34711 0.0
C4 C 0.22846 0.33465 0.3619 0.0
C5 C 0.31395 0.37559 0.4393 0.0
C6 C 0.35192 0.41121 0.45177 0.0
C7 C 0.30366 0.36998 0.40441 0.0
C8 C 0.33326 0.39982 0.38147 0.0
C9 C 0.37237 0.43497 0.39317 0.0
C10 C 0.382 0.44033 0.42824 0.0
N11 N 0.26283 0.3344 0.3932 0.0
H12 H 0.19276 0.1652 0.95119 0.0
H13 H 0.17914 0.11962 0.84833 0.0
H14 H 0.0809 0.04739 0.92707 0.0
H15 H 0.28874 0.14756 0.85105 0.0
C16 C 0.27731 0.17966 0.86154 0.0
C17 C 0.17451 0.14119 0.93308 0.0
C18 C 0.13501 0.10533 0.94397 0.0
C19 C 0.1919 0.14603 0.89886 0.0
C20 C 0.16756 0.11566 0.87496 0.0
C21 C 0.12646 0.08082 0.88518 0.0
C22 C 0.11076 0.07554 0.91951 0.0
N23 N 0.233 0.18205 0.88895 0.0
H24 H 0.71182 0.16898 0.58781 0.0
H25 H 0.72791 0.10794 0.68587 0.0
H26 H 0.81588 0.04793 0.59923 0.0
H27 H 0.63812 0.14333 0.69611 0.0
C28 C 0.6433 0.17468 0.68278 0.0
C29 C 0.72968 0.14252 0.60371 0.0
C30 C 0.76532 0.1083 0.58934 0.0
C31 C 0.71457 0.14216 0.63824 0.0
C32 C 0.73787 0.10796 0.65901 0.0
C33 C 0.77447 0.07362 0.64539 0.0
C34 C 0.78729 0.07382 0.61026 0.0
N35 N 0.67692 0.17704 0.65142 0.0
H36 H 0.78009 0.34167 0.09326 0.0
H37 H 0.75852 0.40121 0.19119 0.0
H38 H 0.67604 0.46283 0.10345 0.0
H39 H 0.8412 0.36279 0.20533 0.0
C40 C 0.83945 0.33263 0.19056 0.0
C41 C 0.76134 0.36782 0.10894 0.0
C42 C 0.72672 0.40251 0.09404 0.0
C43 C 0.77427 0.36738 0.14382 0.0
C44 C 0.75026 0.40142 0.16418 0.0
C45 C 0.71531 0.43627 0.14993 0.0
C46 C 0.7039 0.43656 0.11474 0.0
N47 N 0.81086 0.33214 0.1577 0.0
H48 H 0.74459 0.64607 0.58168 0.0
H49 H 0.70989 0.60646 0.68483 0.0
H50 H 0.60697 0.54096 0.60488 0.0
H51 H 0.81068 0.63684 0.69123 0.0
C52 C 0.80769 0.66678 0.67601 0.0
C53 C 0.71858 0.62521 0.59959 0.0
C54 C 0.67449 0.5923 0.58819 0.0
C55 C 0.73171 0.63076 0.63422 0.0
C56 C 0.70095 0.60263 0.65794 0.0
C57 C 0.65657 0.57009 0.64716 0.0
C58 C 0.64246 0.56572 0.61257 0.0
N59 N 0.7746 0.66563 0.64439 0.0
H60 H 0.77242 0.86428 0.08488 0.0
H61 H 0.80394 0.89846 0.18908 0.0
H62 H 0.90831 0.96898 0.11193 0.0
H63 H 0.69839 0.87172 0.19171 0.0
C64 C 0.70195 0.84162 0.17693 0.0
C65 C 0.79804 0.88429 0.10335 0.0
C66 C 0.84248 0.91783 0.09298 0.0
C67 C 0.78366 0.877 0.13773 0.0
C68 C 0.81385 0.90375 0.16241 0.0
C69 C 0.85779 0.93727 0.15283 0.0
C70 C 0.87274 0.9437 0.11843 0.0
N71 N 0.73947 0.84213 0.14672 0.0
H72 H 0.26127 0.8306 0.44722 0.0
H73 H 0.24687 0.88961 0.34858 0.0
H74 H 0.1811 0.96012 0.43623 0.0
H75 H 0.23598 0.81727 0.33273 0.0
C76 C 0.27259 0.80217 0.34855 0.0
C77 C 0.2466 0.85801 0.43132 0.0
C78 C 0.22096 0.89604 0.446 0.0
C79 C 0.2542 0.85497 0.39625 0.0
C80 C 0.23753 0.89091 0.37551 0.0
C81 C 0.21073 0.92915 0.38944 0.0
C82 C 0.2028 0.93141 0.42492 0.0
N83 N 0.28102 0.81599 0.38266 0.0
H84 H 0.22411 0.67704 0.94614 0.0
H85 H 0.25753 0.61722 0.84964 0.0
H86 H 0.33175 0.55718 0.94065 0.0
H87 H 0.24937 0.68635 0.8303 0.0
C88 C 0.21306 0.70117 0.84625 0.0
C89 C 0.24538 0.65099 0.93129 0.0
C90 C 0.27741 0.61631 0.94754 0.0
C91 C 0.23984 0.65231 0.896 0.0
C92 C 0.26545 0.61783 0.87671 0.0
C93 C 0.29964 0.58333 0.89226 0.0
C94 C 0.30497 0.58286 0.92794 0.0
N95 N 0.20689 0.68822 0.88081 0.0
C96 C 0.85746 0.041 0.30122 0.0
C97 C 0.89304 0.97161 0.32515 0.0
C98 C 0.90343 0.01712 0.31875 0.0
C99 C 0.83747 0.95021 0.3122 0.0
C100 C 0.80075 0.02004 0.289 0.0
C101 C 0.79145 0.97437 0.29417 0.0
N102 N 0.8687 0.08491 0.2958 0.0
C103 C 0.82331 0.11049 0.28043 0.0
C104 C 0.75498 0.0457 0.27212 0.0
C105 C 0.76602 0.09119 0.26814 0.0
Gd106 Gd 0.09302 0.12663 0.23832 0.0
Gd107 Gd 0.96627 0.11449 0.31711 0.0
N108 N 0.95674 0.03879 0.33091 0.0
C109 C 0.93781 0.94927 0.34525 0.0
C110 C 0.99701 0.01808 0.35305 0.0
C111 C 0.98932 0.97285 0.35983 0.0
H112 H 0.0343 0.03657 0.36619 0.0
H113 H 0.02249 0.95639 0.37675 0.0
H114 H 0.06991 0.22719 0.20722 0.0
H115 H 0.83189 0.14565 0.27742 0.0
H116 H 0.12684 0.30016 0.20533 0.0
H117 H 0.9316 0.91431 0.35078 0.0
H118 H 0.82899 0.91518 0.31659 0.0
H119 H 0.2087 0.05209 0.25661 0.0
H120 H 0.71073 0.03081 0.2624 0.0
H121 H 0.73053 0.11135 0.25554 0.0
H122 H 0.32904 0.2738 0.26148 0.0
H123 H 0.74842 0.95755 0.28474 0.0
H124 H 0.3779 0.12346 0.28904 0.0
H125 H 0.31937 0.05248 0.27962 0.0
N126 N 0.2016 0.12235 0.25634 0.0
C127 C 0.23455 0.16146 0.25911 0.0
C128 C 0.2325 0.08341 0.26189 0.0
C129 C 0.32865 0.12356 0.27969 0.0
C130 C 0.29576 0.08343 0.27443 0.0
C131 C 0.29876 0.16322 0.27112 0.0
H132 H 0.38087 0.20627 0.28244 0.0
N133 N 0.14478 0.19611 0.23483 0.0
C134 C 0.2056 0.19947 0.24745 0.0
C135 C 0.21034 0.27703 0.23246 0.0
C136 C 0.23967 0.24025 0.24726 0.0
C137 C 0.11732 0.23103 0.21851 0.0
C138 C 0.14933 0.27219 0.21747 0.0
O139 O 0.94569 0.08749 0.26409 0.0
O140 O 0.04189 0.06107 0.24641 0.0
O141 O 0.05686 0.13244 0.18691 0.0
O142 O 0.15188 0.10671 0.19546 0.0
O143 O 0.07015 0.09561 0.32601 0.0
O144 O 0.10055 0.06789 0.27431 0.0
O145 O 0.08083 0.18373 0.27451 0.0
O146 O 0.05993 0.15307 0.32686 0.0
O147 O 0.94694 0.1076 0.37092 0.0
O148 O 0.90368 0.16079 0.34297 0.0
O149 O 0.99243 0.15471 0.23174 0.0
O150 O 0.95464 0.17565 0.28483 0.0
C151 C 0.97887 0.05769 0.24788 0.0
C152 C 0.1053 0.06918 0.30761 0.0
C153 C 0.09513 0.08284 0.14645 0.0
C154 C 0.08805 0.06509 0.08617 0.0
C155 C 0.05408 0.01095 0.12872 0.0
C156 C 0.07073 0.04059 0.1545 0.0
C157 C 0.06224 0.02314 0.09474 0.0
C158 C 0.1043 0.09485 0.11233 0.0
C159 C 0.10772 0.11569 0.1731 0.0
C160 C 0.30233 0.24265 0.26092 0.0
C161 C 0.33179 0.2042 0.2729 0.0
H162 H 0.23495 0.30897 0.23176 0.0
C163 C 0.08678 0.18396 0.30761 0.0
C164 C 0.95832 0.18055 0.25157 0.0
C165 C 0.8455 0.12973 0.38989 0.0
C166 C 0.78953 0.11373 0.44327 0.0
C167 C 0.7327 0.10621 0.38955 0.0
C168 C 0.78841 0.11949 0.37212 0.0
C169 C 0.73325 0.10301 0.42487 0.0
C170 C 0.84556 0.12731 0.42556 0.0
C171 C 0.90649 0.13979 0.37186 0.0
H172 H 0.03483 0.97844 0.13507 0.0
H173 H 0.06431 0.03081 0.18067 0.0
H174 H 0.04948 0.99948 0.07519 0.0
H175 H 0.12286 0.12767 0.10613 0.0
H176 H 0.68897 0.09818 0.37561 0.0
H177 H 0.78682 0.12138 0.34484 0.0
H178 H 0.68939 0.09276 0.43787 0.0
H179 H 0.88959 0.1349 0.43947 0.0
C180 C 0.69282 0.42881 0.78851 0.0
C181 C 0.69383 0.5079 0.79896 0.0
C182 C 0.66164 0.46639 0.79986 0.0
C183 C 0.75714 0.51118 0.78631 0.0
C184 C 0.75641 0.43199 0.77589 0.0
C185 C 0.78833 0.47335 0.77485 0.0
N186 N 0.66033 0.38927 0.78919 0.0
C187 C 0.6888 0.35158 0.77837 0.0
C188 C 0.78574 0.39351 0.76437 0.0
C189 C 0.75181 0.35315 0.76567 0.0
Gd190 Gd 0.40757 0.39054 0.74376 0.0
Gd191 Gd 0.5561 0.38993 0.81191 0.0
N192 N 0.5997 0.46237 0.81134 0.0
C193 C 0.66157 0.54491 0.81097 0.0
C194 C 0.56956 0.49794 0.8248 0.0
C195 C 0.59946 0.53979 0.82428 0.0
H196 H 0.5234 0.49428 0.83692 0.0
H197 H 0.57492 0.56798 0.83464 0.0
H198 H 0.44551 0.3009 0.69663 0.0
H199 H 0.66332 0.32017 0.78003 0.0
H200 H 0.4101 0.22318 0.69142 0.0
H201 H 0.68464 0.57738 0.81072 0.0
H202 H 0.78248 0.54284 0.78536 0.0
H203 H 0.29059 0.44219 0.78492 0.0
H204 H 0.83452 0.39459 0.75447 0.0
H205 H 0.77428 0.3232 0.75706 0.0
H206 H 0.21611 0.21394 0.75746 0.0
H207 H 0.83714 0.47646 0.76516 0.0
H208 H 0.14062 0.34724 0.80805 0.0
H209 H 0.18492 0.42372 0.81118 0.0
N210 N 0.30542 0.37684 0.76744 0.0
C211 C 0.28118 0.33492 0.76454 0.0
C212 C 0.27136 0.40879 0.78344 0.0
C213 C 0.18669 0.35522 0.79633 0.0
C214 C 0.21161 0.39844 0.79822 0.0
C215 C 0.22143 0.32284 0.7793 0.0
H216 H 0.1532 0.26887 0.7884 0.0
N217 N 0.37495 0.3166 0.73362 0.0
C218 C 0.31746 0.30378 0.74761 0.0
C219 C 0.32892 0.23028 0.72487 0.0
C220 C 0.29363 0.25999 0.74423 0.0
C221 C 0.40561 0.28906 0.71184 0.0
C222 C 0.38437 0.2452 0.70796 0.0
O223 O 0.5735 0.41953 0.75933 0.0
O224 O 0.47558 0.44892 0.74699 0.0
O225 O 0.40716 0.39384 0.68778 0.0
O226 O 0.33513 0.42825 0.7176 0.0
O227 O 0.46362 0.42343 0.82752 0.0
O228 O 0.41755 0.45027 0.77794 0.0
O229 O 0.39055 0.36273 0.79664 0.0
O230 O 0.48614 0.33132 0.81279 0.0
O231 O 0.55988 0.40149 0.86641 0.0
O232 O 0.62019 0.35208 0.84415 0.0
O233 O 0.50121 0.35597 0.73002 0.0
O234 O 0.54104 0.32871 0.78078 0.0
C235 C 0.53774 0.44701 0.7419 0.0
C236 C 0.42446 0.45015 0.81121 0.0
C237 C 0.32553 0.43689 0.65661 0.0
C238 C 0.31773 0.4464 0.59482 0.0
C239 C 0.24281 0.48346 0.63217 0.0
C240 C 0.27275 0.46505 0.66037 0.0
C241 C 0.26501 0.47434 0.59972 0.0
C242 C 0.34771 0.42727 0.62355 0.0
C243 C 0.35693 0.41919 0.68763 0.0
C244 C 0.23473 0.24756 0.75947 0.0
C245 C 0.19872 0.2789 0.77695 0.0
H246 H 0.31229 0.19636 0.72166 0.0
C247 C 0.42263 0.3311 0.81151 0.0
C248 C 0.53415 0.32668 0.74766 0.0
C249 C 0.66165 0.39004 0.89218 0.0
C250 C 0.70923 0.40694 0.94759 0.0
C251 C 0.77019 0.42167 0.89606 0.0
C252 C 0.71899 0.40507 0.87666 0.0
C253 C 0.76535 0.42284 0.93127 0.0
C254 C 0.65725 0.39055 0.92782 0.0
C255 C 0.60648 0.37386 0.87149 0.0
H256 H 0.2021 0.50497 0.63548 0.0
H257 H 0.25445 0.47311 0.68525 0.0
H258 H 0.24011 0.4888 0.5783 0.0
H259 H 0.38845 0.40575 0.6202 0.0
H260 H 0.81403 0.43331 0.88375 0.0
H261 H 0.72473 0.40364 0.8496 0.0
H262 H 0.80618 0.43527 0.94583 0.0
H263 H 0.61348 0.37856 0.9401 0.0
C264 C 0.77243 0.84449 0.77643 0.0
C265 C 0.77264 0.7656 0.78804 0.0
C266 C 0.80377 0.80744 0.78831 0.0
C267 C 0.71091 0.7611 0.77349 0.0
C268 C 0.70879 0.84058 0.76382 0.0
C269 C 0.67906 0.79854 0.76135 0.0
N270 N 0.80201 0.88471 0.78 0.0
C271 C 0.76786 0.92247 0.77507 0.0
C272 C 0.67589 0.8792 0.75556 0.0
C273 C 0.70509 0.92035 0.76191 0.0
Gd274 Gd 0.03704 0.90087 0.72027 0.0
Gd275 Gd 0.91038 0.88381 0.79872 0.0
N276 N 0.86344 0.81284 0.80206 0.0
C277 C 0.80359 0.72993 0.8035 0.0
C278 C 0.89207 0.77906 0.81919 0.0
C279 C 0.863 0.7369 0.81975 0.0
H280 H 0.93826 0.78456 0.83144 0.0
H281 H 0.88656 0.70981 0.83249 0.0
H282 H 0.96217 0.97533 0.67094 0.0
H283 H 0.78882 0.95446 0.78118 0.0
H284 H 0.96632 0.05575 0.66019 0.0
H285 H 0.78123 0.69724 0.80389 0.0
H286 H 0.68652 0.72911 0.77256 0.0
H287 H 0.17565 0.87532 0.75808 0.0
H288 H 0.62696 0.87765 0.74578 0.0
H289 H 0.679 0.95043 0.75709 0.0
H290 H 0.15763 0.10508 0.71879 0.0
H291 H 0.63052 0.79483 0.7513 0.0
H292 H 0.28833 0.99443 0.77104 0.0
H293 H 0.27549 0.91333 0.77813 0.0
N294 N 0.13267 0.93444 0.74047 0.0
C295 C 0.13991 0.97865 0.73503 0.0
C296 C 0.18098 0.91072 0.75508 0.0
C297 C 0.24464 0.97791 0.76217 0.0
C298 C 0.23754 0.93212 0.76627 0.0
C299 C 0.19566 1.00174 0.74624 0.0
H300 H 0.24318 0.06606 0.74958 0.0
N301 N 0.03975 0.97669 0.7062 0.0
C302 C 0.09136 1.00055 0.71796 0.0
C303 C 0.05072 0.0666 0.69134 0.0
C304 C 0.09783 0.04629 0.71123 0.0
C305 C 0.99754 0.99549 0.68406 0.0
C306 C 0.00107 0.04086 0.67709 0.0
O307 O 0.9319 0.82659 0.76411 0.0
O308 O 0.94711 0.85824 0.71173 0.0
O309 O 0.05638 0.90822 0.66653 0.0
O310 O 0.10135 0.85564 0.69452 0.0
O311 O 0.01108 0.85594 0.80622 0.0
O312 O 0.05762 0.84181 0.75339 0.0
O313 O 0.05519 0.9284 0.77325 0.0
O314 O 0.9555 0.95051 0.78883 0.0
O315 O 0.9497 0.8915 0.84976 0.0
O316 O 0.84689 0.89269 0.84175 0.0
O317 O 0.93126 0.91432 0.71078 0.0
O318 O 0.89682 0.94141 0.76193 0.0
C319 C 0.9265 0.82538 0.73101 0.0
C320 C 0.05344 0.83597 0.78657 0.0
C321 C 0.15762 0.88652 0.64695 0.0
C322 C 0.21143 0.89992 0.59265 0.0
C323 C 0.27012 0.91051 0.64554 0.0
C324 C 0.21514 0.89793 0.6639 0.0
C325 C 0.26833 0.91175 0.61015 0.0
C326 C 0.1562 0.88724 0.61132 0.0
C327 C 0.09745 0.87639 0.66558 0.0
C328 C 0.15215 0.06986 0.72344 0.0
C329 C 0.201 0.04762 0.74087 0.0
H330 H 0.05388 0.10165 0.68557 0.0
C331 C 0.01824 0.95579 0.78969 0.0
C332 C 0.89323 0.93958 0.72857 0.0
C333 C 0.88775 0.93253 0.88854 0.0
C334 C 0.87688 0.9558 0.94786 0.0
C335 C 0.86805 0.00926 0.90142 0.0
C336 C 0.87791 0.97603 0.87772 0.0
C337 C 0.86668 0.99931 0.93606 0.0
C338 C 0.88838 0.92266 0.92347 0.0
C339 C 0.89351 0.89662 0.86369 0.0
H340 H 0.31428 0.91939 0.65881 0.0
H341 H 0.21766 0.89739 0.69119 0.0
H342 H 0.31174 0.92127 0.59645 0.0
H343 H 0.11164 0.8788 0.59815 0.0
H344 H 0.85986 0.04278 0.89288 0.0
H345 H 0.87658 0.98402 0.85094 0.0
H346 H 0.85581 0.0258 0.95333 0.0
H347 H 0.8973 0.88897 0.93132 0.0
C348 C 0.71649 0.67791 0.27037 0.0
C349 C 0.71052 0.75633 0.28275 0.0
C350 C 0.68349 0.71322 0.28382 0.0
C351 C 0.76957 0.76388 0.26606 0.0
C352 C 0.77768 0.68501 0.25543 0.0
C353 C 0.80301 0.72829 0.25234 0.0
N354 N 0.69116 0.63637 0.27435 0.0
C355 C 0.72832 0.60046 0.2679 0.0
C356 C 0.81287 0.64824 0.24543 0.0
C357 C 0.7887 0.60578 0.25242 0.0
Gd358 Gd 0.45698 0.6102 0.22093 0.0
Gd359 Gd 0.58609 0.63218 0.29756 0.0
N360 N 0.62586 0.70509 0.29915 0.0
C361 C 0.67793 0.79036 0.29909 0.0
C362 C 0.59546 0.73746 0.31668 0.0
C363 C 0.62063 0.78073 0.31657 0.0
H364 H 0.55101 0.72987 0.33 0.0
H365 H 0.59573 0.80663 0.32979 0.0
H366 H 0.53395 0.54173 0.16841 0.0
H367 H 0.71196 0.5675 0.27475 0.0
H368 H 0.53486 0.46203 0.15514 0.0
H369 H 0.69716 0.82394 0.29888 0.0
H370 H 0.79059 0.79691 0.26442 0.0
H371 H 0.31619 0.62934 0.25813 0.0
H372 H 0.86002 0.65227 0.23383 0.0
H373 H 0.81698 0.57712 0.2464 0.0
H374 H 0.35055 0.4026 0.21459 0.0
H375 H 0.84951 0.73441 0.24049 0.0
H376 H 0.21236 0.50608 0.26902 0.0
H377 H 0.21884 0.58723 0.27702 0.0
N378 N 0.36383 0.57246 0.24014 0.0
C379 C 0.35993 0.52834 0.23408 0.0
C380 C 0.31348 0.59394 0.25464 0.0
C381 C 0.25492 0.52441 0.26065 0.0
C382 C 0.25838 0.57023 0.26521 0.0
C383 C 0.30585 0.50292 0.24469 0.0
H384 H 0.26293 0.43701 0.2466 0.0
N385 N 0.45855 0.53538 0.20458 0.0
C386 C 0.40949 0.50907 0.21628 0.0
C387 C 0.45335 0.44628 0.18716 0.0
C388 C 0.40594 0.46366 0.20825 0.0
C389 C 0.50065 0.51954 0.18123 0.0
C390 C 0.50007 0.4746 0.17295 0.0
O391 O 0.55671 0.68743 0.26217 0.0
O392 O 0.54555 0.65381 0.21077 0.0
O393 O 0.43532 0.60488 0.16732 0.0
O394 O 0.39126 0.65623 0.19654 0.0
O395 O 0.48394 0.65547 0.30716 0.0
O396 O 0.43319 0.66745 0.25488 0.0
O397 O 0.43968 0.58127 0.27407 0.0
O398 O 0.54124 0.5644 0.2917 0.0
O399 O 0.55642 0.6248 0.35035 0.0
O400 O 0.65751 0.62683 0.3374 0.0
O401 O 0.56324 0.59849 0.21216 0.0
O402 O 0.59904 0.57258 0.26356 0.0
C403 C 0.56441 0.68771 0.22923 0.0
C404 C 0.43829 0.67306 0.28802 0.0
C405 C 0.33381 0.62765 0.14857 0.0
C406 C 0.27992 0.61524 0.09419 0.0
C407 C 0.22087 0.6047 0.14689 0.0
C408 C 0.27602 0.6167 0.1654 0.0
C409 C 0.22281 0.60361 0.11149 0.0
C410 C 0.33523 0.62738 0.11295 0.0
C411 C 0.39433 0.63677 0.16721 0.0
C412 C 0.35375 0.43763 0.22019 0.0
C413 C 0.30374 0.45724 0.23834 0.0
H414 H 0.45241 0.41159 0.18038 0.0
C415 C 0.47861 0.55801 0.29334 0.0
C416 C 0.60022 0.57259 0.2302 0.0
C417 C 0.62797 0.58441 0.38493 0.0
C418 C 0.64597 0.55908 0.44316 0.0
C419 C 0.6628 0.50957 0.39539 0.0
C420 C 0.64558 0.54289 0.37276 0.0
C421 C 0.66384 0.51762 0.43023 0.0
C422 C 0.627 0.59212 0.41997 0.0
C423 C 0.6153 0.62097 0.36136 0.0
H424 H 0.17652 0.59607 0.16003 0.0
H425 H 0.27345 0.61712 0.19269 0.0
H426 H 0.17948 0.59431 0.09761 0.0
H427 H 0.37989 0.6356 0.09984 0.0
H428 H 0.67696 0.47767 0.38586 0.0
H429 H 0.64723 0.53661 0.34576 0.0
H430 H 0.68036 0.49155 0.44681 0.0
H431 H 0.61222 0.62419 0.4289 0.0
C432 C 0.16321 0.95696 0.33453 0.0
C433 C 0.1898 0.96597 0.36678 0.0
H434 H 0.11721 0.98285 0.2901 0.0
C435 C 0.19445 0.01027 0.37743 0.0
H436 H 0.15766 0.92333 0.32554 0.0
C437 C 0.17007 0.04424 0.35723 0.0
C438 C 0.14145 0.03477 0.32573 0.0
H439 H 0.21601 0.01877 0.40162 0.0
H440 H 0.17186 0.07784 0.36667 0.0
C441 C 0.14001 0.99106 0.31407 0.0
C442 C 0.35401 0.55872 0.83842 0.0
C443 C 0.33031 0.54852 0.87111 0.0
H444 H 0.40101 0.53542 0.7937 0.0
C445 C 0.33689 0.50496 0.88334 0.0
H446 H 0.35171 0.59195 0.82823 0.0
C447 C 0.36736 0.47301 0.86381 0.0
C448 C 0.39037 0.48347 0.83126 0.0
H449 H 0.31823 0.49526 0.90794 0.0
H450 H 0.37232 0.4399 0.87402 0.0
C451 C 0.38275 0.52641 0.81856 0.0
C452 C 0.5593 0.53924 0.67705 0.0
C453 C 0.62627 0.53943 0.67193 0.0
H454 H 0.47887 0.51036 0.70357 0.0
C455 C 0.66415 0.50893 0.68952 0.0
H456 H 0.52924 0.56236 0.66346 0.0
C457 C 0.63535 0.47832 0.71172 0.0
C458 C 0.56843 0.47861 0.71767 0.0
H459 H 0.71585 0.50809 0.68544 0.0
H460 H 0.66555 0.45419 0.72383 0.0
C461 C 0.53067 0.50941 0.69995 0.0
C462 C 0.85784 0.00699 0.18646 0.0
C463 C 0.88689 0.96672 0.17874 0.0
H464 H 0.86431 0.06749 0.21449 0.0
C465 C 0.94447 0.95541 0.19513 0.0
H466 H 0.8133 0.01622 0.17406 0.0
C467 C 0.97353 0.98456 0.21835 0.0
C468 C 0.94544 0.02546 0.22547 0.0
H469 H 0.9675 0.92442 0.18951 0.0
H470 H 0.01857 0.97548 0.2303 0.0
C471 C 0.88676 0.03608 0.20971 0.0
C472 C 0.80269 0.99409 0.65689 0.0
C473 C 0.79984 0.03813 0.66804 0.0
H474 H 0.83343 0.92816 0.6677 0.0
C475 C 0.82223 0.04815 0.70098 0.0
H476 H 0.78467 0.98484 0.63208 0.0
C477 C 0.84853 0.01535 0.72171 0.0
C478 C 0.85418 0.972 0.70975 0.0
H479 H 0.82184 0.08172 0.71038 0.0
H480 H 0.86789 0.02452 0.74629 0.0
C481 C 0.82975 0.96146 0.67746 0.0
C482 C 0.69116 0.51629 0.16047 0.0
C483 C 0.69076 0.47216 0.17193 0.0
H484 H 0.66358 0.58298 0.17042 0.0
C485 C 0.66616 0.46253 0.20448 0.0
H486 H 0.7111 0.52514 0.13595 0.0
C487 C 0.64069 0.49592 0.22455 0.0
C488 C 0.63808 0.53937 0.21217 0.0
H489 H 0.66421 0.42891 0.21403 0.0
H490 H 0.61953 0.48725 0.24884 0.0
C491 C 0.66485 0.54952 0.18035 0.0
C492 C 0.35945 0.49491 0.34988 0.0
C493 C 0.40024 0.46724 0.3685 0.0
H494 H 0.35238 0.54644 0.31291 0.0
C495 C 0.46702 0.46968 0.36257 0.0
H496 H 0.30776 0.49374 0.35414 0.0
C497 C 0.49237 0.49873 0.33791 0.0
C498 C 0.45163 0.52667 0.31921 0.0
H499 H 0.49939 0.44846 0.3765 0.0
H500 H 0.54384 0.49897 0.33329 0.0
C501 C 0.38497 0.52471 0.32592 0.0
C502 C 0.13822 0.01666 0.84631 0.0
C503 C 0.09962 0.04971 0.85997 0.0
H504 H 0.14196 0.95987 0.81434 0.0
C505 C 0.03475 0.05236 0.85009 0.0
H506 H 0.18833 0.01399 0.85389 0.0
C507 C 0.00876 0.02236 0.82668 0.0
C508 C 0.04686 0.98861 0.81333 0.0
H509 H 0.00432 0.07775 0.86041 0.0
H510 H 0.95877 0.02558 0.8191 0.0
C511 C 0.11182 0.98604 0.82347 0.0
C512 C 0.16878 0.10678 1.00548 0.0
C513 C 0.12121 0.0977 0.98077 0.0
H514 H 0.19559 0.1036 0.05794 0.0
C515 C 0.06156 0.07926 0.99143 0.0
H516 H 0.21571 0.12016 0.99835 0.0
C517 C 0.05062 0.06901 0.0256 0.0
C518 C 0.0986 0.07753 0.05006 0.0
H519 H 0.02315 0.0726 0.97339 0.0
H520 H 0.00442 0.05453 0.03291 0.0
C521 C 0.15745 0.09707 0.0397 0.0
C522 C 0.35486 0.38547 0.51313 0.0
C523 C 0.35442 0.42022 0.4891 0.0
H524 H 0.34444 0.36639 0.56547 0.0
C525 C 0.35033 0.46383 0.50107 0.0
H526 H 0.35907 0.35149 0.50499 0.0
C527 C 0.34281 0.47226 0.53565 0.0
C528 C 0.33887 0.4374 0.55938 0.0
H529 H 0.34928 0.49153 0.48359 0.0
H530 H 0.33729 0.50619 0.54371 0.0
C531 C 0.34729 0.39398 0.54788 0.0
C532 C 0.69666 0.36645 0.03859 0.0
C533 C 0.71688 0.40425 0.05669 0.0
H534 H 0.67709 0.33794 0.98977 0.0
C535 C 0.73002 0.44363 0.03871 0.0
H536 H 0.6857 0.33575 0.05182 0.0
C537 C 0.72537 0.4448 1.00337 0.0
C538 C 0.70672 0.40677 0.9852 0.0
H539 H 0.74606 0.47322 0.0519 0.0
H540 H 0.73749 0.47531 0.99014 0.0
C541 C 0.69113 0.3678 1.00318 0.0
C542 C 0.80242 0.14622 0.53584 0.0
C543 C 0.77744 0.10822 0.55224 0.0
H544 H 0.8269 0.1774 0.48844 0.0
C545 C 0.76018 0.07112 0.53269 0.0
H546 H 0.81629 0.17521 0.55036 0.0
C547 C 0.76533 0.07262 0.49732 0.0
C548 C 0.78901 0.11095 0.48086 0.0
H549 H 0.74046 0.04153 0.54467 0.0
H550 H 0.75009 0.04398 0.48275 0.0
C551 C 0.80877 0.14741 0.5005 0.0
C552 C 0.84551 0.89352 0.03127 0.0
C553 C 0.85545 0.92669 0.05588 0.0
H554 H 0.84123 0.87652 0.97892 0.0
C555 C 0.87629 0.96886 0.04438 0.0
H556 H 0.83155 0.86016 0.03847 0.0
C557 C 0.88587 0.97757 1.00984 0.0
C558 C 0.87262 0.94506 0.98516 0.0
H559 H 0.88402 0.99597 0.06177 0.0
H560 H 0.90319 0.01027 1.00269 0.0
C561 C 0.8528 0.90272 0.99661 0.0
C562 C 0.67061 0.61909 0.5273 0.0
C563 C 0.66385 0.58446 0.55109 0.0
H564 H 0.67314 0.63838 0.47526 0.0
C565 C 0.64863 0.54176 0.53894 0.0
H566 H 0.68092 0.65265 0.53533 0.0
C567 C 0.64062 0.53396 0.50429 0.0
C568 C 0.64974 0.56823 0.48041 0.0
H569 H 0.6441 0.51377 0.556 0.0
H570 H 0.62766 0.50074 0.49638 0.0
C571 C 0.66461 0.611 0.49253 0.0
C572 C 0.30353 0.65242 1.00309 0.0
C573 C 0.28137 0.61512 0.98506 0.0
H574 H 0.32112 0.68139 0.05186 0.0
C575 C 0.26037 0.57739 1.00313 0.0
H576 H 0.32014 0.68186 0.98972 0.0
C577 C 0.25995 0.57738 0.0386 0.0
C578 C 0.28174 0.61479 0.05662 0.0
H579 H 0.24271 0.54834 0.98979 0.0
H580 H 0.2427 0.54812 0.05199 0.0
C581 C 0.30431 0.65209 0.03855 0.0
C582 C 0.18674 0.86295 0.50172 0.0
C583 C 0.21413 0.89859 0.4834 0.0
H584 H 0.16409 0.8356 0.55059 0.0
C585 C 0.23799 0.9356 0.50118 0.0
H586 H 0.16759 0.83413 0.48863 0.0
C587 C 0.23644 0.93629 0.53665 0.0
C588 C 0.21013 0.90027 0.55499 0.0
H589 H 0.25965 0.96341 0.48771 0.0
H590 H 0.25611 0.96493 0.54977 0.0
C591 C 0.18438 0.8639 0.53713 0.0
C592 C 0.19092 0.25459 0.36662 0.0
C593 C 0.19054 0.2957 0.34971 0.0
H594 H 0.15787 0.18662 0.36654 0.0
C595 C 0.15355 0.29995 0.32008 0.0
H596 H 0.21895 0.25032 0.38957 0.0
C597 C 0.11846 0.2639 0.30723 0.0
C598 C 0.12005 0.22247 0.32342 0.0
H599 H 0.15196 0.33126 0.30665 0.0
H600 H 0.09002 0.26849 0.28447 0.0
C601 C 0.15576 0.21823 0.35358 0.0
C602 C 0.29273 0.26208 0.85537 0.0
C603 C 0.31464 0.21901 0.84979 0.0
H604 H 0.3098 0.33163 0.84713 0.0
C605 C 0.37258 0.21327 0.83207 0.0
H606 H 0.2478 0.26742 0.86862 0.0
C607 C 0.40855 0.24987 0.8205 0.0
C608 C 0.38633 0.29286 0.82564 0.0
H609 H 0.39024 0.18038 0.82728 0.0
H610 H 0.45286 0.2445 0.80672 0.0
C611 C 0.32801 0.29872 0.84306 0.0
C612 C 0.60861 0.25415 0.68043 0.0
C613 C 0.61545 0.21425 0.69844 0.0
H614 H 0.57663 0.32136 0.68192 0.0
C615 C 0.59552 0.21179 0.73232 0.0
H616 H 0.62352 0.25688 0.65419 0.0
C617 C 0.56982 0.24856 0.74818 0.0
C618 C 0.56228 0.28841 0.73029 0.0
H619 H 0.6004 0.18142 0.74673 0.0
H620 H 0.55525 0.24556 0.77445 0.0
C621 C 0.58172 0.29093 0.69621 0.0
C622 C 0.88146 0.25534 0.18609 0.0
C623 C 0.86806 0.29274 0.20565 0.0
H624 H 0.92112 0.19034 0.18535 0.0
C625 C 0.88296 0.29251 0.24036 0.0
H626 H 0.8706 0.25471 0.15923 0.0
C627 C 0.91082 0.25559 0.25539 0.0
C628 C 0.92536 0.21839 0.23584 0.0
H629 H 0.87304 0.32101 0.25593 0.0
H630 H 0.92232 0.25665 0.28218 0.0
C631 C 0.91044 0.21858 0.20103 0.0
C632 C 0.87532 0.70589 0.71892 0.0
C633 C 0.84033 0.70758 0.68848 0.0
H634 H 0.93185 0.7415 0.75546 0.0
C635 C 0.83612 0.74816 0.67108 0.0
H636 H 0.87965 0.67502 0.73274 0.0
C637 C 0.86545 0.78653 0.68439 0.0
C638 C 0.89913 0.78486 0.71532 0.0
H639 H 0.80943 0.75047 0.64752 0.0
H640 H 0.86042 0.81762 0.67096 0.0
C641 C 0.90471 0.74402 0.73207 0.0
C642 C 0.62093 0.80594 0.21522 0.0
C643 C 0.66385 0.80204 0.18797 0.0
H644 H 0.55448 0.77309 0.24882 0.0
C645 C 0.67071 0.76045 0.17265 0.0
H646 H 0.61444 0.83758 0.22741 0.0
C647 C 0.63652 0.72325 0.18515 0.0
C648 C 0.59522 0.72712 0.21318 0.0
H649 H 0.70351 0.7564 0.1516 0.0
H650 H 0.64412 0.69127 0.1737 0.0
C651 C 0.58676 0.769 0.22754 0.0
C652 C 0.36056 0.74645 0.35344 0.0
C653 C 0.31311 0.76744 0.33398 0.0
H654 H 0.43701 0.69991 0.35433 0.0
C655 C 0.30536 0.75601 0.2998 0.0
H656 H 0.36754 0.75453 0.37993 0.0
C657 C 0.34525 0.7248 0.28503 0.0
C658 C 0.39373 0.7043 0.30422 0.0
H659 H 0.26898 0.77172 0.28432 0.0
H660 H 0.33846 0.71723 0.25843 0.0
C661 C 0.40039 0.7151 0.33872 0.0
C662 C 0.128 0.75902 0.85152 0.0
C663 C 0.17278 0.73638 0.83167 0.0
H664 H 0.05561 0.80852 0.853 0.0
C665 C 0.17906 0.74729 0.79724 0.0
H666 H 0.12218 0.75139 0.8782 0.0
C667 C 0.14083 0.77991 0.7827 0.0
C668 C 0.09553 0.80248 0.80238 0.0
H669 H 0.21331 0.7303 0.78143 0.0
H670 H 0.14667 0.78717 0.75596 0.0
C671 C 0.08988 0.79184 0.83704 0.0
loop_
_geom_bond_atom_site_label_1
_geom_bond_atom_site_label_2
_geom_bond_distance
_geom_bond_site_symmetry_2
_ccdc_geom_bond_type
H0 C5 0.930 . S
H1 C8 0.930 . S
H2 C10 0.930 . S
H3 C4 1.016 . S
C4 H3 1.016 . S
C4 N11 1.286 . S
C5 H0 0.930 . S
C5 C6 1.397 . S
C5 C7 1.361 . S
C6 C5 1.397 . S
C6 C10 1.390 . S
C7 C5 1.361 . S
C7 C8 1.393 . S
C7 N11 1.413 . S
C8 H1 0.930 . S
C8 C7 1.393 . S
C8 C9 1.399 . S
C9 C8 1.399 . S
C9 C10 1.381 . S
C10 H2 0.930 . S
C10 C6 1.390 . S
C10 C9 1.381 . S
N11 C4 1.286 . S
N11 C7 1.413 . S
H12 C17 0.930 . S
H13 C20 0.930 . S
H14 C22 0.930 . S
H15 C16 1.016 . S
C16 H15 1.016 . S
C16 N23 1.286 . S
C17 H12 0.930 . S
C17 C18 1.397 . S
C17 C19 1.361 . S
C18 C17 1.397 . S
C18 C22 1.390 . S
C19 C17 1.361 . S
C19 C20 1.393 . S
C19 N23 1.413 . S
C20 H13 0.930 . S
C20 C19 1.393 . S
C20 C21 1.399 . S
C21 C20 1.399 . S
C21 C22 1.381 . S
C22 H14 0.930 . S
C22 C18 1.390 . S
C22 C21 1.381 . S
N23 C16 1.286 . S
N23 C19 1.413 . S
H24 C29 0.930 . S
H25 C32 0.930 . S
H26 C34 0.930 . S
H27 C28 1.016 . S
C28 H27 1.016 . S
C28 N35 1.286 . S
C29 H24 0.930 . S
C29 C30 1.397 . S
C29 C31 1.361 . S
C30 C29 1.397 . S
C30 C34 1.390 . S
C31 C29 1.361 . S
C31 C32 1.393 . S
C31 N35 1.413 . S
C32 H25 0.930 . S
C32 C31 1.393 . S
C32 C33 1.399 . S
C33 C32 1.399 . S
C33 C34 1.381 . S
C34 H26 0.930 . S
C34 C30 1.390 . S
C34 C33 1.381 . S
N35 C28 1.286 . S
N35 C31 1.413 . S
H36 C41 0.930 . S
H37 C44 0.930 . S
H38 C46 0.930 . S
H39 C40 1.016 . S
C40 H39 1.016 . S
C40 N47 1.286 . S
C41 H36 0.930 . S
C41 C42 1.397 . S
C41 C43 1.361 . S
C42 C41 1.397 . S
C42 C46 1.390 . S
C43 C41 1.361 . S
C43 C44 1.393 . S
C43 N47 1.413 . S
C44 H37 0.930 . S
C44 C43 1.393 . S
C44 C45 1.399 . S
C45 C44 1.399 . S
C45 C46 1.381 . S
C46 H38 0.930 . S
C46 C42 1.390 . S
C46 C45 1.381 . S
N47 C40 1.286 . S
N47 C43 1.413 . S
H48 C53 0.930 . S
H49 C56 0.930 . S
H50 C58 0.930 . S
H51 C52 1.016 . S
C52 H51 1.016 . S
C52 N59 1.286 . S
C53 H48 0.930 . S
C53 C54 1.397 . S
C53 C55 1.361 . S
C54 C53 1.397 . S
C54 C58 1.390 . S
C55 C53 1.361 . S
C55 C56 1.393 . S
C55 N59 1.413 . S
C56 H49 0.930 . S
C56 C55 1.393 . S
C56 C57 1.399 . S
C57 C56 1.399 . S
C57 C58 1.381 . S
C58 H50 0.930 . S
C58 C54 1.390 . S
C58 C57 1.381 . S
N59 C52 1.286 . S
N59 C55 1.413 . S
H60 C65 0.930 . S
H61 C68 0.930 . S
H62 C70 0.930 . S
H63 C64 1.016 . S
C64 H63 1.016 . S
C64 N71 1.286 . S
C65 H60 0.930 . S
C65 C66 1.397 . S
C65 C67 1.361 . S
C66 C65 1.397 . S
C66 C70 1.390 . S
C67 C65 1.361 . S
C67 C68 1.393 . S
C67 N71 1.413 . S
C68 H61 0.930 . S
C68 C67 1.393 . S
C68 C69 1.399 . S
C69 C68 1.399 . S
C69 C70 1.381 . S
C70 H62 0.930 . S
C70 C66 1.390 . S
C70 C69 1.381 . S
N71 C64 1.286 . S
N71 C67 1.413 . S
H72 C77 0.930 . S
H73 C80 0.930 . S
H74 C82 0.930 . S
H75 C76 1.016 . S
C76 H75 1.016 . S
C76 N83 1.286 . S
C77 H72 0.930 . S
C77 C78 1.397 . S
C77 C79 1.361 . S
C78 C77 1.397 . S
C78 C82 1.390 . S
C79 C77 1.361 . S
C79 C80 1.393 . S
C79 N83 1.413 . S
C80 H73 0.930 . S
C80 C79 1.393 . S
C80 C81 1.399 . S
C81 C80 1.399 . S
C81 C82 1.381 . S
C82 H74 0.930 . S
C82 C78 1.390 . S
C82 C81 1.381 . S
N83 C76 1.286 . S
N83 C79 1.413 . S
H84 C89 0.930 . S
H85 C92 0.930 . S
H86 C94 0.930 . S
H87 C88 1.016 . S
C88 H87 1.016 . S
C88 N95 1.286 . S
C89 H84 0.930 . S
C89 C90 1.397 . S
C89 C91 1.361 . S
C90 C89 1.397 . S
C90 C94 1.390 . S
C91 C89 1.361 . S
C91 C92 1.393 . S
C91 N95 1.413 . S
C92 H85 0.930 . S
C92 C91 1.393 . S
C92 C93 1.399 . S
C93 C92 1.399 . S
C93 C94 1.381 . S
C94 H86 0.930 . S
C94 C90 1.390 . S
C94 C93 1.381 . S
N95 C88 1.286 . S
N95 C91 1.413 . S
C96 C98 1.422 . S
C96 C100 1.415 . S
C96 N102 1.369 . S
C97 C98 1.421 1_565 S
C97 C99 1.417 . S
C97 C109 1.422 . S
C98 C96 1.422 . S
C98 C97 1.421 1_545 S
C98 N108 1.359 . S
C99 C97 1.417 . S
C99 C101 1.329 1_565 S
C99 H118 0.930 . S
C100 C96 1.415 . S
C100 C101 1.437 . S
C100 C104 1.413 . S
C101 C99 1.329 1_545 S
C101 C100 1.437 . S
C101 H123 0.929 . S
N102 C96 1.369 . S
N102 C103 1.338 . S
N102 Gd107 2.622 . S
C103 N102 1.338 . S
C103 C105 1.378 . S
C103 H115 0.929 . S
C104 C100 1.413 . S
C104 C105 1.348 . S
C104 H120 0.931 . S
C105 C103 1.378 . S
C105 C104 1.348 . S
C105 H121 0.930 . S
Gd106 N126 2.622 . S
Gd106 N133 2.570 . S
Gd106 O140 2.353 1_455 S
Gd106 O141 2.468 . S
Gd106 O142 2.427 . S
Gd106 O144 2.388 . S
Gd106 O145 2.386 . S
Gd106 O149 2.307 1_455 S
Gd106 C159 2.805 . S
Gd107 N102 2.622 . S
Gd107 N108 2.570 . S
Gd107 O139 2.386 . S
Gd107 O143 2.307 1_655 S
Gd107 O146 2.353 1_655 S
Gd107 O147 2.468 . S
Gd107 O148 2.427 . S
Gd107 O150 2.388 . S
Gd107 C171 2.805 . S
N108 C98 1.359 . S
N108 Gd107 2.570 . S
N108 C110 1.343 1_545 S
C109 C97 1.422 . S
C109 C111 1.321 . S
C109 H117 0.931 . S
C110 N108 1.343 1_565 S
C110 C111 1.390 . S
C110 H112 0.931 . S
C111 C109 1.321 . S
C111 C110 1.390 . S
C111 H113 0.930 . S
H112 C110 0.931 . S
H113 C111 0.930 . S
H114 C137 0.931 . S
H115 C103 0.929 . S
H116 C138 0.930 . S
H117 C109 0.931 . S
H118 C99 0.930 . S
H119 C128 0.929 . S
H120 C104 0.931 . S
H121 C105 0.930 . S
H122 C160 0.930 . S
H123 C101 0.929 . S
H124 C129 0.931 . S
H125 C130 0.930 . S
N126 Gd106 2.622 . S
N126 C127 1.369 . S
N126 C128 1.338 . S
C127 N126 1.369 . S
C127 C131 1.415 . S
C127 C134 1.422 . S
C128 H119 0.929 . S
C128 N126 1.338 . S
C128 C130 1.378 . S
C129 H124 0.931 . S
C129 C130 1.348 . S
C129 C131 1.413 . S
C130 H125 0.930 . S
C130 C128 1.378 . S
C130 C129 1.348 . S
C131 C127 1.415 . S
C131 C129 1.413 . S
C131 C161 1.437 . S
H132 C161 0.929 . S
N133 Gd106 2.570 . S
N133 C134 1.359 . S
N133 C137 1.343 . S
C134 C127 1.422 . S
C134 N133 1.359 . S
C134 C136 1.421 . S
C135 C136 1.422 . S
C135 C138 1.321 . S
C135 H162 0.931 . S
C136 C134 1.421 . S
C136 C135 1.422 . S
C136 C160 1.417 . S
C137 H114 0.931 . S
C137 N133 1.343 . S
C137 C138 1.390 . S
C138 H116 0.930 . S
C138 C135 1.321 . S
C138 C137 1.390 . S
O139 Gd107 2.386 . S
O139 C151 1.265 . S
O140 Gd106 2.353 1_655 S
O140 C151 1.242 . S
O141 Gd106 2.468 . S
O141 C159 1.263 . S
O142 Gd106 2.427 . S
O142 C159 1.252 . S
O143 Gd107 2.307 1_455 S
O143 C152 1.261 . S
O144 Gd106 2.388 . S
O144 C152 1.252 . S
O145 Gd106 2.386 . S
O145 C163 1.265 . S
O146 Gd107 2.353 1_455 S
O146 C163 1.242 . S
O147 Gd107 2.468 . S
O147 C171 1.263 . S
O148 Gd107 2.427 . S
O148 C171 1.252 . S
O149 Gd106 2.307 1_655 S
O149 C164 1.261 . S
O150 Gd107 2.388 . S
O150 C164 1.252 . S
C151 O139 1.265 . S
C151 O140 1.242 . S
C152 O143 1.261 . S
C152 O144 1.252 . S
C153 C156 1.394 . S
C153 C158 1.370 . S
C153 C159 1.500 . S
C154 C157 1.383 . S
C154 C158 1.395 . S
C155 C156 1.396 . S
C155 C157 1.365 . S
C155 H172 0.931 1_545 S
C156 C153 1.394 . S
C156 C155 1.396 . S
C156 H173 0.930 . S
C157 C154 1.383 . S
C157 C155 1.365 . S
C157 H174 0.931 . S
C158 C153 1.370 . S
C158 C154 1.395 . S
C158 H175 0.930 . S
C159 Gd106 2.805 . S
C159 O141 1.263 . S
C159 O142 1.252 . S
C159 C153 1.500 . S
C160 H122 0.930 . S
C160 C136 1.417 . S
C160 C161 1.329 . S
C161 C131 1.437 . S
C161 H132 0.929 . S
C161 C160 1.329 . S
H162 C135 0.931 . S
C163 O145 1.265 . S
C163 O146 1.242 . S
C164 O149 1.261 . S
C164 O150 1.252 . S
C165 C168 1.394 . S
C165 C170 1.370 . S
C165 C171 1.500 . S
C166 C169 1.383 . S
C166 C170 1.395 . S
C167 C168 1.396 . S
C167 C169 1.365 . S
C167 H176 0.929 . S
C168 C165 1.394 . S
C168 C167 1.396 . S
C168 H177 0.930 . S
C169 C166 1.383 . S
C169 C167 1.365 . S
C169 H178 0.931 . S
C170 C165 1.370 . S
C170 C166 1.395 . S
C170 H179 0.930 . S
C171 Gd107 2.805 . S
C171 O147 1.263 . S
C171 O148 1.252 . S
C171 C165 1.500 . S
H172 C155 0.931 1_565 S
H173 C156 0.930 . S
H174 C157 0.931 . S
H175 C158 0.930 . S
H176 C167 0.929 . S
H177 C168 0.930 . S
H178 C169 0.931 . S
H179 C170 0.930 . S
C180 C182 1.422 . S
C180 C184 1.415 . S
C180 N186 1.369 . S
C181 C182 1.421 . S
C181 C183 1.417 . S
C181 C193 1.422 . S
C182 C180 1.422 . S
C182 C181 1.421 . S
C182 N192 1.359 . S
C183 C181 1.417 . S
C183 C185 1.329 . S
C183 H202 0.930 . S
C184 C180 1.415 . S
C184 C185 1.437 . S
C184 C188 1.413 . S
C185 C183 1.329 . S
C185 C184 1.437 . S
C185 H207 0.929 . S
N186 C180 1.369 . S
N186 C187 1.338 . S
N186 Gd191 2.622 . S
C187 N186 1.338 . S
C187 C189 1.378 . S
C187 H199 0.929 . S
C188 C184 1.413 . S
C188 C189 1.348 . S
C188 H204 0.931 . S
C189 C187 1.378 . S
C189 C188 1.348 . S
C189 H205 0.930 . S
Gd190 N210 2.622 . S
Gd190 N217 2.570 . S
Gd190 O224 2.353 . S
Gd190 O225 2.468 . S
Gd190 O226 2.427 . S
Gd190 O228 2.388 . S
Gd190 O229 2.386 . S
Gd190 O233 2.307 . S
Gd190 C243 2.805 . S
Gd191 N186 2.622 . S
Gd191 N192 2.570 . S
Gd191 O223 2.386 . S
Gd191 O227 2.307 . S
Gd191 O230 2.353 . S
Gd191 O231 2.468 . S
Gd191 O232 2.427 . S
Gd191 O234 2.388 . S
Gd191 C255 2.805 . S
N192 C182 1.359 . S
N192 Gd191 2.570 . S
N192 C194 1.343 . S
C193 C181 1.422 . S
C193 C195 1.321 . S
C193 H201 0.931 . S
C194 N192 1.343 . S
C194 C195 1.390 . S
C194 H196 0.931 . S
C195 C193 1.321 . S
C195 C194 1.390 . S
C195 H197 0.930 . S
H196 C194 0.931 . S
H197 C195 0.930 . S
H198 C221 0.931 . S
H199 C187 0.929 . S
H200 C222 0.930 . S
H201 C193 0.931 . S
H202 C183 0.930 . S
H203 C212 0.929 . S
H204 C188 0.931 . S
H205 C189 0.930 . S
H206 C244 0.930 . S
H207 C185 0.929 . S
H208 C213 0.931 . S
H209 C214 0.930 . S
N210 Gd190 2.622 . S
N210 C211 1.369 . S
N210 C212 1.338 . S
C211 N210 1.369 . S
C211 C215 1.415 . S
C211 C218 1.422 . S
C212 H203 0.929 . S
C212 N210 1.338 . S
C212 C214 1.378 . S
C213 H208 0.931 . S
C213 C214 1.348 . S
C213 C215 1.413 . S
C214 H209 0.930 . S
C214 C212 1.378 . S
C214 C213 1.348 . S
C215 C211 1.415 . S
C215 C213 1.413 . S
C215 C245 1.437 . S
H216 C245 0.929 . S
N217 Gd190 2.570 . S
N217 C218 1.359 . S
N217 C221 1.343 . S
C218 C211 1.422 . S
C218 N217 1.359 . S
C218 C220 1.421 . S
C219 C220 1.422 . S
C219 C222 1.321 . S
C219 H246 0.931 . S
C220 C218 1.421 . S
C220 C219 1.422 . S
C220 C244 1.417 . S
C221 H198 0.931 . S
C221 N217 1.343 . S
C221 C222 1.390 . S
C222 H200 0.930 . S
C222 C219 1.321 . S
C222 C221 1.390 . S
O223 Gd191 2.386 . S
O223 C235 1.265 . S
O224 Gd190 2.353 . S
O224 C235 1.242 . S
O225 Gd190 2.468 . S
O225 C243 1.263 . S
O226 Gd190 2.427 . S
O226 C243 1.252 . S
O227 Gd191 2.307 . S
O227 C236 1.261 . S
O228 Gd190 2.388 . S
O228 C236 1.252 . S
O229 Gd190 2.386 . S
O229 C247 1.265 . S
O230 Gd191 2.353 . S
O230 C247 1.242 . S
O231 Gd191 2.468 . S
O231 C255 1.263 . S
O232 Gd191 2.427 . S
O232 C255 1.252 . S
O233 Gd190 2.307 . S
O233 C248 1.261 . S
O234 Gd191 2.388 . S
O234 C248 1.252 . S
C235 O223 1.265 . S
C235 O224 1.242 . S
C236 O227 1.261 . S
C236 O228 1.252 . S
C237 C240 1.394 . S
C237 C242 1.370 . S
C237 C243 1.500 . S
C238 C241 1.383 . S
C238 C242 1.395 . S
C239 C240 1.396 . S
C239 C241 1.365 . S
C239 H256 0.929 . S
C240 C237 1.394 . S
C240 C239 1.396 . S
C240 H257 0.930 . S
C241 C238 1.383 . S
C241 C239 1.365 . S
C241 H258 0.931 . S
C242 C237 1.370 . S
C242 C238 1.395 . S
C242 H259 0.930 . S
C243 Gd190 2.805 . S
C243 O225 1.263 . S
C243 O226 1.252 . S
C243 C237 1.500 . S
C244 H206 0.930 . S
C244 C220 1.417 . S
C244 C245 1.329 . S
C245 C215 1.437 . S
C245 H216 0.929 . S
C245 C244 1.329 . S
H246 C219 0.931 . S
C247 O229 1.265 . S
C247 O230 1.242 . S
C248 O233 1.261 . S
C248 O234 1.252 . S
C249 C252 1.394 . S
C249 C254 1.370 . S
C249 C255 1.500 . S
C250 C253 1.383 . S
C250 C254 1.395 . S
C251 C252 1.396 . S
C251 C253 1.365 . S
C251 H260 0.929 . S
C252 C249 1.394 . S
C252 C251 1.396 . S
C252 H261 0.930 . S
C253 C250 1.383 . S
C253 C251 1.365 . S
C253 H262 0.931 . S
C254 C249 1.370 . S
C254 C250 1.395 . S
C254 H263 0.930 . S
C255 Gd191 2.805 . S
C255 O231 1.263 . S
C255 O232 1.252 . S
C255 C249 1.500 . S
H256 C239 0.929 . S
H257 C240 0.930 . S
H258 C241 0.931 . S
H259 C242 0.930 . S
H260 C251 0.929 . S
H261 C252 0.930 . S
H262 C253 0.931 . S
H263 C254 0.930 . S
C264 C266 1.422 . S
C264 C268 1.415 . S
C264 N270 1.369 . S
C265 C266 1.421 . S
C265 C267 1.417 . S
C265 C277 1.422 . S
C266 C264 1.422 . S
C266 C265 1.421 . S
C266 N276 1.359 . S
C267 C265 1.417 . S
C267 C269 1.329 . S
C267 H286 0.930 . S
C268 C264 1.415 . S
C268 C269 1.437 . S
C268 C272 1.413 . S
C269 C267 1.329 . S
C269 C268 1.437 . S
C269 H291 0.929 . S
N270 C264 1.369 . S
N270 C271 1.338 . S
N270 Gd275 2.622 . S
C271 N270 1.338 . S
C271 C273 1.378 . S
C271 H283 0.929 . S
C272 C268 1.413 . S
C272 C273 1.348 . S
C272 H288 0.931 . S
C273 C271 1.378 . S
C273 C272 1.348 . S
C273 H289 0.930 . S
Gd274 N294 2.622 . S
Gd274 N301 2.570 . S
Gd274 O308 2.354 1_455 S
Gd274 O309 2.468 . S
Gd274 O310 2.427 . S
Gd274 O312 2.388 . S
Gd274 O313 2.386 . S
Gd274 O317 2.297 1_455 S
Gd274 C327 2.805 . S
Gd275 N270 2.622 . S
Gd275 N276 2.570 . S
Gd275 O307 2.386 . S
Gd275 O311 2.307 1_655 S
Gd275 O314 2.353 1_655 S
Gd275 O315 2.468 . S
Gd275 O316 2.427 . S
Gd275 O318 2.388 . S
Gd275 C339 2.805 . S
N276 C266 1.359 . S
N276 Gd275 2.570 . S
N276 C278 1.343 . S
C277 C265 1.422 . S
C277 C279 1.321 . S
C277 H285 0.931 . S
C278 N276 1.343 . S
C278 C279 1.390 . S
C278 H280 0.931 . S
C279 C277 1.321 . S
C279 C278 1.390 . S
C279 H281 0.930 . S
H280 C278 0.931 . S
H281 C279 0.930 . S
H282 C305 0.931 . S
H283 C271 0.929 . S
H284 C306 0.930 . S
H285 C277 0.931 . S
H286 C267 0.930 . S
H287 C296 0.929 . S
H288 C272 0.931 . S
H289 C273 0.930 . S
H290 C328 0.930 . S
H291 C269 0.929 . S
H292 C297 0.931 . S
H293 C298 0.930 . S
N294 Gd274 2.622 . S
N294 C295 1.369 . S
N294 C296 1.338 . S
C295 N294 1.369 . S
C295 C299 1.415 . S
C295 C302 1.422 . S
C296 H287 0.929 . S
C296 N294 1.338 . S
C296 C298 1.378 . S
C297 H292 0.931 . S
C297 C298 1.348 . S
C297 C299 1.413 . S
C298 H293 0.930 . S
C298 C296 1.378 . S
C298 C297 1.348 . S
C299 C295 1.415 . S
C299 C297 1.413 . S
C299 C329 1.437 . S
H300 C329 0.929 . S
N301 Gd274 2.570 . S
N301 C302 1.359 . S
N301 C305 1.343 1_565 S
C302 C295 1.422 . S
C302 N301 1.359 . S
C302 C304 1.421 1_565 S
C303 C304 1.422 . S
C303 C306 1.321 . S
C303 H330 0.931 . S
C304 C302 1.421 1_545 S
C304 C303 1.422 . S
C304 C328 1.417 . S
C305 H282 0.931 . S
C305 N301 1.343 1_545 S
C305 C306 1.390 . S
C306 H284 0.930 . S
C306 C303 1.321 . S
C306 C305 1.390 . S
O307 Gd275 2.386 . S
O307 C319 1.265 . S
O308 Gd274 2.354 1_655 S
O308 C319 1.241 . S
O309 Gd274 2.468 . S
O309 C327 1.263 . S
O310 Gd274 2.427 . S
O310 C327 1.252 . S
O311 Gd275 2.307 1_455 S
O311 C320 1.261 . S
O312 Gd274 2.388 . S
O312 C320 1.252 . S
O313 Gd274 2.386 . S
O313 C331 1.265 . S
O314 Gd275 2.353 1_455 S
O314 C331 1.242 . S
O315 Gd275 2.468 . S
O315 C339 1.263 . S
O316 Gd275 2.427 . S
O316 C339 1.252 . S
O317 Gd274 2.297 1_655 S
O317 C332 1.273 . S
O318 Gd275 2.388 . S
O318 C332 1.252 . S
C319 O307 1.265 . S
C319 O308 1.241 . S
C320 O311 1.261 . S
C320 O312 1.252 . S
C321 C324 1.394 . S
C321 C326 1.370 . S
C321 C327 1.500 . S
C322 C325 1.383 . S
C322 C326 1.395 . S
C323 C324 1.396 . S
C323 C325 1.365 . S
C323 H340 0.929 . S
C324 C321 1.394 . S
C324 C323 1.396 . S
C324 H341 0.930 . S
C325 C322 1.383 . S
C325 C323 1.365 . S
C325 H342 0.931 . S
C326 C321 1.370 . S
C326 C322 1.395 . S
C326 H343 0.930 . S
C327 Gd274 2.805 . S
C327 O309 1.263 . S
C327 O310 1.252 . S
C327 C321 1.500 . S
C328 H290 0.930 . S
C328 C304 1.417 . S
C328 C329 1.329 1_545 S
C329 C299 1.437 . S
C329 H300 0.929 . S
C329 C328 1.329 1_565 S
H330 C303 0.931 . S
C331 O313 1.265 . S
C331 O314 1.242 . S
C332 O317 1.273 . S
C332 O318 1.252 . S
C333 C336 1.394 . S
C333 C338 1.370 . S
C333 C339 1.500 . S
C334 C337 1.383 . S
C334 C338 1.395 . S
C335 C336 1.396 . S
C335 C337 1.365 . S
C335 H344 0.931 1_565 S
C336 C333 1.394 . S
C336 C335 1.396 . S
C336 H345 0.930 . S
C337 C334 1.383 . S
C337 C335 1.365 . S
C337 H346 0.931 . S
C338 C333 1.370 . S
C338 C334 1.395 . S
C338 H347 0.930 . S
C339 Gd275 2.805 . S
C339 O315 1.263 . S
C339 O316 1.252 . S
C339 C333 1.500 . S
H340 C323 0.929 . S
H341 C324 0.930 . S
H342 C325 0.931 . S
H343 C326 0.930 . S
H344 C335 0.931 1_545 S
H345 C336 0.930 . S
H346 C337 0.931 . S
H347 C338 0.930 . S
C348 C350 1.422 . S
C348 C352 1.415 . S
C348 N354 1.369 . S
C349 C350 1.421 . S
C349 C351 1.417 . S
C349 C361 1.422 . S
C350 C348 1.422 . S
C350 C349 1.421 . S
C350 N360 1.359 . S
C351 C349 1.417 . S
C351 C353 1.329 . S
C351 H370 0.930 . S
C352 C348 1.415 . S
C352 C353 1.437 . S
C352 C356 1.413 . S
C353 C351 1.329 . S
C353 C352 1.437 . S
C353 H375 0.929 . S
N354 C348 1.369 . S
N354 C355 1.338 . S
N354 Gd359 2.622 . S
C355 N354 1.338 . S
C355 C357 1.378 . S
C355 H367 0.929 . S
C356 C352 1.413 . S
C356 C357 1.348 . S
C356 H372 0.931 . S
C357 C355 1.378 . S
C357 C356 1.348 . S
C357 H373 0.930 . S
Gd358 N378 2.622 . S
Gd358 N385 2.570 . S
Gd358 O392 2.353 . S
Gd358 O393 2.468 . S
Gd358 O394 2.427 . S
Gd358 O396 2.388 . S
Gd358 O397 2.386 . S
Gd358 O401 2.307 . S
Gd358 C411 2.805 . S
Gd359 N354 2.622 . S
Gd359 N360 2.570 . S
Gd359 O391 2.386 . S
Gd359 O395 2.307 . S
Gd359 O398 2.353 . S
Gd359 O399 2.468 . S
Gd359 O400 2.427 . S
Gd359 O402 2.388 . S
Gd359 C423 2.805 . S
N360 C350 1.359 . S
N360 Gd359 2.570 . S
N360 C362 1.343 . S
C361 C349 1.422 . S
C361 C363 1.321 . S
C361 H369 0.931 . S
C362 N360 1.343 . S
C362 C363 1.390 . S
C362 H364 0.931 . S
C363 C361 1.321 . S
C363 C362 1.390 . S
C363 H365 0.930 . S
H364 C362 0.931 . S
H365 C363 0.930 . S
H366 C389 0.931 . S
H367 C355 0.929 . S
H368 C390 0.930 . S
H369 C361 0.931 . S
H370 C351 0.930 . S
H371 C380 0.929 . S
H372 C356 0.931 . S
H373 C357 0.930 . S
H374 C412 0.930 . S
H375 C353 0.929 . S
H376 C381 0.931 . S
H377 C382 0.930 . S
N378 Gd358 2.622 . S
N378 C379 1.369 . S
N378 C380 1.338 . S
C379 N378 1.369 . S
C379 C383 1.415 . S
C379 C386 1.422 . S
C380 H371 0.929 . S
C380 N378 1.338 . S
C380 C382 1.378 . S
C381 H376 0.931 . S
C381 C382 1.348 . S
C381 C383 1.413 . S
C382 H377 0.930 . S
C382 C380 1.378 . S
C382 C381 1.348 . S
C383 C379 1.415 . S
C383 C381 1.413 . S
C383 C413 1.437 . S
H384 C413 0.929 . S
N385 Gd358 2.570 . S
N385 C386 1.359 . S
N385 C389 1.343 . S
C386 C379 1.422 . S
C386 N385 1.359 . S
C386 C388 1.421 . S
C387 C388 1.422 . S
C387 C390 1.321 . S
C387 H414 0.931 . S
C388 C386 1.421 . S
C388 C387 1.422 . S
C388 C412 1.417 . S
C389 H366 0.931 . S
C389 N385 1.343 . S
C389 C390 1.390 . S
C390 H368 0.930 . S
C390 C387 1.321 . S
C390 C389 1.390 . S
O391 Gd359 2.386 . S
O391 C403 1.265 . S
O392 Gd358 2.353 . S
O392 C403 1.242 . S
O393 Gd358 2.468 . S
O393 C411 1.263 . S
O394 Gd358 2.427 . S
O394 C411 1.252 . S
O395 Gd359 2.307 . S
O395 C404 1.261 . S
O396 Gd358 2.388 . S
O396 C404 1.252 . S
O397 Gd358 2.386 . S
O397 C415 1.265 . S
O398 Gd359 2.353 . S
O398 C415 1.242 . S
O399 Gd359 2.468 . S
O399 C423 1.263 . S
O400 Gd359 2.427 . S
O400 C423 1.252 . S
O401 Gd358 2.307 . S
O401 C416 1.261 . S
O402 Gd359 2.388 . S
O402 C416 1.252 . S
C403 O391 1.265 . S
C403 O392 1.242 . S
C404 O395 1.261 . S
C404 O396 1.252 . S
C405 C408 1.394 . S
C405 C410 1.370 . S
C405 C411 1.500 . S
C406 C409 1.383 . S
C406 C410 1.395 . S
C407 C408 1.396 . S
C407 C409 1.365 . S
C407 H424 0.929 . S
C408 C405 1.394 . S
C408 C407 1.396 . S
C408 H425 0.930 . S
C409 C406 1.383 . S
C409 C407 1.365 . S
C409 H426 0.931 . S
C410 C405 1.370 . S
C410 C406 1.395 . S
C410 H427 0.930 . S
C411 Gd358 2.805 . S
C411 O393 1.263 . S
C411 O394 1.252 . S
C411 C405 1.500 . S
C412 H374 0.930 . S
C412 C388 1.417 . S
C412 C413 1.329 . S
C413 C383 1.437 . S
C413 H384 0.929 . S
C413 C412 1.329 . S
H414 C387 0.931 . S
C415 O397 1.265 . S
C415 O398 1.242 . S
C416 O401 1.261 . S
C416 O402 1.252 . S
C417 C420 1.394 . S
C417 C422 1.370 . S
C417 C423 1.500 . S
C418 C421 1.383 . S
C418 C422 1.395 . S
C419 C420 1.396 . S
C419 C421 1.365 . S
C419 H428 0.929 . S
C420 C417 1.394 . S
C420 C419 1.396 . S
C420 H429 0.930 . S
C421 C418 1.383 . S
C421 C419 1.365 . S
C421 H430 0.931 . S
C422 C417 1.370 . S
C422 C418 1.395 . S
C422 H431 0.930 . S
C423 Gd359 2.805 . S
C423 O399 1.263 . S
C423 O400 1.252 . S
C423 C417 1.500 . S
H424 C407 0.929 . S
H425 C408 0.930 . S
H426 C409 0.931 . S
H427 C410 0.930 . S
H428 C419 0.929 . S
H429 C420 0.930 . S
H430 C421 0.931 . S
H431 C422 0.930 . S
C432 C433 1.387 . S
C432 H436 0.950 . S
C432 C441 1.390 . S
C433 C432 1.387 . S
C433 C435 1.387 . S
H434 C441 0.950 . S
C435 C433 1.387 . S
C435 C437 1.390 1_565 S
C435 H439 0.950 . S
H436 C432 0.950 . S
C437 C435 1.390 1_545 S
C437 C438 1.387 1_545 S
C437 H440 0.950 . S
C438 C437 1.387 1_565 S
C438 C441 1.387 . S
H439 C435 0.950 . S
H440 C437 0.950 . S
C441 C432 1.390 . S
C441 H434 0.950 . S
C441 C438 1.387 . S
C442 C443 1.387 . S
C442 H446 0.950 . S
C442 C451 1.390 . S
C443 C442 1.387 . S
C443 C445 1.387 . S
H444 C451 0.950 . S
C445 C443 1.387 . S
C445 C447 1.390 . S
C445 H449 0.950 . S
H446 C442 0.950 . S
C447 C445 1.390 . S
C447 C448 1.387 . S
C447 H450 0.950 . S
C448 C447 1.387 . S
C448 C451 1.387 . S
H449 C445 0.950 . S
H450 C447 0.950 . S
C451 C442 1.390 . S
C451 H444 0.950 . S
C451 C448 1.387 . S
C452 C453 1.387 . S
C452 H456 0.950 . S
C452 C461 1.390 . S
C453 C452 1.387 . S
C453 C455 1.387 . S
H454 C461 0.950 . S
C455 C453 1.387 . S
C455 C457 1.390 . S
C455 H459 0.950 . S
H456 C452 0.950 . S
C457 C455 1.390 . S
C457 C458 1.387 . S
C457 H460 0.950 . S
C458 C457 1.387 . S
C458 C461 1.387 . S
H459 C455 0.950 . S
H460 C457 0.950 . S
C461 C452 1.390 . S
C461 H454 0.950 . S
C461 C458 1.387 . S
C462 C463 1.387 . S
C462 H466 0.950 . S
C462 C471 1.390 1_565 S
C463 C462 1.387 . S
C463 C465 1.387 . S
H464 C471 0.950 . S
C465 C463 1.387 . S
C465 C467 1.390 . S
C465 H469 0.950 . S
H466 C462 0.950 . S
C467 C465 1.390 . S
C467 C468 1.387 . S
C467 H470 0.950 . S
C468 C467 1.387 . S
C468 C471 1.387 1_565 S
H469 C465 0.950 . S
H470 C467 0.950 . S
C471 C462 1.390 1_545 S
C471 H464 0.950 . S
C471 C468 1.387 1_545 S
C472 C473 1.387 . S
C472 H476 0.950 . S
C472 C481 1.390 1_545 S
C473 C472 1.387 . S
C473 C475 1.387 . S
H474 C481 0.950 . S
C475 C473 1.387 . S
C475 C477 1.390 . S
C475 H479 0.950 . S
H476 C472 0.950 . S
C477 C475 1.390 . S
C477 C478 1.387 . S
C477 H480 0.950 . S
C478 C477 1.387 . S
C478 C481 1.387 1_545 S
H479 C475 0.950 . S
H480 C477 0.950 . S
C481 C472 1.390 1_565 S
C481 H474 0.950 . S
C481 C478 1.387 1_565 S
C482 C483 1.387 . S
C482 H486 0.950 . S
C482 C491 1.390 . S
C483 C482 1.387 . S
C483 C485 1.387 . S
H484 C491 0.950 . S
C485 C483 1.387 . S
C485 C487 1.390 . S
C485 H489 0.950 . S
H486 C482 0.950 . S
C487 C485 1.390 . S
C487 C488 1.387 . S
C487 H490 0.950 . S
C488 C487 1.387 . S
C488 C491 1.387 . S
H489 C485 0.950 . S
H490 C487 0.950 . S
C491 C482 1.390 . S
C491 H484 0.950 . S
C491 C488 1.387 . S
C492 C493 1.387 . S
C492 H496 0.950 . S
C492 C501 1.390 . S
C493 C492 1.387 . S
C493 C495 1.387 . S
H494 C501 0.950 . S
C495 C493 1.387 . S
C495 C497 1.390 . S
C495 H499 0.950 . S
H496 C492 0.950 . S
C497 C495 1.390 . S
C497 C498 1.387 . S
C497 H500 0.950 . S
C498 C497 1.387 . S
C498 C501 1.387 . S
H499 C495 0.950 . S
H500 C497 0.950 . S
C501 C492 1.390 . S
C501 H494 0.950 . S
C501 C498 1.387 . S
C502 C503 1.387 . S
C502 H506 0.950 . S
C502 C511 1.390 . S
C503 C502 1.387 . S
C503 C505 1.387 . S
H504 C511 0.950 . S
C505 C503 1.387 . S
C505 C507 1.390 . S
C505 H509 0.950 . S
H506 C502 0.950 . S
C507 C505 1.390 . S
C507 C508 1.387 . S
C507 H510 0.950 1_545 S
C508 C507 1.387 . S
C508 C511 1.387 . S
H509 C505 0.950 . S
H510 C507 0.950 1_565 S
C511 C502 1.390 . S
C511 H504 0.950 . S
C511 C508 1.387 . S
C512 C513 1.387 . S
C512 H516 0.950 . S
C512 C521 1.390 1_556 S
C513 C512 1.387 . S
C513 C515 1.387 . S
H514 C521 0.950 . S
C515 C513 1.387 . S
C515 C517 1.390 1_556 S
C515 H519 0.950 . S
H516 C512 0.950 . S
C517 C515 1.390 1_554 S
C517 C518 1.387 . S
C517 H520 0.950 . S
C518 C517 1.387 . S
C518 C521 1.387 . S
H519 C515 0.950 . S
H520 C517 0.950 . S
C521 C512 1.390 1_554 S
C521 H514 0.950 . S
C521 C518 1.387 . S
C522 C523 1.387 . S
C522 H526 0.950 . S
C522 C531 1.390 . S
C523 C522 1.387 . S
C523 C525 1.387 . S
H524 C531 0.950 . S
C525 C523 1.387 . S
C525 C527 1.390 . S
C525 H529 0.950 . S
H526 C522 0.950 . S
C527 C525 1.390 . S
C527 C528 1.387 . S
C527 H530 0.950 . S
C528 C527 1.387 . S
C528 C531 1.387 . S
H529 C525 0.950 . S
H530 C527 0.950 . S
C531 C522 1.390 . S
C531 H524 0.950 . S
C531 C528 1.387 . S
C532 C533 1.387 . S
C532 H536 0.950 . S
C532 C541 1.390 1_554 S
C533 C532 1.387 . S
C533 C535 1.387 . S
H534 C541 0.950 . S
C535 C533 1.387 . S
C535 C537 1.390 1_554 S
C535 H539 0.950 . S
H536 C532 0.950 . S
C537 C535 1.390 1_556 S
C537 C538 1.387 . S
C537 H540 0.950 . S
C538 C537 1.387 . S
C538 C541 1.387 . S
H539 C535 0.950 . S
H540 C537 0.950 . S
C541 C532 1.390 1_556 S
C541 H534 0.950 . S
C541 C538 1.387 . S
C542 C543 1.387 . S
C542 H546 0.950 . S
C542 C551 1.390 . S
C543 C542 1.387 . S
C543 C545 1.387 . S
H544 C551 0.950 . S
C545 C543 1.387 . S
C545 C547 1.390 . S
C545 H549 0.950 . S
H546 C542 0.950 . S
C547 C545 1.390 . S
C547 C548 1.387 . S
C547 H550 0.950 . S
C548 C547 1.387 . S
C548 C551 1.387 . S
H549 C545 0.950 . S
H550 C547 0.950 . S
C551 C542 1.390 . S
C551 H544 0.950 . S
C551 C548 1.387 . S
C552 C553 1.387 . S
C552 H556 0.950 . S
C552 C561 1.390 1_554 S
C553 C552 1.387 . S
C553 C555 1.387 . S
H554 C561 0.950 . S
C555 C553 1.387 . S
C555 C557 1.390 1_554 S
C555 H559 0.950 . S
H556 C552 0.950 . S
C557 C555 1.390 1_556 S
C557 C558 1.387 . S
C557 H560 0.950 . S
C558 C557 1.387 . S
C558 C561 1.387 . S
H559 C555 0.950 . S
H560 C557 0.950 . S
C561 C552 1.390 1_556 S
C561 H554 0.950 . S
C561 C558 1.387 . S
C562 C563 1.387 . S
C562 H566 0.950 . S
C562 C571 1.390 . S
C563 C562 1.387 . S
C563 C565 1.387 . S
H564 C571 0.950 . S
C565 C563 1.387 . S
C565 C567 1.390 . S
C565 H569 0.950 . S
H566 C562 0.950 . S
C567 C565 1.390 . S
C567 C568 1.387 . S
C567 H570 0.950 . S
C568 C567 1.387 . S
C568 C571 1.387 . S
H569 C565 0.950 . S
H570 C567 0.950 . S
C571 C562 1.390 . S
C571 H564 0.950 . S
C571 C568 1.387 . S
C572 C573 1.387 . S
C572 H576 0.950 . S
C572 C581 1.390 1_556 S
C573 C572 1.387 . S
C573 C575 1.387 . S
H574 C581 0.950 . S
C575 C573 1.387 . S
C575 C577 1.390 1_556 S
C575 H579 0.950 . S
H576 C572 0.950 . S
C577 C575 1.390 1_554 S
C577 C578 1.387 . S
C577 H580 0.950 . S
C578 C577 1.387 . S
C578 C581 1.387 . S
H579 C575 0.950 . S
H580 C577 0.950 . S
C581 C572 1.390 1_554 S
C581 H574 0.950 . S
C581 C578 1.387 . S
C582 C583 1.387 . S
C582 H586 0.950 . S
C582 C591 1.390 . S
C583 C582 1.387 . S
C583 C585 1.387 . S
H584 C591 0.950 . S
C585 C583 1.387 . S
C585 C587 1.390 . S
C585 H589 0.950 . S
H586 C582 0.950 . S
C587 C585 1.390 . S
C587 C588 1.387 . S
C587 H590 0.950 . S
C588 C587 1.387 . S
C588 C591 1.387 . S
H589 C585 0.950 . S
H590 C587 0.950 . S
C591 C582 1.390 . S
C591 H584 0.950 . S
C591 C588 1.387 . S
C592 C593 1.387 . S
C592 H596 0.950 . S
C592 C601 1.390 . S
C593 C592 1.387 . S
C593 C595 1.387 . S
H594 C601 0.950 . S
C595 C593 1.387 . S
C595 C597 1.390 . S
C595 H599 0.950 . S
H596 C592 0.950 . S
C597 C595 1.390 . S
C597 C598 1.387 . S
C597 H600 0.950 . S
C598 C597 1.387 . S
C598 C601 1.387 . S
H599 C595 0.950 . S
H600 C597 0.950 . S
C601 C592 1.390 . S
C601 H594 0.950 . S
C601 C598 1.387 . S
C602 C603 1.387 . S
C602 H606 0.950 . S
C602 C611 1.390 . S
C603 C602 1.387 . S
C603 C605 1.387 . S
H604 C611 0.950 . S
C605 C603 1.387 . S
C605 C607 1.390 . S
C605 H609 0.950 . S
H606 C602 0.950 . S
C607 C605 1.390 . S
C607 C608 1.387 . S
C607 H610 0.950 . S
C608 C607 1.387 . S
C608 C611 1.387 . S
H609 C605 0.950 . S
H610 C607 0.950 . S
C611 C602 1.390 . S
C611 H604 0.950 . S
C611 C608 1.387 . S
C612 C613 1.387 . S
C612 H616 0.950 . S
C612 C621 1.390 . S
C613 C612 1.387 . S
C613 C615 1.387 . S
H614 C621 0.950 . S
C615 C613 1.387 . S
C615 C617 1.390 . S
C615 H619 0.950 . S
H616 C612 0.950 . S
C617 C615 1.390 . S
C617 C618 1.387 . S
C617 H620 0.950 . S
C618 C617 1.387 . S
C618 C621 1.387 . S
H619 C615 0.950 . S
H620 C617 0.950 . S
C621 C612 1.390 . S
C621 H614 0.950 . S
C621 C618 1.387 . S
C622 C623 1.387 . S
C622 H626 0.950 . S
C622 C631 1.390 . S
C623 C622 1.387 . S
C623 C625 1.387 . S
H624 C631 0.950 . S
C625 C623 1.387 . S
C625 C627 1.390 . S
C625 H629 0.950 . S
H626 C622 0.950 . S
C627 C625 1.390 . S
C627 C628 1.387 . S
C627 H630 0.950 . S
C628 C627 1.387 . S
C628 C631 1.387 . S
H629 C625 0.950 . S
H630 C627 0.950 . S
C631 C622 1.390 . S
C631 H624 0.950 . S
C631 C628 1.387 . S
C632 C633 1.387 . S
C632 H636 0.950 . S
C632 C641 1.390 . S
C633 C632 1.387 . S
C633 C635 1.387 . S
H634 C641 0.950 . S
C635 C633 1.387 . S
C635 C637 1.390 . S
C635 H639 0.950 . S
H636 C632 0.950 . S
C637 C635 1.390 . S
C637 C638 1.387 . S
C637 H640 0.950 . S
C638 C637 1.387 . S
C638 C641 1.387 . S
H639 C635 0.950 . S
H640 C637 0.950 . S
C641 C632 1.390 . S
C641 H634 0.950 . S
C641 C638 1.387 . S
C642 C643 1.387 . S
C642 H646 0.950 . S
C642 C651 1.390 . S
C643 C642 1.387 . S
C643 C645 1.387 . S
H644 C651 0.950 . S
C645 C643 1.387 . S
C645 C647 1.390 . S
C645 H649 0.950 . S
H646 C642 0.950 . S
C647 C645 1.390 . S
C647 C648 1.387 . S
C647 H650 0.950 . S
C648 C647 1.387 . S
C648 C651 1.387 . S
H649 C645 0.950 . S
H650 C647 0.950 . S
C651 C642 1.390 . S
C651 H644 0.950 . S
C651 C648 1.387 . S
C652 C653 1.387 . S
C652 H656 0.950 . S
C652 C661 1.390 . S
C653 C652 1.387 . S
C653 C655 1.387 . S
H654 C661 0.950 . S
C655 C653 1.387 . S
C655 C657 1.390 . S
C655 H659 0.950 . S
H656 C652 0.950 . S
C657 C655 1.390 . S
C657 C658 1.387 . S
C657 H660 0.950 . S
C658 C657 1.387 . S
C658 C661 1.387 . S
H659 C655 0.950 . S
H660 C657 0.950 . S
C661 C652 1.390 . S
C661 H654 0.950 . S
C661 C658 1.387 . S
C662 C663 1.387 . S
C662 H666 0.950 . S
C662 C671 1.390 . S
C663 C662 1.387 . S
C663 C665 1.387 . S
H664 C671 0.950 . S
C665 C663 1.387 . S
C665 C667 1.390 . S
C665 H669 0.950 . S
H666 C662 0.950 . S
C667 C665 1.390 . S
C667 C668 1.387 . S
C667 H670 0.950 . S
C668 C667 1.387 . S
C668 C671 1.387 . S
H669 C665 0.950 . S
H670 C667 0.950 . S
C671 C662 1.390 . S
C671 H664 0.950 . S
C671 C668 1.387 . S
C433 C81 1.677 . S
C438 C152 1.665 1_565 S
C448 C236 1.665 . S
C443 C93 1.677 . S
C458 C235 1.664 . S
C453 C57 1.675 . S
C463 C69 1.674 . S
C468 C151 1.665 1_565 S
C478 C332 1.666 1_545 S
C473 C33 1.672 . S
C488 C416 1.665 . S
C483 C45 1.672 . S
C493 C9 1.668 . S
C498 C415 1.665 . S
C503 C21 1.667 . S
C508 C331 1.664 1_545 S
C518 C154 1.443 . S
C513 C18 1.603 . S
C528 C238 1.445 . S
C523 C6 1.604 . S
C538 C250 1.366 . S
C533 C42 1.603 . S
C548 C166 1.366 . S
C543 C30 1.603 . S
C558 C334 1.441 . S
C553 C66 1.612 . S
C563 C54 1.612 . S
C568 C418 1.441 . S
C578 C406 1.361 . S
C573 C90 1.609 . S
C583 C78 1.609 . S
C588 C322 1.362 . S
C598 C163 1.522 . S
C593 C4 1.504 . S
C608 C247 1.522 . S
C603 C16 1.504 . S
C613 C28 1.499 . S
C618 C248 1.490 . S
C628 C164 1.490 . S
C623 C40 1.500 . S
C638 C319 1.523 . S
C633 C52 1.498 . S
C643 C64 1.498 . S
C648 C403 1.523 . S
C653 C76 1.495 . S
C658 C404 1.490 . S
C663 C88 1.495 . S
C668 C320 1.490 . S
