# Generated by pormake.
# Topology zzz, (3,6)-cn, num edge types: 1
# Building blocks:
#     Node 0, Type 0, BuildingBlock: BELTOD_clean_linker_0, # of connection points: 3
#     Node 1, Type 0, BuildingBlock: BELTOD_clean_linker_0, # of connection points: 3
#     Node 2, Type 0, BuildingBlock: BELTOD_clean_linker_0, # of connection points: 3
#     Node 3, Type 0, BuildingBlock: BELTOD_clean_linker_0, # of connection points: 3
#     Node 4, Type 0, BuildingBlock: BELTOD_clean_linker_0, # of connection points: 3
#     Node 5, Type 0, BuildingBlock: BELTOD_clean_linker_0, # of connection points: 3
#     Node 6, Type 0, BuildingBlock: BELTOD_clean_linker_0, # of connection points: 3
#     Node 7, Type 0, BuildingBlock: BELTOD_clean_linker_0, # of connection points: 3
#     Node 8, Type 1, BuildingBlock: FUNLAD_clean_sbu_0, # of connection points: 6
#     Node 9, Type 1, BuildingBlock: FUNLAD_clean_sbu_0, # of connection points: 6
#     Node 10, Type 1, BuildingBlock: FUNLAD_clean_sbu_0, # of connection points: 6
#     Node 11, Type 1, BuildingBlock: FUNLAD_clean_sbu_0, # of connection points: 6
#     Edge 12, Type (0, 1), BuildingBlock: XIVTED_clean_linker_0, # of connection points: 2
#     Edge 13, Type (0, 1), BuildingBlock: XIVTED_clean_linker_0, # of connection points: 2
#     Edge 14, Type (0, 1), BuildingBlock: XIVTED_clean_linker_0, # of connection points: 2
#     Edge 15, Type (0, 1), BuildingBlock: XIVTED_clean_linker_0, # of connection points: 2
#     Edge 16, Type (0, 1), BuildingBlock: XIVTED_clean_linker_0, # of connection points: 2
#     Edge 17, Type (0, 1), BuildingBlock: XIVTED_clean_linker_0, # of connection points: 2
#     Edge 18, Type (0, 1), BuildingBlock: XIVTED_clean_linker_0, # of connection points: 2
#     Edge 19, Type (0, 1), BuildingBlock: XIVTED_clean_linker_0, # of connection points: 2
#     Edge 20, Type (0, 1), BuildingBlock: XIVTED_clean_linker_0, # of connection points: 2
#     Edge 21, Type (0, 1), BuildingBlock: XIVTED_clean_linker_0, # of connection points: 2
#     Edge 22, Type (0, 1), BuildingBlock: XIVTED_clean_linker_0, # of connection points: 2
#     Edge 23, Type (0, 1), BuildingBlock: XIVTED_clean_linker_0, # of connection points: 2
#     Edge 24, Type (0, 1), BuildingBlock: XIVTED_clean_linker_0, # of connection points: 2
#     Edge 25, Type (0, 1), BuildingBlock: XIVTED_clean_linker_0, # of connection points: 2
#     Edge 26, Type (0, 1), BuildingBlock: XIVTED_clean_linker_0, # of connection points: 2
#     Edge 27, Type (0, 1), BuildingBlock: XIVTED_clean_linker_0, # of connection points: 2
#     Edge 28, Type (0, 1), BuildingBlock: XIVTED_clean_linker_0, # of connection points: 2
#     Edge 29, Type (0, 1), BuildingBlock: XIVTED_clean_linker_0, # of connection points: 2
#     Edge 30, Type (0, 1), BuildingBlock: XIVTED_clean_linker_0, # of connection points: 2
#     Edge 31, Type (0, 1), BuildingBlock: XIVTED_clean_linker_0, # of connection points: 2
#     Edge 32, Type (0, 1), BuildingBlock: XIVTED_clean_linker_0, # of connection points: 2
#     Edge 33, Type (0, 1), BuildingBlock: XIVTED_clean_linker_0, # of connection points: 2
#     Edge 34, Type (0, 1), BuildingBlock: XIVTED_clean_linker_0, # of connection points: 2
#     Edge 35, Type (0, 1), BuildingBlock: XIVTED_clean_linker_0, # of connection points: 2
# Relax obj value: 0.251
# Max RMSD: 0.215
# Mean RMSD: 0.181
data_MOF--net-zzz--node1-FUNLAD_clean_sbu_0--node2-BELTOD_clean_linker_0--edge1-XIVTED_clean_linker_0
_symmetry_space_group_name_H-M    P1
_symmetry_Int_Tables_number       1
_symmetry_cell_setting            triclinic
loop_
_symmetry_equiv_pos_as_xyz
'x, y, z'
_cell_length_a     54.62957
_cell_length_b     59.220006
_cell_length_c     21.024341
_cell_angle_alpha  86.567424
_cell_angle_beta   87.145366
_cell_angle_gamma 92.140314
loop_
_atom_site_label
_atom_site_type_symbol
_atom_site_fract_x
_atom_site_fract_y
_atom_site_fract_z
_atom_type_partial_charge
P0 P 0.79516 0.37275 0.24402 0.0
H1 H 0.80687 0.35635 0.37224 0.0
H2 H 0.82588 0.37562 0.45759 0.0
H3 H 0.81743 0.44007 0.35503 0.0
H4 H 0.79741 0.42072 0.27131 0.0
H5 H 0.7824 0.36884 0.11313 0.0
H6 H 0.75078 0.38525 0.04948 0.0
H7 H 0.71979 0.41505 0.21664 0.0
H8 H 0.7521 0.39893 0.27986 0.0
H9 H 0.83777 0.34545 0.21216 0.0
H10 H 0.81312 0.41258 0.16647 0.0
O11 O 0.79052 0.34497 0.26082 0.0
H12 H 0.8763 0.35491 0.14855 0.0
H13 H 0.8514 0.42215 0.10492 0.0
C14 C 0.80077 0.38707 0.31531 0.0
C15 C 0.80818 0.37468 0.3693 0.0
C16 C 0.81928 0.38573 0.41784 0.0
C17 C 0.82367 0.40937 0.41247 0.0
C18 C 0.81426 0.42189 0.36092 0.0
C19 C 0.80291 0.4108 0.31271 0.0
C20 C 0.76992 0.38315 0.20071 0.0
C21 C 0.76875 0.37885 0.13615 0.0
C22 C 0.7505 0.38812 0.09989 0.0
C23 C 0.7328 0.40163 0.12779 0.0
C24 C 0.73344 0.40511 0.1934 0.0
C25 C 0.75183 0.39584 0.22967 0.0
C26 C 0.82257 0.3783 0.19368 0.0
C27 C 0.84055 0.3621 0.18816 0.0
C28 C 0.86249 0.3675 0.15206 0.0
C29 C 0.86681 0.38931 0.12258 0.0
C30 C 0.84864 0.40531 0.12795 0.0
C31 C 0.82673 0.39983 0.16297 0.0
P32 P 0.97854 0.75831 0.18397 0.0
H33 H 0.99092 0.77249 0.30849 0.0
H34 H 0.9722 0.79877 0.37877 0.0
H35 H 0.90973 0.8023 0.26111 0.0
H36 H 0.92821 0.77485 0.19179 0.0
H37 H 0.97509 0.70956 0.21193 0.0
H38 H 0.95967 0.67846 0.15257 0.0
H39 H 0.92918 0.72642 0.01821 0.0
H40 H 0.9451 0.75743 0.07703 0.0
H41 H 0.02793 0.77204 0.12956 0.0
H42 H 0.95386 0.79347 0.10973 0.0
O43 O 0.00273 0.74696 0.21723 0.0
H44 H 0.04296 0.80291 0.05271 0.0
H45 H 0.96869 0.8235 0.03221 0.0
C46 C 0.96103 0.77175 0.24471 0.0
C47 C 0.97276 0.77812 0.29895 0.0
C48 C 0.96202 0.79321 0.33923 0.0
C49 C 0.93955 0.80265 0.32521 0.0
C50 C 0.9271 0.7953 0.2728 0.0
C51 C 0.93765 0.77967 0.23327 0.0
C52 C 0.96195 0.7359 0.14804 0.0
C53 C 0.96477 0.71342 0.17025 0.0
C54 C 0.95574 0.69559 0.13642 0.0
C55 C 0.94351 0.69994 0.0799 0.0
C56 C 0.93901 0.7225 0.06071 0.0
C57 C 0.94811 0.74032 0.0946 0.0
C58 C 0.98968 0.78021 0.12522 0.0
C59 C 0.01486 0.78315 0.1085 0.0
C60 C 0.02347 0.80078 0.06476 0.0
C61 C 0.00691 0.81535 0.03636 0.0
C62 C 0.98177 0.81225 0.05284 0.0
C63 C 0.97329 0.79502 0.0973 0.0
P64 P 0.76279 0.05954 0.16269 0.0
H65 H 0.76431 0.07311 0.29416 0.0
H66 H 0.73989 0.05976 0.39006 0.0
H67 H 0.7127 0.00251 0.29225 0.0
H68 H 0.73834 0.01532 0.19785 0.0
H69 H 0.77857 0.06261 0.02886 0.0
H70 H 0.81329 0.04804 0.96932 0.0
H71 H 0.83649 0.01406 0.14243 0.0
H72 H 0.80139 0.02887 0.20214 0.0
H73 H 0.7244 0.09243 0.14732 0.0
H74 H 0.74137 0.02713 0.08009 0.0
O75 O 0.77229 0.08609 0.17336 0.0
H76 H 0.68529 0.09085 0.09473 0.0
H77 H 0.70252 0.02543 0.02795 0.0
C78 C 0.75272 0.04549 0.23835 0.0
C79 C 0.75382 0.05725 0.29403 0.0
C80 C 0.73959 0.04969 0.34876 0.0
C81 C 0.72362 0.03047 0.34829 0.0
C82 C 0.72464 0.01742 0.2945 0.0
C83 C 0.73923 0.02482 0.24011 0.0
C84 C 0.78708 0.04635 0.11957 0.0
C85 C 0.79081 0.05162 0.05387 0.0
C86 C 0.81067 0.04323 0.01979 0.0
C87 C 0.82754 0.0297 0.05097 0.0
C88 C 0.8238 0.02445 0.11707 0.0
C89 C 0.8037 0.03276 0.15116 0.0
C90 C 0.73595 0.06009 0.11654 0.0
C91 C 0.71993 0.07799 0.12022 0.0
C92 C 0.69761 0.07705 0.09038 0.0
C93 C 0.69086 0.05796 0.05767 0.0
C94 C 0.70715 0.04024 0.05344 0.0
C95 C 0.72946 0.0413 0.08269 0.0
P96 P 0.51464 0.7168 0.23239 0.0
H97 H 0.51971 0.71128 0.37035 0.0
H98 H 0.54501 0.68634 0.43283 0.0
H99 H 0.58754 0.67274 0.26144 0.0
H100 H 0.56161 0.6974 0.1989 0.0
H101 H 0.48415 0.74978 0.17288 0.0
H102 H 0.49319 0.78307 0.10029 0.0
H103 H 0.57078 0.77493 0.11954 0.0
H104 H 0.56156 0.74149 0.19261 0.0
H105 H 0.49719 0.6699 0.253 0.0
H106 H 0.51851 0.71622 0.09168 0.0
O107 O 0.48953 0.71974 0.27919 0.0
H108 H 0.49274 0.6391 0.18113 0.0
H109 H 0.51394 0.68568 0.02017 0.0
C110 C 0.53858 0.70594 0.27993 0.0
C111 C 0.53499 0.70358 0.34644 0.0
C112 C 0.54963 0.68935 0.38227 0.0
C113 C 0.56807 0.67721 0.35199 0.0
C114 C 0.57322 0.68154 0.28605 0.0
C115 C 0.55854 0.69578 0.25029 0.0
C116 C 0.52215 0.74338 0.18879 0.0
C117 C 0.5031 0.7554 0.16251 0.0
C118 C 0.5083 0.77425 0.12044 0.0
C119 C 0.53269 0.78143 0.10383 0.0
C120 C 0.55181 0.76978 0.13178 0.0
C121 C 0.54656 0.75072 0.1736 0.0
C122 C 0.50795 0.69539 0.17783 0.0
C123 C 0.50045 0.67354 0.2021 0.0
C124 C 0.49806 0.65596 0.16113 0.0
C125 C 0.50299 0.66003 0.0951 0.0
C126 C 0.5097 0.68212 0.07074 0.0
C127 C 0.51235 0.69962 0.11181 0.0
P128 P 0.22474 0.51178 0.20732 0.0
H129 H 0.21813 0.48007 0.10775 0.0
H130 H 0.19679 0.48415 0.00939 0.0
H131 H 0.19672 0.5566 0.02507 0.0
H132 H 0.21788 0.55224 0.12476 0.0
H133 H 0.26827 0.48614 0.22464 0.0
H134 H 0.30831 0.49571 0.26325 0.0
H135 H 0.28961 0.56591 0.26607 0.0
H136 H 0.24929 0.55617 0.22564 0.0
H137 H 0.17279 0.51284 0.19055 0.0
H138 H 0.22341 0.54013 0.31998 0.0
O139 O 0.22055 0.4843 0.22934 0.0
H140 H 0.13899 0.52862 0.2489 0.0
H141 H 0.18975 0.55769 0.3762 0.0
C142 C 0.2192 0.51582 0.12398 0.0
C143 C 0.21437 0.49693 0.08894 0.0
C144 C 0.20217 0.49932 0.03234 0.0
C145 C 0.19457 0.52068 0.01003 0.0
C146 C 0.2019 0.53988 0.04172 0.0
C147 C 0.21424 0.53745 0.09829 0.0
C148 C 0.2555 0.52031 0.22467 0.0
C149 C 0.2728 0.50366 0.23268 0.0
C150 C 0.29581 0.50919 0.25436 0.0
C151 C 0.30197 0.53152 0.26844 0.0
C152 C 0.28516 0.5485 0.25648 0.0
C153 C 0.26218 0.54297 0.23353 0.0
C154 C 0.2008 0.52586 0.24941 0.0
C155 C 0.17675 0.52291 0.23043 0.0
C156 C 0.15734 0.53225 0.2637 0.0
C157 C 0.16146 0.54492 0.31697 0.0
C158 C 0.18574 0.54805 0.33558 0.0
C159 C 0.20518 0.53825 0.30275 0.0
P160 P 0.1569 0.21856 0.30313 0.0
H161 H 0.18651 0.20714 0.18957 0.0
H162 H 0.17627 0.18273 0.10347 0.0
H163 H 0.09994 0.18194 0.16697 0.0
H164 H 0.10998 0.20642 0.25187 0.0
H165 H 0.18165 0.25452 0.36709 0.0
H166 H 0.16855 0.29114 0.39964 0.0
H167 H 0.10137 0.28174 0.30207 0.0
H168 H 0.11538 0.24588 0.26662 0.0
H169 H 0.15862 0.17026 0.33128 0.0
H170 H 0.11564 0.22482 0.3968 0.0
O171 O 0.18672 0.21529 0.31299 0.0
H172 H 0.129 0.14278 0.38553 0.0
H173 H 0.08587 0.19747 0.45011 0.0
C174 C 0.14903 0.2086 0.22724 0.0
C175 C 0.16746 0.2025 0.18337 0.0
C176 C 0.16165 0.18852 0.13438 0.0
C177 C 0.1374 0.18037 0.12951 0.0
C178 C 0.11877 0.18803 0.17013 0.0
C179 C 0.12451 0.2022 0.21827 0.0
C180 C 0.14959 0.24751 0.31405 0.0
C181 C 0.16444 0.26068 0.35108 0.0
C182 C 0.15672 0.28152 0.37048 0.0
C183 C 0.13366 0.28935 0.35454 0.0
C184 C 0.11935 0.27651 0.3148 0.0
C185 C 0.12732 0.25584 0.29451 0.0
C186 C 0.13944 0.19959 0.35989 0.0
C187 C 0.1432 0.17635 0.35879 0.0
C188 C 0.12605 0.16066 0.38891 0.0
C189 C 0.10486 0.16799 0.42093 0.0
C190 C 0.10199 0.19132 0.42569 0.0
C191 C 0.1191 0.20701 0.39515 0.0
P192 P 0.29093 0.02487 0.23555 0.0
H193 H 0.28999 0.05262 0.11552 0.0
H194 H 0.31284 0.04912 0.01448 0.0
H195 H 0.33005 0.98076 0.07588 0.0
H196 H 0.30554 0.98389 0.17406 0.0
H197 H 0.28003 0.00927 0.36797 0.0
H198 H 0.24206 0.00014 0.42967 0.0
H199 H 0.20174 0.00851 0.25873 0.0
H200 H 0.24058 0.01657 0.19577 0.0
H201 H 0.33707 0.04818 0.26075 0.0
H202 H 0.30415 0.98089 0.29309 0.0
O203 O 0.28977 0.05287 0.23985 0.0
H204 H 0.37434 0.03548 0.3084 0.0
H205 H 0.34167 0.96784 0.33958 0.0
C206 C 0.29669 0.01876 0.15331 0.0
C207 C 0.29779 0.03654 0.10609 0.0
C208 C 0.31129 0.03462 0.04853 0.0
C209 C 0.32441 0.01504 0.03785 0.0
C210 C 0.32055 0.99624 0.08206 0.0
C211 C 0.30651 0.99803 0.13889 0.0
C212 C 0.26333 0.01285 0.27668 0.0
C213 C 0.26326 0.0082 0.34286 0.0
C214 C 0.24135 0.00341 0.37857 0.0
C215 C 0.21878 0.00392 0.3494 0.0
C216 C 0.21883 0.00779 0.28261 0.0
C217 C 0.241 0.01235 0.24654 0.0
C218 C 0.31763 0.01564 0.27503 0.0
C219 C 0.3378 0.0307 0.2786 0.0
C220 C 0.35924 0.02331 0.30503 0.0
C221 C 0.361 0.0006 0.32761 0.0
C222 C 0.34079 0.98548 0.32335 0.0
C223 C 0.31934 0.99293 0.29689 0.0
P224 P 0.4166 0.30856 0.27065 0.0
H225 H 0.38816 0.32728 0.16636 0.0
H226 H 0.40082 0.35214 0.07271 0.0
H227 H 0.4767 0.3395 0.10556 0.0
H228 H 0.46404 0.31606 0.201 0.0
H229 H 0.38958 0.27355 0.3512 0.0
H230 H 0.40059 0.23641 0.39359 0.0
H231 H 0.46805 0.2424 0.27593 0.0
H232 H 0.45601 0.27872 0.23073 0.0
H233 H 0.41664 0.35634 0.2925 0.0
H234 H 0.45693 0.29867 0.35657 0.0
O235 O 0.38701 0.31302 0.28674 0.0
H236 H 0.44426 0.38122 0.34687 0.0
H237 H 0.48484 0.32347 0.40975 0.0
C238 C 0.42513 0.31955 0.19054 0.0
C239 C 0.40749 0.32931 0.15234 0.0
C240 C 0.41476 0.34354 0.09858 0.0
C241 C 0.4398 0.34817 0.08229 0.0
C242 C 0.45726 0.33668 0.11751 0.0
C243 C 0.45001 0.32278 0.17154 0.0
C244 C 0.4219 0.279 0.28758 0.0
C245 C 0.40634 0.26654 0.33288 0.0
C246 C 0.4129 0.24539 0.35795 0.0
C247 C 0.43553 0.2365 0.33947 0.0
C248 C 0.45041 0.24849 0.29119 0.0
C249 C 0.44356 0.26947 0.26524 0.0
C250 C 0.43454 0.32565 0.32063 0.0
C251 C 0.4312 0.34899 0.31901 0.0
C252 C 0.44721 0.36321 0.34939 0.0
C253 C 0.46696 0.35433 0.38188 0.0
C254 C 0.46976 0.33081 0.38531 0.0
C255 C 0.45375 0.31659 0.35468 0.0
C256 C 0.02914 0.95973 0.77278 0.0
N257 N 0.99154 0.97132 0.6065 0.0
C258 C 0.0021 0.95166 0.59236 0.0
C259 C 0.98914 0.93529 0.56145 0.0
C260 C 0.9652 0.93924 0.54408 0.0
C261 C 0.95507 0.96009 0.55577 0.0
C262 C 0.96864 0.97601 0.58785 0.0
Zn263 Zn 0.01017 0.99101 0.66628 0.0
C264 C 0.97797 0.00338 0.7768 0.0
N265 N 0.0497 0.02721 0.79994 0.0
C266 C 0.07218 0.02196 0.82034 0.0
C267 C 0.03933 0.04695 0.81432 0.0
C268 C 0.05203 0.06275 0.84794 0.0
C269 C 0.07546 0.05807 0.8681 0.0
C270 C 0.08539 0.03719 0.85539 0.0
Zn271 Zn 0.03133 0.00755 0.73976 0.0
O272 O 0.01677 0.96124 0.72318 0.0
C273 C 0.06366 0.99551 0.62949 0.0
O274 O 0.03867 0.97758 0.79344 0.0
H275 H 0.02139 0.05078 0.79814 0.0
H276 H 0.02025 0.94818 0.60761 0.0
H277 H 0.08013 0.00623 0.80806 0.0
O278 O 0.04342 0.98761 0.61109 0.0
O279 O 0.06397 0.00482 0.68243 0.0
H280 H 0.96055 0.99168 0.60003 0.0
O281 O 0.0239 0.03721 0.68502 0.0
O282 O 0.00432 0.02107 0.61002 0.0
O283 O 0.99856 0.01004 0.79591 0.0
O284 O 0.97711 0.99492 0.72268 0.0
C285 C 0.01303 0.03884 0.63309 0.0
H286 H 0.99752 0.91939 0.55265 0.0
H287 H 0.93658 0.96358 0.54287 0.0
H288 H 0.04366 0.07855 0.85785 0.0
H289 H 0.10344 0.03307 0.87051 0.0
C290 C 0.50016 0.99498 0.59716 0.0
N291 N 0.51655 0.06175 0.63775 0.0
C292 C 0.51973 0.06459 0.57314 0.0
C293 C 0.51312 0.08453 0.54107 0.0
C294 C 0.50338 0.10199 0.57568 0.0
C295 C 0.50133 0.09898 0.64269 0.0
C296 C 0.50791 0.07858 0.67287 0.0
Zn297 Zn 0.52218 0.03041 0.67922 0.0
C298 C 0.48003 0.0132 0.76481 0.0
N299 N 0.53204 0.96306 0.75367 0.0
C300 C 0.53926 0.94554 0.71909 0.0
C301 C 0.52842 0.96053 0.81823 0.0
C302 C 0.53232 0.93991 0.85068 0.0
C303 C 0.53982 0.92153 0.8165 0.0
C304 C 0.54313 0.92443 0.74975 0.0
Zn305 Zn 0.52674 0.99444 0.71206 0.0
O306 O 0.5041 0.01591 0.60424 0.0
C307 C 0.56872 0.01219 0.62593 0.0
O308 O 0.50764 0.9804 0.63769 0.0
H309 H 0.52249 0.97458 0.84486 0.0
H310 H 0.52661 0.05101 0.54601 0.0
H311 H 0.54208 0.94796 0.66781 0.0
O312 O 0.55586 0.02959 0.62747 0.0
O313 O 0.56094 0.99395 0.65679 0.0
H314 H 0.50552 0.07596 0.72419 0.0
O315 O 0.54569 0.00905 0.78617 0.0
O316 O 0.54067 0.04445 0.7542 0.0
O317 O 0.49257 0.99552 0.76568 0.0
O318 O 0.48826 0.03088 0.73228 0.0
C319 C 0.54921 0.03005 0.79356 0.0
H320 H 0.51475 0.08579 0.48944 0.0
H321 H 0.49437 0.11209 0.6716 0.0
H322 H 0.52909 0.93827 0.90204 0.0
H323 H 0.54893 0.91063 0.72176 0.0
C324 C 0.53964 0.47438 0.61426 0.0
N325 N 0.48341 0.51938 0.62368 0.0
C326 C 0.48778 0.5221 0.55933 0.0
C327 C 0.46881 0.52677 0.51947 0.0
C328 C 0.44484 0.52836 0.54554 0.0
C329 C 0.44081 0.52591 0.61229 0.0
C330 C 0.46051 0.5214 0.65074 0.0
Zn331 Zn 0.51298 0.51143 0.67563 0.0
C332 C 0.50376 0.47605 0.77711 0.0
N333 N 0.5778 0.49518 0.77062 0.0
C334 C 0.59885 0.48845 0.74137 0.0
C335 C 0.57493 0.49478 0.83536 0.0
C336 C 0.5934 0.487 0.87338 0.0
C337 C 0.61498 0.47928 0.84468 0.0
C338 C 0.61775 0.48028 0.77775 0.0
Zn339 Zn 0.54826 0.50361 0.71954 0.0
O340 O 0.52109 0.48658 0.61242 0.0
C341 C 0.55791 0.53884 0.6189 0.0
O342 O 0.55522 0.47721 0.6563 0.0
H343 H 0.55793 0.49981 0.85784 0.0
H344 H 0.50603 0.52037 0.53843 0.0
H345 H 0.60072 0.48886 0.68986 0.0
O346 O 0.53488 0.53541 0.61721 0.0
O347 O 0.56986 0.52748 0.65915 0.0
H348 H 0.45744 0.51915 0.70199 0.0
O349 O 0.54024 0.52954 0.78192 0.0
O350 O 0.50509 0.53655 0.73986 0.0
O351 O 0.52662 0.48036 0.77925 0.0
O352 O 0.49168 0.48672 0.73559 0.0
C353 C 0.52072 0.54058 0.78096 0.0
H354 H 0.47293 0.52896 0.46851 0.0
H355 H 0.42258 0.52682 0.63443 0.0
H356 H 0.59036 0.48617 0.92479 0.0
H357 H 0.63421 0.47459 0.75386 0.0
C358 C 0.02201 0.51875 0.60009 0.0
N359 N 0.0299 0.44923 0.63761 0.0
C360 C 0.02915 0.44858 0.57316 0.0
C361 C 0.0411 0.43188 0.5411 0.0
C362 C 0.05373 0.41536 0.57559 0.0
C363 C 0.0539 0.41626 0.64232 0.0
C364 C 0.04193 0.43348 0.67243 0.0
Zn365 Zn 0.01306 0.47497 0.68072 0.0
C366 C 0.0459 0.49939 0.76216 0.0
N367 N 0.97794 0.53047 0.76182 0.0
C368 C 0.96536 0.54607 0.72788 0.0
C369 C 0.98038 0.53181 0.82558 0.0
C370 C 0.97024 0.54944 0.85757 0.0
C371 C 0.9575 0.56603 0.82375 0.0
C372 C 0.955 0.56414 0.75804 0.0
Zn373 Zn 0.99462 0.50465 0.7187 0.0
O374 O 0.0263 0.4978 0.60451 0.0
C375 C 0.96252 0.47946 0.63524 0.0
O376 O 0.00856 0.52718 0.64273 0.0
H377 H 0.9906 0.51935 0.85165 0.0
H378 H 0.01942 0.4612 0.54627 0.0
H379 H 0.96362 0.54465 0.67724 0.0
O380 O 0.98167 0.46803 0.63308 0.0
O381 O 0.96203 0.49681 0.66832 0.0
H382 H 0.04231 0.4343 0.72362 0.0
O383 O 0.98146 0.48204 0.79498 0.0
O384 O 0.99925 0.45251 0.75812 0.0
O385 O 0.02735 0.51166 0.76728 0.0
O386 O 0.0448 0.48224 0.72881 0.0
C387 C 0.98591 0.46115 0.80079 0.0
H388 H 0.04074 0.43222 0.48962 0.0
H389 H 0.063 0.40371 0.67121 0.0
H390 H 0.97305 0.55045 0.90797 0.0
H391 H 0.94522 0.57652 0.73026 0.0
H392 H 0.20951 0.02325 0.46223 0.0
H393 H 0.06992 0.97729 0.51277 0.0
H394 H 0.1749 0.98143 0.32846 0.0
H395 H 0.10926 0.01285 0.65195 0.0
H396 H 0.10742 0.97877 0.44334 0.0
H397 H 0.1722 0.02004 0.53036 0.0
C398 C 0.19411 0.01316 0.44738 0.0
C399 C 0.19555 0.00228 0.38983 0.0
C400 C 0.10783 0.98615 0.48919 0.0
C401 C 0.15227 0.99887 0.46774 0.0
C402 C 0.08645 0.98529 0.52891 0.0
C403 C 0.08641 0.99499 0.58832 0.0
C404 C 0.12928 0.99687 0.50892 0.0
C405 C 0.10836 0.00515 0.60665 0.0
C406 C 0.17269 0.01144 0.4863 0.0
C407 C 0.17462 0.99009 0.37235 0.0
N408 N 0.12882 0.00588 0.56706 0.0
N409 N 0.15383 0.98866 0.41126 0.0
H410 H 0.42795 0.22313 0.46656 0.0
H411 H 0.52214 0.12429 0.46391 0.0
H412 H 0.4641 0.20309 0.29243 0.0
H413 H 0.46357 0.12669 0.60903 0.0
H414 H 0.50493 0.15627 0.4052 0.0
H415 H 0.44425 0.19058 0.52388 0.0
C416 C 0.43899 0.21177 0.43993 0.0
C417 C 0.44444 0.21594 0.37408 0.0
C418 C 0.49591 0.14975 0.44994 0.0
C419 C 0.46393 0.17894 0.44058 0.0
C420 C 0.50566 0.13144 0.48353 0.0
C421 C 0.49427 0.12257 0.54164 0.0
C422 C 0.47483 0.15955 0.47495 0.0
C423 C 0.47328 0.13304 0.56512 0.0
C424 C 0.44848 0.19327 0.47305 0.0
C425 C 0.4596 0.20085 0.34317 0.0
N426 N 0.46428 0.15098 0.53177 0.0
N427 N 0.46893 0.1831 0.37675 0.0
H428 H 0.34782 0.51742 0.23716 0.0
H429 H 0.40435 0.55437 0.56132 0.0
H430 H 0.30825 0.55577 0.37372 0.0
H431 H 0.43834 0.50956 0.43168 0.0
H432 H 0.37082 0.55891 0.48876 0.0
H433 H 0.38367 0.5193 0.30161 0.0
C434 C 0.34681 0.52649 0.2804 0.0
C435 C 0.32499 0.53625 0.3005 0.0
C436 C 0.38575 0.54822 0.47616 0.0
C437 C 0.36585 0.53826 0.37512 0.0
C438 C 0.40478 0.54548 0.51775 0.0
C439 C 0.42428 0.53162 0.50259 0.0
C440 C 0.38623 0.537 0.4191 0.0
C441 C 0.42399 0.52075 0.44503 0.0
C442 C 0.36725 0.52752 0.31732 0.0
C443 C 0.32477 0.54807 0.35646 0.0
N444 N 0.40531 0.52365 0.40562 0.0
N445 N 0.34482 0.54852 0.39233 0.0
H446 H 0.10395 0.32128 0.30123 0.0
H447 H 0.09698 0.39568 0.60495 0.0
H448 H 0.14032 0.30391 0.47439 0.0
H449 H 0.04023 0.39408 0.46903 0.0
H450 H 0.11763 0.36614 0.54936 0.0
H451 H 0.08514 0.35256 0.35367 0.0
C452 C 0.10806 0.32399 0.3501 0.0
C453 C 0.12375 0.30975 0.3833 0.0
C454 C 0.10066 0.37233 0.5318 0.0
C455 C 0.10257 0.34584 0.44304 0.0
C456 C 0.08873 0.38909 0.56377 0.0
C457 C 0.06668 0.39744 0.54202 0.0
C458 C 0.09071 0.364 0.47716 0.0
C459 C 0.05733 0.38852 0.4872 0.0
C460 C 0.09736 0.34192 0.37987 0.0
C461 C 0.12873 0.31455 0.44623 0.0
N462 N 0.06941 0.37234 0.45663 0.0
N463 N 0.11818 0.33215 0.47398 0.0
H464 H 0.87506 0.02981 0.08717 0.0
H465 H 0.93023 0.99334 0.7496 0.0
H466 H 0.83033 0.01323 0.93169 0.0
H467 H 0.97432 0.0177 0.898 0.0
H468 H 0.89339 0.99713 0.81877 0.0
H469 H 0.91159 0.02137 0.02237 0.0
C470 C 0.87288 0.02407 0.03974 0.0
C471 C 0.8496 0.02235 0.01471 0.0
C472 C 0.91114 0.0016 0.83619 0.0
C473 C 0.89141 0.01299 0.93979 0.0
C474 C 0.93218 0.99945 0.7967 0.0
C475 C 0.95541 0.00532 0.81785 0.0
C476 C 0.91335 0.00958 0.89737 0.0
C477 C 0.95681 0.01308 0.87948 0.0
C478 C 0.89378 0.01945 0.00252 0.0
C479 C 0.84795 0.01511 0.95256 0.0
N480 N 0.9361 0.015 0.91694 0.0
N481 N 0.86856 0.0108 0.91716 0.0
H482 H 0.56505 0.81768 0.11017 0.0
H483 H 0.52364 0.87945 0.78561 0.0
H484 H 0.5122 0.78887 0.98911 0.0
H485 H 0.5638 0.9134 0.92615 0.0
H486 H 0.52557 0.84381 0.85017 0.0
H487 H 0.57083 0.85066 0.0339 0.0
C488 C 0.55488 0.81821 0.06721 0.0
C489 C 0.53789 0.80071 0.05625 0.0
C490 C 0.53414 0.85903 0.86659 0.0
C491 C 0.54437 0.83824 0.96905 0.0
C492 C 0.53319 0.87932 0.82955 0.0
C493 C 0.54334 0.89942 0.85096 0.0
C494 C 0.54545 0.85884 0.92522 0.0
C495 C 0.55537 0.89833 0.9085 0.0
C496 C 0.55809 0.83704 0.02389 0.0
C497 C 0.52513 0.80222 -8e-05 0.0
N498 N 0.55597 0.87841 0.94383 0.0
N499 N 0.52855 0.8207 0.95858 0.0
H500 H 0.70826 0.38398 0.03005 0.0
H501 H 0.63324 0.49483 0.95363 0.0
H502 H 0.71559 0.44448 0.1336 0.0
H503 H 0.63878 0.4401 0.82779 0.0
H504 H 0.66152 0.47587 0.02392 0.0
H505 H 0.68051 0.40336 0.95971 0.0
C506 C 0.70408 0.40135 0.038 0.0
C507 C 0.71443 0.41264 0.08771 0.0
C508 C 0.65666 0.46808 0.98074 0.0
C509 C 0.68241 0.43487 0.00755 0.0
C510 C 0.6405 0.47886 0.94071 0.0
C511 C 0.63368 0.46901 0.88481 0.0
C512 C 0.66587 0.44718 0.96511 0.0
C513 C 0.64377 0.4484 0.87005 0.0
C514 C 0.68819 0.41239 0.99784 0.0
C515 C 0.70788 0.435 0.09643 0.0
N516 N 0.65923 0.43809 0.91018 0.0
N517 N 0.69232 0.44539 0.05668 0.0
H518 H 0.94907 0.70064 0.94963 0.0
H519 H 0.93441 0.5664 0.94253 0.0
H520 H 0.92611 0.65645 0.11426 0.0
H521 H 0.95995 0.61069 0.78043 0.0
H522 H 0.92494 0.59953 0.0017 0.0
H523 H 0.94624 0.66852 0.88285 0.0
C524 C 0.94291 0.68428 0.97166 0.0
C525 C 0.93806 0.68125 0.03794 0.0
C526 C 0.93234 0.60202 0.95293 0.0
C527 C 0.93536 0.64417 0.9616 0.0
C528 C 0.93784 0.58311 0.9192 0.0
C529 C 0.94833 0.58578 0.85672 0.0
C530 C 0.93747 0.6238 0.92417 0.0
C531 C 0.95187 0.60781 0.82842 0.0
C532 C 0.94152 0.66587 0.93345 0.0
C533 C 0.93051 0.65952 0.06364 0.0
N534 N 0.94674 0.62597 0.86262 0.0
N535 N 0.92965 0.64178 0.02555 0.0
H536 H 0.08626 0.1314 0.36336 0.0
H537 H 0.01479 0.08062 0.67956 0.0
H538 H 0.07872 0.16697 0.53602 0.0
H539 H 0.0172 0.04682 0.50343 0.0
H540 H 0.0313 0.11525 0.62199 0.0
H541 H 0.05582 0.10282 0.40835 0.0
C542 C 0.07818 0.13317 0.41082 0.0
C543 C 0.08538 0.15134 0.44657 0.0
C544 C 0.02772 0.10046 0.59547 0.0
C545 C 0.05028 0.11884 0.49805 0.0
C546 C 0.01811 0.08073 0.62828 0.0
C547 C 0.01494 0.06081 0.5962 0.0
C548 C 0.03462 0.10014 0.53034 0.0
C549 C 0.01944 0.06183 0.52988 0.0
C550 C 0.06061 0.11699 0.4362 0.0
C551 C 0.07381 0.15318 0.50699 0.0
N552 N 0.02963 0.08106 0.49926 0.0
N553 N 0.05706 0.13697 0.53115 0.0
H554 H 0.3651 0.97201 0.43398 0.0
H555 H 0.50021 0.01512 0.47826 0.0
H556 H 0.40864 0.0119 0.28806 0.0
H557 H 0.46496 0.9608 0.59914 0.0
H558 H 0.46876 0.01048 0.40138 0.0
H559 H 0.40245 0.96394 0.48901 0.0
C560 C 0.38255 0.97873 0.41285 0.0
C561 C 0.38369 0.99306 0.35699 0.0
C562 C 0.46809 0.9992 0.44396 0.0
C563 C 0.42642 0.98411 0.42016 0.0
C564 C 0.48608 0.00184 0.48776 0.0
C565 C 0.48495 0.98843 0.54508 0.0
C566 C 0.44844 0.98347 0.45848 0.0
C567 C 0.46639 0.97144 0.5553 0.0
C568 C 0.40388 0.97414 0.44438 0.0
C569 C 0.40681 0.00134 0.332 0.0
N570 N 0.44845 0.96977 0.51299 0.0
N571 N 0.42719 0.99703 0.36424 0.0
H572 H 0.48778 0.34883 0.49803 0.0
H573 H 0.53354 0.47704 0.48758 0.0
H574 H 0.48698 0.39479 0.33099 0.0
H575 H 0.54643 0.42967 0.64477 0.0
H576 H 0.52266 0.44557 0.4235 0.0
H577 H 0.5143 0.37624 0.54764 0.0
C578 C 0.49344 0.36455 0.47146 0.0
C579 C 0.48473 0.36974 0.41079 0.0
C580 C 0.52842 0.44189 0.47143 0.0
C581 C 0.51497 0.40116 0.46727 0.0
C582 C 0.53482 0.45987 0.50776 0.0
C583 C 0.54087 0.45582 0.57122 0.0
C584 C 0.52733 0.41972 0.49951 0.0
C585 C 0.54203 0.43337 0.59568 0.0
C586 C 0.50859 0.38018 0.4998 0.0
C587 C 0.49266 0.39035 0.37858 0.0
N588 N 0.53472 0.41609 0.56019 0.0
N589 N 0.50707 0.40537 0.40746 0.0
H590 H 0.15713 0.54825 0.4473 0.0
H591 H 0.02511 0.51402 0.47248 0.0
H592 H 0.11672 0.55883 0.27704 0.0
H593 H 0.05203 0.5549 0.61879 0.0
H594 H 0.05749 0.53097 0.39776 0.0
H595 H 0.11949 0.55231 0.51158 0.0
C596 C 0.14062 0.55204 0.42307 0.0
C597 C 0.14016 0.55249 0.3562 0.0
C598 C 0.05578 0.53683 0.44556 0.0
C599 C 0.09682 0.55639 0.43022 0.0
C600 C 0.03735 0.52719 0.48798 0.0
C601 C 0.03601 0.53326 0.5513 0.0
C602 C 0.0735 0.55178 0.46777 0.0
C603 C 0.05247 0.55004 0.56991 0.0
C604 C 0.11906 0.5543 0.46009 0.0
C605 C 0.11787 0.5573 0.32832 0.0
N606 N 0.07113 0.55825 0.52879 0.0
N607 N 0.09692 0.55833 0.36544 0.0
H608 H 0.99123 0.82461 0.91746 0.0
H609 H 0.05082 0.94958 0.88591 0.0
H610 H 0.04143 0.84896 0.05209 0.0
H611 H 0.01197 0.91887 0.73711 0.0
H612 H 0.05004 0.91259 0.94524 0.0
H613 H 0.00102 0.85852 0.84782 0.0
C614 C 0.00456 0.83707 0.93183 0.0
C615 C 0.01545 0.83418 0.9905 0.0
C616 C 0.04195 0.91396 0.89926 0.0
C617 C 0.0265 0.87321 0.91181 0.0
C618 C 0.04236 0.93505 0.86545 0.0
C619 C 0.03115 0.93738 0.8069 0.0
C620 C 0.03014 0.89519 0.87437 0.0
C621 C 0.02057 0.91797 0.78243 0.0
C622 C 0.01018 0.85641 0.89216 0.0
C623 C 0.03271 0.85066 0.007 0.0
N624 N 0.02013 0.89779 0.81654 0.0
N625 N 0.03747 0.8697 0.96821 0.0
H626 H 0.65844 0.02177 0.0692 0.0
H627 H 0.57139 0.07188 0.80618 0.0
H628 H 0.66817 0.08961 0.9827 0.0
H629 H 0.56374 0.0042 0.89516 0.0
H630 H 0.60307 0.08091 0.88035 0.0
H631 H 0.62026 0.01712 0.01543 0.0
C632 C 0.65246 0.03571 0.03885 0.0
C633 C 0.66664 0.05596 0.02947 0.0
C634 C 0.5942 0.0642 0.88412 0.0
C635 C 0.62287 0.05082 0.96761 0.0
C636 C 0.57604 0.05906 0.84201 0.0
C637 C 0.56517 0.03716 0.84397 0.0
C638 C 0.60141 0.04729 0.92833 0.0
C639 C 0.57188 0.02121 0.89132 0.0
C640 C 0.63059 0.03311 0.00838 0.0
C641 C 0.65777 0.0737 0.99091 0.0
N642 N 0.58971 0.02653 0.93112 0.0
N643 N 0.63656 0.07062 0.96065 0.0
H644 H 0.52322 0.6189 0.11393 0.0
H645 H 0.48648 0.57332 0.77984 0.0
H646 H 0.48299 0.6583 0.97829 0.0
H647 H 0.54476 0.5466 0.88967 0.0
H648 H 0.48004 0.60167 0.85874 0.0
H649 H 0.52584 0.58892 0.03921 0.0
C650 C 0.51465 0.6211 0.06872 0.0
C651 C 0.50289 0.6411 0.05216 0.0
C652 C 0.4942 0.58956 0.86543 0.0
C653 C 0.50603 0.607 0.96625 0.0
C654 C 0.49786 0.57338 0.82058 0.0
C655 C 0.51628 0.55768 0.82806 0.0
C656 C 0.50884 0.5898 0.91844 0.0
C657 C 0.53048 0.5585 0.88174 0.0
C658 C 0.51634 0.60408 0.02591 0.0
C659 C 0.4924 0.6432 0.99258 0.0
N660 N 0.52643 0.57426 0.92493 0.0
N661 N 0.49422 0.62634 0.95168 0.0
H662 H 0.8968 0.42579 0.13877 0.0
H663 H 0.97519 0.41523 0.81138 0.0
H664 H 0.8895 0.36812 0.0244 0.0
H665 H 0.97059 0.47574 0.91526 0.0
H666 H 0.95087 0.39428 0.89897 0.0
H667 H 0.93129 0.44049 0.06841 0.0
C668 C 0.90273 0.41611 0.09908 0.0
C669 C 0.89015 0.39595 0.08658 0.0
C670 C 0.95552 0.41206 0.9028 0.0
C671 C 0.92937 0.41278 0.00514 0.0
C672 C 0.96944 0.42398 0.85306 0.0
C673 C 0.97456 0.44729 0.85584 0.0
C674 C 0.94701 0.42358 0.9556 0.0
C675 C 0.96672 0.45785 0.91074 0.0
C676 C 0.92239 0.42448 0.05887 0.0
C677 C 0.89874 0.38381 0.03526 0.0
N678 N 0.95323 0.44597 0.95813 0.0
N679 N 0.91764 0.39261 0.99559 0.0
H680 H 0.12009 0.13828 0.1687 0.0
H681 H 0.08586 0.10215 0.82871 0.0
H682 H 0.14221 0.17995 0.99901 0.0
H683 H 0.09586 0.05298 0.9839 0.0
H684 H 0.10473 0.13154 0.88985 0.0
H685 H 0.109 0.10729 0.10233 0.0
C686 C 0.12263 0.1408 0.11727 0.0
C687 C 0.13183 0.1616 0.08889 0.0
C688 C 0.1031 0.11428 0.91015 0.0
C689 C 0.11909 0.12645 0.01289 0.0
C690 C 0.09227 0.09757 0.87551 0.0
C691 C 0.08924 0.07523 0.9017 0.0
C692 C 0.11043 0.10866 0.97192 0.0
C693 C 0.09794 0.07004 0.96218 0.0
C694 C 0.11647 0.12312 0.07953 0.0
C695 C 0.13506 0.1641 0.02232 0.0
N696 N 0.10782 0.08672 0.99577 0.0
N697 N 0.12836 0.14677 0.9863 0.0
H698 H 0.35458 0.05112 0.9916 0.0
H699 H 0.45282 0.97674 0.82052 0.0
H700 H 0.34126 0.97971 0.96879 0.0
H701 H 0.45217 0.04943 0.78965 0.0
H702 H 0.41296 0.97715 0.87914 0.0
H703 H 0.39066 0.05069 0.91973 0.0
C704 C 0.35878 0.03539 0.97058 0.0
C705 C 0.34454 0.01539 0.98685 0.0
C706 C 0.4215 0.99298 0.8592 0.0
C707 C 0.38688 0.01473 0.90573 0.0
C708 C 0.44432 0.99279 0.8261 0.0
C709 C 0.45593 0.01311 0.80039 0.0
C710 C 0.41035 0.01367 0.86744 0.0
C711 C 0.44395 0.03337 0.80873 0.0
C712 C 0.37969 0.03516 0.92987 0.0
C713 C 0.35176 0.99549 0.95894 0.0
N714 N 0.42194 0.03315 0.84192 0.0
N715 N 0.37255 0.99561 0.9204 0.0
H716 H 0.42054 0.36023 0.9661 0.0
H717 H 0.52163 0.46042 0.88825 0.0
H718 H 0.47691 0.37959 0.09142 0.0
H719 H 0.45982 0.45158 0.77073 0.0
H720 H 0.50509 0.42981 0.96103 0.0
H721 H 0.43415 0.39245 0.89174 0.0
C722 C 0.43577 0.37116 0.97793 0.0
C723 C 0.44786 0.36691 0.03468 0.0
C724 C 0.49495 0.43451 0.91962 0.0
C725 C 0.46339 0.40366 0.95023 0.0
C726 C 0.50444 0.45205 0.87782 0.0
C727 C 0.49214 0.45852 0.8231 0.0
C728 C 0.47298 0.42302 0.90682 0.0
C729 C 0.46984 0.44712 0.81252 0.0
C730 C 0.44349 0.38952 0.93553 0.0
C731 C 0.46744 0.38167 0.04757 0.0
N732 N 0.46101 0.42973 0.85387 0.0
N733 N 0.47456 0.39925 0.00577 0.0
H734 H 0.19203 0.49779 0.90027 0.0
H735 H 0.05446 0.53331 0.84277 0.0
H736 H 0.15398 0.54635 0.00962 0.0
H737 H 0.08973 0.47882 0.75143 0.0
H738 H 0.09267 0.54206 0.89397 0.0
H739 H 0.15684 0.49492 0.83337 0.0
C740 C 0.17643 0.50809 0.90964 0.0
C741 C 0.17591 0.52217 0.96103 0.0
C742 C 0.09205 0.52825 0.8625 0.0
C743 C 0.13549 0.51887 0.88495 0.0
C744 C 0.07023 0.52321 0.83339 0.0
C745 C 0.06881 0.50517 0.79324 0.0
C746 C 0.11261 0.5152 0.85119 0.0
C747 C 0.08988 0.49276 0.78248 0.0
C748 C 0.15633 0.50642 0.87151 0.0
C749 C 0.15534 0.53539 0.97031 0.0
N750 N 0.11085 0.49796 0.81143 0.0
N751 N 0.13585 0.53321 0.93315 0.0
H752 H 0.92617 0.84386 0.27603 0.0
H753 H 0.95132 0.8987 0.60323 0.0
H754 H 0.93541 0.80606 0.45433 0.0
H755 H 0.94746 0.9377 0.42467 0.0
H756 H 0.9351 0.86536 0.55394 0.0
H757 H 0.92337 0.87855 0.33345 0.0
C758 C 0.92682 0.84276 0.32753 0.0
C759 C 0.93134 0.82215 0.36052 0.0
C760 C 0.93736 0.88124 0.52556 0.0
C761 C 0.92862 0.86171 0.42621 0.0
C762 C 0.94655 0.90025 0.55379 0.0
C763 C 0.95087 0.92075 0.51758 0.0
C764 C 0.93291 0.88265 0.46023 0.0
C765 C 0.94438 0.92207 0.45389 0.0
C766 C 0.92543 0.86259 0.36021 0.0
C767 C 0.93227 0.82169 0.42708 0.0
N768 N 0.93611 0.90311 0.42675 0.0
N769 N 0.9313 0.84122 0.45759 0.0
H770 H 0.70336 0.98956 0.40172 0.0
H771 H 0.59239 0.05042 0.57328 0.0
H772 H 0.69711 0.06189 0.40806 0.0
H773 H 0.59993 0.97811 0.59604 0.0
H774 H 0.6314 0.054 0.51304 0.0
H775 H 0.66652 0.98406 0.47385 0.0
C776 C 0.69448 0.00426 0.4187 0.0
C777 C 0.70351 0.02624 0.39868 0.0
C778 C 0.62469 0.03729 0.53121 0.0
C779 C 0.66139 0.02004 0.48081 0.0
C780 C 0.60225 0.03521 0.56556 0.0
C781 C 0.59274 0.01389 0.58962 0.0
C782 C 0.6379 0.01792 0.51994 0.0
C783 C 0.60658 0.99486 0.57826 0.0
C784 C 0.6735 0.00109 0.45996 0.0
C785 C 0.69129 0.04462 0.42274 0.0
N786 N 0.62846 0.9973 0.5438 0.0
N787 N 0.67088 0.04108 0.46193 0.0
H788 H 0.58298 0.67323 0.47565 0.0
H789 H 0.55402 0.54327 0.49155 0.0
H790 H 0.57547 0.63547 0.30785 0.0
H791 H 0.58768 0.57471 0.64669 0.0
H792 H 0.56614 0.57645 0.42116 0.0
H793 H 0.58941 0.63775 0.53759 0.0
C794 C 0.58325 0.65759 0.45152 0.0
C795 C 0.57829 0.65734 0.38661 0.0
C796 C 0.57144 0.57601 0.47015 0.0
C797 C 0.5854 0.61675 0.45717 0.0
C798 C 0.56452 0.55705 0.51021 0.0
C799 C 0.56993 0.55641 0.57461 0.0
C800 C 0.58309 0.59481 0.49528 0.0
C801 C 0.58337 0.57465 0.59698 0.0
C802 C 0.58701 0.63735 0.48684 0.0
C803 C 0.57922 0.6366 0.35764 0.0
N804 N 0.58903 0.59344 0.55763 0.0
N805 N 0.58215 0.61714 0.39336 0.0
H806 H 0.82216 0.45121 0.46496 0.0
H807 H 0.96152 0.44573 0.55405 0.0
H808 H 0.86647 0.39264 0.4513 0.0
H809 H 0.91485 0.49445 0.63821 0.0
H810 H 0.9266 0.42951 0.50457 0.0
H811 H 0.85521 0.46999 0.52058 0.0
C812 C 0.83863 0.44221 0.47429 0.0
C813 C 0.84145 0.42023 0.45366 0.0
C814 C 0.92383 0.44372 0.53392 0.0
C815 C 0.87917 0.44166 0.51597 0.0
C816 C 0.94387 0.45312 0.56214 0.0
C817 C 0.94112 0.47138 0.60112 0.0
C818 C 0.90062 0.45255 0.54405 0.0
C819 C 0.91774 0.48032 0.60874 0.0
C820 C 0.85739 0.45291 0.50603 0.0
C821 C 0.86314 0.40937 0.46712 0.0
N822 N 0.89825 0.47075 0.58048 0.0
N823 N 0.88113 0.42024 0.49679 0.0
loop_
_geom_bond_atom_site_label_1
_geom_bond_atom_site_label_2
_geom_bond_distance
_geom_bond_site_symmetry_2
_ccdc_geom_bond_type
P0 O11 1.490 . S
P0 C14 1.812 . S
P0 C20 1.803 . S
P0 C26 1.819 . S
H1 C15 0.941 . S
H2 C16 0.939 . S
H3 C18 0.940 . S
H4 C19 0.940 . S
H5 C21 0.939 . S
H6 C22 0.942 . S
H7 C24 0.940 . S
H8 C25 0.939 . S
H9 C27 0.941 . S
H10 C31 0.939 . S
O11 P0 1.490 . S
H12 C28 0.939 . S
H13 C30 0.940 1_556 S
C14 P0 1.812 . S
C14 C15 1.389 . S
C14 C19 1.391 . S
C15 H1 0.941 . S
C15 C14 1.389 . S
C15 C16 1.397 . S
C16 H2 0.939 . S
C16 C15 1.397 . S
C16 C17 1.378 . S
C17 C16 1.378 . S
C17 C18 1.378 . S
C18 H3 0.940 . S
C18 C17 1.378 . S
C18 C19 1.396 . S
C19 H4 0.940 . S
C19 C14 1.391 . S
C19 C18 1.396 . S
C20 P0 1.803 . S
C20 C21 1.378 . S
C20 C25 1.400 . S
C21 H5 0.939 . S
C21 C20 1.378 . S
C21 C22 1.361 . S
C22 H6 0.942 . S
C22 C21 1.361 . S
C22 C23 1.369 . S
C23 C22 1.369 . S
C23 C24 1.404 . S
C24 H7 0.940 . S
C24 C23 1.404 . S
C24 C25 1.389 . S
C25 H8 0.939 . S
C25 C20 1.400 . S
C25 C24 1.389 . S
C26 P0 1.819 . S
C26 C27 1.391 . S
C26 C31 1.391 . S
C27 H9 0.941 . S
C27 C26 1.391 . S
C27 C28 1.396 . S
C28 H12 0.939 . S
C28 C27 1.396 . S
C28 C29 1.397 . S
C29 C28 1.397 . S
C29 C30 1.385 . S
C30 H13 0.940 1_554 S
C30 C29 1.385 . S
C30 C31 1.388 . S
C31 H10 0.939 . S
C31 C26 1.391 . S
C31 C30 1.388 . S
P32 O43 1.489 . S
P32 C46 1.804 1_556 S
P32 C52 1.805 . S
P32 C58 1.824 . S
H33 C47 0.941 . S
H34 C48 0.939 . S
H35 C50 0.940 . S
H36 C51 0.940 . S
H37 C53 0.939 . S
H38 C54 0.942 . S
H39 C56 0.940 1_554 S
H40 C57 0.939 . S
H41 C59 0.941 . S
H42 C63 0.939 . S
O43 P32 1.489 . S
H44 C60 0.939 . S
H45 C62 0.940 . S
C46 P32 1.804 1_554 S
C46 C47 1.389 . S
C46 C51 1.391 . S
C47 H33 0.941 . S
C47 C46 1.389 . S
C47 C48 1.397 . S
C48 H34 0.939 . S
C48 C47 1.397 . S
C48 C49 1.378 . S
C49 C48 1.378 . S
C49 C50 1.378 . S
C50 H35 0.940 . S
C50 C49 1.378 . S
C50 C51 1.396 . S
C51 H36 0.940 . S
C51 C46 1.391 . S
C51 C50 1.396 . S
C52 P32 1.805 . S
C52 C53 1.378 . S
C52 C57 1.400 1_556 S
C53 H37 0.939 . S
C53 C52 1.378 . S
C53 C54 1.361 . S
C54 H38 0.942 . S
C54 C53 1.361 . S
C54 C55 1.369 . S
C55 C54 1.369 . S
C55 C56 1.404 . S
C56 H39 0.940 1_556 S
C56 C55 1.404 . S
C56 C57 1.389 1_556 S
C57 H40 0.939 . S
C57 C52 1.400 1_554 S
C57 C56 1.389 1_554 S
C58 P32 1.824 . S
C58 C59 1.391 . S
C58 C63 1.391 . S
C59 H41 0.941 . S
C59 C58 1.391 . S
C59 C60 1.396 . S
C60 H44 0.939 . S
C60 C59 1.396 . S
C60 C61 1.397 . S
C61 C60 1.397 . S
C61 C62 1.385 . S
C62 H45 0.940 . S
C62 C61 1.385 . S
C62 C63 1.388 . S
C63 H42 0.939 . S
C63 C58 1.391 . S
C63 C62 1.388 . S
P64 O75 1.490 . S
P64 C78 1.812 . S
P64 C84 1.803 . S
P64 C90 1.819 . S
H65 C79 0.941 . S
H66 C80 0.939 . S
H67 C82 0.940 . S
H68 C83 0.951 . S
H69 C85 0.939 . S
H70 C86 0.942 1_556 S
H71 C88 0.940 . S
H72 C89 0.957 . S
H73 C91 0.941 . S
H74 C95 0.928 1_565 S
O75 P64 1.490 . S
H76 C92 0.939 . S
H77 C94 0.940 . S
C78 P64 1.812 . S
C78 C79 1.389 . S
C78 C83 1.375 1_545 S
C79 H65 0.941 . S
C79 C78 1.389 . S
C79 C80 1.397 . S
C80 H66 0.939 . S
C80 C79 1.397 . S
C80 C81 1.378 . S
C81 C80 1.378 . S
C81 C82 1.378 1_545 S
C82 H67 0.940 . S
C82 C81 1.378 1_565 S
C82 C83 1.401 . S
C83 H68 0.951 . S
C83 C78 1.375 1_565 S
C83 C82 1.401 . S
C84 P64 1.803 . S
C84 C85 1.378 . S
C84 C89 1.368 1_545 S
C85 H69 0.939 . S
C85 C84 1.378 . S
C85 C86 1.361 . S
C86 H70 0.942 1_554 S
C86 C85 1.361 . S
C86 C87 1.369 . S
C87 C86 1.369 . S
C87 C88 1.404 1_545 S
C88 H71 0.940 . S
C88 C87 1.404 1_565 S
C88 C89 1.404 . S
C89 H72 0.957 . S
C89 C84 1.368 1_565 S
C89 C88 1.404 . S
C90 P64 1.819 . S
C90 C91 1.391 . S
C90 C95 1.391 1_554 S
C91 H73 0.941 . S
C91 C90 1.391 . S
C91 C92 1.396 1_554 S
C92 H76 0.939 . S
C92 C91 1.396 1_556 S
C92 C93 1.397 . S
C93 C92 1.397 . S
C93 C94 1.385 1_545 S
C94 H77 0.940 . S
C94 C93 1.385 1_565 S
C94 C95 1.388 1_565 S
C95 H74 0.928 1_545 S
C95 C90 1.391 1_556 S
C95 C94 1.388 1_545 S
P96 O107 1.490 . S
P96 C110 1.812 . S
P96 C116 1.803 . S
P96 C122 1.819 . S
H97 C111 0.941 . S
H98 C112 0.939 . S
H99 C114 0.940 . S
H100 C115 0.940 . S
H101 C117 0.939 . S
H102 C118 0.942 . S
H103 C120 0.940 . S
H104 C121 0.939 . S
H105 C123 0.941 . S
H106 C127 0.939 . S
O107 P96 1.490 . S
H108 C124 0.939 . S
H109 C126 0.940 . S
C110 P96 1.812 . S
C110 C111 1.389 . S
C110 C115 1.391 . S
C111 H97 0.941 . S
C111 C110 1.389 . S
C111 C112 1.397 . S
C112 H98 0.939 . S
C112 C111 1.397 . S
C112 C113 1.378 . S
C113 C112 1.378 . S
C113 C114 1.378 . S
C114 H99 0.940 . S
C114 C113 1.378 . S
C114 C115 1.396 . S
C115 H100 0.940 . S
C115 C110 1.391 . S
C115 C114 1.396 . S
C116 P96 1.803 . S
C116 C117 1.378 . S
C116 C121 1.400 . S
C117 H101 0.939 . S
C117 C116 1.378 . S
C117 C118 1.361 . S
C118 H102 0.942 . S
C118 C117 1.361 . S
C118 C119 1.369 . S
C119 C118 1.369 . S
C119 C120 1.404 . S
C120 H103 0.940 . S
C120 C119 1.404 . S
C120 C121 1.389 . S
C121 H104 0.939 . S
C121 C116 1.400 . S
C121 C120 1.389 . S
C122 P96 1.819 . S
C122 C123 1.391 . S
C122 C127 1.391 1_554 S
C123 H105 0.941 . S
C123 C122 1.391 . S
C123 C124 1.396 . S
C124 H108 0.939 . S
C124 C123 1.396 . S
C124 C125 1.397 1_554 S
C125 C124 1.397 1_556 S
C125 C126 1.385 . S
C126 H109 0.940 . S
C126 C125 1.385 . S
C126 C127 1.388 . S
C127 H106 0.939 . S
C127 C122 1.391 1_556 S
C127 C126 1.388 . S
P128 O139 1.490 . S
P128 C142 1.812 . S
P128 C148 1.803 . S
P128 C154 1.819 . S
H129 C143 0.941 . S
H130 C144 0.939 . S
H131 C146 0.940 . S
H132 C147 0.940 . S
H133 C149 0.939 . S
H134 C150 0.942 . S
H135 C152 0.940 . S
H136 C153 0.939 . S
H137 C155 0.941 . S
H138 C159 0.939 . S
O139 P128 1.490 . S
H140 C156 0.939 . S
H141 C158 0.940 . S
C142 P128 1.812 . S
C142 C143 1.389 . S
C142 C147 1.391 . S
C143 H129 0.941 . S
C143 C142 1.389 . S
C143 C144 1.397 . S
C144 H130 0.939 . S
C144 C143 1.397 . S
C144 C145 1.378 . S
C145 C144 1.378 . S
C145 C146 1.378 . S
C146 H131 0.940 . S
C146 C145 1.378 . S
C146 C147 1.396 . S
C147 H132 0.940 . S
C147 C142 1.391 . S
C147 C146 1.396 . S
C148 P128 1.803 . S
C148 C149 1.378 . S
C148 C153 1.400 . S
C149 H133 0.939 . S
C149 C148 1.378 . S
C149 C150 1.361 . S
C150 H134 0.942 . S
C150 C149 1.361 . S
C150 C151 1.369 . S
C151 C150 1.369 . S
C151 C152 1.404 . S
C152 H135 0.940 . S
C152 C151 1.404 . S
C152 C153 1.389 . S
C153 H136 0.939 . S
C153 C148 1.400 . S
C153 C152 1.389 . S
C154 P128 1.819 . S
C154 C155 1.391 . S
C154 C159 1.391 . S
C155 H137 0.941 . S
C155 C154 1.391 . S
C155 C156 1.396 . S
C156 H140 0.939 . S
C156 C155 1.396 . S
C156 C157 1.397 . S
C157 C156 1.397 . S
C157 C158 1.385 . S
C158 H141 0.940 . S
C158 C157 1.385 . S
C158 C159 1.388 . S
C159 H138 0.939 . S
C159 C154 1.391 . S
C159 C158 1.388 . S
P160 O171 1.490 . S
P160 C174 1.812 . S
P160 C180 1.803 . S
P160 C186 1.819 . S
H161 C175 0.941 . S
H162 C176 0.939 . S
H163 C178 0.940 . S
H164 C179 0.940 . S
H165 C181 0.939 . S
H166 C182 0.942 . S
H167 C184 0.940 . S
H168 C185 0.939 . S
H169 C187 0.941 . S
H170 C191 0.939 . S
O171 P160 1.490 . S
H172 C188 0.939 . S
H173 C190 0.940 . S
C174 P160 1.812 . S
C174 C175 1.389 . S
C174 C179 1.391 . S
C175 H161 0.941 . S
C175 C174 1.389 . S
C175 C176 1.397 . S
C176 H162 0.939 . S
C176 C175 1.397 . S
C176 C177 1.378 . S
C177 C176 1.378 . S
C177 C178 1.378 . S
C178 H163 0.940 . S
C178 C177 1.378 . S
C178 C179 1.396 . S
C179 H164 0.940 . S
C179 C174 1.391 . S
C179 C178 1.396 . S
C180 P160 1.803 . S
C180 C181 1.378 . S
C180 C185 1.400 . S
C181 H165 0.939 . S
C181 C180 1.378 . S
C181 C182 1.361 . S
C182 H166 0.942 . S
C182 C181 1.361 . S
C182 C183 1.369 . S
C183 C182 1.369 . S
C183 C184 1.404 . S
C184 H167 0.940 . S
C184 C183 1.404 . S
C184 C185 1.389 . S
C185 H168 0.939 . S
C185 C180 1.400 . S
C185 C184 1.389 . S
C186 P160 1.819 . S
C186 C187 1.391 . S
C186 C191 1.391 . S
C187 H169 0.941 . S
C187 C186 1.391 . S
C187 C188 1.396 . S
C188 H172 0.939 . S
C188 C187 1.396 . S
C188 C189 1.397 . S
C189 C188 1.397 . S
C189 C190 1.385 . S
C190 H173 0.940 . S
C190 C189 1.385 . S
C190 C191 1.388 . S
C191 H170 0.939 . S
C191 C186 1.391 . S
C191 C190 1.388 . S
P192 O203 1.490 . S
P192 C206 1.812 . S
P192 C212 1.803 . S
P192 C218 1.819 . S
H193 C207 0.941 . S
H194 C208 0.939 . S
H195 C210 0.940 . S
H196 C211 0.943 . S
H197 C213 0.939 . S
H198 C214 0.942 . S
H199 C216 0.940 . S
H200 C217 0.954 . S
H201 C219 0.941 . S
H202 C223 0.934 1_565 S
O203 P192 1.490 . S
H204 C220 0.939 . S
H205 C222 0.940 . S
C206 P192 1.812 . S
C206 C207 1.389 . S
C206 C211 1.386 1_545 S
C207 H193 0.941 . S
C207 C206 1.389 . S
C207 C208 1.397 . S
C208 H194 0.939 . S
C208 C207 1.397 . S
C208 C209 1.378 . S
C209 C208 1.378 . S
C209 C210 1.378 1_545 S
C210 H195 0.940 . S
C210 C209 1.378 1_565 S
C210 C211 1.399 . S
C211 H196 0.943 . S
C211 C206 1.386 1_565 S
C211 C210 1.399 . S
C212 P192 1.803 . S
C212 C213 1.378 . S
C212 C217 1.379 1_545 S
C213 H197 0.939 . S
C213 C212 1.378 . S
C213 C214 1.361 . S
C214 H198 0.942 . S
C214 C213 1.361 . S
C214 C215 1.369 . S
C215 C214 1.369 . S
C215 C216 1.404 1_545 S
C216 H199 0.940 . S
C216 C215 1.404 1_565 S
C216 C217 1.396 . S
C217 H200 0.954 . S
C217 C212 1.379 1_565 S
C217 C216 1.396 . S
C218 P192 1.819 . S
C218 C219 1.391 . S
C218 C223 1.391 . S
C219 H201 0.941 . S
C219 C218 1.391 . S
C219 C220 1.396 . S
C220 H204 0.939 . S
C220 C219 1.396 . S
C220 C221 1.397 . S
C221 C220 1.397 . S
C221 C222 1.385 1_545 S
C222 H205 0.940 . S
C222 C221 1.385 1_565 S
C222 C223 1.388 1_565 S
C223 H202 0.934 1_545 S
C223 C218 1.391 . S
C223 C222 1.388 1_545 S
P224 O235 1.490 . S
P224 C238 1.812 . S
P224 C244 1.803 . S
P224 C250 1.819 . S
H225 C239 0.941 . S
H226 C240 0.939 . S
H227 C242 0.940 . S
H228 C243 0.940 . S
H229 C245 0.939 . S
H230 C246 0.942 . S
H231 C248 0.940 . S
H232 C249 0.939 . S
H233 C251 0.941 . S
H234 C255 0.939 . S
O235 P224 1.490 . S
H236 C252 0.939 . S
H237 C254 0.940 . S
C238 P224 1.812 . S
C238 C239 1.389 . S
C238 C243 1.391 . S
C239 H225 0.941 . S
C239 C238 1.389 . S
C239 C240 1.397 . S
C240 H226 0.939 . S
C240 C239 1.397 . S
C240 C241 1.378 . S
C241 C240 1.378 . S
C241 C242 1.378 . S
C242 H227 0.940 . S
C242 C241 1.378 . S
C242 C243 1.396 . S
C243 H228 0.940 . S
C243 C238 1.391 . S
C243 C242 1.396 . S
C244 P224 1.803 . S
C244 C245 1.378 . S
C244 C249 1.400 . S
C245 H229 0.939 . S
C245 C244 1.378 . S
C245 C246 1.361 . S
C246 H230 0.942 . S
C246 C245 1.361 . S
C246 C247 1.369 . S
C247 C246 1.369 . S
C247 C248 1.404 . S
C248 H231 0.940 . S
C248 C247 1.404 . S
C248 C249 1.389 . S
C249 H232 0.939 . S
C249 C244 1.400 . S
C249 C248 1.389 . S
C250 P224 1.819 . S
C250 C251 1.391 . S
C250 C255 1.391 . S
C251 H233 0.941 . S
C251 C250 1.391 . S
C251 C252 1.396 . S
C252 H236 0.939 . S
C252 C251 1.396 . S
C252 C253 1.397 . S
C253 C252 1.397 . S
C253 C254 1.385 . S
C254 H237 0.940 . S
C254 C253 1.385 . S
C254 C255 1.388 . S
C255 H234 0.939 . S
C255 C250 1.391 . S
C255 C254 1.388 . S
C256 O272 1.251 . S
C256 O274 1.254 . S
N257 C258 1.330 1_655 S
N257 C262 1.317 . S
N257 Zn263 2.014 1_655 S
C258 N257 1.330 1_455 S
C258 C259 1.379 1_455 S
C258 H276 0.952 . S
C259 C258 1.379 1_655 S
C259 C260 1.390 . S
C259 H286 0.949 . S
C260 C259 1.390 . S
C260 C261 1.357 . S
C261 C260 1.357 . S
C261 C262 1.370 . S
C261 H287 0.950 . S
C262 N257 1.317 . S
C262 C261 1.370 . S
C262 H280 0.950 1_565 S
Zn263 N257 2.014 1_455 S
Zn263 O272 2.039 . S
Zn263 O278 2.034 . S
Zn263 O282 2.025 1_565 S
Zn263 O284 2.040 1_455 S
C264 O283 1.246 . S
C264 O284 1.227 1_545 S
N265 C266 1.307 . S
N265 C267 1.333 . S
N265 Zn271 2.020 . S
C266 N265 1.307 . S
C266 C270 1.370 . S
C266 H277 0.950 . S
C267 N265 1.333 . S
C267 C268 1.379 . S
C267 H275 0.952 . S
C268 C267 1.379 . S
C268 C269 1.390 . S
C268 H288 0.949 . S
C269 C268 1.390 . S
C269 C270 1.357 . S
C270 C266 1.370 . S
C270 C269 1.357 . S
C270 H289 0.950 . S
Zn271 N265 2.020 . S
Zn271 O274 2.025 1_545 S
Zn271 O279 2.024 . S
Zn271 O281 2.039 . S
Zn271 O283 2.034 1_455 S
O272 C256 1.251 . S
O272 Zn263 2.039 . S
C273 O278 1.246 . S
C273 O279 1.249 1_565 S
O274 C256 1.254 . S
O274 Zn271 2.025 1_565 S
H275 C267 0.952 . S
H276 C258 0.952 . S
H277 C266 0.950 . S
O278 Zn263 2.034 . S
O278 C273 1.246 . S
O279 Zn271 2.024 . S
O279 C273 1.249 1_545 S
H280 C262 0.950 1_545 S
O281 Zn271 2.039 . S
O281 C285 1.251 . S
O282 Zn263 2.025 1_545 S
O282 C285 1.254 . S
O283 C264 1.246 . S
O283 Zn271 2.034 1_655 S
O284 Zn263 2.040 1_655 S
O284 C264 1.227 1_565 S
C285 O281 1.251 . S
C285 O282 1.254 . S
H286 C259 0.949 . S
H287 C261 0.950 . S
H288 C268 0.949 . S
H289 C270 0.950 . S
C290 O306 1.251 1_565 S
C290 O308 1.254 . S
N291 C292 1.333 . S
N291 C296 1.307 . S
N291 Zn297 2.020 . S
C292 N291 1.333 . S
C292 C293 1.379 . S
C292 H310 0.952 . S
C293 C292 1.379 . S
C293 C294 1.390 . S
C293 H320 0.949 . S
C294 C293 1.390 . S
C294 C295 1.357 . S
C295 C294 1.357 . S
C295 C296 1.370 . S
C295 H321 0.950 . S
C296 N291 1.307 . S
C296 C295 1.370 . S
C296 H314 0.948 . S
Zn297 N291 2.020 . S
Zn297 O306 2.039 . S
Zn297 O312 2.034 . S
Zn297 O316 2.025 . S
Zn297 O318 2.024 . S
C298 O317 1.246 1_545 S
C298 O318 1.249 . S
N299 C300 1.307 . S
N299 C301 1.333 . S
N299 Zn305 2.020 . S
C300 N299 1.307 . S
C300 C304 1.370 . S
C300 H311 0.948 . S
C301 N299 1.333 . S
C301 C302 1.379 . S
C301 H309 0.952 . S
C302 C301 1.379 . S
C302 C303 1.390 . S
C302 H322 0.949 . S
C303 C302 1.390 . S
C303 C304 1.357 . S
C304 C300 1.370 . S
C304 C303 1.357 . S
C304 H323 0.950 . S
Zn305 N299 2.020 . S
Zn305 O308 2.025 . S
Zn305 O313 2.024 . S
Zn305 O315 2.039 . S
Zn305 O317 2.034 . S
O306 C290 1.251 1_545 S
O306 Zn297 2.039 . S
C307 O312 1.246 1_565 S
C307 O313 1.249 . S
O308 C290 1.254 . S
O308 Zn305 2.025 . S
H309 C301 0.952 . S
H310 C292 0.952 . S
H311 C300 0.948 . S
O312 Zn297 2.034 . S
O312 C307 1.246 1_545 S
O313 Zn305 2.024 . S
O313 C307 1.249 . S
H314 C296 0.948 . S
O315 Zn305 2.039 . S
O315 C319 1.251 1_565 S
O316 Zn297 2.025 . S
O316 C319 1.254 . S
O317 C298 1.246 1_565 S
O317 Zn305 2.034 . S
O318 Zn297 2.024 . S
O318 C298 1.249 . S
C319 O315 1.251 1_545 S
C319 O316 1.254 . S
H320 C293 0.949 . S
H321 C295 0.950 . S
H322 C302 0.949 . S
H323 C304 0.950 . S
C324 O340 1.251 . S
C324 O342 1.254 . S
N325 C326 1.333 . S
N325 C330 1.307 . S
N325 Zn331 2.020 . S
C326 N325 1.333 . S
C326 C327 1.379 . S
C326 H344 0.952 . S
C327 C326 1.379 . S
C327 C328 1.390 . S
C327 H354 0.949 . S
C328 C327 1.390 . S
C328 C329 1.357 . S
C329 C328 1.357 . S
C329 C330 1.370 . S
C329 H355 0.950 . S
C330 N325 1.307 . S
C330 C329 1.370 . S
C330 H348 0.948 . S
Zn331 N325 2.020 . S
Zn331 O340 2.039 . S
Zn331 O346 2.034 . S
Zn331 O350 2.025 . S
Zn331 O352 2.024 . S
C332 O351 1.246 . S
C332 O352 1.249 . S
N333 C334 1.307 . S
N333 C335 1.333 . S
N333 Zn339 2.020 . S
C334 N333 1.307 . S
C334 C338 1.370 . S
C334 H345 0.948 . S
C335 N333 1.333 . S
C335 C336 1.379 . S
C335 H343 0.952 . S
C336 C335 1.379 . S
C336 C337 1.390 . S
C336 H356 0.949 . S
C337 C336 1.390 . S
C337 C338 1.357 . S
C338 C334 1.370 . S
C338 C337 1.357 . S
C338 H357 0.950 . S
Zn339 N333 2.020 . S
Zn339 O342 2.025 . S
Zn339 O347 2.024 . S
Zn339 O349 2.039 . S
Zn339 O351 2.034 . S
O340 C324 1.251 . S
O340 Zn331 2.039 . S
C341 O346 1.246 . S
C341 O347 1.249 . S
O342 C324 1.254 . S
O342 Zn339 2.025 . S
H343 C335 0.952 . S
H344 C326 0.952 . S
H345 C334 0.948 . S
O346 Zn331 2.034 . S
O346 C341 1.246 . S
O347 Zn339 2.024 . S
O347 C341 1.249 . S
H348 C330 0.948 . S
O349 Zn339 2.039 . S
O349 C353 1.251 . S
O350 Zn331 2.025 . S
O350 C353 1.254 . S
O351 C332 1.246 . S
O351 Zn339 2.034 . S
O352 Zn331 2.024 . S
O352 C332 1.249 . S
C353 O349 1.251 . S
C353 O350 1.254 . S
H354 C327 0.949 . S
H355 C329 0.950 . S
H356 C336 0.949 . S
H357 C338 0.950 . S
C358 O374 1.251 . S
C358 O376 1.254 . S
N359 C360 1.333 . S
N359 C364 1.307 . S
N359 Zn365 2.020 . S
C360 N359 1.333 . S
C360 C361 1.379 . S
C360 H378 0.952 . S
C361 C360 1.379 . S
C361 C362 1.390 . S
C361 H388 0.949 . S
C362 C361 1.390 . S
C362 C363 1.357 . S
C363 C362 1.357 . S
C363 C364 1.370 . S
C363 H389 0.950 . S
C364 N359 1.307 . S
C364 C363 1.370 . S
C364 H382 0.948 . S
Zn365 N359 2.020 . S
Zn365 O374 2.039 . S
Zn365 O380 2.067 . S
Zn365 O384 2.025 1_455 S
Zn365 O386 2.024 . S
C366 O385 1.246 . S
C366 O386 1.249 . S
N367 C368 1.307 . S
N367 C369 1.333 1_455 S
N367 Zn373 2.020 . S
C368 N367 1.307 . S
C368 C372 1.370 . S
C368 H379 0.948 . S
C369 N367 1.333 1_655 S
C369 C370 1.379 . S
C369 H377 0.952 . S
C370 C369 1.379 . S
C370 C371 1.390 . S
C370 H390 0.949 . S
C371 C370 1.390 . S
C371 C372 1.357 1_655 S
C372 C368 1.370 . S
C372 C371 1.357 1_455 S
C372 H391 0.950 . S
Zn373 N367 2.020 . S
Zn373 O376 2.025 . S
Zn373 O381 2.024 1_455 S
Zn373 O383 2.039 1_455 S
Zn373 O385 2.034 . S
O374 C358 1.251 . S
O374 Zn365 2.039 . S
C375 O380 1.217 1_655 S
C375 O381 1.249 . S
O376 C358 1.254 . S
O376 Zn373 2.025 . S
H377 C369 0.952 . S
H378 C360 0.952 . S
H379 C368 0.948 . S
O380 Zn365 2.067 . S
O380 C375 1.217 1_455 S
O381 Zn373 2.024 1_655 S
O381 C375 1.249 . S
H382 C364 0.948 . S
O383 Zn373 2.039 1_655 S
O383 C387 1.251 . S
O384 Zn365 2.025 1_655 S
O384 C387 1.254 . S
O385 C366 1.246 . S
O385 Zn373 2.034 . S
O386 Zn365 2.024 . S
O386 C366 1.249 . S
C387 O383 1.251 . S
C387 O384 1.254 . S
H388 C361 0.949 . S
H389 C363 0.950 . S
H390 C370 0.949 . S
H391 C372 0.950 . S
H392 C398 0.930 . S
H393 C402 0.930 . S
H394 C407 0.929 . S
H395 C405 0.929 . S
H396 C400 0.929 . S
H397 C406 0.929 . S
C398 H392 0.930 . S
C398 C399 1.347 1_545 S
C398 C406 1.378 . S
C399 C398 1.347 1_565 S
C399 C407 1.453 . S
C400 H396 0.929 . S
C400 C402 1.378 . S
C400 C404 1.350 . S
C401 C404 1.463 . S
C401 C406 1.350 1_565 S
C401 N409 1.427 . S
C402 H393 0.930 . S
C402 C400 1.378 . S
C402 C403 1.367 . S
C403 C402 1.367 . S
C403 C405 1.433 1_565 S
C404 C400 1.350 . S
C404 C401 1.463 . S
C404 N408 1.427 1_565 S
C405 H395 0.929 . S
C405 C403 1.433 1_545 S
C405 N408 1.384 . S
C406 H397 0.929 . S
C406 C398 1.378 . S
C406 C401 1.350 1_545 S
C407 H394 0.929 . S
C407 C399 1.453 . S
C407 N409 1.384 . S
N408 C404 1.427 1_545 S
N408 C405 1.384 . S
N409 C401 1.427 . S
N409 C407 1.384 . S
H410 C416 0.930 . S
H411 C420 0.930 . S
H412 C425 0.929 . S
H413 C423 0.929 . S
H414 C418 0.929 . S
H415 C424 0.929 . S
C416 H410 0.930 . S
C416 C417 1.367 . S
C416 C424 1.378 . S
C417 C416 1.367 . S
C417 C425 1.433 . S
C418 H414 0.929 . S
C418 C420 1.378 . S
C418 C422 1.350 . S
C419 C422 1.463 . S
C419 C424 1.350 . S
C419 N427 1.427 . S
C420 H411 0.930 . S
C420 C418 1.378 . S
C420 C421 1.367 . S
C421 C420 1.367 . S
C421 C423 1.433 . S
C422 C418 1.350 . S
C422 C419 1.463 . S
C422 N426 1.427 . S
C423 H413 0.929 . S
C423 C421 1.433 . S
C423 N426 1.384 . S
C424 H415 0.929 . S
C424 C416 1.378 . S
C424 C419 1.350 . S
C425 H412 0.929 . S
C425 C417 1.433 . S
C425 N427 1.384 . S
N426 C422 1.427 . S
N426 C423 1.384 . S
N427 C419 1.427 . S
N427 C425 1.384 . S
H428 C434 0.930 . S
H429 C438 0.930 . S
H430 C443 0.929 . S
H431 C441 0.929 . S
H432 C436 0.929 . S
H433 C442 0.929 . S
C434 H428 0.930 . S
C434 C435 1.367 . S
C434 C442 1.378 . S
C435 C434 1.367 . S
C435 C443 1.433 . S
C436 H432 0.929 . S
C436 C438 1.378 . S
C436 C440 1.350 . S
C437 C440 1.463 . S
C437 C442 1.350 . S
C437 N445 1.427 . S
C438 H429 0.930 . S
C438 C436 1.378 . S
C438 C439 1.367 . S
C439 C438 1.367 . S
C439 C441 1.433 . S
C440 C436 1.350 . S
C440 C437 1.463 . S
C440 N444 1.427 . S
C441 H431 0.929 . S
C441 C439 1.433 . S
C441 N444 1.384 . S
C442 H433 0.929 . S
C442 C434 1.378 . S
C442 C437 1.350 . S
C443 H430 0.929 . S
C443 C435 1.433 . S
C443 N445 1.384 . S
N444 C440 1.427 . S
N444 C441 1.384 . S
N445 C437 1.427 . S
N445 C443 1.384 . S
H446 C452 0.930 . S
H447 C456 0.930 . S
H448 C461 0.929 . S
H449 C459 0.929 . S
H450 C454 0.929 . S
H451 C460 0.929 . S
C452 H446 0.930 . S
C452 C453 1.367 . S
C452 C460 1.378 . S
C453 C452 1.367 . S
C453 C461 1.433 . S
C454 H450 0.929 . S
C454 C456 1.378 . S
C454 C458 1.350 . S
C455 C458 1.463 . S
C455 C460 1.350 . S
C455 N463 1.427 . S
C456 H447 0.930 . S
C456 C454 1.378 . S
C456 C457 1.367 . S
C457 C456 1.367 . S
C457 C459 1.433 . S
C458 C454 1.350 . S
C458 C455 1.463 . S
C458 N462 1.427 . S
C459 H449 0.929 . S
C459 C457 1.433 . S
C459 N462 1.384 . S
C460 H451 0.929 . S
C460 C452 1.378 . S
C460 C455 1.350 . S
C461 H448 0.929 . S
C461 C453 1.433 . S
C461 N463 1.384 . S
N462 C458 1.427 . S
N462 C459 1.384 . S
N463 C455 1.427 . S
N463 C461 1.384 . S
H464 C470 0.930 1_554 S
H465 C474 0.930 . S
H466 C479 0.929 . S
H467 C477 0.929 . S
H468 C472 0.929 . S
H469 C478 0.929 . S
C470 H464 0.930 1_556 S
C470 C471 1.339 1_565 S
C470 C478 1.378 . S
C471 C470 1.339 1_545 S
C471 C479 1.462 . S
C472 H468 0.929 . S
C472 C474 1.378 . S
C472 C476 1.350 . S
C473 C476 1.463 . S
C473 C478 1.350 1_545 S
C473 N481 1.427 . S
C474 H465 0.930 . S
C474 C472 1.378 . S
C474 C475 1.367 . S
C475 C474 1.367 . S
C475 C477 1.433 1_545 S
C476 C472 1.350 . S
C476 C473 1.463 . S
C476 N480 1.427 1_545 S
C477 H467 0.929 . S
C477 C475 1.433 1_565 S
C477 N480 1.384 . S
C478 H469 0.929 . S
C478 C470 1.378 . S
C478 C473 1.350 1_565 S
C479 H466 0.929 . S
C479 C471 1.462 . S
C479 N481 1.384 . S
N480 C476 1.427 1_565 S
N480 C477 1.384 . S
N481 C473 1.427 . S
N481 C479 1.384 . S
H482 C488 0.930 . S
H483 C492 0.930 . S
H484 C497 0.929 . S
H485 C495 0.929 . S
H486 C490 0.929 . S
H487 C496 0.929 . S
C488 H482 0.930 . S
C488 C489 1.367 . S
C488 C496 1.378 1_554 S
C489 C488 1.367 . S
C489 C497 1.433 1_554 S
C490 H486 0.929 . S
C490 C492 1.378 . S
C490 C494 1.350 . S
C491 C494 1.463 . S
C491 C496 1.350 . S
C491 N499 1.427 . S
C492 H483 0.930 . S
C492 C490 1.378 . S
C492 C493 1.367 . S
C493 C492 1.367 . S
C493 C495 1.433 . S
C494 C490 1.350 . S
C494 C491 1.463 . S
C494 N498 1.427 . S
C495 H485 0.929 . S
C495 C493 1.433 . S
C495 N498 1.384 . S
C496 H487 0.929 . S
C496 C488 1.378 1_556 S
C496 C491 1.350 . S
C497 H484 0.929 . S
C497 C489 1.433 1_556 S
C497 N499 1.384 . S
N498 C494 1.427 . S
N498 C495 1.384 . S
N499 C491 1.427 . S
N499 C497 1.384 . S
H500 C506 0.930 . S
H501 C510 0.930 . S
H502 C515 0.929 . S
H503 C513 0.929 . S
H504 C508 0.929 . S
H505 C514 0.929 1_556 S
C506 H500 0.930 . S
C506 C507 1.367 . S
C506 C514 1.378 . S
C507 C506 1.367 . S
C507 C515 1.433 . S
C508 H504 0.929 . S
C508 C510 1.378 . S
C508 C512 1.350 . S
C509 C512 1.463 . S
C509 C514 1.350 1_556 S
C509 N517 1.427 . S
C510 H501 0.930 . S
C510 C508 1.378 . S
C510 C511 1.367 . S
C511 C510 1.367 . S
C511 C513 1.433 . S
C512 C508 1.350 . S
C512 C509 1.463 . S
C512 N516 1.427 . S
C513 H503 0.929 . S
C513 C511 1.433 . S
C513 N516 1.384 . S
C514 H505 0.929 1_554 S
C514 C506 1.378 . S
C514 C509 1.350 1_554 S
C515 H502 0.929 . S
C515 C507 1.433 . S
C515 N517 1.384 1_554 S
N516 C512 1.427 . S
N516 C513 1.384 . S
N517 C509 1.427 . S
N517 C515 1.384 1_556 S
H518 C524 0.930 . S
H519 C528 0.930 . S
H520 C533 0.929 . S
H521 C531 0.929 . S
H522 C526 0.929 . S
H523 C532 0.929 . S
C524 H518 0.930 . S
C524 C525 1.367 . S
C524 C532 1.378 . S
C525 C524 1.367 . S
C525 C533 1.433 . S
C526 H522 0.929 . S
C526 C528 1.378 . S
C526 C530 1.350 . S
C527 C530 1.463 . S
C527 C532 1.350 . S
C527 N535 1.427 . S
C528 H519 0.930 . S
C528 C526 1.378 . S
C528 C529 1.367 . S
C529 C528 1.367 . S
C529 C531 1.433 . S
C530 C526 1.350 . S
C530 C527 1.463 . S
C530 N534 1.427 . S
C531 H521 0.929 . S
C531 C529 1.433 . S
C531 N534 1.384 . S
C532 H523 0.929 . S
C532 C524 1.378 . S
C532 C527 1.350 . S
C533 H520 0.929 . S
C533 C525 1.433 . S
C533 N535 1.384 . S
N534 C530 1.427 . S
N534 C531 1.384 . S
N535 C527 1.427 . S
N535 C533 1.384 . S
H536 C542 0.930 . S
H537 C546 0.930 . S
H538 C551 0.929 . S
H539 C549 0.929 . S
H540 C544 0.929 . S
H541 C550 0.929 . S
C542 H536 0.930 . S
C542 C543 1.367 . S
C542 C550 1.378 . S
C543 C542 1.367 . S
C543 C551 1.433 . S
C544 H540 0.929 . S
C544 C546 1.378 . S
C544 C548 1.350 . S
C545 C548 1.463 . S
C545 C550 1.350 . S
C545 N553 1.427 . S
C546 H537 0.930 . S
C546 C544 1.378 . S
C546 C547 1.367 . S
C547 C546 1.367 . S
C547 C549 1.433 . S
C548 C544 1.350 . S
C548 C545 1.463 . S
C548 N552 1.427 . S
C549 H539 0.929 . S
C549 C547 1.433 . S
C549 N552 1.384 . S
C550 H541 0.929 . S
C550 C542 1.378 . S
C550 C545 1.350 . S
C551 H538 0.929 . S
C551 C543 1.433 . S
C551 N553 1.384 . S
N552 C548 1.427 . S
N552 C549 1.384 . S
N553 C545 1.427 . S
N553 C551 1.384 . S
H554 C560 0.930 . S
H555 C564 0.930 . S
H556 C569 0.929 . S
H557 C567 0.929 . S
H558 C562 0.929 . S
H559 C568 0.929 . S
C560 H554 0.930 . S
C560 C561 1.398 . S
C560 C568 1.378 . S
C561 C560 1.398 . S
C561 C569 1.398 1_545 S
C562 H558 0.929 . S
C562 C564 1.378 . S
C562 C566 1.350 . S
C563 C566 1.463 . S
C563 C568 1.350 1_565 S
C563 N571 1.427 . S
C564 H555 0.930 . S
C564 C562 1.378 . S
C564 C565 1.367 . S
C565 C564 1.367 . S
C565 C567 1.433 1_565 S
C566 C562 1.350 . S
C566 C563 1.463 . S
C566 N570 1.427 1_565 S
C567 H557 0.929 . S
C567 C565 1.433 1_545 S
C567 N570 1.384 . S
C568 H559 0.929 . S
C568 C560 1.378 . S
C568 C563 1.350 1_545 S
C569 H556 0.929 . S
C569 C561 1.398 1_565 S
C569 N571 1.384 . S
N570 C566 1.427 1_545 S
N570 C567 1.384 . S
N571 C563 1.427 . S
N571 C569 1.384 . S
H572 C578 0.930 . S
H573 C582 0.930 . S
H574 C587 0.929 . S
H575 C585 0.929 . S
H576 C580 0.929 . S
H577 C586 0.929 . S
C578 H572 0.930 . S
C578 C579 1.367 . S
C578 C586 1.378 . S
C579 C578 1.367 . S
C579 C587 1.433 . S
C580 H576 0.929 . S
C580 C582 1.378 . S
C580 C584 1.350 . S
C581 C584 1.463 . S
C581 C586 1.350 . S
C581 N589 1.427 . S
C582 H573 0.930 . S
C582 C580 1.378 . S
C582 C583 1.367 . S
C583 C582 1.367 . S
C583 C585 1.433 . S
C584 C580 1.350 . S
C584 C581 1.463 . S
C584 N588 1.427 . S
C585 H575 0.929 . S
C585 C583 1.433 . S
C585 N588 1.384 . S
C586 H577 0.929 . S
C586 C578 1.378 . S
C586 C581 1.350 . S
C587 H574 0.929 . S
C587 C579 1.433 . S
C587 N589 1.384 . S
N588 C584 1.427 . S
N588 C585 1.384 . S
N589 C581 1.427 . S
N589 C587 1.384 . S
H590 C596 0.930 . S
H591 C600 0.930 . S
H592 C605 0.929 . S
H593 C603 0.929 . S
H594 C598 0.929 . S
H595 C604 0.929 . S
C596 H590 0.930 . S
C596 C597 1.367 . S
C596 C604 1.378 . S
C597 C596 1.367 . S
C597 C605 1.433 . S
C598 H594 0.929 . S
C598 C600 1.378 . S
C598 C602 1.350 . S
C599 C602 1.463 . S
C599 C604 1.350 . S
C599 N607 1.427 . S
C600 H591 0.930 . S
C600 C598 1.378 . S
C600 C601 1.367 . S
C601 C600 1.367 . S
C601 C603 1.433 . S
C602 C598 1.350 . S
C602 C599 1.463 . S
C602 N606 1.427 . S
C603 H593 0.929 . S
C603 C601 1.433 . S
C603 N606 1.384 . S
C604 H595 0.929 . S
C604 C596 1.378 . S
C604 C599 1.350 . S
C605 H592 0.929 . S
C605 C597 1.433 . S
C605 N607 1.384 . S
N606 C602 1.427 . S
N606 C603 1.384 . S
N607 C599 1.427 . S
N607 C605 1.384 . S
H608 C614 0.930 . S
H609 C618 0.930 . S
H610 C623 0.929 . S
H611 C621 0.928 1_455 S
H612 C616 0.929 . S
H613 C622 0.929 . S
C614 H608 0.930 . S
C614 C615 1.367 . S
C614 C622 1.378 . S
C615 C614 1.367 . S
C615 C623 1.433 . S
C616 H612 0.929 . S
C616 C618 1.378 1_655 S
C616 C620 1.350 . S
C617 C620 1.463 . S
C617 C622 1.350 . S
C617 N625 1.427 . S
C618 H609 0.930 . S
C618 C616 1.378 1_455 S
C618 C619 1.367 . S
C619 C618 1.367 . S
C619 C621 1.426 1_455 S
C620 C616 1.350 . S
C620 C617 1.463 . S
C620 N624 1.427 . S
C621 H611 0.928 1_655 S
C621 C619 1.426 1_655 S
C621 N624 1.392 . S
C622 H613 0.929 . S
C622 C614 1.378 . S
C622 C617 1.350 . S
C623 H610 0.929 . S
C623 C615 1.433 . S
C623 N625 1.384 . S
N624 C620 1.427 . S
N624 C621 1.392 . S
N625 C617 1.427 . S
N625 C623 1.384 . S
H626 C632 0.930 . S
H627 C636 0.930 . S
H628 C641 0.929 . S
H629 C639 0.929 . S
H630 C634 0.929 . S
H631 C640 0.929 . S
C632 H626 0.930 . S
C632 C633 1.390 . S
C632 C640 1.378 . S
C633 C632 1.390 . S
C633 C641 1.407 1_565 S
C634 H630 0.929 . S
C634 C636 1.378 . S
C634 C638 1.350 . S
C635 C638 1.463 . S
C635 C640 1.350 1_545 S
C635 N643 1.427 . S
C636 H627 0.930 . S
C636 C634 1.378 . S
C636 C637 1.367 . S
C637 C636 1.367 . S
C637 C639 1.433 1_545 S
C638 C634 1.350 . S
C638 C635 1.463 . S
C638 N642 1.427 1_545 S
C639 H629 0.929 . S
C639 C637 1.433 1_565 S
C639 N642 1.384 . S
C640 H631 0.929 . S
C640 C632 1.378 . S
C640 C635 1.350 1_565 S
C641 H628 0.929 . S
C641 C633 1.407 1_545 S
C641 N643 1.384 . S
N642 C638 1.427 1_565 S
N642 C639 1.384 . S
N643 C635 1.427 . S
N643 C641 1.384 . S
H644 C650 0.930 1_554 S
H645 C654 0.930 . S
H646 C659 0.929 . S
H647 C657 0.929 . S
H648 C652 0.929 . S
H649 C658 0.929 . S
C650 H644 0.930 1_556 S
C650 C651 1.367 . S
C650 C658 1.378 . S
C651 C650 1.367 . S
C651 C659 1.433 . S
C652 H648 0.929 . S
C652 C654 1.378 . S
C652 C656 1.350 . S
C653 C656 1.463 . S
C653 C658 1.350 . S
C653 N661 1.427 . S
C654 H645 0.930 . S
C654 C652 1.378 . S
C654 C655 1.367 . S
C655 C654 1.367 . S
C655 C657 1.433 . S
C656 C652 1.350 . S
C656 C653 1.463 . S
C656 N660 1.427 . S
C657 H647 0.929 . S
C657 C655 1.433 . S
C657 N660 1.384 . S
C658 H649 0.929 . S
C658 C650 1.378 . S
C658 C653 1.350 . S
C659 H646 0.929 . S
C659 C651 1.433 . S
C659 N661 1.384 . S
N660 C656 1.427 . S
N660 C657 1.384 . S
N661 C653 1.427 . S
N661 C659 1.384 . S
H662 C668 0.930 . S
H663 C672 0.930 . S
H664 C677 0.929 . S
H665 C675 0.929 . S
H666 C670 0.929 . S
H667 C676 0.929 . S
C668 H662 0.930 . S
C668 C669 1.367 . S
C668 C676 1.378 . S
C669 C668 1.367 . S
C669 C677 1.433 . S
C670 H666 0.929 . S
C670 C672 1.378 . S
C670 C674 1.350 . S
C671 C674 1.463 . S
C671 C676 1.350 . S
C671 N679 1.427 . S
C672 H663 0.930 . S
C672 C670 1.378 . S
C672 C673 1.367 . S
C673 C672 1.367 . S
C673 C675 1.433 . S
C674 C670 1.350 . S
C674 C671 1.463 . S
C674 N678 1.427 . S
C675 H665 0.929 . S
C675 C673 1.433 . S
C675 N678 1.384 . S
C676 H667 0.929 . S
C676 C668 1.378 . S
C676 C671 1.350 . S
C677 H664 0.929 . S
C677 C669 1.433 . S
C677 N679 1.384 . S
N678 C674 1.427 . S
N678 C675 1.384 . S
N679 C671 1.427 . S
N679 C677 1.384 . S
H680 C686 0.930 . S
H681 C690 0.930 . S
H682 C695 0.929 . S
H683 C693 0.929 . S
H684 C688 0.929 . S
H685 C694 0.929 . S
C686 H680 0.930 . S
C686 C687 1.367 . S
C686 C694 1.378 . S
C687 C686 1.367 . S
C687 C695 1.433 . S
C688 H684 0.929 . S
C688 C690 1.378 . S
C688 C692 1.350 1_556 S
C689 C692 1.463 . S
C689 C694 1.350 . S
C689 N697 1.427 . S
C690 H681 0.930 . S
C690 C688 1.378 . S
C690 C691 1.367 . S
C691 C690 1.367 . S
C691 C693 1.433 1_556 S
C692 C688 1.350 1_554 S
C692 C689 1.463 . S
C692 N696 1.427 . S
C693 H683 0.929 . S
C693 C691 1.433 1_554 S
C693 N696 1.384 . S
C694 H685 0.929 . S
C694 C686 1.378 . S
C694 C689 1.350 . S
C695 H682 0.929 . S
C695 C687 1.433 . S
C695 N697 1.384 . S
N696 C692 1.427 . S
N696 C693 1.384 . S
N697 C689 1.427 . S
N697 C695 1.384 . S
H698 C704 0.930 . S
H699 C708 0.930 . S
H700 C713 0.929 . S
H701 C711 0.929 . S
H702 C706 0.929 . S
H703 C712 0.929 . S
C704 H698 0.930 . S
C704 C705 1.401 . S
C704 C712 1.378 . S
C705 C704 1.401 . S
C705 C713 1.397 1_545 S
C706 H702 0.929 . S
C706 C708 1.378 . S
C706 C710 1.350 1_565 S
C707 C710 1.463 . S
C707 C712 1.350 1_556 S
C707 N715 1.427 1_545 S
C708 H699 0.930 . S
C708 C706 1.378 . S
C708 C709 1.367 1_565 S
C709 C708 1.367 1_545 S
C709 C711 1.433 . S
C710 C706 1.350 1_545 S
C710 C707 1.463 . S
C710 N714 1.427 . S
C711 H701 0.929 . S
C711 C709 1.433 . S
C711 N714 1.384 . S
C712 H703 0.929 . S
C712 C704 1.378 . S
C712 C707 1.350 1_554 S
C713 H700 0.929 . S
C713 C705 1.397 1_565 S
C713 N715 1.384 1_554 S
N714 C710 1.427 . S
N714 C711 1.384 . S
N715 C707 1.427 1_565 S
N715 C713 1.384 1_556 S
H716 C722 0.930 . S
H717 C726 0.930 . S
H718 C731 0.929 . S
H719 C729 0.929 . S
H720 C724 0.929 . S
H721 C730 0.929 . S
C722 H716 0.930 . S
C722 C723 1.367 . S
C722 C730 1.378 1_554 S
C723 C722 1.367 . S
C723 C731 1.433 . S
C724 H720 0.929 . S
C724 C726 1.378 . S
C724 C728 1.350 . S
C725 C728 1.463 . S
C725 C730 1.350 . S
C725 N733 1.427 1_556 S
C726 H717 0.930 . S
C726 C724 1.378 . S
C726 C727 1.367 . S
C727 C726 1.367 . S
C727 C729 1.433 . S
C728 C724 1.350 . S
C728 C725 1.463 . S
C728 N732 1.427 . S
C729 H719 0.929 . S
C729 C727 1.433 . S
C729 N732 1.384 . S
C730 H721 0.929 . S
C730 C722 1.378 1_556 S
C730 C725 1.350 . S
C731 H718 0.929 . S
C731 C723 1.433 . S
C731 N733 1.384 . S
N732 C728 1.427 . S
N732 C729 1.384 . S
N733 C725 1.427 1_554 S
N733 C731 1.384 . S
H734 C740 0.930 . S
H735 C744 0.930 . S
H736 C749 0.929 . S
H737 C747 0.929 . S
H738 C742 0.929 . S
H739 C748 0.929 . S
C740 H734 0.930 . S
C740 C741 1.367 1_556 S
C740 C748 1.378 . S
C741 C740 1.367 1_554 S
C741 C749 1.433 . S
C742 H738 0.929 . S
C742 C744 1.378 . S
C742 C746 1.350 . S
C743 C746 1.463 . S
C743 C748 1.350 . S
C743 N751 1.427 1_556 S
C744 H735 0.930 . S
C744 C742 1.378 . S
C744 C745 1.367 . S
C745 C744 1.367 . S
C745 C747 1.433 . S
C746 C742 1.350 . S
C746 C743 1.463 . S
C746 N750 1.427 . S
C747 H737 0.929 . S
C747 C745 1.433 . S
C747 N750 1.384 . S
C748 H739 0.929 . S
C748 C740 1.378 . S
C748 C743 1.350 . S
C749 H736 0.929 . S
C749 C741 1.433 . S
C749 N751 1.384 . S
N750 C746 1.427 . S
N750 C747 1.384 . S
N751 C743 1.427 1_554 S
N751 C749 1.384 . S
H752 C758 0.930 . S
H753 C762 0.930 . S
H754 C767 0.929 . S
H755 C765 0.929 1_455 S
H756 C760 0.929 . S
H757 C766 0.929 . S
C758 H752 0.930 . S
C758 C759 1.367 . S
C758 C766 1.378 . S
C759 C758 1.367 . S
C759 C767 1.433 . S
C760 H756 0.929 . S
C760 C762 1.378 . S
C760 C764 1.350 . S
C761 C764 1.463 . S
C761 C766 1.350 . S
C761 N769 1.427 . S
C762 H753 0.930 . S
C762 C760 1.378 . S
C762 C763 1.367 . S
C763 C762 1.367 . S
C763 C765 1.433 . S
C764 C760 1.350 . S
C764 C761 1.463 . S
C764 N768 1.427 . S
C765 H755 0.929 1_655 S
C765 C763 1.433 . S
C765 N768 1.384 . S
C766 H757 0.929 . S
C766 C758 1.378 . S
C766 C761 1.350 . S
C767 H754 0.929 . S
C767 C759 1.433 . S
C767 N769 1.384 . S
N768 C764 1.427 . S
N768 C765 1.384 . S
N769 C761 1.427 . S
N769 C767 1.384 . S
H770 C776 0.930 . S
H771 C780 0.930 . S
H772 C785 0.929 . S
H773 C783 0.929 . S
H774 C778 0.929 . S
H775 C784 0.929 . S
C776 H770 0.930 . S
C776 C777 1.400 . S
C776 C784 1.378 . S
C777 C776 1.400 . S
C777 C785 1.398 1_565 S
C778 H774 0.929 . S
C778 C780 1.378 . S
C778 C782 1.350 1_545 S
C779 C782 1.463 . S
C779 C784 1.350 . S
C779 N787 1.427 1_565 S
C780 H771 0.930 . S
C780 C778 1.378 . S
C780 C781 1.367 1_545 S
C781 C780 1.367 1_565 S
C781 C783 1.433 . S
C782 C778 1.350 1_565 S
C782 C779 1.463 . S
C782 N786 1.427 . S
C783 H773 0.929 . S
C783 C781 1.433 . S
C783 N786 1.384 . S
C784 H775 0.929 . S
C784 C776 1.378 . S
C784 C779 1.350 . S
C785 H772 0.929 . S
C785 C777 1.398 1_545 S
C785 N787 1.384 . S
N786 C782 1.427 . S
N786 C783 1.384 . S
N787 C779 1.427 1_545 S
N787 C785 1.384 . S
H788 C794 0.930 . S
H789 C798 0.930 . S
H790 C803 0.929 . S
H791 C801 0.929 . S
H792 C796 0.929 . S
H793 C802 0.929 . S
C794 H788 0.930 . S
C794 C795 1.367 . S
C794 C802 1.378 . S
C795 C794 1.367 . S
C795 C803 1.433 . S
C796 H792 0.929 . S
C796 C798 1.378 . S
C796 C800 1.350 . S
C797 C800 1.463 . S
C797 C802 1.350 . S
C797 N805 1.427 . S
C798 H789 0.930 . S
C798 C796 1.378 . S
C798 C799 1.367 . S
C799 C798 1.367 . S
C799 C801 1.433 . S
C800 C796 1.350 . S
C800 C797 1.463 . S
C800 N804 1.427 . S
C801 H791 0.929 . S
C801 C799 1.433 . S
C801 N804 1.384 . S
C802 H793 0.929 . S
C802 C794 1.378 . S
C802 C797 1.350 . S
C803 H790 0.929 . S
C803 C795 1.433 . S
C803 N805 1.384 . S
N804 C800 1.427 . S
N804 C801 1.384 . S
N805 C797 1.427 . S
N805 C803 1.384 . S
H806 C812 0.930 . S
H807 C816 0.930 . S
H808 C821 0.929 . S
H809 C819 0.929 . S
H810 C814 0.929 . S
H811 C820 0.929 . S
C812 H806 0.930 . S
C812 C813 1.367 . S
C812 C820 1.378 . S
C813 C812 1.367 . S
C813 C821 1.433 . S
C814 H810 0.929 . S
C814 C816 1.378 . S
C814 C818 1.350 . S
C815 C818 1.463 . S
C815 C820 1.350 . S
C815 N823 1.427 . S
C816 H807 0.930 . S
C816 C814 1.378 . S
C816 C817 1.367 . S
C817 C816 1.367 . S
C817 C819 1.433 . S
C818 C814 1.350 . S
C818 C815 1.463 . S
C818 N822 1.427 . S
C819 H809 0.929 . S
C819 C817 1.433 . S
C819 N822 1.384 . S
C820 H811 0.929 . S
C820 C812 1.378 . S
C820 C815 1.350 . S
C821 H808 0.929 . S
C821 C813 1.433 . S
C821 N823 1.384 . S
N822 C818 1.427 . S
N822 C819 1.384 . S
N823 C815 1.427 . S
N823 C821 1.384 . S
C399 C215 1.822 1_565 S
C403 C273 1.856 . S
C421 C294 1.647 . S
C417 C247 1.645 . S
C439 C328 1.474 . S
C435 C151 1.412 . S
C457 C362 1.639 . S
C453 C183 1.644 . S
C475 C264 1.857 . S
C471 C87 1.819 1_556 S
C489 C119 1.565 . S
C493 C303 1.656 . S
C507 C23 1.464 . S
C511 C337 1.474 . S
C525 C55 1.527 . S
C529 C371 1.634 . S
C547 C285 0.537 . S
C543 C189 0.509 . S
C565 C290 0.566 . S
C561 C221 0.582 . S
C583 C324 0.647 . S
C579 C253 0.644 . S
C597 C157 0.472 . S
C601 C358 0.180 . S
C615 C61 0.749 . S
C619 C256 0.573 . S
C637 C319 0.566 . S
C633 C93 0.582 1_565 S
C655 C353 0.648 . S
C651 C125 0.684 . S
C669 C29 0.205 1_556 S
C673 C387 0.179 . S
C687 C177 1.543 . S
C691 C269 1.573 . S
C705 C209 1.896 . S
C709 C298 1.981 . S
C727 C332 1.723 . S
C723 C241 1.680 . S
C745 C366 1.762 . S
C741 C145 1.631 . S
C759 C49 1.450 . S
C763 C260 1.584 . S
C781 C307 1.983 . S
C777 C81 1.902 1_565 S
C799 C341 1.724 . S
C795 C113 1.606 . S
C813 C17 1.715 . S
C817 C375 1.760 . S
