# Generated by pormake.
# Topology rtl, (3,6)-cn, num edge types: 1
# Building blocks:
#     Node 0, Type 0, BuildingBlock: CUQRIR_clean_linker_1, # of connection points: 3
#     Node 1, Type 0, BuildingBlock: CUQRIR_clean_linker_1, # of connection points: 3
#     Node 2, Type 0, BuildingBlock: CUQRIR_clean_linker_1, # of connection points: 3
#     Node 3, Type 0, BuildingBlock: CUQRIR_clean_linker_1, # of connection points: 3
#     Node 4, Type 1, BuildingBlock: KUMBOL_clean_sbu_1, # of connection points: 6
#     Node 5, Type 1, BuildingBlock: KUMBOL_clean_sbu_1, # of connection points: 6
#     Edge 6, Type (0, 1), BuildingBlock: EZIPEK_clean_linker_0, # of connection points: 2
#     Edge 7, Type (0, 1), BuildingBlock: EZIPEK_clean_linker_0, # of connection points: 2
#     Edge 8, Type (0, 1), BuildingBlock: EZIPEK_clean_linker_0, # of connection points: 2
#     Edge 9, Type (0, 1), BuildingBlock: EZIPEK_clean_linker_0, # of connection points: 2
#     Edge 10, Type (0, 1), BuildingBlock: EZIPEK_clean_linker_0, # of connection points: 2
#     Edge 11, Type (0, 1), BuildingBlock: EZIPEK_clean_linker_0, # of connection points: 2
#     Edge 12, Type (0, 1), BuildingBlock: EZIPEK_clean_linker_0, # of connection points: 2
#     Edge 13, Type (0, 1), BuildingBlock: EZIPEK_clean_linker_0, # of connection points: 2
#     Edge 14, Type (0, 1), BuildingBlock: EZIPEK_clean_linker_0, # of connection points: 2
#     Edge 15, Type (0, 1), BuildingBlock: EZIPEK_clean_linker_0, # of connection points: 2
#     Edge 16, Type (0, 1), BuildingBlock: EZIPEK_clean_linker_0, # of connection points: 2
#     Edge 17, Type (0, 1), BuildingBlock: EZIPEK_clean_linker_0, # of connection points: 2
# Relax obj value: 0.067
# Max RMSD: 0.251
# Mean RMSD: 0.191
data_MOF--net-rtl--node1-KUMBOL_clean_sbu_1--node2-CUQRIR_clean_linker_1--edge1-EZIPEK_clean_linker_0
_symmetry_space_group_name_H-M    P1
_symmetry_Int_Tables_number       1
_symmetry_cell_setting            triclinic
loop_
_symmetry_equiv_pos_as_xyz
'x, y, z'
_cell_length_a     23.784581
_cell_length_b     24.293107
_cell_length_c     18.442382
_cell_angle_alpha  71.454642
_cell_angle_beta   97.792799
_cell_angle_gamma 91.320176
loop_
_atom_site_label
_atom_site_type_symbol
_atom_site_fract_x
_atom_site_fract_y
_atom_site_fract_z
_atom_type_partial_charge
C0 C 0.26612 0.81799 0.98422 0.0
N1 N 0.21769 0.84092 0.99428 0.0
N2 N 0.28559 0.77274 0.04723 0.0
C3 C 0.29443 0.84115 0.91271 0.0
C4 C 0.24773 0.77034 0.09709 0.0
N5 N 0.20662 0.81202 0.06507 0.0
C6 C 0.25064 0.72755 0.17703 0.0
H7 H 0.26428 0.83981 0.86218 0.0
H8 H 0.33416 0.81712 0.91584 0.0
H9 H 0.30457 0.88743 0.90378 0.0
H10 H 0.27238 0.74776 0.21905 0.0
H11 H 0.27443 0.68745 0.18219 0.0
H12 H 0.2074 0.71609 0.19223 0.0
C13 C 0.74029 0.74259 0.75672 0.0
N14 N 0.69616 0.70886 0.74446 0.0
N15 N 0.75457 0.77822 0.68868 0.0
C16 C 0.77029 0.73887 0.83535 0.0
C17 C 0.71711 0.76453 0.63484 0.0
N18 N 0.68247 0.72177 0.66844 0.0
C19 C 0.71446 0.79214 0.54892 0.0
H20 H 0.74627 0.76529 0.86045 0.0
H21 H 0.81413 0.75517 0.83232 0.0
H22 H 0.77156 0.69333 0.8744 0.0
H23 H 0.73646 0.76328 0.52519 0.0
H24 H 0.73463 0.83521 0.53421 0.0
H25 H 0.66964 0.79729 0.52118 0.0
C26 C 0.78066 0.21589 0.19903 0.0
N27 N 0.81721 0.17963 0.18562 0.0
N28 N 0.74855 0.24651 0.13299 0.0
C29 C 0.77723 0.22262 0.27648 0.0
C30 C 0.76703 0.22796 0.07819 0.0
N31 N 0.80982 0.18791 0.10986 0.0
C32 C 0.74399 0.25 0.99399 0.0
H33 H 0.74472 0.19289 0.3044 0.0
H34 H 0.76465 0.2677 0.27054 0.0
H35 H 0.81847 0.2111 0.31398 0.0
H36 H 0.7646 0.29144 0.96656 0.0
H37 H 0.69765 0.25888 0.98674 0.0
H38 H 0.75251 0.21837 0.96447 0.0
C39 C 0.30603 0.27551 0.4198 0.0
N40 N 0.33881 0.31996 0.42881 0.0
N41 N 0.27152 0.25827 0.47551 0.0
C42 C 0.30758 0.24921 0.35654 0.0
C43 C 0.28413 0.29411 0.51818 0.0
N44 N 0.32524 0.33117 0.49056 0.0
C45 C 0.25788 0.29156 0.58897 0.0
H46 H 0.27618 0.27254 0.30656 0.0
H47 H 0.29626 0.20273 0.376 0.0
H48 H 0.35003 0.2536 0.337 0.0
H49 H 0.28679 0.26676 0.64109 0.0
H50 H 0.21622 0.27005 0.58927 0.0
H51 H 0.25223 0.33593 0.59204 0.0
C52 C 0.95073 0.19687 0.51901 0.0
C53 C 0.84934 0.19551 0.47815 0.0
C54 C 0.90026 0.16645 0.5195 0.0
C55 C 0.84978 0.25492 0.43631 0.0
C56 C 0.95111 0.25659 0.47668 0.0
C57 C 0.90054 0.2852 0.43495 0.0
N58 N 0.99913 0.16853 0.56091 0.0
C59 C 0.04802 0.19835 0.56727 0.0
C60 C 1.00211 0.28626 0.47887 0.0
C61 C 0.05062 0.25712 0.52497 0.0
Gd62 Gd 0.06296 0.95385 0.54564 0.0
Gd63 Gd 0.98962 0.06984 0.62928 0.0
N64 N 0.90081 0.10884 0.56087 0.0
C65 C 0.79919 0.16416 0.48038 0.0
C66 C 0.85151 0.07853 0.56442 0.0
C67 C 0.80035 0.10549 0.52357 0.0
H68 H 0.85036 0.03383 0.59964 0.0
H69 H 0.76159 0.0811 0.52637 0.0
H70 H 0.19048 0.01225 0.52739 0.0
H71 H 0.08513 0.17756 0.60596 0.0
H72 H 0.28999 0.98879 0.58706 0.0
H73 H 0.75926 0.185 0.44959 0.0
H74 H 0.81098 0.27791 0.40469 0.0
H75 H 0.99233 0.82617 0.60187 0.0
H76 H 1.00409 0.33203 0.44691 0.0
H77 H 0.08983 0.28015 0.52907 0.0
H78 H 0.28336 0.79485 0.76122 0.0
H79 H 0.90007 0.33103 0.40233 0.0
H80 H 0.10481 0.70036 0.7689 0.0
H81 H 1.00962 0.72867 0.69471 0.0
N82 N 0.07455 0.85691 0.62944 0.0
C83 C 0.12811 0.84099 0.66628 0.0
C84 C 0.03304 0.8163 0.6368 0.0
C85 C 0.09693 0.74422 0.7298 0.0
C86 C 0.04313 0.76008 0.68827 0.0
C87 C 0.14061 0.78427 0.7176 0.0
H88 H 0.20675 0.72525 0.79256 0.0
N89 N 0.15853 0.93426 0.59821 0.0
C90 C 0.17142 0.88046 0.64945 0.0
C91 C 0.27073 0.90439 0.66181 0.0
C92 C 0.22794 0.86424 0.68305 0.0
C93 C 0.20048 0.97187 0.57312 0.0
C94 C 0.25699 0.95819 0.60584 0.0
O95 O 0.9797 0.08814 0.50147 0.0
O96 O 0.97924 0.99881 0.48158 0.0
O97 O 0.09601 0.97582 0.43578 0.0
O98 O 0.06264 0.89073 0.48454 0.0
O99 O 0.93875 0.98826 0.63969 0.0
O100 O 0.97937 0.92492 0.5883 0.0
O101 O 0.10266 0.96739 0.65729 0.0
O102 O 0.02359 0.98228 0.70712 0.0
O103 O 0.93468 0.08611 0.70599 0.0
O104 O 0.02407 0.10394 0.72118 0.0
O105 O 0.08576 0.04809 0.50401 0.0
O106 O 0.08265 0.07913 0.60909 0.0
C107 C 0.96527 0.05464 0.45883 0.0
C108 C 0.93912 0.9398 0.62155 0.0
C109 C 0.05761 0.92654 0.3492 0.0
C110 C 0.06433 0.90281 0.23161 0.0
C111 C 0.97851 0.94868 0.2457 0.0
C112 C 1.0026 0.94936 0.31898 0.0
C113 C 1.00911 0.92538 0.20221 0.0
C114 C 0.08818 0.90327 0.30544 0.0
C115 C 0.08402 0.92584 0.4263 0.0
C116 C 0.24018 0.80817 0.735 0.0
C117 C 0.19655 0.76853 0.75292 0.0
H118 H 0.31463 0.89364 0.68656 0.0
C119 C 0.07656 0.96524 0.71635 0.0
C120 C 0.10453 0.08095 0.54602 0.0
C121 C 0.9773 0.07724 0.83286 0.0
C122 C 0.94575 0.08146 0.95181 0.0
C123 C 0.01699 0.0098 0.95688 0.0
C124 C 0.01345 0.03008 0.87644 0.0
C125 C 0.98391 0.03587 0.9945 0.0
C126 C 0.94282 0.10223 0.87081 0.0
C127 C 0.976 0.10192 0.74836 0.0
H128 H 0.93603 0.96624 0.22254 0.0
H129 H 0.97835 0.9674 0.35199 0.0
H130 H 0.98985 0.92479 0.1458 0.0
H131 H 0.1308 0.88578 0.32854 0.0
H132 H 0.04573 0.97405 0.99018 0.0
H133 H 0.03926 0.00937 0.84836 0.0
H134 H 0.98773 0.02057 0.05682 0.0
H135 H 0.91435 0.13834 0.83764 0.0
C136 C 0.71665 0.54149 0.1576 0.0
C137 C 0.73692 0.63949 0.08033 0.0
C138 C 0.69864 0.59846 0.11767 0.0
C139 C 0.7932 0.62225 0.0823 0.0
C140 C 0.77375 0.52467 0.16214 0.0
C141 C 0.81158 0.56504 0.12319 0.0
N142 N 0.67892 0.50307 0.19385 0.0
C143 C 0.69701 0.44914 0.24195 0.0
C144 C 0.79144 0.46805 0.20683 0.0
C145 C 0.75312 0.43046 0.24794 0.0
Gd146 Gd 0.46933 0.48431 0.02302 0.0
Gd147 Gd 0.5848 0.53856 0.17383 0.0
N148 N 0.64363 0.61379 0.11551 0.0
C149 C 0.71761 0.69683 0.04276 0.0
C150 C 0.62525 0.67012 0.08219 0.0
C151 C 0.66178 0.71235 0.04466 0.0
H152 H 0.58224 0.68252 0.08356 0.0
H153 H 0.64677 0.75678 1.0169 0.0
H154 H 0.52004 0.35244 0.04672 0.0
H155 H 0.66804 0.41991 0.27514 0.0
H156 H 0.49412 0.24995 0.10356 0.0
H157 H 0.74571 0.72961 1.01337 0.0
H158 H 0.82307 0.65306 0.05336 0.0
H159 H 0.34658 0.56315 0.98857 0.0
H160 H 0.83487 0.45342 0.21155 0.0
H161 H 0.76677 0.38711 0.28431 0.0
H162 H 0.30968 0.26264 0.1767 0.0
H163 H 0.85542 0.55268 0.12538 0.0
H164 H 0.22081 0.45117 0.09879 0.0
H165 H 0.25042 0.54902 0.02514 0.0
N166 N 0.37377 0.47548 0.04708 0.0
C167 C 0.35698 0.42081 0.08295 0.0
C168 C 0.3353 0.52073 0.02333 0.0
C169 C 0.26363 0.45738 0.0842 0.0
C170 C 0.28021 0.51266 0.04279 0.0
C171 C 0.30172 0.41033 0.10326 0.0
H172 H 0.24367 0.34437 0.15639 0.0
N173 N 0.44574 0.38635 0.07048 0.0
C174 C 0.39393 0.37471 0.0943 0.0
C175 C 0.41424 0.27178 0.13167 0.0
C176 C 0.37707 0.31709 0.12672 0.0
C177 C 0.48058 0.34261 0.07051 0.0
C178 C 0.46578 0.28463 0.10206 0.0
O179 O 0.60255 0.55878 0.04993 0.0
O180 O 0.51409 0.56894 0.97867 0.0
O181 O 0.48762 0.45626 0.92736 0.0
O182 O 0.41484 0.51187 0.91333 0.0
O183 O 0.51331 0.60438 0.11749 0.0
O184 O 0.44272 0.56378 0.04973 0.0
O185 O 0.47924 0.4343 0.15032 0.0
O186 O 0.49761 0.5073 0.20348 0.0
O187 O 0.59731 0.5964 0.24369 0.0
O188 O 0.60706 0.50361 0.29817 0.0
O189 O 0.56072 0.45226 0.04592 0.0
O190 O 0.58695 0.44568 0.17337 0.0
C191 C 0.5691 0.57588 0.98359 0.0
C192 C 0.46186 0.60423 0.08017 0.0
C193 C 0.40667 0.44531 0.84423 0.0
C194 C 0.38112 0.4114 0.73365 0.0
C195 C 0.32829 0.37968 0.84303 0.0
C196 C 0.36263 0.41276 0.87982 0.0
C197 C 0.33741 0.37896 0.77031 0.0
C198 C 0.41594 0.44461 0.77082 0.0
C199 C 0.44198 0.48105 0.88261 0.0
C200 C 0.32322 0.30662 0.1509 0.0
C201 C 0.28565 0.35317 0.13933 0.0
H202 H 0.40286 0.22686 0.15608 0.0
C203 C 0.4753 0.45713 0.20499 0.0
C204 C 0.59257 0.42984 0.11279 0.0
C205 C 0.57389 0.55801 0.37073 0.0
C206 C 0.56831 0.59283 0.48042 0.0
C207 C 0.4947 0.53149 0.44489 0.0
C208 C 0.5227 0.52888 0.38405 0.0
C209 C 0.51751 0.56291 0.49326 0.0
C210 C 0.59624 0.59022 0.41883 0.0
C211 C 0.6054 0.55407 0.30867 0.0
H212 H 0.29442 0.3547 0.87084 0.0
H213 H 0.35434 0.41335 0.93563 0.0
H214 H 0.31037 0.35296 0.74243 0.0
H215 H 0.44976 0.46966 0.74274 0.0
H216 H 0.4555 0.50853 0.45511 0.0
H217 H 0.50467 0.50362 0.34815 0.0
H218 H 0.49578 0.56367 0.54092 0.0
H219 H 0.63585 0.61264 0.40913 0.0
C220 C 0.18605 0.2094 0.43579 0.0
C221 C 0.23327 0.21007 0.49056 0.0
C222 C 0.20072 0.12081 0.58009 0.0
C223 C 0.15386 0.11967 0.52368 0.0
N224 N 0.1257 0.14642 0.38485 0.0
N225 N 0.29487 0.15734 0.60499 0.0
C226 C 0.15319 0.15885 0.44738 0.0
C227 C 0.24342 0.16298 0.5601 0.0
N228 N 0.17158 0.25736 0.37338 0.0
N229 N 0.20579 0.0803 0.65159 0.0
H230 H 0.32753 0.18627 0.58946 0.0
H231 H 0.30711 0.12133 0.65305 0.0
H232 H 0.18081 0.04364 0.66431 0.0
H233 H 0.23439 0.08343 0.6981 0.0
H234 H 0.13438 0.26003 0.33512 0.0
H235 H 0.19366 0.29602 0.36477 0.0
H236 H 0.12791 0.17299 0.32842 0.0
H237 H 0.10792 0.10642 0.38789 0.0
C238 C 0.37663 0.72272 0.11719 0.0
C239 C 0.33188 0.73264 0.05521 0.0
C240 C 0.38308 0.67299 1.00072 0.0
C241 C 0.42136 0.65294 0.07023 0.0
N242 N 0.44482 0.65171 0.20333 0.0
N243 N 0.28648 0.70335 0.9484 0.0
C244 C 0.41595 0.67605 0.13111 0.0
C245 C 0.33319 0.70352 1.00009 0.0
N246 N 0.38213 0.75821 0.16189 0.0
N247 N 0.39483 0.66482 0.93439 0.0
H248 H 0.24794 0.72258 0.94881 0.0
H249 H 0.2847 0.67858 0.9112 0.0
H250 H 0.43283 0.64613 0.93062 0.0
H251 H 0.36952 0.68277 0.88142 0.0
H252 H 0.41676 0.75536 0.20427 0.0
H253 H 0.35518 0.79409 0.15075 0.0
H254 H 0.43801 0.66479 0.25014 0.0
H255 H 0.47021 0.61437 0.21902 0.0
C256 C 0.8085 0.86319 0.70787 0.0
C257 C 0.80177 0.81757 0.67532 0.0
C258 C 0.87656 0.85893 0.59722 0.0
C259 C 0.89094 0.89835 0.63985 0.0
N260 N 0.87813 0.92089 0.75638 0.0
N261 N 0.8447 0.7621 0.60906 0.0
C262 C 0.85905 0.89594 0.7012 0.0
C263 C 0.84081 0.81214 0.62661 0.0
N264 N 0.76659 0.87621 0.74369 0.0
N265 N 0.89349 0.86695 0.52677 0.0
H266 H 0.8215 0.72566 0.63364 0.0
H267 H 0.87564 0.75523 0.5776 0.0
H268 H 0.91508 0.90307 0.49744 0.0
H269 H 0.87969 0.84057 0.49322 0.0
H270 H 0.76827 0.91205 0.76343 0.0
H271 H 0.72795 0.85495 0.74585 0.0
H272 H 0.85704 0.91666 0.80384 0.0
H273 H 0.91853 0.93782 0.7616 0.0
C274 C 0.65686 0.27894 0.15501 0.0
C275 C 0.70854 0.29261 0.12418 0.0
C276 C 0.68468 0.39624 0.08565 0.0
C277 C 0.63411 0.38279 0.12045 0.0
N278 N 0.57957 0.31159 0.20501 0.0
N279 N 0.77854 0.36332 0.07839 0.0
C280 C 0.6225 0.32416 0.16047 0.0
C281 C 0.72433 0.35108 0.09418 0.0
N282 N 0.6403 0.22253 0.17767 0.0
N283 N 0.6955 0.45226 0.04563 0.0
H284 H 0.80895 0.33099 0.08647 0.0
H285 H 0.79491 0.40495 0.06457 0.0
H286 H 0.67013 0.48702 0.04363 0.0
H287 H 0.728 0.46395 1.01139 0.0
H288 H 0.60044 0.21001 0.19376 0.0
H289 H 0.66487 0.18878 0.17379 0.0
H290 H 0.5732 0.2702 0.24205 0.0
H291 H 0.55251 0.34326 0.20896 0.0
C292 C 0.18691 0.88263 0.12978 0.0
C293 C 0.16995 0.83385 0.1067 0.0
C294 C 0.08413 0.82751 0.16932 0.0
C295 C 0.09849 0.88026 0.18466 0.0
N296 N 0.15751 0.96455 0.16418 0.0
N297 N 0.10177 0.76049 0.10089 0.0
C298 C 0.14809 0.90981 0.16018 0.0
C299 C 0.11807 0.80667 0.12503 0.0
N300 N 0.24147 0.90096 0.12678 0.0
N301 N 0.04001 0.79584 0.20048 0.0
H302 H 0.12848 0.74091 0.07561 0.0
H303 H 0.06141 0.74305 0.10338 0.0
H304 H 0.01478 0.80922 0.23406 0.0
H305 H 0.03092 0.75427 0.19817 0.0
H306 H 0.25798 0.93279 0.14996 0.0
H307 H 0.27184 0.8801 0.10833 0.0
H308 H 0.19023 0.99016 0.14007 0.0
H309 H 0.12936 0.98656 0.18457 0.0
C310 C 0.67016 0.6151 0.83432 0.0
C311 C 0.66179 0.67571 0.80181 0.0
C312 C 0.58824 0.67194 0.88529 0.0
C313 C 0.59469 0.61046 0.91395 0.0
N314 N 0.62719 0.52398 0.89378 0.0
N315 N 0.61087 0.76279 0.79132 0.0
C316 C 0.63131 0.58214 0.8819 0.0
C317 C 0.61984 0.70439 0.82557 0.0
N318 N 0.71725 0.58933 0.82366 0.0
N319 N 0.55325 0.69926 0.91661 0.0
H320 H 0.63552 0.78792 0.7508 0.0
H321 H 0.57741 0.786 0.79954 0.0
H322 H 0.52854 0.67674 0.95863 0.0
H323 H 0.55085 0.74404 0.9046 0.0
H324 H 0.72784 0.54555 0.85129 0.0
H325 H 0.74919 0.61355 0.79563 0.0
H326 H 0.64974 0.50203 0.86633 0.0
H327 H 0.5963 0.49944 0.92375 0.0
C328 C 0.91244 0.1632 0.26025 0.0
C329 C 0.85815 0.14172 0.24435 0.0
C330 C 0.87576 0.05965 0.36504 0.0
C331 C 0.92976 0.08237 0.3826 0.0
N332 N 0.99552 0.16155 0.35152 0.0
N333 N 0.78395 0.07513 0.28472 0.0
C334 C 0.94733 0.13533 0.33091 0.0
C335 C 0.83917 0.09064 0.29687 0.0
N336 N 0.92947 0.21255 0.20877 0.0
N337 N 0.85765 0.01066 0.41618 0.0
H338 H 0.7558 0.09824 0.23688 0.0
H339 H 0.76448 0.04215 0.32373 0.0
H340 H 0.87698 0.99387 0.47295 0.0
H341 H 0.82352 0.98646 0.40272 0.0
H342 H 0.97126 0.22624 0.20895 0.0
H343 H 0.90153 0.239 0.16359 0.0
H344 H 1.00637 0.20382 0.32259 0.0
H345 H 0.02356 0.14294 0.40105 0.0
C346 C 0.39998 0.33461 0.59535 0.0
C347 C 0.35754 0.36418 0.53403 0.0
C348 C 0.35363 0.44229 0.59116 0.0
C349 C 0.3893 0.40807 0.65687 0.0
N350 N 0.46265 0.33516 0.71079 0.0
N351 N 0.29521 0.4466 0.47071 0.0
C352 C 0.41864 0.35916 0.65444 0.0
C353 C 0.33636 0.41946 0.5296 0.0
N354 N 0.4169 0.27972 0.60213 0.0
N355 N 0.33517 0.49547 0.58976 0.0
H356 H 0.28026 0.42873 0.42771 0.0
H357 H 0.27416 0.48492 0.46573 0.0
H358 H 0.34797 0.51196 0.63509 0.0
H359 H 0.31115 0.5248 0.54258 0.0
H360 H 0.44294 0.25297 0.64964 0.0
H361 H 0.40079 0.25888 0.56283 0.0
H362 H 0.48915 0.302 0.70967 0.0
H363 H 0.4759 0.35272 0.75495 0.0
C364 C 0.67813 0.63804 0.6189 0.0
C365 C 0.65045 0.6856 0.62924 0.0
C366 C 0.56789 0.67436 0.53949 0.0
C367 C 0.59441 0.62429 0.53392 0.0
N368 N 0.6669 0.55122 0.57953 0.0
N369 N 0.56767 0.74637 0.6059 0.0
C370 C 0.64744 0.60401 0.5777 0.0
C371 C 0.59454 0.7025 0.59201 0.0
N372 N 0.73482 0.62817 0.64337 0.0
N373 N 0.51917 0.69685 0.49154 0.0
H374 H 0.58784 0.7695 0.64047 0.0
H375 H 0.52492 0.75745 0.58727 0.0
H376 H 0.4995 0.67821 0.45121 0.0
H377 H 0.50052 0.73627 0.48732 0.0
H378 H 0.75908 0.59903 0.62901 0.0
H379 H 0.7588 0.65319 0.67203 0.0
H380 H 0.7033 0.53001 0.61442 0.0
H381 H 0.7033 0.53001 0.61442 0.0
C382 C 0.83002 0.10508 0.06556 0.0
C383 C 0.84323 0.1614 0.06913 0.0
C384 C 0.92287 0.16521 0.99583 0.0
C385 C 0.91009 0.10873 0.99232 0.0
N386 N 0.85311 0.02318 0.02489 0.0
N387 N 0.89043 0.25144 1.01755 0.0
C388 C 0.86408 0.07804 0.02775 0.0
C389 C 0.88634 0.19328 0.02858 0.0
N390 N 0.78208 0.07981 0.0933 0.0
N391 N 0.97159 0.19106 0.97119 0.0
H392 H 0.864 0.27387 0.03948 0.0
H393 H 0.91636 0.27852 0.98076 0.0
H394 H 0.99989 0.17189 0.94738 0.0
H395 H 0.98672 0.22905 0.98083 0.0
H396 H 0.76719 0.0399 0.0905 0.0
H397 H 0.75412 0.1015 0.11426 0.0
H398 H 0.8241 0.99572 0.0552 0.0
H399 H 0.8745 0.0038 0.99325 0.0
C400 C 0.43129 0.33892 0.37772 0.0
C401 C 0.37401 0.3554 0.37426 0.0
C402 C 0.38496 0.44253 0.26465 0.0
C403 C 0.44224 0.42598 0.26811 0.0
N404 N 0.52394 0.36692 0.33869 0.0
N405 N 0.29212 0.41243 0.30067 0.0
C406 C 0.46659 0.3765 0.32779 0.0
C407 C 0.34973 0.40468 0.31423 0.0
N408 N 0.45043 0.28508 0.42414 0.0
N409 N 0.36467 0.49525 0.21556 0.0
H410 H 0.265 0.3839 0.33383 0.0
H411 H 0.27089 0.44385 0.25289 0.0
H412 H 0.3894 0.52411 0.17879 0.0
H413 H 0.32515 0.51257 0.2161 0.0
H414 H 0.49024 0.26792 0.42476 0.0
H415 H 0.42369 0.25465 0.45495 0.0
H416 H 0.54534 0.33492 0.38562 0.0
H417 H 0.55098 0.39495 0.30478 0.0
C418 C 0.18249 0.9349 0.89936 0.0
C419 C 0.1764 0.87423 0.93166 0.0
C420 C 0.0966 0.87634 0.83121 0.0
C421 C 0.10602 0.93584 0.79505 0.0
N422 N 0.1468 0.02548 0.80342 0.0
N423 N 0.13553 0.78525 0.92017 0.0
C424 C 0.1459 0.96629 0.83167 0.0
C425 C 0.1349 0.84452 0.89612 0.0
N426 N 0.22578 0.96149 0.93096 0.0
N427 N 0.05042 0.85042 0.80433 0.0
H428 H 0.16458 0.76026 0.96528 0.0
H429 H 0.11102 0.76078 0.89106 0.0
H430 H 0.02154 0.8724 0.7566 0.0
H431 H 0.0378 0.80879 0.83333 0.0
H432 H 0.23693 0.00444 0.90675 0.0
H433 H 0.25361 0.93895 0.97948 0.0
H434 H 0.17088 0.05142 0.83053 0.0
H435 H 0.11948 0.04933 0.75518 0.0
loop_
_geom_bond_atom_site_label_1
_geom_bond_atom_site_label_2
_geom_bond_distance
_geom_bond_site_symmetry_2
_ccdc_geom_bond_type
C0 N1 1.317 . S
C0 N2 1.348 1_556 S
C0 C3 1.485 . S
N1 C0 1.317 . S
N1 N5 1.370 1_556 S
N2 C0 1.348 1_554 S
N2 C4 1.346 . S
C3 C0 1.485 . S
C3 H7 0.960 . S
C3 H8 0.961 . S
C3 H9 0.960 . S
C4 N2 1.346 . S
C4 N5 1.307 . S
C4 C6 1.486 . S
N5 N1 1.370 1_554 S
N5 C4 1.307 . S
C6 C4 1.486 . S
C6 H10 0.960 . S
C6 H11 0.960 . S
C6 H12 0.959 . S
H7 C3 0.960 . S
H8 C3 0.961 . S
H9 C3 0.960 . S
H10 C6 0.960 . S
H11 C6 0.960 . S
H12 C6 0.959 . S
C13 N14 1.317 . S
C13 N15 1.348 . S
C13 C16 1.485 . S
N14 C13 1.317 . S
N14 N18 1.370 . S
N15 C13 1.348 . S
N15 C17 1.346 . S
C16 C13 1.485 . S
C16 H20 0.960 . S
C16 H21 0.961 . S
C16 H22 0.960 . S
C17 N15 1.346 . S
C17 N18 1.307 . S
C17 C19 1.486 . S
N18 N14 1.370 . S
N18 C17 1.307 . S
C19 C17 1.486 . S
C19 H23 0.960 . S
C19 H24 0.960 . S
C19 H25 0.959 . S
H20 C16 0.960 . S
H21 C16 0.961 . S
H22 C16 0.960 . S
H23 C19 0.960 . S
H24 C19 0.960 . S
H25 C19 0.959 . S
C26 N27 1.317 . S
C26 N28 1.348 . S
C26 C29 1.485 . S
N27 C26 1.317 . S
N27 N31 1.370 . S
N28 C26 1.348 . S
N28 C30 1.346 . S
C29 C26 1.485 . S
C29 H33 0.960 . S
C29 H34 0.961 . S
C29 H35 0.960 . S
C30 N28 1.346 . S
C30 N31 1.307 . S
C30 C32 1.486 1_554 S
N31 N27 1.370 . S
N31 C30 1.307 . S
C32 C30 1.486 1_556 S
C32 H36 0.960 . S
C32 H37 0.960 . S
C32 H38 0.959 . S
H33 C29 0.960 . S
H34 C29 0.961 . S
H35 C29 0.960 . S
H36 C32 0.960 . S
H37 C32 0.960 . S
H38 C32 0.959 . S
C39 N40 1.317 . S
C39 N41 1.348 . S
C39 C42 1.485 . S
N40 C39 1.317 . S
N40 N44 1.370 . S
N41 C39 1.348 . S
N41 C43 1.346 . S
C42 C39 1.485 . S
C42 H46 0.960 . S
C42 H47 0.961 . S
C42 H48 0.960 . S
C43 N41 1.346 . S
C43 N44 1.307 . S
C43 C45 1.486 . S
N44 N40 1.370 . S
N44 C43 1.307 . S
C45 C43 1.486 . S
C45 H49 0.960 . S
C45 H50 0.960 . S
C45 H51 0.959 . S
H46 C42 0.960 . S
H47 C42 0.961 . S
H48 C42 0.960 . S
H49 C45 0.960 . S
H50 C45 0.960 . S
H51 C45 0.959 . S
C52 C54 1.422 . S
C52 C56 1.415 . S
C52 N58 1.369 . S
C53 C54 1.421 . S
C53 C55 1.417 . S
C53 C65 1.422 . S
C54 C52 1.422 . S
C54 C53 1.421 . S
C54 N64 1.359 . S
C55 C53 1.417 . S
C55 C57 1.329 . S
C55 H74 0.930 . S
C56 C52 1.415 . S
C56 C57 1.437 . S
C56 C60 1.413 . S
C57 C55 1.329 . S
C57 C56 1.437 . S
C57 H79 0.929 . S
N58 C52 1.369 . S
N58 C59 1.338 1_655 S
N58 Gd63 2.622 . S
C59 N58 1.338 1_455 S
C59 C61 1.378 . S
C59 H71 0.929 . S
C60 C56 1.413 . S
C60 C61 1.348 1_655 S
C60 H76 0.931 . S
C61 C59 1.378 . S
C61 C60 1.348 1_455 S
C61 H77 0.930 . S
Gd62 N82 2.622 . S
Gd62 N89 2.570 . S
Gd62 O96 2.353 1_465 S
Gd62 O97 2.468 . S
Gd62 O98 2.427 . S
Gd62 O100 2.388 1_455 S
Gd62 O101 2.386 . S
Gd62 O105 2.307 1_565 S
Gd62 C115 2.805 . S
Gd63 N58 2.622 . S
Gd63 N64 2.570 . S
Gd63 O95 2.386 . S
Gd63 O99 2.307 1_545 S
Gd63 O102 2.353 1_655 S
Gd63 O103 2.468 . S
Gd63 O104 2.427 . S
Gd63 O106 2.388 1_655 S
Gd63 C127 2.805 . S
N64 C54 1.359 . S
N64 Gd63 2.570 . S
N64 C66 1.343 . S
C65 C53 1.422 . S
C65 C67 1.321 . S
C65 H73 0.931 . S
C66 N64 1.343 . S
C66 C67 1.390 . S
C66 H68 0.931 . S
C67 C65 1.321 . S
C67 C66 1.390 . S
C67 H69 0.930 . S
H68 C66 0.931 . S
H69 C67 0.930 . S
H70 C93 0.931 . S
H71 C59 0.929 . S
H72 C94 0.930 . S
H73 C65 0.931 . S
H74 C55 0.930 . S
H75 C84 0.929 1_655 S
H76 C60 0.931 . S
H77 C61 0.930 . S
H78 C116 0.930 . S
H79 C57 0.929 . S
H80 C85 0.931 . S
H81 C86 0.930 1_655 S
N82 Gd62 2.622 . S
N82 C83 1.369 . S
N82 C84 1.338 . S
C83 N82 1.369 . S
C83 C87 1.415 . S
C83 C90 1.422 . S
C84 H75 0.929 1_455 S
C84 N82 1.338 . S
C84 C86 1.378 . S
C85 H80 0.931 . S
C85 C86 1.348 . S
C85 C87 1.413 . S
C86 H81 0.930 1_455 S
C86 C84 1.378 . S
C86 C85 1.348 . S
C87 C83 1.415 . S
C87 C85 1.413 . S
C87 C117 1.437 . S
H88 C117 0.929 . S
N89 Gd62 2.570 . S
N89 C90 1.359 . S
N89 C93 1.343 . S
C90 C83 1.422 . S
C90 N89 1.359 . S
C90 C92 1.421 . S
C91 C92 1.422 . S
C91 C94 1.321 . S
C91 H118 0.931 . S
C92 C90 1.421 . S
C92 C91 1.422 . S
C92 C116 1.417 . S
C93 H70 0.931 . S
C93 N89 1.343 . S
C93 C94 1.390 . S
C94 H72 0.930 . S
C94 C91 1.321 . S
C94 C93 1.390 . S
O95 Gd63 2.386 . S
O95 C107 1.265 . S
O96 Gd62 2.353 1_645 S
O96 C107 1.242 . S
O97 Gd62 2.468 . S
O97 C115 1.263 . S
O98 Gd62 2.427 . S
O98 C115 1.252 . S
O99 Gd63 2.307 1_565 S
O99 C108 1.261 . S
O100 Gd62 2.388 1_655 S
O100 C108 1.252 . S
O101 Gd62 2.386 . S
O101 C119 1.265 . S
O102 Gd63 2.353 1_455 S
O102 C119 1.242 1_545 S
O103 Gd63 2.468 . S
O103 C127 1.263 . S
O104 Gd63 2.427 . S
O104 C127 1.252 . S
O105 Gd62 2.307 1_545 S
O105 C120 1.261 . S
O106 Gd63 2.388 1_455 S
O106 C120 1.252 . S
C107 O95 1.265 . S
C107 O96 1.242 . S
C108 O99 1.261 . S
C108 O100 1.252 . S
C109 C112 1.394 . S
C109 C114 1.370 . S
C109 C115 1.500 . S
C110 C113 1.383 . S
C110 C114 1.395 . S
C111 C112 1.396 . S
C111 C113 1.365 . S
C111 H128 0.929 . S
C112 C109 1.394 . S
C112 C111 1.396 . S
C112 H129 0.930 . S
C113 C110 1.383 . S
C113 C111 1.365 . S
C113 H130 0.931 . S
C114 C109 1.370 . S
C114 C110 1.395 . S
C114 H131 0.930 . S
C115 Gd62 2.805 . S
C115 O97 1.263 . S
C115 O98 1.252 . S
C115 C109 1.500 . S
C116 H78 0.930 . S
C116 C92 1.417 . S
C116 C117 1.329 . S
C117 C87 1.437 . S
C117 H88 0.929 . S
C117 C116 1.329 . S
H118 C91 0.931 . S
C119 O101 1.265 . S
C119 O102 1.242 1_565 S
C120 O105 1.261 . S
C120 O106 1.252 . S
C121 C124 1.394 . S
C121 C126 1.370 . S
C121 C127 1.500 . S
C122 C125 1.383 . S
C122 C126 1.395 . S
C123 C124 1.396 . S
C123 C125 1.365 . S
C123 H132 0.929 . S
C124 C121 1.394 . S
C124 C123 1.396 . S
C124 H133 0.930 . S
C125 C122 1.383 . S
C125 C123 1.365 . S
C125 H134 0.931 . S
C126 C121 1.370 . S
C126 C122 1.395 . S
C126 H135 0.930 . S
C127 Gd63 2.805 . S
C127 O103 1.263 . S
C127 O104 1.252 . S
C127 C121 1.500 . S
H128 C111 0.929 . S
H129 C112 0.930 . S
H130 C113 0.931 . S
H131 C114 0.930 . S
H132 C123 0.929 . S
H133 C124 0.930 . S
H134 C125 0.931 . S
H135 C126 0.930 . S
C136 C138 1.422 . S
C136 C140 1.415 . S
C136 N142 1.369 . S
C137 C138 1.421 . S
C137 C139 1.417 . S
C137 C149 1.422 . S
C138 C136 1.422 . S
C138 C137 1.421 . S
C138 N148 1.359 . S
C139 C137 1.417 . S
C139 C141 1.329 . S
C139 H158 0.930 . S
C140 C136 1.415 . S
C140 C141 1.437 . S
C140 C144 1.413 . S
C141 C139 1.329 . S
C141 C140 1.437 . S
C141 H163 0.929 . S
N142 C136 1.369 . S
N142 C143 1.338 . S
N142 Gd147 2.622 . S
C143 N142 1.338 . S
C143 C145 1.378 . S
C143 H155 0.929 . S
C144 C140 1.413 . S
C144 C145 1.348 . S
C144 H160 0.931 . S
C145 C143 1.378 . S
C145 C144 1.348 . S
C145 H161 0.930 . S
Gd146 N166 2.622 . S
Gd146 N173 2.570 . S
Gd146 O180 2.353 1_554 S
Gd146 O181 2.468 1_554 S
Gd146 O182 2.427 1_554 S
Gd146 O184 2.388 . S
Gd146 O185 2.386 . S
Gd146 O189 2.307 . S
Gd146 C199 2.805 1_554 S
Gd147 N142 2.622 . S
Gd147 N148 2.570 . S
Gd147 O179 2.386 . S
Gd147 O183 2.307 . S
Gd147 O186 2.353 . S
Gd147 O187 2.468 . S
Gd147 O188 2.427 . S
Gd147 O190 2.388 . S
Gd147 C211 2.805 . S
N148 C138 1.359 . S
N148 Gd147 2.570 . S
N148 C150 1.343 . S
C149 C137 1.422 . S
C149 C151 1.321 . S
C149 H157 0.931 . S
C150 N148 1.343 . S
C150 C151 1.390 . S
C150 H152 0.931 . S
C151 C149 1.321 . S
C151 C150 1.390 . S
C151 H153 0.930 . S
H152 C150 0.931 . S
H153 C151 0.930 . S
H154 C177 0.931 . S
H155 C143 0.929 . S
H156 C178 0.930 . S
H157 C149 0.931 . S
H158 C139 0.930 . S
H159 C168 0.929 . S
H160 C144 0.931 . S
H161 C145 0.930 . S
H162 C200 0.930 . S
H163 C141 0.929 . S
H164 C169 0.931 . S
H165 C170 0.930 . S
N166 Gd146 2.622 . S
N166 C167 1.369 . S
N166 C168 1.338 1_554 S
C167 N166 1.369 . S
C167 C171 1.415 . S
C167 C174 1.422 . S
C168 H159 0.929 . S
C168 N166 1.338 1_556 S
C168 C170 1.378 . S
C169 H164 0.931 . S
C169 C170 1.348 1_554 S
C169 C171 1.413 . S
C170 H165 0.930 . S
C170 C168 1.378 . S
C170 C169 1.348 1_556 S
C171 C167 1.415 . S
C171 C169 1.413 . S
C171 C201 1.437 . S
H172 C201 0.929 . S
N173 Gd146 2.570 . S
N173 C174 1.359 . S
N173 C177 1.343 . S
C174 C167 1.422 . S
C174 N173 1.359 . S
C174 C176 1.421 . S
C175 C176 1.422 . S
C175 C178 1.321 . S
C175 H202 0.931 . S
C176 C174 1.421 . S
C176 C175 1.422 . S
C176 C200 1.417 . S
C177 H154 0.931 . S
C177 N173 1.343 . S
C177 C178 1.390 . S
C178 H156 0.930 . S
C178 C175 1.321 . S
C178 C177 1.390 . S
O179 Gd147 2.386 . S
O179 C191 1.265 1_554 S
O180 Gd146 2.353 1_556 S
O180 C191 1.242 . S
O181 Gd146 2.468 1_556 S
O181 C199 1.263 . S
O182 Gd146 2.427 1_556 S
O182 C199 1.252 . S
O183 Gd147 2.307 . S
O183 C192 1.261 . S
O184 Gd146 2.388 . S
O184 C192 1.252 . S
O185 Gd146 2.386 . S
O185 C203 1.265 . S
O186 Gd147 2.353 . S
O186 C203 1.242 . S
O187 Gd147 2.468 . S
O187 C211 1.263 . S
O188 Gd147 2.427 . S
O188 C211 1.252 . S
O189 Gd146 2.307 . S
O189 C204 1.261 . S
O190 Gd147 2.388 . S
O190 C204 1.252 . S
C191 O179 1.265 1_556 S
C191 O180 1.242 . S
C192 O183 1.261 . S
C192 O184 1.252 . S
C193 C196 1.394 . S
C193 C198 1.370 . S
C193 C199 1.500 . S
C194 C197 1.383 . S
C194 C198 1.395 . S
C195 C196 1.396 . S
C195 C197 1.365 . S
C195 H212 0.929 . S
C196 C193 1.394 . S
C196 C195 1.396 . S
C196 H213 0.930 . S
C197 C194 1.383 . S
C197 C195 1.365 . S
C197 H214 0.931 . S
C198 C193 1.370 . S
C198 C194 1.395 . S
C198 H215 0.930 . S
C199 Gd146 2.805 1_556 S
C199 O181 1.263 . S
C199 O182 1.252 . S
C199 C193 1.500 . S
C200 H162 0.930 . S
C200 C176 1.417 . S
C200 C201 1.329 . S
C201 C171 1.437 . S
C201 H172 0.929 . S
C201 C200 1.329 . S
H202 C175 0.931 . S
C203 O185 1.265 . S
C203 O186 1.242 . S
C204 O189 1.261 . S
C204 O190 1.252 . S
C205 C208 1.394 . S
C205 C210 1.370 . S
C205 C211 1.500 . S
C206 C209 1.383 . S
C206 C210 1.395 . S
C207 C208 1.396 . S
C207 C209 1.365 . S
C207 H216 0.929 . S
C208 C205 1.394 . S
C208 C207 1.396 . S
C208 H217 0.930 . S
C209 C206 1.383 . S
C209 C207 1.365 . S
C209 H218 0.931 . S
C210 C205 1.370 . S
C210 C206 1.395 . S
C210 H219 0.930 . S
C211 Gd147 2.805 . S
C211 O187 1.263 . S
C211 O188 1.252 . S
C211 C205 1.500 . S
H212 C195 0.929 . S
H213 C196 0.930 . S
H214 C197 0.931 . S
H215 C198 0.930 . S
H216 C207 0.929 . S
H217 C208 0.930 . S
H218 C209 0.931 . S
H219 C210 0.930 . S
C220 C221 1.363 . S
C220 C226 1.379 . S
C220 N228 1.356 . S
C221 C220 1.363 . S
C221 C227 1.363 . S
C222 C223 1.363 . S
C222 C227 1.379 . S
C222 N229 1.356 . S
C223 C222 1.363 . S
C223 C226 1.363 . S
N224 C226 1.356 . S
N224 H236 0.984 . S
N224 H237 0.985 . S
N225 C227 1.356 . S
N225 H230 0.984 . S
N225 H231 0.985 . S
C226 C220 1.379 . S
C226 C223 1.363 . S
C226 N224 1.356 . S
C227 C221 1.363 . S
C227 C222 1.379 . S
C227 N225 1.356 . S
N228 C220 1.356 . S
N228 H234 0.984 . S
N228 H235 0.984 . S
N229 C222 1.356 . S
N229 H232 0.984 . S
N229 H233 0.985 . S
H230 N225 0.984 . S
H231 N225 0.985 . S
H232 N229 0.984 . S
H233 N229 0.985 . S
H234 N228 0.984 . S
H235 N228 0.984 . S
H236 N224 0.984 . S
H237 N224 0.985 . S
C238 C239 1.363 . S
C238 C244 1.379 . S
C238 N246 1.356 . S
C239 C238 1.363 . S
C239 C245 1.363 1_554 S
C240 C241 1.363 1_556 S
C240 C245 1.379 . S
C240 N247 1.356 . S
C241 C240 1.363 1_554 S
C241 C244 1.363 . S
N242 C244 1.356 . S
N242 H254 0.984 . S
N242 H255 0.985 . S
N243 C245 1.356 . S
N243 H248 0.984 . S
N243 H249 0.985 . S
C244 C238 1.379 . S
C244 C241 1.363 . S
C244 N242 1.356 . S
C245 C239 1.363 1_556 S
C245 C240 1.379 . S
C245 N243 1.356 . S
N246 C238 1.356 . S
N246 H252 0.984 . S
N246 H253 0.984 . S
N247 C240 1.356 . S
N247 H250 0.984 . S
N247 H251 0.985 . S
H248 N243 0.984 . S
H249 N243 0.985 . S
H250 N247 0.984 . S
H251 N247 0.985 . S
H252 N246 0.984 . S
H253 N246 0.984 . S
H254 N242 0.984 . S
H255 N242 0.985 . S
C256 C257 1.363 . S
C256 C262 1.379 . S
C256 N264 1.356 . S
C257 C256 1.363 . S
C257 C263 1.363 . S
C258 C259 1.363 . S
C258 C263 1.379 . S
C258 N265 1.356 . S
C259 C258 1.363 . S
C259 C262 1.363 . S
N260 C262 1.356 . S
N260 H272 0.984 . S
N260 H273 0.985 . S
N261 C263 1.356 . S
N261 H266 0.984 . S
N261 H267 0.985 . S
C262 C256 1.379 . S
C262 C259 1.363 . S
C262 N260 1.356 . S
C263 C257 1.363 . S
C263 C258 1.379 . S
C263 N261 1.356 . S
N264 C256 1.356 . S
N264 H270 0.984 . S
N264 H271 0.984 . S
N265 C258 1.356 . S
N265 H268 0.984 . S
N265 H269 0.985 . S
H266 N261 0.984 . S
H267 N261 0.985 . S
H268 N265 0.984 . S
H269 N265 0.985 . S
H270 N264 0.984 . S
H271 N264 0.984 . S
H272 N260 0.984 . S
H273 N260 0.985 . S
C274 C275 1.363 . S
C274 C280 1.379 . S
C274 N282 1.356 . S
C275 C274 1.363 . S
C275 C281 1.363 . S
C276 C277 1.363 . S
C276 C281 1.379 . S
C276 N283 1.356 . S
C277 C276 1.363 . S
C277 C280 1.363 . S
N278 C280 1.356 . S
N278 H290 0.984 . S
N278 H291 0.985 . S
N279 C281 1.356 . S
N279 H284 0.984 . S
N279 H285 0.985 . S
C280 C274 1.379 . S
C280 C277 1.363 . S
C280 N278 1.356 . S
C281 C275 1.363 . S
C281 C276 1.379 . S
C281 N279 1.356 . S
N282 C274 1.356 . S
N282 H288 0.984 . S
N282 H289 0.984 . S
N283 C276 1.356 . S
N283 H286 0.984 . S
N283 H287 0.985 . S
H284 N279 0.984 . S
H285 N279 0.985 . S
H286 N283 0.984 . S
H287 N283 0.985 . S
H288 N282 0.984 . S
H289 N282 0.984 . S
H290 N278 0.984 . S
H291 N278 0.985 . S
C292 C293 1.363 . S
C292 C298 1.379 . S
C292 N300 1.356 . S
C293 C292 1.363 . S
C293 C299 1.363 . S
C294 C295 1.363 . S
C294 C299 1.379 . S
C294 N301 1.356 . S
C295 C294 1.363 . S
C295 C298 1.363 . S
N296 C298 1.356 1_545 S
N296 H308 0.984 . S
N296 H309 0.985 . S
N297 C299 1.356 . S
N297 H302 0.984 . S
N297 H303 0.985 . S
C298 C292 1.379 . S
C298 C295 1.363 . S
C298 N296 1.356 1_565 S
C299 C293 1.363 . S
C299 C294 1.379 . S
C299 N297 1.356 . S
N300 C292 1.356 . S
N300 H306 0.984 1_554 S
N300 H307 0.984 1_554 S
N301 C294 1.356 . S
N301 H304 0.984 . S
N301 H305 0.985 . S
H302 N297 0.984 . S
H303 N297 0.985 . S
H304 N301 0.984 . S
H305 N301 0.985 . S
H306 N300 0.984 1_556 S
H307 N300 0.984 1_556 S
H308 N296 0.984 . S
H309 N296 0.985 . S
C310 C311 1.363 . S
C310 C316 1.379 . S
C310 N318 1.356 . S
C311 C310 1.363 . S
C311 C317 1.363 . S
C312 C313 1.363 . S
C312 C317 1.379 . S
C312 N319 1.356 . S
C313 C312 1.363 . S
C313 C316 1.363 . S
N314 C316 1.356 . S
N314 H326 0.984 . S
N314 H327 0.985 . S
N315 C317 1.356 . S
N315 H320 0.984 . S
N315 H321 0.985 . S
C316 C310 1.379 . S
C316 C313 1.363 . S
C316 N314 1.356 . S
C317 C311 1.363 . S
C317 C312 1.379 . S
C317 N315 1.356 . S
N318 C310 1.356 . S
N318 H324 0.984 . S
N318 H325 0.984 . S
N319 C312 1.356 . S
N319 H322 0.984 . S
N319 H323 0.985 . S
H320 N315 0.984 . S
H321 N315 0.985 . S
H322 N319 0.984 . S
H323 N319 0.985 . S
H324 N318 0.984 . S
H325 N318 0.984 . S
H326 N314 0.984 . S
H327 N314 0.985 . S
C328 C329 1.363 . S
C328 C334 1.379 . S
C328 N336 1.356 . S
C329 C328 1.363 . S
C329 C335 1.363 . S
C330 C331 1.363 . S
C330 C335 1.379 . S
C330 N337 1.356 1_545 S
C331 C330 1.363 . S
C331 C334 1.363 . S
N332 C334 1.356 . S
N332 H344 0.984 . S
N332 H345 0.985 . S
N333 C335 1.356 . S
N333 H338 0.984 . S
N333 H339 0.985 . S
C334 C328 1.379 . S
C334 C331 1.363 . S
C334 N332 1.356 . S
C335 C329 1.363 . S
C335 C330 1.379 . S
C335 N333 1.356 . S
N336 C328 1.356 . S
N336 H342 0.984 . S
N336 H343 0.984 . S
N337 C330 1.356 1_565 S
N337 H340 0.984 . S
N337 H341 0.985 . S
H338 N333 0.984 . S
H339 N333 0.985 . S
H340 N337 0.984 . S
H341 N337 0.985 . S
H342 N336 0.984 . S
H343 N336 0.984 . S
H344 N332 0.984 . S
H345 N332 0.985 . S
C346 C347 1.363 . S
C346 C352 1.379 . S
C346 N354 1.356 . S
C347 C346 1.363 . S
C347 C353 1.363 . S
C348 C349 1.363 . S
C348 C353 1.379 . S
C348 N355 1.356 . S
C349 C348 1.363 . S
C349 C352 1.363 . S
N350 C352 1.356 . S
N350 H362 0.984 . S
N350 H363 0.985 . S
N351 C353 1.356 . S
N351 H356 0.984 . S
N351 H357 0.985 . S
C352 C346 1.379 . S
C352 C349 1.363 . S
C352 N350 1.356 . S
C353 C347 1.363 . S
C353 C348 1.379 . S
C353 N351 1.356 . S
N354 C346 1.356 . S
N354 H360 0.984 . S
N354 H361 0.984 . S
N355 C348 1.356 . S
N355 H358 0.984 . S
N355 H359 0.985 . S
H356 N351 0.984 . S
H357 N351 0.985 . S
H358 N355 0.984 . S
H359 N355 0.985 . S
H360 N354 0.984 . S
H361 N354 0.984 . S
H362 N350 0.984 . S
H363 N350 0.985 . S
C364 C365 1.363 . S
C364 C370 1.379 . S
C364 N372 1.356 . S
C365 C364 1.363 . S
C365 C371 1.363 . S
C366 C367 1.363 . S
C366 C371 1.379 . S
C366 N373 1.356 . S
C367 C366 1.363 . S
C367 C370 1.363 . S
N368 C370 1.356 . S
N368 H380 0.984 . S
N368 H381 0.985 . S
N369 C371 1.356 . S
N369 H374 0.984 . S
N369 H375 0.985 . S
C370 C364 1.379 . S
C370 C367 1.363 . S
C370 N368 1.356 . S
C371 C365 1.363 . S
C371 C366 1.379 . S
C371 N369 1.356 . S
N372 C364 1.356 . S
N372 H378 0.984 . S
N372 H379 0.984 . S
N373 C366 1.356 . S
N373 H376 0.984 . S
N373 H377 0.985 . S
H374 N369 0.984 . S
H375 N369 0.985 . S
H376 N373 0.984 . S
H377 N373 0.985 . S
H378 N372 0.984 . S
H379 N372 0.984 . S
H380 N368 0.984 . S
H381 N368 0.985 . S
C382 C383 1.363 . S
C382 C388 1.379 . S
C382 N390 1.356 . S
C383 C382 1.363 . S
C383 C389 1.363 1_554 S
C384 C385 1.363 . S
C384 C389 1.379 . S
C384 N391 1.356 . S
C385 C384 1.363 . S
C385 C388 1.363 1_556 S
N386 C388 1.356 . S
N386 H398 0.984 1_545 S
N386 H399 0.985 1_554 S
N387 C389 1.356 . S
N387 H392 0.984 . S
N387 H393 0.985 . S
C388 C382 1.379 . S
C388 C385 1.363 1_554 S
C388 N386 1.356 . S
C389 C383 1.363 1_556 S
C389 C384 1.379 . S
C389 N387 1.356 . S
N390 C382 1.356 . S
N390 H396 0.984 . S
N390 H397 0.984 . S
N391 C384 1.356 . S
N391 H394 0.984 . S
N391 H395 0.985 . S
H392 N387 0.984 . S
H393 N387 0.985 . S
H394 N391 0.984 . S
H395 N391 0.985 . S
H396 N390 0.984 . S
H397 N390 0.984 . S
H398 N386 0.984 1_565 S
H399 N386 0.985 1_556 S
C400 C401 1.363 . S
C400 C406 1.379 . S
C400 N408 1.356 . S
C401 C400 1.363 . S
C401 C407 1.363 . S
C402 C403 1.363 . S
C402 C407 1.379 . S
C402 N409 1.356 . S
C403 C402 1.363 . S
C403 C406 1.363 . S
N404 C406 1.356 . S
N404 H416 0.984 . S
N404 H417 0.985 . S
N405 C407 1.356 . S
N405 H410 0.984 . S
N405 H411 0.985 . S
C406 C400 1.379 . S
C406 C403 1.363 . S
C406 N404 1.356 . S
C407 C401 1.363 . S
C407 C402 1.379 . S
C407 N405 1.356 . S
N408 C400 1.356 . S
N408 H414 0.984 . S
N408 H415 0.984 . S
N409 C402 1.356 . S
N409 H412 0.984 . S
N409 H413 0.985 . S
H410 N405 0.984 . S
H411 N405 0.985 . S
H412 N409 0.984 . S
H413 N409 0.985 . S
H414 N408 0.984 . S
H415 N408 0.984 . S
H416 N404 0.984 . S
H417 N404 0.985 . S
C418 C419 1.363 . S
C418 C424 1.379 . S
C418 N426 1.356 . S
C419 C418 1.363 . S
C419 C425 1.363 . S
C420 C421 1.363 . S
C420 C425 1.379 . S
C420 N427 1.356 . S
C421 C420 1.363 . S
C421 C424 1.363 . S
N422 C424 1.356 . S
N422 H434 0.984 1_565 S
N422 H435 0.985 . S
N423 C425 1.356 . S
N423 H428 0.984 . S
N423 H429 0.985 . S
C424 C418 1.379 . S
C424 C421 1.363 . S
C424 N422 1.356 . S
C425 C419 1.363 . S
C425 C420 1.379 . S
C425 N423 1.356 . S
N426 C418 1.356 . S
N426 H432 0.984 . S
N426 H433 0.984 1_556 S
N427 C420 1.356 . S
N427 H430 0.984 . S
N427 H431 0.985 . S
H428 N423 0.984 . S
H429 N423 0.985 . S
H430 N427 0.984 . S
H431 N427 0.985 . S
H432 N426 0.984 . S
H433 N426 0.984 1_554 S
H434 N422 0.984 1_545 S
H435 N422 0.985 . S
C223 C120 1.639 . S
C221 N41 1.670 . S
C239 N2 1.609 . S
C241 C192 1.602 . S
C257 N15 1.663 . S
C259 C108 1.638 . S
C275 N28 1.601 . S
C277 C204 1.602 . S
C295 C110 1.369 . S
C293 N5 1.591 . S
C313 C191 1.654 . S
C311 N14 1.647 . S
C329 N27 1.569 . S
C331 C107 1.610 . S
C347 N44 1.577 . S
C349 C194 1.405 . S
C367 C206 1.405 . S
C365 N18 1.577 . S
C385 C122 1.369 . S
C383 N31 1.591 . S
C403 C203 1.654 . S
C401 N40 1.657 . S
C419 N1 1.589 . S
C421 C119 1.610 . S
