# Generated by pormake.
# Topology ssa, (4,4)-cn, num edge types: 1
# Building blocks:
#     Node 0, Type 0, BuildingBlock: ESEHIV_clean_sbu_0, # of connection points: 4
#     Node 1, Type 0, BuildingBlock: ESEHIV_clean_sbu_0, # of connection points: 4
#     Node 2, Type 0, BuildingBlock: ESEHIV_clean_sbu_0, # of connection points: 4
#     Node 3, Type 0, BuildingBlock: ESEHIV_clean_sbu_0, # of connection points: 4
#     Node 4, Type 0, BuildingBlock: ESEHIV_clean_sbu_0, # of connection points: 4
#     Node 5, Type 0, BuildingBlock: ESEHIV_clean_sbu_0, # of connection points: 4
#     Node 6, Type 1, BuildingBlock: AZAVOO_clean_linker_0, # of connection points: 4
#     Node 7, Type 1, BuildingBlock: AZAVOO_clean_linker_0, # of connection points: 4
#     Node 8, Type 1, BuildingBlock: AZAVOO_clean_linker_0, # of connection points: 4
#     Node 9, Type 1, BuildingBlock: AZAVOO_clean_linker_0, # of connection points: 4
#     Node 10, Type 1, BuildingBlock: AZAVOO_clean_linker_0, # of connection points: 4
#     Node 11, Type 1, BuildingBlock: AZAVOO_clean_linker_0, # of connection points: 4
#     Edge 12, Type (0, 1), BuildingBlock: EZIPEK_clean_linker_0, # of connection points: 2
#     Edge 13, Type (0, 1), BuildingBlock: EZIPEK_clean_linker_0, # of connection points: 2
#     Edge 14, Type (0, 1), BuildingBlock: EZIPEK_clean_linker_0, # of connection points: 2
#     Edge 15, Type (0, 1), BuildingBlock: EZIPEK_clean_linker_0, # of connection points: 2
#     Edge 16, Type (0, 1), BuildingBlock: EZIPEK_clean_linker_0, # of connection points: 2
#     Edge 17, Type (0, 1), BuildingBlock: EZIPEK_clean_linker_0, # of connection points: 2
#     Edge 18, Type (0, 1), BuildingBlock: EZIPEK_clean_linker_0, # of connection points: 2
#     Edge 19, Type (0, 1), BuildingBlock: EZIPEK_clean_linker_0, # of connection points: 2
#     Edge 20, Type (0, 1), BuildingBlock: EZIPEK_clean_linker_0, # of connection points: 2
#     Edge 21, Type (0, 1), BuildingBlock: EZIPEK_clean_linker_0, # of connection points: 2
#     Edge 22, Type (0, 1), BuildingBlock: EZIPEK_clean_linker_0, # of connection points: 2
#     Edge 23, Type (0, 1), BuildingBlock: EZIPEK_clean_linker_0, # of connection points: 2
#     Edge 24, Type (0, 1), BuildingBlock: EZIPEK_clean_linker_0, # of connection points: 2
#     Edge 25, Type (0, 1), BuildingBlock: EZIPEK_clean_linker_0, # of connection points: 2
#     Edge 26, Type (0, 1), BuildingBlock: EZIPEK_clean_linker_0, # of connection points: 2
#     Edge 27, Type (0, 1), BuildingBlock: EZIPEK_clean_linker_0, # of connection points: 2
#     Edge 28, Type (0, 1), BuildingBlock: EZIPEK_clean_linker_0, # of connection points: 2
#     Edge 29, Type (0, 1), BuildingBlock: EZIPEK_clean_linker_0, # of connection points: 2
#     Edge 30, Type (0, 1), BuildingBlock: EZIPEK_clean_linker_0, # of connection points: 2
#     Edge 31, Type (0, 1), BuildingBlock: EZIPEK_clean_linker_0, # of connection points: 2
#     Edge 32, Type (0, 1), BuildingBlock: EZIPEK_clean_linker_0, # of connection points: 2
#     Edge 33, Type (0, 1), BuildingBlock: EZIPEK_clean_linker_0, # of connection points: 2
#     Edge 34, Type (0, 1), BuildingBlock: EZIPEK_clean_linker_0, # of connection points: 2
#     Edge 35, Type (0, 1), BuildingBlock: EZIPEK_clean_linker_0, # of connection points: 2
# Relax obj value: 0.087
# Max RMSD: 0.236
# Mean RMSD: 0.157
data_MOF--net-ssa--node1-ESEHIV_clean_sbu_0--node2-AZAVOO_clean_linker_0--edge1-EZIPEK_clean_linker_0
_symmetry_space_group_name_H-M    P1
_symmetry_Int_Tables_number       1
_symmetry_cell_setting            triclinic
loop_
_symmetry_equiv_pos_as_xyz
'x, y, z'
_cell_length_a     38.689294
_cell_length_b     42.285315
_cell_length_c     38.131834
_cell_angle_alpha  88.090025
_cell_angle_beta   94.17933
_cell_angle_gamma 123.07976
loop_
_atom_site_label
_atom_site_type_symbol
_atom_site_fract_x
_atom_site_fract_y
_atom_site_fract_z
_atom_type_partial_charge
Cu0 Cu 0.15724 0.57579 0.0144 0.0
N1 N 0.16093 0.5572 0.97227 0.0
N2 N 0.14181 0.51728 0.9276 0.0
C3 C 0.13017 0.52496 0.95682 0.0
C4 C 0.18155 0.54546 0.92445 0.0
C5 C 0.19333 0.57031 0.95221 0.0
O6 O 0.10365 0.57007 0.01407 0.0
C7 C 0.2026 0.55427 0.05548 0.0
O8 O 0.23038 0.57717 0.03365 0.0
H9 H 0.09996 0.50715 0.96708 0.0
H10 H 0.22348 0.59569 0.95774 0.0
N11 N 0.19746 0.62695 0.02043 0.0
N12 N 0.23874 0.68116 0.04952 0.0
C13 C 0.21415 0.64343 0.05196 0.0
C14 C 0.21188 0.65535 0.99707 0.0
C15 C 0.23747 0.68912 0.01511 0.0
C16 C 0.09224 0.58002 0.98599 0.0
O17 O 0.11642 0.59247 0.95964 0.0
H18 H 0.20692 0.62826 0.07651 0.0
H19 H 0.20308 0.65186 0.9692 0.0
O20 O 0.16666 0.54871 0.05211 0.0
H21 H 0.20057 0.54756 0.9039 0.0
H22 H 0.25271 0.71722 0.00416 0.0
Cu23 Cu 0.59207 0.00226 0.569 0.0
N24 N 0.58384 0.95471 0.5756 0.0
N25 N 0.57941 0.90172 0.56169 0.0
C26 C 0.59331 0.93761 0.55255 0.0
C27 C 0.56039 0.89577 0.59171 0.0
C28 C 0.56337 0.92873 0.60038 0.0
O29 O 0.57949 0.00463 0.51931 0.0
C30 C 0.662 0.07521 0.58352 0.0
O31 O 0.6401 0.08636 0.56584 0.0
H32 H 0.60835 0.95057 0.52862 0.0
H33 H 0.55005 0.93291 0.62233 0.0
N34 N 0.55593 0.00678 0.59551 0.0
N35 N 0.5323 0.02959 0.63235 0.0
C36 C 0.56508 0.0364 0.61557 0.0
C37 C 0.51573 0.98052 0.59974 0.0
C38 C 0.50103 0.99453 0.62263 0.0
C39 C 0.60594 0.01926 0.49613 0.0
O40 O 0.64557 0.03956 0.50569 0.0
H41 H 0.59514 0.06232 0.61848 0.0
H42 H 0.49851 0.95289 0.58744 0.0
O43 O 0.64852 0.04029 0.58463 0.0
H44 H 0.54433 0.8692 0.60553 0.0
H45 H 0.47013 0.98014 0.6317 0.0
Cu46 Cu 0.62321 0.52505 0.09103 0.0
N47 N 0.61372 0.47704 0.08647 0.0
N48 N 0.59654 0.42487 0.05748 0.0
C49 C 0.60583 0.46045 0.05482 0.0
C50 C 0.59847 0.41847 0.09225 0.0
C51 C 0.60927 0.45092 0.11019 0.0
O52 O 0.64924 0.54935 0.04756 0.0
C53 C 0.55551 0.50306 0.12701 0.0
O54 O 0.57657 0.49359 0.14835 0.0
H55 H 0.60592 0.47395 0.03016 0.0
H56 H 0.61262 0.45478 0.1384 0.0
N57 N 0.65673 0.55207 0.13102 0.0
N58 N 0.67585 0.58917 0.17833 0.0
C59 C 0.65519 0.57944 0.14651 0.0
C60 C 0.67944 0.54441 0.15386 0.0
C61 C 0.69135 0.56739 0.18319 0.0
C62 C 0.68729 0.56107 0.04619 0.0
O63 O 0.70916 0.56508 0.07566 0.0
H64 H 0.63695 0.59022 0.13572 0.0
H65 H 0.68486 0.52221 0.15037 0.0
O66 O 0.56966 0.51763 0.09739 0.0
H67 H 0.59196 0.39214 0.10372 0.0
H68 H 0.70817 0.56685 0.20691 0.0
Cu69 Cu 0.06797 0.50354 0.53922 0.0
N70 N 0.05108 0.47278 0.49968 0.0
N71 N 0.0581 0.44516 0.45464 0.0
C72 C 0.07632 0.46589 0.48409 0.0
C73 C 0.01966 0.43832 0.45138 0.0
C74 C 0.01545 0.45575 0.47934 0.0
O75 O 0.12444 0.54453 0.53056 0.0
C76 C 0.02879 0.44113 0.58268 0.0
O77 O 0.00411 0.42709 0.55412 0.0
H78 H 0.10797 0.47685 0.49359 0.0
H79 H 0.98874 0.45656 0.48416 0.0
N80 N 0.03463 0.52206 0.54362 0.0
N81 N 1.00187 0.54292 0.57095 0.0
C82 C 0.02427 0.52734 0.57472 0.0
C83 C 0.01809 0.53466 0.51916 0.0
C84 C 0.99784 0.54782 0.53611 0.0
C85 C 0.13544 0.57877 0.52638 0.0
O86 O 0.11138 0.58957 0.53558 0.0
H87 H 0.03366 0.52057 0.59979 0.0
H88 H 0.02138 0.53506 0.49119 0.0
O89 O 0.06156 0.47413 0.58171 0.0
H90 H 0.99695 0.42284 0.42994 0.0
H91 H 0.9819 0.56034 0.52403 0.0
Cu92 Cu 0.63747 0.06792 0.1077 0.0
N93 N 0.62405 0.10425 0.10891 0.0
N94 N 0.60476 0.14266 0.08802 0.0
C95 C 0.62115 0.12281 0.08074 0.0
C96 C 0.59725 0.13691 0.12236 0.0
C97 C 0.60972 0.11345 0.13537 0.0
O98 O 0.6656 0.07428 0.06526 0.0
C99 C 0.55425 0.00943 0.1219 0.0
O100 O 0.54442 0.03422 0.11469 0.0
H101 H 0.62826 0.12012 0.05463 0.0
H102 H 0.60608 0.10195 0.16159 0.0
N103 N 0.67491 0.0751 0.1446 0.0
N104 N 0.70621 0.05812 0.18475 0.0
C105 C 0.677 0.04652 0.15829 0.0
C106 C 0.70407 0.10614 0.16296 0.0
C107 C 0.72363 0.09562 0.18807 0.0
C108 C 0.65096 0.07286 0.03399 0.0
O109 O 0.61141 0.05952 0.02805 0.0
H110 H 0.65705 0.01754 0.14929 0.0
H111 H 0.7104 0.13418 0.15856 0.0
O112 O 0.58997 0.01715 0.1157 0.0
H113 H 0.58189 0.1472 0.13638 0.0
H114 H 0.7481 0.11372 0.20742 0.0
Cu115 Cu 0.52452 0.48629 0.58532 0.0
N116 N 0.52595 0.53061 0.57643 0.0
N117 N 0.54342 0.58392 0.54838 0.0
C118 C 0.54338 0.55212 0.54833 0.0
C119 C 0.52517 0.58256 0.57773 0.0
C120 C 0.51394 0.54922 0.59491 0.0
O121 O 0.51311 0.4621 0.53937 0.0
C122 C 0.59008 0.52203 0.63578 0.0
O123 O 0.57222 0.54015 0.64139 0.0
H124 H 0.55706 0.54521 0.52868 0.0
H125 H 0.49927 0.53981 0.61955 0.0
N126 N 0.48492 0.4539 0.61619 0.0
N127 N 0.46069 0.41367 0.66083 0.0
C128 C 0.49128 0.4323 0.63888 0.0
C129 C 0.44858 0.44848 0.62379 0.0
C130 C 0.43329 0.42325 0.65142 0.0
C131 C 0.48153 0.45778 0.52167 0.0
O132 O 0.45762 0.4656 0.53686 0.0
H133 H 0.51852 0.431 0.63995 0.0
H134 H 0.43469 0.46242 0.61078 0.0
O135 O 0.57649 0.49886 0.61 0.0
H136 H 0.52082 0.60426 0.58623 0.0
H137 H 0.40493 0.41331 0.66401 0.0
H138 H 0.32323 0.42966 0.52905 0.0
H139 H 0.06507 0.43522 0.21663 0.0
H140 H 0.39731 0.50936 0.34771 0.0
H141 H 0.44007 0.50314 0.39426 0.0
H142 H 0.39182 0.38956 0.35941 0.0
H143 H 0.34652 0.39499 0.31417 0.0
H144 H 0.33873 0.49232 0.38777 0.0
H145 H 0.33915 0.4771 0.45018 0.0
H146 H 0.26142 0.35817 0.42418 0.0
H147 H 0.26238 0.37386 0.36167 0.0
H148 H 0.26977 0.49281 0.3653 0.0
H149 H 0.21312 0.48602 0.39702 0.0
H150 H 0.13037 0.37461 0.35248 0.0
H151 H 0.18746 0.38114 0.32123 0.0
H152 H 0.25677 0.51321 0.28982 0.0
H153 H 0.19734 0.51774 0.27281 0.0
H154 H 0.13127 0.40428 0.23028 0.0
H155 H 0.19052 0.39987 0.24825 0.0
H156 H 0.33309 0.5319 0.23617 0.0
H157 H 0.31201 0.55282 0.18263 0.0
H158 H 0.22483 0.4368 0.15155 0.0
H159 H 0.24657 0.41596 0.20467 0.0
H160 H 0.41186 0.51434 0.27831 0.0
H161 H 0.46352 0.52381 0.23812 0.0
H162 H 0.3682 0.42986 0.17458 0.0
H163 H 0.31722 0.41858 0.2161 0.0
O164 O 0.32262 0.43504 0.50422 0.0
O165 O 0.28045 0.37436 0.48971 0.0
O166 O 0.12444 0.49258 0.24553 0.0
O167 O 0.089 0.43422 0.22364 0.0
C168 C 0.33191 0.45162 0.31085 0.0
C169 C 0.29972 0.44348 0.3325 0.0
C170 C 0.26533 0.44382 0.31843 0.0
C171 C 0.26287 0.45278 0.28291 0.0
C172 C 0.29426 0.4603 0.2608 0.0
C173 C 0.32885 0.45933 0.27451 0.0
C174 C 0.36837 0.45252 0.32775 0.0
C175 C 0.39693 0.48354 0.34923 0.0
C176 C 0.42115 0.47988 0.37599 0.0
C177 C 0.41809 0.44542 0.38114 0.0
C178 C 0.39396 0.41613 0.3564 0.0
C179 C 0.36849 0.41935 0.33033 0.0
C180 C 0.30135 0.43416 0.37022 0.0
C181 C 0.32243 0.46299 0.39558 0.0
C182 C 0.32232 0.45422 0.43123 0.0
C183 C 0.30037 0.41641 0.44218 0.0
C184 C 0.27867 0.38758 0.41663 0.0
C185 C 0.27935 0.39642 0.38094 0.0
C186 C 0.2327 0.43732 0.34132 0.0
C187 C 0.23973 0.46656 0.36315 0.0
C188 C 0.20748 0.4628 0.38095 0.0
C189 C 0.16779 0.42984 0.37697 0.0
C190 C 0.16092 0.40012 0.35589 0.0
C191 C 0.19335 0.4038 0.33826 0.0
C192 C 0.22812 0.45646 0.26971 0.0
C193 C 0.22954 0.48953 0.27654 0.0
C194 C 0.1955 0.49195 0.26698 0.0
C195 C 0.15958 0.46138 0.25008 0.0
C196 C 0.15847 0.42837 0.24311 0.0
C197 C 0.19237 0.42587 0.25306 0.0
C198 C 0.29148 0.47242 0.22424 0.0
C199 C 0.31084 0.51104 0.21704 0.0
C200 C 0.29856 0.52293 0.18671 0.0
C201 C 0.2666 0.49631 0.16339 0.0
C202 C 0.24956 0.45773 0.16921 0.0
C203 C 0.26212 0.44587 0.19935 0.0
C204 C 0.36066 0.46547 0.25051 0.0
C205 C 0.40218 0.4953 0.25616 0.0
C206 C 0.43154 0.50102 0.233 0.0
C207 C 0.41969 0.47753 0.20335 0.0
C208 C 0.37802 0.44829 0.19726 0.0
C209 C 0.34896 0.44194 0.22092 0.0
C210 C 0.30038 0.40719 0.48008 0.0
C211 C 0.12339 0.46381 0.23969 0.0
H212 H 0.92566 0.30878 0.0426 0.0
H213 H 0.61492 0.03446 0.78632 0.0
H214 H 0.91132 0.34206 0.85583 0.0
H215 H 0.9761 0.39975 0.87635 0.0
H216 H 0.04555 0.35969 0.83319 0.0
H217 H 0.98041 0.30141 0.81293 0.0
H218 H 0.84677 0.27902 0.90031 0.0
H219 H 0.87117 0.29365 0.9622 0.0
H220 H 0.96624 0.27247 0.94558 0.0
H221 H 0.94094 0.25711 0.88387 0.0
H222 H 0.7704 0.2221 0.86295 0.0
H223 H 0.72458 0.18131 0.90848 0.0
H224 H 0.79728 0.13254 0.92673 0.0
H225 H 0.84331 0.17354 0.88116 0.0
H226 H 0.75753 0.21942 0.78484 0.0
H227 H 0.68511 0.16706 0.77745 0.0
H228 H 0.72162 0.08806 0.80064 0.0
H229 H 0.79399 0.14081 0.80807 0.0
H230 H 0.81201 0.25975 0.72914 0.0
H231 H 0.77326 0.22474 0.67478 0.0
H232 H 0.81722 0.1509 0.69266 0.0
H233 H 0.85545 0.18553 0.74692 0.0
H234 H 0.90611 0.343 0.77633 0.0
H235 H 0.94575 0.38701 0.72994 0.0
H236 H 0.96409 0.30424 0.68771 0.0
H237 H 0.92642 0.26088 0.73551 0.0
O238 O 0.91644 0.30275 0.01805 0.0
O239 O 0.96532 0.29232 0.00795 0.0
O240 O 0.62633 0.09765 0.77866 0.0
O241 O 0.6434 0.0556 0.78866 0.0
C242 C 0.9018 0.28158 0.82331 0.0
C243 C 0.87689 0.25761 0.8501 0.0
C244 C 0.83755 0.22525 0.84112 0.0
C245 C 0.82383 0.216 0.80549 0.0
C246 C 0.84988 0.23836 0.7787 0.0
C247 C 0.88842 0.27198 0.78743 0.0
C248 C 0.94124 0.31747 0.83321 0.0
C249 C 0.94048 0.34574 0.85068 0.0
C250 C 0.97727 0.37857 0.86223 0.0
C251 C 0.01532 0.38366 0.85636 0.0
C252 C 0.01631 0.35602 0.83792 0.0
C253 C 0.97935 0.32298 0.82641 0.0
C254 C 0.89186 0.26668 0.88768 0.0
C255 C 0.8726 0.2772 0.91017 0.0
C256 C 0.88674 0.28573 0.94547 0.0
C257 C 0.92062 0.28417 0.95887 0.0
C258 C 0.94002 0.27387 0.93614 0.0
C259 C 0.92568 0.26513 0.90088 0.0
C260 C 0.81025 0.20087 0.86897 0.0
C261 C 0.77635 0.20253 0.87667 0.0
C262 C 0.75018 0.17921 0.90239 0.0
C263 C 0.75748 0.15381 0.92058 0.0
C264 C 0.79107 0.15178 0.91264 0.0
C265 C 0.8174 0.17528 0.88699 0.0
C266 C 0.78094 0.18381 0.7966 0.0
C267 C 0.74985 0.19074 0.78772 0.0
C268 C 0.7085 0.16081 0.78387 0.0
C269 C 0.69755 0.12336 0.78867 0.0
C270 C 0.72897 0.11653 0.79685 0.0
C271 C 0.77034 0.14655 0.80084 0.0
C272 C 0.83639 0.22504 0.74185 0.0
C273 C 0.81464 0.23704 0.72049 0.0
C274 C 0.79275 0.21723 0.68952 0.0
C275 C 0.79265 0.18543 0.67979 0.0
C276 C 0.81743 0.17565 0.69958 0.0
C277 C 0.83905 0.19527 0.73051 0.0
C278 C 0.91311 0.29856 0.75932 0.0
C279 C 0.91927 0.33451 0.7575 0.0
C280 C 0.94185 0.35961 0.73107 0.0
C281 C 0.95778 0.34885 0.70537 0.0
C282 C 0.95213 0.31309 0.70735 0.0
C283 C 0.93028 0.28825 0.73434 0.0
C284 C 0.9356 0.2933 0.99638 0.0
C285 C 0.6536 0.09154 0.78501 0.0
H286 H 0.71175 0.79411 0.1113 0.0
H287 H 0.67876 0.01675 0.39311 0.0
H288 H 0.60625 0.72244 0.27691 0.0
H289 H 0.6103 0.67528 0.2449 0.0
H290 H 0.72297 0.70647 0.30581 0.0
H291 H 0.71901 0.75405 0.33781 0.0
H292 H 0.63299 0.79325 0.23693 0.0
H293 H 0.65541 0.79168 0.17897 0.0
H294 H 0.77255 0.81703 0.22741 0.0
H295 H 0.74967 0.81849 0.28519 0.0
H296 H 0.62223 0.8468 0.26787 0.0
H297 H 0.63834 0.90483 0.23714 0.0
H298 H 0.76705 0.95771 0.27148 0.0
H299 H 0.75091 0.89925 0.30188 0.0
H300 H 0.59123 0.83745 0.34376 0.0
H301 H 0.58511 0.89074 0.35599 0.0
H302 H 0.71728 0.96119 0.37915 0.0
H303 H 0.72308 0.90807 0.36604 0.0
H304 H 0.57729 0.75877 0.39732 0.0
H305 H 0.5533 0.7691 0.45121 0.0
H306 H 0.67174 0.8732 0.47019 0.0
H307 H 0.69731 0.86023 0.41946 0.0
H308 H 0.5891 0.7023 0.35186 0.0
H309 H 0.5649 0.65487 0.39858 0.0
H310 H 0.66651 0.7352 0.46858 0.0
H311 H 0.69245 0.78153 0.42116 0.0
O312 O 0.70368 0.79529 0.13441 0.0
O313 O 0.76317 0.80789 0.16068 0.0
O314 O 0.61675 0.96234 0.36321 0.0
O315 O 0.68 0.99485 0.38947 0.0
C316 C 0.66394 0.77511 0.32326 0.0
C317 C 0.67573 0.80597 0.30032 0.0
C318 C 0.67438 0.83685 0.31084 0.0
C319 C 0.66154 0.83735 0.34434 0.0
C320 C 0.6515 0.80757 0.36814 0.0
C321 C 0.65292 0.77635 0.35767 0.0
C322 C 0.66217 0.74152 0.30989 0.0
C323 C 0.63124 0.71844 0.28404 0.0
C324 C 0.63366 0.69173 0.26567 0.0
C325 C 0.66705 0.68759 0.27284 0.0
C326 C 0.69697 0.70929 0.29993 0.0
C327 C 0.69456 0.73616 0.31833 0.0
C328 C 0.68976 0.80604 0.26513 0.0
C329 C 0.66356 0.79868 0.23489 0.0
C330 C 0.67641 0.7977 0.20186 0.0
C331 C 0.71576 0.80418 0.19856 0.0
C332 C 0.74206 0.81193 0.22901 0.0
C333 C 0.7291 0.81277 0.26202 0.0
C334 C 0.68548 0.86883 0.28677 0.0
C335 C 0.65407 0.87048 0.26783 0.0
C336 C 0.66321 0.90354 0.25054 0.0
C337 C 0.70385 0.93539 0.25212 0.0
C338 C 0.73561 0.93326 0.26984 0.0
C339 C 0.72646 0.90001 0.28694 0.0
C340 C 0.65759 0.86901 0.35392 0.0
C341 C 0.61875 0.86439 0.35163 0.0
C342 C 0.61537 0.89483 0.35857 0.0
C343 C 0.65078 0.93022 0.36837 0.0
C344 C 0.68944 0.9343 0.37175 0.0
C345 C 0.69287 0.90409 0.36414 0.0
C346 C 0.63871 0.80951 0.40364 0.0
C347 C 0.59854 0.78308 0.4138 0.0
C348 C 0.58475 0.78913 0.44434 0.0
C349 C 0.61007 0.8229 0.46368 0.0
C350 C 0.65121 0.84754 0.45509 0.0
C351 C 0.66568 0.84034 0.42593 0.0
C352 C 0.64257 0.74544 0.38304 0.0
C353 C 0.60709 0.70919 0.37677 0.0
C354 C 0.593 0.68235 0.40353 0.0
C355 C 0.6136 0.69176 0.43716 0.0
C356 C 0.65009 0.72743 0.44289 0.0
C357 C 0.66489 0.75377 0.41585 0.0
C358 C 0.72912 0.80262 0.16349 0.0
C359 C 0.64788 0.96324 0.37369 0.0
H360 H 0.80894 0.58512 0.58079 0.0
H361 H 0.09784 0.58658 0.87194 0.0
H362 H 0.79839 0.61355 0.78986 0.0
H363 H 0.73786 0.60164 0.7523 0.0
H364 H 0.69503 0.48401 0.74507 0.0
H365 H 0.75439 0.49561 0.78375 0.0
H366 H 0.85991 0.62351 0.72966 0.0
H367 H 0.84384 0.6188 0.66599 0.0
H368 H 0.78839 0.49817 0.67101 0.0
H369 H 0.80611 0.50359 0.73443 0.0
H370 H 0.93532 0.63209 0.73982 0.0
H371 H 0.96506 0.62848 0.68631 0.0
H372 H 0.92301 0.51283 0.70991 0.0
H373 H 0.89207 0.51607 0.76254 0.0
H374 H 0.97222 0.6456 0.82749 0.0
H375 H 0.04213 0.66008 0.8422 0.0
H376 H 0.99413 0.5407 0.84414 0.0
H377 H 0.92476 0.52674 0.82785 0.0
H378 H 0.90989 0.62602 0.89893 0.0
H379 H 0.95483 0.62814 0.94885 0.0
H380 H 0.92458 0.51763 0.91982 0.0
H381 H 0.87422 0.51288 0.87453 0.0
H382 H 0.84989 0.62583 0.87631 0.0
H383 H 0.81032 0.62363 0.92494 0.0
H384 H 0.72409 0.50423 0.90706 0.0
H385 H 0.76475 0.5062 0.85927 0.0
O386 O 0.81506 0.58637 0.60596 0.0
O387 O 0.78786 0.52461 0.60986 0.0
O388 O 0.09505 0.64264 0.85826 0.0
O389 O 0.07095 0.58161 0.86411 0.0
C390 C 0.8224 0.56409 0.80093 0.0
C391 C 0.8479 0.5675 0.77436 0.0
C392 C 0.88714 0.57393 0.78329 0.0
C393 C 0.90115 0.57678 0.81875 0.0
C394 C 0.87553 0.57254 0.84577 0.0
C395 C 0.83644 0.56738 0.83685 0.0
C396 C 0.78056 0.55538 0.78976 0.0
C397 C 0.77484 0.58491 0.78168 0.0
C398 C 0.74068 0.5782 0.75994 0.0
C399 C 0.71249 0.54207 0.7455 0.0
C400 C 0.71658 0.51207 0.75582 0.0
C401 C 0.75012 0.51861 0.77817 0.0
C402 C 0.83364 0.56383 0.7366 0.0
C403 C 0.84394 0.59609 0.71695 0.0
C404 C 0.83502 0.59333 0.68058 0.0
C405 C 0.81477 0.55808 0.66341 0.0
C406 C 0.80386 0.52571 0.68341 0.0
C407 C 0.8136 0.52865 0.71965 0.0
C408 C 0.91181 0.57439 0.75505 0.0
C409 C 0.93324 0.60625 0.73373 0.0
C410 C 0.94998 0.60415 0.70328 0.0
C411 C 0.94607 0.57037 0.69427 0.0
C412 C 0.92633 0.53911 0.71654 0.0
C413 C 0.90906 0.54104 0.74661 0.0
C414 C 0.94341 0.58515 0.82737 0.0
C415 C 0.97696 0.62266 0.83095 0.0
C416 C 0.01683 0.63082 0.83923 0.0
C417 C 0.02361 0.6015 0.84485 0.0
C418 C 0.98993 0.56393 0.84042 0.0
C419 C 0.95027 0.55586 0.83125 0.0
C420 C 0.88905 0.56943 0.8826 0.0
C421 C 0.91046 0.60113 0.90498 0.0
C422 C 0.93687 0.60261 0.93308 0.0
C423 C 0.94522 0.57409 0.93677 0.0
C424 C 0.91982 0.5406 0.91712 0.0
C425 C 0.8909 0.53784 0.89117 0.0
C426 C 0.81079 0.56602 0.86478 0.0
C427 C 0.82266 0.59912 0.88305 0.0
C428 C 0.79986 0.59797 0.91047 0.0
C429 C 0.76431 0.56378 0.91966 0.0
C430 C 0.75141 0.5309 0.90037 0.0
C431 C 0.77461 0.53199 0.87325 0.0
C432 C 0.80504 0.55519 0.62483 0.0
C433 C 0.06542 0.60997 0.85599 0.0
H434 H 0.39553 0.82153 0.56036 0.0
H435 H 0.13885 0.55741 0.27576 0.0
H436 H 0.39428 0.87484 0.38277 0.0
H437 H 0.45492 0.92857 0.41291 0.0
H438 H 0.53402 0.91634 0.34829 0.0
H439 H 0.47358 0.85859 0.32235 0.0
H440 H 0.33155 0.81035 0.41445 0.0
H441 H 0.34918 0.81653 0.47784 0.0
H442 H 0.44821 0.80064 0.46188 0.0
H443 H 0.43125 0.79589 0.39833 0.0
H444 H 0.25509 0.74335 0.36849 0.0
H445 H 0.21104 0.6977 0.4124 0.0
H446 H 0.30416 0.67332 0.44005 0.0
H447 H 0.34807 0.7186 0.39566 0.0
H448 H 0.25014 0.74564 0.28302 0.0
H449 H 0.18608 0.68641 0.26481 0.0
H450 H 0.23917 0.62432 0.30585 0.0
H451 H 0.30336 0.68377 0.32321 0.0
H452 H 0.3218 0.81771 0.24342 0.0
H453 H 0.2996 0.80145 0.18089 0.0
H454 H 0.31863 0.71004 0.19136 0.0
H455 H 0.34209 0.727 0.25337 0.0
H456 H 0.39581 0.88675 0.28919 0.0
H457 H 0.43777 0.93153 0.24375 0.0
H458 H 0.46638 0.8529 0.20882 0.0
H459 H 0.42518 0.80843 0.25466 0.0
O460 O 0.38945 0.81951 0.53516 0.0
O461 O 0.43782 0.8082 0.5258 0.0
O462 O 0.13955 0.61454 0.25841 0.0
O463 O 0.16425 0.58127 0.28176 0.0
C464 C 0.39239 0.82449 0.33866 0.0
C465 C 0.36786 0.79676 0.36361 0.0
C466 C 0.33153 0.76235 0.35239 0.0
C467 C 0.31999 0.75504 0.31615 0.0
C468 C 0.34506 0.78191 0.29108 0.0
C469 C 0.38128 0.81665 0.3022 0.0
C470 C 0.42921 0.86162 0.35125 0.0
C471 C 0.42468 0.88319 0.37549 0.0
C472 C 0.45931 0.91428 0.39232 0.0
C473 C 0.49926 0.92595 0.38366 0.0
C474 C 0.50363 0.90731 0.35612 0.0
C475 C 0.46902 0.87452 0.34102 0.0
C476 C 0.38036 0.80301 0.40181 0.0
C477 C 0.35742 0.80876 0.42468 0.0
C478 C 0.36751 0.81219 0.46087 0.0
C479 C 0.40038 0.80943 0.4749 0.0
C480 C 0.4232 0.80354 0.45185 0.0
C481 C 0.41354 0.80077 0.41558 0.0
C482 C 0.3048 0.73432 0.37885 0.0
C483 C 0.26597 0.7281 0.38391 0.0
C484 C 0.241 0.70227 0.40899 0.0
C485 C 0.25457 0.68244 0.42953 0.0
C486 C 0.29338 0.68859 0.42457 0.0
C487 C 0.3183 0.71432 0.39931 0.0
C488 C 0.28137 0.71901 0.30449 0.0
C489 C 0.24797 0.71924 0.28781 0.0
C490 C 0.21139 0.68536 0.27753 0.0
C491 C 0.20745 0.6506 0.284 0.0
C492 C 0.24111 0.65055 0.30056 0.0
C493 C 0.27778 0.68446 0.31057 0.0
C494 C 0.33328 0.77334 0.25296 0.0
C495 C 0.32171 0.79452 0.23208 0.0
C496 C 0.30907 0.78529 0.19657 0.0
C497 C 0.30727 0.75443 0.18179 0.0
C498 C 0.31975 0.73387 0.20245 0.0
C499 C 0.33286 0.74338 0.23774 0.0
C500 C 0.40747 0.84433 0.27534 0.0
C501 C 0.4113 0.87926 0.2719 0.0
C502 C 0.43493 0.90461 0.24592 0.0
C503 C 0.45479 0.89527 0.22287 0.0
C504 C 0.451 0.8604 0.22623 0.0
C505 C 0.42762 0.83517 0.25235 0.0
C506 C 0.41049 0.81234 0.51344 0.0
C507 C 0.16836 0.61449 0.27384 0.0
H508 H 0.51052 0.25736 0.59428 0.0
H509 H 0.5833 0.05838 0.90845 0.0
H510 H 0.57858 0.3283 0.78149 0.0
H511 H 0.55525 0.36508 0.74861 0.0
H512 H 0.43252 0.29012 0.78361 0.0
H513 H 0.45601 0.25346 0.81679 0.0
H514 H 0.58274 0.27015 0.73744 0.0
H515 H 0.56447 0.27087 0.6747 0.0
H516 H 0.43495 0.20636 0.69569 0.0
H517 H 0.45377 0.20619 0.7584 0.0
H518 H 0.60649 0.21534 0.77244 0.0
H519 H 0.60326 0.1699 0.73142 0.0
H520 H 0.4703 0.1032 0.73199 0.0
H521 H 0.47359 0.14813 0.77367 0.0
H522 H 0.62954 0.22325 0.83973 0.0
H523 H 0.65118 0.18077 0.86016 0.0
H524 H 0.52515 0.09613 0.88307 0.0
H525 H 0.50392 0.13892 0.86223 0.0
H526 H 0.6249 0.25908 0.89876 0.0
H527 H 0.63527 0.24017 0.95829 0.0
H528 H 0.50395 0.17925 0.9699 0.0
H529 H 0.49343 0.19607 0.90971 0.0
H530 H 0.60551 0.33149 0.86392 0.0
H531 H 0.61676 0.37175 0.91416 0.0
H532 H 0.4956 0.28757 0.94744 0.0
H533 H 0.48363 0.24826 0.89616 0.0
O534 O 0.51706 0.25667 0.61917 0.0
O535 O 0.45092 0.22388 0.6314 0.0
O536 O 0.63881 0.11876 0.88464 0.0
O537 O 0.57533 0.07544 0.89976 0.0
C538 C 0.53059 0.26166 0.81456 0.0
C539 C 0.5308 0.23722 0.79015 0.0
C540 C 0.54199 0.2117 0.80155 0.0
C541 C 0.55262 0.21028 0.83743 0.0
C542 C 0.55105 0.23366 0.86205 0.0
C543 C 0.54073 0.25986 0.85063 0.0
C544 C 0.51905 0.28842 0.80171 0.0
C545 C 0.54703 0.32058 0.78305 0.0
C546 C 0.53372 0.34141 0.76425 0.0
C547 C 0.49222 0.33024 0.76376 0.0
C548 C 0.46471 0.29926 0.78393 0.0
C549 C 0.47812 0.27852 0.80292 0.0
C550 C 0.51957 0.23837 0.75234 0.0
C551 C 0.55047 0.25637 0.72838 0.0
C552 C 0.53993 0.25665 0.6926 0.0
C553 C 0.49823 0.23871 0.68018 0.0
C554 C 0.46734 0.22045 0.70437 0.0
C555 C 0.47797 0.22044 0.74019 0.0
C556 C 0.54028 0.18487 0.77616 0.0
C557 C 0.57671 0.19081 0.76389 0.0
C558 C 0.57488 0.16506 0.7405 0.0
C559 C 0.53654 0.13332 0.72883 0.0
C560 C 0.5001 0.12756 0.74081 0.0
C561 C 0.50198 0.15312 0.76444 0.0
C562 C 0.56518 0.18401 0.84937 0.0
C563 C 0.60664 0.19542 0.84897 0.0
C564 C 0.61891 0.17114 0.86072 0.0
C565 C 0.58987 0.13503 0.87327 0.0
C566 C 0.54828 0.12371 0.87356 0.0
C567 C 0.53604 0.14804 0.86167 0.0
C568 C 0.55844 0.22903 0.90003 0.0
C569 C 0.59851 0.24227 0.91443 0.0
C570 C 0.6044 0.23163 0.94831 0.0
C571 C 0.57032 0.20822 0.96833 0.0
C572 C 0.53058 0.1974 0.95485 0.0
C573 C 0.52462 0.20713 0.92066 0.0
C574 C 0.54382 0.28692 0.87649 0.0
C575 C 0.58092 0.32226 0.88145 0.0
C576 C 0.58746 0.34501 0.91022 0.0
C577 C 0.55723 0.3324 0.93479 0.0
C578 C 0.51938 0.29773 0.92891 0.0
C579 C 0.51253 0.27539 0.8997 0.0
C580 C 0.48714 0.2392 0.64216 0.0
C581 C 0.60295 0.10935 0.88616 0.0
C582 C 0.23227 0.51581 0.07329 0.0
C583 C 0.21392 0.53528 0.08315 0.0
C584 C 0.22369 0.52283 0.14513 0.0
C585 C 0.24759 0.50867 0.13545 0.0
N586 N 0.27847 0.49517 0.09046 0.0
N587 N 0.19655 0.56138 0.1291 0.0
C588 C 0.25281 0.50595 0.09952 0.0
C589 C 0.21043 0.53962 0.11924 0.0
N590 N 0.22881 0.5056 0.03893 0.0
N591 N 0.21275 0.51937 0.17899 0.0
H592 H 0.1862 0.57408 0.11127 0.0
H593 H 0.19836 0.56934 0.15507 0.0
H594 H 0.22178 0.50713 0.19863 0.0
H595 H 0.19163 0.52532 0.18681 0.0
H596 H 0.23808 0.48828 0.03063 0.0
H597 H 0.21264 0.51111 0.01922 0.0
H598 H 0.28706 0.49663 0.06491 0.0
H599 H 0.29397 0.48768 0.10898 0.0
C600 C 0.69393 0.09702 0.64472 0.0
C601 C 0.69727 0.10212 0.60774 0.0
C602 C 0.76535 0.16119 0.61781 0.0
C603 C 0.75995 0.15754 0.65439 0.0
N604 N 0.71623 0.12602 0.70239 0.0
N605 N 0.73454 0.13984 0.55858 0.0
C606 C 0.72351 0.12653 0.66773 0.0
C607 C 0.73254 0.13455 0.59413 0.0
N608 N 0.66279 0.06401 0.65827 0.0
N609 N 0.80219 0.18961 0.60593 0.0
H610 H 0.71258 0.11972 0.54045 0.0
H611 H 0.75685 0.16476 0.54698 0.0
H612 H 0.82628 0.20991 0.62267 0.0
H613 H 0.80999 0.19184 0.58002 0.0
H614 H 0.66251 0.05708 0.68476 0.0
H615 H 0.63863 0.04189 0.6433 0.0
H616 H 0.68776 0.10708 0.71256 0.0
H617 H 0.73732 0.14664 0.7205 0.0
C618 C 0.64536 0.59812 0.2289 0.0
C619 C 0.6756 0.61358 0.2037 0.0
C620 C 0.70032 0.67758 0.22357 0.0
C621 C 0.67165 0.66207 0.25028 0.0
N622 N 0.62126 0.60785 0.28207 0.0
N623 N 0.73528 0.66672 0.17955 0.0
C624 C 0.64542 0.62234 0.25403 0.0
C625 C 0.70419 0.653 0.2019 0.0
N626 N 0.61569 0.56036 0.22785 0.0
N627 N 0.72246 0.71564 0.21788 0.0
H628 H 0.7381 0.64915 0.16305 0.0
H629 H 0.75981 0.69483 0.17918 0.0
H630 H 0.72062 0.73454 0.23324 0.0
H631 H 0.7404 0.72833 0.19647 0.0
H632 H 0.58989 0.5477 0.24273 0.0
H633 H 0.61536 0.54195 0.21008 0.0
H634 H 0.60445 0.57929 0.28828 0.0
H635 H 0.62059 0.62482 0.30091 0.0
C636 C 0.01654 0.58169 0.6234 0.0
C637 C 0.98737 0.55343 0.59921 0.0
C638 C 0.93108 0.54258 0.63375 0.0
C639 C 0.96058 0.56673 0.66056 0.0
N640 N 0.03176 0.60631 0.68287 0.0
N641 N 0.9174 0.50327 0.58316 0.0
C642 C 0.00351 0.5858 0.65585 0.0
C643 C 0.94467 0.53304 0.60467 0.0
N644 N 0.05663 0.60488 0.61489 0.0
N645 N 0.89022 0.52936 0.63579 0.0
H646 H 0.92654 0.49526 0.56191 0.0
H647 H 0.88641 0.48469 0.5881 0.0
H648 H 0.87928 0.53626 0.65652 0.0
H649 H 0.86788 0.51462 0.61542 0.0
H650 H 0.07883 0.62831 0.62991 0.0
H651 H 0.06661 0.6027 0.59092 0.0
H652 H 0.06325 0.61744 0.68218 0.0
H653 H 0.02342 0.6097 0.70719 0.0
C654 C 0.4899 0.94717 0.13567 0.0
C655 C 0.52948 0.9786 0.14681 0.0
C656 C 0.52206 0.95216 0.20619 0.0
C657 C 0.48094 0.92282 0.19605 0.0
N658 N 0.42384 0.89322 0.15235 0.0
N659 N 0.58029 0.01471 0.1942 0.0
C660 C 0.46434 0.92044 0.16103 0.0
C661 C 0.54492 0.982 0.18244 0.0
N662 N 0.47725 0.94255 0.10076 0.0
N663 N 0.53949 0.95125 0.23842 0.0
H664 H 0.59761 0.0378 0.1781 0.0
H665 H 0.59043 0.02044 0.22064 0.0
H666 H 0.52346 0.93024 0.25686 0.0
H667 H 0.57082 0.96938 0.24571 0.0
H668 H 0.45061 0.91844 0.09023 0.0
H669 H 0.49518 0.96185 0.08173 0.0
H670 H 0.40844 0.89227 0.12847 0.0
H671 H 0.40464 0.87267 0.16999 0.0
C672 C 0.47106 0.40231 0.72368 0.0
C673 C 0.45942 0.38904 0.68844 0.0
C674 C 0.46406 0.3347 0.70372 0.0
C675 C 0.47693 0.34847 0.73885 0.0
N676 N 0.4855 0.39077 0.78431 0.0
N677 N 0.43578 0.3396 0.64621 0.0
C678 C 0.47789 0.38078 0.74953 0.0
C679 C 0.45291 0.35407 0.67901 0.0
N680 N 0.47741 0.43638 0.73183 0.0
N681 N 0.46413 0.30397 0.69373 0.0
H682 H 0.42734 0.35355 0.62794 0.0
H683 H 0.42676 0.31275 0.63805 0.0
H684 H 0.47076 0.28836 0.71139 0.0
H685 H 0.45973 0.29496 0.66779 0.0
H686 H 0.48971 0.44983 0.75609 0.0
H687 H 0.47211 0.45232 0.71345 0.0
H688 H 0.48339 0.41209 0.79459 0.0
H689 H 0.49133 0.37586 0.80359 0.0
C690 C 0.6085 0.86404 0.54982 0.0
C691 C 0.57999 0.87443 0.54052 0.0
C692 C 0.56346 0.84302 0.48306 0.0
C693 C 0.59403 0.83455 0.49168 0.0
N694 N 0.63559 0.82617 0.53634 0.0
N695 N 0.52609 0.87035 0.50189 0.0
C696 C 0.61328 0.84158 0.52618 0.0
C697 C 0.55547 0.86199 0.50841 0.0
N698 N 0.6328 0.87769 0.58034 0.0
N699 N 0.54309 0.83399 0.45046 0.0
H700 H 0.51887 0.88273 0.52084 0.0
H701 H 0.50823 0.86481 0.47847 0.0
H702 H 0.55136 0.8247 0.42966 0.0
H703 H 0.51809 0.83612 0.44316 0.0
H704 H 0.65765 0.87499 0.58692 0.0
H705 H 0.62964 0.89395 0.59823 0.0
H706 H 0.64752 0.82742 0.56199 0.0
H707 H 0.63871 0.80887 0.51972 0.0
C708 C 0.70492 0.58244 0.98332 0.0
C709 C 0.7038 0.56007 0.01237 0.0
C710 C 0.74387 0.54193 0.98124 0.0
C711 C 0.74246 0.56193 0.95117 0.0
N712 N 0.71491 0.59536 0.92103 0.0
N713 N 0.71159 0.50973 0.0342 0.0
C714 C 0.72095 0.58048 0.95144 0.0
C715 C 0.72012 0.5372 0.00991 0.0
N716 N 0.69223 0.60661 0.98658 0.0
N717 N 0.76931 0.52874 0.98324 0.0
H718 H 0.69314 0.50416 0.05506 0.0
H719 H 0.71899 0.48969 0.03139 0.0
H720 H 0.78819 0.53236 0.96329 0.0
H721 H 0.77479 0.51759 0.00616 0.0
H722 H 0.69646 0.6266 0.96772 0.0
H723 H 0.68033 0.60871 0.00943 0.0
H724 H 0.696 0.60588 0.91865 0.0
H725 H 0.72591 0.59414 0.89726 0.0
C726 C 0.20429 0.63779 0.5156 0.0
C727 C 0.16875 0.60345 0.50266 0.0
C728 C 0.19436 0.61813 0.4434 0.0
C729 C 0.22717 0.65433 0.45546 0.0
N730 N 0.26246 0.70041 0.50219 0.0
N731 N 0.12617 0.56378 0.453 0.0
C732 C 0.2321 0.66461 0.49144 0.0
C733 C 0.16292 0.59414 0.46627 0.0
N734 N 0.21171 0.64439 0.55105 0.0
N735 N 0.19339 0.60657 0.41006 0.0
H736 H 0.10163 0.54594 0.4684 0.0
H737 H 0.11842 0.55834 0.42619 0.0
H738 H 0.21559 0.62364 0.39237 0.0
H739 H 0.17283 0.579 0.40104 0.0
H740 H 0.23899 0.6671 0.56257 0.0
H741 H 0.1918 0.62531 0.56927 0.0
H742 H 0.26491 0.71113 0.52707 0.0
H743 H 0.28392 0.72042 0.48542 0.0
C744 C 0.60965 0.19866 0.06017 0.0
C745 C 0.59055 0.15906 0.06183 0.0
C746 C 0.55848 0.15181 1.0026 0.0
C747 C 0.57565 0.19128 1.00139 0.0
N748 N 0.61024 0.25119 0.03176 0.0
N749 N 0.53769 0.09747 0.03961 0.0
C750 C 0.59894 0.21444 0.03113 0.0
C751 C 0.56181 0.13553 0.03462 0.0
N752 N 0.63943 0.22118 0.08541 0.0
N753 N 0.54136 0.13016 0.97274 0.0
H754 H 0.53891 0.08504 0.06339 0.0
H755 H 0.51366 0.07904 0.02179 0.0
H756 H 0.53996 0.14106 0.94814 0.0
H757 H 0.53242 0.10206 0.97168 0.0
H758 H 0.65774 0.25049 0.08373 0.0
H759 H 0.64769 0.21026 0.10694 0.0
H760 H 0.62404 0.2685 0.05393 0.0
H761 H 0.60246 0.26336 0.01101 0.0
C762 C 0.42989 0.41579 0.47486 0.0
C763 C 0.47099 0.4455 0.48408 0.0
C764 C 0.48046 0.46345 0.42186 0.0
C765 C 0.43706 0.43981 0.41449 0.0
N766 N 0.36963 0.39314 0.43479 0.0
N767 N 0.53731 0.49637 0.46603 0.0
C768 C 0.41159 0.41514 0.44095 0.0
C769 C 0.4972 0.46845 0.45736 0.0
N770 N 0.4083 0.3885 0.49902 0.0
N771 N 0.5055 0.481 0.39477 0.0
H772 H 0.55148 0.49907 0.491 0.0
H773 H 0.55623 0.51749 0.44878 0.0
H774 H 0.49384 0.47733 0.36862 0.0
H775 H 0.53764 0.49611 0.39773 0.0
H776 H 0.37941 0.36406 0.49323 0.0
H777 H 0.4215 0.38857 0.52393 0.0
H778 H 0.34942 0.37784 0.45429 0.0
H779 H 0.35437 0.392 0.41082 0.0
C780 C 0.10631 0.44883 0.91971 0.0
C781 C 0.1166 0.48418 0.90595 0.0
C782 C 0.06869 0.45293 0.85458 0.0
C783 C 0.05383 0.4176 0.8711 0.0
N784 N 0.05645 0.38123 0.92019 0.0
N785 N 0.10721 0.52101 0.86164 0.0
C786 C 0.07248 0.41524 0.90369 0.0
C787 C 0.09816 0.4866 0.87341 0.0
N788 N 0.12917 0.44776 0.9482 0.0
N789 N 0.05453 0.45407 0.82096 0.0
H790 H 0.12898 0.5461 0.87485 0.0
H791 H 0.0915 0.52459 0.84015 0.0
H792 H 0.03284 0.42973 0.80663 0.0
H793 H 0.06669 0.47867 0.80625 0.0
H794 H 0.12587 0.42303 0.95796 0.0
H795 H 0.15415 0.47226 0.96017 0.0
H796 H 0.0656 0.37832 0.9458 0.0
H797 H 0.03198 0.35589 0.90911 0.0
C798 C 0.01479 0.54983 0.98953 0.0
C799 C 0.05461 0.5816 0.98297 0.0
C800 C 0.02332 0.61162 0.95045 0.0
C801 C 0.98307 0.58017 0.95731 0.0
N802 N 0.94231 0.52622 0.99386 0.0
N803 N 0.09567 0.64804 0.9704 0.0
C804 C 0.97946 0.55158 0.98049 0.0
C805 C 0.05837 0.61432 0.96803 0.0
N806 N 0.01016 0.51725 1.00224 0.0
N807 N 0.02897 0.63742 0.92519 0.0
H808 H 0.1217 0.65108 0.98411 0.0
H809 H 0.09928 0.67347 0.96247 0.0
H810 H 0.00521 0.63589 0.90922 0.0
H811 H 0.0581 0.6583 0.91726 0.0
H812 H 0.9814 0.49208 0.00368 0.0
H813 H 0.03498 0.51449 0.00886 0.0
H814 H 0.93863 0.50665 0.01304 0.0
H815 H 0.91634 0.52762 0.98848 0.0
C816 C 0.59468 0.97563 0.44816 0.0
C817 C 0.59122 0.00522 0.45956 0.0
C818 C 0.53999 0.99101 0.41074 0.0
C819 C 0.53568 0.95587 0.40555 0.0
N820 N 0.55778 0.91341 0.42239 0.0
N821 N 0.56237 0.04305 0.45095 0.0
C822 C 0.56325 0.94805 0.42454 0.0
C823 C 0.56476 0.01384 0.44027 0.0
N824 N 0.62703 0.97308 0.46082 0.0
N825 N 0.52055 0.00244 0.38736 0.0
H826 H 0.58188 0.06135 0.47135 0.0
H827 H 0.54015 0.04808 0.44059 0.0
H828 H 0.50322 0.98662 0.36499 0.0
H829 H 0.52498 0.02902 0.38824 0.0
H830 H 0.633 0.95386 0.45123 0.0
H831 H 0.65062 0.99289 0.47809 0.0
H832 H 0.57567 0.90595 0.43753 0.0
H833 H 0.53322 0.89079 0.40814 0.0
C834 C 0.61027 0.38597 0.02095 0.0
C835 C 0.58484 0.39904 0.02855 0.0
C836 C 0.54271 0.37052 0.97367 0.0
C837 C 0.56605 0.35472 0.9675 0.0
N838 N 0.61584 0.34011 0.98981 0.0
N839 N 0.52161 0.39667 0.01667 0.0
C840 C 0.59803 0.36026 0.99252 0.0
C841 C 0.54941 0.38912 0.00621 0.0
N842 N 0.64707 0.39949 0.03985 0.0
N843 N 0.51542 0.3692 0.94796 0.0
H844 H 0.52517 0.40919 0.04092 0.0
H845 H 0.49321 0.38708 0.00308 0.0
H846 H 0.51033 0.35664 0.92343 0.0
H847 H 0.50071 0.38359 0.94975 0.0
H848 H 0.66898 0.39404 0.03314 0.0
H849 H 0.65734 0.41899 0.06032 0.0
H850 H 0.63646 0.34041 0.00918 0.0
H851 H 0.60694 0.32019 0.96997 0.0
C852 C 0.09312 0.45611 0.39985 0.0
C853 C 0.07807 0.43527 0.43105 0.0
C854 C 0.11823 0.40705 0.42486 0.0
C855 C 0.13319 0.42784 0.39351 0.0
N856 N 0.12737 0.46443 0.34635 0.0
N857 N 0.06832 0.38544 0.46949 0.0
C858 C 0.11803 0.44981 0.37938 0.0
C859 C 0.08798 0.40875 0.44217 0.0
N860 N 0.08569 0.48354 0.39103 0.0
N861 N 0.13446 0.38735 0.43897 0.0
H862 H 0.04609 0.38652 0.48239 0.0
H863 H 0.07127 0.36316 0.47732 0.0
H864 H 0.15639 0.3852 0.4268 0.0
H865 H 0.12817 0.37503 0.46371 0.0
H866 H 0.09994 0.50285 0.37097 0.0
H867 H 0.06739 0.48872 0.40545 0.0
H868 H 0.11424 0.47781 0.33331 0.0
H869 H 0.14546 0.46011 0.33067 0.0
C870 C 0.71396 0.13057 0.01045 0.0
C871 C 0.67973 0.09252 0.00544 0.0
C872 C 0.69615 0.0948 0.94393 0.0
C873 C 0.73173 0.13163 0.94997 0.0
N874 N 0.77942 0.1817 0.99043 0.0
N875 N 0.64283 0.0362 0.96939 0.0
C876 C 0.7422 0.1485 0.98374 0.0
C877 C 0.67204 0.074 0.97265 0.0
N878 N 0.7183 0.15071 0.03964 0.0
N879 N 0.685 0.08002 0.91062 0.0
H880 H 0.62537 0.01988 0.99008 0.0
H881 H 0.63849 0.02028 0.94731 0.0
H882 H 0.70266 0.09402 0.88924 0.0
H883 H 0.65689 0.05523 0.90366 0.0
H884 H 0.73951 0.17971 0.04226 0.0
H885 H 0.69846 0.13978 0.05996 0.0
H886 H 0.79094 0.19296 0.01563 0.0
H887 H 0.80057 0.19639 0.97132 0.0
C888 C 0.53734 0.62408 0.50271 0.0
C889 C 0.56176 0.61362 0.52282 0.0
C890 C 0.61891 0.65175 0.48498 0.0
C891 C 0.59591 0.66505 0.46691 0.0
N892 N 0.53729 0.67132 0.46521 0.0
N893 N 0.62908 0.62533 0.53901 0.0
C894 C 0.55628 0.65348 0.47776 0.0
C895 C 0.60364 0.62993 0.51574 0.0
N896 N 0.49574 0.60475 0.50609 0.0
N897 N 0.65438 0.65854 0.47206 0.0
H898 H 0.61913 0.61095 0.56264 0.0
H899 H 0.66083 0.63927 0.53673 0.0
H900 H 0.66584 0.67324 0.44882 0.0
H901 H 0.67006 0.64634 0.4825 0.0
H902 H 0.4759 0.60882 0.48948 0.0
H903 H 0.48053 0.5821 0.52316 0.0
H904 H 0.51015 0.66617 0.47484 0.0
H905 H 0.55082 0.69402 0.44796 0.0
C906 C 0.52618 0.08336 0.64351 0.0
C907 C 0.53177 0.05465 0.65661 0.0
C908 C 0.53723 0.07557 0.7171 0.0
C909 C 0.53454 0.10601 0.7039 0.0
N910 N 0.53054 0.14168 0.65491 0.0
N911 N 0.54817 0.02582 0.70453 0.0
C912 C 0.53008 0.11068 0.66714 0.0
C913 C 0.53874 0.05136 0.6931 0.0
N914 N 0.5164 0.08384 0.60843 0.0
N915 N 0.5374 0.06936 0.75252 0.0
H916 H 0.54882 0.00741 0.68744 0.0
H917 H 0.55815 0.02461 0.73035 0.0
H918 H 0.53741 0.08708 0.77092 0.0
H919 H 0.53481 0.0454 0.76362 0.0
H920 H 0.50795 0.10163 0.5972 0.0
H921 H 0.51403 0.06438 0.59068 0.0
H922 H 0.5317 0.14894 0.62849 0.0
H923 H 0.53235 0.16174 0.67149 0.0
C924 C 0.50897 0.52464 0.14273 0.0
C925 C 0.51563 0.49517 0.13839 0.0
C926 C 0.45912 0.45405 0.17597 0.0
C927 C 0.45118 0.48284 0.17929 0.0
N928 N 0.46134 0.54159 0.15819 0.0
N929 N 0.48893 0.42876 0.14153 0.0
C930 C 0.47383 0.51692 0.16018 0.0
C931 C 0.48784 0.45882 0.15189 0.0
N932 N 0.53719 0.5604 0.1321 0.0
N933 N 0.44132 0.42319 0.1973 0.0
H934 H 0.50906 0.4313 0.12318 0.0
H935 H 0.467 0.40097 0.14808 0.0
H936 H 0.4215 0.4192 0.21653 0.0
H937 H 0.4495 0.40342 0.19836 0.0
H938 H 0.53652 0.58378 0.13863 0.0
H939 H 0.5629 0.56723 0.11871 0.0
H940 H 0.47427 0.56512 0.14193 0.0
H941 H 0.43536 0.53652 0.17014 0.0
C942 C 0.03706 0.41112 0.6387 0.0
C943 C 0.01361 0.42132 0.6165 0.0
C944 C 0.95343 0.38205 0.65109 0.0
C945 C 0.97752 0.37404 0.67495 0.0
N946 N 0.04459 0.38717 0.69558 0.0
N947 N 0.9538 0.42566 0.60841 0.0
C948 C 0.02012 0.39047 0.67001 0.0
C949 C 0.9731 0.40957 0.62481 0.0
N950 N 0.0746 0.41966 0.62922 0.0
N951 N 0.91141 0.36222 0.65244 0.0
H952 H 0.9678 0.44717 0.59002 0.0
H953 H 0.92592 0.42073 0.61599 0.0
H954 H 0.89535 0.34075 0.67046 0.0
H955 H 0.89216 0.36439 0.63331 0.0
H956 H 0.091 0.40935 0.64234 0.0
H957 H 0.08794 0.43471 0.60657 0.0
H958 H 0.07661 0.40166 0.69506 0.0
H959 H 0.0333 0.37259 0.71891 0.0
C960 C 0.69546 0.02003 0.23786 0.0
C961 C 0.71417 0.03363 0.20561 0.0
C962 C 0.73074 0.98539 0.20536 0.0
C963 C 0.71193 0.97172 0.23774 0.0
N964 N 0.68612 0.98156 0.28918 0.0
N965 N 0.75671 0.0355 0.16198 0.0
C966 C 0.6975 0.99095 0.25544 0.0
C967 C 0.7344 0.01835 0.1906 0.0
N968 N 0.67362 0.03339 0.25052 0.0
N969 N 0.74308 0.96581 0.18795 0.0
H970 H 0.75934 0.05958 0.1509 0.0
H971 H 0.77519 0.02798 0.15112 0.0
H972 H 0.7411 0.94172 0.19816 0.0
H973 H 0.753 0.972 0.16253 0.0
H974 H 0.65487 0.02138 0.27158 0.0
H975 H 0.67208 0.0551 0.23839 0.0
H976 H 0.67916 0.99693 0.30466 0.0
H977 H 0.68746 0.96042 0.30276 0.0
C978 C 0.60903 0.51341 0.6981 0.0
C979 C 0.62082 0.52421 0.66299 0.0
C980 C 0.69282 0.54759 0.68223 0.0
C981 C 0.68084 0.53613 0.71718 0.0
N982 N 0.62748 0.50396 0.758 0.0
N983 N 0.67224 0.54706 0.62035 0.0
C984 C 0.63889 0.5178 0.72497 0.0
C985 C 0.66222 0.53978 0.65465 0.0
N986 N 0.56926 0.49945 0.70595 0.0
N987 N 0.73371 0.56677 0.67564 0.0
H988 H 0.65122 0.54364 0.59973 0.0
H989 H 0.70058 0.55431 0.61177 0.0
H990 H 0.75666 0.57149 0.69477 0.0
H991 H 0.74548 0.57995 0.65198 0.0
H992 H 0.56022 0.49689 0.73146 0.0
H993 H 0.54528 0.49192 0.6869 0.0
H994 H 0.59695 0.48595 0.76442 0.0
H995 H 0.64871 0.50869 0.77894 0.0
C996 C 0.30051 0.72594 0.08717 0.0
C997 C 0.25742 0.7068 0.07895 0.0
C998 C 0.24726 0.72262 0.13679 0.0
C999 C 0.29054 0.74207 0.14508 0.0
N1000 N 0.35929 0.77034 0.12573 0.0
N1001 N 0.19151 0.69516 0.0911 0.0
C1002 C 0.31753 0.74647 0.11934 0.0
C1003 C 0.23143 0.70808 0.10227 0.0
N1004 N 0.32465 0.72264 0.06512 0.0
N1005 N 0.22109 0.716 0.16236 0.0
H1006 H 0.17958 0.68467 0.06567 0.0
H1007 H 0.17171 0.69821 0.10562 0.0
H1008 H 0.23129 0.72583 0.18814 0.0
H1009 H 0.18906 0.69831 0.15875 0.0
H1010 H 0.35555 0.73236 0.0714 0.0
H1011 H 0.31289 0.7079 0.04132 0.0
H1012 H 0.38046 0.77731 0.10686 0.0
H1013 H 0.37252 0.78588 0.14905 0.0
loop_
_geom_bond_atom_site_label_1
_geom_bond_atom_site_label_2
_geom_bond_distance
_geom_bond_site_symmetry_2
_ccdc_geom_bond_type
Cu0 N1 1.999 1_554 S
Cu0 O6 1.974 1_554 S
Cu0 N11 1.985 . S
Cu0 O20 1.959 . S
N1 Cu0 1.999 1_556 S
N1 C3 1.263 . S
N1 C5 1.389 . S
N2 C3 1.358 . S
N2 C4 1.400 . S
C3 N1 1.263 . S
C3 N2 1.358 . S
C3 H9 0.930 . S
C4 N2 1.400 . S
C4 C5 1.351 . S
C4 H21 0.930 . S
C5 N1 1.389 . S
C5 C4 1.351 . S
C5 H10 0.930 1_556 S
O6 Cu0 1.974 1_556 S
O6 C16 1.282 . S
C7 O8 1.261 . S
C7 O20 1.251 . S
O8 C7 1.261 . S
H9 C3 0.930 . S
H10 C5 0.930 1_554 S
N11 Cu0 1.985 . S
N11 C13 1.335 . S
N11 C14 1.390 . S
N12 C13 1.345 . S
N12 C15 1.336 . S
C13 N11 1.335 . S
C13 N12 1.345 . S
C13 H18 0.930 . S
C14 N11 1.390 . S
C14 C15 1.346 . S
C14 H19 0.931 1_554 S
C15 N12 1.336 . S
C15 C14 1.346 . S
C15 H22 0.929 . S
C16 O6 1.282 . S
C16 O17 1.216 . S
O17 C16 1.216 . S
H18 C13 0.930 . S
H19 C14 0.931 1_556 S
O20 Cu0 1.959 . S
O20 C7 1.251 . S
H21 C4 0.930 . S
H22 C15 0.929 . S
Cu23 N24 1.999 . S
Cu23 O29 1.974 . S
Cu23 N34 1.985 1_565 S
Cu23 O43 1.959 1_565 S
N24 Cu23 1.999 . S
N24 C26 1.263 . S
N24 C28 1.389 . S
N25 C26 1.358 . S
N25 C27 1.400 . S
C26 N24 1.263 . S
C26 N25 1.358 . S
C26 H32 0.930 . S
C27 N25 1.400 . S
C27 C28 1.351 . S
C27 H44 0.930 . S
C28 N24 1.389 . S
C28 C27 1.351 . S
C28 H33 0.930 . S
O29 Cu23 1.974 . S
O29 C39 1.282 . S
C30 O31 1.261 . S
C30 O43 1.251 . S
O31 C30 1.261 . S
H32 C26 0.930 . S
H33 C28 0.930 . S
N34 Cu23 1.985 1_545 S
N34 C36 1.335 . S
N34 C37 1.390 . S
N35 C36 1.345 . S
N35 C38 1.336 . S
C36 N34 1.335 . S
C36 N35 1.345 . S
C36 H41 0.930 . S
C37 N34 1.390 . S
C37 C38 1.346 . S
C37 H42 0.930 . S
C38 N35 1.336 . S
C38 C37 1.346 . S
C38 H45 0.929 . S
C39 O29 1.282 . S
C39 O40 1.216 1_565 S
O40 C39 1.216 1_545 S
H41 C36 0.930 . S
H42 C37 0.930 . S
O43 Cu23 1.959 1_545 S
O43 C30 1.251 . S
H44 C27 0.930 . S
H45 C38 0.929 . S
Cu46 N47 1.999 . S
Cu46 O52 1.974 . S
Cu46 N57 1.985 . S
Cu46 O66 1.959 . S
N47 Cu46 1.999 . S
N47 C49 1.263 . S
N47 C51 1.389 . S
N48 C49 1.358 . S
N48 C50 1.400 . S
C49 N47 1.263 . S
C49 N48 1.358 . S
C49 H55 0.930 . S
C50 N48 1.400 . S
C50 C51 1.351 . S
C50 H67 0.930 . S
C51 N47 1.389 . S
C51 C50 1.351 . S
C51 H56 0.930 . S
O52 Cu46 1.974 . S
O52 C62 1.282 . S
C53 O54 1.261 . S
C53 O66 1.251 . S
O54 C53 1.261 . S
H55 C49 0.930 . S
H56 C51 0.930 . S
N57 Cu46 1.985 . S
N57 C59 1.335 . S
N57 C60 1.390 . S
N58 C59 1.345 . S
N58 C61 1.336 . S
C59 N57 1.335 . S
C59 N58 1.345 . S
C59 H64 0.930 . S
C60 N57 1.390 . S
C60 C61 1.346 . S
C60 H65 0.930 . S
C61 N58 1.336 . S
C61 C60 1.346 . S
C61 H68 0.929 . S
C62 O52 1.282 . S
C62 O63 1.216 . S
O63 C62 1.216 . S
H64 C59 0.930 . S
H65 C60 0.930 . S
O66 Cu46 1.959 . S
O66 C53 1.251 . S
H67 C50 0.930 . S
H68 C61 0.929 . S
Cu69 N70 1.999 1_655 S
Cu69 O75 1.974 1_655 S
Cu69 N80 1.985 . S
Cu69 O89 1.959 . S
N70 Cu69 1.999 1_455 S
N70 C72 1.263 . S
N70 C74 1.389 1_455 S
N71 C72 1.358 . S
N71 C73 1.400 . S
C72 N70 1.263 . S
C72 N71 1.358 . S
C72 H78 0.930 . S
C73 N71 1.400 . S
C73 C74 1.351 1_455 S
C73 H90 0.930 1_455 S
C74 N70 1.389 1_655 S
C74 C73 1.351 1_655 S
C74 H79 0.930 . S
O75 Cu69 1.974 1_455 S
O75 C85 1.282 . S
C76 O77 1.261 1_655 S
C76 O89 1.251 . S
O77 C76 1.261 1_455 S
H78 C72 0.930 . S
H79 C74 0.930 . S
N80 Cu69 1.985 . S
N80 C82 1.335 . S
N80 C83 1.390 . S
N81 C82 1.345 . S
N81 C84 1.336 . S
C82 N80 1.335 . S
C82 N81 1.345 . S
C82 H87 0.930 . S
C83 N80 1.390 . S
C83 C84 1.346 . S
C83 H88 0.930 1_655 S
C84 N81 1.336 . S
C84 C83 1.346 . S
C84 H91 0.929 . S
C85 O75 1.282 . S
C85 O86 1.216 . S
O86 C85 1.216 . S
H87 C82 0.930 . S
H88 C83 0.930 1_455 S
O89 Cu69 1.959 . S
O89 C76 1.251 . S
H90 C73 0.930 1_655 S
H91 C84 0.929 . S
Cu92 N93 1.999 . S
Cu92 O98 1.974 . S
Cu92 N103 1.985 . S
Cu92 O112 1.959 . S
N93 Cu92 1.999 . S
N93 C95 1.263 . S
N93 C97 1.389 . S
N94 C95 1.358 . S
N94 C96 1.400 . S
C95 N93 1.263 . S
C95 N94 1.358 . S
C95 H101 0.930 . S
C96 N94 1.400 . S
C96 C97 1.351 . S
C96 H113 0.930 . S
C97 N93 1.389 . S
C97 C96 1.351 . S
C97 H102 0.930 . S
O98 Cu92 1.974 . S
O98 C108 1.282 . S
C99 O100 1.261 . S
C99 O112 1.251 . S
O100 C99 1.261 . S
H101 C95 0.930 . S
H102 C97 0.930 . S
N103 Cu92 1.985 . S
N103 C105 1.335 . S
N103 C106 1.390 . S
N104 C105 1.345 . S
N104 C107 1.336 . S
C105 N103 1.335 . S
C105 N104 1.345 . S
C105 H110 0.930 . S
C106 N103 1.390 . S
C106 C107 1.346 . S
C106 H111 0.930 . S
C107 N104 1.336 . S
C107 C106 1.346 . S
C107 H114 0.929 . S
C108 O98 1.282 . S
C108 O109 1.216 . S
O109 C108 1.216 . S
H110 C105 0.930 . S
H111 C106 0.930 . S
O112 Cu92 1.959 . S
O112 C99 1.251 . S
H113 C96 0.930 . S
H114 C107 0.929 . S
Cu115 N116 1.999 . S
Cu115 O121 1.974 . S
Cu115 N126 1.985 . S
Cu115 O135 1.959 . S
N116 Cu115 1.999 . S
N116 C118 1.263 . S
N116 C120 1.389 . S
N117 C118 1.358 . S
N117 C119 1.400 . S
C118 N116 1.263 . S
C118 N117 1.358 . S
C118 H124 0.930 . S
C119 N117 1.400 . S
C119 C120 1.351 . S
C119 H136 0.930 . S
C120 N116 1.389 . S
C120 C119 1.351 . S
C120 H125 0.930 . S
O121 Cu115 1.974 . S
O121 C131 1.282 . S
C122 O123 1.261 . S
C122 O135 1.251 . S
O123 C122 1.261 . S
H124 C118 0.930 . S
H125 C120 0.930 . S
N126 Cu115 1.985 . S
N126 C128 1.335 . S
N126 C129 1.390 . S
N127 C128 1.345 . S
N127 C130 1.336 . S
C128 N126 1.335 . S
C128 N127 1.345 . S
C128 H133 0.930 . S
C129 N126 1.390 . S
C129 C130 1.346 . S
C129 H134 0.930 . S
C130 N127 1.336 . S
C130 C129 1.346 . S
C130 H137 0.929 . S
C131 O121 1.282 . S
C131 O132 1.216 . S
O132 C131 1.216 . S
H133 C128 0.930 . S
H134 C129 0.930 . S
O135 Cu115 1.959 . S
O135 C122 1.251 . S
H136 C119 0.930 . S
H137 C130 0.929 . S
H138 O164 0.856 . S
H139 O167 0.854 . S
H140 C175 0.930 . S
H141 C176 0.930 . S
H142 C178 0.930 . S
H143 C179 0.930 . S
H144 C181 0.931 . S
H145 C182 0.930 . S
H146 C184 0.930 . S
H147 C185 0.929 . S
H148 C187 0.930 . S
H149 C188 0.931 . S
H150 C190 0.930 . S
H151 C191 0.929 . S
H152 C193 0.931 . S
H153 C194 0.930 . S
H154 C196 0.930 . S
H155 C197 0.932 . S
H156 C199 0.930 . S
H157 C200 0.929 . S
H158 C202 0.931 . S
H159 C203 0.930 . S
H160 C205 0.929 . S
H161 C206 0.931 . S
H162 C208 0.930 . S
H163 C209 0.929 . S
O164 H138 0.856 . S
O164 C210 1.300 . S
O165 C210 1.209 . S
O166 C211 1.199 . S
O167 H139 0.854 . S
O167 C211 1.297 . S
C168 C169 1.404 . S
C168 C173 1.397 . S
C168 C174 1.492 . S
C169 C168 1.404 . S
C169 C170 1.396 . S
C169 C180 1.492 . S
C170 C169 1.396 . S
C170 C171 1.397 . S
C170 C186 1.509 . S
C171 C170 1.397 . S
C171 C172 1.412 . S
C171 C192 1.485 . S
C172 C171 1.412 . S
C172 C173 1.388 . S
C172 C198 1.490 . S
C173 C168 1.397 . S
C173 C172 1.388 . S
C173 C204 1.519 . S
C174 C168 1.492 . S
C174 C175 1.363 . S
C174 C179 1.390 . S
C175 H140 0.930 . S
C175 C174 1.363 . S
C175 C176 1.372 . S
C176 H141 0.930 . S
C176 C175 1.372 . S
C176 C177 1.383 . S
C177 C176 1.383 . S
C177 C178 1.395 . S
C178 H142 0.930 . S
C178 C177 1.395 . S
C178 C179 1.362 . S
C179 H143 0.930 . S
C179 C174 1.390 . S
C179 C178 1.362 . S
C180 C169 1.492 . S
C180 C181 1.377 . S
C180 C185 1.397 . S
C181 H144 0.931 . S
C181 C180 1.377 . S
C181 C182 1.376 . S
C182 H145 0.930 . S
C182 C181 1.376 . S
C182 C183 1.376 . S
C183 C182 1.376 . S
C183 C184 1.378 . S
C183 C210 1.486 . S
C184 H146 0.930 . S
C184 C183 1.378 . S
C184 C185 1.376 . S
C185 H147 0.929 . S
C185 C180 1.397 . S
C185 C184 1.376 . S
C186 C170 1.509 . S
C186 C187 1.391 . S
C186 C191 1.386 . S
C187 H148 0.930 . S
C187 C186 1.391 . S
C187 C188 1.375 . S
C188 H149 0.931 . S
C188 C187 1.375 . S
C188 C189 1.375 . S
C189 C188 1.375 . S
C189 C190 1.361 . S
C190 H150 0.930 . S
C190 C189 1.361 . S
C190 C191 1.399 . S
C191 H151 0.929 . S
C191 C186 1.386 . S
C191 C190 1.399 . S
C192 C171 1.485 . S
C192 C193 1.394 . S
C192 C197 1.360 . S
C193 H152 0.931 . S
C193 C192 1.394 . S
C193 C194 1.372 . S
C194 H153 0.930 . S
C194 C193 1.372 . S
C194 C195 1.397 . S
C195 C194 1.397 . S
C195 C196 1.390 . S
C195 C211 1.476 . S
C196 H154 0.930 . S
C196 C195 1.390 . S
C196 C197 1.366 . S
C197 H155 0.932 . S
C197 C192 1.360 . S
C197 C196 1.366 . S
C198 C172 1.490 . S
C198 C199 1.380 . S
C198 C203 1.386 . S
C199 H156 0.930 . S
C199 C198 1.380 . S
C199 C200 1.381 . S
C200 H157 0.929 . S
C200 C199 1.381 . S
C200 C201 1.371 . S
C201 C200 1.371 . S
C201 C202 1.380 . S
C202 H158 0.931 . S
C202 C201 1.380 . S
C202 C203 1.387 . S
C203 H159 0.930 . S
C203 C198 1.386 . S
C203 C202 1.387 . S
C204 C173 1.519 . S
C204 C205 1.377 . S
C204 C209 1.361 . S
C205 H160 0.929 . S
C205 C204 1.377 . S
C205 C206 1.386 . S
C206 H161 0.931 . S
C206 C205 1.386 . S
C206 C207 1.363 . S
C207 C206 1.363 . S
C207 C208 1.385 . S
C208 H162 0.930 . S
C208 C207 1.385 . S
C208 C209 1.396 . S
C209 H163 0.929 . S
C209 C204 1.361 . S
C209 C208 1.396 . S
C210 O164 1.300 . S
C210 O165 1.209 . S
C210 C183 1.486 . S
C211 O166 1.199 . S
C211 O167 1.297 . S
C211 C195 1.476 . S
H212 O238 0.856 . S
H213 O241 0.854 . S
H214 C249 0.930 . S
H215 C250 0.930 . S
H216 C252 0.930 . S
H217 C253 0.930 . S
H218 C255 0.931 . S
H219 C256 0.930 . S
H220 C258 0.930 . S
H221 C259 0.929 . S
H222 C261 0.930 . S
H223 C262 0.931 . S
H224 C264 0.930 . S
H225 C265 0.929 . S
H226 C267 0.931 . S
H227 C268 0.930 . S
H228 C270 0.930 . S
H229 C271 0.932 . S
H230 C273 0.930 . S
H231 C274 0.929 . S
H232 C276 0.931 . S
H233 C277 0.930 . S
H234 C279 0.929 . S
H235 C280 0.931 . S
H236 C282 0.930 . S
H237 C283 0.929 . S
O238 H212 0.856 . S
O238 C284 1.300 . S
O239 C284 1.182 1_455 S
O240 C285 1.199 . S
O241 H213 0.854 . S
O241 C285 1.297 1_565 S
C242 C243 1.404 . S
C242 C247 1.397 . S
C242 C248 1.492 . S
C243 C242 1.404 . S
C243 C244 1.396 . S
C243 C254 1.492 . S
C244 C243 1.396 . S
C244 C245 1.397 . S
C244 C260 1.509 . S
C245 C244 1.397 . S
C245 C246 1.412 . S
C245 C266 1.485 . S
C246 C245 1.412 . S
C246 C247 1.388 . S
C246 C272 1.490 . S
C247 C242 1.397 . S
C247 C246 1.388 . S
C247 C278 1.519 . S
C248 C242 1.492 . S
C248 C249 1.363 . S
C248 C253 1.390 . S
C249 H214 0.930 . S
C249 C248 1.363 . S
C249 C250 1.372 . S
C250 H215 0.930 . S
C250 C249 1.372 . S
C250 C251 1.383 1_655 S
C251 C250 1.383 1_455 S
C251 C252 1.395 . S
C252 H216 0.930 . S
C252 C251 1.395 . S
C252 C253 1.362 1_455 S
C253 H217 0.930 . S
C253 C248 1.390 . S
C253 C252 1.362 1_655 S
C254 C243 1.492 . S
C254 C255 1.377 . S
C254 C259 1.397 . S
C255 H218 0.931 . S
C255 C254 1.377 . S
C255 C256 1.376 . S
C256 H219 0.930 . S
C256 C255 1.376 . S
C256 C257 1.376 . S
C257 C256 1.376 . S
C257 C258 1.378 . S
C257 C284 1.486 1_556 S
C258 H220 0.930 . S
C258 C257 1.378 . S
C258 C259 1.376 . S
C259 H221 0.929 . S
C259 C254 1.397 . S
C259 C258 1.376 . S
C260 C244 1.509 . S
C260 C261 1.391 . S
C260 C265 1.386 . S
C261 H222 0.930 . S
C261 C260 1.391 . S
C261 C262 1.375 . S
C262 H223 0.931 . S
C262 C261 1.375 . S
C262 C263 1.375 . S
C263 C262 1.375 . S
C263 C264 1.361 . S
C264 H224 0.930 . S
C264 C263 1.361 . S
C264 C265 1.399 . S
C265 H225 0.929 . S
C265 C260 1.386 . S
C265 C264 1.399 . S
C266 C245 1.485 . S
C266 C267 1.394 . S
C266 C271 1.360 . S
C267 H226 0.931 . S
C267 C266 1.394 . S
C267 C268 1.372 . S
C268 H227 0.930 . S
C268 C267 1.372 . S
C268 C269 1.397 . S
C269 C268 1.397 . S
C269 C270 1.390 . S
C269 C285 1.476 . S
C270 H228 0.930 . S
C270 C269 1.390 . S
C270 C271 1.366 . S
C271 H229 0.932 . S
C271 C266 1.360 . S
C271 C270 1.366 . S
C272 C246 1.490 . S
C272 C273 1.380 . S
C272 C277 1.386 . S
C273 H230 0.930 . S
C273 C272 1.380 . S
C273 C274 1.381 . S
C274 H231 0.929 . S
C274 C273 1.381 . S
C274 C275 1.371 . S
C275 C274 1.371 . S
C275 C276 1.380 . S
C276 H232 0.931 . S
C276 C275 1.380 . S
C276 C277 1.387 . S
C277 H233 0.930 . S
C277 C272 1.386 . S
C277 C276 1.387 . S
C278 C247 1.519 . S
C278 C279 1.377 . S
C278 C283 1.361 . S
C279 H234 0.929 . S
C279 C278 1.377 . S
C279 C280 1.386 . S
C280 H235 0.931 . S
C280 C279 1.386 . S
C280 C281 1.363 . S
C281 C280 1.363 . S
C281 C282 1.385 . S
C282 H236 0.930 . S
C282 C281 1.385 . S
C282 C283 1.396 . S
C283 H237 0.929 . S
C283 C278 1.361 . S
C283 C282 1.396 . S
C284 O238 1.300 . S
C284 O239 1.182 1_655 S
C284 C257 1.486 1_554 S
C285 O240 1.199 . S
C285 O241 1.297 1_545 S
C285 C269 1.476 . S
H286 O312 0.856 . S
H287 O315 0.854 . S
H288 C323 0.930 . S
H289 C324 0.930 . S
H290 C326 0.930 . S
H291 C327 0.930 . S
H292 C329 0.931 . S
H293 C330 0.930 . S
H294 C332 0.930 . S
H295 C333 0.929 . S
H296 C335 0.930 . S
H297 C336 0.931 . S
H298 C338 0.930 . S
H299 C339 0.929 . S
H300 C341 0.931 . S
H301 C342 0.930 . S
H302 C344 0.930 . S
H303 C345 0.932 . S
H304 C347 0.930 . S
H305 C348 0.929 . S
H306 C350 0.931 . S
H307 C351 0.930 . S
H308 C353 0.929 . S
H309 C354 0.931 . S
H310 C356 0.930 . S
H311 C357 0.929 . S
O312 H286 0.856 . S
O312 C358 1.300 . S
O313 C358 1.209 . S
O314 C359 1.199 . S
O315 H287 0.854 . S
O315 C359 1.297 . S
C316 C317 1.404 . S
C316 C321 1.397 . S
C316 C322 1.492 . S
C317 C316 1.404 . S
C317 C318 1.396 . S
C317 C328 1.492 . S
C318 C317 1.396 . S
C318 C319 1.397 . S
C318 C334 1.509 . S
C319 C318 1.397 . S
C319 C320 1.412 . S
C319 C340 1.485 . S
C320 C319 1.412 . S
C320 C321 1.388 . S
C320 C346 1.490 . S
C321 C316 1.397 . S
C321 C320 1.388 . S
C321 C352 1.519 . S
C322 C316 1.492 . S
C322 C323 1.363 . S
C322 C327 1.390 . S
C323 H288 0.930 . S
C323 C322 1.363 . S
C323 C324 1.372 . S
C324 H289 0.930 . S
C324 C323 1.372 . S
C324 C325 1.383 . S
C325 C324 1.383 . S
C325 C326 1.395 . S
C326 H290 0.930 . S
C326 C325 1.395 . S
C326 C327 1.362 . S
C327 H291 0.930 . S
C327 C322 1.390 . S
C327 C326 1.362 . S
C328 C317 1.492 . S
C328 C329 1.377 . S
C328 C333 1.397 . S
C329 H292 0.931 . S
C329 C328 1.377 . S
C329 C330 1.376 . S
C330 H293 0.930 . S
C330 C329 1.376 . S
C330 C331 1.376 . S
C331 C330 1.376 . S
C331 C332 1.378 . S
C331 C358 1.486 . S
C332 H294 0.930 . S
C332 C331 1.378 . S
C332 C333 1.376 . S
C333 H295 0.929 . S
C333 C328 1.397 . S
C333 C332 1.376 . S
C334 C318 1.509 . S
C334 C335 1.391 . S
C334 C339 1.386 . S
C335 H296 0.930 . S
C335 C334 1.391 . S
C335 C336 1.375 . S
C336 H297 0.931 . S
C336 C335 1.375 . S
C336 C337 1.375 . S
C337 C336 1.375 . S
C337 C338 1.361 . S
C338 H298 0.930 . S
C338 C337 1.361 . S
C338 C339 1.399 . S
C339 H299 0.929 . S
C339 C334 1.386 . S
C339 C338 1.399 . S
C340 C319 1.485 . S
C340 C341 1.394 . S
C340 C345 1.360 . S
C341 H300 0.931 . S
C341 C340 1.394 . S
C341 C342 1.372 . S
C342 H301 0.930 . S
C342 C341 1.372 . S
C342 C343 1.397 . S
C343 C342 1.397 . S
C343 C344 1.390 1_565 S
C343 C359 1.476 1_565 S
C344 H302 0.930 . S
C344 C343 1.390 1_545 S
C344 C345 1.366 1_545 S
C345 H303 0.932 . S
C345 C340 1.360 . S
C345 C344 1.366 1_565 S
C346 C320 1.490 . S
C346 C347 1.380 . S
C346 C351 1.386 . S
C347 H304 0.930 . S
C347 C346 1.380 . S
C347 C348 1.381 . S
C348 H305 0.929 . S
C348 C347 1.381 . S
C348 C349 1.371 . S
C349 C348 1.371 . S
C349 C350 1.380 . S
C350 H306 0.931 . S
C350 C349 1.380 . S
C350 C351 1.387 . S
C351 H307 0.930 . S
C351 C346 1.386 . S
C351 C350 1.387 . S
C352 C321 1.519 . S
C352 C353 1.377 . S
C352 C357 1.361 . S
C353 H308 0.929 . S
C353 C352 1.377 . S
C353 C354 1.386 . S
C354 H309 0.931 . S
C354 C353 1.386 . S
C354 C355 1.363 . S
C355 C354 1.363 . S
C355 C356 1.385 . S
C356 H310 0.930 . S
C356 C355 1.385 . S
C356 C357 1.396 . S
C357 H311 0.929 . S
C357 C352 1.361 . S
C357 C356 1.396 . S
C358 O312 1.300 . S
C358 O313 1.209 . S
C358 C331 1.486 . S
C359 O314 1.199 . S
C359 O315 1.297 . S
C359 C343 1.476 1_545 S
H360 O386 0.856 . S
H361 O389 0.854 . S
H362 C397 0.930 . S
H363 C398 0.930 . S
H364 C400 0.930 . S
H365 C401 0.930 . S
H366 C403 0.931 . S
H367 C404 0.930 . S
H368 C406 0.930 . S
H369 C407 0.929 . S
H370 C409 0.930 . S
H371 C410 0.931 1_455 S
H372 C412 0.930 . S
H373 C413 0.929 . S
H374 C415 0.931 . S
H375 C416 0.930 . S
H376 C418 0.930 . S
H377 C419 0.932 . S
H378 C421 0.930 . S
H379 C422 0.930 1_455 S
H380 C424 0.931 . S
H381 C425 0.930 . S
H382 C427 0.929 . S
H383 C428 0.931 . S
H384 C430 0.930 . S
H385 C431 0.929 . S
O386 H360 0.856 . S
O386 C432 1.300 . S
O387 C432 1.209 . S
O388 C433 1.199 . S
O389 H361 0.854 . S
O389 C433 1.297 . S
C390 C391 1.404 . S
C390 C395 1.397 . S
C390 C396 1.492 . S
C391 C390 1.404 . S
C391 C392 1.396 . S
C391 C402 1.492 . S
C392 C391 1.396 . S
C392 C393 1.397 . S
C392 C408 1.509 . S
C393 C392 1.397 . S
C393 C394 1.412 . S
C393 C414 1.485 . S
C394 C393 1.412 . S
C394 C395 1.388 . S
C394 C420 1.490 . S
C395 C390 1.397 . S
C395 C394 1.388 . S
C395 C426 1.519 . S
C396 C390 1.492 . S
C396 C397 1.363 . S
C396 C401 1.390 . S
C397 H362 0.930 . S
C397 C396 1.363 . S
C397 C398 1.372 . S
C398 H363 0.930 . S
C398 C397 1.372 . S
C398 C399 1.383 . S
C399 C398 1.383 . S
C399 C400 1.395 . S
C400 H364 0.930 . S
C400 C399 1.395 . S
C400 C401 1.362 . S
C401 H365 0.930 . S
C401 C396 1.390 . S
C401 C400 1.362 . S
C402 C391 1.492 . S
C402 C403 1.377 . S
C402 C407 1.397 . S
C403 H366 0.931 . S
C403 C402 1.377 . S
C403 C404 1.376 . S
C404 H367 0.930 . S
C404 C403 1.376 . S
C404 C405 1.376 . S
C405 C404 1.376 . S
C405 C406 1.378 . S
C405 C432 1.486 . S
C406 H368 0.930 . S
C406 C405 1.378 . S
C406 C407 1.376 . S
C407 H369 0.929 . S
C407 C402 1.397 . S
C407 C406 1.376 . S
C408 C392 1.509 . S
C408 C409 1.391 . S
C408 C413 1.386 . S
C409 H370 0.930 . S
C409 C408 1.391 . S
C409 C410 1.375 . S
C410 H371 0.931 1_655 S
C410 C409 1.375 . S
C410 C411 1.375 . S
C411 C410 1.375 . S
C411 C412 1.361 . S
C412 H372 0.930 . S
C412 C411 1.361 . S
C412 C413 1.399 . S
C413 H373 0.929 . S
C413 C408 1.386 . S
C413 C412 1.399 . S
C414 C393 1.485 . S
C414 C415 1.394 1_655 S
C414 C419 1.360 . S
C415 H374 0.931 . S
C415 C414 1.394 1_455 S
C415 C416 1.372 . S
C416 H375 0.930 . S
C416 C415 1.372 . S
C416 C417 1.397 . S
C417 C416 1.397 . S
C417 C418 1.390 . S
C417 C433 1.476 . S
C418 H376 0.930 . S
C418 C417 1.390 . S
C418 C419 1.366 1_455 S
C419 H377 0.932 . S
C419 C414 1.360 . S
C419 C418 1.366 1_655 S
C420 C394 1.490 . S
C420 C421 1.380 . S
C420 C425 1.386 . S
C421 H378 0.930 . S
C421 C420 1.380 . S
C421 C422 1.381 . S
C422 H379 0.930 1_655 S
C422 C421 1.381 . S
C422 C423 1.371 . S
C423 C422 1.371 . S
C423 C424 1.380 . S
C424 H380 0.931 . S
C424 C423 1.380 . S
C424 C425 1.387 . S
C425 H381 0.930 . S
C425 C420 1.386 . S
C425 C424 1.387 . S
C426 C395 1.519 . S
C426 C427 1.377 . S
C426 C431 1.361 . S
C427 H382 0.929 . S
C427 C426 1.377 . S
C427 C428 1.386 . S
C428 H383 0.931 . S
C428 C427 1.386 . S
C428 C429 1.363 . S
C429 C428 1.363 . S
C429 C430 1.385 . S
C430 H384 0.930 . S
C430 C429 1.385 . S
C430 C431 1.396 . S
C431 H385 0.929 . S
C431 C426 1.361 . S
C431 C430 1.396 . S
C432 O386 1.300 . S
C432 O387 1.209 . S
C432 C405 1.486 . S
C433 O388 1.199 . S
C433 O389 1.297 . S
C433 C417 1.476 . S
H434 O460 0.856 . S
H435 O463 0.854 . S
H436 C471 0.930 . S
H437 C472 0.930 . S
H438 C474 0.930 . S
H439 C475 0.930 . S
H440 C477 0.931 . S
H441 C478 0.930 . S
H442 C480 0.930 . S
H443 C481 0.929 . S
H444 C483 0.930 . S
H445 C484 0.931 . S
H446 C486 0.930 . S
H447 C487 0.929 . S
H448 C489 0.931 . S
H449 C490 0.930 . S
H450 C492 0.930 . S
H451 C493 0.932 . S
H452 C495 0.930 . S
H453 C496 0.929 . S
H454 C498 0.931 . S
H455 C499 0.930 . S
H456 C501 0.929 . S
H457 C502 0.931 . S
H458 C504 0.930 . S
H459 C505 0.929 . S
O460 H434 0.856 . S
O460 C506 1.300 . S
O461 C506 1.209 . S
O462 C507 1.199 . S
O463 H435 0.854 . S
O463 C507 1.297 . S
C464 C465 1.404 . S
C464 C469 1.397 . S
C464 C470 1.492 . S
C465 C464 1.404 . S
C465 C466 1.396 . S
C465 C476 1.492 . S
C466 C465 1.396 . S
C466 C467 1.397 . S
C466 C482 1.509 . S
C467 C466 1.397 . S
C467 C468 1.412 . S
C467 C488 1.485 . S
C468 C467 1.412 . S
C468 C469 1.388 . S
C468 C494 1.490 . S
C469 C464 1.397 . S
C469 C468 1.388 . S
C469 C500 1.519 . S
C470 C464 1.492 . S
C470 C471 1.363 . S
C470 C475 1.390 . S
C471 H436 0.930 . S
C471 C470 1.363 . S
C471 C472 1.372 . S
C472 H437 0.930 . S
C472 C471 1.372 . S
C472 C473 1.383 . S
C473 C472 1.383 . S
C473 C474 1.395 . S
C474 H438 0.930 . S
C474 C473 1.395 . S
C474 C475 1.362 . S
C475 H439 0.930 . S
C475 C470 1.390 . S
C475 C474 1.362 . S
C476 C465 1.492 . S
C476 C477 1.377 . S
C476 C481 1.397 . S
C477 H440 0.931 . S
C477 C476 1.377 . S
C477 C478 1.376 . S
C478 H441 0.930 . S
C478 C477 1.376 . S
C478 C479 1.376 . S
C479 C478 1.376 . S
C479 C480 1.378 . S
C479 C506 1.486 . S
C480 H442 0.930 . S
C480 C479 1.378 . S
C480 C481 1.376 . S
C481 H443 0.929 . S
C481 C476 1.397 . S
C481 C480 1.376 . S
C482 C466 1.509 . S
C482 C483 1.391 . S
C482 C487 1.386 . S
C483 H444 0.930 . S
C483 C482 1.391 . S
C483 C484 1.375 . S
C484 H445 0.931 . S
C484 C483 1.375 . S
C484 C485 1.375 . S
C485 C484 1.375 . S
C485 C486 1.361 . S
C486 H446 0.930 . S
C486 C485 1.361 . S
C486 C487 1.399 . S
C487 H447 0.929 . S
C487 C482 1.386 . S
C487 C486 1.399 . S
C488 C467 1.485 . S
C488 C489 1.394 . S
C488 C493 1.360 . S
C489 H448 0.931 . S
C489 C488 1.394 . S
C489 C490 1.372 . S
C490 H449 0.930 . S
C490 C489 1.372 . S
C490 C491 1.397 . S
C491 C490 1.397 . S
C491 C492 1.390 . S
C491 C507 1.476 . S
C492 H450 0.930 . S
C492 C491 1.390 . S
C492 C493 1.366 . S
C493 H451 0.932 . S
C493 C488 1.360 . S
C493 C492 1.366 . S
C494 C468 1.490 . S
C494 C495 1.380 . S
C494 C499 1.386 . S
C495 H452 0.930 . S
C495 C494 1.380 . S
C495 C496 1.381 . S
C496 H453 0.929 . S
C496 C495 1.381 . S
C496 C497 1.371 . S
C497 C496 1.371 . S
C497 C498 1.380 . S
C498 H454 0.931 . S
C498 C497 1.380 . S
C498 C499 1.387 . S
C499 H455 0.930 . S
C499 C494 1.386 . S
C499 C498 1.387 . S
C500 C469 1.519 . S
C500 C501 1.377 . S
C500 C505 1.361 . S
C501 H456 0.929 . S
C501 C500 1.377 . S
C501 C502 1.386 . S
C502 H457 0.931 . S
C502 C501 1.386 . S
C502 C503 1.363 . S
C503 C502 1.363 . S
C503 C504 1.385 . S
C504 H458 0.930 . S
C504 C503 1.385 . S
C504 C505 1.396 . S
C505 H459 0.929 . S
C505 C500 1.361 . S
C505 C504 1.396 . S
C506 O460 1.300 . S
C506 O461 1.209 . S
C506 C479 1.486 . S
C507 O462 1.199 . S
C507 O463 1.297 . S
C507 C491 1.476 . S
H508 O534 0.856 . S
H509 O537 0.854 . S
H510 C545 0.930 . S
H511 C546 0.930 . S
H512 C548 0.930 . S
H513 C549 0.930 . S
H514 C551 0.931 . S
H515 C552 0.930 . S
H516 C554 0.930 . S
H517 C555 0.929 . S
H518 C557 0.930 . S
H519 C558 0.931 . S
H520 C560 0.930 . S
H521 C561 0.929 . S
H522 C563 0.931 . S
H523 C564 0.930 . S
H524 C566 0.930 . S
H525 C567 0.932 . S
H526 C569 0.930 . S
H527 C570 0.929 . S
H528 C572 0.931 . S
H529 C573 0.930 . S
H530 C575 0.929 . S
H531 C576 0.931 . S
H532 C578 0.930 . S
H533 C579 0.929 . S
O534 H508 0.856 . S
O534 C580 1.300 . S
O535 C580 1.209 . S
O536 C581 1.199 . S
O537 H509 0.854 . S
O537 C581 1.297 1_565 S
C538 C539 1.404 . S
C538 C543 1.397 . S
C538 C544 1.492 . S
C539 C538 1.404 . S
C539 C540 1.396 . S
C539 C550 1.492 . S
C540 C539 1.396 . S
C540 C541 1.397 . S
C540 C556 1.509 . S
C541 C540 1.397 . S
C541 C542 1.412 . S
C541 C562 1.485 . S
C542 C541 1.412 . S
C542 C543 1.388 . S
C542 C568 1.490 . S
C543 C538 1.397 . S
C543 C542 1.388 . S
C543 C574 1.519 . S
C544 C538 1.492 . S
C544 C545 1.363 . S
C544 C549 1.390 . S
C545 H510 0.930 . S
C545 C544 1.363 . S
C545 C546 1.372 . S
C546 H511 0.930 . S
C546 C545 1.372 . S
C546 C547 1.383 . S
C547 C546 1.383 . S
C547 C548 1.395 . S
C548 H512 0.930 . S
C548 C547 1.395 . S
C548 C549 1.362 . S
C549 H513 0.930 . S
C549 C544 1.390 . S
C549 C548 1.362 . S
C550 C539 1.492 . S
C550 C551 1.377 . S
C550 C555 1.397 . S
C551 H514 0.931 . S
C551 C550 1.377 . S
C551 C552 1.376 . S
C552 H515 0.930 . S
C552 C551 1.376 . S
C552 C553 1.376 . S
C553 C552 1.376 . S
C553 C554 1.378 . S
C553 C580 1.486 . S
C554 H516 0.930 . S
C554 C553 1.378 . S
C554 C555 1.376 . S
C555 H517 0.929 . S
C555 C550 1.397 . S
C555 C554 1.376 . S
C556 C540 1.509 . S
C556 C557 1.391 . S
C556 C561 1.386 . S
C557 H518 0.930 . S
C557 C556 1.391 . S
C557 C558 1.375 . S
C558 H519 0.931 . S
C558 C557 1.375 . S
C558 C559 1.375 . S
C559 C558 1.375 . S
C559 C560 1.361 . S
C560 H520 0.930 . S
C560 C559 1.361 . S
C560 C561 1.399 . S
C561 H521 0.929 . S
C561 C556 1.386 . S
C561 C560 1.399 . S
C562 C541 1.485 . S
C562 C563 1.394 . S
C562 C567 1.360 . S
C563 H522 0.931 . S
C563 C562 1.394 . S
C563 C564 1.372 . S
C564 H523 0.930 . S
C564 C563 1.372 . S
C564 C565 1.397 . S
C565 C564 1.397 . S
C565 C566 1.390 . S
C565 C581 1.476 . S
C566 H524 0.930 . S
C566 C565 1.390 . S
C566 C567 1.366 . S
C567 H525 0.932 . S
C567 C562 1.360 . S
C567 C566 1.366 . S
C568 C542 1.490 . S
C568 C569 1.380 . S
C568 C573 1.386 . S
C569 H526 0.930 . S
C569 C568 1.380 . S
C569 C570 1.381 . S
C570 H527 0.929 . S
C570 C569 1.381 . S
C570 C571 1.371 . S
C571 C570 1.371 . S
C571 C572 1.380 . S
C572 H528 0.931 . S
C572 C571 1.380 . S
C572 C573 1.387 . S
C573 H529 0.930 . S
C573 C568 1.386 . S
C573 C572 1.387 . S
C574 C543 1.519 . S
C574 C575 1.377 . S
C574 C579 1.361 . S
C575 H530 0.929 . S
C575 C574 1.377 . S
C575 C576 1.386 . S
C576 H531 0.931 . S
C576 C575 1.386 . S
C576 C577 1.363 . S
C577 C576 1.363 . S
C577 C578 1.385 . S
C578 H532 0.930 . S
C578 C577 1.385 . S
C578 C579 1.396 . S
C579 H533 0.929 . S
C579 C574 1.361 . S
C579 C578 1.396 . S
C580 O534 1.300 . S
C580 O535 1.209 . S
C580 C553 1.486 . S
C581 O536 1.199 . S
C581 O537 1.297 1_545 S
C581 C565 1.476 . S
C582 C583 1.363 . S
C582 C588 1.379 . S
C582 N590 1.356 . S
C583 C582 1.363 . S
C583 C589 1.363 . S
C584 C585 1.363 . S
C584 C589 1.379 . S
C584 N591 1.356 . S
C585 C584 1.363 . S
C585 C588 1.363 . S
N586 C588 1.356 . S
N586 H598 0.984 . S
N586 H599 0.985 . S
N587 C589 1.356 . S
N587 H592 0.984 . S
N587 H593 0.985 . S
C588 C582 1.379 . S
C588 C585 1.363 . S
C588 N586 1.356 . S
C589 C583 1.363 . S
C589 C584 1.379 . S
C589 N587 1.356 . S
N590 C582 1.356 . S
N590 H596 0.984 . S
N590 H597 0.984 . S
N591 C584 1.356 . S
N591 H594 0.984 . S
N591 H595 0.985 . S
H592 N587 0.984 . S
H593 N587 0.985 . S
H594 N591 0.984 . S
H595 N591 0.985 . S
H596 N590 0.984 . S
H597 N590 0.984 . S
H598 N586 0.984 . S
H599 N586 0.985 . S
C600 C601 1.363 . S
C600 C606 1.379 . S
C600 N608 1.356 . S
C601 C600 1.363 . S
C601 C607 1.363 . S
C602 C603 1.363 . S
C602 C607 1.379 . S
C602 N609 1.356 . S
C603 C602 1.363 . S
C603 C606 1.363 . S
N604 C606 1.356 . S
N604 H616 0.984 . S
N604 H617 0.985 . S
N605 C607 1.356 . S
N605 H610 0.984 . S
N605 H611 0.985 . S
C606 C600 1.379 . S
C606 C603 1.363 . S
C606 N604 1.356 . S
C607 C601 1.363 . S
C607 C602 1.379 . S
C607 N605 1.356 . S
N608 C600 1.356 . S
N608 H614 0.984 . S
N608 H615 0.984 . S
N609 C602 1.356 . S
N609 H612 0.984 . S
N609 H613 0.985 . S
H610 N605 0.984 . S
H611 N605 0.985 . S
H612 N609 0.984 . S
H613 N609 0.985 . S
H614 N608 0.984 . S
H615 N608 0.984 . S
H616 N604 0.984 . S
H617 N604 0.985 . S
C618 C619 1.363 . S
C618 C624 1.379 . S
C618 N626 1.356 . S
C619 C618 1.363 . S
C619 C625 1.363 . S
C620 C621 1.363 . S
C620 C625 1.379 . S
C620 N627 1.356 . S
C621 C620 1.363 . S
C621 C624 1.363 . S
N622 C624 1.356 . S
N622 H634 0.984 . S
N622 H635 0.985 . S
N623 C625 1.356 . S
N623 H628 0.984 . S
N623 H629 0.985 . S
C624 C618 1.379 . S
C624 C621 1.363 . S
C624 N622 1.356 . S
C625 C619 1.363 . S
C625 C620 1.379 . S
C625 N623 1.356 . S
N626 C618 1.356 . S
N626 H632 0.984 . S
N626 H633 0.984 . S
N627 C620 1.356 . S
N627 H630 0.984 . S
N627 H631 0.985 . S
H628 N623 0.984 . S
H629 N623 0.985 . S
H630 N627 0.984 . S
H631 N627 0.985 . S
H632 N626 0.984 . S
H633 N626 0.984 . S
H634 N622 0.984 . S
H635 N622 0.985 . S
C636 C637 1.363 . S
C636 C642 1.379 . S
C636 N644 1.356 . S
C637 C636 1.363 . S
C637 C643 1.363 . S
C638 C639 1.363 . S
C638 C643 1.379 . S
C638 N645 1.356 . S
C639 C638 1.363 . S
C639 C642 1.363 . S
N640 C642 1.356 1_455 S
N640 H652 0.984 . S
N640 H653 0.985 . S
N641 C643 1.356 . S
N641 H646 0.984 . S
N641 H647 0.985 . S
C642 C636 1.379 . S
C642 C639 1.363 . S
C642 N640 1.356 1_655 S
C643 C637 1.363 . S
C643 C638 1.379 . S
C643 N641 1.356 . S
N644 C636 1.356 . S
N644 H650 0.984 1_655 S
N644 H651 0.984 . S
N645 C638 1.356 . S
N645 H648 0.984 . S
N645 H649 0.985 . S
H646 N641 0.984 . S
H647 N641 0.985 . S
H648 N645 0.984 . S
H649 N645 0.985 . S
H650 N644 0.984 1_455 S
H651 N644 0.984 . S
H652 N640 0.984 . S
H653 N640 0.985 . S
C654 C655 1.363 . S
C654 C660 1.379 . S
C654 N662 1.356 . S
C655 C654 1.363 . S
C655 C661 1.364 . S
C656 C657 1.363 . S
C656 C661 1.379 . S
C656 N663 1.356 . S
C657 C656 1.363 . S
C657 C660 1.363 . S
N658 C660 1.356 . S
N658 H670 0.984 . S
N658 H671 0.985 . S
N659 C661 1.355 1_545 S
N659 H664 0.984 . S
N659 H665 0.985 . S
C660 C654 1.379 . S
C660 C657 1.363 . S
C660 N658 1.356 . S
C661 C655 1.364 . S
C661 C656 1.379 . S
C661 N659 1.355 1_565 S
N662 C654 1.356 . S
N662 H668 0.984 . S
N662 H669 0.984 . S
N663 C656 1.356 . S
N663 H666 0.984 . S
N663 H667 0.985 . S
H664 N659 0.984 . S
H665 N659 0.985 . S
H666 N663 0.984 . S
H667 N663 0.985 . S
H668 N662 0.984 . S
H669 N662 0.984 . S
H670 N658 0.984 . S
H671 N658 0.985 . S
C672 C673 1.363 . S
C672 C678 1.379 . S
C672 N680 1.356 . S
C673 C672 1.363 . S
C673 C679 1.363 . S
C674 C675 1.363 . S
C674 C679 1.379 . S
C674 N681 1.356 . S
C675 C674 1.363 . S
C675 C678 1.363 . S
N676 C678 1.356 . S
N676 H688 0.984 . S
N676 H689 0.985 . S
N677 C679 1.356 . S
N677 H682 0.984 . S
N677 H683 0.985 . S
C678 C672 1.379 . S
C678 C675 1.363 . S
C678 N676 1.356 . S
C679 C673 1.363 . S
C679 C674 1.379 . S
C679 N677 1.356 . S
N680 C672 1.356 . S
N680 H686 0.984 . S
N680 H687 0.984 . S
N681 C674 1.356 . S
N681 H684 0.984 . S
N681 H685 0.985 . S
H682 N677 0.984 . S
H683 N677 0.985 . S
H684 N681 0.984 . S
H685 N681 0.985 . S
H686 N680 0.984 . S
H687 N680 0.984 . S
H688 N676 0.984 . S
H689 N676 0.985 . S
C690 C691 1.363 . S
C690 C696 1.379 . S
C690 N698 1.356 . S
C691 C690 1.363 . S
C691 C697 1.363 . S
C692 C693 1.363 . S
C692 C697 1.379 . S
C692 N699 1.356 . S
C693 C692 1.363 . S
C693 C696 1.363 . S
N694 C696 1.356 . S
N694 H706 0.984 . S
N694 H707 0.985 . S
N695 C697 1.356 . S
N695 H700 0.984 . S
N695 H701 0.985 . S
C696 C690 1.379 . S
C696 C693 1.363 . S
C696 N694 1.356 . S
C697 C691 1.363 . S
C697 C692 1.379 . S
C697 N695 1.356 . S
N698 C690 1.356 . S
N698 H704 0.984 . S
N698 H705 0.984 . S
N699 C692 1.356 . S
N699 H702 0.984 . S
N699 H703 0.985 . S
H700 N695 0.984 . S
H701 N695 0.985 . S
H702 N699 0.984 . S
H703 N699 0.985 . S
H704 N698 0.984 . S
H705 N698 0.984 . S
H706 N694 0.984 . S
H707 N694 0.985 . S
C708 C709 1.363 . S
C708 C714 1.379 1_554 S
C708 N716 1.356 . S
C709 C708 1.363 . S
C709 C715 1.363 . S
C710 C711 1.363 . S
C710 C715 1.379 1_556 S
C710 N717 1.356 . S
C711 C710 1.363 . S
C711 C714 1.363 . S
N712 C714 1.356 . S
N712 H724 0.984 . S
N712 H725 0.985 . S
N713 C715 1.356 . S
N713 H718 0.984 . S
N713 H719 0.985 . S
C714 C708 1.379 1_556 S
C714 C711 1.363 . S
C714 N712 1.356 . S
C715 C709 1.363 . S
C715 C710 1.379 1_554 S
C715 N713 1.356 . S
N716 C708 1.356 . S
N716 H722 0.984 . S
N716 H723 0.984 . S
N717 C710 1.356 . S
N717 H720 0.984 . S
N717 H721 0.985 . S
H718 N713 0.984 . S
H719 N713 0.985 . S
H720 N717 0.984 . S
H721 N717 0.985 . S
H722 N716 0.984 . S
H723 N716 0.984 . S
H724 N712 0.984 . S
H725 N712 0.985 . S
C726 C727 1.363 . S
C726 C732 1.379 . S
C726 N734 1.356 . S
C727 C726 1.363 . S
C727 C733 1.363 . S
C728 C729 1.363 . S
C728 C733 1.379 . S
C728 N735 1.356 . S
C729 C728 1.363 . S
C729 C732 1.363 . S
N730 C732 1.356 . S
N730 H742 0.984 . S
N730 H743 0.985 . S
N731 C733 1.356 . S
N731 H736 0.984 . S
N731 H737 0.985 . S
C732 C726 1.379 . S
C732 C729 1.363 . S
C732 N730 1.356 . S
C733 C727 1.363 . S
C733 C728 1.379 . S
C733 N731 1.356 . S
N734 C726 1.356 . S
N734 H740 0.984 . S
N734 H741 0.984 . S
N735 C728 1.356 . S
N735 H738 0.984 . S
N735 H739 0.985 . S
H736 N731 0.984 . S
H737 N731 0.985 . S
H738 N735 0.984 . S
H739 N735 0.985 . S
H740 N734 0.984 . S
H741 N734 0.984 . S
H742 N730 0.984 . S
H743 N730 0.985 . S
C744 C745 1.363 . S
C744 C750 1.379 1_554 S
C744 N752 1.356 . S
C745 C744 1.363 . S
C745 C751 1.363 1_554 S
C746 C747 1.363 . S
C746 C751 1.379 . S
C746 N753 1.356 . S
C747 C746 1.363 . S
C747 C750 1.363 . S
N748 C750 1.356 . S
N748 H760 0.984 1_556 S
N748 H761 0.985 . S
N749 C751 1.356 1_554 S
N749 H754 0.984 . S
N749 H755 0.985 1_554 S
C750 C744 1.379 1_556 S
C750 C747 1.363 . S
C750 N748 1.356 . S
C751 C745 1.363 1_556 S
C751 C746 1.379 . S
C751 N749 1.356 1_556 S
N752 C744 1.356 . S
N752 H758 0.984 . S
N752 H759 0.984 . S
N753 C746 1.356 . S
N753 H756 0.984 . S
N753 H757 0.985 . S
H754 N749 0.984 . S
H755 N749 0.985 1_556 S
H756 N753 0.984 . S
H757 N753 0.985 . S
H758 N752 0.984 . S
H759 N752 0.984 . S
H760 N748 0.984 1_554 S
H761 N748 0.985 . S
C762 C763 1.363 . S
C762 C768 1.379 . S
C762 N770 1.356 . S
C763 C762 1.363 . S
C763 C769 1.363 . S
C764 C765 1.363 . S
C764 C769 1.379 . S
C764 N771 1.356 . S
C765 C764 1.363 . S
C765 C768 1.363 . S
N766 C768 1.356 . S
N766 H778 0.984 . S
N766 H779 0.985 . S
N767 C769 1.356 . S
N767 H772 0.984 . S
N767 H773 0.985 . S
C768 C762 1.379 . S
C768 C765 1.363 . S
C768 N766 1.356 . S
C769 C763 1.363 . S
C769 C764 1.379 . S
C769 N767 1.356 . S
N770 C762 1.356 . S
N770 H776 0.984 . S
N770 H777 0.984 . S
N771 C764 1.356 . S
N771 H774 0.984 . S
N771 H775 0.985 . S
H772 N767 0.984 . S
H773 N767 0.985 . S
H774 N771 0.984 . S
H775 N771 0.985 . S
H776 N770 0.984 . S
H777 N770 0.984 . S
H778 N766 0.984 . S
H779 N766 0.985 . S
C780 C781 1.363 . S
C780 C786 1.379 . S
C780 N788 1.356 . S
C781 C780 1.363 . S
C781 C787 1.363 . S
C782 C783 1.363 . S
C782 C787 1.379 . S
C782 N789 1.356 . S
C783 C782 1.363 . S
C783 C786 1.363 . S
N784 C786 1.356 . S
N784 H796 0.984 . S
N784 H797 0.985 . S
N785 C787 1.356 . S
N785 H790 0.984 . S
N785 H791 0.985 . S
C786 C780 1.379 . S
C786 C783 1.363 . S
C786 N784 1.356 . S
C787 C781 1.363 . S
C787 C782 1.379 . S
C787 N785 1.356 . S
N788 C780 1.356 . S
N788 H794 0.984 . S
N788 H795 0.984 . S
N789 C782 1.356 . S
N789 H792 0.984 . S
N789 H793 0.985 . S
H790 N785 0.984 . S
H791 N785 0.985 . S
H792 N789 0.984 . S
H793 N789 0.985 . S
H794 N788 0.984 . S
H795 N788 0.984 . S
H796 N784 0.984 . S
H797 N784 0.985 . S
C798 C799 1.363 . S
C798 C804 1.379 . S
C798 N806 1.356 . S
C799 C798 1.363 . S
C799 C805 1.363 . S
C800 C801 1.363 . S
C800 C805 1.379 . S
C800 N807 1.356 . S
C801 C800 1.363 . S
C801 C804 1.363 . S
N802 C804 1.356 . S
N802 H814 0.985 1_455 S
N802 H815 0.985 1_455 S
N803 C805 1.356 . S
N803 H808 0.984 . S
N803 H809 0.985 . S
C804 C798 1.379 . S
C804 C801 1.363 . S
C804 N802 1.356 . S
C805 C799 1.363 . S
C805 C800 1.379 . S
C805 N803 1.356 . S
N806 C798 1.356 . S
N806 H812 0.984 . S
N806 H813 0.984 . S
N807 C800 1.356 . S
N807 H810 0.984 . S
N807 H811 0.985 . S
H808 N803 0.984 . S
H809 N803 0.985 . S
H810 N807 0.984 . S
H811 N807 0.985 . S
H812 N806 0.984 . S
H813 N806 0.984 . S
H814 N802 0.985 1_655 S
H815 N802 0.985 1_655 S
C816 C817 1.363 . S
C816 C822 1.379 . S
C816 N824 1.356 . S
C817 C816 1.363 . S
C817 C823 1.363 . S
C818 C819 1.363 . S
C818 C823 1.379 . S
C818 N825 1.325 1_565 S
C819 C818 1.363 . S
C819 C822 1.363 . S
N820 C822 1.356 . S
N820 H832 0.984 . S
N820 H833 0.985 . S
N821 C823 1.356 1_545 S
N821 H826 0.962 1_545 S
N821 H827 0.985 . S
C822 C816 1.379 . S
C822 C819 1.363 . S
C822 N820 1.356 . S
C823 C817 1.363 . S
C823 C818 1.379 . S
C823 N821 1.356 1_565 S
N824 C816 1.356 . S
N824 H830 0.984 . S
N824 H831 0.984 . S
N825 C818 1.325 1_545 S
N825 H828 0.989 1_545 S
N825 H829 1.013 . S
H826 N821 0.962 1_565 S
H827 N821 0.985 . S
H828 N825 0.989 1_565 S
H829 N825 1.013 . S
H830 N824 0.984 . S
H831 N824 0.984 . S
H832 N820 0.984 . S
H833 N820 0.985 . S
C834 C835 1.363 . S
C834 C840 1.379 . S
C834 N842 1.356 1_556 S
C835 C834 1.363 . S
C835 C841 1.363 . S
C836 C837 1.363 . S
C836 C841 1.379 . S
C836 N843 1.356 . S
C837 C836 1.363 . S
C837 C840 1.363 . S
N838 C840 1.356 . S
N838 H850 0.984 . S
N838 H851 0.985 . S
N839 C841 1.356 . S
N839 H844 0.984 . S
N839 H845 0.985 . S
C840 C834 1.379 . S
C840 C837 1.363 . S
C840 N838 1.356 . S
C841 C835 1.363 . S
C841 C836 1.379 . S
C841 N839 1.356 . S
N842 C834 1.356 1_554 S
N842 H848 0.984 . S
N842 H849 0.984 . S
N843 C836 1.356 . S
N843 H846 0.984 . S
N843 H847 0.985 . S
H844 N839 0.984 . S
H845 N839 0.985 . S
H846 N843 0.984 . S
H847 N843 0.985 . S
H848 N842 0.984 . S
H849 N842 0.984 . S
H850 N838 0.984 . S
H851 N838 0.985 . S
C852 C853 1.363 . S
C852 C858 1.379 . S
C852 N860 1.356 . S
C853 C852 1.363 . S
C853 C859 1.363 . S
C854 C855 1.363 . S
C854 C859 1.379 . S
C854 N861 1.356 . S
C855 C854 1.363 . S
C855 C858 1.363 . S
N856 C858 1.356 . S
N856 H868 0.984 . S
N856 H869 0.985 . S
N857 C859 1.356 . S
N857 H862 0.984 . S
N857 H863 0.985 . S
C858 C852 1.379 . S
C858 C855 1.363 . S
C858 N856 1.356 . S
C859 C853 1.363 . S
C859 C854 1.379 . S
C859 N857 1.356 . S
N860 C852 1.356 . S
N860 H866 0.984 1_455 S
N860 H867 0.984 . S
N861 C854 1.356 . S
N861 H864 0.984 . S
N861 H865 0.985 . S
H862 N857 0.984 . S
H863 N857 0.985 . S
H864 N861 0.984 . S
H865 N861 0.985 . S
H866 N860 0.984 1_655 S
H867 N860 0.984 . S
H868 N856 0.984 . S
H869 N856 0.985 . S
C870 C871 1.363 1_556 S
C870 C876 1.379 . S
C870 N878 1.356 . S
C871 C870 1.363 1_554 S
C871 C877 1.363 . S
C872 C873 1.363 1_554 S
C872 C877 1.379 . S
C872 N879 1.356 . S
C873 C872 1.363 1_556 S
C873 C876 1.363 . S
N874 C876 1.356 . S
N874 H886 0.984 . S
N874 H887 0.985 . S
N875 C877 1.356 . S
N875 H880 0.984 . S
N875 H881 0.985 . S
C876 C870 1.379 . S
C876 C873 1.363 . S
C876 N874 1.356 . S
C877 C871 1.363 . S
C877 C872 1.379 . S
C877 N875 1.356 . S
N878 C870 1.356 . S
N878 H884 0.984 . S
N878 H885 0.984 1_556 S
N879 C872 1.356 . S
N879 H882 0.984 1_554 S
N879 H883 0.985 . S
H880 N875 0.984 . S
H881 N875 0.985 . S
H882 N879 0.984 1_556 S
H883 N879 0.985 . S
H884 N878 0.984 . S
H885 N878 0.984 1_554 S
H886 N874 0.984 . S
H887 N874 0.985 . S
C888 C889 1.363 . S
C888 C894 1.379 . S
C888 N896 1.356 . S
C889 C888 1.363 . S
C889 C895 1.363 . S
C890 C891 1.363 . S
C890 C895 1.379 . S
C890 N897 1.356 . S
C891 C890 1.363 . S
C891 C894 1.363 . S
N892 C894 1.356 . S
N892 H904 0.984 . S
N892 H905 0.985 . S
N893 C895 1.356 . S
N893 H898 0.984 . S
N893 H899 0.985 . S
C894 C888 1.379 . S
C894 C891 1.363 . S
C894 N892 1.356 . S
C895 C889 1.363 . S
C895 C890 1.379 . S
C895 N893 1.356 . S
N896 C888 1.356 . S
N896 H902 0.984 . S
N896 H903 0.984 . S
N897 C890 1.356 . S
N897 H900 0.984 . S
N897 H901 0.985 . S
H898 N893 0.984 . S
H899 N893 0.985 . S
H900 N897 0.984 . S
H901 N897 0.985 . S
H902 N896 0.984 . S
H903 N896 0.984 . S
H904 N892 0.984 . S
H905 N892 0.985 . S
C906 C907 1.363 . S
C906 C912 1.379 . S
C906 N914 1.356 . S
C907 C906 1.363 . S
C907 C913 1.363 . S
C908 C909 1.363 . S
C908 C913 1.379 . S
C908 N915 1.356 . S
C909 C908 1.363 . S
C909 C912 1.363 . S
N910 C912 1.356 . S
N910 H922 0.984 . S
N910 H923 0.985 . S
N911 C913 1.356 1_565 S
N911 H916 0.993 1_565 S
N911 H917 0.985 . S
C912 C906 1.379 . S
C912 C909 1.363 . S
C912 N910 1.356 . S
C913 C907 1.363 . S
C913 C908 1.379 . S
C913 N911 1.356 1_545 S
N914 C906 1.356 . S
N914 H920 0.984 . S
N914 H921 0.984 . S
N915 C908 1.356 . S
N915 H918 0.984 . S
N915 H919 0.985 1_545 S
H916 N911 0.993 1_545 S
H917 N911 0.985 . S
H918 N915 0.984 . S
H919 N915 0.985 1_565 S
H920 N914 0.984 . S
H921 N914 0.984 . S
H922 N910 0.984 . S
H923 N910 0.985 . S
C924 C925 1.363 . S
C924 C930 1.379 . S
C924 N932 1.356 . S
C925 C924 1.363 . S
C925 C931 1.363 . S
C926 C927 1.363 . S
C926 C931 1.379 . S
C926 N933 1.356 . S
C927 C926 1.363 . S
C927 C930 1.363 . S
N928 C930 1.356 . S
N928 H940 0.984 . S
N928 H941 0.985 . S
N929 C931 1.356 . S
N929 H934 0.984 . S
N929 H935 0.985 . S
C930 C924 1.379 . S
C930 C927 1.363 . S
C930 N928 1.356 . S
C931 C925 1.363 . S
C931 C926 1.379 . S
C931 N929 1.356 . S
N932 C924 1.356 . S
N932 H938 0.984 . S
N932 H939 0.984 . S
N933 C926 1.356 . S
N933 H936 0.984 . S
N933 H937 0.985 . S
H934 N929 0.984 . S
H935 N929 0.985 . S
H936 N933 0.984 . S
H937 N933 0.985 . S
H938 N932 0.984 . S
H939 N932 0.984 . S
H940 N928 0.984 . S
H941 N928 0.985 . S
C942 C943 1.363 1_455 S
C942 C948 1.379 . S
C942 N950 1.356 . S
C943 C942 1.363 1_655 S
C943 C949 1.363 . S
C944 C945 1.363 . S
C944 C949 1.379 . S
C944 N951 1.356 . S
C945 C944 1.363 . S
C945 C948 1.363 1_655 S
N946 C948 1.356 . S
N946 H958 0.984 . S
N946 H959 0.985 . S
N947 C949 1.356 . S
N947 H952 0.984 . S
N947 H953 0.985 . S
C948 C942 1.379 . S
C948 C945 1.363 1_455 S
C948 N946 1.356 . S
C949 C943 1.363 . S
C949 C944 1.379 . S
C949 N947 1.356 . S
N950 C942 1.356 . S
N950 H956 0.984 . S
N950 H957 0.984 . S
N951 C944 1.356 . S
N951 H954 0.984 . S
N951 H955 0.985 . S
H952 N947 0.984 . S
H953 N947 0.985 . S
H954 N951 0.984 . S
H955 N951 0.985 . S
H956 N950 0.984 . S
H957 N950 0.984 . S
H958 N946 0.984 . S
H959 N946 0.985 . S
C960 C961 1.363 . S
C960 C966 1.379 . S
C960 N968 1.356 . S
C961 C960 1.363 . S
C961 C967 1.363 1_545 S
C962 C963 1.363 . S
C962 C967 1.379 . S
C962 N969 1.356 . S
C963 C962 1.363 . S
C963 C966 1.363 1_565 S
N964 C966 1.356 . S
N964 H976 0.984 . S
N964 H977 0.985 . S
N965 C967 1.356 . S
N965 H970 0.984 . S
N965 H971 0.985 . S
C966 C960 1.379 . S
C966 C963 1.363 1_545 S
C966 N964 1.356 . S
C967 C961 1.363 1_565 S
C967 C962 1.379 . S
C967 N965 1.356 . S
N968 C960 1.356 . S
N968 H974 0.984 . S
N968 H975 0.984 . S
N969 C962 1.356 . S
N969 H972 0.984 . S
N969 H973 0.985 . S
H970 N965 0.984 . S
H971 N965 0.985 . S
H972 N969 0.984 . S
H973 N969 0.985 . S
H974 N968 0.984 . S
H975 N968 0.984 . S
H976 N964 0.984 . S
H977 N964 0.985 . S
C978 C979 1.363 . S
C978 C984 1.379 . S
C978 N986 1.356 . S
C979 C978 1.363 . S
C979 C985 1.363 . S
C980 C981 1.363 . S
C980 C985 1.379 . S
C980 N987 1.356 . S
C981 C980 1.363 . S
C981 C984 1.363 . S
N982 C984 1.356 . S
N982 H994 0.984 . S
N982 H995 0.985 . S
N983 C985 1.356 . S
N983 H988 0.984 . S
N983 H989 0.985 . S
C984 C978 1.379 . S
C984 C981 1.363 . S
C984 N982 1.356 . S
C985 C979 1.363 . S
C985 C980 1.379 . S
C985 N983 1.356 . S
N986 C978 1.356 . S
N986 H992 0.984 . S
N986 H993 0.984 . S
N987 C980 1.356 . S
N987 H990 0.984 . S
N987 H991 0.985 . S
H988 N983 0.984 . S
H989 N983 0.985 . S
H990 N987 0.984 . S
H991 N987 0.985 . S
H992 N986 0.984 . S
H993 N986 0.984 . S
H994 N982 0.984 . S
H995 N982 0.985 . S
C996 C997 1.363 . S
C996 C1002 1.379 . S
C996 N1004 1.356 . S
C997 C996 1.363 . S
C997 C1003 1.363 . S
C998 C999 1.363 . S
C998 C1003 1.379 . S
C998 N1005 1.356 . S
C999 C998 1.363 . S
C999 C1002 1.363 . S
N1000 C1002 1.356 . S
N1000 H1012 0.984 . S
N1000 H1013 0.985 . S
N1001 C1003 1.356 . S
N1001 H1006 0.984 . S
N1001 H1007 0.985 . S
C1002 C996 1.379 . S
C1002 C999 1.363 . S
C1002 N1000 1.356 . S
C1003 C997 1.363 . S
C1003 C998 1.379 . S
C1003 N1001 1.356 . S
N1004 C996 1.356 . S
N1004 H1010 0.984 . S
N1004 H1011 0.984 . S
N1005 C998 1.356 . S
N1005 H1008 0.984 . S
N1005 H1009 0.985 . S
H1006 N1001 0.984 . S
H1007 N1001 0.985 . S
H1008 N1005 0.984 . S
H1009 N1005 0.985 . S
H1010 N1004 0.984 . S
H1011 N1004 0.984 . S
H1012 N1000 0.984 . S
H1013 N1000 0.985 . S
C583 C7 2.414 . S
C585 C201 2.361 . S
C601 C30 1.372 . S
C603 C275 1.327 . S
C621 C325 1.771 . S
C619 N58 1.812 . S
C639 C411 1.350 . S
C637 N81 1.222 . S
C657 C503 1.982 . S
C655 C99 1.981 1_565 S
C675 C547 1.621 . S
C673 N127 1.650 . S
C691 N25 1.378 . S
C693 C349 1.358 . S
C709 C62 2.404 . S
C711 C429 2.347 . S
C729 C485 1.505 . S
C727 C85 1.469 . S
C747 C571 1.332 . S
C745 N94 1.347 . S
C763 C131 2.557 . S
C765 C177 2.331 . S
C783 C251 1.657 . S
C781 N2 1.641 . S
C801 C423 2.300 1_455 S
C799 C16 2.571 . S
C817 C39 2.119 . S
C819 C473 1.967 . S
C837 C577 2.214 . S
C835 N48 2.217 1_556 S
C853 N71 1.357 . S
C855 C189 1.352 . S
C871 C108 2.062 . S
C873 C263 1.999 . S
C889 N117 1.991 . S
C891 C355 1.993 . S
C907 N35 1.939 . S
C909 C559 1.921 . S
C927 C207 2.065 . S
C925 C53 2.079 . S
C943 C76 2.461 . S
C945 C281 2.336 . S
C961 N104 1.783 . S
C963 C337 1.774 . S
C979 C122 1.957 . S
C981 C399 1.712 . S
C997 N12 1.850 . S
C999 C497 1.785 . S
