# Generated by pormake.
# Topology zzz, (3,6)-cn, num edge types: 1
# Building blocks:
#     Node 0, Type 0, BuildingBlock: KAKCAD_clean_linker_0, # of connection points: 3
#     Node 1, Type 0, BuildingBlock: KAKCAD_clean_linker_0, # of connection points: 3
#     Node 2, Type 0, BuildingBlock: KAKCAD_clean_linker_0, # of connection points: 3
#     Node 3, Type 0, BuildingBlock: KAKCAD_clean_linker_0, # of connection points: 3
#     Node 4, Type 0, BuildingBlock: KAKCAD_clean_linker_0, # of connection points: 3
#     Node 5, Type 0, BuildingBlock: KAKCAD_clean_linker_0, # of connection points: 3
#     Node 6, Type 0, BuildingBlock: KAKCAD_clean_linker_0, # of connection points: 3
#     Node 7, Type 0, BuildingBlock: KAKCAD_clean_linker_0, # of connection points: 3
#     Node 8, Type 1, BuildingBlock: BETGAK_clean_sbu_0, # of connection points: 6
#     Node 9, Type 1, BuildingBlock: BETGAK_clean_sbu_0, # of connection points: 6
#     Node 10, Type 1, BuildingBlock: BETGAK_clean_sbu_0, # of connection points: 6
#     Node 11, Type 1, BuildingBlock: BETGAK_clean_sbu_0, # of connection points: 6
#     Edge 12, Type (0, 1), BuildingBlock: UVAHIK_clean_linker_0, # of connection points: 2
#     Edge 13, Type (0, 1), BuildingBlock: UVAHIK_clean_linker_0, # of connection points: 2
#     Edge 14, Type (0, 1), BuildingBlock: UVAHIK_clean_linker_0, # of connection points: 2
#     Edge 15, Type (0, 1), BuildingBlock: UVAHIK_clean_linker_0, # of connection points: 2
#     Edge 16, Type (0, 1), BuildingBlock: UVAHIK_clean_linker_0, # of connection points: 2
#     Edge 17, Type (0, 1), BuildingBlock: UVAHIK_clean_linker_0, # of connection points: 2
#     Edge 18, Type (0, 1), BuildingBlock: UVAHIK_clean_linker_0, # of connection points: 2
#     Edge 19, Type (0, 1), BuildingBlock: UVAHIK_clean_linker_0, # of connection points: 2
#     Edge 20, Type (0, 1), BuildingBlock: UVAHIK_clean_linker_0, # of connection points: 2
#     Edge 21, Type (0, 1), BuildingBlock: UVAHIK_clean_linker_0, # of connection points: 2
#     Edge 22, Type (0, 1), BuildingBlock: UVAHIK_clean_linker_0, # of connection points: 2
#     Edge 23, Type (0, 1), BuildingBlock: UVAHIK_clean_linker_0, # of connection points: 2
#     Edge 24, Type (0, 1), BuildingBlock: UVAHIK_clean_linker_0, # of connection points: 2
#     Edge 25, Type (0, 1), BuildingBlock: UVAHIK_clean_linker_0, # of connection points: 2
#     Edge 26, Type (0, 1), BuildingBlock: UVAHIK_clean_linker_0, # of connection points: 2
#     Edge 27, Type (0, 1), BuildingBlock: UVAHIK_clean_linker_0, # of connection points: 2
#     Edge 28, Type (0, 1), BuildingBlock: UVAHIK_clean_linker_0, # of connection points: 2
#     Edge 29, Type (0, 1), BuildingBlock: UVAHIK_clean_linker_0, # of connection points: 2
#     Edge 30, Type (0, 1), BuildingBlock: UVAHIK_clean_linker_0, # of connection points: 2
#     Edge 31, Type (0, 1), BuildingBlock: UVAHIK_clean_linker_0, # of connection points: 2
#     Edge 32, Type (0, 1), BuildingBlock: UVAHIK_clean_linker_0, # of connection points: 2
#     Edge 33, Type (0, 1), BuildingBlock: UVAHIK_clean_linker_0, # of connection points: 2
#     Edge 34, Type (0, 1), BuildingBlock: UVAHIK_clean_linker_0, # of connection points: 2
#     Edge 35, Type (0, 1), BuildingBlock: UVAHIK_clean_linker_0, # of connection points: 2
# Relax obj value: 0.416
# Max RMSD: 0.272
# Mean RMSD: 0.251
data_MOF--net-zzz--node1-BETGAK_clean_sbu_0--node2-KAKCAD_clean_linker_0--edge1-UVAHIK_clean_linker_0
_symmetry_space_group_name_H-M    P1
_symmetry_Int_Tables_number       1
_symmetry_cell_setting            triclinic
loop_
_symmetry_equiv_pos_as_xyz
'x, y, z'
_cell_length_a     74.971171
_cell_length_b     75.041353
_cell_length_c     22.746907
_cell_angle_alpha  89.950731
_cell_angle_beta   90.032418
_cell_angle_gamma 90.016898
loop_
_atom_site_label
_atom_site_type_symbol
_atom_site_fract_x
_atom_site_fract_y
_atom_site_fract_z
_atom_type_partial_charge
C0 C 0.74591 0.48793 0.99368 0.0
C1 C 0.75734 0.47311 0.99204 0.0
C2 C 0.73885 0.49382 0.04701 0.0
C3 C 0.7431 0.485 0.09974 0.0
C4 C 0.75372 0.46961 0.09764 0.0
C5 C 0.76076 0.46371 0.04433 0.0
C6 C 0.73724 0.49239 0.15695 0.0
C7 C 0.71993 0.49891 0.16382 0.0
C8 C 0.71443 0.5066 0.21688 0.0
C9 C 0.72651 0.5078 0.2644 0.0
C10 C 0.74403 0.50104 0.25827 0.0
C11 C 0.74916 0.4935 0.20422 0.0
C12 C 0.75763 0.50185 0.30613 0.0
C13 C 0.76193 0.51798 0.33424 0.0
C14 C 0.76837 0.48683 0.31707 0.0
C15 C 0.78386 0.48823 0.35087 0.0
C16 C 0.78892 0.50462 0.37541 0.0
C17 C 0.69574 0.51282 0.21947 0.0
C18 C 0.69116 0.52865 0.19025 0.0
C19 C 0.68228 0.50043 0.23244 0.0
C20 C 0.66487 0.50307 0.21177 0.0
C21 C 0.66063 0.51812 0.17746 0.0
C22 C 0.67375 0.53134 0.16968 0.0
C23 C 0.77745 0.51934 0.36883 0.0
H24 H 0.74297 0.49537 0.95401 0.0
H25 H 0.73073 0.50576 0.04725 0.0
H26 H 0.75698 0.46239 0.13749 0.0
H27 H 0.76969 0.45236 0.04467 0.0
H28 H 0.71055 0.49788 0.12764 0.0
H29 H 0.76276 0.48893 0.19829 0.0
H30 H 0.72229 0.5137 0.30555 0.0
H31 H 0.75398 0.5298 0.3264 0.0
H32 H 0.76529 0.47414 0.29676 0.0
H33 H 0.79227 0.47659 0.35601 0.0
H34 H 0.70143 0.53816 0.17833 0.0
H35 H 0.68559 0.48793 0.25369 0.0
H36 H 0.78105 0.53214 0.38737 0.0
H37 H 0.67104 0.54302 0.14318 0.0
H38 H 0.65503 0.49276 0.21938 0.0
C39 C 0.05426 0.75985 0.02794 0.0
C40 C 0.06776 0.77149 0.04703 0.0
C41 C 0.04346 0.75101 0.06852 0.0
C42 C 0.04612 0.75331 0.1293 0.0
C43 C 0.06062 0.76371 0.14828 0.0
C44 C 0.07124 0.7728 0.10766 0.0
C45 C 0.03286 0.74622 0.17215 0.0
C46 C 0.02406 0.73008 0.16152 0.0
C47 C 0.00992 0.72439 0.19731 0.0
C48 C 0.00486 0.73478 0.24624 0.0
C49 C 0.01396 0.75084 0.25859 0.0
C50 C 0.0278 0.75638 0.22114 0.0
C51 C 0.00876 0.76291 0.30757 0.0
C52 C 0.99145 0.76999 0.31092 0.0
C53 C 0.02199 0.76975 0.34512 0.0
C54 C 0.01834 0.78407 0.38253 0.0
C55 C 1.00135 0.79202 0.38326 0.0
C56 C 1.0004 0.70791 0.17973 0.0
C57 C 0.99295 0.70696 0.12319 0.0
C58 C 1.00175 0.69227 0.21329 0.0
C59 C 0.99681 0.67578 0.18901 0.0
C60 C 0.99044 0.67466 0.13072 0.0
C61 C 0.98803 0.69059 0.099 0.0
C62 C 0.98779 0.78445 0.34823 0.0
H63 H 0.05145 0.75822 0.98156 0.0
H64 H 0.03242 0.74319 0.05195 0.0
H65 H 0.06334 0.76544 0.19468 0.0
H66 H 0.08145 0.78169 0.12418 0.0
H67 H 0.02802 0.72192 0.12446 0.0
H68 H 0.03403 0.76921 0.22871 0.0
H69 H 0.99385 0.73055 0.27378 0.0
H70 H 0.98104 0.7651 0.2821 0.0
H71 H 0.03548 0.76459 0.3433 0.0
H72 H 0.02917 0.78956 0.4083 0.0
H73 H 0.99195 0.71884 0.09622 0.0
H74 H 0.00766 0.69265 0.25675 0.0
H75 H 0.97449 0.79006 0.34825 0.0
H76 H 0.98343 0.69039 0.05389 0.0
H77 H 0.9986 0.66384 0.21512 0.0
C78 C 0.74934 0.99315 1.00201 0.0
C79 C 0.73912 0.0081 0.98647 0.0
C80 C 0.75625 0.99155 0.05879 0.0
C81 C 0.75279 0.00472 0.10113 0.0
C82 C 0.74289 0.01984 0.08523 0.0
C83 C 0.73621 0.02157 0.02826 0.0
C84 C 0.75945 1.00265 0.16188 0.0
C85 C 0.7773 0.99842 0.17165 0.0
C86 C 0.784 0.9965 0.22878 0.0
C87 C 0.77245 0.99857 0.27735 0.0
C88 C 0.75424 1.00273 0.26795 0.0
C89 C 0.74802 0.00484 0.20995 0.0
C90 C 0.74112 0.00454 0.3169 0.0
C91 C 0.73887 0.99094 0.35875 0.0
C92 C 0.72895 0.0188 0.31659 0.0
C93 C 0.71427 0.01894 0.35445 0.0
C94 C 0.7113 0.00483 0.39405 0.0
C95 C 0.80339 0.99318 0.23403 0.0
C96 C 0.81033 0.97722 0.21131 0.0
C97 C 0.81495 0.00767 0.24242 0.0
C98 C 0.83268 0.00678 0.22301 0.0
C99 C 0.83914 0.9914 0.19457 0.0
C100 C 0.82801 0.97631 0.19192 0.0
C101 C 0.72409 0.99106 0.39682 0.0
H102 H 0.75167 0.98257 0.97059 0.0
H103 H 0.76385 0.97976 0.07014 0.0
H104 H 0.74022 0.03024 0.11703 0.0
H105 H 0.72812 0.03309 0.01761 0.0
H106 H 0.78623 0.99706 0.13437 0.0
H107 H 0.73404 0.0077 0.20197 0.0
H108 H 0.77756 0.9971 0.32164 0.0
H109 H 0.74796 0.97973 0.35986 0.0
H110 H 0.73036 0.02953 0.28501 0.0
H111 H 0.70474 0.02971 0.35029 0.0
H112 H 0.80156 0.96601 0.20315 0.0
H113 H 0.80983 0.02023 0.25872 0.0
H114 H 0.72245 0.98011 0.42736 0.0
H115 H 0.83239 0.96427 0.17006 0.0
H116 H 0.84097 0.01854 0.22686 0.0
C117 C 0.49036 0.73467 0.38696 0.0
C118 C 0.50592 0.72419 0.38884 0.0
C119 C 0.48928 0.74952 0.34984 0.0
C120 C 0.50379 0.75437 0.3143 0.0
C121 C 0.51981 0.74482 0.31947 0.0
C122 C 0.5209 0.7299 0.35654 0.0
C123 C 0.50055 0.76549 0.26158 0.0
C124 C 0.50644 0.78329 0.2563 0.0
C125 C 0.50335 0.79273 0.20349 0.0
C126 C 0.49436 0.78431 0.15698 0.0
C127 C 0.48858 0.76667 0.16197 0.0
C128 C 0.49164 0.75741 0.21442 0.0
C129 C 0.48003 0.75759 0.11159 0.0
C130 C 0.4662 0.7658 0.07973 0.0
C131 C 0.48575 0.74051 0.09518 0.0
C132 C 0.47775 0.73172 0.04819 0.0
C133 C 0.46381 0.73978 0.01654 0.0
C134 C 0.50933 0.81134 0.19405 0.0
C135 C 0.50071 0.8255 0.22256 0.0
C136 C 0.52079 0.8151 0.14684 0.0
C137 C 0.52257 0.83248 0.12558 0.0
C138 C 0.51285 0.84657 0.15086 0.0
C139 C 0.50245 0.84297 0.20116 0.0
C140 C 0.45806 0.7569 0.03277 0.0
H141 H 0.47867 0.7309 0.41202 0.0
H142 H 0.47667 0.75648 0.34577 0.0
H143 H 0.53102 0.74803 0.29134 0.0
H144 H 0.53307 0.72212 0.35651 0.0
H145 H 0.51345 0.78961 0.29234 0.0
H146 H 0.48716 0.74372 0.21858 0.0
H147 H 0.49213 0.79148 0.1162 0.0
H148 H 0.46151 0.77895 0.09175 0.0
H149 H 0.4965 0.73396 0.11858 0.0
H150 H 0.48228 0.71842 0.03735 0.0
H151 H 0.49162 0.82289 0.25857 0.0
H152 H 0.5274 0.80435 0.1237 0.0
H153 H 0.44734 0.7634 0.00909 0.0
H154 H 0.49499 0.85351 0.22234 0.0
H155 H 0.53055 0.83458 0.08653 0.0
C156 C 0.25605 0.54226 0.30467 0.0
C157 C 0.24332 0.53142 0.33235 0.0
C158 C 0.26295 0.53741 0.24984 0.0
C159 C 0.25678 0.52196 0.2215 0.0
C160 C 0.24398 0.51122 0.24907 0.0
C161 C 0.23741 0.51584 0.30426 0.0
C162 C 0.26418 0.51648 0.16435 0.0
C163 C 0.28242 0.51326 0.15911 0.0
C164 C 0.28957 0.50628 0.10709 0.0
C165 C 0.2782 0.50282 0.05884 0.0
C166 C 0.2598 0.50677 0.0632 0.0
C167 C 0.25295 0.51335 0.11634 0.0
C168 C 0.2471 0.50431 0.01383 0.0
C169 C 0.23909 0.51936 0.9883 0.0
C170 C 0.24016 0.48738 1.00096 0.0
C171 C 0.22491 0.48563 0.96551 0.0
C172 C 0.21632 0.50079 0.94219 0.0
C173 C 0.30887 0.50214 0.10756 0.0
C174 C 0.3211 0.51621 0.11328 0.0
C175 C 0.31448 0.48476 0.12086 0.0
C176 C 0.3315 0.48175 0.14447 0.0
C177 C 0.34321 0.49608 0.15537 0.0
C178 C 0.3381 0.51322 0.13668 0.0
C179 C 0.22397 0.51763 0.95263 0.0
H180 H 0.26064 0.5544 0.32547 0.0
H181 H 0.27289 0.54581 0.22918 0.0
H182 H 0.23921 0.49916 0.22814 0.0
H183 H 0.22736 0.50745 0.32443 0.0
H184 H 0.29104 0.51548 0.19675 0.0
H185 H 0.23878 0.51597 0.12046 0.0
H186 H 0.28359 0.4974 0.01847 0.0
H187 H 0.24397 0.53258 0.99864 0.0
H188 H 0.2459 0.47562 0.0211 0.0
H189 H 0.21953 0.47244 0.95789 0.0
H190 H 0.31692 0.52979 0.10463 0.0
H191 H 0.30517 0.47375 0.11801 0.0
H192 H 0.21766 0.52962 0.93618 0.0
H193 H 0.34663 0.52462 0.1447 0.0
H194 H 0.3351 0.46833 0.15741 0.0
C195 C 0.00966 0.25595 0.34203 0.0
C196 C 0.02097 0.24157 0.35512 0.0
C197 C 0.00991 0.26372 0.28628 0.0
C198 C 0.0214 0.25719 0.24247 0.0
C199 C 0.03311 0.2432 0.25613 0.0
C200 C 0.03294 0.2355 0.31201 0.0
C201 C 0.02071 0.26466 0.18227 0.0
C202 C 0.01987 0.28308 0.17408 0.0
C203 C 0.01819 0.29045 0.11777 0.0
C204 C 0.01711 0.27911 0.06839 0.0
C205 C 0.0184 0.26045 0.07611 0.0
C206 C 0.02023 0.25344 0.1331 0.0
C207 C 0.01759 0.24766 0.02643 0.0
C208 C 1.00147 0.24455 0.99668 0.0
C209 C 0.032 0.23608 0.01667 0.0
C210 C 0.03013 0.2212 0.98015 0.0
C211 C 0.01369 0.21738 0.95306 0.0
C212 C 0.01764 0.31012 0.11423 0.0
C213 C 1.00112 0.31889 0.11534 0.0
C214 C 0.03308 0.3197 0.129 0.0
C215 C 0.03189 0.3372 0.14978 0.0
C216 C 0.01518 0.34553 0.15636 0.0
C217 C 0.99991 0.33647 0.13588 0.0
C218 C 0.99952 0.22951 0.9605 0.0
H219 H 1.00032 0.26089 0.37447 0.0
H220 H 1.00066 0.27443 0.27684 0.0
H221 H 0.04223 0.23805 0.22335 0.0
H222 H 0.04163 0.22426 0.3206 0.0
H223 H 0.02055 0.29183 0.21197 0.0
H224 H 0.02071 0.23912 0.13922 0.0
H225 H 0.01565 0.2847 0.02473 0.0
H226 H 0.99008 0.25312 0.00426 0.0
H227 H 0.04448 0.23805 0.03986 0.0
H228 H 0.04128 0.21211 0.97605 0.0
H229 H 0.98898 0.31166 0.10531 0.0
H230 H 0.04592 0.31307 0.12985 0.0
H231 H 0.98673 0.22707 0.93987 0.0
H232 H 0.98685 0.34256 0.13902 0.0
H233 H 0.04396 0.34355 0.1654 0.0
C234 C 0.25823 0.94625 0.25004 0.0
C235 C 0.27637 0.9499 0.25931 0.0
C236 C 0.24767 0.95821 0.2178 0.0
C237 C 0.25515 0.974 0.19509 0.0
C238 C 0.2731 0.97792 0.20737 0.0
C239 C 0.28359 0.96595 0.23869 0.0
C240 C 0.24476 0.98622 0.15683 0.0
C241 C 0.22708 0.99075 0.16986 0.0
C242 C 0.21778 1.00329 0.13542 0.0
C243 C 0.22651 0.01151 0.0874 0.0
C244 C 0.2441 0.00652 0.07302 0.0
C245 C 0.25293 0.99387 0.10759 0.0
C246 C 0.25429 0.0142 0.02333 0.0
C247 C 0.25843 1.00324 0.97524 0.0
C248 C 0.26422 0.02984 0.03202 0.0
C249 C 0.27892 0.03369 0.99603 0.0
C250 C 0.28404 0.0219 0.95084 0.0
C251 C 0.19909 0.0076 0.15189 0.0
C252 C 0.18683 0.99369 0.1609 0.0
C253 C 0.19404 0.02506 0.1665 0.0
C254 C 0.17744 0.02836 0.19292 0.0
C255 C 0.1655 0.01427 0.20458 0.0
C256 C 0.17024 0.99698 0.18666 0.0
C257 C 0.27308 0.00707 0.93924 0.0
H258 H 0.25241 0.93395 0.26601 0.0
H259 H 0.23388 0.95484 0.20907 0.0
H260 H 0.27914 0.9902 0.19217 0.0
H261 H 0.29748 0.9692 0.24651 0.0
H262 H 0.22069 0.98495 0.20812 0.0
H263 H 0.26646 0.99009 0.09611 0.0
H264 H 0.2196 0.02135 0.06095 0.0
H265 H 0.25126 0.99086 0.96862 0.0
H266 H 0.26154 0.03828 0.0696 0.0
H267 H 0.28684 0.04539 0.00565 0.0
H268 H 0.1904 0.98009 0.15011 0.0
H269 H 0.20329 0.036 0.16043 0.0
H270 H 0.27662 0.99759 0.90534 0.0
H271 H 0.16153 0.98577 0.19537 0.0
H272 H 0.17413 0.04187 0.20561 0.0
C273 C 0.48711 0.28637 0.9704 0.0
C274 C 0.50162 0.29755 0.95703 0.0
C275 C 0.48956 0.2712 0.00594 0.0
C276 C 0.50656 0.26705 0.02834 0.0
C277 C 0.52118 0.27758 0.01094 0.0
C278 C 0.51871 0.29271 0.97617 0.0
C279 C 0.50908 0.25371 0.07623 0.0
C280 C 0.50231 0.23616 0.07334 0.0
C281 C 0.50611 0.22398 0.11898 0.0
C282 C 0.51628 0.22951 0.16745 0.0
C283 C 0.52222 0.24712 0.17258 0.0
C284 C 0.51854 0.25906 0.12664 0.0
C285 C 0.53136 0.25335 0.22706 0.0
C286 C 0.52644 0.24663 0.28253 0.0
C287 C 0.54428 0.26689 0.22448 0.0
C288 C 0.55099 0.27451 0.27586 0.0
C289 C 0.54534 0.26847 0.33148 0.0
C290 C 0.49909 0.20553 0.12044 0.0
C291 C 0.48111 0.20257 0.13444 0.0
C292 C 0.51118 0.1913 0.12475 0.0
C293 C 0.50579 0.17491 0.14804 0.0
C294 C 0.48818 0.17242 0.16781 0.0
C295 C 0.47569 0.18614 0.15786 0.0
C296 C 0.53353 0.25392 0.33397 0.0
H297 H 0.47379 0.28992 0.95619 0.0
H298 H 0.47805 0.2634 0.01885 0.0
H299 H 0.53448 0.27462 0.02686 0.0
H300 H 0.5301 0.30107 0.96616 0.0
H301 H 0.49455 0.23192 0.03566 0.0
H302 H 0.5226 0.27286 0.13062 0.0
H303 H 0.51922 0.22002 0.20206 0.0
H304 H 0.51648 0.23626 0.28671 0.0
H305 H 0.54885 0.27208 0.18268 0.0
H306 H 0.5599 0.28577 0.27143 0.0
H307 H 0.4716 0.21342 0.13231 0.0
H308 H 0.52518 0.19337 0.11506 0.0
H309 H 0.52919 0.24852 0.37572 0.0
H310 H 0.46195 0.18458 0.17154 0.0
H311 H 0.51585 0.16479 0.15523 0.0
La312 La 0.01283 0.99705 0.73882 0.0
La313 La 0.98795 0.00748 0.64596 0.0
C314 C 0.02866 0.98262 0.8243 0.0
C315 C 0.04028 0.96708 0.832 0.0
C316 C 0.0501 0.9652 0.88395 0.0
C317 C 0.06106 0.95037 0.89222 0.0
C318 C 0.06226 0.93707 0.84875 0.0
C319 C 0.05269 0.9393 0.79599 0.0
C320 C 0.04189 0.95425 0.78758 0.0
C321 C 0.02867 0.00907 0.64279 0.0
C322 C 0.99783 0.96752 0.64733 0.0
C323 C 0.97336 0.02488 0.56502 0.0
C324 C 0.97505 0.04421 0.55333 0.0
C325 C 0.96233 0.05613 0.57605 0.0
C326 C 0.96595 0.07438 0.57837 0.0
C327 C 0.98231 0.08102 0.55776 0.0
C328 C 0.99436 0.06929 0.53067 0.0
C329 C 0.99076 0.05108 0.52834 0.0
C330 C 0.97249 0.99538 0.74249 0.0
C331 C 1.00297 0.0367 0.73387 0.0
O332 O 0.0354 0.99556 0.79304 0.0
O333 O 0.01205 0.9793 0.81017 0.0
O334 O 0.03442 0.01159 0.69566 0.0
O335 O 0.01515 0.99912 0.64489 0.0
O336 O 0.00639 0.97105 0.69723 0.0
O337 O 0.99041 0.98032 0.61591 0.0
O338 O 0.96525 0.02069 0.61401 0.0
O339 O 0.98783 0.01537 0.55741 0.0
O340 O 0.96687 0.99225 0.68957 0.0
O341 O 0.98582 0.00557 0.73988 0.0
O342 O 0.99832 0.03306 0.67915 0.0
O343 O 0.00636 0.02359 0.77091 0.0
H344 H 0.04921 0.97516 0.91829 0.0
H345 H 0.06849 0.94925 0.9329 0.0
H346 H 0.0531 0.92927 0.76184 0.0
H347 H 0.03465 0.95569 0.74671 0.0
H348 H 0.95006 0.05125 0.59534 0.0
H349 H 0.95638 0.08313 0.59929 0.0
H350 H 0.00687 0.07412 0.51293 0.0
H351 H 1.00078 0.04233 0.50985 0.0
La352 La 0.50257 0.0229 0.71465 0.0
La353 La 0.48999 1.00004 0.60851 0.0
C354 C 0.52027 0.03556 0.79818 0.0
C355 C 0.53919 0.03258 0.81223 0.0
C356 C 0.55071 0.04724 0.81598 0.0
C357 C 0.56915 0.0448 0.81282 0.0
C358 C 0.57637 0.02763 0.80578 0.0
C359 C 0.56483 0.01286 0.80729 0.0
C360 C 0.54642 0.01531 0.8101 0.0
C361 C 0.48986 0.04026 0.62275 0.0
C362 C 0.53097 0.00716 0.62285 0.0
C363 C 0.47615 0.99018 0.51385 0.0
C364 C 0.46122 0.97795 0.50207 0.0
C365 C 0.46238 0.96555 0.45621 0.0
C366 C 0.44854 0.95336 0.44663 0.0
C367 C 0.43327 0.95344 0.48271 0.0
C368 C 0.4323 0.96586 0.52888 0.0
C369 C 0.44617 0.97787 0.53871 0.0
C370 C 0.49561 0.97948 0.70265 0.0
C371 C 0.46228 0.01315 0.70776 0.0
O372 O 0.51766 0.04403 0.74856 0.0
O373 O 0.50951 0.02188 0.80409 0.0
O374 O 0.48767 0.04522 0.67688 0.0
O375 O 0.49951 0.02653 0.62165 0.0
O376 O 0.5276 0.01272 0.67707 0.0
O377 O 0.51801 1.0034 0.58525 0.0
O378 O 0.49043 0.98268 0.53629 0.0
O379 O 0.47203 0.00523 0.54009 0.0
O380 O 0.49013 0.97368 0.65224 0.0
O381 O 0.49751 0.99599 0.69683 0.0
O382 O 0.46498 0.00793 0.65253 0.0
O383 O 0.47552 0.01769 0.74334 0.0
H384 H 0.54542 0.06067 0.81753 0.0
H385 H 0.5777 0.05643 0.81377 0.0
H386 H 0.56987 0.99945 0.80171 0.0
H387 H 0.53788 1.00373 0.80637 0.0
H388 H 0.47403 0.96521 0.42808 0.0
H389 H 0.44985 0.94385 0.41113 0.0
H390 H 0.42065 0.96661 0.55688 0.0
H391 H 0.44507 0.98711 0.57499 0.0
La392 La 0.4879 0.51485 0.71462 0.0
La393 La 0.51384 0.50487 0.62454 0.0
C394 C 0.47108 0.52986 0.79671 0.0
C395 C 0.46242 0.54736 0.80247 0.0
C396 C 0.44516 0.54858 0.82601 0.0
C397 C 0.43637 0.56502 0.82797 0.0
C398 C 0.44463 0.58034 0.80526 0.0
C399 C 0.46194 0.57912 0.78225 0.0
C400 C 0.47083 0.56282 0.78152 0.0
C401 C 0.47347 0.50264 0.61656 0.0
C402 C 0.50304 0.54456 0.6244 0.0
C403 C 0.53076 0.48841 0.54626 0.0
C404 C 0.53528 0.46932 0.54192 0.0
C405 C 0.55323 0.46402 0.54177 0.0
C406 C 0.55774 0.44599 0.54657 0.0
C407 C 0.54435 0.43297 0.5516 0.0
C408 C 0.52638 0.43828 0.54955 0.0
C409 C 0.52189 0.45625 0.54488 0.0
C410 C 0.52811 0.51716 0.72283 0.0
C411 C 0.49866 0.47532 0.71287 0.0
O412 O 0.46367 0.51906 0.7589 0.0
O413 O 0.4885 0.52985 0.79239 0.0
O414 O 0.46744 0.49942 0.6688 0.0
O415 O 0.48665 0.51298 0.62043 0.0
O416 O 0.49498 0.54092 0.67505 0.0
O417 O 0.51004 0.53175 0.59201 0.0
O418 O 0.53846 0.49682 0.58964 0.0
O419 O 0.51387 0.49262 0.54154 0.0
O420 O 0.53403 0.52057 0.67056 0.0
O421 O 0.51503 0.50669 0.71872 0.0
O422 O 0.50491 0.47886 0.65972 0.0
O423 O 0.49355 0.48835 0.7479 0.0
H424 H 0.43845 0.53679 0.84244 0.0
H425 H 0.42308 0.56575 0.84649 0.0
H426 H 0.46873 0.59086 0.76579 0.0
H427 H 0.48428 0.5623 0.76441 0.0
H428 H 0.56378 0.47387 0.53997 0.0
H429 H 0.5717 0.44232 0.54806 0.0
H430 H 0.51574 0.42854 0.55189 0.0
H431 H 0.5079 0.45987 0.54527 0.0
La432 La 0.99673 0.49403 0.70566 0.0
La433 La 0.00786 0.51868 0.61189 0.0
C434 C 0.97971 0.47944 0.78792 0.0
C435 C 0.9604 0.4771 0.79627 0.0
C436 C 0.95362 0.46052 0.81369 0.0
C437 C 0.93521 0.45743 0.81339 0.0
C438 C 0.92331 0.47082 0.7948 0.0
C439 C 0.93024 0.48756 0.7789 0.0
C440 C 0.94854 0.49071 0.78022 0.0
C441 C 0.00874 0.47831 0.60975 0.0
C442 C 0.96793 0.50967 0.61368 0.0
C443 C 0.0254 0.53311 0.53089 0.0
C444 C 0.04482 0.53638 0.52725 0.0
C445 C 0.05174 0.55337 0.53989 0.0
C446 C 0.07012 0.55586 0.54641 0.0
C447 C 0.08188 0.54142 0.54026 0.0
C448 C 0.07501 0.52467 0.52453 0.0
C449 C 0.0567 0.52217 0.51803 0.0
C450 C 0.99547 0.53438 0.70705 0.0
C451 C 0.03688 0.50305 0.7037 0.0
O452 O 0.98638 0.47068 0.74346 0.0
O453 O 0.98569 0.49583 0.79025 0.0
O454 O 0.01165 0.47261 0.6627 0.0
O455 O 0.99886 0.49185 0.61214 0.0
O456 O 0.97119 0.50328 0.66703 0.0
O457 O 0.98107 0.51467 0.5788 0.0
O458 O 0.01692 0.54215 0.57131 0.0
O459 O 0.02036 0.51639 0.52982 0.0
O460 O 0.99255 0.53992 0.65389 0.0
O461 O 0.0056 0.52098 0.70538 0.0
O462 O 0.03351 0.51059 0.6521 0.0
O463 O 0.02388 0.49681 0.737 0.0
H464 H 0.96257 0.44982 0.8261 0.0
H465 H 0.93037 0.4445 0.82726 0.0
H466 H 0.9216 0.49816 0.76363 0.0
H467 H 0.95342 0.50367 0.7668 0.0
H468 H 0.0429 0.56457 0.54708 0.0
H469 H 0.07504 0.56893 0.55839 0.0
H470 H 0.0838 0.51338 0.51797 0.0
H471 H 0.05189 0.50892 0.50778 0.0
C472 C 0.14909 0.0279 0.29002 0.0
C473 C 0.14887 0.01713 0.23945 0.0
C474 C 0.13417 0.02886 0.32694 0.0
C475 C 0.09388 1.003 0.36772 0.0
H476 H 0.0818 0.04576 0.45445 0.0
C477 C 0.03563 0.0044 0.53565 0.0
C478 C 0.03968 0.01241 0.58985 0.0
C479 C 0.04717 0.0064 0.48752 0.0
C480 C 0.08504 0.03368 0.43074 0.0
H481 H 0.13232 0.99971 0.18646 0.0
H482 H 0.10625 1.00154 0.25036 0.0
H483 H 0.10514 0.04685 0.37981 0.0
H484 H 0.05852 0.02936 0.63552 0.0
H485 H 0.07857 0.03284 0.55205 0.0
H486 H 0.07395 0.98978 0.41926 0.0
C487 C 0.11812 0.00893 0.26233 0.0
C488 C 0.09846 0.03429 0.38796 0.0
C489 C 0.13306 0.00792 0.22552 0.0
C490 C 0.05508 0.02298 0.59433 0.0
C491 C 0.06652 0.02507 0.54629 0.0
C492 C 0.08042 1.0024 0.41038 0.0
C493 C 0.11857 0.01913 0.31422 0.0
C494 C 0.10328 0.01889 0.35645 0.0
C495 C 0.0629 0.01658 0.49248 0.0
C496 C 0.07601 0.01766 0.44316 0.0
H497 H 0.16109 0.03496 0.30265 0.0
H498 H 0.13516 0.03668 0.3668 0.0
H499 H 0.09735 0.99079 0.34511 0.0
H500 H 0.02381 0.99622 0.5309 0.0
H501 H 0.04386 0.99984 0.44655 0.0
C502 C 0.49135 0.13993 0.19573 0.0
C503 C 0.48373 0.1568 0.20592 0.0
C504 C 0.48948 0.12616 0.23698 0.0
C505 C 0.48193 0.12022 0.396 0.0
H506 H 0.47688 0.07017 0.35722 0.0
C507 C 0.47613 0.06745 0.5784 0.0
C508 C 0.48596 0.05169 0.57127 0.0
C509 C 0.47391 0.07928 0.53143 0.0
C510 C 0.47844 0.08408 0.36878 0.0
H511 H 0.46752 0.17202 0.26694 0.0
H512 H 0.46389 0.14799 0.33758 0.0
H513 H 0.47625 0.09252 0.27886 0.0
H514 H 0.50059 0.03556 0.50882 0.0
H515 H 0.49698 0.05635 0.42681 0.0
H516 H 0.48449 0.11193 0.48546 0.0
C517 C 0.47157 0.14547 0.29814 0.0
C518 C 0.47805 0.0969 0.32382 0.0
C519 C 0.47344 0.15921 0.25701 0.0
C520 C 0.49295 0.04764 0.51557 0.0
C521 C 0.4908 0.05953 0.46852 0.0
C522 C 0.48236 0.10746 0.44075 0.0
C523 C 0.47998 0.12893 0.28952 0.0
C524 C 0.47979 0.11514 0.3369 0.0
C525 C 0.48155 0.0757 0.47615 0.0
C526 C 0.48062 0.0892 0.4279 0.0
H527 H 0.49921 0.13751 0.15663 0.0
H528 H 0.49616 0.11361 0.22888 0.0
H529 H 0.48374 0.13409 0.40771 0.0
H530 H 0.47045 0.07084 0.62072 0.0
H531 H 0.46636 0.09138 0.53871 0.0
C532 C 0.37515 0.50345 0.18188 0.0
C533 C 0.35946 0.49369 0.19272 0.0
C534 C 0.3895 0.50284 0.22145 0.0
C535 C 0.40772 0.47754 0.34994 0.0
H536 H 0.43052 0.5225 0.38747 0.0
C537 C 0.44767 0.48875 0.56414 0.0
C538 C 0.463 0.4995 0.56227 0.0
C539 C 0.43684 0.48681 0.51442 0.0
C540 C 0.42451 0.50977 0.37695 0.0
H541 H 0.34679 0.47544 0.25385 0.0
H542 H 0.37162 0.47436 0.3223 0.0
H543 H 0.4085 0.52122 0.30874 0.0
H544 H 0.47933 0.51624 0.50636 0.0
H545 H 0.46039 0.51286 0.41923 0.0
H546 H 0.42343 0.46622 0.41928 0.0
C547 C 0.37305 0.48227 0.28275 0.0
C548 C 0.41186 0.50902 0.33163 0.0
C549 C 0.35875 0.48286 0.24322 0.0
C550 C 0.46756 0.5079 0.50912 0.0
C551 C 0.45665 0.50605 0.45937 0.0
C552 C 0.42032 0.47831 0.39539 0.0
C553 C 0.38852 0.49248 0.273 0.0
C554 C 0.40309 0.49294 0.318 0.0
C555 C 0.44103 0.49562 0.46157 0.0
C556 C 0.4287 0.49449 0.41007 0.0
H557 H 0.37626 0.51179 0.14317 0.0
H558 H 0.4013 0.51064 0.21186 0.0
H559 H 0.40153 0.46485 0.34009 0.0
H560 H 0.44382 0.4821 0.60448 0.0
H561 H 0.42485 0.47884 0.51803 0.0
C562 C 0.99941 0.36463 0.23118 0.0
C563 C 0.0136 0.36237 0.19128 0.0
C564 C 0.99905 0.37914 0.26977 0.0
C565 C 0.02919 0.41029 0.34513 0.0
H566 H 0.98542 0.43465 0.38714 0.0
C567 C 1.00283 0.4719 0.50328 0.0
C568 C 0.01124 0.46728 0.55639 0.0
C569 C 1.00384 0.4606 0.45439 0.0
C570 C 0.9978 0.42812 0.37555 0.0
H571 H 0.03807 0.37436 0.15917 0.0
H572 H 0.03752 0.39954 0.22712 0.0
H573 H 0.98521 0.41269 0.30795 0.0
H574 H 0.02782 0.44755 0.59933 0.0
H575 H 0.02971 0.42787 0.51401 0.0
H576 H 0.04173 0.42555 0.41325 0.0
C577 C 0.02678 0.3899 0.22879 0.0
C578 C 0.99765 0.41541 0.33048 0.0
C579 C 0.02708 0.37545 0.18979 0.0
C580 C 0.0212 0.45145 0.55899 0.0
C581 C 0.02234 0.44022 0.50999 0.0
C582 C 0.02931 0.42289 0.39054 0.0
C583 C 0.01291 0.39176 0.26996 0.0
C584 C 0.0133 0.40621 0.31503 0.0
C585 C 0.01344 0.4445 0.45733 0.0
C586 C 0.01359 0.43186 0.40669 0.0
H587 H 0.98896 0.35473 0.23477 0.0
H588 H 0.98827 0.38002 0.30133 0.0
H589 H 0.04145 0.40334 0.3348 0.0
H590 H 0.99508 0.48404 0.49991 0.0
H591 H 0.99702 0.46441 0.41434 0.0
C592 C 0.86716 0.9766 0.15634 0.0
C593 C 0.85624 0.9918 0.16069 0.0
C594 C 0.8818 0.97633 0.11796 0.0
C595 C 0.91133 0.00545 0.02707 0.0
H596 H 0.91699 0.96298 0.932 0.0
C597 C 0.96664 1.00003 0.85006 0.0
C598 C 0.96144 0.99275 0.79581 0.0
C599 C 0.9554 0.99885 0.89914 0.0
C600 C 0.91558 0.97497 0.95805 0.0
H601 H 0.85254 0.01877 0.1283 0.0
H602 H 0.87796 0.01833 0.06224 0.0
H603 H 0.8947 0.9635 0.00995 0.0
H604 H 0.94066 0.97802 0.75088 0.0
H605 H 0.92101 0.97605 0.83608 0.0
H606 H 0.93175 0.01715 0.97374 0.0
C607 C 0.8754 0.00666 0.08902 0.0
C608 C 0.90293 0.97519 0.00334 0.0
C609 C 0.86079 0.00693 0.12725 0.0
C610 C 0.94504 0.98377 0.79212 0.0
C611 C 0.93382 0.98256 0.84114 0.0
C612 C 0.924 0.00522 0.98183 0.0
C613 C 0.88592 0.99125 0.08295 0.0
C614 C 0.90044 0.99053 0.03798 0.0
C615 C 0.93872 0.9903 0.89516 0.0
C616 C 0.92614 0.99006 0.94614 0.0
H617 H 0.86422 0.96477 0.18185 0.0
H618 H 0.88977 0.96433 0.11524 0.0
H619 H 0.90995 0.01743 0.0532 0.0
H620 H 0.97925 0.00697 0.8543 0.0
H621 H 0.95975 0.00474 0.94017 0.0
C622 C 0.49556 0.87316 0.11466 0.0
C623 C 0.51196 0.8642 0.12029 0.0
C624 C 0.49394 0.88809 0.0781 0.0
C625 C 0.51951 0.92172 0.99062 0.0
H626 H 0.47751 0.92047 0.89121 0.0
C627 C 0.50424 0.97508 0.8093 0.0
C628 C 0.49791 0.96826 0.75577 0.0
C629 C 0.50602 0.96394 0.85868 0.0
C630 C 0.48934 0.92103 0.91849 0.0
H631 H 0.53982 0.86486 0.09477 0.0
H632 H 0.53691 0.89061 0.03005 0.0
H633 H 0.48076 0.89877 0.96973 0.0
H634 H 0.48871 0.94435 0.71173 0.0
H635 H 0.49182 0.92506 0.79687 0.0
H636 H 0.52831 0.94369 0.93743 0.0
C637 C 0.52529 0.88615 0.05416 0.0
C638 C 0.49111 0.9087 0.96418 0.0
C639 C 0.52692 0.87123 0.0909 0.0
C640 C 0.49353 0.95009 0.75244 0.0
C641 C 0.4952 0.93902 0.80148 0.0
C642 C 0.51771 0.93414 0.94479 0.0
C643 C 0.50865 0.89447 0.04591 0.0
C644 C 0.50631 0.90869 1.00047 0.0
C645 C 0.50135 0.94578 0.85542 0.0
C646 C 0.50274 0.93373 0.90748 0.0
H647 H 0.48368 0.86813 0.13605 0.0
H648 H 0.48098 0.89434 0.07377 0.0
H649 H 0.53132 0.92223 0.018 0.0
H650 H 0.50777 0.98895 0.8131 0.0
H651 H 0.51075 0.9696 0.8996 0.0
C652 C 0.63748 0.50354 0.11374 0.0
C653 C 0.64365 0.51884 0.14312 0.0
C654 C 0.62289 0.50442 0.07554 0.0
C655 C 0.5977 0.53672 0.98405 0.0
H656 H 0.56638 0.49623 0.96065 0.0
C657 C 0.55543 0.52847 0.77365 0.0
C658 C 0.53886 0.51979 0.77683 0.0
C659 C 0.56645 0.52966 0.82313 0.0
C660 C 0.57479 0.5078 0.967 0.0
H661 H 0.63873 0.54698 0.15689 0.0
H662 H 0.613 0.54849 0.09103 0.0
H663 H 0.58801 0.49576 0.0404 0.0
H664 H 0.52052 0.50612 0.83495 0.0
H665 H 0.53958 0.50852 0.92195 0.0
H666 H 0.5843 0.54888 0.91124 0.0
C667 C 0.61972 0.53583 0.0966 0.0
C668 C 0.58742 0.50743 0.01241 0.0
C669 C 0.63443 0.53496 0.13465 0.0
C670 C 0.53326 0.51283 0.83113 0.0
C671 C 0.54427 0.51409 0.88085 0.0
C672 C 0.585 0.53714 0.93888 0.0
C673 C 0.61392 0.52063 0.06567 0.0
C674 C 0.5993 0.52174 0.02094 0.0
C675 C 0.56116 0.52231 0.87736 0.0
C676 C 0.57358 0.52255 0.92894 0.0
H677 H 0.64446 0.49096 0.11805 0.0
H678 H 0.61912 0.49248 0.05188 0.0
H679 H 0.60665 0.54796 0.98868 0.0
H680 H 0.56013 0.53394 0.73239 0.0
H681 H 0.57942 0.53584 0.81818 0.0
C682 C 1.00002 0.64302 0.11012 0.0
C683 C 0.98795 0.6571 0.10062 0.0
C684 C 0.99926 0.62752 0.0759 0.0
C685 C 0.97108 0.6031 0.96561 0.0
H686 H 0.01667 0.58398 0.91588 0.0
C687 C 0.98059 0.56005 0.7568 0.0
C688 C 0.99233 0.5455 0.75976 0.0
C689 C 0.97875 0.57165 0.80454 0.0
C690 C 1.00382 0.58898 0.92996 0.0
H691 H 0.96484 0.66522 0.04976 0.0
H692 H 0.96394 0.63868 0.98891 0.0
H693 H 0.0158 0.60783 0.98825 0.0
H694 H 0.01099 0.53135 0.81559 0.0
H695 H 0.00799 0.55183 0.89893 0.0
H696 H 0.95923 0.58466 0.90501 0.0
C697 C 0.97391 0.63943 0.02324 0.0
C698 C 1.00328 0.60266 0.97176 0.0
C699 C 0.97457 0.65484 0.0578 0.0
C700 C 1.00185 0.54247 0.81207 0.0
C701 C 1.0002 0.55424 0.85961 0.0
C702 C 0.97164 0.58955 0.92329 0.0
C703 C 0.98649 0.62568 0.03085 0.0
C704 C 0.98691 0.61009 0.98976 0.0
C705 C 0.98878 0.5691 0.85611 0.0
C706 C 0.98803 0.58246 0.90449 0.0
H707 H 0.0106 0.64425 0.14226 0.0
H708 H 0.00895 0.61712 0.08409 0.0
H709 H 0.95819 0.60816 0.97905 0.0
H710 H 0.97306 0.56267 0.71705 0.0
H711 H 0.96995 0.58303 0.80022 0.0
C712 C 1.00178 0.22627 0.429 0.0
C713 C 0.01887 0.23151 0.41064 0.0
C714 C 0.99976 0.2136 0.47335 0.0
C715 C 0.02448 0.17492 0.52321 0.0
H716 H 0.98109 0.16668 0.6119 0.0
C717 C 0.00463 0.10427 0.58585 0.0
C718 C 0.98731 0.09989 0.56708 0.0
C719 C 0.00981 0.12204 0.5914 0.0
C720 C 0.99336 0.16885 0.5878 0.0
H721 H 0.04716 0.22924 0.42862 0.0
H722 H 0.04365 0.20724 0.50704 0.0
H723 H 0.98858 0.19688 0.57988 0.0
H724 H 0.96156 0.11064 0.5422 0.0
H725 H 0.97072 0.14172 0.55023 0.0
H726 H 0.02883 0.1469 0.5281 0.0
C727 C 0.03182 0.21258 0.4861 0.0
C728 C 0.99766 0.18611 0.56949 0.0
C729 C 0.03384 0.22515 0.44127 0.0
C730 C 0.97499 0.11363 0.55675 0.0
C731 C 0.98021 0.13142 0.56189 0.0
C732 C 0.02024 0.15774 0.54171 0.0
C733 C 0.0148 0.20597 0.50047 0.0
C734 C 0.01279 0.18917 0.53437 0.0
C735 C 0.99782 0.1358 0.57776 0.0
C736 C 1.00421 0.15439 0.57165 0.0
H737 H 0.99 0.23086 0.40596 0.0
H738 H 0.98646 0.20874 0.48264 0.0
H739 H 0.03614 0.17665 0.49575 0.0
H740 H 0.01425 0.09393 0.59589 0.0
H741 H 0.02336 0.125 0.60466 0.0
C742 C 0.28573 0.9326 0.34826 0.0
C743 C 0.28829 0.93713 0.28903 0.0
C744 C 0.29944 0.92424 0.37982 0.0
C745 C 0.34584 0.90579 0.36383 0.0
H746 H 0.35528 0.93601 0.49838 0.0
C747 C 0.41259 0.93809 0.41225 0.0
C748 C 0.41788 0.94147 0.47047 0.0
C749 C 0.39662 0.92922 0.40057 0.0
C750 C 0.35277 0.92705 0.46197 0.0
H751 H 0.30608 0.93502 0.21456 0.0
H752 H 0.32993 0.92074 0.26889 0.0
H753 H 0.32538 0.93458 0.45823 0.0
H754 H 0.4113 0.93661 0.56208 0.0
H755 H 0.38303 0.92169 0.5414 0.0
H756 H 0.37377 0.89968 0.36462 0.0
C757 C 0.31751 0.92334 0.29161 0.0
C758 C 0.33554 0.92617 0.43893 0.0
C759 C 0.30391 0.9317 0.26038 0.0
C760 C 0.4074 0.93466 0.5167 0.0
C761 C 0.3913 0.92597 0.50498 0.0
C762 C 0.36314 0.90685 0.3865 0.0
C763 C 0.31582 0.9203 0.35239 0.0
C764 C 0.33211 0.91638 0.38744 0.0
C765 C 0.3855 0.92366 0.44681 0.0
C766 C 0.36691 0.91825 0.4338 0.0
H767 H 0.27374 0.93669 0.3711 0.0
H768 H 0.29762 0.92186 0.4264 0.0
H769 H 0.34354 0.89775 0.32504 0.0
H770 H 0.42018 0.94326 0.37551 0.0
H771 H 0.39238 0.92787 0.35526 0.0
C772 C 0.5375 0.28067 0.43121 0.0
C773 C 0.55001 0.27875 0.38549 0.0
C774 C 0.54 0.2934 0.47511 0.0
C775 C 0.57078 0.33018 0.5248 0.0
H776 H 0.52589 0.35532 0.54125 0.0
C777 C 0.53889 0.40287 0.59598 0.0
C778 C 0.5489 0.41384 0.5582 0.0
C779 C 0.54157 0.38447 0.59655 0.0
C780 C 0.53851 0.34834 0.53846 0.0
H781 H 0.57624 0.2871 0.35568 0.0
H782 H 0.57982 0.31024 0.42859 0.0
H783 H 0.52593 0.32524 0.50417 0.0
H784 H 0.57042 0.41424 0.49454 0.0
H785 H 0.57511 0.3821 0.49565 0.0
H786 H 0.5833 0.35427 0.55461 0.0
C787 C 0.56816 0.30178 0.43144 0.0
C788 C 0.53857 0.33094 0.51732 0.0
C789 C 0.56592 0.28867 0.38853 0.0
C790 C 0.56253 0.40617 0.52423 0.0
C791 C 0.56527 0.38776 0.52505 0.0
C792 C 0.57072 0.34778 0.54511 0.0
C793 C 0.55476 0.30496 0.47344 0.0
C794 C 0.55474 0.3218 0.50813 0.0
C795 C 0.5544 0.37669 0.55968 0.0
C796 C 0.5546 0.35718 0.55026 0.0
H797 H 0.52508 0.27332 0.43116 0.0
H798 H 0.52971 0.29495 0.50809 0.0
H799 H 0.58346 0.32346 0.51973 0.0
H800 H 0.52861 0.40845 0.62387 0.0
H801 H 0.53313 0.37624 0.62413 0.0
C802 C 0.23364 0.52469 0.43475 0.0
C803 C 0.23486 0.53683 0.38801 0.0
C804 C 0.22177 0.5278 0.48084 0.0
C805 C 0.18666 0.55939 0.53532 0.0
H806 H 0.15859 0.51604 0.53923 0.0
C807 C 0.11052 0.55831 0.52813 0.0
C808 C 0.10125 0.54358 0.55085 0.0
C809 C 0.12908 0.55926 0.53291 0.0
C810 C 0.16633 0.52822 0.54044 0.0
H811 H 0.22619 0.56246 0.35511 0.0
H812 H 0.20497 0.56765 0.4341 0.0
H813 H 0.18899 0.51486 0.50585 0.0
H814 H 0.10394 0.51901 0.60016 0.0
H815 H 0.13618 0.52095 0.61039 0.0
H816 H 0.1633 0.57284 0.56659 0.0
C817 C 0.21335 0.55592 0.43643 0.0
C818 C 0.18393 0.52754 0.52125 0.0
C819 C 0.22545 0.55293 0.39086 0.0
C820 C 0.11075 0.53043 0.58173 0.0
C821 C 0.12923 0.53153 0.58745 0.0
C822 C 0.16896 0.56007 0.55462 0.0
C823 C 0.21063 0.54288 0.48007 0.0
C824 C 0.19406 0.54322 0.51578 0.0
C825 C 0.13869 0.54559 0.56107 0.0
C826 C 0.15837 0.54459 0.55476 0.0
H827 H 0.241 0.51227 0.43366 0.0
H828 H 0.22033 0.51772 0.51462 0.0
H829 H 0.19422 0.57166 0.53264 0.0
H830 H 0.10356 0.56861 0.50385 0.0
H831 H 0.13593 0.57016 0.51132 0.0
C832 C 0.06591 0.79221 0.96109 0.0
C833 C 0.0763 0.78412 0.00513 0.0
C834 C 0.07248 0.80664 0.92927 0.0
C835 C 0.10134 0.84424 0.9567 0.0
H836 H 0.0827 0.85864 0.8049 0.0
C837 C 0.07175 0.91237 0.91584 0.0
C838 C 0.07238 0.92038 0.86002 0.0
C839 C 0.07953 0.89577 0.92544 0.0
C840 C 0.08846 0.85483 0.84675 0.0
H841 H 0.10247 0.78378 0.0459 0.0
H842 H 0.11387 0.80932 0.99065 0.0
H843 H 0.08385 0.82713 0.83036 0.0
H844 H 0.08268 0.91761 0.77133 0.0
H845 H 0.09601 0.88829 0.788 0.0
H846 H 0.10521 0.87199 0.97407 0.0
C847 C 0.10054 0.80452 0.9814 0.0
C848 C 0.08897 0.83677 0.86154 0.0
C849 C 0.09397 0.78995 0.01319 0.0
C850 C 0.08168 0.91167 0.81461 0.0
C851 C 0.0894 0.89494 0.82417 0.0
C852 C 0.1009 0.86228 0.9418 0.0
C853 C 0.08958 0.81346 0.94077 0.0
C854 C 0.09439 0.83138 0.91802 0.0
C855 C 0.08809 0.88666 0.87944 0.0
C856 C 0.09346 0.86782 0.8881 0.0
H857 H 0.05216 0.78834 0.95406 0.0
H858 H 0.06353 0.81333 0.89907 0.0
H859 H 0.10562 0.8406 1.00057 0.0
H860 H 0.06445 0.91849 0.95159 0.0
H861 H 0.07791 0.88963 0.96822 0.0
C862 C 0.71869 0.99439 0.91326 0.0
C863 C 0.72957 0.00875 0.9297 0.0
C864 C 0.70628 0.99635 0.86811 0.0
C865 C 0.67957 0.03299 0.80952 0.0
H866 H 0.65397 0.99318 0.74114 0.0
C867 C 0.60492 0.03742 0.75772 0.0
C868 C 0.59566 0.02518 0.79342 0.0
C869 C 0.62319 0.03546 0.74769 0.0
C870 C 0.66113 0.0045 0.75895 0.0
H871 H 0.73768 0.03561 0.90761 0.0
H872 H 0.71642 0.0389 0.82688 0.0
H873 H 0.68541 0.98978 0.76707 0.0
H874 H 0.59831 1.00084 0.84437 0.0
H875 H 0.63007 0.99731 0.82601 0.0
H876 H 0.65509 0.04745 0.80326 0.0
C877 C 0.71696 0.02633 0.85022 0.0
C878 C 0.67907 1.00256 0.7742 0.0
C879 C 0.72918 0.02446 0.89622 0.0
C880 C 0.60493 0.01046 0.81638 0.0
C881 C 0.62312 0.00836 0.80559 0.0
C882 C 0.66176 0.03501 0.79321 0.0
C883 C 0.70462 0.01268 0.83797 0.0
C884 C 0.68814 0.01639 0.80348 0.0
C885 C 0.63247 0.02104 0.77224 0.0
C886 C 0.65213 0.02046 0.77125 0.0
H887 H 0.71869 0.98215 0.93858 0.0
H888 H 0.69698 0.98554 0.86075 0.0
H889 H 0.68594 0.04398 0.83208 0.0
H890 H 0.59809 0.04862 0.73781 0.0
H891 H 0.63016 0.04539 0.72182 0.0
C892 C 0.43635 0.72837 0.96589 0.0
C893 C 0.45502 0.72978 0.96851 0.0
C894 C 0.42832 0.7161 0.92787 0.0
C895 C 0.43882 0.68247 0.81057 0.0
H896 H 0.40604 0.653 0.89941 0.0
C897 C 0.4346 0.6087 0.75827 0.0
C898 C 0.43587 0.59791 0.80849 0.0
C899 C 0.42934 0.62649 0.76319 0.0
C900 C 0.41516 0.66105 0.87381 0.0
H901 H 0.47982 0.72096 0.92935 0.0
H902 H 0.46608 0.69931 0.86493 0.0
H903 H 0.41218 0.68313 0.932 0.0
H904 H 0.4317 0.59669 0.90244 0.0
H905 H 0.42342 0.6278 0.91199 0.0
H906 H 0.44343 0.65985 0.75638 0.0
C907 C 0.45744 0.70764 0.89132 0.0
C908 C 0.41847 0.67852 0.89197 0.0
C909 C 0.4654 0.7199 0.92898 0.0
C910 C 0.43071 0.60478 0.8631 0.0
C911 C 0.42582 0.62264 0.86829 0.0
C912 C 0.43582 0.6649 0.79317 0.0
C913 C 0.43884 0.70504 0.89194 0.0
C914 C 0.43118 0.68906 0.86259 0.0
C915 C 0.42573 0.63394 0.81871 0.0
C916 C 0.42476 0.65363 0.82669 0.0
H917 H 0.42802 0.73589 0.99581 0.0
H918 H 0.41395 0.71465 0.92876 0.0
H919 H 0.44823 0.69042 0.78575 0.0
H920 H 0.43834 0.60354 0.71554 0.0
H921 H 0.42897 0.6346 0.72382 0.0
C922 C 0.7714 0.45127 0.92235 0.0
C923 C 0.76774 0.46898 0.93838 0.0
C924 C 0.78446 0.44753 0.88028 0.0
C925 C 0.81729 0.46943 0.77835 0.0
H926 H 0.85012 0.43582 0.84961 0.0
C927 C 0.89159 0.48116 0.80375 0.0
C928 C 0.90378 0.46743 0.79131 0.0
C929 C 0.87329 0.47815 0.80014 0.0
C930 C 0.84099 0.44492 0.82811 0.0
H931 H 0.77386 0.49665 0.91957 0.0
H932 H 0.79664 0.49025 0.84777 0.0
H933 H 0.81905 0.43587 0.87963 0.0
H934 H 0.90606 0.43976 0.76408 0.0
H935 H 0.87389 0.4343 0.76138 0.0
H936 H 0.83989 0.47959 0.73133 0.0
C937 C 0.78933 0.47914 0.86631 0.0
C938 C 0.8231 0.44493 0.84507 0.0
C939 C 0.77623 0.48286 0.9079 0.0
C940 C 0.89711 0.45057 0.77509 0.0
C941 C 0.87873 0.44747 0.7727 0.0
C942 C 0.83524 0.4696 0.76215 0.0
C943 C 0.79421 0.46143 0.85398 0.0
C944 C 0.81126 0.45785 0.82281 0.0
C945 C 0.86671 0.46126 0.78514 0.0
C946 C 0.84736 0.45791 0.78912 0.0
H947 H 0.76481 0.44031 0.94447 0.0
H948 H 0.78761 0.43374 0.87087 0.0
H949 H 0.80843 0.47923 0.75913 0.0
H950 H 0.89611 0.49419 0.81774 0.0
H951 H 0.86426 0.48889 0.8114 0.0
C952 C 0.99565 0.18978 0.93191 0.0
C953 C 0.01106 0.20004 0.92182 0.0
C954 C 0.99398 0.17265 0.90805 0.0
C955 C 0.01187 0.14202 0.79409 0.0
H956 H 0.99463 0.10509 0.89908 0.0
C957 C 0.99869 0.06951 0.71585 0.0
C958 C 1.00373 0.05558 0.75384 0.0
C959 C 0.99909 0.08728 0.73474 0.0
C960 C 0.99957 0.1152 0.86922 0.0
H961 H 0.03646 0.20051 0.87638 0.0
H962 H 0.03355 0.17064 0.83474 0.0
H963 H 0.99603 0.13586 0.93305 0.0
H964 H 0.0133 0.04955 0.84159 0.0
H965 H 0.01433 0.08053 0.87413 0.0
H966 H 0.01564 0.12127 0.73052 0.0
C967 C 0.02274 0.17585 0.86118 0.0
C968 C 1.00017 0.13291 0.88849 0.0
C969 C 0.02447 0.19294 0.88544 0.0
C970 C 0.00928 0.05991 0.81114 0.0
C971 C 0.00977 0.07769 0.82994 0.0
C972 C 0.01116 0.12429 0.77465 0.0
C973 C 0.00761 0.16533 0.87309 0.0
C974 C 0.00641 0.14656 0.85135 0.0
C975 C 0.00467 0.09164 0.79199 0.0
C976 C 0.00511 0.11061 0.81212 0.0
H977 H 0.98512 0.19471 0.96014 0.0
H978 H 0.98205 0.16503 0.91755 0.0
H979 H 0.01662 0.15219 0.76413 0.0
H980 H 0.99426 0.06669 0.67155 0.0
H981 H 0.99471 0.0976 0.70481 0.0
C982 C 0.30382 0.01925 0.86109 0.0
C983 C 0.30169 0.02379 0.92072 0.0
C984 C 0.32077 0.0192 0.83498 0.0
C985 C 0.36752 0.0352 0.85557 0.0
H986 H 0.37932 0.99591 0.75211 0.0
C987 C 0.4403 0.0197 0.78857 0.0
C988 C 0.44364 0.01444 0.73022 0.0
C989 C 0.42281 0.02131 0.80955 0.0
C990 C 0.37621 0.0071 0.78031 0.0
H991 H 0.31595 0.03194 0.99927 0.0
H992 H 0.34529 0.03194 0.95394 0.0
H993 H 0.34919 0.99846 0.79157 0.0
H994 H 0.43095 0.00676 0.64832 0.0
H995 H 0.40051 0.00959 0.68488 0.0
H996 H 0.39458 0.04374 0.8448 0.0
C997 C 0.33385 0.02867 0.92692 0.0
C998 C 0.35888 0.00859 0.80293 0.0
C999 C 0.31694 0.02873 0.95298 0.0
C1000 C 0.42896 0.01073 0.69357 0.0
C1001 C 0.41146 0.0123 0.71463 0.0
C1002 C 0.38484 0.0337 0.83303 0.0
C1003 C 0.33607 0.02368 0.86776 0.0
C1004 C 0.35431 0.02259 0.84126 0.0
C1005 C 0.40813 0.0177 0.77287 0.0
C1006 C 0.38948 0.01956 0.79544 0.0
H1007 H 0.29239 0.01557 0.83463 0.0
H1008 H 0.32189 0.01558 0.78906 0.0
H1009 H 0.36446 0.04634 0.88408 0.0
H1010 H 0.4512 0.02261 0.8183 0.0
H1011 H 0.42082 0.02522 0.85489 0.0
C1012 C 0.49476 0.31702 0.86953 0.0
C1013 C 0.49905 0.31525 0.92931 0.0
C1014 C 0.49426 0.33396 0.84312 0.0
C1015 C 0.51037 0.38061 0.86855 0.0
H1016 H 0.47749 0.39261 0.74304 0.0
C1017 C 0.49758 0.45308 0.79513 0.0
C1018 C 0.49823 0.45663 0.73449 0.0
C1019 C 0.49767 0.43553 0.81598 0.0
C1020 C 0.48684 0.38938 0.77777 0.0
H1021 H 0.50545 0.32959 0.00896 0.0
H1022 H 0.50378 0.35902 0.96428 0.0
H1023 H 0.47707 0.36262 0.78545 0.0
H1024 H 0.49904 0.44447 0.64815 0.0
H1025 H 0.49887 0.41372 0.68472 0.0
H1026 H 0.51973 0.40752 0.862 0.0
C1027 C 0.50145 0.3475 0.93669 0.0
C1028 C 0.48666 0.37216 0.80204 0.0
C1029 C 0.50221 0.33064 0.96265 0.0
C1030 C 0.49867 0.44218 0.69512 0.0
C1031 C 0.49846 0.42458 0.716 0.0
C1032 C 0.51035 0.39782 0.84495 0.0
C1033 C 0.49787 0.34946 0.87622 0.0
C1034 C 0.49831 0.36757 0.84831 0.0
C1035 C 0.49813 0.42107 0.77674 0.0
C1036 C 0.49851 0.40247 0.79965 0.0
H1037 H 0.4924 0.30529 0.84291 0.0
H1038 H 0.49158 0.33482 0.79645 0.0
H1039 H 0.51996 0.37756 0.90271 0.0
H1040 H 0.49727 0.46388 0.82669 0.0
H1041 H 0.49725 0.43326 0.863 0.0
C1042 C 0.1854 0.4878 0.93257 0.0
C1043 C 0.19873 0.49933 0.9113 0.0
C1044 C 0.16835 0.48759 0.90722 0.0
C1045 C 0.13782 0.51552 0.8168 0.0
H1046 H 0.11051 0.47182 0.80446 0.0
C1047 C 0.06902 0.51274 0.69962 0.0
C1048 C 0.05561 0.50219 0.72537 0.0
C1049 C 0.08655 0.51229 0.72115 0.0
C1050 C 0.11786 0.48419 0.80815 0.0
H1051 H 0.20462 0.51919 0.84479 0.0
H1052 H 0.17501 0.51868 0.80022 0.0
H1053 H 0.14094 0.47088 0.8422 0.0
H1054 H 0.05027 0.48277 0.79376 0.0
H1055 H 0.08085 0.48175 0.83045 0.0
H1056 H 0.11473 0.52884 0.78284 0.0
C1057 C 0.1776 0.51006 0.83744 0.0
C1058 C 0.13536 0.48365 0.82983 0.0
C1059 C 0.19464 0.51031 0.86291 0.0
C1060 C 0.06025 0.49106 0.77277 0.0
C1061 C 0.07784 0.49039 0.79361 0.0
C1062 C 0.12033 0.51606 0.79504 0.0
C1063 C 0.16411 0.49887 0.85972 0.0
C1064 C 0.1456 0.49932 0.83476 0.0
C1065 C 0.09126 0.50102 0.76814 0.0
C1066 C 0.11004 0.50041 0.79064 0.0
H1067 H 0.1879 0.47938 0.97036 0.0
H1068 H 0.15831 0.47896 0.92626 0.0
H1069 H 0.1451 0.52793 0.8208 0.0
H1070 H 0.06595 0.52157 0.6633 0.0
H1071 H 0.09646 0.52072 0.70068 0.0
C1072 C 0.00645 0.81184 0.47157 0.0
C1073 C 0.99841 0.80899 0.41638 0.0
C1074 C 0.00534 0.82847 0.49941 0.0
C1075 C 0.99817 0.87619 0.46482 0.0
H1076 H 0.99306 0.88143 0.63352 0.0
C1077 C 0.98834 0.94525 0.57108 0.0
C1078 C 0.99715 0.94892 0.62436 0.0
C1079 C 0.98801 0.92798 0.54796 0.0
C1080 C 0.9947 0.88022 0.5864 0.0
H1081 H 0.98251 0.82149 0.34817 0.0
H1082 H 0.98026 0.85026 0.39714 0.0
H1083 H 0.99281 0.8517 0.58976 0.0
H1084 H 0.01228 0.93701 0.69552 0.0
H1085 H 0.01194 0.90689 0.6547 0.0
H1086 H 1.00022 0.90459 0.46123 0.0
C1087 C 0.98765 0.8397 0.41859 0.0
C1088 C 0.99452 0.86314 0.56126 0.0
C1089 C 0.98872 0.82307 0.39083 0.0
C1090 C 0.00542 0.93474 0.65433 0.0
C1091 C 0.00512 0.91741 0.63105 0.0
C1092 C 0.99837 0.89321 0.48989 0.0
C1093 C 0.99621 0.84274 0.47278 0.0
C1094 C 0.99619 0.86089 0.50004 0.0
C1095 C 0.99652 0.91382 0.57724 0.0
C1096 C 0.99656 0.89551 0.55102 0.0
H1097 H 0.01386 0.80128 0.49291 0.0
H1098 H 0.01216 0.8303 0.54094 0.0
H1099 H 0.99989 0.87501 0.41772 0.0
H1100 H 0.98169 0.95574 0.5468 0.0
H1101 H 0.98095 0.92574 0.50709 0.0
C1102 C 0.68622 0.01965 0.45013 0.0
C1103 C 0.6943 0.00401 0.42868 0.0
C1104 C 0.66932 0.01915 0.47643 0.0
C1105 C 0.62844 0.991 0.4826 0.0
H1106 H 0.61464 0.02425 0.60458 0.0
C1107 C 0.55426 1.00165 0.5448 0.0
C1108 C 0.54993 0.00572 0.60342 0.0
C1109 C 0.57212 1.00084 0.52652 0.0
C1110 C 0.61823 0.0147 0.57099 0.0
H1111 H 0.69088 0.97541 0.42042 0.0
H1112 H 0.66183 0.97445 0.46804 0.0
H1113 H 0.64544 0.0234 0.57125 0.0
H1114 H 0.56117 0.01208 0.68843 0.0
H1115 H 0.59213 0.01 0.65769 0.0
H1116 H 0.60141 0.98192 0.48343 0.0
C1117 C 0.66838 0.98723 0.46325 0.0
C1118 C 0.63595 0.01438 0.55121 0.0
C1119 C 0.68525 0.98774 0.43666 0.0
C1120 C 0.56396 0.00882 0.64319 0.0
C1121 C 0.5818 0.00782 0.6252 0.0
C1122 C 0.61077 0.99122 0.50264 0.0
C1123 C 0.65998 1.00297 0.48248 0.0
C1124 C 0.6413 1.00265 0.50624 0.0
C1125 C 0.5862 0.0039 0.56643 0.0
C1126 C 0.6053 1.00321 0.54668 0.0
H1127 H 0.69283 0.03242 0.44574 0.0
H1128 H 0.66335 0.0316 0.49017 0.0
H1129 H 0.63189 0.9819 0.44749 0.0
H1130 H 0.54386 0.99933 0.51266 0.0
H1131 H 0.57482 0.99812 0.48066 0.0
C1132 C 0.49085 0.69528 0.41479 0.0
C1133 C 0.50585 0.70649 0.41917 0.0
C1134 C 0.4909 0.67826 0.4399 0.0
C1135 C 0.52136 0.64272 0.49348 0.0
H1136 H 0.47781 0.62363 0.5604 0.0
C1137 C 0.51367 0.56782 0.55249 0.0
C1138 C 0.50373 0.56331 0.60281 0.0
C1139 C 0.51431 0.58547 0.53221 0.0
C1140 C 0.49017 0.62875 0.5425 0.0
H1141 H 0.53264 0.70848 0.45442 0.0
H1142 H 0.53267 0.6788 0.49896 0.0
H1143 H 0.47838 0.65413 0.52439 0.0
H1144 H 0.48645 0.574 0.67039 0.0
H1145 H 0.48795 0.60465 0.63648 0.0
H1146 H 0.53325 0.61742 0.51284 0.0
C1147 C 0.52092 0.68313 0.47521 0.0
C1148 C 0.49043 0.64624 0.52104 0.0
C1149 C 0.52089 0.70019 0.44984 0.0
C1150 C 0.49443 0.57693 0.6321 0.0
C1151 C 0.49512 0.59456 0.61206 0.0
C1152 C 0.52111 0.62521 0.51514 0.0
C1153 C 0.50594 0.67188 0.47036 0.0
C1154 C 0.50598 0.65346 0.49576 0.0
C1155 C 0.50504 0.59911 0.56171 0.0
C1156 C 0.50548 0.61793 0.53966 0.0
H1157 H 0.47917 0.69944 0.39031 0.0
H1158 H 0.47925 0.66992 0.43401 0.0
H1159 H 0.53354 0.64769 0.47387 0.0
H1160 H 0.52097 0.55772 0.52853 0.0
H1161 H 0.52187 0.58833 0.49277 0.0
C1162 C 0.822 0.5007 0.37137 0.0
C1163 C 0.80691 0.50644 0.40261 0.0
C1164 C 0.839 0.5017 0.39631 0.0
C1165 C 0.86498 0.52191 0.52044 0.0
H1166 H 0.8991 0.48548 0.47609 0.0
C1167 C 0.93486 0.51209 0.63084 0.0
C1168 C 0.94928 0.51032 0.59174 0.0
C1169 C 0.91724 0.51214 0.61004 0.0
C1170 C 0.88975 0.4958 0.48868 0.0
H1171 H 0.79783 0.51797 0.48438 0.0
H1172 H 0.82753 0.51913 0.52939 0.0
H1173 H 0.86888 0.48427 0.43748 0.0
H1174 H 0.95649 0.50732 0.50005 0.0
H1175 H 0.92576 0.50706 0.46386 0.0
H1176 H 0.886 0.533 0.57334 0.0
C1177 C 0.82632 0.5142 0.48487 0.0
C1178 C 0.87238 0.49521 0.46623 0.0
C1179 C 0.80924 0.51348 0.4593 0.0
C1180 C 0.94569 0.50875 0.53131 0.0
C1181 C 0.92809 0.50849 0.51062 0.0
C1182 C 0.88233 0.5223 0.54374 0.0
C1183 C 0.84147 0.50817 0.45387 0.0
C1184 C 0.85976 0.50842 0.48085 0.0
C1185 C 0.91366 0.51013 0.54972 0.0
C1186 C 0.89497 0.5094 0.5274 0.0
H1187 H 0.82065 0.49552 0.32715 0.0
H1188 H 0.85024 0.49746 0.36997 0.0
H1189 H 0.85582 0.53244 0.53247 0.0
H1190 H 0.93722 0.5136 0.67747 0.0
H1191 H 0.90641 0.51338 0.64125 0.0
loop_
_geom_bond_atom_site_label_1
_geom_bond_atom_site_label_2
_geom_bond_distance
_geom_bond_site_symmetry_2
_ccdc_geom_bond_type
C0 C1 1.386 . S
C0 C2 1.397 . S
C0 H24 0.931 . S
C1 C0 1.386 . S
C1 C5 1.397 . S
C2 C0 1.397 . S
C2 C3 1.384 . S
C2 H25 0.930 . S
C3 C2 1.384 . S
C3 C4 1.377 . S
C3 C6 1.481 . S
C4 C3 1.377 . S
C4 C5 1.389 . S
C4 H26 0.929 . S
C5 C1 1.397 . S
C5 C4 1.389 . S
C5 H27 0.931 . S
C6 C3 1.481 . S
C6 C7 1.387 . S
C6 C11 1.390 . S
C7 C6 1.387 . S
C7 C8 1.401 . S
C7 H28 0.930 . S
C8 C7 1.401 . S
C8 C9 1.376 . S
C8 C17 1.511 . S
C9 C8 1.376 . S
C9 C10 1.392 . S
C9 H30 0.931 . S
C10 C9 1.392 . S
C10 C11 1.361 . S
C10 C12 1.500 . S
C11 C6 1.390 . S
C11 C10 1.361 . S
C11 H29 0.931 . S
C12 C10 1.500 . S
C12 C13 1.371 . S
C12 C14 1.365 . S
C13 C12 1.371 . S
C13 C23 1.386 . S
C13 H31 0.931 . S
C14 C12 1.365 . S
C14 C15 1.409 . S
C14 H32 0.929 . S
C15 C14 1.409 . S
C15 C16 1.380 . S
C15 H33 0.930 . S
C16 C15 1.380 . S
C16 C23 1.357 . S
C17 C8 1.511 . S
C17 C18 1.341 . S
C17 C19 1.371 . S
C18 C17 1.341 . S
C18 C22 1.394 . S
C18 H34 0.930 . S
C19 C17 1.371 . S
C19 C20 1.392 . S
C19 H35 0.931 . S
C20 C19 1.392 . S
C20 C21 1.331 . S
C20 H38 0.932 . S
C21 C20 1.331 . S
C21 C22 1.336 . S
C22 C18 1.394 . S
C22 C21 1.336 . S
C22 H37 0.929 . S
C23 C13 1.386 . S
C23 C16 1.357 . S
C23 H36 0.928 . S
H24 C0 0.931 . S
H25 C2 0.930 . S
H26 C4 0.929 . S
H27 C5 0.931 . S
H28 C7 0.930 . S
H29 C11 0.931 . S
H30 C9 0.931 . S
H31 C13 0.931 . S
H32 C14 0.929 . S
H33 C15 0.930 . S
H34 C18 0.930 . S
H35 C19 0.931 . S
H36 C23 0.928 . S
H37 C22 0.929 . S
H38 C20 0.932 . S
C39 C40 1.394 . S
C39 C41 1.397 . S
C39 H63 0.931 . S
C40 C39 1.394 . S
C40 C44 1.389 1_655 S
C41 C39 1.397 . S
C41 C42 1.389 . S
C41 H64 0.930 . S
C42 C41 1.389 . S
C42 C43 1.372 1_655 S
C42 C45 1.480 . S
C43 C42 1.372 1_455 S
C43 C44 1.389 . S
C43 H65 0.929 . S
C44 C40 1.389 1_455 S
C44 C43 1.389 . S
C44 H66 0.931 . S
C45 C42 1.480 . S
C45 C46 1.388 . S
C45 C50 1.390 . S
C46 C45 1.388 . S
C46 C47 1.402 . S
C46 H67 0.930 . S
C47 C46 1.402 . S
C47 C48 1.376 . S
C47 C56 1.513 . S
C48 C47 1.376 . S
C48 C49 1.392 . S
C48 H69 0.934 . S
C49 C48 1.392 . S
C49 C50 1.361 . S
C49 C51 1.499 1_655 S
C50 C45 1.390 . S
C50 C49 1.361 . S
C50 H68 0.931 . S
C51 C49 1.499 1_455 S
C51 C52 1.364 1_455 S
C51 C53 1.373 . S
C52 C51 1.364 1_655 S
C52 C62 1.386 . S
C52 H70 0.931 . S
C53 C51 1.373 . S
C53 C54 1.409 . S
C53 H71 0.929 . S
C54 C53 1.409 . S
C54 C55 1.377 . S
C54 H72 0.930 . S
C55 C54 1.377 . S
C55 C62 1.360 1_455 S
C56 C47 1.513 . S
C56 C57 1.341 . S
C56 C58 1.371 1_655 S
C57 C56 1.341 . S
C57 C61 1.394 . S
C57 H73 0.930 . S
C58 C56 1.371 1_455 S
C58 C59 1.392 . S
C58 H74 0.931 . S
C59 C58 1.392 . S
C59 C60 1.322 1_455 S
C59 H77 0.932 . S
C60 C59 1.322 1_655 S
C60 C61 1.345 . S
C61 C57 1.394 . S
C61 C60 1.345 . S
C61 H76 0.929 . S
C62 C52 1.386 . S
C62 C55 1.360 1_655 S
C62 H75 0.928 . S
H63 C39 0.931 . S
H64 C41 0.930 . S
H65 C43 0.929 . S
H66 C44 0.931 . S
H67 C46 0.930 . S
H68 C50 0.931 . S
H69 C48 0.934 . S
H70 C52 0.931 . S
H71 C53 0.929 . S
H72 C54 0.930 . S
H73 C57 0.930 . S
H74 C58 0.931 . S
H75 C62 0.928 . S
H76 C61 0.929 . S
H77 C59 0.932 . S
C78 C79 1.386 . S
C78 C80 1.397 . S
C78 H102 0.931 . S
C79 C78 1.386 . S
C79 C83 1.397 1_565 S
C80 C78 1.397 . S
C80 C81 1.384 . S
C80 H103 0.930 . S
C81 C80 1.384 . S
C81 C82 1.377 1_565 S
C81 C84 1.481 . S
C82 C81 1.377 1_545 S
C82 C83 1.389 . S
C82 H104 0.929 . S
C83 C79 1.397 1_545 S
C83 C82 1.389 . S
C83 H105 0.931 . S
C84 C81 1.481 . S
C84 C85 1.387 . S
C84 C89 1.390 . S
C85 C84 1.387 . S
C85 C86 1.401 . S
C85 H106 0.930 . S
C86 C85 1.401 . S
C86 C87 1.376 . S
C86 C95 1.511 . S
C87 C86 1.376 . S
C87 C88 1.392 . S
C87 H108 0.931 . S
C88 C87 1.392 . S
C88 C89 1.361 . S
C88 C90 1.500 . S
C89 C84 1.390 . S
C89 C88 1.361 . S
C89 H107 0.931 . S
C90 C88 1.500 . S
C90 C91 1.371 . S
C90 C92 1.365 1_565 S
C91 C90 1.371 . S
C91 C101 1.386 . S
C91 H109 0.931 . S
C92 C90 1.365 1_545 S
C92 C93 1.409 . S
C92 H110 0.929 . S
C93 C92 1.409 . S
C93 C94 1.380 1_545 S
C93 H111 0.930 . S
C94 C93 1.380 1_565 S
C94 C101 1.357 . S
C95 C86 1.511 . S
C95 C96 1.341 . S
C95 C97 1.371 1_565 S
C96 C95 1.341 . S
C96 C100 1.394 . S
C96 H112 0.930 . S
C97 C95 1.371 1_545 S
C97 C98 1.392 . S
C97 H113 0.931 . S
C98 C97 1.392 . S
C98 C99 1.331 1_545 S
C98 H116 0.932 . S
C99 C98 1.331 1_565 S
C99 C100 1.336 . S
C100 C96 1.394 . S
C100 C99 1.336 . S
C100 H115 0.929 . S
C101 C91 1.386 . S
C101 C94 1.357 . S
C101 H114 0.928 . S
H102 C78 0.931 . S
H103 C80 0.930 . S
H104 C82 0.929 . S
H105 C83 0.931 . S
H106 C85 0.930 . S
H107 C89 0.931 . S
H108 C87 0.931 . S
H109 C91 0.931 . S
H110 C92 0.929 . S
H111 C93 0.930 . S
H112 C96 0.930 . S
H113 C97 0.931 . S
H114 C101 0.928 . S
H115 C100 0.929 . S
H116 C98 0.932 . S
C117 C118 1.386 . S
C117 C119 1.397 . S
C117 H141 0.931 . S
C118 C117 1.386 . S
C118 C122 1.397 . S
C119 C117 1.397 . S
C119 C120 1.384 . S
C119 H142 0.930 . S
C120 C119 1.384 . S
C120 C121 1.377 . S
C120 C123 1.481 . S
C121 C120 1.377 . S
C121 C122 1.389 . S
C121 H143 0.929 . S
C122 C118 1.397 . S
C122 C121 1.389 . S
C122 H144 0.931 . S
C123 C120 1.481 . S
C123 C124 1.387 . S
C123 C128 1.390 . S
C124 C123 1.387 . S
C124 C125 1.401 . S
C124 H145 0.930 . S
C125 C124 1.401 . S
C125 C126 1.376 . S
C125 C134 1.511 . S
C126 C125 1.376 . S
C126 C127 1.392 . S
C126 H147 0.931 . S
C127 C126 1.392 . S
C127 C128 1.361 . S
C127 C129 1.500 . S
C128 C123 1.390 . S
C128 C127 1.361 . S
C128 H146 0.931 . S
C129 C127 1.500 . S
C129 C130 1.371 . S
C129 C131 1.365 . S
C130 C129 1.371 . S
C130 C140 1.386 . S
C130 H148 0.931 . S
C131 C129 1.365 . S
C131 C132 1.409 . S
C131 H149 0.929 . S
C132 C131 1.409 . S
C132 C133 1.380 . S
C132 H150 0.930 . S
C133 C132 1.380 . S
C133 C140 1.357 . S
C134 C125 1.511 . S
C134 C135 1.341 . S
C134 C136 1.371 . S
C135 C134 1.341 . S
C135 C139 1.394 . S
C135 H151 0.930 . S
C136 C134 1.371 . S
C136 C137 1.392 . S
C136 H152 0.931 . S
C137 C136 1.392 . S
C137 C138 1.331 . S
C137 H155 0.932 . S
C138 C137 1.331 . S
C138 C139 1.336 . S
C139 C135 1.394 . S
C139 C138 1.336 . S
C139 H154 0.929 . S
C140 C130 1.386 . S
C140 C133 1.357 . S
C140 H153 0.928 . S
H141 C117 0.931 . S
H142 C119 0.930 . S
H143 C121 0.929 . S
H144 C122 0.931 . S
H145 C124 0.930 . S
H146 C128 0.931 . S
H147 C126 0.931 . S
H148 C130 0.931 . S
H149 C131 0.929 . S
H150 C132 0.930 . S
H151 C135 0.930 . S
H152 C136 0.931 . S
H153 C140 0.928 . S
H154 C139 0.929 . S
H155 C137 0.932 . S
C156 C157 1.386 . S
C156 C158 1.397 . S
C156 H180 0.931 . S
C157 C156 1.386 . S
C157 C161 1.397 . S
C158 C156 1.397 . S
C158 C159 1.384 . S
C158 H181 0.930 . S
C159 C158 1.384 . S
C159 C160 1.377 . S
C159 C162 1.481 . S
C160 C159 1.377 . S
C160 C161 1.389 . S
C160 H182 0.929 . S
C161 C157 1.397 . S
C161 C160 1.389 . S
C161 H183 0.931 . S
C162 C159 1.481 . S
C162 C163 1.387 . S
C162 C167 1.390 . S
C163 C162 1.387 . S
C163 C164 1.401 . S
C163 H184 0.930 . S
C164 C163 1.401 . S
C164 C165 1.376 1_554 S
C164 C173 1.511 . S
C165 C164 1.376 1_556 S
C165 C166 1.392 . S
C165 H186 0.931 . S
C166 C165 1.392 . S
C166 C167 1.361 1_556 S
C166 C168 1.500 . S
C167 C162 1.390 . S
C167 C166 1.361 1_554 S
C167 H185 0.931 . S
C168 C166 1.500 . S
C168 C169 1.371 . S
C168 C170 1.365 . S
C169 C168 1.371 . S
C169 C179 1.386 . S
C169 H187 0.931 . S
C170 C168 1.365 . S
C170 C171 1.409 . S
C170 H188 0.929 . S
C171 C170 1.409 . S
C171 C172 1.380 . S
C171 H189 0.930 . S
C172 C171 1.380 . S
C172 C179 1.357 . S
C173 C164 1.511 . S
C173 C174 1.341 . S
C173 C175 1.371 . S
C174 C173 1.341 . S
C174 C178 1.394 . S
C174 H190 0.930 . S
C175 C173 1.371 . S
C175 C176 1.392 . S
C175 H191 0.931 1_554 S
C176 C175 1.392 . S
C176 C177 1.331 . S
C176 H194 0.932 . S
C177 C176 1.331 . S
C177 C178 1.336 . S
C178 C174 1.394 . S
C178 C177 1.336 . S
C178 H193 0.929 . S
C179 C169 1.386 . S
C179 C172 1.357 . S
C179 H192 0.928 . S
H180 C156 0.931 . S
H181 C158 0.930 . S
H182 C160 0.929 . S
H183 C161 0.931 . S
H184 C163 0.930 . S
H185 C167 0.931 . S
H186 C165 0.931 . S
H187 C169 0.931 . S
H188 C170 0.929 . S
H189 C171 0.930 . S
H190 C174 0.930 . S
H191 C175 0.931 1_556 S
H192 C179 0.928 . S
H193 C178 0.929 . S
H194 C176 0.932 . S
C195 C196 1.390 1_655 S
C195 C197 1.397 . S
C195 H219 0.931 . S
C196 C195 1.390 1_455 S
C196 C200 1.393 . S
C197 C195 1.397 . S
C197 C198 1.384 1_655 S
C197 H220 0.930 . S
C198 C197 1.384 1_455 S
C198 C199 1.377 . S
C198 C201 1.480 1_455 S
C199 C198 1.377 . S
C199 C200 1.389 . S
C199 H221 0.929 . S
C200 C196 1.393 . S
C200 C199 1.389 . S
C200 H222 0.931 . S
C201 C198 1.480 1_655 S
C201 C202 1.386 . S
C201 C206 1.390 1_655 S
C202 C201 1.386 . S
C202 C203 1.400 . S
C202 H223 0.935 . S
C203 C202 1.400 . S
C203 C204 1.376 1_554 S
C203 C212 1.511 . S
C204 C203 1.376 1_556 S
C204 C205 1.392 1_655 S
C204 H225 0.930 . S
C205 C204 1.392 1_455 S
C205 C206 1.361 1_556 S
C205 C207 1.499 . S
C206 C201 1.390 1_455 S
C206 C205 1.361 1_554 S
C206 H224 0.931 . S
C207 C205 1.499 . S
C207 C208 1.354 1_455 S
C207 C209 1.384 . S
C208 C207 1.354 1_655 S
C208 C218 1.386 . S
C208 H226 0.931 . S
C209 C207 1.384 . S
C209 C210 1.409 . S
C209 H227 0.929 . S
C210 C209 1.409 . S
C210 C211 1.388 . S
C210 H228 0.930 . S
C211 C210 1.388 . S
C211 C218 1.350 1_455 S
C212 C203 1.511 . S
C212 C213 1.341 . S
C212 C214 1.371 1_655 S
C213 C212 1.341 . S
C213 C217 1.394 . S
C213 H229 0.930 . S
C214 C212 1.371 1_455 S
C214 C215 1.392 . S
C214 H230 0.931 1_554 S
C215 C214 1.392 . S
C215 C216 1.329 1_455 S
C215 H233 0.932 . S
C216 C215 1.329 1_655 S
C216 C217 1.338 . S
C217 C213 1.394 . S
C217 C216 1.338 . S
C217 H232 0.929 . S
C218 C208 1.386 . S
C218 C211 1.350 1_655 S
C218 H231 0.928 . S
H219 C195 0.931 . S
H220 C197 0.930 . S
H221 C199 0.929 . S
H222 C200 0.931 . S
H223 C202 0.935 . S
H224 C206 0.931 . S
H225 C204 0.930 . S
H226 C208 0.931 . S
H227 C209 0.929 . S
H228 C210 0.930 . S
H229 C213 0.930 . S
H230 C214 0.931 1_556 S
H231 C218 0.928 . S
H232 C217 0.929 . S
H233 C215 0.932 . S
C234 C235 1.386 1_565 S
C234 C236 1.397 . S
C234 H258 0.931 . S
C235 C234 1.386 1_545 S
C235 C239 1.397 . S
C236 C234 1.397 . S
C236 C237 1.384 1_565 S
C236 H259 0.930 . S
C237 C236 1.384 1_545 S
C237 C238 1.377 . S
C237 C240 1.481 . S
C238 C237 1.377 . S
C238 C239 1.389 . S
C238 H260 0.929 . S
C239 C235 1.397 . S
C239 C238 1.389 . S
C239 H261 0.931 . S
C240 C237 1.481 . S
C240 C241 1.387 . S
C240 C245 1.390 . S
C241 C240 1.387 . S
C241 C242 1.401 . S
C241 H262 0.930 . S
C242 C241 1.401 . S
C242 C243 1.376 1_554 S
C242 C251 1.511 . S
C243 C242 1.376 1_556 S
C243 C244 1.392 . S
C243 H264 0.931 . S
C244 C243 1.392 . S
C244 C245 1.361 1_556 S
C244 C246 1.500 . S
C245 C240 1.390 . S
C245 C244 1.361 1_554 S
C245 H263 0.931 . S
C246 C244 1.500 . S
C246 C247 1.371 1_545 S
C246 C248 1.365 . S
C247 C246 1.371 1_565 S
C247 C257 1.386 . S
C247 H265 0.931 . S
C248 C246 1.365 . S
C248 C249 1.409 . S
C248 H266 0.929 . S
C249 C248 1.409 . S
C249 C250 1.380 . S
C249 H267 0.930 . S
C250 C249 1.380 . S
C250 C257 1.357 1_545 S
C251 C242 1.511 . S
C251 C252 1.341 1_545 S
C251 C253 1.371 . S
C252 C251 1.341 1_565 S
C252 C256 1.394 . S
C252 H268 0.930 . S
C253 C251 1.371 . S
C253 C254 1.392 . S
C253 H269 0.931 1_554 S
C254 C253 1.392 . S
C254 C255 1.331 . S
C254 H272 0.932 . S
C255 C254 1.331 . S
C255 C256 1.336 1_545 S
C256 C252 1.394 . S
C256 C255 1.336 1_565 S
C256 H271 0.929 . S
C257 C247 1.386 . S
C257 C250 1.357 1_565 S
C257 H270 0.928 . S
H258 C234 0.931 . S
H259 C236 0.930 . S
H260 C238 0.929 . S
H261 C239 0.931 . S
H262 C241 0.930 . S
H263 C245 0.931 . S
H264 C243 0.931 . S
H265 C247 0.931 . S
H266 C248 0.929 . S
H267 C249 0.930 . S
H268 C252 0.930 . S
H269 C253 0.931 1_556 S
H270 C257 0.928 . S
H271 C256 0.929 . S
H272 C254 0.932 . S
C273 C274 1.386 . S
C273 C275 1.397 . S
C273 H297 0.931 . S
C274 C273 1.386 . S
C274 C278 1.397 . S
C275 C273 1.397 . S
C275 C276 1.384 . S
C275 H298 0.930 . S
C276 C275 1.384 . S
C276 C277 1.377 . S
C276 C279 1.481 . S
C277 C276 1.377 . S
C277 C278 1.389 . S
C277 H299 0.929 . S
C278 C274 1.397 . S
C278 C277 1.389 . S
C278 H300 0.931 . S
C279 C276 1.481 . S
C279 C280 1.387 . S
C279 C284 1.390 1_556 S
C280 C279 1.387 . S
C280 C281 1.401 1_556 S
C280 H301 0.930 . S
C281 C280 1.401 1_554 S
C281 C282 1.376 . S
C281 C290 1.511 . S
C282 C281 1.376 . S
C282 C283 1.392 . S
C282 H303 0.931 . S
C283 C282 1.392 . S
C283 C284 1.361 . S
C283 C285 1.500 . S
C284 C279 1.390 1_554 S
C284 C283 1.361 . S
C284 H302 0.931 . S
C285 C283 1.500 . S
C285 C286 1.371 . S
C285 C287 1.365 . S
C286 C285 1.371 . S
C286 C296 1.386 . S
C286 H304 0.931 . S
C287 C285 1.365 . S
C287 C288 1.409 . S
C287 H305 0.929 . S
C288 C287 1.409 . S
C288 C289 1.380 . S
C288 H306 0.930 . S
C289 C288 1.380 . S
C289 C296 1.357 . S
C290 C281 1.511 . S
C290 C291 1.341 . S
C290 C292 1.371 . S
C291 C290 1.341 . S
C291 C295 1.394 . S
C291 H307 0.930 1_554 S
C292 C290 1.371 . S
C292 C293 1.392 . S
C292 H308 0.931 . S
C293 C292 1.392 . S
C293 C294 1.331 . S
C293 H311 0.932 . S
C294 C293 1.331 . S
C294 C295 1.336 . S
C295 C291 1.394 . S
C295 C294 1.336 . S
C295 H310 0.929 . S
C296 C286 1.386 . S
C296 C289 1.357 . S
C296 H309 0.928 . S
H297 C273 0.931 . S
H298 C275 0.930 . S
H299 C277 0.929 . S
H300 C278 0.931 . S
H301 C280 0.930 . S
H302 C284 0.931 . S
H303 C282 0.931 . S
H304 C286 0.931 . S
H305 C287 0.929 . S
H306 C288 0.930 . S
H307 C291 0.930 1_556 S
H308 C292 0.931 . S
H309 C296 0.928 . S
H310 C295 0.929 . S
H311 C293 0.932 . S
La312 C314 2.928 . S
La312 O332 2.521 . S
La312 O333 2.628 . S
La312 O334 2.554 . S
La312 O335 2.757 1_565 S
La312 O336 2.470 . S
La312 O341 2.482 1_455 S
La312 O343 2.503 1_565 S
La313 C323 2.928 . S
La313 O335 2.482 1_655 S
La313 O337 2.503 1_545 S
La313 O338 2.521 . S
La313 O339 2.628 . S
La313 O340 2.554 . S
La313 O341 2.757 1_545 S
La313 O342 2.470 . S
C314 La312 2.928 . S
C314 C315 1.503 . S
C314 O332 1.261 . S
C314 O333 1.243 . S
C315 C314 1.503 . S
C315 C316 1.394 . S
C315 C320 1.373 . S
C316 C315 1.394 . S
C316 C317 1.380 . S
C316 H344 0.930 . S
C317 C316 1.380 . S
C317 C318 1.376 . S
C317 H345 0.930 . S
C318 C317 1.376 . S
C318 C319 1.370 . S
C319 C318 1.370 . S
C319 C320 1.396 . S
C319 H346 0.929 1_455 S
C320 C315 1.373 . S
C320 C319 1.396 . S
C320 H347 0.929 1_455 S
C321 O334 1.238 1_545 S
C321 O335 1.291 . S
C322 O336 1.258 1_655 S
C322 O337 1.256 . S
C323 La313 2.928 . S
C323 C324 1.503 . S
C323 O338 1.261 . S
C323 O339 1.243 . S
C324 C323 1.503 . S
C324 C325 1.394 . S
C324 C329 1.373 . S
C325 C324 1.394 . S
C325 C326 1.380 . S
C325 H348 0.930 . S
C326 C325 1.380 . S
C326 C327 1.376 . S
C326 H349 0.930 . S
C327 C326 1.376 . S
C327 C328 1.370 . S
C328 C327 1.370 . S
C328 C329 1.396 . S
C328 H350 0.929 1_655 S
C329 C324 1.373 . S
C329 C328 1.396 . S
C329 H351 0.929 1_655 S
C330 O340 1.240 . S
C330 O341 1.289 1_545 S
C331 O342 1.258 1_455 S
C331 O343 1.256 . S
O332 La312 2.521 . S
O332 C314 1.261 . S
O333 La312 2.628 . S
O333 C314 1.243 . S
O334 La312 2.554 . S
O334 C321 1.238 1_565 S
O335 La312 2.757 1_545 S
O335 La313 2.482 1_455 S
O335 C321 1.291 . S
O336 La312 2.470 . S
O336 C322 1.258 1_455 S
O337 La313 2.503 1_565 S
O337 C322 1.256 . S
O338 La313 2.521 . S
O338 C323 1.261 . S
O339 La313 2.628 . S
O339 C323 1.243 . S
O340 La313 2.554 . S
O340 C330 1.240 . S
O341 La312 2.482 1_655 S
O341 La313 2.757 1_565 S
O341 C330 1.289 1_565 S
O342 La313 2.470 . S
O342 C331 1.258 1_655 S
O343 La312 2.503 1_545 S
O343 C331 1.256 . S
H344 C316 0.930 . S
H345 C317 0.930 . S
H346 C319 0.929 1_655 S
H347 C320 0.929 1_655 S
H348 C325 0.930 . S
H349 C326 0.930 . S
H350 C328 0.929 1_455 S
H351 C329 0.929 1_455 S
La352 C354 2.928 . S
La352 O372 2.521 . S
La352 O373 2.628 . S
La352 O374 2.554 . S
La352 O375 2.757 . S
La352 O376 2.470 . S
La352 O381 2.482 1_545 S
La352 O383 2.503 . S
La353 C363 2.928 . S
La353 O375 2.482 1_565 S
La353 O377 2.503 . S
La353 O378 2.521 . S
La353 O379 2.627 . S
La353 O380 2.554 . S
La353 O381 2.757 . S
La353 O382 2.470 . S
C354 La352 2.928 . S
C354 C355 1.503 . S
C354 O372 1.261 . S
C354 O373 1.243 . S
C355 C354 1.503 . S
C355 C356 1.394 . S
C355 C360 1.373 . S
C356 C355 1.394 . S
C356 C357 1.380 . S
C356 H384 0.930 . S
C357 C356 1.380 . S
C357 C358 1.376 . S
C357 H385 0.930 . S
C358 C357 1.376 . S
C358 C359 1.370 . S
C359 C358 1.370 . S
C359 C360 1.396 . S
C359 H386 0.929 1_545 S
C360 C355 1.373 . S
C360 C359 1.396 . S
C360 H387 0.929 1_545 S
C361 O374 1.240 . S
C361 O375 1.289 . S
C362 O376 1.258 1_565 S
C362 O377 1.256 . S
C363 La353 2.928 . S
C363 C364 1.503 . S
C363 O378 1.261 . S
C363 O379 1.241 . S
C364 C363 1.503 . S
C364 C365 1.394 . S
C364 C369 1.373 . S
C365 C364 1.394 . S
C365 C366 1.380 . S
C365 H388 0.930 . S
C366 C365 1.380 . S
C366 C367 1.376 . S
C366 H389 0.930 . S
C367 C366 1.376 . S
C367 C368 1.370 . S
C368 C367 1.370 . S
C368 C369 1.396 . S
C368 H390 0.929 1_565 S
C369 C364 1.373 . S
C369 C368 1.396 . S
C369 H391 0.929 1_565 S
C370 O380 1.240 . S
C370 O381 1.289 . S
C371 O382 1.258 1_545 S
C371 O383 1.256 . S
O372 La352 2.521 . S
O372 C354 1.261 . S
O373 La352 2.628 . S
O373 C354 1.243 . S
O374 La352 2.554 . S
O374 C361 1.240 . S
O375 La352 2.757 . S
O375 La353 2.482 1_545 S
O375 C361 1.289 . S
O376 La352 2.470 . S
O376 C362 1.258 1_545 S
O377 La353 2.503 . S
O377 C362 1.256 . S
O378 La353 2.521 . S
O378 C363 1.261 . S
O379 La353 2.627 . S
O379 C363 1.241 . S
O380 La353 2.554 . S
O380 C370 1.240 . S
O381 La352 2.482 1_565 S
O381 La353 2.757 . S
O381 C370 1.289 . S
O382 La353 2.470 . S
O382 C371 1.258 1_565 S
O383 La352 2.503 . S
O383 C371 1.256 . S
H384 C356 0.930 . S
H385 C357 0.930 . S
H386 C359 0.929 1_565 S
H387 C360 0.929 1_565 S
H388 C365 0.930 . S
H389 C366 0.930 . S
H390 C368 0.929 1_545 S
H391 C369 0.929 1_545 S
La392 C394 2.928 . S
La392 O412 2.521 . S
La392 O413 2.628 . S
La392 O414 2.554 . S
La392 O415 2.757 . S
La392 O416 2.470 . S
La392 O421 2.482 . S
La392 O423 2.503 . S
La393 C403 2.928 . S
La393 O415 2.482 . S
La393 O417 2.503 . S
La393 O418 2.521 . S
La393 O419 2.628 . S
La393 O420 2.554 . S
La393 O421 2.757 . S
La393 O422 2.470 . S
C394 La392 2.928 . S
C394 C395 1.503 . S
C394 O412 1.261 . S
C394 O413 1.243 . S
C395 C394 1.503 . S
C395 C396 1.394 . S
C395 C400 1.373 . S
C396 C395 1.394 . S
C396 C397 1.380 . S
C396 H424 0.930 . S
C397 C396 1.380 . S
C397 C398 1.376 . S
C397 H425 0.930 . S
C398 C397 1.376 . S
C398 C399 1.370 . S
C399 C398 1.370 . S
C399 C400 1.396 . S
C399 H426 0.929 . S
C400 C395 1.373 . S
C400 C399 1.396 . S
C400 H427 0.929 . S
C401 O414 1.240 . S
C401 O415 1.289 . S
C402 O416 1.258 . S
C402 O417 1.256 . S
C403 La393 2.928 . S
C403 C404 1.503 . S
C403 O418 1.261 . S
C403 O419 1.243 . S
C404 C403 1.503 . S
C404 C405 1.394 . S
C404 C409 1.373 . S
C405 C404 1.394 . S
C405 C406 1.380 . S
C405 H428 0.930 . S
C406 C405 1.380 . S
C406 C407 1.376 . S
C406 H429 0.930 . S
C407 C406 1.376 . S
C407 C408 1.370 . S
C408 C407 1.370 . S
C408 C409 1.396 . S
C408 H430 0.929 . S
C409 C404 1.373 . S
C409 C408 1.396 . S
C409 H431 0.929 . S
C410 O420 1.240 . S
C410 O421 1.289 . S
C411 O422 1.258 . S
C411 O423 1.256 . S
O412 La392 2.521 . S
O412 C394 1.261 . S
O413 La392 2.628 . S
O413 C394 1.243 . S
O414 La392 2.554 . S
O414 C401 1.240 . S
O415 La392 2.757 . S
O415 La393 2.482 . S
O415 C401 1.289 . S
O416 La392 2.470 . S
O416 C402 1.258 . S
O417 La393 2.503 . S
O417 C402 1.256 . S
O418 La393 2.521 . S
O418 C403 1.261 . S
O419 La393 2.628 . S
O419 C403 1.243 . S
O420 La393 2.554 . S
O420 C410 1.240 . S
O421 La392 2.482 . S
O421 La393 2.757 . S
O421 C410 1.289 . S
O422 La393 2.470 . S
O422 C411 1.258 . S
O423 La392 2.503 . S
O423 C411 1.256 . S
H424 C396 0.930 . S
H425 C397 0.930 . S
H426 C399 0.929 . S
H427 C400 0.929 . S
H428 C405 0.930 . S
H429 C406 0.930 . S
H430 C408 0.929 . S
H431 C409 0.929 . S
La432 C434 2.928 . S
La432 O452 2.521 . S
La432 O453 2.628 . S
La432 O454 2.554 . S
La432 O455 2.757 1_655 S
La432 O456 2.470 . S
La432 O461 2.482 . S
La432 O463 2.503 1_655 S
La433 C443 2.928 . S
La433 O455 2.482 . S
La433 O457 2.503 1_455 S
La433 O458 2.521 . S
La433 O459 2.628 . S
La433 O460 2.554 . S
La433 O461 2.757 1_455 S
La433 O462 2.470 . S
C434 La432 2.928 . S
C434 C435 1.503 . S
C434 O452 1.261 . S
C434 O453 1.243 . S
C435 C434 1.503 . S
C435 C436 1.394 . S
C435 C440 1.373 . S
C436 C435 1.394 . S
C436 C437 1.380 . S
C436 H464 0.930 . S
C437 C436 1.380 . S
C437 C438 1.376 . S
C437 H465 0.930 . S
C438 C437 1.376 . S
C438 C439 1.370 . S
C439 C438 1.370 . S
C439 C440 1.396 . S
C439 H466 0.929 . S
C440 C435 1.373 . S
C440 C439 1.396 . S
C440 H467 0.929 . S
C441 O454 1.269 . S
C441 O455 1.273 1_655 S
C442 O456 1.258 . S
C442 O457 1.256 . S
C443 La433 2.928 . S
C443 C444 1.503 . S
C443 O458 1.261 . S
C443 O459 1.243 . S
C444 C443 1.503 . S
C444 C445 1.394 . S
C444 C449 1.373 . S
C445 C444 1.394 . S
C445 C446 1.380 . S
C445 H468 0.930 . S
C446 C445 1.380 . S
C446 C447 1.376 . S
C446 H469 0.930 . S
C447 C446 1.376 . S
C447 C448 1.370 . S
C448 C447 1.370 . S
C448 C449 1.396 . S
C448 H470 0.929 . S
C449 C444 1.373 . S
C449 C448 1.396 . S
C449 H471 0.929 . S
C450 O460 1.240 . S
C450 O461 1.289 1_455 S
C451 O462 1.258 . S
C451 O463 1.256 . S
O452 La432 2.521 . S
O452 C434 1.261 . S
O453 La432 2.628 . S
O453 C434 1.243 . S
O454 La432 2.554 . S
O454 C441 1.269 . S
O455 La432 2.757 1_455 S
O455 La433 2.482 . S
O455 C441 1.273 1_455 S
O456 La432 2.470 . S
O456 C442 1.258 . S
O457 La433 2.503 1_655 S
O457 C442 1.256 . S
O458 La433 2.521 . S
O458 C443 1.261 . S
O459 La433 2.628 . S
O459 C443 1.243 . S
O460 La433 2.554 . S
O460 C450 1.240 . S
O461 La432 2.482 . S
O461 La433 2.757 1_655 S
O461 C450 1.289 1_655 S
O462 La433 2.470 . S
O462 C451 1.258 . S
O463 La432 2.503 1_455 S
O463 C451 1.256 . S
H464 C436 0.930 . S
H465 C437 0.930 . S
H466 C439 0.929 . S
H467 C440 0.929 . S
H468 C445 0.930 . S
H469 C446 0.930 . S
H470 C448 0.929 . S
H471 C449 0.929 . S
C472 C473 1.349 . S
C472 C474 1.327 . S
C472 H497 0.950 . S
C473 C472 1.349 . S
C473 C489 1.349 1_545 S
C474 C472 1.327 . S
C474 C493 1.429 . S
C474 H498 0.950 . S
C475 C492 1.574 . S
C475 C494 1.368 1_565 S
C475 H499 0.949 . S
H476 C480 0.949 . S
C477 C478 1.349 1_565 S
C477 C479 1.327 . S
C477 H500 0.950 . S
C478 C477 1.349 1_545 S
C478 C490 1.349 . S
C479 C477 1.327 . S
C479 C495 1.429 1_565 S
C479 H501 0.950 . S
C480 H476 0.949 . S
C480 C488 1.574 . S
C480 C496 1.368 . S
H481 C489 0.950 . S
H482 C487 0.950 . S
H483 C488 0.949 . S
H484 C490 0.950 . S
H485 C491 0.950 . S
H486 C492 0.949 . S
C487 H482 0.950 . S
C487 C489 1.327 . S
C487 C493 1.429 1_565 S
C488 C480 1.574 . S
C488 H483 0.949 . S
C488 C494 1.368 . S
C489 C473 1.349 1_565 S
C489 H481 0.950 . S
C489 C487 1.327 . S
C490 C478 1.349 . S
C490 H484 0.950 . S
C490 C491 1.327 . S
C491 H485 0.950 . S
C491 C490 1.327 . S
C491 C495 1.429 . S
C492 C475 1.574 . S
C492 H486 0.949 . S
C492 C496 1.368 1_565 S
C493 C474 1.429 . S
C493 C487 1.429 1_545 S
C493 C494 1.523 . S
C494 C475 1.368 1_545 S
C494 C488 1.368 . S
C494 C493 1.523 . S
C495 C479 1.429 1_545 S
C495 C491 1.429 . S
C495 C496 1.523 . S
C496 C480 1.368 . S
C496 C492 1.368 1_545 S
C496 C495 1.523 . S
H497 C472 0.950 . S
H498 C474 0.950 . S
H499 C475 0.949 . S
H500 C477 0.950 . S
H501 C479 0.950 . S
C502 C503 1.349 . S
C502 C504 1.327 . S
C502 H527 0.950 . S
C503 C502 1.349 . S
C503 C519 1.349 . S
C504 C502 1.327 . S
C504 C523 1.429 . S
C504 H528 0.950 . S
C505 C522 1.574 . S
C505 C524 1.368 . S
C505 H529 0.949 . S
H506 C510 0.949 . S
C507 C508 1.349 . S
C507 C509 1.327 . S
C507 H530 0.950 . S
C508 C507 1.349 . S
C508 C520 1.349 . S
C509 C507 1.327 . S
C509 C525 1.429 . S
C509 H531 0.950 . S
C510 H506 0.949 . S
C510 C518 1.574 . S
C510 C526 1.368 . S
H511 C519 0.950 . S
H512 C517 0.950 . S
H513 C518 0.949 . S
H514 C520 0.950 . S
H515 C521 0.950 . S
H516 C522 0.949 . S
C517 H512 0.950 . S
C517 C519 1.327 . S
C517 C523 1.429 . S
C518 C510 1.574 . S
C518 H513 0.949 . S
C518 C524 1.368 . S
C519 C503 1.349 . S
C519 H511 0.950 . S
C519 C517 1.327 . S
C520 C508 1.349 . S
C520 H514 0.950 . S
C520 C521 1.327 . S
C521 H515 0.950 . S
C521 C520 1.327 . S
C521 C525 1.429 . S
C522 C505 1.574 . S
C522 H516 0.949 . S
C522 C526 1.368 . S
C523 C504 1.429 . S
C523 C517 1.429 . S
C523 C524 1.523 . S
C524 C505 1.368 . S
C524 C518 1.368 . S
C524 C523 1.523 . S
C525 C509 1.429 . S
C525 C521 1.429 . S
C525 C526 1.523 . S
C526 C510 1.368 . S
C526 C522 1.368 . S
C526 C525 1.523 . S
H527 C502 0.950 . S
H528 C504 0.950 . S
H529 C505 0.949 . S
H530 C507 0.950 . S
H531 C509 0.950 . S
C532 C533 1.349 . S
C532 C534 1.327 . S
C532 H557 0.950 . S
C533 C532 1.349 . S
C533 C549 1.349 . S
C534 C532 1.327 . S
C534 C553 1.429 . S
C534 H558 0.950 . S
C535 C552 1.574 . S
C535 C554 1.368 . S
C535 H559 0.949 . S
H536 C540 0.949 . S
C537 C538 1.349 . S
C537 C539 1.327 . S
C537 H560 0.950 . S
C538 C537 1.349 . S
C538 C550 1.349 . S
C539 C537 1.327 . S
C539 C555 1.429 . S
C539 H561 0.950 . S
C540 H536 0.949 . S
C540 C548 1.574 . S
C540 C556 1.368 . S
H541 C549 0.950 . S
H542 C547 0.950 . S
H543 C548 0.949 . S
H544 C550 0.950 . S
H545 C551 0.950 . S
H546 C552 0.949 . S
C547 H542 0.950 . S
C547 C549 1.327 . S
C547 C553 1.429 . S
C548 C540 1.574 . S
C548 H543 0.949 . S
C548 C554 1.368 . S
C549 C533 1.349 . S
C549 H541 0.950 . S
C549 C547 1.327 . S
C550 C538 1.349 . S
C550 H544 0.950 . S
C550 C551 1.327 . S
C551 H545 0.950 . S
C551 C550 1.327 . S
C551 C555 1.429 . S
C552 C535 1.574 . S
C552 H546 0.949 . S
C552 C556 1.368 . S
C553 C534 1.429 . S
C553 C547 1.429 . S
C553 C554 1.523 . S
C554 C535 1.368 . S
C554 C548 1.368 . S
C554 C553 1.523 . S
C555 C539 1.429 . S
C555 C551 1.429 . S
C555 C556 1.523 . S
C556 C540 1.368 . S
C556 C552 1.368 . S
C556 C555 1.523 . S
H557 C532 0.950 . S
H558 C534 0.950 . S
H559 C535 0.949 . S
H560 C537 0.950 . S
H561 C539 0.950 . S
C562 C563 1.347 1_655 S
C562 C564 1.327 . S
C562 H587 0.950 . S
C563 C562 1.347 1_455 S
C563 C579 1.351 . S
C564 C562 1.327 . S
C564 C583 1.424 1_655 S
C564 H588 0.950 . S
C565 C582 1.574 . S
C565 C584 1.375 . S
C565 H589 0.949 . S
H566 C570 0.949 . S
C567 C568 1.349 . S
C567 C569 1.327 . S
C567 H590 0.950 . S
C568 C567 1.349 . S
C568 C580 1.349 1_455 S
C569 C567 1.327 . S
C569 C585 1.439 . S
C569 H591 0.950 . S
C570 H566 0.949 . S
C570 C578 1.574 . S
C570 C586 1.361 1_655 S
H571 C579 0.950 . S
H572 C577 0.950 . S
H573 C578 0.949 . S
H574 C580 0.950 . S
H575 C581 0.950 . S
H576 C582 0.949 . S
C577 H572 0.950 . S
C577 C579 1.327 . S
C577 C583 1.433 . S
C578 C570 1.574 . S
C578 H573 0.949 . S
C578 C584 1.363 1_655 S
C579 C563 1.351 . S
C579 H571 0.950 . S
C579 C577 1.327 . S
C580 C568 1.349 1_655 S
C580 H574 0.950 . S
C580 C581 1.327 . S
C581 H575 0.950 . S
C581 C580 1.327 . S
C581 C585 1.421 1_655 S
C582 C565 1.574 . S
C582 H576 0.949 . S
C582 C586 1.378 . S
C583 C564 1.424 1_455 S
C583 C577 1.433 . S
C583 C584 1.523 . S
C584 C565 1.375 . S
C584 C578 1.363 1_455 S
C584 C583 1.523 . S
C585 C569 1.439 . S
C585 C581 1.421 1_455 S
C585 C586 1.523 . S
C586 C570 1.361 1_455 S
C586 C582 1.378 . S
C586 C585 1.523 . S
H587 C562 0.950 . S
H588 C564 0.950 . S
H589 C565 0.949 . S
H590 C567 0.950 . S
H591 C569 0.950 . S
C592 C593 1.349 . S
C592 C594 1.327 . S
C592 H617 0.950 . S
C593 C592 1.349 . S
C593 C609 1.349 1_565 S
C594 C592 1.327 . S
C594 C613 1.429 . S
C594 H618 0.950 . S
C595 C612 1.574 1_554 S
C595 C614 1.368 1_545 S
C595 H619 0.949 . S
H596 C600 0.949 . S
C597 C598 1.349 1_545 S
C597 C599 1.327 . S
C597 H620 0.950 . S
C598 C597 1.349 1_565 S
C598 C610 1.349 . S
C599 C597 1.327 . S
C599 C615 1.429 1_545 S
C599 H621 0.950 . S
C600 H596 0.949 . S
C600 C608 1.574 . S
C600 C616 1.368 . S
H601 C609 0.950 . S
H602 C607 0.950 . S
H603 C608 0.949 1_554 S
H604 C610 0.950 . S
H605 C611 0.950 . S
H606 C612 0.949 . S
C607 H602 0.950 . S
C607 C609 1.327 . S
C607 C613 1.429 1_545 S
C608 C600 1.574 . S
C608 H603 0.949 1_556 S
C608 C614 1.368 1_556 S
C609 C593 1.349 1_545 S
C609 H601 0.950 . S
C609 C607 1.327 . S
C610 C598 1.349 . S
C610 H604 0.950 . S
C610 C611 1.327 . S
C611 H605 0.950 . S
C611 C610 1.327 . S
C611 C615 1.429 . S
C612 C595 1.574 1_556 S
C612 H606 0.949 . S
C612 C616 1.368 1_545 S
C613 C594 1.429 . S
C613 C607 1.429 1_565 S
C613 C614 1.523 . S
C614 C595 1.368 1_565 S
C614 C608 1.368 1_554 S
C614 C613 1.523 . S
C615 C599 1.429 1_565 S
C615 C611 1.429 . S
C615 C616 1.523 . S
C616 C600 1.368 . S
C616 C612 1.368 1_565 S
C616 C615 1.523 . S
H617 C592 0.950 . S
H618 C594 0.950 . S
H619 C595 0.949 . S
H620 C597 0.950 . S
H621 C599 0.950 . S
C622 C623 1.349 . S
C622 C624 1.327 . S
C622 H647 0.950 . S
C623 C622 1.349 . S
C623 C639 1.349 . S
C624 C622 1.327 . S
C624 C643 1.429 . S
C624 H648 0.950 . S
C625 C642 1.574 1_554 S
C625 C644 1.368 . S
C625 H649 0.949 . S
H626 C630 0.949 . S
C627 C628 1.349 . S
C627 C629 1.327 . S
C627 H650 0.950 . S
C628 C627 1.349 . S
C628 C640 1.349 . S
C629 C627 1.327 . S
C629 C645 1.429 . S
C629 H651 0.950 . S
C630 H626 0.949 . S
C630 C638 1.574 . S
C630 C646 1.368 . S
H631 C639 0.950 . S
H632 C637 0.950 . S
H633 C638 0.949 1_554 S
H634 C640 0.950 . S
H635 C641 0.950 . S
H636 C642 0.949 . S
C637 H632 0.950 . S
C637 C639 1.327 . S
C637 C643 1.429 . S
C638 C630 1.574 . S
C638 H633 0.949 1_556 S
C638 C644 1.368 1_556 S
C639 C623 1.349 . S
C639 H631 0.950 . S
C639 C637 1.327 . S
C640 C628 1.349 . S
C640 H634 0.950 . S
C640 C641 1.327 . S
C641 H635 0.950 . S
C641 C640 1.327 . S
C641 C645 1.429 . S
C642 C625 1.574 1_556 S
C642 H636 0.949 . S
C642 C646 1.368 . S
C643 C624 1.429 . S
C643 C637 1.429 . S
C643 C644 1.523 . S
C644 C625 1.368 . S
C644 C638 1.368 1_554 S
C644 C643 1.523 . S
C645 C629 1.429 . S
C645 C641 1.429 . S
C645 C646 1.523 . S
C646 C630 1.368 . S
C646 C642 1.368 . S
C646 C645 1.523 . S
H647 C622 0.950 . S
H648 C624 0.950 . S
H649 C625 0.949 . S
H650 C627 0.950 . S
H651 C629 0.950 . S
C652 C653 1.349 . S
C652 C654 1.327 . S
C652 H677 0.950 . S
C653 C652 1.349 . S
C653 C669 1.349 . S
C654 C652 1.327 . S
C654 C673 1.429 . S
C654 H678 0.950 . S
C655 C672 1.574 . S
C655 C674 1.368 1_556 S
C655 H679 0.949 1_556 S
H656 C660 0.949 . S
C657 C658 1.349 . S
C657 C659 1.327 . S
C657 H680 0.950 . S
C658 C657 1.349 . S
C658 C670 1.349 . S
C659 C657 1.327 . S
C659 C675 1.429 . S
C659 H681 0.950 . S
C660 H656 0.949 . S
C660 C668 1.574 1_556 S
C660 C676 1.368 . S
H661 C669 0.950 . S
H662 C667 0.950 . S
H663 C668 0.949 . S
H664 C670 0.950 . S
H665 C671 0.950 . S
H666 C672 0.949 . S
C667 H662 0.950 . S
C667 C669 1.327 . S
C667 C673 1.429 . S
C668 C660 1.574 1_554 S
C668 H663 0.949 . S
C668 C674 1.368 . S
C669 C653 1.349 . S
C669 H661 0.950 . S
C669 C667 1.327 . S
C670 C658 1.349 . S
C670 H664 0.950 . S
C670 C671 1.327 . S
C671 H665 0.950 . S
C671 C670 1.327 . S
C671 C675 1.429 . S
C672 C655 1.574 . S
C672 H666 0.949 . S
C672 C676 1.368 . S
C673 C654 1.429 . S
C673 C667 1.429 . S
C673 C674 1.523 . S
C674 C655 1.368 1_554 S
C674 C668 1.368 . S
C674 C673 1.523 . S
C675 C659 1.429 . S
C675 C671 1.429 . S
C675 C676 1.523 . S
C676 C660 1.368 . S
C676 C672 1.368 . S
C676 C675 1.523 . S
H677 C652 0.950 . S
H678 C654 0.950 . S
H679 C655 0.949 1_554 S
H680 C657 0.950 . S
H681 C659 0.950 . S
C682 C683 1.344 1_455 S
C682 C684 1.327 . S
C682 H707 0.950 . S
C683 C682 1.344 1_655 S
C683 C699 1.353 . S
C684 C682 1.327 . S
C684 C703 1.414 1_455 S
C684 H708 0.950 . S
C685 C702 1.574 1_554 S
C685 C704 1.390 . S
C685 H709 0.949 . S
H686 C690 0.949 . S
C687 C688 1.395 . S
C687 C689 1.327 . S
C687 H710 0.950 . S
C688 C687 1.395 . S
C688 C700 1.303 1_655 S
C689 C687 1.327 . S
C689 C705 1.463 . S
C689 H711 0.950 . S
C690 H686 0.949 . S
C690 C698 1.574 1_556 S
C690 C706 1.337 1_455 S
H691 C699 0.950 . S
H692 C697 0.950 . S
H693 C698 0.949 . S
H694 C700 0.950 . S
H695 C701 0.950 . S
H696 C702 0.949 . S
C697 H692 0.950 . S
C697 C699 1.327 . S
C697 C703 1.443 . S
C698 C690 1.574 1_554 S
C698 H693 0.949 . S
C698 C704 1.347 1_455 S
C699 C683 1.353 . S
C699 H691 0.950 . S
C699 C697 1.327 . S
C700 C688 1.303 1_455 S
C700 H694 0.950 . S
C700 C701 1.327 . S
C701 H695 0.950 . S
C701 C700 1.327 . S
C701 C705 1.395 1_455 S
C702 C685 1.574 1_556 S
C702 H696 0.949 . S
C702 C706 1.400 . S
C703 C684 1.414 1_655 S
C703 C697 1.443 . S
C703 C704 1.523 . S
C704 C685 1.390 . S
C704 C698 1.347 1_655 S
C704 C703 1.523 . S
C705 C689 1.463 . S
C705 C701 1.395 1_655 S
C705 C706 1.523 . S
C706 C690 1.337 1_655 S
C706 C702 1.400 . S
C706 C705 1.523 . S
H707 C682 0.950 . S
H708 C684 0.950 . S
H709 C685 0.949 . S
H710 C687 0.950 . S
H711 C689 0.950 . S
C712 C713 1.349 1_655 S
C712 C714 1.327 . S
C712 H737 0.950 . S
C713 C712 1.349 1_455 S
C713 C729 1.349 . S
C714 C712 1.327 . S
C714 C733 1.429 . S
C714 H738 0.950 . S
C715 C732 1.574 1_455 S
C715 C734 1.368 1_455 S
C715 H739 0.949 . S
H716 C720 0.949 . S
C717 C718 1.349 . S
C717 C719 1.327 . S
C717 H740 0.950 . S
C718 C717 1.349 . S
C718 C730 1.349 . S
C719 C717 1.327 . S
C719 C735 1.429 . S
C719 H741 0.950 . S
C720 H716 0.949 . S
C720 C728 1.574 . S
C720 C736 1.368 . S
H721 C729 0.950 . S
H722 C727 0.950 . S
H723 C728 0.949 . S
H724 C730 0.950 . S
H725 C731 0.950 . S
H726 C732 0.949 1_455 S
C727 H722 0.950 . S
C727 C729 1.327 . S
C727 C733 1.429 1_455 S
C728 C720 1.574 . S
C728 H723 0.949 . S
C728 C734 1.368 . S
C729 C713 1.349 . S
C729 H721 0.950 . S
C729 C727 1.327 . S
C730 C718 1.349 . S
C730 H724 0.950 . S
C730 C731 1.327 . S
C731 H725 0.950 . S
C731 C730 1.327 . S
C731 C735 1.429 . S
C732 C715 1.574 1_655 S
C732 H726 0.949 1_655 S
C732 C736 1.368 . S
C733 C714 1.429 . S
C733 C727 1.429 1_655 S
C733 C734 1.523 . S
C734 C715 1.368 1_655 S
C734 C728 1.368 . S
C734 C733 1.523 . S
C735 C719 1.429 . S
C735 C731 1.429 . S
C735 C736 1.523 . S
C736 C720 1.368 . S
C736 C732 1.368 . S
C736 C735 1.523 . S
H737 C712 0.950 . S
H738 C714 0.950 . S
H739 C715 0.949 . S
H740 C717 0.950 . S
H741 C719 0.950 . S
C742 C743 1.349 . S
C742 C744 1.327 . S
C742 H767 0.950 . S
C743 C742 1.349 . S
C743 C759 1.349 1_545 S
C744 C742 1.327 . S
C744 C763 1.429 1_545 S
C744 H768 0.950 . S
C745 C762 1.574 . S
C745 C764 1.368 . S
C745 H769 0.949 . S
H746 C750 0.949 . S
C747 C748 1.349 . S
C747 C749 1.327 . S
C747 H770 0.950 . S
C748 C747 1.349 . S
C748 C760 1.349 . S
C749 C747 1.327 . S
C749 C765 1.429 . S
C749 H771 0.950 . S
C750 H746 0.949 . S
C750 C758 1.574 . S
C750 C766 1.368 . S
H751 C759 0.950 . S
H752 C757 0.950 . S
H753 C758 0.949 1_545 S
H754 C760 0.950 . S
H755 C761 0.950 . S
H756 C762 0.949 . S
C757 H752 0.950 . S
C757 C759 1.327 . S
C757 C763 1.429 . S
C758 C750 1.574 . S
C758 H753 0.949 1_565 S
C758 C764 1.368 . S
C759 C743 1.349 1_565 S
C759 H751 0.950 . S
C759 C757 1.327 . S
C760 C748 1.349 . S
C760 H754 0.950 . S
C760 C761 1.327 . S
C761 H755 0.950 . S
C761 C760 1.327 . S
C761 C765 1.429 . S
C762 C745 1.574 . S
C762 H756 0.949 . S
C762 C766 1.368 . S
C763 C744 1.429 1_565 S
C763 C757 1.429 . S
C763 C764 1.523 . S
C764 C745 1.368 . S
C764 C758 1.368 . S
C764 C763 1.523 . S
C765 C749 1.429 . S
C765 C761 1.429 . S
C765 C766 1.523 . S
C766 C750 1.368 . S
C766 C762 1.368 . S
C766 C765 1.523 . S
H767 C742 0.950 . S
H768 C744 0.950 . S
H769 C745 0.949 . S
H770 C747 0.950 . S
H771 C749 0.950 . S
C772 C773 1.349 . S
C772 C774 1.327 . S
C772 H797 0.950 . S
C773 C772 1.349 . S
C773 C789 1.349 . S
C774 C772 1.327 . S
C774 C793 1.429 . S
C774 H798 0.950 . S
C775 C792 1.574 . S
C775 C794 1.368 . S
C775 H799 0.949 . S
H776 C780 0.949 . S
C777 C778 1.349 . S
C777 C779 1.327 . S
C777 H800 0.950 . S
C778 C777 1.349 . S
C778 C790 1.349 . S
C779 C777 1.327 . S
C779 C795 1.429 . S
C779 H801 0.950 . S
C780 H776 0.949 . S
C780 C788 1.574 . S
C780 C796 1.368 . S
H781 C789 0.950 . S
H782 C787 0.950 . S
H783 C788 0.949 . S
H784 C790 0.950 . S
H785 C791 0.950 . S
H786 C792 0.949 . S
C787 H782 0.950 . S
C787 C789 1.327 . S
C787 C793 1.429 . S
C788 C780 1.574 . S
C788 H783 0.949 . S
C788 C794 1.368 . S
C789 C773 1.349 . S
C789 H781 0.950 . S
C789 C787 1.327 . S
C790 C778 1.349 . S
C790 H784 0.950 . S
C790 C791 1.327 . S
C791 H785 0.950 . S
C791 C790 1.327 . S
C791 C795 1.429 . S
C792 C775 1.574 . S
C792 H786 0.949 . S
C792 C796 1.368 . S
C793 C774 1.429 . S
C793 C787 1.429 . S
C793 C794 1.523 . S
C794 C775 1.368 . S
C794 C788 1.368 . S
C794 C793 1.523 . S
C795 C779 1.429 . S
C795 C791 1.429 . S
C795 C796 1.523 . S
C796 C780 1.368 . S
C796 C792 1.368 . S
C796 C795 1.523 . S
H797 C772 0.950 . S
H798 C774 0.950 . S
H799 C775 0.949 . S
H800 C777 0.950 . S
H801 C779 0.950 . S
C802 C803 1.349 . S
C802 C804 1.327 . S
C802 H827 0.950 . S
C803 C802 1.349 . S
C803 C819 1.349 . S
C804 C802 1.327 . S
C804 C823 1.429 . S
C804 H828 0.950 . S
C805 C822 1.574 . S
C805 C824 1.368 . S
C805 H829 0.949 . S
H806 C810 0.949 . S
C807 C808 1.349 . S
C807 C809 1.327 . S
C807 H830 0.950 . S
C808 C807 1.349 . S
C808 C820 1.349 . S
C809 C807 1.327 . S
C809 C825 1.429 . S
C809 H831 0.950 . S
C810 H806 0.949 . S
C810 C818 1.574 . S
C810 C826 1.368 . S
H811 C819 0.950 . S
H812 C817 0.950 . S
H813 C818 0.949 . S
H814 C820 0.950 . S
H815 C821 0.950 . S
H816 C822 0.949 . S
C817 H812 0.950 . S
C817 C819 1.327 . S
C817 C823 1.429 . S
C818 C810 1.574 . S
C818 H813 0.949 . S
C818 C824 1.368 . S
C819 C803 1.349 . S
C819 H811 0.950 . S
C819 C817 1.327 . S
C820 C808 1.349 . S
C820 H814 0.950 . S
C820 C821 1.327 . S
C821 H815 0.950 . S
C821 C820 1.327 . S
C821 C825 1.429 . S
C822 C805 1.574 . S
C822 H816 0.949 . S
C822 C826 1.368 . S
C823 C804 1.429 . S
C823 C817 1.429 . S
C823 C824 1.523 . S
C824 C805 1.368 . S
C824 C818 1.368 . S
C824 C823 1.523 . S
C825 C809 1.429 . S
C825 C821 1.429 . S
C825 C826 1.523 . S
C826 C810 1.368 . S
C826 C822 1.368 . S
C826 C825 1.523 . S
H827 C802 0.950 . S
H828 C804 0.950 . S
H829 C805 0.949 . S
H830 C807 0.950 . S
H831 C809 0.950 . S
C832 C833 1.349 . S
C832 C834 1.327 . S
C832 H857 0.950 . S
C833 C832 1.349 . S
C833 C849 1.349 1_655 S
C834 C832 1.327 . S
C834 C853 1.429 1_655 S
C834 H858 0.950 1_554 S
C835 C852 1.574 . S
C835 C854 1.368 . S
C835 H859 0.949 . S
H836 C840 0.949 1_655 S
C837 C838 1.349 . S
C837 C839 1.327 . S
C837 H860 0.950 . S
C838 C837 1.349 . S
C838 C850 1.349 . S
C839 C837 1.327 . S
C839 C855 1.429 . S
C839 H861 0.950 . S
C840 H836 0.949 1_455 S
C840 C848 1.569 1_455 S
C840 C856 1.368 . S
H841 C849 0.950 . S
H842 C847 0.950 . S
H843 C848 0.966 . S
H844 C850 0.950 . S
H845 C851 0.950 . S
H846 C852 0.949 . S
C847 H842 0.950 . S
C847 C849 1.327 . S
C847 C853 1.429 . S
C848 C840 1.569 1_655 S
C848 H843 0.966 . S
C848 C854 1.355 1_656 S
C849 C833 1.349 1_455 S
C849 H841 0.950 . S
C849 C847 1.327 . S
C850 C838 1.349 . S
C850 H844 0.950 . S
C850 C851 1.327 . S
C851 H845 0.950 . S
C851 C850 1.327 . S
C851 C855 1.429 . S
C852 C835 1.574 . S
C852 H846 0.949 . S
C852 C856 1.368 1_554 S
C853 C834 1.429 1_455 S
C853 C847 1.429 . S
C853 C854 1.523 . S
C854 C835 1.368 . S
C854 C848 1.355 1_454 S
C854 C853 1.523 . S
C855 C839 1.429 . S
C855 C851 1.429 . S
C855 C856 1.523 . S
C856 C840 1.368 . S
C856 C852 1.368 1_556 S
C856 C855 1.523 . S
H857 C832 0.950 . S
H858 C834 0.950 1_556 S
H859 C835 0.949 . S
H860 C837 0.950 . S
H861 C839 0.950 . S
C862 C863 1.349 . S
C862 C864 1.327 . S
C862 H887 0.950 . S
C863 C862 1.349 . S
C863 C879 1.349 1_565 S
C864 C862 1.327 . S
C864 C883 1.429 1_565 S
C864 H888 0.950 . S
C865 C882 1.566 1_554 S
C865 C884 1.371 . S
C865 H889 0.953 . S
H866 C870 0.949 . S
C867 C868 1.349 . S
C867 C869 1.327 . S
C867 H890 0.950 . S
C868 C867 1.349 . S
C868 C880 1.349 . S
C869 C867 1.327 . S
C869 C885 1.429 . S
C869 H891 0.950 . S
C870 H866 0.949 . S
C870 C878 1.565 1_556 S
C870 C886 1.368 1_565 S
H871 C879 0.950 . S
H872 C877 0.950 . S
H873 C878 0.954 . S
H874 C880 0.950 . S
H875 C881 0.950 1_565 S
H876 C882 0.949 . S
C877 H872 0.950 . S
C877 C879 1.327 . S
C877 C883 1.429 . S
C878 C870 1.565 1_554 S
C878 H873 0.954 . S
C878 C884 1.372 1_565 S
C879 C863 1.349 1_545 S
C879 H871 0.950 . S
C879 C877 1.327 . S
C880 C868 1.349 . S
C880 H874 0.950 . S
C880 C881 1.327 . S
C881 H875 0.950 1_545 S
C881 C880 1.327 . S
C881 C885 1.429 . S
C882 C865 1.566 1_556 S
C882 H876 0.949 . S
C882 C886 1.368 . S
C883 C864 1.429 1_545 S
C883 C877 1.429 . S
C883 C884 1.523 . S
C884 C865 1.371 . S
C884 C878 1.372 1_545 S
C884 C883 1.523 . S
C885 C869 1.429 . S
C885 C881 1.429 . S
C885 C886 1.523 . S
C886 C870 1.368 1_545 S
C886 C882 1.368 . S
C886 C885 1.523 . S
H887 C862 0.950 . S
H888 C864 0.950 . S
H889 C865 0.953 . S
H890 C867 0.950 . S
H891 C869 0.950 . S
C892 C893 1.349 . S
C892 C894 1.327 . S
C892 H917 0.950 . S
C893 C892 1.349 . S
C893 C909 1.349 . S
C894 C892 1.327 . S
C894 C913 1.429 . S
C894 H918 0.950 . S
C895 C912 1.574 . S
C895 C914 1.368 1_556 S
C895 H919 0.949 . S
H896 C900 0.949 . S
C897 C898 1.349 . S
C897 C899 1.327 . S
C897 H920 0.950 . S
C898 C897 1.349 . S
C898 C910 1.349 . S
C899 C897 1.327 . S
C899 C915 1.429 . S
C899 H921 0.950 . S
C900 H896 0.949 . S
C900 C908 1.574 . S
C900 C916 1.368 1_554 S
H901 C909 0.950 . S
H902 C907 0.950 1_556 S
H903 C908 0.949 . S
H904 C910 0.950 . S
H905 C911 0.950 . S
H906 C912 0.949 . S
C907 H902 0.950 1_554 S
C907 C909 1.327 . S
C907 C913 1.429 . S
C908 C900 1.574 . S
C908 H903 0.949 . S
C908 C914 1.368 . S
C909 C893 1.349 . S
C909 H901 0.950 . S
C909 C907 1.327 . S
C910 C898 1.349 . S
C910 H904 0.950 . S
C910 C911 1.327 . S
C911 H905 0.950 . S
C911 C910 1.327 . S
C911 C915 1.429 . S
C912 C895 1.574 . S
C912 H906 0.949 . S
C912 C916 1.368 . S
C913 C894 1.429 . S
C913 C907 1.429 . S
C913 C914 1.523 . S
C914 C895 1.368 1_554 S
C914 C908 1.368 . S
C914 C913 1.523 . S
C915 C899 1.429 . S
C915 C911 1.429 . S
C915 C916 1.523 . S
C916 C900 1.368 1_556 S
C916 C912 1.368 . S
C916 C915 1.523 . S
H917 C892 0.950 . S
H918 C894 0.950 . S
H919 C895 0.949 . S
H920 C897 0.950 . S
H921 C899 0.950 . S
C922 C923 1.349 . S
C922 C924 1.327 . S
C922 H947 0.950 . S
C923 C922 1.349 . S
C923 C939 1.349 . S
C924 C922 1.327 . S
C924 C943 1.429 . S
C924 H948 0.950 . S
C925 C942 1.574 1_554 S
C925 C944 1.368 . S
C925 H949 0.949 . S
H926 C930 0.949 . S
C927 C928 1.349 . S
C927 C929 1.327 . S
C927 H950 0.950 . S
C928 C927 1.349 . S
C928 C940 1.349 . S
C929 C927 1.327 . S
C929 C945 1.429 . S
C929 H951 0.950 . S
C930 H926 0.949 . S
C930 C938 1.574 . S
C930 C946 1.368 . S
H931 C939 0.950 . S
H932 C937 0.950 . S
H933 C938 0.949 1_554 S
H934 C940 0.950 . S
H935 C941 0.950 . S
H936 C942 0.949 . S
C937 H932 0.950 . S
C937 C939 1.327 . S
C937 C943 1.429 . S
C938 C930 1.574 . S
C938 H933 0.949 1_556 S
C938 C944 1.368 1_556 S
C939 C923 1.349 . S
C939 H931 0.950 . S
C939 C937 1.327 . S
C940 C928 1.349 . S
C940 H934 0.950 . S
C940 C941 1.327 . S
C941 H935 0.950 . S
C941 C940 1.327 . S
C941 C945 1.429 . S
C942 C925 1.574 1_556 S
C942 H936 0.949 . S
C942 C946 1.368 . S
C943 C924 1.429 . S
C943 C937 1.429 . S
C943 C944 1.523 . S
C944 C925 1.368 . S
C944 C938 1.368 1_554 S
C944 C943 1.523 . S
C945 C929 1.429 . S
C945 C941 1.429 . S
C945 C946 1.523 . S
C946 C930 1.368 . S
C946 C942 1.368 . S
C946 C945 1.523 . S
H947 C922 0.950 . S
H948 C924 0.950 . S
H949 C925 0.949 . S
H950 C927 0.950 . S
H951 C929 0.950 . S
C952 C953 1.349 1_655 S
C952 C954 1.327 . S
C952 H977 0.950 . S
C953 C952 1.349 1_455 S
C953 C969 1.349 . S
C954 C952 1.327 . S
C954 C973 1.429 1_655 S
C954 H978 0.950 . S
C955 C972 1.574 . S
C955 C974 1.368 . S
C955 H979 0.949 . S
H956 C960 0.949 . S
C957 C958 1.349 . S
C957 C959 1.327 . S
C957 H980 0.950 . S
C958 C957 1.349 . S
C958 C970 1.349 1_455 S
C959 C957 1.327 . S
C959 C975 1.429 . S
C959 H981 0.950 . S
C960 H956 0.949 . S
C960 C968 1.574 . S
C960 C976 1.368 1_655 S
H961 C969 0.950 . S
H962 C967 0.950 . S
H963 C968 0.949 . S
H964 C970 0.950 . S
H965 C971 0.950 . S
H966 C972 0.949 . S
C967 H962 0.950 . S
C967 C969 1.327 . S
C967 C973 1.429 . S
C968 C960 1.574 . S
C968 H963 0.949 . S
C968 C974 1.368 1_655 S
C969 C953 1.349 . S
C969 H961 0.950 . S
C969 C967 1.327 . S
C970 C958 1.349 1_655 S
C970 H964 0.950 . S
C970 C971 1.327 . S
C971 H965 0.950 . S
C971 C970 1.327 . S
C971 C975 1.429 1_655 S
C972 C955 1.574 . S
C972 H966 0.949 . S
C972 C976 1.368 . S
C973 C954 1.429 1_455 S
C973 C967 1.429 . S
C973 C974 1.523 . S
C974 C955 1.368 . S
C974 C968 1.368 1_455 S
C974 C973 1.523 . S
C975 C959 1.429 . S
C975 C971 1.429 1_455 S
C975 C976 1.523 . S
C976 C960 1.368 1_455 S
C976 C972 1.368 . S
C976 C975 1.523 . S
H977 C952 0.950 . S
H978 C954 0.950 . S
H979 C955 0.949 . S
H980 C957 0.950 . S
H981 C959 0.950 . S
C982 C983 1.349 . S
C982 C984 1.327 . S
C982 H1007 0.956 . S
C983 C982 1.349 . S
C983 C999 1.349 . S
C984 C982 1.327 . S
C984 C1003 1.429 . S
C984 H1008 0.950 . S
C985 C1002 1.574 . S
C985 C1004 1.368 . S
C985 H1009 0.949 . S
H986 C990 0.949 . S
C987 C988 1.349 . S
C987 C989 1.327 . S
C987 H1010 0.950 . S
C988 C987 1.349 . S
C988 C1000 1.349 . S
C989 C987 1.327 . S
C989 C1005 1.429 . S
C989 H1011 0.950 . S
C990 H986 0.949 . S
C990 C998 1.574 . S
C990 C1006 1.368 . S
H991 C999 0.950 . S
H992 C997 0.950 . S
H993 C998 0.949 . S
H994 C1000 0.950 . S
H995 C1001 0.950 . S
H996 C1002 0.949 . S
C997 H992 0.950 . S
C997 C999 1.327 . S
C997 C1003 1.429 . S
C998 C990 1.574 . S
C998 H993 0.949 . S
C998 C1004 1.368 . S
C999 C983 1.349 . S
C999 H991 0.950 . S
C999 C997 1.327 . S
C1000 C988 1.349 . S
C1000 H994 0.950 . S
C1000 C1001 1.327 . S
C1001 H995 0.950 . S
C1001 C1000 1.327 . S
C1001 C1005 1.429 . S
C1002 C985 1.574 . S
C1002 H996 0.949 . S
C1002 C1006 1.368 . S
C1003 C984 1.429 . S
C1003 C997 1.429 . S
C1003 C1004 1.523 . S
C1004 C985 1.368 . S
C1004 C998 1.368 . S
C1004 C1003 1.523 . S
C1005 C989 1.429 . S
C1005 C1001 1.429 . S
C1005 C1006 1.523 . S
C1006 C990 1.368 . S
C1006 C1002 1.368 . S
C1006 C1005 1.523 . S
H1007 C982 0.956 . S
H1008 C984 0.950 . S
H1009 C985 0.949 . S
H1010 C987 0.950 . S
H1011 C989 0.950 . S
C1012 C1013 1.349 . S
C1012 C1014 1.327 . S
C1012 H1037 0.950 . S
C1013 C1012 1.349 . S
C1013 C1029 1.349 . S
C1014 C1012 1.327 . S
C1014 C1033 1.429 . S
C1014 H1038 0.950 . S
C1015 C1032 1.574 . S
C1015 C1034 1.368 . S
C1015 H1039 0.949 . S
H1016 C1020 0.949 . S
C1017 C1018 1.349 . S
C1017 C1019 1.327 . S
C1017 H1040 0.950 . S
C1018 C1017 1.349 . S
C1018 C1030 1.349 . S
C1019 C1017 1.327 . S
C1019 C1035 1.429 . S
C1019 H1041 0.950 . S
C1020 H1016 0.949 . S
C1020 C1028 1.574 . S
C1020 C1036 1.368 . S
H1021 C1029 0.950 . S
H1022 C1027 0.950 . S
H1023 C1028 0.949 . S
H1024 C1030 0.950 . S
H1025 C1031 0.950 . S
H1026 C1032 0.949 . S
C1027 H1022 0.950 . S
C1027 C1029 1.327 . S
C1027 C1033 1.429 . S
C1028 C1020 1.574 . S
C1028 H1023 0.949 . S
C1028 C1034 1.368 . S
C1029 C1013 1.349 . S
C1029 H1021 0.950 . S
C1029 C1027 1.327 . S
C1030 C1018 1.349 . S
C1030 H1024 0.950 . S
C1030 C1031 1.327 . S
C1031 H1025 0.950 . S
C1031 C1030 1.327 . S
C1031 C1035 1.429 . S
C1032 C1015 1.574 . S
C1032 H1026 0.949 . S
C1032 C1036 1.368 . S
C1033 C1014 1.429 . S
C1033 C1027 1.429 . S
C1033 C1034 1.523 . S
C1034 C1015 1.368 . S
C1034 C1028 1.368 . S
C1034 C1033 1.523 . S
C1035 C1019 1.429 . S
C1035 C1031 1.429 . S
C1035 C1036 1.523 . S
C1036 C1020 1.368 . S
C1036 C1032 1.368 . S
C1036 C1035 1.523 . S
H1037 C1012 0.950 . S
H1038 C1014 0.950 . S
H1039 C1015 0.949 . S
H1040 C1017 0.950 . S
H1041 C1019 0.950 . S
C1042 C1043 1.349 . S
C1042 C1044 1.327 . S
C1042 H1067 0.950 . S
C1043 C1042 1.349 . S
C1043 C1059 1.349 . S
C1044 C1042 1.327 . S
C1044 C1063 1.429 . S
C1044 H1068 0.950 . S
C1045 C1062 1.574 . S
C1045 C1064 1.368 . S
C1045 H1069 0.949 . S
H1046 C1050 0.949 . S
C1047 C1048 1.349 . S
C1047 C1049 1.327 . S
C1047 H1070 0.950 . S
C1048 C1047 1.349 . S
C1048 C1060 1.349 . S
C1049 C1047 1.327 . S
C1049 C1065 1.429 . S
C1049 H1071 0.950 . S
C1050 H1046 0.949 . S
C1050 C1058 1.574 . S
C1050 C1066 1.368 . S
H1051 C1059 0.950 . S
H1052 C1057 0.950 . S
H1053 C1058 0.949 . S
H1054 C1060 0.950 . S
H1055 C1061 0.950 . S
H1056 C1062 0.949 . S
C1057 H1052 0.950 . S
C1057 C1059 1.327 . S
C1057 C1063 1.429 . S
C1058 C1050 1.574 . S
C1058 H1053 0.949 . S
C1058 C1064 1.368 . S
C1059 C1043 1.349 . S
C1059 H1051 0.950 . S
C1059 C1057 1.327 . S
C1060 C1048 1.349 . S
C1060 H1054 0.950 . S
C1060 C1061 1.327 . S
C1061 H1055 0.950 . S
C1061 C1060 1.327 . S
C1061 C1065 1.429 . S
C1062 C1045 1.574 . S
C1062 H1056 0.949 . S
C1062 C1066 1.368 . S
C1063 C1044 1.429 . S
C1063 C1057 1.429 . S
C1063 C1064 1.523 . S
C1064 C1045 1.368 . S
C1064 C1058 1.368 . S
C1064 C1063 1.523 . S
C1065 C1049 1.429 . S
C1065 C1061 1.429 . S
C1065 C1066 1.523 . S
C1066 C1050 1.368 . S
C1066 C1062 1.368 . S
C1066 C1065 1.523 . S
H1067 C1042 0.950 . S
H1068 C1044 0.950 . S
H1069 C1045 0.949 . S
H1070 C1047 0.950 . S
H1071 C1049 0.950 . S
C1072 C1073 1.349 1_455 S
C1072 C1074 1.327 . S
C1072 H1097 0.950 . S
C1073 C1072 1.349 1_655 S
C1073 C1089 1.349 . S
C1074 C1072 1.327 . S
C1074 C1093 1.429 1_455 S
C1074 H1098 0.950 . S
C1075 C1092 1.574 . S
C1075 C1094 1.368 . S
C1075 H1099 0.949 . S
H1076 C1080 0.949 . S
C1077 C1078 1.349 . S
C1077 C1079 1.327 . S
C1077 H1100 0.950 . S
C1078 C1077 1.349 . S
C1078 C1090 1.318 1_655 S
C1079 C1077 1.327 . S
C1079 C1095 1.429 . S
C1079 H1101 0.950 . S
C1080 H1076 0.949 . S
C1080 C1088 1.574 . S
C1080 C1096 1.368 1_455 S
H1081 C1089 0.950 . S
H1082 C1087 0.950 . S
H1083 C1088 0.949 . S
H1084 C1090 0.981 . S
H1085 C1091 0.950 . S
H1086 C1092 0.949 . S
C1087 H1082 0.950 . S
C1087 C1089 1.327 . S
C1087 C1093 1.429 . S
C1088 C1080 1.574 . S
C1088 H1083 0.949 . S
C1088 C1094 1.368 1_455 S
C1089 C1073 1.349 . S
C1089 H1081 0.950 . S
C1089 C1087 1.327 . S
C1090 C1078 1.318 1_455 S
C1090 H1084 0.981 . S
C1090 C1091 1.332 . S
C1091 H1085 0.950 . S
C1091 C1090 1.332 . S
C1091 C1095 1.429 1_455 S
C1092 C1075 1.574 . S
C1092 H1086 0.949 . S
C1092 C1096 1.368 . S
C1093 C1074 1.429 1_655 S
C1093 C1087 1.429 . S
C1093 C1094 1.523 . S
C1094 C1075 1.368 . S
C1094 C1088 1.368 1_655 S
C1094 C1093 1.523 . S
C1095 C1079 1.429 . S
C1095 C1091 1.429 1_655 S
C1095 C1096 1.523 . S
C1096 C1080 1.368 1_655 S
C1096 C1092 1.368 . S
C1096 C1095 1.523 . S
H1097 C1072 0.950 . S
H1098 C1074 0.950 . S
H1099 C1075 0.949 . S
H1100 C1077 0.950 . S
H1101 C1079 0.950 . S
C1102 C1103 1.349 1_545 S
C1102 C1104 1.327 . S
C1102 H1127 0.950 . S
C1103 C1102 1.349 1_565 S
C1103 C1119 1.349 . S
C1104 C1102 1.327 . S
C1104 C1123 1.429 1_545 S
C1104 H1128 0.950 . S
C1105 C1122 1.574 . S
C1105 C1124 1.368 . S
C1105 H1129 0.949 . S
H1106 C1110 0.949 . S
C1107 C1108 1.349 . S
C1107 C1109 1.327 . S
C1107 H1130 0.950 . S
C1108 C1107 1.349 . S
C1108 C1120 1.349 1_565 S
C1109 C1107 1.327 . S
C1109 C1125 1.429 . S
C1109 H1131 0.950 . S
C1110 H1106 0.949 . S
C1110 C1118 1.574 . S
C1110 C1126 1.368 1_545 S
H1111 C1119 0.950 . S
H1112 C1117 0.950 . S
H1113 C1118 0.949 . S
H1114 C1120 0.950 . S
H1115 C1121 0.950 . S
H1116 C1122 0.949 . S
C1117 H1112 0.950 . S
C1117 C1119 1.327 . S
C1117 C1123 1.429 . S
C1118 C1110 1.574 . S
C1118 H1113 0.949 . S
C1118 C1124 1.368 1_545 S
C1119 C1103 1.349 . S
C1119 H1111 0.950 . S
C1119 C1117 1.327 . S
C1120 C1108 1.349 1_545 S
C1120 H1114 0.950 . S
C1120 C1121 1.327 . S
C1121 H1115 0.950 . S
C1121 C1120 1.327 . S
C1121 C1125 1.429 1_545 S
C1122 C1105 1.574 . S
C1122 H1116 0.949 . S
C1122 C1126 1.368 . S
C1123 C1104 1.429 1_565 S
C1123 C1117 1.429 . S
C1123 C1124 1.523 . S
C1124 C1105 1.368 . S
C1124 C1118 1.368 1_565 S
C1124 C1123 1.523 . S
C1125 C1109 1.429 . S
C1125 C1121 1.429 1_565 S
C1125 C1126 1.523 . S
C1126 C1110 1.368 1_565 S
C1126 C1122 1.368 . S
C1126 C1125 1.523 . S
H1127 C1102 0.950 . S
H1128 C1104 0.950 . S
H1129 C1105 0.949 . S
H1130 C1107 0.950 . S
H1131 C1109 0.950 . S
C1132 C1133 1.349 . S
C1132 C1134 1.327 . S
C1132 H1157 0.950 . S
C1133 C1132 1.349 . S
C1133 C1149 1.349 . S
C1134 C1132 1.327 . S
C1134 C1153 1.429 . S
C1134 H1158 0.950 . S
C1135 C1152 1.574 . S
C1135 C1154 1.368 . S
C1135 H1159 0.949 . S
H1136 C1140 0.949 . S
C1137 C1138 1.349 . S
C1137 C1139 1.327 . S
C1137 H1160 0.950 . S
C1138 C1137 1.349 . S
C1138 C1150 1.349 . S
C1139 C1137 1.327 . S
C1139 C1155 1.429 . S
C1139 H1161 0.950 . S
C1140 H1136 0.949 . S
C1140 C1148 1.574 . S
C1140 C1156 1.368 . S
H1141 C1149 0.950 . S
H1142 C1147 0.950 . S
H1143 C1148 0.949 . S
H1144 C1150 0.950 . S
H1145 C1151 0.950 . S
H1146 C1152 0.949 . S
C1147 H1142 0.950 . S
C1147 C1149 1.327 . S
C1147 C1153 1.429 . S
C1148 C1140 1.574 . S
C1148 H1143 0.949 . S
C1148 C1154 1.368 . S
C1149 C1133 1.349 . S
C1149 H1141 0.950 . S
C1149 C1147 1.327 . S
C1150 C1138 1.349 . S
C1150 H1144 0.950 . S
C1150 C1151 1.327 . S
C1151 H1145 0.950 . S
C1151 C1150 1.327 . S
C1151 C1155 1.429 . S
C1152 C1135 1.574 . S
C1152 H1146 0.949 . S
C1152 C1156 1.368 . S
C1153 C1134 1.429 . S
C1153 C1147 1.429 . S
C1153 C1154 1.523 . S
C1154 C1135 1.368 . S
C1154 C1148 1.368 . S
C1154 C1153 1.523 . S
C1155 C1139 1.429 . S
C1155 C1151 1.429 . S
C1155 C1156 1.523 . S
C1156 C1140 1.368 . S
C1156 C1152 1.368 . S
C1156 C1155 1.523 . S
H1157 C1132 0.950 . S
H1158 C1134 0.950 . S
H1159 C1135 0.949 . S
H1160 C1137 0.950 . S
H1161 C1139 0.950 . S
C1162 C1163 1.349 . S
C1162 C1164 1.327 . S
C1162 H1187 0.950 . S
C1163 C1162 1.349 . S
C1163 C1179 1.349 . S
C1164 C1162 1.327 . S
C1164 C1183 1.429 . S
C1164 H1188 0.950 . S
C1165 C1182 1.574 . S
C1165 C1184 1.368 . S
C1165 H1189 0.949 . S
H1166 C1170 0.949 . S
C1167 C1168 1.349 . S
C1167 C1169 1.327 . S
C1167 H1190 0.950 . S
C1168 C1167 1.349 . S
C1168 C1180 1.349 . S
C1169 C1167 1.327 . S
C1169 C1185 1.429 . S
C1169 H1191 0.950 . S
C1170 H1166 0.949 . S
C1170 C1178 1.574 . S
C1170 C1186 1.368 . S
H1171 C1179 0.950 . S
H1172 C1177 0.950 . S
H1173 C1178 0.949 . S
H1174 C1180 0.950 . S
H1175 C1181 0.950 . S
H1176 C1182 0.949 . S
C1177 H1172 0.950 . S
C1177 C1179 1.327 . S
C1177 C1183 1.429 . S
C1178 C1170 1.574 . S
C1178 H1173 0.949 . S
C1178 C1184 1.368 . S
C1179 C1163 1.349 . S
C1179 H1171 0.950 . S
C1179 C1177 1.327 . S
C1180 C1168 1.349 . S
C1180 H1174 0.950 . S
C1180 C1181 1.327 . S
C1181 H1175 0.950 . S
C1181 C1180 1.327 . S
C1181 C1185 1.429 . S
C1182 C1165 1.574 . S
C1182 H1176 0.949 . S
C1182 C1186 1.368 . S
C1183 C1164 1.429 . S
C1183 C1177 1.429 . S
C1183 C1184 1.523 . S
C1184 C1165 1.368 . S
C1184 C1178 1.368 . S
C1184 C1183 1.523 . S
C1185 C1169 1.429 . S
C1185 C1181 1.429 . S
C1185 C1186 1.523 . S
C1186 C1170 1.368 . S
C1186 C1182 1.368 . S
C1186 C1185 1.523 . S
H1187 C1162 0.950 . S
H1188 C1164 0.950 . S
H1189 C1165 0.949 . S
H1190 C1167 0.950 . S
H1191 C1169 0.950 . S
C473 C255 1.930 . S
C478 C321 2.045 . S
C508 C361 2.053 . S
C503 C294 1.917 . S
C538 C401 2.046 . S
C533 C177 1.932 . S
C568 C441 2.052 1_455 S
C563 C216 1.941 1_455 S
C598 C330 2.048 1_565 S
C593 C99 1.934 . S
C623 C138 1.914 . S
C628 C370 2.048 . S
C653 C21 1.934 . S
C658 C410 2.048 . S
C683 C60 1.937 . S
C688 C450 2.047 1_655 S
C718 C327 0.275 . S
C713 C196 0.264 . S
C748 C367 0.278 . S
C743 C235 0.275 . S
C778 C407 0.274 . S
C773 C289 0.269 . S
C803 C157 0.274 . S
C808 C447 0.279 . S
C833 C40 0.261 . S
C838 C318 0.271 . S
C868 C358 0.278 . S
C863 C79 0.259 . S
C898 C398 0.274 . S
C893 C133 0.260 . S
C923 C1 0.259 . S
C928 C438 0.279 . S
C953 C211 2.532 . S
C958 C331 2.832 . S
C983 C250 2.523 . S
C988 C371 2.824 . S
C1018 C411 2.830 . S
C1013 C274 2.536 . S
C1048 C451 2.824 . S
C1043 C172 2.523 . S
C1073 C55 2.530 1_655 S
C1078 C322 2.830 . S
C1108 C362 2.825 . S
C1103 C94 2.525 . S
C1138 C402 2.829 . S
C1133 C118 2.536 . S
C1163 C16 2.523 . S
C1168 C442 2.823 . S
