# Generated by pormake.
# Topology cml, (3,6)-cn, num edge types: 1
# Building blocks:
#     Node 0, Type 0, BuildingBlock: INOVEN_clean_linker_0, # of connection points: 3
#     Node 1, Type 0, BuildingBlock: INOVEN_clean_linker_0, # of connection points: 3
#     Node 2, Type 0, BuildingBlock: INOVEN_clean_linker_0, # of connection points: 3
#     Node 3, Type 0, BuildingBlock: INOVEN_clean_linker_0, # of connection points: 3
#     Node 4, Type 0, BuildingBlock: INOVEN_clean_linker_0, # of connection points: 3
#     Node 5, Type 0, BuildingBlock: INOVEN_clean_linker_0, # of connection points: 3
#     Node 6, Type 0, BuildingBlock: INOVEN_clean_linker_0, # of connection points: 3
#     Node 7, Type 0, BuildingBlock: INOVEN_clean_linker_0, # of connection points: 3
#     Node 8, Type 1, BuildingBlock: IZENUY_clean_sbu_0, # of connection points: 6
#     Node 9, Type 1, BuildingBlock: IZENUY_clean_sbu_0, # of connection points: 6
#     Node 10, Type 1, BuildingBlock: IZENUY_clean_sbu_0, # of connection points: 6
#     Node 11, Type 1, BuildingBlock: IZENUY_clean_sbu_0, # of connection points: 6
#     Edge 12, Type (0, 1), BuildingBlock: KIFKEQ_clean_linker_1, # of connection points: 2
#     Edge 13, Type (0, 1), BuildingBlock: KIFKEQ_clean_linker_1, # of connection points: 2
#     Edge 14, Type (0, 1), BuildingBlock: KIFKEQ_clean_linker_1, # of connection points: 2
#     Edge 15, Type (0, 1), BuildingBlock: KIFKEQ_clean_linker_1, # of connection points: 2
#     Edge 16, Type (0, 1), BuildingBlock: KIFKEQ_clean_linker_1, # of connection points: 2
#     Edge 17, Type (0, 1), BuildingBlock: KIFKEQ_clean_linker_1, # of connection points: 2
#     Edge 18, Type (0, 1), BuildingBlock: KIFKEQ_clean_linker_1, # of connection points: 2
#     Edge 19, Type (0, 1), BuildingBlock: KIFKEQ_clean_linker_1, # of connection points: 2
#     Edge 20, Type (0, 1), BuildingBlock: KIFKEQ_clean_linker_1, # of connection points: 2
#     Edge 21, Type (0, 1), BuildingBlock: KIFKEQ_clean_linker_1, # of connection points: 2
#     Edge 22, Type (0, 1), BuildingBlock: KIFKEQ_clean_linker_1, # of connection points: 2
#     Edge 23, Type (0, 1), BuildingBlock: KIFKEQ_clean_linker_1, # of connection points: 2
#     Edge 24, Type (0, 1), BuildingBlock: KIFKEQ_clean_linker_1, # of connection points: 2
#     Edge 25, Type (0, 1), BuildingBlock: KIFKEQ_clean_linker_1, # of connection points: 2
#     Edge 26, Type (0, 1), BuildingBlock: KIFKEQ_clean_linker_1, # of connection points: 2
#     Edge 27, Type (0, 1), BuildingBlock: KIFKEQ_clean_linker_1, # of connection points: 2
#     Edge 28, Type (0, 1), BuildingBlock: KIFKEQ_clean_linker_1, # of connection points: 2
#     Edge 29, Type (0, 1), BuildingBlock: KIFKEQ_clean_linker_1, # of connection points: 2
#     Edge 30, Type (0, 1), BuildingBlock: KIFKEQ_clean_linker_1, # of connection points: 2
#     Edge 31, Type (0, 1), BuildingBlock: KIFKEQ_clean_linker_1, # of connection points: 2
#     Edge 32, Type (0, 1), BuildingBlock: KIFKEQ_clean_linker_1, # of connection points: 2
#     Edge 33, Type (0, 1), BuildingBlock: KIFKEQ_clean_linker_1, # of connection points: 2
#     Edge 34, Type (0, 1), BuildingBlock: KIFKEQ_clean_linker_1, # of connection points: 2
#     Edge 35, Type (0, 1), BuildingBlock: KIFKEQ_clean_linker_1, # of connection points: 2
# Relax obj value: 0.004
# Max RMSD: 0.064
# Mean RMSD: 0.050
data_MOF--net-cml--node1-IZENUY_clean_sbu_0--node2-INOVEN_clean_linker_0--edge1-KIFKEQ_clean_linker_1
_symmetry_space_group_name_H-M    P1
_symmetry_Int_Tables_number       1
_symmetry_cell_setting            triclinic
loop_
_symmetry_equiv_pos_as_xyz
'x, y, z'
_cell_length_a     37.692228
_cell_length_b     41.448649
_cell_length_c     37.012837
_cell_angle_alpha  89.191006
_cell_angle_beta   90.609706
_cell_angle_gamma 91.180485
loop_
_atom_site_label
_atom_site_type_symbol
_atom_site_fract_x
_atom_site_fract_y
_atom_site_fract_z
_atom_type_partial_charge
H0 H 0.29764 0.34147 0.0542 0.0
H1 H 0.35354 0.43266 0.04204 0.0
H2 H 0.27953 0.40161 0.96024 0.0
N3 N 0.25972 0.34567 0.99426 0.0
N4 N 0.23907 0.35123 0.96847 0.0
C5 C 0.30287 0.36369 0.03922 0.0
C6 C 0.32799 0.38632 0.05224 0.0
C7 C 0.28485 0.3692 0.00644 0.0
C8 C 0.29251 0.39745 0.9861 0.0
C9 C 0.31726 0.42034 0.99904 0.0
C10 C 0.3344 0.41486 0.03224 0.0
H11 H 0.73778 0.67507 0.5622 0.0
H12 H 0.67215 0.5898 0.55336 0.0
H13 H 0.73393 0.62309 0.4623 0.0
N14 N 0.76505 0.67398 0.49754 0.0
N15 N 0.77605 0.67392 0.46585 0.0
C16 C 0.72762 0.65501 0.54641 0.0
C17 C 0.70331 0.63293 0.56174 0.0
C18 C 0.73935 0.65133 0.51093 0.0
C19 C 0.72567 0.62552 0.49004 0.0
C20 C 0.70078 0.60326 0.50496 0.0
C21 C 0.69065 0.60695 0.54113 0.0
H22 H 0.74251 0.35802 0.05096 0.0
H23 H 0.66344 0.43023 0.03545 0.0
H24 H 0.72705 0.40171 0.94593 0.0
N25 N 0.76433 0.35652 0.98461 0.0
N26 N 0.77607 0.3574 0.9532 0.0
C27 C 0.7287 0.37504 0.03365 0.0
C28 C 0.70198 0.39405 0.04788 0.0
C29 C 0.73803 0.37763 0.99716 0.0
C30 C 0.72039 0.39984 0.97429 0.0
C31 C 0.6931 0.41877 0.98806 0.0
C32 C 0.68448 0.41579 0.02483 0.0
H33 H 0.2981 0.61088 0.44224 0.0
H34 H 0.36879 0.58997 0.53135 0.0
H35 H 0.28912 0.66141 0.54244 0.0
N36 N 0.26298 0.6562 0.47406 0.0
N37 N 0.25083 0.68036 0.48887 0.0
C38 C 0.30676 0.61457 0.46992 0.0
C39 C 0.33555 0.59747 0.48416 0.0
C40 C 0.29005 0.63773 0.49058 0.0
C41 C 0.3016 0.64329 0.52631 0.0
C42 C 0.33023 0.62625 0.54083 0.0
C43 C 0.34689 0.60334 0.51977 0.0
H44 H 0.79659 0.84201 0.05362 0.0
H45 H 0.85202 0.93349 0.04248 0.0
H46 H 0.77886 0.90238 0.95984 0.0
N47 N 0.75915 0.84622 0.9937 0.0
N48 N 0.73873 0.85143 0.96764 0.0
C49 C 0.8018 0.86433 0.03883 0.0
C50 C 0.82662 0.88701 0.05219 0.0
C51 C 0.78404 0.86987 0.00597 0.0
C52 C 0.79168 0.89822 0.98578 0.0
C53 C 0.8162 0.92119 0.99904 0.0
C54 C 0.83306 0.91566 0.0324 0.0
H55 H 0.2309 0.17551 0.55716 0.0
H56 H 0.16833 0.08853 0.54457 0.0
H57 H 0.24753 0.11457 0.46594 0.0
N58 N 0.26845 0.1705 0.49824 0.0
N59 N 0.28192 0.1694 0.46763 0.0
C60 C 0.22442 0.15373 0.54241 0.0
C61 C 0.19742 0.13265 0.55479 0.0
C62 C 0.24227 0.14766 0.51023 0.0
C63 C 0.23355 0.11955 0.49058 0.0
C64 C 0.20711 0.0977 0.50308 0.0
C65 C 0.18924 0.10473 0.53507 0.0
H66 H 0.23893 0.85768 0.05072 0.0
H67 H 0.16686 0.93552 0.03411 0.0
H68 H 0.23592 0.90847 0.94826 0.0
N69 N 0.26727 0.85944 0.98624 0.0
N70 N 0.27444 0.85605 0.95368 0.0
C71 C 0.22834 0.87668 0.0336 0.0
C72 C 0.20122 0.89599 0.0464 0.0
C73 C 0.24067 0.88058 0.99813 0.0
C74 C 0.22636 0.90496 0.97556 0.0
C75 C 0.20033 0.92548 0.98889 0.0
C76 C 0.1877 0.92045 0.02408 0.0
H77 H 0.79875 0.11106 0.44255 0.0
H78 H 0.86693 0.08819 0.53303 0.0
H79 H 0.78553 0.15802 0.54435 0.0
N80 N 0.76175 0.15465 0.47496 0.0
N81 N 0.74184 0.17203 0.49256 0.0
C82 C 0.8064 0.11389 0.47065 0.0
C83 C 0.83482 0.09651 0.48522 0.0
C84 C 0.78835 0.13584 0.49177 0.0
C85 C 0.79865 0.14041 0.52806 0.0
C86 C 0.82744 0.12361 0.54266 0.0
C87 C 0.84506 0.1015 0.52132 0.0
Fe88 Fe 0.01978 0.83457 0.32059 0.0
Fe89 Fe 0.0209 0.87213 0.39152 0.0
O90 O 0.02149 0.87177 0.34368 0.0
Fe91 Fe 0.02377 0.90857 0.31889 0.0
O92 O 0.99736 0.89368 0.2807 0.0
O93 O 0.97887 0.84511 0.29716 0.0
O94 O 0.99227 0.81332 0.3544 0.0
C95 C 0.97178 0.82388 0.37821 0.0
C96 C 0.06844 0.87257 0.27907 0.0
O97 O 0.97808 0.85089 0.39259 0.0
C98 C 0.06986 0.92063 0.37864 0.0
O99 O 0.06057 0.82168 0.34235 0.0
O100 O 0.045 0.83452 0.39729 0.0
O101 O 0.06506 0.89755 0.29775 0.0
O102 O 0.04686 0.84892 0.28248 0.0
C103 C 0.97754 0.92465 0.37162 0.0
O104 O 0.06365 0.89364 0.39391 0.0
O105 O 0.0505 0.93022 0.35267 0.0
C106 C 0.06521 0.82 0.37613 0.0
O107 O 0.99674 0.90974 0.39428 0.0
O108 O 0.98265 0.92221 0.33815 0.0
C109 C 0.97547 0.87026 0.2779 0.0
Fe110 Fe 1.00284 0.14815 0.89148 0.0
Fe111 Fe 0.99959 0.11056 0.82037 0.0
O112 O 1.00263 0.14769 0.84349 0.0
Fe113 Fe 0.00536 0.18439 0.81836 0.0
O114 O 0.03315 0.20574 0.85158 0.0
O115 O 0.04554 0.16912 0.89303 0.0
O116 O 0.02724 0.11024 0.89676 0.0
C117 C 0.04594 0.09467 0.87491 0.0
C118 C 0.95939 0.20108 0.8715 0.0
O119 O 0.0403 0.09657 0.84129 0.0
C120 C 0.95558 0.14688 0.77817 0.0
O121 O 0.9602 0.12708 0.89388 0.0
O122 O 0.97221 0.08982 0.85442 0.0
O123 O 0.96487 0.19855 0.83811 0.0
O124 O 0.97844 0.1862 0.89453 0.0
C125 C 0.04866 0.14747 0.77817 0.0
O126 O 0.9586 0.12199 0.79787 0.0
O127 O 0.97802 0.16992 0.78044 0.0
C128 C 0.95306 0.10037 0.8793 0.0
O129 O 0.02641 0.12437 0.78187 0.0
O130 O 0.04609 0.17267 0.79662 0.0
C131 C 0.0527 0.19546 0.87705 0.0
Fe132 Fe 0.52116 0.33528 0.32133 0.0
Fe133 Fe 0.52128 0.37238 0.39271 0.0
O134 O 0.52269 0.37235 0.34485 0.0
Fe135 Fe 0.52551 0.40931 0.32028 0.0
O136 O 0.49951 0.39468 0.28155 0.0
O137 O 0.48055 0.34615 0.29757 0.0
O138 O 0.49337 0.31365 0.35453 0.0
C139 C 0.47292 0.32369 0.37863 0.0
C140 C 0.57064 0.3734 0.28106 0.0
O141 O 0.47874 0.3507 0.3931 0.0
C142 C 0.57043 0.42108 0.38103 0.0
O143 O 0.5615 0.32198 0.34344 0.0
O144 O 0.54606 0.33511 0.39847 0.0
O145 O 0.56702 0.39821 0.2999 0.0
O146 O 0.54879 0.34988 0.28365 0.0
C147 C 0.47813 0.42499 0.37228 0.0
O148 O 0.56352 0.39427 0.39631 0.0
O149 O 0.55199 0.43082 0.35445 0.0
C150 C 0.56616 0.3205 0.37724 0.0
O151 O 0.49656 0.40968 0.39527 0.0
O152 O 0.48419 0.42306 0.33894 0.0
C153 C 0.47759 0.37132 0.27827 0.0
Fe154 Fe 0.50196 0.64763 0.89193 0.0
Fe155 Fe 0.49988 0.61087 0.82023 0.0
O156 O 0.50262 0.64772 0.84394 0.0
Fe157 Fe 0.50613 0.6847 0.81935 0.0
O158 O 0.53313 0.70554 0.85338 0.0
O159 O 0.54475 0.66852 0.8946 0.0
O160 O 0.52609 0.60956 0.89721 0.0
C161 C 0.54488 0.59389 0.87553 0.0
C162 C 0.45913 0.70102 0.87171 0.0
O163 O 0.54004 0.59636 0.84183 0.0
C164 C 0.45713 0.64788 0.77748 0.0
O165 O 0.45926 0.62665 0.89328 0.0
O166 O 0.47159 0.58988 0.85336 0.0
O167 O 0.46538 0.69903 0.83839 0.0
O168 O 0.47743 0.68559 0.89494 0.0
C169 C 0.55049 0.64777 0.78022 0.0
O170 O 0.45949 0.6228 0.79696 0.0
O171 O 0.47966 0.67076 0.78058 0.0
C172 C 0.45228 0.60012 0.87829 0.0
O173 O 0.52778 0.62492 0.78259 0.0
O174 O 0.5473 0.67293 0.7986 0.0
C175 C 0.55235 0.69489 0.87886 0.0
H176 H 0.18669 0.36234 0.92236 0.0
H177 H 0.23525 0.28715 0.98616 0.0
H178 H 0.14205 0.32373 0.90024 0.0
H179 H 0.19183 0.24793 0.96295 0.0
H180 H 0.08566 0.19417 0.94343 0.0
H181 H 0.1316 0.2313 0.96584 0.0
H182 H 0.13369 0.27993 0.8617 0.0
H183 H 0.08677 0.24382 0.84006 0.0
C184 C 0.18782 0.33739 0.93132 0.0
C185 C 0.21406 0.32778 0.95592 0.0
C186 C 0.16252 0.31515 0.9185 0.0
C187 C 0.16332 0.28253 0.92962 0.0
C188 C 0.18998 0.27288 0.95419 0.0
C189 C 0.21502 0.29529 0.96736 0.0
C190 C 0.09609 0.21274 0.92535 0.0
C191 C 0.08235 0.21629 0.89012 0.0
C192 C 0.12258 0.23396 0.93811 0.0
C193 C 0.13626 0.25891 0.91574 0.0
C194 C 0.12323 0.26162 0.88008 0.0
C195 C 0.09645 0.24076 0.86754 0.0
H196 H 0.79972 0.68015 0.39876 0.0
H197 H 0.81208 0.71913 0.50564 0.0
H198 H 0.84557 0.71789 0.37648 0.0
H199 H 0.85852 0.75612 0.48398 0.0
H200 H 0.91972 0.8381 0.42679 0.0
H201 H 0.87083 0.80309 0.44738 0.0
H202 H 0.908 0.72676 0.38 0.0
H203 H 0.95595 0.76185 0.35876 0.0
C204 C 0.81236 0.69681 0.4174 0.0
C205 C 0.80235 0.69666 0.45371 0.0
C206 C 0.83876 0.7183 0.40481 0.0
C207 C 0.85599 0.74008 0.42843 0.0
C208 C 0.8456 0.74009 0.46485 0.0
C209 C 0.81908 0.71869 0.47736 0.0
C210 C 0.91739 0.81386 0.41634 0.0
C211 C 0.94188 0.80287 0.39112 0.0
C212 C 0.88943 0.79369 0.42828 0.0
C213 C 0.8853 0.762 0.41536 0.0
C214 C 0.90982 0.75113 0.39012 0.0
C215 C 0.9376 0.77127 0.37811 0.0
H216 H 0.81042 0.35904 0.89072 0.0
H217 H 0.80002 0.30492 0.99052 0.0
H218 H 0.85547 0.32164 0.87065 0.0
H219 H 0.84374 0.26699 0.97033 0.0
H220 H 0.90829 0.23085 0.8307 0.0
H221 H 0.86377 0.26828 0.85049 0.0
H222 H 0.90493 0.26123 0.95969 0.0
H223 H 0.94866 0.22291 0.94007 0.0
C224 C 0.81773 0.33903 0.90819 0.0
C225 C 0.80194 0.33508 0.94208 0.0
C226 C 0.84332 0.31744 0.89671 0.0
C227 C 0.85345 0.29118 0.91886 0.0
C228 C 0.83726 0.28718 0.95277 0.0
C229 C 0.81194 0.30888 0.9643 0.0
C230 C 0.90784 0.23725 0.85897 0.0
C231 C 0.93212 0.2238 0.88378 0.0
C232 C 0.88239 0.25894 0.8703 0.0
C233 C 0.88064 0.26799 0.90673 0.0
C234 C 0.90499 0.25452 0.93153 0.0
C235 C 0.93027 0.23262 0.92024 0.0
H236 H 0.21601 0.66875 0.42533 0.0
H237 H 0.22623 0.73464 0.51416 0.0
H238 H 0.17086 0.70263 0.39744 0.0
H239 H 0.18177 0.76929 0.4859 0.0
H240 H 0.07445 0.80336 0.44697 0.0
H241 H 0.1192 0.76886 0.47346 0.0
H242 H 0.16357 0.75472 0.3678 0.0
H243 H 0.1179 0.78876 0.34091 0.0
C244 C 0.20864 0.6906 0.43879 0.0
C245 C 0.22435 0.69928 0.472 0.0
C246 C 0.18299 0.71012 0.4227 0.0
C247 C 0.17272 0.73865 0.43944 0.0
C248 C 0.18868 0.74722 0.47257 0.0
C249 C 0.21415 0.7276 0.4887 0.0
C250 C 0.09369 0.79293 0.42927 0.0
C251 C 0.0926 0.79882 0.39178 0.0
C252 C 0.11952 0.77327 0.44455 0.0
C253 C 0.14508 0.75919 0.42279 0.0
C254 C 0.14398 0.76495 0.38524 0.0
C255 C 0.11794 0.78454 0.36986 0.0
H256 H 0.73463 0.78781 0.98726 0.0
H257 H 0.68697 0.86146 0.92045 0.0
H258 H 0.69127 0.7481 0.96498 0.0
H259 H 0.64245 0.82235 0.89915 0.0
H260 H 0.58819 0.74118 0.84078 0.0
H261 H 0.63521 0.77733 0.86191 0.0
H262 H 0.63051 0.73198 0.96775 0.0
H263 H 0.58427 0.69472 0.94588 0.0
C264 C 0.71464 0.79551 0.96796 0.0
C265 C 0.71391 0.8277 0.95541 0.0
C266 C 0.68964 0.77282 0.95533 0.0
C267 C 0.66329 0.7819 0.93018 0.0
C268 C 0.66272 0.81423 0.91792 0.0
C269 C 0.68795 0.83674 0.93023 0.0
C270 C 0.5973 0.73883 0.86854 0.0
C271 C 0.58233 0.71532 0.89178 0.0
C272 C 0.62414 0.75973 0.88076 0.0
C273 C 0.63638 0.75801 0.91674 0.0
C274 C 0.62199 0.73388 0.93979 0.0
C275 C 0.59539 0.71259 0.92735 0.0
H276 H 0.31487 0.21678 0.50702 0.0
H277 H 0.30807 0.17401 0.40165 0.0
H278 H 0.36056 0.25475 0.48541 0.0
H279 H 0.35285 0.21265 0.37932 0.0
H280 H 0.46051 0.26058 0.36156 0.0
H281 H 0.41424 0.22418 0.38375 0.0
H282 H 0.37222 0.30088 0.44748 0.0
H283 H 0.41958 0.33724 0.42604 0.0
C284 C 0.32299 0.21569 0.4791 0.0
C285 C 0.30808 0.19237 0.45584 0.0
C286 C 0.34903 0.23763 0.4666 0.0
C287 C 0.36063 0.23685 0.43057 0.0
C288 C 0.34519 0.21369 0.40738 0.0
C289 C 0.31939 0.19166 0.41999 0.0
C290 C 0.44143 0.26981 0.38027 0.0
C291 C 0.44388 0.30194 0.39199 0.0
C292 C 0.41463 0.2489 0.39287 0.0
C293 C 0.38919 0.25949 0.41733 0.0
C294 C 0.39154 0.29168 0.42902 0.0
C295 C 0.41861 0.31263 0.41656 0.0
H296 H 0.28386 0.83539 0.88697 0.0
H297 H 0.32557 0.82822 0.99556 0.0
H298 H 0.32764 0.79705 0.86677 0.0
H299 H 0.37058 0.79136 0.9755 0.0
H300 H 0.42604 0.7021 0.93717 0.0
H301 H 0.381 0.73912 0.95689 0.0
H302 H 0.38693 0.78951 0.85393 0.0
H303 H 0.43049 0.75145 0.83377 0.0
C304 C 0.30274 0.82577 0.90636 0.0
C305 C 0.30116 0.83457 0.94266 0.0
C306 C 0.32804 0.80396 0.89486 0.0
C307 C 0.35291 0.79084 0.91942 0.0
C308 C 0.35155 0.80022 0.95583 0.0
C309 C 0.32586 0.82162 0.96737 0.0
C310 C 0.41764 0.72108 0.91876 0.0
C311 C 0.43187 0.72375 0.88389 0.0
C312 C 0.39191 0.74254 0.93014 0.0
C313 C 0.38011 0.76761 0.90715 0.0
C314 C 0.39462 0.77028 0.87229 0.0
C315 C 0.4199 0.74851 0.86074 0.0
H316 H 0.68857 0.20071 0.52422 0.0
H317 H 0.73914 0.18894 0.42144 0.0
H318 H 0.64519 0.23628 0.49568 0.0
H319 H 0.6973 0.22561 0.39304 0.0
H320 H 0.59611 0.26827 0.34618 0.0
H321 H 0.63802 0.23113 0.37396 0.0
H322 H 0.64015 0.28838 0.47082 0.0
H323 H 0.59706 0.32441 0.44363 0.0
C324 C 0.69029 0.20592 0.49552 0.0
C325 C 0.71673 0.19203 0.47504 0.0
C326 C 0.66579 0.22646 0.47917 0.0
C327 C 0.66777 0.23396 0.442 0.0
C328 C 0.6945 0.21996 0.42153 0.0
C329 C 0.71861 0.19905 0.43782 0.0
C330 C 0.60568 0.27289 0.37335 0.0
C331 C 0.5932 0.29907 0.39284 0.0
C332 C 0.62981 0.2517 0.38927 0.0
C333 C 0.64237 0.25659 0.42478 0.0
C334 C 0.63043 0.28333 0.44381 0.0
C335 C 0.60593 0.30417 0.42813 0.0
H336 H 0.34781 0.42117 0.9331 0.0
H337 H 0.31146 0.48356 0.01654 0.0
H338 H 0.37512 0.46725 0.90193 0.0
H339 H 0.33661 0.53038 0.98439 0.0
H340 H 0.42992 0.59572 0.94808 0.0
H341 H 0.39145 0.5542 0.97458 0.0
H342 H 0.37231 0.51433 0.86852 0.0
H343 H 0.41279 0.55476 0.84265 0.0
C344 C 0.34472 0.44505 0.94405 0.0
C345 C 0.32767 0.44897 0.97709 0.0
C346 C 0.36024 0.47161 0.92616 0.0
C347 C 0.35848 0.50283 0.94064 0.0
C348 C 0.33941 0.50677 0.97277 0.0
C349 C 0.32459 0.48006 0.99103 0.0
C350 C 0.41706 0.57832 0.93044 0.0
C351 C 0.4246 0.57824 0.8934 0.0
C352 C 0.39474 0.5545 0.94557 0.0
C353 C 0.3788 0.53044 0.92386 0.0
C354 C 0.38477 0.53176 0.88636 0.0
C355 C 0.40774 0.55512 0.87141 0.0
H356 H 0.73159 0.56564 0.45303 0.0
H357 H 0.63226 0.58003 0.5074 0.0
H358 H 0.70458 0.51938 0.42139 0.0
H359 H 0.60663 0.53305 0.47767 0.0
H360 H 0.59057 0.42511 0.45211 0.0
H361 H 0.62557 0.46856 0.48035 0.0
H362 H 0.64385 0.51245 0.3757 0.0
H363 H 0.60809 0.46949 0.34736 0.0
C364 C 0.70413 0.55914 0.45823 0.0
C365 C 0.68444 0.57637 0.48343 0.0
C366 C 0.68884 0.53251 0.44033 0.0
C367 C 0.65384 0.52234 0.44779 0.0
C368 C 0.63395 0.53995 0.47213 0.0
C369 C 0.64883 0.56681 0.4893 0.0
C370 C 0.60265 0.44363 0.43504 0.0
C371 C 0.59641 0.44399 0.39754 0.0
C372 C 0.62253 0.46852 0.45121 0.0
C373 C 0.63727 0.4938 0.43014 0.0
C374 C 0.63291 0.49314 0.39247 0.0
C375 C 0.61236 0.46864 0.37635 0.0
H376 H 0.62143 0.42491 0.98521 0.0
H377 H 0.71797 0.46413 0.93884 0.0
H378 H 0.5877 0.46765 0.95615 0.0
H379 H 0.68374 0.507 0.90896 0.0
H380 H 0.5952 0.56057 0.83885 0.0
H381 H 0.63253 0.51711 0.86224 0.0
H382 H 0.58744 0.52784 0.96797 0.0
H383 H 0.55041 0.57113 0.94495 0.0
C384 C 0.63542 0.44256 0.96851 0.0
C385 C 0.67249 0.44149 0.96488 0.0
C386 C 0.61608 0.46708 0.95193 0.0
C387 C 0.63318 0.49105 0.93092 0.0
C388 C 0.66991 0.48888 0.92516 0.0
C389 C 0.68945 0.46431 0.9421 0.0
C390 C 0.59344 0.5538 0.86716 0.0
C391 C 0.56958 0.56924 0.88997 0.0
C392 C 0.61492 0.529 0.88052 0.0
C393 C 0.6126 0.51884 0.9168 0.0
C394 C 0.58943 0.53482 0.93973 0.0
C395 C 0.56835 0.5598 0.92656 0.0
H396 H 0.40699 0.59016 0.48012 0.0
H397 H 0.3075 0.55234 0.43761 0.0
H398 H 0.43856 0.54796 0.44958 0.0
H399 H 0.33968 0.51047 0.40598 0.0
H400 H 0.43195 0.46266 0.33277 0.0
H401 H 0.39477 0.50571 0.35581 0.0
H402 H 0.43102 0.48433 0.4643 0.0
H403 H 0.46745 0.44154 0.442 0.0
C404 C 0.39186 0.57292 0.46414 0.0
C405 C 0.35468 0.57411 0.46195 0.0
C406 C 0.40998 0.54898 0.44648 0.0
C407 C 0.39138 0.52596 0.42587 0.0
C408 C 0.35446 0.52812 0.42173 0.0
C409 C 0.33617 0.55201 0.43979 0.0
C410 C 0.43164 0.46697 0.36156 0.0
C411 C 0.45296 0.44891 0.38548 0.0
C412 C 0.41036 0.49146 0.37464 0.0
C413 C 0.41059 0.49838 0.41165 0.0
C414 C 0.43085 0.47962 0.43557 0.0
C415 C 0.45162 0.45506 0.4227 0.0
H416 H 0.81148 0.98434 0.0174 0.0
H417 H 0.84608 0.92237 0.93274 0.0
H418 H 0.83726 0.03115 0.98576 0.0
H419 H 0.87393 0.96841 0.90202 0.0
H420 H 0.91244 0.05602 0.84359 0.0
H421 H 0.87153 0.01591 0.86933 0.0
H422 H 0.89249 0.05432 0.97576 0.0
H423 H 0.93146 0.09559 0.94939 0.0
C424 C 0.82433 0.98093 0.99172 0.0
C425 C 0.82675 0.94994 0.97732 0.0
C426 C 0.83951 1.00763 0.97375 0.0
C427 C 0.85826 1.00378 0.94141 0.0
C428 C 0.85932 0.97271 0.92644 0.0
C429 C 0.84346 0.94616 0.94406 0.0
C430 C 0.90771 0.05612 0.87242 0.0
C431 C 0.92523 0.07876 0.89454 0.0
C432 C 0.88449 0.03295 0.8873 0.0
C433 C 0.87891 0.03129 0.92484 0.0
C434 C 0.89551 0.05489 0.94672 0.0
C435 C 0.91809 0.07856 0.93166 0.0
H436 H 0.20081 0.09075 0.42942 0.0
H437 H 0.18906 0.03759 0.52995 0.0
H438 H 0.17522 0.0451 0.39687 0.0
H439 H 0.16092 0.99315 0.49796 0.0
H440 H 0.12053 0.90988 0.43167 0.0
H441 H 0.16133 0.9496 0.45865 0.0
H442 H 0.11855 0.0236 0.38816 0.0
H443 H 0.07954 0.98404 0.36043 0.0
C444 C 0.19317 0.06923 0.4446 0.0
C445 C 0.1964 0.06825 0.48246 0.0
C446 C 0.17791 0.04313 0.42596 0.0
C447 C 0.16506 0.0155 0.44472 0.0
C448 C 0.17042 0.01378 0.48235 0.0
C449 C 0.18612 0.03964 0.50087 0.0
C450 C 0.12024 0.93458 0.42172 0.0
C451 C 0.09657 0.94369 0.39399 0.0
C452 C 0.14352 0.95746 0.4373 0.0
C453 C 0.14339 0.99007 0.42579 0.0
C454 C 0.12022 0.99879 0.39743 0.0
C455 C 0.09741 0.97597 0.38166 0.0
H456 H 0.16813 0.92248 0.92222 0.0
H457 H 0.19792 0.98856 0.00675 0.0
H458 H 0.13362 0.96486 0.89229 0.0
H459 H 0.16453 0.03109 0.97668 0.0
H460 H 0.06162 0.08072 0.94563 0.0
H461 H 0.1028 0.04133 0.96953 0.0
H462 H 0.13226 0.01682 0.86098 0.0
H463 H 0.0902 0.05592 0.83687 0.0
C464 C 0.16807 0.94634 0.93379 0.0
C465 C 0.1854 0.95224 0.96688 0.0
C466 C 0.1483 0.97064 0.91673 0.0
C467 C 0.14571 1.00129 0.93241 0.0
C468 C 0.16509 1.00758 0.96431 0.0
C469 C 0.18451 0.98333 0.9814 0.0
C470 C 0.07694 0.0671 0.92676 0.0
C471 C 0.07243 0.07153 0.88929 0.0
C472 C 0.10084 0.04459 0.9405 0.0
C473 C 0.12112 0.02593 0.91722 0.0
C474 C 0.11689 0.03053 0.8797 0.0
C475 C 0.09287 0.05309 0.8659 0.0
H476 H 0.90639 0.08897 0.48288 0.0
H477 H 0.80784 0.05259 0.43677 0.0
H478 H 0.93853 0.04731 0.452 0.0
H479 H 0.84054 0.01126 0.40493 0.0
H480 H 0.93092 0.96246 0.33281 0.0
H481 H 0.89437 1.00571 0.35637 0.0
H482 H 0.93254 0.98461 0.46427 0.0
H483 H 0.96839 0.94167 0.44143 0.0
C484 C 0.8916 0.07216 0.46604 0.0
C485 C 0.85449 0.07361 0.46289 0.0
C486 C 0.91003 0.0485 0.44821 0.0
C487 C 0.89184 0.026 0.42653 0.0
C488 C 0.85505 0.02847 0.4215 0.0
C489 C 0.83644 0.05208 0.43968 0.0
C490 C 0.9312 0.96691 0.36158 0.0
C491 C 0.95286 0.94884 0.38517 0.0
C492 C 0.91029 0.99154 0.37497 0.0
C493 C 0.91122 0.99861 0.41196 0.0
C494 C 0.93188 0.97988 0.43554 0.0
C495 C 0.9523 0.9552 0.42238 0.0
H496 H 0.39873 0.39679 0.06344 0.0
H497 H 0.30412 0.36129 0.11707 0.0
H498 H 0.43218 0.39147 0.11964 0.0
H499 H 0.33815 0.35542 0.17363 0.0
H500 H 0.43039 0.32366 0.25599 0.0
H501 H 0.3922 0.32467 0.20184 0.0
H502 H 0.42836 0.42209 0.17816 0.0
H503 H 0.46612 0.42131 0.23158 0.0
C504 C 0.38503 0.3879 0.08728 0.0
C505 C 0.3486 0.38009 0.08597 0.0
C506 C 0.40424 0.38475 0.11943 0.0
C507 C 0.38759 0.37351 0.15107 0.0
C508 C 0.35157 0.36415 0.14956 0.0
C509 C 0.33217 0.36749 0.11725 0.0
C510 C 0.42989 0.34536 0.23937 0.0
C511 C 0.45172 0.37222 0.24786 0.0
C512 C 0.40799 0.34594 0.20849 0.0
C513 C 0.40784 0.37327 0.18558 0.0
C514 C 0.42852 0.40047 0.19496 0.0
C515 C 0.45008 0.4 0.2257 0.0
H516 H 0.67571 0.68743 0.58992 0.0
H517 H 0.6989 0.58832 0.61642 0.0
H518 H 0.64347 0.69195 0.64651 0.0
H519 H 0.66755 0.59291 0.67336 0.0
H520 H 0.56379 0.59757 0.73601 0.0
H521 H 0.60598 0.59561 0.68727 0.0
H522 H 0.64346 0.69206 0.71225 0.0
H523 H 0.60022 0.69437 0.76097 0.0
C524 C 0.67471 0.6669 0.60835 0.0
C525 C 0.68939 0.63741 0.59864 0.0
C526 C 0.65629 0.66947 0.64081 0.0
C527 C 0.65241 0.64263 0.66426 0.0
C528 C 0.66925 0.61382 0.65553 0.0
C529 C 0.68736 0.6112 0.62302 0.0
C530 C 0.58111 0.61837 0.73139 0.0
C531 C 0.57836 0.64623 0.75231 0.0
C532 C 0.60563 0.61712 0.70354 0.0
C533 C 0.62829 0.64364 0.69584 0.0
C534 C 0.62618 0.67131 0.71725 0.0
C535 C 0.60152 0.67258 0.74527 0.0
H536 H 0.6837 0.44143 0.0947 0.0
H537 H 0.69476 0.33814 0.08801 0.0
H538 H 0.65711 0.4348 0.15387 0.0
H539 H 0.67036 0.33164 0.14836 0.0
H540 H 0.57596 0.33037 0.22636 0.0
H541 H 0.61339 0.33454 0.17361 0.0
H542 H 0.66298 0.4213 0.21589 0.0
H543 H 0.62428 0.41778 0.26829 0.0
C544 C 0.68089 0.4173 0.10606 0.0
C545 C 0.69081 0.39029 0.08623 0.0
C546 C 0.66611 0.41352 0.14034 0.0
C547 C 0.66121 0.38262 0.15592 0.0
C548 C 0.67306 0.35575 0.13696 0.0
C549 C 0.68754 0.35952 0.10248 0.0
C550 C 0.5951 0.35017 0.2247 0.0
C551 C 0.59678 0.37396 0.2514 0.0
C552 C 0.61686 0.35244 0.19445 0.0
C553 C 0.64119 0.37838 0.19023 0.0
C554 C 0.64409 0.40134 0.21785 0.0
C555 C 0.62204 0.39923 0.24802 0.0
H556 H 0.29543 0.62304 0.60531 0.0
H557 H 0.39728 0.64509 0.5578 0.0
H558 H 0.32138 0.63114 0.66593 0.0
H559 H 0.42298 0.65354 0.61779 0.0
H560 H 0.45091 0.69482 0.7256 0.0
H561 H 0.41565 0.69278 0.67024 0.0
H562 H 0.37073 0.60059 0.70343 0.0
H563 H 0.40623 0.60235 0.75918 0.0
C564 C 0.32319 0.63002 0.60793 0.0
C565 C 0.34451 0.63341 0.57718 0.0
C566 C 0.338 0.63448 0.64242 0.0
C567 C 0.37408 0.64306 0.64639 0.0
C568 C 0.395 0.64727 0.61545 0.0
C569 C 0.38041 0.64229 0.58121 0.0
C570 C 0.43321 0.67425 0.72149 0.0
C571 C 0.43187 0.64846 0.74658 0.0
C572 C 0.41305 0.67314 0.68973 0.0
C573 C 0.39082 0.6464 0.68249 0.0
C574 C 0.38763 0.62153 0.7085 0.0
C575 C 0.40809 0.62248 0.74026 0.0
H576 H 0.80225 0.86096 0.11631 0.0
H577 H 0.89712 0.89805 0.06435 0.0
H578 H 0.83579 0.85432 0.17306 0.0
H579 H 0.93 0.89208 0.12083 0.0
H580 H 0.96116 0.92127 0.23375 0.0
H581 H 0.92333 0.92233 0.18043 0.0
H582 H 0.89158 0.82308 0.20026 0.0
H583 H 0.93 0.82171 0.25429 0.0
C584 C 0.83025 0.86737 0.11689 0.0
C585 C 0.84689 0.88062 0.08605 0.0
C586 C 0.84935 0.86357 0.1493 0.0
C587 C 0.88525 0.87317 0.15132 0.0
C588 C 0.90214 0.88512 0.12014 0.0
C589 C 0.88325 0.88868 0.08787 0.0
C590 C 0.94607 0.8996 0.22707 0.0
C591 C 0.9491 0.87121 0.24801 0.0
C592 C 0.92444 0.90026 0.19642 0.0
C593 C 0.90508 0.87264 0.18598 0.0
C594 C 0.90641 0.84465 0.20779 0.0
C595 C 0.9284 0.84389 0.23859 0.0
H596 H 0.12591 0.12691 0.56371 0.0
H597 H 0.22235 0.15449 0.62044 0.0
H598 H 0.09252 0.13214 0.61912 0.0
H599 H 0.18843 0.16031 0.67618 0.0
H600 H 0.09891 0.19338 0.75775 0.0
H601 H 0.1367 0.19277 0.70415 0.0
H602 H 0.09361 0.09883 0.677 0.0
H603 H 0.05625 0.09919 0.72993 0.0
C604 C 0.14 0.13413 0.58804 0.0
C605 C 0.17692 0.13963 0.58783 0.0
C606 C 0.12084 0.13719 0.61975 0.0
C607 C 0.13799 0.1461 0.65207 0.0
C608 C 0.17458 0.15338 0.65162 0.0
C609 C 0.19393 0.15009 0.61974 0.0
C610 C 0.09777 0.1725 0.74049 0.0
C611 C 0.07421 0.14651 0.74798 0.0
C612 C 0.11945 0.17215 0.7099 0.0
C613 C 0.11764 0.14597 0.68617 0.0
C614 C 0.09507 0.1196 0.69443 0.0
C615 C 0.07375 0.1198 0.72495 0.0
H616 H 0.13218 0.88261 0.06031 0.0
H617 H 0.2341 0.89571 0.11282 0.0
H618 H 0.10418 0.87458 0.11905 0.0
H619 H 0.20582 0.88817 0.17214 0.0
H620 H 0.12079 0.91765 0.2629 0.0
H621 H 0.1568 0.92082 0.20813 0.0
H622 H 0.10839 0.83186 0.17115 0.0
H623 H 0.07283 0.8283 0.22558 0.0
C624 C 0.14854 0.88367 0.08454 0.0
C625 C 0.18521 0.88974 0.0822 0.0
C626 C 0.1326 0.87895 0.11807 0.0
C627 C 0.15289 0.8807 0.15005 0.0
C628 C 0.18965 0.88678 0.14783 0.0
C629 C 0.20578 0.8909 0.11405 0.0
C630 C 0.11824 0.89852 0.24335 0.0
C631 C 0.0936 0.87292 0.24849 0.0
C632 C 0.13896 0.90028 0.21213 0.0
C633 C 0.13507 0.87672 0.18537 0.0
C634 C 0.11163 0.85049 0.19124 0.0
C635 C 0.09133 0.84848 0.22251 0.0
H636 H 0.89352 0.14483 0.55971 0.0
H637 H 0.79297 0.118 0.6073 0.0
H638 H 0.91904 0.15354 0.61969 0.0
H639 H 0.81878 0.12637 0.66798 0.0
H640 H 0.90618 0.09989 0.7601 0.0
H641 H 0.8699 0.09756 0.70489 0.0
H642 H 0.9101 0.19174 0.67266 0.0
H643 H 0.94614 0.19433 0.72746 0.0
C644 C 0.87688 0.14103 0.58316 0.0
C645 C 0.84141 0.13074 0.57913 0.0
C646 C 0.89137 0.14617 0.6174 0.0
C647 C 0.8708 0.14072 0.64838 0.0
C648 C 0.83513 0.13068 0.64444 0.0
C649 C 0.82038 0.12607 0.60993 0.0
C650 C 0.90681 0.12033 0.74154 0.0
C651 C 0.92958 0.14703 0.74789 0.0
C652 C 0.88589 0.11904 0.71008 0.0
C653 C 0.8876 0.14432 0.68444 0.0
C654 C 0.90868 0.17177 0.69184 0.0
C655 C 0.9293 0.17319 0.72327 0.0
loop_
_geom_bond_atom_site_label_1
_geom_bond_atom_site_label_2
_geom_bond_distance
_geom_bond_site_symmetry_2
_ccdc_geom_bond_type
H0 C5 0.929 . S
H1 C10 0.931 . S
H2 C8 0.930 . S
N3 N4 1.232 . S
N3 C7 1.454 1_556 S
N4 N3 1.232 . S
C5 H0 0.929 . S
C5 C6 1.373 . S
C5 C7 1.368 . S
C6 C5 1.373 . S
C6 C10 1.397 . S
C7 N3 1.454 1_554 S
C7 C5 1.368 . S
C7 C8 1.373 1_554 S
C8 H2 0.930 . S
C8 C7 1.373 1_556 S
C8 C9 1.371 . S
C9 C8 1.371 . S
C9 C10 1.383 1_556 S
C10 H1 0.931 . S
C10 C6 1.397 . S
C10 C9 1.383 1_554 S
H11 C16 0.929 . S
H12 C21 0.931 . S
H13 C19 0.930 . S
N14 N15 1.234 . S
N14 C18 1.453 . S
N15 N14 1.234 . S
C16 H11 0.929 . S
C16 C17 1.373 . S
C16 C18 1.368 . S
C17 C16 1.373 . S
C17 C21 1.397 . S
C18 N14 1.453 . S
C18 C16 1.368 . S
C18 C19 1.373 . S
C19 H13 0.930 . S
C19 C18 1.373 . S
C19 C20 1.371 . S
C20 C19 1.371 . S
C20 C21 1.383 . S
C21 H12 0.931 . S
C21 C17 1.397 . S
C21 C20 1.383 . S
H22 C27 0.929 . S
H23 C32 0.931 . S
H24 C30 0.930 . S
N25 N26 1.234 1_554 S
N25 C29 1.453 . S
N26 N25 1.234 1_556 S
C27 H22 0.929 . S
C27 C28 1.373 . S
C27 C29 1.368 . S
C28 C27 1.373 . S
C28 C32 1.397 . S
C29 N25 1.453 . S
C29 C27 1.368 . S
C29 C30 1.373 1_554 S
C30 H24 0.930 . S
C30 C29 1.373 1_556 S
C30 C31 1.371 . S
C31 C30 1.371 . S
C31 C32 1.383 1_556 S
C32 H23 0.931 . S
C32 C28 1.397 . S
C32 C31 1.383 1_554 S
H33 C38 0.929 . S
H34 C43 0.931 . S
H35 C41 0.930 . S
N36 N37 1.234 . S
N36 C40 1.453 . S
N37 N36 1.234 . S
C38 H33 0.929 . S
C38 C39 1.373 . S
C38 C40 1.368 . S
C39 C38 1.373 . S
C39 C43 1.397 . S
C40 N36 1.453 . S
C40 C38 1.368 . S
C40 C41 1.373 . S
C41 H35 0.930 . S
C41 C40 1.373 . S
C41 C42 1.371 . S
C42 C41 1.371 . S
C42 C43 1.383 . S
C43 H34 0.931 . S
C43 C39 1.397 . S
C43 C42 1.383 . S
H44 C49 0.929 . S
H45 C54 0.931 . S
H46 C52 0.930 . S
N47 N48 1.232 . S
N47 C51 1.454 1_556 S
N48 N47 1.232 . S
C49 H44 0.929 . S
C49 C50 1.373 . S
C49 C51 1.368 . S
C50 C49 1.373 . S
C50 C54 1.397 . S
C51 N47 1.454 1_554 S
C51 C49 1.368 . S
C51 C52 1.373 1_554 S
C52 H46 0.930 . S
C52 C51 1.373 1_556 S
C52 C53 1.371 . S
C53 C52 1.371 . S
C53 C54 1.383 1_556 S
C54 H45 0.931 . S
C54 C50 1.397 . S
C54 C53 1.383 1_554 S
H55 C60 0.929 . S
H56 C65 0.931 . S
H57 C63 0.930 . S
N58 N59 1.234 . S
N58 C62 1.453 . S
N59 N58 1.234 . S
C60 H55 0.929 . S
C60 C61 1.373 . S
C60 C62 1.368 . S
C61 C60 1.373 . S
C61 C65 1.397 . S
C62 N58 1.453 . S
C62 C60 1.368 . S
C62 C63 1.373 . S
C63 H57 0.930 . S
C63 C62 1.373 . S
C63 C64 1.371 . S
C64 C63 1.371 . S
C64 C65 1.383 . S
C65 H56 0.931 . S
C65 C61 1.397 . S
C65 C64 1.383 . S
H66 C71 0.929 . S
H67 C76 0.931 . S
H68 C74 0.930 . S
N69 N70 1.234 1_554 S
N69 C73 1.453 . S
N70 N69 1.234 1_556 S
C71 H66 0.929 . S
C71 C72 1.373 . S
C71 C73 1.368 . S
C72 C71 1.373 . S
C72 C76 1.397 . S
C73 N69 1.453 . S
C73 C71 1.368 . S
C73 C74 1.373 1_554 S
C74 H68 0.930 . S
C74 C73 1.373 1_556 S
C74 C75 1.371 . S
C75 C74 1.371 . S
C75 C76 1.383 1_556 S
C76 H67 0.931 . S
C76 C72 1.397 . S
C76 C75 1.383 1_554 S
H77 C82 0.929 . S
H78 C87 0.931 . S
H79 C85 0.930 . S
N80 N81 1.234 . S
N80 C84 1.453 . S
N81 N80 1.234 . S
C82 H77 0.929 . S
C82 C83 1.373 . S
C82 C84 1.368 . S
C83 C82 1.373 . S
C83 C87 1.397 . S
C84 N80 1.453 . S
C84 C82 1.368 . S
C84 C85 1.373 . S
C85 H79 0.930 . S
C85 C84 1.373 . S
C85 C86 1.371 . S
C86 C85 1.371 . S
C86 C87 1.383 . S
C87 H78 0.931 . S
C87 C83 1.397 . S
C87 C86 1.383 . S
Fe88 O90 1.918 . S
Fe88 O93 1.997 1_455 S
Fe88 O94 2.002 1_455 S
Fe88 O99 1.976 . S
Fe88 O102 1.996 . S
Fe89 O90 1.918 . S
Fe89 O97 1.997 1_455 S
Fe89 O100 1.996 . S
Fe89 O104 1.976 . S
Fe89 O107 2.002 1_455 S
O90 Fe88 1.918 . S
O90 Fe89 1.918 . S
O90 Fe91 1.918 . S
Fe91 O90 1.918 . S
Fe91 O92 2.002 1_455 S
Fe91 O101 1.976 . S
Fe91 O105 1.996 . S
Fe91 O108 1.997 1_455 S
O92 Fe91 2.002 1_655 S
O92 C109 1.295 . S
O93 Fe88 1.997 1_655 S
O93 C109 1.235 . S
O94 Fe88 2.002 1_655 S
O94 C95 1.295 . S
C95 O94 1.295 . S
C95 O97 1.235 . S
C96 O101 1.287 . S
C96 O102 1.255 . S
O97 Fe89 1.997 1_655 S
O97 C95 1.235 . S
C98 O104 1.287 . S
C98 O105 1.255 . S
O99 Fe88 1.976 . S
O99 C106 1.287 . S
O100 Fe89 1.996 . S
O100 C106 1.255 . S
O101 Fe91 1.976 . S
O101 C96 1.287 . S
O102 Fe88 1.996 . S
O102 C96 1.255 . S
C103 O107 1.295 . S
C103 O108 1.235 . S
O104 Fe89 1.976 . S
O104 C98 1.287 . S
O105 Fe91 1.996 . S
O105 C98 1.255 . S
C106 O99 1.287 . S
C106 O100 1.255 . S
O107 Fe89 2.002 1_655 S
O107 C103 1.295 . S
O108 Fe91 1.997 1_655 S
O108 C103 1.235 . S
C109 O92 1.295 . S
C109 O93 1.235 . S
Fe110 O112 1.918 . S
Fe110 O115 1.997 . S
Fe110 O116 2.002 . S
Fe110 O121 1.976 1_455 S
Fe110 O124 1.996 1_455 S
Fe111 O112 1.918 . S
Fe111 O119 2.006 . S
Fe111 O122 1.987 1_455 S
Fe111 O126 1.967 1_455 S
Fe111 O129 2.012 . S
O112 Fe110 1.918 . S
O112 Fe111 1.918 . S
O112 Fe113 1.918 . S
Fe113 O112 1.918 . S
Fe113 O114 2.023 . S
Fe113 O123 1.955 1_455 S
Fe113 O127 1.976 1_455 S
Fe113 O130 2.018 . S
O114 Fe113 2.023 . S
O114 C131 1.295 . S
O115 Fe110 1.997 . S
O115 C131 1.235 . S
O116 Fe110 2.002 . S
O116 C117 1.295 . S
C117 O116 1.295 . S
C117 O119 1.235 . S
C118 O123 1.287 . S
C118 O124 1.255 . S
O119 Fe111 2.006 . S
O119 C117 1.235 . S
C120 O126 1.287 . S
C120 O127 1.255 . S
O121 Fe110 1.976 1_655 S
O121 C128 1.287 . S
O122 Fe111 1.987 1_655 S
O122 C128 1.255 . S
O123 Fe113 1.955 1_655 S
O123 C118 1.287 . S
O124 Fe110 1.996 1_655 S
O124 C118 1.255 . S
C125 O129 1.295 . S
C125 O130 1.235 . S
O126 Fe111 1.967 1_655 S
O126 C120 1.287 . S
O127 Fe113 1.976 1_655 S
O127 C120 1.255 . S
C128 O121 1.287 . S
C128 O122 1.255 . S
O129 Fe111 2.012 . S
O129 C125 1.295 . S
O130 Fe113 2.018 . S
O130 C125 1.235 . S
C131 O114 1.295 . S
C131 O115 1.235 . S
Fe132 O134 1.918 . S
Fe132 O137 1.997 . S
Fe132 O138 2.002 . S
Fe132 O143 1.976 . S
Fe132 O146 1.996 . S
Fe133 O134 1.918 . S
Fe133 O141 1.997 . S
Fe133 O144 1.996 . S
Fe133 O148 1.976 . S
Fe133 O151 2.002 . S
O134 Fe132 1.918 . S
O134 Fe133 1.918 . S
O134 Fe135 1.918 . S
Fe135 O134 1.918 . S
Fe135 O136 2.002 . S
Fe135 O145 1.976 . S
Fe135 O149 1.996 . S
Fe135 O152 1.997 . S
O136 Fe135 2.002 . S
O136 C153 1.295 . S
O137 Fe132 1.997 . S
O137 C153 1.235 . S
O138 Fe132 2.002 . S
O138 C139 1.295 . S
C139 O138 1.295 . S
C139 O141 1.235 . S
C140 O145 1.287 . S
C140 O146 1.255 . S
O141 Fe133 1.997 . S
O141 C139 1.235 . S
C142 O148 1.287 . S
C142 O149 1.255 . S
O143 Fe132 1.976 . S
O143 C150 1.287 . S
O144 Fe133 1.996 . S
O144 C150 1.255 . S
O145 Fe135 1.976 . S
O145 C140 1.287 . S
O146 Fe132 1.996 . S
O146 C140 1.255 . S
C147 O151 1.295 . S
C147 O152 1.235 . S
O148 Fe133 1.976 . S
O148 C142 1.287 . S
O149 Fe135 1.996 . S
O149 C142 1.255 . S
C150 O143 1.287 . S
C150 O144 1.255 . S
O151 Fe133 2.002 . S
O151 C147 1.295 . S
O152 Fe135 1.997 . S
O152 C147 1.235 . S
C153 O136 1.295 . S
C153 O137 1.235 . S
Fe154 O156 1.918 . S
Fe154 O159 1.997 . S
Fe154 O160 2.002 . S
Fe154 O165 1.976 . S
Fe154 O168 1.996 . S
Fe155 O156 1.918 . S
Fe155 O163 1.997 . S
Fe155 O166 1.996 . S
Fe155 O170 1.976 . S
Fe155 O173 2.002 . S
O156 Fe154 1.918 . S
O156 Fe155 1.918 . S
O156 Fe157 1.918 . S
Fe157 O156 1.918 . S
Fe157 O158 2.002 . S
Fe157 O167 1.976 . S
Fe157 O171 1.996 . S
Fe157 O174 1.997 . S
O158 Fe157 2.002 . S
O158 C175 1.295 . S
O159 Fe154 1.997 . S
O159 C175 1.235 . S
O160 Fe154 2.002 . S
O160 C161 1.295 . S
C161 O160 1.295 . S
C161 O163 1.235 . S
C162 O167 1.287 . S
C162 O168 1.255 . S
O163 Fe155 1.997 . S
O163 C161 1.235 . S
C164 O170 1.287 . S
C164 O171 1.255 . S
O165 Fe154 1.976 . S
O165 C172 1.287 . S
O166 Fe155 1.996 . S
O166 C172 1.255 . S
O167 Fe157 1.976 . S
O167 C162 1.287 . S
O168 Fe154 1.996 . S
O168 C162 1.255 . S
C169 O173 1.295 . S
C169 O174 1.235 . S
O170 Fe155 1.976 . S
O170 C164 1.287 . S
O171 Fe157 1.996 . S
O171 C164 1.255 . S
C172 O165 1.287 . S
C172 O166 1.255 . S
O173 Fe155 2.002 . S
O173 C169 1.295 . S
O174 Fe157 1.997 . S
O174 C169 1.235 . S
C175 O158 1.295 . S
C175 O159 1.235 . S
H176 C184 0.950 . S
H177 C189 0.950 1_554 S
H178 C186 0.950 . S
H179 C188 0.950 . S
H180 C190 0.950 . S
H181 C192 0.950 . S
H182 C194 0.950 . S
H183 C195 0.950 . S
C184 H176 0.950 . S
C184 C185 1.386 . S
C184 C186 1.391 . S
C185 C184 1.386 . S
C185 C189 1.393 . S
C186 H178 0.950 . S
C186 C184 1.391 . S
C186 C187 1.400 . S
C187 C186 1.400 . S
C187 C188 1.398 . S
C187 C193 1.491 . S
C188 H179 0.950 . S
C188 C187 1.398 . S
C188 C189 1.391 . S
C189 H177 0.950 1_556 S
C189 C185 1.393 . S
C189 C188 1.391 . S
C190 H180 0.950 . S
C190 C191 1.386 . S
C190 C192 1.391 . S
C191 C190 1.386 . S
C191 C195 1.393 . S
C192 H181 0.950 . S
C192 C190 1.391 . S
C192 C193 1.400 . S
C193 C187 1.491 . S
C193 C192 1.400 . S
C193 C194 1.398 . S
C194 H182 0.950 . S
C194 C193 1.398 . S
C194 C195 1.391 . S
C195 H183 0.950 . S
C195 C191 1.393 . S
C195 C194 1.391 . S
H196 C204 0.950 . S
H197 C209 0.950 . S
H198 C206 0.950 . S
H199 C208 0.950 . S
H200 C210 0.950 . S
H201 C212 0.950 . S
H202 C214 0.950 . S
H203 C215 0.950 . S
C204 H196 0.950 . S
C204 C205 1.386 . S
C204 C206 1.391 . S
C205 C204 1.386 . S
C205 C209 1.393 . S
C206 H198 0.950 . S
C206 C204 1.391 . S
C206 C207 1.400 . S
C207 C206 1.400 . S
C207 C208 1.398 . S
C207 C213 1.491 . S
C208 H199 0.950 . S
C208 C207 1.398 . S
C208 C209 1.391 . S
C209 H197 0.950 . S
C209 C205 1.393 . S
C209 C208 1.391 . S
C210 H200 0.950 . S
C210 C211 1.386 . S
C210 C212 1.391 . S
C211 C210 1.386 . S
C211 C215 1.393 . S
C212 H201 0.950 . S
C212 C210 1.391 . S
C212 C213 1.400 . S
C213 C207 1.491 . S
C213 C212 1.400 . S
C213 C214 1.398 . S
C214 H202 0.950 . S
C214 C213 1.398 . S
C214 C215 1.391 . S
C215 H203 0.950 . S
C215 C211 1.393 . S
C215 C214 1.391 . S
H216 C224 0.950 . S
H217 C229 0.950 . S
H218 C226 0.950 . S
H219 C228 0.950 . S
H220 C230 0.950 . S
H221 C232 0.950 . S
H222 C234 0.950 . S
H223 C235 0.950 . S
C224 H216 0.950 . S
C224 C225 1.386 . S
C224 C226 1.391 . S
C225 C224 1.386 . S
C225 C229 1.393 . S
C226 H218 0.950 . S
C226 C224 1.391 . S
C226 C227 1.400 . S
C227 C226 1.400 . S
C227 C228 1.398 . S
C227 C233 1.491 . S
C228 H219 0.950 . S
C228 C227 1.398 . S
C228 C229 1.391 . S
C229 H217 0.950 . S
C229 C225 1.393 . S
C229 C228 1.391 . S
C230 H220 0.950 . S
C230 C231 1.386 . S
C230 C232 1.391 . S
C231 C230 1.386 . S
C231 C235 1.393 . S
C232 H221 0.950 . S
C232 C230 1.391 . S
C232 C233 1.400 . S
C233 C227 1.491 . S
C233 C232 1.400 . S
C233 C234 1.398 . S
C234 H222 0.950 . S
C234 C233 1.398 . S
C234 C235 1.391 . S
C235 H223 0.950 . S
C235 C231 1.393 . S
C235 C234 1.391 . S
H236 C244 0.950 . S
H237 C249 0.950 . S
H238 C246 0.950 . S
H239 C248 0.950 . S
H240 C250 0.950 . S
H241 C252 0.950 . S
H242 C254 0.950 . S
H243 C255 0.950 . S
C244 H236 0.950 . S
C244 C245 1.386 . S
C244 C246 1.391 . S
C245 C244 1.386 . S
C245 C249 1.393 . S
C246 H238 0.950 . S
C246 C244 1.391 . S
C246 C247 1.400 . S
C247 C246 1.400 . S
C247 C248 1.398 . S
C247 C253 1.491 . S
C248 H239 0.950 . S
C248 C247 1.398 . S
C248 C249 1.391 . S
C249 H237 0.950 . S
C249 C245 1.393 . S
C249 C248 1.391 . S
C250 H240 0.950 . S
C250 C251 1.386 . S
C250 C252 1.391 . S
C251 C250 1.386 . S
C251 C255 1.393 . S
C252 H241 0.950 . S
C252 C250 1.391 . S
C252 C253 1.400 . S
C253 C247 1.491 . S
C253 C252 1.400 . S
C253 C254 1.398 . S
C254 H242 0.950 . S
C254 C253 1.398 . S
C254 C255 1.391 . S
C255 H243 0.950 . S
C255 C251 1.393 . S
C255 C254 1.391 . S
H256 C264 0.950 . S
H257 C269 0.950 . S
H258 C266 0.950 . S
H259 C268 0.950 . S
H260 C270 0.950 . S
H261 C272 0.950 . S
H262 C274 0.950 . S
H263 C275 0.950 . S
C264 H256 0.950 . S
C264 C265 1.386 . S
C264 C266 1.391 . S
C265 C264 1.386 . S
C265 C269 1.393 . S
C266 H258 0.950 . S
C266 C264 1.391 . S
C266 C267 1.400 . S
C267 C266 1.400 . S
C267 C268 1.398 . S
C267 C273 1.491 . S
C268 H259 0.950 . S
C268 C267 1.398 . S
C268 C269 1.391 . S
C269 H257 0.950 . S
C269 C265 1.393 . S
C269 C268 1.391 . S
C270 H260 0.950 . S
C270 C271 1.386 . S
C270 C272 1.391 . S
C271 C270 1.386 . S
C271 C275 1.393 . S
C272 H261 0.950 . S
C272 C270 1.391 . S
C272 C273 1.400 . S
C273 C267 1.491 . S
C273 C272 1.400 . S
C273 C274 1.398 . S
C274 H262 0.950 . S
C274 C273 1.398 . S
C274 C275 1.391 . S
C275 H263 0.950 . S
C275 C271 1.393 . S
C275 C274 1.391 . S
H276 C284 0.950 . S
H277 C289 0.950 . S
H278 C286 0.950 . S
H279 C288 0.950 . S
H280 C290 0.950 . S
H281 C292 0.950 . S
H282 C294 0.950 . S
H283 C295 0.950 . S
C284 H276 0.950 . S
C284 C285 1.386 . S
C284 C286 1.391 . S
C285 C284 1.386 . S
C285 C289 1.393 . S
C286 H278 0.950 . S
C286 C284 1.391 . S
C286 C287 1.400 . S
C287 C286 1.400 . S
C287 C288 1.398 . S
C287 C293 1.491 . S
C288 H279 0.950 . S
C288 C287 1.398 . S
C288 C289 1.391 . S
C289 H277 0.950 . S
C289 C285 1.393 . S
C289 C288 1.391 . S
C290 H280 0.950 . S
C290 C291 1.386 . S
C290 C292 1.391 . S
C291 C290 1.386 . S
C291 C295 1.393 . S
C292 H281 0.950 . S
C292 C290 1.391 . S
C292 C293 1.400 . S
C293 C287 1.491 . S
C293 C292 1.400 . S
C293 C294 1.398 . S
C294 H282 0.950 . S
C294 C293 1.398 . S
C294 C295 1.391 . S
C295 H283 0.950 . S
C295 C291 1.393 . S
C295 C294 1.391 . S
H296 C304 0.950 . S
H297 C309 0.950 . S
H298 C306 0.950 . S
H299 C308 0.950 . S
H300 C310 0.950 . S
H301 C312 0.950 . S
H302 C314 0.950 . S
H303 C315 0.950 . S
C304 H296 0.950 . S
C304 C305 1.386 . S
C304 C306 1.391 . S
C305 C304 1.386 . S
C305 C309 1.393 . S
C306 H298 0.950 . S
C306 C304 1.391 . S
C306 C307 1.400 . S
C307 C306 1.400 . S
C307 C308 1.398 . S
C307 C313 1.491 . S
C308 H299 0.950 . S
C308 C307 1.398 . S
C308 C309 1.391 . S
C309 H297 0.950 . S
C309 C305 1.393 . S
C309 C308 1.391 . S
C310 H300 0.950 . S
C310 C311 1.386 . S
C310 C312 1.391 . S
C311 C310 1.386 . S
C311 C315 1.393 . S
C312 H301 0.950 . S
C312 C310 1.391 . S
C312 C313 1.400 . S
C313 C307 1.491 . S
C313 C312 1.400 . S
C313 C314 1.398 . S
C314 H302 0.950 . S
C314 C313 1.398 . S
C314 C315 1.391 . S
C315 H303 0.950 . S
C315 C311 1.393 . S
C315 C314 1.391 . S
H316 C324 0.950 . S
H317 C329 0.950 . S
H318 C326 0.950 . S
H319 C328 0.950 . S
H320 C330 0.950 . S
H321 C332 0.950 . S
H322 C334 0.950 . S
H323 C335 0.950 . S
C324 H316 0.950 . S
C324 C325 1.386 . S
C324 C326 1.391 . S
C325 C324 1.386 . S
C325 C329 1.393 . S
C326 H318 0.950 . S
C326 C324 1.391 . S
C326 C327 1.400 . S
C327 C326 1.400 . S
C327 C328 1.398 . S
C327 C333 1.491 . S
C328 H319 0.950 . S
C328 C327 1.398 . S
C328 C329 1.391 . S
C329 H317 0.950 . S
C329 C325 1.393 . S
C329 C328 1.391 . S
C330 H320 0.950 . S
C330 C331 1.386 . S
C330 C332 1.391 . S
C331 C330 1.386 . S
C331 C335 1.393 . S
C332 H321 0.950 . S
C332 C330 1.391 . S
C332 C333 1.400 . S
C333 C327 1.491 . S
C333 C332 1.400 . S
C333 C334 1.398 . S
C334 H322 0.950 . S
C334 C333 1.398 . S
C334 C335 1.391 . S
C335 H323 0.950 . S
C335 C331 1.393 . S
C335 C334 1.391 . S
H336 C344 0.950 . S
H337 C349 0.950 . S
H338 C346 0.950 . S
H339 C348 0.950 . S
H340 C350 0.950 . S
H341 C352 0.950 . S
H342 C354 0.950 . S
H343 C355 0.950 . S
C344 H336 0.950 . S
C344 C345 1.386 . S
C344 C346 1.391 . S
C345 C344 1.386 . S
C345 C349 1.393 . S
C346 H338 0.950 . S
C346 C344 1.391 . S
C346 C347 1.400 . S
C347 C346 1.400 . S
C347 C348 1.398 . S
C347 C353 1.491 . S
C348 H339 0.950 . S
C348 C347 1.398 . S
C348 C349 1.391 . S
C349 H337 0.950 . S
C349 C345 1.393 . S
C349 C348 1.391 . S
C350 H340 0.950 . S
C350 C351 1.386 . S
C350 C352 1.391 . S
C351 C350 1.386 . S
C351 C355 1.393 . S
C352 H341 0.950 . S
C352 C350 1.391 . S
C352 C353 1.400 . S
C353 C347 1.491 . S
C353 C352 1.400 . S
C353 C354 1.398 . S
C354 H342 0.950 . S
C354 C353 1.398 . S
C354 C355 1.391 . S
C355 H343 0.950 . S
C355 C351 1.393 . S
C355 C354 1.391 . S
H356 C364 0.950 . S
H357 C369 0.950 . S
H358 C366 0.950 . S
H359 C368 0.950 . S
H360 C370 0.950 . S
H361 C372 0.950 . S
H362 C374 0.950 . S
H363 C375 0.950 . S
C364 H356 0.950 . S
C364 C365 1.386 . S
C364 C366 1.391 . S
C365 C364 1.386 . S
C365 C369 1.393 . S
C366 H358 0.950 . S
C366 C364 1.391 . S
C366 C367 1.400 . S
C367 C366 1.400 . S
C367 C368 1.398 . S
C367 C373 1.491 . S
C368 H359 0.950 . S
C368 C367 1.398 . S
C368 C369 1.391 . S
C369 H357 0.950 . S
C369 C365 1.393 . S
C369 C368 1.391 . S
C370 H360 0.950 . S
C370 C371 1.386 . S
C370 C372 1.391 . S
C371 C370 1.386 . S
C371 C375 1.393 . S
C372 H361 0.950 . S
C372 C370 1.391 . S
C372 C373 1.400 . S
C373 C367 1.491 . S
C373 C372 1.400 . S
C373 C374 1.398 . S
C374 H362 0.950 . S
C374 C373 1.398 . S
C374 C375 1.391 . S
C375 H363 0.950 . S
C375 C371 1.393 . S
C375 C374 1.391 . S
H376 C384 0.950 . S
H377 C389 0.950 . S
H378 C386 0.950 . S
H379 C388 0.950 . S
H380 C390 0.950 . S
H381 C392 0.950 . S
H382 C394 0.950 . S
H383 C395 0.950 . S
C384 H376 0.950 . S
C384 C385 1.386 . S
C384 C386 1.391 . S
C385 C384 1.386 . S
C385 C389 1.393 . S
C386 H378 0.950 . S
C386 C384 1.391 . S
C386 C387 1.400 . S
C387 C386 1.400 . S
C387 C388 1.398 . S
C387 C393 1.491 . S
C388 H379 0.950 . S
C388 C387 1.398 . S
C388 C389 1.391 . S
C389 H377 0.950 . S
C389 C385 1.393 . S
C389 C388 1.391 . S
C390 H380 0.950 . S
C390 C391 1.386 . S
C390 C392 1.391 . S
C391 C390 1.386 . S
C391 C395 1.393 . S
C392 H381 0.950 . S
C392 C390 1.391 . S
C392 C393 1.400 . S
C393 C387 1.491 . S
C393 C392 1.400 . S
C393 C394 1.398 . S
C394 H382 0.950 . S
C394 C393 1.398 . S
C394 C395 1.391 . S
C395 H383 0.950 . S
C395 C391 1.393 . S
C395 C394 1.391 . S
H396 C404 0.950 . S
H397 C409 0.950 . S
H398 C406 0.950 . S
H399 C408 0.950 . S
H400 C410 0.950 . S
H401 C412 0.950 . S
H402 C414 0.950 . S
H403 C415 0.950 . S
C404 H396 0.950 . S
C404 C405 1.386 . S
C404 C406 1.391 . S
C405 C404 1.386 . S
C405 C409 1.393 . S
C406 H398 0.950 . S
C406 C404 1.391 . S
C406 C407 1.400 . S
C407 C406 1.400 . S
C407 C408 1.398 . S
C407 C413 1.491 . S
C408 H399 0.950 . S
C408 C407 1.398 . S
C408 C409 1.391 . S
C409 H397 0.950 . S
C409 C405 1.393 . S
C409 C408 1.391 . S
C410 H400 0.950 . S
C410 C411 1.386 . S
C410 C412 1.391 . S
C411 C410 1.386 . S
C411 C415 1.393 . S
C412 H401 0.950 . S
C412 C410 1.391 . S
C412 C413 1.400 . S
C413 C407 1.491 . S
C413 C412 1.400 . S
C413 C414 1.398 . S
C414 H402 0.950 . S
C414 C413 1.398 . S
C414 C415 1.391 . S
C415 H403 0.950 . S
C415 C411 1.393 . S
C415 C414 1.391 . S
H416 C424 0.950 . S
H417 C429 0.950 . S
H418 C426 0.950 1_545 S
H419 C428 0.950 . S
H420 C430 0.950 . S
H421 C432 0.950 . S
H422 C434 0.950 . S
H423 C435 0.950 . S
C424 H416 0.950 . S
C424 C425 1.386 . S
C424 C426 1.391 . S
C425 C424 1.386 . S
C425 C429 1.393 . S
C426 H418 0.950 1_565 S
C426 C424 1.391 . S
C426 C427 1.400 . S
C427 C426 1.400 . S
C427 C428 1.398 . S
C427 C433 1.491 1_565 S
C428 H419 0.950 . S
C428 C427 1.398 . S
C428 C429 1.391 . S
C429 H417 0.950 . S
C429 C425 1.393 . S
C429 C428 1.391 . S
C430 H420 0.950 . S
C430 C431 1.386 . S
C430 C432 1.391 1_545 S
C431 C430 1.386 . S
C431 C435 1.393 . S
C432 H421 0.950 . S
C432 C430 1.391 1_565 S
C432 C433 1.400 1_565 S
C433 C427 1.491 1_545 S
C433 C432 1.400 1_545 S
C433 C434 1.398 . S
C434 H422 0.950 . S
C434 C433 1.398 . S
C434 C435 1.391 . S
C435 H423 0.950 . S
C435 C431 1.393 . S
C435 C434 1.391 . S
H436 C444 0.950 . S
H437 C449 0.950 . S
H438 C446 0.950 . S
H439 C448 0.950 . S
H440 C450 0.950 . S
H441 C452 0.950 . S
H442 C454 0.947 1_545 S
H443 C455 0.950 . S
C444 H436 0.950 . S
C444 C445 1.386 . S
C444 C446 1.391 . S
C445 C444 1.386 . S
C445 C449 1.393 . S
C446 H438 0.950 . S
C446 C444 1.391 . S
C446 C447 1.400 . S
C447 C446 1.400 . S
C447 C448 1.398 . S
C447 C453 1.491 1_545 S
C448 H439 0.950 . S
C448 C447 1.398 . S
C448 C449 1.391 . S
C449 H437 0.950 . S
C449 C445 1.393 . S
C449 C448 1.391 . S
C450 H440 0.950 . S
C450 C451 1.386 . S
C450 C452 1.391 . S
C451 C450 1.386 . S
C451 C455 1.393 . S
C452 H441 0.950 . S
C452 C450 1.391 . S
C452 C453 1.400 . S
C453 C447 1.491 1_565 S
C453 C452 1.400 . S
C453 C454 1.399 . S
C454 H442 0.947 1_565 S
C454 C453 1.399 . S
C454 C455 1.393 . S
C455 H443 0.950 . S
C455 C451 1.393 . S
C455 C454 1.393 . S
H456 C464 0.950 . S
H457 C469 0.950 . S
H458 C466 0.950 . S
H459 C468 0.950 1_545 S
H460 C470 0.950 . S
H461 C472 0.950 . S
H462 C474 0.950 . S
H463 C475 0.950 . S
C464 H456 0.950 . S
C464 C465 1.386 . S
C464 C466 1.391 . S
C465 C464 1.386 . S
C465 C469 1.393 . S
C466 H458 0.950 . S
C466 C464 1.391 . S
C466 C467 1.400 . S
C467 C466 1.400 . S
C467 C468 1.398 . S
C467 C473 1.491 1_565 S
C468 H459 0.950 1_565 S
C468 C467 1.398 . S
C468 C469 1.391 . S
C469 H457 0.950 . S
C469 C465 1.393 . S
C469 C468 1.391 . S
C470 H460 0.950 . S
C470 C471 1.386 . S
C470 C472 1.391 . S
C471 C470 1.386 . S
C471 C475 1.393 . S
C472 H461 0.950 . S
C472 C470 1.391 . S
C472 C473 1.400 . S
C473 C467 1.491 1_545 S
C473 C472 1.400 . S
C473 C474 1.398 1_545 S
C474 H462 0.950 . S
C474 C473 1.398 1_565 S
C474 C475 1.391 1_565 S
C475 H463 0.950 . S
C475 C471 1.393 . S
C475 C474 1.391 1_545 S
H476 C484 0.950 . S
H477 C489 0.950 . S
H478 C486 0.950 . S
H479 C488 0.950 . S
H480 C490 0.950 . S
H481 C492 0.950 . S
H482 C494 0.950 . S
H483 C495 0.950 . S
C484 H476 0.950 . S
C484 C485 1.386 . S
C484 C486 1.391 . S
C485 C484 1.386 . S
C485 C489 1.393 . S
C486 H478 0.950 . S
C486 C484 1.391 . S
C486 C487 1.400 . S
C487 C486 1.400 . S
C487 C488 1.398 . S
C487 C493 1.491 1_545 S
C488 H479 0.950 . S
C488 C487 1.398 . S
C488 C489 1.391 . S
C489 H477 0.950 . S
C489 C485 1.393 . S
C489 C488 1.391 . S
C490 H480 0.950 . S
C490 C491 1.386 . S
C490 C492 1.391 . S
C491 C490 1.386 . S
C491 C495 1.393 . S
C492 H481 0.950 . S
C492 C490 1.391 . S
C492 C493 1.400 . S
C493 C487 1.491 1_565 S
C493 C492 1.400 . S
C493 C494 1.398 . S
C494 H482 0.950 . S
C494 C493 1.398 . S
C494 C495 1.391 . S
C495 H483 0.950 . S
C495 C491 1.393 . S
C495 C494 1.391 . S
H496 C504 0.950 . S
H497 C509 0.950 . S
H498 C506 0.950 . S
H499 C508 0.950 . S
H500 C510 0.950 . S
H501 C512 0.950 . S
H502 C514 0.950 . S
H503 C515 0.950 . S
C504 H496 0.950 . S
C504 C505 1.386 . S
C504 C506 1.391 . S
C505 C504 1.386 . S
C505 C509 1.393 . S
C506 H498 0.950 . S
C506 C504 1.391 . S
C506 C507 1.400 . S
C507 C506 1.400 . S
C507 C508 1.398 . S
C507 C513 1.491 . S
C508 H499 0.950 . S
C508 C507 1.398 . S
C508 C509 1.391 . S
C509 H497 0.950 . S
C509 C505 1.393 . S
C509 C508 1.391 . S
C510 H500 0.950 . S
C510 C511 1.386 . S
C510 C512 1.391 . S
C511 C510 1.386 . S
C511 C515 1.393 . S
C512 H501 0.950 . S
C512 C510 1.391 . S
C512 C513 1.400 . S
C513 C507 1.491 . S
C513 C512 1.400 . S
C513 C514 1.398 . S
C514 H502 0.950 . S
C514 C513 1.398 . S
C514 C515 1.391 . S
C515 H503 0.950 . S
C515 C511 1.393 . S
C515 C514 1.391 . S
H516 C524 0.950 . S
H517 C529 0.950 . S
H518 C526 0.950 . S
H519 C528 0.950 . S
H520 C530 0.950 . S
H521 C532 0.950 . S
H522 C534 0.950 . S
H523 C535 0.950 . S
C524 H516 0.950 . S
C524 C525 1.386 . S
C524 C526 1.391 . S
C525 C524 1.386 . S
C525 C529 1.393 . S
C526 H518 0.950 . S
C526 C524 1.391 . S
C526 C527 1.400 . S
C527 C526 1.400 . S
C527 C528 1.398 . S
C527 C533 1.491 . S
C528 H519 0.950 . S
C528 C527 1.398 . S
C528 C529 1.391 . S
C529 H517 0.950 . S
C529 C525 1.393 . S
C529 C528 1.391 . S
C530 H520 0.950 . S
C530 C531 1.386 . S
C530 C532 1.391 . S
C531 C530 1.386 . S
C531 C535 1.393 . S
C532 H521 0.950 . S
C532 C530 1.391 . S
C532 C533 1.400 . S
C533 C527 1.491 . S
C533 C532 1.400 . S
C533 C534 1.398 . S
C534 H522 0.950 . S
C534 C533 1.398 . S
C534 C535 1.391 . S
C535 H523 0.950 . S
C535 C531 1.393 . S
C535 C534 1.391 . S
H536 C544 0.950 . S
H537 C549 0.950 . S
H538 C546 0.950 . S
H539 C548 0.950 . S
H540 C550 0.950 . S
H541 C552 0.950 . S
H542 C554 0.950 . S
H543 C555 0.950 . S
C544 H536 0.950 . S
C544 C545 1.386 . S
C544 C546 1.391 . S
C545 C544 1.386 . S
C545 C549 1.393 . S
C546 H538 0.950 . S
C546 C544 1.391 . S
C546 C547 1.400 . S
C547 C546 1.400 . S
C547 C548 1.398 . S
C547 C553 1.491 . S
C548 H539 0.950 . S
C548 C547 1.398 . S
C548 C549 1.391 . S
C549 H537 0.950 . S
C549 C545 1.393 . S
C549 C548 1.391 . S
C550 H540 0.950 . S
C550 C551 1.386 . S
C550 C552 1.391 . S
C551 C550 1.386 . S
C551 C555 1.393 . S
C552 H541 0.950 . S
C552 C550 1.391 . S
C552 C553 1.400 . S
C553 C547 1.491 . S
C553 C552 1.400 . S
C553 C554 1.398 . S
C554 H542 0.950 . S
C554 C553 1.398 . S
C554 C555 1.391 . S
C555 H543 0.950 . S
C555 C551 1.393 . S
C555 C554 1.391 . S
H556 C564 0.950 . S
H557 C569 0.950 . S
H558 C566 0.950 . S
H559 C568 0.950 . S
H560 C570 0.950 . S
H561 C572 0.950 . S
H562 C574 0.950 . S
H563 C575 0.950 . S
C564 H556 0.950 . S
C564 C565 1.386 . S
C564 C566 1.391 . S
C565 C564 1.386 . S
C565 C569 1.393 . S
C566 H558 0.950 . S
C566 C564 1.391 . S
C566 C567 1.400 . S
C567 C566 1.400 . S
C567 C568 1.398 . S
C567 C573 1.491 . S
C568 H559 0.950 . S
C568 C567 1.398 . S
C568 C569 1.391 . S
C569 H557 0.950 . S
C569 C565 1.393 . S
C569 C568 1.391 . S
C570 H560 0.950 . S
C570 C571 1.386 . S
C570 C572 1.391 . S
C571 C570 1.386 . S
C571 C575 1.393 . S
C572 H561 0.950 . S
C572 C570 1.391 . S
C572 C573 1.400 . S
C573 C567 1.491 . S
C573 C572 1.400 . S
C573 C574 1.398 . S
C574 H562 0.950 . S
C574 C573 1.398 . S
C574 C575 1.391 . S
C575 H563 0.950 . S
C575 C571 1.393 . S
C575 C574 1.391 . S
H576 C584 0.950 . S
H577 C589 0.950 . S
H578 C586 0.950 . S
H579 C588 0.950 . S
H580 C590 0.950 . S
H581 C592 0.950 . S
H582 C594 0.950 . S
H583 C595 0.950 . S
C584 H576 0.950 . S
C584 C585 1.386 . S
C584 C586 1.391 . S
C585 C584 1.386 . S
C585 C589 1.393 . S
C586 H578 0.950 . S
C586 C584 1.391 . S
C586 C587 1.400 . S
C587 C586 1.400 . S
C587 C588 1.398 . S
C587 C593 1.491 . S
C588 H579 0.950 . S
C588 C587 1.398 . S
C588 C589 1.391 . S
C589 H577 0.950 . S
C589 C585 1.393 . S
C589 C588 1.391 . S
C590 H580 0.950 . S
C590 C591 1.386 . S
C590 C592 1.391 . S
C591 C590 1.386 . S
C591 C595 1.393 . S
C592 H581 0.950 . S
C592 C590 1.391 . S
C592 C593 1.400 . S
C593 C587 1.491 . S
C593 C592 1.400 . S
C593 C594 1.398 . S
C594 H582 0.950 . S
C594 C593 1.398 . S
C594 C595 1.391 . S
C595 H583 0.950 . S
C595 C591 1.393 . S
C595 C594 1.391 . S
H596 C604 0.950 . S
H597 C609 0.950 . S
H598 C606 0.950 . S
H599 C608 0.950 . S
H600 C610 0.950 . S
H601 C612 0.950 . S
H602 C614 0.950 . S
H603 C615 0.950 . S
C604 H596 0.950 . S
C604 C605 1.386 . S
C604 C606 1.391 . S
C605 C604 1.386 . S
C605 C609 1.393 . S
C606 H598 0.950 . S
C606 C604 1.391 . S
C606 C607 1.400 . S
C607 C606 1.400 . S
C607 C608 1.398 . S
C607 C613 1.491 . S
C608 H599 0.950 . S
C608 C607 1.398 . S
C608 C609 1.391 . S
C609 H597 0.950 . S
C609 C605 1.393 . S
C609 C608 1.391 . S
C610 H600 0.950 . S
C610 C611 1.386 . S
C610 C612 1.391 . S
C611 C610 1.386 . S
C611 C615 1.393 . S
C612 H601 0.950 . S
C612 C610 1.391 . S
C612 C613 1.400 . S
C613 C607 1.491 . S
C613 C612 1.400 . S
C613 C614 1.398 . S
C614 H602 0.950 . S
C614 C613 1.398 . S
C614 C615 1.391 . S
C615 H603 0.950 . S
C615 C611 1.393 . S
C615 C614 1.391 . S
H616 C624 0.950 . S
H617 C629 0.950 . S
H618 C626 0.950 . S
H619 C628 0.950 . S
H620 C630 0.950 . S
H621 C632 0.950 . S
H622 C634 0.950 . S
H623 C635 0.950 . S
C624 H616 0.950 . S
C624 C625 1.386 . S
C624 C626 1.391 . S
C625 C624 1.386 . S
C625 C629 1.393 . S
C626 H618 0.950 . S
C626 C624 1.391 . S
C626 C627 1.400 . S
C627 C626 1.400 . S
C627 C628 1.398 . S
C627 C633 1.491 . S
C628 H619 0.950 . S
C628 C627 1.398 . S
C628 C629 1.391 . S
C629 H617 0.950 . S
C629 C625 1.393 . S
C629 C628 1.391 . S
C630 H620 0.950 . S
C630 C631 1.386 . S
C630 C632 1.391 . S
C631 C630 1.386 . S
C631 C635 1.393 . S
C632 H621 0.950 . S
C632 C630 1.391 . S
C632 C633 1.400 . S
C633 C627 1.491 . S
C633 C632 1.400 . S
C633 C634 1.398 . S
C634 H622 0.950 . S
C634 C633 1.398 . S
C634 C635 1.391 . S
C635 H623 0.950 . S
C635 C631 1.393 . S
C635 C634 1.391 . S
H636 C644 0.950 . S
H637 C649 0.950 . S
H638 C646 0.950 . S
H639 C648 0.950 . S
H640 C650 0.950 . S
H641 C652 0.950 . S
H642 C654 0.950 . S
H643 C655 0.950 . S
C644 H636 0.950 . S
C644 C645 1.386 . S
C644 C646 1.391 . S
C645 C644 1.386 . S
C645 C649 1.393 . S
C646 H638 0.950 . S
C646 C644 1.391 . S
C646 C647 1.400 . S
C647 C646 1.400 . S
C647 C648 1.398 . S
C647 C653 1.491 . S
C648 H639 0.950 . S
C648 C647 1.398 . S
C648 C649 1.391 . S
C649 H637 0.950 . S
C649 C645 1.393 . S
C649 C648 1.391 . S
C650 H640 0.950 . S
C650 C651 1.386 . S
C650 C652 1.391 . S
C651 C650 1.386 . S
C651 C655 1.393 . S
C652 H641 0.950 . S
C652 C650 1.391 . S
C652 C653 1.400 . S
C653 C647 1.491 . S
C653 C652 1.400 . S
C653 C654 1.398 . S
C654 H642 0.950 . S
C654 C653 1.398 . S
C654 C655 1.391 . S
C655 H643 0.950 . S
C655 C651 1.393 . S
C655 C654 1.391 . S
C185 N4 1.538 . S
C191 C131 1.526 . S
C211 C95 1.529 . S
C205 N15 1.539 . S
C231 C118 1.613 . S
C225 N26 1.606 . S
C251 C106 1.479 . S
C245 N37 1.479 . S
C271 C175 1.540 . S
C265 N48 1.544 . S
C291 C139 1.537 . S
C285 N59 1.546 . S
C305 N70 1.601 . S
C311 C162 1.612 . S
C331 C150 1.476 . S
C325 N81 1.468 . S
C345 C9 1.509 . S
C351 C172 1.532 . S
C371 C142 1.510 . S
C365 C20 1.473 . S
C385 C31 1.578 . S
C391 C161 1.606 . S
C405 C39 1.447 . S
C411 C147 1.451 . S
C431 C128 1.535 . S
C425 C53 1.491 . S
C445 C64 1.481 . S
C451 C98 1.509 . S
C471 C117 1.610 . S
C465 C75 1.572 . S
C491 C103 1.450 . S
C485 C83 1.448 . S
C511 C153 1.521 . S
C505 C6 1.523 . S
C531 C169 1.515 . S
C525 C17 1.495 . S
C545 C28 1.490 . S
C551 C140 1.501 . S
C571 C164 1.490 . S
C565 C42 1.450 . S
C591 C109 1.524 . S
C585 C50 1.515 . S
C605 C61 1.509 . S
C611 C125 1.506 . S
C625 C72 1.497 . S
C631 C96 1.497 . S
C645 C86 1.463 . S
C651 C120 1.488 . S
