# Generated by pormake.
# Topology zzz, (3,6)-cn, num edge types: 1
# Building blocks:
#     Node 0, Type 0, BuildingBlock: KAKCAD_clean_linker_0, # of connection points: 3
#     Node 1, Type 0, BuildingBlock: KAKCAD_clean_linker_0, # of connection points: 3
#     Node 2, Type 0, BuildingBlock: KAKCAD_clean_linker_0, # of connection points: 3
#     Node 3, Type 0, BuildingBlock: KAKCAD_clean_linker_0, # of connection points: 3
#     Node 4, Type 0, BuildingBlock: KAKCAD_clean_linker_0, # of connection points: 3
#     Node 5, Type 0, BuildingBlock: KAKCAD_clean_linker_0, # of connection points: 3
#     Node 6, Type 0, BuildingBlock: KAKCAD_clean_linker_0, # of connection points: 3
#     Node 7, Type 0, BuildingBlock: KAKCAD_clean_linker_0, # of connection points: 3
#     Node 8, Type 1, BuildingBlock: KUMBUR_clean_sbu_0, # of connection points: 6
#     Node 9, Type 1, BuildingBlock: KUMBUR_clean_sbu_0, # of connection points: 6
#     Node 10, Type 1, BuildingBlock: KUMBUR_clean_sbu_0, # of connection points: 6
#     Node 11, Type 1, BuildingBlock: KUMBUR_clean_sbu_0, # of connection points: 6
#     Edge 12, Type (0, 1), BuildingBlock: ZUJKAS_clean_linker_0, # of connection points: 2
#     Edge 13, Type (0, 1), BuildingBlock: ZUJKAS_clean_linker_0, # of connection points: 2
#     Edge 14, Type (0, 1), BuildingBlock: ZUJKAS_clean_linker_0, # of connection points: 2
#     Edge 15, Type (0, 1), BuildingBlock: ZUJKAS_clean_linker_0, # of connection points: 2
#     Edge 16, Type (0, 1), BuildingBlock: ZUJKAS_clean_linker_0, # of connection points: 2
#     Edge 17, Type (0, 1), BuildingBlock: ZUJKAS_clean_linker_0, # of connection points: 2
#     Edge 18, Type (0, 1), BuildingBlock: ZUJKAS_clean_linker_0, # of connection points: 2
#     Edge 19, Type (0, 1), BuildingBlock: ZUJKAS_clean_linker_0, # of connection points: 2
#     Edge 20, Type (0, 1), BuildingBlock: ZUJKAS_clean_linker_0, # of connection points: 2
#     Edge 21, Type (0, 1), BuildingBlock: ZUJKAS_clean_linker_0, # of connection points: 2
#     Edge 22, Type (0, 1), BuildingBlock: ZUJKAS_clean_linker_0, # of connection points: 2
#     Edge 23, Type (0, 1), BuildingBlock: ZUJKAS_clean_linker_0, # of connection points: 2
#     Edge 24, Type (0, 1), BuildingBlock: ZUJKAS_clean_linker_0, # of connection points: 2
#     Edge 25, Type (0, 1), BuildingBlock: ZUJKAS_clean_linker_0, # of connection points: 2
#     Edge 26, Type (0, 1), BuildingBlock: ZUJKAS_clean_linker_0, # of connection points: 2
#     Edge 27, Type (0, 1), BuildingBlock: ZUJKAS_clean_linker_0, # of connection points: 2
#     Edge 28, Type (0, 1), BuildingBlock: ZUJKAS_clean_linker_0, # of connection points: 2
#     Edge 29, Type (0, 1), BuildingBlock: ZUJKAS_clean_linker_0, # of connection points: 2
#     Edge 30, Type (0, 1), BuildingBlock: ZUJKAS_clean_linker_0, # of connection points: 2
#     Edge 31, Type (0, 1), BuildingBlock: ZUJKAS_clean_linker_0, # of connection points: 2
#     Edge 32, Type (0, 1), BuildingBlock: ZUJKAS_clean_linker_0, # of connection points: 2
#     Edge 33, Type (0, 1), BuildingBlock: ZUJKAS_clean_linker_0, # of connection points: 2
#     Edge 34, Type (0, 1), BuildingBlock: ZUJKAS_clean_linker_0, # of connection points: 2
#     Edge 35, Type (0, 1), BuildingBlock: ZUJKAS_clean_linker_0, # of connection points: 2
# Relax obj value: 0.272
# Max RMSD: 0.226
# Mean RMSD: 0.210
data_MOF--net-zzz--node1-KUMBUR_clean_sbu_0--node2-KAKCAD_clean_linker_0--edge1-ZUJKAS_clean_linker_0
_symmetry_space_group_name_H-M    P1
_symmetry_Int_Tables_number       1
_symmetry_cell_setting            triclinic
loop_
_symmetry_equiv_pos_as_xyz
'x, y, z'
_cell_length_a     71.69084
_cell_length_b     71.525812
_cell_length_c     24.820692
_cell_angle_alpha  90.290708
_cell_angle_beta   90.129816
_cell_angle_gamma 89.956662
loop_
_atom_site_label
_atom_site_type_symbol
_atom_site_fract_x
_atom_site_fract_y
_atom_site_fract_z
_atom_type_partial_charge
C0 C 0.79169 0.59127 0.92858 0.0
C1 C 0.80977 0.5839 0.92375 0.0
C2 C 0.77931 0.58402 0.96685 0.0
C3 C 0.78474 0.5691 1.00029 0.0
C4 C 0.80276 0.56161 0.99434 0.0
C5 C 0.81512 0.56899 0.95693 0.0
C6 C 0.7718 0.56093 0.04076 0.0
C7 C 0.75278 0.55854 0.0293 0.0
C8 C 0.74088 0.54933 0.06564 0.0
C9 C 0.74835 0.54232 0.11438 0.0
C10 C 0.76742 0.54489 0.12653 0.0
C11 C 0.7788 0.55441 0.09002 0.0
C12 C 0.7765 0.53732 0.17566 0.0
C13 C 0.7748 0.54662 0.22535 0.0
C14 C 0.79024 0.52344 0.17 0.0
C15 C 0.80267 0.5196 0.21205 0.0
C16 C 0.80181 0.52965 0.26091 0.0
C17 C 0.72099 0.54651 0.04982 0.0
C18 C 0.71058 0.56158 0.02941 0.0
C19 C 0.71307 0.52855 0.04834 0.0
C20 C 0.69554 0.52561 0.02428 0.0
C21 C 0.68547 0.54061 1.00175 0.0
C22 C 0.69304 0.5587 1.00593 0.0
C23 C 0.78732 0.54281 0.26758 0.0
H24 H 0.78722 0.6027 0.90315 0.0
H25 H 0.76557 0.59019 0.9705 0.0
H26 H 0.80729 0.54974 0.01791 0.0
H27 H 0.82879 0.56267 0.95303 0.0
H28 H 0.74731 0.5631 0.99079 0.0
H29 H 0.79337 0.55655 0.1001 0.0
H30 H 0.73949 0.53487 0.14228 0.0
H31 H 0.76457 0.55764 0.23036 0.0
H32 H 0.79208 0.51637 0.13167 0.0
H33 H 0.81371 0.50955 0.20483 0.0
H34 H 0.71632 0.57559 0.02997 0.0
H35 H 0.72081 0.51664 0.06332 0.0
H36 H 0.78604 0.55066 0.30481 0.0
H37 H 0.68582 0.57057 0.98874 0.0
H38 H 0.69004 0.51153 0.02231 0.0
C39 C 0.93077 0.77828 0.92664 0.0
C40 C 0.93402 0.79747 0.92069 0.0
C41 C 0.93812 0.76873 0.97097 0.0
C42 C 0.94944 0.7781 0.0091 0.0
C43 C 0.95198 0.79752 1.00363 0.0
C44 C 0.94418 0.8071 0.96031 0.0
C45 C 0.95994 0.76757 0.0513 0.0
C46 C 0.96669 0.7495 0.04052 0.0
C47 C 0.97825 0.74014 0.07722 0.0
C48 C 0.98367 0.74927 0.12547 0.0
C49 C 0.97695 0.76746 0.13696 0.0
C50 C 0.96478 0.77613 0.10046 0.0
C51 C 0.9834 0.77881 0.18382 0.0
C52 C 0.97225 0.78051 0.23002 0.0
C53 C 0.99818 0.79143 0.17693 0.0
C54 C 1.00128 0.80594 0.21415 0.0
C55 C 0.98964 0.80828 0.25947 0.0
C56 C 0.98483 0.72115 0.06152 0.0
C57 C 0.9739 0.70542 0.07349 0.0
C58 C 0.99916 0.71929 0.02337 0.0
C59 C 1.00199 0.7023 0.99605 0.0
C60 C 0.99043 0.68674 1.00576 0.0
C61 C 0.97673 0.68839 0.04619 0.0
C62 C 0.97542 0.79494 0.26763 0.0
H63 H 0.92301 0.77061 0.89626 0.0
H64 H 0.93539 0.75391 0.97432 0.0
H65 H 0.96087 0.8053 0.03096 0.0
H66 H 0.94714 0.82187 0.95587 0.0
H67 H 0.96356 0.74275 1.00239 0.0
H68 H 0.95955 0.78997 0.11007 0.0
H69 H 0.99318 0.74247 0.15313 0.0
H70 H 0.96047 0.77125 0.23564 0.0
H71 H 0.00662 0.79079 0.14081 0.0
H72 H 0.01217 0.81594 0.20546 0.0
H73 H 0.9624 0.70664 0.10152 0.0
H74 H 0.00749 0.73132 0.01245 0.0
H75 H 0.96633 0.79595 0.30227 0.0
H76 H 0.96742 0.67686 0.05459 0.0
H77 H 0.01289 0.70155 0.96597 0.0
C78 C 0.72518 0.92642 0.94723 0.0
C79 C 0.70604 0.93039 0.94709 0.0
C80 C 0.73662 0.93337 0.98856 0.0
C81 C 0.72919 0.94496 0.02943 0.0
C82 C 0.70986 0.94855 0.02913 0.0
C83 C 0.69843 0.94116 0.98888 0.0
C84 C 0.74147 0.95429 0.07026 0.0
C85 C 0.75966 0.95985 0.05705 0.0
C86 C 0.77071 0.9701 0.09351 0.0
C87 C 0.76311 0.97559 0.14367 0.0
C88 C 0.74501 0.96967 0.15814 0.0
C89 C 0.73462 0.95877 0.1217 0.0
C90 C 0.7359 0.97495 0.20987 0.0
C91 C 0.72879 0.96083 0.24321 0.0
C92 C 0.73061 0.99356 0.21999 0.0
C93 C 0.71736 0.99775 0.26001 0.0
C94 C 0.70913 0.98338 0.29056 0.0
C95 C 0.79015 0.97458 0.07722 0.0
C96 C 0.8023 0.9599 0.06346 0.0
C97 C 0.79567 0.99303 0.06667 0.0
C98 C 0.81264 0.99662 0.04032 0.0
C99 C 0.82447 0.98182 0.02443 0.0
C100 C 0.81925 0.96346 0.0377 0.0
C101 C 0.71565 0.96499 0.28311 0.0
H102 H 0.7313 0.91823 0.91496 0.0
H103 H 0.75131 0.92992 0.98776 0.0
H104 H 0.70352 0.95778 0.05853 0.0
H105 H 0.68374 0.94473 0.98877 0.0
H106 H 0.76524 0.95673 0.01748 0.0
H107 H 0.72084 0.95413 0.13341 0.0
H108 H 0.77133 0.98387 0.17159 0.0
H109 H 0.73257 0.94636 0.23612 0.0
H110 H 0.73562 1.00467 0.1943 0.0
H111 H 0.71265 0.01206 0.26443 0.0
H112 H 0.79827 0.94552 0.07058 0.0
H113 H 0.78644 1.00458 0.07619 0.0
H114 H 0.70996 0.95362 0.30657 0.0
H115 H 0.8278 0.95168 0.02567 0.0
H116 H 0.81629 0.01095 0.03124 0.0
C117 C 0.53 0.71396 0.21674 0.0
C118 C 0.5373 0.71615 0.26906 0.0
C119 C 0.53476 0.72643 0.17577 0.0
C120 C 0.5468 0.74154 0.18601 0.0
C121 C 0.55336 0.74438 0.23879 0.0
C122 C 0.54875 0.73175 0.27986 0.0
C123 C 0.5546 0.75231 0.14014 0.0
C124 C 0.5527 0.7719 0.13603 0.0
C125 C 0.56038 0.78139 0.09156 0.0
C126 C 0.57008 0.77123 0.05202 0.0
C127 C 0.57161 0.7517 0.05468 0.0
C128 C 0.56387 0.74243 0.0991 0.0
C129 C 0.57991 0.74082 0.00924 0.0
C130 C 0.57672 0.74624 0.95557 0.0
C131 C 0.58986 0.7242 0.01876 0.0
C132 C 0.59527 0.71265 0.97594 0.0
C133 C 0.59106 0.71754 0.92244 0.0
C134 C 0.55732 0.80164 0.08208 0.0
C135 C 0.53951 0.80821 0.06813 0.0
C136 C 0.57269 0.81358 0.07578 0.0
C137 C 0.57047 0.83135 0.05327 0.0
C138 C 0.55285 0.83751 0.03538 0.0
C139 C 0.53729 0.82592 0.04486 0.0
C140 C 0.58238 0.73484 0.91279 0.0
H141 H 0.52131 0.70207 0.20666 0.0
H142 H 0.5296 0.72384 0.13535 0.0
H143 H 0.56282 0.7558 0.24764 0.0
H144 H 0.55448 0.73395 0.3198 0.0
H145 H 0.5451 0.77963 0.16658 0.0
H146 H 0.56469 0.72733 0.10146 0.0
H147 H 0.57597 0.77861 0.01802 0.0
H148 H 0.56901 0.75885 0.94637 0.0
H149 H 0.59297 0.71977 0.05946 0.0
H150 H 0.60183 0.6994 0.98515 0.0
H151 H 0.52749 0.79913 0.07158 0.0
H152 H 0.5866 0.80877 0.08588 0.0
H153 H 0.57923 0.73927 0.8721 0.0
H154 H 0.52351 0.82998 0.03135 0.0
H155 H 0.58273 0.83998 0.04812 0.0
C156 C 0.22346 0.44013 0.2574 0.0
C157 C 0.20972 0.42753 0.23964 0.0
C158 C 0.23629 0.44757 0.22118 0.0
C159 C 0.2358 0.44248 0.16636 0.0
C160 C 0.22287 0.42886 0.14942 0.0
C161 C 0.2099 0.42153 0.18564 0.0
C162 C 0.24753 0.45266 0.12668 0.0
C163 C 0.26558 0.45851 0.14038 0.0
C164 C 0.2759 0.47026 0.10638 0.0
C165 C 0.26807 0.47582 0.05662 0.0
C166 C 0.25005 0.46962 0.04166 0.0
C167 C 0.24003 0.45809 0.07691 0.0
C168 C 0.2405 0.47575 0.99146 0.0
C169 C 0.23485 0.49443 0.98524 0.0
C170 C 0.23378 0.46227 0.95489 0.0
C171 C 0.22103 0.46715 0.9145 0.0
C172 C 0.21442 0.48562 0.91013 0.0
C173 C 0.29445 0.47692 0.12581 0.0
C174 C 0.29598 0.4845 0.17799 0.0
C175 C 0.31085 0.47352 0.09643 0.0
C176 C 0.32843 0.47673 0.12006 0.0
C177 C 0.32995 0.48353 0.17337 0.0
C178 C 0.31342 0.48774 0.20142 0.0
C179 C 0.22186 0.4993 0.94516 0.0
H180 H 0.22349 0.44527 0.29853 0.0
H181 H 0.24584 0.4582 0.2357 0.0
H182 H 0.22235 0.42433 0.10774 0.0
H183 H 0.19955 0.41172 0.17096 0.0
H184 H 0.27164 0.45406 0.17827 0.0
H185 H 0.22587 0.45416 0.06647 0.0
H186 H 0.27575 0.48507 0.03032 0.0
H187 H 0.23956 0.50503 0.01345 0.0
H188 H 0.2377 0.44773 0.95933 0.0
H189 H 0.21551 0.45621 0.88873 0.0
H190 H 0.28359 0.48725 0.20166 0.0
H191 H 0.31008 0.46755 0.0563 0.0
H192 H 0.21722 0.51368 0.94264 0.0
H193 H 0.31388 0.49275 0.24264 0.0
H194 H 0.34083 0.47356 0.09691 0.0
C195 C 0.08106 0.23266 0.23699 0.0
C196 C 0.09033 0.21661 0.21839 0.0
C197 C 0.07306 0.24514 0.20052 0.0
C198 C 0.07443 0.24194 0.14465 0.0
C199 C 0.08534 0.22682 0.12633 0.0
C200 C 0.09301 0.21414 0.16286 0.0
C201 C 0.0627 0.25286 0.10636 0.0
C202 C 0.05881 0.27183 0.11558 0.0
C203 C 0.04587 0.2816 0.08358 0.0
C204 C 0.03703 0.27213 0.04015 0.0
C205 C 0.04128 0.25313 0.02951 0.0
C206 C 0.05391 0.24376 0.06306 0.0
C207 C 0.03275 0.24203 0.98493 0.0
C208 C 0.0205 0.22736 0.99751 0.0
C209 C 0.04043 0.24263 0.93295 0.0
C210 C 0.03669 0.22833 0.89532 0.0
C211 C 0.02524 0.21301 0.90887 0.0
C212 C 0.04143 0.30131 0.09931 0.0
C213 C 0.02328 0.30654 0.11457 0.0
C214 C 0.05605 0.31404 0.10865 0.0
C215 C 0.05286 0.33102 0.13544 0.0
C216 C 0.03494 0.3358 0.15412 0.0
C217 C 0.02006 0.32359 0.14168 0.0
C218 C 0.01673 0.21311 0.96002 0.0
H219 H 0.07858 0.23471 0.27967 0.0
H220 H 0.06465 0.25647 0.21637 0.0
H221 H 0.08716 0.22421 0.08365 0.0
H222 H 0.10014 0.20184 0.14768 0.0
H223 H 0.06551 0.27898 0.14902 0.0
H224 H 0.05642 0.229 0.05602 0.0
H225 H 0.02699 0.2794 0.01521 0.0
H226 H 0.01481 0.22626 0.03777 0.0
H227 H 0.05028 0.2535 0.9226 0.0
H228 H 0.0433 0.22896 0.8562 0.0
H229 H 0.01177 0.29693 0.10868 0.0
H230 H 0.07019 0.31044 0.09729 0.0
H231 H 0.00804 0.20156 0.97257 0.0
H232 H 0.00607 0.3267 0.15543 0.0
H233 H 0.0646 0.34019 0.14281 0.0
C234 C 0.29219 0.09319 0.24664 0.0
C235 C 0.30866 0.10201 0.22948 0.0
C236 C 0.27949 0.08599 0.20927 0.0
C237 C 0.28247 0.08811 0.15358 0.0
C238 C 0.29762 0.09918 0.1369 0.0
C239 C 0.31072 0.10577 0.17421 0.0
C240 C 0.27125 0.07711 0.11362 0.0
C241 C 0.2529 0.07158 0.12502 0.0
C242 C 0.24337 0.0588 0.09184 0.0
C243 C 0.25199 0.05214 0.04427 0.0
C244 C 0.27015 0.05822 0.03087 0.0
C245 C 0.2796 0.07037 0.06621 0.0
C246 C 0.28045 0.05161 0.98221 0.0
C247 C 0.28457 0.03258 0.97439 0.0
C248 C 0.28927 0.0648 0.94907 0.0
C249 C 0.30275 0.05931 0.91155 0.0
C250 C 0.30785 0.04039 0.90582 0.0
C251 C 0.22501 0.05188 0.11105 0.0
C252 C 0.22416 0.04259 0.1607 0.0
C253 C 0.20827 0.05739 0.08625 0.0
C254 C 0.19107 0.05445 0.11209 0.0
C255 C 0.19029 0.04591 0.1632 0.0
C256 C 0.20709 0.03961 0.18635 0.0
C257 C 0.29813 0.02703 0.93663 0.0
H258 H 0.28963 0.09072 0.28898 0.0
H259 H 0.26806 0.07771 0.22449 0.0
H260 H 0.30002 0.10195 0.09464 0.0
H261 H 0.32305 0.11263 0.15897 0.0
H262 H 0.24598 0.07686 0.16075 0.0
H263 H 0.294 0.07377 0.05758 0.0
H264 H 0.24478 0.04222 0.01852 0.0
H265 H 0.27816 0.02211 0.99972 0.0
H266 H 0.28647 0.07958 0.95442 0.0
H267 H 0.30993 0.07011 0.88934 0.0
H268 H 0.23689 0.03846 0.18107 0.0
H269 H 0.20857 0.06484 0.04838 0.0
H270 H 0.30139 0.0123 0.9328 0.0
H271 H 0.20723 0.03325 0.22584 0.0
H272 H 0.17844 0.05929 0.09265 0.0
C273 C 0.46644 0.29155 0.89025 0.0
C274 C 0.48075 0.30477 0.8982 0.0
C275 C 0.46164 0.27904 0.93148 0.0
C276 C 0.47131 0.27931 0.98077 0.0
C277 C 0.48643 0.2916 0.98711 0.0
C278 C 0.49108 0.30419 0.94638 0.0
C279 C 0.46311 0.2708 0.02963 0.0
C280 C 0.4671 0.25237 0.04612 0.0
C281 C 0.46109 0.24611 0.09715 0.0
C282 C 0.45105 0.25839 0.13081 0.0
C283 C 0.44704 0.27672 0.11473 0.0
C284 C 0.4528 0.28259 0.06359 0.0
C285 C 0.43867 0.29035 0.15322 0.0
C286 C 0.42434 0.28516 0.18888 0.0
C287 C 0.44579 0.30863 0.15623 0.0
C288 C 0.43891 0.32134 0.19389 0.0
C289 C 0.42475 0.31618 0.22996 0.0
C290 C 0.46608 0.22735 0.11849 0.0
C291 C 0.46017 0.21086 0.09266 0.0
C292 C 0.47491 0.22601 0.16892 0.0
C293 C 0.47691 0.20875 0.19436 0.0
C294 C 0.47 0.19229 0.17034 0.0
C295 C 0.46207 0.19348 0.11838 0.0
C296 C 0.41749 0.29795 0.22704 0.0
H297 H 0.45817 0.29174 0.85368 0.0
H298 H 0.44963 0.27002 0.9262 0.0
H299 H 0.49385 0.29233 0.02514 0.0
H300 H 0.50227 0.31408 0.95352 0.0
H301 H 0.47546 0.24332 0.02069 0.0
H302 H 0.44986 0.29676 0.05064 0.0
H303 H 0.44697 0.2538 0.17065 0.0
H304 H 0.41849 0.27122 0.18742 0.0
H305 H 0.45718 0.313 0.13064 0.0
H306 H 0.44523 0.33507 0.19601 0.0
H307 H 0.4532 0.21152 0.05394 0.0
H308 H 0.47976 0.23849 0.18953 0.0
H309 H 0.40658 0.29357 0.25433 0.0
H310 H 0.45657 0.18112 0.09864 0.0
H311 H 0.48357 0.20838 0.23354 0.0
Tb312 Tb 0.02247 1.00214 0.63268 0.0
C313 C 0.96404 0.99111 0.46872 0.0
C314 C 0.98196 0.97911 0.39395 0.0
C315 C 0.95061 0.96757 0.40894 0.0
C316 C 0.98036 0.99069 0.44008 0.0
C317 C 0.94868 0.98005 0.45239 0.0
C318 C 0.96723 0.96716 0.37958 0.0
C319 C 0.92982 0.99669 0.51682 0.0
N320 N 0.96266 1.00361 0.50961 0.0
C321 C 0.94537 0.00746 0.53075 0.0
C322 C 0.93159 0.98256 0.47834 0.0
Tb323 Tb 0.98958 0.0194 0.53489 0.0
N324 N 0.99427 1.00243 0.45556 0.0
C325 C 0.00968 1.00411 0.42306 0.0
C326 C 0.99803 0.98033 0.36262 0.0
C327 C 0.01185 0.99302 0.37699 0.0
H328 H 0.94359 0.0187 0.55942 0.0
H329 H 0.02418 0.99445 0.35224 0.0
H330 H 0.96833 0.95799 0.34485 0.0
H331 H 0.91644 0.99944 0.53538 0.0
H332 H 0.02057 0.01396 0.43078 0.0
H333 H 1.00007 0.03975 0.81464 0.0
H334 H 0.99965 0.97205 0.3263 0.0
H335 H 0.06573 0.99104 0.59686 0.0
H336 H 0.99603 0.0186 0.74033 0.0
H337 H 0.09765 1.00264 0.61292 0.0
H338 H 0.93908 0.95878 0.39633 0.0
H339 H 0.03022 0.05522 0.83086 0.0
H340 H 0.06357 0.05952 0.8047 0.0
H341 H 0.91948 0.97436 0.46704 0.0
H342 H 0.09017 0.04977 0.74898 0.0
N343 N 0.02394 0.02155 0.70865 0.0
C344 C 0.00956 0.02482 0.74425 0.0
C345 C 0.02864 0.04592 0.79658 0.0
C346 C 0.04357 0.04203 0.76242 0.0
C347 C 0.01166 0.03711 0.78776 0.0
C348 C 0.04084 0.02949 0.71887 0.0
H349 H 0.10308 0.02834 0.67809 0.0
N350 N 0.05291 0.01068 0.65007 0.0
C351 C 0.08602 0.0089 0.63409 0.0
C352 C 0.05581 0.02396 0.68812 0.0
C353 C 0.0679 1.0024 0.62508 0.0
C354 C 0.089 0.02343 0.67072 0.0
C355 C 0.07389 0.03081 0.69931 0.0
O356 O 0.03945 0.98121 0.66729 0.0
O357 O 0.00451 0.99531 0.56473 0.0
O358 O 0.97316 0.00606 0.59877 0.0
O359 O 0.99455 1.00041 0.66791 0.0
O360 O 0.0313 0.98544 0.56336 0.0
O361 O 0.00992 0.97824 0.66594 0.0
O362 O 0.96856 0.03925 0.52069 0.0
O363 O 0.0082 0.0264 0.60123 0.0
O364 O 0.03931 0.01543 0.57009 0.0
O365 O 0.01773 0.02867 0.51091 0.0
O366 O 0.98208 0.0378 0.60211 0.0
O367 O 0.99479 0.04112 0.47996 0.0
C368 C 0.01555 0.98486 0.5386 0.0
C369 C 0.02718 0.95139 0.64395 0.0
C370 C 0.01209 0.92246 0.61434 0.0
C371 C 0.01205 0.93897 0.64539 0.0
C372 C 0.0276 0.9184 0.58183 0.0
C373 C 0.0427 0.94693 0.61171 0.0
C374 C 0.04282 0.93056 0.58076 0.0
C375 C 0.97732 1.00121 0.64876 0.0
C376 C 0.02567 0.96964 0.67201 0.0
C377 C 0.07644 0.04418 0.74019 0.0
C378 C 0.0613 0.04973 0.77187 0.0
C379 C 0.99793 0.03785 0.62643 0.0
C380 C 0.98188 0.06924 0.51486 0.0
C381 C 0.99848 0.07919 0.50613 0.0
C382 C 1.00117 0.0969 0.52948 0.0
C383 C 0.98718 0.10462 0.56225 0.0
C384 C 0.96794 0.07731 0.54739 0.0
C385 C 0.97068 0.09482 0.57122 0.0
C386 C 0.03507 0.02504 0.52643 0.0
C387 C 0.97962 0.04998 0.49357 0.0
H388 H 1.00022 0.94221 0.67094 0.0
H389 H 0.02794 0.90587 0.55716 0.0
H390 H 0.05455 0.95626 0.60931 0.0
H391 H 0.05469 0.92737 0.55547 0.0
H392 H 0.00923 0.07336 0.48043 0.0
H393 H 0.98899 0.1183 0.58046 0.0
H394 H 0.95501 0.06998 0.55516 0.0
H395 H 0.95995 0.10084 0.59656 0.0
Tb396 Tb 0.50966 0.03153 0.63593 0.0
C397 C 0.53204 0.95748 0.52712 0.0
C398 C 0.55159 0.96565 0.45165 0.0
C399 C 0.55555 0.93557 0.49531 0.0
C400 C 0.53741 0.9702 0.48875 0.0
C401 C 0.54073 0.93983 0.53021 0.0
C402 C 0.56096 0.94846 0.45599 0.0
C403 C 0.51826 0.93129 0.59813 0.0
N404 N 0.51759 0.96208 0.55965 0.0
C405 C 0.51008 0.94897 0.59335 0.0
C406 C 0.53385 0.92679 0.56701 0.0
Tb407 Tb 0.50491 0.99129 0.54848 0.0
N408 N 0.52805 0.98667 0.48604 0.0
C409 C 0.53135 0.99864 0.44431 0.0
C410 C 0.55547 0.9782 0.4102 0.0
C411 C 0.54503 0.99461 0.406 0.0
H412 H 0.49812 0.95235 0.61792 0.0
H413 H 0.54747 1.0042 0.37319 0.0
H414 H 0.57204 0.9448 0.42825 0.0
H415 H 0.51259 0.92119 0.62595 0.0
H416 H 0.52366 0.01148 0.44028 0.0
H417 H 0.46755 0.01659 0.81188 0.0
H418 H 0.56613 0.97515 0.38055 0.0
H419 H 0.51524 0.07111 0.56888 0.0
H420 H 0.49217 0.01079 0.74616 0.0
H421 H 0.49994 0.10193 0.56266 0.0
H422 H 0.56254 0.92215 0.49735 0.0
H423 H 0.44802 0.04498 0.80544 0.0
H424 H 0.44128 0.07542 0.75925 0.0
H425 H 0.54015 0.91308 0.57067 0.0
H426 H 0.45008 0.09874 0.69122 0.0
N427 N 0.48695 0.0355 0.70059 0.0
C428 C 0.48409 0.02334 0.74221 0.0
C429 C 0.45895 0.04254 0.77613 0.0
C430 C 0.46252 0.05546 0.7354 0.0
C431 C 0.46998 0.02655 0.77998 0.0
C432 C 0.47692 0.05157 0.69827 0.0
H433 H 0.47222 0.10892 0.6185 0.0
N434 N 0.49626 0.06056 0.62731 0.0
C435 C 0.49461 0.09153 0.59014 0.0
C436 C 0.48175 0.06458 0.66019 0.0
C437 C 0.50329 0.07405 0.59395 0.0
C438 C 0.47893 0.09539 0.62155 0.0
C439 C 0.47249 0.08196 0.6578 0.0
O440 O 0.53018 0.05177 0.65103 0.0
O441 O 0.5233 0.01223 0.58134 0.0
O442 O 0.52363 0.98342 0.61426 0.0
O443 O 0.51435 1.0049 0.67986 0.0
O444 O 0.53088 0.03948 0.57634 0.0
O445 O 0.52436 0.0303 0.70934 0.0
O446 O 0.48322 0.97229 0.53288 0.0
O447 O 0.49137 0.01072 0.60249 0.0
O448 O 0.49097 0.03935 0.56987 0.0
O449 O 0.50011 0.01783 0.50428 0.0
O450 O 0.48307 0.98364 0.60667 0.0
O451 O 0.49284 0.99117 0.47129 0.0
C452 C 0.5343 0.02312 0.55754 0.0
C453 C 0.55565 0.04033 0.69897 0.0
C454 C 0.5825 0.01949 0.69069 0.0
C455 C 0.56314 0.02256 0.68794 0.0
C456 C 0.59428 0.03474 0.7026 0.0
C457 C 0.56762 0.05527 0.71072 0.0
C458 C 0.58686 0.05249 0.71215 0.0
C459 C 0.52219 0.98878 0.66526 0.0
C460 C 0.53552 0.04385 0.69541 0.0
C461 C 0.45753 0.08556 0.69281 0.0
C462 C 0.45253 0.07231 0.73156 0.0
C463 C 0.48011 1.00003 0.62594 0.0
C464 C 0.4607 0.98316 0.47184 0.0
C465 C 0.45508 1.00116 0.45608 0.0
C466 C 0.43638 1.0047 0.44276 0.0
C467 C 0.42325 0.99017 0.44625 0.0
C468 C 0.4474 0.96882 0.47503 0.0
C469 C 0.42876 0.97236 0.4625 0.0
C470 C 0.49231 0.03396 0.51885 0.0
C471 C 0.48027 0.9789 0.48488 0.0
H472 H 0.55391 0.01115 0.67749 0.0
H473 H 0.60922 0.0329 0.70637 0.0
H474 H 0.56207 0.06912 0.71847 0.0
H475 H 0.59605 0.06406 0.72151 0.0
H476 H 0.46522 0.01229 0.45286 0.0
H477 H 0.40871 0.99263 0.43661 0.0
H478 H 0.45146 0.95486 0.48717 0.0
H479 H 0.41857 0.96125 0.46515 0.0
Tb480 Tb 0.52827 0.50659 0.54232 0.0
C481 C 0.45051 0.49259 0.6378 0.0
C482 C 0.4283 0.50668 0.57675 0.0
C483 C 0.41871 0.48085 0.63355 0.0
C484 C 0.44651 0.50539 0.59805 0.0
C485 C 0.43661 0.48033 0.65666 0.0
C486 C 0.41454 0.49408 0.59386 0.0
C487 C 0.45849 0.46941 0.72362 0.0
N488 N 0.46782 0.4928 0.65988 0.0
C489 C 0.47174 0.48198 0.70391 0.0
C490 C 0.44092 0.46841 0.69945 0.0
Tb491 Tb 0.48824 0.5145 0.6265 0.0
N492 N 0.46016 0.51736 0.58273 0.0
C493 C 0.45613 0.53165 0.54809 0.0
C494 C 0.42432 0.52097 0.54022 0.0
C495 C 0.4383 0.53351 0.52587 0.0
H496 H 0.48528 0.48261 0.72294 0.0
H497 H 0.43533 0.54469 0.49793 0.0
H498 H 0.40053 0.49471 0.57748 0.0
H499 H 0.46185 0.46053 0.75746 0.0
H500 H 0.46664 0.54163 0.53684 0.0
H501 H 0.57965 0.47116 0.66511 0.0
H502 H 0.41046 0.52257 0.52336 0.0
H503 H 0.5326 0.54084 0.45362 0.0
H504 H 0.54856 0.47669 0.62813 0.0
H505 H 0.55695 0.56288 0.42406 0.0
H506 H 0.40787 0.47147 0.6472 0.0
H507 H 0.60565 0.4923 0.64246 0.0
H508 H 0.61696 0.52066 0.59303 0.0
H509 H 0.43064 0.45876 0.71503 0.0
H510 H 0.61064 0.54608 0.52909 0.0
N511 N 0.55618 0.50135 0.58523 0.0
C512 C 0.5595 0.48626 0.61763 0.0
C513 C 0.59187 0.49498 0.62625 0.0
C514 C 0.58858 0.5102 0.59238 0.0
C515 C 0.57725 0.483 0.639 0.0
C516 C 0.57042 0.51293 0.57191 0.0
H517 H 0.58832 0.56191 0.46574 0.0
N518 N 0.54968 0.52816 0.51365 0.0
C519 C 0.55996 0.55289 0.45551 0.0
C520 C 0.56699 0.52695 0.53529 0.0
C521 C 0.54621 0.54037 0.47238 0.0
C522 C 0.57761 0.55234 0.47927 0.0
C523 C 0.58144 0.53901 0.51885 0.0
O524 O 0.5334 0.50199 0.46023 0.0
O525 O 0.49825 0.50609 0.54842 0.0
O526 O 0.48836 0.4847 0.60658 0.0
O527 O 0.51981 0.48077 0.58558 0.0
O528 O 0.50896 0.51576 0.47847 0.0
O529 O 0.53735 0.47988 0.51819 0.0
O530 O 0.48538 0.52205 0.70809 0.0
O531 O 0.51825 0.51498 0.62002 0.0
O532 O 0.52796 0.5362 0.56517 0.0
O533 O 0.49626 0.54002 0.5814 0.0
O534 O 0.5077 0.50622 0.69115 0.0
O535 O 0.47524 0.54001 0.64474 0.0
C536 C 0.49365 0.51195 0.50258 0.0
C537 C 0.52666 0.47176 0.43107 0.0
C538 C 0.49899 0.45355 0.40861 0.0
C539 C 0.50916 0.46453 0.44542 0.0
C540 C 0.50663 0.4499 0.35737 0.0
C541 C 0.53401 0.468 0.37994 0.0
C542 C 0.52402 0.45709 0.34327 0.0
C543 C 0.5033 0.47399 0.60032 0.0
C544 C 0.53688 0.48433 0.46726 0.0
C545 C 0.59936 0.53692 0.54099 0.0
C546 C 0.60296 0.52245 0.57737 0.0
C547 C 0.52297 0.50935 0.666 0.0
C548 C 0.48411 0.55436 0.72609 0.0
C549 C 0.50075 0.56353 0.71228 0.0
C550 C 0.50585 0.58007 0.73931 0.0
C551 C 0.49447 0.58692 0.78114 0.0
C552 C 0.47297 0.56136 0.76786 0.0
C553 C 0.47819 0.57755 0.79544 0.0
C554 C 0.51288 0.54686 0.56838 0.0
C555 C 0.47753 0.53794 0.6964 0.0
H556 H 0.50338 0.46765 0.48471 0.0
H557 H 0.49934 0.44115 0.32849 0.0
H558 H 0.54741 0.47366 0.36822 0.0
H559 H 0.52977 0.45417 0.30382 0.0
H560 H 0.5094 0.5581 0.68009 0.0
H561 H 0.49827 0.59948 0.80315 0.0
H562 H 0.46012 0.55438 0.77884 0.0
H563 H 0.46955 0.58291 0.82771 0.0
Tb564 Tb 0.0123 0.53255 0.54808 0.0
C565 C 0.03091 0.45197 0.615 0.0
C566 C 0.01861 0.4312 0.54659 0.0
C567 C 0.04584 0.42196 0.5985 0.0
C568 C 0.01819 0.44839 0.57471 0.0
C569 C 0.04466 0.43865 0.62835 0.0
C570 C 0.0328 0.41822 0.5577 0.0
C571 C 0.0537 0.45844 0.70305 0.0
N572 N 0.02914 0.46814 0.64314 0.0
C573 C 0.03978 0.47116 0.68835 0.0
C574 C 0.05636 0.44224 0.6724 0.0
Tb575 Tb 0.00602 0.48828 0.61596 0.0
N576 N 0.00475 0.46134 0.56519 0.0
C577 C 0.99036 0.45717 0.53086 0.0
C578 C 0.00444 0.42734 0.50943 0.0
C579 C 0.9901 0.44028 0.50216 0.0
H580 H 0.03798 0.48372 0.71206 0.0
H581 H 0.97886 0.43731 0.47421 0.0
H582 H 0.03351 0.40505 0.53601 0.0
H583 H 0.06242 0.46119 0.73784 0.0
H584 H 0.97915 0.46689 0.52436 0.0
H585 H 0.03841 0.5837 0.69081 0.0
H586 H 1.00422 0.41429 0.48707 0.0
H587 H 0.98044 0.53661 0.45139 0.0
H588 H 0.03849 0.55404 0.64097 0.0
H589 H 0.95593 0.55894 0.42475 0.0
H590 H 0.05642 0.41162 0.60772 0.0
H591 H 0.01301 0.60659 0.67668 0.0
H592 H 0.98392 0.61564 0.6264 0.0
H593 H 0.06711 0.43238 0.68392 0.0
H594 H 0.9613 0.60881 0.5541 0.0
N595 N 0.01311 0.55948 0.59888 0.0
C596 C 0.02729 0.56374 0.63384 0.0
C597 C 0.01299 0.59353 0.65435 0.0
C598 C 0.99902 0.58957 0.61661 0.0
C599 C 0.02734 0.58066 0.66237 0.0
C600 C 0.99966 0.57235 0.58865 0.0
H601 H 0.95092 0.58782 0.47806 0.0
N602 N 0.98905 0.55242 0.52014 0.0
C603 C 0.96454 0.56181 0.45968 0.0
C604 C 0.98711 0.56864 0.54798 0.0
C605 C 0.97851 0.54921 0.47485 0.0
C606 C 0.96172 0.57806 0.48996 0.0
C607 C 0.9733 0.58183 0.53415 0.0
O608 O 0.01917 0.54144 0.47029 0.0
O609 O 0.01432 0.50241 0.54365 0.0
O610 O 0.03579 0.49198 0.59887 0.0
O611 O 0.03726 0.52447 0.59596 0.0
O612 O 0.00675 0.51567 0.47494 0.0
O613 O 0.03874 0.54448 0.53608 0.0
O614 O 0.99955 0.4793 0.69396 0.0
O615 O 1.00407 0.5184 0.62042 0.0
O616 O 0.98258 0.52894 0.56554 0.0
O617 O 0.98107 0.49645 0.56799 0.0
O618 O 0.01178 0.50514 0.68896 0.0
O619 O 0.97934 0.47708 0.62955 0.0
C620 C 0.01022 0.49957 0.49494 0.0
C621 C 0.05077 0.53909 0.44914 0.0
C622 C 0.07097 0.51398 0.41764 0.0
C623 C 0.05755 0.52073 0.45399 0.0
C624 C 0.07757 0.52584 0.37679 0.0
C625 C 0.05749 0.55069 0.40828 0.0
C626 C 0.07087 0.54407 0.37228 0.0
C627 C 0.04519 0.50786 0.60372 0.0
C628 C 0.03602 0.54615 0.48437 0.0
C629 C 0.97192 0.59857 0.56373 0.0
C630 C 0.98479 0.60245 0.60487 0.0
C631 C 0.00816 0.52123 0.66913 0.0
C632 C 0.96833 0.48325 0.71743 0.0
C633 C 0.96085 0.50117 0.70896 0.0
C634 C 0.94802 0.50877 0.74578 0.0
C635 C 0.94293 0.49825 0.79127 0.0
C636 C 0.96311 0.47302 0.7629 0.0
C637 C 0.95047 0.48052 0.79969 0.0
C638 C 0.97317 0.51309 0.5605 0.0
C639 C 0.98239 0.47539 0.68113 0.0
H640 H 0.05219 0.51169 0.48526 0.0
H641 H 0.08816 0.5211 0.34878 0.0
H642 H 0.05227 0.56483 0.40399 0.0
H643 H 0.07606 0.55309 0.34079 0.0
H644 H 0.96511 0.50921 0.67424 0.0
H645 H 0.9328 0.50356 0.81983 0.0
H646 H 0.96894 0.45927 0.77013 0.0
H647 H 0.94642 0.47254 0.8347 0.0
H648 H 0.16166 0.07162 0.16933 0.0
H649 H 0.1342 0.07085 0.22797 0.0
H650 H 0.15116 0.01704 0.28794 0.0
H651 H 0.17832 0.01739 0.22865 0.0
H652 H 0.10422 0.04198 0.23987 0.0
H653 H 0.14724 0.05236 0.42387 0.0
H654 H 0.15566 0.05777 0.3572 0.0
H655 H 0.15493 0.03394 0.37961 0.0
C656 C 0.15939 0.05942 0.1941 0.0
C657 C 0.17243 0.04464 0.19437 0.0
C658 C 0.14371 0.05908 0.22793 0.0
C659 C 0.14078 0.04404 0.26305 0.0
C660 C 0.15331 0.02896 0.26191 0.0
H661 H 0.06846 0.00748 0.51365 0.0
H662 H 0.09325 0.01444 0.45031 0.0
C663 C 0.16889 0.02922 0.22798 0.0
C664 C 0.125 0.04423 0.30213 0.0
H665 H 0.11552 0.04427 0.43704 0.0
C666 C 0.10662 0.04268 0.28298 0.0
C667 C 0.12816 0.04521 0.35836 0.0
C668 C 0.14753 0.04757 0.38122 0.0
C669 C 0.09139 0.04117 0.31864 0.0
C670 C 0.0946 0.04169 0.37506 0.0
C671 C 0.11298 0.04386 0.39395 0.0
C672 C 0.07945 0.0384 0.41524 0.0
C673 C 0.07214 0.03814 0.29554 0.0
C674 C 0.0634 0.04973 0.41783 0.0
C675 C 0.04906 0.04574 0.45463 0.0
C676 C 0.05066 0.03057 0.49027 0.0
C677 C 0.06694 0.0196 0.48829 0.0
C678 C 0.08111 0.02347 0.45145 0.0
H679 H 0.07263 0.03379 0.25253 0.0
H680 H 0.06448 0.02732 0.31857 0.0
H681 H 0.06414 0.0514 0.29814 0.0
H682 H 0.0619 0.06161 0.39129 0.0
H683 H 0.03671 0.05445 0.455 0.0
H684 H 0.47732 0.15661 0.13268 0.0
H685 H 0.47811 0.12745 0.18452 0.0
H686 H 0.46473 0.15819 0.32915 0.0
H687 H 0.46325 0.18709 0.27779 0.0
H688 H 0.50168 0.11989 0.27588 0.0
H689 H 0.42701 0.11571 0.33539 0.0
H690 H 0.43444 0.12749 0.27481 0.0
H691 H 0.43794 0.13814 0.33969 0.0
C692 C 0.47426 0.15712 0.17536 0.0
C693 C 0.47029 0.17429 0.20092 0.0
C694 C 0.47479 0.14045 0.20499 0.0
C695 C 0.47113 0.14055 0.26062 0.0
C696 C 0.46717 0.15763 0.28613 0.0
H697 H 0.47135 0.06577 0.53117 0.0
H698 H 0.46615 0.09041 0.46541 0.0
C699 C 0.46663 0.17425 0.25669 0.0
C700 C 0.47246 0.12307 0.29287 0.0
H701 H 0.44772 0.09458 0.37672 0.0
C702 C 0.48985 0.11419 0.29744 0.0
C703 C 0.45707 0.11581 0.32159 0.0
C704 C 0.438 0.12463 0.31755 0.0
C705 C 0.49246 0.09872 0.33149 0.0
C706 C 0.47705 0.09137 0.36027 0.0
C707 C 0.45954 0.10006 0.35465 0.0
C708 C 0.47907 0.07554 0.39904 0.0
C709 C 0.51198 0.09113 0.33836 0.0
C710 C 0.48742 0.05852 0.38373 0.0
C711 C 0.49113 0.04465 0.4221 0.0
C712 C 0.4862 0.04734 0.47644 0.0
C713 C 0.4763 0.06364 0.49047 0.0
C714 C 0.47303 0.07766 0.45251 0.0
H715 H 0.5227 0.10147 0.32612 0.0
H716 H 0.5147 0.08712 0.38082 0.0
H717 H 0.51371 0.07856 0.31249 0.0
H718 H 0.49149 0.0561 0.34232 0.0
H719 H 0.49828 0.03207 0.40931 0.0
H720 H 0.34135 0.51088 0.24439 0.0
H721 H 0.37003 0.51197 0.29762 0.0
H722 H 0.38951 0.46178 0.21926 0.0
H723 H 0.36054 0.46021 0.16663 0.0
H724 H 0.38319 0.4802 0.36791 0.0
H725 H 0.43365 0.50156 0.20965 0.0
H726 H 0.40895 0.50608 0.20331 0.0
H727 H 0.41766 0.48275 0.19514 0.0
C728 C 0.35166 0.50001 0.23834 0.0
C729 C 0.34845 0.48537 0.20125 0.0
C730 C 0.36812 0.50071 0.26875 0.0
C731 C 0.38192 0.48697 0.26248 0.0
C732 C 0.37911 0.47263 0.22447 0.0
H733 H 0.47141 0.48062 0.51175 0.0
H734 H 0.44523 0.47162 0.45383 0.0
C735 C 0.36256 0.47183 0.19415 0.0
C736 C 0.39885 0.48745 0.29742 0.0
H737 H 0.44521 0.49827 0.29755 0.0
C738 C 0.39681 0.48411 0.35271 0.0
C739 C 0.41659 0.49228 0.2773 0.0
C740 C 0.41951 0.49597 0.21815 0.0
C741 C 0.41183 0.48623 0.38892 0.0
C742 C 0.42957 0.49189 0.36931 0.0
C743 C 0.43168 0.49433 0.31329 0.0
C744 C 0.44571 0.49683 0.40556 0.0
C745 C 0.4081 0.48292 0.4478 0.0
C746 C 0.45544 0.51367 0.39728 0.0
C747 C 0.47084 0.51847 0.42921 0.0
C748 C 0.47661 0.50692 0.4716 0.0
C749 C 0.46697 0.49009 0.48037 0.0
C750 C 0.45187 0.48497 0.44722 0.0
H751 H 0.39308 0.48456 0.45774 0.0
H752 H 0.41223 0.46841 0.45811 0.0
H753 H 0.41616 0.49265 0.47328 0.0
H754 H 0.45115 0.5232 0.36582 0.0
H755 H 0.47815 0.53141 0.42116 0.0
H756 H 0.05806 0.34949 0.23342 0.0
H757 H 0.05381 0.37702 0.29055 0.0
H758 H 1.00135 0.38848 0.21222 0.0
H759 H 0.0055 0.36085 0.15463 0.0
H760 H 0.0508 0.41369 0.26605 0.0
H761 H 0.98619 0.39098 0.36881 0.0
H762 H 1.00009 0.37524 0.32845 0.0
H763 H 0.98413 0.39122 0.29674 0.0
C764 C 0.04565 0.3579 0.22783 0.0
C765 C 0.03216 0.35284 0.18894 0.0
C766 C 0.04319 0.37365 0.26094 0.0
C767 C 0.02713 0.3848 0.25655 0.0
C768 C 0.01367 0.37992 0.21755 0.0
H769 H 0.98877 0.48729 0.41248 0.0
H770 H 0.99364 0.45991 0.35428 0.0
C771 C 0.01609 0.36409 0.18441 0.0
C772 C 0.0248 0.4017 0.29197 0.0
H773 H 0.99569 0.42238 0.38388 0.0
C774 C 0.03878 0.4155 0.29201 0.0
C775 C 0.00917 0.40419 0.32618 0.0
C776 C 0.99412 0.38955 0.3306 0.0
C777 C 0.03737 0.43176 0.32415 0.0
C778 C 0.02171 0.43429 0.35807 0.0
C779 C 0.00774 0.4205 0.3581 0.0
C780 C 0.01932 0.4513 0.39286 0.0
C781 C 0.05247 0.44633 0.32069 0.0
C782 C 0.03217 0.45577 0.43401 0.0
C783 C 0.02929 0.47139 0.46764 0.0
C784 C 0.01338 0.48267 0.46124 0.0
C785 C 1.00092 0.47857 0.41903 0.0
C786 C 1.00371 0.46293 0.38575 0.0
H787 H 0.06168 0.44411 0.2853 0.0
H788 H 0.04636 0.46058 0.31857 0.0
H789 H 0.06115 0.44558 0.35755 0.0
H790 H 0.04422 0.44697 0.44094 0.0
H791 H 0.03943 0.47457 0.49877 0.0
H792 H 0.82872 0.00615 0.93998 0.0
H793 H 0.85549 0.00925 0.87961 0.0
H794 H 0.88553 0.96809 0.97179 0.0
H795 H 0.85884 0.96489 0.0323 0.0
H796 H 0.8923 0.01914 0.89609 0.0
H797 H 0.88821 0.94607 0.82083 0.0
H798 H 0.86981 0.95671 0.85987 0.0
H799 H 0.89044 0.94802 0.89268 0.0
C800 C 0.84111 0.99794 0.94797 0.0
C801 C 0.8415 0.98515 0.99093 0.0
C802 C 0.85639 0.99965 0.91312 0.0
C803 C 0.87242 0.98859 0.92024 0.0
C804 C 0.87316 0.97639 0.96438 0.0
H805 H 0.97679 0.97849 0.7375 0.0
H806 H 0.95181 0.97536 0.8045 0.0
C807 C 0.85787 0.97463 0.99913 0.0
C808 C 0.88825 0.98975 0.88128 0.0
H809 H 0.9141 0.96394 0.79195 0.0
C810 C 0.89702 0.00707 0.87328 0.0
C811 C 0.8945 0.974 0.85141 0.0
C812 C 0.88517 0.95518 0.85613 0.0
C813 C 0.91192 0.00903 0.83683 0.0
C814 C 0.91806 0.99332 0.8067 0.0
C815 C 0.90943 0.97597 0.81505 0.0
C816 C 0.93307 0.99477 0.76533 0.0
C817 C 0.92114 0.02789 0.83151 0.0
C818 C 0.93078 0.00642 0.72046 0.0
C819 C 0.94498 0.00818 0.68218 0.0
C820 C 0.96177 0.99816 0.68738 0.0
C821 C 0.96398 0.9863 0.73204 0.0
C822 C 0.94972 0.9845 0.77036 0.0
H823 H 0.91842 0.03693 0.86716 0.0
H824 H 0.93646 0.02641 0.82641 0.0
H825 H 0.91548 0.03507 0.79548 0.0
H826 H 0.91802 0.01434 0.71524 0.0
H827 H 0.94302 0.01795 0.64967 0.0
H828 H 0.52375 0.86293 0.03425 0.0
H829 H 0.51991 0.89011 0.97559 0.0
H830 H 0.57382 0.87958 0.90542 0.0
H831 H 0.57757 0.85207 0.96211 0.0
H832 H 0.56492 0.91952 0.9361 0.0
H833 H 0.51194 0.88433 0.80644 0.0
H834 H 0.50826 0.8835 0.87811 0.0
H835 H 0.52778 0.87144 0.84908 0.0
C836 C 0.53479 0.86629 1.00626 0.0
C837 C 0.55097 0.85512 1.0032 0.0
C838 C 0.5326 0.88192 0.97292 0.0
C839 C 0.54655 0.88682 0.93597 0.0
C840 C 0.56291 0.87611 0.93381 0.0
H841 H 0.54377 0.95737 0.6529 0.0
H842 H 0.55044 0.93334 0.71993 0.0
C843 C 0.56507 0.86041 0.96672 0.0
C844 C 0.54382 0.90261 0.89793 0.0
H845 H 0.51907 0.9157 0.7864 0.0
C846 C 0.55485 0.91874 0.90349 0.0
C847 C 0.53084 0.90146 0.85502 0.0
C848 C 0.51906 0.88424 0.84623 0.0
C849 C 0.55303 0.93385 0.86763 0.0
C850 C 0.53992 0.93274 0.82509 0.0
C851 C 0.52905 0.91654 0.81922 0.0
C852 C 0.53727 0.94814 0.7858 0.0
C853 C 0.56525 0.95083 0.87488 0.0
C854 C 0.52789 0.96459 0.80069 0.0
C855 C 0.52363 0.9782 0.76205 0.0
C856 C 0.52863 0.97558 0.7077 0.0
C857 C 0.53899 0.95953 0.69377 0.0
C858 C 0.54302 0.94585 0.7322 0.0
H859 H 0.5765 0.94849 0.90494 0.0
H860 H 0.57167 0.95479 0.83593 0.0
H861 H 0.55657 0.96279 0.88862 0.0
H862 H 0.52332 0.96663 0.84187 0.0
H863 H 0.51594 0.99046 0.77466 0.0
H864 H 0.65326 0.56161 1.00319 0.0
H865 H 0.6254 0.5577 0.94677 0.0
H866 H 0.64975 0.50872 0.87349 0.0
H867 H 0.67773 0.51264 0.92916 0.0
H868 H 0.63516 0.53644 0.79921 0.0
H869 H 0.58382 0.51698 0.95673 0.0
H870 H 0.59759 0.53757 0.96938 0.0
H871 H 0.6087 0.51509 0.96715 0.0
C872 C 0.65267 0.54994 0.97526 0.0
C873 C 0.66777 0.53741 0.97093 0.0
C874 C 0.63666 0.54766 0.94327 0.0
C875 C 0.6354 0.53284 0.90611 0.0
C876 C 0.65035 0.52022 0.90204 0.0
H877 H 0.53814 0.4885 0.74506 0.0
H878 H 0.56576 0.49518 0.79976 0.0
C879 C 0.6663 0.5224 0.93426 0.0
C880 C 0.61889 0.53085 0.86987 0.0
H881 H 0.57237 0.52055 0.86839 0.0
C882 C 0.6214 0.53294 0.8142 0.0
C883 C 0.60095 0.52641 0.88953 0.0
C884 C 0.59749 0.52374 0.94891 0.0
C885 C 0.6066 0.53038 0.7775 0.0
C886 C 0.58859 0.52562 0.79686 0.0
C887 C 0.58608 0.52397 0.85295 0.0
C888 C 0.57237 0.5213 0.76032 0.0
C889 C 0.61077 0.53232 0.71838 0.0
C890 C 0.56671 0.53354 0.719 0.0
C891 C 0.55117 0.52936 0.68642 0.0
C892 C 0.54069 0.51306 0.69522 0.0
C893 C 0.54612 0.50103 0.73691 0.0
C894 C 0.56187 0.50494 0.76845 0.0
H895 H 0.62577 0.52991 0.70954 0.0
H896 H 0.60246 0.52231 0.69448 0.0
H897 H 0.60721 0.54669 0.70526 0.0
H898 H 0.57399 0.54659 0.71266 0.0
H899 H 0.54698 0.53923 0.65579 0.0
H900 H 0.98675 0.64979 0.03613 0.0
H901 H 0.98844 0.62178 0.97897 0.0
H902 H 0.99844 0.6563 0.84021 0.0
H903 H 0.99676 0.68427 0.89678 0.0
H904 H 0.96759 0.6104 0.89085 0.0
H905 H 0.04141 0.61967 0.83073 0.0
H906 H 0.03098 0.63292 0.88486 0.0
H907 H 0.02699 0.63951 0.81591 0.0
C908 C 0.98929 0.65146 0.99345 0.0
C909 C 0.99185 0.66941 0.97146 0.0
C910 C 0.99028 0.63538 0.96073 0.0
C911 C 0.99389 0.6368 0.90522 0.0
C912 C 0.99613 0.6547 0.88304 0.0
H913 H 0.97893 0.5463 0.66456 0.0
H914 H 0.97415 0.57401 0.72194 0.0
C915 C 0.99521 0.67075 0.91566 0.0
C916 C 0.99525 0.61964 0.87051 0.0
H917 H 0.0244 0.59608 0.78485 0.0
C918 C 0.98004 0.60724 0.86779 0.0
C919 C 0.01151 0.61534 0.84052 0.0
C920 C 0.02872 0.62745 0.84341 0.0
C921 C 0.9806 0.59085 0.83587 0.0
C922 C 0.99675 0.58676 0.80508 0.0
C923 C 0.01195 0.59915 0.80801 0.0
C924 C 0.99869 0.56939 0.7714 0.0
C925 C 0.96403 0.57788 0.83648 0.0
C926 C 0.01405 0.55748 0.77941 0.0
C927 C 0.01691 0.54188 0.74612 0.0
C928 C 0.00473 0.53799 0.70315 0.0
C929 C 0.98891 0.54936 0.69622 0.0
C930 C 0.98601 0.56503 0.7297 0.0
H931 H 0.9552 0.58016 0.87265 0.0
H932 H 0.95529 0.58057 0.80039 0.0
H933 H 0.96851 0.56302 0.83548 0.0
H934 H 0.02398 0.56034 0.81136 0.0
H935 H 0.02896 0.53306 0.7532 0.0
H936 H 0.07622 0.1819 0.20949 0.0
H937 H 0.07363 0.15882 0.28047 0.0
H938 H 0.10933 0.19234 0.38275 0.0
H939 H 0.11067 0.21636 0.31239 0.0
H940 H 0.09258 0.13677 0.34083 0.0
H941 H 0.06444 0.19348 0.47273 0.0
H942 H 0.07035 0.1977 0.40355 0.0
H943 H 0.08843 0.19552 0.45367 0.0
C944 C 0.0839 0.18414 0.24662 0.0
C945 C 0.09345 0.20095 0.25587 0.0
C946 C 0.08244 0.17091 0.28734 0.0
C947 C 0.09078 0.17406 0.33788 0.0
C948 C 0.10214 0.18991 0.34499 0.0
H949 H 0.03792 0.08665 0.5378 0.0
H950 H 0.06513 0.1044 0.50632 0.0
C951 C 0.10311 0.20351 0.30465 0.0
C952 C 0.0852 0.16193 0.38364 0.0
H953 H 0.05864 0.16299 0.49759 0.0
C954 C 0.08541 0.14245 0.37569 0.0
C955 C 0.07606 0.16937 0.42966 0.0
C956 C 0.07465 0.19013 0.44049 0.0
C957 C 0.0748 0.13047 0.40817 0.0
C958 C 0.06448 0.13815 0.45156 0.0
C959 C 0.06635 0.15724 0.46377 0.0
C960 C 0.04889 0.12788 0.47732 0.0
C961 C 0.07339 0.11008 0.39244 0.0
C962 C 0.03087 0.13556 0.47425 0.0
C963 C 0.01554 0.12577 0.49356 0.0
C964 C 0.01784 0.10794 0.51562 0.0
C965 C 0.03587 0.10037 0.52043 0.0
C966 C 0.05136 0.11042 0.5021 0.0
H967 H 0.07991 0.10715 0.35271 0.0
H968 H 0.08064 0.10144 0.42299 0.0
H969 H 0.05858 0.10559 0.39059 0.0
H970 H 0.02853 0.14895 0.45514 0.0
H971 H 1.00176 0.1318 0.48899 0.0
H972 H 0.31792 0.07978 0.31472 0.0
H973 H 0.34677 0.07909 0.36407 0.0
H974 H 0.36634 0.12742 0.27789 0.0
H975 H 0.33663 0.1289 0.22905 0.0
H976 H 0.38928 0.09729 0.266 0.0
H977 H 0.37527 0.10583 0.48169 0.0
H978 H 0.35735 0.09132 0.45354 0.0
H979 H 0.35979 0.11512 0.43071 0.0
C980 C 0.32776 0.09096 0.3077 0.0
C981 C 0.32474 0.10437 0.26728 0.0
C982 C 0.34445 0.09051 0.33631 0.0
C983 C 0.35868 0.10334 0.32529 0.0
C984 C 0.35546 0.11747 0.28735 0.0
H985 H 0.44364 0.03874 0.48912 0.0
H986 H 0.43182 0.0694 0.46011 0.0
C987 C 0.33852 0.11813 0.25905 0.0
C988 C 0.37763 0.09923 0.34592 0.0
H989 H 0.39661 0.07932 0.45755 0.0
C990 C 0.39128 0.09403 0.30826 0.0
C991 C 0.38073 0.09557 0.40113 0.0
C992 C 0.36754 0.1025 0.44401 0.0
C993 C 0.40629 0.0826 0.32329 0.0
C994 C 0.40736 0.07606 0.37689 0.0
C995 C 0.39552 0.08384 0.41602 0.0
C996 C 0.41729 0.0585 0.39019 0.0
C997 C 0.42008 0.0766 0.2808 0.0
C998 C 0.41298 0.04224 0.36072 0.0
C999 C 0.41961 0.02489 0.37719 0.0
C1000 C 0.43058 0.02338 0.42375 0.0
C1001 C 0.43537 0.03964 0.45265 0.0
C1002 C 0.42865 0.0571 0.43616 0.0
H1003 H 0.42305 0.08835 0.25302 0.0
H1004 H 0.43341 0.07172 0.29876 0.0
H1005 H 0.41397 0.0651 0.25635 0.0
H1006 H 0.40372 0.0428 0.32622 0.0
H1007 H 0.41582 0.01257 0.35407 0.0
H1008 H 0.41779 0.35343 0.21882 0.0
H1009 H 0.41736 0.37673 0.29048 0.0
H1010 H 0.41692 0.33295 0.40942 0.0
H1011 H 0.41854 0.30944 0.3374 0.0
H1012 H 0.39876 0.38782 0.38185 0.0
H1013 H 0.46731 0.35557 0.43583 0.0
H1014 H 0.45474 0.34811 0.37671 0.0
H1015 H 0.44664 0.34166 0.44259 0.0
C1016 C 0.41732 0.34872 0.26021 0.0
C1017 C 0.41889 0.32963 0.27249 0.0
C1018 C 0.41685 0.36207 0.30126 0.0
C1019 C 0.41773 0.35661 0.35544 0.0
C1020 C 0.41679 0.33749 0.36789 0.0
H1021 H 0.48991 0.43635 0.50345 0.0
H1022 H 0.46338 0.41556 0.51844 0.0
C1023 C 0.41754 0.32406 0.32664 0.0
C1024 C 0.42315 0.37089 0.3962 0.0
H1025 H 0.46272 0.38651 0.45779 0.0
C1026 C 0.41252 0.38738 0.40004 0.0
C1027 C 0.44094 0.37024 0.42118 0.0
C1028 C 0.45316 0.35302 0.41896 0.0
C1029 C 0.42015 0.40382 0.42207 0.0
C1030 C 0.4389 0.40376 0.43988 0.0
C1031 C 0.44843 0.38666 0.44335 0.0
C1032 C 0.45041 0.42102 0.44121 0.0
C1033 C 0.40849 0.42137 0.42266 0.0
C1034 C 0.45137 0.43193 0.39437 0.0
C1035 C 0.46643 0.44383 0.38589 0.0
C1036 C 0.48095 0.44494 0.4238 0.0
C1037 C 0.47898 0.43569 0.47334 0.0
C1038 C 0.46379 0.42381 0.48198 0.0
H1039 H 0.39382 0.41804 0.43321 0.0
H1040 H 0.41396 0.43186 0.45179 0.0
H1041 H 0.40836 0.42759 0.38179 0.0
H1042 H 0.44151 0.42992 0.36175 0.0
H1043 H 0.46734 0.45122 0.34798 0.0
H1044 H 0.17296 0.4288 0.21357 0.0
H1045 H 0.14679 0.43009 0.27555 0.0
H1046 H 0.18367 0.41802 0.40851 0.0
H1047 H 0.21023 0.41725 0.34629 0.0
H1048 H 0.12908 0.4097 0.35411 0.0
H1049 H 0.16718 0.47039 0.44444 0.0
H1050 H 0.17547 0.45901 0.38423 0.0
H1051 H 0.17792 0.44777 0.4485 0.0
C1052 C 0.17547 0.42579 0.2557 0.0
C1053 C 0.19369 0.42324 0.2752 0.0
C1054 C 0.16046 0.42654 0.29123 0.0
C1055 C 0.16333 0.42464 0.3469 0.0
C1056 C 0.18121 0.42003 0.36588 0.0
H1057 H 0.08395 0.49674 0.50848 0.0
H1058 H 0.10305 0.46827 0.51206 0.0
C1059 C 0.19634 0.41954 0.33033 0.0
C1060 C 0.1482 0.4306 0.38388 0.0
H1061 H 0.1353 0.46898 0.45688 0.0
C1062 C 0.13052 0.42236 0.37804 0.0
C1063 C 0.15008 0.44696 0.41594 0.0
C1064 C 0.16862 0.45667 0.4237 0.0
C1065 C 0.11446 0.43117 0.39818 0.0
C1066 C 0.11619 0.44868 0.42433 0.0
C1067 C 0.13401 0.45561 0.43639 0.0
C1068 C 0.10049 0.46214 0.42684 0.0
C1069 C 0.09572 0.42231 0.38786 0.0
C1070 C 0.09226 0.46782 0.37824 0.0
C1071 C 0.08138 0.48393 0.37622 0.0
C1072 C 0.07875 0.49488 0.42262 0.0
C1073 C 0.08572 0.48847 0.4722 0.0
C1074 C 0.09662 0.47223 0.47426 0.0
H1075 H 0.09671 0.40685 0.39061 0.0
H1076 H 0.08503 0.42738 0.41683 0.0
H1077 H 0.09109 0.42571 0.34635 0.0
H1078 H 0.09537 0.46058 0.34087 0.0
H1079 H 0.07594 0.48843 0.33764 0.0
H1080 H 0.91127 0.82762 0.9066 0.0
H1081 H 0.91136 0.84861 0.82889 0.0
H1082 H 0.94909 0.81113 0.74637 0.0
H1083 H 0.94793 0.78976 0.82225 0.0
H1084 H 0.94079 0.86582 0.80925 0.0
H1085 H 0.92359 0.83067 0.61866 0.0
H1086 H 0.9173 0.82069 0.68278 0.0
H1087 H 0.93999 0.81629 0.65371 0.0
C1088 C 0.91876 0.82351 0.87057 0.0
C1089 C 0.92955 0.80715 0.86999 0.0
C1090 C 0.91888 0.83549 0.82626 0.0
C1091 C 0.9302 0.83152 0.78137 0.0
C1092 C 0.93979 0.81438 0.77941 0.0
H1093 H 0.01406 0.8845 0.62309 0.0
H1094 H 0.98901 0.86339 0.64955 0.0
C1095 C 0.93927 0.80218 0.8231 0.0
C1096 C 0.93545 0.84669 0.74353 0.0
H1097 H 0.94895 0.85438 0.61352 0.0
C1098 C 0.94188 0.86355 0.76615 0.0
C1099 C 0.93699 0.84386 0.68716 0.0
C1100 C 0.92888 0.82694 0.65933 0.0
C1101 C 0.95127 0.87681 0.7351 0.0
C1102 C 0.95428 0.87317 0.6798 0.0
C1103 C 0.94672 0.85702 0.6561 0.0
C1104 C 0.96758 0.88469 0.64907 0.0
C1105 C 0.95919 0.89396 0.76262 0.0
C1106 C 0.96356 0.90342 0.63742 0.0
C1107 C 0.97788 0.91555 0.62236 0.0
C1108 C 0.99638 0.90908 0.61886 0.0
C1109 C 0.99997 0.88992 0.62555 0.0
C1110 C 0.98566 0.87782 0.64055 0.0
H1111 H 0.95709 0.89377 0.80695 0.0
H1112 H 0.97437 0.89513 0.75443 0.0
H1113 H 0.95231 0.90665 0.74642 0.0
H1114 H 0.94963 0.90891 0.64349 0.0
H1115 H 0.97463 0.93018 0.61607 0.0
H1116 H 0.70882 0.94417 0.84643 0.0
H1117 H 0.68356 0.94561 0.7803 0.0
H1118 H 0.65096 0.90772 0.87659 0.0
H1119 H 0.6759 0.90718 0.94445 0.0
H1120 H 0.65926 0.92458 0.71738 0.0
H1121 H 0.62287 0.95604 0.89456 0.0
H1122 H 0.64718 0.94982 0.897 0.0
H1123 H 0.62953 0.93199 0.90072 0.0
C1124 C 0.69655 0.9356 0.85234 0.0
C1125 C 0.69411 0.92575 0.90051 0.0
C1126 C 0.68212 0.9364 0.81456 0.0
C1127 C 0.66516 0.92721 0.82434 0.0
C1128 C 0.66375 0.9153 0.86899 0.0
H1129 H 0.56728 0.98709 0.72882 0.0
H1130 H 0.58323 0.95754 0.74316 0.0
C1131 C 0.67801 0.91487 0.90749 0.0
C1132 C 0.64829 0.93323 0.79435 0.0
H1133 H 0.60961 0.96029 0.81103 0.0
C1134 C 0.64814 0.93205 0.73779 0.0
C1135 C 0.63372 0.94294 0.82102 0.0
C1136 C 0.63329 0.94544 0.88156 0.0
C1137 C 0.63442 0.94125 0.70716 0.0
C1138 C 0.62073 0.95209 0.73386 0.0
C1139 C 0.62005 0.95196 0.79038 0.0
C1140 C 0.60903 0.96623 0.706 0.0
C1141 C 0.6351 0.9397 0.64661 0.0
C1142 C 0.61767 0.98044 0.67619 0.0
C1143 C 0.6083 0.99719 0.66611 0.0
C1144 C 0.59033 1.00025 0.68705 0.0
C1145 C 0.58103 0.98526 0.7117 0.0
C1146 C 0.59021 0.96833 0.72039 0.0
H1147 H 0.64012 0.92564 0.63405 0.0
H1148 H 0.62122 0.94225 0.62805 0.0
H1149 H 0.64513 0.95012 0.63078 0.0
H1150 H 0.63222 0.97939 0.66508 0.0
H1151 H 0.61568 0.00825 0.6455 0.0
H1152 H 0.61962 0.69212 0.907 0.0
H1153 H 0.61968 0.66552 0.84433 0.0
H1154 H 0.56787 0.68491 0.77578 0.0
H1155 H 0.56749 0.71099 0.83804 0.0
H1156 H 0.59327 0.63982 0.85031 0.0
H1157 H 0.59265 0.66525 0.64247 0.0
H1158 H 0.60105 0.67948 0.69785 0.0
H1159 H 0.57655 0.67905 0.68078 0.0
C1160 C 0.60845 0.69091 0.87777 0.0
C1161 C 0.59348 0.70369 0.87796 0.0
C1162 C 0.60862 0.6758 0.8416 0.0
C1163 C 0.59395 0.67335 0.80462 0.0
C1164 C 0.57969 0.68677 0.80253 0.0
H1165 H 0.50875 0.61701 0.7178 0.0
H1166 H 0.53721 0.63552 0.71623 0.0
C1167 C 0.57946 0.70175 0.83862 0.0
C1168 C 0.5911 0.65524 0.77634 0.0
H1169 H 0.57093 0.63866 0.66119 0.0
C1170 C 0.58913 0.63924 0.80828 0.0
C1171 C 0.58604 0.65436 0.7213 0.0
C1172 C 0.58941 0.67046 0.68365 0.0
C1173 C 0.57953 0.62346 0.78911 0.0
C1174 C 0.57201 0.62369 0.73626 0.0
C1175 C 0.57643 0.6386 0.70195 0.0
C1176 C 0.55583 0.61174 0.72209 0.0
C1177 C 0.5756 0.60771 0.82778 0.0
C1178 C 0.55683 0.59211 0.72268 0.0
C1179 C 0.54042 0.58149 0.72431 0.0
C1180 C 0.52295 0.59041 0.72497 0.0
C1181 C 0.52207 0.60986 0.71845 0.0
C1182 C 0.53835 0.62041 0.71702 0.0
H1183 H 0.58157 0.61035 0.86846 0.0
H1184 H 0.56032 0.60564 0.83198 0.0
H1185 H 0.58173 0.59454 0.81201 0.0
H1186 H 0.57019 0.58511 0.72552 0.0
H1187 H 0.54139 0.5665 0.72914 0.0
H1188 H 0.84598 0.59358 0.93907 0.0
H1189 H 0.86994 0.59523 0.87039 0.0
H1190 H 0.82783 0.59111 0.74628 0.0
H1191 H 0.8037 0.58878 0.81581 0.0
H1192 H 0.85042 0.56354 0.73874 0.0
H1193 H 0.89532 0.62486 0.75831 0.0
H1194 H 0.89167 0.61623 0.82494 0.0
H1195 H 0.87203 0.62457 0.78606 0.0
C1196 C 0.84177 0.59369 0.89711 0.0
C1197 C 0.82307 0.5907 0.88268 0.0
C1198 C 0.85549 0.59494 0.85763 0.0
C1199 C 0.85078 0.59342 0.8028 0.0
C1200 C 0.83182 0.59242 0.78824 0.0
H1201 H 0.93375 0.52206 0.6511 0.0
H1202 H 0.91275 0.54884 0.64019 0.0
C1203 C 0.81803 0.59111 0.82797 0.0
C1204 C 0.86562 0.58804 0.76393 0.0
H1205 H 0.91237 0.59416 0.74611 0.0
C1206 C 0.86379 0.57062 0.7382 0.0
C1207 C 0.88301 0.59734 0.76222 0.0
C1208 C 0.88548 0.61689 0.78397 0.0
C1209 C 0.87941 0.56097 0.7186 0.0
C1210 C 0.8973 0.5692 0.72407 0.0
C1211 C 0.89872 0.58771 0.74276 0.0
C1212 C 0.91429 0.55736 0.72391 0.0
C1213 C 0.87681 0.54118 0.6983 0.0
C1214 C 0.92343 0.55435 0.77318 0.0
C1215 C 0.93571 0.5394 0.77909 0.0
C1216 C 0.93898 0.52709 0.73591 0.0
C1217 C 0.93146 0.53133 0.68502 0.0
C1218 C 0.91931 0.54651 0.6789 0.0
H1219 H 0.86209 0.53644 0.70106 0.0
H1220 H 0.88109 0.54028 0.65544 0.0
H1221 H 0.88563 0.53138 0.72181 0.0
H1222 H 0.91993 0.56265 0.80841 0.0
H1223 H 0.94172 0.53677 0.81842 0.0
H1224 H 0.05185 0.19681 0.8435 0.0
H1225 H 0.0492 0.16851 0.78828 0.0
H1226 H 0.99197 0.16223 0.83778 0.0
H1227 H 0.99424 0.19091 0.89116 0.0
H1228 H 0.0427 0.13332 0.81812 0.0
H1229 H 0.98648 0.15424 0.67849 0.0
H1230 H 0.99842 0.17089 0.72116 0.0
H1231 H 0.97952 0.15708 0.74738 0.0
C1232 C 0.03852 0.18972 0.84168 0.0
C1233 C 0.02323 0.19638 0.87188 0.0
C1234 C 0.03709 0.17336 0.81034 0.0
C1235 C 0.0203 0.16323 0.80794 0.0
C1236 C 0.00498 0.16991 0.83769 0.0
H1237 H 0.97705 0.05846 0.69434 0.0
H1238 H 0.98436 0.08867 0.73553 0.0
C1239 C 0.00638 0.18627 0.86893 0.0
C1240 C 0.01908 0.14518 0.77692 0.0
H1241 H 0.99246 0.12131 0.68487 0.0
C1242 C 0.03186 0.1308 0.78841 0.0
C1243 C 0.00507 0.14179 0.73766 0.0
C1244 C 0.99173 0.15689 0.71999 0.0
C1245 C 0.03045 0.11298 0.76403 0.0
C1246 C 0.0159 0.10933 0.7267 0.0
C1247 C 1.00353 0.12393 0.71378 0.0
C1248 C 0.01233 0.09026 0.70336 0.0
C1249 C 0.04401 0.09795 0.78047 0.0
C1250 C 0.02564 0.08078 0.67154 0.0
C1251 C 0.0215 0.06324 0.64828 0.0
C1252 C 1.00396 0.05489 0.65636 0.0
C1253 C 0.99078 0.06438 0.68817 0.0
C1254 C 0.99492 0.08174 0.71149 0.0
H1255 H 0.05203 0.10185 0.8172 0.0
H1256 H 0.03649 0.08474 0.78821 0.0
H1257 H 0.05407 0.09542 0.74734 0.0
H1258 H 0.03901 0.08716 0.66333 0.0
H1259 H 0.03173 0.05653 0.62261 0.0
H1260 H 0.33452 0.01336 0.92416 0.0
H1261 H 0.36261 0.00673 0.8716 0.0
H1262 H 0.34695 0.04904 0.75718 0.0
H1263 H 0.31852 0.05542 0.80838 0.0
H1264 H 0.36644 0.99665 0.75617 0.0
H1265 H 0.40073 0.06398 0.80976 0.0
H1266 H 0.38151 0.05462 0.84802 0.0
H1267 H 0.3773 0.06538 0.78398 0.0
C1268 C 0.33677 0.02104 0.88727 0.0
C1269 C 0.32414 0.03505 0.87098 0.0
C1270 C 0.35298 0.01732 0.85747 0.0
C1271 C 0.35709 0.02761 0.81095 0.0
C1272 C 0.34429 0.04117 0.79353 0.0
H1273 H 0.45702 0.03002 0.60571 0.0
H1274 H 0.42668 0.03672 0.6475 0.0
C1275 C 0.32801 0.04481 0.82304 0.0
C1276 C 0.37481 0.02425 0.78097 0.0
H1277 H 0.41677 0.04415 0.74963 0.0
C1278 C 0.37746 0.00702 0.75479 0.0
C1279 C 0.38913 0.03785 0.77862 0.0
C1280 C 0.3872 0.05648 0.80682 0.0
C1281 C 0.39397 1.00304 0.72624 0.0
C1282 C 0.40855 0.01643 0.72515 0.0
C1283 C 0.40574 0.03381 0.75061 0.0
C1284 C 0.427 0.01246 0.69943 0.0
C1285 C 0.39538 0.98463 0.69652 0.0
C1286 C 0.43751 0.99678 0.71497 0.0
C1287 C 0.45475 0.99294 0.69101 0.0
C1288 C 0.46224 1.00502 0.65228 0.0
C1289 C 0.45183 0.02074 0.63656 0.0
C1290 C 0.43443 0.0245 0.66021 0.0
H1291 H 0.38137 0.97905 0.68605 0.0
H1292 H 0.4036 0.98602 0.6589 0.0
H1293 H 0.40236 0.97423 0.72278 0.0
H1294 H 0.43243 0.98751 0.74602 0.0
H1295 H 0.46243 0.98063 0.70344 0.0
H1296 H 0.48541 0.30287 0.78802 0.0
H1297 H 0.49111 0.32896 0.72589 0.0
H1298 H 0.48708 0.36784 0.85878 0.0
H1299 H 0.48224 0.34194 0.92067 0.0
H1300 H 0.47219 0.35832 0.69483 0.0
H1301 H 0.53513 0.38465 0.79777 0.0
H1302 H 0.52473 0.36253 0.81483 0.0
H1303 H 0.51607 0.38397 0.84419 0.0
C1304 C 0.48589 0.317 0.80382 0.0
C1305 C 0.48377 0.32032 0.85938 0.0
C1306 C 0.48913 0.33192 0.76833 0.0
C1307 C 0.49011 0.35044 0.78766 0.0
C1308 C 0.48719 0.35372 0.84288 0.0
H1309 H 0.47147 0.45385 0.6195 0.0
H1310 H 0.46911 0.42282 0.65846 0.0
C1311 C 0.48431 0.33887 0.87831 0.0
C1312 C 0.49382 0.36646 0.7506 0.0
H1313 H 0.5194 0.40656 0.74002 0.0
C1314 C 0.48269 0.36874 0.70435 0.0
C1315 C 0.50789 0.37988 0.76164 0.0
C1316 C 0.52176 0.3775 0.80695 0.0
C1317 C 0.4846 0.38445 0.67067 0.0
C1318 C 0.49753 0.3987 0.68463 0.0
C1319 C 0.50924 0.39592 0.7294 0.0
C1320 C 0.49875 0.41692 0.65532 0.0
C1321 C 0.47289 0.3854 0.62017 0.0
C1322 C 0.51618 0.42434 0.64061 0.0
C1323 C 0.51763 0.44255 0.62033 0.0
C1324 C 0.50167 0.4538 0.61421 0.0
C1325 C 0.48415 0.44589 0.62543 0.0
C1326 C 0.48272 0.42786 0.6467 0.0
H1327 H 0.46958 0.37117 0.60474 0.0
H1328 H 0.45946 0.39241 0.62949 0.0
H1329 H 0.48003 0.39329 0.58783 0.0
H1330 H 0.52879 0.41624 0.64635 0.0
H1331 H 0.53135 0.44797 0.61125 0.0
H1332 H 0.18343 0.50709 0.92967 0.0
H1333 H 0.15633 0.51189 0.87101 0.0
H1334 H 0.18238 0.47877 0.74677 0.0
H1335 H 0.20963 0.47392 0.80515 0.0
H1336 H 0.16337 0.5155 0.71372 0.0
H1337 H 0.11957 0.46662 0.83272 0.0
H1338 H 0.13237 0.48408 0.86996 0.0
H1339 H 0.14476 0.466 0.83468 0.0
C1340 C 0.18358 0.50108 0.88953 0.0
C1341 C 0.19876 0.49009 0.87225 0.0
C1342 C 0.16799 0.50374 0.85618 0.0
C1343 C 0.16725 0.49557 0.80464 0.0
C1344 C 0.18262 0.48515 0.78643 0.0
H1345 H 0.06883 0.47769 0.60297 0.0
H1346 H 0.09913 0.47487 0.64788 0.0
C1347 C 0.19816 0.48234 0.81996 0.0
C1348 C 0.15013 0.49728 0.77078 0.0
H1349 H 0.10467 0.48303 0.76242 0.0
C1350 C 0.15053 0.5084 0.72428 0.0
C1351 C 0.13345 0.48786 0.78426 0.0
C1352 C 0.13239 0.47534 0.83288 0.0
C1353 C 0.13457 0.51062 0.69161 0.0
C1354 C 0.11778 0.50149 0.70577 0.0
C1355 C 0.11751 0.49008 0.75166 0.0
C1356 C 0.10021 0.50373 0.67412 0.0
C1357 C 0.13576 0.52257 0.64188 0.0
C1358 C 0.0908 0.52096 0.67308 0.0
C1359 C 0.07332 0.52256 0.648 0.0
C1360 C 0.06481 0.50692 0.62361 0.0
C1361 C 0.07472 0.48992 0.62243 0.0
C1362 C 0.09212 0.48829 0.64788 0.0
H1363 H 0.15045 0.52549 0.63046 0.0
H1364 H 0.1286 0.51567 0.6074 0.0
H1365 H 0.12867 0.53611 0.64962 0.0
H1366 H 0.09667 0.53304 0.69342 0.0
H1367 H 0.06618 0.53587 0.64972 0.0
H1368 H 0.02169 0.82736 0.28895 0.0
H1369 H 0.02424 0.85669 0.33941 0.0
H1370 H 0.9648 0.85717 0.3637 0.0
H1371 H 0.9619 0.82824 0.31151 0.0
H1372 H 1.00357 0.89121 0.3083 0.0
H1373 H 0.98846 0.86831 0.51757 0.0
H1374 H 0.99701 0.85236 0.46657 0.0
H1375 H 0.97322 0.86007 0.46482 0.0
C1376 C 0.00908 0.83362 0.30479 0.0
C1377 C 0.99155 0.82523 0.29548 0.0
C1378 C 0.01062 0.85039 0.33415 0.0
C1379 C 0.99474 0.85911 0.35588 0.0
C1380 C 0.9773 0.85058 0.34817 0.0
H1381 H 0.98319 0.9639 0.54327 0.0
H1382 H 0.97691 0.93394 0.49744 0.0
C1383 C 0.97571 0.8339 0.31832 0.0
C1384 C 0.99631 0.87782 0.38266 0.0
H1385 H 0.99272 0.90062 0.50381 0.0
C1386 C 1.00125 0.89325 0.35111 0.0
C1387 C 0.99294 0.8806 0.43831 0.0
C1388 C 0.9877 0.8645 0.47417 0.0
C1389 C 1.00291 0.91131 0.37342 0.0
C1390 C 1.00021 0.9141 0.42956 0.0
C1391 C 0.99492 0.89865 0.461 0.0
C1392 C 1.00353 0.93269 0.45639 0.0
C1393 C 0.00699 0.9273 0.33596 0.0
C1394 C 0.0206 0.94204 0.44948 0.0
C1395 C 0.02397 0.9593 0.47454 0.0
C1396 C 0.01047 0.96768 0.50775 0.0
C1397 C 0.99357 0.95816 0.5162 0.0
C1398 C 0.99008 0.94091 0.49049 0.0
H1399 H 1.00225 0.92419 0.29421 0.0
H1400 H 1.00002 0.94025 0.34988 0.0
H1401 H 0.02226 0.92976 0.33463 0.0
H1402 H 0.03157 0.93582 0.42547 0.0
H1403 H 0.03737 0.96598 0.46873 0.0
H1404 H 0.70296 0.01301 0.36042 0.0
H1405 H 0.67459 0.01969 0.41273 0.0
H1406 H 0.64938 0.96919 0.35166 0.0
H1407 H 0.6774 0.96247 0.29931 0.0
H1408 H 0.62877 0.00578 0.33819 0.0
H1409 H 0.65067 0.98986 0.5483 0.0
H1410 H 0.66627 1.00309 0.50619 0.0
H1411 H 0.66169 0.97904 0.49058 0.0
C1412 C 0.69143 1.00325 0.35849 0.0
C1413 C 0.69259 0.98712 0.3258 0.0
C1414 C 0.67528 0.00702 0.38874 0.0
C1415 C 0.65994 0.99482 0.38659 0.0
C1416 C 0.66112 0.97868 0.35448 0.0
H1417 H 0.5568 0.99221 0.5738 0.0
H1418 H 0.58714 0.98565 0.53211 0.0
C1419 C 0.67724 0.97482 0.32472 0.0
C1420 C 0.642 0.99954 0.41368 0.0
H1421 H 0.62002 1.00101 0.53581 0.0
C1422 C 0.62684 1.0048 0.38143 0.0
C1423 C 0.63949 0.9981 0.46998 0.0
C1424 C 0.6553 0.99214 0.50615 0.0
C1425 C 0.60922 0.00863 0.40365 0.0
C1426 C 0.60658 0.00735 0.46027 0.0
C1427 C 0.62185 1.00202 0.49256 0.0
C1428 C 0.58816 0.01141 0.48655 0.0
C1429 C 0.59366 0.01365 0.36539 0.0
C1430 C 0.57867 0.02825 0.4764 0.0
C1431 C 0.5611 0.03169 0.49889 0.0
C1432 C 0.55262 0.01855 0.53279 0.0
C1433 C 0.56255 1.00221 0.54581 0.0
C1434 C 0.58005 0.99859 0.5225 0.0
H1435 H 0.59593 0.00743 0.3248 0.0
H1436 H 0.58001 0.00886 0.38042 0.0
H1437 H 0.59318 0.02906 0.36068 0.0
H1438 H 0.58485 0.0388 0.45096 0.0
H1439 H 0.55408 0.04471 0.48963 0.0
H1440 H 0.50459 0.69781 0.29139 0.0
H1441 H 0.49989 0.67147 0.35236 0.0
H1442 H 0.55764 0.67435 0.40048 0.0
H1443 H 0.5624 0.70079 0.33991 0.0
H1444 H 0.51642 0.63783 0.34586 0.0
H1445 H 0.53292 0.66891 0.54531 0.0
H1446 H 0.52891 0.683 0.48626 0.0
H1447 H 0.55116 0.67194 0.49677 0.0
C1448 C 0.51626 0.69298 0.31537 0.0
C1449 C 0.53388 0.70148 0.31066 0.0
C1450 C 0.51353 0.67792 0.35038 0.0
C1451 C 0.52833 0.67097 0.3817 0.0
C1452 C 0.54585 0.67968 0.37795 0.0
H1453 H 0.54433 0.56862 0.56509 0.0
H1454 H 0.5477 0.59941 0.52337 0.0
C1455 C 0.54857 0.69483 0.34313 0.0
C1456 C 0.52573 0.65374 0.4147 0.0
H1457 H 0.53036 0.63565 0.5416 0.0
C1458 C 0.51931 0.63745 0.38876 0.0
C1459 C 0.52965 0.6531 0.4707 0.0
C1460 C 0.53587 0.67021 0.50156 0.0
C1461 C 0.51696 0.62059 0.41679 0.0
C1462 C 0.52083 0.61995 0.47271 0.0
C1463 C 0.52732 0.63617 0.4988 0.0
C1464 C 0.51841 0.60241 0.50408 0.0
C1465 C 0.5108 0.60341 0.38597 0.0
C1466 C 0.50073 0.59416 0.50918 0.0
C1467 C 0.49876 0.57653 0.53285 0.0
C1468 C 0.51447 0.56674 0.55173 0.0
C1469 C 0.53199 0.5756 0.54991 0.0
C1470 C 0.53394 0.59326 0.5263 0.0
H1471 H 0.51253 0.60512 0.3418 0.0
H1472 H 0.51881 0.59092 0.39895 0.0
H1473 H 0.49581 0.60078 0.3941 0.0
H1474 H 0.48849 0.60112 0.49328 0.0
H1475 H 0.48505 0.57025 0.53405 0.0
H1476 H 0.81996 0.49747 0.29229 0.0
H1477 H 0.84712 0.4947 0.35137 0.0
H1478 H 0.84525 0.55398 0.38306 0.0
H1479 H 0.81854 0.55701 0.32234 0.0
H1480 H 0.88 0.54267 0.3564 0.0
H1481 H 0.85248 0.49541 0.51326 0.0
H1482 H 0.84982 0.48612 0.44641 0.0
H1483 H 0.83752 0.50707 0.46544 0.0
C1484 C 0.82523 0.50994 0.312 0.0
C1485 C 0.81694 0.52748 0.30229 0.0
C1486 C 0.84068 0.50828 0.34641 0.0
C1487 C 0.84817 0.52408 0.37248 0.0
C1488 C 0.8397 0.54154 0.36382 0.0
H1489 H 0.9496 0.54326 0.56356 0.0
H1490 H 0.91881 0.54618 0.52177 0.0
C1491 C 0.82426 0.54322 0.32935 0.0
C1492 C 0.86558 0.52264 0.40556 0.0
H1493 H 0.88555 0.49975 0.51198 0.0
C1494 C 0.88112 0.53342 0.39076 0.0
C1495 C 0.86716 0.51053 0.45039 0.0
C1496 C 0.8508 0.49926 0.4702 0.0
C1497 C 0.89822 0.53209 0.41843 0.0
C1498 C 0.89986 0.51982 0.46281 0.0
C1499 C 0.88432 0.50914 0.47798 0.0
C1500 C 0.91779 0.51761 0.49285 0.0
C1501 C 0.9146 0.5434 0.39878 0.0
C1502 C 0.92716 0.50035 0.49284 0.0
C1503 C 0.94481 0.49863 0.5168 0.0
C1504 C 0.95349 0.51414 0.5413 0.0
C1505 C 0.94358 0.53113 0.54381 0.0
C1506 C 0.92595 0.53284 0.51992 0.0
H1507 H 0.91233 0.54874 0.35732 0.0
H1508 H 0.91669 0.5556 0.42591 0.0
H1509 H 0.92759 0.53493 0.3992 0.0
H1510 H 0.9211 0.48835 0.4726 0.0
H1511 H 0.95192 0.48531 0.51425 0.0
loop_
_geom_bond_atom_site_label_1
_geom_bond_atom_site_label_2
_geom_bond_distance
_geom_bond_site_symmetry_2
_ccdc_geom_bond_type
C0 C1 1.386 . S
C0 C2 1.397 1_556 S
C0 H24 0.931 . S
C1 C0 1.386 . S
C1 C5 1.397 1_556 S
C2 C0 1.397 1_554 S
C2 C3 1.384 . S
C2 H25 0.930 . S
C3 C2 1.384 . S
C3 C4 1.377 . S
C3 C6 1.481 . S
C4 C3 1.377 . S
C4 C5 1.389 . S
C4 H26 0.929 . S
C5 C1 1.397 1_554 S
C5 C4 1.389 . S
C5 H27 0.931 . S
C6 C3 1.481 . S
C6 C7 1.387 . S
C6 C11 1.390 . S
C7 C6 1.387 . S
C7 C8 1.401 . S
C7 H28 0.930 . S
C8 C7 1.401 . S
C8 C9 1.376 . S
C8 C17 1.511 . S
C9 C8 1.376 . S
C9 C10 1.392 . S
C9 H30 0.931 . S
C10 C9 1.392 . S
C10 C11 1.361 . S
C10 C12 1.500 . S
C11 C6 1.390 . S
C11 C10 1.361 . S
C11 H29 0.931 . S
C12 C10 1.500 . S
C12 C13 1.371 . S
C12 C14 1.365 . S
C13 C12 1.371 . S
C13 C23 1.386 . S
C13 H31 0.931 . S
C14 C12 1.365 . S
C14 C15 1.409 . S
C14 H32 0.929 . S
C15 C14 1.409 . S
C15 C16 1.380 . S
C15 H33 0.930 . S
C16 C15 1.380 . S
C16 C23 1.357 . S
C17 C8 1.511 . S
C17 C18 1.341 . S
C17 C19 1.371 . S
C18 C17 1.341 . S
C18 C22 1.394 . S
C18 H34 0.930 . S
C19 C17 1.371 . S
C19 C20 1.392 . S
C19 H35 0.931 . S
C20 C19 1.392 . S
C20 C21 1.331 . S
C20 H38 0.932 . S
C21 C20 1.331 . S
C21 C22 1.336 . S
C22 C18 1.394 . S
C22 C21 1.336 . S
C22 H37 0.929 . S
C23 C13 1.386 . S
C23 C16 1.357 . S
C23 H36 0.928 . S
H24 C0 0.931 . S
H25 C2 0.930 . S
H26 C4 0.929 . S
H27 C5 0.931 . S
H28 C7 0.930 . S
H29 C11 0.931 . S
H30 C9 0.931 . S
H31 C13 0.931 . S
H32 C14 0.929 . S
H33 C15 0.930 . S
H34 C18 0.930 . S
H35 C19 0.931 . S
H36 C23 0.928 . S
H37 C22 0.929 . S
H38 C20 0.932 . S
C39 C40 1.386 . S
C39 C41 1.397 1_556 S
C39 H63 0.931 . S
C40 C39 1.386 . S
C40 C44 1.397 1_556 S
C41 C39 1.397 1_554 S
C41 C42 1.384 . S
C41 H64 0.930 . S
C42 C41 1.384 . S
C42 C43 1.377 . S
C42 C45 1.481 . S
C43 C42 1.377 . S
C43 C44 1.389 . S
C43 H65 0.929 . S
C44 C40 1.397 1_554 S
C44 C43 1.389 . S
C44 H66 0.931 . S
C45 C42 1.481 . S
C45 C46 1.387 . S
C45 C50 1.390 . S
C46 C45 1.387 . S
C46 C47 1.401 . S
C46 H67 0.930 . S
C47 C46 1.401 . S
C47 C48 1.376 . S
C47 C56 1.511 . S
C48 C47 1.376 . S
C48 C49 1.392 . S
C48 H69 0.931 . S
C49 C48 1.392 . S
C49 C50 1.361 . S
C49 C51 1.500 . S
C50 C45 1.390 . S
C50 C49 1.361 . S
C50 H68 0.931 . S
C51 C49 1.500 . S
C51 C52 1.371 . S
C51 C53 1.365 . S
C52 C51 1.371 . S
C52 C62 1.386 . S
C52 H70 0.931 . S
C53 C51 1.365 . S
C53 C54 1.409 . S
C53 H71 0.929 . S
C54 C53 1.409 . S
C54 C55 1.380 . S
C54 H72 0.930 . S
C55 C54 1.380 . S
C55 C62 1.357 . S
C56 C47 1.511 . S
C56 C57 1.341 . S
C56 C58 1.371 . S
C57 C56 1.341 . S
C57 C61 1.394 . S
C57 H73 0.930 . S
C58 C56 1.371 . S
C58 C59 1.392 . S
C58 H74 0.931 . S
C59 C58 1.392 . S
C59 C60 1.331 . S
C59 H77 0.932 . S
C60 C59 1.331 . S
C60 C61 1.336 . S
C61 C57 1.394 . S
C61 C60 1.336 . S
C61 H76 0.929 . S
C62 C52 1.386 . S
C62 C55 1.357 . S
C62 H75 0.928 . S
H63 C39 0.931 . S
H64 C41 0.930 . S
H65 C43 0.929 . S
H66 C44 0.931 . S
H67 C46 0.930 . S
H68 C50 0.931 . S
H69 C48 0.931 . S
H70 C52 0.931 . S
H71 C53 0.929 . S
H72 C54 0.930 . S
H73 C57 0.930 . S
H74 C58 0.931 . S
H75 C62 0.928 . S
H76 C61 0.929 . S
H77 C59 0.932 . S
C78 C79 1.386 . S
C78 C80 1.397 1_556 S
C78 H102 0.931 . S
C79 C78 1.386 . S
C79 C83 1.397 1_556 S
C80 C78 1.397 1_554 S
C80 C81 1.384 . S
C80 H103 0.930 . S
C81 C80 1.384 . S
C81 C82 1.377 . S
C81 C84 1.481 . S
C82 C81 1.377 . S
C82 C83 1.389 . S
C82 H104 0.929 . S
C83 C79 1.397 1_554 S
C83 C82 1.389 . S
C83 H105 0.931 . S
C84 C81 1.481 . S
C84 C85 1.387 . S
C84 C89 1.390 . S
C85 C84 1.387 . S
C85 C86 1.401 . S
C85 H106 0.930 . S
C86 C85 1.401 . S
C86 C87 1.376 . S
C86 C95 1.511 . S
C87 C86 1.376 . S
C87 C88 1.392 . S
C87 H108 0.931 . S
C88 C87 1.392 . S
C88 C89 1.361 . S
C88 C90 1.500 . S
C89 C84 1.390 . S
C89 C88 1.361 . S
C89 H107 0.931 . S
C90 C88 1.500 . S
C90 C91 1.371 . S
C90 C92 1.365 . S
C91 C90 1.371 . S
C91 C101 1.386 . S
C91 H109 0.931 . S
C92 C90 1.365 . S
C92 C93 1.409 . S
C92 H110 0.929 . S
C93 C92 1.409 . S
C93 C94 1.380 . S
C93 H111 0.930 . S
C94 C93 1.380 . S
C94 C101 1.357 . S
C95 C86 1.511 . S
C95 C96 1.341 . S
C95 C97 1.371 . S
C96 C95 1.341 . S
C96 C100 1.394 . S
C96 H112 0.930 . S
C97 C95 1.371 . S
C97 C98 1.392 . S
C97 H113 0.931 . S
C98 C97 1.392 . S
C98 C99 1.331 . S
C98 H116 0.932 . S
C99 C98 1.331 . S
C99 C100 1.336 . S
C100 C96 1.394 . S
C100 C99 1.336 . S
C100 H115 0.929 . S
C101 C91 1.386 . S
C101 C94 1.357 . S
C101 H114 0.928 . S
H102 C78 0.931 . S
H103 C80 0.930 . S
H104 C82 0.929 . S
H105 C83 0.931 . S
H106 C85 0.930 . S
H107 C89 0.931 . S
H108 C87 0.931 . S
H109 C91 0.931 . S
H110 C92 0.929 . S
H111 C93 0.930 . S
H112 C96 0.930 . S
H113 C97 0.931 . S
H114 C101 0.928 . S
H115 C100 0.929 . S
H116 C98 0.932 . S
C117 C118 1.386 . S
C117 C119 1.397 . S
C117 H141 0.931 . S
C118 C117 1.386 . S
C118 C122 1.397 . S
C119 C117 1.397 . S
C119 C120 1.384 . S
C119 H142 0.930 . S
C120 C119 1.384 . S
C120 C121 1.377 . S
C120 C123 1.481 . S
C121 C120 1.377 . S
C121 C122 1.389 . S
C121 H143 0.929 . S
C122 C118 1.397 . S
C122 C121 1.389 . S
C122 H144 0.931 . S
C123 C120 1.481 . S
C123 C124 1.387 . S
C123 C128 1.390 . S
C124 C123 1.387 . S
C124 C125 1.401 . S
C124 H145 0.930 . S
C125 C124 1.401 . S
C125 C126 1.376 . S
C125 C134 1.511 . S
C126 C125 1.376 . S
C126 C127 1.392 . S
C126 H147 0.931 . S
C127 C126 1.392 . S
C127 C128 1.361 . S
C127 C129 1.500 . S
C128 C123 1.390 . S
C128 C127 1.361 . S
C128 H146 0.931 . S
C129 C127 1.500 . S
C129 C130 1.371 . S
C129 C131 1.365 . S
C130 C129 1.371 . S
C130 C140 1.386 1_554 S
C130 H148 0.933 . S
C131 C129 1.365 . S
C131 C132 1.409 . S
C131 H149 0.929 . S
C132 C131 1.409 . S
C132 C133 1.380 1_554 S
C132 H150 0.930 . S
C133 C132 1.380 1_556 S
C133 C140 1.357 . S
C134 C125 1.511 . S
C134 C135 1.341 . S
C134 C136 1.371 . S
C135 C134 1.341 . S
C135 C139 1.394 . S
C135 H151 0.930 . S
C136 C134 1.371 . S
C136 C137 1.392 . S
C136 H152 0.931 . S
C137 C136 1.392 . S
C137 C138 1.331 . S
C137 H155 0.932 . S
C138 C137 1.331 . S
C138 C139 1.336 . S
C139 C135 1.394 . S
C139 C138 1.336 . S
C139 H154 0.929 . S
C140 C130 1.386 1_556 S
C140 C133 1.357 . S
C140 H153 0.928 . S
H141 C117 0.931 . S
H142 C119 0.930 . S
H143 C121 0.929 . S
H144 C122 0.931 . S
H145 C124 0.930 . S
H146 C128 0.931 . S
H147 C126 0.931 . S
H148 C130 0.933 . S
H149 C131 0.929 . S
H150 C132 0.930 . S
H151 C135 0.930 . S
H152 C136 0.931 . S
H153 C140 0.928 . S
H154 C139 0.929 . S
H155 C137 0.932 . S
C156 C157 1.386 . S
C156 C158 1.397 . S
C156 H180 0.931 . S
C157 C156 1.386 . S
C157 C161 1.397 . S
C158 C156 1.397 . S
C158 C159 1.384 . S
C158 H181 0.930 . S
C159 C158 1.384 . S
C159 C160 1.377 . S
C159 C162 1.481 . S
C160 C159 1.377 . S
C160 C161 1.389 . S
C160 H182 0.929 . S
C161 C157 1.397 . S
C161 C160 1.389 . S
C161 H183 0.931 . S
C162 C159 1.481 . S
C162 C163 1.387 . S
C162 C167 1.390 . S
C163 C162 1.387 . S
C163 C164 1.401 . S
C163 H184 0.930 . S
C164 C163 1.401 . S
C164 C165 1.376 1_554 S
C164 C173 1.511 . S
C165 C164 1.376 1_556 S
C165 C166 1.392 . S
C165 H186 0.931 . S
C166 C165 1.392 . S
C166 C167 1.361 1_556 S
C166 C168 1.500 . S
C167 C162 1.390 . S
C167 C166 1.361 1_554 S
C167 H185 0.931 1_554 S
C168 C166 1.500 . S
C168 C169 1.371 . S
C168 C170 1.365 . S
C169 C168 1.371 . S
C169 C179 1.386 . S
C169 H187 0.931 . S
C170 C168 1.365 . S
C170 C171 1.409 . S
C170 H188 0.929 . S
C171 C170 1.409 . S
C171 C172 1.380 . S
C171 H189 0.930 . S
C172 C171 1.380 . S
C172 C179 1.357 . S
C173 C164 1.511 . S
C173 C174 1.341 . S
C173 C175 1.371 . S
C174 C173 1.341 . S
C174 C178 1.394 . S
C174 H190 0.930 . S
C175 C173 1.371 . S
C175 C176 1.392 . S
C175 H191 0.931 1_554 S
C176 C175 1.392 . S
C176 C177 1.331 . S
C176 H194 0.932 1_554 S
C177 C176 1.331 . S
C177 C178 1.336 . S
C178 C174 1.394 . S
C178 C177 1.336 . S
C178 H193 0.929 . S
C179 C169 1.386 . S
C179 C172 1.357 . S
C179 H192 0.928 . S
H180 C156 0.931 . S
H181 C158 0.930 . S
H182 C160 0.929 . S
H183 C161 0.931 . S
H184 C163 0.930 . S
H185 C167 0.931 1_556 S
H186 C165 0.931 . S
H187 C169 0.931 . S
H188 C170 0.929 . S
H189 C171 0.930 . S
H190 C174 0.930 . S
H191 C175 0.931 1_556 S
H192 C179 0.928 . S
H193 C178 0.929 . S
H194 C176 0.932 1_556 S
C195 C196 1.386 . S
C195 C197 1.397 . S
C195 H219 0.931 . S
C196 C195 1.386 . S
C196 C200 1.397 . S
C197 C195 1.397 . S
C197 C198 1.384 . S
C197 H220 0.930 . S
C198 C197 1.384 . S
C198 C199 1.377 . S
C198 C201 1.481 . S
C199 C198 1.377 . S
C199 C200 1.389 . S
C199 H221 0.929 . S
C200 C196 1.397 . S
C200 C199 1.389 . S
C200 H222 0.931 . S
C201 C198 1.481 . S
C201 C202 1.387 . S
C201 C206 1.390 1_554 S
C202 C201 1.387 . S
C202 C203 1.401 . S
C202 H223 0.930 . S
C203 C202 1.401 . S
C203 C204 1.376 1_554 S
C203 C212 1.511 . S
C204 C203 1.376 1_556 S
C204 C205 1.392 . S
C204 H225 0.931 . S
C205 C204 1.392 . S
C205 C206 1.361 . S
C205 C207 1.500 . S
C206 C201 1.390 1_556 S
C206 C205 1.361 . S
C206 H224 0.931 . S
C207 C205 1.500 . S
C207 C208 1.371 . S
C207 C209 1.365 . S
C208 C207 1.371 . S
C208 C218 1.386 . S
C208 H226 0.931 . S
C209 C207 1.365 . S
C209 C210 1.409 . S
C209 H227 0.929 . S
C210 C209 1.409 . S
C210 C211 1.380 . S
C210 H228 0.930 . S
C211 C210 1.380 . S
C211 C218 1.357 . S
C212 C203 1.511 . S
C212 C213 1.341 . S
C212 C214 1.371 1_554 S
C213 C212 1.341 . S
C213 C217 1.394 . S
C213 H229 0.930 . S
C214 C212 1.371 1_556 S
C214 C215 1.392 1_556 S
C214 H230 0.931 . S
C215 C214 1.392 1_554 S
C215 C216 1.331 . S
C215 H233 0.932 1_554 S
C216 C215 1.331 . S
C216 C217 1.336 . S
C217 C213 1.394 . S
C217 C216 1.336 . S
C217 H232 0.929 . S
C218 C208 1.386 . S
C218 C211 1.357 . S
C218 H231 0.928 . S
H219 C195 0.931 . S
H220 C197 0.930 . S
H221 C199 0.929 . S
H222 C200 0.931 . S
H223 C202 0.930 . S
H224 C206 0.931 . S
H225 C204 0.931 . S
H226 C208 0.931 . S
H227 C209 0.929 . S
H228 C210 0.930 . S
H229 C213 0.930 . S
H230 C214 0.931 . S
H231 C218 0.928 . S
H232 C217 0.929 . S
H233 C215 0.932 1_556 S
C234 C235 1.386 . S
C234 C236 1.397 . S
C234 H258 0.931 . S
C235 C234 1.386 . S
C235 C239 1.397 . S
C236 C234 1.397 . S
C236 C237 1.384 . S
C236 H259 0.930 . S
C237 C236 1.384 . S
C237 C238 1.377 . S
C237 C240 1.481 . S
C238 C237 1.377 . S
C238 C239 1.389 . S
C238 H260 0.929 . S
C239 C235 1.397 . S
C239 C238 1.389 . S
C239 H261 0.931 . S
C240 C237 1.481 . S
C240 C241 1.387 . S
C240 C245 1.390 1_554 S
C241 C240 1.387 . S
C241 C242 1.401 . S
C241 H262 0.930 . S
C242 C241 1.401 . S
C242 C243 1.376 1_554 S
C242 C251 1.511 . S
C243 C242 1.376 1_556 S
C243 C244 1.392 . S
C243 H264 0.931 . S
C244 C243 1.392 . S
C244 C245 1.361 . S
C244 C246 1.500 . S
C245 C240 1.390 1_556 S
C245 C244 1.361 . S
C245 H263 0.931 . S
C246 C244 1.500 . S
C246 C247 1.371 . S
C246 C248 1.365 . S
C247 C246 1.371 . S
C247 C257 1.386 . S
C247 H265 0.931 . S
C248 C246 1.365 . S
C248 C249 1.409 . S
C248 H266 0.929 . S
C249 C248 1.409 . S
C249 C250 1.380 . S
C249 H267 0.930 . S
C250 C249 1.380 . S
C250 C257 1.357 . S
C251 C242 1.511 . S
C251 C252 1.341 . S
C251 C253 1.371 1_554 S
C252 C251 1.341 . S
C252 C256 1.394 . S
C252 H268 0.930 . S
C253 C251 1.371 1_556 S
C253 C254 1.392 1_556 S
C253 H269 0.931 . S
C254 C253 1.392 1_554 S
C254 C255 1.331 . S
C254 H272 0.932 1_554 S
C255 C254 1.331 . S
C255 C256 1.336 . S
C256 C252 1.394 . S
C256 C255 1.336 . S
C256 H271 0.929 . S
C257 C247 1.386 . S
C257 C250 1.357 . S
C257 H270 0.928 . S
H258 C234 0.931 . S
H259 C236 0.930 . S
H260 C238 0.929 . S
H261 C239 0.931 . S
H262 C241 0.930 . S
H263 C245 0.931 . S
H264 C243 0.931 . S
H265 C247 0.931 . S
H266 C248 0.929 . S
H267 C249 0.930 . S
H268 C252 0.930 . S
H269 C253 0.931 . S
H270 C257 0.928 . S
H271 C256 0.929 . S
H272 C254 0.932 1_556 S
C273 C274 1.386 . S
C273 C275 1.397 . S
C273 H297 0.931 . S
C274 C273 1.386 . S
C274 C278 1.397 . S
C275 C273 1.397 . S
C275 C276 1.384 . S
C275 H298 0.930 . S
C276 C275 1.384 . S
C276 C277 1.377 . S
C276 C279 1.481 . S
C277 C276 1.377 . S
C277 C278 1.389 . S
C277 H299 0.929 . S
C278 C274 1.397 . S
C278 C277 1.389 . S
C278 H300 0.931 . S
C279 C276 1.481 . S
C279 C280 1.387 . S
C279 C284 1.390 1_556 S
C280 C279 1.387 . S
C280 C281 1.401 1_556 S
C280 H301 0.930 . S
C281 C280 1.401 1_554 S
C281 C282 1.376 . S
C281 C290 1.511 . S
C282 C281 1.376 . S
C282 C283 1.392 . S
C282 H303 0.931 . S
C283 C282 1.392 . S
C283 C284 1.361 . S
C283 C285 1.500 . S
C284 C279 1.390 1_554 S
C284 C283 1.361 . S
C284 H302 0.931 1_554 S
C285 C283 1.500 . S
C285 C286 1.371 . S
C285 C287 1.365 . S
C286 C285 1.371 . S
C286 C296 1.386 . S
C286 H304 0.931 . S
C287 C285 1.365 . S
C287 C288 1.409 . S
C287 H305 0.929 . S
C288 C287 1.409 . S
C288 C289 1.380 . S
C288 H306 0.930 . S
C289 C288 1.380 . S
C289 C296 1.357 . S
C290 C281 1.511 . S
C290 C291 1.341 . S
C290 C292 1.371 . S
C291 C290 1.341 . S
C291 C295 1.394 . S
C291 H307 0.930 1_554 S
C292 C290 1.371 . S
C292 C293 1.392 . S
C292 H308 0.931 . S
C293 C292 1.392 . S
C293 C294 1.331 . S
C293 H311 0.932 . S
C294 C293 1.331 . S
C294 C295 1.336 . S
C295 C291 1.394 . S
C295 C294 1.336 . S
C295 H310 0.929 1_554 S
C296 C286 1.386 . S
C296 C289 1.357 . S
C296 H309 0.928 . S
H297 C273 0.931 . S
H298 C275 0.930 . S
H299 C277 0.929 . S
H300 C278 0.931 . S
H301 C280 0.930 . S
H302 C284 0.931 1_556 S
H303 C282 0.931 . S
H304 C286 0.931 . S
H305 C287 0.929 . S
H306 C288 0.930 . S
H307 C291 0.930 1_556 S
H308 C292 0.931 . S
H309 C296 0.928 . S
H310 C295 0.929 1_556 S
H311 C293 0.932 . S
Tb312 N343 2.660 1_565 S
Tb312 N350 2.600 . S
Tb312 O356 2.546 . S
Tb312 O357 2.610 1_455 S
Tb312 O359 2.320 1_455 S
Tb312 O360 2.552 . S
Tb312 O361 2.413 . S
Tb312 O363 2.362 1_565 S
Tb312 O364 2.421 . S
Tb312 C376 2.833 . S
C313 C316 1.423 1_545 S
C313 C317 1.414 . S
C313 N320 1.359 . S
C314 C316 1.428 . S
C314 C318 1.432 . S
C314 C326 1.410 . S
C315 C317 1.444 1_565 S
C315 C318 1.317 . S
C315 H338 0.929 . S
C316 C313 1.423 1_565 S
C316 C314 1.428 . S
C316 N324 1.357 1_565 S
C317 C313 1.414 . S
C317 C315 1.444 1_545 S
C317 C322 1.385 . S
C318 C314 1.432 . S
C318 C315 1.317 . S
C318 H330 0.930 . S
C319 C321 1.392 . S
C319 C322 1.370 . S
C319 H331 0.931 . S
N320 C313 1.359 . S
N320 C321 1.327 . S
N320 Tb323 2.600 . S
C321 C319 1.392 . S
C321 N320 1.327 . S
C321 H328 0.930 . S
C322 C317 1.385 . S
C322 C319 1.370 . S
C322 H341 0.930 . S
Tb323 N320 2.600 . S
Tb323 N324 2.660 . S
Tb323 O357 2.362 1_545 S
Tb323 O358 2.421 . S
Tb323 O362 2.546 . S
Tb323 O363 2.610 1_655 S
Tb323 O365 2.320 1_655 S
Tb323 O366 2.552 1_655 S
Tb323 O367 2.413 . S
Tb323 C387 2.833 . S
N324 C316 1.357 1_545 S
N324 Tb323 2.660 . S
N324 C325 1.305 1_645 S
C325 N324 1.305 1_465 S
C325 C327 1.407 . S
C325 H332 0.930 . S
C326 C314 1.410 . S
C326 C327 1.345 1_655 S
C326 H334 0.930 . S
C327 C325 1.407 . S
C327 C326 1.345 1_455 S
C327 H329 0.930 . S
H328 C321 0.930 . S
H329 C327 0.930 . S
H330 C318 0.930 . S
H331 C319 0.931 . S
H332 C325 0.930 . S
H333 C347 0.930 1_655 S
H334 C326 0.930 . S
H335 C353 0.930 . S
H336 C344 0.930 1_655 S
H337 C351 0.931 . S
H338 C315 0.929 . S
H339 C345 0.930 . S
H340 C378 0.930 . S
H341 C322 0.930 . S
H342 C377 0.929 . S
N343 Tb312 2.660 1_545 S
N343 C344 1.305 . S
N343 C348 1.360 . S
C344 H336 0.930 1_455 S
C344 N343 1.305 . S
C344 C347 1.407 . S
C345 H339 0.930 . S
C345 C346 1.410 . S
C345 C347 1.345 . S
C346 C345 1.410 . S
C346 C348 1.417 . S
C346 C378 1.432 . S
C347 H333 0.930 1_455 S
C347 C344 1.407 . S
C347 C345 1.345 . S
C348 N343 1.360 . S
C348 C346 1.417 . S
C348 C352 1.432 . S
H349 C354 0.930 . S
N350 Tb312 2.600 . S
N350 C352 1.359 1_565 S
N350 C353 1.327 . S
C351 H337 0.931 . S
C351 C353 1.392 . S
C351 C354 1.370 . S
C352 C348 1.432 . S
C352 N350 1.359 1_545 S
C352 C355 1.414 . S
C353 H335 0.930 . S
C353 N350 1.327 . S
C353 C351 1.392 . S
C354 H349 0.930 . S
C354 C351 1.370 . S
C354 C355 1.385 1_565 S
C355 C352 1.414 . S
C355 C354 1.385 1_545 S
C355 C377 1.444 . S
O356 Tb312 2.546 . S
O356 C376 1.251 . S
O357 Tb312 2.610 1_655 S
O357 Tb323 2.362 1_565 S
O357 C368 1.283 . S
O358 Tb323 2.421 . S
O358 C375 1.262 . S
O359 Tb312 2.320 1_655 S
O359 C375 1.260 1_565 S
O360 Tb312 2.552 . S
O360 C368 1.243 1_455 S
O361 Tb312 2.413 . S
O361 C376 1.256 . S
O362 Tb323 2.546 . S
O362 C387 1.251 . S
O363 Tb312 2.362 1_545 S
O363 Tb323 2.610 1_455 S
O363 C379 1.283 . S
O364 Tb312 2.421 . S
O364 C386 1.262 1_565 S
O365 Tb323 2.320 1_455 S
O365 C386 1.260 . S
O366 Tb323 2.552 1_455 S
O366 C379 1.243 . S
O367 Tb323 2.413 . S
O367 C387 1.256 . S
C368 O357 1.283 . S
C368 O360 1.243 1_655 S
C369 C371 1.382 . S
C369 C373 1.393 . S
C369 C376 1.500 . S
C370 C371 1.400 . S
C370 C372 1.384 . S
C371 C369 1.382 . S
C371 C370 1.400 . S
C371 H388 0.930 1_455 S
C372 C370 1.384 . S
C372 C374 1.392 . S
C372 H389 0.931 . S
C373 C369 1.393 . S
C373 C374 1.401 . S
C373 H390 0.930 . S
C374 C372 1.392 . S
C374 C373 1.401 . S
C374 H391 0.930 . S
C375 O358 1.262 . S
C375 O359 1.260 1_545 S
C376 Tb312 2.833 . S
C376 O356 1.251 . S
C376 O361 1.256 . S
C376 C369 1.500 . S
C377 H342 0.929 . S
C377 C355 1.444 . S
C377 C378 1.317 . S
C378 H340 0.930 . S
C378 C346 1.432 . S
C378 C377 1.317 . S
C379 O363 1.283 . S
C379 O366 1.243 . S
C380 C381 1.382 . S
C380 C384 1.393 . S
C380 C387 1.500 . S
C381 C380 1.382 . S
C381 C382 1.400 . S
C381 H392 0.930 1_655 S
C382 C381 1.400 . S
C382 C383 1.384 . S
C383 C382 1.384 . S
C383 C385 1.392 . S
C383 H393 0.931 . S
C384 C380 1.393 . S
C384 C385 1.401 . S
C384 H394 0.930 . S
C385 C383 1.392 . S
C385 C384 1.401 . S
C385 H395 0.930 . S
C386 O364 1.262 1_545 S
C386 O365 1.260 . S
C387 Tb323 2.833 . S
C387 O362 1.251 . S
C387 O367 1.256 . S
C387 C380 1.500 . S
H388 C371 0.930 1_655 S
H389 C372 0.931 . S
H390 C373 0.930 . S
H391 C374 0.930 . S
H392 C381 0.930 1_455 S
H393 C383 0.931 . S
H394 C384 0.930 . S
H395 C385 0.930 . S
Tb396 N427 2.660 . S
Tb396 N434 2.600 . S
Tb396 O440 2.546 . S
Tb396 O441 2.610 1_545 S
Tb396 O443 2.320 1_545 S
Tb396 O444 2.552 . S
Tb396 O445 2.413 . S
Tb396 O447 2.362 . S
Tb396 O448 2.421 . S
Tb396 C460 2.833 . S
C397 C400 1.432 . S
C397 C401 1.414 . S
C397 N404 1.359 . S
C398 C400 1.417 . S
C398 C402 1.432 . S
C398 C410 1.410 . S
C399 C401 1.444 . S
C399 C402 1.317 . S
C399 H422 0.929 . S
C400 C397 1.432 . S
C400 C398 1.417 . S
C400 N408 1.360 . S
C401 C397 1.414 . S
C401 C399 1.444 . S
C401 C406 1.385 . S
C402 C398 1.432 . S
C402 C399 1.317 . S
C402 H414 0.930 . S
C403 C405 1.392 . S
C403 C406 1.370 . S
C403 H415 0.931 . S
N404 C397 1.359 . S
N404 C405 1.327 . S
N404 Tb407 2.600 . S
C405 C403 1.392 . S
C405 N404 1.327 . S
C405 H412 0.930 . S
C406 C401 1.385 . S
C406 C403 1.370 . S
C406 H425 0.930 . S
Tb407 N404 2.600 . S
Tb407 N408 2.660 . S
Tb407 O441 2.362 . S
Tb407 O442 2.421 . S
Tb407 O446 2.546 . S
Tb407 O447 2.610 1_565 S
Tb407 O449 2.320 1_565 S
Tb407 O450 2.552 1_565 S
Tb407 O451 2.413 . S
Tb407 C471 2.833 . S
N408 C400 1.360 . S
N408 Tb407 2.660 . S
N408 C409 1.305 1_565 S
C409 N408 1.305 1_545 S
C409 C411 1.407 . S
C409 H416 0.930 . S
C410 C398 1.410 . S
C410 C411 1.345 1_565 S
C410 H418 0.930 . S
C411 C409 1.407 . S
C411 C410 1.345 1_545 S
C411 H413 0.930 . S
H412 C405 0.930 . S
H413 C411 0.930 . S
H414 C402 0.930 . S
H415 C403 0.931 . S
H416 C409 0.930 . S
H417 C431 0.930 1_565 S
H418 C410 0.930 . S
H419 C437 0.930 . S
H420 C428 0.930 1_565 S
H421 C435 0.931 . S
H422 C399 0.929 . S
H423 C429 0.930 . S
H424 C462 0.930 . S
H425 C406 0.930 . S
H426 C461 0.929 . S
N427 Tb396 2.660 . S
N427 C428 1.305 . S
N427 C432 1.360 . S
C428 H420 0.930 1_545 S
C428 N427 1.305 . S
C428 C431 1.407 . S
C429 H423 0.930 . S
C429 C430 1.410 . S
C429 C431 1.345 . S
C430 C429 1.410 . S
C430 C432 1.417 . S
C430 C462 1.432 . S
C431 H417 0.930 1_545 S
C431 C428 1.407 . S
C431 C429 1.345 . S
C432 N427 1.360 . S
C432 C430 1.417 . S
C432 C436 1.432 . S
H433 C438 0.930 . S
N434 Tb396 2.600 . S
N434 C436 1.359 . S
N434 C437 1.327 . S
C435 H421 0.931 . S
C435 C437 1.392 . S
C435 C438 1.370 . S
C436 C432 1.432 . S
C436 N434 1.359 . S
C436 C439 1.414 . S
C437 H419 0.930 . S
C437 N434 1.327 . S
C437 C435 1.392 . S
C438 H433 0.930 . S
C438 C435 1.370 . S
C438 C439 1.385 . S
C439 C436 1.414 . S
C439 C438 1.385 . S
C439 C461 1.444 . S
O440 Tb396 2.546 . S
O440 C460 1.251 . S
O441 Tb396 2.610 1_565 S
O441 Tb407 2.362 . S
O441 C452 1.283 . S
O442 Tb407 2.421 . S
O442 C459 1.262 . S
O443 Tb396 2.320 1_565 S
O443 C459 1.260 . S
O444 Tb396 2.552 . S
O444 C452 1.243 1_545 S
O445 Tb396 2.413 . S
O445 C460 1.256 . S
O446 Tb407 2.546 . S
O446 C471 1.251 . S
O447 Tb396 2.362 . S
O447 Tb407 2.610 1_545 S
O447 C463 1.283 . S
O448 Tb396 2.421 . S
O448 C470 1.262 . S
O449 Tb407 2.320 1_545 S
O449 C470 1.260 . S
O450 Tb407 2.552 1_545 S
O450 C463 1.243 . S
O451 Tb407 2.413 . S
O451 C471 1.256 . S
C452 O441 1.283 . S
C452 O444 1.243 1_565 S
C453 C455 1.382 . S
C453 C457 1.393 . S
C453 C460 1.500 . S
C454 C455 1.400 . S
C454 C456 1.384 . S
C455 C453 1.382 . S
C455 C454 1.400 . S
C455 H472 0.939 . S
C456 C454 1.384 . S
C456 C458 1.392 . S
C456 H473 0.931 . S
C457 C453 1.393 . S
C457 C458 1.401 . S
C457 H474 0.930 . S
C458 C456 1.392 . S
C458 C457 1.401 . S
C458 H475 0.930 . S
C459 O442 1.262 . S
C459 O443 1.260 . S
C460 Tb396 2.833 . S
C460 O440 1.251 . S
C460 O445 1.256 . S
C460 C453 1.500 . S
C461 H426 0.929 . S
C461 C439 1.444 . S
C461 C462 1.317 . S
C462 H424 0.930 . S
C462 C430 1.432 . S
C462 C461 1.317 . S
C463 O447 1.283 . S
C463 O450 1.243 . S
C464 C465 1.412 . S
C464 C468 1.393 . S
C464 C471 1.500 . S
C465 C464 1.412 . S
C465 C466 1.403 . S
C465 H476 0.898 1_565 S
C466 C465 1.403 . S
C466 C467 1.384 . S
C467 C466 1.384 . S
C467 C469 1.392 . S
C467 H477 0.931 . S
C468 C464 1.393 . S
C468 C469 1.401 . S
C468 H478 0.930 . S
C469 C467 1.392 . S
C469 C468 1.401 . S
C469 H479 0.930 . S
C470 O448 1.262 . S
C470 O449 1.260 . S
C471 Tb407 2.833 . S
C471 O446 1.251 . S
C471 O451 1.256 . S
C471 C464 1.500 . S
H472 C455 0.939 . S
H473 C456 0.931 . S
H474 C457 0.930 . S
H475 C458 0.930 . S
H476 C465 0.898 1_545 S
H477 C467 0.931 . S
H478 C468 0.930 . S
H479 C469 0.930 . S
Tb480 N511 2.660 . S
Tb480 N518 2.600 . S
Tb480 O524 2.546 . S
Tb480 O525 2.610 . S
Tb480 O527 2.320 . S
Tb480 O528 2.552 . S
Tb480 O529 2.413 . S
Tb480 O531 2.362 . S
Tb480 O532 2.421 . S
Tb480 C544 2.833 . S
C481 C484 1.432 . S
C481 C485 1.414 . S
C481 N488 1.359 . S
C482 C484 1.417 . S
C482 C486 1.432 . S
C482 C494 1.410 . S
C483 C485 1.444 . S
C483 C486 1.317 . S
C483 H506 0.929 . S
C484 C481 1.432 . S
C484 C482 1.417 . S
C484 N492 1.360 . S
C485 C481 1.414 . S
C485 C483 1.444 . S
C485 C490 1.385 . S
C486 C482 1.432 . S
C486 C483 1.317 . S
C486 H498 0.930 . S
C487 C489 1.392 . S
C487 C490 1.370 . S
C487 H499 0.931 . S
N488 C481 1.359 . S
N488 C489 1.327 . S
N488 Tb491 2.600 . S
C489 C487 1.392 . S
C489 N488 1.327 . S
C489 H496 0.930 . S
C490 C485 1.385 . S
C490 C487 1.370 . S
C490 H509 0.930 . S
Tb491 N488 2.600 . S
Tb491 N492 2.660 . S
Tb491 O525 2.362 . S
Tb491 O526 2.421 . S
Tb491 O530 2.546 . S
Tb491 O531 2.610 . S
Tb491 O533 2.320 . S
Tb491 O534 2.552 . S
Tb491 O535 2.413 . S
Tb491 C555 2.833 . S
N492 C484 1.360 . S
N492 Tb491 2.660 . S
N492 C493 1.305 . S
C493 N492 1.305 . S
C493 C495 1.407 . S
C493 H500 0.930 . S
C494 C482 1.410 . S
C494 C495 1.345 . S
C494 H502 0.930 . S
C495 C493 1.407 . S
C495 C494 1.345 . S
C495 H497 0.930 . S
H496 C489 0.930 . S
H497 C495 0.930 . S
H498 C486 0.930 . S
H499 C487 0.931 . S
H500 C493 0.930 . S
H501 C515 0.930 . S
H502 C494 0.930 . S
H503 C521 0.930 . S
H504 C512 0.930 . S
H505 C519 0.931 . S
H506 C483 0.929 . S
H507 C513 0.930 . S
H508 C546 0.930 . S
H509 C490 0.930 . S
H510 C545 0.929 . S
N511 Tb480 2.660 . S
N511 C512 1.305 . S
N511 C516 1.360 . S
C512 H504 0.930 . S
C512 N511 1.305 . S
C512 C515 1.407 . S
C513 H507 0.930 . S
C513 C514 1.410 . S
C513 C515 1.345 . S
C514 C513 1.410 . S
C514 C516 1.417 . S
C514 C546 1.432 . S
C515 H501 0.930 . S
C515 C512 1.407 . S
C515 C513 1.345 . S
C516 N511 1.360 . S
C516 C514 1.417 . S
C516 C520 1.432 . S
H517 C522 0.930 . S
N518 Tb480 2.600 . S
N518 C520 1.359 . S
N518 C521 1.327 . S
C519 H505 0.931 . S
C519 C521 1.392 . S
C519 C522 1.370 . S
C520 C516 1.432 . S
C520 N518 1.359 . S
C520 C523 1.414 . S
C521 H503 0.930 . S
C521 N518 1.327 . S
C521 C519 1.392 . S
C522 H517 0.930 . S
C522 C519 1.370 . S
C522 C523 1.385 . S
C523 C520 1.414 . S
C523 C522 1.385 . S
C523 C545 1.444 . S
O524 Tb480 2.546 . S
O524 C544 1.251 . S
O525 Tb480 2.610 . S
O525 Tb491 2.362 . S
O525 C536 1.283 . S
O526 Tb491 2.421 . S
O526 C543 1.262 . S
O527 Tb480 2.320 . S
O527 C543 1.260 . S
O528 Tb480 2.552 . S
O528 C536 1.243 . S
O529 Tb480 2.413 . S
O529 C544 1.256 . S
O530 Tb491 2.546 . S
O530 C555 1.251 . S
O531 Tb480 2.362 . S
O531 Tb491 2.610 . S
O531 C547 1.283 . S
O532 Tb480 2.421 . S
O532 C554 1.262 . S
O533 Tb491 2.320 . S
O533 C554 1.260 . S
O534 Tb491 2.552 . S
O534 C547 1.243 . S
O535 Tb491 2.413 . S
O535 C555 1.256 . S
C536 O525 1.283 . S
C536 O528 1.243 . S
C537 C539 1.382 . S
C537 C541 1.393 . S
C537 C544 1.500 . S
C538 C539 1.400 . S
C538 C540 1.384 . S
C539 C537 1.382 . S
C539 C538 1.400 . S
C539 H556 0.930 . S
C540 C538 1.384 . S
C540 C542 1.392 . S
C540 H557 0.931 . S
C541 C537 1.393 . S
C541 C542 1.401 . S
C541 H558 0.930 . S
C542 C540 1.392 . S
C542 C541 1.401 . S
C542 H559 0.930 . S
C543 O526 1.262 . S
C543 O527 1.260 . S
C544 Tb480 2.833 . S
C544 O524 1.251 . S
C544 O529 1.256 . S
C544 C537 1.500 . S
C545 H510 0.929 . S
C545 C523 1.444 . S
C545 C546 1.317 . S
C546 H508 0.930 . S
C546 C514 1.432 . S
C546 C545 1.317 . S
C547 O531 1.283 . S
C547 O534 1.243 . S
C548 C549 1.382 . S
C548 C552 1.393 . S
C548 C555 1.500 . S
C549 C548 1.382 . S
C549 C550 1.400 . S
C549 H560 0.930 . S
C550 C549 1.400 . S
C550 C551 1.384 . S
C551 C550 1.384 . S
C551 C553 1.392 . S
C551 H561 0.931 . S
C552 C548 1.393 . S
C552 C553 1.401 . S
C552 H562 0.930 . S
C553 C551 1.392 . S
C553 C552 1.401 . S
C553 H563 0.930 . S
C554 O532 1.262 . S
C554 O533 1.260 . S
C555 Tb491 2.833 . S
C555 O530 1.251 . S
C555 O535 1.256 . S
C555 C548 1.500 . S
H556 C539 0.930 . S
H557 C540 0.931 . S
H558 C541 0.930 . S
H559 C542 0.930 . S
H560 C549 0.930 . S
H561 C551 0.931 . S
H562 C552 0.930 . S
H563 C553 0.930 . S
Tb564 N595 2.660 . S
Tb564 N602 2.600 . S
Tb564 O608 2.546 . S
Tb564 O609 2.610 . S
Tb564 O611 2.320 . S
Tb564 O612 2.552 . S
Tb564 O613 2.413 . S
Tb564 O615 2.362 . S
Tb564 O616 2.421 1_455 S
Tb564 C628 2.833 . S
C565 C568 1.432 . S
C565 C569 1.414 . S
C565 N572 1.359 . S
C566 C568 1.417 . S
C566 C570 1.432 . S
C566 C578 1.410 . S
C567 C569 1.444 . S
C567 C570 1.317 . S
C567 H590 0.929 . S
C568 C565 1.432 . S
C568 C566 1.417 . S
C568 N576 1.360 . S
C569 C565 1.414 . S
C569 C567 1.444 . S
C569 C574 1.385 . S
C570 C566 1.432 . S
C570 C567 1.317 . S
C570 H582 0.930 . S
C571 C573 1.392 . S
C571 C574 1.370 1_455 S
C571 H583 0.931 . S
N572 C565 1.359 . S
N572 C573 1.327 1_655 S
N572 Tb575 2.600 . S
C573 C571 1.392 . S
C573 N572 1.327 1_455 S
C573 H580 0.930 . S
C574 C569 1.385 . S
C574 C571 1.370 1_655 S
C574 H593 0.930 . S
Tb575 N572 2.600 . S
Tb575 N576 2.660 . S
Tb575 O609 2.362 1_655 S
Tb575 O610 2.421 1_655 S
Tb575 O614 2.546 . S
Tb575 O615 2.610 1_655 S
Tb575 O617 2.320 . S
Tb575 O618 2.552 . S
Tb575 O619 2.413 . S
Tb575 C639 2.833 . S
N576 C568 1.360 . S
N576 Tb575 2.660 . S
N576 C577 1.305 . S
C577 N576 1.305 . S
C577 C579 1.407 . S
C577 H584 0.930 . S
C578 C566 1.410 . S
C578 C579 1.345 . S
C578 H586 0.930 . S
C579 C577 1.407 . S
C579 C578 1.345 . S
C579 H581 0.930 . S
H580 C573 0.930 . S
H581 C579 0.930 . S
H582 C570 0.930 . S
H583 C571 0.931 . S
H584 C577 0.930 . S
H585 C599 0.930 . S
H586 C578 0.930 . S
H587 C605 0.930 1_655 S
H588 C596 0.930 . S
H589 C603 0.931 1_655 S
H590 C567 0.929 . S
H591 C597 0.930 . S
H592 C630 0.930 . S
H593 C574 0.930 . S
H594 C629 0.929 . S
N595 Tb564 2.660 . S
N595 C596 1.305 . S
N595 C600 1.360 . S
C596 H588 0.930 . S
C596 N595 1.305 . S
C596 C599 1.407 . S
C597 H591 0.930 . S
C597 C598 1.410 . S
C597 C599 1.345 . S
C598 C597 1.410 . S
C598 C600 1.417 . S
C598 C630 1.432 . S
C599 H585 0.930 . S
C599 C596 1.407 . S
C599 C597 1.345 . S
C600 N595 1.360 . S
C600 C598 1.417 . S
C600 C604 1.432 . S
H601 C606 0.930 . S
N602 Tb564 2.600 . S
N602 C604 1.359 . S
N602 C605 1.327 . S
C603 H589 0.931 1_455 S
C603 C605 1.392 . S
C603 C606 1.370 . S
C604 C600 1.432 . S
C604 N602 1.359 . S
C604 C607 1.414 . S
C605 H587 0.930 1_455 S
C605 N602 1.327 . S
C605 C603 1.392 . S
C606 H601 0.930 . S
C606 C603 1.370 . S
C606 C607 1.385 . S
C607 C604 1.414 . S
C607 C606 1.385 . S
C607 C629 1.444 . S
O608 Tb564 2.546 . S
O608 C628 1.251 . S
O609 Tb564 2.610 . S
O609 Tb575 2.362 1_455 S
O609 C620 1.283 . S
O610 Tb575 2.421 1_455 S
O610 C627 1.262 . S
O611 Tb564 2.320 . S
O611 C627 1.260 . S
O612 Tb564 2.552 . S
O612 C620 1.243 . S
O613 Tb564 2.413 . S
O613 C628 1.256 . S
O614 Tb575 2.546 . S
O614 C639 1.251 . S
O615 Tb564 2.362 . S
O615 Tb575 2.610 1_455 S
O615 C631 1.283 1_455 S
O616 Tb564 2.421 1_655 S
O616 C638 1.262 . S
O617 Tb575 2.320 . S
O617 C638 1.260 . S
O618 Tb575 2.552 . S
O618 C631 1.243 . S
O619 Tb575 2.413 . S
O619 C639 1.256 . S
C620 O609 1.283 . S
C620 O612 1.243 . S
C621 C623 1.382 . S
C621 C625 1.393 . S
C621 C628 1.500 . S
C622 C623 1.400 . S
C622 C624 1.384 . S
C623 C621 1.382 . S
C623 C622 1.400 . S
C623 H640 0.930 . S
C624 C622 1.384 . S
C624 C626 1.392 . S
C624 H641 0.931 . S
C625 C621 1.393 . S
C625 C626 1.401 . S
C625 H642 0.930 . S
C626 C624 1.392 . S
C626 C625 1.401 . S
C626 H643 0.930 . S
C627 O610 1.262 . S
C627 O611 1.260 . S
C628 Tb564 2.833 . S
C628 O608 1.251 . S
C628 O613 1.256 . S
C628 C621 1.500 . S
C629 H594 0.929 . S
C629 C607 1.444 . S
C629 C630 1.317 . S
C630 H592 0.930 . S
C630 C598 1.432 . S
C630 C629 1.317 . S
C631 O615 1.283 1_655 S
C631 O618 1.243 . S
C632 C633 1.382 . S
C632 C636 1.393 . S
C632 C639 1.500 . S
C633 C632 1.382 . S
C633 C634 1.400 . S
C633 H644 0.930 . S
C634 C633 1.400 . S
C634 C635 1.384 . S
C635 C634 1.384 . S
C635 C637 1.392 . S
C635 H645 0.931 . S
C636 C632 1.393 . S
C636 C637 1.401 . S
C636 H646 0.930 . S
C637 C635 1.392 . S
C637 C636 1.401 . S
C637 H647 0.930 . S
C638 O616 1.262 . S
C638 O617 1.260 . S
C639 Tb575 2.833 . S
C639 O614 1.251 . S
C639 O619 1.256 . S
C639 C632 1.500 . S
H640 C623 0.930 . S
H641 C624 0.931 . S
H642 C625 0.930 . S
H643 C626 0.930 . S
H644 C633 0.930 . S
H645 C635 0.931 . S
H646 C636 0.930 . S
H647 C637 0.930 . S
H648 C656 0.929 . S
H649 C658 0.930 . S
H650 C660 0.930 . S
H651 C663 0.929 . S
H652 C666 0.930 . S
H653 C668 0.960 . S
H654 C668 0.960 . S
H655 C668 0.960 . S
C656 H648 0.929 . S
C656 C657 1.377 . S
C656 C658 1.384 . S
C657 C656 1.377 . S
C657 C663 1.390 . S
C658 H649 0.930 . S
C658 C656 1.384 . S
C658 C659 1.372 . S
C659 C658 1.372 . S
C659 C660 1.400 . S
C659 C664 1.490 . S
C660 H650 0.930 . S
C660 C659 1.400 . S
C660 C663 1.386 . S
H661 C677 0.930 1_565 S
H662 C678 0.931 . S
C663 H651 0.929 . S
C663 C657 1.390 . S
C663 C660 1.386 . S
C664 C659 1.490 . S
C664 C666 1.395 . S
C664 C667 1.403 . S
H665 C671 0.930 . S
C666 H652 0.930 . S
C666 C664 1.395 . S
C666 C669 1.403 . S
C667 C664 1.403 . S
C667 C668 1.524 . S
C667 C671 1.400 . S
C668 H653 0.960 . S
C668 H654 0.960 . S
C668 H655 0.960 . S
C668 C667 1.524 . S
C669 C666 1.403 . S
C669 C670 1.392 . S
C669 C673 1.495 . S
C670 C669 1.392 . S
C670 C671 1.385 . S
C670 C672 1.478 . S
C671 H665 0.930 . S
C671 C667 1.400 . S
C671 C670 1.385 . S
C672 C670 1.478 . S
C672 C674 1.381 . S
C672 C678 1.383 . S
C673 C669 1.495 . S
C673 H679 0.959 . S
C673 H680 0.961 . S
C673 H681 0.960 . S
C674 C672 1.381 . S
C674 C675 1.394 . S
C674 H682 0.930 . S
C675 C674 1.394 . S
C675 C676 1.383 . S
C675 H683 0.929 . S
C676 C675 1.383 . S
C676 C677 1.377 . S
C677 H661 0.930 1_545 S
C677 C676 1.377 . S
C677 C678 1.379 . S
C678 H662 0.931 . S
C678 C672 1.383 . S
C678 C677 1.379 . S
H679 C673 0.959 . S
H680 C673 0.961 . S
H681 C673 0.960 . S
H682 C674 0.930 . S
H683 C675 0.929 . S
H684 C692 0.929 . S
H685 C694 0.930 . S
H686 C696 0.930 . S
H687 C699 0.929 . S
H688 C702 0.930 . S
H689 C704 0.960 . S
H690 C704 0.960 . S
H691 C704 0.960 . S
C692 H684 0.929 . S
C692 C693 1.377 . S
C692 C694 1.384 . S
C693 C692 1.377 . S
C693 C699 1.390 . S
C694 H685 0.930 . S
C694 C692 1.384 . S
C694 C695 1.372 . S
C695 C694 1.372 . S
C695 C696 1.400 . S
C695 C700 1.490 . S
C696 H686 0.930 . S
C696 C695 1.400 . S
C696 C699 1.386 . S
H697 C713 0.930 . S
H698 C714 0.931 . S
C699 H687 0.929 . S
C699 C693 1.390 . S
C699 C696 1.386 . S
C700 C695 1.490 . S
C700 C702 1.395 . S
C700 C703 1.403 . S
H701 C707 0.930 . S
C702 H688 0.930 . S
C702 C700 1.395 . S
C702 C705 1.403 . S
C703 C700 1.403 . S
C703 C704 1.524 . S
C703 C707 1.400 . S
C704 H689 0.960 . S
C704 H690 0.960 . S
C704 H691 0.960 . S
C704 C703 1.524 . S
C705 C702 1.403 . S
C705 C706 1.392 . S
C705 C709 1.495 . S
C706 C705 1.392 . S
C706 C707 1.385 . S
C706 C708 1.478 . S
C707 H701 0.930 . S
C707 C703 1.400 . S
C707 C706 1.385 . S
C708 C706 1.478 . S
C708 C710 1.381 . S
C708 C714 1.383 . S
C709 C705 1.495 . S
C709 H715 0.959 . S
C709 H716 0.961 . S
C709 H717 0.960 . S
C710 C708 1.381 . S
C710 C711 1.394 . S
C710 H718 0.930 . S
C711 C710 1.394 . S
C711 C712 1.383 . S
C711 H719 0.929 . S
C712 C711 1.383 . S
C712 C713 1.377 . S
C713 H697 0.930 . S
C713 C712 1.377 . S
C713 C714 1.379 . S
C714 H698 0.931 . S
C714 C708 1.383 . S
C714 C713 1.379 . S
H715 C709 0.959 . S
H716 C709 0.961 . S
H717 C709 0.960 . S
H718 C710 0.930 . S
H719 C711 0.929 . S
H720 C728 0.929 . S
H721 C730 0.930 . S
H722 C732 0.930 . S
H723 C735 0.929 . S
H724 C738 0.930 . S
H725 C740 0.960 . S
H726 C740 0.960 . S
H727 C740 0.960 . S
C728 H720 0.929 . S
C728 C729 1.377 . S
C728 C730 1.384 . S
C729 C728 1.377 . S
C729 C735 1.390 . S
C730 H721 0.930 . S
C730 C728 1.384 . S
C730 C731 1.372 . S
C731 C730 1.372 . S
C731 C732 1.400 . S
C731 C736 1.490 . S
C732 H722 0.930 . S
C732 C731 1.400 . S
C732 C735 1.386 . S
H733 C749 0.930 . S
H734 C750 0.931 . S
C735 H723 0.929 . S
C735 C729 1.390 . S
C735 C732 1.386 . S
C736 C731 1.490 . S
C736 C738 1.395 . S
C736 C739 1.403 . S
H737 C743 0.930 . S
C738 H724 0.930 . S
C738 C736 1.395 . S
C738 C741 1.403 . S
C739 C736 1.403 . S
C739 C740 1.524 . S
C739 C743 1.400 . S
C740 H725 0.960 . S
C740 H726 0.960 . S
C740 H727 0.960 . S
C740 C739 1.524 . S
C741 C738 1.403 . S
C741 C742 1.392 . S
C741 C745 1.495 . S
C742 C741 1.392 . S
C742 C743 1.385 . S
C742 C744 1.478 . S
C743 H737 0.930 . S
C743 C739 1.400 . S
C743 C742 1.385 . S
C744 C742 1.478 . S
C744 C746 1.381 . S
C744 C750 1.383 . S
C745 C741 1.495 . S
C745 H751 0.959 . S
C745 H752 0.961 . S
C745 H753 0.960 . S
C746 C744 1.381 . S
C746 C747 1.394 . S
C746 H754 0.930 . S
C747 C746 1.394 . S
C747 C748 1.383 . S
C747 H755 0.929 . S
C748 C747 1.383 . S
C748 C749 1.377 . S
C749 H733 0.930 . S
C749 C748 1.377 . S
C749 C750 1.379 . S
C750 H734 0.931 . S
C750 C744 1.383 . S
C750 C749 1.379 . S
H751 C745 0.959 . S
H752 C745 0.961 . S
H753 C745 0.960 . S
H754 C746 0.930 . S
H755 C747 0.929 . S
H756 C764 0.929 . S
H757 C766 0.930 . S
H758 C768 0.930 . S
H759 C771 0.929 . S
H760 C774 0.930 . S
H761 C776 0.960 . S
H762 C776 0.960 . S
H763 C776 0.960 . S
C764 H756 0.929 . S
C764 C765 1.377 . S
C764 C766 1.384 . S
C765 C764 1.377 . S
C765 C771 1.390 . S
C766 H757 0.930 . S
C766 C764 1.384 . S
C766 C767 1.372 . S
C767 C766 1.372 . S
C767 C768 1.400 . S
C767 C772 1.490 . S
C768 H758 0.930 . S
C768 C767 1.400 . S
C768 C771 1.386 . S
H769 C785 0.925 . S
H770 C786 0.931 . S
C771 H759 0.929 . S
C771 C765 1.390 . S
C771 C768 1.386 . S
C772 C767 1.490 . S
C772 C774 1.395 . S
C772 C775 1.403 . S
H773 C779 0.930 . S
C774 H760 0.930 . S
C774 C772 1.395 . S
C774 C777 1.403 . S
C775 C772 1.403 . S
C775 C776 1.524 . S
C775 C779 1.400 . S
C776 H761 0.960 . S
C776 H762 0.960 . S
C776 H763 0.960 . S
C776 C775 1.524 . S
C777 C774 1.403 . S
C777 C778 1.392 . S
C777 C781 1.495 . S
C778 C777 1.392 . S
C778 C779 1.385 . S
C778 C780 1.478 . S
C779 H773 0.930 . S
C779 C775 1.400 . S
C779 C778 1.385 . S
C780 C778 1.478 . S
C780 C782 1.381 . S
C780 C786 1.383 . S
C781 C777 1.495 . S
C781 H787 0.959 . S
C781 H788 0.961 . S
C781 H789 0.960 . S
C782 C780 1.381 . S
C782 C783 1.394 . S
C782 H790 0.930 . S
C783 C782 1.394 . S
C783 C784 1.383 . S
C783 H791 0.929 . S
C784 C783 1.383 . S
C784 C785 1.377 . S
C785 H769 0.925 . S
C785 C784 1.377 . S
C785 C786 1.379 . S
C786 H770 0.931 . S
C786 C780 1.383 . S
C786 C785 1.379 . S
H787 C781 0.959 . S
H788 C781 0.961 . S
H789 C781 0.960 . S
H790 C782 0.930 . S
H791 C783 0.929 . S
H792 C800 0.929 1_554 S
H793 C802 0.930 . S
H794 C804 0.930 . S
H795 C807 0.929 . S
H796 C810 0.930 . S
H797 C812 0.960 . S
H798 C812 0.960 . S
H799 C812 0.960 . S
C800 H792 0.929 1_556 S
C800 C801 1.377 1_556 S
C800 C802 1.384 . S
C801 C800 1.377 1_554 S
C801 C807 1.390 . S
C802 H793 0.930 . S
C802 C800 1.384 . S
C802 C803 1.372 . S
C803 C802 1.372 . S
C803 C804 1.400 . S
C803 C808 1.490 . S
C804 H794 0.930 . S
C804 C803 1.400 . S
C804 C807 1.386 1_556 S
H805 C821 0.930 . S
H806 C822 0.931 . S
C807 H795 0.929 . S
C807 C801 1.390 . S
C807 C804 1.386 1_554 S
C808 C803 1.490 . S
C808 C810 1.395 . S
C808 C811 1.403 . S
H809 C815 0.930 . S
C810 H796 0.930 . S
C810 C808 1.395 . S
C810 C813 1.403 . S
C811 C808 1.403 . S
C811 C812 1.524 . S
C811 C815 1.400 . S
C812 H797 0.960 . S
C812 H798 0.960 . S
C812 H799 0.960 . S
C812 C811 1.524 . S
C813 C810 1.403 . S
C813 C814 1.392 . S
C813 C817 1.495 1_565 S
C814 C813 1.392 . S
C814 C815 1.385 . S
C814 C816 1.478 . S
C815 H809 0.930 . S
C815 C811 1.400 . S
C815 C814 1.385 . S
C816 C814 1.478 . S
C816 C818 1.381 . S
C816 C822 1.383 . S
C817 C813 1.495 1_545 S
C817 H823 0.959 . S
C817 H824 0.961 . S
C817 H825 0.960 . S
C818 C816 1.381 . S
C818 C819 1.394 . S
C818 H826 0.930 . S
C819 C818 1.394 . S
C819 C820 1.383 . S
C819 H827 0.929 . S
C820 C819 1.383 . S
C820 C821 1.377 . S
C821 H805 0.930 . S
C821 C820 1.377 . S
C821 C822 1.379 . S
C822 H806 0.931 . S
C822 C816 1.383 . S
C822 C821 1.379 . S
H823 C817 0.959 . S
H824 C817 0.961 . S
H825 C817 0.960 . S
H826 C818 0.930 . S
H827 C819 0.929 . S
H828 C836 0.929 . S
H829 C838 0.930 . S
H830 C840 0.930 . S
H831 C843 0.929 . S
H832 C846 0.930 . S
H833 C848 0.960 . S
H834 C848 0.960 . S
H835 C848 0.960 . S
C836 H828 0.929 . S
C836 C837 1.377 . S
C836 C838 1.384 . S
C837 C836 1.377 . S
C837 C843 1.390 1_554 S
C838 H829 0.930 . S
C838 C836 1.384 . S
C838 C839 1.372 1_554 S
C839 C838 1.372 1_556 S
C839 C840 1.400 . S
C839 C844 1.490 . S
C840 H830 0.930 . S
C840 C839 1.400 . S
C840 C843 1.386 . S
H841 C857 0.930 . S
H842 C858 0.931 . S
C843 H831 0.929 . S
C843 C837 1.390 1_556 S
C843 C840 1.386 . S
C844 C839 1.490 . S
C844 C846 1.395 . S
C844 C847 1.403 . S
H845 C851 0.930 . S
C846 H832 0.930 . S
C846 C844 1.395 . S
C846 C849 1.403 . S
C847 C844 1.403 . S
C847 C848 1.524 . S
C847 C851 1.400 . S
C848 H833 0.960 . S
C848 H834 0.960 . S
C848 H835 0.960 . S
C848 C847 1.524 . S
C849 C846 1.403 . S
C849 C850 1.392 . S
C849 C853 1.495 . S
C850 C849 1.392 . S
C850 C851 1.385 . S
C850 C852 1.478 . S
C851 H845 0.930 . S
C851 C847 1.400 . S
C851 C850 1.385 . S
C852 C850 1.478 . S
C852 C854 1.381 . S
C852 C858 1.383 . S
C853 C849 1.495 . S
C853 H859 0.959 . S
C853 H860 0.961 . S
C853 H861 0.960 . S
C854 C852 1.381 . S
C854 C855 1.394 . S
C854 H862 0.930 . S
C855 C854 1.394 . S
C855 C856 1.383 . S
C855 H863 0.929 . S
C856 C855 1.383 . S
C856 C857 1.377 . S
C857 H841 0.930 . S
C857 C856 1.377 . S
C857 C858 1.379 . S
C858 H842 0.931 . S
C858 C852 1.383 . S
C858 C857 1.379 . S
H859 C853 0.959 . S
H860 C853 0.961 . S
H861 C853 0.960 . S
H862 C854 0.930 . S
H863 C855 0.929 . S
H864 C872 0.929 . S
H865 C874 0.930 . S
H866 C876 0.930 . S
H867 C879 0.929 . S
H868 C882 0.930 . S
H869 C884 0.960 . S
H870 C884 0.960 . S
H871 C884 0.960 . S
C872 H864 0.929 . S
C872 C873 1.377 . S
C872 C874 1.384 1_554 S
C873 C872 1.377 . S
C873 C879 1.390 . S
C874 H865 0.930 . S
C874 C872 1.384 1_556 S
C874 C875 1.372 . S
C875 C874 1.372 . S
C875 C876 1.400 . S
C875 C880 1.490 . S
C876 H866 0.930 . S
C876 C875 1.400 . S
C876 C879 1.386 1_556 S
H877 C893 0.930 . S
H878 C894 0.931 . S
C879 H867 0.929 . S
C879 C873 1.390 . S
C879 C876 1.386 1_554 S
C880 C875 1.490 . S
C880 C882 1.395 . S
C880 C883 1.403 . S
H881 C887 0.930 . S
C882 H868 0.930 . S
C882 C880 1.395 . S
C882 C885 1.403 . S
C883 C880 1.403 . S
C883 C884 1.524 . S
C883 C887 1.400 . S
C884 H869 0.960 . S
C884 H870 0.960 . S
C884 H871 0.960 . S
C884 C883 1.524 . S
C885 C882 1.403 . S
C885 C886 1.392 . S
C885 C889 1.495 . S
C886 C885 1.392 . S
C886 C887 1.385 . S
C886 C888 1.478 . S
C887 H881 0.930 . S
C887 C883 1.400 . S
C887 C886 1.385 . S
C888 C886 1.478 . S
C888 C890 1.381 . S
C888 C894 1.383 . S
C889 C885 1.495 . S
C889 H895 0.959 . S
C889 H896 0.961 . S
C889 H897 0.960 . S
C890 C888 1.381 . S
C890 C891 1.394 . S
C890 H898 0.930 . S
C891 C890 1.394 . S
C891 C892 1.383 . S
C891 H899 0.929 . S
C892 C891 1.383 . S
C892 C893 1.377 . S
C893 H877 0.930 . S
C893 C892 1.377 . S
C893 C894 1.379 . S
C894 H878 0.931 . S
C894 C888 1.383 . S
C894 C893 1.379 . S
H895 C889 0.959 . S
H896 C889 0.961 . S
H897 C889 0.960 . S
H898 C890 0.930 . S
H899 C891 0.929 . S
H900 C908 0.929 . S
H901 C910 0.930 . S
H902 C912 0.930 . S
H903 C915 0.929 . S
H904 C918 0.930 . S
H905 C920 0.905 1_455 S
H906 C920 0.960 . S
H907 C920 0.960 . S
C908 H900 0.929 . S
C908 C909 1.377 . S
C908 C910 1.384 1_554 S
C909 C908 1.377 . S
C909 C915 1.390 . S
C910 H901 0.930 . S
C910 C908 1.384 1_556 S
C910 C911 1.372 . S
C911 C910 1.372 . S
C911 C912 1.400 . S
C911 C916 1.490 . S
C912 H902 0.930 . S
C912 C911 1.400 . S
C912 C915 1.386 1_556 S
H913 C929 0.930 . S
H914 C930 0.931 . S
C915 H903 0.929 . S
C915 C909 1.390 . S
C915 C912 1.386 1_554 S
C916 C911 1.490 . S
C916 C918 1.395 . S
C916 C919 1.403 . S
H917 C923 0.930 . S
C918 H904 0.930 . S
C918 C916 1.395 . S
C918 C921 1.403 . S
C919 C916 1.403 . S
C919 C920 1.524 . S
C919 C923 1.400 . S
C920 H905 0.905 1_655 S
C920 H906 0.960 . S
C920 H907 0.960 . S
C920 C919 1.524 . S
C921 C918 1.403 . S
C921 C922 1.392 . S
C921 C925 1.495 . S
C922 C921 1.392 . S
C922 C923 1.385 . S
C922 C924 1.478 . S
C923 H917 0.930 . S
C923 C919 1.400 . S
C923 C922 1.385 . S
C924 C922 1.478 . S
C924 C926 1.381 . S
C924 C930 1.383 . S
C925 C921 1.495 . S
C925 H931 0.959 . S
C925 H932 0.961 . S
C925 H933 0.960 . S
C926 C924 1.381 . S
C926 C927 1.394 . S
C926 H934 0.930 . S
C927 C926 1.394 . S
C927 C928 1.383 . S
C927 H935 0.929 . S
C928 C927 1.383 . S
C928 C929 1.377 . S
C929 H913 0.930 . S
C929 C928 1.377 . S
C929 C930 1.379 . S
C930 H914 0.931 . S
C930 C924 1.383 . S
C930 C929 1.379 . S
H931 C925 0.959 . S
H932 C925 0.961 . S
H933 C925 0.960 . S
H934 C926 0.930 . S
H935 C927 0.929 . S
H936 C944 0.929 . S
H937 C946 0.930 . S
H938 C948 0.930 . S
H939 C951 0.929 . S
H940 C954 0.930 . S
H941 C956 0.960 . S
H942 C956 0.960 . S
H943 C956 0.960 . S
C944 H936 0.929 . S
C944 C945 1.377 . S
C944 C946 1.384 . S
C945 C944 1.377 . S
C945 C951 1.390 . S
C946 H937 0.930 . S
C946 C944 1.384 . S
C946 C947 1.372 . S
C947 C946 1.372 . S
C947 C948 1.400 . S
C947 C952 1.490 . S
C948 H938 0.930 . S
C948 C947 1.400 . S
C948 C951 1.386 . S
H949 C965 0.930 . S
H950 C966 0.931 . S
C951 H939 0.929 . S
C951 C945 1.390 . S
C951 C948 1.386 . S
C952 C947 1.490 . S
C952 C954 1.395 . S
C952 C955 1.403 . S
H953 C959 0.930 . S
C954 H940 0.930 . S
C954 C952 1.395 . S
C954 C957 1.403 . S
C955 C952 1.403 . S
C955 C956 1.524 . S
C955 C959 1.400 . S
C956 H941 0.960 . S
C956 H942 0.960 . S
C956 H943 0.960 . S
C956 C955 1.524 . S
C957 C954 1.403 . S
C957 C958 1.392 . S
C957 C961 1.495 . S
C958 C957 1.392 . S
C958 C959 1.385 . S
C958 C960 1.478 . S
C959 H953 0.930 . S
C959 C955 1.400 . S
C959 C958 1.385 . S
C960 C958 1.478 . S
C960 C962 1.381 . S
C960 C966 1.383 . S
C961 C957 1.495 . S
C961 H967 0.959 . S
C961 H968 0.961 . S
C961 H969 0.960 . S
C962 C960 1.381 . S
C962 C963 1.364 1_455 S
C962 H970 0.930 . S
C963 C962 1.364 1_655 S
C963 C964 1.368 1_655 S
C963 H971 0.978 . S
C964 C963 1.368 1_455 S
C964 C965 1.377 . S
C965 H949 0.930 . S
C965 C964 1.377 . S
C965 C966 1.379 . S
C966 H950 0.931 . S
C966 C960 1.383 . S
C966 C965 1.379 . S
H967 C961 0.959 . S
H968 C961 0.961 . S
H969 C961 0.960 . S
H970 C962 0.930 . S
H971 C963 0.978 . S
H972 C980 0.929 . S
H973 C982 0.930 . S
H974 C984 0.930 . S
H975 C987 0.929 . S
H976 C990 0.930 . S
H977 C992 0.960 . S
H978 C992 0.960 . S
H979 C992 0.960 . S
C980 H972 0.929 . S
C980 C981 1.377 . S
C980 C982 1.384 . S
C981 C980 1.377 . S
C981 C987 1.390 . S
C982 H973 0.930 . S
C982 C980 1.384 . S
C982 C983 1.372 . S
C983 C982 1.372 . S
C983 C984 1.400 . S
C983 C988 1.490 . S
C984 H974 0.930 . S
C984 C983 1.400 . S
C984 C987 1.386 . S
H985 C1001 0.930 . S
H986 C1002 0.931 . S
C987 H975 0.929 . S
C987 C981 1.390 . S
C987 C984 1.386 . S
C988 C983 1.490 . S
C988 C990 1.395 . S
C988 C991 1.403 . S
H989 C995 0.930 . S
C990 H976 0.930 . S
C990 C988 1.395 . S
C990 C993 1.403 . S
C991 C988 1.403 . S
C991 C992 1.524 . S
C991 C995 1.400 . S
C992 H977 0.960 . S
C992 H978 0.960 . S
C992 H979 0.960 . S
C992 C991 1.524 . S
C993 C990 1.403 . S
C993 C994 1.392 . S
C993 C997 1.495 . S
C994 C993 1.392 . S
C994 C995 1.385 . S
C994 C996 1.478 . S
C995 H989 0.930 . S
C995 C991 1.400 . S
C995 C994 1.385 . S
C996 C994 1.478 . S
C996 C998 1.381 . S
C996 C1002 1.383 . S
C997 C993 1.495 . S
C997 H1003 0.959 . S
C997 H1004 0.961 . S
C997 H1005 0.960 . S
C998 C996 1.381 . S
C998 C999 1.394 1_545 S
C998 H1006 0.930 1_545 S
C999 C998 1.394 1_565 S
C999 C1000 1.383 1_565 S
C999 H1007 0.929 . S
C1000 C999 1.383 1_545 S
C1000 C1001 1.377 . S
C1001 H985 0.930 . S
C1001 C1000 1.377 . S
C1001 C1002 1.379 . S
C1002 H986 0.931 . S
C1002 C996 1.383 . S
C1002 C1001 1.379 . S
H1003 C997 0.959 . S
H1004 C997 0.961 . S
H1005 C997 0.960 . S
H1006 C998 0.930 1_565 S
H1007 C999 0.929 . S
H1008 C1016 0.929 . S
H1009 C1018 0.930 . S
H1010 C1020 0.930 . S
H1011 C1023 0.929 . S
H1012 C1026 0.930 . S
H1013 C1028 0.960 . S
H1014 C1028 0.960 . S
H1015 C1028 0.960 . S
C1016 H1008 0.929 . S
C1016 C1017 1.377 . S
C1016 C1018 1.384 . S
C1017 C1016 1.377 . S
C1017 C1023 1.390 . S
C1018 H1009 0.930 . S
C1018 C1016 1.384 . S
C1018 C1019 1.372 . S
C1019 C1018 1.372 . S
C1019 C1020 1.400 . S
C1019 C1024 1.490 . S
C1020 H1010 0.930 . S
C1020 C1019 1.400 . S
C1020 C1023 1.386 . S
H1021 C1037 0.930 . S
H1022 C1038 0.931 . S
C1023 H1011 0.929 . S
C1023 C1017 1.390 . S
C1023 C1020 1.386 . S
C1024 C1019 1.490 . S
C1024 C1026 1.395 . S
C1024 C1027 1.403 . S
H1025 C1031 0.930 . S
C1026 H1012 0.930 . S
C1026 C1024 1.395 . S
C1026 C1029 1.403 . S
C1027 C1024 1.403 . S
C1027 C1028 1.524 . S
C1027 C1031 1.400 . S
C1028 H1013 0.960 . S
C1028 H1014 0.960 . S
C1028 H1015 0.960 . S
C1028 C1027 1.524 . S
C1029 C1026 1.403 . S
C1029 C1030 1.392 . S
C1029 C1033 1.495 . S
C1030 C1029 1.392 . S
C1030 C1031 1.385 . S
C1030 C1032 1.478 . S
C1031 H1025 0.930 . S
C1031 C1027 1.400 . S
C1031 C1030 1.385 . S
C1032 C1030 1.478 . S
C1032 C1034 1.381 . S
C1032 C1038 1.383 . S
C1033 C1029 1.495 . S
C1033 H1039 0.959 . S
C1033 H1040 0.961 . S
C1033 H1041 0.960 . S
C1034 C1032 1.381 . S
C1034 C1035 1.394 . S
C1034 H1042 0.930 . S
C1035 C1034 1.394 . S
C1035 C1036 1.383 . S
C1035 H1043 0.929 . S
C1036 C1035 1.383 . S
C1036 C1037 1.377 . S
C1037 H1021 0.930 . S
C1037 C1036 1.377 . S
C1037 C1038 1.379 . S
C1038 H1022 0.931 . S
C1038 C1032 1.383 . S
C1038 C1037 1.379 . S
H1039 C1033 0.959 . S
H1040 C1033 0.961 . S
H1041 C1033 0.960 . S
H1042 C1034 0.930 . S
H1043 C1035 0.929 . S
H1044 C1052 0.929 . S
H1045 C1054 0.930 . S
H1046 C1056 0.930 . S
H1047 C1059 0.929 . S
H1048 C1062 0.930 . S
H1049 C1064 0.960 . S
H1050 C1064 0.960 . S
H1051 C1064 0.960 . S
C1052 H1044 0.929 . S
C1052 C1053 1.377 . S
C1052 C1054 1.384 . S
C1053 C1052 1.377 . S
C1053 C1059 1.390 . S
C1054 H1045 0.930 . S
C1054 C1052 1.384 . S
C1054 C1055 1.372 . S
C1055 C1054 1.372 . S
C1055 C1056 1.400 . S
C1055 C1060 1.490 . S
C1056 H1046 0.930 . S
C1056 C1055 1.400 . S
C1056 C1059 1.386 . S
H1057 C1073 0.930 . S
H1058 C1074 0.931 . S
C1059 H1047 0.929 . S
C1059 C1053 1.390 . S
C1059 C1056 1.386 . S
C1060 C1055 1.490 . S
C1060 C1062 1.395 . S
C1060 C1063 1.403 . S
H1061 C1067 0.930 . S
C1062 H1048 0.930 . S
C1062 C1060 1.395 . S
C1062 C1065 1.403 . S
C1063 C1060 1.403 . S
C1063 C1064 1.524 . S
C1063 C1067 1.400 . S
C1064 H1049 0.960 . S
C1064 H1050 0.960 . S
C1064 H1051 0.960 . S
C1064 C1063 1.524 . S
C1065 C1062 1.403 . S
C1065 C1066 1.392 . S
C1065 C1069 1.495 . S
C1066 C1065 1.392 . S
C1066 C1067 1.385 . S
C1066 C1068 1.478 . S
C1067 H1061 0.930 . S
C1067 C1063 1.400 . S
C1067 C1066 1.385 . S
C1068 C1066 1.478 . S
C1068 C1070 1.381 . S
C1068 C1074 1.383 . S
C1069 C1065 1.495 . S
C1069 H1075 0.959 . S
C1069 H1076 0.961 . S
C1069 H1077 0.960 . S
C1070 C1068 1.381 . S
C1070 C1071 1.394 . S
C1070 H1078 0.930 . S
C1071 C1070 1.394 . S
C1071 C1072 1.383 . S
C1071 H1079 0.929 . S
C1072 C1071 1.383 . S
C1072 C1073 1.377 . S
C1073 H1057 0.930 . S
C1073 C1072 1.377 . S
C1073 C1074 1.379 . S
C1074 H1058 0.931 . S
C1074 C1068 1.383 . S
C1074 C1073 1.379 . S
H1075 C1069 0.959 . S
H1076 C1069 0.961 . S
H1077 C1069 0.960 . S
H1078 C1070 0.930 . S
H1079 C1071 0.929 . S
H1080 C1088 0.929 . S
H1081 C1090 0.930 . S
H1082 C1092 0.930 . S
H1083 C1095 0.929 1_554 S
H1084 C1098 0.930 . S
H1085 C1100 0.960 . S
H1086 C1100 0.960 . S
H1087 C1100 0.960 . S
C1088 H1080 0.929 . S
C1088 C1089 1.377 . S
C1088 C1090 1.384 . S
C1089 C1088 1.377 . S
C1089 C1095 1.390 . S
C1090 H1081 0.930 . S
C1090 C1088 1.384 . S
C1090 C1091 1.372 . S
C1091 C1090 1.372 . S
C1091 C1092 1.400 . S
C1091 C1096 1.490 . S
C1092 H1082 0.930 . S
C1092 C1091 1.400 . S
C1092 C1095 1.386 . S
H1093 C1109 0.930 . S
H1094 C1110 0.931 1_455 S
C1095 H1083 0.929 1_556 S
C1095 C1089 1.390 . S
C1095 C1092 1.386 . S
C1096 C1091 1.490 . S
C1096 C1098 1.395 . S
C1096 C1099 1.403 . S
H1097 C1103 0.930 . S
C1098 H1084 0.930 . S
C1098 C1096 1.395 . S
C1098 C1101 1.403 . S
C1099 C1096 1.403 . S
C1099 C1100 1.524 . S
C1099 C1103 1.400 . S
C1100 H1085 0.960 . S
C1100 H1086 0.960 . S
C1100 H1087 0.960 . S
C1100 C1099 1.524 . S
C1101 C1098 1.403 . S
C1101 C1102 1.392 . S
C1101 C1105 1.495 . S
C1102 C1101 1.392 . S
C1102 C1103 1.385 . S
C1102 C1104 1.478 . S
C1103 H1097 0.930 . S
C1103 C1099 1.400 . S
C1103 C1102 1.385 . S
C1104 C1102 1.478 . S
C1104 C1106 1.381 . S
C1104 C1110 1.383 . S
C1105 C1101 1.495 . S
C1105 H1111 0.959 . S
C1105 H1112 0.961 . S
C1105 H1113 0.960 . S
C1106 C1104 1.381 . S
C1106 C1107 1.394 . S
C1106 H1114 0.930 . S
C1107 C1106 1.394 . S
C1107 C1108 1.383 1_655 S
C1107 H1115 0.929 . S
C1108 C1107 1.383 1_455 S
C1108 C1109 1.377 . S
C1109 H1093 0.930 . S
C1109 C1108 1.377 . S
C1109 C1110 1.379 1_455 S
C1110 H1094 0.931 1_655 S
C1110 C1104 1.383 . S
C1110 C1109 1.379 1_655 S
H1111 C1105 0.959 . S
H1112 C1105 0.961 . S
H1113 C1105 0.960 . S
H1114 C1106 0.930 . S
H1115 C1107 0.929 . S
H1116 C1124 0.929 . S
H1117 C1126 0.930 . S
H1118 C1128 0.930 . S
H1119 C1131 0.929 . S
H1120 C1134 0.930 . S
H1121 C1136 0.960 . S
H1122 C1136 0.960 . S
H1123 C1136 0.960 . S
C1124 H1116 0.929 . S
C1124 C1125 1.377 . S
C1124 C1126 1.384 . S
C1125 C1124 1.377 . S
C1125 C1131 1.390 . S
C1126 H1117 0.930 . S
C1126 C1124 1.384 . S
C1126 C1127 1.372 . S
C1127 C1126 1.372 . S
C1127 C1128 1.400 . S
C1127 C1132 1.490 . S
C1128 H1118 0.930 . S
C1128 C1127 1.400 . S
C1128 C1131 1.386 . S
H1129 C1145 0.930 . S
H1130 C1146 0.931 . S
C1131 H1119 0.929 . S
C1131 C1125 1.390 . S
C1131 C1128 1.386 . S
C1132 C1127 1.490 . S
C1132 C1134 1.395 . S
C1132 C1135 1.403 . S
H1133 C1139 0.930 . S
C1134 H1120 0.930 . S
C1134 C1132 1.395 . S
C1134 C1137 1.403 . S
C1135 C1132 1.403 . S
C1135 C1136 1.524 . S
C1135 C1139 1.400 . S
C1136 H1121 0.960 . S
C1136 H1122 0.960 . S
C1136 H1123 0.960 . S
C1136 C1135 1.524 . S
C1137 C1134 1.403 . S
C1137 C1138 1.392 . S
C1137 C1141 1.495 . S
C1138 C1137 1.392 . S
C1138 C1139 1.385 . S
C1138 C1140 1.478 . S
C1139 H1133 0.930 . S
C1139 C1135 1.400 . S
C1139 C1138 1.385 . S
C1140 C1138 1.478 . S
C1140 C1142 1.381 1_565 S
C1140 C1146 1.383 . S
C1141 C1137 1.495 . S
C1141 H1147 0.959 . S
C1141 H1148 0.961 . S
C1141 H1149 0.960 1_565 S
C1142 C1140 1.381 1_545 S
C1142 C1143 1.394 . S
C1142 H1150 0.930 . S
C1143 C1142 1.394 . S
C1143 C1144 1.383 . S
C1143 H1151 0.929 . S
C1144 C1143 1.383 . S
C1144 C1145 1.377 1_545 S
C1145 H1129 0.930 . S
C1145 C1144 1.377 1_565 S
C1145 C1146 1.379 . S
C1146 H1130 0.931 . S
C1146 C1140 1.383 . S
C1146 C1145 1.379 . S
H1147 C1141 0.959 . S
H1148 C1141 0.961 . S
H1149 C1141 0.960 1_545 S
H1150 C1142 0.930 . S
H1151 C1143 0.929 . S
H1152 C1160 0.929 . S
H1153 C1162 0.930 . S
H1154 C1164 0.930 . S
H1155 C1167 0.929 . S
H1156 C1170 0.930 . S
H1157 C1172 0.960 . S
H1158 C1172 0.960 . S
H1159 C1172 0.960 . S
C1160 H1152 0.929 . S
C1160 C1161 1.377 . S
C1160 C1162 1.384 . S
C1161 C1160 1.377 . S
C1161 C1167 1.390 . S
C1162 H1153 0.930 . S
C1162 C1160 1.384 . S
C1162 C1163 1.372 . S
C1163 C1162 1.372 . S
C1163 C1164 1.400 . S
C1163 C1168 1.490 . S
C1164 H1154 0.930 . S
C1164 C1163 1.400 . S
C1164 C1167 1.386 . S
H1165 C1181 0.930 . S
H1166 C1182 0.931 . S
C1167 H1155 0.929 . S
C1167 C1161 1.390 . S
C1167 C1164 1.386 . S
C1168 C1163 1.490 . S
C1168 C1170 1.395 . S
C1168 C1171 1.403 . S
H1169 C1175 0.930 . S
C1170 H1156 0.930 . S
C1170 C1168 1.395 . S
C1170 C1173 1.403 . S
C1171 C1168 1.403 . S
C1171 C1172 1.524 . S
C1171 C1175 1.400 . S
C1172 H1157 0.960 . S
C1172 H1158 0.960 . S
C1172 H1159 0.960 . S
C1172 C1171 1.524 . S
C1173 C1170 1.403 . S
C1173 C1174 1.392 . S
C1173 C1177 1.495 . S
C1174 C1173 1.392 . S
C1174 C1175 1.385 . S
C1174 C1176 1.478 . S
C1175 H1169 0.930 . S
C1175 C1171 1.400 . S
C1175 C1174 1.385 . S
C1176 C1174 1.478 . S
C1176 C1178 1.381 . S
C1176 C1182 1.383 . S
C1177 C1173 1.495 . S
C1177 H1183 0.959 . S
C1177 H1184 0.961 . S
C1177 H1185 0.960 . S
C1178 C1176 1.381 . S
C1178 C1179 1.394 . S
C1178 H1186 0.930 . S
C1179 C1178 1.394 . S
C1179 C1180 1.383 . S
C1179 H1187 0.929 . S
C1180 C1179 1.383 . S
C1180 C1181 1.377 . S
C1181 H1165 0.930 . S
C1181 C1180 1.377 . S
C1181 C1182 1.379 . S
C1182 H1166 0.931 . S
C1182 C1176 1.383 . S
C1182 C1181 1.379 . S
H1183 C1177 0.959 . S
H1184 C1177 0.961 . S
H1185 C1177 0.960 . S
H1186 C1178 0.930 . S
H1187 C1179 0.929 . S
H1188 C1196 0.929 1_554 S
H1189 C1198 0.930 . S
H1190 C1200 0.930 . S
H1191 C1203 0.929 . S
H1192 C1206 0.930 . S
H1193 C1208 0.960 . S
H1194 C1208 0.960 . S
H1195 C1208 0.960 . S
C1196 H1188 0.929 1_556 S
C1196 C1197 1.377 . S
C1196 C1198 1.384 . S
C1197 C1196 1.377 . S
C1197 C1203 1.390 . S
C1198 H1189 0.930 . S
C1198 C1196 1.384 . S
C1198 C1199 1.372 . S
C1199 C1198 1.372 . S
C1199 C1200 1.400 . S
C1199 C1204 1.490 . S
C1200 H1190 0.930 . S
C1200 C1199 1.400 . S
C1200 C1203 1.386 . S
H1201 C1217 0.930 . S
H1202 C1218 0.931 . S
C1203 H1191 0.929 . S
C1203 C1197 1.390 . S
C1203 C1200 1.386 . S
C1204 C1199 1.490 . S
C1204 C1206 1.395 . S
C1204 C1207 1.403 . S
H1205 C1211 0.930 . S
C1206 H1192 0.930 . S
C1206 C1204 1.395 . S
C1206 C1209 1.403 . S
C1207 C1204 1.403 . S
C1207 C1208 1.524 . S
C1207 C1211 1.400 . S
C1208 H1193 0.960 . S
C1208 H1194 0.960 . S
C1208 H1195 0.960 . S
C1208 C1207 1.524 . S
C1209 C1206 1.403 . S
C1209 C1210 1.392 . S
C1209 C1213 1.495 . S
C1210 C1209 1.392 . S
C1210 C1211 1.385 . S
C1210 C1212 1.478 . S
C1211 H1205 0.930 . S
C1211 C1207 1.400 . S
C1211 C1210 1.385 . S
C1212 C1210 1.478 . S
C1212 C1214 1.381 . S
C1212 C1218 1.383 . S
C1213 C1209 1.495 . S
C1213 H1219 0.959 . S
C1213 H1220 0.961 . S
C1213 H1221 0.960 . S
C1214 C1212 1.381 . S
C1214 C1215 1.394 . S
C1214 H1222 0.930 . S
C1215 C1214 1.394 . S
C1215 C1216 1.383 . S
C1215 H1223 0.929 . S
C1216 C1215 1.383 . S
C1216 C1217 1.377 . S
C1217 H1201 0.930 . S
C1217 C1216 1.377 . S
C1217 C1218 1.379 . S
C1218 H1202 0.931 . S
C1218 C1212 1.383 . S
C1218 C1217 1.379 . S
H1219 C1213 0.959 . S
H1220 C1213 0.961 . S
H1221 C1213 0.960 . S
H1222 C1214 0.930 . S
H1223 C1215 0.929 . S
H1224 C1232 0.929 . S
H1225 C1234 0.930 . S
H1226 C1236 0.930 . S
H1227 C1239 0.929 . S
H1228 C1242 0.930 . S
H1229 C1244 0.960 . S
H1230 C1244 0.960 . S
H1231 C1244 0.960 . S
C1232 H1224 0.929 . S
C1232 C1233 1.377 . S
C1232 C1234 1.384 . S
C1233 C1232 1.377 . S
C1233 C1239 1.390 . S
C1234 H1225 0.930 . S
C1234 C1232 1.384 . S
C1234 C1235 1.372 . S
C1235 C1234 1.372 . S
C1235 C1236 1.400 . S
C1235 C1240 1.490 . S
C1236 H1226 0.930 . S
C1236 C1235 1.400 . S
C1236 C1239 1.386 . S
H1237 C1253 0.930 . S
H1238 C1254 0.931 . S
C1239 H1227 0.929 . S
C1239 C1233 1.390 . S
C1239 C1236 1.386 . S
C1240 C1235 1.490 . S
C1240 C1242 1.395 . S
C1240 C1243 1.403 . S
H1241 C1247 0.930 . S
C1242 H1228 0.930 . S
C1242 C1240 1.395 . S
C1242 C1245 1.403 . S
C1243 C1240 1.403 . S
C1243 C1244 1.524 . S
C1243 C1247 1.400 . S
C1244 H1229 0.960 . S
C1244 H1230 0.960 . S
C1244 H1231 0.960 . S
C1244 C1243 1.524 . S
C1245 C1242 1.403 . S
C1245 C1246 1.392 . S
C1245 C1249 1.495 . S
C1246 C1245 1.392 . S
C1246 C1247 1.385 . S
C1246 C1248 1.478 . S
C1247 H1241 0.930 . S
C1247 C1243 1.400 . S
C1247 C1246 1.385 . S
C1248 C1246 1.478 . S
C1248 C1250 1.381 . S
C1248 C1254 1.383 . S
C1249 C1245 1.495 . S
C1249 H1255 0.959 . S
C1249 H1256 0.961 . S
C1249 H1257 0.960 . S
C1250 C1248 1.381 . S
C1250 C1251 1.394 . S
C1250 H1258 0.930 . S
C1251 C1250 1.394 . S
C1251 C1252 1.383 . S
C1251 H1259 0.929 . S
C1252 C1251 1.383 . S
C1252 C1253 1.377 . S
C1253 H1237 0.930 . S
C1253 C1252 1.377 . S
C1253 C1254 1.379 . S
C1254 H1238 0.931 . S
C1254 C1248 1.383 . S
C1254 C1253 1.379 . S
H1255 C1249 0.959 . S
H1256 C1249 0.961 . S
H1257 C1249 0.960 . S
H1258 C1250 0.930 . S
H1259 C1251 0.929 . S
H1260 C1268 0.929 . S
H1261 C1270 0.930 . S
H1262 C1272 0.930 . S
H1263 C1275 0.929 . S
H1264 C1278 0.930 . S
H1265 C1280 0.960 . S
H1266 C1280 0.960 . S
H1267 C1280 0.960 . S
C1268 H1260 0.929 . S
C1268 C1269 1.377 . S
C1268 C1270 1.384 . S
C1269 C1268 1.377 . S
C1269 C1275 1.390 . S
C1270 H1261 0.930 . S
C1270 C1268 1.384 . S
C1270 C1271 1.372 . S
C1271 C1270 1.372 . S
C1271 C1272 1.400 . S
C1271 C1276 1.490 . S
C1272 H1262 0.930 . S
C1272 C1271 1.400 . S
C1272 C1275 1.386 . S
H1273 C1289 0.930 . S
H1274 C1290 0.931 . S
C1275 H1263 0.929 . S
C1275 C1269 1.390 . S
C1275 C1272 1.386 . S
C1276 C1271 1.490 . S
C1276 C1278 1.395 . S
C1276 C1279 1.403 . S
H1277 C1283 0.930 . S
C1278 H1264 0.930 . S
C1278 C1276 1.395 . S
C1278 C1281 1.403 . S
C1279 C1276 1.403 . S
C1279 C1280 1.524 . S
C1279 C1283 1.400 . S
C1280 H1265 0.960 . S
C1280 H1266 0.960 . S
C1280 H1267 0.960 . S
C1280 C1279 1.524 . S
C1281 C1278 1.403 . S
C1281 C1282 1.392 . S
C1281 C1285 1.495 . S
C1282 C1281 1.392 . S
C1282 C1283 1.385 . S
C1282 C1284 1.478 . S
C1283 H1277 0.930 . S
C1283 C1279 1.400 . S
C1283 C1282 1.385 . S
C1284 C1282 1.478 . S
C1284 C1286 1.381 . S
C1284 C1290 1.383 . S
C1285 C1281 1.495 . S
C1285 H1291 0.971 . S
C1285 H1292 0.961 . S
C1285 H1293 0.975 . S
C1286 C1284 1.381 . S
C1286 C1287 1.394 . S
C1286 H1294 0.930 . S
C1287 C1286 1.394 . S
C1287 C1288 1.383 . S
C1287 H1295 0.929 . S
C1288 C1287 1.383 . S
C1288 C1289 1.377 . S
C1289 H1273 0.930 . S
C1289 C1288 1.377 . S
C1289 C1290 1.379 . S
C1290 H1274 0.931 . S
C1290 C1284 1.383 . S
C1290 C1289 1.379 . S
H1291 C1285 0.971 . S
H1292 C1285 0.961 . S
H1293 C1285 0.975 . S
H1294 C1286 0.930 . S
H1295 C1287 0.929 . S
H1296 C1304 0.929 . S
H1297 C1306 0.930 . S
H1298 C1308 0.930 . S
H1299 C1311 0.929 . S
H1300 C1314 0.930 . S
H1301 C1316 0.960 . S
H1302 C1316 0.960 . S
H1303 C1316 0.960 . S
C1304 H1296 0.929 . S
C1304 C1305 1.377 . S
C1304 C1306 1.384 . S
C1305 C1304 1.377 . S
C1305 C1311 1.390 . S
C1306 H1297 0.930 . S
C1306 C1304 1.384 . S
C1306 C1307 1.372 . S
C1307 C1306 1.372 . S
C1307 C1308 1.400 . S
C1307 C1312 1.490 . S
C1308 H1298 0.930 . S
C1308 C1307 1.400 . S
C1308 C1311 1.386 . S
H1309 C1325 0.930 . S
H1310 C1326 0.931 . S
C1311 H1299 0.929 . S
C1311 C1305 1.390 . S
C1311 C1308 1.386 . S
C1312 C1307 1.490 . S
C1312 C1314 1.395 . S
C1312 C1315 1.403 . S
H1313 C1319 0.930 . S
C1314 H1300 0.930 . S
C1314 C1312 1.395 . S
C1314 C1317 1.403 . S
C1315 C1312 1.403 . S
C1315 C1316 1.524 . S
C1315 C1319 1.400 . S
C1316 H1301 0.960 . S
C1316 H1302 0.960 . S
C1316 H1303 0.960 . S
C1316 C1315 1.524 . S
C1317 C1314 1.403 . S
C1317 C1318 1.392 . S
C1317 C1321 1.495 . S
C1318 C1317 1.392 . S
C1318 C1319 1.385 . S
C1318 C1320 1.478 . S
C1319 H1313 0.930 . S
C1319 C1315 1.400 . S
C1319 C1318 1.385 . S
C1320 C1318 1.478 . S
C1320 C1322 1.381 . S
C1320 C1326 1.383 . S
C1321 C1317 1.495 . S
C1321 H1327 0.959 . S
C1321 H1328 0.961 . S
C1321 H1329 0.960 . S
C1322 C1320 1.381 . S
C1322 C1323 1.394 . S
C1322 H1330 0.930 . S
C1323 C1322 1.394 . S
C1323 C1324 1.383 . S
C1323 H1331 0.929 . S
C1324 C1323 1.383 . S
C1324 C1325 1.377 . S
C1325 H1309 0.930 . S
C1325 C1324 1.377 . S
C1325 C1326 1.379 . S
C1326 H1310 0.931 . S
C1326 C1320 1.383 . S
C1326 C1325 1.379 . S
H1327 C1321 0.959 . S
H1328 C1321 0.961 . S
H1329 C1321 0.960 . S
H1330 C1322 0.930 . S
H1331 C1323 0.929 . S
H1332 C1340 0.929 . S
H1333 C1342 0.930 . S
H1334 C1344 0.930 . S
H1335 C1347 0.929 . S
H1336 C1350 0.930 . S
H1337 C1352 0.960 . S
H1338 C1352 0.960 . S
H1339 C1352 0.960 . S
C1340 H1332 0.929 . S
C1340 C1341 1.377 . S
C1340 C1342 1.384 . S
C1341 C1340 1.377 . S
C1341 C1347 1.390 . S
C1342 H1333 0.930 . S
C1342 C1340 1.384 . S
C1342 C1343 1.372 . S
C1343 C1342 1.372 . S
C1343 C1344 1.400 . S
C1343 C1348 1.490 . S
C1344 H1334 0.930 . S
C1344 C1343 1.400 . S
C1344 C1347 1.386 . S
H1345 C1361 0.930 . S
H1346 C1362 0.931 . S
C1347 H1335 0.929 . S
C1347 C1341 1.390 . S
C1347 C1344 1.386 . S
C1348 C1343 1.490 . S
C1348 C1350 1.395 . S
C1348 C1351 1.403 . S
H1349 C1355 0.930 . S
C1350 H1336 0.930 . S
C1350 C1348 1.395 . S
C1350 C1353 1.403 . S
C1351 C1348 1.403 . S
C1351 C1352 1.524 . S
C1351 C1355 1.400 . S
C1352 H1337 0.960 . S
C1352 H1338 0.960 . S
C1352 H1339 0.960 . S
C1352 C1351 1.524 . S
C1353 C1350 1.403 . S
C1353 C1354 1.392 . S
C1353 C1357 1.495 . S
C1354 C1353 1.392 . S
C1354 C1355 1.385 . S
C1354 C1356 1.478 . S
C1355 H1349 0.930 . S
C1355 C1351 1.400 . S
C1355 C1354 1.385 . S
C1356 C1354 1.478 . S
C1356 C1358 1.381 . S
C1356 C1362 1.383 . S
C1357 C1353 1.495 . S
C1357 H1363 0.959 . S
C1357 H1364 0.961 . S
C1357 H1365 0.960 . S
C1358 C1356 1.381 . S
C1358 C1359 1.394 . S
C1358 H1366 0.930 . S
C1359 C1358 1.394 . S
C1359 C1360 1.383 . S
C1359 H1367 0.929 . S
C1360 C1359 1.383 . S
C1360 C1361 1.377 . S
C1361 H1345 0.930 . S
C1361 C1360 1.377 . S
C1361 C1362 1.379 . S
C1362 H1346 0.931 . S
C1362 C1356 1.383 . S
C1362 C1361 1.379 . S
H1363 C1357 0.959 . S
H1364 C1357 0.961 . S
H1365 C1357 0.960 . S
H1366 C1358 0.930 . S
H1367 C1359 0.929 . S
H1368 C1376 0.929 . S
H1369 C1378 0.930 . S
H1370 C1380 0.930 . S
H1371 C1383 0.929 . S
H1372 C1386 0.930 . S
H1373 C1388 0.960 . S
H1374 C1388 0.960 . S
H1375 C1388 0.960 . S
C1376 H1368 0.929 . S
C1376 C1377 1.377 . S
C1376 C1378 1.384 . S
C1377 C1376 1.377 . S
C1377 C1383 1.390 . S
C1378 H1369 0.930 . S
C1378 C1376 1.384 . S
C1378 C1379 1.372 . S
C1379 C1378 1.372 . S
C1379 C1380 1.400 . S
C1379 C1384 1.490 . S
C1380 H1370 0.930 . S
C1380 C1379 1.400 . S
C1380 C1383 1.386 . S
H1381 C1397 0.930 . S
H1382 C1398 0.931 . S
C1383 H1371 0.929 . S
C1383 C1377 1.390 . S
C1383 C1380 1.386 . S
C1384 C1379 1.490 . S
C1384 C1386 1.395 . S
C1384 C1387 1.403 . S
H1385 C1391 0.930 . S
C1386 H1372 0.930 . S
C1386 C1384 1.395 . S
C1386 C1389 1.403 . S
C1387 C1384 1.403 . S
C1387 C1388 1.524 . S
C1387 C1391 1.400 . S
C1388 H1373 0.960 . S
C1388 H1374 0.960 . S
C1388 H1375 0.960 . S
C1388 C1387 1.524 . S
C1389 C1386 1.403 . S
C1389 C1390 1.392 . S
C1389 C1393 1.495 . S
C1390 C1389 1.392 . S
C1390 C1391 1.385 . S
C1390 C1392 1.478 . S
C1391 H1385 0.930 . S
C1391 C1387 1.400 . S
C1391 C1390 1.385 . S
C1392 C1390 1.478 . S
C1392 C1394 1.381 . S
C1392 C1398 1.383 . S
C1393 C1389 1.495 . S
C1393 H1399 0.959 . S
C1393 H1400 0.961 . S
C1393 H1401 0.960 . S
C1394 C1392 1.381 . S
C1394 C1395 1.394 . S
C1394 H1402 0.930 . S
C1395 C1394 1.394 . S
C1395 C1396 1.383 . S
C1395 H1403 0.929 1_655 S
C1396 C1395 1.383 . S
C1396 C1397 1.377 . S
C1397 H1381 0.930 . S
C1397 C1396 1.377 . S
C1397 C1398 1.379 . S
C1398 H1382 0.931 . S
C1398 C1392 1.383 . S
C1398 C1397 1.379 . S
H1399 C1393 0.959 . S
H1400 C1393 0.961 . S
H1401 C1393 0.960 . S
H1402 C1394 0.930 . S
H1403 C1395 0.929 1_455 S
H1404 C1412 0.929 . S
H1405 C1414 0.930 . S
H1406 C1416 0.930 . S
H1407 C1419 0.929 . S
H1408 C1422 0.930 . S
H1409 C1424 0.960 . S
H1410 C1424 0.960 . S
H1411 C1424 0.960 . S
C1412 H1404 0.929 . S
C1412 C1413 1.377 . S
C1412 C1414 1.384 . S
C1413 C1412 1.377 . S
C1413 C1419 1.390 . S
C1414 H1405 0.930 . S
C1414 C1412 1.384 . S
C1414 C1415 1.372 . S
C1415 C1414 1.372 . S
C1415 C1416 1.400 . S
C1415 C1420 1.490 . S
C1416 H1406 0.930 . S
C1416 C1415 1.400 . S
C1416 C1419 1.386 . S
H1417 C1433 0.930 . S
H1418 C1434 0.931 . S
C1419 H1407 0.929 . S
C1419 C1413 1.390 . S
C1419 C1416 1.386 . S
C1420 C1415 1.490 . S
C1420 C1422 1.395 . S
C1420 C1423 1.403 . S
H1421 C1427 0.930 . S
C1422 H1408 0.930 . S
C1422 C1420 1.395 . S
C1422 C1425 1.403 . S
C1423 C1420 1.403 . S
C1423 C1424 1.524 . S
C1423 C1427 1.400 . S
C1424 H1409 0.960 . S
C1424 H1410 0.960 . S
C1424 H1411 0.960 . S
C1424 C1423 1.524 . S
C1425 C1422 1.403 . S
C1425 C1426 1.392 . S
C1425 C1429 1.495 . S
C1426 C1425 1.392 . S
C1426 C1427 1.385 . S
C1426 C1428 1.478 . S
C1427 H1421 0.930 . S
C1427 C1423 1.400 . S
C1427 C1426 1.385 . S
C1428 C1426 1.478 . S
C1428 C1430 1.381 . S
C1428 C1434 1.383 . S
C1429 C1425 1.495 . S
C1429 H1435 0.959 . S
C1429 H1436 0.961 . S
C1429 H1437 0.960 . S
C1430 C1428 1.381 . S
C1430 C1431 1.394 . S
C1430 H1438 0.930 . S
C1431 C1430 1.394 . S
C1431 C1432 1.383 . S
C1431 H1439 0.929 1_565 S
C1432 C1431 1.383 . S
C1432 C1433 1.377 . S
C1433 H1417 0.930 . S
C1433 C1432 1.377 . S
C1433 C1434 1.379 . S
C1434 H1418 0.931 . S
C1434 C1428 1.383 . S
C1434 C1433 1.379 . S
H1435 C1429 0.959 . S
H1436 C1429 0.961 . S
H1437 C1429 0.960 . S
H1438 C1430 0.930 . S
H1439 C1431 0.929 1_545 S
H1440 C1448 0.929 . S
H1441 C1450 0.930 . S
H1442 C1452 0.930 . S
H1443 C1455 0.929 . S
H1444 C1458 0.930 . S
H1445 C1460 0.960 . S
H1446 C1460 0.960 . S
H1447 C1460 0.960 . S
C1448 H1440 0.929 . S
C1448 C1449 1.377 . S
C1448 C1450 1.384 . S
C1449 C1448 1.377 . S
C1449 C1455 1.390 . S
C1450 H1441 0.930 . S
C1450 C1448 1.384 . S
C1450 C1451 1.372 . S
C1451 C1450 1.372 . S
C1451 C1452 1.400 . S
C1451 C1456 1.490 . S
C1452 H1442 0.930 . S
C1452 C1451 1.400 . S
C1452 C1455 1.386 . S
H1453 C1469 0.930 . S
H1454 C1470 0.931 . S
C1455 H1443 0.929 . S
C1455 C1449 1.390 . S
C1455 C1452 1.386 . S
C1456 C1451 1.490 . S
C1456 C1458 1.395 . S
C1456 C1459 1.403 . S
H1457 C1463 0.930 . S
C1458 H1444 0.930 . S
C1458 C1456 1.395 . S
C1458 C1461 1.403 . S
C1459 C1456 1.403 . S
C1459 C1460 1.524 . S
C1459 C1463 1.400 . S
C1460 H1445 0.960 . S
C1460 H1446 0.960 . S
C1460 H1447 0.960 . S
C1460 C1459 1.524 . S
C1461 C1458 1.403 . S
C1461 C1462 1.392 . S
C1461 C1465 1.495 . S
C1462 C1461 1.392 . S
C1462 C1463 1.385 . S
C1462 C1464 1.478 . S
C1463 H1457 0.930 . S
C1463 C1459 1.400 . S
C1463 C1462 1.385 . S
C1464 C1462 1.478 . S
C1464 C1466 1.381 . S
C1464 C1470 1.383 . S
C1465 C1461 1.495 . S
C1465 H1471 0.959 . S
C1465 H1472 0.961 . S
C1465 H1473 0.960 . S
C1466 C1464 1.381 . S
C1466 C1467 1.394 . S
C1466 H1474 0.930 . S
C1467 C1466 1.394 . S
C1467 C1468 1.383 . S
C1467 H1475 0.929 . S
C1468 C1467 1.383 . S
C1468 C1469 1.377 . S
C1469 H1453 0.930 . S
C1469 C1468 1.377 . S
C1469 C1470 1.379 . S
C1470 H1454 0.931 . S
C1470 C1464 1.383 . S
C1470 C1469 1.379 . S
H1471 C1465 0.959 . S
H1472 C1465 0.961 . S
H1473 C1465 0.960 . S
H1474 C1466 0.930 . S
H1475 C1467 0.929 . S
H1476 C1484 0.929 . S
H1477 C1486 0.930 . S
H1478 C1488 0.930 . S
H1479 C1491 0.929 . S
H1480 C1494 0.930 . S
H1481 C1496 0.960 . S
H1482 C1496 0.960 . S
H1483 C1496 0.960 . S
C1484 H1476 0.929 . S
C1484 C1485 1.377 . S
C1484 C1486 1.384 . S
C1485 C1484 1.377 . S
C1485 C1491 1.390 . S
C1486 H1477 0.930 . S
C1486 C1484 1.384 . S
C1486 C1487 1.372 . S
C1487 C1486 1.372 . S
C1487 C1488 1.400 . S
C1487 C1492 1.490 . S
C1488 H1478 0.930 . S
C1488 C1487 1.400 . S
C1488 C1491 1.386 . S
H1489 C1505 0.930 . S
H1490 C1506 0.931 . S
C1491 H1479 0.929 . S
C1491 C1485 1.390 . S
C1491 C1488 1.386 . S
C1492 C1487 1.490 . S
C1492 C1494 1.395 . S
C1492 C1495 1.403 . S
H1493 C1499 0.930 . S
C1494 H1480 0.930 . S
C1494 C1492 1.395 . S
C1494 C1497 1.403 . S
C1495 C1492 1.403 . S
C1495 C1496 1.524 . S
C1495 C1499 1.400 . S
C1496 H1481 0.960 . S
C1496 H1482 0.960 . S
C1496 H1483 0.960 . S
C1496 C1495 1.524 . S
C1497 C1494 1.403 . S
C1497 C1498 1.392 . S
C1497 C1501 1.495 . S
C1498 C1497 1.392 . S
C1498 C1499 1.385 . S
C1498 C1500 1.478 . S
C1499 H1493 0.930 . S
C1499 C1495 1.400 . S
C1499 C1498 1.385 . S
C1500 C1498 1.478 . S
C1500 C1502 1.381 . S
C1500 C1506 1.383 . S
C1501 C1497 1.495 . S
C1501 H1507 0.959 . S
C1501 H1508 0.961 . S
C1501 H1509 0.960 . S
C1502 C1500 1.381 . S
C1502 C1503 1.394 . S
C1502 H1510 0.930 . S
C1503 C1502 1.394 . S
C1503 C1504 1.383 . S
C1503 H1511 0.929 . S
C1504 C1503 1.383 . S
C1504 C1505 1.377 . S
C1505 H1489 0.930 . S
C1505 C1504 1.377 . S
C1505 C1506 1.379 . S
C1506 H1490 0.931 . S
C1506 C1500 1.383 . S
C1506 C1505 1.379 . S
H1507 C1501 0.959 . S
H1508 C1501 0.961 . S
H1509 C1501 0.960 . S
H1510 C1502 0.930 . S
H1511 C1503 0.929 . S
C657 C255 2.060 . S
C676 C386 2.094 . S
C712 C470 2.142 . S
C693 C294 2.098 . S
C748 C536 2.150 . S
C729 C177 2.234 . S
C784 C620 2.072 . S
C765 C216 2.210 . S
C820 C375 2.100 1_565 S
C801 C99 2.070 . S
C837 C138 2.079 . S
C856 C459 2.147 . S
C873 C21 2.252 . S
C892 C547 2.133 . S
C909 C60 2.232 . S
C928 C631 2.098 . S
C964 C382 0.465 1_455 S
C945 C196 0.438 . S
C1000 C466 0.384 1_545 S
C981 C235 0.410 . S
C1036 C538 0.478 . S
C1017 C289 0.398 . S
C1053 C157 0.425 . S
C1072 C622 0.430 . S
C1089 C40 0.451 . S
C1108 C370 0.497 . S
C1144 C454 0.407 . S
C1125 C79 0.384 . S
C1180 C550 0.347 . S
C1161 C133 0.426 . S
C1197 C1 0.423 . S
C1216 C634 0.445 . S
C1233 C211 2.603 . S
C1252 C379 2.718 . S
C1269 C250 2.540 . S
C1288 C463 2.634 . S
C1324 C543 2.668 . S
C1305 C274 2.427 . S
C1360 C627 2.690 . S
C1341 C172 2.447 . S
C1377 C55 2.599 . S
C1396 C368 2.724 . S
C1432 C452 2.670 . S
C1413 C94 2.542 . S
C1468 C554 2.650 . S
C1449 C118 2.423 . S
C1485 C16 2.448 . S
C1504 C638 2.698 . S
