# Generated by pormake.
# Topology pto, (3,4)-cn, num edge types: 1
# Building blocks:
#     Node 0, Type 0, BuildingBlock: VETTIZ_charged_linker_0, # of connection points: 3
#     Node 1, Type 0, BuildingBlock: VETTIZ_charged_linker_0, # of connection points: 3
#     Node 2, Type 0, BuildingBlock: VETTIZ_charged_linker_0, # of connection points: 3
#     Node 3, Type 0, BuildingBlock: VETTIZ_charged_linker_0, # of connection points: 3
#     Node 4, Type 0, BuildingBlock: VETTIZ_charged_linker_0, # of connection points: 3
#     Node 5, Type 0, BuildingBlock: VETTIZ_charged_linker_0, # of connection points: 3
#     Node 6, Type 0, BuildingBlock: VETTIZ_charged_linker_0, # of connection points: 3
#     Node 7, Type 0, BuildingBlock: VETTIZ_charged_linker_0, # of connection points: 3
#     Node 8, Type 1, BuildingBlock: NAWXER_clean_sbu_0, # of connection points: 4
#     Node 9, Type 1, BuildingBlock: NAWXER_clean_sbu_0, # of connection points: 4
#     Node 10, Type 1, BuildingBlock: NAWXER_clean_sbu_0, # of connection points: 4
#     Node 11, Type 1, BuildingBlock: NAWXER_clean_sbu_0, # of connection points: 4
#     Node 12, Type 1, BuildingBlock: NAWXER_clean_sbu_0, # of connection points: 4
#     Node 13, Type 1, BuildingBlock: NAWXER_clean_sbu_0, # of connection points: 4
#     Edge 14, Type (0, 1), BuildingBlock: AJUNOK_clean_linker_0, # of connection points: 2
#     Edge 15, Type (0, 1), BuildingBlock: AJUNOK_clean_linker_0, # of connection points: 2
#     Edge 16, Type (0, 1), BuildingBlock: AJUNOK_clean_linker_0, # of connection points: 2
#     Edge 17, Type (0, 1), BuildingBlock: AJUNOK_clean_linker_0, # of connection points: 2
#     Edge 18, Type (0, 1), BuildingBlock: AJUNOK_clean_linker_0, # of connection points: 2
#     Edge 19, Type (0, 1), BuildingBlock: AJUNOK_clean_linker_0, # of connection points: 2
#     Edge 20, Type (0, 1), BuildingBlock: AJUNOK_clean_linker_0, # of connection points: 2
#     Edge 21, Type (0, 1), BuildingBlock: AJUNOK_clean_linker_0, # of connection points: 2
#     Edge 22, Type (0, 1), BuildingBlock: AJUNOK_clean_linker_0, # of connection points: 2
#     Edge 23, Type (0, 1), BuildingBlock: AJUNOK_clean_linker_0, # of connection points: 2
#     Edge 24, Type (0, 1), BuildingBlock: AJUNOK_clean_linker_0, # of connection points: 2
#     Edge 25, Type (0, 1), BuildingBlock: AJUNOK_clean_linker_0, # of connection points: 2
#     Edge 26, Type (0, 1), BuildingBlock: AJUNOK_clean_linker_0, # of connection points: 2
#     Edge 27, Type (0, 1), BuildingBlock: AJUNOK_clean_linker_0, # of connection points: 2
#     Edge 28, Type (0, 1), BuildingBlock: AJUNOK_clean_linker_0, # of connection points: 2
#     Edge 29, Type (0, 1), BuildingBlock: AJUNOK_clean_linker_0, # of connection points: 2
#     Edge 30, Type (0, 1), BuildingBlock: AJUNOK_clean_linker_0, # of connection points: 2
#     Edge 31, Type (0, 1), BuildingBlock: AJUNOK_clean_linker_0, # of connection points: 2
#     Edge 32, Type (0, 1), BuildingBlock: AJUNOK_clean_linker_0, # of connection points: 2
#     Edge 33, Type (0, 1), BuildingBlock: AJUNOK_clean_linker_0, # of connection points: 2
#     Edge 34, Type (0, 1), BuildingBlock: AJUNOK_clean_linker_0, # of connection points: 2
#     Edge 35, Type (0, 1), BuildingBlock: AJUNOK_clean_linker_0, # of connection points: 2
#     Edge 36, Type (0, 1), BuildingBlock: AJUNOK_clean_linker_0, # of connection points: 2
#     Edge 37, Type (0, 1), BuildingBlock: AJUNOK_clean_linker_0, # of connection points: 2
# Relax obj value: 0.000
# Max RMSD: 0.000
# Mean RMSD: 0.000
data_MOF--net-pto--node1-NAWXER_clean_sbu_0--node2-VETTIZ_charged_linker_0--edge1-AJUNOK_clean_linker_0
_symmetry_space_group_name_H-M    P1
_symmetry_Int_Tables_number       1
_symmetry_cell_setting            triclinic
loop_
_symmetry_equiv_pos_as_xyz
'x, y, z'
_cell_length_a     41.182632
_cell_length_b     38.819301
_cell_length_c     36.492866
_cell_angle_alpha  90.015633
_cell_angle_beta   89.960503
_cell_angle_gamma 90.044447
loop_
_atom_site_label
_atom_site_type_symbol
_atom_site_fract_x
_atom_site_fract_y
_atom_site_fract_z
_atom_type_partial_charge
C0 C 0.20692 0.18985 0.32685 0.0
C1 C 0.22863 0.16339 0.33654 0.0
C2 C 0.2579 0.15993 0.31683 0.0
C3 C 0.24384 0.20878 0.27893 0.0
C4 C 0.21512 0.21228 0.29813 0.0
C5 C 0.1955 0.24252 0.28487 0.0
H6 H 0.182 0.38285 0.17548 0.0
C7 C 0.2453 0.23634 0.25111 0.0
C8 C 0.21712 0.25627 0.25434 0.0
H9 H 0.11601 0.34654 0.25917 0.0
H10 H 0.14978 0.2971 0.26977 0.0
H11 H 0.19543 0.30522 0.13957 0.0
H12 H 0.24914 0.36475 0.21928 0.0
H13 H 0.27583 0.34839 0.18568 0.0
H14 H 0.24462 0.37824 0.17245 0.0
H15 H 0.2179 0.34305 0.12688 0.0
H16 H 0.23717 0.30143 0.13023 0.0
C17 C 0.16276 0.22873 0.26994 0.0
C18 C 0.19233 0.26842 0.31705 0.0
C19 C 0.34393 0.24343 0.16868 0.0
C20 C 0.35298 0.26535 0.13995 0.0
C21 C 0.33151 0.29169 0.12897 0.0
C22 C 0.30171 0.2966 0.14715 0.0
C23 C 0.29322 0.27474 0.1764 0.0
C24 C 0.31414 0.24846 0.18627 0.0
C25 C 0.3012 0.227 0.21711 0.0
C26 C 0.26907 0.24468 0.22444 0.0
C27 C 0.26443 0.27287 0.20083 0.0
C28 C 0.2965 0.18969 0.20277 0.0
C29 C 0.3249 0.23046 0.24998 0.0
C30 C 0.1748 0.36393 0.19572 0.0
C31 C 0.14642 0.36866 0.21674 0.0
C32 C 0.13791 0.34363 0.24299 0.0
C33 C 0.15759 0.31492 0.24913 0.0
C34 C 0.18638 0.31103 0.22898 0.0
C35 C 0.19447 0.33494 0.20239 0.0
C36 C 0.22615 0.32603 0.18376 0.0
C37 C 0.23596 0.2935 0.20431 0.0
C38 C 0.21245 0.28501 0.2308 0.0
C39 C 0.21909 0.31873 0.14286 0.0
C40 C 0.25034 0.35589 0.19031 0.0
H41 H 0.28829 0.17826 0.27449 0.0
H42 H 0.18408 0.193 0.34117 0.0
H43 H 0.21446 0.26817 0.33454 0.0
H44 H 0.19015 0.29542 0.30789 0.0
H45 H 0.1713 0.26195 0.33484 0.0
H46 H 0.16606 0.20334 0.25628 0.0
H47 H 0.14483 0.22521 0.29239 0.0
H48 H 0.15212 0.24547 0.24862 0.0
H49 H 0.35972 0.22262 0.17724 0.0
H50 H 0.33809 0.30884 0.10676 0.0
H51 H 0.28653 0.31732 0.13794 0.0
H52 H 0.2896 0.18961 0.17328 0.0
H53 H 0.31919 0.17446 0.20551 0.0
H54 H 0.27649 0.17587 0.21661 0.0
H55 H 0.33613 0.25654 0.25079 0.0
H56 H 0.31273 0.22778 0.27682 0.0
H57 H 0.3449 0.21136 0.24811 0.0
H58 H 0.27526 0.14009 0.32403 0.0
C59 C 0.26555 0.18232 0.28814 0.0
C60 C 0.18361 0.64327 0.74292 0.0
C61 C 0.15457 0.6415 0.72259 0.0
C62 C 0.14589 0.66968 0.70032 0.0
C63 C 0.19264 0.70184 0.72197 0.0
C64 C 0.20188 0.67376 0.74275 0.0
C65 C 0.2315 0.6812 0.7657 0.0
H66 H 0.33903 0.79932 0.82993 0.0
C67 C 0.21496 0.73058 0.73046 0.0
C68 C 0.23757 0.71883 0.7565 0.0
H69 H 0.33824 0.68974 0.85126 0.0
H70 H 0.29098 0.68312 0.81256 0.0
H71 H 0.26258 0.81251 0.83062 0.0
H72 H 0.33204 0.79016 0.74639 0.0
H73 H 0.30404 0.81793 0.72584 0.0
H74 H 0.32717 0.83264 0.7648 0.0
H75 H 0.29146 0.84346 0.81409 0.0
H76 H 0.25208 0.83846 0.79302 0.0
C77 C 0.22246 0.67617 0.80653 0.0
C78 C 0.25948 0.65775 0.75227 0.0
C79 C 0.20565 0.84489 0.66282 0.0
C80 C 0.22323 0.87586 0.66595 0.0
C81 C 0.24498 0.88012 0.69536 0.0
C82 C 0.25083 0.8533 0.71991 0.0
C83 C 0.23486 0.8217 0.71504 0.0
C84 C 0.21181 0.81817 0.68779 0.0
C85 C 0.19643 0.7829 0.68816 0.0
C86 C 0.21589 0.76533 0.71828 0.0
C87 C 0.23842 0.78823 0.73361 0.0
C88 C 0.16011 0.78698 0.6986 0.0
C89 C 0.20217 0.76574 0.65043 0.0
C90 C 0.32912 0.77375 0.82597 0.0
C91 C 0.34278 0.74503 0.84352 0.0
C92 C 0.3282 0.71242 0.83825 0.0
C93 C 0.30086 0.70855 0.81557 0.0
C94 C 0.28797 0.73753 0.79767 0.0
C95 C 0.30241 0.76932 0.80281 0.0
C96 C 0.28736 0.79687 0.77959 0.0
C97 C 0.26112 0.77657 0.76002 0.0
C98 C 0.26114 0.74193 0.77101 0.0
C99 C 0.27273 0.82454 0.80541 0.0
C100 C 0.31383 0.81045 0.75285 0.0
H101 H 0.15659 0.72055 0.68287 0.0
H102 H 0.19141 0.62177 0.75963 0.0
H103 H 0.25768 0.65294 0.72228 0.0
H104 H 0.28364 0.6696 0.7561 0.0
H105 H 0.25891 0.63236 0.76629 0.0
H106 H 0.19843 0.688 0.81251 0.0
H107 H 0.22093 0.64837 0.81354 0.0
H108 H 0.23971 0.6886 0.82545 0.0
H109 H 0.18873 0.84099 0.64049 0.0
H110 H 0.25835 0.90398 0.69859 0.0
H111 H 0.26833 0.85795 0.74107 0.0
H112 H 0.15566 0.81123 0.71409 0.0
H113 H 0.14442 0.78761 0.67385 0.0
H114 H 0.15157 0.7663 0.71713 0.0
H115 H 0.22778 0.76944 0.6415 0.0
H116 H 0.19814 0.73764 0.65083 0.0
H117 H 0.18617 0.77719 0.62919 0.0
H118 H 0.1237 0.66903 0.68443 0.0
C119 C 0.16479 0.69976 0.69984 0.0
C120 C 0.85357 0.68681 0.22834 0.0
C121 C 0.86103 0.66687 0.19716 0.0
C122 C 0.84107 0.67037 0.16587 0.0
C123 C 0.8064 0.71122 0.19779 0.0
C124 C 0.82663 0.7089 0.22792 0.0
C125 C 0.81673 0.73309 0.25816 0.0
H126 H 0.70801 0.8479 0.32505 0.0
C127 C 0.78019 0.73612 0.20656 0.0
C128 C 0.78638 0.74913 0.24194 0.0
H129 H 0.80037 0.81963 0.37245 0.0
H130 H 0.80982 0.77955 0.32265 0.0
H131 H 0.68672 0.77329 0.29632 0.0
H132 H 0.73563 0.86017 0.24965 0.0
H133 H 0.71346 0.84277 0.21317 0.0
H134 H 0.69226 0.85832 0.25324 0.0
H135 H 0.66621 0.81202 0.28291 0.0
H136 H 0.67187 0.77664 0.25144 0.0
C137 C 0.80901 0.71157 0.29276 0.0
C138 C 0.84418 0.75999 0.26358 0.0
C139 C 0.68487 0.75651 0.11877 0.0
C140 C 0.65634 0.77626 0.12257 0.0
C141 C 0.65181 0.7963 0.15417 0.0
C142 C 0.67488 0.79643 0.18206 0.0
C143 C 0.70292 0.77614 0.17859 0.0
C144 C 0.70785 0.7567 0.14736 0.0
C145 C 0.73912 0.73634 0.1495 0.0
C146 C 0.7518 0.74678 0.18721 0.0
C147 C 0.73028 0.77009 0.20375 0.0
C148 C 0.73057 0.69759 0.14769 0.0
C149 C 0.76182 0.7487 0.11837 0.0
C150 C 0.73048 0.83343 0.32467 0.0
C151 C 0.75367 0.83748 0.35243 0.0
C152 C 0.78205 0.81708 0.35134 0.0
C153 C 0.78768 0.7941 0.32221 0.0
C154 C 0.76487 0.7918 0.29363 0.0
C155 C 0.73692 0.81139 0.29535 0.0
C156 C 0.71638 0.80796 0.26175 0.0
C157 C 0.7366 0.78315 0.23925 0.0
C158 C 0.76466 0.77317 0.25815 0.0
C159 C 0.68343 0.79189 0.27342 0.0
C160 C 0.71396 0.84405 0.24344 0.0
H161 H 0.79952 0.69341 0.14157 0.0
H162 H 0.86831 0.68523 0.25283 0.0
H163 H 0.85811 0.76416 0.23782 0.0
H164 H 0.83476 0.78578 0.27081 0.0
H165 H 0.86166 0.75151 0.28491 0.0
H166 H 0.79364 0.68898 0.28557 0.0
H167 H 0.83165 0.70179 0.30559 0.0
H168 H 0.79528 0.72614 0.31358 0.0
H169 H 0.68863 0.74056 0.09479 0.0
H170 H 0.62997 0.81156 0.15751 0.0
H171 H 0.66957 0.81205 0.20548 0.0
H172 H 0.7094 0.6918 0.16562 0.0
H173 H 0.72412 0.68987 0.1193 0.0
H174 H 0.75035 0.68084 0.15744 0.0
H175 H 0.75939 0.77695 0.11405 0.0
H176 H 0.78775 0.7446 0.12464 0.0
H177 H 0.75584 0.73571 0.09209 0.0
H178 H 0.84675 0.65667 0.14084 0.0
C179 C 0.81375 0.6921 0.16614 0.0
C180 C 0.69719 0.26948 0.86716 0.0
C181 C 0.67005 0.24764 0.87136 0.0
C182 C 0.66341 0.22292 0.84419 0.0
C183 C 0.70943 0.24273 0.80868 0.0
C184 C 0.71641 0.26669 0.83552 0.0
C185 C 0.74563 0.28834 0.82576 0.0
H186 H 0.86201 0.32988 0.70101 0.0
C187 C 0.73325 0.24692 0.77886 0.0
C188 C 0.7546 0.27364 0.78843 0.0
H189 H 0.84858 0.37206 0.80975 0.0
H190 H 0.8024 0.33496 0.8192 0.0
H191 H 0.78509 0.32164 0.67832 0.0
H192 H 0.85553 0.25383 0.72696 0.0
H193 H 0.83025 0.22776 0.70005 0.0
H194 H 0.85424 0.26103 0.67846 0.0
H195 H 0.82022 0.30564 0.65461 0.0
H196 H 0.78303 0.28129 0.65615 0.0
C197 C 0.73464 0.32637 0.82314 0.0
C198 C 0.7724 0.28167 0.85468 0.0
C199 C 0.72886 0.16497 0.67119 0.0
C200 C 0.74948 0.15989 0.64121 0.0
C201 C 0.77452 0.18371 0.63416 0.0
C202 C 0.77979 0.21168 0.65774 0.0
C203 C 0.76008 0.21542 0.68895 0.0
C204 C 0.73482 0.19257 0.69486 0.0
C205 C 0.71744 0.19929 0.73025 0.0
C206 C 0.73688 0.2294 0.74508 0.0
C207 C 0.76167 0.23894 0.72076 0.0
C208 C 0.68201 0.20966 0.72101 0.0
C209 C 0.72077 0.16676 0.75475 0.0
C210 C 0.8495 0.33091 0.72708 0.0
C211 C 0.85926 0.3541 0.75463 0.0
C212 C 0.8415 0.35486 0.78778 0.0
C213 C 0.81476 0.33309 0.79339 0.0
C214 C 0.80564 0.30985 0.76577 0.0
C215 C 0.82312 0.30882 0.73342 0.0
C216 C 0.81128 0.28095 0.70807 0.0
C217 C 0.78329 0.2661 0.7301 0.0
C218 C 0.77991 0.28325 0.76384 0.0
C219 C 0.79939 0.29802 0.67219 0.0
C220 C 0.83915 0.25451 0.70273 0.0
H221 H 0.67618 0.2012 0.79321 0.0
H222 H 0.70314 0.28846 0.88785 0.0
H223 H 0.77155 0.25459 0.86463 0.0
H224 H 0.79716 0.28485 0.84352 0.0
H225 H 0.76938 0.29879 0.87883 0.0
H226 H 0.71095 0.3283 0.80865 0.0
H227 H 0.73155 0.33779 0.85084 0.0
H228 H 0.75157 0.3426 0.8073 0.0
H229 H 0.70981 0.14658 0.67738 0.0
H230 H 0.79069 0.17994 0.61106 0.0
H231 H 0.79958 0.22865 0.65139 0.0
H232 H 0.68076 0.22385 0.69455 0.0
H233 H 0.66615 0.18662 0.71853 0.0
H234 H 0.6714 0.22759 0.74127 0.0
H235 H 0.74433 0.15351 0.7498 0.0
H236 H 0.72098 0.17271 0.78435 0.0
H237 H 0.70109 0.14793 0.74906 0.0
H238 H 0.64252 0.20609 0.84662 0.0
C239 C 0.68286 0.22037 0.81296 0.0
C240 C 0.80526 0.82189 0.68435 0.0
C241 C 0.78107 0.84489 0.67256 0.0
C242 C 0.74899 0.84017 0.68539 0.0
C243 C 0.76576 0.79091 0.72164 0.0
C244 C 0.7971 0.79524 0.7087 0.0
C245 C 0.81985 0.76825 0.72327 0.0
H246 H 0.84237 0.6203 0.81774 0.0
C247 C 0.76535 0.76042 0.74615 0.0
C248 C 0.79707 0.74705 0.74703 0.0
H249 H 0.91402 0.67967 0.75887 0.0
H250 H 0.87377 0.72326 0.74508 0.0
H251 H 0.81294 0.68365 0.85942 0.0
H252 H 0.78299 0.63051 0.76204 0.0
H253 H 0.74816 0.63765 0.78901 0.0
H254 H 0.78106 0.61246 0.80729 0.0
H255 H 0.78857 0.64545 0.86166 0.0
H256 H 0.77056 0.68778 0.85851 0.0
C257 C 0.84642 0.78646 0.7463 0.0
C258 C 0.83298 0.74732 0.69028 0.0
C259 C 0.66203 0.72473 0.81392 0.0
C260 C 0.65559 0.69883 0.84014 0.0
C261 C 0.68025 0.67492 0.84839 0.0
C262 C 0.71078 0.6771 0.83161 0.0
C263 C 0.71716 0.70378 0.80657 0.0
C264 C 0.69294 0.72689 0.79777 0.0
C265 C 0.70469 0.75419 0.77138 0.0
C266 C 0.74019 0.74416 0.76676 0.0
C267 C 0.74712 0.71445 0.7873 0.0
C268 C 0.70098 0.78981 0.78999 0.0
C269 C 0.68544 0.75032 0.7352 0.0
C270 C 0.84925 0.64288 0.8021 0.0
C271 C 0.88108 0.6468 0.78916 0.0
C272 C 0.88952 0.67646 0.76916 0.0
C273 C 0.86608 0.7015 0.761 0.0
C274 C 0.83394 0.69678 0.77312 0.0
C275 C 0.82623 0.66826 0.79409 0.0
C276 C 0.79136 0.66825 0.80614 0.0
C277 C 0.779 0.70067 0.7876 0.0
C278 C 0.80393 0.71713 0.76804 0.0
C279 C 0.79057 0.6712 0.84858 0.0
C280 C 0.77484 0.63547 0.79063 0.0
H281 H 0.71646 0.81139 0.71859 0.0
H282 H 0.83008 0.82463 0.67494 0.0
H283 H 0.81344 0.74272 0.6698 0.0
H284 H 0.84167 0.72144 0.6979 0.0
H285 H 0.85293 0.76137 0.67624 0.0
H286 H 0.83664 0.80986 0.76002 0.0
H287 H 0.86714 0.79465 0.72885 0.0
H288 H 0.85559 0.77024 0.76893 0.0
H289 H 0.64368 0.74359 0.80693 0.0
H290 H 0.67652 0.65537 0.86913 0.0
H291 H 0.72851 0.65834 0.83954 0.0
H292 H 0.70833 0.78843 0.81929 0.0
H293 H 0.67537 0.79874 0.789 0.0
H294 H 0.71663 0.80978 0.77773 0.0
H295 H 0.68042 0.72272 0.7292 0.0
H296 H 0.69899 0.75977 0.7111 0.0
H297 H 0.66174 0.76387 0.73681 0.0
H298 H 0.72963 0.85681 0.67595 0.0
C299 C 0.74127 0.81351 0.70989 0.0
C300 C 0.8086 0.17824 0.35685 0.0
C301 C 0.78611 0.15102 0.35867 0.0
C302 C 0.75822 0.15217 0.33632 0.0
C303 C 0.77405 0.20817 0.31301 0.0
C304 C 0.80202 0.20658 0.334 0.0
C305 C 0.82233 0.23868 0.33007 0.0
H306 H 0.8428 0.39687 0.25412 0.0
C307 C 0.77343 0.24183 0.29392 0.0
C308 C 0.80175 0.25986 0.30381 0.0
H309 H 0.9086 0.34328 0.3264 0.0
H310 H 0.87058 0.29573 0.33116 0.0
H311 H 0.7765 0.37693 0.29787 0.0
H312 H 0.82685 0.33431 0.20522 0.0
H313 H 0.78536 0.32989 0.19556 0.0
H314 H 0.80242 0.37238 0.20159 0.0
H315 H 0.77771 0.39754 0.25388 0.0
H316 H 0.74692 0.36621 0.26514 0.0
C317 C 0.82513 0.25601 0.36816 0.0
C318 C 0.85528 0.22834 0.31285 0.0
C319 C 0.67804 0.2737 0.21125 0.0
C320 C 0.67135 0.30279 0.18935 0.0
C321 C 0.69372 0.33031 0.18929 0.0
C322 C 0.72196 0.32906 0.21062 0.0
C323 C 0.72839 0.29979 0.2321 0.0
C324 C 0.70663 0.27271 0.23219 0.0
C325 C 0.71808 0.24334 0.25597 0.0
C326 C 0.75029 0.25732 0.27004 0.0
C327 C 0.75603 0.29043 0.25603 0.0
C328 C 0.6931 0.23845 0.28728 0.0
C329 C 0.72278 0.21123 0.2313 0.0
C330 C 0.84905 0.37485 0.27092 0.0
C331 C 0.87887 0.37353 0.28951 0.0
C332 C 0.88577 0.34478 0.31177 0.0
C333 C 0.86377 0.31714 0.31425 0.0
C334 C 0.83451 0.31832 0.29433 0.0
C335 C 0.82752 0.34708 0.27346 0.0
C336 C 0.79575 0.34399 0.25361 0.0
C337 C 0.78472 0.30851 0.26574 0.0
C338 C 0.80744 0.29347 0.2896 0.0
C339 C 0.7729 0.3727 0.26798 0.0
C340 C 0.80264 0.34543 0.21181 0.0
H341 H 0.73017 0.17994 0.29771 0.0
H342 H 0.83009 0.17812 0.37396 0.0
H343 H 0.85187 0.20795 0.29176 0.0
H344 H 0.86723 0.24977 0.29825 0.0
H345 H 0.87212 0.2181 0.33397 0.0
H346 H 0.80185 0.25384 0.38348 0.0
H347 H 0.84435 0.24361 0.38493 0.0
H348 H 0.83006 0.28391 0.36651 0.0
H349 H 0.6615 0.252 0.21183 0.0
H350 H 0.6899 0.35251 0.17186 0.0
H351 H 0.73796 0.35082 0.20906 0.0
H352 H 0.68405 0.2638 0.2972 0.0
H353 H 0.6718 0.22332 0.2778 0.0
H354 H 0.70351 0.2259 0.31172 0.0
H355 H 0.73169 0.21876 0.20364 0.0
H356 H 0.74137 0.19333 0.24188 0.0
H357 H 0.69957 0.19706 0.22761 0.0
H358 H 0.74068 0.13136 0.33721 0.0
C359 C 0.7521 0.18047 0.31354 0.0
C360 C 0.30449 0.19073 0.68778 0.0
C361 C 0.27863 0.18257 0.664 0.0
C362 C 0.25048 0.20318 0.66472 0.0
C363 C 0.27263 0.23735 0.71428 0.0
C364 C 0.30092 0.21819 0.71276 0.0
C365 C 0.32527 0.23007 0.74106 0.0
H366 H 0.36102 0.33926 0.88184 0.0
C367 C 0.27563 0.26273 0.74431 0.0
C368 C 0.30658 0.25883 0.76013 0.0
H369 H 0.42242 0.25925 0.83755 0.0
H370 H 0.3811 0.24507 0.79259 0.0
H371 H 0.30148 0.29473 0.88672 0.0
H372 H 0.3311 0.36738 0.80472 0.0
H373 H 0.28976 0.37484 0.81407 0.0
H374 H 0.31902 0.37876 0.85043 0.0
H375 H 0.29296 0.33975 0.89144 0.0
H376 H 0.26502 0.31078 0.86884 0.0
C377 C 0.33239 0.19969 0.76725 0.0
C378 C 0.35555 0.24383 0.7207 0.0
C379 C 0.18036 0.34158 0.77543 0.0
C380 C 0.17562 0.36635 0.80317 0.0
C381 C 0.20042 0.37168 0.82914 0.0
C382 C 0.22988 0.35399 0.82665 0.0
C383 C 0.23462 0.33002 0.79832 0.0
C384 C 0.20991 0.32363 0.77369 0.0
C385 C 0.21896 0.29596 0.74655 0.0
C386 C 0.25334 0.28725 0.75874 0.0
C387 C 0.26233 0.30759 0.78879 0.0
C388 C 0.19532 0.2653 0.75205 0.0
C389 C 0.21837 0.31191 0.70763 0.0
C390 C 0.36562 0.31854 0.86264 0.0
C391 C 0.39489 0.30014 0.86361 0.0
C392 C 0.40007 0.27394 0.83737 0.0
C393 C 0.37597 0.26558 0.81145 0.0
C394 C 0.34627 0.2835 0.81185 0.0
C395 C 0.3417 0.30951 0.83725 0.0
C396 C 0.3084 0.32483 0.83548 0.0
C397 C 0.29376 0.30448 0.80416 0.0
C398 C 0.3159 0.28027 0.79011 0.0
C399 C 0.29096 0.31747 0.87247 0.0
C400 C 0.31198 0.36355 0.8259 0.0
H401 H 0.22509 0.24468 0.68892 0.0
H402 H 0.32651 0.17549 0.68766 0.0
H403 H 0.34828 0.25927 0.69637 0.0
H404 H 0.37037 0.26133 0.73764 0.0
H405 H 0.37106 0.22229 0.71096 0.0
H406 H 0.30967 0.18541 0.77376 0.0
H407 H 0.34969 0.18121 0.75464 0.0
H408 H 0.34212 0.20811 0.79394 0.0
H409 H 0.16172 0.33663 0.75518 0.0
H410 H 0.19704 0.38963 0.85155 0.0
H411 H 0.24784 0.35983 0.84695 0.0
H412 H 0.18906 0.26207 0.78152 0.0
H413 H 0.17229 0.26943 0.73684 0.0
H414 H 0.20581 0.2403 0.74387 0.0
H415 H 0.22658 0.33922 0.70827 0.0
H416 H 0.23518 0.29902 0.68844 0.0
H417 H 0.19347 0.31147 0.69594 0.0
H418 H 0.23059 0.19795 0.6461 0.0
C419 C 0.24733 0.23037 0.68961 0.0
C420 C 0.17865 0.68631 0.28948 0.0
C421 C 0.17372 0.65654 0.26827 0.0
C422 C 0.1984 0.64569 0.24413 0.0
C423 C 0.23166 0.69468 0.26138 0.0
C424 C 0.20777 0.70478 0.28576 0.0
C425 C 0.21711 0.73674 0.30655 0.0
H426 H 0.32179 0.86885 0.33496 0.0
C427 C 0.25857 0.71995 0.26354 0.0
C428 C 0.2503 0.74448 0.29024 0.0
H429 H 0.23054 0.84811 0.38919 0.0
H430 H 0.22425 0.79576 0.3546 0.0
H431 H 0.29756 0.84771 0.2545 0.0
H432 H 0.34809 0.78839 0.3364 0.0
H433 H 0.36571 0.77938 0.29355 0.0
H434 H 0.36729 0.82267 0.31145 0.0
H435 H 0.33939 0.85535 0.26571 0.0
H436 H 0.32771 0.8235 0.23227 0.0
C437 C 0.19201 0.76518 0.29732 0.0
C438 C 0.21929 0.72745 0.34781 0.0
C439 C 0.35317 0.71166 0.17407 0.0
C440 C 0.37999 0.7331 0.16726 0.0
C441 C 0.38582 0.76126 0.19078 0.0
C442 C 0.36459 0.76882 0.21975 0.0
C443 C 0.33697 0.74818 0.22523 0.0
C444 C 0.33192 0.71979 0.20297 0.0
C445 C 0.30098 0.70116 0.21244 0.0
C446 C 0.28807 0.7233 0.24357 0.0
C447 C 0.30922 0.75091 0.25097 0.0
C448 C 0.27846 0.70221 0.17844 0.0
C449 C 0.30987 0.6644 0.22555 0.0
C450 C 0.30066 0.85275 0.33944 0.0
C451 C 0.27638 0.86279 0.36444 0.0
C452 C 0.24924 0.8412 0.36962 0.0
C453 C 0.24567 0.81074 0.34953 0.0
C454 C 0.26944 0.80153 0.32373 0.0
C455 C 0.29659 0.82211 0.31927 0.0
C456 C 0.31908 0.80803 0.29023 0.0
C457 C 0.30094 0.77571 0.27824 0.0
C458 C 0.27177 0.77227 0.29788 0.0
C459 C 0.32142 0.83496 0.25901 0.0
C460 C 0.35194 0.79929 0.30854 0.0
H461 H 0.24493 0.65517 0.22138 0.0
H462 H 0.16033 0.69487 0.30875 0.0
H463 H 0.22681 0.70017 0.3517 0.0
H464 H 0.23794 0.7426 0.36249 0.0
H465 H 0.19548 0.73085 0.36167 0.0
H466 H 0.18494 0.76396 0.26792 0.0
H467 H 0.16958 0.76208 0.31392 0.0
H468 H 0.20152 0.7915 0.30123 0.0
H469 H 0.34802 0.69 0.15627 0.0
H470 H 0.40652 0.77795 0.18612 0.0
H471 H 0.37012 0.79093 0.23626 0.0
H472 H 0.28 0.72771 0.16461 0.0
H473 H 0.28548 0.68222 0.15815 0.0
H474 H 0.25256 0.69895 0.18526 0.0
H475 H 0.33368 0.66425 0.23995 0.0
H476 H 0.29246 0.65409 0.24584 0.0
H477 H 0.31165 0.64626 0.20209 0.0
H478 H 0.1951 0.62278 0.22757 0.0
C479 C 0.22726 0.66459 0.24052 0.0
C480 C 0.97247 0.48498 0.2687 0.0
C481 C 0.0565 0.57403 0.26679 0.0
O482 O 0.98444 0.50087 0.29602 0.0
Zn483 Zn 0.01313 0.53126 0.2685 0.0
O484 O 0.98167 0.49334 0.23635 0.0
Zn485 Zn 0.01425 0.52874 0.21024 0.0
O486 O 0.04352 0.49696 0.18514 0.0
O487 O 0.04695 0.49504 0.24536 0.0
O488 O 0.04821 0.56442 0.23449 0.0
O489 O 0.04229 0.56149 0.29467 0.0
O490 O 0.97992 0.56586 0.24172 0.0
O491 O 0.98453 0.55721 0.18215 0.0
C492 C 0.05636 0.4843 0.21384 0.0
C493 C 0.97114 0.57275 0.20882 0.0
C494 C 0.97094 0.44565 0.74603 0.0
C495 C 0.05859 0.53163 0.74004 0.0
O496 O 0.97956 0.45727 0.77742 0.0
Zn497 Zn 0.01534 0.49134 0.79963 0.0
O498 O 0.98596 0.45515 0.71727 0.0
Zn499 Zn 0.0156 0.48735 0.74095 0.0
O500 O 0.04891 0.45408 0.76815 0.0
O501 O 0.04402 0.4622 0.82784 0.0
O502 O 0.04539 0.51677 0.7127 0.0
O503 O 0.04902 0.5239 0.77234 0.0
O504 O 0.98897 0.52537 0.82416 0.0
O505 O 0.98284 0.52473 0.76386 0.0
C506 C 0.05743 0.44698 0.801 0.0
C507 C 0.97532 0.5369 0.79542 0.0
C508 C 0.22584 0.98266 0.55427 0.0
C509 C 0.22305 0.07031 0.4592 0.0
O510 O 0.20076 0.99643 0.54024 0.0
Zn511 Zn 0.22362 0.02765 0.50794 0.0
O512 O 0.25411 0.99264 0.54393 0.0
Zn513 Zn 0.27565 0.02837 0.50633 0.0
O514 O 0.29883 0.06052 0.53871 0.0
O515 O 0.24576 0.06238 0.54585 0.0
O516 O 0.25203 0.06136 0.46765 0.0
O517 O 0.19893 0.05779 0.47632 0.0
O518 O 0.24577 0.99247 0.46981 0.0
O519 O 0.29909 0.99678 0.47395 0.0
C520 C 0.27414 0.07262 0.55526 0.0
C521 C 0.27415 0.98302 0.45936 0.0
C522 C 0.548 0.76805 0.02231 0.0
C523 C 0.45607 0.75602 0.93821 0.0
O524 O 0.53768 0.73717 0.01846 0.0
Zn525 Zn 0.5025 0.70903 0.98808 0.0
O526 O 0.53472 0.79266 1.00479 0.0
Zn527 Zn 0.50253 0.76457 0.97944 0.0
O528 O 0.47274 0.74672 0.02318 0.0
O529 O 0.47597 0.69022 0.02842 0.0
O530 O 0.47106 0.78389 0.94546 0.0
O531 O 0.4656 0.7276 0.95238 0.0
O532 O 0.53093 0.68149 0.95526 0.0
O533 O 0.53342 0.73715 0.94447 0.0
C534 C 0.46417 0.71886 0.0393 0.0
C535 C 0.543 0.70662 0.93733 0.0
C536 C 0.79516 0.94773 0.55879 0.0
C537 C 0.79221 0.03568 0.4609 0.0
O538 O 0.76675 0.95722 0.54885 0.0
Zn539 Zn 0.74394 0.9894 0.50944 0.0
O540 O 0.8201 0.95908 0.54195 0.0
Zn541 Zn 0.7968 0.98914 0.50743 0.0
O542 O 0.77489 0.02509 0.54399 0.0
O543 O 0.7213 0.02169 0.54115 0.0
O544 O 0.81806 0.02126 0.47246 0.0
O545 O 0.7647 0.02489 0.47238 0.0
O546 O 0.72088 0.95745 0.47782 0.0
O547 O 0.77422 0.95241 0.4731 0.0
C548 C 0.74684 0.03537 0.55451 0.0
C549 C 0.74564 0.94268 0.46421 0.0
C550 C 0.56506 0.30392 0.08335 0.0
C551 C 0.49036 0.31288 0.97869 0.0
O552 O 0.55625 0.27489 0.06991 0.0
Zn553 Zn 0.52565 0.25537 0.02768 0.0
O554 O 0.55332 0.33156 0.07009 0.0
Zn555 Zn 0.52669 0.31078 0.03172 0.0
O556 O 0.48836 0.28672 0.06121 0.0
O557 O 0.49161 0.23032 0.05348 0.0
O558 O 0.50171 0.33826 0.99675 0.0
O559 O 0.49755 0.28204 0.98783 0.0
O560 O 0.55694 0.23203 0.99651 0.0
O561 O 0.56225 0.28856 0.99644 0.0
C562 C 0.47734 0.25641 0.06707 0.0
C563 C 0.57144 0.25894 0.98501 0.0
C564 C 0.11854 0.41871 0.24556 0.0
C565 C 0.12619 0.40022 0.21361 0.0
C566 C 0.09677 0.44631 0.24485 0.0
C567 C 0.08147 0.45672 0.21213 0.0
H568 H 0.12908 0.41135 0.2716 0.0
H569 H 0.09149 0.45915 0.27052 0.0
S570 S 0.09456 0.41764 0.12038 0.0
N571 N 0.11796 0.39485 0.14798 0.0
N572 N 0.07685 0.44698 0.14641 0.0
C573 C 0.08982 0.43921 0.1796 0.0
C574 C 0.11223 0.41096 0.18039 0.0
C575 C 0.11669 0.59663 0.69646 0.0
C576 C 0.13183 0.61188 0.72706 0.0
C577 C 0.09353 0.57023 0.70062 0.0
C578 C 0.08447 0.55821 0.73558 0.0
H579 H 0.12266 0.6053 0.66906 0.0
H580 H 0.08231 0.55959 0.67628 0.0
S581 S 0.11694 0.58996 0.82465 0.0
N582 N 0.13575 0.61336 0.79347 0.0
N583 N 0.09323 0.56355 0.80148 0.0
C584 C 0.0999 0.57301 0.76638 0.0
C585 C 0.12329 0.59985 0.76209 0.0
C586 C 0.91859 0.65274 0.21558 0.0
C587 C 0.88967 0.64298 0.19754 0.0
C588 C 0.94508 0.63013 0.21853 0.0
C589 C 0.94418 0.59721 0.20263 0.0
H590 H 0.9208 0.67804 0.22784 0.0
H591 H 0.96645 0.63846 0.23343 0.0
S592 S 0.87464 0.55796 0.15367 0.0
N593 N 0.86177 0.59682 0.16497 0.0
N594 N 0.91235 0.55542 0.16879 0.0
C595 C 0.91597 0.5872 0.18388 0.0
C596 C 0.88859 0.60981 0.18168 0.0
C597 C 0.88616 0.41176 0.76219 0.0
C598 C 0.8877 0.37756 0.74931 0.0
C599 C 0.91305 0.4338 0.76003 0.0
C600 C 0.94232 0.42289 0.74406 0.0
H601 H 0.86407 0.42157 0.77445 0.0
H602 H 0.91102 0.45958 0.77122 0.0
S603 S 0.95987 0.33633 0.70653 0.0
N604 N 0.92184 0.33383 0.72072 0.0
N605 N 0.97171 0.37619 0.7151 0.0
C606 C 0.94418 0.38933 0.73009 0.0
C607 C 0.91701 0.36647 0.73302 0.0
C608 C 0.22803 0.10404 0.36295 0.0
C609 C 0.22176 0.13947 0.36734 0.0
C610 C 0.22669 0.08144 0.39276 0.0
C611 C 0.21842 0.09332 0.42782 0.0
H612 H 0.23513 0.09388 0.33648 0.0
H613 H 0.23319 0.05467 0.3886 0.0
S614 S 0.19849 0.18288 0.45412 0.0
N615 N 0.20615 0.18503 0.40972 0.0
N616 N 0.20273 0.14194 0.46555 0.0
C617 C 0.21051 0.12813 0.43249 0.0
C618 C 0.21228 0.15137 0.40221 0.0
C619 C 0.37359 0.73129 0.90097 0.0
C620 C 0.37193 0.74904 0.8674 0.0
C621 C 0.40075 0.73425 0.92383 0.0
C622 C 0.42709 0.75556 0.91444 0.0
H623 H 0.35367 0.71505 0.9098 0.0
H624 H 0.40107 0.71979 0.94923 0.0
S625 S 0.43606 0.80612 0.82903 0.0
N626 N 0.40023 0.78734 0.82511 0.0
N627 N 0.45051 0.79401 0.86922 0.0
C628 C 0.42582 0.77375 0.8813 0.0
C629 C 0.39844 0.77021 0.85752 0.0
C630 C 0.75625 0.85659 0.41814 0.0
C631 C 0.74888 0.86406 0.38132 0.0
C632 C 0.75344 0.88187 0.44542 0.0
C633 C 0.7425 0.91517 0.43694 0.0
H634 H 0.76469 0.83119 0.42585 0.0
H635 H 0.76058 0.87558 0.4732 0.0
S636 S 0.72163 0.94881 0.34516 0.0
N637 N 0.7316 0.90818 0.33792 0.0
N638 N 0.72504 0.95489 0.38977 0.0
C639 C 0.73449 0.92295 0.40065 0.0
C640 C 0.73794 0.89755 0.37268 0.0
C641 C 0.63626 0.22226 0.92179 0.0
C642 C 0.64728 0.2515 0.90261 0.0
C643 C 0.61211 0.22485 0.94878 0.0
C644 C 0.59807 0.25681 0.95764 0.0
H645 H 0.6461 0.19706 0.91551 0.0
H646 H 0.60419 0.20157 0.9625 0.0
S647 S 0.61818 0.34114 0.9147 0.0
N648 N 0.64213 0.31325 0.8939 0.0
N649 N 0.59721 0.3185 0.94479 0.0
C650 C 0.60936 0.28638 0.939 0.0
C651 C 0.63386 0.28365 0.91151 0.0
C652 C 0.25157 0.91398 0.62175 0.0
C653 C 0.22216 0.9024 0.63687 0.0
C654 C 0.25219 0.93967 0.59507 0.0
C655 C 0.2234 0.95502 0.58222 0.0
H656 H 0.27444 0.90297 0.63058 0.0
H657 H 0.27567 0.94752 0.58457 0.0
S658 S 0.13981 0.93346 0.61293 0.0
N659 N 0.16342 0.90772 0.63718 0.0
N660 N 0.16437 0.95627 0.58657 0.0
C661 C 0.19364 0.94336 0.59679 0.0
C662 C 0.19307 0.91695 0.62414 0.0
C663 C 0.59911 0.76212 0.10744 0.0
C664 C 0.62954 0.77434 0.09575 0.0
C665 C 0.57253 0.76142 0.08364 0.0
C666 C 0.5752 0.77377 0.04761 0.0
H667 H 0.59596 0.75269 0.13517 0.0
H668 H 0.54973 0.75088 0.09339 0.0
S669 S 0.64948 0.80823 1.00357 0.0
N670 N 0.66099 0.79878 0.04578 0.0
N671 N 0.61055 0.79806 1.00099 0.0
C672 C 0.60533 0.7864 0.03558 0.0
C673 C 0.63267 0.78649 0.05968 0.0
C674 C 0.72054 0.11918 0.59902 0.0
C675 C 0.74777 0.12736 0.62056 0.0
C676 C 0.71941 0.08835 0.57886 0.0
C677 C 0.74538 0.06481 0.58007 0.0
H678 H 0.70047 0.13711 0.59706 0.0
H679 H 0.69875 0.08357 0.56123 0.0
S680 S 0.8197 0.07242 0.63715 0.0
N681 N 0.7995 0.10838 0.64498 0.0
N682 N 0.79737 0.0503 0.60788 0.0
C683 C 0.77184 0.07207 0.60326 0.0
C684 C 0.77305 0.10342 0.62331 0.0
C685 C 0.38704 0.25617 0.0838 0.0
C686 C 0.38501 0.26084 0.12196 0.0
C687 C 0.41724 0.25227 0.0664 0.0
C688 C 0.44629 0.2532 0.08657 0.0
H689 H 0.36518 0.25578 0.06731 0.0
H690 H 0.41797 0.2498 0.03683 0.0
S691 S 0.45429 0.26557 0.1867 0.0
N692 N 0.41472 0.26616 0.17927 0.0
N693 N 0.47141 0.25962 0.14623 0.0
C694 C 0.44463 0.25764 0.12461 0.0
C695 C 0.41396 0.26118 0.14242 0.0
C696 C 0.89916 0.58726 0.77528 0.0
C697 C 0.9046 0.61853 0.79364 0.0
C698 C 0.92199 0.56064 0.77679 0.0
C699 C 0.95058 0.56411 0.79747 0.0
H700 H 0.87753 0.58378 0.75879 0.0
H701 H 0.91739 0.53725 0.76141 0.0
S702 S 0.97558 0.64054 0.85134 0.0
N703 N 0.94025 0.65152 0.83334 0.0
N704 N 0.98288 0.60082 0.83722 0.0
C705 C 0.95585 0.59484 0.81687 0.0
C706 C 0.93292 0.62229 0.81463 0.0
C707 C 0.91754 0.41813 0.31414 0.0
C708 C 0.90316 0.4014 0.28404 0.0
C709 C 0.93973 0.44528 0.30907 0.0
C710 C 0.94856 0.45652 0.27368 0.0
H711 H 0.91121 0.41052 0.34179 0.0
H712 H 0.95003 0.45748 0.33309 0.0
S713 S 0.91888 0.41944 0.1858 0.0
N714 N 0.90027 0.39678 0.21777 0.0
N715 N 0.94147 0.44768 0.20799 0.0
C716 C 0.93455 0.4395 0.24338 0.0
C717 C 0.91201 0.41201 0.24861 0.0
C718 C 0.11476 0.37105 0.79992 0.0
C719 C 0.14522 0.38699 0.80488 0.0
C720 C 0.08593 0.39037 0.80028 0.0
C721 C 0.08664 0.42605 0.80637 0.0
H722 H 0.1132 0.34352 0.79541 0.0
H723 H 0.06304 0.37746 0.79517 0.0
S724 S 0.15954 0.48071 0.81817 0.0
N725 N 0.17398 0.44124 0.81382 0.0
N726 N 0.11966 0.47694 0.81591 0.0
C727 C 0.11665 0.44229 0.81159 0.0
C728 C 0.14599 0.4229 0.81059 0.0
C729 C 0.14399 0.60098 0.2778 0.0
C730 C 0.14301 0.63665 0.27098 0.0
C731 C 0.1155 0.58116 0.27807 0.0
C732 C 0.08515 0.59627 0.27114 0.0
H733 H 0.16702 0.58826 0.28253 0.0
H734 H 0.11731 0.55363 0.28258 0.0
S735 S 0.0692 0.68829 0.25182 0.0
N736 N 0.10894 0.68624 0.25766 0.0
N737 N 0.05547 0.64863 0.2575 0.0
C738 C 0.08366 0.63182 0.26473 0.0
C739 C 0.1126 0.65214 0.26493 0.0
C740 C 0.80713 0.86611 0.61412 0.0
C741 C 0.78883 0.87302 0.64603 0.0
C742 C 0.81144 0.89131 0.58676 0.0
C743 C 0.79754 0.92417 0.59044 0.0
H744 H 0.81684 0.84057 0.6094 0.0
H745 H 0.82402 0.88441 0.56174 0.0
S746 S 0.75201 0.95714 0.67074 0.0
N747 N 0.76041 0.91677 0.68138 0.0
N748 N 0.7677 0.96347 0.62964 0.0
C749 C 0.78091 0.932 0.62299 0.0
C750 C 0.77676 0.90661 0.65087 0.0
C751 C 0.63502 0.27427 0.14339 0.0
C752 C 0.64251 0.30345 0.16458 0.0
C753 C 0.60958 0.27468 0.11794 0.0
C754 C 0.59054 0.30438 0.11227 0.0
H755 H 0.64953 0.2511 0.14565 0.0
H756 H 0.60541 0.25162 0.10189 0.0
S757 S 0.59811 0.38671 0.16322 0.0
N758 N 0.62716 0.36217 0.18025 0.0
N759 N 0.5798 0.36319 0.13166 0.0
C760 C 0.5972 0.33355 0.13388 0.0
C761 C 0.62303 0.33302 0.16015 0.0
C762 C 0.30486 0.14793 0.61332 0.0
C763 C 0.27973 0.15212 0.63915 0.0
C764 C 0.30369 0.12141 0.58689 0.0
C765 C 0.27729 0.09831 0.58538 0.0
H766 H 0.32488 0.16604 0.61265 0.0
H767 H 0.32293 0.11983 0.56672 0.0
S768 S 0.2081 0.09513 0.6507 0.0
N769 N 0.22981 0.12855 0.66421 0.0
N770 N 0.22738 0.07924 0.61482 0.0
C771 C 0.25301 0.10123 0.6124 0.0
C772 C 0.25429 0.12796 0.6392 0.0
C773 C 0.41724 0.69771 0.12712 0.0
C774 C 0.4001 0.72846 0.13379 0.0
C775 C 0.43743 0.69419 0.09608 0.0
C776 C 0.44092 0.72124 0.07059 0.0
H777 H 0.41563 0.67661 0.14645 0.0
H778 H 0.4509 0.67048 0.09251 0.0
S779 S 0.39735 0.8052 0.07354 0.0
N780 N 0.38554 0.78502 0.11102 0.0
N781 N 0.42271 0.77866 0.05285 0.0
C782 C 0.42259 0.7515 0.07641 0.0
C783 C 0.4024 0.75505 0.10793 0.0
C784 C 0.81616 0.10043 0.38633 0.0
C785 C 0.78944 0.12311 0.38631 0.0
C786 C 0.8177 0.07248 0.41106 0.0
C787 C 0.79256 0.06645 0.43649 0.0
H788 H 0.83546 0.10377 0.36647 0.0
H789 H 0.83815 0.05501 0.40957 0.0
S790 S 0.71997 0.1219 0.45086 0.0
N791 N 0.73925 0.13984 0.41612 0.0
N792 N 0.74198 0.08815 0.46248 0.0
C793 C 0.76661 0.09018 0.43771 0.0
C794 C 0.7651 0.11827 0.41267 0.0
C795 C 0.45242 0.30976 0.8848 0.0
C796 C 0.41907 0.30724 0.89307 0.0
C797 C 0.47562 0.31446 0.91261 0.0
C798 C 0.4662 0.31736 0.94949 0.0
H799 H 0.4607 0.30736 0.85673 0.0
H800 H 0.50115 0.31444 0.90541 0.0
S801 S 0.38262 0.31118 0.98621 0.0
N802 N 0.37824 0.30698 0.94145 0.0
N803 N 0.42189 0.31676 0.99314 0.0
C804 C 0.43311 0.31563 0.95812 0.0
C805 C 0.40951 0.31042 0.93005 0.0
C806 C 0.30441 0.90359 0.40799 0.0
C807 C 0.27813 0.89603 0.38466 0.0
C808 C 0.30387 0.93277 0.43101 0.0
C809 C 0.277 0.95524 0.43145 0.0
H810 H 0.3248 0.88605 0.40964 0.0
H811 H 0.32391 0.93683 0.44973 0.0
S812 S 0.20472 0.94971 0.37088 0.0
N813 N 0.22652 0.91548 0.36019 0.0
N814 N 0.22535 0.96996 0.40313 0.0
C815 C 0.2516 0.94897 0.40649 0.0
C816 C 0.25221 0.91947 0.38319 0.0
C817 C 0.61371 0.73093 0.87587 0.0
C818 C 0.62495 0.69936 0.86207 0.0
C819 C 0.58694 0.73259 0.89932 0.0
C820 C 0.57006 0.70271 0.9105 0.0
H821 H 0.62636 0.75468 0.86956 0.0
H822 H 0.58008 0.75776 0.90952 0.0
S823 S 0.58793 0.61363 0.8799 0.0
N824 N 0.61575 0.63743 0.85928 0.0
N825 N 0.56565 0.64057 0.90433 0.0
C826 C 0.58048 0.67091 0.89633 0.0
C827 C 0.60782 0.66923 0.87198 0.0
loop_
_geom_bond_atom_site_label_1
_geom_bond_atom_site_label_2
_geom_bond_distance
_geom_bond_site_symmetry_2
_ccdc_geom_bond_type
C0 C1 1.391 . S
C0 C4 1.391 . S
C0 H42 0.948 . S
C1 C0 1.391 . S
C1 C2 1.391 . S
C2 C1 1.391 . S
C2 H58 0.947 . S
C2 C59 1.392 . S
C3 C4 1.391 . S
C3 C7 1.397 . S
C3 C59 1.419 . S
C4 C0 1.391 . S
C4 C3 1.391 . S
C4 C5 1.399 . S
C5 C4 1.399 . S
C5 C8 1.396 . S
C5 C17 1.453 . S
C5 C18 1.684 . S
H6 C30 0.948 . S
C7 C3 1.397 . S
C7 C8 1.394 . S
C7 C26 1.723 . S
C8 C5 1.396 . S
C8 C7 1.394 . S
C8 C38 1.723 . S
H9 C32 0.947 . S
H10 C33 0.948 . S
H11 C39 0.982 . S
H12 C40 0.979 . S
H13 C40 0.980 . S
H14 C40 0.983 . S
H15 C39 0.979 . S
H16 C39 0.977 . S
C17 C5 1.453 . S
C17 H46 0.982 . S
C17 H47 0.979 . S
C17 H48 0.977 . S
C18 C5 1.684 . S
C18 H43 0.979 . S
C18 H44 0.980 . S
C18 H45 0.983 . S
C19 C20 1.391 . S
C19 C24 1.391 . S
C19 H49 0.948 . S
C20 C19 1.391 . S
C20 C21 1.391 . S
C21 C20 1.391 . S
C21 C22 1.392 . S
C21 H50 0.947 . S
C22 C21 1.392 . S
C22 C23 1.419 . S
C22 H51 0.948 . S
C23 C22 1.419 . S
C23 C24 1.391 . S
C23 C27 1.397 . S
C24 C19 1.391 . S
C24 C23 1.391 . S
C24 C25 1.399 . S
C25 C24 1.399 . S
C25 C26 1.396 . S
C25 C28 1.453 . S
C25 C29 1.684 . S
C26 C7 1.723 . S
C26 C25 1.396 . S
C26 C27 1.394 . S
C27 C23 1.397 . S
C27 C26 1.394 . S
C27 C37 1.723 . S
C28 C25 1.453 . S
C28 H52 0.982 . S
C28 H53 0.979 . S
C28 H54 0.977 . S
C29 C25 1.684 . S
C29 H55 0.979 . S
C29 H56 0.980 . S
C29 H57 0.983 . S
C30 H6 0.948 . S
C30 C31 1.391 . S
C30 C35 1.391 . S
C31 C30 1.391 . S
C31 C32 1.391 . S
C32 H9 0.947 . S
C32 C31 1.391 . S
C32 C33 1.392 . S
C33 H10 0.948 . S
C33 C32 1.392 . S
C33 C34 1.419 . S
C34 C33 1.419 . S
C34 C35 1.391 . S
C34 C38 1.397 . S
C35 C30 1.391 . S
C35 C34 1.391 . S
C35 C36 1.399 . S
C36 C35 1.399 . S
C36 C37 1.396 . S
C36 C39 1.453 . S
C36 C40 1.684 . S
C37 C27 1.723 . S
C37 C36 1.396 . S
C37 C38 1.394 . S
C38 C8 1.723 . S
C38 C34 1.397 . S
C38 C37 1.394 . S
C39 H11 0.982 . S
C39 H15 0.979 . S
C39 H16 0.977 . S
C39 C36 1.453 . S
C40 H12 0.979 . S
C40 H13 0.980 . S
C40 H14 0.983 . S
C40 C36 1.684 . S
H41 C59 0.948 . S
H42 C0 0.948 . S
H43 C18 0.979 . S
H44 C18 0.980 . S
H45 C18 0.983 . S
H46 C17 0.982 . S
H47 C17 0.979 . S
H48 C17 0.977 . S
H49 C19 0.948 . S
H50 C21 0.947 . S
H51 C22 0.948 . S
H52 C28 0.982 . S
H53 C28 0.979 . S
H54 C28 0.977 . S
H55 C29 0.979 . S
H56 C29 0.980 . S
H57 C29 0.983 . S
H58 C2 0.947 . S
C59 C2 1.392 . S
C59 C3 1.419 . S
C59 H41 0.948 . S
C60 C61 1.391 . S
C60 C64 1.391 . S
C60 H102 0.948 . S
C61 C60 1.391 . S
C61 C62 1.391 . S
C62 C61 1.391 . S
C62 H118 0.947 . S
C62 C119 1.392 . S
C63 C64 1.391 . S
C63 C67 1.397 . S
C63 C119 1.419 . S
C64 C60 1.391 . S
C64 C63 1.391 . S
C64 C65 1.399 . S
C65 C64 1.399 . S
C65 C68 1.396 . S
C65 C77 1.453 . S
C65 C78 1.684 . S
H66 C90 0.948 . S
C67 C63 1.397 . S
C67 C68 1.394 . S
C67 C86 1.723 . S
C68 C65 1.396 . S
C68 C67 1.394 . S
C68 C98 1.723 . S
H69 C92 0.947 . S
H70 C93 0.948 . S
H71 C99 0.982 . S
H72 C100 0.979 . S
H73 C100 0.980 . S
H74 C100 0.983 . S
H75 C99 0.979 . S
H76 C99 0.977 . S
C77 C65 1.453 . S
C77 H106 0.982 . S
C77 H107 0.979 . S
C77 H108 0.977 . S
C78 C65 1.684 . S
C78 H103 0.979 . S
C78 H104 0.980 . S
C78 H105 0.983 . S
C79 C80 1.391 . S
C79 C84 1.391 . S
C79 H109 0.948 . S
C80 C79 1.391 . S
C80 C81 1.391 . S
C81 C80 1.391 . S
C81 C82 1.392 . S
C81 H110 0.947 . S
C82 C81 1.392 . S
C82 C83 1.419 . S
C82 H111 0.948 . S
C83 C82 1.419 . S
C83 C84 1.391 . S
C83 C87 1.397 . S
C84 C79 1.391 . S
C84 C83 1.391 . S
C84 C85 1.399 . S
C85 C84 1.399 . S
C85 C86 1.396 . S
C85 C88 1.453 . S
C85 C89 1.684 . S
C86 C67 1.723 . S
C86 C85 1.396 . S
C86 C87 1.394 . S
C87 C83 1.397 . S
C87 C86 1.394 . S
C87 C97 1.723 . S
C88 C85 1.453 . S
C88 H112 0.982 . S
C88 H113 0.979 . S
C88 H114 0.977 . S
C89 C85 1.684 . S
C89 H115 0.979 . S
C89 H116 0.980 . S
C89 H117 0.983 . S
C90 H66 0.948 . S
C90 C91 1.391 . S
C90 C95 1.391 . S
C91 C90 1.391 . S
C91 C92 1.391 . S
C92 H69 0.947 . S
C92 C91 1.391 . S
C92 C93 1.392 . S
C93 H70 0.948 . S
C93 C92 1.392 . S
C93 C94 1.419 . S
C94 C93 1.419 . S
C94 C95 1.391 . S
C94 C98 1.397 . S
C95 C90 1.391 . S
C95 C94 1.391 . S
C95 C96 1.399 . S
C96 C95 1.399 . S
C96 C97 1.396 . S
C96 C99 1.453 . S
C96 C100 1.684 . S
C97 C87 1.723 . S
C97 C96 1.396 . S
C97 C98 1.394 . S
C98 C68 1.723 . S
C98 C94 1.397 . S
C98 C97 1.394 . S
C99 H71 0.982 . S
C99 H75 0.979 . S
C99 H76 0.977 . S
C99 C96 1.453 . S
C100 H72 0.979 . S
C100 H73 0.980 . S
C100 H74 0.983 . S
C100 C96 1.684 . S
H101 C119 0.948 . S
H102 C60 0.948 . S
H103 C78 0.979 . S
H104 C78 0.980 . S
H105 C78 0.983 . S
H106 C77 0.982 . S
H107 C77 0.979 . S
H108 C77 0.977 . S
H109 C79 0.948 . S
H110 C81 0.947 . S
H111 C82 0.948 . S
H112 C88 0.982 . S
H113 C88 0.979 . S
H114 C88 0.977 . S
H115 C89 0.979 . S
H116 C89 0.980 . S
H117 C89 0.983 . S
H118 C62 0.947 . S
C119 C62 1.392 . S
C119 C63 1.419 . S
C119 H101 0.948 . S
C120 C121 1.391 . S
C120 C124 1.391 . S
C120 H162 0.948 . S
C121 C120 1.391 . S
C121 C122 1.391 . S
C122 C121 1.391 . S
C122 H178 0.947 . S
C122 C179 1.392 . S
C123 C124 1.391 . S
C123 C127 1.397 . S
C123 C179 1.419 . S
C124 C120 1.391 . S
C124 C123 1.391 . S
C124 C125 1.399 . S
C125 C124 1.399 . S
C125 C128 1.396 . S
C125 C137 1.453 . S
C125 C138 1.684 . S
H126 C150 0.948 . S
C127 C123 1.397 . S
C127 C128 1.394 . S
C127 C146 1.723 . S
C128 C125 1.396 . S
C128 C127 1.394 . S
C128 C158 1.723 . S
H129 C152 0.947 . S
H130 C153 0.948 . S
H131 C159 0.982 . S
H132 C160 0.979 . S
H133 C160 0.980 . S
H134 C160 0.983 . S
H135 C159 0.979 . S
H136 C159 0.977 . S
C137 C125 1.453 . S
C137 H166 0.982 . S
C137 H167 0.979 . S
C137 H168 0.977 . S
C138 C125 1.684 . S
C138 H163 0.979 . S
C138 H164 0.980 . S
C138 H165 0.983 . S
C139 C140 1.391 . S
C139 C144 1.391 . S
C139 H169 0.948 . S
C140 C139 1.391 . S
C140 C141 1.391 . S
C141 C140 1.391 . S
C141 C142 1.392 . S
C141 H170 0.947 . S
C142 C141 1.392 . S
C142 C143 1.419 . S
C142 H171 0.948 . S
C143 C142 1.419 . S
C143 C144 1.391 . S
C143 C147 1.397 . S
C144 C139 1.391 . S
C144 C143 1.391 . S
C144 C145 1.399 . S
C145 C144 1.399 . S
C145 C146 1.396 . S
C145 C148 1.453 . S
C145 C149 1.684 . S
C146 C127 1.723 . S
C146 C145 1.396 . S
C146 C147 1.394 . S
C147 C143 1.397 . S
C147 C146 1.394 . S
C147 C157 1.723 . S
C148 C145 1.453 . S
C148 H172 0.982 . S
C148 H173 0.979 . S
C148 H174 0.977 . S
C149 C145 1.684 . S
C149 H175 0.979 . S
C149 H176 0.980 . S
C149 H177 0.983 . S
C150 H126 0.948 . S
C150 C151 1.391 . S
C150 C155 1.391 . S
C151 C150 1.391 . S
C151 C152 1.391 . S
C152 H129 0.947 . S
C152 C151 1.391 . S
C152 C153 1.392 . S
C153 H130 0.948 . S
C153 C152 1.392 . S
C153 C154 1.419 . S
C154 C153 1.419 . S
C154 C155 1.391 . S
C154 C158 1.397 . S
C155 C150 1.391 . S
C155 C154 1.391 . S
C155 C156 1.399 . S
C156 C155 1.399 . S
C156 C157 1.396 . S
C156 C159 1.453 . S
C156 C160 1.684 . S
C157 C147 1.723 . S
C157 C156 1.396 . S
C157 C158 1.394 . S
C158 C128 1.723 . S
C158 C154 1.397 . S
C158 C157 1.394 . S
C159 H131 0.982 . S
C159 H135 0.979 . S
C159 H136 0.977 . S
C159 C156 1.453 . S
C160 H132 0.979 . S
C160 H133 0.980 . S
C160 H134 0.983 . S
C160 C156 1.684 . S
H161 C179 0.948 . S
H162 C120 0.948 . S
H163 C138 0.979 . S
H164 C138 0.980 . S
H165 C138 0.983 . S
H166 C137 0.982 . S
H167 C137 0.979 . S
H168 C137 0.977 . S
H169 C139 0.948 . S
H170 C141 0.947 . S
H171 C142 0.948 . S
H172 C148 0.982 . S
H173 C148 0.979 . S
H174 C148 0.977 . S
H175 C149 0.979 . S
H176 C149 0.980 . S
H177 C149 0.983 . S
H178 C122 0.947 . S
C179 C122 1.392 . S
C179 C123 1.419 . S
C179 H161 0.948 . S
C180 C181 1.391 . S
C180 C184 1.391 . S
C180 H222 0.948 . S
C181 C180 1.391 . S
C181 C182 1.391 . S
C182 C181 1.391 . S
C182 H238 0.947 . S
C182 C239 1.392 . S
C183 C184 1.391 . S
C183 C187 1.397 . S
C183 C239 1.419 . S
C184 C180 1.391 . S
C184 C183 1.391 . S
C184 C185 1.399 . S
C185 C184 1.399 . S
C185 C188 1.396 . S
C185 C197 1.453 . S
C185 C198 1.684 . S
H186 C210 0.948 . S
C187 C183 1.397 . S
C187 C188 1.394 . S
C187 C206 1.723 . S
C188 C185 1.396 . S
C188 C187 1.394 . S
C188 C218 1.723 . S
H189 C212 0.947 . S
H190 C213 0.948 . S
H191 C219 0.982 . S
H192 C220 0.979 . S
H193 C220 0.980 . S
H194 C220 0.983 . S
H195 C219 0.979 . S
H196 C219 0.977 . S
C197 C185 1.453 . S
C197 H226 0.982 . S
C197 H227 0.979 . S
C197 H228 0.977 . S
C198 C185 1.684 . S
C198 H223 0.979 . S
C198 H224 0.980 . S
C198 H225 0.983 . S
C199 C200 1.391 . S
C199 C204 1.391 . S
C199 H229 0.948 . S
C200 C199 1.391 . S
C200 C201 1.391 . S
C201 C200 1.391 . S
C201 C202 1.392 . S
C201 H230 0.947 . S
C202 C201 1.392 . S
C202 C203 1.419 . S
C202 H231 0.948 . S
C203 C202 1.419 . S
C203 C204 1.391 . S
C203 C207 1.397 . S
C204 C199 1.391 . S
C204 C203 1.391 . S
C204 C205 1.399 . S
C205 C204 1.399 . S
C205 C206 1.396 . S
C205 C208 1.453 . S
C205 C209 1.684 . S
C206 C187 1.723 . S
C206 C205 1.396 . S
C206 C207 1.394 . S
C207 C203 1.397 . S
C207 C206 1.394 . S
C207 C217 1.723 . S
C208 C205 1.453 . S
C208 H232 0.982 . S
C208 H233 0.979 . S
C208 H234 0.977 . S
C209 C205 1.684 . S
C209 H235 0.979 . S
C209 H236 0.980 . S
C209 H237 0.983 . S
C210 H186 0.948 . S
C210 C211 1.391 . S
C210 C215 1.391 . S
C211 C210 1.391 . S
C211 C212 1.391 . S
C212 H189 0.947 . S
C212 C211 1.391 . S
C212 C213 1.392 . S
C213 H190 0.948 . S
C213 C212 1.392 . S
C213 C214 1.419 . S
C214 C213 1.419 . S
C214 C215 1.391 . S
C214 C218 1.397 . S
C215 C210 1.391 . S
C215 C214 1.391 . S
C215 C216 1.399 . S
C216 C215 1.399 . S
C216 C217 1.396 . S
C216 C219 1.453 . S
C216 C220 1.684 . S
C217 C207 1.723 . S
C217 C216 1.396 . S
C217 C218 1.394 . S
C218 C188 1.723 . S
C218 C214 1.397 . S
C218 C217 1.394 . S
C219 H191 0.982 . S
C219 H195 0.979 . S
C219 H196 0.977 . S
C219 C216 1.453 . S
C220 H192 0.979 . S
C220 H193 0.980 . S
C220 H194 0.983 . S
C220 C216 1.684 . S
H221 C239 0.948 . S
H222 C180 0.948 . S
H223 C198 0.979 . S
H224 C198 0.980 . S
H225 C198 0.983 . S
H226 C197 0.982 . S
H227 C197 0.979 . S
H228 C197 0.977 . S
H229 C199 0.948 . S
H230 C201 0.947 . S
H231 C202 0.948 . S
H232 C208 0.982 . S
H233 C208 0.979 . S
H234 C208 0.977 . S
H235 C209 0.979 . S
H236 C209 0.980 . S
H237 C209 0.983 . S
H238 C182 0.947 . S
C239 C182 1.392 . S
C239 C183 1.419 . S
C239 H221 0.948 . S
C240 C241 1.391 . S
C240 C244 1.391 . S
C240 H282 0.948 . S
C241 C240 1.391 . S
C241 C242 1.391 . S
C242 C241 1.391 . S
C242 H298 0.947 . S
C242 C299 1.392 . S
C243 C244 1.391 . S
C243 C247 1.397 . S
C243 C299 1.419 . S
C244 C240 1.391 . S
C244 C243 1.391 . S
C244 C245 1.399 . S
C245 C244 1.399 . S
C245 C248 1.396 . S
C245 C257 1.453 . S
C245 C258 1.684 . S
H246 C270 0.948 . S
C247 C243 1.397 . S
C247 C248 1.394 . S
C247 C266 1.723 . S
C248 C245 1.396 . S
C248 C247 1.394 . S
C248 C278 1.723 . S
H249 C272 0.947 . S
H250 C273 0.948 . S
H251 C279 0.982 . S
H252 C280 0.979 . S
H253 C280 0.980 . S
H254 C280 0.983 . S
H255 C279 0.979 . S
H256 C279 0.977 . S
C257 C245 1.453 . S
C257 H286 0.982 . S
C257 H287 0.979 . S
C257 H288 0.977 . S
C258 C245 1.684 . S
C258 H283 0.979 . S
C258 H284 0.980 . S
C258 H285 0.983 . S
C259 C260 1.391 . S
C259 C264 1.391 . S
C259 H289 0.948 . S
C260 C259 1.391 . S
C260 C261 1.391 . S
C261 C260 1.391 . S
C261 C262 1.392 . S
C261 H290 0.947 . S
C262 C261 1.392 . S
C262 C263 1.419 . S
C262 H291 0.948 . S
C263 C262 1.419 . S
C263 C264 1.391 . S
C263 C267 1.397 . S
C264 C259 1.391 . S
C264 C263 1.391 . S
C264 C265 1.399 . S
C265 C264 1.399 . S
C265 C266 1.396 . S
C265 C268 1.453 . S
C265 C269 1.684 . S
C266 C247 1.723 . S
C266 C265 1.396 . S
C266 C267 1.394 . S
C267 C263 1.397 . S
C267 C266 1.394 . S
C267 C277 1.723 . S
C268 C265 1.453 . S
C268 H292 0.982 . S
C268 H293 0.979 . S
C268 H294 0.977 . S
C269 C265 1.684 . S
C269 H295 0.979 . S
C269 H296 0.980 . S
C269 H297 0.983 . S
C270 H246 0.948 . S
C270 C271 1.391 . S
C270 C275 1.391 . S
C271 C270 1.391 . S
C271 C272 1.391 . S
C272 H249 0.947 . S
C272 C271 1.391 . S
C272 C273 1.392 . S
C273 H250 0.948 . S
C273 C272 1.392 . S
C273 C274 1.419 . S
C274 C273 1.419 . S
C274 C275 1.391 . S
C274 C278 1.397 . S
C275 C270 1.391 . S
C275 C274 1.391 . S
C275 C276 1.399 . S
C276 C275 1.399 . S
C276 C277 1.396 . S
C276 C279 1.453 . S
C276 C280 1.684 . S
C277 C267 1.723 . S
C277 C276 1.396 . S
C277 C278 1.394 . S
C278 C248 1.723 . S
C278 C274 1.397 . S
C278 C277 1.394 . S
C279 H251 0.982 . S
C279 H255 0.979 . S
C279 H256 0.977 . S
C279 C276 1.453 . S
C280 H252 0.979 . S
C280 H253 0.980 . S
C280 H254 0.983 . S
C280 C276 1.684 . S
H281 C299 0.948 . S
H282 C240 0.948 . S
H283 C258 0.979 . S
H284 C258 0.980 . S
H285 C258 0.983 . S
H286 C257 0.982 . S
H287 C257 0.979 . S
H288 C257 0.977 . S
H289 C259 0.948 . S
H290 C261 0.947 . S
H291 C262 0.948 . S
H292 C268 0.982 . S
H293 C268 0.979 . S
H294 C268 0.977 . S
H295 C269 0.979 . S
H296 C269 0.980 . S
H297 C269 0.983 . S
H298 C242 0.947 . S
C299 C242 1.392 . S
C299 C243 1.419 . S
C299 H281 0.948 . S
C300 C301 1.391 . S
C300 C304 1.391 . S
C300 H342 0.948 . S
C301 C300 1.391 . S
C301 C302 1.391 . S
C302 C301 1.391 . S
C302 H358 0.947 . S
C302 C359 1.392 . S
C303 C304 1.391 . S
C303 C307 1.397 . S
C303 C359 1.419 . S
C304 C300 1.391 . S
C304 C303 1.391 . S
C304 C305 1.399 . S
C305 C304 1.399 . S
C305 C308 1.396 . S
C305 C317 1.453 . S
C305 C318 1.684 . S
H306 C330 0.948 . S
C307 C303 1.397 . S
C307 C308 1.394 . S
C307 C326 1.723 . S
C308 C305 1.396 . S
C308 C307 1.394 . S
C308 C338 1.723 . S
H309 C332 0.947 . S
H310 C333 0.948 . S
H311 C339 0.982 . S
H312 C340 0.979 . S
H313 C340 0.980 . S
H314 C340 0.983 . S
H315 C339 0.979 . S
H316 C339 0.977 . S
C317 C305 1.453 . S
C317 H346 0.982 . S
C317 H347 0.979 . S
C317 H348 0.977 . S
C318 C305 1.684 . S
C318 H343 0.979 . S
C318 H344 0.980 . S
C318 H345 0.983 . S
C319 C320 1.391 . S
C319 C324 1.391 . S
C319 H349 0.948 . S
C320 C319 1.391 . S
C320 C321 1.391 . S
C321 C320 1.391 . S
C321 C322 1.392 . S
C321 H350 0.947 . S
C322 C321 1.392 . S
C322 C323 1.419 . S
C322 H351 0.948 . S
C323 C322 1.419 . S
C323 C324 1.391 . S
C323 C327 1.397 . S
C324 C319 1.391 . S
C324 C323 1.391 . S
C324 C325 1.399 . S
C325 C324 1.399 . S
C325 C326 1.396 . S
C325 C328 1.453 . S
C325 C329 1.684 . S
C326 C307 1.723 . S
C326 C325 1.396 . S
C326 C327 1.394 . S
C327 C323 1.397 . S
C327 C326 1.394 . S
C327 C337 1.723 . S
C328 C325 1.453 . S
C328 H352 0.982 . S
C328 H353 0.979 . S
C328 H354 0.977 . S
C329 C325 1.684 . S
C329 H355 0.979 . S
C329 H356 0.980 . S
C329 H357 0.983 . S
C330 H306 0.948 . S
C330 C331 1.391 . S
C330 C335 1.391 . S
C331 C330 1.391 . S
C331 C332 1.391 . S
C332 H309 0.947 . S
C332 C331 1.391 . S
C332 C333 1.392 . S
C333 H310 0.948 . S
C333 C332 1.392 . S
C333 C334 1.419 . S
C334 C333 1.419 . S
C334 C335 1.391 . S
C334 C338 1.397 . S
C335 C330 1.391 . S
C335 C334 1.391 . S
C335 C336 1.399 . S
C336 C335 1.399 . S
C336 C337 1.396 . S
C336 C339 1.453 . S
C336 C340 1.684 . S
C337 C327 1.723 . S
C337 C336 1.396 . S
C337 C338 1.394 . S
C338 C308 1.723 . S
C338 C334 1.397 . S
C338 C337 1.394 . S
C339 H311 0.982 . S
C339 H315 0.979 . S
C339 H316 0.977 . S
C339 C336 1.453 . S
C340 H312 0.979 . S
C340 H313 0.980 . S
C340 H314 0.983 . S
C340 C336 1.684 . S
H341 C359 0.948 . S
H342 C300 0.948 . S
H343 C318 0.979 . S
H344 C318 0.980 . S
H345 C318 0.983 . S
H346 C317 0.982 . S
H347 C317 0.979 . S
H348 C317 0.977 . S
H349 C319 0.948 . S
H350 C321 0.947 . S
H351 C322 0.948 . S
H352 C328 0.982 . S
H353 C328 0.979 . S
H354 C328 0.977 . S
H355 C329 0.979 . S
H356 C329 0.980 . S
H357 C329 0.983 . S
H358 C302 0.947 . S
C359 C302 1.392 . S
C359 C303 1.419 . S
C359 H341 0.948 . S
C360 C361 1.391 . S
C360 C364 1.391 . S
C360 H402 0.948 . S
C361 C360 1.391 . S
C361 C362 1.391 . S
C362 C361 1.391 . S
C362 H418 0.947 . S
C362 C419 1.392 . S
C363 C364 1.391 . S
C363 C367 1.397 . S
C363 C419 1.419 . S
C364 C360 1.391 . S
C364 C363 1.391 . S
C364 C365 1.399 . S
C365 C364 1.399 . S
C365 C368 1.396 . S
C365 C377 1.453 . S
C365 C378 1.684 . S
H366 C390 0.948 . S
C367 C363 1.397 . S
C367 C368 1.394 . S
C367 C386 1.723 . S
C368 C365 1.396 . S
C368 C367 1.394 . S
C368 C398 1.723 . S
H369 C392 0.947 . S
H370 C393 0.948 . S
H371 C399 0.982 . S
H372 C400 0.979 . S
H373 C400 0.980 . S
H374 C400 0.983 . S
H375 C399 0.979 . S
H376 C399 0.977 . S
C377 C365 1.453 . S
C377 H406 0.982 . S
C377 H407 0.979 . S
C377 H408 0.977 . S
C378 C365 1.684 . S
C378 H403 0.979 . S
C378 H404 0.980 . S
C378 H405 0.983 . S
C379 C380 1.391 . S
C379 C384 1.391 . S
C379 H409 0.948 . S
C380 C379 1.391 . S
C380 C381 1.391 . S
C381 C380 1.391 . S
C381 C382 1.392 . S
C381 H410 0.947 . S
C382 C381 1.392 . S
C382 C383 1.419 . S
C382 H411 0.948 . S
C383 C382 1.419 . S
C383 C384 1.391 . S
C383 C387 1.397 . S
C384 C379 1.391 . S
C384 C383 1.391 . S
C384 C385 1.399 . S
C385 C384 1.399 . S
C385 C386 1.396 . S
C385 C388 1.453 . S
C385 C389 1.684 . S
C386 C367 1.723 . S
C386 C385 1.396 . S
C386 C387 1.394 . S
C387 C383 1.397 . S
C387 C386 1.394 . S
C387 C397 1.723 . S
C388 C385 1.453 . S
C388 H412 0.982 . S
C388 H413 0.979 . S
C388 H414 0.977 . S
C389 C385 1.684 . S
C389 H415 0.979 . S
C389 H416 0.980 . S
C389 H417 0.983 . S
C390 H366 0.948 . S
C390 C391 1.391 . S
C390 C395 1.391 . S
C391 C390 1.391 . S
C391 C392 1.391 . S
C392 H369 0.947 . S
C392 C391 1.391 . S
C392 C393 1.392 . S
C393 H370 0.948 . S
C393 C392 1.392 . S
C393 C394 1.419 . S
C394 C393 1.419 . S
C394 C395 1.391 . S
C394 C398 1.397 . S
C395 C390 1.391 . S
C395 C394 1.391 . S
C395 C396 1.399 . S
C396 C395 1.399 . S
C396 C397 1.396 . S
C396 C399 1.453 . S
C396 C400 1.684 . S
C397 C387 1.723 . S
C397 C396 1.396 . S
C397 C398 1.394 . S
C398 C368 1.723 . S
C398 C394 1.397 . S
C398 C397 1.394 . S
C399 H371 0.982 . S
C399 H375 0.979 . S
C399 H376 0.977 . S
C399 C396 1.453 . S
C400 H372 0.979 . S
C400 H373 0.980 . S
C400 H374 0.983 . S
C400 C396 1.684 . S
H401 C419 0.948 . S
H402 C360 0.948 . S
H403 C378 0.979 . S
H404 C378 0.980 . S
H405 C378 0.983 . S
H406 C377 0.982 . S
H407 C377 0.979 . S
H408 C377 0.977 . S
H409 C379 0.948 . S
H410 C381 0.947 . S
H411 C382 0.948 . S
H412 C388 0.982 . S
H413 C388 0.979 . S
H414 C388 0.977 . S
H415 C389 0.979 . S
H416 C389 0.980 . S
H417 C389 0.983 . S
H418 C362 0.947 . S
C419 C362 1.392 . S
C419 C363 1.419 . S
C419 H401 0.948 . S
C420 C421 1.391 . S
C420 C424 1.391 . S
C420 H462 0.948 . S
C421 C420 1.391 . S
C421 C422 1.391 . S
C422 C421 1.391 . S
C422 H478 0.947 . S
C422 C479 1.392 . S
C423 C424 1.391 . S
C423 C427 1.397 . S
C423 C479 1.419 . S
C424 C420 1.391 . S
C424 C423 1.391 . S
C424 C425 1.399 . S
C425 C424 1.399 . S
C425 C428 1.396 . S
C425 C437 1.453 . S
C425 C438 1.684 . S
H426 C450 0.948 . S
C427 C423 1.397 . S
C427 C428 1.394 . S
C427 C446 1.723 . S
C428 C425 1.396 . S
C428 C427 1.394 . S
C428 C458 1.723 . S
H429 C452 0.947 . S
H430 C453 0.948 . S
H431 C459 0.982 . S
H432 C460 0.979 . S
H433 C460 0.980 . S
H434 C460 0.983 . S
H435 C459 0.979 . S
H436 C459 0.977 . S
C437 C425 1.453 . S
C437 H466 0.982 . S
C437 H467 0.979 . S
C437 H468 0.977 . S
C438 C425 1.684 . S
C438 H463 0.979 . S
C438 H464 0.980 . S
C438 H465 0.983 . S
C439 C440 1.391 . S
C439 C444 1.391 . S
C439 H469 0.948 . S
C440 C439 1.391 . S
C440 C441 1.391 . S
C441 C440 1.391 . S
C441 C442 1.392 . S
C441 H470 0.947 . S
C442 C441 1.392 . S
C442 C443 1.419 . S
C442 H471 0.948 . S
C443 C442 1.419 . S
C443 C444 1.391 . S
C443 C447 1.397 . S
C444 C439 1.391 . S
C444 C443 1.391 . S
C444 C445 1.399 . S
C445 C444 1.399 . S
C445 C446 1.396 . S
C445 C448 1.453 . S
C445 C449 1.684 . S
C446 C427 1.723 . S
C446 C445 1.396 . S
C446 C447 1.394 . S
C447 C443 1.397 . S
C447 C446 1.394 . S
C447 C457 1.723 . S
C448 C445 1.453 . S
C448 H472 0.982 . S
C448 H473 0.979 . S
C448 H474 0.977 . S
C449 C445 1.684 . S
C449 H475 0.979 . S
C449 H476 0.980 . S
C449 H477 0.983 . S
C450 H426 0.948 . S
C450 C451 1.391 . S
C450 C455 1.391 . S
C451 C450 1.391 . S
C451 C452 1.391 . S
C452 H429 0.947 . S
C452 C451 1.391 . S
C452 C453 1.392 . S
C453 H430 0.948 . S
C453 C452 1.392 . S
C453 C454 1.419 . S
C454 C453 1.419 . S
C454 C455 1.391 . S
C454 C458 1.397 . S
C455 C450 1.391 . S
C455 C454 1.391 . S
C455 C456 1.399 . S
C456 C455 1.399 . S
C456 C457 1.396 . S
C456 C459 1.453 . S
C456 C460 1.684 . S
C457 C447 1.723 . S
C457 C456 1.396 . S
C457 C458 1.394 . S
C458 C428 1.723 . S
C458 C454 1.397 . S
C458 C457 1.394 . S
C459 H431 0.982 . S
C459 H435 0.979 . S
C459 H436 0.977 . S
C459 C456 1.453 . S
C460 H432 0.979 . S
C460 H433 0.980 . S
C460 H434 0.983 . S
C460 C456 1.684 . S
H461 C479 0.948 . S
H462 C420 0.948 . S
H463 C438 0.979 . S
H464 C438 0.980 . S
H465 C438 0.983 . S
H466 C437 0.982 . S
H467 C437 0.979 . S
H468 C437 0.977 . S
H469 C439 0.948 . S
H470 C441 0.947 . S
H471 C442 0.948 . S
H472 C448 0.982 . S
H473 C448 0.979 . S
H474 C448 0.977 . S
H475 C449 0.979 . S
H476 C449 0.980 . S
H477 C449 0.983 . S
H478 C422 0.947 . S
C479 C422 1.392 . S
C479 C423 1.419 . S
C479 H461 0.948 . S
C480 O482 1.247 . S
C480 O484 1.258 . S
C481 O488 1.247 . S
C481 O489 1.258 . S
O482 C480 1.247 . S
O482 Zn483 2.027 1_655 S
Zn483 O482 2.027 1_455 S
Zn483 O487 2.036 . S
Zn483 O489 2.036 . S
Zn483 O490 2.027 1_455 S
O484 C480 1.258 . S
O484 Zn485 2.019 1_655 S
Zn485 O484 2.019 1_455 S
Zn485 O486 2.044 . S
Zn485 O488 2.044 . S
Zn485 O491 2.019 1_455 S
O486 Zn485 2.044 . S
O486 C492 1.247 . S
O487 Zn483 2.036 . S
O487 C492 1.258 . S
O488 C481 1.247 . S
O488 Zn485 2.044 . S
O489 C481 1.258 . S
O489 Zn483 2.036 . S
O490 Zn483 2.027 1_655 S
O490 C493 1.247 . S
O491 Zn485 2.019 1_655 S
O491 C493 1.258 . S
C492 O486 1.247 . S
C492 O487 1.258 . S
C493 O490 1.247 . S
C493 O491 1.258 . S
C494 O496 1.247 . S
C494 O498 1.258 . S
C495 O502 1.247 . S
C495 O503 1.258 . S
O496 C494 1.247 . S
O496 Zn497 2.027 1_655 S
Zn497 O496 2.027 1_455 S
Zn497 O501 2.036 . S
Zn497 O503 2.036 . S
Zn497 O504 2.027 1_455 S
O498 C494 1.258 . S
O498 Zn499 2.019 1_655 S
Zn499 O498 2.019 1_455 S
Zn499 O500 2.044 . S
Zn499 O502 2.044 . S
Zn499 O505 2.019 1_455 S
O500 Zn499 2.044 . S
O500 C506 1.247 . S
O501 Zn497 2.036 . S
O501 C506 1.258 . S
O502 C495 1.247 . S
O502 Zn499 2.044 . S
O503 C495 1.258 . S
O503 Zn497 2.036 . S
O504 Zn497 2.027 1_655 S
O504 C507 1.247 . S
O505 Zn499 2.019 1_655 S
O505 C507 1.258 . S
C506 O500 1.247 . S
C506 O501 1.258 . S
C507 O504 1.247 . S
C507 O505 1.258 . S
C508 O510 1.247 . S
C508 O512 1.258 . S
C509 O516 1.247 . S
C509 O517 1.258 . S
O510 C508 1.247 . S
O510 Zn511 2.030 . S
Zn511 O510 2.030 . S
Zn511 O515 2.033 1_565 S
Zn511 O517 2.033 1_565 S
Zn511 O518 2.030 . S
O512 C508 1.258 . S
O512 Zn513 2.028 1_565 S
Zn513 O512 2.028 1_545 S
Zn513 O514 2.035 . S
Zn513 O516 2.035 . S
Zn513 O519 2.028 1_545 S
O514 Zn513 2.035 . S
O514 C520 1.247 . S
O515 Zn511 2.033 1_545 S
O515 C520 1.258 . S
O516 C509 1.247 . S
O516 Zn513 2.035 . S
O517 C509 1.258 . S
O517 Zn511 2.033 1_545 S
O518 Zn511 2.030 . S
O518 C521 1.247 . S
O519 Zn513 2.028 1_565 S
O519 C521 1.258 . S
C520 O514 1.247 . S
C520 O515 1.258 . S
C521 O518 1.247 . S
C521 O519 1.258 . S
C522 O524 1.247 . S
C522 O526 1.258 . S
C523 O530 1.247 . S
C523 O531 1.258 . S
O524 C522 1.247 . S
O524 Zn525 2.028 . S
Zn525 O524 2.028 . S
Zn525 O529 2.035 . S
Zn525 O531 2.035 1_554 S
Zn525 O532 2.028 1_554 S
O526 C522 1.258 . S
O526 Zn527 2.035 . S
Zn527 O526 2.035 . S
Zn527 O528 2.028 . S
Zn527 O530 2.028 1_554 S
Zn527 O533 2.035 1_554 S
O528 Zn527 2.028 . S
O528 C534 1.247 . S
O529 Zn525 2.035 . S
O529 C534 1.258 . S
O530 C523 1.247 . S
O530 Zn527 2.028 1_556 S
O531 C523 1.258 . S
O531 Zn525 2.035 1_556 S
O532 Zn525 2.028 1_556 S
O532 C535 1.247 . S
O533 Zn527 2.035 1_556 S
O533 C535 1.258 . S
C534 O528 1.247 . S
C534 O529 1.258 . S
C535 O532 1.247 . S
C535 O533 1.258 . S
C536 O538 1.247 . S
C536 O540 1.258 . S
C537 O544 1.247 . S
C537 O545 1.258 . S
O538 C536 1.247 . S
O538 Zn539 2.030 . S
Zn539 O538 2.030 . S
Zn539 O543 2.033 1_565 S
Zn539 O545 2.033 1_565 S
Zn539 O546 2.030 . S
O540 C536 1.258 . S
O540 Zn541 2.028 1_565 S
Zn541 O540 2.028 1_545 S
Zn541 O542 2.035 . S
Zn541 O544 2.035 . S
Zn541 O547 2.028 1_545 S
O542 Zn541 2.035 . S
O542 C548 1.247 . S
O543 Zn539 2.033 1_545 S
O543 C548 1.258 . S
O544 C537 1.247 . S
O544 Zn541 2.035 . S
O545 C537 1.258 . S
O545 Zn539 2.033 1_545 S
O546 Zn539 2.030 . S
O546 C549 1.247 . S
O547 Zn541 2.028 1_565 S
O547 C549 1.258 . S
C548 O542 1.247 . S
C548 O543 1.258 . S
C549 O546 1.247 . S
C549 O547 1.258 . S
C550 O552 1.247 . S
C550 O554 1.258 . S
C551 O558 1.247 . S
C551 O559 1.258 . S
O552 C550 1.247 . S
O552 Zn553 2.028 . S
Zn553 O552 2.028 . S
Zn553 O557 2.035 . S
Zn553 O559 2.035 1_554 S
Zn553 O560 2.028 1_554 S
O554 C550 1.258 . S
O554 Zn555 2.035 . S
Zn555 O554 2.035 . S
Zn555 O556 2.028 . S
Zn555 O558 2.028 1_554 S
Zn555 O561 2.035 1_554 S
O556 Zn555 2.028 . S
O556 C562 1.247 . S
O557 Zn553 2.035 . S
O557 C562 1.258 . S
O558 C551 1.247 . S
O558 Zn555 2.028 1_556 S
O559 C551 1.258 . S
O559 Zn553 2.035 1_556 S
O560 Zn553 2.028 1_556 S
O560 C563 1.247 . S
O561 Zn555 2.035 1_556 S
O561 C563 1.258 . S
C562 O556 1.247 . S
C562 O557 1.258 . S
C563 O560 1.247 . S
C563 O561 1.258 . S
C564 C565 1.369 . S
C564 C566 1.419 . S
C564 H568 0.930 . S
C565 C564 1.369 . S
C565 C574 1.429 . S
C566 C564 1.419 . S
C566 C567 1.363 . S
C566 H569 0.929 . S
C567 C566 1.363 . S
C567 C573 1.428 . S
H568 C564 0.930 . S
H569 C566 0.929 . S
S570 N571 1.613 . S
S570 N572 1.610 . S
N571 S570 1.613 . S
N571 C574 1.350 . S
N572 S570 1.610 . S
N572 C573 1.351 . S
C573 C567 1.428 . S
C573 N572 1.351 . S
C573 C574 1.434 . S
C574 C565 1.429 . S
C574 N571 1.350 . S
C574 C573 1.434 . S
C575 C576 1.369 . S
C575 C577 1.419 . S
C575 H579 0.930 . S
C576 C575 1.369 . S
C576 C585 1.429 . S
C577 C575 1.419 . S
C577 C578 1.363 . S
C577 H580 0.929 . S
C578 C577 1.363 . S
C578 C584 1.428 . S
H579 C575 0.930 . S
H580 C577 0.929 . S
S581 N582 1.613 . S
S581 N583 1.610 . S
N582 S581 1.613 . S
N582 C585 1.350 . S
N583 S581 1.610 . S
N583 C584 1.351 . S
C584 C578 1.428 . S
C584 N583 1.351 . S
C584 C585 1.434 . S
C585 C576 1.429 . S
C585 N582 1.350 . S
C585 C584 1.434 . S
C586 C587 1.369 . S
C586 C588 1.419 . S
C586 H590 0.930 . S
C587 C586 1.369 . S
C587 C596 1.429 . S
C588 C586 1.419 . S
C588 C589 1.363 . S
C588 H591 0.929 . S
C589 C588 1.363 . S
C589 C595 1.428 . S
H590 C586 0.930 . S
H591 C588 0.929 . S
S592 N593 1.613 . S
S592 N594 1.610 . S
N593 S592 1.613 . S
N593 C596 1.350 . S
N594 S592 1.610 . S
N594 C595 1.351 . S
C595 C589 1.428 . S
C595 N594 1.351 . S
C595 C596 1.434 . S
C596 C587 1.429 . S
C596 N593 1.350 . S
C596 C595 1.434 . S
C597 C598 1.369 . S
C597 C599 1.419 . S
C597 H601 0.930 . S
C598 C597 1.369 . S
C598 C607 1.429 . S
C599 C597 1.419 . S
C599 C600 1.363 . S
C599 H602 0.929 . S
C600 C599 1.363 . S
C600 C606 1.428 . S
H601 C597 0.930 . S
H602 C599 0.929 . S
S603 N604 1.613 . S
S603 N605 1.610 . S
N604 S603 1.613 . S
N604 C607 1.350 . S
N605 S603 1.610 . S
N605 C606 1.351 . S
C606 C600 1.428 . S
C606 N605 1.351 . S
C606 C607 1.434 . S
C607 C598 1.429 . S
C607 N604 1.350 . S
C607 C606 1.434 . S
C608 C609 1.369 . S
C608 C610 1.419 . S
C608 H612 0.930 . S
C609 C608 1.369 . S
C609 C618 1.429 . S
C610 C608 1.419 . S
C610 C611 1.363 . S
C610 H613 0.929 . S
C611 C610 1.363 . S
C611 C617 1.428 . S
H612 C608 0.930 . S
H613 C610 0.929 . S
S614 N615 1.613 . S
S614 N616 1.610 . S
N615 S614 1.613 . S
N615 C618 1.350 . S
N616 S614 1.610 . S
N616 C617 1.351 . S
C617 C611 1.428 . S
C617 N616 1.351 . S
C617 C618 1.434 . S
C618 C609 1.429 . S
C618 N615 1.350 . S
C618 C617 1.434 . S
C619 C620 1.369 . S
C619 C621 1.419 . S
C619 H623 0.930 . S
C620 C619 1.369 . S
C620 C629 1.429 . S
C621 C619 1.419 . S
C621 C622 1.363 . S
C621 H624 0.929 . S
C622 C621 1.363 . S
C622 C628 1.428 . S
H623 C619 0.930 . S
H624 C621 0.929 . S
S625 N626 1.613 . S
S625 N627 1.610 . S
N626 S625 1.613 . S
N626 C629 1.350 . S
N627 S625 1.610 . S
N627 C628 1.351 . S
C628 C622 1.428 . S
C628 N627 1.351 . S
C628 C629 1.434 . S
C629 C620 1.429 . S
C629 N626 1.350 . S
C629 C628 1.434 . S
C630 C631 1.369 . S
C630 C632 1.419 . S
C630 H634 0.930 . S
C631 C630 1.369 . S
C631 C640 1.429 . S
C632 C630 1.419 . S
C632 C633 1.363 . S
C632 H635 0.929 . S
C633 C632 1.363 . S
C633 C639 1.428 . S
H634 C630 0.930 . S
H635 C632 0.929 . S
S636 N637 1.613 . S
S636 N638 1.610 . S
N637 S636 1.613 . S
N637 C640 1.350 . S
N638 S636 1.610 . S
N638 C639 1.351 . S
C639 C633 1.428 . S
C639 N638 1.351 . S
C639 C640 1.434 . S
C640 C631 1.429 . S
C640 N637 1.350 . S
C640 C639 1.434 . S
C641 C642 1.369 . S
C641 C643 1.419 . S
C641 H645 0.930 . S
C642 C641 1.369 . S
C642 C651 1.429 . S
C643 C641 1.419 . S
C643 C644 1.363 . S
C643 H646 0.929 . S
C644 C643 1.363 . S
C644 C650 1.428 . S
H645 C641 0.930 . S
H646 C643 0.929 . S
S647 N648 1.613 . S
S647 N649 1.610 . S
N648 S647 1.613 . S
N648 C651 1.350 . S
N649 S647 1.610 . S
N649 C650 1.351 . S
C650 C644 1.428 . S
C650 N649 1.351 . S
C650 C651 1.434 . S
C651 C642 1.429 . S
C651 N648 1.350 . S
C651 C650 1.434 . S
C652 C653 1.369 . S
C652 C654 1.419 . S
C652 H656 0.930 . S
C653 C652 1.369 . S
C653 C662 1.429 . S
C654 C652 1.419 . S
C654 C655 1.363 . S
C654 H657 0.929 . S
C655 C654 1.363 . S
C655 C661 1.428 . S
H656 C652 0.930 . S
H657 C654 0.929 . S
S658 N659 1.613 . S
S658 N660 1.610 . S
N659 S658 1.613 . S
N659 C662 1.350 . S
N660 S658 1.610 . S
N660 C661 1.351 . S
C661 C655 1.428 . S
C661 N660 1.351 . S
C661 C662 1.434 . S
C662 C653 1.429 . S
C662 N659 1.350 . S
C662 C661 1.434 . S
C663 C664 1.369 . S
C663 C665 1.419 . S
C663 H667 0.930 . S
C664 C663 1.369 . S
C664 C673 1.429 . S
C665 C663 1.419 . S
C665 C666 1.363 . S
C665 H668 0.929 . S
C666 C665 1.363 . S
C666 C672 1.428 . S
H667 C663 0.930 . S
H668 C665 0.929 . S
S669 N670 1.613 . S
S669 N671 1.610 . S
N670 S669 1.613 . S
N670 C673 1.350 . S
N671 S669 1.610 . S
N671 C672 1.351 . S
C672 C666 1.428 . S
C672 N671 1.351 . S
C672 C673 1.434 . S
C673 C664 1.429 . S
C673 N670 1.350 . S
C673 C672 1.434 . S
C674 C675 1.369 . S
C674 C676 1.419 . S
C674 H678 0.930 . S
C675 C674 1.369 . S
C675 C684 1.429 . S
C676 C674 1.419 . S
C676 C677 1.363 . S
C676 H679 0.929 . S
C677 C676 1.363 . S
C677 C683 1.428 . S
H678 C674 0.930 . S
H679 C676 0.929 . S
S680 N681 1.613 . S
S680 N682 1.610 . S
N681 S680 1.613 . S
N681 C684 1.350 . S
N682 S680 1.610 . S
N682 C683 1.351 . S
C683 C677 1.428 . S
C683 N682 1.351 . S
C683 C684 1.434 . S
C684 C675 1.429 . S
C684 N681 1.350 . S
C684 C683 1.434 . S
C685 C686 1.369 . S
C685 C687 1.419 . S
C685 H689 0.930 . S
C686 C685 1.369 . S
C686 C695 1.429 . S
C687 C685 1.419 . S
C687 C688 1.363 . S
C687 H690 0.929 . S
C688 C687 1.363 . S
C688 C694 1.428 . S
H689 C685 0.930 . S
H690 C687 0.929 . S
S691 N692 1.613 . S
S691 N693 1.610 . S
N692 S691 1.613 . S
N692 C695 1.350 . S
N693 S691 1.610 . S
N693 C694 1.351 . S
C694 C688 1.428 . S
C694 N693 1.351 . S
C694 C695 1.434 . S
C695 C686 1.429 . S
C695 N692 1.350 . S
C695 C694 1.434 . S
C696 C697 1.369 . S
C696 C698 1.419 . S
C696 H700 0.930 . S
C697 C696 1.369 . S
C697 C706 1.429 . S
C698 C696 1.419 . S
C698 C699 1.363 . S
C698 H701 0.929 . S
C699 C698 1.363 . S
C699 C705 1.428 . S
H700 C696 0.930 . S
H701 C698 0.929 . S
S702 N703 1.613 . S
S702 N704 1.610 . S
N703 S702 1.613 . S
N703 C706 1.350 . S
N704 S702 1.610 . S
N704 C705 1.351 . S
C705 C699 1.428 . S
C705 N704 1.351 . S
C705 C706 1.434 . S
C706 C697 1.429 . S
C706 N703 1.350 . S
C706 C705 1.434 . S
C707 C708 1.369 . S
C707 C709 1.419 . S
C707 H711 0.930 . S
C708 C707 1.369 . S
C708 C717 1.429 . S
C709 C707 1.419 . S
C709 C710 1.363 . S
C709 H712 0.929 . S
C710 C709 1.363 . S
C710 C716 1.428 . S
H711 C707 0.930 . S
H712 C709 0.929 . S
S713 N714 1.613 . S
S713 N715 1.610 . S
N714 S713 1.613 . S
N714 C717 1.350 . S
N715 S713 1.610 . S
N715 C716 1.351 . S
C716 C710 1.428 . S
C716 N715 1.351 . S
C716 C717 1.434 . S
C717 C708 1.429 . S
C717 N714 1.350 . S
C717 C716 1.434 . S
C718 C719 1.369 . S
C718 C720 1.419 . S
C718 H722 0.930 . S
C719 C718 1.369 . S
C719 C728 1.429 . S
C720 C718 1.419 . S
C720 C721 1.363 . S
C720 H723 0.929 . S
C721 C720 1.363 . S
C721 C727 1.428 . S
H722 C718 0.930 . S
H723 C720 0.929 . S
S724 N725 1.613 . S
S724 N726 1.610 . S
N725 S724 1.613 . S
N725 C728 1.350 . S
N726 S724 1.610 . S
N726 C727 1.351 . S
C727 C721 1.428 . S
C727 N726 1.351 . S
C727 C728 1.434 . S
C728 C719 1.429 . S
C728 N725 1.350 . S
C728 C727 1.434 . S
C729 C730 1.369 . S
C729 C731 1.419 . S
C729 H733 0.930 . S
C730 C729 1.369 . S
C730 C739 1.429 . S
C731 C729 1.419 . S
C731 C732 1.363 . S
C731 H734 0.929 . S
C732 C731 1.363 . S
C732 C738 1.428 . S
H733 C729 0.930 . S
H734 C731 0.929 . S
S735 N736 1.613 . S
S735 N737 1.610 . S
N736 S735 1.613 . S
N736 C739 1.350 . S
N737 S735 1.610 . S
N737 C738 1.351 . S
C738 C732 1.428 . S
C738 N737 1.351 . S
C738 C739 1.434 . S
C739 C730 1.429 . S
C739 N736 1.350 . S
C739 C738 1.434 . S
C740 C741 1.369 . S
C740 C742 1.419 . S
C740 H744 0.930 . S
C741 C740 1.369 . S
C741 C750 1.429 . S
C742 C740 1.419 . S
C742 C743 1.363 . S
C742 H745 0.929 . S
C743 C742 1.363 . S
C743 C749 1.428 . S
H744 C740 0.930 . S
H745 C742 0.929 . S
S746 N747 1.613 . S
S746 N748 1.610 . S
N747 S746 1.613 . S
N747 C750 1.350 . S
N748 S746 1.610 . S
N748 C749 1.351 . S
C749 C743 1.428 . S
C749 N748 1.351 . S
C749 C750 1.434 . S
C750 C741 1.429 . S
C750 N747 1.350 . S
C750 C749 1.434 . S
C751 C752 1.369 . S
C751 C753 1.419 . S
C751 H755 0.930 . S
C752 C751 1.369 . S
C752 C761 1.429 . S
C753 C751 1.419 . S
C753 C754 1.363 . S
C753 H756 0.929 . S
C754 C753 1.363 . S
C754 C760 1.428 . S
H755 C751 0.930 . S
H756 C753 0.929 . S
S757 N758 1.613 . S
S757 N759 1.610 . S
N758 S757 1.613 . S
N758 C761 1.350 . S
N759 S757 1.610 . S
N759 C760 1.351 . S
C760 C754 1.428 . S
C760 N759 1.351 . S
C760 C761 1.434 . S
C761 C752 1.429 . S
C761 N758 1.350 . S
C761 C760 1.434 . S
C762 C763 1.369 . S
C762 C764 1.419 . S
C762 H766 0.930 . S
C763 C762 1.369 . S
C763 C772 1.429 . S
C764 C762 1.419 . S
C764 C765 1.363 . S
C764 H767 0.929 . S
C765 C764 1.363 . S
C765 C771 1.428 . S
H766 C762 0.930 . S
H767 C764 0.929 . S
S768 N769 1.613 . S
S768 N770 1.610 . S
N769 S768 1.613 . S
N769 C772 1.350 . S
N770 S768 1.610 . S
N770 C771 1.351 . S
C771 C765 1.428 . S
C771 N770 1.351 . S
C771 C772 1.434 . S
C772 C763 1.429 . S
C772 N769 1.350 . S
C772 C771 1.434 . S
C773 C774 1.369 . S
C773 C775 1.419 . S
C773 H777 0.930 . S
C774 C773 1.369 . S
C774 C783 1.429 . S
C775 C773 1.419 . S
C775 C776 1.363 . S
C775 H778 0.929 . S
C776 C775 1.363 . S
C776 C782 1.428 . S
H777 C773 0.930 . S
H778 C775 0.929 . S
S779 N780 1.613 . S
S779 N781 1.610 . S
N780 S779 1.613 . S
N780 C783 1.350 . S
N781 S779 1.610 . S
N781 C782 1.351 . S
C782 C776 1.428 . S
C782 N781 1.351 . S
C782 C783 1.434 . S
C783 C774 1.429 . S
C783 N780 1.350 . S
C783 C782 1.434 . S
C784 C785 1.369 . S
C784 C786 1.419 . S
C784 H788 0.930 . S
C785 C784 1.369 . S
C785 C794 1.429 . S
C786 C784 1.419 . S
C786 C787 1.363 . S
C786 H789 0.929 . S
C787 C786 1.363 . S
C787 C793 1.428 . S
H788 C784 0.930 . S
H789 C786 0.929 . S
S790 N791 1.613 . S
S790 N792 1.610 . S
N791 S790 1.613 . S
N791 C794 1.350 . S
N792 S790 1.610 . S
N792 C793 1.351 . S
C793 C787 1.428 . S
C793 N792 1.351 . S
C793 C794 1.434 . S
C794 C785 1.429 . S
C794 N791 1.350 . S
C794 C793 1.434 . S
C795 C796 1.369 . S
C795 C797 1.419 . S
C795 H799 0.930 . S
C796 C795 1.369 . S
C796 C805 1.429 . S
C797 C795 1.419 . S
C797 C798 1.363 . S
C797 H800 0.929 . S
C798 C797 1.363 . S
C798 C804 1.428 . S
H799 C795 0.930 . S
H800 C797 0.929 . S
S801 N802 1.613 . S
S801 N803 1.610 . S
N802 S801 1.613 . S
N802 C805 1.350 . S
N803 S801 1.610 . S
N803 C804 1.351 . S
C804 C798 1.428 . S
C804 N803 1.351 . S
C804 C805 1.434 . S
C805 C796 1.429 . S
C805 N802 1.350 . S
C805 C804 1.434 . S
C806 C807 1.369 . S
C806 C808 1.419 . S
C806 H810 0.930 . S
C807 C806 1.369 . S
C807 C816 1.429 . S
C808 C806 1.419 . S
C808 C809 1.363 . S
C808 H811 0.929 . S
C809 C808 1.363 . S
C809 C815 1.428 . S
H810 C806 0.930 . S
H811 C808 0.929 . S
S812 N813 1.613 . S
S812 N814 1.610 . S
N813 S812 1.613 . S
N813 C816 1.350 . S
N814 S812 1.610 . S
N814 C815 1.351 . S
C815 C809 1.428 . S
C815 N814 1.351 . S
C815 C816 1.434 . S
C816 C807 1.429 . S
C816 N813 1.350 . S
C816 C815 1.434 . S
C817 C818 1.369 . S
C817 C819 1.419 . S
C817 H821 0.930 . S
C818 C817 1.369 . S
C818 C827 1.429 . S
C819 C817 1.419 . S
C819 C820 1.363 . S
C819 H822 0.929 . S
C820 C819 1.363 . S
C820 C826 1.428 . S
H821 C817 0.930 . S
H822 C819 0.929 . S
S823 N824 1.613 . S
S823 N825 1.610 . S
N824 S823 1.613 . S
N824 C827 1.350 . S
N825 S823 1.610 . S
N825 C826 1.351 . S
C826 C820 1.428 . S
C826 N825 1.351 . S
C826 C827 1.434 . S
C827 C818 1.429 . S
C827 N824 1.350 . S
C827 C826 1.434 . S
C567 C492 1.507 . S
C565 C31 1.493 . S
C578 C495 1.507 . S
C576 C61 1.493 . S
C589 C493 1.507 . S
C587 C121 1.477 . S
C600 C494 1.507 . S
C598 C211 1.477 . S
C611 C509 1.506 . S
C609 C1 1.489 . S
C622 C523 1.504 . S
C620 C91 1.484 . S
C631 C151 1.473 . S
C633 C549 1.506 . S
C644 C563 1.504 . S
C642 C181 1.488 . S
C655 C508 1.506 . S
C653 C80 1.493 . S
C664 C140 1.484 . S
C666 C522 1.505 . S
C677 C548 1.506 . S
C675 C200 1.469 . S
C688 C562 1.504 . S
C686 C20 1.484 . S
C697 C271 1.491 . S
C699 C507 1.507 . S
C710 C480 1.506 . S
C708 C331 1.478 . S
C719 C380 1.484 . S
C721 C506 1.507 . S
C730 C421 1.490 . S
C732 C481 1.507 . S
C743 C536 1.504 . S
C741 C241 1.489 . S
C754 C550 1.505 . S
C752 C320 1.479 . S
C765 C520 1.505 . S
C763 C361 1.484 . S
C774 C440 1.489 . S
C776 C534 1.504 . S
C787 C537 1.505 . S
C785 C301 1.479 . S
C798 C551 1.506 . S
C796 C391 1.494 . S
C809 C521 1.505 . S
C807 C451 1.488 . S
C818 C260 1.480 . S
C820 C535 1.506 . S
