# Generated by pormake.
# Topology pts, (4,4)-cn, num edge types: 1
# Building blocks:
#     Node 0, Type 0, BuildingBlock: KUFVIS_clean_linker_0, # of connection points: 4
#     Node 1, Type 0, BuildingBlock: KUFVIS_clean_linker_0, # of connection points: 4
#     Node 2, Type 1, BuildingBlock: AZAVOO_clean_sbu_0, # of connection points: 4
#     Node 3, Type 1, BuildingBlock: AZAVOO_clean_sbu_0, # of connection points: 4
#     Edge 4, Type (0, 1), BuildingBlock: FUNLAD_clean_linker_1, # of connection points: 2
#     Edge 5, Type (0, 1), BuildingBlock: FUNLAD_clean_linker_1, # of connection points: 2
#     Edge 6, Type (0, 1), BuildingBlock: FUNLAD_clean_linker_1, # of connection points: 2
#     Edge 7, Type (0, 1), BuildingBlock: FUNLAD_clean_linker_1, # of connection points: 2
#     Edge 8, Type (0, 1), BuildingBlock: FUNLAD_clean_linker_1, # of connection points: 2
#     Edge 9, Type (0, 1), BuildingBlock: FUNLAD_clean_linker_1, # of connection points: 2
#     Edge 10, Type (0, 1), BuildingBlock: FUNLAD_clean_linker_1, # of connection points: 2
#     Edge 11, Type (0, 1), BuildingBlock: FUNLAD_clean_linker_1, # of connection points: 2
# Relax obj value: 0.013
# Max RMSD: 0.077
# Mean RMSD: 0.073
data_MOF--net-pts--node1-AZAVOO_clean_sbu_0--node2-KUFVIS_clean_linker_0--edge1-FUNLAD_clean_linker_1
_symmetry_space_group_name_H-M    P1
_symmetry_Int_Tables_number       1
_symmetry_cell_setting            triclinic
loop_
_symmetry_equiv_pos_as_xyz
'x, y, z'
_cell_length_a     25.878005
_cell_length_b     27.250531
_cell_length_c     36.061488
_cell_angle_alpha  89.816642
_cell_angle_beta   96.325379
_cell_angle_gamma 90.57486
loop_
_atom_site_label
_atom_site_type_symbol
_atom_site_fract_x
_atom_site_fract_y
_atom_site_fract_z
_atom_type_partial_charge
H0 H 0.36849 0.02501 -0.00939 0.0
H1 H 0.50102 0.05662 0.93359 0.0
H2 H 0.51806 0.03343 0.0533 0.0
H3 H 0.59309 0.07059 0.05228 0.0
H4 H 0.72626 0.06721 -0.00786 0.0
H5 H 0.57803 0.0269 0.93598 0.0
C6 C 0.40953 0.03321 -0.00858 0.0
C7 C 0.44039 0.03309 0.0259 0.0
C8 C 0.43145 0.04131 0.9581 0.0
C9 C 0.48534 0.04835 0.9595 0.0
C10 C 0.51827 0.04491 -0.00654 0.0
C11 C 0.49473 0.03692 0.02666 0.0
C12 C 0.5765 0.04975 -0.00625 0.0
C13 C 0.60901 0.06348 0.02637 0.0
C14 C 0.663 0.0691 0.02565 0.0
C15 C 0.68452 0.06344 -0.00787 0.0
C16 C 0.65362 0.0493 0.95958 0.0
C17 C 0.60036 0.04072 0.96093 0.0
H18 H 1.02045 0.68739 0.47914 0.0
H19 H 0.06595 0.55987 0.54372 0.0
H20 H 1.01189 0.5469 0.42616 0.0
H21 H 0.06611 0.48295 0.4313 0.0
H22 H 0.06269 0.35033 0.49401 0.0
H23 H 0.02471 0.48514 0.54456 0.0
C24 C 0.0256 0.6481 0.48088 0.0
C25 C 1.01697 0.61978 0.44837 0.0
C26 C 0.04246 0.62658 0.51538 0.0
C27 C 0.05053 0.57583 0.51731 0.0
C28 C 0.03874 0.54598 0.48547 0.0
C29 C 1.02126 0.56864 0.45111 0.0
C30 C 0.04587 0.49163 0.48799 0.0
C31 C 0.06003 0.46476 0.45722 0.0
C32 C 0.06693 0.41396 0.45973 0.0
C33 C 0.06028 0.38985 0.49312 0.0
C34 C 0.04609 0.41529 0.52406 0.0
C35 C 0.03792 0.466 0.52112 0.0
Mg36 Mg 0.07263 0.99809 0.26125 0.0
O37 O 0.98868 0.01373 0.23427 0.0
O38 O 0.93825 0.0109 0.28103 0.0
Mg39 Mg 0.98757 0.99508 0.33595 0.0
C40 C 0.94422 0.01671 0.24663 0.0
C41 C 0.15842 0.00948 0.21278 0.0
O42 O 0.17834 0.98721 0.24338 0.0
O43 O 0.07925 0.07557 0.2851 0.0
O44 O 0.02799 0.07024 0.33108 0.0
O45 O 0.05949 0.91733 0.254 0.0
O46 O 0.04334 0.95906 0.30383 0.0
C47 C 0.05861 0.0945 0.31216 0.0
C48 C 0.04194 0.91801 0.28626 0.0
O49 O 0.11072 0.02132 0.20976 0.0
Mg50 Mg 0.99952 1.00533 0.71009 0.0
O51 O 0.07523 0.00774 0.74988 0.0
O52 O 0.14108 0.99382 0.71598 0.0
Mg53 Mg 0.10762 0.97958 0.65559 0.0
C54 C 0.12371 1.00338 0.74695 0.0
C55 C 0.91033 0.0192 0.75716 0.0
O56 O 0.89413 0.98309 0.7346 0.0
O57 O 1.01992 0.0802 0.6868 0.0
O58 O 0.08217 0.06029 0.65116 0.0
O59 O 0.9897 0.92465 0.7185 0.0
O60 O 0.03351 0.95754 0.67526 0.0
C61 C 0.05218 0.09166 0.66373 0.0
C62 C 1.01819 0.91879 0.6916 0.0
O63 O 0.95432 0.03901 0.75418 0.0
H64 H 0.43659 0.00694 0.08416 0.0
C65 C 0.4157 0.02665 0.061 0.0
H66 H 0.34731 0.06526 0.04189 0.0
H67 H 0.19733 0.94574 0.13417 0.0
H68 H 0.17897 0.90637 0.074 0.0
H69 H 0.23298 0.92391 0.02319 0.0
H70 H 0.30605 0.98052 0.03248 0.0
C71 C 0.36797 0.0443 0.06442 0.0
C72 C 0.33835 0.03164 0.09623 0.0
C73 C 0.29508 0.99917 0.09017 0.0
C74 C 0.26326 0.98987 0.11921 0.0
C75 C 0.22173 0.95557 0.11278 0.0
C76 C 0.21098 0.93234 0.07841 0.0
C77 C 0.24141 0.94216 0.04983 0.0
C78 C 0.28313 0.97495 0.05551 0.0
H79 H 0.17327 0.03764 0.1572 0.0
C80 C 0.19076 0.0193 0.18223 0.0
H81 H 0.25881 0.98786 0.20991 0.0
H82 H 0.41825 0.0958 0.11696 0.0
H83 H 0.4372 0.13494 0.17732 0.0
H84 H 0.38184 0.11931 0.22767 0.0
H85 H 0.3071 0.06461 0.21794 0.0
C86 C 0.24072 1.00508 0.18458 0.0
C87 C 0.27402 0.01409 0.15402 0.0
C88 C 0.31807 0.04566 0.16035 0.0
C89 C 0.35018 0.05456 0.13137 0.0
C90 C 0.39299 0.08729 0.13812 0.0
C91 C 0.40422 0.11012 0.17262 0.0
C92 C 0.37305 0.10131 0.20096 0.0
C93 C 0.33034 0.06967 0.19503 0.0
H94 H 1.00181 0.39842 0.57213 0.0
C95 C 0.03472 0.38757 0.55784 0.0
H96 H 0.09474 0.33628 0.5549 0.0
H97 H 0.05413 0.23808 0.71057 0.0
H98 H 0.09593 0.31112 0.73926 0.0
H99 H 0.11238 0.3839 0.70118 0.0
H100 H 0.08709 0.38419 0.63412 0.0
C101 C 0.06107 0.34667 0.56852 0.0
C102 C 0.04057 0.30892 0.5929 0.0
C103 C 0.05446 0.30984 0.63196 0.0
C104 C 0.04497 0.26786 0.65389 0.0
C105 C 0.06051 0.26906 0.69273 0.0
C106 C 0.08444 0.3107 0.70947 0.0
C107 C 0.09372 0.3517 0.68802 0.0
C108 C 0.07913 0.35142 0.64964 0.0
H109 H 0.08035 0.14896 0.62789 0.0
C110 C 0.05384 0.14194 0.64877 0.0
H111 H 0.99571 0.17279 0.67845 0.0
H112 H 1.00218 0.29797 0.51945 0.0
H113 H 0.95769 0.22642 0.49124 0.0
H114 H 0.93978 0.15428 0.52952 0.0
H115 H 0.96697 0.15326 0.59616 0.0
C116 C 0.0222 0.17798 0.65737 0.0
C117 C 1.02201 0.2252 0.63652 0.0
C118 C 1.00371 0.22608 0.59799 0.0
C119 C 1.01339 0.26785 0.57609 0.0
C120 C 0.99629 0.26709 0.53739 0.0
C121 C 0.97034 0.22634 0.52088 0.0
C122 C 0.96033 0.18572 0.54241 0.0
C123 C 0.97648 0.18548 0.58056 0.0
H124 H 0.7333 0.1012 0.05662 0.0
C125 C 0.69938 0.07816 0.05956 0.0
H126 H 0.66871 0.02259 0.09168 0.0
H127 H 0.89358 0.94905 0.15092 0.0
H128 H 0.86091 0.88266 0.11 0.0
H129 H 0.77689 0.88961 0.0709 0.0
H130 H 0.72481 0.96272 0.07269 0.0
C131 C 0.69967 0.04947 0.08989 0.0
C132 C 0.74852 0.04452 0.11565 0.0
C133 C 0.77858 1.00141 0.11421 0.0
C134 C 0.82744 0.99766 0.13632 0.0
C135 C 0.85644 0.95408 0.13447 0.0
C136 C 0.83815 0.91563 0.11111 0.0
C137 C 0.79083 0.91953 0.08913 0.0
C138 C 0.76126 0.96178 0.0905 0.0
H139 H 0.86023 0.02818 0.23314 0.0
C140 C 0.89687 0.02638 0.22104 0.0
H141 H 0.93214 0.02822 0.17094 0.0
H142 H 0.69924 0.13057 0.12683 0.0
H143 H 0.73325 0.1983 0.16614 0.0
H144 H 0.81986 0.19352 0.20213 0.0
H145 H 0.87275 0.12088 0.19938 0.0
C146 C 0.89649 0.03174 0.18402 0.0
C147 C 0.84627 0.037 0.15982 0.0
C148 C 0.8164 0.08027 0.16105 0.0
C149 C 0.76716 0.08372 0.13935 0.0
C150 C 0.73746 0.12665 0.14198 0.0
C151 C 0.75642 0.16566 0.16455 0.0
C152 C 0.80512 0.16291 0.1849 0.0
C153 C 0.83495 0.12086 0.18325 0.0
H154 H 0.0903 0.65049 0.56724 0.0
C155 C 0.05516 0.65795 0.54876 0.0
H156 H 0.99024 0.70354 0.53679 0.0
H157 H 0.07949 0.78788 0.70458 0.0
H158 H 0.06766 0.70554 0.72851 0.0
H159 H 0.0424 0.63685 0.68568 0.0
H160 H 0.03016 0.64972 0.61873 0.0
C161 C 0.02567 0.69673 0.55515 0.0
C162 C 0.04359 0.73639 0.58191 0.0
C163 C 0.04867 0.72832 0.62101 0.0
C164 C 0.06043 0.76842 0.64583 0.0
C165 C 0.06814 0.75908 0.68466 0.0
C166 C 0.06187 0.71198 0.69871 0.0
C167 C 0.04784 0.67327 0.67458 0.0
C168 C 0.04118 0.68113 0.63616 0.0
H169 H 0.998 0.84135 0.68075 0.0
C170 C 0.02724 0.86943 0.67738 0.0
H171 H 0.09543 0.8884 0.65387 0.0
H172 H 0.04488 0.76318 0.50868 0.0
H173 H 0.05529 0.84533 0.48483 0.0
H174 H 0.06868 0.91585 0.52761 0.0
H175 H 0.07247 0.90451 0.59424 0.0
C176 C 0.06611 0.8603 0.65668 0.0
C177 C 0.06398 0.81681 0.63155 0.0
C178 C 0.06136 0.82446 0.59243 0.0
C179 C 0.05192 0.78409 0.56769 0.0
C180 C 0.05045 0.79261 0.52876 0.0
C181 C 0.05665 0.83963 0.51464 0.0
C182 C 0.06431 0.87927 0.53872 0.0
C183 C 0.06656 0.87207 0.5771 0.0
H184 H 0.41871 0.03004 0.89684 0.0
C185 C 0.39935 0.03884 0.92123 0.0
H186 H 0.32715 0.05736 0.93988 0.0
H187 H 0.2078 0.1043 0.78288 0.0
H188 H 0.22189 0.18655 0.80777 0.0
H189 H 0.2791 0.20098 0.86616 0.0
H190 H 0.3227 0.13323 0.89997 0.0
C191 C 0.34745 0.04486 0.91695 0.0
C192 C 0.31556 0.03618 0.88064 0.0
C193 C 0.29015 0.07612 0.86138 0.0
C194 C 0.25691 0.06776 0.82786 0.0
C195 C 0.23276 0.10844 0.8088 0.0
C196 C 0.24071 0.15589 0.82269 0.0
C197 C 0.27293 0.16402 0.85556 0.0
C198 C 0.29758 0.12478 0.87475 0.0
H199 H 0.14525 0.01988 0.80661 0.0
C200 C 0.16075 0.01145 0.78056 0.0
H201 H 0.22899 1.00083 0.75422 0.0
H202 H 0.35512 0.9505 0.91207 0.0
H203 H 0.34187 0.86872 0.88658 0.0
H204 H 0.28658 0.85482 0.82727 0.0
H205 H 0.24373 0.9228 0.79332 0.0
C206 C 0.21252 0.01014 0.7797 0.0
C207 C 0.24884 0.0194 0.81388 0.0
C208 C 0.27503 0.97957 0.83269 0.0
C209 C 0.30786 0.9878 0.86643 0.0
C210 C 0.33115 0.94684 0.88571 0.0
C211 C 0.32357 0.89952 0.87151 0.0
C212 C 0.29238 0.89168 0.83816 0.0
C213 C 0.2681 0.93105 0.81893 0.0
H214 H 0.04298 0.38498 0.40356 0.0
C215 C 0.07384 0.38396 0.42656 0.0
H216 H 0.13981 0.34812 0.45183 0.0
H217 H 0.05714 0.13587 0.41181 0.0
H218 H 0.07144 0.1346 0.47919 0.0
H219 H 0.09983 0.20924 0.51444 0.0
H220 H 0.11444 0.28502 0.48267 0.0
C221 C 0.10934 0.34802 0.42856 0.0
C222 C 0.09947 0.30187 0.40661 0.0
C223 C 0.09269 0.25706 0.42593 0.0
C224 C 0.07591 0.21405 0.40568 0.0
C225 C 0.06895 0.16995 0.42568 0.0
C226 C 0.07728 0.16853 0.46446 0.0
C227 C 0.09329 0.2105 0.48427 0.0
C228 C 0.10119 0.25415 0.46546 0.0
H229 H 0.10985 0.16022 0.31594 0.0
C230 C 0.07366 0.145 0.32387 0.0
H231 H 1.00955 0.1551 0.35417 0.0
H232 H 0.11866 0.3786 0.36093 0.0
H233 H 0.10217 0.38038 0.2933 0.0
H234 H 0.06725 0.30735 0.25842 0.0
H235 H 0.04956 0.23192 0.29079 0.0
C236 C 0.04554 0.17068 0.34613 0.0
C237 C 0.06627 0.21559 0.3662 0.0
C238 C 0.07482 0.25981 0.34681 0.0
C239 C 0.09255 0.3027 0.36703 0.0
C240 C 0.10306 0.34571 0.34698 0.0
C241 C 0.09414 0.34709 0.30818 0.0
C242 C 0.07467 0.30591 0.28854 0.0
C243 C 0.06498 0.26271 0.30747 0.0
H244 H 0.66029 0.01181 0.90577 0.0
C245 C 0.67726 0.04023 0.92455 0.0
H246 H 0.73594 0.09484 0.93363 0.0
H247 H 0.89837 0.98155 0.84929 0.0
H248 H 0.93406 0.96981 0.91357 0.0
H249 H 0.88531 0.99521 0.96522 0.0
H250 H 0.80037 0.03207 0.9528 0.0
C251 C 0.71908 0.06558 0.91568 0.0
C252 C 0.74789 0.051 0.88408 0.0
C253 C 0.79812 0.03059 0.89183 0.0
C254 C 0.82668 0.01687 0.86207 0.0
C255 C 0.87567 0.99432 0.8707 0.0
C256 C 0.8965 0.98694 0.90755 0.0
C257 C 0.86903 1.00116 0.93662 0.0
C258 C 0.82033 0.02249 0.92905 0.0
H259 H 0.89422 0.06441 0.80527 0.0
C260 C 0.87945 0.03457 0.78702 0.0
H261 H 0.81948 0.98194 0.7747 0.0
H262 H 0.65366 0.09135 0.85965 0.0
H263 H 0.61754 0.10265 0.79527 0.0
H264 H 0.66685 0.07852 0.74357 0.0
H265 H 0.7527 0.04316 0.75594 0.0
C266 C 0.83521 0.01114 0.7932 0.0
C267 C 0.80543 0.02483 0.82457 0.0
C268 C 0.75495 0.04475 0.81684 0.0
C269 C 0.72625 0.05817 0.84664 0.0
C270 C 0.67666 0.07949 0.83812 0.0
C271 C 0.65558 0.08645 0.80127 0.0
C272 C 0.68336 0.0729 0.77216 0.0
C273 C 0.73256 0.0525 0.77967 0.0
H274 H 0.98218 0.62401 0.38904 0.0
C275 C 1.0054 0.64365 0.41129 0.0
H276 H 0.05316 0.70574 0.42512 0.0
H277 H 0.1039 0.78047 0.27313 0.0
H278 H 0.17633 0.72503 0.28603 0.0
H279 H 0.17656 0.66272 0.33585 0.0
H280 H 0.10409 0.65572 0.3732 0.0
C281 C 0.02602 0.68777 0.40423 0.0
C282 C 1.01765 0.7128 0.36753 0.0
C283 C 0.05914 0.71531 0.34509 0.0
C284 C 0.05864 0.75087 0.31614 0.0
C285 C 0.10186 0.75396 0.29529 0.0
C286 C 0.14377 0.72231 0.3024 0.0
C287 C 0.14393 0.68726 0.33047 0.0
C288 C 0.10228 0.68373 0.35175 0.0
H289 H 1.01501 0.87607 0.33257 0.0
C290 C 0.02357 0.87323 0.3038 0.0
H291 H 0.03217 0.82567 0.25891 0.0
H292 H 0.92835 0.71212 0.40173 0.0
H293 H 0.85238 0.76271 0.38546 0.0
H294 H 0.84979 0.82178 0.33326 0.0
H295 H 0.92368 0.83118 0.29741 0.0
C296 C 0.02232 0.82901 0.2873 0.0
C297 C 1.01643 0.78377 0.30986 0.0
C298 C 0.97199 0.77683 0.32913 0.0
C299 C 0.9729 0.74176 0.35846 0.0
C300 C 0.92936 0.73773 0.37885 0.0
C301 C 0.88552 0.76649 0.36976 0.0
C302 C 0.88409 0.79982 0.3404 0.0
C303 C 0.92675 0.8051 0.32023 0.0
loop_
_geom_bond_atom_site_label_1
_geom_bond_atom_site_label_2
_geom_bond_distance
_geom_bond_site_symmetry_2
_ccdc_geom_bond_type
H0 C6 0.931 . S
H1 C9 0.931 . S
H2 C11 0.931 1_565 S
H3 C13 0.930 . S
H4 C15 0.930 . S
H5 C17 0.929 1_565 S
C6 H0 0.931 . S
C6 C7 1.378 1_556 S
C6 C8 1.397 . S
C7 C6 1.378 1_554 S
C7 C11 1.382 . S
C8 C6 1.397 . S
C8 C9 1.400 . S
C9 H1 0.931 . S
C9 C8 1.400 . S
C9 C10 1.364 1_556 S
C10 C9 1.364 1_554 S
C10 C11 1.427 . S
C10 C12 1.500 . S
C11 H2 0.931 1_545 S
C11 C7 1.382 . S
C11 C10 1.427 . S
C12 C10 1.500 . S
C12 C13 1.384 . S
C12 C17 1.408 1_554 S
C13 H3 0.930 . S
C13 C12 1.384 . S
C13 C14 1.389 . S
C14 C13 1.389 . S
C14 C15 1.405 . S
C15 H4 0.930 . S
C15 C14 1.405 . S
C15 C16 1.364 1_554 S
C16 C15 1.364 1_556 S
C16 C17 1.400 . S
C17 H5 0.929 1_545 S
C17 C12 1.408 1_556 S
C17 C16 1.400 . S
H18 C24 0.930 . S
H19 C27 0.930 . S
H20 C29 0.931 . S
H21 C31 0.930 . S
H22 C33 0.930 . S
H23 C35 0.931 . S
C24 H18 0.930 . S
C24 C25 1.380 . S
C24 C26 1.394 . S
C25 C24 1.380 . S
C25 C29 1.382 . S
C26 C24 1.394 . S
C26 C27 1.400 . S
C27 H19 0.930 . S
C27 C26 1.400 . S
C27 C28 1.375 . S
C28 C27 1.375 . S
C28 C29 1.415 . S
C28 C30 1.501 . S
C29 H20 0.931 . S
C29 C25 1.382 . S
C29 C28 1.415 . S
C30 C28 1.501 . S
C30 C31 1.384 . S
C30 C35 1.408 . S
C31 H21 0.930 . S
C31 C30 1.384 . S
C31 C32 1.389 . S
C32 C31 1.389 . S
C32 C33 1.405 . S
C33 H22 0.930 . S
C33 C32 1.405 . S
C33 C34 1.364 . S
C34 C33 1.364 . S
C34 C35 1.400 . S
C35 H23 0.931 . S
C35 C30 1.408 . S
C35 C34 1.400 . S
Mg36 O37 2.028 . S
Mg36 O43 1.986 . S
Mg36 O45 2.114 1_545 S
Mg36 O46 2.251 1_545 S
Mg36 O49 2.010 . S
O37 Mg36 2.028 . S
O37 C40 1.250 1_455 S
O38 Mg39 2.028 . S
O38 C40 1.248 . S
Mg39 O38 2.028 . S
Mg39 O44 2.032 . S
Mg39 O46 2.079 1_645 S
C40 O37 1.250 1_655 S
C40 O38 1.248 . S
C41 O42 1.264 . S
C41 O49 1.249 . S
O42 C41 1.264 . S
O43 Mg36 1.986 . S
O43 C47 1.246 . S
O44 Mg39 2.032 . S
O44 C47 1.259 1_655 S
O45 Mg36 2.114 1_565 S
O45 C48 1.252 . S
O46 Mg36 2.251 1_565 S
O46 Mg39 2.079 1_465 S
O46 C48 1.273 . S
C47 O43 1.246 . S
C47 O44 1.259 1_455 S
C48 O45 1.252 . S
C48 O46 1.273 . S
O49 Mg36 2.010 . S
O49 C41 1.249 . S
Mg50 O51 2.028 1_655 S
Mg50 O57 1.986 . S
Mg50 O59 2.114 1_545 S
Mg50 O60 2.251 1_645 S
Mg50 O63 2.010 . S
O51 Mg50 2.028 1_455 S
O51 C54 1.250 . S
O52 Mg53 2.028 . S
O52 C54 1.248 . S
Mg53 O52 2.028 . S
Mg53 O58 2.032 . S
Mg53 O60 2.079 1_545 S
C54 O51 1.250 . S
C54 O52 1.248 . S
C55 O56 1.264 . S
C55 O63 1.249 . S
O56 C55 1.264 . S
O57 Mg50 1.986 . S
O57 C61 1.246 1_655 S
O58 Mg53 2.032 . S
O58 C61 1.259 . S
O59 Mg50 2.114 1_565 S
O59 C62 1.252 1_655 S
O60 Mg50 2.251 1_465 S
O60 Mg53 2.079 1_565 S
O60 C62 1.273 . S
C61 O57 1.246 1_455 S
C61 O58 1.259 . S
C62 O59 1.252 1_455 S
C62 O60 1.273 . S
O63 Mg50 2.010 . S
O63 C55 1.249 . S
H64 C65 0.951 . S
C65 H64 0.951 . S
C65 C71 1.265 1_565 S
H66 C71 0.950 . S
H67 C75 0.949 . S
H68 C76 0.950 . S
H69 C77 0.951 . S
H70 C78 0.951 . S
C71 C65 1.265 1_545 S
C71 H66 0.950 . S
C71 C72 1.478 . S
C72 C71 1.478 . S
C72 C73 1.397 1_545 S
C72 C89 1.394 . S
C73 C72 1.397 1_565 S
C73 C74 1.438 . S
C73 C78 1.429 . S
C74 C73 1.438 . S
C74 C75 1.428 . S
C74 C87 1.394 1_565 S
C75 H67 0.949 . S
C75 C74 1.428 . S
C75 C76 1.345 . S
C76 H68 0.950 . S
C76 C75 1.345 . S
C76 C77 1.424 . S
C77 H69 0.951 . S
C77 C76 1.424 . S
C77 C78 1.347 . S
C78 H70 0.951 . S
C78 C73 1.429 . S
C78 C77 1.347 . S
H79 C80 0.951 . S
C80 H79 0.951 . S
C80 C86 1.265 1_545 S
H81 C86 0.950 . S
H82 C90 0.949 . S
H83 C91 0.950 . S
H84 C92 0.951 . S
H85 C93 0.951 . S
C86 C80 1.265 1_565 S
C86 H81 0.950 . S
C86 C87 1.478 1_565 S
C87 C74 1.394 1_545 S
C87 C86 1.478 1_545 S
C87 C88 1.397 . S
C88 C87 1.397 . S
C88 C89 1.438 . S
C88 C93 1.429 . S
C89 C72 1.394 . S
C89 C88 1.438 . S
C89 C90 1.428 . S
C90 H82 0.949 . S
C90 C89 1.428 . S
C90 C91 1.345 . S
C91 H83 0.950 . S
C91 C90 1.345 . S
C91 C92 1.424 . S
C92 H84 0.951 . S
C92 C91 1.424 . S
C92 C93 1.347 . S
C93 H85 0.951 . S
C93 C88 1.429 . S
C93 C92 1.347 . S
H94 C95 0.951 1_655 S
C95 H94 0.951 1_455 S
C95 C101 1.265 . S
H96 C101 0.950 . S
H97 C105 0.949 . S
H98 C106 0.950 . S
H99 C107 0.951 . S
H100 C108 0.951 . S
C101 C95 1.265 . S
C101 H96 0.950 . S
C101 C102 1.478 . S
C102 C101 1.478 . S
C102 C103 1.397 . S
C102 C119 1.394 . S
C103 C102 1.397 . S
C103 C104 1.438 . S
C103 C108 1.429 . S
C104 C103 1.438 . S
C104 C105 1.428 . S
C104 C117 1.394 . S
C105 H97 0.949 . S
C105 C104 1.428 . S
C105 C106 1.345 . S
C106 H98 0.950 . S
C106 C105 1.345 . S
C106 C107 1.424 . S
C107 H99 0.951 . S
C107 C106 1.424 . S
C107 C108 1.347 . S
C108 H100 0.951 . S
C108 C103 1.429 . S
C108 C107 1.347 . S
H109 C110 0.951 . S
C110 H109 0.951 . S
C110 C116 1.265 1_455 S
H111 C116 0.950 . S
H112 C120 0.949 . S
H113 C121 0.950 . S
H114 C122 0.951 . S
H115 C123 0.951 . S
C116 C110 1.265 1_655 S
C116 H111 0.950 . S
C116 C117 1.478 1_655 S
C117 C104 1.394 . S
C117 C116 1.478 1_455 S
C117 C118 1.397 1_455 S
C118 C117 1.397 1_655 S
C118 C119 1.438 1_655 S
C118 C123 1.429 . S
C119 C102 1.394 . S
C119 C118 1.438 1_455 S
C119 C120 1.428 . S
C120 H112 0.949 . S
C120 C119 1.428 . S
C120 C121 1.345 1_455 S
C121 H113 0.950 . S
C121 C120 1.345 1_655 S
C121 C122 1.424 . S
C122 H114 0.951 . S
C122 C121 1.424 . S
C122 C123 1.347 . S
C123 H115 0.951 . S
C123 C118 1.429 . S
C123 C122 1.347 . S
H124 C125 0.951 . S
C125 H124 0.951 . S
C125 C131 1.265 . S
H126 C131 0.950 . S
H127 C135 0.949 . S
H128 C136 0.950 . S
H129 C137 0.951 . S
H130 C138 0.951 . S
C131 C125 1.265 . S
C131 H126 0.950 . S
C131 C132 1.478 . S
C132 C131 1.478 . S
C132 C133 1.397 1_545 S
C132 C149 1.394 . S
C133 C132 1.397 1_565 S
C133 C134 1.438 . S
C133 C138 1.429 . S
C134 C133 1.438 . S
C134 C135 1.428 . S
C134 C147 1.394 1_565 S
C135 H127 0.949 . S
C135 C134 1.428 . S
C135 C136 1.345 . S
C136 H128 0.950 . S
C136 C135 1.345 . S
C136 C137 1.424 . S
C137 H129 0.951 . S
C137 C136 1.424 . S
C137 C138 1.347 . S
C138 H130 0.951 . S
C138 C133 1.429 . S
C138 C137 1.347 . S
H139 C140 0.951 . S
C140 H139 0.951 . S
C140 C146 1.265 . S
H141 C146 0.950 . S
H142 C150 0.949 . S
H143 C151 0.950 . S
H144 C152 0.951 . S
H145 C153 0.951 . S
C146 C140 1.265 . S
C146 H141 0.950 . S
C146 C147 1.478 . S
C147 C134 1.394 1_545 S
C147 C146 1.478 . S
C147 C148 1.397 . S
C148 C147 1.397 . S
C148 C149 1.438 . S
C148 C153 1.429 . S
C149 C132 1.394 . S
C149 C148 1.438 . S
C149 C150 1.428 . S
C150 H142 0.949 . S
C150 C149 1.428 . S
C150 C151 1.345 . S
C151 H143 0.950 . S
C151 C150 1.345 . S
C151 C152 1.424 . S
C152 H144 0.951 . S
C152 C151 1.424 . S
C152 C153 1.347 . S
C153 H145 0.951 . S
C153 C148 1.429 . S
C153 C152 1.347 . S
H154 C155 0.951 . S
C155 H154 0.951 . S
C155 C161 1.265 1_455 S
H156 C161 0.950 . S
H157 C165 0.949 1_455 S
H158 C166 0.950 . S
H159 C167 0.951 . S
H160 C168 0.951 . S
C161 C155 1.265 1_655 S
C161 H156 0.950 . S
C161 C162 1.478 . S
C162 C161 1.478 . S
C162 C163 1.397 . S
C162 C179 1.394 1_655 S
C163 C162 1.397 . S
C163 C164 1.438 1_655 S
C163 C168 1.429 . S
C164 C163 1.438 1_455 S
C164 C165 1.428 1_455 S
C164 C177 1.394 . S
C165 H157 0.949 1_655 S
C165 C164 1.428 1_655 S
C165 C166 1.345 . S
C166 H158 0.950 . S
C166 C165 1.345 . S
C166 C167 1.424 . S
C167 H159 0.951 . S
C167 C166 1.424 . S
C167 C168 1.347 . S
C168 H160 0.951 . S
C168 C163 1.429 . S
C168 C167 1.347 . S
H169 C170 0.951 1_655 S
C170 H169 0.951 1_455 S
C170 C176 1.265 . S
H171 C176 0.950 . S
H172 C180 0.949 . S
H173 C181 0.950 . S
H174 C182 0.951 . S
H175 C183 0.951 . S
C176 C170 1.265 . S
C176 H171 0.950 . S
C176 C177 1.478 . S
C177 C164 1.394 . S
C177 C176 1.478 . S
C177 C178 1.397 . S
C178 C177 1.397 . S
C178 C179 1.438 . S
C178 C183 1.429 . S
C179 C162 1.394 1_455 S
C179 C178 1.438 . S
C179 C180 1.428 . S
C180 H172 0.949 . S
C180 C179 1.428 . S
C180 C181 1.345 . S
C181 H173 0.950 . S
C181 C180 1.345 . S
C181 C182 1.424 . S
C182 H174 0.951 . S
C182 C181 1.424 . S
C182 C183 1.347 . S
C183 H175 0.951 . S
C183 C178 1.429 . S
C183 C182 1.347 . S
H184 C185 0.951 . S
C185 H184 0.951 . S
C185 C191 1.265 . S
H186 C191 0.950 . S
H187 C195 0.949 . S
H188 C196 0.950 . S
H189 C197 0.951 . S
H190 C198 0.951 . S
C191 C185 1.265 . S
C191 H186 0.950 . S
C191 C192 1.478 . S
C192 C191 1.478 . S
C192 C193 1.397 . S
C192 C209 1.394 1_545 S
C193 C192 1.397 . S
C193 C194 1.438 . S
C193 C198 1.429 . S
C194 C193 1.438 . S
C194 C195 1.428 . S
C194 C207 1.394 . S
C195 H187 0.949 . S
C195 C194 1.428 . S
C195 C196 1.345 . S
C196 H188 0.950 . S
C196 C195 1.345 . S
C196 C197 1.424 . S
C197 H189 0.951 . S
C197 C196 1.424 . S
C197 C198 1.347 . S
C198 H190 0.951 . S
C198 C193 1.429 . S
C198 C197 1.347 . S
H199 C200 0.951 . S
C200 H199 0.951 . S
C200 C206 1.265 . S
H201 C206 0.950 . S
H202 C210 0.949 . S
H203 C211 0.950 . S
H204 C212 0.951 . S
H205 C213 0.951 . S
C206 C200 1.265 . S
C206 H201 0.950 . S
C206 C207 1.478 . S
C207 C194 1.394 . S
C207 C206 1.478 . S
C207 C208 1.397 1_545 S
C208 C207 1.397 1_565 S
C208 C209 1.438 . S
C208 C213 1.429 . S
C209 C192 1.394 1_565 S
C209 C208 1.438 . S
C209 C210 1.428 . S
C210 H202 0.949 . S
C210 C209 1.428 . S
C210 C211 1.345 . S
C211 H203 0.950 . S
C211 C210 1.345 . S
C211 C212 1.424 . S
C212 H204 0.951 . S
C212 C211 1.424 . S
C212 C213 1.347 . S
C213 H205 0.951 . S
C213 C208 1.429 . S
C213 C212 1.347 . S
H214 C215 0.951 1_655 S
C215 H214 0.951 1_455 S
C215 C221 1.265 . S
H216 C221 0.950 . S
H217 C225 0.949 . S
H218 C226 0.950 . S
H219 C227 0.951 . S
H220 C228 0.951 . S
C221 C215 1.265 . S
C221 H216 0.950 . S
C221 C222 1.478 . S
C222 C221 1.478 . S
C222 C223 1.397 . S
C222 C239 1.394 . S
C223 C222 1.397 . S
C223 C224 1.438 . S
C223 C228 1.429 . S
C224 C223 1.438 . S
C224 C225 1.428 . S
C224 C237 1.394 . S
C225 H217 0.949 . S
C225 C224 1.428 . S
C225 C226 1.345 . S
C226 H218 0.950 . S
C226 C225 1.345 . S
C226 C227 1.424 . S
C227 H219 0.951 . S
C227 C226 1.424 . S
C227 C228 1.347 . S
C228 H220 0.951 . S
C228 C223 1.429 . S
C228 C227 1.347 . S
H229 C230 0.951 . S
C230 H229 0.951 . S
C230 C236 1.265 . S
H231 C236 0.950 1_655 S
H232 C240 0.949 . S
H233 C241 0.950 . S
H234 C242 0.951 . S
H235 C243 0.951 . S
C236 C230 1.265 . S
C236 H231 0.950 1_455 S
C236 C237 1.478 . S
C237 C224 1.394 . S
C237 C236 1.478 . S
C237 C238 1.397 . S
C238 C237 1.397 . S
C238 C239 1.438 . S
C238 C243 1.429 . S
C239 C222 1.394 . S
C239 C238 1.438 . S
C239 C240 1.428 . S
C240 H232 0.949 . S
C240 C239 1.428 . S
C240 C241 1.345 . S
C241 H233 0.950 . S
C241 C240 1.345 . S
C241 C242 1.424 . S
C242 H234 0.951 . S
C242 C241 1.424 . S
C242 C243 1.347 . S
C243 H235 0.951 . S
C243 C238 1.429 . S
C243 C242 1.347 . S
H244 C245 0.951 . S
C245 H244 0.951 . S
C245 C251 1.265 1_565 S
H246 C251 0.950 . S
H247 C255 0.949 . S
H248 C256 0.950 . S
H249 C257 0.951 . S
H250 C258 0.951 . S
C251 C245 1.265 1_545 S
C251 H246 0.950 . S
C251 C252 1.478 . S
C252 C251 1.478 . S
C252 C253 1.397 . S
C252 C269 1.394 1_545 S
C253 C252 1.397 . S
C253 C254 1.438 . S
C253 C258 1.429 . S
C254 C253 1.438 . S
C254 C255 1.428 . S
C254 C267 1.394 . S
C255 H247 0.949 . S
C255 C254 1.428 . S
C255 C256 1.345 . S
C256 H248 0.950 . S
C256 C255 1.345 . S
C256 C257 1.424 . S
C257 H249 0.951 . S
C257 C256 1.424 . S
C257 C258 1.347 . S
C258 H250 0.951 . S
C258 C253 1.429 . S
C258 C257 1.347 . S
H259 C260 0.951 . S
C260 H259 0.951 . S
C260 C266 1.265 1_545 S
H261 C266 0.950 . S
H262 C270 0.949 . S
H263 C271 0.950 . S
H264 C272 0.951 . S
H265 C273 0.951 . S
C266 C260 1.265 1_565 S
C266 H261 0.950 . S
C266 C267 1.478 1_565 S
C267 C254 1.394 . S
C267 C266 1.478 1_545 S
C267 C268 1.397 1_545 S
C268 C267 1.397 1_565 S
C268 C269 1.438 . S
C268 C273 1.429 . S
C269 C252 1.394 1_565 S
C269 C268 1.438 . S
C269 C270 1.428 . S
C270 H262 0.949 . S
C270 C269 1.428 . S
C270 C271 1.345 . S
C271 H263 0.950 . S
C271 C270 1.345 . S
C271 C272 1.424 . S
C272 H264 0.951 . S
C272 C271 1.424 . S
C272 C273 1.347 . S
C273 H265 0.951 . S
C273 C268 1.429 . S
C273 C272 1.347 . S
H274 C275 0.951 1_655 S
C275 H274 0.951 1_455 S
C275 C281 1.265 . S
H276 C281 0.950 . S
H277 C285 0.949 . S
H278 C286 0.950 . S
H279 C287 0.951 . S
H280 C288 0.951 . S
C281 C275 1.265 . S
C281 H276 0.950 . S
C281 C282 1.478 . S
C282 C281 1.478 . S
C282 C283 1.397 . S
C282 C299 1.394 . S
C283 C282 1.397 . S
C283 C284 1.438 . S
C283 C288 1.429 . S
C284 C283 1.438 . S
C284 C285 1.428 . S
C284 C297 1.394 . S
C285 H277 0.949 . S
C285 C284 1.428 . S
C285 C286 1.345 . S
C286 H278 0.950 . S
C286 C285 1.345 . S
C286 C287 1.424 . S
C287 H279 0.951 . S
C287 C286 1.424 . S
C287 C288 1.347 . S
C288 H280 0.951 . S
C288 C283 1.429 . S
C288 C287 1.347 . S
H289 C290 0.951 . S
C290 H289 0.951 . S
C290 C296 1.265 . S
H291 C296 0.950 1_655 S
H292 C300 0.949 . S
H293 C301 0.950 . S
H294 C302 0.951 . S
H295 C303 0.951 . S
C296 C290 1.265 . S
C296 H291 0.950 1_455 S
C296 C297 1.478 . S
C297 C284 1.394 . S
C297 C296 1.478 . S
C297 C298 1.397 1_455 S
C298 C297 1.397 1_655 S
C298 C299 1.438 1_655 S
C298 C303 1.429 . S
C299 C282 1.394 . S
C299 C298 1.438 1_455 S
C299 C300 1.428 1_455 S
C300 H292 0.949 . S
C300 C299 1.428 1_655 S
C300 C301 1.345 . S
C301 H293 0.950 . S
C301 C300 1.345 . S
C301 C302 1.424 . S
C302 H294 0.951 . S
C302 C301 1.424 . S
C302 C303 1.347 . S
C303 H295 0.951 . S
C303 C298 1.429 . S
C303 C302 1.347 . S
C80 C41 1.341 . S
C65 C7 1.538 1_565 S
C110 C61 1.484 . S
C95 C34 1.464 . S
C140 C40 1.439 . S
C125 C14 1.453 . S
C170 C62 1.529 . S
C155 C26 1.479 . S
C200 C54 1.520 . S
C185 C8 1.527 . S
C230 C47 1.539 . S
C215 C32 1.511 . S
C260 C55 1.199 . S
C245 C16 1.477 1_565 S
C275 C25 1.495 . S
C290 C48 1.539 . S
