# Generated by pormake.
# Topology zzz, (3,6)-cn, num edge types: 1
# Building blocks:
#     Node 0, Type 0, BuildingBlock: BELTOD_clean_linker_0, # of connection points: 3
#     Node 1, Type 0, BuildingBlock: BELTOD_clean_linker_0, # of connection points: 3
#     Node 2, Type 0, BuildingBlock: BELTOD_clean_linker_0, # of connection points: 3
#     Node 3, Type 0, BuildingBlock: BELTOD_clean_linker_0, # of connection points: 3
#     Node 4, Type 0, BuildingBlock: BELTOD_clean_linker_0, # of connection points: 3
#     Node 5, Type 0, BuildingBlock: BELTOD_clean_linker_0, # of connection points: 3
#     Node 6, Type 0, BuildingBlock: BELTOD_clean_linker_0, # of connection points: 3
#     Node 7, Type 0, BuildingBlock: BELTOD_clean_linker_0, # of connection points: 3
#     Node 8, Type 1, BuildingBlock: NUHQIS_clean_sbu_0, # of connection points: 6
#     Node 9, Type 1, BuildingBlock: NUHQIS_clean_sbu_0, # of connection points: 6
#     Node 10, Type 1, BuildingBlock: NUHQIS_clean_sbu_0, # of connection points: 6
#     Node 11, Type 1, BuildingBlock: NUHQIS_clean_sbu_0, # of connection points: 6
#     Edge 12, Type (0, 1), BuildingBlock: MIFKUJ_clean_linker_0, # of connection points: 2
#     Edge 13, Type (0, 1), BuildingBlock: MIFKUJ_clean_linker_0, # of connection points: 2
#     Edge 14, Type (0, 1), BuildingBlock: MIFKUJ_clean_linker_0, # of connection points: 2
#     Edge 15, Type (0, 1), BuildingBlock: MIFKUJ_clean_linker_0, # of connection points: 2
#     Edge 16, Type (0, 1), BuildingBlock: MIFKUJ_clean_linker_0, # of connection points: 2
#     Edge 17, Type (0, 1), BuildingBlock: MIFKUJ_clean_linker_0, # of connection points: 2
#     Edge 18, Type (0, 1), BuildingBlock: MIFKUJ_clean_linker_0, # of connection points: 2
#     Edge 19, Type (0, 1), BuildingBlock: MIFKUJ_clean_linker_0, # of connection points: 2
#     Edge 20, Type (0, 1), BuildingBlock: MIFKUJ_clean_linker_0, # of connection points: 2
#     Edge 21, Type (0, 1), BuildingBlock: MIFKUJ_clean_linker_0, # of connection points: 2
#     Edge 22, Type (0, 1), BuildingBlock: MIFKUJ_clean_linker_0, # of connection points: 2
#     Edge 23, Type (0, 1), BuildingBlock: MIFKUJ_clean_linker_0, # of connection points: 2
#     Edge 24, Type (0, 1), BuildingBlock: MIFKUJ_clean_linker_0, # of connection points: 2
#     Edge 25, Type (0, 1), BuildingBlock: MIFKUJ_clean_linker_0, # of connection points: 2
#     Edge 26, Type (0, 1), BuildingBlock: MIFKUJ_clean_linker_0, # of connection points: 2
#     Edge 27, Type (0, 1), BuildingBlock: MIFKUJ_clean_linker_0, # of connection points: 2
#     Edge 28, Type (0, 1), BuildingBlock: MIFKUJ_clean_linker_0, # of connection points: 2
#     Edge 29, Type (0, 1), BuildingBlock: MIFKUJ_clean_linker_0, # of connection points: 2
#     Edge 30, Type (0, 1), BuildingBlock: MIFKUJ_clean_linker_0, # of connection points: 2
#     Edge 31, Type (0, 1), BuildingBlock: MIFKUJ_clean_linker_0, # of connection points: 2
#     Edge 32, Type (0, 1), BuildingBlock: MIFKUJ_clean_linker_0, # of connection points: 2
#     Edge 33, Type (0, 1), BuildingBlock: MIFKUJ_clean_linker_0, # of connection points: 2
#     Edge 34, Type (0, 1), BuildingBlock: MIFKUJ_clean_linker_0, # of connection points: 2
#     Edge 35, Type (0, 1), BuildingBlock: MIFKUJ_clean_linker_0, # of connection points: 2
# Relax obj value: 0.371
# Max RMSD: 0.244
# Mean RMSD: 0.221
data_MOF--net-zzz--node1-NUHQIS_clean_sbu_0--node2-BELTOD_clean_linker_0--edge1-MIFKUJ_clean_linker_0
_symmetry_space_group_name_H-M    P1
_symmetry_Int_Tables_number       1
_symmetry_cell_setting            triclinic
loop_
_symmetry_equiv_pos_as_xyz
'x, y, z'
_cell_length_a     70.586988
_cell_length_b     70.595277
_cell_length_c     22.49959
_cell_angle_alpha  89.893485
_cell_angle_beta   89.998126
_cell_angle_gamma 89.953757
loop_
_atom_site_label
_atom_site_type_symbol
_atom_site_fract_x
_atom_site_fract_y
_atom_site_fract_z
_atom_type_partial_charge
P0 P 0.72213 0.48341 0.32668 0.0
H1 H 0.73591 0.48025 0.4482 0.0
H2 H 0.76527 0.49009 0.49303 0.0
H3 H 0.77598 0.52714 0.3434 0.0
H4 H 0.74702 0.51592 0.29654 0.0
H5 H 0.68395 0.47036 0.30444 0.0
H6 H 0.65892 0.48051 0.23789 0.0
H7 H 0.69214 0.52926 0.1872 0.0
H8 H 0.71736 0.51905 0.25521 0.0
H9 H 0.74167 0.44702 0.33436 0.0
H10 H 0.73713 0.49321 0.20949 0.0
O11 O 0.71264 0.46752 0.37298 0.0
H12 H 0.7674 0.43341 0.27578 0.0
H13 H 0.76317 0.48025 0.15228 0.0
C14 C 0.73884 0.49747 0.36901 0.0
C15 C 0.74415 0.49099 0.42561 0.0
C16 C 0.7612 0.49672 0.45156 0.0
C17 C 0.77347 0.50933 0.42194 0.0
C18 C 0.76731 0.51705 0.3673 0.0
C19 C 0.75034 0.511 0.34084 0.0
C20 C 0.70259 0.49402 0.28595 0.0
C21 C 0.68578 0.48355 0.28052 0.0
C22 C 0.67137 0.48937 0.24211 0.0
C23 C 0.67344 0.50573 0.2071 0.0
C24 C 0.69013 0.51652 0.21331 0.0
C25 C 0.70454 0.51075 0.25261 0.0
C26 C 0.7372 0.47094 0.2757 0.0
C27 C 0.74583 0.45396 0.29345 0.0
C28 C 0.76073 0.44633 0.26033 0.0
C29 C 0.76747 0.45577 0.20945 0.0
C30 C 0.75818 0.47236 0.19052 0.0
C31 C 0.74321 0.47986 0.22337 0.0
P32 P 0.02286 0.72327 0.32371 0.0
H33 H 0.02159 0.73505 0.44806 0.0
H34 H 0.01238 0.76481 0.49229 0.0
H35 H 0.98345 0.78039 0.32986 0.0
H36 H 0.99417 0.75101 0.28435 0.0
H37 H 0.03286 0.68365 0.30955 0.0
H38 H 0.02237 0.659 0.24228 0.0
H39 H 0.97848 0.69603 0.17569 0.0
H40 H 0.98916 0.72091 0.24394 0.0
H41 H 0.05005 0.75287 0.34768 0.0
H42 H 0.02576 0.7265 0.19254 0.0
O43 O 0.03773 0.71349 0.37267 0.0
H44 H 0.0628 0.77816 0.2858 0.0
H45 H 0.03897 0.75139 0.13018 0.0
C46 C 0.00842 0.74047 0.36282 0.0
C47 C 0.01271 0.74451 0.42236 0.0
C48 C 0.00737 0.76178 0.44787 0.0
C49 C 0.99736 0.77547 0.41472 0.0
C50 C 0.99158 0.77058 0.35666 0.0
C51 C 0.99726 0.7534 0.33082 0.0
C52 C 0.01166 0.70416 0.28288 0.0
C53 C 0.02062 0.68642 0.28191 0.0
C54 C 0.01458 0.67222 0.24312 0.0
C55 C 0.99953 0.67544 0.20346 0.0
C56 C 0.99018 0.69309 0.20545 0.0
C57 C 0.99615 0.70729 0.24499 0.0
C58 C 0.03681 0.73787 0.27498 0.0
C59 C 0.04802 0.75216 0.30001 0.0
C60 C 0.05536 0.76661 0.26447 0.0
C61 C 0.05166 0.76695 0.20309 0.0
C62 C 0.04171 0.75175 0.17753 0.0
C63 C 0.03423 0.73739 0.21325 0.0
P64 P 0.78553 0.02495 0.3177 0.0
H65 H 0.77202 0.0277 0.43991 0.0
H66 H 0.74211 0.0189 0.48355 0.0
H67 H 0.73018 0.98334 0.33161 0.0
H68 H 0.75963 0.99376 0.28583 0.0
H69 H 0.82437 0.03689 0.30007 0.0
H70 H 0.84983 0.0256 0.2371 0.0
H71 H 0.8162 0.97692 0.18891 0.0
H72 H 0.79048 0.98841 0.25284 0.0
H73 H 0.75532 0.05232 0.32929 0.0
H74 H 0.78306 0.02249 0.1864 0.0
O75 O 0.79419 0.04171 0.36235 0.0
H76 H 0.73031 0.06219 0.2615 0.0
H77 H 0.75846 0.03283 0.11792 0.0
C78 C 0.76843 0.01124 0.35966 0.0
C79 C 0.76334 0.0175 0.4166 0.0
C80 C 0.74597 0.01238 0.44181 0.0
C81 C 0.73322 1.00054 0.41114 0.0
C82 C 0.73919 0.9929 0.35628 0.0
C83 C 0.75645 0.9984 0.33052 0.0
C84 C 0.8055 0.0134 0.2823 0.0
C85 C 0.82257 0.02346 0.27762 0.0
C86 C 0.83722 0.01697 0.2413 0.0
C87 C 0.83514 1.00031 0.20786 0.0
C88 C 0.81824 0.98986 0.21386 0.0
C89 C 0.80357 0.99632 0.25096 0.0
C90 C 0.77103 0.03662 0.26315 0.0
C91 C 0.7564 0.04846 0.28282 0.0
C92 C 0.7421 0.05414 0.24387 0.0
C93 C 0.74226 0.04811 0.18436 0.0
C94 C 0.75774 0.0374 0.16379 0.0
C95 C 0.77194 0.03158 0.20298 0.0
P96 P 0.47941 0.78788 0.32191 0.0
H97 H 0.47595 0.77426 0.44357 0.0
H98 H 0.48585 0.74496 0.48906 0.0
H99 H 0.52354 0.73444 0.34111 0.0
H100 H 0.51227 0.7633 0.29352 0.0
H101 H 0.46492 0.82491 0.29207 0.0
H102 H 0.47541 0.84993 0.22603 0.0
H103 H 0.52696 0.81893 0.19072 0.0
H104 H 0.51629 0.79367 0.25798 0.0
H105 H 0.44335 0.76774 0.32777 0.0
H106 H 0.49008 0.77312 0.20551 0.0
O107 O 0.46315 0.79726 0.36709 0.0
H108 H 0.43053 0.74178 0.26859 0.0
H109 H 0.47793 0.74681 0.14776 0.0
C110 C 0.4935 0.77139 0.36516 0.0
C111 C 0.48685 0.76607 0.42154 0.0
C112 C 0.4926 0.74906 0.44785 0.0
C113 C 0.5054 0.73687 0.41882 0.0
C114 C 0.5133 0.74306 0.36451 0.0
C115 C 0.50723 0.75998 0.33768 0.0
C116 C 0.48991 0.80743 0.28123 0.0
C117 C 0.47874 0.8236 0.27161 0.0
C118 C 0.48478 0.838 0.23353 0.0
C119 C 0.5021 0.83657 0.20312 0.0
C120 C 0.51349 0.82047 0.21329 0.0
C121 C 0.50746 0.80604 0.25216 0.0
C122 C 0.46747 0.77261 0.27041 0.0
C123 C 0.45057 0.76369 0.28728 0.0
C124 C 0.44341 0.74866 0.25384 0.0
C125 C 0.45324 0.74208 0.20357 0.0
C126 C 0.46975 0.75166 0.1855 0.0
C127 C 0.47678 0.76678 0.21864 0.0
P128 P 0.27943 0.45746 0.03622 0.0
H129 H 0.27026 0.45051 0.91082 0.0
H130 H 0.24314 0.46079 0.852 0.0
H131 H 0.22981 0.50275 0.98518 0.0
H132 H 0.2574 0.4928 0.04265 0.0
H133 H 0.31543 0.43866 0.05806 0.0
H134 H 0.34375 0.44801 0.11137 0.0
H135 H 0.32209 0.50507 0.12575 0.0
H136 H 0.29335 0.4954 0.07207 0.0
H137 H 0.24089 0.44411 0.04588 0.0
H138 H 0.28288 0.46738 0.16443 0.0
O139 O 0.28246 0.43553 0.01024 0.0
H140 H 0.21636 0.45054 0.11841 0.0
H141 H 0.2585 0.47311 0.23862 0.0
C142 C 0.2659 0.47075 0.9816 0.0
C143 C 0.26201 0.46245 0.92631 0.0
C144 C 0.2462 0.46815 0.89307 0.0
C145 C 0.23379 0.48221 0.91454 0.0
C146 C 0.2389 0.49185 0.96696 0.0
C147 C 0.25486 0.48625 -0.00011 0.0
C148 C 0.30229 0.46637 0.06003 0.0
C149 C 0.31693 0.45336 0.0708 0.0
C150 C 0.33324 0.45875 0.1016 0.0
C151 C 0.33531 0.47732 0.12318 0.0
C152 C 0.32094 0.49061 0.11023 0.0
C153 C 0.3046 0.48519 0.07877 0.0
C154 C 0.26361 0.4558 0.09876 0.0
C155 C 0.24495 0.44997 0.0885 0.0
C156 C 0.23089 0.4536 0.13042 0.0
C157 C 0.23534 0.4628 0.18408 0.0
C158 C 0.25447 0.46659 0.19697 0.0
C159 C 0.2685 0.46322 0.15446 0.0
P160 P 0.05086 0.28137 0.02819 0.0
H161 H 0.05936 0.27115 0.90476 0.0
H162 H 0.04965 0.24333 0.84866 0.0
H163 H 0.00476 0.23315 0.97508 0.0
H164 H 0.01435 0.26127 0.03045 0.0
H165 H 0.07023 0.31627 0.05898 0.0
H166 H 0.06084 0.34409 0.11479 0.0
H167 H 1.00309 0.32396 0.11866 0.0
H168 H 0.01272 0.29581 0.06182 0.0
H169 H 0.06728 0.24393 0.03454 0.0
H170 H 0.03618 0.28095 0.15193 0.0
O171 O 0.07289 0.28458 0.00309 0.0
H172 H 0.05959 0.21699 0.09841 0.0
H173 H 0.02853 0.25414 0.21547 0.0
C174 C 0.03769 0.2684 0.97225 0.0
C175 C 0.04689 0.2635 0.91912 0.0
C176 C 0.0415 0.24731 0.88747 0.0
C177 C 0.02678 0.2356 0.90824 0.0
C178 C 0.01619 0.24175 0.95767 0.0
C179 C 0.02155 0.25805 0.98918 0.0
C180 C 0.04216 0.30397 0.05521 0.0
C181 C 0.0554 0.31801 0.06995 0.0
C182 C 0.05 0.33402 0.10219 0.0
C183 C 0.03119 0.33635 0.12145 0.0
C184 C 0.01772 0.32258 0.10484 0.0
C185 C 0.02315 0.30658 0.07169 0.0
C186 C 0.0521 0.26443 0.08782 0.0
C187 C 0.05947 0.24642 0.07524 0.0
C188 C 0.05492 0.23101 0.11134 0.0
C189 C 0.0432 0.2335 0.16108 0.0
C190 C 0.03758 0.25187 0.17723 0.0
C191 C 0.04192 0.26724 0.14062 0.0
P192 P 0.23268 0.04269 0.06423 0.0
H193 H 0.24039 0.05671 0.9439 0.0
H194 H 0.26555 0.04876 0.87381 0.0
H195 H 0.27924 0.99925 0.97871 0.0
H196 H 0.25353 0.00678 0.04649 0.0
H197 H 0.20203 0.06682 0.10434 0.0
H198 H 0.17095 0.06014 0.14492 0.0
H199 H 0.17708 1.0013 0.09655 0.0
H200 H 0.2085 0.00828 0.05416 0.0
H201 H 0.26597 0.05777 0.12456 0.0
H202 H 0.22808 0.01032 0.14588 0.0
O203 O 0.23527 0.06615 0.05892 0.0
H204 H 0.286 0.04525 0.20396 0.0
H205 H 0.24817 0.99751 0.22331 0.0
C206 C 0.24519 0.03259 0.00133 0.0
C207 C 0.24833 0.04375 0.95063 0.0
C208 C 0.26301 0.03933 0.91099 0.0
C209 C 0.27498 0.02367 0.92132 0.0
C210 C 0.27049 0.01147 0.96895 0.0
C211 C 0.25568 0.01581 0.00818 0.0
C212 C 0.20767 0.0381 0.0756 0.0
C213 C 0.19653 0.05258 0.10016 0.0
C214 C 0.17864 0.04872 0.12371 0.0
C215 C 0.17148 0.03016 0.1244 0.0
C216 C 0.18223 0.01574 0.09709 0.0
C217 C 0.20011 0.01973 0.07232 0.0
C218 C 0.24529 0.03523 0.12983 0.0
C219 C 0.26171 0.0449 0.1471 0.0
C220 C 0.27326 0.03761 0.19208 0.0
C221 C 0.26872 0.02033 0.21991 0.0
C222 C 0.25192 0.01102 0.20371 0.0
C223 C 0.24035 0.01838 0.15906 0.0
P224 P 0.45364 0.23491 0.05255 0.0
H225 H 0.43938 0.25027 0.94019 0.0
H226 H 0.45083 0.27659 0.88074 0.0
H227 H 0.50473 0.27378 0.97132 0.0
H228 H 0.49289 0.24753 0.03197 0.0
H229 H 0.43289 0.20801 0.12276 0.0
H230 H 0.44172 0.17879 0.17339 0.0
H231 H 0.4962 0.17982 0.08675 0.0
H232 H 0.48734 0.20967 0.03608 0.0
H233 H 0.43961 0.27199 0.08699 0.0
H234 H 0.48094 0.23171 0.15076 0.0
O235 O 0.43027 0.23584 0.04152 0.0
H236 H 0.45208 0.29572 0.15571 0.0
H237 H 0.49346 0.25527 0.21871 0.0
C238 C 0.4652 0.2468 0.99092 0.0
C239 C 0.45394 0.25472 0.94584 0.0
C240 C 0.46054 0.26998 0.91174 0.0
C241 C 0.47862 0.27773 0.92186 0.0
C242 C 0.49056 0.26853 0.96312 0.0
C243 C 0.48393 0.25321 -0.00284 0.0
C244 C 0.45928 0.21088 0.07458 0.0
C245 C 0.44655 0.20174 0.11294 0.0
C246 C 0.45164 0.1851 0.14238 0.0
C247 C 0.46961 0.17709 0.13405 0.0
C248 C 0.48218 0.18567 0.09348 0.0
C249 C 0.4771 0.20263 0.0643 0.0
C250 C 0.45911 0.25 0.11435 0.0
C251 C 0.45092 0.26804 0.11714 0.0
C252 C 0.45817 0.28163 0.15594 0.0
C253 C 0.47381 0.27735 0.19225 0.0
C254 C 0.48125 0.2589 0.19184 0.0
C255 C 0.47405 0.24537 0.15286 0.0
Tb256 Tb 0.02054 0.99964 0.71002 0.0
Eu257 Eu 0.98601 0.01161 0.62162 0.0
C258 C 0.02894 0.01355 0.57917 0.0
C259 C 0.00721 0.04184 0.70383 0.0
C260 C 0.04894 0.97579 0.82668 0.0
C261 C 0.0688 0.95309 0.87847 0.0
C262 C 0.06686 0.96816 0.83861 0.0
C263 C 0.03301 0.96864 0.85642 0.0
C264 C 0.03495 0.95366 0.89657 0.0
C265 C 0.05281 0.94543 0.90705 0.0
C266 C 0.04689 0.99021 0.78015 0.0
O267 O 0.99514 1.00079 0.7656 0.0
O268 O 0.97223 0.9952 0.69575 0.0
O269 O 0.99418 0.98184 0.59668 0.0
O270 O 0.00726 0.97272 0.68552 0.0
C271 C 0.97769 0.99605 0.75146 0.0
O272 O 0.95814 0.02425 0.60796 0.0
O273 O 0.97386 0.01355 0.53266 0.0
O274 O 0.0128 0.02281 0.57927 0.0
O275 O 0.03288 1.00125 0.62126 0.0
O276 O 0.02201 0.03053 0.70291 0.0
O277 O 0.99072 0.03593 0.6846 0.0
C278 C 1.0003 0.96854 0.63281 0.0
O279 O 0.04511 0.98367 0.72641 0.0
O280 O 0.03487 0.0038 0.79072 0.0
C281 C 0.95876 0.04268 0.52181 0.0
C282 C 0.95976 0.07782 0.46293 0.0
C283 C 0.94606 0.06418 0.44761 0.0
C284 C 0.94557 0.04666 0.47698 0.0
C285 C 0.97217 0.05637 0.53783 0.0
C286 C 0.9727 0.07372 0.5087 0.0
C287 C 0.95973 0.02406 0.55021 0.0
H288 H 0.08271 0.94693 0.88486 0.0
H289 H 0.07927 0.97347 0.81566 0.0
H290 H 0.01902 0.97432 0.84756 0.0
H291 H 0.02239 0.94828 0.91847 0.0
H292 H 0.93591 0.06696 0.41256 0.0
H293 H 0.9352 0.03615 0.46402 0.0
H294 H 0.98262 0.05342 0.57193 0.0
H295 H 0.98377 0.08363 0.52061 0.0
Tb296 Tb 0.50673 0.01983 0.69749 0.0
Eu297 Eu 0.49644 0.98443 0.61012 0.0
C298 C 0.49381 0.02789 0.56441 0.0
C299 C 0.46488 0.00607 0.68651 0.0
C300 C 0.53082 0.0468 0.81528 0.0
C301 C 0.55543 0.06507 0.86381 0.0
C302 C 0.53979 0.06415 0.82587 0.0
C303 C 0.53724 0.03044 0.84458 0.0
C304 C 0.55277 0.03137 0.88284 0.0
C305 C 0.56233 0.04861 0.89182 0.0
C306 C 0.51611 0.04558 0.76939 0.0
O307 O 0.50471 0.99463 0.75358 0.0
O308 O 0.51363 0.97247 0.68572 0.0
O309 O 0.52564 0.9933 0.58255 0.0
O310 O 0.53402 0.00755 0.67038 0.0
C311 C 0.5111 0.97764 0.74104 0.0
O312 O 0.49138 0.95406 0.60188 0.0
O313 O 0.48808 0.9721 0.525 0.0
O314 O 0.4873 0.01052 0.55893 0.0
O315 O 0.50344 0.03337 0.6113 0.0
O316 O 0.47593 0.02105 0.68665 0.0
O317 O 0.4715 0.9895 0.67057 0.0
C318 C 0.53854 1.00049 0.61796 0.0
O319 O 0.52244 0.04442 0.7152 0.0
O320 O 0.50242 0.03359 0.77909 0.0
C321 C 0.46469 0.94928 0.54146 0.0
C322 C 0.42562 0.94608 0.52073 0.0
C323 C 0.43863 0.94144 0.47572 0.0
C324 C 0.45811 0.94317 0.48596 0.0
C325 C 0.45168 0.95237 0.58774 0.0
C326 C 0.4323 0.95087 0.57738 0.0
C327 C 0.48437 0.95563 0.54853 0.0
H328 H 0.5626 0.07852 0.86905 0.0
H329 H 0.53513 0.07686 0.80309 0.0
H330 H 0.53059 0.01685 0.83663 0.0
H331 H 0.55755 0.01849 0.90438 0.0
H332 H 0.43373 0.9379 0.43149 0.0
H333 H 0.46792 0.94089 0.44963 0.0
H334 H 0.4564 0.95711 0.63099 0.0
H335 H 0.4225 0.95449 0.61267 0.0
Tb336 Tb 0.48875 0.51065 0.70548 0.0
Eu337 Eu 0.52332 0.50023 0.6145 0.0
C338 C 0.48022 0.49778 0.57278 0.0
C339 C 0.50196 0.46835 0.69235 0.0
C340 C 0.46067 0.53536 0.81971 0.0
C341 C 0.44133 0.55297 0.88953 0.0
C342 C 0.44386 0.53737 0.85213 0.0
C343 C 0.47514 0.5488 0.82595 0.0
C344 C 0.4726 0.56441 0.86308 0.0
C345 C 0.45557 0.5668 0.89461 0.0
C346 C 0.46273 0.51985 0.77708 0.0
O347 O 0.51425 0.50843 0.76013 0.0
O348 O 0.53676 0.51578 0.69085 0.0
O349 O 0.51387 0.52979 0.59188 0.0
O350 O 0.50144 0.53798 0.68216 0.0
C351 C 0.53155 0.51376 0.74645 0.0
O352 O 0.55109 0.4875 0.59956 0.0
O353 O 0.5367 0.50178 0.52736 0.0
O354 O 0.49686 0.48949 0.5694 0.0
O355 O 0.47591 0.509 0.61739 0.0
O356 O 0.48733 0.47984 0.69666 0.0
O357 O 0.51824 0.47431 0.67115 0.0
C358 C 0.50782 0.5427 0.62918 0.0
O359 O 0.46327 0.52505 0.72159 0.0
O360 O 0.47584 0.50744 0.78911 0.0
C361 C 0.55389 0.47387 0.50456 0.0
C362 C 0.55683 0.43904 0.44454 0.0
C363 C 0.56992 0.44379 0.48909 0.0
C364 C 0.56852 0.46113 0.51865 0.0
C365 C 0.54145 0.46953 0.45779 0.0
C366 C 0.54293 0.45231 0.42807 0.0
C367 C 0.55063 0.49059 0.54241 0.0
H368 H 0.428 0.55453 0.9129 0.0
H369 H 0.43254 0.52711 0.84755 0.0
H370 H 0.48824 0.5474 0.80123 0.0
H371 H 0.48392 0.57469 0.86675 0.0
H372 H 0.58087 0.43388 0.50227 0.0
H373 H 0.57835 0.46422 0.5543 0.0
H374 H 0.53 0.47902 0.44576 0.0
H375 H 0.53247 0.44895 0.39447 0.0
Tb376 Tb 0.99902 0.48908 0.70907 0.0
Eu377 Eu 0.01053 0.5228 0.61624 0.0
C378 C 0.01165 0.4794 0.57731 0.0
C379 C 0.04127 0.50183 0.69808 0.0
C380 C 0.97408 0.46168 0.825 0.0
C381 C 0.95658 0.44261 0.89594 0.0
C382 C 0.97217 0.44502 0.85836 0.0
C383 C 0.96056 0.47612 0.83052 0.0
C384 C 0.94496 0.4737 0.86785 0.0
C385 C 0.94266 0.4568 0.90029 0.0
C386 C 0.98955 0.46351 0.78201 0.0
O387 O 1.00079 0.51499 0.76215 0.0
O388 O 0.99563 0.53772 0.69102 0.0
O389 O 0.98075 0.51389 0.59417 0.0
O390 O 0.97202 0.50227 0.68508 0.0
C391 C 0.99647 0.53249 0.74697 0.0
O392 O 0.02773 0.54747 0.59321 0.0
O393 O 0.00658 0.53737 0.53161 0.0
O394 O 0.02064 0.49565 0.57379 0.0
O395 O 1.00004 0.47579 0.62157 0.0
O396 O 0.02982 0.48716 0.69981 0.0
O397 O 0.0353 0.51826 0.67817 0.0
C398 C 0.96758 0.50855 0.63177 0.0
O399 O 0.98428 0.46393 0.7266 0.0
O400 O 1.00209 0.47653 0.79336 0.0
C401 C 0.03581 0.54715 0.49248 0.0
C402 C 0.06719 0.54332 0.41629 0.0
C403 C 0.0623 0.56117 0.43956 0.0
C404 C 0.0467 0.56305 0.47758 0.0
C405 C 0.04022 0.52953 0.46743 0.0
C406 C 0.05572 0.52762 0.42982 0.0
C407 C 0.0213 0.54826 0.539 0.0
H408 H 0.95509 0.42939 0.91999 0.0
H409 H 0.98249 0.43373 0.85431 0.0
H410 H 0.96188 0.48909 0.80504 0.0
H411 H 0.93459 0.48498 0.87094 0.0
H412 H 0.07078 0.57355 0.42963 0.0
H413 H 0.04355 0.57674 0.49689 0.0
H414 H 0.03213 0.51703 0.47885 0.0
H415 H 0.05925 0.51358 0.41392 0.0
H416 H 0.16501 1.00103 0.20264 0.0
H417 H 0.13829 0.99739 0.27096 0.0
H418 H 0.1114 0.04643 0.19327 0.0
H419 H 0.13817 0.0502 0.1253 0.0
H420 H 0.11173 0.05019 0.30731 0.0
H421 H 0.09316 1.00029 0.17817 0.0
H422 H 0.09605 0.97103 0.11916 0.0
H423 H 0.10831 0.93933 0.27758 0.0
H424 H 0.10571 0.96842 0.33751 0.0
H425 H 0.02765 0.03924 0.48659 0.0
H426 H 0.04972 0.04197 0.40272 0.0
H427 H 0.08306 0.99609 0.47437 0.0
H428 H 0.06121 0.99325 0.55778 0.0
H429 H 0.07719 0.9912 0.35741 0.0
H430 H 0.09701 0.04253 0.48461 0.0
H431 H 0.09483 0.07251 0.54036 0.0
H432 H 0.0795 0.10207 0.38051 0.0
H433 H 0.08118 0.07221 0.32401 0.0
C434 C 0.15317 0.01073 0.19899 0.0
C435 C 0.1538 0.02595 0.15854 0.0
C436 C 0.13786 0.00866 0.23825 0.0
C437 C 0.1227 0.02162 0.23753 0.0
C438 C 0.12291 0.03629 0.1952 0.0
C439 C 0.13824 0.03843 0.15624 0.0
C440 C 0.10753 0.02092 0.28402 0.0
C441 C 0.1039 0.03736 0.31733 0.0
C442 C 0.09753 0.00411 0.29831 0.0
C443 C 0.09943 0.98661 0.26228 0.0
C444 C 0.09666 0.98712 0.20038 0.0
C445 C 0.0982 0.97055 0.16677 0.0
C446 C 0.10241 0.95334 0.19457 0.0
C447 C 0.10507 0.95267 0.25607 0.0
C448 C 0.10354 0.96919 0.2899 0.0
C449 C 0.03974 0.0298 0.48466 0.0
C450 C 0.04261 0.01604 0.5292 0.0
C451 C 0.05239 0.03141 0.43668 0.0
C452 C 0.06815 0.01926 0.43212 0.0
C453 C 0.07102 0.0056 0.47663 0.0
C454 C 0.0585 0.00406 0.52461 0.0
C455 C 0.08156 0.02044 0.38084 0.0
C456 C 0.08488 0.00407 0.34677 0.0
C457 C 0.09115 0.03736 0.36542 0.0
C458 C 0.08904 0.05508 0.40018 0.0
C459 C 0.09288 0.05536 0.46151 0.0
C460 C 0.09181 0.07235 0.49321 0.0
C461 C 0.08711 0.08918 0.46392 0.0
C462 C 0.08321 0.08903 0.40306 0.0
C463 C 0.08416 0.07207 0.37125 0.0
H464 H 0.08653 0.10236 0.48828 0.0
H465 H 0.10357 0.94053 0.16847 0.0
H466 H 0.47888 0.14086 0.10014 0.0
H467 H 0.48479 0.11346 0.16588 0.0
H468 H 0.47894 0.14961 0.31909 0.0
H469 H 0.47275 0.17673 0.25386 0.0
H470 H 0.51008 0.12408 0.32616 0.0
H471 H 0.44275 0.12386 0.27866 0.0
H472 H 0.41569 0.12273 0.20942 0.0
H473 H 0.43516 0.06926 0.14209 0.0
H474 H 0.4625 0.07022 0.21041 0.0
H475 H 0.49419 0.06639 0.57296 0.0
H476 H 0.4915 0.08968 0.49339 0.0
H477 H 0.48481 0.04473 0.36544 0.0
H478 H 0.4867 0.02125 0.4459 0.0
H479 H 0.46276 0.0722 0.33472 0.0
H480 H 0.52803 0.06979 0.38422 0.0
H481 H 0.55624 0.06994 0.44884 0.0
H482 H 0.54318 0.12656 0.50496 0.0
H483 H 0.51473 0.12667 0.44129 0.0
C484 C 0.47914 0.14291 0.14783 0.0
C485 C 0.47539 0.16086 0.17206 0.0
C486 C 0.4824 0.12728 0.18532 0.0
C487 C 0.4822 0.12946 0.2475 0.0
C488 C 0.47918 0.14756 0.27138 0.0
C489 C 0.47563 0.16304 0.23412 0.0
C490 C 0.48443 0.11295 0.28837 0.0
C491 C 0.4997 0.11277 0.32828 0.0
C492 C 0.47127 0.09783 0.2898 0.0
C493 C 0.45478 0.09722 0.2491 0.0
C494 C 0.44135 0.11194 0.24873 0.0
C495 C 0.42595 0.11132 0.20972 0.0
C496 C 0.42374 0.09596 0.17125 0.0
C497 C 0.4369 0.08117 0.17183 0.0
C498 C 0.45235 0.08174 0.21069 0.0
C499 C 0.49206 0.06141 0.52795 0.0
C500 C 0.49081 0.04192 0.51583 0.0
C501 C 0.49067 0.07479 0.48223 0.0
C502 C 0.48851 0.06906 0.42279 0.0
C503 C 0.48664 0.04959 0.41071 0.0
C504 C 0.4877 0.03616 0.45678 0.0
C505 C 0.48824 0.08348 0.37385 0.0
C506 C 0.47335 0.08331 0.33233 0.0
C507 C 0.50199 0.09811 0.37015 0.0
C508 C 0.51916 0.09818 0.40826 0.0
C509 C 0.53111 0.08224 0.41061 0.0
C510 C 0.54715 0.08228 0.44705 0.0
C511 C 0.55148 0.09823 0.48107 0.0
C512 C 0.5398 0.11421 0.4786 0.0
C513 C 0.52373 0.11424 0.44228 0.0
H514 H 0.5639 0.09823 0.50927 0.0
H515 H 0.4118 0.0955 0.14109 0.0
H516 H 0.3725 0.46618 0.11226 0.0
H517 H 0.39824 0.47054 0.18363 0.0
H518 H 0.3612 0.50347 0.29551 0.0
H519 H 0.33531 0.49902 0.22457 0.0
H520 H 0.39665 0.51871 0.29171 0.0
H521 H 0.36974 0.45688 0.32509 0.0
H522 H 0.35949 0.42482 0.29606 0.0
H523 H 0.41638 0.41106 0.24403 0.0
H524 H 0.42692 0.44316 0.27197 0.0
H525 H 0.44437 0.51245 0.56648 0.0
H526 H 0.42156 0.50981 0.4857 0.0
H527 H 0.46093 0.4754 0.38671 0.0
H528 H 0.48393 0.47779 0.46813 0.0
H529 H 0.42585 0.46109 0.37922 0.0
H530 H 0.45339 0.52201 0.34968 0.0
H531 H 0.46403 0.55408 0.37711 0.0
H532 H 0.40684 0.56971 0.41978 0.0
H533 H 0.39587 0.53763 0.39338 0.0
C534 C 0.3698 0.4744 0.15195 0.0
C535 C 0.3517 0.48209 0.16272 0.0
C536 C 0.38457 0.47689 0.19279 0.0
C537 C 0.38163 0.48706 0.24563 0.0
C538 C 0.36386 0.49552 0.2552 0.0
C539 C 0.34905 0.49304 0.21434 0.0
C540 C 0.39678 0.48823 0.29189 0.0
C541 C 0.40289 0.50611 0.31129 0.0
C542 C 0.40536 0.47182 0.31645 0.0
C543 C 0.39908 0.45248 0.30004 0.0
C544 C 0.38003 0.44706 0.30705 0.0
C545 C 0.37418 0.42888 0.29085 0.0
C546 C 0.38726 0.41593 0.26806 0.0
C547 C 0.40625 0.42112 0.2616 0.0
C548 C 0.41218 0.4393 0.27763 0.0
C549 C 0.44827 0.50427 0.52768 0.0
C550 C 0.46611 0.49539 0.52398 0.0
C551 C 0.43518 0.50287 0.48119 0.0
C552 C 0.43957 0.49268 0.42943 0.0
C553 C 0.45721 0.48343 0.42599 0.0
C554 C 0.47036 0.48482 0.47265 0.0
C555 C 0.42563 0.49159 0.37951 0.0
C556 C 0.41973 0.47372 0.35944 0.0
C557 C 0.41731 0.50802 0.35414 0.0
C558 C 0.42383 0.52735 0.37004 0.0
C559 C 0.44309 0.53223 0.36536 0.0
C560 C 0.44919 0.55042 0.38064 0.0
C561 C 0.43613 0.56391 0.4003 0.0
C562 C 0.41694 0.55924 0.4046 0.0
C563 C 0.41078 0.54106 0.38941 0.0
H564 H 0.44087 0.57799 0.4121 0.0
H565 H 0.3827 0.40186 0.25555 0.0
H566 H 0.04271 0.37343 0.11451 0.0
H567 H 0.03822 0.39849 0.18806 0.0
H568 H 0.00444 0.36068 0.29508 0.0
H569 H 0.00887 0.33552 0.22152 0.0
H570 H 0.98971 0.39608 0.29607 0.0
H571 H 0.05146 0.36858 0.32624 0.0
H572 H 0.08347 0.35842 0.29591 0.0
H573 H 0.09742 0.4157 0.24861 0.0
H574 H 0.06539 0.42615 0.27788 0.0
H575 H 0.9958 0.44404 0.57131 0.0
H576 H 0.99814 0.42096 0.49116 0.0
H577 H 0.03421 0.45905 0.39275 0.0
H578 H 0.03232 0.4821 0.47368 0.0
H579 H 0.0475 0.42433 0.38464 0.0
H580 H 0.98648 0.45232 0.3564 0.0
H581 H 0.95445 0.46289 0.38494 0.0
H582 H 0.93898 0.40557 0.42658 0.0
H583 H 0.97101 0.39468 0.39902 0.0
C584 C 0.03424 0.37045 0.15353 0.0
C585 C 0.02631 0.35235 0.16222 0.0
C586 C 0.03169 0.38481 0.19567 0.0
C587 C 0.0213 0.38142 0.24791 0.0
C588 C 0.01258 0.36368 0.25534 0.0
C589 C 0.01506 0.3493 0.21303 0.0
C590 C 0.0202 0.39608 0.29572 0.0
C591 C 1.00235 0.40209 0.3159 0.0
C592 C 0.03666 0.40435 0.32079 0.0
C593 C 0.05597 0.39811 0.30371 0.0
C594 C 0.06131 0.37898 0.30899 0.0
C595 C 0.07946 0.37318 0.29204 0.0
C596 C 0.09245 0.3864 0.27021 0.0
C597 C 0.08734 0.40547 0.26545 0.0
C598 C 0.06919 0.41134 0.28225 0.0
C599 C 0.00429 0.44757 0.53275 0.0
C600 C 0.01377 0.46508 0.52905 0.0
C601 C 0.0055 0.43435 0.48658 0.0
C602 C 0.01605 0.43833 0.43507 0.0
C603 C 0.02587 0.45563 0.43174 0.0
C604 C 0.02475 0.46885 0.47812 0.0
C605 C 0.017 0.42433 0.38524 0.0
C606 C 0.03483 0.41841 0.36471 0.0
C607 C 1.00052 0.41622 0.35968 0.0
C608 C 0.98121 0.42271 0.37615 0.0
C609 C 0.9763 0.44199 0.37206 0.0
C610 C 0.95813 0.44803 0.38798 0.0
C611 C 0.9447 0.43492 0.40769 0.0
C612 C 0.9494 0.41572 0.41136 0.0
C613 C 0.96756 0.4096 0.39553 0.0
H614 H 0.93064 0.43962 0.41999 0.0
H615 H 0.10649 0.38187 0.2571 0.0
H616 H 0.8737 1.00124 0.22245 0.0
H617 H 0.89806 0.99716 0.14636 0.0
H618 H 0.85505 0.98334 0.01752 0.0
H619 H 0.83052 0.9875 0.09352 0.0
H620 H 0.88711 0.96154 0.00235 0.0
H621 H 0.87212 0.02746 0.02358 0.0
H622 H 0.86737 0.05733 0.07821 0.0
H623 H 0.92543 0.05631 0.13503 0.0
H624 H 0.93046 0.02625 0.08145 0.0
H625 H 0.94042 0.98528 0.74101 0.0
H626 H 0.91678 0.98256 0.82013 0.0
H627 H 0.95915 0.99719 0.95018 0.0
H628 H 0.98285 0.99998 0.87152 0.0
H629 H 0.92732 0.01792 0.96467 0.0
H630 H 0.94256 0.95232 0.94046 0.0
H631 H 0.94717 0.92252 0.88536 0.0
H632 H 0.8887 0.92305 0.83278 0.0
H633 H 0.8838 0.95303 0.88687 0.0
C634 C 0.8694 0.99719 0.17805 0.0
C635 C 0.8501 0.99492 0.16402 0.0
C636 C 0.88336 0.99484 0.13456 0.0
C637 C 0.87839 0.99029 0.07585 0.0
C638 C 0.85925 0.98691 0.06244 0.0
C639 C 0.84523 0.98923 0.10605 0.0
C640 C 0.89301 0.9903 0.02798 0.0
C641 C 0.89576 0.97393 0.99363 0.0
C642 C 0.90455 0.00636 0.0171 0.0
C643 C 0.90161 0.02451 0.049 0.0
C644 C 0.88384 0.03353 0.0481 0.0
C645 C 0.8811 0.0505 0.07882 0.0
C646 C 0.89607 0.05869 0.1102 0.0
C647 C 0.91384 0.04994 0.11078 0.0
C648 C 0.91664 0.03294 0.08022 0.0
C649 C 0.94478 0.98775 0.78648 0.0
C650 C 0.96358 0.99291 0.7997 0.0
C651 C 0.93123 0.98612 0.83177 0.0
C652 C 0.93617 0.9896 0.89127 0.0
C653 C 0.95498 0.99445 0.90466 0.0
C654 C 0.96855 0.99599 0.85951 0.0
C655 C 0.92157 0.98911 0.93921 0.0
C656 C 0.91875 0.00547 0.97345 0.0
C657 C 0.90998 0.97307 0.94974 0.0
C658 C 0.91286 0.95503 0.91722 0.0
C659 C 0.93072 0.94618 0.91671 0.0
C660 C 0.93338 0.92923 0.88575 0.0
C661 C 0.91825 0.92092 0.85545 0.0
C662 C 0.90041 0.92952 0.85619 0.0
C663 C 0.89768 0.94648 0.88704 0.0
H664 H 0.92034 0.9078 0.83151 0.0
H665 H 0.89393 0.07183 0.13395 0.0
H666 H 0.51745 0.83181 0.09179 0.0
H667 H 0.52225 0.856 0.01506 0.0
H668 H 0.50314 0.89911 0.13673 0.0
H669 H 0.49841 0.87507 0.2135 0.0
H670 H 0.48513 0.90229 0.03368 0.0
H671 H 0.54993 0.89553 0.09393 0.0
H672 H 0.5796 0.87842 0.11558 0.0
H673 H 0.58233 0.85931 0.93471 0.0
H674 H 0.55251 0.87611 0.91216 0.0
H675 H 0.50594 0.98295 0.86053 0.0
H676 H 0.50754 0.95924 0.93958 0.0
H677 H 0.52378 0.91676 0.81188 0.0
H678 H 0.52233 0.94045 0.73233 0.0
H679 H 0.54371 0.91304 0.9166 0.0
H680 H 0.4788 0.91939 0.85694 0.0
H681 H 0.44932 0.93677 0.83475 0.0
H682 H 0.44683 0.95649 0.01501 0.0
H683 H 0.4765 0.93947 0.03802 0.0
C684 C 0.51468 0.84649 0.10265 0.0
C685 C 0.50743 0.85145 0.15882 0.0
C686 C 0.51738 0.86033 0.05861 0.0
C687 C 0.51305 0.87945 0.06992 0.0
C688 C 0.50646 0.88448 0.12663 0.0
C689 C 0.50374 0.87069 0.17053 0.0
C690 C 0.5143 0.89406 0.02197 0.0
C691 C 0.49806 0.9048 0.00879 0.0
C692 C 0.53096 0.89705 0.98809 0.0
C693 C 0.54887 0.88692 0.00152 0.0
C694 C 0.55676 0.88754 0.0589 0.0
C695 C 0.57363 0.87793 0.07131 0.0
C696 C 0.58282 0.86774 0.02659 0.0
C697 C 0.57518 0.86718 0.96932 0.0
C698 C 0.5583 0.87676 0.95669 0.0
C699 C 0.51001 0.96861 0.84914 0.0
C700 C 0.51382 0.96361 0.7898 0.0
C701 C 0.51088 0.95504 0.89449 0.0
C702 C 0.51551 0.93612 0.88164 0.0
C703 C 0.52012 0.93124 0.8229 0.0
C704 C 0.51923 0.94482 0.77741 0.0
C705 C 0.51463 0.92133 0.92899 0.0
C706 C 0.53085 0.91052 0.94177 0.0
C707 C 0.49794 0.91822 0.96258 0.0
C708 C 0.47998 0.92831 0.94904 0.0
C709 C 0.47205 0.92755 0.89174 0.0
C710 C 0.45529 0.93732 0.87902 0.0
C711 C 0.44623 0.94776 0.9234 0.0
C712 C 0.45388 0.94841 0.98065 0.0
C713 C 0.47067 0.9387 0.99356 0.0
H714 H 0.43326 0.95532 0.91347 0.0
H715 H 0.59588 0.86031 0.03628 0.0
H716 H 0.67842 0.51725 0.09149 0.0
H717 H 0.65413 0.52142 0.0149 0.0
H718 H 0.61063 0.50903 0.14385 0.0
H719 H 0.63484 0.50474 0.22038 0.0
H720 H 0.6046 0.48913 0.04749 0.0
H721 H 0.61785 0.55446 0.08633 0.0
H722 H 0.63775 0.5829 0.09797 0.0
H723 H 0.65605 0.57813 0.9166 0.0
H724 H 0.63645 0.54949 0.9041 0.0
H725 H 0.52584 0.51164 0.8668 0.0
H726 H 0.54957 0.51315 0.94565 0.0
H727 H 0.5933 0.52252 0.81507 0.0
H728 H 0.56959 0.52132 0.73581 0.0
H729 H 0.599 0.54442 0.91222 0.0
H730 H 0.58602 0.47861 0.87484 0.0
H731 H 0.56532 0.45074 0.8631 0.0
H732 H 0.54606 0.45684 0.04307 0.0
H733 H 0.56645 0.48494 0.05563 0.0
C734 C 0.66366 0.5158 0.10384 0.0
C735 C 0.65862 0.51061 0.16215 0.0
C736 C 0.64975 0.51815 0.05989 0.0
C737 C 0.63045 0.5156 0.07339 0.0
C738 C 0.62538 0.51097 0.13203 0.0
C739 C 0.63926 0.50853 0.17583 0.0
C740 C 0.61562 0.51678 0.02605 0.0
C741 C 0.60323 0.50137 0.01859 0.0
C742 C 0.61401 0.53251 0.9871 0.0
C743 C 0.62582 0.54972 0.99448 0.0
C744 C 0.62624 0.55938 0.04907 0.0
C745 C 0.63744 0.57556 0.0558 0.0
C746 C 0.64819 0.58229 0.0081 0.0
C747 C 0.64773 0.57289 0.95353 0.0
C748 C 0.63656 0.55669 0.94659 0.0
C749 C 0.54047 0.51416 0.85471 0.0
C750 C 0.54578 0.51619 0.79471 0.0
C751 C 0.55407 0.51496 0.89996 0.0
C752 C 0.57332 0.51762 0.88638 0.0
C753 C 0.57857 0.52038 0.82675 0.0
C754 C 0.56496 0.51964 0.7814 0.0
C755 C 0.58801 0.51684 0.93406 0.0
C756 C 0.60038 0.53224 0.94137 0.0
C757 C 0.5896 0.50112 0.97303 0.0
C758 C 0.57764 0.48398 0.96599 0.0
C759 C 0.5773 0.47407 0.91182 0.0
C760 C 0.56562 0.45823 0.90502 0.0
C761 C 0.55434 0.45205 0.95225 0.0
C762 C 0.55479 0.46166 0.00649 0.0
C763 C 0.56641 0.47753 0.0135 0.0
H764 H 0.54529 0.43981 0.94687 0.0
H765 H 0.65685 0.59482 0.01339 0.0
H766 H 0.99697 0.63696 0.21865 0.0
H767 H 0.99338 0.61273 0.14206 0.0
H768 H 0.98781 0.65624 0.00846 0.0
H769 H 0.99142 0.68062 0.08503 0.0
H770 H 0.96392 0.62671 0.98602 0.0
H771 H 0.02995 0.63441 0.03165 0.0
H772 H 0.0581 0.63576 0.09639 0.0
H773 H 0.0487 0.57818 0.15064 0.0
H774 H 0.02029 0.57659 0.08694 0.0
H775 H 0.98945 0.57058 0.73411 0.0
H776 H 0.98693 0.59447 0.81223 0.0
H777 H 0.99454 0.55116 0.94555 0.0
H778 H 0.99734 0.52722 0.86775 0.0
H779 H 0.01666 0.58055 0.96841 0.0
H780 H 0.95112 0.57235 0.92041 0.0
H781 H 0.92339 0.57075 0.85397 0.0
H782 H 0.93191 0.62876 0.80304 0.0
H783 H 0.95989 0.63063 0.86848 0.0
C784 C 0.99487 0.64141 0.17303 0.0
C785 C 0.9947 0.66078 0.15803 0.0
C786 C 0.99281 0.62751 0.12922 0.0
C787 C 0.99069 0.63261 0.06917 0.0
C788 C 0.98948 0.65192 0.05439 0.0
C789 C 0.99149 0.66587 0.09832 0.0
C790 C 0.9908 0.61782 0.02177 0.0
C791 C 0.97554 0.61674 0.98177 0.0
C792 C 0.00578 0.60453 0.01669 0.0
C793 C 0.02287 0.60545 0.055 0.0
C794 C 0.03379 0.62209 0.05777 0.0
C795 C 0.0498 0.62289 0.09423 0.0
C796 C 0.05515 0.60708 0.12774 0.0
C797 C 0.04452 0.59042 0.12476 0.0
C798 C 0.02846 0.58957 0.08847 0.0
C799 C 0.99044 0.56607 0.78004 0.0
C800 C 0.99364 0.54692 0.79444 0.0
C801 C 0.98891 0.57978 0.82478 0.0
C802 C 0.9904 0.57466 0.88502 0.0
C803 C 0.99335 0.55551 0.8995 0.0
C804 C 0.9949 0.5418 0.85483 0.0
C805 C 0.98972 0.58931 0.9328 0.0
C806 C 0.00495 0.59042 0.97278 0.0
C807 C 0.97471 0.60257 0.93776 0.0
C808 C 0.95773 0.60157 0.89896 0.0
C809 C 0.94717 0.58473 0.89474 0.0
C810 C 0.93139 0.58378 0.85729 0.0
C811 C 0.92592 0.59962 0.82419 0.0
C812 C 0.93618 0.61648 0.82865 0.0
C813 C 0.95199 0.61751 0.86596 0.0
H814 H 0.91372 0.59885 0.79518 0.0
H815 H 0.06757 0.60772 0.1559 0.0
H816 H 0.02576 0.20367 0.10863 0.0
H817 H 0.00875 0.17773 0.15733 0.0
H818 H 0.02373 0.20037 0.32887 0.0
H819 H 0.04075 0.22649 0.28036 0.0
H820 H 0.02921 0.16074 0.31659 0.0
H821 H 0.9818 0.20827 0.27887 0.0
H822 H 0.96344 0.23039 0.21658 0.0
H823 H 0.94262 0.1839 0.11269 0.0
H824 H 0.96112 0.1615 0.17378 0.0
H825 H 0.96768 0.11306 0.5062 0.0
H826 H 0.97905 0.14022 0.4493 0.0
H827 H 0.96774 0.11057 0.28582 0.0
H828 H 0.9571 0.08289 0.3424 0.0
H829 H 0.95983 0.15293 0.28926 0.0
H830 H 0.00705 0.10545 0.32428 0.0
H831 H 0.02557 0.08288 0.38453 0.0
H832 H 0.04789 0.12886 0.48764 0.0
H833 H 0.02877 0.15157 0.43013 0.0
C834 C 0.02569 0.20293 0.15674 0.0
C835 C 0.03467 0.21695 0.19094 0.0
C836 C 0.01583 0.18825 0.18434 0.0
C837 C 0.01488 0.18732 0.24645 0.0
C838 C 0.02429 0.20097 0.28078 0.0
C839 C 0.03397 0.21581 0.25319 0.0
C840 C 0.00408 0.17205 0.27564 0.0
C841 C 0.01402 0.15915 0.31124 0.0
C842 C 0.98435 0.16974 0.2668 0.0
C843 C 0.97309 0.18322 0.23037 0.0
C844 C 0.97348 0.20276 0.24234 0.0
C845 C 0.96301 0.21536 0.20733 0.0
C846 C 0.95193 0.20857 0.16055 0.0
C847 C 0.95123 0.18915 0.14887 0.0
C848 C 0.96171 0.1765 0.18369 0.0
C849 C 0.96736 0.11238 0.45812 0.0
C850 C 0.96192 0.09566 0.4288 0.0
C851 C 0.97372 0.12795 0.42578 0.0
C852 C 0.97445 0.12718 0.36365 0.0
C853 C 0.96726 0.11131 0.33389 0.0
C854 C 0.96113 0.09556 0.3663 0.0
C855 C 0.98497 0.14187 0.33085 0.0
C856 C 0.97503 0.15455 0.29448 0.0
C857 C 0.00475 0.14392 0.33843 0.0
C858 C 0.01614 0.1302 0.37362 0.0
C859 C 0.01557 0.11071 0.36066 0.0
C860 C 0.02619 0.09788 0.39434 0.0
C861 C 0.0377 0.10439 0.44041 0.0
C862 C 0.03876 0.12376 0.45255 0.0
C863 C 0.02797 0.13663 0.41958 0.0
H864 H 0.04584 0.09441 0.46656 0.0
H865 H 0.94383 0.21834 0.13348 0.0
H866 H 0.30728 0.01907 0.21157 0.0
H867 H 0.32933 1.00196 0.27516 0.0
H868 H 0.2829 0.98255 0.384 0.0
H869 H 0.26069 1.00051 0.32206 0.0
H870 H 0.31209 0.99154 0.45156 0.0
H871 H 0.30274 0.95333 0.2823 0.0
H872 H 0.30034 0.9451 0.17614 0.0
H873 H 0.35906 0.95887 0.15146 0.0
H874 H 0.36169 0.96769 0.25699 0.0
H875 H 0.4009 0.92122 0.4688 0.0
H876 H 0.3686 0.92817 0.43453 0.0
H877 H 0.37402 0.98537 0.50021 0.0
H878 H 0.40549 0.97806 0.53755 0.0
H879 H 0.35896 0.94956 0.35351 0.0
H880 H 0.33449 0.00813 0.52156 0.0
H881 H 0.33541 0.01395 0.62934 0.0
H882 H 0.34157 0.95433 0.6621 0.0
H883 H 0.34016 0.94806 0.55445 0.0
C884 C 0.30174 0.01153 0.24974 0.0
C885 C 0.28219 0.01115 0.26164 0.0
C886 C 0.31435 1.00151 0.28556 0.0
C887 C 0.3077 0.99063 0.33345 0.0
C888 C 0.28829 0.99071 0.34686 0.0
C889 C 0.27563 1.00087 0.31122 0.0
C890 C 0.32116 0.97917 0.36896 0.0
C891 C 0.32227 0.98222 0.43044 0.0
C892 C 0.33392 0.96642 0.34156 0.0
C893 C 0.33237 0.96128 0.27767 0.0
C894 C 0.3151 0.95479 0.25414 0.0
C895 C 0.31369 0.95002 0.19401 0.0
C896 C 0.32952 0.95151 0.15701 0.0
C897 C 0.34679 0.95777 0.18008 0.0
C898 C 0.34824 0.96267 0.24007 0.0
C899 C 0.39486 0.93507 0.4772 0.0
C900 C 0.40549 0.94907 0.50607 0.0
C901 C 0.37648 0.93907 0.45761 0.0
C902 C 0.36868 0.95725 0.46547 0.0
C903 C 0.37931 0.97106 0.49541 0.0
C904 C 0.3974 0.96693 0.5163 0.0
C905 C 0.35065 0.96269 0.43598 0.0
C906 C 0.34859 0.95851 0.37535 0.0
C907 C 0.33677 0.974 0.46461 0.0
C908 C 0.33724 0.97762 0.5297 0.0
C909 C 0.33583 0.99622 0.55169 0.0
C910 C 0.33648 0.99961 0.61285 0.0
C911 C 0.3386 0.98453 0.6526 0.0
C912 C 0.33997 0.96601 0.63126 0.0
C913 C 0.33923 0.96252 0.57014 0.0
H914 H 0.33913 0.98716 0.69993 0.0
H915 H 0.32842 0.94778 0.1105 0.0
H916 H 0.48783 0.27628 0.30584 0.0
H917 H 0.50691 0.30063 0.35534 0.0
H918 H 0.5016 0.33667 0.20114 0.0
H919 H 0.48291 0.31238 0.15122 0.0
H920 H 0.53828 0.33424 0.24135 0.0
H921 H 0.47556 0.34524 0.32106 0.0
H922 H 0.44613 0.33632 0.37306 0.0
H923 H 0.47802 0.32229 0.5295 0.0
H924 H 0.50774 0.3309 0.47805 0.0
H925 H 0.5515 0.42872 0.32883 0.0
H926 H 0.54319 0.39729 0.29244 0.0
H927 H 0.552 0.37406 0.46787 0.0
H928 H 0.55971 0.40565 0.505 0.0
H929 H 0.51783 0.36564 0.42766 0.0
H930 H 0.58029 0.3605 0.35094 0.0
H931 H 0.60911 0.3706 0.29777 0.0
H932 H 0.57767 0.37449 0.13485 0.0
H933 H 0.54859 0.36467 0.18714 0.0
C934 C 0.49069 0.28944 0.28275 0.0
C935 C 0.48377 0.29252 0.22493 0.0
C936 C 0.50154 0.30331 0.31101 0.0
C937 C 0.50564 0.32039 0.28174 0.0
C938 C 0.49862 0.32353 0.2243 0.0
C939 C 0.48774 0.30976 0.1962 0.0
C940 C 0.51723 0.33516 0.31056 0.0
C941 C 0.53384 0.34119 0.28201 0.0
C942 C 0.51169 0.34369 0.36458 0.0
C943 C 0.49388 0.33846 0.39548 0.0
C944 C 0.47632 0.34007 0.36635 0.0
C945 C 0.45959 0.33512 0.39576 0.0
C946 C 0.46023 0.32868 0.45448 0.0
C947 C 0.47759 0.32724 0.48398 0.0
C948 C 0.49437 0.33216 0.45474 0.0
C949 C 0.55203 0.41684 0.35934 0.0
C950 C 0.55608 0.41965 0.4198 0.0
C951 C 0.54746 0.39885 0.33842 0.0
C952 C 0.54704 0.38332 0.37746 0.0
C953 C 0.55228 0.38587 0.43704 0.0
C954 C 0.55683 0.40389 0.45805 0.0
C955 C 0.5387 0.36518 0.35761 0.0
C956 C 0.52263 0.35846 0.38781 0.0
C957 C 0.54472 0.35609 0.30494 0.0
C958 C 0.56222 0.36192 0.27311 0.0
C959 C 0.57949 0.36362 0.30385 0.0
C960 C 0.59588 0.36928 0.27384 0.0
C961 C 0.59522 0.37321 0.21299 0.0
C962 C 0.57817 0.37144 0.18199 0.0
C963 C 0.56173 0.36579 0.21178 0.0
H964 H 0.60793 0.37759 0.18985 0.0
H965 H 0.44726 0.32486 0.47719 0.0
H966 H 0.23503 0.49671 0.24319 0.0
H967 H 0.20783 0.51246 0.28801 0.0
H968 H 0.17301 0.46386 0.25027 0.0
H969 H 0.20038 0.44738 0.20836 0.0
H970 H 0.16288 0.50349 0.19809 0.0
H971 H 0.17826 0.46875 0.3796 0.0
H972 H 0.1996 0.4592 0.46117 0.0
H973 H 0.20645 0.51741 0.51158 0.0
H974 H 0.18536 0.52734 0.42976 0.0
H975 H 0.07325 0.52024 0.32063 0.0
H976 H 0.10367 0.50994 0.28172 0.0
H977 H 0.13224 0.54993 0.39561 0.0
H978 H 0.10183 0.55932 0.43804 0.0
H979 H 0.148 0.51792 0.40862 0.0
H980 H 0.13169 0.55378 0.23918 0.0
H981 H 0.11203 0.56604 0.15715 0.0
H982 H 0.10939 0.51046 0.08046 0.0
H983 H 0.12874 0.49775 0.1627 0.0
C984 C 0.22183 0.48898 0.2464 0.0
C985 C 0.21991 0.47077 0.22152 0.0
C986 C 0.20626 0.49813 0.27156 0.0
C987 C 0.1885 0.48934 0.27169 0.0
C988 C 0.18667 0.47085 0.25 0.0
C989 C 0.2023 0.46152 0.22584 0.0
C990 C 0.17153 0.5001 0.28918 0.0
C991 C 0.1594 0.50651 0.24409 0.0
C992 C 0.16777 0.5048 0.3489 0.0
C993 C 0.18045 0.4988 0.39801 0.0
C994 C 0.1845 0.47953 0.40762 0.0
C995 C 0.1965 0.47404 0.45402 0.0
C996 C 0.20446 0.4877 0.49128 0.0
C997 C 0.20033 0.50686 0.48252 0.0
C998 C 0.18835 0.51242 0.43618 0.0
C999 C 0.08599 0.52698 0.33707 0.0
C1000 C 0.08512 0.54038 0.38312 0.0
C1001 C 0.1034 0.52125 0.31415 0.0
C1002 C 0.1203 0.52919 0.33554 0.0
C1003 C 0.1194 0.54355 0.37856 0.0
C1004 C 0.10196 0.54907 0.40227 0.0
C1005 C 0.1388 0.52104 0.31754 0.0
C1006 C 0.15138 0.51515 0.3624 0.0
C1007 C 0.14322 0.51724 0.25732 0.0
C1008 C 0.13157 0.52478 0.20752 0.0
C1009 C 0.12679 0.54412 0.20514 0.0
C1010 C 0.11572 0.55116 0.15856 0.0
C1011 C 0.10943 0.53902 0.11375 0.0
C1012 C 0.11425 0.51983 0.1153 0.0
C1013 C 0.12529 0.51271 0.16188 0.0
H1014 H 0.10083 0.54452 0.07784 0.0
H1015 H 0.21382 0.48344 0.527 0.0
H1016 H 0.02941 0.78383 0.11949 0.0
H1017 H 0.03468 0.8138 0.06886 0.0
H1018 H 0.08849 0.81984 0.15758 0.0
H1019 H 0.08346 0.78945 0.20819 0.0
H1020 H 0.06652 0.85187 0.16572 0.0
H1021 H 0.08802 0.81095 0.01165 0.0
H1022 H 0.08681 0.78357 0.94387 0.0
H1023 H 0.03581 0.80528 0.86505 0.0
H1024 H 0.03655 0.83265 0.93292 0.0
H1025 H 0.08085 0.93594 0.98668 0.0
H1026 H 0.08492 0.90567 0.03861 0.0
H1027 H 0.03261 0.88547 0.96247 0.0
H1028 H 0.02887 0.91518 0.90879 0.0
H1029 H 0.06019 0.86042 0.94778 0.0
H1030 H 0.03661 0.89912 0.1091 0.0
H1031 H 0.03677 0.92585 0.17952 0.0
H1032 H 0.09093 0.90805 0.24616 0.0
H1033 H 0.09127 0.88142 0.17536 0.0
C1034 C 0.04264 0.79119 0.12711 0.0
C1035 C 0.05609 0.78413 0.16759 0.0
C1036 C 0.04557 0.80841 0.09831 0.0
C1037 C 0.06205 0.81895 0.1091 0.0
C1038 C 0.07569 0.81188 0.14868 0.0
C1039 C 0.07278 0.79455 0.17752 0.0
C1040 C 0.06428 0.8378 0.08113 0.0
C1041 C 0.06558 0.85378 0.11795 0.0
C1042 C 0.06273 0.84021 0.01894 0.0
C1043 C 0.0623 0.82382 0.97765 0.0
C1044 C 0.07648 0.80983 0.98013 0.0
C1045 C 0.07589 0.79431 0.94164 0.0
C1046 C 0.06123 0.79267 0.90023 0.0
C1047 C 0.04716 0.80657 0.89714 0.0
C1048 C 0.04768 0.8221 0.93555 0.0
C1049 C 0.07022 0.92504 0.9811 0.0
C1050 C 0.05453 0.92798 0.94355 0.0
C1051 C 0.07249 0.90782 0.01118 0.0
C1052 C 0.05904 0.89335 0.00444 0.0
C1053 C 0.04317 0.89645 0.9682 0.0
C1054 C 0.04094 0.91355 0.93804 0.0
C1055 C 0.06174 0.87454 0.03247 0.0
C1056 C 0.06146 0.85855 0.9955 0.0
C1057 C 0.06415 0.87217 0.0945 0.0
C1058 C 0.06409 0.88842 0.1363 0.0
C1059 C 0.04867 0.90104 0.13823 0.0
C1060 C 0.04865 0.91615 0.17833 0.0
C1061 C 0.06389 0.9187 0.21714 0.0
C1062 C 0.07917 0.90611 0.21596 0.0
C1063 C 0.07929 0.89101 0.17582 0.0
H1064 H 0.06383 0.93038 0.24824 0.0
H1065 H 0.0608 0.78065 0.87049 0.0
H1066 H 0.72619 0.02284 0.10795 0.0
H1067 H 0.6963 0.02593 0.05492 0.0
H1068 H 0.68931 0.08247 0.12388 0.0
H1069 H 0.71959 0.07968 0.1764 0.0
H1070 H 0.65809 0.0595 0.14246 0.0
H1071 H 0.69858 0.07667 0.97964 0.0
H1072 H 0.72557 0.07281 0.91112 0.0
H1073 H 0.70261 0.02004 0.84985 0.0
H1074 H 0.67562 0.02343 0.91863 0.0
H1075 H 0.57453 0.07612 0.96914 0.0
H1076 H 0.60536 0.07812 0.01838 0.0
H1077 H 0.62123 0.02423 0.943 0.0
H1078 H 0.59091 0.02254 0.89167 0.0
H1079 H 0.64837 0.04887 0.92678 0.0
H1080 H 0.6099 0.02941 0.09123 0.0
H1081 H 0.58377 0.03061 0.16385 0.0
H1082 H 0.60327 0.08472 0.22546 0.0
H1083 H 0.62936 0.08398 0.15255 0.0
C1084 C 0.71864 0.03617 0.11053 0.0
C1085 C 0.72534 0.05105 0.14631 0.0
C1086 C 0.70147 0.03786 0.08039 0.0
C1087 C 0.69067 0.05445 0.08532 0.0
C1088 C 0.69748 0.06954 0.11965 0.0
C1089 C 0.71474 0.0679 0.14966 0.0
C1090 C 0.67168 0.05541 0.05778 0.0
C1091 C 0.65592 0.0576 0.09509 0.0
C1092 C 0.66896 0.05225 -0.00363 0.0
C1093 C 0.68513 0.05025 0.95463 0.0
C1094 C 0.69935 0.06417 0.95188 0.0
C1095 C 0.71464 0.06208 0.91293 0.0
C1096 C 0.71582 0.04618 0.87623 0.0
C1097 C 0.70169 0.03235 0.87831 0.0
C1098 C 0.68637 0.03436 0.91721 0.0
C1099 C 0.58459 0.0647 0.96308 0.0
C1100 C 0.58023 0.04917 0.92645 0.0
C1101 C 0.60213 0.06578 0.99172 0.0
C1102 C 0.61556 0.05127 0.98461 0.0
C1103 C 0.61108 0.03558 0.94911 0.0
C1104 C 0.59363 0.03454 0.9203 0.0
C1105 C 0.63465 0.05277 0.01152 0.0
C1106 C 0.65047 0.05102 0.97406 0.0
C1107 C 0.63741 0.05606 0.07296 0.0
C1108 C 0.62143 0.05676 0.11577 0.0
C1109 C 0.60848 0.04168 0.1197 0.0
C1110 C 0.59371 0.04225 0.16107 0.0
C1111 C 0.59182 0.05776 0.19909 0.0
C1112 C 0.60471 0.07273 0.19587 0.0
C1113 C 0.61949 0.07225 0.15452 0.0
H1114 H 0.5804 0.05816 0.23116 0.0
H1115 H 0.72767 0.04458 0.84612 0.0
H1116 H 0.45459 0.73395 0.08452 0.0
H1117 H 0.44997 0.70326 0.03767 0.0
H1118 H 0.43347 0.67928 0.20651 0.0
H1119 H 0.43943 0.70961 0.25454 0.0
H1120 H 0.45769 0.65737 0.1583 0.0
H1121 H 0.40118 0.68607 0.08757 0.0
H1122 H 0.38111 0.71069 0.04181 0.0
H1123 H 0.41154 0.70502 0.87756 0.0
H1124 H 0.43198 0.68055 0.92254 0.0
H1125 H 0.44 0.56955 0.00595 0.0
H1126 H 0.43462 0.59849 0.06386 0.0
H1127 H 0.45863 0.63185 0.92183 0.0
H1128 H 0.4637 0.60317 0.86352 0.0
H1129 H 0.4256 0.64707 0.96495 0.0
H1130 H 0.48421 0.62074 0.04338 0.0
H1131 H 0.50386 0.59623 0.09157 0.0
H1132 H 0.46767 0.59734 0.24495 0.0
H1133 H 0.44765 0.62168 0.19728 0.0
C1134 C 0.44992 0.72218 0.11173 0.0
C1135 C 0.44749 0.72428 0.17338 0.0
C1136 C 0.447 0.70466 0.08468 0.0
C1137 C 0.44113 0.68896 0.11839 0.0
C1138 C 0.43794 0.69119 0.17954 0.0
C1139 C 0.44114 0.70865 0.20682 0.0
C1140 C 0.44 0.66993 0.09065 0.0
C1141 C 0.45028 0.65503 0.11671 0.0
C1142 C 0.43053 0.66687 0.03604 0.0
C1143 C 0.41819 0.68153 0.0086 0.0
C1144 C 0.40368 0.69015 0.0418 0.0
C1145 C 0.39222 0.70407 0.01598 0.0
C1146 C 0.39507 0.70944 0.95684 0.0
C1147 C 0.40935 0.70085 0.92336 0.0
C1148 C 0.42086 0.68693 0.94898 0.0
C1149 C 0.44402 0.58309 0.98706 0.0
C1150 C 0.45238 0.58411 0.9304 0.0
C1151 C 0.44103 0.59956 0.02025 0.0
C1152 C 0.44633 0.61727 -0.00282 0.0
C1153 C 0.45446 0.61831 0.9404 0.0
C1154 C 0.45751 0.6019 0.9074 0.0
C1155 C 0.44366 0.63484 0.03192 0.0
C1156 C 0.43266 0.64941 0.00714 0.0
C1157 C 0.45228 0.63754 0.08799 0.0
C1158 C 0.46427 0.62281 0.11637 0.0
C1159 C 0.48032 0.6156 0.08709 0.0
C1160 C 0.49155 0.60178 0.11438 0.0
C1161 C 0.48697 0.59517 0.17117 0.0
C1162 C 0.47116 0.60241 0.20085 0.0
C1163 C 0.45987 0.61622 0.17372 0.0
H1164 H 0.4957 0.58449 0.19226 0.0
H1165 H 0.38619 0.72022 0.93694 0.0
H1166 H 0.77556 0.45624 0.09028 0.0
H1167 H 0.80623 0.45113 0.04361 0.0
H1168 H 0.83008 0.43538 0.21332 0.0
H1169 H 0.79976 0.44181 0.26108 0.0
H1170 H 0.85198 0.45941 0.16398 0.0
H1171 H 0.82354 0.40258 0.09595 0.0
H1172 H 0.79904 0.38224 0.05117 0.0
H1173 H 0.8047 0.41193 0.88541 0.0
H1174 H 0.82905 0.43264 0.92938 0.0
H1175 H 0.93994 0.44165 0.01229 0.0
H1176 H 0.91102 0.43627 0.07037 0.0
H1177 H 0.87754 0.45959 0.9274 0.0
H1178 H 0.90623 0.46464 0.86891 0.0
H1179 H 0.86251 0.42663 0.972 0.0
H1180 H 0.88833 0.48572 0.04788 0.0
H1181 H 0.91272 0.50567 0.09501 0.0
H1182 H 0.91209 0.4699 0.2496 0.0
H1183 H 0.88786 0.44959 0.20302 0.0
C1184 C 0.78729 0.45161 0.11771 0.0
C1185 C 0.78517 0.44956 0.17951 0.0
C1186 C 0.8048 0.44841 0.09078 0.0
C1187 C 0.82047 0.44265 0.1248 0.0
C1188 C 0.8182 0.43977 0.18612 0.0
C1189 C 0.80075 0.44324 0.21326 0.0
C1190 C 0.83953 0.44141 0.09716 0.0
C1191 C 0.85437 0.45184 0.12272 0.0
C1192 C 0.84266 0.43174 0.04296 0.0
C1193 C 0.82807 0.41924 0.01613 0.0
C1194 C 0.81949 0.40486 0.05005 0.0
C1195 C 0.80563 0.39325 0.02479 0.0
C1196 C 0.8003 0.3958 0.96551 0.0
C1197 C 0.80885 0.40996 0.93132 0.0
C1198 C 0.8227 0.42162 0.95637 0.0
C1199 C 0.92639 0.44552 0.99323 0.0
C1200 C 0.92534 0.45369 0.93625 0.0
C1201 C 0.90992 0.44253 0.02651 0.0
C1202 C 0.89218 0.44763 0.00322 0.0
C1203 C 0.89111 0.45556 0.94613 0.0
C1204 C 0.90752 0.45862 0.91304 0.0
C1205 C 0.87461 0.44499 0.03813 0.0
C1206 C 0.86011 0.43384 0.01389 0.0
C1207 C 0.87185 0.45381 0.09384 0.0
C1208 C 0.8865 0.46598 0.12159 0.0
C1209 C 0.89354 0.48199 0.09165 0.0
C1210 C 0.9073 0.49339 0.11833 0.0
C1211 C 0.91401 0.48901 0.17515 0.0
C1212 C 0.90694 0.47324 0.20548 0.0
C1213 C 0.89319 0.46178 0.17897 0.0
H1214 H 0.92465 0.49787 0.19576 0.0
H1215 H 0.78957 0.3868 0.94605 0.0
H1216 H 0.9933 0.21664 0.88584 0.0
H1217 H 0.98935 0.18406 0.8505 0.0
H1218 H 0.05004 0.17777 0.83999 0.0
H1219 H 0.05405 0.21023 0.8745 0.0
H1220 H 0.03539 0.16123 0.74846 0.0
H1221 H 0.02324 0.15918 0.95661 0.0
H1222 H 0.00812 0.16832 0.05097 0.0
H1223 H 0.95394 0.15108 0.98339 0.0
H1224 H 0.96871 0.14212 0.88803 0.0
H1225 H 0.03932 0.06046 0.74105 0.0
H1226 H 0.0419 0.09305 0.77745 0.0
H1227 H 0.9817 0.10056 0.75553 0.0
H1228 H 0.97896 0.06805 0.7192 0.0
H1229 H 0.99564 0.11616 0.86308 0.0
H1230 H 0.01035 0.1171 0.65349 0.0
H1231 H 0.028 0.10395 0.56877 0.0
H1232 H 0.08047 0.12165 0.64766 0.0
H1233 H 0.06311 0.13434 0.73415 0.0
C1234 C 0.0058 0.20834 0.87582 0.0
C1235 C 0.02399 0.21619 0.88285 0.0
C1236 C 0.00354 0.18965 0.85572 0.0
C1237 C 0.01941 0.17822 0.84312 0.0
C1238 C 0.03754 0.18619 0.84902 0.0
C1239 C 0.0398 0.20487 0.86862 0.0
C1240 C 0.01725 0.15791 0.82495 0.0
C1241 C 0.0268 0.15142 0.77399 0.0
C1242 C 0.00601 0.1449 0.8577 0.0
C1243 C 0.99705 0.15018 0.91495 0.0
C1244 C 0.00808 0.15748 0.96168 0.0
C1245 C 0.99957 0.16261 0.01537 0.0
C1246 C 0.98008 0.16032 0.02313 0.0
C1247 C 0.96904 0.15287 0.97724 0.0
C1248 C 0.97747 0.14776 0.92335 0.0
C1249 C 0.02661 0.069 0.74408 0.0
C1250 C 0.00895 0.06159 0.7267 0.0
C1251 C 0.0281 0.08765 0.76502 0.0
C1252 C 0.012 0.09934 0.76906 0.0
C1253 C 0.99431 0.09184 0.75305 0.0
C1254 C 0.99281 0.07324 0.73184 0.0
C1255 C 0.01371 0.11965 0.78689 0.0
C1256 C 0.0041 0.1261 0.83761 0.0
C1257 C 0.02515 0.13254 0.75464 0.0
C1258 C 0.03545 0.12652 0.70048 0.0
C1259 C 0.02565 0.1182 0.65278 0.0
C1260 C 0.03561 0.11075 0.60457 0.0
C1261 C 0.05536 0.11191 0.60293 0.0
C1262 C 0.06518 0.12072 0.64915 0.0
C1263 C 0.05528 0.12802 0.69784 0.0
H1264 H 0.06305 0.10598 0.56583 0.0
H1265 H 0.97354 0.16427 0.06472 0.0
H1266 H 0.29263 0.99039 0.88716 0.0
H1267 H 0.32382 0.9867 0.84111 0.0
H1268 H 0.32957 0.04737 0.83036 0.0
H1269 H 0.29875 0.05126 0.87766 0.0
H1270 H 0.34275 0.02966 0.72875 0.0
H1271 H 0.35075 0.02422 0.94013 0.0
H1272 H 0.34386 0.01113 0.03949 0.0
H1273 H 0.36072 0.95581 0.98059 0.0
H1274 H 0.36744 0.96853 0.88048 0.0
H1275 H 0.44347 0.03824 0.70353 0.0
H1276 H 0.41029 0.04023 0.73547 0.0
H1277 H 0.40743 0.97931 0.74491 0.0
H1278 H 0.44042 0.97718 0.71281 0.0
H1279 H 0.39235 0.99606 0.84436 0.0
H1280 H 0.38617 1.00111 0.63475 0.0
H1281 H 0.39223 0.01352 0.53406 0.0
H1282 H 0.37106 0.06803 0.5861 0.0
H1283 H 0.36538 0.05615 0.6877 0.0
C1284 C 0.30047 1.00299 0.87509 0.0
C1285 C 0.29301 0.02114 0.8867 0.0
C1286 C 0.31832 1.00084 0.84847 0.0
C1287 C 0.32919 0.01676 0.83276 0.0
C1288 C 0.32148 0.03486 0.84187 0.0
C1289 C 0.3037 0.03703 0.86876 0.0
C1290 C 0.34894 0.01465 0.80974 0.0
C1291 C 0.35364 0.02247 0.75422 0.0
C1292 C 0.36311 0.00493 0.84236 0.0
C1293 C 0.35939 0.99729 0.90267 0.0
C1294 C 0.35286 0.00924 0.94825 0.0
C1295 C 0.349 1.0019 0.00468 0.0
C1296 C 0.35179 0.98265 0.01624 0.0
C1297 C 0.35853 0.97071 0.97148 0.0
C1298 C 0.36238 0.97798 0.91489 0.0
C1299 C 0.43578 0.02526 0.71229 0.0
C1300 C 0.44468 0.00756 0.70548 0.0
C1301 C 0.41676 0.02642 0.73031 0.0
C1302 C 0.40628 0.00991 0.7424 0.0
C1303 C 0.41517 0.99224 0.73591 0.0
C1304 C 0.43407 0.99107 0.71727 0.0
C1305 C 0.3862 0.01106 0.76316 0.0
C1306 C 0.38145 1.00314 0.81852 0.0
C1307 C 0.37197 0.02053 0.73006 0.0
C1308 C 0.37561 0.02781 0.66919 0.0
C1309 C 0.38307 0.01583 0.62505 0.0
C1310 C 0.38635 0.02274 0.56771 0.0
C1311 C 0.38203 0.04153 0.55371 0.0
C1312 C 0.37443 0.05347 0.59704 0.0
C1313 C 0.37119 0.04667 0.65455 0.0
H1314 H 0.38455 0.04684 0.50925 0.0
H1315 H 0.34875 0.977 0.05989 0.0
H1316 H 0.47072 0.29107 0.80899 0.0
H1317 H 0.47634 0.3228 0.76922 0.0
H1318 H 0.50469 0.33845 0.93163 0.0
H1319 H 0.49836 0.30708 0.97271 0.0
H1320 H 0.48244 0.36562 0.90317 0.0
H1321 H 0.52882 0.33082 0.79855 0.0
H1322 H 0.54238 0.3055 0.73635 0.0
H1323 H 0.50766 0.32312 0.58977 0.0
H1324 H 0.49356 0.34835 0.65138 0.0
H1325 H 0.52955 0.44093 0.69379 0.0
H1326 H 0.52732 0.40852 0.73129 0.0
H1327 H 0.46843 0.41749 0.77385 0.0
H1328 H 0.47064 0.4501 0.73746 0.0
H1329 H 0.50858 0.3782 0.70235 0.0
H1330 H 0.45641 0.39305 0.89711 0.0
H1331 H 0.44869 0.419 0.96639 0.0
H1332 H 0.50461 0.4419 0.94464 0.0
H1333 H 0.51273 0.41598 0.87586 0.0
C1334 C 0.47818 0.30122 0.83635 0.0
C1335 C 0.48407 0.29634 0.89426 0.0
C1336 C 0.48155 0.31939 0.81324 0.0
C1337 C 0.49106 0.33316 0.84711 0.0
C1338 C 0.49731 0.3282 0.90441 0.0
C1339 C 0.49388 0.31007 0.92763 0.0
C1340 C 0.49385 0.35289 0.82385 0.0
C1341 C 0.48813 0.36829 0.85917 0.0
C1342 C 0.50177 0.35664 0.76708 0.0
C1343 C 0.50997 0.34134 0.72989 0.0
C1344 C 0.5239 0.32917 0.75325 0.0
C1345 C 0.5317 0.31486 0.71805 0.0
C1346 C 0.52581 0.31267 0.6592 0.0
C1347 C 0.51213 0.32481 0.63541 0.0
C1348 C 0.50423 0.33912 0.67046 0.0
C1349 C 0.51607 0.43605 0.711 0.0
C1350 C 0.50029 0.44828 0.71277 0.0
C1351 C 0.51482 0.41742 0.73232 0.0
C1352 C 0.49777 0.41048 0.75616 0.0
C1353 C 0.48186 0.42252 0.75672 0.0
C1354 C 0.48312 0.44119 0.73557 0.0
C1355 C 0.49672 0.39081 0.78109 0.0
C1356 C 0.50278 0.37546 0.74616 0.0
C1357 C 0.48981 0.38712 0.83912 0.0
C1358 C 0.48508 0.40268 0.88082 0.0
C1359 C 0.46706 0.40359 0.90726 0.0
C1360 C 0.46262 0.4183 0.94641 0.0
C1361 C 0.47613 0.43212 0.95973 0.0
C1362 C 0.49413 0.43123 0.93409 0.0
C1363 C 0.49865 0.41655 0.89495 0.0
H1364 H 0.47265 0.4435 0.99003 0.0
H1365 H 0.5319 0.3016 0.63196 0.0
H1366 H 0.21018 0.45569 0.86507 0.0
H1367 H 0.1785 0.46009 0.82457 0.0
H1368 H 0.18182 0.51995 0.86059 0.0
H1369 H 0.21381 0.51571 0.90083 0.0
H1370 H 0.14861 0.50655 0.89655 0.0
H1371 H 0.184 0.50253 0.71671 0.0
H1372 H 0.20656 0.48935 0.64407 0.0
H1373 H 0.17328 0.43863 0.6316 0.0
H1374 H 0.15062 0.45141 0.70477 0.0
H1375 H 0.066 0.53027 0.72655 0.0
H1376 H 0.09868 0.52747 0.76171 0.0
H1377 H 0.09476 0.46663 0.75192 0.0
H1378 H 0.06187 0.4693 0.71745 0.0
H1379 H 0.12836 0.48157 0.70068 0.0
H1380 H 0.09316 0.48632 0.88286 0.0
H1381 H 0.07063 0.50053 0.95367 0.0
H1382 H 0.10393 0.55137 0.95888 0.0
H1383 H 0.12654 0.53756 0.88744 0.0
C1384 C 0.20445 0.46992 0.86324 0.0
C1385 C 0.21482 0.48537 0.88592 0.0
C1386 C 0.18619 0.47239 0.84014 0.0
C1387 C 0.1777 0.49039 0.83874 0.0
C1388 C 0.18798 0.5059 0.86107 0.0
C1389 C 0.20632 0.50343 0.88421 0.0
C1390 C 0.15787 0.4928 0.81622 0.0
C1391 C 0.14431 0.50136 0.85325 0.0
C1392 C 0.15199 0.48571 0.76021 0.0
C1393 C 0.16571 0.47786 0.71674 0.0
C1394 C 0.18158 0.48849 0.69893 0.0
C1395 C 0.19437 0.48111 0.65754 0.0
C1396 C 0.19139 0.46313 0.63339 0.0
C1397 C 0.17559 0.45253 0.65044 0.0
C1398 C 0.16276 0.45985 0.69183 0.0
C1399 C 0.07204 0.51627 0.73183 0.0
C1400 C 0.06123 0.5 0.71913 0.0
C1401 C 0.09075 0.5147 0.75221 0.0
C1402 C 0.09921 0.49684 0.75981 0.0
C1403 C 0.08856 0.48057 0.74648 0.0
C1404 C 0.06972 0.48211 0.72694 0.0
C1405 C 0.11919 0.4952 0.78112 0.0
C1406 C 0.13275 0.48679 0.74384 0.0
C1407 C 0.1251 0.50258 0.83663 0.0
C1408 C 0.11142 0.51099 0.87919 0.0
C1409 C 0.09557 0.50061 0.89858 0.0
C1410 C 0.08281 0.50858 0.93897 0.0
C1411 C 0.0858 0.52687 0.96058 0.0
C1412 C 0.1016 0.53722 0.94198 0.0
C1413 C 0.1144 0.52932 0.90158 0.0
H1414 H 0.07591 0.533 0.9919 0.0
H1415 H 0.2013 0.45743 0.60136 0.0
H1416 H 0.99278 0.78707 0.53155 0.0
H1417 H 0.99297 0.81921 0.57009 0.0
H1418 H 0.99466 0.84123 0.3912 0.0
H1419 H 0.99644 0.8092 0.35247 0.0
H1420 H 0.01744 0.86044 0.44978 0.0
H1421 H 0.95346 0.84246 0.49035 0.0
H1422 H 0.92751 0.8228 0.5301 0.0
H1423 H 0.94868 0.83056 0.7073 0.0
H1424 H 0.97491 0.85008 0.66851 0.0
H1425 H 0.99253 0.95537 0.52123 0.0
H1426 H 0.99135 0.9226 0.48717 0.0
H1427 H 0.00449 0.90313 0.66413 0.0
H1428 H 0.00581 0.93607 0.69883 0.0
H1429 H 0.97454 0.88291 0.60935 0.0
H1430 H 0.03807 0.90308 0.56185 0.0
H1431 H 0.06216 0.92384 0.51649 0.0
H1432 H 0.03893 0.91311 0.34344 0.0
H1433 H 0.01446 0.89255 0.38788 0.0
C1434 C 0.99336 0.79867 0.5001 0.0
C1435 C 0.9947 0.79521 0.4385 0.0
C1436 C 0.99313 0.8172 0.5224 0.0
C1437 C 0.99358 0.83289 0.48381 0.0
C1438 C 0.99431 0.8295 0.42229 0.0
C1439 C 0.995 0.811 0.4 0.0
C1440 C 0.99421 0.85278 0.50724 0.0
C1441 C 0.0078 0.86535 0.484 0.0
C1442 C 0.982 0.85932 0.55297 0.0
C1443 C 0.96626 0.84757 0.57644 0.0
C1444 C 0.95266 0.83986 0.53774 0.0
C1445 C 0.93789 0.82876 0.56011 0.0
C1446 C 0.93648 0.82539 0.62117 0.0
C1447 C 0.94981 0.83316 0.66 0.0
C1448 C 0.96462 0.84426 0.63786 0.0
C1449 C 0.99514 0.94418 0.55316 0.0
C1450 C 0.9993 0.94844 0.6129 0.0
C1451 C 0.99453 0.9254 0.53344 0.0
C1452 C 0.99798 0.91037 0.5729 0.0
C1453 C 1.00182 0.91449 0.63281 0.0
C1454 C 1.00262 0.93334 0.65254 0.0
C1455 C 0.99757 0.8904 0.55131 0.0
C1456 C 0.98409 0.87788 0.57503 0.0
C1457 C 0.00957 0.88402 0.50504 0.0
C1458 C 0.0243 0.89642 0.47832 0.0
C1459 C 0.03797 0.90529 0.5142 0.0
C1460 C 0.05172 0.917 0.48863 0.0
C1461 C 0.05204 0.91983 0.42714 0.0
C1462 C 0.03863 0.91093 0.39108 0.0
C1463 C 0.02483 0.89925 0.41644 0.0
H1464 H 0.06271 0.92889 0.40743 0.0
H1465 H 0.92503 0.8168 0.6384 0.0
H1466 H 0.70041 0.99457 0.34637 0.0
H1467 H 0.66805 0.99278 0.3822 0.0
H1468 H 0.68763 1.00074 0.56202 0.0
H1469 H 0.72023 1.00033 0.52748 0.0
H1470 H 0.66032 0.97885 0.56858 0.0
H1471 H 0.66754 0.03771 0.46338 0.0
H1472 H 0.67486 0.05863 0.37853 0.0
H1473 H 0.63149 0.03176 0.27488 0.0
H1474 H 0.62414 0.01042 0.35876 0.0
H1475 H 0.57043 0.00982 0.68222 0.0
H1476 H 0.60348 0.00909 0.64872 0.0
H1477 H 0.58542 0.9896 0.47632 0.0
H1478 H 0.55249 0.99032 0.50913 0.0
H1479 H 0.61156 0.01789 0.46737 0.0
H1480 H 0.60495 0.95911 0.57576 0.0
H1481 H 0.59722 0.9397 0.66372 0.0
H1482 H 0.63942 0.9691 0.76537 0.0
H1483 H 0.64722 0.98887 0.67818 0.0
C1484 C 0.69806 0.9954 0.3938 0.0
C1485 C 0.71331 0.99782 0.43362 0.0
C1486 C 0.67931 0.99481 0.41422 0.0
C1487 C 0.67512 0.99734 0.47479 0.0
C1488 C 0.69029 0.99902 0.51492 0.0
C1489 C 0.70907 0.99905 0.49478 0.0
C1490 C 0.65503 0.99833 0.49644 0.0
C1491 C 0.64981 0.98765 0.54675 0.0
C1492 C 0.64097 0.00952 0.46781 0.0
C1493 C 0.64543 0.02232 0.41722 0.0
C1494 C 0.65967 0.03615 0.42235 0.0
C1495 C 0.66382 0.04809 0.37442 0.0
C1496 C 0.65369 0.04648 0.32129 0.0
C1497 C 0.63936 0.03295 0.31601 0.0
C1498 C 0.6352 0.02092 0.36373 0.0
C1499 C 0.57348 0.00535 0.6372 0.0
C1500 C 0.55873 1.00004 0.59855 0.0
C1501 C 0.59242 0.00489 0.61815 0.0
C1502 C 0.597 0.99915 0.56004 0.0
C1503 C 0.58229 0.99406 0.52131 0.0
C1504 C 0.56342 0.99441 0.54035 0.0
C1505 C 0.61707 0.9985 0.53916 0.0
C1506 C 0.62221 0.00921 0.48907 0.0
C1507 C 0.6311 0.98759 0.56838 0.0
C1508 C 0.62654 0.97558 0.62061 0.0
C1509 C 0.61249 0.96152 0.61699 0.0
C1510 C 0.60811 0.95044 0.66668 0.0
C1511 C 0.61779 0.9532 0.72014 0.0
C1512 C 0.63191 0.967 0.72396 0.0
C1513 C 0.63633 0.97813 0.6744 0.0
H1514 H 0.61438 0.94461 0.75857 0.0
H1515 H 0.65692 0.05574 0.28425 0.0
H1516 H 0.5131 0.70417 0.35567 0.0
H1517 H 0.51559 0.67196 0.39279 0.0
H1518 H 0.50597 0.69182 0.57142 0.0
H1519 H 0.50551 0.72435 0.53562 0.0
H1520 H 0.52882 0.66468 0.57888 0.0
H1521 H 0.46971 0.67116 0.47298 0.0
H1522 H 0.44952 0.67867 0.38654 0.0
H1523 H 0.47804 0.63618 0.28359 0.0
H1524 H 0.49852 0.62853 0.36919 0.0
H1525 H 0.49903 0.57456 0.69452 0.0
H1526 H 0.49953 0.60766 0.66097 0.0
H1527 H 0.51794 0.58967 0.48726 0.0
H1528 H 0.51741 0.55677 0.52003 0.0
H1529 H 0.49006 0.61563 0.47871 0.0
H1530 H 0.54894 0.60936 0.58543 0.0
H1531 H 0.56882 0.60178 0.67241 0.0
H1532 H 0.53965 0.64389 0.77516 0.0
H1533 H 0.51941 0.65155 0.68896 0.0
C1534 C 0.51205 0.70193 0.40312 0.0
C1535 C 0.50883 0.71719 0.44224 0.0
C1536 C 0.51307 0.68327 0.42426 0.0
C1537 C 0.51024 0.67919 0.48482 0.0
C1538 C 0.50791 0.69441 0.52435 0.0
C1539 C 0.5074 0.71312 0.50349 0.0
C1540 C 0.50941 0.65917 0.50694 0.0
C1541 C 0.52009 0.65408 0.55733 0.0
C1542 C 0.49833 0.64503 0.47857 0.0
C1543 C 0.48576 0.64939 0.42738 0.0
C1544 C 0.47172 0.66346 0.43184 0.0
C1545 C 0.46022 0.66774 0.38299 0.0
C1546 C 0.46251 0.65792 0.32958 0.0
C1547 C 0.47626 0.64376 0.32498 0.0
C1548 C 0.48781 0.63943 0.37367 0.0
C1549 C 0.50323 0.57766 0.64923 0.0
C1550 C 0.50826 0.56293 0.61016 0.0
C1551 C 0.50356 0.59661 0.63012 0.0
C1552 C 0.5089 0.60122 0.57159 0.0
C1553 C 0.51376 0.58653 0.53255 0.0
C1554 C 0.51352 0.56766 0.55158 0.0
C1555 C 0.5094 0.62129 0.55047 0.0
C1556 C 0.49867 0.62633 0.50028 0.0
C1557 C 0.52029 0.63538 0.57923 0.0
C1558 C 0.53253 0.63089 0.63094 0.0
C1559 C 0.54667 0.6169 0.62671 0.0
C1560 C 0.55802 0.61261 0.67584 0.0
C1561 C 0.55547 0.62231 0.72933 0.0
C1562 C 0.54159 0.63637 0.73373 0.0
C1563 C 0.53019 0.6407 0.68474 0.0
H1564 H 0.56427 0.61896 0.76732 0.0
H1565 H 0.45363 0.66128 0.29178 0.0
H1566 H 0.80622 0.51673 0.3585 0.0
H1567 H 0.83844 0.51911 0.39545 0.0
H1568 H 0.81849 0.5101 0.57444 0.0
H1569 H 0.78596 0.50975 0.53875 0.0
H1570 H 0.84605 0.5326 0.58118 0.0
H1571 H 0.83866 0.4733 0.47721 0.0
H1572 H 0.83073 0.45306 0.39145 0.0
H1573 H 0.87336 0.4808 0.28677 0.0
H1574 H 0.88145 0.50131 0.37171 0.0
H1575 H 0.93543 0.50087 0.69722 0.0
H1576 H 0.90239 0.50229 0.66365 0.0
H1577 H 0.92099 0.51985 0.48953 0.0
H1578 H 0.95387 0.51838 0.52233 0.0
H1579 H 0.89437 0.49271 0.48158 0.0
H1580 H 0.90195 0.5515 0.58738 0.0
H1581 H 0.91009 0.57113 0.67428 0.0
H1582 H 0.86715 0.54322 0.7773 0.0
H1583 H 0.85893 0.52322 0.69124 0.0
C1584 C 0.80845 0.5158 0.40598 0.0
C1585 C 0.79316 0.51276 0.44522 0.0
C1586 C 0.82711 0.51676 0.42704 0.0
C1587 C 0.83116 0.51405 0.48767 0.0
C1588 C 0.81592 0.51194 0.52731 0.0
C1589 C 0.79721 0.51148 0.50652 0.0
C1590 C 0.8512 0.51296 0.50965 0.0
C1591 C 0.85649 0.52365 0.55974 0.0
C1592 C 0.86513 0.50156 0.48146 0.0
C1593 C 0.86054 0.48895 0.4307 0.0
C1594 C 0.8463 0.47512 0.43584 0.0
C1595 C 0.84179 0.46359 0.38738 0.0
C1596 C 0.85153 0.46565 0.33367 0.0
C1597 C 0.86585 0.4792 0.3284 0.0
C1598 C 0.87042 0.49076 0.37671 0.0
C1599 C 0.93249 0.50508 0.65183 0.0
C1600 C 0.94738 0.50957 0.61264 0.0
C1601 C 0.91357 0.50594 0.63272 0.0
C1602 C 0.90913 0.51132 0.57407 0.0
C1603 C 0.92399 0.51566 0.53492 0.0
C1604 C 0.94284 0.51488 0.55396 0.0
C1605 C 0.8891 0.51229 0.5529 0.0
C1606 C 0.88385 0.50158 0.503 0.0
C1607 C 0.87521 0.52353 0.5815 0.0
C1608 C 0.87995 0.53573 0.63302 0.0
C1609 C 0.89433 0.54946 0.62868 0.0
C1610 C 0.89895 0.56067 0.67777 0.0
C1611 C 0.88918 0.55839 0.73132 0.0
C1612 C 0.87473 0.54495 0.73582 0.0
C1613 C 0.87007 0.53369 0.68689 0.0
H1614 H 0.89279 0.56706 0.76929 0.0
H1615 H 0.84799 0.45675 0.29615 0.0
loop_
_geom_bond_atom_site_label_1
_geom_bond_atom_site_label_2
_geom_bond_distance
_geom_bond_site_symmetry_2
_ccdc_geom_bond_type
P0 O11 1.490 . S
P0 C14 1.812 . S
P0 C20 1.803 . S
P0 C26 1.819 . S
H1 C15 0.941 . S
H2 C16 0.939 . S
H3 C18 0.940 . S
H4 C19 0.940 . S
H5 C21 0.939 . S
H6 C22 0.942 . S
H7 C24 0.940 . S
H8 C25 0.939 . S
H9 C27 0.941 . S
H10 C31 0.939 . S
O11 P0 1.490 . S
H12 C28 0.939 . S
H13 C30 0.940 . S
C14 P0 1.812 . S
C14 C15 1.389 . S
C14 C19 1.391 . S
C15 H1 0.941 . S
C15 C14 1.389 . S
C15 C16 1.397 . S
C16 H2 0.939 . S
C16 C15 1.397 . S
C16 C17 1.378 . S
C17 C16 1.378 . S
C17 C18 1.378 . S
C18 H3 0.940 . S
C18 C17 1.378 . S
C18 C19 1.396 . S
C19 H4 0.940 . S
C19 C14 1.391 . S
C19 C18 1.396 . S
C20 P0 1.803 . S
C20 C21 1.378 . S
C20 C25 1.400 . S
C21 H5 0.939 . S
C21 C20 1.378 . S
C21 C22 1.361 . S
C22 H6 0.942 . S
C22 C21 1.361 . S
C22 C23 1.369 . S
C23 C22 1.369 . S
C23 C24 1.404 . S
C24 H7 0.940 . S
C24 C23 1.404 . S
C24 C25 1.389 . S
C25 H8 0.939 . S
C25 C20 1.400 . S
C25 C24 1.389 . S
C26 P0 1.819 . S
C26 C27 1.391 . S
C26 C31 1.391 . S
C27 H9 0.941 . S
C27 C26 1.391 . S
C27 C28 1.396 . S
C28 H12 0.939 . S
C28 C27 1.396 . S
C28 C29 1.397 . S
C29 C28 1.397 . S
C29 C30 1.385 . S
C30 H13 0.940 . S
C30 C29 1.385 . S
C30 C31 1.388 . S
C31 H10 0.939 . S
C31 C26 1.391 . S
C31 C30 1.388 . S
P32 O43 1.490 . S
P32 C46 1.812 . S
P32 C52 1.803 . S
P32 C58 1.819 . S
H33 C47 0.941 . S
H34 C48 0.939 . S
H35 C50 0.940 . S
H36 C51 0.950 . S
H37 C53 0.939 . S
H38 C54 0.942 . S
H39 C56 0.940 . S
H40 C57 0.959 . S
H41 C59 0.941 . S
H42 C63 0.929 1_655 S
O43 P32 1.490 . S
H44 C60 0.939 . S
H45 C62 0.940 . S
C46 P32 1.812 . S
C46 C47 1.389 . S
C46 C51 1.375 1_455 S
C47 H33 0.941 . S
C47 C46 1.389 . S
C47 C48 1.397 . S
C48 H34 0.939 . S
C48 C47 1.397 . S
C48 C49 1.378 . S
C49 C48 1.378 . S
C49 C50 1.378 1_455 S
C50 H35 0.940 . S
C50 C49 1.378 1_655 S
C50 C51 1.403 . S
C51 H36 0.950 . S
C51 C46 1.375 1_655 S
C51 C50 1.403 . S
C52 P32 1.803 . S
C52 C53 1.378 . S
C52 C57 1.368 1_455 S
C53 H37 0.939 . S
C53 C52 1.378 . S
C53 C54 1.361 . S
C54 H38 0.942 . S
C54 C53 1.361 . S
C54 C55 1.369 . S
C55 C54 1.369 . S
C55 C56 1.404 1_455 S
C56 H39 0.940 . S
C56 C55 1.404 1_655 S
C56 C57 1.402 . S
C57 H40 0.959 . S
C57 C52 1.368 1_655 S
C57 C56 1.402 . S
C58 P32 1.819 . S
C58 C59 1.391 . S
C58 C63 1.391 . S
C59 H41 0.941 . S
C59 C58 1.391 . S
C59 C60 1.396 . S
C60 H44 0.939 . S
C60 C59 1.396 . S
C60 C61 1.397 . S
C61 C60 1.397 . S
C61 C62 1.385 1_455 S
C62 H45 0.940 . S
C62 C61 1.385 1_655 S
C62 C63 1.388 1_655 S
C63 H42 0.929 1_455 S
C63 C58 1.391 . S
C63 C62 1.388 1_455 S
P64 O75 1.490 . S
P64 C78 1.812 . S
P64 C84 1.803 . S
P64 C90 1.819 . S
H65 C79 0.941 . S
H66 C80 0.939 . S
H67 C82 0.940 . S
H68 C83 0.950 . S
H69 C85 0.939 . S
H70 C86 0.942 . S
H71 C88 0.940 . S
H72 C89 0.959 . S
H73 C91 0.941 . S
H74 C95 0.929 1_565 S
O75 P64 1.490 . S
H76 C92 0.939 . S
H77 C94 0.940 . S
C78 P64 1.812 . S
C78 C79 1.389 . S
C78 C83 1.375 1_545 S
C79 H65 0.941 . S
C79 C78 1.389 . S
C79 C80 1.397 . S
C80 H66 0.939 . S
C80 C79 1.397 . S
C80 C81 1.378 . S
C81 C80 1.378 . S
C81 C82 1.378 1_545 S
C82 H67 0.940 . S
C82 C81 1.378 1_565 S
C82 C83 1.403 . S
C83 H68 0.950 . S
C83 C78 1.375 1_565 S
C83 C82 1.403 . S
C84 P64 1.803 . S
C84 C85 1.378 . S
C84 C89 1.368 1_545 S
C85 H69 0.939 . S
C85 C84 1.378 . S
C85 C86 1.361 . S
C86 H70 0.942 . S
C86 C85 1.361 . S
C86 C87 1.369 . S
C87 C86 1.369 . S
C87 C88 1.404 1_545 S
C88 H71 0.940 . S
C88 C87 1.404 1_565 S
C88 C89 1.402 . S
C89 H72 0.959 . S
C89 C84 1.368 1_565 S
C89 C88 1.402 . S
C90 P64 1.819 . S
C90 C91 1.391 . S
C90 C95 1.391 . S
C91 H73 0.941 . S
C91 C90 1.391 . S
C91 C92 1.396 . S
C92 H76 0.939 . S
C92 C91 1.396 . S
C92 C93 1.397 . S
C93 C92 1.397 . S
C93 C94 1.385 1_545 S
C94 H77 0.940 . S
C94 C93 1.385 1_565 S
C94 C95 1.388 1_565 S
C95 H74 0.929 1_545 S
C95 C90 1.391 . S
C95 C94 1.388 1_545 S
P96 O107 1.490 . S
P96 C110 1.812 . S
P96 C116 1.803 . S
P96 C122 1.819 . S
H97 C111 0.941 . S
H98 C112 0.939 . S
H99 C114 0.940 . S
H100 C115 0.940 . S
H101 C117 0.939 . S
H102 C118 0.942 . S
H103 C120 0.940 . S
H104 C121 0.939 . S
H105 C123 0.941 . S
H106 C127 0.939 . S
O107 P96 1.490 . S
H108 C124 0.939 . S
H109 C126 0.940 . S
C110 P96 1.812 . S
C110 C111 1.389 . S
C110 C115 1.391 . S
C111 H97 0.941 . S
C111 C110 1.389 . S
C111 C112 1.397 . S
C112 H98 0.939 . S
C112 C111 1.397 . S
C112 C113 1.378 . S
C113 C112 1.378 . S
C113 C114 1.378 . S
C114 H99 0.940 . S
C114 C113 1.378 . S
C114 C115 1.396 . S
C115 H100 0.940 . S
C115 C110 1.391 . S
C115 C114 1.396 . S
C116 P96 1.803 . S
C116 C117 1.378 . S
C116 C121 1.400 . S
C117 H101 0.939 . S
C117 C116 1.378 . S
C117 C118 1.361 . S
C118 H102 0.942 . S
C118 C117 1.361 . S
C118 C119 1.369 . S
C119 C118 1.369 . S
C119 C120 1.404 . S
C120 H103 0.940 . S
C120 C119 1.404 . S
C120 C121 1.389 . S
C121 H104 0.939 . S
C121 C116 1.400 . S
C121 C120 1.389 . S
C122 P96 1.819 . S
C122 C123 1.391 . S
C122 C127 1.391 . S
C123 H105 0.941 . S
C123 C122 1.391 . S
C123 C124 1.396 . S
C124 H108 0.939 . S
C124 C123 1.396 . S
C124 C125 1.397 . S
C125 C124 1.397 . S
C125 C126 1.385 . S
C126 H109 0.940 . S
C126 C125 1.385 . S
C126 C127 1.388 . S
C127 H106 0.939 . S
C127 C122 1.391 . S
C127 C126 1.388 . S
P128 O139 1.490 . S
P128 C142 1.812 1_554 S
P128 C148 1.803 . S
P128 C154 1.819 . S
H129 C143 0.941 . S
H130 C144 0.939 . S
H131 C146 0.940 . S
H132 C147 0.940 1_554 S
H133 C149 0.939 . S
H134 C150 0.942 . S
H135 C152 0.940 . S
H136 C153 0.939 . S
H137 C155 0.941 . S
H138 C159 0.939 . S
O139 P128 1.490 . S
H140 C156 0.939 . S
H141 C158 0.940 . S
C142 P128 1.812 1_556 S
C142 C143 1.389 . S
C142 C147 1.391 . S
C143 H129 0.941 . S
C143 C142 1.389 . S
C143 C144 1.397 . S
C144 H130 0.939 . S
C144 C143 1.397 . S
C144 C145 1.378 . S
C145 C144 1.378 . S
C145 C146 1.378 . S
C146 H131 0.940 . S
C146 C145 1.378 . S
C146 C147 1.396 . S
C147 H132 0.940 1_556 S
C147 C142 1.391 . S
C147 C146 1.396 . S
C148 P128 1.803 . S
C148 C149 1.378 . S
C148 C153 1.400 . S
C149 H133 0.939 . S
C149 C148 1.378 . S
C149 C150 1.361 . S
C150 H134 0.942 . S
C150 C149 1.361 . S
C150 C151 1.369 . S
C151 C150 1.369 . S
C151 C152 1.404 . S
C152 H135 0.940 . S
C152 C151 1.404 . S
C152 C153 1.389 . S
C153 H136 0.939 . S
C153 C148 1.400 . S
C153 C152 1.389 . S
C154 P128 1.819 . S
C154 C155 1.391 . S
C154 C159 1.391 . S
C155 H137 0.941 . S
C155 C154 1.391 . S
C155 C156 1.396 . S
C156 H140 0.939 . S
C156 C155 1.396 . S
C156 C157 1.397 . S
C157 C156 1.397 . S
C157 C158 1.385 . S
C158 H141 0.940 . S
C158 C157 1.385 . S
C158 C159 1.388 . S
C159 H138 0.939 . S
C159 C154 1.391 . S
C159 C158 1.388 . S
P160 O171 1.490 . S
P160 C174 1.812 1_554 S
P160 C180 1.803 . S
P160 C186 1.819 . S
H161 C175 0.941 . S
H162 C176 0.939 . S
H163 C178 0.940 . S
H164 C179 0.942 1_554 S
H165 C181 0.939 . S
H166 C182 0.942 . S
H167 C184 0.940 . S
H168 C185 0.951 . S
H169 C187 0.941 . S
H170 C191 0.934 1_655 S
O171 P160 1.490 . S
H172 C188 0.939 . S
H173 C190 0.940 . S
C174 P160 1.812 1_556 S
C174 C175 1.389 . S
C174 C179 1.388 1_455 S
C175 H161 0.941 . S
C175 C174 1.389 . S
C175 C176 1.397 . S
C176 H162 0.939 . S
C176 C175 1.397 . S
C176 C177 1.378 . S
C177 C176 1.378 . S
C177 C178 1.378 1_455 S
C178 H163 0.940 . S
C178 C177 1.378 1_655 S
C178 C179 1.398 . S
C179 H164 0.942 1_556 S
C179 C174 1.388 1_655 S
C179 C178 1.398 . S
C180 P160 1.803 . S
C180 C181 1.378 . S
C180 C185 1.381 1_455 S
C181 H165 0.939 . S
C181 C180 1.378 . S
C181 C182 1.361 . S
C182 H166 0.942 . S
C182 C181 1.361 . S
C182 C183 1.369 . S
C183 C182 1.369 . S
C183 C184 1.404 1_455 S
C184 H167 0.940 . S
C184 C183 1.404 1_655 S
C184 C185 1.396 . S
C185 H168 0.951 . S
C185 C180 1.381 1_655 S
C185 C184 1.396 . S
C186 P160 1.819 . S
C186 C187 1.391 . S
C186 C191 1.391 . S
C187 H169 0.941 . S
C187 C186 1.391 . S
C187 C188 1.396 . S
C188 H172 0.939 . S
C188 C187 1.396 . S
C188 C189 1.397 . S
C189 C188 1.397 . S
C189 C190 1.385 1_455 S
C190 H173 0.940 . S
C190 C189 1.385 1_655 S
C190 C191 1.388 1_655 S
C191 H170 0.934 1_455 S
C191 C186 1.391 . S
C191 C190 1.388 1_455 S
P192 O203 1.490 . S
P192 C206 1.812 1_554 S
P192 C212 1.803 . S
P192 C218 1.819 . S
H193 C207 0.941 . S
H194 C208 0.939 . S
H195 C210 0.940 . S
H196 C211 0.942 1_554 S
H197 C213 0.939 . S
H198 C214 0.942 . S
H199 C216 0.940 . S
H200 C217 0.951 . S
H201 C219 0.941 . S
H202 C223 0.934 1_565 S
O203 P192 1.490 . S
H204 C220 0.939 . S
H205 C222 0.940 . S
C206 P192 1.812 1_556 S
C206 C207 1.389 . S
C206 C211 1.388 1_545 S
C207 H193 0.941 . S
C207 C206 1.389 . S
C207 C208 1.397 . S
C208 H194 0.939 . S
C208 C207 1.397 . S
C208 C209 1.378 . S
C209 C208 1.378 . S
C209 C210 1.378 1_545 S
C210 H195 0.940 . S
C210 C209 1.378 1_565 S
C210 C211 1.398 . S
C211 H196 0.942 1_556 S
C211 C206 1.388 1_565 S
C211 C210 1.398 . S
C212 P192 1.803 . S
C212 C213 1.378 . S
C212 C217 1.381 1_545 S
C213 H197 0.939 . S
C213 C212 1.378 . S
C213 C214 1.361 . S
C214 H198 0.942 . S
C214 C213 1.361 . S
C214 C215 1.369 . S
C215 C214 1.369 . S
C215 C216 1.404 1_545 S
C216 H199 0.940 . S
C216 C215 1.404 1_565 S
C216 C217 1.396 . S
C217 H200 0.951 . S
C217 C212 1.381 1_565 S
C217 C216 1.396 . S
C218 P192 1.819 . S
C218 C219 1.391 . S
C218 C223 1.391 . S
C219 H201 0.941 . S
C219 C218 1.391 . S
C219 C220 1.396 . S
C220 H204 0.939 . S
C220 C219 1.396 . S
C220 C221 1.397 . S
C221 C220 1.397 . S
C221 C222 1.385 1_545 S
C222 H205 0.940 . S
C222 C221 1.385 1_565 S
C222 C223 1.388 1_565 S
C223 H202 0.934 1_545 S
C223 C218 1.391 . S
C223 C222 1.388 1_545 S
P224 O235 1.490 . S
P224 C238 1.812 1_554 S
P224 C244 1.803 . S
P224 C250 1.819 . S
H225 C239 0.941 . S
H226 C240 0.939 . S
H227 C242 0.940 . S
H228 C243 0.940 1_554 S
H229 C245 0.939 . S
H230 C246 0.942 . S
H231 C248 0.940 . S
H232 C249 0.939 . S
H233 C251 0.941 . S
H234 C255 0.939 . S
O235 P224 1.490 . S
H236 C252 0.939 . S
H237 C254 0.940 . S
C238 P224 1.812 1_556 S
C238 C239 1.389 . S
C238 C243 1.391 . S
C239 H225 0.941 . S
C239 C238 1.389 . S
C239 C240 1.397 . S
C240 H226 0.939 . S
C240 C239 1.397 . S
C240 C241 1.378 . S
C241 C240 1.378 . S
C241 C242 1.378 . S
C242 H227 0.940 . S
C242 C241 1.378 . S
C242 C243 1.396 . S
C243 H228 0.940 1_556 S
C243 C238 1.391 . S
C243 C242 1.396 . S
C244 P224 1.803 . S
C244 C245 1.378 . S
C244 C249 1.400 . S
C245 H229 0.939 . S
C245 C244 1.378 . S
C245 C246 1.361 . S
C246 H230 0.942 . S
C246 C245 1.361 . S
C246 C247 1.369 . S
C247 C246 1.369 . S
C247 C248 1.404 . S
C248 H231 0.940 . S
C248 C247 1.404 . S
C248 C249 1.389 . S
C249 H232 0.939 . S
C249 C244 1.400 . S
C249 C248 1.389 . S
C250 P224 1.819 . S
C250 C251 1.391 . S
C250 C255 1.391 . S
C251 H233 0.941 . S
C251 C250 1.391 . S
C251 C252 1.396 . S
C252 H236 0.939 . S
C252 C251 1.396 . S
C252 C253 1.397 . S
C253 C252 1.397 . S
C253 C254 1.385 . S
C254 H237 0.940 . S
C254 C253 1.385 . S
C254 C255 1.388 . S
C255 H234 0.939 . S
C255 C250 1.391 . S
C255 C254 1.388 . S
Tb256 C266 2.825 . S
Tb256 O267 2.347 1_455 S
Tb256 O270 2.366 . S
Tb256 O275 2.418 . S
Tb256 O276 2.384 1_565 S
Tb256 O279 2.479 . S
Tb256 O280 2.471 . S
Eu257 O268 2.418 . S
Eu257 O269 2.384 1_545 S
Eu257 O272 2.479 . S
Eu257 O273 2.471 . S
Eu257 O274 2.347 1_655 S
Eu257 O277 2.366 . S
Eu257 C287 2.825 . S
C258 O274 1.259 1_565 S
C258 O275 1.265 . S
C259 O276 1.255 . S
C259 O277 1.265 1_455 S
C260 C262 1.380 . S
C260 C263 1.374 . S
C260 C266 1.507 . S
C261 C262 1.384 . S
C261 C265 1.387 . S
C261 H288 0.930 . S
C262 C260 1.380 . S
C262 C261 1.384 . S
C262 H289 0.931 . S
C263 C260 1.374 . S
C263 C264 1.390 . S
C263 H290 0.930 1_455 S
C264 C263 1.390 . S
C264 C265 1.391 . S
C264 H291 0.930 1_455 S
C265 C261 1.387 . S
C265 C264 1.391 . S
C266 Tb256 2.825 . S
C266 C260 1.507 . S
C266 O279 1.238 . S
C266 O280 1.247 . S
O267 Tb256 2.347 1_655 S
O267 C271 1.259 1_565 S
O268 Eu257 2.418 . S
O268 C271 1.265 . S
O269 Eu257 2.384 1_565 S
O269 C278 1.255 . S
O270 Tb256 2.366 . S
O270 C278 1.265 1_455 S
C271 O267 1.259 1_545 S
C271 O268 1.265 . S
O272 Eu257 2.479 . S
O272 C287 1.238 . S
O273 Eu257 2.471 . S
O273 C287 1.247 . S
O274 Eu257 2.347 1_455 S
O274 C258 1.259 1_545 S
O275 Tb256 2.418 . S
O275 C258 1.265 . S
O276 Tb256 2.384 1_545 S
O276 C259 1.255 . S
O277 Eu257 2.366 . S
O277 C259 1.265 1_655 S
C278 O269 1.255 . S
C278 O270 1.265 1_655 S
O279 Tb256 2.479 . S
O279 C266 1.238 . S
O280 Tb256 2.471 . S
O280 C266 1.247 . S
C281 C284 1.380 . S
C281 C285 1.374 . S
C281 C287 1.507 . S
C282 C283 1.387 . S
C282 C286 1.391 . S
C283 C282 1.387 . S
C283 C284 1.384 . S
C283 H292 0.930 . S
C284 C281 1.380 . S
C284 C283 1.384 . S
C284 H293 0.931 . S
C285 C281 1.374 . S
C285 C286 1.390 . S
C285 H294 0.930 1_655 S
C286 C282 1.391 . S
C286 C285 1.390 . S
C286 H295 0.930 1_655 S
C287 Eu257 2.825 . S
C287 O272 1.238 . S
C287 O273 1.247 . S
C287 C281 1.507 . S
H288 C261 0.930 . S
H289 C262 0.931 . S
H290 C263 0.930 1_655 S
H291 C264 0.930 1_655 S
H292 C283 0.930 . S
H293 C284 0.931 . S
H294 C285 0.930 1_455 S
H295 C286 0.930 1_455 S
Tb296 C306 2.825 . S
Tb296 O307 2.347 1_545 S
Tb296 O310 2.366 . S
Tb296 O315 2.418 . S
Tb296 O316 2.384 . S
Tb296 O319 2.479 . S
Tb296 O320 2.471 . S
Eu297 O308 2.418 . S
Eu297 O309 2.384 . S
Eu297 O312 2.479 . S
Eu297 O313 2.471 . S
Eu297 O314 2.347 1_565 S
Eu297 O317 2.366 . S
Eu297 C327 2.825 . S
C298 O314 1.259 . S
C298 O315 1.265 . S
C299 O316 1.255 . S
C299 O317 1.265 1_545 S
C300 C302 1.380 . S
C300 C303 1.374 . S
C300 C306 1.507 . S
C301 C302 1.384 . S
C301 C305 1.387 . S
C301 H328 0.930 . S
C302 C300 1.380 . S
C302 C301 1.384 . S
C302 H329 0.931 . S
C303 C300 1.374 . S
C303 C304 1.390 . S
C303 H330 0.930 1_545 S
C304 C303 1.390 . S
C304 C305 1.391 . S
C304 H331 0.930 1_545 S
C305 C301 1.387 . S
C305 C304 1.391 . S
C306 Tb296 2.825 . S
C306 C300 1.507 . S
C306 O319 1.238 . S
C306 O320 1.247 . S
O307 Tb296 2.347 1_565 S
O307 C311 1.259 . S
O308 Eu297 2.418 . S
O308 C311 1.265 . S
O309 Eu297 2.384 . S
O309 C318 1.255 . S
O310 Tb296 2.366 . S
O310 C318 1.265 1_545 S
C311 O307 1.259 . S
C311 O308 1.265 . S
O312 Eu297 2.479 . S
O312 C327 1.238 . S
O313 Eu297 2.471 . S
O313 C327 1.247 . S
O314 Eu297 2.347 1_545 S
O314 C298 1.259 . S
O315 Tb296 2.418 . S
O315 C298 1.265 . S
O316 Tb296 2.384 . S
O316 C299 1.255 . S
O317 Eu297 2.366 . S
O317 C299 1.265 1_565 S
C318 O309 1.255 . S
C318 O310 1.265 1_565 S
O319 Tb296 2.479 . S
O319 C306 1.238 . S
O320 Tb296 2.471 . S
O320 C306 1.247 . S
C321 C324 1.380 . S
C321 C325 1.374 . S
C321 C327 1.507 . S
C322 C323 1.387 . S
C322 C326 1.391 . S
C323 C322 1.387 . S
C323 C324 1.384 . S
C323 H332 0.930 . S
C324 C321 1.380 . S
C324 C323 1.384 . S
C324 H333 0.931 . S
C325 C321 1.374 . S
C325 C326 1.390 . S
C325 H334 0.930 1_565 S
C326 C322 1.391 . S
C326 C325 1.390 . S
C326 H335 0.930 1_565 S
C327 Eu297 2.825 . S
C327 O312 1.238 . S
C327 O313 1.247 . S
C327 C321 1.507 . S
H328 C301 0.930 . S
H329 C302 0.931 . S
H330 C303 0.930 1_565 S
H331 C304 0.930 1_565 S
H332 C323 0.930 . S
H333 C324 0.931 . S
H334 C325 0.930 1_545 S
H335 C326 0.930 1_545 S
Tb336 C346 2.825 . S
Tb336 O347 2.347 . S
Tb336 O350 2.366 . S
Tb336 O355 2.418 . S
Tb336 O356 2.384 . S
Tb336 O359 2.479 . S
Tb336 O360 2.471 . S
Eu337 O348 2.418 . S
Eu337 O349 2.384 . S
Eu337 O352 2.479 . S
Eu337 O353 2.471 . S
Eu337 O354 2.347 . S
Eu337 O357 2.366 . S
Eu337 C367 2.825 . S
C338 O354 1.259 . S
C338 O355 1.265 . S
C339 O356 1.255 . S
C339 O357 1.265 . S
C340 C342 1.380 . S
C340 C343 1.374 . S
C340 C346 1.507 . S
C341 C342 1.384 . S
C341 C345 1.387 . S
C341 H368 0.930 . S
C342 C340 1.380 . S
C342 C341 1.384 . S
C342 H369 0.931 . S
C343 C340 1.374 . S
C343 C344 1.390 . S
C343 H370 0.930 . S
C344 C343 1.390 . S
C344 C345 1.391 . S
C344 H371 0.930 . S
C345 C341 1.387 . S
C345 C344 1.391 . S
C346 Tb336 2.825 . S
C346 C340 1.507 . S
C346 O359 1.238 . S
C346 O360 1.247 . S
O347 Tb336 2.347 . S
O347 C351 1.259 . S
O348 Eu337 2.418 . S
O348 C351 1.265 . S
O349 Eu337 2.384 . S
O349 C358 1.255 . S
O350 Tb336 2.366 . S
O350 C358 1.265 . S
C351 O347 1.259 . S
C351 O348 1.265 . S
O352 Eu337 2.479 . S
O352 C367 1.238 . S
O353 Eu337 2.471 . S
O353 C367 1.247 . S
O354 Eu337 2.347 . S
O354 C338 1.259 . S
O355 Tb336 2.418 . S
O355 C338 1.265 . S
O356 Tb336 2.384 . S
O356 C339 1.255 . S
O357 Eu337 2.366 . S
O357 C339 1.265 . S
C358 O349 1.255 . S
C358 O350 1.265 . S
O359 Tb336 2.479 . S
O359 C346 1.238 . S
O360 Tb336 2.471 . S
O360 C346 1.247 . S
C361 C364 1.380 . S
C361 C365 1.374 . S
C361 C367 1.507 . S
C362 C363 1.387 . S
C362 C366 1.391 . S
C363 C362 1.387 . S
C363 C364 1.384 . S
C363 H372 0.930 . S
C364 C361 1.380 . S
C364 C363 1.384 . S
C364 H373 0.931 . S
C365 C361 1.374 . S
C365 C366 1.390 . S
C365 H374 0.930 . S
C366 C362 1.391 . S
C366 C365 1.390 . S
C366 H375 0.930 . S
C367 Eu337 2.825 . S
C367 O352 1.238 . S
C367 O353 1.247 . S
C367 C361 1.507 . S
H368 C341 0.930 . S
H369 C342 0.931 . S
H370 C343 0.930 . S
H371 C344 0.930 . S
H372 C363 0.930 . S
H373 C364 0.931 . S
H374 C365 0.930 . S
H375 C366 0.930 . S
Tb376 C386 2.825 . S
Tb376 O387 2.347 . S
Tb376 O390 2.366 . S
Tb376 O395 2.418 . S
Tb376 O396 2.384 1_655 S
Tb376 O399 2.479 . S
Tb376 O400 2.471 . S
Eu377 O388 2.418 . S
Eu377 O389 2.384 1_455 S
Eu377 O392 2.479 . S
Eu377 O393 2.471 . S
Eu377 O394 2.347 . S
Eu377 O397 2.366 . S
Eu377 C407 2.825 . S
C378 O394 1.259 1_655 S
C378 O395 1.265 . S
C379 O396 1.255 . S
C379 O397 1.265 . S
C380 C382 1.380 . S
C380 C383 1.374 . S
C380 C386 1.507 . S
C381 C382 1.384 . S
C381 C385 1.387 . S
C381 H408 0.930 . S
C382 C380 1.380 . S
C382 C381 1.384 . S
C382 H409 0.931 . S
C383 C380 1.374 . S
C383 C384 1.390 . S
C383 H410 0.930 . S
C384 C383 1.390 . S
C384 C385 1.391 . S
C384 H411 0.930 . S
C385 C381 1.387 . S
C385 C384 1.391 . S
C386 Tb376 2.825 . S
C386 C380 1.507 . S
C386 O399 1.238 . S
C386 O400 1.247 . S
O387 Tb376 2.347 . S
O387 C391 1.259 1_655 S
O388 Eu377 2.418 . S
O388 C391 1.265 . S
O389 Eu377 2.384 1_655 S
O389 C398 1.255 . S
O390 Tb376 2.366 . S
O390 C398 1.265 . S
C391 O387 1.259 1_455 S
C391 O388 1.265 . S
O392 Eu377 2.479 . S
O392 C407 1.238 . S
O393 Eu377 2.471 . S
O393 C407 1.247 . S
O394 Eu377 2.347 . S
O394 C378 1.259 1_455 S
O395 Tb376 2.418 . S
O395 C378 1.265 . S
O396 Tb376 2.384 1_455 S
O396 C379 1.255 . S
O397 Eu377 2.366 . S
O397 C379 1.265 . S
C398 O389 1.255 . S
C398 O390 1.265 . S
O399 Tb376 2.479 . S
O399 C386 1.238 . S
O400 Tb376 2.471 . S
O400 C386 1.247 . S
C401 C404 1.380 . S
C401 C405 1.374 . S
C401 C407 1.507 . S
C402 C403 1.387 . S
C402 C406 1.391 . S
C403 C402 1.387 . S
C403 C404 1.384 . S
C403 H412 0.930 . S
C404 C401 1.380 . S
C404 C403 1.384 . S
C404 H413 0.931 . S
C405 C401 1.374 . S
C405 C406 1.390 . S
C405 H414 0.930 . S
C406 C402 1.391 . S
C406 C405 1.390 . S
C406 H415 0.930 . S
C407 Eu377 2.825 . S
C407 O392 1.238 . S
C407 O393 1.247 . S
C407 C401 1.507 . S
H408 C381 0.930 . S
H409 C382 0.931 . S
H410 C383 0.930 . S
H411 C384 0.930 . S
H412 C403 0.930 . S
H413 C404 0.931 . S
H414 C405 0.930 . S
H415 C406 0.930 . S
H416 C434 0.951 . S
H417 C436 0.951 . S
H418 C438 0.950 . S
H419 C439 0.950 . S
H420 C441 0.950 . S
H421 C444 0.950 . S
H422 C445 0.950 . S
H423 C447 0.950 . S
H424 C448 0.950 . S
H425 C449 0.951 . S
H426 C451 0.951 . S
H427 C453 0.950 . S
H428 C454 0.950 . S
H429 C456 0.950 . S
H430 C459 0.950 . S
H431 C460 0.950 . S
H432 C462 0.950 . S
H433 C463 0.950 . S
C434 H416 0.951 . S
C434 C435 1.362 1_565 S
C434 C436 1.388 . S
C435 C434 1.362 1_545 S
C435 C439 1.388 . S
C436 H417 0.951 . S
C436 C434 1.388 . S
C436 C437 1.379 . S
C437 C436 1.379 . S
C437 C438 1.401 1_565 S
C437 C440 1.498 . S
C438 H418 0.950 . S
C438 C437 1.401 1_545 S
C438 C439 1.374 . S
C439 H419 0.950 . S
C439 C435 1.388 . S
C439 C438 1.374 . S
C440 C437 1.498 . S
C440 C441 1.378 1_565 S
C440 C442 1.385 . S
C441 H420 0.950 . S
C441 C440 1.378 1_545 S
C441 C457 1.377 . S
C442 C440 1.385 . S
C442 C443 1.524 . S
C442 C456 1.377 . S
C443 C442 1.524 . S
C443 C444 1.397 . S
C443 C448 1.363 . S
C444 H421 0.950 . S
C444 C443 1.397 . S
C444 C445 1.334 . S
C445 H422 0.950 . S
C445 C444 1.334 . S
C445 C446 1.287 . S
C446 C445 1.287 . S
C446 C447 1.524 . S
C446 H465 0.913 . S
C447 H423 0.950 . S
C447 C446 1.524 . S
C447 C448 1.415 . S
C448 H424 0.950 . S
C448 C443 1.363 . S
C448 C447 1.415 . S
C449 H425 0.951 . S
C449 C450 1.390 . S
C449 C451 1.388 . S
C450 C449 1.390 . S
C450 C454 1.362 1_545 S
C451 H426 0.951 . S
C451 C449 1.388 . S
C451 C452 1.366 . S
C452 C451 1.366 . S
C452 C453 1.414 1_545 S
C452 C455 1.501 . S
C453 H427 0.950 . S
C453 C452 1.414 1_565 S
C453 C454 1.374 . S
C454 H428 0.950 . S
C454 C450 1.362 1_565 S
C454 C453 1.374 . S
C455 C452 1.501 . S
C455 C456 1.325 1_545 S
C455 C457 1.436 . S
C456 H429 0.950 . S
C456 C442 1.377 . S
C456 C455 1.325 1_565 S
C457 C441 1.377 . S
C457 C455 1.436 . S
C457 C458 1.524 . S
C458 C457 1.524 . S
C458 C459 1.397 . S
C458 C463 1.363 . S
C459 H430 0.950 . S
C459 C458 1.397 . S
C459 C460 1.334 . S
C460 H431 0.950 . S
C460 C459 1.334 . S
C460 C461 1.287 . S
C461 C460 1.287 . S
C461 C462 1.524 . S
C461 H464 0.999 . S
C462 H432 0.950 . S
C462 C461 1.524 . S
C462 C463 1.415 . S
C463 H433 0.950 . S
C463 C458 1.363 . S
C463 C462 1.415 . S
H464 C461 0.999 . S
H465 C446 0.913 . S
H466 C484 0.951 . S
H467 C486 0.951 . S
H468 C488 0.950 . S
H469 C489 0.950 . S
H470 C491 0.950 . S
H471 C494 0.950 . S
H472 C495 0.950 . S
H473 C497 0.950 . S
H474 C498 0.950 . S
H475 C499 0.951 . S
H476 C501 0.951 . S
H477 C503 0.950 . S
H478 C504 0.950 . S
H479 C506 0.950 . S
H480 C509 0.950 . S
H481 C510 0.950 . S
H482 C512 0.950 . S
H483 C513 0.950 . S
C484 H466 0.951 . S
C484 C485 1.366 . S
C484 C486 1.388 . S
C485 C484 1.366 . S
C485 C489 1.385 . S
C486 H467 0.951 . S
C486 C484 1.388 . S
C486 C487 1.366 . S
C487 C486 1.366 . S
C487 C488 1.414 . S
C487 C490 1.499 . S
C488 H468 0.950 . S
C488 C487 1.414 . S
C488 C489 1.374 . S
C489 H469 0.950 . S
C489 C485 1.385 . S
C489 C488 1.374 . S
C490 C487 1.499 . S
C490 C491 1.373 . S
C490 C492 1.389 . S
C491 H470 0.950 . S
C491 C490 1.373 . S
C491 C507 1.377 . S
C492 C490 1.389 . S
C492 C493 1.524 . S
C492 C506 1.377 . S
C493 C492 1.524 . S
C493 C494 1.397 . S
C493 C498 1.363 . S
C494 H471 0.950 . S
C494 C493 1.397 . S
C494 C495 1.334 . S
C495 H472 0.950 . S
C495 C494 1.334 . S
C495 C496 1.287 . S
C496 C495 1.287 . S
C496 C497 1.524 . S
C496 H515 0.913 . S
C497 H473 0.950 . S
C497 C496 1.524 . S
C497 C498 1.415 . S
C498 H474 0.950 . S
C498 C493 1.363 . S
C498 C497 1.415 . S
C499 H475 0.951 . S
C499 C500 1.366 . S
C499 C501 1.388 . S
C500 C499 1.366 . S
C500 C504 1.385 . S
C501 H476 0.951 . S
C501 C499 1.388 . S
C501 C502 1.366 . S
C502 C501 1.366 . S
C502 C503 1.414 . S
C502 C505 1.499 . S
C503 H477 0.950 . S
C503 C502 1.414 . S
C503 C504 1.374 . S
C504 H478 0.950 . S
C504 C500 1.385 . S
C504 C503 1.374 . S
C505 C502 1.499 . S
C505 C506 1.373 . S
C505 C507 1.389 . S
C506 H479 0.950 . S
C506 C492 1.377 . S
C506 C505 1.373 . S
C507 C491 1.377 . S
C507 C505 1.389 . S
C507 C508 1.524 . S
C508 C507 1.524 . S
C508 C509 1.397 . S
C508 C513 1.363 . S
C509 H480 0.950 . S
C509 C508 1.397 . S
C509 C510 1.334 . S
C510 H481 0.950 . S
C510 C509 1.334 . S
C510 C511 1.287 . S
C511 C510 1.287 . S
C511 C512 1.524 . S
C511 H514 0.999 . S
C512 H482 0.950 . S
C512 C511 1.524 . S
C512 C513 1.415 . S
C513 H483 0.950 . S
C513 C508 1.363 . S
C513 C512 1.415 . S
H514 C511 0.999 . S
H515 C496 0.913 . S
H516 C534 0.951 . S
H517 C536 0.951 . S
H518 C538 0.950 . S
H519 C539 0.950 . S
H520 C541 0.950 . S
H521 C544 0.950 . S
H522 C545 0.950 . S
H523 C547 0.950 . S
H524 C548 0.950 . S
H525 C549 0.951 . S
H526 C551 0.951 . S
H527 C553 0.950 . S
H528 C554 0.950 . S
H529 C556 0.950 . S
H530 C559 0.950 . S
H531 C560 0.950 . S
H532 C562 0.950 . S
H533 C563 0.950 . S
C534 H516 0.951 . S
C534 C535 1.366 . S
C534 C536 1.388 . S
C535 C534 1.366 . S
C535 C539 1.385 . S
C536 H517 0.951 . S
C536 C534 1.388 . S
C536 C537 1.366 . S
C537 C536 1.366 . S
C537 C538 1.414 . S
C537 C540 1.499 . S
C538 H518 0.950 . S
C538 C537 1.414 . S
C538 C539 1.374 . S
C539 H519 0.950 . S
C539 C535 1.385 . S
C539 C538 1.374 . S
C540 C537 1.499 . S
C540 C541 1.373 . S
C540 C542 1.389 . S
C541 H520 0.950 . S
C541 C540 1.373 . S
C541 C557 1.377 . S
C542 C540 1.389 . S
C542 C543 1.524 . S
C542 C556 1.377 . S
C543 C542 1.524 . S
C543 C544 1.397 . S
C543 C548 1.363 . S
C544 H521 0.950 . S
C544 C543 1.397 . S
C544 C545 1.334 . S
C545 H522 0.950 . S
C545 C544 1.334 . S
C545 C546 1.287 . S
C546 C545 1.287 . S
C546 C547 1.524 . S
C546 H565 0.913 . S
C547 H523 0.950 . S
C547 C546 1.524 . S
C547 C548 1.415 . S
C548 H524 0.950 . S
C548 C543 1.363 . S
C548 C547 1.415 . S
C549 H525 0.951 . S
C549 C550 1.366 . S
C549 C551 1.388 . S
C550 C549 1.366 . S
C550 C554 1.385 . S
C551 H526 0.951 . S
C551 C549 1.388 . S
C551 C552 1.366 . S
C552 C551 1.366 . S
C552 C553 1.414 . S
C552 C555 1.499 . S
C553 H527 0.950 . S
C553 C552 1.414 . S
C553 C554 1.374 . S
C554 H528 0.950 . S
C554 C550 1.385 . S
C554 C553 1.374 . S
C555 C552 1.499 . S
C555 C556 1.373 . S
C555 C557 1.389 . S
C556 H529 0.950 . S
C556 C542 1.377 . S
C556 C555 1.373 . S
C557 C541 1.377 . S
C557 C555 1.389 . S
C557 C558 1.524 . S
C558 C557 1.524 . S
C558 C559 1.397 . S
C558 C563 1.363 . S
C559 H530 0.950 . S
C559 C558 1.397 . S
C559 C560 1.334 . S
C560 H531 0.950 . S
C560 C559 1.334 . S
C560 C561 1.287 . S
C561 C560 1.287 . S
C561 C562 1.524 . S
C561 H564 0.999 . S
C562 H532 0.950 . S
C562 C561 1.524 . S
C562 C563 1.415 . S
C563 H533 0.950 . S
C563 C558 1.363 . S
C563 C562 1.415 . S
H564 C561 0.999 . S
H565 C546 0.913 . S
H566 C584 0.951 . S
H567 C586 0.951 . S
H568 C588 0.950 . S
H569 C589 0.950 . S
H570 C591 0.950 . S
H571 C594 0.950 . S
H572 C595 0.950 . S
H573 C597 0.950 . S
H574 C598 0.950 . S
H575 C599 0.951 . S
H576 C601 0.951 . S
H577 C603 0.950 . S
H578 C604 0.950 . S
H579 C606 0.950 . S
H580 C609 0.950 . S
H581 C610 0.950 . S
H582 C612 0.950 . S
H583 C613 0.950 . S
C584 H566 0.951 . S
C584 C585 1.365 1_655 S
C584 C586 1.388 . S
C585 C584 1.365 1_455 S
C585 C589 1.385 . S
C586 H567 0.951 . S
C586 C584 1.388 . S
C586 C587 1.366 1_655 S
C587 C586 1.366 1_455 S
C587 C588 1.414 . S
C587 C590 1.499 . S
C588 H568 0.950 . S
C588 C587 1.414 . S
C588 C589 1.374 . S
C589 H569 0.950 . S
C589 C585 1.385 . S
C589 C588 1.374 . S
C590 C587 1.499 . S
C590 C591 1.373 1_455 S
C590 C592 1.389 . S
C591 H570 0.950 . S
C591 C590 1.373 1_655 S
C591 C607 1.377 . S
C592 C590 1.389 . S
C592 C593 1.524 . S
C592 C606 1.377 . S
C593 C592 1.524 . S
C593 C594 1.397 . S
C593 C598 1.363 . S
C594 H571 0.950 . S
C594 C593 1.397 . S
C594 C595 1.334 . S
C595 H572 0.950 . S
C595 C594 1.334 . S
C595 C596 1.287 . S
C596 C595 1.287 . S
C596 C597 1.524 . S
C596 H615 0.913 . S
C597 H573 0.950 . S
C597 C596 1.524 . S
C597 C598 1.415 . S
C598 H574 0.950 . S
C598 C593 1.363 . S
C598 C597 1.415 . S
C599 H575 0.951 . S
C599 C600 1.382 . S
C599 C601 1.388 . S
C600 C599 1.382 . S
C600 C604 1.369 1_455 S
C601 H576 0.951 . S
C601 C599 1.388 . S
C601 C602 1.361 1_455 S
C602 C601 1.361 1_655 S
C602 C603 1.418 . S
C602 C605 1.498 . S
C603 H577 0.950 . S
C603 C602 1.418 . S
C603 C604 1.374 . S
C604 H578 0.950 . S
C604 C600 1.369 1_655 S
C604 C603 1.374 . S
C605 C602 1.498 . S
C605 C606 1.356 1_655 S
C605 C607 1.405 . S
C606 H579 0.950 . S
C606 C592 1.377 . S
C606 C605 1.356 1_455 S
C607 C591 1.377 . S
C607 C605 1.405 . S
C607 C608 1.524 . S
C608 C607 1.524 . S
C608 C609 1.397 . S
C608 C613 1.363 . S
C609 H580 0.950 . S
C609 C608 1.397 . S
C609 C610 1.334 . S
C610 H581 0.950 . S
C610 C609 1.334 . S
C610 C611 1.287 . S
C611 C610 1.287 . S
C611 C612 1.524 . S
C611 H614 0.999 . S
C612 H582 0.950 . S
C612 C611 1.524 . S
C612 C613 1.415 . S
C613 H583 0.950 . S
C613 C608 1.363 . S
C613 C612 1.415 . S
H614 C611 0.999 . S
H615 C596 0.913 . S
H616 C634 0.951 . S
H617 C636 0.951 . S
H618 C638 0.950 . S
H619 C639 0.950 . S
H620 C641 0.950 . S
H621 C644 0.950 1_554 S
H622 C645 0.950 . S
H623 C647 0.950 . S
H624 C648 0.950 . S
H625 C649 0.951 . S
H626 C651 0.951 . S
H627 C653 0.950 . S
H628 C654 0.950 . S
H629 C656 0.950 . S
H630 C659 0.950 1_556 S
H631 C660 0.950 . S
H632 C662 0.950 . S
H633 C663 0.950 . S
C634 H616 0.951 . S
C634 C635 1.361 . S
C634 C636 1.388 . S
C635 C634 1.361 . S
C635 C639 1.389 1_545 S
C636 H617 0.951 . S
C636 C634 1.388 . S
C636 C637 1.367 1_545 S
C637 C636 1.367 1_565 S
C637 C638 1.412 . S
C637 C640 1.498 . S
C638 H618 0.950 . S
C638 C637 1.412 . S
C638 C639 1.374 . S
C639 H619 0.950 . S
C639 C635 1.389 1_565 S
C639 C638 1.374 . S
C640 C637 1.498 . S
C640 C641 1.400 . S
C640 C642 1.374 1_565 S
C641 H620 0.950 . S
C641 C640 1.400 . S
C641 C657 1.377 . S
C642 C640 1.374 1_545 S
C642 C643 1.523 1_554 S
C642 C656 1.367 1_554 S
C643 C642 1.523 1_556 S
C643 C644 1.397 . S
C643 C648 1.363 . S
C644 H621 0.950 1_556 S
C644 C643 1.397 . S
C644 C645 1.334 . S
C645 H622 0.950 . S
C645 C644 1.334 . S
C645 C646 1.287 . S
C646 C645 1.287 . S
C646 C647 1.524 . S
C646 H665 0.913 . S
C647 H623 0.950 . S
C647 C646 1.524 . S
C647 C648 1.415 . S
C648 H624 0.950 . S
C648 C643 1.363 . S
C648 C647 1.415 . S
C649 H625 0.951 . S
C649 C650 1.389 . S
C649 C651 1.388 . S
C650 C649 1.389 . S
C650 C654 1.361 1_565 S
C651 H626 0.951 . S
C651 C649 1.388 . S
C651 C652 1.383 . S
C652 C651 1.383 . S
C652 C653 1.397 1_565 S
C652 C655 1.498 1_565 S
C653 H627 0.950 . S
C653 C652 1.397 1_545 S
C653 C654 1.374 . S
C654 H628 0.950 . S
C654 C650 1.361 1_545 S
C654 C653 1.374 . S
C655 C652 1.498 1_545 S
C655 C656 1.380 . S
C655 C657 1.383 1_546 S
C656 H629 0.950 . S
C656 C642 1.367 1_556 S
C656 C655 1.380 . S
C657 C641 1.377 . S
C657 C655 1.383 1_564 S
C657 C658 1.524 . S
C658 C657 1.524 . S
C658 C659 1.397 . S
C658 C663 1.363 . S
C659 H630 0.950 1_554 S
C659 C658 1.397 . S
C659 C660 1.334 . S
C660 H631 0.950 . S
C660 C659 1.334 . S
C660 C661 1.287 . S
C661 C660 1.287 . S
C661 C662 1.524 . S
C661 H664 0.999 . S
C662 H632 0.950 . S
C662 C661 1.524 . S
C662 C663 1.415 . S
C663 H633 0.950 . S
C663 C658 1.363 . S
C663 C662 1.415 . S
H664 C661 0.999 . S
H665 C646 0.913 . S
H666 C684 0.951 . S
H667 C686 0.951 . S
H668 C688 0.950 . S
H669 C689 0.950 . S
H670 C691 0.950 . S
H671 C694 0.950 . S
H672 C695 0.950 . S
H673 C697 0.950 . S
H674 C698 0.950 . S
H675 C699 0.951 . S
H676 C701 0.951 . S
H677 C703 0.950 . S
H678 C704 0.950 . S
H679 C706 0.950 . S
H680 C709 0.950 . S
H681 C710 0.950 . S
H682 C712 0.950 . S
H683 C713 0.950 . S
C684 H666 0.951 . S
C684 C685 1.366 . S
C684 C686 1.388 . S
C685 C684 1.366 . S
C685 C689 1.385 . S
C686 H667 0.951 . S
C686 C684 1.388 . S
C686 C687 1.366 . S
C687 C686 1.366 . S
C687 C688 1.414 . S
C687 C690 1.499 . S
C688 H668 0.950 . S
C688 C687 1.414 . S
C688 C689 1.374 . S
C689 H669 0.950 . S
C689 C685 1.385 . S
C689 C688 1.374 . S
C690 C687 1.499 . S
C690 C691 1.373 . S
C690 C692 1.389 . S
C691 H670 0.950 . S
C691 C690 1.373 . S
C691 C707 1.377 1_554 S
C692 C690 1.389 . S
C692 C693 1.524 . S
C692 C706 1.377 1_554 S
C693 C692 1.524 . S
C693 C694 1.397 . S
C693 C698 1.363 . S
C694 H671 0.950 . S
C694 C693 1.397 . S
C694 C695 1.334 . S
C695 H672 0.950 . S
C695 C694 1.334 . S
C695 C696 1.287 . S
C696 C695 1.287 . S
C696 C697 1.524 . S
C696 H715 0.913 . S
C697 H673 0.950 . S
C697 C696 1.524 . S
C697 C698 1.415 . S
C698 H674 0.950 . S
C698 C693 1.363 . S
C698 C697 1.415 . S
C699 H675 0.951 . S
C699 C700 1.366 . S
C699 C701 1.388 . S
C700 C699 1.366 . S
C700 C704 1.385 . S
C701 H676 0.951 . S
C701 C699 1.388 . S
C701 C702 1.366 . S
C702 C701 1.366 . S
C702 C703 1.414 . S
C702 C705 1.499 . S
C703 H677 0.950 . S
C703 C702 1.414 . S
C703 C704 1.374 . S
C704 H678 0.950 . S
C704 C700 1.385 . S
C704 C703 1.374 . S
C705 C702 1.499 . S
C705 C706 1.373 . S
C705 C707 1.389 . S
C706 H679 0.950 . S
C706 C692 1.377 1_556 S
C706 C705 1.373 . S
C707 C691 1.377 1_556 S
C707 C705 1.389 . S
C707 C708 1.524 . S
C708 C707 1.524 . S
C708 C709 1.397 . S
C708 C713 1.363 . S
C709 H680 0.950 . S
C709 C708 1.397 . S
C709 C710 1.334 . S
C710 H681 0.950 . S
C710 C709 1.334 . S
C710 C711 1.287 . S
C711 C710 1.287 . S
C711 C712 1.524 . S
C711 H714 0.999 . S
C712 H682 0.950 . S
C712 C711 1.524 . S
C712 C713 1.415 . S
C713 H683 0.950 . S
C713 C708 1.363 . S
C713 C712 1.415 . S
H714 C711 0.999 . S
H715 C696 0.913 . S
H716 C734 0.951 . S
H717 C736 0.951 . S
H718 C738 0.950 . S
H719 C739 0.950 . S
H720 C741 0.950 . S
H721 C744 0.950 . S
H722 C745 0.950 . S
H723 C747 0.950 1_556 S
H724 C748 0.950 . S
H725 C749 0.951 . S
H726 C751 0.951 . S
H727 C753 0.950 . S
H728 C754 0.950 . S
H729 C756 0.950 . S
H730 C759 0.950 . S
H731 C760 0.950 . S
H732 C762 0.950 1_554 S
H733 C763 0.950 . S
C734 H716 0.951 . S
C734 C735 1.366 . S
C734 C736 1.388 . S
C735 C734 1.366 . S
C735 C739 1.385 . S
C736 H717 0.951 . S
C736 C734 1.388 . S
C736 C737 1.366 . S
C737 C736 1.366 . S
C737 C738 1.414 . S
C737 C740 1.499 . S
C738 H718 0.950 . S
C738 C737 1.414 . S
C738 C739 1.374 . S
C739 H719 0.950 . S
C739 C735 1.385 . S
C739 C738 1.374 . S
C740 C737 1.499 . S
C740 C741 1.373 . S
C740 C742 1.389 . S
C741 H720 0.950 . S
C741 C740 1.373 . S
C741 C757 1.377 1_554 S
C742 C740 1.389 . S
C742 C743 1.524 . S
C742 C756 1.377 1_554 S
C743 C742 1.524 . S
C743 C744 1.397 . S
C743 C748 1.363 1_554 S
C744 H721 0.950 . S
C744 C743 1.397 . S
C744 C745 1.334 . S
C745 H722 0.950 . S
C745 C744 1.334 . S
C745 C746 1.287 . S
C746 C745 1.287 . S
C746 C747 1.524 . S
C746 H765 0.913 . S
C747 H723 0.950 1_554 S
C747 C746 1.524 . S
C747 C748 1.415 1_554 S
C748 H724 0.950 . S
C748 C743 1.363 1_556 S
C748 C747 1.415 1_556 S
C749 H725 0.951 . S
C749 C750 1.366 . S
C749 C751 1.388 . S
C750 C749 1.366 . S
C750 C754 1.385 . S
C751 H726 0.951 . S
C751 C749 1.388 . S
C751 C752 1.366 . S
C752 C751 1.366 . S
C752 C753 1.414 . S
C752 C755 1.499 . S
C753 H727 0.950 . S
C753 C752 1.414 . S
C753 C754 1.374 . S
C754 H728 0.950 . S
C754 C750 1.385 . S
C754 C753 1.374 . S
C755 C752 1.499 . S
C755 C756 1.373 . S
C755 C757 1.389 . S
C756 H729 0.950 . S
C756 C742 1.377 1_556 S
C756 C755 1.373 . S
C757 C741 1.377 1_556 S
C757 C755 1.389 . S
C757 C758 1.524 . S
C758 C757 1.524 . S
C758 C759 1.397 . S
C758 C763 1.363 1_556 S
C759 H730 0.950 . S
C759 C758 1.397 . S
C759 C760 1.334 . S
C760 H731 0.950 . S
C760 C759 1.334 . S
C760 C761 1.287 . S
C761 C760 1.287 . S
C761 C762 1.524 . S
C761 H764 0.999 . S
C762 H732 0.950 1_556 S
C762 C761 1.524 . S
C762 C763 1.415 1_556 S
C763 H733 0.950 . S
C763 C758 1.363 1_554 S
C763 C762 1.415 1_554 S
H764 C761 0.999 . S
H765 C746 0.913 . S
H766 C784 0.951 . S
H767 C786 0.951 . S
H768 C788 0.950 . S
H769 C789 0.950 . S
H770 C791 0.950 . S
H771 C794 0.950 . S
H772 C795 0.950 . S
H773 C797 0.950 . S
H774 C798 0.950 . S
H775 C799 0.951 . S
H776 C801 0.951 . S
H777 C803 0.950 . S
H778 C804 0.950 . S
H779 C806 0.950 . S
H780 C809 0.950 . S
H781 C810 0.950 . S
H782 C812 0.950 . S
H783 C813 0.950 . S
C784 H766 0.951 . S
C784 C785 1.367 . S
C784 C786 1.388 . S
C785 C784 1.367 . S
C785 C789 1.383 1_655 S
C786 H767 0.951 . S
C786 C784 1.388 . S
C786 C787 1.359 1_655 S
C787 C786 1.359 1_455 S
C787 C788 1.420 . S
C787 C790 1.499 . S
C788 H768 0.950 . S
C788 C787 1.420 . S
C788 C789 1.374 . S
C789 H769 0.950 . S
C789 C785 1.383 1_455 S
C789 C788 1.374 . S
C790 C787 1.499 . S
C790 C791 1.347 1_455 S
C790 C792 1.414 . S
C791 H770 0.950 . S
C791 C790 1.347 1_655 S
C791 C807 1.377 1_554 S
C792 C790 1.414 . S
C792 C793 1.524 . S
C792 C806 1.371 1_554 S
C793 C792 1.524 . S
C793 C794 1.397 . S
C793 C798 1.363 . S
C794 H771 0.950 . S
C794 C793 1.397 . S
C794 C795 1.334 . S
C795 H772 0.950 . S
C795 C794 1.334 . S
C795 C796 1.287 . S
C796 C795 1.287 . S
C796 C797 1.524 . S
C796 H815 0.913 . S
C797 H773 0.950 . S
C797 C796 1.524 . S
C797 C798 1.415 . S
C798 H774 0.950 . S
C798 C793 1.363 . S
C798 C797 1.415 . S
C799 H775 0.951 . S
C799 C800 1.359 1_455 S
C799 C801 1.388 . S
C800 C799 1.359 1_655 S
C800 C804 1.394 . S
C801 H776 0.951 . S
C801 C799 1.388 . S
C801 C802 1.366 1_455 S
C802 C801 1.366 1_655 S
C802 C803 1.414 . S
C802 C805 1.499 . S
C803 H777 0.950 . S
C803 C802 1.414 . S
C803 C804 1.374 . S
C804 H778 0.950 . S
C804 C800 1.394 . S
C804 C803 1.374 . S
C805 C802 1.499 . S
C805 C806 1.378 1_655 S
C805 C807 1.389 . S
C806 H779 0.950 . S
C806 C792 1.371 1_556 S
C806 C805 1.378 1_455 S
C807 C791 1.377 1_556 S
C807 C805 1.389 . S
C807 C808 1.524 . S
C808 C807 1.524 . S
C808 C809 1.397 . S
C808 C813 1.363 . S
C809 H780 0.950 . S
C809 C808 1.397 . S
C809 C810 1.334 . S
C810 H781 0.950 . S
C810 C809 1.334 . S
C810 C811 1.287 . S
C811 C810 1.287 . S
C811 C812 1.524 . S
C811 H814 0.999 . S
C812 H782 0.950 . S
C812 C811 1.524 . S
C812 C813 1.415 . S
C813 H783 0.950 . S
C813 C808 1.363 . S
C813 C812 1.415 . S
H814 C811 0.999 . S
H815 C796 0.913 . S
H816 C834 0.951 . S
H817 C836 0.951 . S
H818 C838 0.950 . S
H819 C839 0.950 . S
H820 C841 0.950 . S
H821 C844 0.950 . S
H822 C845 0.950 . S
H823 C847 0.950 . S
H824 C848 0.950 . S
H825 C849 0.951 . S
H826 C851 0.951 . S
H827 C853 0.950 . S
H828 C854 0.950 . S
H829 C856 0.950 . S
H830 C859 0.950 . S
H831 C860 0.950 . S
H832 C862 0.950 . S
H833 C863 0.950 . S
C834 H816 0.951 . S
C834 C835 1.366 1_655 S
C834 C836 1.388 . S
C835 C834 1.366 1_455 S
C835 C839 1.385 . S
C836 H817 0.951 . S
C836 C834 1.388 . S
C836 C837 1.366 . S
C837 C836 1.366 . S
C837 C838 1.414 1_655 S
C837 C840 1.499 . S
C838 H818 0.950 . S
C838 C837 1.414 1_455 S
C838 C839 1.374 . S
C839 H819 0.950 . S
C839 C835 1.385 . S
C839 C838 1.374 . S
C840 C837 1.499 . S
C840 C841 1.373 1_655 S
C840 C842 1.389 . S
C841 H820 0.950 . S
C841 C840 1.373 1_455 S
C841 C857 1.377 . S
C842 C840 1.389 . S
C842 C843 1.524 . S
C842 C856 1.377 . S
C843 C842 1.524 . S
C843 C844 1.397 . S
C843 C848 1.363 . S
C844 H821 0.950 . S
C844 C843 1.397 . S
C844 C845 1.334 . S
C845 H822 0.950 . S
C845 C844 1.334 . S
C845 C846 1.287 . S
C846 C845 1.287 . S
C846 C847 1.524 . S
C846 H865 0.913 . S
C847 H823 0.950 . S
C847 C846 1.524 . S
C847 C848 1.415 . S
C848 H824 0.950 . S
C848 C843 1.363 . S
C848 C847 1.415 . S
C849 H825 0.951 . S
C849 C850 1.366 . S
C849 C851 1.388 . S
C850 C849 1.366 . S
C850 C854 1.385 . S
C851 H826 0.951 . S
C851 C849 1.388 . S
C851 C852 1.366 . S
C852 C851 1.366 . S
C852 C853 1.414 . S
C852 C855 1.499 . S
C853 H827 0.950 . S
C853 C852 1.414 . S
C853 C854 1.374 . S
C854 H828 0.950 . S
C854 C850 1.385 . S
C854 C853 1.374 . S
C855 C852 1.499 . S
C855 C856 1.373 . S
C855 C857 1.389 1_655 S
C856 H829 0.950 . S
C856 C842 1.377 . S
C856 C855 1.373 . S
C857 C841 1.377 . S
C857 C855 1.389 1_455 S
C857 C858 1.524 . S
C858 C857 1.524 . S
C858 C859 1.397 . S
C858 C863 1.363 . S
C859 H830 0.950 . S
C859 C858 1.397 . S
C859 C860 1.334 . S
C860 H831 0.950 . S
C860 C859 1.334 . S
C860 C861 1.287 . S
C861 C860 1.287 . S
C861 C862 1.524 . S
C861 H864 0.999 . S
C862 H832 0.950 . S
C862 C861 1.524 . S
C862 C863 1.415 . S
C863 H833 0.950 . S
C863 C858 1.363 . S
C863 C862 1.415 . S
H864 C861 0.999 . S
H865 C846 0.913 . S
H866 C884 0.951 . S
H867 C886 0.951 . S
H868 C888 0.950 . S
H869 C889 0.950 . S
H870 C891 0.947 1_545 S
H871 C894 0.950 . S
H872 C895 0.950 . S
H873 C897 0.950 . S
H874 C898 0.950 . S
H875 C899 0.951 . S
H876 C901 0.951 . S
H877 C903 0.950 . S
H878 C904 0.950 . S
H879 C906 0.950 . S
H880 C909 0.950 . S
H881 C910 0.950 . S
H882 C912 0.948 . S
H883 C913 0.950 . S
C884 H866 0.951 . S
C884 C885 1.366 . S
C884 C886 1.388 . S
C885 C884 1.366 . S
C885 C889 1.385 1_545 S
C886 H867 0.951 . S
C886 C884 1.388 . S
C886 C887 1.366 1_545 S
C887 C886 1.366 1_565 S
C887 C888 1.414 . S
C887 C890 1.499 . S
C888 H868 0.950 . S
C888 C887 1.414 . S
C888 C889 1.374 . S
C889 H869 0.950 . S
C889 C885 1.385 1_565 S
C889 C888 1.374 . S
C890 C887 1.499 . S
C890 C891 1.373 . S
C890 C892 1.389 . S
C891 H870 0.947 1_565 S
C891 C890 1.373 . S
C891 C907 1.377 . S
C892 C890 1.389 . S
C892 C893 1.524 . S
C892 C906 1.377 . S
C893 C892 1.524 . S
C893 C894 1.397 . S
C893 C898 1.363 . S
C894 H871 0.950 . S
C894 C893 1.397 . S
C894 C895 1.334 . S
C895 H872 0.950 . S
C895 C894 1.334 . S
C895 C896 1.287 . S
C896 C895 1.287 . S
C896 C897 1.524 . S
C896 H915 0.913 . S
C897 H873 0.950 . S
C897 C896 1.524 . S
C897 C898 1.415 . S
C898 H874 0.950 . S
C898 C893 1.363 . S
C898 C897 1.415 . S
C899 H875 0.951 . S
C899 C900 1.366 . S
C899 C901 1.388 . S
C900 C899 1.366 . S
C900 C904 1.385 . S
C901 H876 0.951 . S
C901 C899 1.388 . S
C901 C902 1.366 . S
C902 C901 1.366 . S
C902 C903 1.414 . S
C902 C905 1.499 . S
C903 H877 0.950 . S
C903 C902 1.414 . S
C903 C904 1.374 . S
C904 H878 0.950 . S
C904 C900 1.385 . S
C904 C903 1.374 . S
C905 C902 1.499 . S
C905 C906 1.373 . S
C905 C907 1.389 . S
C906 H879 0.950 . S
C906 C892 1.377 . S
C906 C905 1.373 . S
C907 C891 1.377 . S
C907 C905 1.389 . S
C907 C908 1.524 1_565 S
C908 C907 1.524 1_545 S
C908 C909 1.397 . S
C908 C913 1.363 1_545 S
C909 H880 0.950 . S
C909 C908 1.397 . S
C909 C910 1.334 . S
C910 H881 0.950 . S
C910 C909 1.334 . S
C910 C911 1.287 . S
C911 C910 1.287 . S
C911 C912 1.524 . S
C911 H914 0.999 . S
C912 H882 0.948 . S
C912 C911 1.524 . S
C912 C913 1.415 1_545 S
C913 H883 0.950 . S
C913 C908 1.363 1_565 S
C913 C912 1.415 1_565 S
H914 C911 0.999 . S
H915 C896 0.913 . S
H916 C934 0.951 . S
H917 C936 0.951 . S
H918 C938 0.950 . S
H919 C939 0.950 . S
H920 C941 0.950 . S
H921 C944 0.950 . S
H922 C945 0.950 . S
H923 C947 0.950 . S
H924 C948 0.950 . S
H925 C949 0.951 . S
H926 C951 0.951 . S
H927 C953 0.950 . S
H928 C954 0.950 . S
H929 C956 0.950 . S
H930 C959 0.950 . S
H931 C960 0.950 . S
H932 C962 0.950 . S
H933 C963 0.950 . S
C934 H916 0.951 . S
C934 C935 1.366 . S
C934 C936 1.388 . S
C935 C934 1.366 . S
C935 C939 1.385 . S
C936 H917 0.951 . S
C936 C934 1.388 . S
C936 C937 1.366 . S
C937 C936 1.366 . S
C937 C938 1.414 . S
C937 C940 1.499 . S
C938 H918 0.950 . S
C938 C937 1.414 . S
C938 C939 1.374 . S
C939 H919 0.950 . S
C939 C935 1.385 . S
C939 C938 1.374 . S
C940 C937 1.499 . S
C940 C941 1.373 . S
C940 C942 1.389 . S
C941 H920 0.950 . S
C941 C940 1.373 . S
C941 C957 1.377 . S
C942 C940 1.389 . S
C942 C943 1.524 . S
C942 C956 1.377 . S
C943 C942 1.524 . S
C943 C944 1.397 . S
C943 C948 1.363 . S
C944 H921 0.950 . S
C944 C943 1.397 . S
C944 C945 1.334 . S
C945 H922 0.950 . S
C945 C944 1.334 . S
C945 C946 1.287 . S
C946 C945 1.287 . S
C946 C947 1.524 . S
C946 H965 0.913 . S
C947 H923 0.950 . S
C947 C946 1.524 . S
C947 C948 1.415 . S
C948 H924 0.950 . S
C948 C943 1.363 . S
C948 C947 1.415 . S
C949 H925 0.951 . S
C949 C950 1.366 . S
C949 C951 1.388 . S
C950 C949 1.366 . S
C950 C954 1.385 . S
C951 H926 0.951 . S
C951 C949 1.388 . S
C951 C952 1.366 . S
C952 C951 1.366 . S
C952 C953 1.414 . S
C952 C955 1.499 . S
C953 H927 0.950 . S
C953 C952 1.414 . S
C953 C954 1.374 . S
C954 H928 0.950 . S
C954 C950 1.385 . S
C954 C953 1.374 . S
C955 C952 1.499 . S
C955 C956 1.373 . S
C955 C957 1.389 . S
C956 H929 0.950 . S
C956 C942 1.377 . S
C956 C955 1.373 . S
C957 C941 1.377 . S
C957 C955 1.389 . S
C957 C958 1.524 . S
C958 C957 1.524 . S
C958 C959 1.397 . S
C958 C963 1.363 . S
C959 H930 0.950 . S
C959 C958 1.397 . S
C959 C960 1.334 . S
C960 H931 0.950 . S
C960 C959 1.334 . S
C960 C961 1.287 . S
C961 C960 1.287 . S
C961 C962 1.524 . S
C961 H964 0.999 . S
C962 H932 0.950 . S
C962 C961 1.524 . S
C962 C963 1.415 . S
C963 H933 0.950 . S
C963 C958 1.363 . S
C963 C962 1.415 . S
H964 C961 0.999 . S
H965 C946 0.913 . S
H966 C984 0.951 . S
H967 C986 0.951 . S
H968 C988 0.950 . S
H969 C989 0.950 . S
H970 C991 0.950 . S
H971 C994 0.950 . S
H972 C995 0.950 . S
H973 C997 0.950 . S
H974 C998 0.950 . S
H975 C999 0.951 . S
H976 C1001 0.951 . S
H977 C1003 0.950 . S
H978 C1004 0.950 . S
H979 C1006 0.950 . S
H980 C1009 0.950 . S
H981 C1010 0.950 . S
H982 C1012 0.950 . S
H983 C1013 0.950 . S
C984 H966 0.951 . S
C984 C985 1.366 . S
C984 C986 1.388 . S
C985 C984 1.366 . S
C985 C989 1.385 . S
C986 H967 0.951 . S
C986 C984 1.388 . S
C986 C987 1.366 . S
C987 C986 1.366 . S
C987 C988 1.414 . S
C987 C990 1.499 . S
C988 H968 0.950 . S
C988 C987 1.414 . S
C988 C989 1.374 . S
C989 H969 0.950 . S
C989 C985 1.385 . S
C989 C988 1.374 . S
C990 C987 1.499 . S
C990 C991 1.373 . S
C990 C992 1.389 . S
C991 H970 0.950 . S
C991 C990 1.373 . S
C991 C1007 1.377 . S
C992 C990 1.389 . S
C992 C993 1.524 . S
C992 C1006 1.377 . S
C993 C992 1.524 . S
C993 C994 1.397 . S
C993 C998 1.363 . S
C994 H971 0.950 . S
C994 C993 1.397 . S
C994 C995 1.334 . S
C995 H972 0.950 . S
C995 C994 1.334 . S
C995 C996 1.287 . S
C996 C995 1.287 . S
C996 C997 1.524 . S
C996 H1015 0.913 . S
C997 H973 0.950 . S
C997 C996 1.524 . S
C997 C998 1.415 . S
C998 H974 0.950 . S
C998 C993 1.363 . S
C998 C997 1.415 . S
C999 H975 0.951 . S
C999 C1000 1.366 . S
C999 C1001 1.388 . S
C1000 C999 1.366 . S
C1000 C1004 1.385 . S
C1001 H976 0.951 . S
C1001 C999 1.388 . S
C1001 C1002 1.366 . S
C1002 C1001 1.366 . S
C1002 C1003 1.414 . S
C1002 C1005 1.499 . S
C1003 H977 0.950 . S
C1003 C1002 1.414 . S
C1003 C1004 1.374 . S
C1004 H978 0.950 . S
C1004 C1000 1.385 . S
C1004 C1003 1.374 . S
C1005 C1002 1.499 . S
C1005 C1006 1.373 . S
C1005 C1007 1.389 . S
C1006 H979 0.950 . S
C1006 C992 1.377 . S
C1006 C1005 1.373 . S
C1007 C991 1.377 . S
C1007 C1005 1.389 . S
C1007 C1008 1.524 . S
C1008 C1007 1.524 . S
C1008 C1009 1.397 . S
C1008 C1013 1.363 . S
C1009 H980 0.950 . S
C1009 C1008 1.397 . S
C1009 C1010 1.334 . S
C1010 H981 0.950 . S
C1010 C1009 1.334 . S
C1010 C1011 1.287 . S
C1011 C1010 1.287 . S
C1011 C1012 1.524 . S
C1011 H1014 0.999 . S
C1012 H982 0.950 . S
C1012 C1011 1.524 . S
C1012 C1013 1.415 . S
C1013 H983 0.950 . S
C1013 C1008 1.363 . S
C1013 C1012 1.415 . S
H1014 C1011 0.999 . S
H1015 C996 0.913 . S
H1016 C1034 0.951 . S
H1017 C1036 0.951 . S
H1018 C1038 0.950 . S
H1019 C1039 0.950 . S
H1020 C1041 0.950 . S
H1021 C1044 0.950 . S
H1022 C1045 0.948 . S
H1023 C1047 0.950 . S
H1024 C1048 0.950 . S
H1025 C1049 0.951 . S
H1026 C1051 0.951 . S
H1027 C1053 0.950 1_655 S
H1028 C1054 0.950 1_655 S
H1029 C1056 0.950 1_655 S
H1030 C1059 0.950 . S
H1031 C1060 0.950 . S
H1032 C1062 0.950 . S
H1033 C1063 0.950 . S
C1034 H1016 0.951 . S
C1034 C1035 1.366 . S
C1034 C1036 1.388 . S
C1035 C1034 1.366 . S
C1035 C1039 1.385 1_655 S
C1036 H1017 0.951 . S
C1036 C1034 1.388 . S
C1036 C1037 1.366 1_655 S
C1037 C1036 1.366 1_455 S
C1037 C1038 1.414 . S
C1037 C1040 1.499 . S
C1038 H1018 0.950 . S
C1038 C1037 1.414 . S
C1038 C1039 1.374 . S
C1039 H1019 0.950 . S
C1039 C1035 1.385 1_455 S
C1039 C1038 1.374 . S
C1040 C1037 1.499 . S
C1040 C1041 1.373 . S
C1040 C1042 1.389 1_554 S
C1041 H1020 0.950 . S
C1041 C1040 1.373 . S
C1041 C1057 1.377 . S
C1042 C1040 1.389 1_556 S
C1042 C1043 1.524 1_455 S
C1042 C1056 1.377 . S
C1043 C1042 1.524 1_655 S
C1043 C1044 1.397 1_655 S
C1043 C1048 1.363 . S
C1044 H1021 0.950 . S
C1044 C1043 1.397 1_455 S
C1044 C1045 1.334 1_455 S
C1045 H1022 0.948 . S
C1045 C1044 1.334 1_655 S
C1045 C1046 1.287 . S
C1046 C1045 1.287 . S
C1046 C1047 1.524 . S
C1046 H1065 0.913 . S
C1047 H1023 0.950 . S
C1047 C1046 1.524 . S
C1047 C1048 1.415 . S
C1048 H1024 0.950 . S
C1048 C1043 1.363 . S
C1048 C1047 1.415 . S
C1049 H1025 0.951 . S
C1049 C1050 1.366 . S
C1049 C1051 1.388 . S
C1050 C1049 1.366 . S
C1050 C1054 1.385 . S
C1051 H1026 0.951 . S
C1051 C1049 1.388 . S
C1051 C1052 1.366 . S
C1052 C1051 1.366 . S
C1052 C1053 1.414 . S
C1052 C1055 1.499 . S
C1053 H1027 0.950 1_455 S
C1053 C1052 1.414 . S
C1053 C1054 1.374 . S
C1054 H1028 0.950 1_455 S
C1054 C1050 1.385 . S
C1054 C1053 1.374 . S
C1055 C1052 1.499 . S
C1055 C1056 1.373 . S
C1055 C1057 1.389 1_556 S
C1056 H1029 0.950 1_455 S
C1056 C1042 1.377 . S
C1056 C1055 1.373 . S
C1057 C1041 1.377 . S
C1057 C1055 1.389 1_554 S
C1057 C1058 1.524 . S
C1058 C1057 1.524 . S
C1058 C1059 1.397 . S
C1058 C1063 1.363 . S
C1059 H1030 0.950 . S
C1059 C1058 1.397 . S
C1059 C1060 1.334 . S
C1060 H1031 0.950 . S
C1060 C1059 1.334 . S
C1060 C1061 1.287 . S
C1061 C1060 1.287 . S
C1061 C1062 1.524 . S
C1061 H1064 0.999 . S
C1062 H1032 0.950 . S
C1062 C1061 1.524 . S
C1062 C1063 1.415 . S
C1063 H1033 0.950 . S
C1063 C1058 1.363 . S
C1063 C1062 1.415 . S
H1064 C1061 0.999 . S
H1065 C1046 0.913 . S
H1066 C1084 0.951 . S
H1067 C1086 0.951 . S
H1068 C1088 0.950 . S
H1069 C1089 0.950 . S
H1070 C1091 0.950 . S
H1071 C1094 0.950 1_545 S
H1072 C1095 0.950 . S
H1073 C1097 0.950 . S
H1074 C1098 0.950 . S
H1075 C1099 0.951 . S
H1076 C1101 0.951 . S
H1077 C1103 0.950 1_565 S
H1078 C1104 0.950 1_565 S
H1079 C1106 0.950 1_565 S
H1080 C1109 0.950 . S
H1081 C1110 0.950 . S
H1082 C1112 0.950 . S
H1083 C1113 0.950 . S
C1084 H1066 0.951 . S
C1084 C1085 1.366 . S
C1084 C1086 1.388 . S
C1085 C1084 1.366 . S
C1085 C1089 1.385 1_565 S
C1086 H1067 0.951 . S
C1086 C1084 1.388 . S
C1086 C1087 1.366 1_565 S
C1087 C1086 1.366 1_545 S
C1087 C1088 1.414 . S
C1087 C1090 1.499 . S
C1088 H1068 0.950 . S
C1088 C1087 1.414 . S
C1088 C1089 1.374 . S
C1089 H1069 0.950 . S
C1089 C1085 1.385 1_545 S
C1089 C1088 1.374 . S
C1090 C1087 1.499 . S
C1090 C1091 1.373 . S
C1090 C1092 1.399 1_554 S
C1091 H1070 0.950 . S
C1091 C1090 1.373 . S
C1091 C1107 1.377 . S
C1092 C1090 1.399 1_556 S
C1092 C1093 1.514 1_545 S
C1092 C1106 1.379 . S
C1093 C1092 1.514 1_565 S
C1093 C1094 1.397 . S
C1093 C1098 1.363 . S
C1094 H1071 0.950 1_565 S
C1094 C1093 1.397 . S
C1094 C1095 1.334 . S
C1095 H1072 0.950 . S
C1095 C1094 1.334 . S
C1095 C1096 1.287 . S
C1096 C1095 1.287 . S
C1096 C1097 1.524 . S
C1096 H1115 0.913 . S
C1097 H1073 0.950 . S
C1097 C1096 1.524 . S
C1097 C1098 1.415 . S
C1098 H1074 0.950 . S
C1098 C1093 1.363 . S
C1098 C1097 1.415 . S
C1099 H1075 0.951 . S
C1099 C1100 1.366 . S
C1099 C1101 1.388 . S
C1100 C1099 1.366 . S
C1100 C1104 1.385 . S
C1101 H1076 0.951 . S
C1101 C1099 1.388 . S
C1101 C1102 1.366 . S
C1102 C1101 1.366 . S
C1102 C1103 1.414 . S
C1102 C1105 1.499 . S
C1103 H1077 0.950 1_545 S
C1103 C1102 1.414 . S
C1103 C1104 1.374 . S
C1104 H1078 0.950 1_545 S
C1104 C1100 1.385 . S
C1104 C1103 1.374 . S
C1105 C1102 1.499 . S
C1105 C1106 1.373 . S
C1105 C1107 1.389 1_556 S
C1106 H1079 0.950 1_545 S
C1106 C1092 1.379 . S
C1106 C1105 1.373 . S
C1107 C1091 1.377 . S
C1107 C1105 1.389 1_554 S
C1107 C1108 1.524 . S
C1108 C1107 1.524 . S
C1108 C1109 1.397 . S
C1108 C1113 1.363 . S
C1109 H1080 0.950 . S
C1109 C1108 1.397 . S
C1109 C1110 1.334 . S
C1110 H1081 0.950 . S
C1110 C1109 1.334 . S
C1110 C1111 1.287 . S
C1111 C1110 1.287 . S
C1111 C1112 1.524 . S
C1111 H1114 0.999 . S
C1112 H1082 0.950 . S
C1112 C1111 1.524 . S
C1112 C1113 1.415 . S
C1113 H1083 0.950 . S
C1113 C1108 1.363 . S
C1113 C1112 1.415 . S
H1114 C1111 0.999 . S
H1115 C1096 0.913 . S
H1116 C1134 0.951 . S
H1117 C1136 0.951 . S
H1118 C1138 0.950 . S
H1119 C1139 0.950 . S
H1120 C1141 0.950 . S
H1121 C1144 0.950 1_554 S
H1122 C1145 0.950 . S
H1123 C1147 0.950 . S
H1124 C1148 0.950 . S
H1125 C1149 0.951 . S
H1126 C1151 0.951 1_554 S
H1127 C1153 0.950 . S
H1128 C1154 0.950 . S
H1129 C1156 0.950 . S
H1130 C1159 0.950 . S
H1131 C1160 0.950 . S
H1132 C1162 0.950 . S
H1133 C1163 0.950 . S
C1134 H1116 0.951 . S
C1134 C1135 1.366 . S
C1134 C1136 1.388 . S
C1135 C1134 1.366 . S
C1135 C1139 1.385 . S
C1136 H1117 0.951 . S
C1136 C1134 1.388 . S
C1136 C1137 1.366 . S
C1137 C1136 1.366 . S
C1137 C1138 1.414 . S
C1137 C1140 1.499 . S
C1138 H1118 0.950 . S
C1138 C1137 1.414 . S
C1138 C1139 1.374 . S
C1139 H1119 0.950 . S
C1139 C1135 1.385 . S
C1139 C1138 1.374 . S
C1140 C1137 1.499 . S
C1140 C1141 1.373 . S
C1140 C1142 1.389 1_554 S
C1141 H1120 0.950 . S
C1141 C1140 1.373 . S
C1141 C1157 1.377 . S
C1142 C1140 1.389 1_556 S
C1142 C1143 1.524 . S
C1142 C1156 1.377 . S
C1143 C1142 1.524 . S
C1143 C1144 1.397 . S
C1143 C1148 1.363 . S
C1144 H1121 0.950 1_556 S
C1144 C1143 1.397 . S
C1144 C1145 1.334 . S
C1145 H1122 0.950 . S
C1145 C1144 1.334 . S
C1145 C1146 1.287 . S
C1146 C1145 1.287 . S
C1146 C1147 1.524 . S
C1146 H1165 0.913 . S
C1147 H1123 0.950 . S
C1147 C1146 1.524 . S
C1147 C1148 1.415 . S
C1148 H1124 0.950 . S
C1148 C1143 1.363 . S
C1148 C1147 1.415 . S
C1149 H1125 0.951 . S
C1149 C1150 1.366 . S
C1149 C1151 1.388 . S
C1150 C1149 1.366 . S
C1150 C1154 1.385 . S
C1151 H1126 0.951 1_556 S
C1151 C1149 1.388 . S
C1151 C1152 1.366 . S
C1152 C1151 1.366 . S
C1152 C1153 1.414 . S
C1152 C1155 1.499 . S
C1153 H1127 0.950 . S
C1153 C1152 1.414 . S
C1153 C1154 1.374 . S
C1154 H1128 0.950 . S
C1154 C1150 1.385 . S
C1154 C1153 1.374 . S
C1155 C1152 1.499 . S
C1155 C1156 1.373 . S
C1155 C1157 1.389 1_556 S
C1156 H1129 0.950 . S
C1156 C1142 1.377 . S
C1156 C1155 1.373 . S
C1157 C1141 1.377 . S
C1157 C1155 1.389 1_554 S
C1157 C1158 1.524 . S
C1158 C1157 1.524 . S
C1158 C1159 1.397 . S
C1158 C1163 1.363 . S
C1159 H1130 0.950 . S
C1159 C1158 1.397 . S
C1159 C1160 1.334 . S
C1160 H1131 0.950 . S
C1160 C1159 1.334 . S
C1160 C1161 1.287 . S
C1161 C1160 1.287 . S
C1161 C1162 1.524 . S
C1161 H1164 0.999 . S
C1162 H1132 0.950 . S
C1162 C1161 1.524 . S
C1162 C1163 1.415 . S
C1163 H1133 0.950 . S
C1163 C1158 1.363 . S
C1163 C1162 1.415 . S
H1164 C1161 0.999 . S
H1165 C1146 0.913 . S
H1166 C1184 0.951 . S
H1167 C1186 0.951 . S
H1168 C1188 0.950 . S
H1169 C1189 0.950 . S
H1170 C1191 0.950 . S
H1171 C1194 0.950 1_554 S
H1172 C1195 0.950 . S
H1173 C1197 0.950 . S
H1174 C1198 0.950 . S
H1175 C1199 0.951 . S
H1176 C1201 0.951 1_554 S
H1177 C1203 0.950 . S
H1178 C1204 0.950 . S
H1179 C1206 0.950 . S
H1180 C1209 0.950 . S
H1181 C1210 0.950 . S
H1182 C1212 0.950 . S
H1183 C1213 0.950 . S
C1184 H1166 0.951 . S
C1184 C1185 1.366 . S
C1184 C1186 1.388 . S
C1185 C1184 1.366 . S
C1185 C1189 1.385 . S
C1186 H1167 0.951 . S
C1186 C1184 1.388 . S
C1186 C1187 1.366 . S
C1187 C1186 1.366 . S
C1187 C1188 1.414 . S
C1187 C1190 1.499 . S
C1188 H1168 0.950 . S
C1188 C1187 1.414 . S
C1188 C1189 1.374 . S
C1189 H1169 0.950 . S
C1189 C1185 1.385 . S
C1189 C1188 1.374 . S
C1190 C1187 1.499 . S
C1190 C1191 1.373 . S
C1190 C1192 1.389 1_554 S
C1191 H1170 0.950 . S
C1191 C1190 1.373 . S
C1191 C1207 1.377 . S
C1192 C1190 1.389 1_556 S
C1192 C1193 1.524 . S
C1192 C1206 1.377 . S
C1193 C1192 1.524 . S
C1193 C1194 1.397 . S
C1193 C1198 1.363 . S
C1194 H1171 0.950 1_556 S
C1194 C1193 1.397 . S
C1194 C1195 1.334 . S
C1195 H1172 0.950 . S
C1195 C1194 1.334 . S
C1195 C1196 1.287 . S
C1196 C1195 1.287 . S
C1196 C1197 1.524 . S
C1196 H1215 0.913 . S
C1197 H1173 0.950 . S
C1197 C1196 1.524 . S
C1197 C1198 1.415 . S
C1198 H1174 0.950 . S
C1198 C1193 1.363 . S
C1198 C1197 1.415 . S
C1199 H1175 0.951 . S
C1199 C1200 1.366 . S
C1199 C1201 1.388 . S
C1200 C1199 1.366 . S
C1200 C1204 1.385 . S
C1201 H1176 0.951 1_556 S
C1201 C1199 1.388 . S
C1201 C1202 1.366 . S
C1202 C1201 1.366 . S
C1202 C1203 1.414 . S
C1202 C1205 1.499 . S
C1203 H1177 0.950 . S
C1203 C1202 1.414 . S
C1203 C1204 1.374 . S
C1204 H1178 0.950 . S
C1204 C1200 1.385 . S
C1204 C1203 1.374 . S
C1205 C1202 1.499 . S
C1205 C1206 1.373 . S
C1205 C1207 1.389 1_556 S
C1206 H1179 0.950 . S
C1206 C1192 1.377 . S
C1206 C1205 1.373 . S
C1207 C1191 1.377 . S
C1207 C1205 1.389 1_554 S
C1207 C1208 1.524 . S
C1208 C1207 1.524 . S
C1208 C1209 1.397 . S
C1208 C1213 1.363 . S
C1209 H1180 0.950 . S
C1209 C1208 1.397 . S
C1209 C1210 1.334 . S
C1210 H1181 0.950 . S
C1210 C1209 1.334 . S
C1210 C1211 1.287 . S
C1211 C1210 1.287 . S
C1211 C1212 1.524 . S
C1211 H1214 0.999 . S
C1212 H1182 0.950 . S
C1212 C1211 1.524 . S
C1212 C1213 1.415 . S
C1213 H1183 0.950 . S
C1213 C1208 1.363 . S
C1213 C1212 1.415 . S
H1214 C1211 0.999 . S
H1215 C1196 0.913 . S
H1216 C1234 0.951 . S
H1217 C1236 0.951 . S
H1218 C1238 0.950 . S
H1219 C1239 0.950 . S
H1220 C1241 0.950 . S
H1221 C1244 0.950 1_455 S
H1222 C1245 0.950 1_554 S
H1223 C1247 0.950 . S
H1224 C1248 0.950 . S
H1225 C1249 0.951 . S
H1226 C1251 0.951 . S
H1227 C1253 0.950 . S
H1228 C1254 0.950 . S
H1229 C1256 0.950 . S
H1230 C1259 0.980 . S
H1231 C1260 0.950 . S
H1232 C1262 0.950 . S
H1233 C1263 0.950 . S
C1234 H1216 0.951 . S
C1234 C1235 1.366 1_655 S
C1234 C1236 1.388 . S
C1235 C1234 1.366 1_455 S
C1235 C1239 1.385 . S
C1236 H1217 0.951 . S
C1236 C1234 1.388 . S
C1236 C1237 1.366 1_655 S
C1237 C1236 1.366 1_455 S
C1237 C1238 1.414 . S
C1237 C1240 1.499 . S
C1238 H1218 0.950 . S
C1238 C1237 1.414 . S
C1238 C1239 1.374 . S
C1239 H1219 0.950 . S
C1239 C1235 1.385 . S
C1239 C1238 1.374 . S
C1240 C1237 1.499 . S
C1240 C1241 1.373 . S
C1240 C1242 1.389 1_455 S
C1241 H1220 0.950 . S
C1241 C1240 1.373 . S
C1241 C1257 1.377 . S
C1242 C1240 1.389 1_655 S
C1242 C1243 1.524 . S
C1242 C1256 1.377 . S
C1243 C1242 1.524 . S
C1243 C1244 1.397 . S
C1243 C1248 1.363 . S
C1244 H1221 0.950 1_655 S
C1244 C1243 1.397 . S
C1244 C1245 1.334 . S
C1245 H1222 0.950 1_556 S
C1245 C1244 1.334 . S
C1245 C1246 1.287 . S
C1246 C1245 1.287 . S
C1246 C1247 1.524 . S
C1246 H1265 0.913 1_556 S
C1247 H1223 0.950 . S
C1247 C1246 1.524 . S
C1247 C1248 1.415 . S
C1248 H1224 0.950 . S
C1248 C1243 1.363 . S
C1248 C1247 1.415 . S
C1249 H1225 0.951 . S
C1249 C1250 1.366 . S
C1249 C1251 1.388 . S
C1250 C1249 1.366 . S
C1250 C1254 1.385 1_455 S
C1251 H1226 0.951 . S
C1251 C1249 1.388 . S
C1251 C1252 1.366 . S
C1252 C1251 1.366 . S
C1252 C1253 1.414 1_455 S
C1252 C1255 1.499 . S
C1253 H1227 0.950 . S
C1253 C1252 1.414 1_655 S
C1253 C1254 1.374 . S
C1254 H1228 0.950 . S
C1254 C1250 1.385 1_655 S
C1254 C1253 1.374 . S
C1255 C1252 1.499 . S
C1255 C1256 1.373 1_455 S
C1255 C1257 1.389 . S
C1256 H1229 0.950 . S
C1256 C1242 1.377 . S
C1256 C1255 1.373 1_655 S
C1257 C1241 1.377 . S
C1257 C1255 1.389 . S
C1257 C1258 1.524 . S
C1258 C1257 1.524 . S
C1258 C1259 1.397 . S
C1258 C1263 1.363 . S
C1259 H1230 0.980 . S
C1259 C1258 1.397 . S
C1259 C1260 1.334 . S
C1260 H1231 0.950 . S
C1260 C1259 1.334 . S
C1260 C1261 1.287 . S
C1261 C1260 1.287 . S
C1261 C1262 1.524 . S
C1261 H1264 0.999 . S
C1262 H1232 0.950 . S
C1262 C1261 1.524 . S
C1262 C1263 1.415 . S
C1263 H1233 0.950 . S
C1263 C1258 1.363 . S
C1263 C1262 1.415 . S
H1264 C1261 0.999 . S
H1265 C1246 0.913 1_554 S
H1266 C1284 0.951 . S
H1267 C1286 0.951 . S
H1268 C1288 0.950 . S
H1269 C1289 0.950 . S
H1270 C1291 0.950 . S
H1271 C1294 0.950 1_545 S
H1272 C1295 0.950 1_554 S
H1273 C1297 0.950 . S
H1274 C1298 0.950 . S
H1275 C1299 0.951 . S
H1276 C1301 0.951 . S
H1277 C1303 0.950 . S
H1278 C1304 0.950 . S
H1279 C1306 0.950 . S
H1280 C1309 0.907 1_565 S
H1281 C1310 0.950 . S
H1282 C1312 0.950 . S
H1283 C1313 0.950 . S
C1284 H1266 0.951 . S
C1284 C1285 1.366 1_565 S
C1284 C1286 1.388 . S
C1285 C1284 1.366 1_545 S
C1285 C1289 1.385 . S
C1286 H1267 0.951 . S
C1286 C1284 1.388 . S
C1286 C1287 1.366 1_565 S
C1287 C1286 1.366 1_545 S
C1287 C1288 1.414 . S
C1287 C1290 1.499 . S
C1288 H1268 0.950 . S
C1288 C1287 1.414 . S
C1288 C1289 1.374 . S
C1289 H1269 0.950 . S
C1289 C1285 1.385 . S
C1289 C1288 1.374 . S
C1290 C1287 1.499 . S
C1290 C1291 1.373 . S
C1290 C1292 1.389 1_545 S
C1291 H1270 0.950 . S
C1291 C1290 1.373 . S
C1291 C1307 1.377 . S
C1292 C1290 1.389 1_565 S
C1292 C1293 1.524 . S
C1292 C1306 1.377 . S
C1293 C1292 1.524 . S
C1293 C1294 1.397 . S
C1293 C1298 1.363 . S
C1294 H1271 0.950 1_565 S
C1294 C1293 1.397 . S
C1294 C1295 1.334 . S
C1295 H1272 0.950 1_556 S
C1295 C1294 1.334 . S
C1295 C1296 1.284 1_556 S
C1296 C1295 1.284 1_554 S
C1296 C1297 1.519 1_554 S
C1296 H1315 0.921 . S
C1297 H1273 0.950 . S
C1297 C1296 1.519 1_556 S
C1297 C1298 1.415 . S
C1298 H1274 0.950 . S
C1298 C1293 1.363 . S
C1298 C1297 1.415 . S
C1299 H1275 0.951 . S
C1299 C1300 1.366 . S
C1299 C1301 1.388 . S
C1300 C1299 1.366 . S
C1300 C1304 1.385 1_545 S
C1301 H1276 0.951 . S
C1301 C1299 1.388 . S
C1301 C1302 1.366 . S
C1302 C1301 1.366 . S
C1302 C1303 1.414 1_545 S
C1302 C1305 1.499 . S
C1303 H1277 0.950 . S
C1303 C1302 1.414 1_565 S
C1303 C1304 1.374 . S
C1304 H1278 0.950 . S
C1304 C1300 1.385 1_565 S
C1304 C1303 1.374 . S
C1305 C1302 1.499 . S
C1305 C1306 1.373 1_545 S
C1305 C1307 1.389 . S
C1306 H1279 0.950 . S
C1306 C1292 1.377 . S
C1306 C1305 1.373 1_565 S
C1307 C1291 1.377 . S
C1307 C1305 1.389 . S
C1307 C1308 1.524 . S
C1308 C1307 1.524 . S
C1308 C1309 1.397 . S
C1308 C1313 1.363 . S
C1309 H1280 0.907 1_545 S
C1309 C1308 1.397 . S
C1309 C1310 1.334 . S
C1310 H1281 0.950 . S
C1310 C1309 1.334 . S
C1310 C1311 1.287 . S
C1311 C1310 1.287 . S
C1311 C1312 1.524 . S
C1311 H1314 0.999 . S
C1312 H1282 0.950 . S
C1312 C1311 1.524 . S
C1312 C1313 1.415 . S
C1313 H1283 0.950 . S
C1313 C1308 1.363 . S
C1313 C1312 1.415 . S
H1314 C1311 0.999 . S
H1315 C1296 0.921 . S
H1316 C1334 0.951 . S
H1317 C1336 0.951 . S
H1318 C1338 0.950 . S
H1319 C1339 0.950 . S
H1320 C1341 0.950 . S
H1321 C1344 0.950 . S
H1322 C1345 0.950 . S
H1323 C1347 0.950 . S
H1324 C1348 0.950 . S
H1325 C1349 0.951 . S
H1326 C1351 0.951 . S
H1327 C1353 0.950 . S
H1328 C1354 0.950 . S
H1329 C1356 0.950 . S
H1330 C1359 0.950 . S
H1331 C1360 0.950 . S
H1332 C1362 0.950 1_554 S
H1333 C1363 0.950 . S
C1334 H1316 0.951 . S
C1334 C1335 1.366 . S
C1334 C1336 1.388 . S
C1335 C1334 1.366 . S
C1335 C1339 1.385 . S
C1336 H1317 0.951 . S
C1336 C1334 1.388 . S
C1336 C1337 1.366 . S
C1337 C1336 1.366 . S
C1337 C1338 1.414 . S
C1337 C1340 1.499 . S
C1338 H1318 0.950 . S
C1338 C1337 1.414 . S
C1338 C1339 1.374 . S
C1339 H1319 0.950 . S
C1339 C1335 1.385 . S
C1339 C1338 1.374 . S
C1340 C1337 1.499 . S
C1340 C1341 1.373 . S
C1340 C1342 1.389 . S
C1341 H1320 0.950 . S
C1341 C1340 1.373 . S
C1341 C1357 1.377 . S
C1342 C1340 1.389 . S
C1342 C1343 1.524 . S
C1342 C1356 1.377 . S
C1343 C1342 1.524 . S
C1343 C1344 1.397 . S
C1343 C1348 1.363 . S
C1344 H1321 0.950 . S
C1344 C1343 1.397 . S
C1344 C1345 1.334 . S
C1345 H1322 0.950 . S
C1345 C1344 1.334 . S
C1345 C1346 1.287 . S
C1346 C1345 1.287 . S
C1346 C1347 1.524 . S
C1346 H1365 0.913 . S
C1347 H1323 0.950 . S
C1347 C1346 1.524 . S
C1347 C1348 1.415 . S
C1348 H1324 0.950 . S
C1348 C1343 1.363 . S
C1348 C1347 1.415 . S
C1349 H1325 0.951 . S
C1349 C1350 1.366 . S
C1349 C1351 1.388 . S
C1350 C1349 1.366 . S
C1350 C1354 1.385 . S
C1351 H1326 0.951 . S
C1351 C1349 1.388 . S
C1351 C1352 1.366 . S
C1352 C1351 1.366 . S
C1352 C1353 1.414 . S
C1352 C1355 1.499 . S
C1353 H1327 0.950 . S
C1353 C1352 1.414 . S
C1353 C1354 1.374 . S
C1354 H1328 0.950 . S
C1354 C1350 1.385 . S
C1354 C1353 1.374 . S
C1355 C1352 1.499 . S
C1355 C1356 1.373 . S
C1355 C1357 1.389 . S
C1356 H1329 0.950 . S
C1356 C1342 1.377 . S
C1356 C1355 1.373 . S
C1357 C1341 1.377 . S
C1357 C1355 1.389 . S
C1357 C1358 1.524 . S
C1358 C1357 1.524 . S
C1358 C1359 1.397 . S
C1358 C1363 1.363 . S
C1359 H1330 0.950 . S
C1359 C1358 1.397 . S
C1359 C1360 1.334 . S
C1360 H1331 0.950 . S
C1360 C1359 1.334 . S
C1360 C1361 1.287 . S
C1361 C1360 1.287 . S
C1361 C1362 1.524 . S
C1361 H1364 0.999 . S
C1362 H1332 0.950 1_556 S
C1362 C1361 1.524 . S
C1362 C1363 1.415 . S
C1363 H1333 0.950 . S
C1363 C1358 1.363 . S
C1363 C1362 1.415 . S
H1364 C1361 0.999 . S
H1365 C1346 0.913 . S
H1366 C1384 0.951 . S
H1367 C1386 0.951 . S
H1368 C1388 0.950 . S
H1369 C1389 0.950 . S
H1370 C1391 0.950 . S
H1371 C1394 0.950 . S
H1372 C1395 0.950 . S
H1373 C1397 0.950 . S
H1374 C1398 0.950 . S
H1375 C1399 0.951 . S
H1376 C1401 0.951 . S
H1377 C1403 0.950 . S
H1378 C1404 0.950 . S
H1379 C1406 0.950 . S
H1380 C1409 0.950 . S
H1381 C1410 0.950 . S
H1382 C1412 0.950 . S
H1383 C1413 0.950 . S
C1384 H1366 0.951 . S
C1384 C1385 1.366 . S
C1384 C1386 1.388 . S
C1385 C1384 1.366 . S
C1385 C1389 1.385 . S
C1386 H1367 0.951 . S
C1386 C1384 1.388 . S
C1386 C1387 1.366 . S
C1387 C1386 1.366 . S
C1387 C1388 1.414 . S
C1387 C1390 1.499 . S
C1388 H1368 0.950 . S
C1388 C1387 1.414 . S
C1388 C1389 1.374 . S
C1389 H1369 0.950 . S
C1389 C1385 1.385 . S
C1389 C1388 1.374 . S
C1390 C1387 1.499 . S
C1390 C1391 1.373 . S
C1390 C1392 1.389 . S
C1391 H1370 0.950 . S
C1391 C1390 1.373 . S
C1391 C1407 1.377 . S
C1392 C1390 1.389 . S
C1392 C1393 1.524 . S
C1392 C1406 1.377 . S
C1393 C1392 1.524 . S
C1393 C1394 1.397 . S
C1393 C1398 1.363 . S
C1394 H1371 0.950 . S
C1394 C1393 1.397 . S
C1394 C1395 1.334 . S
C1395 H1372 0.950 . S
C1395 C1394 1.334 . S
C1395 C1396 1.287 . S
C1396 C1395 1.287 . S
C1396 C1397 1.524 . S
C1396 H1415 0.913 . S
C1397 H1373 0.950 . S
C1397 C1396 1.524 . S
C1397 C1398 1.415 . S
C1398 H1374 0.950 . S
C1398 C1393 1.363 . S
C1398 C1397 1.415 . S
C1399 H1375 0.951 . S
C1399 C1400 1.366 . S
C1399 C1401 1.388 . S
C1400 C1399 1.366 . S
C1400 C1404 1.385 . S
C1401 H1376 0.951 . S
C1401 C1399 1.388 . S
C1401 C1402 1.366 . S
C1402 C1401 1.366 . S
C1402 C1403 1.414 . S
C1402 C1405 1.499 . S
C1403 H1377 0.950 . S
C1403 C1402 1.414 . S
C1403 C1404 1.374 . S
C1404 H1378 0.950 . S
C1404 C1400 1.385 . S
C1404 C1403 1.374 . S
C1405 C1402 1.499 . S
C1405 C1406 1.373 . S
C1405 C1407 1.389 . S
C1406 H1379 0.950 . S
C1406 C1392 1.377 . S
C1406 C1405 1.373 . S
C1407 C1391 1.377 . S
C1407 C1405 1.389 . S
C1407 C1408 1.524 . S
C1408 C1407 1.524 . S
C1408 C1409 1.397 . S
C1408 C1413 1.363 . S
C1409 H1380 0.950 . S
C1409 C1408 1.397 . S
C1409 C1410 1.334 . S
C1410 H1381 0.950 . S
C1410 C1409 1.334 . S
C1410 C1411 1.287 . S
C1411 C1410 1.287 . S
C1411 C1412 1.524 . S
C1411 H1414 0.999 . S
C1412 H1382 0.950 . S
C1412 C1411 1.524 . S
C1412 C1413 1.415 . S
C1413 H1383 0.950 . S
C1413 C1408 1.363 . S
C1413 C1412 1.415 . S
H1414 C1411 0.999 . S
H1415 C1396 0.913 . S
H1416 C1434 0.951 . S
H1417 C1436 0.951 . S
H1418 C1438 0.953 . S
H1419 C1439 0.950 . S
H1420 C1441 0.950 . S
H1421 C1444 0.950 . S
H1422 C1445 0.950 . S
H1423 C1447 0.950 . S
H1424 C1448 0.950 . S
H1425 C1449 0.951 . S
H1426 C1451 0.954 . S
H1427 C1453 0.950 . S
H1428 C1454 0.950 . S
H1429 C1456 0.950 . S
H1430 C1459 0.950 . S
H1431 C1460 0.950 . S
H1432 C1462 0.950 . S
H1433 C1463 0.950 . S
C1434 H1416 0.951 . S
C1434 C1435 1.366 . S
C1434 C1436 1.388 . S
C1435 C1434 1.366 . S
C1435 C1439 1.385 1_655 S
C1436 H1417 0.951 . S
C1436 C1434 1.388 . S
C1436 C1437 1.366 . S
C1437 C1436 1.366 . S
C1437 C1438 1.411 1_655 S
C1437 C1440 1.499 . S
C1438 H1418 0.953 . S
C1438 C1437 1.411 1_455 S
C1438 C1439 1.375 . S
C1439 H1419 0.950 . S
C1439 C1435 1.385 1_455 S
C1439 C1438 1.375 . S
C1440 C1437 1.499 . S
C1440 C1441 1.373 1_655 S
C1440 C1442 1.389 . S
C1441 H1420 0.950 . S
C1441 C1440 1.373 1_455 S
C1441 C1457 1.377 . S
C1442 C1440 1.389 . S
C1442 C1443 1.524 . S
C1442 C1456 1.377 . S
C1443 C1442 1.524 . S
C1443 C1444 1.397 . S
C1443 C1448 1.363 . S
C1444 H1421 0.950 . S
C1444 C1443 1.397 . S
C1444 C1445 1.334 . S
C1445 H1422 0.950 . S
C1445 C1444 1.334 . S
C1445 C1446 1.287 . S
C1446 C1445 1.287 . S
C1446 C1447 1.524 . S
C1446 H1465 0.913 . S
C1447 H1423 0.950 . S
C1447 C1446 1.524 . S
C1447 C1448 1.415 . S
C1448 H1424 0.950 . S
C1448 C1443 1.363 . S
C1448 C1447 1.415 . S
C1449 H1425 0.951 . S
C1449 C1450 1.366 . S
C1449 C1451 1.388 . S
C1450 C1449 1.366 . S
C1450 C1454 1.385 . S
C1451 H1426 0.954 . S
C1451 C1449 1.388 . S
C1451 C1452 1.366 . S
C1452 C1451 1.366 . S
C1452 C1453 1.414 . S
C1452 C1455 1.499 . S
C1453 H1427 0.950 . S
C1453 C1452 1.414 . S
C1453 C1454 1.374 . S
C1454 H1428 0.950 . S
C1454 C1450 1.385 . S
C1454 C1453 1.374 . S
C1455 C1452 1.499 . S
C1455 C1456 1.373 . S
C1455 C1457 1.389 1_655 S
C1456 H1429 0.950 . S
C1456 C1442 1.377 . S
C1456 C1455 1.373 . S
C1457 C1441 1.377 . S
C1457 C1455 1.389 1_455 S
C1457 C1458 1.524 . S
C1458 C1457 1.524 . S
C1458 C1459 1.397 . S
C1458 C1463 1.363 . S
C1459 H1430 0.950 . S
C1459 C1458 1.397 . S
C1459 C1460 1.334 . S
C1460 H1431 0.950 . S
C1460 C1459 1.334 . S
C1460 C1461 1.287 . S
C1461 C1460 1.287 . S
C1461 C1462 1.524 . S
C1461 H1464 0.999 . S
C1462 H1432 0.950 . S
C1462 C1461 1.524 . S
C1462 C1463 1.415 . S
C1463 H1433 0.950 . S
C1463 C1458 1.363 . S
C1463 C1462 1.415 . S
H1464 C1461 0.999 . S
H1465 C1446 0.913 . S
H1466 C1484 0.951 . S
H1467 C1486 0.951 . S
H1468 C1488 0.957 . S
H1469 C1489 0.950 . S
H1470 C1491 0.950 . S
H1471 C1494 0.950 . S
H1472 C1495 0.950 . S
H1473 C1497 0.950 . S
H1474 C1498 0.950 . S
H1475 C1499 0.951 . S
H1476 C1501 0.951 . S
H1477 C1503 0.950 . S
H1478 C1504 0.950 . S
H1479 C1506 0.950 . S
H1480 C1509 0.950 . S
H1481 C1510 0.950 . S
H1482 C1512 0.950 . S
H1483 C1513 0.950 . S
C1484 H1466 0.951 . S
C1484 C1485 1.374 . S
C1484 C1486 1.388 . S
C1485 C1484 1.374 . S
C1485 C1489 1.379 1_565 S
C1486 H1467 0.951 . S
C1486 C1484 1.388 . S
C1486 C1487 1.366 . S
C1487 C1486 1.366 . S
C1487 C1488 1.409 1_565 S
C1487 C1490 1.499 . S
C1488 H1468 0.957 . S
C1488 C1487 1.409 1_545 S
C1488 C1489 1.376 . S
C1489 H1469 0.950 . S
C1489 C1485 1.379 1_545 S
C1489 C1488 1.376 . S
C1490 C1487 1.499 . S
C1490 C1491 1.373 . S
C1490 C1492 1.389 1_565 S
C1491 H1470 0.950 . S
C1491 C1490 1.373 . S
C1491 C1507 1.377 . S
C1492 C1490 1.389 1_545 S
C1492 C1493 1.524 . S
C1492 C1506 1.377 . S
C1493 C1492 1.524 . S
C1493 C1494 1.397 . S
C1493 C1498 1.363 . S
C1494 H1471 0.950 . S
C1494 C1493 1.397 . S
C1494 C1495 1.334 . S
C1495 H1472 0.950 . S
C1495 C1494 1.334 . S
C1495 C1496 1.287 . S
C1496 C1495 1.287 . S
C1496 C1497 1.524 . S
C1496 H1515 0.913 . S
C1497 H1473 0.950 . S
C1497 C1496 1.524 . S
C1497 C1498 1.415 . S
C1498 H1474 0.950 . S
C1498 C1493 1.363 . S
C1498 C1497 1.415 . S
C1499 H1475 0.951 . S
C1499 C1500 1.366 . S
C1499 C1501 1.388 . S
C1500 C1499 1.366 . S
C1500 C1504 1.385 . S
C1501 H1476 0.951 . S
C1501 C1499 1.388 . S
C1501 C1502 1.366 . S
C1502 C1501 1.366 . S
C1502 C1503 1.414 . S
C1502 C1505 1.499 . S
C1503 H1477 0.950 . S
C1503 C1502 1.414 . S
C1503 C1504 1.374 . S
C1504 H1478 0.950 . S
C1504 C1500 1.385 . S
C1504 C1503 1.374 . S
C1505 C1502 1.499 . S
C1505 C1506 1.373 1_565 S
C1505 C1507 1.389 . S
C1506 H1479 0.950 . S
C1506 C1492 1.377 . S
C1506 C1505 1.373 1_545 S
C1507 C1491 1.377 . S
C1507 C1505 1.389 . S
C1507 C1508 1.524 . S
C1508 C1507 1.524 . S
C1508 C1509 1.397 . S
C1508 C1513 1.363 . S
C1509 H1480 0.950 . S
C1509 C1508 1.397 . S
C1509 C1510 1.334 . S
C1510 H1481 0.950 . S
C1510 C1509 1.334 . S
C1510 C1511 1.287 . S
C1511 C1510 1.287 . S
C1511 C1512 1.524 . S
C1511 H1514 0.999 . S
C1512 H1482 0.950 . S
C1512 C1511 1.524 . S
C1512 C1513 1.415 . S
C1513 H1483 0.950 . S
C1513 C1508 1.363 . S
C1513 C1512 1.415 . S
H1514 C1511 0.999 . S
H1515 C1496 0.913 . S
H1516 C1534 0.951 . S
H1517 C1536 0.951 . S
H1518 C1538 0.950 . S
H1519 C1539 0.950 . S
H1520 C1541 0.950 . S
H1521 C1544 0.950 . S
H1522 C1545 0.950 . S
H1523 C1547 0.950 . S
H1524 C1548 0.950 . S
H1525 C1549 0.951 . S
H1526 C1551 0.951 . S
H1527 C1553 0.950 . S
H1528 C1554 0.950 . S
H1529 C1556 0.950 . S
H1530 C1559 0.950 . S
H1531 C1560 0.950 . S
H1532 C1562 0.950 . S
H1533 C1563 0.950 . S
C1534 H1516 0.951 . S
C1534 C1535 1.366 . S
C1534 C1536 1.388 . S
C1535 C1534 1.366 . S
C1535 C1539 1.385 . S
C1536 H1517 0.951 . S
C1536 C1534 1.388 . S
C1536 C1537 1.366 . S
C1537 C1536 1.366 . S
C1537 C1538 1.414 . S
C1537 C1540 1.499 . S
C1538 H1518 0.950 . S
C1538 C1537 1.414 . S
C1538 C1539 1.374 . S
C1539 H1519 0.950 . S
C1539 C1535 1.385 . S
C1539 C1538 1.374 . S
C1540 C1537 1.499 . S
C1540 C1541 1.373 . S
C1540 C1542 1.389 . S
C1541 H1520 0.950 . S
C1541 C1540 1.373 . S
C1541 C1557 1.377 . S
C1542 C1540 1.389 . S
C1542 C1543 1.524 . S
C1542 C1556 1.377 . S
C1543 C1542 1.524 . S
C1543 C1544 1.397 . S
C1543 C1548 1.363 . S
C1544 H1521 0.950 . S
C1544 C1543 1.397 . S
C1544 C1545 1.334 . S
C1545 H1522 0.950 . S
C1545 C1544 1.334 . S
C1545 C1546 1.287 . S
C1546 C1545 1.287 . S
C1546 C1547 1.524 . S
C1546 H1565 0.913 . S
C1547 H1523 0.950 . S
C1547 C1546 1.524 . S
C1547 C1548 1.415 . S
C1548 H1524 0.950 . S
C1548 C1543 1.363 . S
C1548 C1547 1.415 . S
C1549 H1525 0.951 . S
C1549 C1550 1.366 . S
C1549 C1551 1.388 . S
C1550 C1549 1.366 . S
C1550 C1554 1.385 . S
C1551 H1526 0.951 . S
C1551 C1549 1.388 . S
C1551 C1552 1.366 . S
C1552 C1551 1.366 . S
C1552 C1553 1.414 . S
C1552 C1555 1.499 . S
C1553 H1527 0.950 . S
C1553 C1552 1.414 . S
C1553 C1554 1.374 . S
C1554 H1528 0.950 . S
C1554 C1550 1.385 . S
C1554 C1553 1.374 . S
C1555 C1552 1.499 . S
C1555 C1556 1.373 . S
C1555 C1557 1.389 . S
C1556 H1529 0.950 . S
C1556 C1542 1.377 . S
C1556 C1555 1.373 . S
C1557 C1541 1.377 . S
C1557 C1555 1.389 . S
C1557 C1558 1.524 . S
C1558 C1557 1.524 . S
C1558 C1559 1.397 . S
C1558 C1563 1.363 . S
C1559 H1530 0.950 . S
C1559 C1558 1.397 . S
C1559 C1560 1.334 . S
C1560 H1531 0.950 . S
C1560 C1559 1.334 . S
C1560 C1561 1.287 . S
C1561 C1560 1.287 . S
C1561 C1562 1.524 . S
C1561 H1564 0.999 . S
C1562 H1532 0.950 . S
C1562 C1561 1.524 . S
C1562 C1563 1.415 . S
C1563 H1533 0.950 . S
C1563 C1558 1.363 . S
C1563 C1562 1.415 . S
H1564 C1561 0.999 . S
H1565 C1546 0.913 . S
H1566 C1584 0.951 . S
H1567 C1586 0.951 . S
H1568 C1588 0.950 . S
H1569 C1589 0.950 . S
H1570 C1591 0.950 . S
H1571 C1594 0.950 . S
H1572 C1595 0.950 . S
H1573 C1597 0.950 . S
H1574 C1598 0.950 . S
H1575 C1599 0.951 . S
H1576 C1601 0.951 . S
H1577 C1603 0.950 . S
H1578 C1604 0.950 . S
H1579 C1606 0.950 . S
H1580 C1609 0.950 . S
H1581 C1610 0.950 . S
H1582 C1612 0.950 . S
H1583 C1613 0.950 . S
C1584 H1566 0.951 . S
C1584 C1585 1.366 . S
C1584 C1586 1.388 . S
C1585 C1584 1.366 . S
C1585 C1589 1.385 . S
C1586 H1567 0.951 . S
C1586 C1584 1.388 . S
C1586 C1587 1.366 . S
C1587 C1586 1.366 . S
C1587 C1588 1.414 . S
C1587 C1590 1.499 . S
C1588 H1568 0.950 . S
C1588 C1587 1.414 . S
C1588 C1589 1.374 . S
C1589 H1569 0.950 . S
C1589 C1585 1.385 . S
C1589 C1588 1.374 . S
C1590 C1587 1.499 . S
C1590 C1591 1.373 . S
C1590 C1592 1.389 . S
C1591 H1570 0.950 . S
C1591 C1590 1.373 . S
C1591 C1607 1.377 . S
C1592 C1590 1.389 . S
C1592 C1593 1.524 . S
C1592 C1606 1.377 . S
C1593 C1592 1.524 . S
C1593 C1594 1.397 . S
C1593 C1598 1.363 . S
C1594 H1571 0.950 . S
C1594 C1593 1.397 . S
C1594 C1595 1.334 . S
C1595 H1572 0.950 . S
C1595 C1594 1.334 . S
C1595 C1596 1.287 . S
C1596 C1595 1.287 . S
C1596 C1597 1.524 . S
C1596 H1615 0.913 . S
C1597 H1573 0.950 . S
C1597 C1596 1.524 . S
C1597 C1598 1.415 . S
C1598 H1574 0.950 . S
C1598 C1593 1.363 . S
C1598 C1597 1.415 . S
C1599 H1575 0.951 . S
C1599 C1600 1.366 . S
C1599 C1601 1.388 . S
C1600 C1599 1.366 . S
C1600 C1604 1.385 . S
C1601 H1576 0.951 . S
C1601 C1599 1.388 . S
C1601 C1602 1.366 . S
C1602 C1601 1.366 . S
C1602 C1603 1.414 . S
C1602 C1605 1.499 . S
C1603 H1577 0.950 . S
C1603 C1602 1.414 . S
C1603 C1604 1.374 . S
C1604 H1578 0.950 . S
C1604 C1600 1.385 . S
C1604 C1603 1.374 . S
C1605 C1602 1.499 . S
C1605 C1606 1.373 . S
C1605 C1607 1.389 . S
C1606 H1579 0.950 . S
C1606 C1592 1.377 . S
C1606 C1605 1.373 . S
C1607 C1591 1.377 . S
C1607 C1605 1.389 . S
C1607 C1608 1.524 . S
C1608 C1607 1.524 . S
C1608 C1609 1.397 . S
C1608 C1613 1.363 . S
C1609 H1580 0.950 . S
C1609 C1608 1.397 . S
C1609 C1610 1.334 . S
C1610 H1581 0.950 . S
C1610 C1609 1.334 . S
C1610 C1611 1.287 . S
C1611 C1610 1.287 . S
C1611 C1612 1.524 . S
C1611 H1614 0.999 . S
C1612 H1582 0.950 . S
C1612 C1611 1.524 . S
C1612 C1613 1.415 . S
C1613 H1583 0.950 . S
C1613 C1608 1.363 . S
C1613 C1612 1.415 . S
H1614 C1611 0.999 . S
H1615 C1596 0.913 . S
C435 C215 1.823 . S
C450 C258 1.929 1_545 S
C500 C298 1.939 . S
C485 C247 1.820 . S
C550 C338 1.940 . S
C535 C151 1.826 . S
C600 C378 1.934 1_455 S
C585 C183 1.825 . S
C650 C271 1.934 1_565 S
C635 C87 1.827 . S
C685 C119 1.829 . S
C700 C311 1.943 . S
C735 C23 1.830 . S
C750 C351 1.939 . S
C785 C55 1.825 1_655 S
C800 C391 1.934 1_655 S
C850 C282 0.233 . S
C835 C189 0.246 . S
C900 C322 0.233 . S
C885 C221 0.251 . S
C950 C362 0.233 . S
C935 C253 0.258 . S
C985 C157 0.253 . S
C1000 C402 0.227 . S
C1035 C61 0.416 1_655 S
C1050 C265 0.230 . S
C1100 C305 0.234 . S
C1085 C93 0.402 1_565 S
C1150 C345 0.235 . S
C1135 C125 0.413 . S
C1185 C29 0.413 . S
C1200 C385 0.238 . S
C1235 C177 2.243 . S
C1250 C259 2.489 . S
C1285 C209 2.234 . S
C1300 C299 2.487 . S
C1350 C339 2.482 . S
C1335 C241 2.226 . S
C1400 C379 2.491 . S
C1385 C145 2.230 . S
C1435 C49 2.258 1_655 S
C1450 C278 2.503 . S
C1500 C318 2.487 . S
C1485 C81 2.241 1_565 S
C1550 C358 2.482 . S
C1535 C113 2.246 . S
C1585 C17 2.254 . S
C1600 C398 2.497 . S
