# Generated by pormake.
# Topology zzz, (3,6)-cn, num edge types: 1
# Building blocks:
#     Node 0, Type 0, BuildingBlock: KAKCAD_clean_linker_0, # of connection points: 3
#     Node 1, Type 0, BuildingBlock: KAKCAD_clean_linker_0, # of connection points: 3
#     Node 2, Type 0, BuildingBlock: KAKCAD_clean_linker_0, # of connection points: 3
#     Node 3, Type 0, BuildingBlock: KAKCAD_clean_linker_0, # of connection points: 3
#     Node 4, Type 0, BuildingBlock: KAKCAD_clean_linker_0, # of connection points: 3
#     Node 5, Type 0, BuildingBlock: KAKCAD_clean_linker_0, # of connection points: 3
#     Node 6, Type 0, BuildingBlock: KAKCAD_clean_linker_0, # of connection points: 3
#     Node 7, Type 0, BuildingBlock: KAKCAD_clean_linker_0, # of connection points: 3
#     Node 8, Type 1, BuildingBlock: BETDAH_clean_sbu_0, # of connection points: 6
#     Node 9, Type 1, BuildingBlock: BETDAH_clean_sbu_0, # of connection points: 6
#     Node 10, Type 1, BuildingBlock: BETDAH_clean_sbu_0, # of connection points: 6
#     Node 11, Type 1, BuildingBlock: BETDAH_clean_sbu_0, # of connection points: 6
#     Edge 12, Type (0, 1), BuildingBlock: XUDNAN_clean_linker_2, # of connection points: 2
#     Edge 13, Type (0, 1), BuildingBlock: XUDNAN_clean_linker_2, # of connection points: 2
#     Edge 14, Type (0, 1), BuildingBlock: XUDNAN_clean_linker_2, # of connection points: 2
#     Edge 15, Type (0, 1), BuildingBlock: XUDNAN_clean_linker_2, # of connection points: 2
#     Edge 16, Type (0, 1), BuildingBlock: XUDNAN_clean_linker_2, # of connection points: 2
#     Edge 17, Type (0, 1), BuildingBlock: XUDNAN_clean_linker_2, # of connection points: 2
#     Edge 18, Type (0, 1), BuildingBlock: XUDNAN_clean_linker_2, # of connection points: 2
#     Edge 19, Type (0, 1), BuildingBlock: XUDNAN_clean_linker_2, # of connection points: 2
#     Edge 20, Type (0, 1), BuildingBlock: XUDNAN_clean_linker_2, # of connection points: 2
#     Edge 21, Type (0, 1), BuildingBlock: XUDNAN_clean_linker_2, # of connection points: 2
#     Edge 22, Type (0, 1), BuildingBlock: XUDNAN_clean_linker_2, # of connection points: 2
#     Edge 23, Type (0, 1), BuildingBlock: XUDNAN_clean_linker_2, # of connection points: 2
#     Edge 24, Type (0, 1), BuildingBlock: XUDNAN_clean_linker_2, # of connection points: 2
#     Edge 25, Type (0, 1), BuildingBlock: XUDNAN_clean_linker_2, # of connection points: 2
#     Edge 26, Type (0, 1), BuildingBlock: XUDNAN_clean_linker_2, # of connection points: 2
#     Edge 27, Type (0, 1), BuildingBlock: XUDNAN_clean_linker_2, # of connection points: 2
#     Edge 28, Type (0, 1), BuildingBlock: XUDNAN_clean_linker_2, # of connection points: 2
#     Edge 29, Type (0, 1), BuildingBlock: XUDNAN_clean_linker_2, # of connection points: 2
#     Edge 30, Type (0, 1), BuildingBlock: XUDNAN_clean_linker_2, # of connection points: 2
#     Edge 31, Type (0, 1), BuildingBlock: XUDNAN_clean_linker_2, # of connection points: 2
#     Edge 32, Type (0, 1), BuildingBlock: XUDNAN_clean_linker_2, # of connection points: 2
#     Edge 33, Type (0, 1), BuildingBlock: XUDNAN_clean_linker_2, # of connection points: 2
#     Edge 34, Type (0, 1), BuildingBlock: XUDNAN_clean_linker_2, # of connection points: 2
#     Edge 35, Type (0, 1), BuildingBlock: XUDNAN_clean_linker_2, # of connection points: 2
# Relax obj value: 0.441
# Max RMSD: 0.272
# Mean RMSD: 0.255
data_MOF--net-zzz--node1-BETDAH_clean_sbu_0--node2-KAKCAD_clean_linker_0--edge1-XUDNAN_clean_linker_2
_symmetry_space_group_name_H-M    P1
_symmetry_Int_Tables_number       1
_symmetry_cell_setting            triclinic
loop_
_symmetry_equiv_pos_as_xyz
'x, y, z'
_cell_length_a     59.701811
_cell_length_b     59.799778
_cell_length_c     18.152666
_cell_angle_alpha  89.761134
_cell_angle_beta   90.177814
_cell_angle_gamma 89.877195
loop_
_atom_site_label
_atom_site_type_symbol
_atom_site_fract_x
_atom_site_fract_y
_atom_site_fract_z
_atom_type_partial_charge
C0 C 0.74671 0.43324 0.05475 0.0
C1 C 0.76479 0.42018 0.07996 0.0
C2 C 0.73514 0.44716 0.10309 0.0
C3 C 0.74111 0.44801 0.17811 0.0
C4 C 0.7575 0.4331 0.20463 0.0
C5 C 0.76931 0.41943 0.15606 0.0
C6 C 0.73226 0.46617 0.22579 0.0
C7 C 0.71029 0.47399 0.21687 0.0
C8 C 0.7028 0.49346 0.25241 0.0
C9 C 0.71769 0.50506 0.29947 0.0
C10 C 0.73955 0.49666 0.31171 0.0
C11 C 0.74659 0.47741 0.27448 0.0
C12 C 0.75635 0.50811 0.35868 0.0
C13 C 0.77092 0.52373 0.32684 0.0
C14 C 0.76137 0.49966 0.42915 0.0
C15 C 0.78095 0.50623 0.46624 0.0
C16 C 0.79619 0.52117 0.43315 0.0
C17 C 0.67988 0.50169 0.23366 0.0
C18 C 0.67666 0.52285 0.20107 0.0
C19 C 0.66195 0.48646 0.23346 0.0
C20 C 0.64216 0.49131 0.19529 0.0
C21 C 0.63964 0.51165 0.15727 0.0
C22 C 0.65663 0.52782 0.16331 0.0
C23 C 0.79057 0.53017 0.36346 0.0
H24 H 0.74251 0.4339 0.99668 0.0
H25 H 0.72265 0.45839 0.08031 0.0
H26 H 0.76211 0.43288 0.26238 0.0
H27 H 0.78315 0.40965 0.17768 0.0
H28 H 0.69912 0.46533 0.17949 0.0
H29 H 0.7638 0.47191 0.28092 0.0
H30 H 0.71235 0.52032 0.32619 0.0
H31 H 0.76781 0.52991 0.27154 0.0
H32 H 0.75067 0.48714 0.45405 0.0
H33 H 0.78438 0.49915 0.52008 0.0
H34 H 0.69025 0.53482 0.19961 0.0
H35 H 0.66389 0.47007 0.25835 0.0
H36 H 0.8019 0.54134 0.33504 0.0
H37 H 0.65511 0.54362 0.13426 0.0
H38 H 0.62926 0.47862 0.19208 0.0
C39 C 0.07939 0.77539 0.04812 0.0
C40 C 0.09792 0.78795 0.07234 0.0
C41 C 0.06697 0.76266 0.09778 0.0
C42 C 0.0726 0.7624 0.17281 0.0
C43 C 0.09212 0.77332 0.19629 0.0
C44 C 0.10485 0.78573 0.14628 0.0
C45 C 0.05654 0.7532 0.22677 0.0
C46 C 0.04745 0.73197 0.21682 0.0
C47 C 0.02991 0.72419 0.26143 0.0
C48 C 0.02114 0.7384 0.31664 0.0
C49 C 0.03063 0.75984 0.32855 0.0
C50 C 0.04834 0.76684 0.28297 0.0
C51 C 0.02165 0.77619 0.38359 0.0
C52 C 0.99853 0.77988 0.39125 0.0
C53 C 0.03642 0.79059 0.42115 0.0
C54 C 0.02849 0.80936 0.45892 0.0
C55 C 1.00543 0.81415 0.46187 0.0
C56 C 0.02088 0.70151 0.2451 0.0
C57 C 0.99838 0.69845 0.22426 0.0
C58 C 0.036 0.68368 0.23541 0.0
C59 C 0.0294 0.66415 0.19951 0.0
C60 C 1.0074 0.66175 0.17338 0.0
C61 C 0.99166 0.67864 0.18887 0.0
C62 C 0.99053 0.79851 0.43026 0.0
H63 H 0.07323 0.77678 0.99216 0.0
H64 H 0.05191 0.75444 0.07841 0.0
H65 H 0.09693 0.77307 0.25388 0.0
H66 H 0.11934 0.79468 0.16658 0.0
H67 H 0.05368 0.72165 0.17228 0.0
H68 H 0.05493 0.78365 0.28796 0.0
H69 H 1.00732 0.73271 0.35036 0.0
H70 H 0.98662 0.76915 0.36355 0.0
H71 H 0.05436 0.78803 0.41806 0.0
H72 H 0.04068 0.82073 0.48202 0.0
H73 H 0.98642 0.71197 0.23024 0.0
H74 H 0.05342 0.68549 0.25116 0.0
H75 H 0.9726 0.80103 0.43321 0.0
H76 H 0.97459 0.67719 0.16915 0.0
H77 H 0.04181 0.65131 0.189 0.0
C78 C 0.72279 0.1022 0.09825 0.0
C79 C 0.70645 0.11389 0.13861 0.0
C80 C 0.73767 0.08764 0.13374 0.0
C81 C 0.73712 0.08504 0.21077 0.0
C82 C 0.72314 0.09932 0.25157 0.0
C83 C 0.70774 0.11329 0.21602 0.0
C84 C 0.74837 0.06556 0.24701 0.0
C85 C 0.76832 0.05652 0.21924 0.0
C86 C 0.77708 0.03618 0.24648 0.0
C87 C 0.76602 0.02526 0.30528 0.0
C88 C 0.74632 0.03457 0.33498 0.0
C89 C 0.73767 0.05441 0.30515 0.0
C90 C 0.73318 0.02384 0.39455 0.0
C91 C 0.71801 1.0067 0.37765 0.0
C92 C 0.73126 0.03482 0.46245 0.0
C93 C 0.7137 0.02976 0.51058 0.0
C94 C 0.69748 0.0137 0.4917 0.0
C95 C 0.79734 0.02658 0.2104 0.0
C96 C 0.79894 0.02678 0.1331 0.0
C97 C 0.81586 0.01907 0.25168 0.0
C98 C 0.83592 0.0131 0.21637 0.0
C99 C 0.83783 0.0144 0.139 0.0
C100 C 0.81886 0.02087 0.09798 0.0
C101 C 0.70034 1.00165 0.42578 0.0
H102 H 0.72305 0.10296 0.03866 0.0
H103 H 0.74832 0.07723 0.09998 0.0
H104 H 0.72292 0.09858 0.31118 0.0
H105 H 0.69573 0.1221 0.24974 0.0
H106 H 0.77704 0.06523 0.17548 0.0
H107 H 0.72179 0.06055 0.32576 0.0
H108 H 0.77241 1.00955 0.32673 0.0
H109 H 0.71883 0.99836 0.32485 0.0
H110 H 0.7424 0.04851 0.4758 0.0
H111 H 0.71201 0.03961 0.56018 0.0
H112 H 0.78488 0.03218 0.09954 0.0
H113 H 0.81516 0.01872 0.31129 0.0
H114 H 0.68838 0.98895 0.40985 0.0
H115 H 0.81958 0.02237 0.03858 0.0
H116 H 0.85005 1.00788 0.2498 0.0
C117 C 0.50935 0.71542 0.43081 0.0
C118 C 0.52782 0.70767 0.47211 0.0
C119 C 0.51024 0.73615 0.39403 0.0
C120 C 0.52951 0.74958 0.39841 0.0
C121 C 0.54702 0.74278 0.44529 0.0
C122 C 0.54615 0.72214 0.48193 0.0
C123 C 0.53445 0.76573 0.33823 0.0
C124 C 0.52498 0.7874 0.33309 0.0
C125 C 0.52947 0.8009 0.27055 0.0
C126 C 0.54257 0.79231 0.21318 0.0
C127 C 0.55169 0.77085 0.21784 0.0
C128 C 0.54804 0.75793 0.28095 0.0
C129 C 0.56114 0.75998 0.15228 0.0
C130 C 0.54701 0.75605 0.09215 0.0
C131 C 0.58224 0.74968 0.15498 0.0
C132 C 0.58824 0.73404 0.10144 0.0
C133 C 0.5728 0.72773 0.0464 0.0
C134 C 0.51999 0.82358 0.25942 0.0
C135 C 0.50069 0.82617 0.21584 0.0
C136 C 0.53348 0.84235 0.27287 0.0
C137 C 0.52854 0.863 0.23955 0.0
C138 C 0.51017 0.86521 0.1912 0.0
C139 C 0.49579 0.84676 0.18225 0.0
C140 C 0.55262 0.73995 0.04018 0.0
H141 H 0.49502 0.70469 0.42172 0.0
H142 H 0.49676 0.74069 0.35675 0.0
H143 H 0.56224 0.75257 0.44853 0.0
H144 H 0.56053 0.71688 0.51422 0.0
H145 H 0.5142 0.79355 0.37643 0.0
H146 H 0.55452 0.74096 0.28322 0.0
H147 H 0.54509 0.80212 0.16346 0.0
H148 H 0.53057 0.76374 0.08941 0.0
H149 H 0.59344 0.75268 0.20093 0.0
H150 H 0.60431 0.72576 0.10667 0.0
H151 H 0.49035 0.81181 0.20315 0.0
H152 H 0.54881 0.8406 0.30449 0.0
H153 H 0.53997 0.73579 0.99983 0.0
H154 H 0.48133 0.84792 0.14624 0.0
H155 H 0.54009 0.87673 0.24729 0.0
C156 C 0.25063 0.48397 0.40003 0.0
C157 C 0.22795 0.47834 0.40849 0.0
C158 C 0.26102 0.48168 0.33174 0.0
C159 C 0.24915 0.47299 0.27111 0.0
C160 C 0.22764 0.46432 0.28266 0.0
C161 C 0.21704 0.46722 0.35012 0.0
C162 C 0.2578 0.47603 0.19509 0.0
C163 C 0.28078 0.4754 0.18167 0.0
C164 C 0.28971 0.48289 0.11465 0.0
C165 C 0.27501 0.49016 0.05783 0.0
C166 C 0.25154 0.48939 0.06917 0.0
C167 C 0.24332 0.48258 0.13793 0.0
C168 C 0.23456 0.49693 0.01415 0.0
C169 C 0.22473 0.51813 0.02246 0.0
C170 C 0.22342 0.48103 0.97053 0.0
C171 C 0.20221 0.48573 0.94005 0.0
C172 C 0.19152 0.5063 0.95376 0.0
C173 C 0.31451 0.48498 0.11238 0.0
C174 C 0.32431 0.50623 0.11935 0.0
C175 C 0.32752 0.46603 0.13004 0.0
C176 C 0.34866 0.46833 0.16256 0.0
C177 C 0.35751 0.48963 0.17649 0.0
C178 C 0.34573 0.50853 0.15079 0.0
C179 C 0.2035 0.52277 0.99265 0.0
H180 H 0.25986 0.49182 0.44431 0.0
H181 H 0.2777 0.48845 0.32548 0.0
H182 H 0.21832 0.45679 0.23795 0.0
H183 H 0.19959 0.46251 0.35331 0.0
H184 H 0.29204 0.47018 0.2255 0.0
H185 H 0.22544 0.48357 0.14774 0.0
H186 H 0.28167 0.49642 1.00632 0.0
H187 H 0.23262 0.5305 0.05738 0.0
H188 H 0.23027 0.46433 0.96511 0.0
H189 H 0.19345 0.47261 0.91087 0.0
H190 H 0.31453 0.52113 0.10781 0.0
H191 H 0.32028 0.44947 0.12628 0.0
H192 H 0.19591 0.53887 1.00364 0.0
H193 H 0.3522 0.52515 0.16089 0.0
H194 H 0.35748 0.45349 0.18118 0.0
C195 C 0.06401 0.25992 0.4277 0.0
C196 C 0.07165 0.23765 0.4237 0.0
C197 C 0.05983 0.27216 0.36346 0.0
C198 C 0.0647 0.26302 0.2939 0.0
C199 C 0.07744 0.24326 0.29188 0.0
C200 C 0.0805 0.23049 0.3556 0.0
C201 C 0.05326 0.27158 0.22587 0.0
C202 C 0.04552 0.29366 0.22168 0.0
C203 C 0.02982 0.30024 0.16828 0.0
C204 C 0.02325 0.28497 0.11294 0.0
C205 C 0.03248 0.26311 0.11203 0.0
C206 C 0.0468 0.25663 0.17007 0.0
C207 C 0.02677 0.2459 0.05494 0.0
C208 C 1.0046 0.24219 0.03139 0.0
C209 C 0.04356 0.23116 0.02996 0.0
C210 C 0.03827 0.21252 0.98702 0.0
C211 C 0.01604 0.20818 0.96624 0.0
C212 C 0.01884 0.3222 0.1802 0.0
C213 C 1.00166 0.32344 0.23279 0.0
C214 C 0.02978 0.34199 0.1591 0.0
C215 C 0.02447 0.36241 0.19299 0.0
C216 C 1.00854 0.36326 0.24994 0.0
C217 C 0.99665 0.3437 0.26756 0.0
C218 C 0.99932 0.22358 0.98724 0.0
H219 H 0.05904 0.2673 0.47938 0.0
H220 H 0.05084 0.28776 0.36911 0.0
H221 H 0.08322 0.23645 0.24012 0.0
H222 H 0.08784 0.21416 0.34833 0.0
H223 H 0.05053 0.30567 0.26304 0.0
H224 H 0.05174 0.23925 0.17378 0.0
H225 H 0.01111 0.29003 0.07162 0.0
H226 H 0.99121 0.25304 0.04979 0.0
H227 H 0.0609 0.23368 0.04555 0.0
H228 H 0.05163 0.20137 0.97042 0.0
H229 H 0.99344 0.30833 0.25163 0.0
H230 H 0.04358 0.34136 0.12055 0.0
H231 H 0.98201 0.22076 0.97196 0.0
H232 H 0.98419 0.34386 0.31081 0.0
H233 H 0.034 0.37717 0.17852 0.0
C234 C 0.25337 0.9866 0.41544 0.0
C235 C 0.27534 0.99382 0.42953 0.0
C236 C 0.24139 0.99526 0.35546 0.0
C237 C 0.25125 0.01125 0.30879 0.0
C238 C 0.27247 0.01968 0.32622 0.0
C239 C 0.28442 0.01102 0.38566 0.0
C240 C 0.24061 0.01735 0.23796 0.0
C241 C 0.2178 0.02225 0.23413 0.0
C242 C 0.20731 0.0264 0.16622 0.0
C243 C 0.22002 0.02555 0.10054 0.0
C244 C 0.24325 0.02089 0.10439 0.0
C245 C 0.25322 0.0169 0.17312 0.0
C246 C 0.25796 0.01868 0.03905 0.0
C247 C 0.26487 0.99722 0.0177 0.0
C248 C 0.26997 0.03725 0.01301 0.0
C249 C 0.28911 0.03435 0.96909 0.0
C250 C 0.29685 0.01275 0.951 0.0
C251 C 0.18281 0.03029 0.16834 0.0
C252 C 0.16826 0.01208 0.15982 0.0
C253 C 0.17474 0.0498 0.20201 0.0
C254 C 0.15316 0.05047 0.23195 0.0
C255 C 0.13921 0.03154 0.22941 0.0
C256 C 0.14664 0.0127 0.18987 0.0
C257 C 0.28401 0.99428 0.97436 0.0
H258 H 0.24586 0.97352 0.44855 0.0
H259 H 0.22501 0.98848 0.34306 0.0
H260 H 0.28029 0.03222 0.29164 0.0
H261 H 0.30143 0.0168 0.39368 0.0
H262 H 0.20801 0.02255 0.2844 0.0
H263 H 0.27088 0.01265 0.17571 0.0
H264 H 0.21199 0.02827 0.04766 0.0
H265 H 0.25638 0.98259 0.03914 0.0
H266 H 0.26538 0.05394 0.03048 0.0
H267 H 0.29823 0.04903 0.95138 0.0
H268 H 0.1743 0.99662 0.13603 0.0
H269 H 0.18581 0.06389 0.21066 0.0
H270 H 0.28943 0.97735 0.96314 0.0
H271 H 0.1365 0.99774 0.18714 0.0
H272 H 0.14788 0.0654 0.26069 0.0
C273 C 0.48934 0.29633 0.98069 0.0
C274 C 0.504 0.30999 0.93925 0.0
C275 C 0.49717 0.27707 0.01756 0.0
C276 C 0.51984 0.27083 0.01349 0.0
C277 C 0.53397 0.28335 0.96695 0.0
C278 C 0.52627 0.30267 0.93102 0.0
C279 C 0.52979 0.25401 0.06578 0.0
C280 C 0.51954 0.23326 0.08335 0.0
C281 C 0.5297 0.21856 0.13524 0.0
C282 C 0.54941 0.22529 0.1713 0.0
C283 C 0.55924 0.24593 0.15615 0.0
C284 C 0.54963 0.25993 0.10283 0.0
C285 C 0.57767 0.25445 0.20279 0.0
C286 C 0.59636 0.26486 0.17105 0.0
C287 C 0.5749 0.25519 0.27943 0.0
C288 C 0.58913 0.26818 0.32263 0.0
C289 C 0.60658 0.28054 0.29006 0.0
C290 C 0.52003 0.19654 0.15723 0.0
C291 C 0.49859 0.19508 0.18869 0.0
C292 C 0.53415 0.17767 0.16082 0.0
C293 C 0.52784 0.15856 0.2002 0.0
C294 C 0.50712 0.15768 0.23658 0.0
C295 C 0.49216 0.17577 0.22782 0.0
C296 C 0.61088 0.27755 0.21449 0.0
H297 H 0.47189 0.30087 0.98686 0.0
H298 H 0.48578 0.26787 0.05269 0.0
H299 H 0.55147 0.27887 0.96146 0.0
H300 H 0.53826 0.31248 0.90027 0.0
H301 H 0.50407 0.22847 0.0564 0.0
H302 H 0.55693 0.2763 0.09366 0.0
H303 H 0.55679 0.21468 0.21354 0.0
H304 H 0.59899 0.26422 0.11207 0.0
H305 H 0.56055 0.24737 0.3052 0.0
H306 H 0.58503 0.27012 0.38029 0.0
H307 H 0.48747 0.20941 0.18763 0.0
H308 H 0.55075 0.17824 0.13687 0.0
H309 H 0.6245 0.28634 0.18787 0.0
H310 H 0.47606 0.17558 0.25519 0.0
H311 H 0.53957 0.14477 0.20462 0.0
Ho312 Ho 1.00977 1.00638 0.75718 0.0
Ho313 Ho 0.97661 0.01994 0.64371 0.0
C314 C 0.98696 0.96806 0.65005 0.0
C315 C 0.03152 0.98756 0.86367 0.0
C316 C 0.04641 0.9681 0.86908 0.0
C317 C 0.04738 0.95598 0.93499 0.0
C318 C 0.06088 0.93699 0.94052 0.0
C319 C 0.07387 0.92987 0.88027 0.0
C320 C 0.0729 0.94218 0.81417 0.0
C321 C 0.05919 0.9611 0.80851 0.0
C322 C 0.02851 0.01865 0.62717 0.0
C323 C 0.99945 0.05751 0.74695 0.0
C324 C 0.95973 0.04262 0.53738 0.0
C325 C 0.9703 0.06345 0.51172 0.0
C326 C 0.9938 0.06447 0.51024 0.0
C327 C 1.00479 0.08489 0.51189 0.0
C328 C 0.99259 0.105 0.51294 0.0
C329 C 0.96902 0.10401 0.50725 0.0
C330 C 0.95796 0.08337 0.50759 0.0
C331 C 0.95762 1.00725 0.7723 0.0
O332 O 0.99982 0.97261 0.70799 0.0
O333 O 0.97662 0.98402 0.61271 0.0
O334 O 0.03921 1.00455 0.82602 0.0
O335 O 1.01051 0.98319 0.849 0.0
O336 O 0.03735 0.02267 0.69094 0.0
O337 O 0.01101 1.00727 0.63583 0.0
O338 O 0.99332 0.0522 0.6793 0.0
O339 O 1.00364 0.04156 0.7954 0.0
O340 O 0.9518 0.0437 0.60435 0.0
O341 O 0.97132 0.02434 0.52641 0.0
O342 O 0.94903 1.0034 0.70775 0.0
O343 O 0.97517 0.01883 0.76533 0.0
H344 H 0.03742 0.96102 0.98192 0.0
H345 H 0.06064 0.92759 0.99161 0.0
H346 H 0.08269 0.93721 0.76684 0.0
H347 H 0.05847 0.97018 0.75677 0.0
H348 H 1.00384 0.04947 0.51461 0.0
H349 H 0.02284 0.08466 0.51744 0.0
H350 H 0.95902 0.11911 0.50564 0.0
H351 H 0.93983 0.08301 0.50948 0.0
Ho352 Ho 0.50175 0.0316 0.78278 0.0
Ho353 Ho 0.49434 0.99689 0.65491 0.0
C354 C 0.5443 0.01302 0.69503 0.0
C355 C 0.50584 0.05627 0.8982 0.0
C356 C 0.52188 0.07395 0.91668 0.0
C357 C 0.52486 0.08066 0.98994 0.0
C358 C 0.54237 0.09514 0.00852 0.0
C359 C 0.55716 0.10291 0.95396 0.0
C360 C 0.55322 0.09717 0.88009 0.0
C361 C 0.53579 0.08276 0.86167 0.0
C362 C 0.50198 0.04841 0.6436 0.0
C363 C 0.45194 1.00965 0.75621 0.0
C364 C 0.48363 0.97781 0.53352 0.0
C365 C 0.46464 0.9627 0.52207 0.0
C366 C 0.45062 0.96616 0.46108 0.0
C367 C 0.42853 0.95861 0.46295 0.0
C368 C 0.42039 0.94752 0.52567 0.0
C369 C 0.43508 0.94179 0.58283 0.0
C370 C 0.45715 0.94932 0.58104 0.0
C371 C 0.49998 0.9751 0.78662 0.0
O372 O 0.53698 0.01992 0.76011 0.0
O373 O 0.53043 1.00686 0.64173 0.0
O374 O 0.49199 0.06091 0.84409 0.0
O375 O 0.51455 0.0362 0.89311 0.0
O376 O 0.51451 0.0556 0.69669 0.0
O377 O 0.48922 0.03329 0.66792 0.0
O378 O 0.45912 0.99932 0.69635 0.0
O379 O 0.46527 0.02196 0.79849 0.0
O380 O 0.49978 0.97035 0.57611 0.0
O381 O 0.47764 0.99831 0.54942 0.0
O382 O 0.49649 0.96518 0.72442 0.0
O383 O 0.50032 0.99573 0.7735 0.0
H384 H 0.5143 0.07393 0.03307 0.0
H385 H 0.54518 0.0991 0.06599 0.0
H386 H 0.5643 0.10301 0.83696 0.0
H387 H 0.53379 0.07775 0.80483 0.0
H388 H 0.45597 0.97665 0.41566 0.0
H389 H 0.41722 0.96338 0.41876 0.0
H390 H 0.42892 0.93354 0.63203 0.0
H391 H 0.46757 0.94661 0.62917 0.0
Ho392 Ho 0.48121 0.51522 0.71936 0.0
Ho393 Ho 0.51607 0.49505 0.60521 0.0
C394 C 0.51058 0.54858 0.61378 0.0
C395 C 0.46493 0.53924 0.82271 0.0
C396 C 0.4744 0.56055 0.84877 0.0
C397 C 0.47976 0.57739 0.79767 0.0
C398 C 0.49512 0.59399 0.81565 0.0
C399 C 0.50486 0.59467 0.88612 0.0
C400 C 0.49779 0.57905 0.93949 0.0
C401 C 0.48284 0.56203 0.92075 0.0
C402 C 0.46402 0.50042 0.59006 0.0
C403 C 0.49127 0.46227 0.72501 0.0
C404 C 0.53392 0.4766 0.49204 0.0
C405 C 0.55021 0.45844 0.48291 0.0
C406 C 0.54958 0.44537 0.41929 0.0
C407 C 0.56447 0.42755 0.41103 0.0
C408 C 0.58041 0.42257 0.4662 0.0
C409 C 0.58109 0.4359 0.52977 0.0
C410 C 0.56605 0.45363 0.53818 0.0
C411 C 0.53599 0.50288 0.73788 0.0
O412 O 0.49838 0.54606 0.67408 0.0
O413 O 0.51751 0.53143 0.57386 0.0
O414 O 0.45651 0.53926 0.75581 0.0
O415 O 0.47775 0.52184 0.83564 0.0
O416 O 0.45347 0.49939 0.65269 0.0
O417 O 0.48246 0.51033 0.59925 0.0
O418 O 0.5022 0.46397 0.66144 0.0
O419 O 0.48315 0.47989 0.76022 0.0
O420 O 0.54174 0.49488 0.52227 0.0
O421 O 0.51426 0.47067 0.51774 0.0
O422 O 0.54627 0.49385 0.68257 0.0
O423 O 0.5162 0.50643 0.71779 0.0
H424 H 0.47336 0.57688 0.74191 0.0
H425 H 0.50024 0.60547 0.77278 0.0
H426 H 0.50436 0.57947 0.99512 0.0
H427 H 0.47899 0.54923 0.96116 0.0
H428 H 0.53732 0.44874 0.37647 0.0
H429 H 0.56303 0.41731 0.36222 0.0
H430 H 0.59317 0.43258 0.5731 0.0
H431 H 0.56671 0.46348 0.58806 0.0
Ho432 Ho 0.98271 0.49816 0.76396 0.0
Ho433 Ho 1.00249 0.5296 0.64223 0.0
C434 C 0.94874 0.52321 0.64709 0.0
C435 C 0.96104 0.47841 0.86797 0.0
C436 C 0.94217 0.4628 0.86827 0.0
C437 C 0.93773 0.45011 0.93142 0.0
C438 C 0.91937 0.43569 0.93295 0.0
C439 C 0.90517 0.43383 0.87128 0.0
C440 C 0.91017 0.44605 0.80712 0.0
C441 C 0.92862 0.46035 0.80551 0.0
C442 C 0.99637 0.47772 0.63839 0.0
C443 C 0.03462 0.51081 0.77169 0.0
C444 C 0.02341 0.54207 0.52595 0.0
C445 C 0.04665 0.54933 0.51908 0.0
C446 C 0.05867 0.54328 0.45618 0.0
C447 C 0.08199 0.54243 0.45869 0.0
C448 C 0.09343 0.54769 0.52408 0.0
C449 C 0.08152 0.55602 0.58442 0.0
C450 C 0.05818 0.55675 0.58206 0.0
C451 C 0.99764 0.55284 0.77019 0.0
O452 O 0.95113 0.50942 0.70424 0.0
O453 O 0.96597 0.53278 0.61353 0.0
O454 O 0.97959 0.47052 0.84011 0.0
O455 O 0.9565 0.49878 0.84559 0.0
O456 O 0.99801 0.46898 0.70358 0.0
O457 O 0.98658 0.49636 0.64322 0.0
O458 O 0.0333 0.51564 0.70043 0.0
O459 O 0.01642 0.507 0.81136 0.0
O460 O 1.00986 0.5554 0.56194 0.0
O461 O 0.02165 0.5211 0.54625 0.0
O462 O 1.00569 0.56133 0.71003 0.0
O463 O 0.99292 0.53273 0.75755 0.0
H464 H 0.94818 0.45169 0.98003 0.0
H465 H 0.91573 0.42679 0.98359 0.0
H466 H 0.89953 0.44491 0.75881 0.0
H467 H 0.93207 0.4698 0.7558 0.0
H468 H 0.05003 0.53719 0.40768 0.0
H469 H 0.09101 0.53592 0.41167 0.0
H470 H 0.09008 0.55988 0.63553 0.0
H471 H 0.04914 0.56107 0.63171 0.0
H472 H 0.13257 0.04762 0.36943 0.0
H473 H 0.09869 0.01235 0.193 0.0
H474 H 0.06564 1.00731 0.27312 0.0
H475 H 0.11427 0.01394 0.51352 0.0
H476 H 0.11076 0.03623 0.57905 0.0
H477 H 0.1308 0.03903 0.50579 0.0
H478 H 0.11174 0.07591 0.4632 0.0
H479 H 0.09174 0.0733 0.53688 0.0
H480 H 0.08215 0.0761 0.44307 0.0
H481 H 0.03724 1.00381 0.37612 0.0
H482 H 0.01607 1.0021 0.49295 0.0
H483 H 0.06843 0.03993 0.60152 0.0
C484 C 0.11799 0.03939 0.34666 0.0
C485 C 0.11827 0.03053 0.27437 0.0
C486 C 0.099 0.01922 0.24807 0.0
C487 C 0.08008 0.01639 0.29312 0.0
C488 C 0.08057 0.02502 0.36441 0.0
C489 C 0.09899 0.03644 0.39084 0.0
C490 C 0.09581 0.04301 0.4708 0.0
C491 C 0.11399 0.03241 0.52017 0.0
C492 C 0.09533 0.0686 0.47893 0.0
C493 C 0.07299 0.03297 0.48596 0.0
C494 C 0.06434 0.02289 0.42367 0.0
C495 C 0.04379 0.01183 0.42495 0.0
C496 C 0.0319 0.01091 0.49159 0.0
C497 C 0.0406 0.02089 0.55626 0.0
C498 C 0.06132 0.03222 0.55292 0.0
H499 H 0.53447 0.14061 0.3442 0.0
H500 H 0.46849 0.13265 0.24777 0.0
H501 H 0.46061 0.10185 0.33608 0.0
H502 H 0.5456 0.08194 0.38374 0.0
H503 H 0.55942 0.0878 0.46992 0.0
H504 H 0.5602 0.10802 0.39609 0.0
H505 H 0.54351 0.13811 0.48257 0.0
H506 H 0.54278 0.11803 0.55664 0.0
H507 H 0.51754 0.13253 0.52957 0.0
H508 H 0.46025 0.07156 0.43747 0.0
H509 H 0.46604 0.04767 0.54811 0.0
H510 H 0.53154 0.07722 0.58025 0.0
C511 C 0.51847 0.13216 0.34086 0.0
C512 C 0.50219 0.13883 0.28832 0.0
C513 C 0.48123 0.12777 0.28731 0.0
C514 C 0.47668 0.11019 0.33705 0.0
C515 C 0.49316 0.10401 0.3881 0.0
C516 C 0.51357 0.11487 0.39062 0.0
C517 C 0.52799 0.10614 0.45335 0.0
C518 C 0.54958 0.09533 0.424 0.0
C519 C 0.53325 0.12481 0.5088 0.0
C520 C 0.51252 0.08875 0.48633 0.0
C521 C 0.49262 0.08746 0.44744 0.0
C522 C 0.47578 0.07251 0.46818 0.0
C523 C 0.47923 0.05893 0.5309 0.0
C524 C 0.4992 0.06063 0.57277 0.0
C525 C 0.51608 0.07557 0.54936 0.0
H526 H 0.36224 0.47366 0.31659 0.0
H527 H 0.39694 0.51183 0.14893 0.0
H528 H 0.42929 0.51648 0.23384 0.0
H529 H 0.37923 0.50784 0.46674 0.0
H530 H 0.38156 0.485 0.53143 0.0
H531 H 0.36224 0.4832 0.45538 0.0
H532 H 0.38092 0.44618 0.41414 0.0
H533 H 0.40036 0.44791 0.49002 0.0
H534 H 0.41064 0.44551 0.39713 0.0
H535 H 0.45786 0.51686 0.33867 0.0
H536 H 0.47845 0.51649 0.45714 0.0
H537 H 0.4238 0.48019 0.55892 0.0
C538 C 0.37683 0.4827 0.29745 0.0
C539 C 0.37733 0.49206 0.22577 0.0
C540 C 0.39636 0.50436 0.20336 0.0
C541 C 0.41479 0.50701 0.25116 0.0
C542 C 0.41377 0.49753 0.3216 0.0
C543 C 0.39512 0.48585 0.3449 0.0
C544 C 0.39746 0.47867 0.42486 0.0
C545 C 0.37903 0.48932 0.47239 0.0
C546 C 0.39734 0.45304 0.43193 0.0
C547 C 0.42032 0.48817 0.44328 0.0
C548 C 0.42962 0.49869 0.38267 0.0
C549 C 0.45067 0.50871 0.38638 0.0
C550 C 0.46229 0.50835 0.45391 0.0
C551 C 0.45271 0.49837 0.51736 0.0
C552 C 0.43155 0.48794 0.51141 0.0
H553 H 1.01028 0.36633 0.40022 0.0
H554 H 1.00148 0.40655 0.20309 0.0
H555 H 0.99771 0.44053 0.28021 0.0
H556 H 0.97182 0.39601 0.51659 0.0
H557 H 0.98915 0.3934 0.59766 0.0
H558 H 0.99054 0.3725 0.52669 0.0
H559 H 0.03335 0.37868 0.51596 0.0
H560 H 0.03208 0.39968 0.5867 0.0
H561 H 0.0439 0.4064 0.4981 0.0
H562 H 0.99333 0.47004 0.38142 0.0
H563 H 0.99099 0.49241 0.49571 0.0
H564 H 1.00555 0.43302 0.62513 0.0
C565 C 1.00734 0.38227 0.37331 0.0
C566 C 1.00587 0.38378 0.29563 0.0
C567 C 1.00256 0.40502 0.26246 0.0
C568 C 1.00038 0.42438 0.30588 0.0
C569 C 1.00192 0.42229 0.38243 0.0
C570 C 1.00554 0.40175 0.4157 0.0
C571 C 1.00724 0.404 0.49871 0.0
C572 C 0.98857 0.39069 0.53716 0.0
C573 C 0.03053 0.39676 0.52648 0.0
C574 C 1.00379 0.42897 0.50733 0.0
C575 C 1.00058 0.43926 0.43975 0.0
C576 C 0.99614 0.46215 0.43442 0.0
C577 C 0.99495 0.47478 0.49964 0.0
C578 C 0.99853 0.4646 0.56931 0.0
C579 C 1.00309 0.44139 0.57271 0.0
H580 H 0.84536 0.99466 1.00387 0.0
H581 H 0.87999 0.02639 0.18612 0.0
H582 H 0.91544 0.02433 0.11694 0.0
H583 H 0.89187 0.95809 0.94443 0.0
H584 H 0.88527 0.96196 0.84825 0.0
H585 H 0.86332 0.96311 0.91612 0.0
H586 H 0.85179 1.0024 0.8685 0.0
H587 H 0.87369 1.0014 0.80076 0.0
H588 H 0.87245 0.02432 0.86482 0.0
H589 H 0.94648 0.02256 0.02203 0.0
H590 H 0.97009 0.021 0.91023 0.0
H591 H 0.91498 0.99129 0.78938 0.0
C592 C 0.8604 1.00098 0.0298 0.0
C593 C 0.85973 0.01063 0.10093 0.0
C594 C 0.87998 0.01853 0.13251 0.0
C595 C 0.90024 0.01756 0.09336 0.0
C596 C 0.90013 1.00852 0.02264 0.0
C597 C 0.88073 1.00023 0.99138 0.0
C598 C 0.88469 0.99281 0.9127 0.0
C599 C 0.88107 0.96749 0.90495 0.0
C600 C 0.86977 1.00603 0.85853 0.0
C601 C 0.90918 0.99884 0.90372 0.0
C602 C 0.91789 1.00764 0.968 0.0
C603 C 0.93988 0.01545 0.97174 0.0
C604 C 0.95317 0.01452 0.90797 0.0
C605 C 0.9444 1.00598 0.84122 0.0
C606 C 0.92223 0.99773 0.83975 0.0
H607 H 0.4999 0.86715 0.04409 0.0
H608 H 0.5153 0.90952 0.23073 0.0
H609 H 0.51361 0.94286 0.14921 0.0
H610 H 0.5327 0.89621 0.91421 0.0
H611 H 0.51337 0.89229 0.83892 0.0
H612 H 0.51448 0.8722 0.91294 0.0
H613 H 0.47199 0.87756 0.936 0.0
H614 H 0.47071 0.89756 0.86164 0.0
H615 H 0.46111 0.90525 0.95212 0.0
H616 H 0.51104 0.97185 0.04325 0.0
H617 H 0.50825 0.99278 0.92486 0.0
H618 H 0.49516 0.93067 0.81066 0.0
C619 C 0.50243 0.88346 0.06842 0.0
C620 C 0.50749 0.88567 0.14422 0.0
C621 C 0.5114 0.90735 0.17291 0.0
C622 C 0.5104 0.9264 0.127 0.0
C623 C 0.50558 0.92355 0.05231 0.0
C624 C 0.50164 0.90254 0.02347 0.0
C625 C 0.49766 0.90365 0.94115 0.0
C626 C 0.51563 0.8903 0.89937 0.0
C627 C 0.47396 0.89553 0.9216 0.0
C628 C 0.50008 0.92852 0.92776 0.0
C629 C 0.50452 0.93986 0.99231 0.0
C630 C 0.50753 0.96306 0.99254 0.0
C631 C 0.50595 0.97485 0.92516 0.0
C632 C 0.50156 0.96338 0.85866 0.0
C633 C 0.49858 0.93995 0.86056 0.0
H634 H 0.62973 0.48443 0.04287 0.0
H635 H 0.60781 0.54526 0.1495 0.0
H636 H 0.57668 0.5488 0.0585 0.0
H637 H 0.62026 0.50366 0.85979 0.0
H638 H 0.61176 0.47664 0.82628 0.0
H639 H 0.63087 0.47854 0.90282 0.0
H640 H 0.6042 0.45414 0.98175 0.0
H641 H 0.58492 0.45229 0.9055 0.0
H642 H 0.57544 0.46267 0.99315 0.0
H643 H 0.54709 0.5446 0.95337 0.0
H644 H 0.52588 0.53585 0.83878 0.0
H645 H 0.56988 0.47948 0.79969 0.0
C646 C 0.61821 0.49837 0.04758 0.0
C647 C 0.62088 0.51438 0.10379 0.0
C648 C 0.60589 0.53273 0.10706 0.0
C649 C 0.58815 0.53479 0.05583 0.0
C650 C 0.58589 0.51852 1.00114 0.0
C651 C 0.60081 0.50085 0.99642 0.0
C652 C 0.59598 0.48635 0.93026 0.0
C653 C 0.6159 0.48631 0.87663 0.0
C654 C 0.58976 0.46245 0.95412 0.0
C655 C 0.576 0.49853 0.89794 0.0
C656 C 0.57004 0.51684 0.93991 0.0
C657 C 0.55177 0.53034 0.92024 0.0
C658 C 0.53971 0.5252 0.85544 0.0
C659 C 0.54632 0.50702 0.8107 0.0
C660 C 0.56452 0.49352 0.8329 0.0
H661 H 0.02823 0.65143 0.04518 0.0
H662 H 0.97416 0.62999 0.18719 0.0
H663 H 0.96641 0.59821 0.10279 0.0
H664 H 1.00005 0.63985 0.87541 0.0
H665 H 0.02522 0.63115 0.82889 0.0
H666 H 0.0268 0.65113 0.90258 0.0
H667 H 0.05533 0.62567 0.97108 0.0
H668 H 0.05372 0.60554 0.89771 0.0
H669 H 0.04801 0.59705 0.99115 0.0
H670 H 0.96588 0.56762 1.00144 0.0
H671 H 0.96967 0.5446 0.88816 0.0
H672 H 0.02228 0.58858 0.81128 0.0
C673 C 0.01484 0.63994 0.05873 0.0
C674 C 1.00195 0.64293 0.12307 0.0
C675 C 0.98426 0.62788 0.13824 0.0
C676 C 0.97984 0.60977 0.09079 0.0
C677 C 0.99306 0.60719 0.02788 0.0
C678 C 1.00999 0.62215 0.01152 0.0
C679 C 0.02111 0.61661 0.93904 0.0
C680 C 0.0181 0.63582 0.88319 0.0
C681 C 0.04601 0.61088 0.95047 0.0
C682 C 1.00786 0.5962 0.91671 0.0
C683 C 0.99196 0.59067 0.96892 0.0
C684 C 0.97817 0.57197 0.96014 0.0
C685 C 0.98047 0.55893 0.89593 0.0
C686 C 0.99612 0.56496 0.84097 0.0
C687 C 1.01001 0.58371 0.85214 0.0
H688 H 0.08733 0.19396 0.44514 0.0
H689 H 0.04012 0.24209 0.53618 0.0
H690 H 0.01955 0.21186 0.59266 0.0
H691 H 0.0484 0.16322 0.37335 0.0
H692 H 0.06092 0.13603 0.38662 0.0
H693 H 0.0784 0.1603 0.38108 0.0
H694 H 0.096 0.15104 0.50828 0.0
H695 H 0.07889 0.12626 0.51345 0.0
H696 H 0.07811 0.1465 0.58672 0.0
H697 H 0.99707 0.17775 0.6064 0.0
H698 H 0.97722 0.1424 0.58569 0.0
H699 H 0.035 0.11684 0.46748 0.0
C700 C 0.07294 0.19848 0.47766 0.0
C701 C 0.06521 0.22087 0.48197 0.0
C702 C 0.04689 0.22547 0.52972 0.0
C703 C 0.03474 0.20816 0.56264 0.0
C704 C 0.04096 0.18625 0.5479 0.0
C705 C 0.05995 0.1813 0.50767 0.0
C706 C 0.06041 0.15685 0.48604 0.0
C707 C 0.06211 0.15396 0.40183 0.0
C708 C 0.07948 0.14443 0.52604 0.0
C709 C 0.03782 0.14948 0.5146 0.0
C710 C 0.02728 0.16639 0.55273 0.0
C711 C 1.0054 0.16418 0.57819 0.0
C712 C 0.99409 0.1441 0.56487 0.0
C713 C 1.00448 0.12655 0.52526 0.0
C714 C 0.02668 0.12948 0.49998 0.0
H715 H 0.30767 0.01108 0.51902 0.0
H716 H 0.27769 0.94846 0.45134 0.0
H717 H 0.31007 0.92797 0.50142 0.0
H718 H 0.35606 0.99911 0.44372 0.0
H719 H 0.37388 0.01309 0.50924 0.0
H720 H 0.34551 0.02221 0.49701 0.0
H721 H 0.33776 0.01659 0.63584 0.0
H722 H 0.36636 1.0077 0.64931 0.0
H723 H 0.34358 0.98994 0.67799 0.0
H724 H 0.34928 0.91549 0.52156 0.0
H725 H 0.39077 0.91254 0.51605 0.0
H726 H 0.39617 0.9832 0.56263 0.0
C727 C 0.30752 0.99298 0.51755 0.0
C728 C 0.29023 0.98143 0.481 0.0
C729 C 0.29056 0.95774 0.48008 0.0
C730 C 0.30902 0.94592 0.50811 0.0
C731 C 0.32694 0.95802 0.53685 0.0
C732 C 0.32617 0.9811 0.54252 0.0
C733 C 0.34898 0.99074 0.55936 0.0
C734 C 0.35653 1.00723 0.49871 0.0
C735 C 0.34921 1.00192 0.63523 0.0
C736 C 0.36289 0.96963 0.55894 0.0
C737 C 0.34991 0.95082 0.54729 0.0
C738 C 0.35956 0.92993 0.53325 0.0
C739 C 0.38301 0.92837 0.52972 0.0
C740 C 0.39623 0.94765 0.5394 0.0
C741 C 0.38613 0.96824 0.55636 0.0
H742 H 0.61649 0.32175 0.23504 0.0
H743 H 0.61756 0.28324 0.43795 0.0
H744 H 0.62044 0.31817 0.50872 0.0
H745 H 0.65323 0.37135 0.30883 0.0
H746 H 0.63648 0.39044 0.25471 0.0
H747 H 0.64251 0.36281 0.2204 0.0
H748 H 0.60002 0.35606 0.20341 0.0
H749 H 0.59373 0.38315 0.2393 0.0
H750 H 0.58167 0.35868 0.28172 0.0
H751 H 0.61058 0.35574 0.55558 0.0
H752 H 0.59248 0.39232 0.57363 0.0
H753 H 0.6007 0.40727 0.34137 0.0
C754 C 0.61882 0.32044 0.294 0.0
C755 C 0.61654 0.29969 0.33075 0.0
C756 C 0.61892 0.29895 0.40841 0.0
C757 C 0.62077 0.31874 0.44914 0.0
C758 C 0.62092 0.33909 0.41131 0.0
C759 C 0.62079 0.34003 0.33513 0.0
C760 C 0.6173 0.36372 0.30755 0.0
C761 C 0.63866 0.37261 0.27072 0.0
C762 C 0.59697 0.36547 0.25503 0.0
C763 C 0.61301 0.3755 0.37962 0.0
C764 C 0.61584 0.36123 0.43911 0.0
C765 C 0.60922 0.36734 0.50987 0.0
C766 C 0.59891 0.38821 0.51963 0.0
C767 C 0.59517 0.40269 0.4588 0.0
C768 C 0.6033 0.39655 0.38884 0.0
H769 H 0.18989 0.46126 0.47196 0.0
H770 H 0.23456 0.51841 0.47989 0.0
H771 H 0.20565 0.54017 0.54189 0.0
H772 H 0.14967 0.49011 0.3977 0.0
H773 H 0.12613 0.47635 0.44009 0.0
H774 H 0.15207 0.46162 0.42971 0.0
H775 H 0.15314 0.45345 0.56859 0.0
H776 H 0.12734 0.46859 0.5828 0.0
H777 H 0.15224 0.47607 0.63348 0.0
H778 H 0.1696 0.55924 0.56892 0.0
H779 H 0.13033 0.57283 0.55955 0.0
H780 H 0.10827 0.50549 0.51192 0.0
C781 C 0.19389 0.47812 0.48884 0.0
C782 C 0.21447 0.48805 0.46946 0.0
C783 C 0.21914 0.51004 0.49436 0.0
C784 C 0.20263 0.52274 0.52951 0.0
C785 C 0.18153 0.51334 0.53893 0.0
C786 C 0.17718 0.49136 0.51984 0.0
C787 C 0.15232 0.48671 0.51802 0.0
C788 C 0.14463 0.47822 0.44188 0.0
C789 C 0.14585 0.47023 0.5794 0.0
C790 C 0.1434 0.50985 0.53327 0.0
C791 C 0.16038 0.52481 0.54851 0.0
C792 C 0.15613 0.54758 0.55857 0.0
C793 C 0.13394 0.55521 0.55245 0.0
C794 C 0.11666 0.54015 0.53392 0.0
C795 C 0.12142 0.51726 0.52529 0.0
H796 H 0.11126 0.82946 0.11579 0.0
H797 H 0.10336 0.78843 0.92099 0.0
H798 H 0.10523 0.82223 0.84338 0.0
H799 H 0.07714 0.86815 0.07446 0.0
H800 H 0.09215 0.8922 0.10789 0.0
H801 H 0.09788 0.86519 0.14638 0.0
H802 H 0.13987 0.86875 0.11367 0.0
H803 H 0.1345 0.89628 0.07655 0.0
H804 H 0.148 0.87542 0.02059 0.0
H805 H 0.09563 0.85977 0.79356 0.0
H806 H 0.07954 0.89733 0.77519 0.0
H807 H 0.09752 0.91458 0.99954 0.0
C808 C 0.11135 0.82728 0.05669 0.0
C809 C 0.10684 0.80623 0.02484 0.0
C810 C 0.10638 0.8044 0.94702 0.0
C811 C 0.10766 0.82353 0.90231 0.0
C812 C 0.11018 0.84428 0.93605 0.0
C813 C 0.11286 0.84617 0.01151 0.0
C814 C 0.11191 0.87036 0.03563 0.0
C815 C 0.09368 0.87416 0.09444 0.0
C816 C 0.13494 0.87816 0.06321 0.0
C817 C 0.1059 0.8815 0.96335 0.0
C818 C 0.10554 0.86633 0.90606 0.0
C819 C 0.09678 0.87201 0.83712 0.0
C820 C 0.08765 0.89346 0.82716 0.0
C821 C 0.08727 0.90896 0.88599 0.0
C822 C 0.09749 0.9031 0.95359 0.0
H823 H 0.68606 0.09778 0.01456 0.0
H824 H 0.67943 0.14962 0.18 0.0
H825 H 0.64077 0.15673 0.13765 0.0
H826 H 0.64944 0.1264 0.86951 0.0
H827 H 0.639 0.09957 0.84051 0.0
H828 H 0.66737 0.10213 0.8737 0.0
H829 H 0.65961 0.07107 0.97014 0.0
H830 H 0.63123 0.06871 0.9387 0.0
H831 H 0.63687 0.07456 0.0343 0.0
H832 H 0.60046 0.15165 0.09675 0.0
H833 H 0.56388 0.13765 0.05122 0.0
H834 H 0.59854 0.09143 0.90774 0.0
C835 C 0.67716 0.11151 0.03972 0.0
C836 C 0.68598 0.12293 0.10134 0.0
C837 C 0.67304 0.14024 0.13365 0.0
C838 C 0.65107 0.14457 0.1095 0.0
C839 C 0.6425 0.13197 0.05149 0.0
C840 C 0.65545 0.11625 0.01562 0.0
C841 C 0.64189 0.10322 0.96007 0.0
C842 C 0.6499 0.10814 0.88127 0.0
C843 C 0.64243 0.07792 0.97691 0.0
C844 C 0.61897 0.11307 0.97345 0.0
C845 C 0.61956 0.1298 0.02574 0.0
C846 C 0.5999 0.13913 0.05389 0.0
C847 C 0.57922 0.13101 0.0282 0.0
C848 C 0.57847 0.11383 0.97482 0.0
C849 C 0.59863 0.10517 0.94644 0.0
H850 H 0.55525 0.71581 0.9108 0.0
H851 H 0.59476 0.68957 0.09338 0.0
H852 H 0.58822 0.65168 0.04985 0.0
H853 H 0.51302 0.68258 0.94211 0.0
H854 H 0.5042 0.67779 0.84841 0.0
H855 H 0.51922 0.70277 0.87099 0.0
H856 H 0.54947 0.69344 0.77358 0.0
H857 H 0.53415 0.66855 0.74952 0.0
H858 H 0.56321 0.66658 0.77592 0.0
H859 H 0.56977 0.61702 0.01024 0.0
H860 H 0.5417 0.58888 0.97575 0.0
H861 H 0.50886 0.63779 0.83429 0.0
C862 C 0.56308 0.7022 0.94072 0.0
C863 C 0.57529 0.70606 1.0064 0.0
C864 C 0.58562 0.68757 0.04233 0.0
C865 C 0.58188 0.6657 0.01815 0.0
C866 C 0.5677 0.66245 0.95819 0.0
C867 C 0.55862 0.68023 0.91924 0.0
C868 C 0.54017 0.67251 0.86778 0.0
C869 C 0.51785 0.68462 0.88336 0.0
C870 C 0.54718 0.67544 0.78691 0.0
C871 C 0.53906 0.64803 0.88868 0.0
C872 C 0.5557 0.64236 0.9384 0.0
C873 C 0.55689 0.62117 0.97036 0.0
C874 C 0.54057 0.60541 0.95148 0.0
C875 C 0.52282 0.6111 0.90276 0.0
C876 C 0.52239 0.63265 0.87035 0.0
H877 H 0.77961 0.44021 0.95482 0.0
H878 H 0.78876 0.38072 0.08886 0.0
H879 H 0.82366 0.37232 0.02203 0.0
H880 H 0.80937 0.41748 0.77895 0.0
H881 H 0.82077 0.44493 0.7625 0.0
H882 H 0.79325 0.44198 0.80201 0.0
H883 H 0.80549 0.46675 0.91159 0.0
H884 H 0.83292 0.46948 0.8734 0.0
H885 H 0.82962 0.45868 0.9656 0.0
H886 H 0.86158 0.37657 0.9693 0.0
H887 H 0.89807 0.39232 0.93216 0.0
H888 H 0.86404 0.44854 0.83012 0.0
C889 C 0.78815 0.42466 0.96716 0.0
C890 C 0.78141 0.41112 0.02705 0.0
C891 C 0.79365 0.39141 0.0434 0.0
C892 C 0.81342 0.3864 1.00522 0.0
C893 C 0.82047 0.40104 0.94992 0.0
C894 C 0.80787 0.41953 0.92966 0.0
C895 C 0.82077 0.43482 0.87848 0.0
C896 C 0.81042 0.43478 0.80087 0.0
C897 C 0.8223 0.45881 0.90921 0.0
C898 C 0.84329 0.42324 0.87896 0.0
C899 C 0.84263 0.40339 0.91839 0.0
C900 C 0.86215 0.39165 0.93616 0.0
C901 C 0.88282 0.40078 0.9154 0.0
C902 C 0.88378 0.42153 0.87776 0.0
C903 C 0.86372 0.43231 0.85675 0.0
H904 H 0.03059 0.16503 0.9923 0.0
H905 H 0.98912 0.2044 0.84389 0.0
H906 H 0.98097 0.17038 0.77128 0.0
H907 H 0.05415 0.12826 0.85601 0.0
H908 H 0.05359 0.10387 0.91464 0.0
H909 H 0.05631 0.13127 0.95456 0.0
H910 H 0.02144 0.12393 0.03564 0.0
H911 H 0.01867 0.09649 0.99614 0.0
H912 H 0.99547 0.11581 0.99257 0.0
H913 H 0.97778 0.1321 0.71411 0.0
H914 H 0.97883 0.09246 0.67717 0.0
H915 H 0.02103 0.07715 0.86594 0.0
C916 C 0.01983 0.16651 0.94438 0.0
C917 C 1.01053 0.18749 0.92369 0.0
C918 C 0.9963 0.18857 0.86118 0.0
C919 C 0.99167 0.16933 0.81943 0.0
C920 C 1.00116 0.14898 0.84126 0.0
C921 C 0.0148 0.1474 0.90264 0.0
C922 C 0.02252 0.12341 0.91501 0.0
C923 C 0.04817 0.1216 0.90973 0.0
C924 C 0.01401 0.11438 0.98925 0.0
C925 C 0.01118 0.11172 0.85081 0.0
C926 C 0.99908 0.12685 0.80873 0.0
C927 C 0.98738 0.12017 0.74613 0.0
C928 C 0.98808 0.09755 0.72569 0.0
C929 C 1.00003 0.08157 0.76848 0.0
C930 C 0.0117 0.08887 0.83208 0.0
H931 H 0.33614 0.0374 0.96247 0.0
H932 H 0.3077 0.97979 0.85134 0.0
H933 H 0.34424 0.97211 0.79459 0.0
H934 H 0.37097 0.05595 0.81072 0.0
H935 H 0.39377 0.06447 0.86951 0.0
H936 H 0.36544 0.06521 0.90332 0.0
H937 H 0.37704 0.04001 0.01349 0.0
H938 H 0.40538 0.03912 0.97982 0.0
H939 H 0.39036 0.01347 0.99621 0.0
H940 H 0.38331 0.97211 0.74157 0.0
H941 H 0.42282 0.97761 0.70724 0.0
H942 H 0.42649 0.03505 0.85232 0.0
C943 C 0.33734 0.02347 0.92479 0.0
C944 C 0.31872 1.00926 0.91174 0.0
C945 C 0.32154 0.99086 0.86344 0.0
C946 C 0.34226 0.98648 0.83001 0.0
C947 C 0.36008 1.00091 0.84346 0.0
C948 C 0.35789 0.019 0.88995 0.0
C949 C 0.37991 0.03158 0.89653 0.0
C950 C 0.37736 0.05573 0.86833 0.0
C951 C 0.38869 0.031 0.97625 0.0
C952 C 0.39474 0.01788 0.84588 0.0
C953 C 0.38291 1.00032 0.81556 0.0
C954 C 0.39277 0.98568 0.76559 0.0
C955 C 0.41528 0.98902 0.74618 0.0
C956 C 0.42796 1.0067 0.77726 0.0
C957 C 0.41741 0.02126 0.82799 0.0
H958 H 0.51872 0.33304 0.81402 0.0
H959 H 0.47352 0.33917 1.00024 0.0
H960 H 0.46371 0.3772 0.96005 0.0
H961 H 0.54023 0.38841 0.82606 0.0
H962 H 0.54263 0.39247 0.72795 0.0
H963 H 0.54462 0.36475 0.76654 0.0
H964 H 0.51241 0.35161 0.68134 0.0
H965 H 0.51034 0.37933 0.64251 0.0
H966 H 0.48601 0.3663 0.68244 0.0
H967 H 0.46046 0.41561 0.9056 0.0
H968 H 0.46397 0.4516 0.8406 0.0
H969 H 0.51223 0.42198 0.69111 0.0
C970 C 0.50669 0.34224 0.84651 0.0
C971 C 0.49679 0.33258 0.91035 0.0
C972 C 0.48101 0.34555 0.95021 0.0
C973 C 0.47543 0.36741 0.92815 0.0
C974 C 0.48576 0.3764 0.86603 0.0
C975 C 0.50105 0.36426 0.82562 0.0
C976 C 0.51052 0.37838 0.76307 0.0
C977 C 0.53601 0.38116 0.77144 0.0
C978 C 0.50445 0.3683 0.68788 0.0
C979 C 0.49835 0.40043 0.7753 0.0
C980 C 0.48406 0.3988 0.83483 0.0
C981 C 0.47149 0.41702 0.85862 0.0
C982 C 0.47367 0.43749 0.8212 0.0
C983 C 0.48834 0.43981 0.76028 0.0
C984 C 0.50068 0.42083 0.73683 0.0
H985 H 0.1682 0.49659 0.82455 0.0
H986 H 0.15936 0.5229 0.04497 0.0
H987 H 0.11882 0.52688 0.02212 0.0
H988 H 0.12719 0.53313 0.73626 0.0
H989 H 0.11701 0.51199 0.6745 0.0
H990 H 0.14565 0.51107 0.70654 0.0
H991 H 0.13962 0.4705 0.7579 0.0
H992 H 0.11158 0.47159 0.72073 0.0
H993 H 0.11603 0.46526 0.81683 0.0
H994 H 0.07878 0.52609 0.97836 0.0
H995 H 0.04256 0.52361 0.91297 0.0
H996 H 0.07674 0.50012 0.71735 0.0
C997 C 0.15772 0.50326 0.86785 0.0
C998 C 0.16713 0.50958 0.93653 0.0
C999 C 0.15275 0.51828 0.99156 0.0
C1000 C 0.1296 0.52046 0.97929 0.0
C1001 C 0.12088 0.51405 0.91131 0.0
C1002 C 0.13449 0.50587 0.85616 0.0
C1003 C 0.12073 0.50055 0.78781 0.0
C1004 C 0.12814 0.51506 0.72238 0.0
C1005 C 0.12207 0.4755 0.76967 0.0
C1006 C 0.09733 0.50698 0.81307 0.0
C1007 C 0.09781 0.51444 0.88499 0.0
C1008 C 0.07826 0.52044 0.92183 0.0
C1009 C 0.05771 0.51886 0.88426 0.0
C1010 C 0.05674 0.5117 0.80999 0.0
C1011 C 0.07692 0.50582 0.7739 0.0
H1012 H 0.02357 0.84063 0.57406 0.0
H1013 H 0.96916 0.8388 0.41426 0.0
H1014 H 0.9572 0.87612 0.45344 0.0
H1015 H 0.9943 0.87293 0.71649 0.0
H1016 H 0.01874 0.88909 0.73997 0.0
H1017 H 0.02186 0.861 0.70583 0.0
H1018 H 0.04769 0.87556 0.602 0.0
H1019 H 0.04461 0.90364 0.63595 0.0
H1020 H 0.03779 0.89744 0.54141 0.0
H1021 H 0.95249 0.91466 0.50139 0.0
H1022 H 0.9554 0.95218 0.55522 0.0
H1023 H 0.01353 0.93088 0.68198 0.0
C1024 C 1.00905 0.84792 0.54733 0.0
C1025 C 0.99723 0.83622 0.49127 0.0
C1026 C 0.97826 0.84672 0.45865 0.0
C1027 C 0.97139 0.86817 0.4801 0.0
C1028 C 0.9836 0.87923 0.53425 0.0
C1029 C 1.00204 0.86953 0.56763 0.0
C1030 C 0.01292 0.88575 0.62141 0.0
C1031 C 0.01188 0.87665 0.70063 0.0
C1032 C 0.03719 0.8909 0.59881 0.0
C1033 C 0.99791 0.90617 0.61188 0.0
C1034 C 0.98103 0.90186 0.56165 0.0
C1035 C 0.96553 0.91818 0.54119 0.0
C1036 C 0.96739 0.93953 0.57209 0.0
C1037 C 0.98466 0.94463 0.62313 0.0
C1038 C 0.99997 0.92753 0.64386 0.0
H1039 H 0.65403 1.00786 0.44364 0.0
H1040 H 0.69374 0.01451 0.64304 0.0
H1041 H 0.65909 0.01456 0.71705 0.0
H1042 H 0.60969 0.04328 0.49647 0.0
H1043 H 0.58793 0.02668 0.45492 0.0
H1044 H 0.61584 0.02605 0.4178 0.0
H1045 H 0.61711 0.98296 0.43326 0.0
H1046 H 0.58909 0.98343 0.46979 0.0
H1047 H 0.61146 0.97072 0.52219 0.0
H1048 H 0.61961 0.01625 0.76892 0.0
H1049 H 0.57894 0.01716 0.79442 0.0
H1050 H 0.56529 1.00811 0.56141 0.0
C1051 C 0.65555 1.00878 0.50299 0.0
C1052 C 0.67677 0.01117 0.53726 0.0
C1053 C 0.67777 0.01289 0.61515 0.0
C1054 C 0.65815 0.01286 0.65779 0.0
C1055 C 0.63754 0.01094 0.62202 0.0
C1056 C 0.63614 1.00871 0.5464 0.0
C1057 C 0.61193 1.00739 0.52121 0.0
C1058 C 0.60601 0.02702 0.46956 0.0
C1059 C 0.60712 0.98478 0.48445 0.0
C1060 C 0.59992 1.0094 0.59435 0.0
C1061 C 0.61495 0.01151 0.65189 0.0
C1062 C 0.60771 0.01438 0.72429 0.0
C1063 C 0.58455 0.01495 0.73823 0.0
C1064 C 0.56882 0.01255 0.68015 0.0
C1065 C 0.57678 1.00974 0.60734 0.0
H1066 H 0.4957 0.68073 0.53931 0.0
H1067 H 0.56366 0.67993 0.45508 0.0
H1068 H 0.56669 0.63983 0.48456 0.0
H1069 H 0.50593 0.64111 0.69178 0.0
H1070 H 0.47874 0.62833 0.68216 0.0
H1071 H 0.48262 0.65722 0.65699 0.0
H1072 H 0.46665 0.64832 0.52709 0.0
H1073 H 0.4635 0.61933 0.55222 0.0
H1074 H 0.47977 0.62688 0.47246 0.0
H1075 H 0.56167 0.59924 0.51362 0.0
H1076 H 0.54994 0.56127 0.55118 0.0
H1077 H 0.48594 0.58771 0.62263 0.0
C1078 C 0.51126 0.67212 0.52767 0.0
C1079 C 0.52953 0.68367 0.49546 0.0
C1080 C 0.54957 0.6717 0.481 0.0
C1081 C 0.55142 0.64881 0.49707 0.0
C1082 C 0.53316 0.63794 0.52833 0.0
C1083 C 0.51353 0.64918 0.54439 0.0
C1084 C 0.49646 0.63332 0.57803 0.0
C1085 C 0.4906 0.64041 0.65696 0.0
C1086 C 0.47535 0.63188 0.52954 0.0
C1087 C 0.5095 0.61142 0.57744 0.0
C1088 C 0.53057 0.6145 0.54788 0.0
C1089 C 0.54532 0.59666 0.53777 0.0
C1090 C 0.53848 0.57513 0.55889 0.0
C1091 C 0.51718 0.57153 0.59079 0.0
C1092 C 0.50254 0.59 0.60013 0.0
H1093 H 0.82353 0.4936 0.51876 0.0
H1094 H 0.81945 0.56093 0.42861 0.0
H1095 H 0.85722 0.56879 0.47634 0.0
H1096 H 0.85367 0.50955 0.68872 0.0
H1097 H 0.87029 0.48435 0.68989 0.0
H1098 H 0.84253 0.48408 0.65069 0.0
H1099 H 0.85863 0.46879 0.52851 0.0
H1100 H 0.88642 0.46916 0.56723 0.0
H1101 H 0.88065 0.48394 0.48251 0.0
H1102 H 0.89669 0.56854 0.52437 0.0
H1103 H 0.93401 0.56109 0.57827 0.0
H1104 H 0.91198 0.49515 0.64687 0.0
C1105 C 0.83027 0.51019 0.51031 0.0
C1106 C 0.8183 0.52653 0.4688 0.0
C1107 C 0.82823 0.54786 0.45843 0.0
C1108 C 0.8497 0.5526 0.48596 0.0
C1109 C 0.86111 0.53601 0.52511 0.0
C1110 C 0.85164 0.51534 0.53839 0.0
C1111 C 0.86772 0.50039 0.58147 0.0
C1112 C 0.85797 0.49424 0.65719 0.0
C1113 C 0.8737 0.47933 0.53727 0.0
C1114 C 0.88781 0.5158 0.58917 0.0
C1115 C 0.88363 0.53622 0.55585 0.0
C1116 C 0.90002 0.55274 0.55161 0.0
C1117 C 0.92122 0.54833 0.58215 0.0
C1118 C 0.92588 0.52766 0.61748 0.0
C1119 C 0.90881 0.51127 0.62146 0.0
loop_
_geom_bond_atom_site_label_1
_geom_bond_atom_site_label_2
_geom_bond_distance
_geom_bond_site_symmetry_2
_ccdc_geom_bond_type
C0 C1 1.386 . S
C0 C2 1.397 . S
C0 H24 0.931 . S
C1 C0 1.386 . S
C1 C5 1.397 . S
C2 C0 1.397 . S
C2 C3 1.384 . S
C2 H25 0.930 . S
C3 C2 1.384 . S
C3 C4 1.377 . S
C3 C6 1.481 . S
C4 C3 1.377 . S
C4 C5 1.389 . S
C4 H26 0.929 . S
C5 C1 1.397 . S
C5 C4 1.389 . S
C5 H27 0.931 . S
C6 C3 1.481 . S
C6 C7 1.387 . S
C6 C11 1.390 . S
C7 C6 1.387 . S
C7 C8 1.401 . S
C7 H28 0.930 . S
C8 C7 1.401 . S
C8 C9 1.376 . S
C8 C17 1.511 . S
C9 C8 1.376 . S
C9 C10 1.392 . S
C9 H30 0.931 . S
C10 C9 1.392 . S
C10 C11 1.361 . S
C10 C12 1.500 . S
C11 C6 1.390 . S
C11 C10 1.361 . S
C11 H29 0.931 . S
C12 C10 1.500 . S
C12 C13 1.371 . S
C12 C14 1.365 . S
C13 C12 1.371 . S
C13 C23 1.386 . S
C13 H31 0.931 . S
C14 C12 1.365 . S
C14 C15 1.409 . S
C14 H32 0.929 . S
C15 C14 1.409 . S
C15 C16 1.380 . S
C15 H33 0.930 . S
C16 C15 1.380 . S
C16 C23 1.357 . S
C17 C8 1.511 . S
C17 C18 1.341 . S
C17 C19 1.371 . S
C18 C17 1.341 . S
C18 C22 1.394 . S
C18 H34 0.930 . S
C19 C17 1.371 . S
C19 C20 1.392 . S
C19 H35 0.931 . S
C20 C19 1.392 . S
C20 C21 1.331 . S
C20 H38 0.932 . S
C21 C20 1.331 . S
C21 C22 1.336 . S
C22 C18 1.394 . S
C22 C21 1.336 . S
C22 H37 0.929 . S
C23 C13 1.386 . S
C23 C16 1.357 . S
C23 H36 0.928 . S
H24 C0 0.931 . S
H25 C2 0.930 . S
H26 C4 0.929 . S
H27 C5 0.931 . S
H28 C7 0.930 . S
H29 C11 0.931 . S
H30 C9 0.931 . S
H31 C13 0.931 . S
H32 C14 0.929 . S
H33 C15 0.930 . S
H34 C18 0.930 . S
H35 C19 0.931 . S
H36 C23 0.928 . S
H37 C22 0.929 . S
H38 C20 0.932 . S
C39 C40 1.394 . S
C39 C41 1.397 . S
C39 H63 0.931 . S
C40 C39 1.394 . S
C40 C44 1.389 1_655 S
C41 C39 1.397 . S
C41 C42 1.389 . S
C41 H64 0.930 . S
C42 C41 1.389 . S
C42 C43 1.373 1_655 S
C42 C45 1.480 . S
C43 C42 1.373 1_455 S
C43 C44 1.389 . S
C43 H65 0.929 . S
C44 C40 1.389 1_455 S
C44 C43 1.389 . S
C44 H66 0.931 . S
C45 C42 1.480 . S
C45 C46 1.388 . S
C45 C50 1.390 . S
C46 C45 1.388 . S
C46 C47 1.402 . S
C46 H67 0.930 . S
C47 C46 1.402 . S
C47 C48 1.376 . S
C47 C56 1.513 . S
C48 C47 1.376 . S
C48 C49 1.392 . S
C48 H69 0.934 . S
C49 C48 1.392 . S
C49 C50 1.361 . S
C49 C51 1.499 1_655 S
C50 C45 1.390 . S
C50 C49 1.361 . S
C50 H68 0.931 . S
C51 C49 1.499 1_455 S
C51 C52 1.362 1_455 S
C51 C53 1.374 . S
C52 C51 1.362 1_655 S
C52 C62 1.386 . S
C52 H70 0.931 . S
C53 C51 1.374 . S
C53 C54 1.409 . S
C53 H71 0.929 . S
C54 C53 1.409 . S
C54 C55 1.379 . S
C54 H72 0.930 . S
C55 C54 1.379 . S
C55 C62 1.359 1_455 S
C56 C47 1.513 . S
C56 C57 1.341 . S
C56 C58 1.371 1_655 S
C57 C56 1.341 . S
C57 C61 1.394 . S
C57 H73 0.930 . S
C58 C56 1.371 1_455 S
C58 C59 1.392 . S
C58 H74 0.931 . S
C59 C58 1.392 . S
C59 C60 1.322 1_455 S
C59 H77 0.932 . S
C60 C59 1.322 1_655 S
C60 C61 1.345 . S
C61 C57 1.394 . S
C61 C60 1.345 . S
C61 H76 0.929 . S
C62 C52 1.386 . S
C62 C55 1.359 1_655 S
C62 H75 0.928 . S
H63 C39 0.931 . S
H64 C41 0.930 . S
H65 C43 0.929 . S
H66 C44 0.931 . S
H67 C46 0.930 . S
H68 C50 0.931 . S
H69 C48 0.934 . S
H70 C52 0.931 . S
H71 C53 0.929 . S
H72 C54 0.930 . S
H73 C57 0.930 . S
H74 C58 0.931 . S
H75 C62 0.928 . S
H76 C61 0.929 . S
H77 C59 0.932 . S
C78 C79 1.394 . S
C78 C80 1.397 . S
C78 H102 0.931 . S
C79 C78 1.394 . S
C79 C83 1.389 1_565 S
C80 C78 1.397 . S
C80 C81 1.389 . S
C80 H103 0.930 . S
C81 C80 1.389 . S
C81 C82 1.373 1_565 S
C81 C84 1.480 . S
C82 C81 1.373 1_545 S
C82 C83 1.389 . S
C82 H104 0.929 . S
C83 C79 1.389 1_545 S
C83 C82 1.389 . S
C83 H105 0.931 . S
C84 C81 1.480 . S
C84 C85 1.388 . S
C84 C89 1.390 . S
C85 C84 1.388 . S
C85 C86 1.402 . S
C85 H106 0.930 . S
C86 C85 1.402 . S
C86 C87 1.376 . S
C86 C95 1.513 . S
C87 C86 1.376 . S
C87 C88 1.392 . S
C87 H108 0.934 . S
C88 C87 1.392 . S
C88 C89 1.361 . S
C88 C90 1.499 1_565 S
C89 C84 1.390 . S
C89 C88 1.361 . S
C89 H107 0.931 . S
C90 C88 1.499 1_545 S
C90 C91 1.362 1_545 S
C90 C92 1.374 . S
C91 C90 1.362 1_565 S
C91 C101 1.386 . S
C91 H109 0.931 . S
C92 C90 1.374 . S
C92 C93 1.409 . S
C92 H110 0.929 . S
C93 C92 1.409 . S
C93 C94 1.379 . S
C93 H111 0.930 . S
C94 C93 1.379 . S
C94 C101 1.359 1_545 S
C95 C86 1.513 . S
C95 C96 1.341 . S
C95 C97 1.371 1_565 S
C96 C95 1.341 . S
C96 C100 1.394 . S
C96 H112 0.930 . S
C97 C95 1.371 1_545 S
C97 C98 1.392 . S
C97 H113 0.931 . S
C98 C97 1.392 . S
C98 C99 1.322 1_545 S
C98 H116 0.932 . S
C99 C98 1.322 1_565 S
C99 C100 1.345 . S
C100 C96 1.394 . S
C100 C99 1.345 . S
C100 H115 0.929 . S
C101 C91 1.386 . S
C101 C94 1.359 1_565 S
C101 H114 0.928 . S
H102 C78 0.931 . S
H103 C80 0.930 . S
H104 C82 0.929 . S
H105 C83 0.931 . S
H106 C85 0.930 . S
H107 C89 0.931 . S
H108 C87 0.934 . S
H109 C91 0.931 . S
H110 C92 0.929 . S
H111 C93 0.930 . S
H112 C96 0.930 . S
H113 C97 0.931 . S
H114 C101 0.928 . S
H115 C100 0.929 . S
H116 C98 0.932 . S
C117 C118 1.386 . S
C117 C119 1.397 . S
C117 H141 0.931 . S
C118 C117 1.386 . S
C118 C122 1.397 . S
C119 C117 1.397 . S
C119 C120 1.384 . S
C119 H142 0.930 . S
C120 C119 1.384 . S
C120 C121 1.377 . S
C120 C123 1.481 . S
C121 C120 1.377 . S
C121 C122 1.389 . S
C121 H143 0.929 . S
C122 C118 1.397 . S
C122 C121 1.389 . S
C122 H144 0.931 . S
C123 C120 1.481 . S
C123 C124 1.387 . S
C123 C128 1.390 . S
C124 C123 1.387 . S
C124 C125 1.401 . S
C124 H145 0.930 . S
C125 C124 1.401 . S
C125 C126 1.376 . S
C125 C134 1.511 . S
C126 C125 1.376 . S
C126 C127 1.392 . S
C126 H147 0.931 . S
C127 C126 1.392 . S
C127 C128 1.361 . S
C127 C129 1.500 . S
C128 C123 1.390 . S
C128 C127 1.361 . S
C128 H146 0.931 . S
C129 C127 1.500 . S
C129 C130 1.371 . S
C129 C131 1.365 . S
C130 C129 1.371 . S
C130 C140 1.386 . S
C130 H148 0.931 . S
C131 C129 1.365 . S
C131 C132 1.409 . S
C131 H149 0.929 . S
C132 C131 1.409 . S
C132 C133 1.380 . S
C132 H150 0.930 . S
C133 C132 1.380 . S
C133 C140 1.357 . S
C134 C125 1.511 . S
C134 C135 1.341 . S
C134 C136 1.371 . S
C135 C134 1.341 . S
C135 C139 1.394 . S
C135 H151 0.930 . S
C136 C134 1.371 . S
C136 C137 1.392 . S
C136 H152 0.931 . S
C137 C136 1.392 . S
C137 C138 1.331 . S
C137 H155 0.932 . S
C138 C137 1.331 . S
C138 C139 1.336 . S
C139 C135 1.394 . S
C139 C138 1.336 . S
C139 H154 0.929 . S
C140 C130 1.386 . S
C140 C133 1.357 . S
C140 H153 0.928 . S
H141 C117 0.931 . S
H142 C119 0.930 . S
H143 C121 0.929 . S
H144 C122 0.931 . S
H145 C124 0.930 . S
H146 C128 0.931 . S
H147 C126 0.931 . S
H148 C130 0.931 . S
H149 C131 0.929 . S
H150 C132 0.930 . S
H151 C135 0.930 . S
H152 C136 0.931 . S
H153 C140 0.928 . S
H154 C139 0.929 . S
H155 C137 0.932 . S
C156 C157 1.386 . S
C156 C158 1.397 . S
C156 H180 0.931 . S
C157 C156 1.386 . S
C157 C161 1.397 . S
C158 C156 1.397 . S
C158 C159 1.384 . S
C158 H181 0.930 . S
C159 C158 1.384 . S
C159 C160 1.377 . S
C159 C162 1.481 . S
C160 C159 1.377 . S
C160 C161 1.389 . S
C160 H182 0.929 . S
C161 C157 1.397 . S
C161 C160 1.389 . S
C161 H183 0.931 . S
C162 C159 1.481 . S
C162 C163 1.387 . S
C162 C167 1.390 . S
C163 C162 1.387 . S
C163 C164 1.401 . S
C163 H184 0.930 . S
C164 C163 1.401 . S
C164 C165 1.376 1_554 S
C164 C173 1.511 . S
C165 C164 1.376 1_556 S
C165 C166 1.392 . S
C165 H186 0.931 . S
C166 C165 1.392 . S
C166 C167 1.361 1_556 S
C166 C168 1.500 . S
C167 C162 1.390 . S
C167 C166 1.361 1_554 S
C167 H185 0.931 . S
C168 C166 1.500 . S
C168 C169 1.371 . S
C168 C170 1.365 . S
C169 C168 1.371 . S
C169 C179 1.386 . S
C169 H187 0.931 . S
C170 C168 1.365 . S
C170 C171 1.409 . S
C170 H188 0.929 . S
C171 C170 1.409 . S
C171 C172 1.380 . S
C171 H189 0.930 . S
C172 C171 1.380 . S
C172 C179 1.357 . S
C173 C164 1.511 . S
C173 C174 1.341 . S
C173 C175 1.371 . S
C174 C173 1.341 . S
C174 C178 1.394 . S
C174 H190 0.930 . S
C175 C173 1.371 . S
C175 C176 1.392 . S
C175 H191 0.931 1_554 S
C176 C175 1.392 . S
C176 C177 1.331 . S
C176 H194 0.932 . S
C177 C176 1.331 . S
C177 C178 1.336 . S
C178 C174 1.394 . S
C178 C177 1.336 . S
C178 H193 0.929 . S
C179 C169 1.386 . S
C179 C172 1.357 . S
C179 H192 0.928 . S
H180 C156 0.931 . S
H181 C158 0.930 . S
H182 C160 0.929 . S
H183 C161 0.931 . S
H184 C163 0.930 . S
H185 C167 0.931 . S
H186 C165 0.931 . S
H187 C169 0.931 . S
H188 C170 0.929 . S
H189 C171 0.930 . S
H190 C174 0.930 . S
H191 C175 0.931 1_556 S
H192 C179 0.928 . S
H193 C178 0.929 . S
H194 C176 0.932 . S
C195 C196 1.387 . S
C195 C197 1.397 . S
C195 H219 0.931 . S
C196 C195 1.387 . S
C196 C200 1.396 1_655 S
C197 C195 1.397 . S
C197 C198 1.381 . S
C197 H220 0.930 . S
C198 C197 1.381 . S
C198 C199 1.380 1_655 S
C198 C201 1.480 . S
C199 C198 1.380 1_455 S
C199 C200 1.389 . S
C199 H221 0.929 . S
C200 C196 1.396 1_455 S
C200 C199 1.389 . S
C200 H222 0.931 . S
C201 C198 1.480 . S
C201 C202 1.388 . S
C201 C206 1.390 . S
C202 C201 1.388 . S
C202 C203 1.402 . S
C202 H223 0.930 . S
C203 C202 1.402 . S
C203 C204 1.376 1_554 S
C203 C212 1.512 . S
C204 C203 1.376 1_556 S
C204 C205 1.392 1_655 S
C204 H225 0.933 . S
C205 C204 1.392 1_455 S
C205 C206 1.361 1_456 S
C205 C207 1.499 . S
C206 C201 1.390 . S
C206 C205 1.361 1_654 S
C206 H224 0.931 . S
C207 C205 1.499 . S
C207 C208 1.357 1_455 S
C207 C209 1.380 . S
C208 C207 1.357 1_655 S
C208 C218 1.386 . S
C208 H226 0.931 . S
C209 C207 1.380 . S
C209 C210 1.409 . S
C209 H227 0.929 . S
C210 C209 1.409 . S
C210 C211 1.384 . S
C210 H228 0.930 . S
C211 C210 1.384 . S
C211 C218 1.353 1_455 S
C212 C203 1.512 . S
C212 C213 1.341 . S
C212 C214 1.371 1_655 S
C213 C212 1.341 . S
C213 C217 1.394 . S
C213 H229 0.930 . S
C214 C212 1.371 1_455 S
C214 C215 1.392 . S
C214 H230 0.931 1_554 S
C215 C214 1.392 . S
C215 C216 1.326 1_455 S
C215 H233 0.932 . S
C216 C215 1.326 1_655 S
C216 C217 1.341 . S
C217 C213 1.394 . S
C217 C216 1.341 . S
C217 H232 0.929 . S
C218 C208 1.386 . S
C218 C211 1.353 1_655 S
C218 H231 0.928 . S
H219 C195 0.931 . S
H220 C197 0.930 . S
H221 C199 0.929 . S
H222 C200 0.931 . S
H223 C202 0.930 . S
H224 C206 0.931 . S
H225 C204 0.933 . S
H226 C208 0.931 . S
H227 C209 0.929 . S
H228 C210 0.930 . S
H229 C213 0.930 . S
H230 C214 0.931 1_556 S
H231 C218 0.928 . S
H232 C217 0.929 . S
H233 C215 0.932 . S
C234 C235 1.387 . S
C234 C236 1.397 . S
C234 H258 0.931 . S
C235 C234 1.387 . S
C235 C239 1.396 1_565 S
C236 C234 1.397 . S
C236 C237 1.381 . S
C236 H259 0.930 . S
C237 C236 1.381 . S
C237 C238 1.380 1_565 S
C237 C240 1.480 . S
C238 C237 1.380 1_545 S
C238 C239 1.389 . S
C238 H260 0.929 . S
C239 C235 1.396 1_545 S
C239 C238 1.389 . S
C239 H261 0.931 . S
C240 C237 1.480 . S
C240 C241 1.388 . S
C240 C245 1.390 . S
C241 C240 1.388 . S
C241 C242 1.402 . S
C241 H262 0.930 . S
C242 C241 1.402 . S
C242 C243 1.376 1_554 S
C242 C251 1.512 . S
C243 C242 1.376 1_556 S
C243 C244 1.392 1_565 S
C243 H264 0.933 . S
C244 C243 1.392 1_545 S
C244 C245 1.361 1_546 S
C244 C246 1.499 . S
C245 C240 1.390 . S
C245 C244 1.361 1_564 S
C245 H263 0.931 . S
C246 C244 1.499 . S
C246 C247 1.357 1_545 S
C246 C248 1.380 . S
C247 C246 1.357 1_565 S
C247 C257 1.386 . S
C247 H265 0.931 . S
C248 C246 1.380 . S
C248 C249 1.409 . S
C248 H266 0.929 . S
C249 C248 1.409 . S
C249 C250 1.384 . S
C249 H267 0.930 . S
C250 C249 1.384 . S
C250 C257 1.353 1_545 S
C251 C242 1.512 . S
C251 C252 1.341 . S
C251 C253 1.371 1_565 S
C252 C251 1.341 . S
C252 C256 1.394 . S
C252 H268 0.930 . S
C253 C251 1.371 1_545 S
C253 C254 1.392 . S
C253 H269 0.931 1_554 S
C254 C253 1.392 . S
C254 C255 1.326 1_545 S
C254 H272 0.932 . S
C255 C254 1.326 1_565 S
C255 C256 1.341 . S
C256 C252 1.394 . S
C256 C255 1.341 . S
C256 H271 0.929 . S
C257 C247 1.386 . S
C257 C250 1.353 1_565 S
C257 H270 0.928 . S
H258 C234 0.931 . S
H259 C236 0.930 . S
H260 C238 0.929 . S
H261 C239 0.931 . S
H262 C241 0.930 . S
H263 C245 0.931 . S
H264 C243 0.933 . S
H265 C247 0.931 . S
H266 C248 0.929 . S
H267 C249 0.930 . S
H268 C252 0.930 . S
H269 C253 0.931 1_556 S
H270 C257 0.928 . S
H271 C256 0.929 . S
H272 C254 0.932 . S
C273 C274 1.386 . S
C273 C275 1.397 . S
C273 H297 0.931 . S
C274 C273 1.386 . S
C274 C278 1.397 . S
C275 C273 1.397 . S
C275 C276 1.384 . S
C275 H298 0.930 . S
C276 C275 1.384 . S
C276 C277 1.377 . S
C276 C279 1.481 . S
C277 C276 1.377 . S
C277 C278 1.389 . S
C277 H299 0.929 . S
C278 C274 1.397 . S
C278 C277 1.389 . S
C278 H300 0.931 . S
C279 C276 1.481 . S
C279 C280 1.387 . S
C279 C284 1.390 1_556 S
C280 C279 1.387 . S
C280 C281 1.401 1_556 S
C280 H301 0.930 . S
C281 C280 1.401 1_554 S
C281 C282 1.376 . S
C281 C290 1.511 . S
C282 C281 1.376 . S
C282 C283 1.392 . S
C282 H303 0.931 . S
C283 C282 1.392 . S
C283 C284 1.361 . S
C283 C285 1.500 . S
C284 C279 1.390 1_554 S
C284 C283 1.361 . S
C284 H302 0.931 . S
C285 C283 1.500 . S
C285 C286 1.371 . S
C285 C287 1.365 . S
C286 C285 1.371 . S
C286 C296 1.386 . S
C286 H304 0.931 . S
C287 C285 1.365 . S
C287 C288 1.409 . S
C287 H305 0.929 . S
C288 C287 1.409 . S
C288 C289 1.380 . S
C288 H306 0.930 . S
C289 C288 1.380 . S
C289 C296 1.357 . S
C290 C281 1.511 . S
C290 C291 1.341 . S
C290 C292 1.371 . S
C291 C290 1.341 . S
C291 C295 1.394 . S
C291 H307 0.930 1_554 S
C292 C290 1.371 . S
C292 C293 1.392 . S
C292 H308 0.931 . S
C293 C292 1.392 . S
C293 C294 1.331 . S
C293 H311 0.932 . S
C294 C293 1.331 . S
C294 C295 1.336 . S
C295 C291 1.394 . S
C295 C294 1.336 . S
C295 H310 0.937 . S
C296 C286 1.386 . S
C296 C289 1.357 . S
C296 H309 0.928 . S
H297 C273 0.931 . S
H298 C275 0.930 . S
H299 C277 0.929 . S
H300 C278 0.931 . S
H301 C280 0.930 . S
H302 C284 0.931 . S
H303 C282 0.931 . S
H304 C286 0.931 . S
H305 C287 0.929 . S
H306 C288 0.930 . S
H307 C291 0.930 1_556 S
H308 C292 0.931 . S
H309 C296 0.928 . S
H310 C295 0.937 . S
H311 C293 0.932 . S
Ho312 C315 2.811 . S
Ho312 O332 2.322 . S
Ho312 O334 2.378 . S
Ho312 O335 2.524 . S
Ho312 O336 2.381 . S
Ho312 O337 2.669 1_565 S
Ho312 O339 2.346 1_565 S
Ho312 O343 2.305 1_455 S
Ho313 C324 2.811 . S
Ho313 O333 2.346 1_545 S
Ho313 O337 2.305 1_655 S
Ho313 O338 2.322 . S
Ho313 O340 2.378 . S
Ho313 O341 2.524 . S
Ho313 O342 2.381 . S
Ho313 O343 2.669 1_545 S
C314 O332 1.259 1_655 S
C314 O333 1.268 . S
C315 Ho312 2.811 . S
C315 C316 1.488 . S
C315 O334 1.215 . S
C315 O335 1.289 . S
C316 C315 1.488 . S
C316 C317 1.348 . S
C316 C321 1.413 . S
C317 C316 1.348 . S
C317 C318 1.442 . S
C317 H344 0.930 1_455 S
C318 C317 1.442 . S
C318 C319 1.381 . S
C318 H345 0.931 1_455 S
C319 C318 1.381 . S
C319 C320 1.321 . S
C320 C319 1.321 . S
C320 C321 1.403 . S
C320 H346 0.934 . S
C321 C316 1.413 . S
C321 C320 1.403 . S
C321 H347 0.930 . S
C322 O336 1.296 . S
C322 O337 1.245 1_565 S
C323 O338 1.259 1_455 S
C323 O339 1.268 . S
C324 Ho313 2.811 . S
C324 C325 1.488 . S
C324 O340 1.215 . S
C324 O341 1.289 . S
C325 C324 1.488 . S
C325 C326 1.348 . S
C325 C330 1.413 . S
C326 C325 1.348 . S
C326 C327 1.442 . S
C326 H348 0.930 1_655 S
C327 C326 1.442 . S
C327 C328 1.381 . S
C327 H349 0.931 1_655 S
C328 C327 1.381 . S
C328 C329 1.321 . S
C329 C328 1.321 . S
C329 C330 1.403 . S
C329 H350 0.934 . S
C330 C325 1.413 . S
C330 C329 1.403 . S
C330 H351 0.930 . S
C331 O342 1.302 . S
C331 O343 1.241 1_545 S
O332 Ho312 2.322 . S
O332 C314 1.259 1_455 S
O333 Ho313 2.346 1_565 S
O333 C314 1.268 . S
O334 Ho312 2.378 . S
O334 C315 1.215 . S
O335 Ho312 2.524 . S
O335 C315 1.289 . S
O336 Ho312 2.381 . S
O336 C322 1.296 . S
O337 Ho312 2.669 1_545 S
O337 Ho313 2.305 1_455 S
O337 C322 1.245 1_545 S
O338 Ho313 2.322 . S
O338 C323 1.259 1_655 S
O339 Ho312 2.346 1_545 S
O339 C323 1.268 . S
O340 Ho313 2.378 . S
O340 C324 1.215 . S
O341 Ho313 2.524 . S
O341 C324 1.289 . S
O342 Ho313 2.381 . S
O342 C331 1.302 . S
O343 Ho312 2.305 1_655 S
O343 Ho313 2.669 1_565 S
O343 C331 1.241 1_565 S
H344 C317 0.930 1_655 S
H345 C318 0.931 1_655 S
H346 C320 0.934 . S
H347 C321 0.930 . S
H348 C326 0.930 1_455 S
H349 C327 0.931 1_455 S
H350 C329 0.934 . S
H351 C330 0.930 . S
Ho352 C355 2.811 . S
Ho352 O372 2.322 . S
Ho352 O374 2.378 . S
Ho352 O375 2.524 . S
Ho352 O376 2.381 . S
Ho352 O377 2.669 . S
Ho352 O379 2.346 . S
Ho352 O383 2.305 1_545 S
Ho353 C364 2.811 . S
Ho353 O373 2.346 . S
Ho353 O377 2.305 1_565 S
Ho353 O378 2.322 . S
Ho353 O380 2.378 . S
Ho353 O381 2.524 . S
Ho353 O382 2.381 . S
Ho353 O383 2.669 . S
C354 O372 1.259 1_565 S
C354 O373 1.268 . S
C355 Ho352 2.811 . S
C355 C356 1.488 . S
C355 O374 1.215 . S
C355 O375 1.289 . S
C356 C355 1.488 . S
C356 C357 1.348 . S
C356 C361 1.413 . S
C357 C356 1.348 . S
C357 C358 1.442 . S
C357 H384 0.930 1_545 S
C358 C357 1.442 . S
C358 C359 1.381 . S
C358 H385 0.931 1_545 S
C359 C358 1.381 . S
C359 C360 1.321 . S
C360 C359 1.321 . S
C360 C361 1.403 . S
C360 H386 0.934 . S
C361 C356 1.413 . S
C361 C360 1.403 . S
C361 H387 0.930 . S
C362 O376 1.275 . S
C362 O377 1.256 . S
C363 O378 1.259 1_545 S
C363 O379 1.268 . S
C364 Ho353 2.811 . S
C364 C365 1.488 . S
C364 O380 1.215 . S
C364 O381 1.289 . S
C365 C364 1.488 . S
C365 C366 1.348 . S
C365 C370 1.413 . S
C366 C365 1.348 . S
C366 C367 1.442 . S
C366 H388 0.930 1_565 S
C367 C366 1.442 . S
C367 C368 1.381 . S
C367 H389 0.931 1_565 S
C368 C367 1.381 . S
C368 C369 1.321 . S
C369 C368 1.321 . S
C369 C370 1.403 . S
C369 H390 0.934 . S
C370 C365 1.413 . S
C370 C369 1.403 . S
C370 H391 0.930 . S
C371 O382 1.275 . S
C371 O383 1.256 . S
O372 Ho352 2.322 . S
O372 C354 1.259 1_545 S
O373 Ho353 2.346 . S
O373 C354 1.268 . S
O374 Ho352 2.378 . S
O374 C355 1.215 . S
O375 Ho352 2.524 . S
O375 C355 1.289 . S
O376 Ho352 2.381 . S
O376 C362 1.275 . S
O377 Ho352 2.669 . S
O377 Ho353 2.305 1_545 S
O377 C362 1.256 . S
O378 Ho353 2.322 . S
O378 C363 1.259 1_565 S
O379 Ho352 2.346 . S
O379 C363 1.268 . S
O380 Ho353 2.378 . S
O380 C364 1.215 . S
O381 Ho353 2.524 . S
O381 C364 1.289 . S
O382 Ho353 2.381 . S
O382 C371 1.275 . S
O383 Ho352 2.305 1_565 S
O383 Ho353 2.669 . S
O383 C371 1.256 . S
H384 C357 0.930 1_565 S
H385 C358 0.931 1_565 S
H386 C360 0.934 . S
H387 C361 0.930 . S
H388 C366 0.930 1_545 S
H389 C367 0.931 1_545 S
H390 C369 0.934 . S
H391 C370 0.930 . S
Ho392 C395 2.811 . S
Ho392 O412 2.322 . S
Ho392 O414 2.378 . S
Ho392 O415 2.524 . S
Ho392 O416 2.381 . S
Ho392 O417 2.669 . S
Ho392 O419 2.346 . S
Ho392 O423 2.305 . S
Ho393 C404 2.811 . S
Ho393 O413 2.346 . S
Ho393 O417 2.305 . S
Ho393 O418 2.322 . S
Ho393 O420 2.378 . S
Ho393 O421 2.524 . S
Ho393 O422 2.381 . S
Ho393 O423 2.669 . S
C394 O412 1.259 . S
C394 O413 1.268 . S
C395 Ho392 2.811 . S
C395 C396 1.488 . S
C395 O414 1.215 . S
C395 O415 1.289 . S
C396 C395 1.488 . S
C396 C397 1.348 . S
C396 C401 1.413 . S
C397 C396 1.348 . S
C397 C398 1.442 . S
C397 H424 0.930 . S
C398 C397 1.442 . S
C398 C399 1.381 . S
C398 H425 0.931 . S
C399 C398 1.381 . S
C399 C400 1.321 . S
C400 C399 1.321 . S
C400 C401 1.403 . S
C400 H426 0.934 . S
C401 C396 1.413 . S
C401 C400 1.403 . S
C401 H427 0.930 . S
C402 O416 1.275 . S
C402 O417 1.256 . S
C403 O418 1.259 . S
C403 O419 1.268 . S
C404 Ho393 2.811 . S
C404 C405 1.488 . S
C404 O420 1.215 . S
C404 O421 1.289 . S
C405 C404 1.488 . S
C405 C406 1.348 . S
C405 C410 1.413 . S
C406 C405 1.348 . S
C406 C407 1.442 . S
C406 H428 0.930 . S
C407 C406 1.442 . S
C407 C408 1.381 . S
C407 H429 0.931 . S
C408 C407 1.381 . S
C408 C409 1.321 . S
C409 C408 1.321 . S
C409 C410 1.403 . S
C409 H430 0.934 . S
C410 C405 1.413 . S
C410 C409 1.403 . S
C410 H431 0.930 . S
C411 O422 1.275 . S
C411 O423 1.256 . S
O412 Ho392 2.322 . S
O412 C394 1.259 . S
O413 Ho393 2.346 . S
O413 C394 1.268 . S
O414 Ho392 2.378 . S
O414 C395 1.215 . S
O415 Ho392 2.524 . S
O415 C395 1.289 . S
O416 Ho392 2.381 . S
O416 C402 1.275 . S
O417 Ho392 2.669 . S
O417 Ho393 2.305 . S
O417 C402 1.256 . S
O418 Ho393 2.322 . S
O418 C403 1.259 . S
O419 Ho392 2.346 . S
O419 C403 1.268 . S
O420 Ho393 2.378 . S
O420 C404 1.215 . S
O421 Ho393 2.524 . S
O421 C404 1.289 . S
O422 Ho393 2.381 . S
O422 C411 1.275 . S
O423 Ho392 2.305 . S
O423 Ho393 2.669 . S
O423 C411 1.256 . S
H424 C397 0.930 . S
H425 C398 0.931 . S
H426 C400 0.934 . S
H427 C401 0.930 . S
H428 C406 0.930 . S
H429 C407 0.931 . S
H430 C409 0.934 . S
H431 C410 0.930 . S
Ho432 C435 2.811 . S
Ho432 O452 2.322 . S
Ho432 O454 2.378 . S
Ho432 O455 2.524 . S
Ho432 O456 2.381 . S
Ho432 O457 2.669 1_655 S
Ho432 O459 2.346 1_655 S
Ho432 O463 2.305 . S
Ho433 C444 2.811 . S
Ho433 O453 2.346 1_455 S
Ho433 O457 2.305 . S
Ho433 O458 2.322 . S
Ho433 O460 2.378 . S
Ho433 O461 2.524 . S
Ho433 O462 2.381 . S
Ho433 O463 2.669 1_455 S
C434 O452 1.259 . S
C434 O453 1.268 . S
C435 Ho432 2.811 . S
C435 C436 1.488 . S
C435 O454 1.215 . S
C435 O455 1.289 . S
C436 C435 1.488 . S
C436 C437 1.348 . S
C436 C441 1.413 . S
C437 C436 1.348 . S
C437 C438 1.442 . S
C437 H464 0.930 . S
C438 C437 1.442 . S
C438 C439 1.381 . S
C438 H465 0.931 . S
C439 C438 1.381 . S
C439 C440 1.321 . S
C440 C439 1.321 . S
C440 C441 1.403 . S
C440 H466 0.934 . S
C441 C436 1.413 . S
C441 C440 1.403 . S
C441 H467 0.930 . S
C442 O456 1.292 . S
C442 O457 1.247 1_655 S
C443 O458 1.259 . S
C443 O459 1.268 . S
C444 Ho433 2.811 . S
C444 C445 1.488 . S
C444 O460 1.215 . S
C444 O461 1.289 . S
C445 C444 1.488 . S
C445 C446 1.348 . S
C445 C450 1.413 . S
C446 C445 1.348 . S
C446 C447 1.442 . S
C446 H468 0.930 . S
C447 C446 1.442 . S
C447 C448 1.381 . S
C447 H469 0.931 . S
C448 C447 1.381 . S
C448 C449 1.321 . S
C449 C448 1.321 . S
C449 C450 1.403 . S
C449 H470 0.934 . S
C450 C445 1.413 . S
C450 C449 1.403 . S
C450 H471 0.930 . S
C451 O462 1.298 . S
C451 O463 1.243 1_455 S
O452 Ho432 2.322 . S
O452 C434 1.259 . S
O453 Ho433 2.346 1_655 S
O453 C434 1.268 . S
O454 Ho432 2.378 . S
O454 C435 1.215 . S
O455 Ho432 2.524 . S
O455 C435 1.289 . S
O456 Ho432 2.381 . S
O456 C442 1.292 . S
O457 Ho432 2.669 1_455 S
O457 Ho433 2.305 . S
O457 C442 1.247 1_455 S
O458 Ho433 2.322 . S
O458 C443 1.259 . S
O459 Ho432 2.346 1_455 S
O459 C443 1.268 . S
O460 Ho433 2.378 . S
O460 C444 1.215 . S
O461 Ho433 2.524 . S
O461 C444 1.289 . S
O462 Ho433 2.381 . S
O462 C451 1.298 . S
O463 Ho432 2.305 . S
O463 Ho433 2.669 1_655 S
O463 C451 1.243 1_655 S
H464 C437 0.930 . S
H465 C438 0.931 . S
H466 C440 0.934 . S
H467 C441 0.930 . S
H468 C446 0.930 . S
H469 C447 0.931 . S
H470 C449 0.934 . S
H471 C450 0.930 . S
H472 C484 0.930 . S
H473 C486 0.930 . S
H474 C487 0.930 . S
H475 C491 0.959 . S
H476 C491 0.959 . S
H477 C491 0.961 . S
H478 C492 0.960 . S
H479 C492 0.961 . S
H480 C492 0.959 . S
H481 C495 0.929 . S
H482 C496 0.931 . S
H483 C498 0.930 . S
C484 H472 0.930 . S
C484 C485 1.395 1_545 S
C484 C489 1.399 . S
C485 C484 1.395 1_565 S
C485 C486 1.381 . S
C486 H473 0.930 . S
C486 C485 1.381 . S
C486 C487 1.388 . S
C487 H474 0.930 . S
C487 C486 1.388 . S
C487 C488 1.390 . S
C488 C487 1.390 . S
C488 C489 1.394 1_565 S
C488 C494 1.465 . S
C489 C484 1.399 . S
C489 C488 1.394 1_545 S
C489 C490 1.516 . S
C490 C489 1.516 . S
C490 C491 1.502 . S
C490 C492 1.561 . S
C490 C493 1.526 . S
C491 H475 0.959 . S
C491 H476 0.959 . S
C491 H477 0.961 . S
C491 C490 1.502 . S
C492 H478 0.960 . S
C492 H479 0.961 . S
C492 H480 0.959 . S
C492 C490 1.561 . S
C493 C490 1.526 . S
C493 C494 1.396 1_545 S
C493 C498 1.390 . S
C494 C488 1.465 . S
C494 C493 1.396 1_565 S
C494 C495 1.399 . S
C495 H481 0.929 . S
C495 C494 1.399 . S
C495 C496 1.385 . S
C496 H482 0.931 . S
C496 C495 1.385 . S
C496 C497 1.387 1_565 S
C497 C496 1.387 1_545 S
C497 C498 1.389 . S
C498 H483 0.930 . S
C498 C493 1.390 . S
C498 C497 1.389 . S
H499 C511 0.930 . S
H500 C513 0.930 . S
H501 C514 0.930 . S
H502 C518 0.959 . S
H503 C518 0.959 . S
H504 C518 0.961 . S
H505 C519 0.960 . S
H506 C519 0.961 . S
H507 C519 0.959 . S
H508 C522 0.929 . S
H509 C523 0.931 . S
H510 C525 0.930 . S
C511 H499 0.930 . S
C511 C512 1.399 . S
C511 C516 1.399 . S
C512 C511 1.399 . S
C512 C513 1.376 . S
C513 H500 0.930 . S
C513 C512 1.376 . S
C513 C514 1.388 . S
C514 H501 0.930 . S
C514 C513 1.388 . S
C514 C515 1.390 . S
C515 C514 1.390 . S
C515 C516 1.394 . S
C515 C521 1.465 . S
C516 C511 1.399 . S
C516 C515 1.394 . S
C516 C517 1.516 . S
C517 C516 1.516 . S
C517 C518 1.502 . S
C517 C519 1.561 . S
C517 C520 1.526 . S
C518 H502 0.959 . S
C518 H503 0.959 . S
C518 H504 0.961 . S
C518 C517 1.502 . S
C519 H505 0.960 . S
C519 H506 0.961 . S
C519 H507 0.959 . S
C519 C517 1.561 . S
C520 C517 1.526 . S
C520 C521 1.396 . S
C520 C525 1.390 . S
C521 C515 1.465 . S
C521 C520 1.396 . S
C521 C522 1.399 . S
C522 H508 0.929 . S
C522 C521 1.399 . S
C522 C523 1.385 . S
C523 H509 0.931 . S
C523 C522 1.385 . S
C523 C524 1.389 . S
C524 C523 1.389 . S
C524 C525 1.387 . S
C525 H510 0.930 . S
C525 C520 1.390 . S
C525 C524 1.387 . S
H526 C538 0.930 . S
H527 C540 0.930 . S
H528 C541 0.930 . S
H529 C545 0.959 . S
H530 C545 0.959 . S
H531 C545 0.961 . S
H532 C546 0.960 . S
H533 C546 0.961 . S
H534 C546 0.959 . S
H535 C549 0.929 . S
H536 C550 0.931 . S
H537 C552 0.930 . S
C538 H526 0.930 . S
C538 C539 1.399 . S
C538 C543 1.399 . S
C539 C538 1.399 . S
C539 C540 1.376 . S
C540 H527 0.930 . S
C540 C539 1.376 . S
C540 C541 1.388 . S
C541 H528 0.930 . S
C541 C540 1.388 . S
C541 C542 1.390 . S
C542 C541 1.390 . S
C542 C543 1.394 . S
C542 C548 1.465 . S
C543 C538 1.399 . S
C543 C542 1.394 . S
C543 C544 1.516 . S
C544 C543 1.516 . S
C544 C545 1.502 . S
C544 C546 1.561 . S
C544 C547 1.526 . S
C545 H529 0.959 . S
C545 H530 0.959 . S
C545 H531 0.961 . S
C545 C544 1.502 . S
C546 H532 0.960 . S
C546 H533 0.961 . S
C546 H534 0.959 . S
C546 C544 1.561 . S
C547 C544 1.526 . S
C547 C548 1.396 . S
C547 C552 1.390 . S
C548 C542 1.465 . S
C548 C547 1.396 . S
C548 C549 1.399 . S
C549 H535 0.929 . S
C549 C548 1.399 . S
C549 C550 1.385 . S
C550 H536 0.931 . S
C550 C549 1.385 . S
C550 C551 1.389 . S
C551 C550 1.389 . S
C551 C552 1.387 . S
C552 H537 0.930 . S
C552 C547 1.390 . S
C552 C551 1.387 . S
H553 C565 0.930 . S
H554 C567 0.930 . S
H555 C568 0.930 . S
H556 C572 0.959 . S
H557 C572 0.959 . S
H558 C572 0.961 . S
H559 C573 0.960 . S
H560 C573 0.961 . S
H561 C573 0.959 . S
H562 C576 0.929 . S
H563 C577 0.931 . S
H564 C579 0.930 . S
C565 H553 0.930 . S
C565 C566 1.399 1_655 S
C565 C570 1.399 1_655 S
C566 C565 1.399 1_455 S
C566 C567 1.376 . S
C567 H554 0.930 . S
C567 C566 1.376 . S
C567 C568 1.388 . S
C568 H555 0.930 . S
C568 C567 1.388 . S
C568 C569 1.390 . S
C569 C568 1.390 . S
C569 C570 1.394 . S
C569 C575 1.465 . S
C570 C565 1.399 1_455 S
C570 C569 1.394 . S
C570 C571 1.516 1_455 S
C571 C570 1.516 1_655 S
C571 C572 1.502 . S
C571 C573 1.561 1_655 S
C571 C574 1.523 1_655 S
C572 H556 0.959 . S
C572 H557 0.959 . S
C572 H558 0.961 . S
C572 C571 1.502 . S
C573 H559 0.960 . S
C573 H560 0.961 . S
C573 H561 0.959 . S
C573 C571 1.561 1_455 S
C574 C571 1.523 1_455 S
C574 C575 1.401 . S
C574 C579 1.388 1_455 S
C575 C569 1.465 . S
C575 C574 1.401 . S
C575 C576 1.399 . S
C576 H562 0.929 . S
C576 C575 1.399 . S
C576 C577 1.385 . S
C577 H563 0.931 . S
C577 C576 1.385 . S
C577 C578 1.389 . S
C578 C577 1.389 . S
C578 C579 1.387 1_455 S
C579 H564 0.930 . S
C579 C574 1.388 1_655 S
C579 C578 1.387 1_655 S
H580 C592 0.930 . S
H581 C594 0.930 . S
H582 C595 0.930 . S
H583 C599 0.959 . S
H584 C599 0.959 . S
H585 C599 0.961 . S
H586 C600 0.960 . S
H587 C600 0.961 1_556 S
H588 C600 0.962 . S
H589 C603 0.929 . S
H590 C604 0.931 . S
H591 C606 0.930 . S
C592 H580 0.930 . S
C592 C593 1.399 1_565 S
C592 C597 1.399 . S
C593 C592 1.399 1_545 S
C593 C594 1.376 . S
C594 H581 0.930 . S
C594 C593 1.376 . S
C594 C595 1.388 . S
C595 H582 0.930 . S
C595 C594 1.388 . S
C595 C596 1.390 . S
C596 C595 1.390 . S
C596 C597 1.394 1_545 S
C596 C602 1.465 1_554 S
C597 C592 1.399 . S
C597 C596 1.394 1_565 S
C597 C598 1.516 . S
C598 C597 1.516 . S
C598 C599 1.502 . S
C598 C600 1.561 . S
C598 C601 1.526 1_554 S
C599 H583 0.959 . S
C599 H584 0.959 . S
C599 H585 0.961 . S
C599 C598 1.502 . S
C600 H586 0.960 . S
C600 H587 0.961 1_554 S
C600 H588 0.962 . S
C600 C598 1.561 . S
C601 C598 1.526 1_556 S
C601 C602 1.396 1_565 S
C601 C606 1.390 . S
C602 C596 1.465 1_556 S
C602 C601 1.396 1_545 S
C602 C603 1.399 . S
C603 H589 0.929 . S
C603 C602 1.399 . S
C603 C604 1.385 . S
C604 H590 0.931 . S
C604 C603 1.385 . S
C604 C605 1.428 . S
C605 C604 1.428 . S
C605 C606 1.356 1_545 S
C606 H591 0.930 . S
C606 C601 1.390 . S
C606 C605 1.356 1_565 S
H607 C619 0.930 . S
H608 C621 0.930 . S
H609 C622 0.930 . S
H610 C626 0.959 . S
H611 C626 0.959 . S
H612 C626 0.961 1_554 S
H613 C627 0.960 . S
H614 C627 0.961 1_556 S
H615 C627 0.959 . S
H616 C630 0.929 1_554 S
H617 C631 0.931 . S
H618 C633 0.930 . S
C619 H607 0.930 . S
C619 C620 1.399 . S
C619 C624 1.399 . S
C620 C619 1.399 . S
C620 C621 1.376 . S
C621 H608 0.930 . S
C621 C620 1.376 . S
C621 C622 1.388 . S
C622 H609 0.930 . S
C622 C621 1.388 . S
C622 C623 1.390 . S
C623 C622 1.390 . S
C623 C624 1.394 . S
C623 C629 1.465 . S
C624 C619 1.399 . S
C624 C623 1.394 . S
C624 C625 1.516 . S
C625 C624 1.516 . S
C625 C626 1.502 1_554 S
C625 C627 1.561 . S
C625 C628 1.526 1_554 S
C626 H610 0.959 . S
C626 H611 0.959 . S
C626 H612 0.961 1_556 S
C626 C625 1.502 1_556 S
C627 H613 0.960 . S
C627 H614 0.961 1_554 S
C627 H615 0.959 . S
C627 C625 1.561 . S
C628 C625 1.526 1_556 S
C628 C629 1.396 1_556 S
C628 C633 1.390 . S
C629 C623 1.465 . S
C629 C628 1.396 1_554 S
C629 C630 1.399 1_554 S
C630 H616 0.929 1_556 S
C630 C629 1.399 1_556 S
C630 C631 1.385 . S
C631 H617 0.931 . S
C631 C630 1.385 . S
C631 C632 1.389 . S
C632 C631 1.389 . S
C632 C633 1.387 . S
C633 H618 0.930 . S
C633 C628 1.390 . S
C633 C632 1.387 . S
H634 C646 0.930 . S
H635 C648 0.930 . S
H636 C649 0.930 . S
H637 C653 0.959 . S
H638 C653 0.959 . S
H639 C653 0.961 1_554 S
H640 C654 0.960 . S
H641 C654 0.961 1_556 S
H642 C654 0.959 . S
H643 C657 0.929 1_554 S
H644 C658 0.931 . S
H645 C660 0.930 . S
C646 H634 0.930 . S
C646 C647 1.399 . S
C646 C651 1.399 . S
C647 C646 1.399 . S
C647 C648 1.376 . S
C648 H635 0.930 . S
C648 C647 1.376 . S
C648 C649 1.388 . S
C649 H636 0.930 . S
C649 C648 1.388 . S
C649 C650 1.390 . S
C650 C649 1.390 . S
C650 C651 1.394 . S
C650 C656 1.465 . S
C651 C646 1.399 . S
C651 C650 1.394 . S
C651 C652 1.516 . S
C652 C651 1.516 . S
C652 C653 1.502 1_554 S
C652 C654 1.561 . S
C652 C655 1.526 1_554 S
C653 H637 0.959 . S
C653 H638 0.959 . S
C653 H639 0.961 1_556 S
C653 C652 1.502 1_556 S
C654 H640 0.960 . S
C654 H641 0.961 1_554 S
C654 H642 0.959 . S
C654 C652 1.561 . S
C655 C652 1.526 1_556 S
C655 C656 1.396 1_556 S
C655 C660 1.390 . S
C656 C650 1.465 . S
C656 C655 1.396 1_554 S
C656 C657 1.399 1_554 S
C657 H643 0.929 1_556 S
C657 C656 1.399 1_556 S
C657 C658 1.385 . S
C658 H644 0.931 . S
C658 C657 1.385 . S
C658 C659 1.389 . S
C659 C658 1.389 . S
C659 C660 1.387 . S
C660 H645 0.930 . S
C660 C655 1.390 . S
C660 C659 1.387 . S
H661 C673 0.930 . S
H662 C675 0.930 . S
H663 C676 0.930 . S
H664 C680 0.959 . S
H665 C680 0.959 . S
H666 C680 0.961 . S
H667 C681 0.960 . S
H668 C681 0.961 . S
H669 C681 0.959 . S
H670 C684 0.929 . S
H671 C685 0.931 . S
H672 C687 0.930 . S
C673 H661 0.930 . S
C673 C674 1.399 1_455 S
C673 C678 1.399 . S
C674 C673 1.399 1_655 S
C674 C675 1.376 . S
C675 H662 0.930 . S
C675 C674 1.376 . S
C675 C676 1.388 . S
C676 H663 0.930 . S
C676 C675 1.388 . S
C676 C677 1.390 . S
C677 C676 1.390 . S
C677 C678 1.394 1_655 S
C677 C683 1.465 1_554 S
C678 C673 1.399 . S
C678 C677 1.394 1_455 S
C678 C679 1.516 . S
C679 C678 1.516 . S
C679 C680 1.502 . S
C679 C681 1.561 . S
C679 C682 1.526 1_554 S
C680 H664 0.959 . S
C680 H665 0.959 . S
C680 H666 0.961 . S
C680 C679 1.502 . S
C681 H667 0.960 . S
C681 H668 0.961 . S
C681 H669 0.959 . S
C681 C679 1.561 . S
C682 C679 1.526 1_556 S
C682 C683 1.396 1_455 S
C682 C687 1.390 . S
C683 C677 1.465 1_556 S
C683 C682 1.396 1_655 S
C683 C684 1.399 . S
C684 H670 0.929 . S
C684 C683 1.399 . S
C684 C685 1.385 . S
C685 H671 0.931 . S
C685 C684 1.385 . S
C685 C686 1.389 . S
C686 C685 1.389 . S
C686 C687 1.387 1_655 S
C687 H672 0.930 . S
C687 C682 1.390 . S
C687 C686 1.387 1_455 S
H688 C700 0.930 . S
H689 C702 0.930 . S
H690 C703 0.930 . S
H691 C707 0.959 . S
H692 C707 0.959 . S
H693 C707 0.961 . S
H694 C708 0.960 . S
H695 C708 0.961 . S
H696 C708 0.959 . S
H697 C711 0.929 . S
H698 C712 0.931 . S
H699 C714 0.930 . S
C700 H688 0.930 . S
C700 C701 1.421 . S
C700 C705 1.387 1_455 S
C701 C700 1.421 . S
C701 C702 1.332 1_455 S
C702 H689 0.930 . S
C702 C701 1.332 1_655 S
C702 C703 1.388 . S
C703 H690 0.930 . S
C703 C702 1.388 . S
C703 C704 1.390 . S
C704 C703 1.390 . S
C704 C705 1.416 . S
C704 C710 1.465 . S
C705 C700 1.387 1_655 S
C705 C704 1.416 . S
C705 C706 1.509 1_655 S
C706 C705 1.509 1_455 S
C706 C707 1.502 . S
C706 C708 1.561 . S
C706 C709 1.526 1_455 S
C707 H691 0.959 . S
C707 H692 0.959 . S
C707 H693 0.961 . S
C707 C706 1.502 . S
C708 H694 0.960 . S
C708 H695 0.961 . S
C708 H696 0.959 . S
C708 C706 1.561 . S
C709 C706 1.526 1_655 S
C709 C710 1.396 . S
C709 C714 1.390 . S
C710 C704 1.465 . S
C710 C709 1.396 . S
C710 C711 1.399 . S
C711 H697 0.929 . S
C711 C710 1.399 . S
C711 C712 1.385 . S
C712 H698 0.931 . S
C712 C711 1.385 . S
C712 C713 1.389 . S
C713 C712 1.389 . S
C713 C714 1.387 . S
C714 H699 0.930 . S
C714 C709 1.390 . S
C714 C713 1.387 . S
H715 C727 0.930 . S
H716 C729 0.930 . S
H717 C730 0.930 . S
H718 C734 0.959 . S
H719 C734 0.959 . S
H720 C734 0.961 . S
H721 C735 0.960 . S
H722 C735 0.961 . S
H723 C735 1.000 . S
H724 C738 0.929 . S
H725 C739 0.931 . S
H726 C741 0.930 . S
C727 H715 0.930 . S
C727 C728 1.399 . S
C727 C732 1.376 1_545 S
C728 C727 1.399 . S
C728 C729 1.376 1_545 S
C729 H716 0.930 . S
C729 C728 1.376 1_565 S
C729 C730 1.388 . S
C730 H717 0.930 . S
C730 C729 1.388 . S
C730 C731 1.390 . S
C731 C730 1.390 . S
C731 C732 1.438 . S
C731 C737 1.465 . S
C732 C727 1.376 1_565 S
C732 C731 1.438 . S
C732 C733 1.503 1_565 S
C733 C732 1.503 1_545 S
C733 C734 1.502 . S
C733 C735 1.561 . S
C733 C736 1.526 1_545 S
C734 H718 0.959 . S
C734 H719 0.959 . S
C734 H720 0.961 . S
C734 C733 1.502 . S
C735 H721 0.960 . S
C735 H722 0.961 . S
C735 H723 1.000 . S
C735 C733 1.561 . S
C736 C733 1.526 1_565 S
C736 C737 1.396 . S
C736 C741 1.390 . S
C737 C731 1.465 . S
C737 C736 1.396 . S
C737 C738 1.399 . S
C738 H724 0.929 . S
C738 C737 1.399 . S
C738 C739 1.385 . S
C739 H725 0.931 . S
C739 C738 1.385 . S
C739 C740 1.389 . S
C740 C739 1.389 . S
C740 C741 1.387 . S
C741 H726 0.930 . S
C741 C736 1.390 . S
C741 C740 1.387 . S
H742 C754 0.930 . S
H743 C756 0.930 . S
H744 C757 0.930 . S
H745 C761 0.959 . S
H746 C761 0.959 . S
H747 C761 0.961 . S
H748 C762 0.960 . S
H749 C762 0.961 . S
H750 C762 0.959 . S
H751 C765 0.929 . S
H752 C766 0.931 . S
H753 C768 0.930 . S
C754 H742 0.930 . S
C754 C755 1.399 . S
C754 C759 1.399 . S
C755 C754 1.399 . S
C755 C756 1.376 . S
C756 H743 0.930 . S
C756 C755 1.376 . S
C756 C757 1.388 . S
C757 H744 0.930 . S
C757 C756 1.388 . S
C757 C758 1.390 . S
C758 C757 1.390 . S
C758 C759 1.394 . S
C758 C764 1.465 . S
C759 C754 1.399 . S
C759 C758 1.394 . S
C759 C760 1.516 . S
C760 C759 1.516 . S
C760 C761 1.502 . S
C760 C762 1.561 . S
C760 C763 1.526 . S
C761 H745 0.959 . S
C761 H746 0.959 . S
C761 H747 0.961 . S
C761 C760 1.502 . S
C762 H748 0.960 . S
C762 H749 0.961 . S
C762 H750 0.959 . S
C762 C760 1.561 . S
C763 C760 1.526 . S
C763 C764 1.396 . S
C763 C768 1.390 . S
C764 C758 1.465 . S
C764 C763 1.396 . S
C764 C765 1.399 . S
C765 H751 0.929 . S
C765 C764 1.399 . S
C765 C766 1.385 . S
C766 H752 0.931 . S
C766 C765 1.385 . S
C766 C767 1.389 . S
C767 C766 1.389 . S
C767 C768 1.387 . S
C768 H753 0.930 . S
C768 C763 1.390 . S
C768 C767 1.387 . S
H769 C781 0.930 . S
H770 C783 0.930 . S
H771 C784 0.930 . S
H772 C788 0.959 . S
H773 C788 0.959 . S
H774 C788 0.961 . S
H775 C789 0.960 . S
H776 C789 0.961 . S
H777 C789 0.959 . S
H778 C792 0.929 . S
H779 C793 0.931 . S
H780 C795 0.930 . S
C781 H769 0.930 . S
C781 C782 1.399 . S
C781 C786 1.399 . S
C782 C781 1.399 . S
C782 C783 1.376 . S
C783 H770 0.930 . S
C783 C782 1.376 . S
C783 C784 1.388 . S
C784 H771 0.930 . S
C784 C783 1.388 . S
C784 C785 1.390 . S
C785 C784 1.390 . S
C785 C786 1.394 . S
C785 C791 1.465 . S
C786 C781 1.399 . S
C786 C785 1.394 . S
C786 C787 1.516 . S
C787 C786 1.516 . S
C787 C788 1.502 . S
C787 C789 1.561 . S
C787 C790 1.526 . S
C788 H772 0.959 . S
C788 H773 0.959 . S
C788 H774 0.961 . S
C788 C787 1.502 . S
C789 H775 0.960 . S
C789 H776 0.961 . S
C789 H777 0.959 . S
C789 C787 1.561 . S
C790 C787 1.526 . S
C790 C791 1.396 . S
C790 C795 1.390 . S
C791 C785 1.465 . S
C791 C790 1.396 . S
C791 C792 1.399 . S
C792 H778 0.929 . S
C792 C791 1.399 . S
C792 C793 1.385 . S
C793 H779 0.931 . S
C793 C792 1.385 . S
C793 C794 1.389 . S
C794 C793 1.389 . S
C794 C795 1.387 . S
C795 H780 0.930 . S
C795 C790 1.390 . S
C795 C794 1.387 . S
H796 C808 0.939 . S
H797 C810 0.925 1_655 S
H798 C811 0.930 . S
H799 C815 0.959 1_655 S
H800 C815 0.959 . S
H801 C815 0.961 1_655 S
H802 C816 0.960 . S
H803 C816 0.961 . S
H804 C816 0.959 . S
H805 C819 0.929 . S
H806 C820 0.931 . S
H807 C822 0.930 . S
C808 H796 0.939 . S
C808 C809 1.399 1_455 S
C808 C813 1.399 . S
C809 C808 1.399 1_655 S
C809 C810 1.376 1_655 S
C810 H797 0.925 1_455 S
C810 C809 1.376 1_455 S
C810 C811 1.388 1_554 S
C811 H798 0.930 . S
C811 C810 1.388 1_556 S
C811 C812 1.390 1_556 S
C812 C811 1.390 1_554 S
C812 C813 1.394 . S
C812 C818 1.465 1_554 S
C813 C808 1.399 . S
C813 C812 1.394 . S
C813 C814 1.516 . S
C814 C813 1.516 . S
C814 C815 1.502 . S
C814 C816 1.561 . S
C814 C817 1.526 . S
C815 H799 0.959 1_455 S
C815 H800 0.959 . S
C815 H801 0.961 1_455 S
C815 C814 1.502 . S
C816 H802 0.960 . S
C816 H803 0.961 . S
C816 H804 0.959 . S
C816 C814 1.561 . S
C817 C814 1.526 . S
C817 C818 1.396 1_554 S
C817 C822 1.390 . S
C818 C812 1.465 1_556 S
C818 C817 1.396 1_556 S
C818 C819 1.399 . S
C819 H805 0.929 . S
C819 C818 1.399 . S
C819 C820 1.385 . S
C820 H806 0.931 . S
C820 C819 1.385 . S
C820 C821 1.389 . S
C821 C820 1.389 . S
C821 C822 1.387 1_556 S
C822 H807 0.930 . S
C822 C817 1.390 . S
C822 C821 1.387 1_554 S
H823 C835 0.930 . S
H824 C837 0.930 . S
H825 C838 0.930 . S
H826 C842 0.959 1_545 S
H827 C842 0.959 . S
H828 C842 0.961 . S
H829 C843 0.960 . S
H830 C843 0.961 1_556 S
H831 C843 0.959 . S
H832 C846 0.929 . S
H833 C847 0.931 . S
H834 C849 0.930 . S
C835 H823 0.930 . S
C835 C836 1.418 . S
C835 C840 1.376 1_565 S
C836 C835 1.418 . S
C836 C837 1.338 1_565 S
C837 H824 0.930 . S
C837 C836 1.338 1_545 S
C837 C838 1.388 . S
C838 H825 0.930 . S
C838 C837 1.388 . S
C838 C839 1.390 . S
C839 C838 1.390 . S
C839 C840 1.438 . S
C839 C845 1.465 . S
C840 C835 1.376 1_545 S
C840 C839 1.438 . S
C840 C841 1.503 1_544 S
C841 C840 1.503 1_566 S
C841 C842 1.502 . S
C841 C843 1.561 1_556 S
C841 C844 1.526 1_565 S
C842 H826 0.959 1_565 S
C842 H827 0.959 . S
C842 H828 0.961 . S
C842 C841 1.502 . S
C843 H829 0.960 . S
C843 H830 0.961 1_554 S
C843 H831 0.959 . S
C843 C841 1.561 1_554 S
C844 C841 1.526 1_545 S
C844 C845 1.396 1_556 S
C844 C849 1.390 . S
C845 C839 1.465 . S
C845 C844 1.396 1_554 S
C845 C846 1.399 . S
C846 H832 0.929 . S
C846 C845 1.399 . S
C846 C847 1.385 . S
C847 H833 0.931 . S
C847 C846 1.385 . S
C847 C848 1.389 1_554 S
C848 C847 1.389 1_556 S
C848 C849 1.387 . S
C849 H834 0.930 . S
C849 C844 1.390 . S
C849 C848 1.387 . S
H850 C862 0.930 . S
H851 C864 0.930 . S
H852 C865 0.930 . S
H853 C869 0.959 . S
H854 C869 0.959 . S
H855 C869 0.961 . S
H856 C870 0.960 . S
H857 C870 0.961 . S
H858 C870 0.959 . S
H859 C873 0.929 . S
H860 C874 0.931 . S
H861 C876 0.930 . S
C862 H850 0.930 . S
C862 C863 1.399 . S
C862 C867 1.399 . S
C863 C862 1.399 . S
C863 C864 1.376 . S
C864 H851 0.930 . S
C864 C863 1.376 . S
C864 C865 1.388 . S
C865 H852 0.930 . S
C865 C864 1.388 . S
C865 C866 1.390 . S
C866 C865 1.390 . S
C866 C867 1.394 . S
C866 C872 1.465 . S
C867 C862 1.399 . S
C867 C866 1.394 . S
C867 C868 1.516 1_554 S
C868 C867 1.516 1_556 S
C868 C869 1.502 . S
C868 C870 1.561 . S
C868 C871 1.526 . S
C869 H853 0.959 . S
C869 H854 0.959 . S
C869 H855 0.961 . S
C869 C868 1.502 . S
C870 H856 0.960 . S
C870 H857 0.961 . S
C870 H858 0.959 . S
C870 C868 1.561 . S
C871 C868 1.526 . S
C871 C872 1.396 1_556 S
C871 C876 1.390 . S
C872 C866 1.465 . S
C872 C871 1.396 1_554 S
C872 C873 1.399 . S
C873 H859 0.929 . S
C873 C872 1.399 . S
C873 C874 1.385 . S
C874 H860 0.931 . S
C874 C873 1.385 . S
C874 C875 1.389 1_554 S
C875 C874 1.389 1_556 S
C875 C876 1.387 . S
C876 H861 0.930 . S
C876 C871 1.390 . S
C876 C875 1.387 . S
H877 C889 0.930 . S
H878 C891 0.930 . S
H879 C892 0.930 . S
H880 C896 0.959 . S
H881 C896 0.959 . S
H882 C896 0.961 . S
H883 C897 0.960 . S
H884 C897 0.961 1_556 S
H885 C897 0.959 . S
H886 C900 0.929 . S
H887 C901 0.931 . S
H888 C903 0.930 . S
C889 H877 0.930 . S
C889 C890 1.399 . S
C889 C894 1.399 . S
C890 C889 1.399 . S
C890 C891 1.376 . S
C891 H878 0.930 . S
C891 C890 1.376 . S
C891 C892 1.388 . S
C892 H879 0.930 . S
C892 C891 1.388 . S
C892 C893 1.390 . S
C893 C892 1.390 . S
C893 C894 1.394 . S
C893 C899 1.465 . S
C894 C889 1.399 . S
C894 C893 1.394 . S
C894 C895 1.516 1_554 S
C895 C894 1.516 1_556 S
C895 C896 1.502 . S
C895 C897 1.561 1_556 S
C895 C898 1.526 . S
C896 H880 0.959 . S
C896 H881 0.959 . S
C896 H882 0.961 . S
C896 C895 1.502 . S
C897 H883 0.960 . S
C897 H884 0.961 1_554 S
C897 H885 0.959 . S
C897 C895 1.561 1_554 S
C898 C895 1.526 . S
C898 C899 1.396 1_556 S
C898 C903 1.390 . S
C899 C893 1.465 . S
C899 C898 1.396 1_554 S
C899 C900 1.399 . S
C900 H886 0.929 . S
C900 C899 1.399 . S
C900 C901 1.385 . S
C901 H887 0.931 . S
C901 C900 1.385 . S
C901 C902 1.389 1_554 S
C902 C901 1.389 1_556 S
C902 C903 1.387 . S
C903 H888 0.930 . S
C903 C898 1.390 . S
C903 C902 1.387 . S
H904 C916 0.930 . S
H905 C918 0.930 . S
H906 C919 0.930 . S
H907 C923 0.959 . S
H908 C923 0.959 . S
H909 C923 0.961 . S
H910 C924 0.960 . S
H911 C924 0.961 . S
H912 C924 0.959 . S
H913 C927 0.929 . S
H914 C928 0.931 1_655 S
H915 C930 0.930 . S
C916 H904 0.930 . S
C916 C917 1.399 . S
C916 C921 1.399 . S
C917 C916 1.399 . S
C917 C918 1.376 1_455 S
C918 H905 0.930 . S
C918 C917 1.376 1_655 S
C918 C919 1.388 . S
C919 H906 0.930 . S
C919 C918 1.388 . S
C919 C920 1.394 . S
C920 C919 1.394 . S
C920 C921 1.389 1_655 S
C920 C926 1.464 1_655 S
C921 C916 1.399 . S
C921 C920 1.389 1_455 S
C921 C922 1.516 . S
C922 C921 1.516 . S
C922 C923 1.502 . S
C922 C924 1.561 1_455 S
C922 C925 1.526 . S
C923 H907 0.959 . S
C923 H908 0.959 . S
C923 H909 0.961 . S
C923 C922 1.502 . S
C924 H910 0.960 . S
C924 H911 0.961 . S
C924 H912 0.959 . S
C924 C922 1.561 1_655 S
C925 C922 1.526 . S
C925 C926 1.396 . S
C925 C930 1.390 . S
C926 C920 1.464 1_455 S
C926 C925 1.396 . S
C926 C927 1.399 1_455 S
C927 H913 0.929 . S
C927 C926 1.399 1_655 S
C927 C928 1.385 1_655 S
C928 H914 0.931 1_455 S
C928 C927 1.385 1_455 S
C928 C929 1.389 . S
C929 C928 1.389 . S
C929 C930 1.387 . S
C930 H915 0.930 . S
C930 C925 1.390 . S
C930 C929 1.387 . S
H931 C943 0.930 . S
H932 C945 0.930 . S
H933 C946 0.930 . S
H934 C950 0.959 . S
H935 C950 0.959 . S
H936 C950 0.961 . S
H937 C951 0.960 . S
H938 C951 0.961 . S
H939 C951 0.959 . S
H940 C954 0.929 . S
H941 C955 0.931 . S
H942 C957 0.930 . S
C943 H931 0.930 . S
C943 C944 1.405 . S
C943 C948 1.399 . S
C944 C943 1.405 . S
C944 C945 1.369 1_545 S
C945 H932 0.930 . S
C945 C944 1.369 1_565 S
C945 C946 1.388 . S
C946 H933 0.930 . S
C946 C945 1.388 . S
C946 C947 1.390 . S
C947 C946 1.390 . S
C947 C948 1.394 1_565 S
C947 C953 1.465 . S
C948 C943 1.399 . S
C948 C947 1.394 1_545 S
C948 C949 1.516 . S
C949 C948 1.516 . S
C949 C950 1.502 . S
C949 C951 1.561 . S
C949 C952 1.526 . S
C950 H934 0.959 . S
C950 H935 0.959 . S
C950 H936 0.961 . S
C950 C949 1.502 . S
C951 H937 0.960 . S
C951 H938 0.961 . S
C951 H939 0.959 . S
C951 C949 1.561 . S
C952 C949 1.526 . S
C952 C953 1.396 1_545 S
C952 C957 1.390 . S
C953 C947 1.465 . S
C953 C952 1.396 1_565 S
C953 C954 1.399 . S
C954 H940 0.929 . S
C954 C953 1.399 . S
C954 C955 1.385 . S
C955 H941 0.931 . S
C955 C954 1.385 . S
C955 C956 1.389 1_565 S
C956 C955 1.389 1_545 S
C956 C957 1.387 . S
C957 H942 0.930 . S
C957 C952 1.390 . S
C957 C956 1.387 . S
H958 C970 0.930 . S
H959 C972 0.930 . S
H960 C973 0.930 . S
H961 C977 0.959 . S
H962 C977 0.959 . S
H963 C977 0.961 . S
H964 C978 0.960 . S
H965 C978 0.961 . S
H966 C978 0.959 . S
H967 C981 0.929 . S
H968 C982 0.931 . S
H969 C984 0.930 . S
C970 H958 0.930 . S
C970 C971 1.399 . S
C970 C975 1.399 . S
C971 C970 1.399 . S
C971 C972 1.376 . S
C972 H959 0.930 . S
C972 C971 1.376 . S
C972 C973 1.388 . S
C973 H960 0.930 . S
C973 C972 1.388 . S
C973 C974 1.390 . S
C974 C973 1.390 . S
C974 C975 1.394 . S
C974 C980 1.465 . S
C975 C970 1.399 . S
C975 C974 1.394 . S
C975 C976 1.516 . S
C976 C975 1.516 . S
C976 C977 1.502 . S
C976 C978 1.561 . S
C976 C979 1.526 . S
C977 H961 0.959 . S
C977 H962 0.959 . S
C977 H963 0.961 . S
C977 C976 1.502 . S
C978 H964 0.960 . S
C978 H965 0.961 . S
C978 H966 0.959 . S
C978 C976 1.561 . S
C979 C976 1.526 . S
C979 C980 1.396 . S
C979 C984 1.390 . S
C980 C974 1.465 . S
C980 C979 1.396 . S
C980 C981 1.399 . S
C981 H967 0.929 . S
C981 C980 1.399 . S
C981 C982 1.385 . S
C982 H968 0.931 . S
C982 C981 1.385 . S
C982 C983 1.389 . S
C983 C982 1.389 . S
C983 C984 1.387 . S
C984 H969 0.930 . S
C984 C979 1.390 . S
C984 C983 1.387 . S
H985 C997 0.930 . S
H986 C999 0.930 . S
H987 C1000 0.930 . S
H988 C1004 0.959 . S
H989 C1004 0.959 . S
H990 C1004 0.961 . S
H991 C1005 0.960 . S
H992 C1005 0.961 . S
H993 C1005 0.959 . S
H994 C1008 0.929 . S
H995 C1009 0.931 . S
H996 C1011 0.930 . S
C997 H985 0.930 . S
C997 C998 1.399 . S
C997 C1002 1.399 . S
C998 C997 1.399 . S
C998 C999 1.376 . S
C999 H986 0.930 . S
C999 C998 1.376 . S
C999 C1000 1.388 . S
C1000 H987 0.930 . S
C1000 C999 1.388 . S
C1000 C1001 1.390 . S
C1001 C1000 1.390 . S
C1001 C1002 1.394 . S
C1001 C1007 1.465 . S
C1002 C997 1.399 . S
C1002 C1001 1.394 . S
C1002 C1003 1.516 . S
C1003 C1002 1.516 . S
C1003 C1004 1.502 . S
C1003 C1005 1.561 . S
C1003 C1006 1.526 . S
C1004 H988 0.959 . S
C1004 H989 0.959 . S
C1004 H990 0.961 . S
C1004 C1003 1.502 . S
C1005 H991 0.960 . S
C1005 H992 0.961 . S
C1005 H993 0.959 . S
C1005 C1003 1.561 . S
C1006 C1003 1.526 . S
C1006 C1007 1.396 . S
C1006 C1011 1.390 . S
C1007 C1001 1.465 . S
C1007 C1006 1.396 . S
C1007 C1008 1.399 . S
C1008 H994 0.929 . S
C1008 C1007 1.399 . S
C1008 C1009 1.385 . S
C1009 H995 0.931 . S
C1009 C1008 1.385 . S
C1009 C1010 1.389 . S
C1010 C1009 1.389 . S
C1010 C1011 1.387 . S
C1011 H996 0.930 . S
C1011 C1006 1.390 . S
C1011 C1010 1.387 . S
H1012 C1024 0.930 . S
H1013 C1026 0.930 . S
H1014 C1027 0.930 . S
H1015 C1031 0.959 . S
H1016 C1031 0.959 . S
H1017 C1031 0.961 . S
H1018 C1032 0.960 . S
H1019 C1032 0.961 . S
H1020 C1032 0.959 . S
H1021 C1035 0.929 1_455 S
H1022 C1036 0.931 . S
H1023 C1038 0.930 . S
C1024 H1012 0.930 . S
C1024 C1025 1.399 . S
C1024 C1029 1.399 . S
C1025 C1024 1.399 . S
C1025 C1026 1.376 1_655 S
C1026 H1013 0.930 . S
C1026 C1025 1.376 1_455 S
C1026 C1027 1.388 . S
C1027 H1014 0.930 . S
C1027 C1026 1.388 . S
C1027 C1028 1.383 1_455 S
C1028 C1027 1.383 1_655 S
C1028 C1029 1.401 . S
C1028 C1034 1.468 . S
C1029 C1024 1.399 . S
C1029 C1028 1.401 . S
C1029 C1030 1.516 . S
C1030 C1029 1.516 . S
C1030 C1031 1.502 . S
C1030 C1032 1.561 1_655 S
C1030 C1033 1.526 . S
C1031 H1015 0.959 . S
C1031 H1016 0.959 . S
C1031 H1017 0.961 . S
C1031 C1030 1.502 . S
C1032 H1018 0.960 . S
C1032 H1019 0.961 . S
C1032 H1020 0.959 . S
C1032 C1030 1.561 1_455 S
C1033 C1030 1.526 . S
C1033 C1034 1.396 . S
C1033 C1038 1.390 . S
C1034 C1028 1.468 . S
C1034 C1033 1.396 . S
C1034 C1035 1.399 . S
C1035 H1021 0.929 1_655 S
C1035 C1034 1.399 . S
C1035 C1036 1.385 . S
C1036 H1022 0.931 . S
C1036 C1035 1.385 . S
C1036 C1037 1.389 . S
C1037 C1036 1.389 . S
C1037 C1038 1.387 . S
C1038 H1023 0.930 . S
C1038 C1033 1.390 . S
C1038 C1037 1.387 . S
H1039 C1051 0.930 . S
H1040 C1053 0.930 . S
H1041 C1054 0.930 . S
H1042 C1058 0.959 . S
H1043 C1058 0.959 . S
H1044 C1058 0.961 . S
H1045 C1059 0.960 . S
H1046 C1059 0.961 . S
H1047 C1059 0.959 . S
H1048 C1062 0.929 . S
H1049 C1063 0.931 . S
H1050 C1065 0.930 . S
C1051 H1039 0.930 . S
C1051 C1052 1.396 . S
C1051 C1056 1.399 . S
C1052 C1051 1.396 . S
C1052 C1053 1.380 1_565 S
C1053 H1040 0.930 . S
C1053 C1052 1.380 1_545 S
C1053 C1054 1.388 . S
C1054 H1041 0.930 . S
C1054 C1053 1.388 . S
C1054 C1055 1.390 . S
C1055 C1054 1.390 . S
C1055 C1056 1.394 1_545 S
C1055 C1061 1.465 . S
C1056 C1051 1.399 . S
C1056 C1055 1.394 1_565 S
C1056 C1057 1.516 . S
C1057 C1056 1.516 . S
C1057 C1058 1.502 . S
C1057 C1059 1.561 . S
C1057 C1060 1.526 . S
C1058 H1042 0.959 . S
C1058 H1043 0.959 . S
C1058 H1044 0.961 . S
C1058 C1057 1.502 . S
C1059 H1045 0.960 . S
C1059 H1046 0.961 . S
C1059 H1047 0.959 . S
C1059 C1057 1.561 . S
C1060 C1057 1.526 . S
C1060 C1061 1.396 1_565 S
C1060 C1065 1.390 . S
C1061 C1055 1.465 . S
C1061 C1060 1.396 1_545 S
C1061 C1062 1.399 . S
C1062 H1048 0.929 . S
C1062 C1061 1.399 . S
C1062 C1063 1.385 . S
C1063 H1049 0.931 . S
C1063 C1062 1.385 . S
C1063 C1064 1.389 1_545 S
C1064 C1063 1.389 1_565 S
C1064 C1065 1.387 . S
C1065 H1050 0.930 . S
C1065 C1060 1.390 . S
C1065 C1064 1.387 . S
H1066 C1078 0.930 . S
H1067 C1080 0.930 . S
H1068 C1081 0.930 . S
H1069 C1085 0.959 . S
H1070 C1085 0.959 . S
H1071 C1085 0.961 . S
H1072 C1086 0.960 . S
H1073 C1086 0.961 . S
H1074 C1086 0.959 . S
H1075 C1089 0.929 . S
H1076 C1090 0.931 . S
H1077 C1092 0.930 . S
C1078 H1066 0.930 . S
C1078 C1079 1.399 . S
C1078 C1083 1.399 . S
C1079 C1078 1.399 . S
C1079 C1080 1.376 . S
C1080 H1067 0.930 . S
C1080 C1079 1.376 . S
C1080 C1081 1.388 . S
C1081 H1068 0.930 . S
C1081 C1080 1.388 . S
C1081 C1082 1.390 . S
C1082 C1081 1.390 . S
C1082 C1083 1.394 . S
C1082 C1088 1.465 . S
C1083 C1078 1.399 . S
C1083 C1082 1.394 . S
C1083 C1084 1.516 . S
C1084 C1083 1.516 . S
C1084 C1085 1.502 . S
C1084 C1086 1.561 . S
C1084 C1087 1.526 . S
C1085 H1069 0.959 . S
C1085 H1070 0.959 . S
C1085 H1071 0.961 . S
C1085 C1084 1.502 . S
C1086 H1072 0.960 . S
C1086 H1073 0.961 . S
C1086 H1074 0.959 . S
C1086 C1084 1.561 . S
C1087 C1084 1.526 . S
C1087 C1088 1.396 . S
C1087 C1092 1.390 . S
C1088 C1082 1.465 . S
C1088 C1087 1.396 . S
C1088 C1089 1.399 . S
C1089 H1075 0.929 . S
C1089 C1088 1.399 . S
C1089 C1090 1.385 . S
C1090 H1076 0.931 . S
C1090 C1089 1.385 . S
C1090 C1091 1.389 . S
C1091 C1090 1.389 . S
C1091 C1092 1.387 . S
C1092 H1077 0.930 . S
C1092 C1087 1.390 . S
C1092 C1091 1.387 . S
H1093 C1105 0.930 . S
H1094 C1107 0.930 . S
H1095 C1108 0.930 . S
H1096 C1112 0.959 . S
H1097 C1112 0.959 . S
H1098 C1112 0.961 . S
H1099 C1113 0.960 . S
H1100 C1113 0.961 . S
H1101 C1113 0.959 . S
H1102 C1116 0.929 . S
H1103 C1117 0.931 . S
H1104 C1119 0.930 . S
C1105 H1093 0.930 . S
C1105 C1106 1.399 . S
C1105 C1110 1.399 . S
C1106 C1105 1.399 . S
C1106 C1107 1.376 . S
C1107 H1094 0.930 . S
C1107 C1106 1.376 . S
C1107 C1108 1.388 . S
C1108 H1095 0.930 . S
C1108 C1107 1.388 . S
C1108 C1109 1.390 . S
C1109 C1108 1.390 . S
C1109 C1110 1.394 . S
C1109 C1115 1.465 . S
C1110 C1105 1.399 . S
C1110 C1109 1.394 . S
C1110 C1111 1.516 . S
C1111 C1110 1.516 . S
C1111 C1112 1.502 . S
C1111 C1113 1.561 . S
C1111 C1114 1.526 . S
C1112 H1096 0.959 . S
C1112 H1097 0.959 . S
C1112 H1098 0.961 . S
C1112 C1111 1.502 . S
C1113 H1099 0.960 . S
C1113 H1100 0.961 . S
C1113 H1101 0.959 . S
C1113 C1111 1.561 . S
C1114 C1111 1.526 . S
C1114 C1115 1.396 . S
C1114 C1119 1.390 . S
C1115 C1109 1.465 . S
C1115 C1114 1.396 . S
C1115 C1116 1.399 . S
C1116 H1102 0.929 . S
C1116 C1115 1.399 . S
C1116 C1117 1.385 . S
C1117 H1103 0.931 . S
C1117 C1116 1.385 . S
C1117 C1118 1.389 . S
C1118 C1117 1.389 . S
C1118 C1119 1.387 . S
C1119 H1104 0.930 . S
C1119 C1114 1.390 . S
C1119 C1118 1.387 . S
C485 C255 2.200 . S
C497 C322 2.329 1_545 S
C524 C362 2.359 . S
C512 C294 2.158 . S
C551 C402 2.334 . S
C539 C177 2.191 . S
C578 C442 2.345 1_455 S
C566 C216 2.200 1_455 S
C605 C331 2.340 . S
C593 C99 2.137 1_545 S
C620 C138 2.188 . S
C632 C371 2.356 . S
C647 C21 2.196 . S
C659 C411 2.350 . S
C674 C60 2.169 . S
C686 C451 2.358 1_655 S
C713 C328 0.548 . S
C701 C196 0.461 1_455 S
C740 C368 0.570 . S
C728 C235 0.394 1_545 S
C767 C408 0.377 . S
C755 C289 0.552 . S
C782 C157 0.357 . S
C794 C448 0.559 . S
C809 C40 0.489 . S
C821 C319 0.468 . S
C848 C359 0.555 . S
C836 C79 0.324 . S
C875 C399 0.426 . S
C863 C133 0.433 . S
C890 C1 0.325 . S
C902 C439 0.553 . S
C917 C211 2.853 . S
C929 C323 3.213 . S
C944 C250 2.816 . S
C956 C363 3.205 . S
C983 C403 3.233 . S
C971 C274 2.799 . S
C1010 C443 3.225 . S
C998 C172 2.774 . S
C1025 C55 2.795 1_655 S
C1037 C314 3.235 . S
C1064 C354 3.207 . S
C1052 C94 2.815 1_565 S
C1091 C394 3.223 . S
C1079 C118 2.795 . S
C1106 C16 2.822 . S
C1118 C434 3.236 . S
