# Generated by pormake.
# Topology zzz, (3,6)-cn, num edge types: 1
# Building blocks:
#     Node 0, Type 0, BuildingBlock: VETTIZ_charged_linker_0, # of connection points: 3
#     Node 1, Type 0, BuildingBlock: VETTIZ_charged_linker_0, # of connection points: 3
#     Node 2, Type 0, BuildingBlock: VETTIZ_charged_linker_0, # of connection points: 3
#     Node 3, Type 0, BuildingBlock: VETTIZ_charged_linker_0, # of connection points: 3
#     Node 4, Type 0, BuildingBlock: VETTIZ_charged_linker_0, # of connection points: 3
#     Node 5, Type 0, BuildingBlock: VETTIZ_charged_linker_0, # of connection points: 3
#     Node 6, Type 0, BuildingBlock: VETTIZ_charged_linker_0, # of connection points: 3
#     Node 7, Type 0, BuildingBlock: VETTIZ_charged_linker_0, # of connection points: 3
#     Node 8, Type 1, BuildingBlock: KUMBUR_clean_sbu_1, # of connection points: 6
#     Node 9, Type 1, BuildingBlock: KUMBUR_clean_sbu_1, # of connection points: 6
#     Node 10, Type 1, BuildingBlock: KUMBUR_clean_sbu_1, # of connection points: 6
#     Node 11, Type 1, BuildingBlock: KUMBUR_clean_sbu_1, # of connection points: 6
#     Edge 12, Type (0, 1), BuildingBlock: ZUJKAS_clean_linker_0, # of connection points: 2
#     Edge 13, Type (0, 1), BuildingBlock: ZUJKAS_clean_linker_0, # of connection points: 2
#     Edge 14, Type (0, 1), BuildingBlock: ZUJKAS_clean_linker_0, # of connection points: 2
#     Edge 15, Type (0, 1), BuildingBlock: ZUJKAS_clean_linker_0, # of connection points: 2
#     Edge 16, Type (0, 1), BuildingBlock: ZUJKAS_clean_linker_0, # of connection points: 2
#     Edge 17, Type (0, 1), BuildingBlock: ZUJKAS_clean_linker_0, # of connection points: 2
#     Edge 18, Type (0, 1), BuildingBlock: ZUJKAS_clean_linker_0, # of connection points: 2
#     Edge 19, Type (0, 1), BuildingBlock: ZUJKAS_clean_linker_0, # of connection points: 2
#     Edge 20, Type (0, 1), BuildingBlock: ZUJKAS_clean_linker_0, # of connection points: 2
#     Edge 21, Type (0, 1), BuildingBlock: ZUJKAS_clean_linker_0, # of connection points: 2
#     Edge 22, Type (0, 1), BuildingBlock: ZUJKAS_clean_linker_0, # of connection points: 2
#     Edge 23, Type (0, 1), BuildingBlock: ZUJKAS_clean_linker_0, # of connection points: 2
#     Edge 24, Type (0, 1), BuildingBlock: ZUJKAS_clean_linker_0, # of connection points: 2
#     Edge 25, Type (0, 1), BuildingBlock: ZUJKAS_clean_linker_0, # of connection points: 2
#     Edge 26, Type (0, 1), BuildingBlock: ZUJKAS_clean_linker_0, # of connection points: 2
#     Edge 27, Type (0, 1), BuildingBlock: ZUJKAS_clean_linker_0, # of connection points: 2
#     Edge 28, Type (0, 1), BuildingBlock: ZUJKAS_clean_linker_0, # of connection points: 2
#     Edge 29, Type (0, 1), BuildingBlock: ZUJKAS_clean_linker_0, # of connection points: 2
#     Edge 30, Type (0, 1), BuildingBlock: ZUJKAS_clean_linker_0, # of connection points: 2
#     Edge 31, Type (0, 1), BuildingBlock: ZUJKAS_clean_linker_0, # of connection points: 2
#     Edge 32, Type (0, 1), BuildingBlock: ZUJKAS_clean_linker_0, # of connection points: 2
#     Edge 33, Type (0, 1), BuildingBlock: ZUJKAS_clean_linker_0, # of connection points: 2
#     Edge 34, Type (0, 1), BuildingBlock: ZUJKAS_clean_linker_0, # of connection points: 2
#     Edge 35, Type (0, 1), BuildingBlock: ZUJKAS_clean_linker_0, # of connection points: 2
# Relax obj value: 0.294
# Max RMSD: 0.213
# Mean RMSD: 0.183
data_MOF--net-zzz--node1-KUMBUR_clean_sbu_1--node2-VETTIZ_charged_linker_0--edge1-ZUJKAS_clean_linker_0
_symmetry_space_group_name_H-M    P1
_symmetry_Int_Tables_number       1
_symmetry_cell_setting            triclinic
loop_
_symmetry_equiv_pos_as_xyz
'x, y, z'
_cell_length_a     69.758093
_cell_length_b     69.742217
_cell_length_c     25.847563
_cell_angle_alpha  90.064866
_cell_angle_beta   90.108174
_cell_angle_gamma 90.387005
loop_
_atom_site_label
_atom_site_type_symbol
_atom_site_fract_x
_atom_site_fract_y
_atom_site_fract_z
_atom_type_partial_charge
C0 C 0.80409 0.54224 0.24075 0.0
C1 C 0.82237 0.5498 0.25437 0.0
C2 C 0.83039 0.56436 0.22353 0.0
C3 C 0.80266 0.56402 0.16721 0.0
C4 C 0.79431 0.54984 0.19715 0.0
C5 C 0.77448 0.54457 0.17646 0.0
H6 H 0.70331 0.56646 1.00045 0.0
C7 C 0.78926 0.56939 0.12555 0.0
C8 C 0.77226 0.55853 0.13102 0.0
H9 H 0.70168 0.51963 0.10894 0.0
H10 H 0.73343 0.52899 0.14179 0.0
H11 H 0.72453 0.5989 0.07266 0.0
H12 H 0.73998 0.55701 0.96023 0.0
H13 H 0.75883 0.57355 0.95583 0.0
H14 H 0.73469 0.58105 0.94137 0.0
H15 H 0.71947 0.60028 1.00463 0.0
H16 H 0.74144 0.60987 0.03147 0.0
C17 C 0.7595 0.54816 0.21904 0.0
C18 C 0.7749 0.52355 0.15798 0.0
C19 C 0.81305 0.6107 0.9776 0.0
C20 C 0.80416 0.61646 0.93127 0.0
C21 C 0.784 0.61591 0.92803 0.0
C22 C 0.7731 0.60762 0.9676 0.0
C23 C 0.78245 0.59957 1.01055 0.0
C24 C 0.80193 0.60222 0.01658 0.0
C25 C 0.80927 0.59318 0.06558 0.0
C26 C 0.79133 0.58277 0.08454 0.0
C27 C 0.77581 0.58652 0.05195 0.0
C28 C 0.81557 0.60957 0.10281 0.0
C29 C 0.82545 0.57899 0.05127 0.0
C30 C 0.70956 0.55841 0.03205 0.0
C31 C 0.69987 0.54261 0.0528 0.0
C32 C 0.70886 0.53202 0.09256 0.0
C33 C 0.72726 0.53744 0.11143 0.0
C34 C 0.73692 0.55328 0.08929 0.0
C35 C 0.72791 0.56318 0.04976 0.0
C36 C 0.74048 0.57803 0.02547 0.0
C37 C 0.75845 0.57611 0.05771 0.0
C38 C 0.75654 0.56183 0.0961 0.0
C39 C 0.73103 0.59786 0.03347 0.0
C40 C 0.74365 0.57231 0.9678 0.0
H41 H 0.8279 0.58235 0.15879 0.0
H42 H 0.79753 0.53106 0.26386 0.0
H43 H 0.78786 0.52091 0.13405 0.0
H44 H 0.76249 0.51981 0.13345 0.0
H45 H 0.77527 0.51359 0.19148 0.0
H46 H 0.76118 0.56289 0.23503 0.0
H47 H 0.76125 0.5378 0.25129 0.0
H48 H 0.74468 0.54693 0.20435 0.0
H49 H 0.8285 0.61106 0.98147 0.0
H50 H 0.77679 0.62069 0.89325 0.0
H51 H 0.75791 0.60683 0.96174 0.0
H52 H 0.8098 0.62374 0.09091 0.0
H53 H 0.83143 0.61105 0.10431 0.0
H54 H 0.81005 0.60736 0.14261 0.0
H55 H 0.82128 0.57029 0.01688 0.0
H56 H 0.8286 0.56855 0.08208 0.0
H57 H 0.83894 0.58678 0.04189 0.0
H58 H 0.84442 0.57026 0.23265 0.0
C59 C 0.82073 0.57144 0.18048 0.0
C60 C 0.93031 0.79819 0.93333 0.0
C61 C 0.92666 0.81791 0.93 0.0
C62 C 0.92816 0.82921 0.9751 0.0
C63 C 0.94066 0.80198 0.02245 0.0
C64 C 0.93754 0.79062 0.97946 0.0
C65 C 0.9448 0.77059 0.98676 0.0
H66 H 1.00426 0.70918 0.10452 0.0
C67 C 0.95162 0.79055 0.06056 0.0
C68 C 0.95418 0.77222 0.03983 0.0
H69 H 0.96573 0.69973 0.97555 0.0
H70 H 0.95235 0.73078 0.98745 0.0
H71 H 0.01422 0.75663 0.08538 0.0
H72 H 0.96816 0.73226 0.17803 0.0
H73 H 0.9822 0.74958 0.21151 0.0
H74 H 0.99286 0.72728 0.19256 0.0
H75 H 0.01926 0.7411 0.13924 0.0
H76 H 0.01326 0.76583 0.14945 0.0
C77 C 0.95962 0.76656 0.94338 0.0
C78 C 0.92719 0.75681 0.98709 0.0
C79 C 0.97458 0.82364 0.22332 0.0
C80 C 0.98724 0.81904 0.26353 0.0
C81 C 0.99655 0.80107 0.26176 0.0
C82 C 0.9928 0.78783 0.22117 0.0
C83 C 0.97981 0.7927 0.18145 0.0
C84 C 0.97126 0.81057 0.18309 0.0
C85 C 0.95918 0.8145 0.13649 0.0
C86 C 0.96069 0.79567 0.10777 0.0
C87 C 0.97281 0.78263 0.13364 0.0
C88 C 0.96857 0.83139 0.10624 0.0
C89 C 0.93838 0.81827 0.15463 0.0
C90 C 0.99297 0.71403 0.07902 0.0
C91 C 0.98621 0.7021 0.03822 0.0
C92 C 0.97121 0.70862 1.00676 0.0
C93 C 0.96345 0.72676 1.01368 0.0
C94 C 0.97073 0.73889 0.05237 0.0
C95 C 0.98464 0.7324 0.08603 0.0
C96 C 0.9887 0.74728 0.12803 0.0
C97 C 0.9756 0.76385 0.11187 0.0
C98 C 0.96564 0.75869 0.06642 0.0
C99 C 1.01004 0.75304 0.12575 0.0
C100 C 0.98276 0.73871 0.1806 0.0
H101 H 0.93655 0.83081 0.05381 0.0
H102 H 0.92897 0.78912 0.89944 0.0
H103 H 0.91351 0.76451 0.99391 0.0
H104 H 0.928 0.74618 0.01892 0.0
H105 H 0.92568 0.7491 0.94966 0.0
H106 H 0.96919 0.77921 0.93761 0.0
H107 H 0.95233 0.76349 0.906 0.0
H108 H 0.9693 0.75457 0.95188 0.0
H109 H 0.96768 0.83751 0.22236 0.0
H110 H 1.00656 0.79721 0.29201 0.0
H111 H 1.00025 0.77442 0.22178 0.0
H112 H 0.98405 0.83312 0.11582 0.0
H113 H 0.9615 0.84521 0.11522 0.0
H114 H 0.96839 0.8291 0.06387 0.0
H115 H 0.93423 0.80808 0.18584 0.0
H116 H 0.92766 0.81609 0.12363 0.0
H117 H 0.93691 0.83304 0.17016 0.0
H118 H 0.92543 0.84447 0.97365 0.0
C119 C 0.93502 0.82131 0.0214 0.0
C120 C 0.81639 0.99237 0.06497 0.0
C121 C 0.8274 0.98375 0.0253 0.0
C122 C 0.82049 0.96694 1.00159 0.0
C123 C 0.79207 0.96743 0.05497 0.0
C124 C 0.79878 0.98372 0.07979 0.0
C125 C 0.78507 0.98984 0.12241 0.0
H126 H 0.69973 0.97133 0.24719 0.0
C127 C 0.77369 0.96161 0.0783 0.0
C128 C 0.76948 0.97429 0.11918 0.0
H129 H 0.73724 0.01952 0.27643 0.0
H130 H 0.76011 1.00716 0.21289 0.0
H131 H 0.69881 0.97288 0.13997 0.0
H132 H 0.73399 0.93905 0.23801 0.0
H133 H 0.72706 0.924 0.18652 0.0
H134 H 0.70892 0.93509 0.22616 0.0
H135 H 0.69178 0.94904 0.15723 0.0
H136 H 0.70502 0.95402 0.09886 0.0
C137 C 0.7772 1.00982 0.10876 0.0
C138 C 0.79577 0.98937 0.17462 0.0
C139 C 0.73151 0.91311 0.98523 0.0
C140 C 0.71304 0.90607 0.99636 0.0
C141 C 0.70577 0.90812 0.04684 0.0
C142 C 0.71568 0.91905 0.08369 0.0
C143 C 0.733 0.92805 0.06987 0.0
C144 C 0.7413 0.92396 0.02277 0.0
C145 C 0.76032 0.934 0.01643 0.0
C146 C 0.76076 0.9466 0.06474 0.0
C147 C 0.74458 0.94321 0.09521 0.0
C148 C 0.75966 0.94607 0.96614 0.0
C149 C 0.77623 0.91851 0.0172 0.0
C150 C 0.71289 0.97927 0.24023 0.0
C151 C 0.71652 0.99652 0.26623 0.0
C152 C 0.73403 1.00621 0.25654 0.0
C153 C 0.74719 0.99908 0.21946 0.0
C154 C 0.74281 0.98206 0.19208 0.0
C155 C 0.72591 0.97247 0.2037 0.0
C156 C 0.72268 0.95507 0.17105 0.0
C157 C 0.74021 0.9557 0.13677 0.0
C158 C 0.75233 0.97137 0.14893 0.0
C159 C 0.70362 0.9577 0.14031 0.0
C160 C 0.72301 0.93729 0.20704 0.0
H161 H 0.79866 0.94614 0.9959 0.0
H162 H 0.82149 1.00523 0.0842 0.0
H163 H 0.8036 0.97562 0.17902 0.0
H164 H 0.78596 0.99039 0.2079 0.0
H165 H 0.80639 1.00128 0.17718 0.0
H166 H 0.77231 1.01017 0.06779 0.0
H167 H 0.78846 0.02101 0.11379 0.0
H168 H 0.76471 0.01374 0.13245 0.0
H169 H 0.7375 0.91143 0.94688 0.0
H170 H 0.69158 0.90282 0.05639 0.0
H171 H 0.70884 0.92109 0.12033 0.0
H172 H 0.74604 0.95424 0.9639 0.0
H173 H 0.76052 0.93673 0.93139 0.0
H174 H 0.77127 0.95682 0.96359 0.0
H175 H 0.7709 0.90441 0.03154 0.0
H176 H 0.78813 0.92241 0.04384 0.0
H177 H 0.78215 0.91603 0.97791 0.0
H178 H 0.82864 0.96013 0.97107 0.0
C179 C 0.80304 0.95879 0.01614 0.0
C180 C 0.54317 0.72845 0.24228 0.0
C181 C 0.55303 0.71216 0.26187 0.0
C182 C 0.57132 0.70796 0.24181 0.0
C183 C 0.56831 0.73313 0.17882 0.0
C184 C 0.55155 0.73919 0.20132 0.0
C185 C 0.54577 0.7586 0.17886 0.0
H186 H 0.56884 0.82878 0.99966 0.0
C187 C 0.57375 0.74624 0.1376 0.0
C188 C 0.56165 0.76222 0.13863 0.0
H189 H 0.52068 0.83021 0.10396 0.0
H190 H 0.53035 0.79926 0.14019 0.0
H191 H 0.60077 0.81111 0.07965 0.0
H192 H 0.56554 0.79624 0.95697 0.0
H193 H 0.57428 0.77291 0.96747 0.0
H194 H 0.59025 0.79217 0.94844 0.0
H195 H 0.60283 0.81555 1.01135 0.0
H196 H 0.61336 0.79463 0.0406 0.0
C197 C 0.54621 0.77366 0.2225 0.0
C198 C 0.5259 0.75653 0.15332 0.0
C199 C 0.60443 0.71998 0.9768 0.0
C200 C 0.61123 0.72909 0.93161 0.0
C201 C 0.61581 0.74882 0.93399 0.0
C202 C 0.6111 0.75965 0.97778 0.0
C203 C 0.60146 0.75073 0.01882 0.0
C204 C 0.5999 0.73107 0.02021 0.0
C205 C 0.5918 0.72409 0.0708 0.0
C206 C 0.58663 0.74325 0.09631 0.0
C207 C 0.59099 0.75855 0.06338 0.0
C208 C 0.60763 0.71275 0.09916 0.0
C209 C 0.5738 0.71157 0.06104 0.0
C210 C 0.5605 0.82278 0.03111 0.0
C211 C 0.54425 0.83228 0.04953 0.0
C212 C 0.5334 0.82332 0.08913 0.0
C213 C 0.53905 0.80542 0.11025 0.0
C214 C 0.55552 0.79621 0.09097 0.0
C215 C 0.56562 0.80496 0.05131 0.0
C216 C 0.58177 0.79307 0.03143 0.0
C217 C 0.58028 0.77575 0.0666 0.0
C218 C 0.56504 0.7775 0.10238 0.0
C219 C 0.60075 0.80415 0.04088 0.0
C220 C 0.57789 0.78828 0.97333 0.0
H221 H 0.59384 0.71651 0.19139 0.0
H222 H 0.5297 0.73286 0.2591 0.0
H223 H 0.52576 0.74425 0.12582 0.0
H224 H 0.52194 0.7694 0.13107 0.0
H225 H 0.51469 0.7539 0.18299 0.0
H226 H 0.56002 0.77299 0.24396 0.0
H227 H 0.53439 0.77104 0.25044 0.0
H228 H 0.54493 0.78841 0.20766 0.0
H229 H 0.60126 0.70478 0.97731 0.0
H230 H 0.62204 0.75607 0.90098 0.0
H231 H 0.61454 0.77465 0.97772 0.0
H232 H 0.61731 0.70536 0.07155 0.0
H233 H 0.6015 0.70102 0.12303 0.0
H234 H 0.61666 0.72237 0.1235 0.0
H235 H 0.56294 0.71961 0.03833 0.0
H236 H 0.56714 0.70707 0.09805 0.0
H237 H 0.57748 0.69831 0.03952 0.0
H238 H 0.57969 0.69629 0.25747 0.0
C239 C 0.57916 0.71874 0.20164 0.0
C240 C 0.32068 0.4869 0.17498 0.0
C241 C 0.33235 0.47853 0.21391 0.0
C242 C 0.3255 0.46221 0.24 0.0
C243 C 0.29542 0.46373 0.19378 0.0
C244 C 0.30228 0.47888 0.1647 0.0
C245 C 0.28784 0.48435 0.12297 0.0
H246 H 0.19656 0.46945 0.02625 0.0
C247 C 0.27556 0.45944 0.1781 0.0
C248 C 0.27084 0.47104 0.13536 0.0
H249 H 0.2395 0.50653 0.95897 0.0
H250 H 0.26178 0.49832 0.02885 0.0
H251 H 0.22313 0.43415 0.05354 0.0
H252 H 0.20254 0.48325 0.13501 0.0
H253 H 0.20592 0.46628 0.18399 0.0
H254 H 0.18891 0.46145 0.13271 0.0
H255 H 0.19869 0.43759 0.07297 0.0
H256 H 0.21576 0.42614 0.115 0.0
C257 C 0.29666 0.47977 0.06979 0.0
C258 C 0.28257 0.50564 0.12927 0.0
C259 C 0.23403 0.42196 0.30342 0.0
C260 C 0.21392 0.42079 0.30801 0.0
C261 C 0.20276 0.42437 0.26333 0.0
C262 C 0.2112 0.43126 0.21791 0.0
C263 C 0.23094 0.43524 0.21714 0.0
C264 C 0.24213 0.42992 0.25867 0.0
C265 C 0.26259 0.4365 0.25276 0.0
C266 C 0.26147 0.44767 0.20215 0.0
C267 C 0.24298 0.44669 0.18146 0.0
C268 C 0.27539 0.41845 0.24797 0.0
C269 C 0.26749 0.44963 0.29958 0.0
C270 C 0.21088 0.47557 0.02549 0.0
C271 C 0.21633 0.48822 0.98604 0.0
C272 C 0.23492 0.49652 0.98853 0.0
C273 C 0.24789 0.49161 0.0288 0.0
C274 C 0.2422 0.47837 0.06717 0.0
C275 C 0.22378 0.47087 0.06481 0.0
C276 C 0.21922 0.45787 0.10899 0.0
C277 C 0.23826 0.45748 0.13684 0.0
C278 C 0.25194 0.46966 0.11325 0.0
C279 C 0.21377 0.43787 0.08684 0.0
C280 C 0.20328 0.46752 0.14188 0.0
H281 H 0.30304 0.44249 0.25192 0.0
H282 H 0.32581 0.49914 0.15318 0.0
H283 H 0.27827 0.50865 0.16987 0.0
H284 H 0.27042 0.50973 0.10432 0.0
H285 H 0.29499 0.51503 0.11967 0.0
H286 H 0.30296 0.46515 0.06981 0.0
H287 H 0.30825 0.49018 0.06027 0.0
H288 H 0.28597 0.4799 0.03838 0.0
H289 H 0.24326 0.41849 0.33569 0.0
H290 H 0.18728 0.42355 0.2642 0.0
H291 H 0.20176 0.43438 0.18633 0.0
H292 H 0.26692 0.40536 0.23811 0.0
H293 H 0.28308 0.41546 0.28472 0.0
H294 H 0.28599 0.41985 0.21623 0.0
H295 H 0.25558 0.45979 0.30715 0.0
H296 H 0.28027 0.4587 0.29392 0.0
H297 H 0.26974 0.44103 0.33519 0.0
H298 H 0.33412 0.45542 0.26965 0.0
C299 C 0.30733 0.45475 0.22992 0.0
C300 C 0.11094 0.23039 0.29352 0.0
C301 C 0.11658 0.21118 0.28652 0.0
C302 C 0.11704 0.20379 0.23564 0.0
C303 C 0.10128 0.23225 0.20366 0.0
C304 C 0.10347 0.24064 0.25159 0.0
C305 C 0.09532 0.26054 0.25318 0.0
H306 H 0.03476 0.3268 0.1585 0.0
C307 C 0.08907 0.24491 0.17194 0.0
C308 C 0.08575 0.26164 0.2002 0.0
H309 H 0.07419 0.3308 0.28752 0.0
H310 H 0.08652 0.29987 0.26757 0.0
H311 H 0.06779 0.30606 0.07566 0.0
H312 H 0.02456 0.27796 0.17061 0.0
H313 H 0.02381 0.27105 0.1045 0.0
H314 H 0.01797 0.29523 0.12216 0.0
H315 H 0.04271 0.31113 0.06722 0.0
H316 H 0.05301 0.28968 0.04091 0.0
C317 C 0.11236 0.27491 0.25848 0.0
C318 C 0.08054 0.26152 0.29784 0.0
C319 C 0.0586 0.21518 1.01406 0.0
C320 C 0.04385 0.2203 0.98024 0.0
C321 C 0.03561 0.23868 0.98538 0.0
C322 C 0.04167 0.25138 0.02527 0.0
C323 C 0.05619 0.24568 0.06001 0.0
C324 C 0.06447 0.22784 0.05303 0.0
C325 C 0.0794 0.22344 0.09263 0.0
C326 C 0.07866 0.24129 0.12581 0.0
C327 C 0.0652 0.25465 0.10699 0.0
C328 C 0.09896 0.22189 0.06451 0.0
C329 C 0.07316 0.20499 0.12232 0.0
C330 C 0.04602 0.32081 0.18225 0.0
C331 C 0.05349 0.33128 0.22502 0.0
C332 C 0.06828 0.32316 0.25452 0.0
C333 C 0.07548 0.30512 0.24283 0.0
C334 C 0.06792 0.29467 0.20112 0.0
C335 C 0.05375 0.30251 0.17045 0.0
C336 C 0.04879 0.28913 0.1256 0.0
C337 C 0.06242 0.27228 0.13493 0.0
C338 C 0.0731 0.27572 0.18039 0.0
C339 C 0.05321 0.29951 0.07436 0.0
C340 C 0.02761 0.283 0.13062 0.0
H341 H 0.10884 0.20721 0.15732 0.0
H342 H 0.1107 0.23688 0.33151 0.0
H343 H 0.07107 0.24862 0.2974 0.0
H344 H 0.07088 0.27392 0.29524 0.0
H345 H 0.08784 0.26215 0.33603 0.0
H346 H 0.12644 0.26812 0.25041 0.0
H347 H 0.11323 0.28099 0.29816 0.0
H348 H 0.11135 0.28682 0.23018 0.0
H349 H 0.06531 0.20125 1.01089 0.0
H350 H 0.02421 0.24298 0.95949 0.0
H351 H 0.03473 0.26504 0.02805 0.0
H352 H 0.1001 0.23269 0.03298 0.0
H353 H 0.10075 0.2075 0.04681 0.0
H354 H 0.11128 0.22495 0.09026 0.0
H355 H 0.05771 0.20153 0.11654 0.0
H356 H 0.07465 0.20645 0.16475 0.0
H357 H 0.08139 0.19229 0.10939 0.0
H358 H 0.12222 0.18946 0.22816 0.0
C359 C 0.10927 0.21415 0.19432 0.0
C360 C 0.2992 0.04495 1.00238 0.0
C361 C 0.31653 0.05224 0.98135 0.0
C362 C 0.32442 0.06918 1.00184 0.0
C363 C 0.29928 0.0707 0.06601 0.0
C364 C 0.29059 0.05471 0.04445 0.0
C365 C 0.27174 0.05018 0.0716 0.0
H366 H 0.21063 0.07342 0.27086 0.0
C367 C 0.28799 0.07696 0.11106 0.0
C368 C 0.27143 0.06537 0.11454 0.0
H369 H 0.2007 0.02977 0.1553 0.0
H370 H 0.23172 0.03718 0.11591 0.0
H371 H 0.25136 0.06169 0.29326 0.0
H372 H 0.22844 0.10609 0.19732 0.0
H373 H 0.24754 0.11611 0.23324 0.0
H374 H 0.22732 0.10587 0.26674 0.0
H375 H 0.24565 0.08476 0.31928 0.0
H376 H 0.26913 0.07956 0.29368 0.0
C377 C 0.27264 0.02969 0.09371 0.0
C378 C 0.25529 0.05299 0.03244 0.0
C379 C 0.31932 0.12306 0.23746 0.0
C380 C 0.31465 0.12816 0.28842 0.0
C381 C 0.29603 0.12438 0.30681 0.0
C382 C 0.28273 0.11435 0.2761 0.0
C383 C 0.28829 0.1076 0.22705 0.0
C384 C 0.30613 0.11249 0.20795 0.0
C385 C 0.31022 0.10298 0.157 0.0
C386 C 0.29223 0.09082 0.14978 0.0
C387 C 0.27943 0.09371 0.19059 0.0
C388 C 0.32843 0.09051 0.16385 0.0
C389 C 0.31197 0.11887 0.1152 0.0
C390 C 0.21485 0.06565 0.23643 0.0
C391 C 0.20293 0.05135 0.21557 0.0
C392 C 0.20952 0.04103 0.17196 0.0
C393 C 0.22745 0.04544 0.14895 0.0
C394 C 0.239 0.06018 0.17002 0.0
C395 C 0.23254 0.06976 0.21354 0.0
C396 C 0.24667 0.08417 0.2336 0.0
C397 C 0.26228 0.08276 0.19334 0.0
C398 C 0.25808 0.06859 0.15585 0.0
C399 C 0.25355 0.07739 0.28781 0.0
C400 C 0.23708 0.10416 0.23315 0.0
H401 H 0.323 0.09104 0.05772 0.0
H402 H 0.29262 0.03212 0.98653 0.0
H403 H 0.25724 0.06667 1.01093 0.0
H404 H 0.24115 0.0539 0.05121 0.0
H405 H 0.25492 0.0411 1.0038 0.0
H406 H 0.2862 0.02765 0.11568 0.0
H407 H 0.27212 0.01888 0.06213 0.0
H408 H 0.26083 0.02663 0.12084 0.0
H409 H 0.33367 0.12546 0.22276 0.0
H410 H 0.29218 0.12817 0.34609 0.0
H411 H 0.26897 0.11144 0.29286 0.0
H412 H 0.32819 0.08305 0.20189 0.0
H413 H 0.34164 0.09946 0.16238 0.0
H414 H 0.32975 0.07896 0.13503 0.0
H415 H 0.30484 0.13237 0.12734 0.0
H416 H 0.30472 0.1148 0.07856 0.0
H417 H 0.32721 0.12245 0.10704 0.0
H418 H 0.33759 0.07509 0.98609 0.0
C419 C 0.31592 0.07842 0.04364 0.0
C420 C 0.49569 0.29873 0.98935 0.0
C421 C 0.48932 0.31714 0.97379 0.0
C422 C 0.47451 0.3259 1.00156 0.0
C423 C 0.47307 0.29914 0.06104 0.0
C424 C 0.48721 0.2899 0.03332 0.0
C425 C 0.49161 0.27041 0.05707 0.0
H426 H 0.47483 0.20863 0.26073 0.0
C427 C 0.46747 0.28705 0.10542 0.0
C428 C 0.47797 0.26986 0.10357 0.0
H429 H 0.51401 0.19873 0.13492 0.0
H430 H 0.50427 0.229 0.0947 0.0
H431 H 0.48515 0.25022 0.27847 0.0
H432 H 0.44017 0.22332 0.19112 0.0
H433 H 0.42968 0.24341 0.22028 0.0
H434 H 0.4399 0.22489 0.26038 0.0
H435 H 0.46401 0.24064 0.30841 0.0
H436 H 0.46538 0.26516 0.28671 0.0
C437 C 0.5128 0.27024 0.07405 0.0
C438 C 0.48667 0.2547 0.01715 0.0
C439 C 0.4266 0.31658 0.24616 0.0
C440 C 0.42118 0.31002 0.29553 0.0
C441 C 0.4227 0.2903 0.3066 0.0
C442 C 0.43147 0.27782 0.2715 0.0
C443 C 0.4389 0.28513 0.22488 0.0
C444 C 0.43548 0.30395 0.2117 0.0
C445 C 0.44431 0.30922 0.1606 0.0
C446 C 0.45475 0.29079 0.14703 0.0
C447 C 0.45169 0.27689 0.18507 0.0
C448 C 0.45844 0.32619 0.16988 0.0
C449 C 0.42779 0.31351 0.12203 0.0
C450 C 0.48135 0.21289 0.22444 0.0
C451 C 0.49533 0.20143 0.20144 0.0
C452 C 0.50322 0.2074 0.15364 0.0
C453 C 0.49761 0.22497 0.13053 0.0
C454 C 0.48385 0.23656 0.15524 0.0
C455 C 0.47586 0.23006 0.20108 0.0
C456 C 0.4616 0.24361 0.22332 0.0
C457 C 0.46209 0.25952 0.18374 0.0
C458 C 0.47519 0.25571 0.14343 0.0
C459 C 0.4692 0.25025 0.27711 0.0
C460 C 0.44178 0.23336 0.22436 0.0
H461 H 0.45532 0.3248 0.064 0.0
H462 H 0.507 0.2916 0.96832 0.0
H463 H 0.47223 0.2572 1.00021 0.0
H464 H 0.48622 0.24028 0.03454 0.0
H465 H 0.49726 0.25469 0.98509 0.0
H466 H 0.51623 0.28322 0.09742 0.0
H467 H 0.52243 0.27013 0.03985 0.0
H468 H 0.51624 0.25776 0.09839 0.0
H469 H 0.4257 0.33162 0.23622 0.0
H470 H 0.41825 0.28477 0.34387 0.0
H471 H 0.43315 0.26322 0.28353 0.0
H472 H 0.4665 0.32419 0.20665 0.0
H473 H 0.45067 0.34 0.17262 0.0
H474 H 0.46955 0.32758 0.13986 0.0
H475 H 0.41398 0.30691 0.13449 0.0
H476 H 0.43045 0.30733 0.08319 0.0
H477 H 0.42537 0.32917 0.11821 0.0
H478 H 0.46936 0.33991 0.99016 0.0
C479 C 0.46634 0.31704 0.04455 0.0
Tb480 Tb 0.99684 0.03351 0.57335 0.0
C481 C 0.06488 0.03476 0.71492 0.0
N482 N 0.06198 0.02313 0.67346 0.0
C483 C 0.0933 0.03142 0.64151 0.0
C484 C 0.08163 0.04602 0.71998 0.0
C485 C 0.07651 0.02036 0.63883 0.0
C486 C 0.09569 0.04464 0.68167 0.0
C487 C 0.05437 0.04498 0.79976 0.0
C488 C 0.05162 0.0342 0.75425 0.0
C489 C 0.07047 0.05712 0.80391 0.0
C490 C 0.08409 0.05764 0.76403 0.0
Tb491 Tb 0.03289 1.00741 0.67034 0.0
N492 N 0.03616 0.02254 0.74825 0.0
C493 C 0.04107 0.0429 0.8399 0.0
C494 C 0.02368 0.01962 0.78817 0.0
C495 C 0.02582 0.02992 0.83438 0.0
H496 H 0.07539 1.00946 0.6093 0.0
H497 H 0.01565 0.02793 0.86553 0.0
H498 H 0.95519 0.01359 0.60059 0.0
H499 H 0.0316 0.04425 0.38805 0.0
H500 H 0.01182 1.00972 0.7837 0.0
H501 H 0.04265 0.05092 0.87559 0.0
H502 H 0.02346 0.05253 0.478 0.0
H503 H 0.10449 0.02953 0.61305 0.0
H504 H 0.07275 0.06575 0.83827 0.0
H505 H 0.09673 0.06661 0.76835 0.0
H506 H 0.93207 0.99138 0.55836 0.0
H507 H 0.10879 0.05304 0.68402 0.0
H508 H 0.01448 0.01769 0.34376 0.0
N509 N 0.97464 0.01333 0.53739 0.0
C510 C 0.9778 1.00779 0.48786 0.0
C511 C 0.94497 0.99576 0.53828 0.0
C512 C 0.96519 0.99507 0.46232 0.0
C513 C 0.95805 1.00828 0.56209 0.0
C514 C 0.94871 0.98886 0.48847 0.0
N515 N 1.00395 0.02914 0.48742 0.0
C516 C 0.0167 0.04019 0.46028 0.0
C517 C 0.99677 1.01098 0.41013 0.0
C518 C 0.99332 0.01565 0.46234 0.0
C519 C 0.01132 0.02085 0.38389 0.0
C520 C 0.02102 0.03583 0.40877 0.0
H521 H 0.93861 0.97912 0.47018 0.0
H522 H 0.95987 0.97941 0.39117 0.0
H523 H 0.9876 0.99335 0.34538 0.0
O524 O 0.98443 0.05477 0.52649 0.0
O525 O 0.99574 1.00177 0.58189 0.0
O526 O 0.02707 0.99424 0.59513 0.0
O527 O 0.97606 0.0516 0.60573 0.0
O528 O 0.02783 0.03955 0.56314 0.0
O529 O 0.04197 1.01147 0.58928 0.0
O530 O 0.02525 0.9822 0.70937 0.0
O531 O 0.01969 0.03502 0.69089 0.0
O532 O 0.0186 0.05084 0.61391 0.0
O533 O 0.05464 0.98792 0.69103 0.0
O534 O 1.00215 1.00186 0.6851 0.0
O535 O 0.9855 0.02774 0.651 0.0
C536 C 1.0101 0.9898 0.57681 0.0
C537 C 0.9775 0.08284 0.57358 0.0
C538 C 0.99803 0.11133 0.57561 0.0
C539 C 0.98249 0.12202 0.59443 0.0
C540 C 0.96218 0.09371 0.59221 0.0
C541 C 0.96471 0.11321 0.60274 0.0
C542 C 0.99543 0.09163 0.56592 0.0
C543 C 0.04178 0.02694 0.56003 0.0
C544 C 0.97491 0.06218 0.56464 0.0
C545 C 0.9692 0.98943 0.4113 0.0
C546 C 0.98502 0.99733 0.38528 0.0
C547 C 0.02055 0.05104 0.66443 0.0
C548 C 0.04274 0.95646 0.67508 0.0
C549 C 0.02514 0.92917 0.63811 0.0
C550 C 0.04163 0.92389 0.61063 0.0
C551 C 0.05909 0.95092 0.64726 0.0
C552 C 0.02601 0.94522 0.67099 0.0
C553 C 0.05851 0.93468 0.61544 0.0
C554 C 0.98709 0.01328 0.68361 0.0
C555 C 0.04218 0.97484 0.70396 0.0
H556 H 0.98394 0.13725 0.60173 0.0
H557 H 0.94831 0.08709 0.59891 0.0
H558 H 0.95281 0.12156 0.61706 0.0
H559 H 1.00738 0.08307 0.55275 0.0
H560 H 0.0414 0.91159 0.58499 0.0
H561 H 0.07219 0.95931 0.64928 0.0
H562 H 0.01348 0.9491 0.69333 0.0
H563 H 0.07111 0.93061 0.59382 0.0
Tb564 Tb 0.52405 0.03381 0.67921 0.0
C565 C 0.52031 0.95881 0.53065 0.0
N566 N 0.51869 0.97757 0.5179 0.0
C567 C 0.53464 0.97182 0.43739 0.0
C568 C 0.52988 0.94583 0.49804 0.0
C569 C 0.52482 0.98406 0.47093 0.0
C570 C 0.53749 0.95268 0.45142 0.0
C571 C 0.51077 0.93273 0.58701 0.0
C572 C 0.5108 0.95236 0.57422 0.0
C573 C 0.52129 0.91985 0.55649 0.0
C574 C 0.5308 0.92639 0.512 0.0
Tb575 Tb 0.50392 0.99651 0.57724 0.0
N576 N 0.50044 0.96519 0.60187 0.0
C577 C 0.49964 0.92657 0.6289 0.0
C578 C 0.48862 0.9591 0.64072 0.0
C579 C 0.48828 0.93978 0.65533 0.0
H580 H 0.52227 0.99877 0.45984 0.0
H581 H 0.47932 0.9351 0.68711 0.0
H582 H 0.49417 0.02626 0.77672 0.0
H583 H 0.56332 0.09693 0.62088 0.0
H584 H 0.47986 0.96911 0.66169 0.0
H585 H 0.49929 0.91162 0.6402 0.0
H586 H 0.55646 0.06209 0.625 0.0
H587 H 0.5399 0.97711 0.40069 0.0
H588 H 0.52162 0.90473 0.56596 0.0
H589 H 0.53828 0.9162 0.4878 0.0
H590 H 0.47487 0.04597 0.83641 0.0
H591 H 0.54494 0.94318 0.42519 0.0
H592 H 0.54331 0.11966 0.67047 0.0
N593 N 0.50655 0.05031 0.7385 0.0
C594 C 0.50838 0.06966 0.73693 0.0
C595 C 0.4842 0.05282 0.80849 0.0
C596 C 0.4978 0.0815 0.77036 0.0
C597 C 0.49514 0.04169 0.77463 0.0
C598 C 0.48533 0.07283 0.80589 0.0
N599 N 0.53258 0.0653 0.67516 0.0
C600 C 0.54769 0.07194 0.64671 0.0
C601 C 0.52533 0.09736 0.70328 0.0
C602 C 0.52191 0.07745 0.70399 0.0
C603 C 0.5402 0.10444 0.67219 0.0
C604 C 0.55158 0.09164 0.64427 0.0
H605 H 0.4769 0.0814 0.83227 0.0
H606 H 0.49238 0.11088 0.79332 0.0
H607 H 0.51651 0.12478 0.73451 0.0
O608 O 0.54657 0.01549 0.70025 0.0
O609 O 0.51959 0.04774 0.60419 0.0
O610 O 0.50976 0.02487 0.54303 0.0
O611 O 0.5408 0.04153 0.74354 0.0
O612 O 0.54518 0.02711 0.61894 0.0
O613 O 0.53299 1.00596 0.55638 0.0
O614 O 0.4785 1.01054 0.55664 0.0
O615 O 0.51987 0.98611 0.64553 0.0
O616 O 0.51174 1.00714 0.70945 0.0
O617 O 0.48603 0.98347 0.52168 0.0
O618 O 0.48491 1.00275 0.64264 0.0
O619 O 0.49268 0.03361 0.6671 0.0
C620 C 0.51389 0.04267 0.55728 0.0
C621 C 0.54926 0.01373 0.79114 0.0
C622 C 0.55918 0.98531 0.83917 0.0
C623 C 0.54731 0.99089 0.88037 0.0
C624 C 0.53759 0.01908 0.83298 0.0
C625 C 0.5366 1.00766 0.87716 0.0
C626 C 0.56002 0.99682 0.79455 0.0
C627 C 0.54693 0.01644 0.57695 0.0
C628 C 0.54973 0.02511 0.74297 0.0
C629 C 0.50048 0.10148 0.76827 0.0
C630 C 0.51423 0.1094 0.73477 0.0
C631 C 0.51653 0.98983 0.6946 0.0
C632 C 0.4726 1.00723 0.46716 0.0
C633 C 0.4628 0.03454 0.41433 0.0
C634 C 0.47042 0.02543 0.37046 0.0
C635 C 0.47971 0.99822 0.4225 0.0
C636 C 0.46394 0.0253 0.46256 0.0
C637 C 0.47871 1.00735 0.3746 0.0
C638 C 0.48022 0.0194 0.66288 0.0
C639 C 0.47509 0.99852 0.51888 0.0
H640 H 0.54624 0.98225 0.91504 0.0
H641 H 0.52911 0.03201 0.83163 0.0
H642 H 0.52748 1.01181 0.90903 0.0
H643 H 0.56922 0.99278 0.76264 0.0
H644 H 0.46998 0.03229 0.33291 0.0
H645 H 0.4863 0.98422 0.42452 0.0
H646 H 0.458 0.03213 0.49659 0.0
H647 H 0.48445 1.00042 0.34056 0.0
Tb648 Tb 0.53542 0.50494 0.57338 0.0
C649 C 0.4685 0.49293 0.70973 0.0
N650 N 0.47032 0.50643 0.67219 0.0
C651 C 0.43987 0.49669 0.63682 0.0
C652 C 0.45287 0.48001 0.71055 0.0
C653 C 0.45551 0.50935 0.63837 0.0
C654 C 0.43876 0.48166 0.67234 0.0
C655 C 0.47984 0.48021 0.79136 0.0
C656 C 0.48162 0.49305 0.74964 0.0
C657 C 0.46492 0.46658 0.79105 0.0
C658 C 0.45146 0.46645 0.75063 0.0
Tb659 Tb 0.49775 0.525 0.67579 0.0
N660 N 0.49605 0.50614 0.74784 0.0
C661 C 0.49292 0.48172 0.83236 0.0
C662 C 0.50821 0.50845 0.78895 0.0
C663 C 0.50698 0.49611 0.83151 0.0
H664 H 0.45547 0.52159 0.6129 0.0
H665 H 0.51692 0.49764 0.86347 0.0
H666 H 0.57584 0.52599 0.60876 0.0
H667 H 0.50212 0.49993 0.38419 0.0
H668 H 0.51912 0.5195 0.78817 0.0
H669 H 0.49205 0.47212 0.86521 0.0
H670 H 0.51058 0.48837 0.4714 0.0
H671 H 0.42851 0.49877 0.60884 0.0
H672 H 0.46341 0.45638 0.8224 0.0
H673 H 0.43971 0.45623 0.75157 0.0
H674 H 0.59747 0.55141 0.57518 0.0
H675 H 0.42651 0.47202 0.67151 0.0
H676 H 0.51751 0.52933 0.34964 0.0
N677 N 0.5566 0.52767 0.54508 0.0
C678 C 0.55319 0.53512 0.49753 0.0
C679 C 0.58496 0.54706 0.55315 0.0
C680 C 0.56498 0.54966 0.47687 0.0
C681 C 0.57272 0.53272 0.57209 0.0
C682 C 0.58091 0.5558 0.50571 0.0
N683 N 0.52836 0.51243 0.48908 0.0
C684 C 0.5165 0.5018 0.45797 0.0
C685 C 0.53458 0.53421 0.41852 0.0
C686 C 0.53822 0.52751 0.46899 0.0
C687 C 0.52077 0.52464 0.3886 0.0
C688 C 0.51204 0.50807 0.408 0.0
H689 H 0.59035 0.56695 0.49122 0.0
H690 H 0.56935 0.56872 0.41168 0.0
H691 H 0.54269 0.55515 0.36044 0.0
O692 O 0.55008 0.48761 0.52013 0.0
O693 O 0.53458 0.53583 0.5931 0.0
O694 O 0.50305 0.54264 0.60676 0.0
O695 O 0.55558 0.48516 0.60137 0.0
O696 O 0.50475 0.49825 0.55966 0.0
O697 O 0.48877 0.52417 0.59374 0.0
O698 O 0.5028 0.5486 0.72408 0.0
O699 O 0.51303 0.49783 0.68773 0.0
O700 O 0.5143 0.48506 0.60713 0.0
O701 O 0.47407 0.54052 0.70395 0.0
O702 O 0.52808 0.53186 0.69353 0.0
O703 O 0.54668 0.50876 0.65238 0.0
C704 C 0.51978 0.54713 0.58673 0.0
C705 C 0.55477 0.45682 0.55333 0.0
C706 C 0.53231 0.43007 0.54283 0.0
C707 C 0.5477 0.41729 0.54928 0.0
C708 C 0.56986 0.44394 0.55995 0.0
C709 C 0.56629 0.42422 0.55797 0.0
C710 C 0.5361 0.44986 0.54532 0.0
C711 C 0.49024 0.5103 0.55923 0.0
C712 C 0.55821 0.47755 0.55612 0.0
C713 C 0.56069 0.55727 0.42793 0.0
C714 C 0.54546 0.54959 0.39883 0.0
C715 C 0.51262 0.48283 0.65726 0.0
C716 C 0.48091 0.57382 0.71103 0.0
C717 C 0.49228 0.60685 0.69989 0.0
C718 C 0.47344 0.61245 0.68815 0.0
C719 C 0.46218 0.57976 0.69969 0.0
C720 C 0.49586 0.58743 0.71041 0.0
C721 C 0.45854 0.59895 0.68788 0.0
C722 C 0.54385 0.52145 0.68965 0.0
C723 C 0.48492 0.55364 0.72471 0.0
H724 H 0.54551 0.40194 0.54652 0.0
H725 H 0.58433 0.44912 0.5666 0.0
H726 H 0.57799 0.41427 0.56277 0.0
H727 H 0.52451 0.45996 0.54112 0.0
H728 H 0.47009 0.62732 0.68048 0.0
H729 H 0.45035 0.56962 0.70009 0.0
H730 H 0.51039 0.5829 0.71835 0.0
H731 H 0.44406 0.60343 0.67924 0.0
Tb732 Tb 0.0248 0.53528 0.58321 0.0
C733 C 0.02497 0.46065 0.72387 0.0
N734 N 0.01375 0.46564 0.68324 0.0
C735 C 0.01576 0.43355 0.64985 0.0
C736 C 0.03265 0.44209 0.72829 0.0
C737 C 1.00827 0.4521 0.64779 0.0
C738 C 0.02826 0.4286 0.68987 0.0
C739 C 0.03847 0.46927 0.80716 0.0
C740 C 0.02781 0.47394 0.76265 0.0
C741 C 0.04684 0.45105 0.811 0.0
C742 C 0.04395 0.43748 0.77158 0.0
Tb743 Tb 1.00341 0.49676 0.68179 0.0
N744 N 0.01974 0.49143 0.75701 0.0
C745 C 0.04015 0.48296 0.84658 0.0
C746 C 0.02031 0.50443 0.79662 0.0
C747 C 0.0308 0.50053 0.84156 0.0
H748 H 0.99783 0.45543 0.61837 0.0
H749 H 0.03162 0.51105 0.87232 0.0
H750 H 1.00594 0.57432 0.633 0.0
H751 H 0.01786 0.50272 0.39301 0.0
H752 H 0.01298 0.51793 0.79309 0.0
H753 H 0.04825 0.47996 0.88141 0.0
H754 H 0.03362 0.50885 0.47635 0.0
H755 H 0.01165 0.42302 0.62101 0.0
H756 H 0.05526 0.4472 0.84465 0.0
H757 H 0.05012 0.42334 0.7755 0.0
H758 H 0.98133 0.59808 0.6085 0.0
H759 H 0.03387 0.41417 0.69173 0.0
H760 H 0.98978 0.52192 0.36687 0.0
N761 N 1.00189 0.55743 0.56532 0.0
C762 C 0.99328 0.55591 0.51829 0.0
C763 C 0.98445 0.58619 0.58298 0.0
C764 C 0.97913 0.56904 0.50274 0.0
C765 C 0.99828 0.57269 0.59691 0.0
C766 C 0.97469 0.58426 0.53593 0.0
N767 N 0.0129 0.52911 0.50187 0.0
C768 C 0.02055 0.51632 0.46762 0.0
C769 C 0.98968 0.53864 0.43749 0.0
C770 C 0.99854 0.54091 0.48622 0.0
C771 C 0.99623 0.52417 0.40459 0.0
C772 C 0.012 0.51323 0.41932 0.0
H773 H 0.96389 0.59465 0.52543 0.0
H774 H 0.95871 0.5762 0.44262 0.0
H775 H 0.9679 0.54954 0.38551 0.0
O776 O 0.04205 0.54712 0.52467 0.0
O777 O 0.99394 0.5333 0.60387 0.0
O778 O 0.98878 0.50137 0.60824 0.0
O779 O 0.042 0.55932 0.60079 0.0
O780 O 0.03303 0.50522 0.5674 0.0
O781 O 1.00733 0.48817 0.60026 0.0
O782 O 0.9796 0.50746 0.72117 0.0
O783 O 0.03312 0.50625 0.69675 0.0
O784 O 0.04635 0.51644 0.61892 0.0
O785 O 0.9824 0.47718 0.70809 0.0
O786 O 1.00047 0.52743 0.70225 0.0
O787 O 0.02572 0.54388 0.66451 0.0
C788 C 0.98305 0.51832 0.59375 0.0
C789 C 0.07099 0.56012 0.55563 0.0
C790 C 0.10169 0.54359 0.55412 0.0
C791 C 0.11109 0.56152 0.5559 0.0
C792 C 0.08057 0.5778 0.55763 0.0
C793 C 0.10056 0.57847 0.5579 0.0
C794 C 0.08155 0.54307 0.55446 0.0
C795 C 0.02228 0.48957 0.56929 0.0
C796 C 0.05 0.55955 0.55552 0.0
C797 C 0.96983 0.56644 0.45498 0.0
C798 C 0.97501 0.55121 0.42256 0.0
C799 C 0.04794 0.51028 0.66704 0.0
C800 C 0.95164 0.49104 0.69638 0.0
C801 C 0.92319 0.50926 0.67237 0.0
C802 C 0.9167 0.49364 0.64258 0.0
C803 C 0.945 0.47559 0.66612 0.0
C804 C 0.94047 0.50764 0.69983 0.0
C805 C 0.92757 0.47691 0.63962 0.0
C806 C 0.01281 0.54188 0.70114 0.0
C807 C 0.97082 0.49094 0.72082 0.0
H808 H 0.12658 0.56253 0.55462 0.0
H809 H 0.07258 0.59106 0.55891 0.0
H810 H 0.10793 0.59217 0.55912 0.0
H811 H 0.07402 0.52944 0.554 0.0
H812 H 0.90336 0.49441 0.62121 0.0
H813 H 0.95335 0.46263 0.66228 0.0
H814 H 0.94537 0.51949 0.72375 0.0
H815 H 0.92257 0.465 0.61621 0.0
H816 H 0.18673 0.01663 0.2431 0.0
H817 H 0.15768 1.01131 0.29523 0.0
H818 H 0.1479 0.07226 0.29919 0.0
H819 H 0.17646 0.07757 0.24666 0.0
H820 H 0.15135 0.02503 0.39458 0.0
H821 H 0.0948 0.05228 0.26395 0.0
H822 H 0.1186 0.04664 0.24144 0.0
H823 H 0.11406 0.06912 0.2733 0.0
C824 C 0.1781 0.02882 0.25401 0.0
C825 C 0.18396 0.04752 0.24068 0.0
C826 C 0.16157 0.0258 0.28416 0.0
C827 C 0.1504 0.04137 0.3009 0.0
C828 C 0.15595 0.05996 0.28616 0.0
H829 H 0.05606 0.06026 0.51719 0.0
H830 H 0.08214 0.06348 0.45379 0.0
C831 C 0.17244 0.06298 0.25636 0.0
C832 C 0.13378 0.03849 0.33673 0.0
H833 H 0.08612 0.04838 0.35278 0.0
C834 C 0.13705 0.02994 0.38514 0.0
C835 C 0.11509 0.04505 0.32486 0.0
C836 C 0.11034 0.05362 0.27287 0.0
C837 C 0.12237 0.02823 0.42227 0.0
C838 C 0.10371 0.03491 0.41054 0.0
C839 C 0.10039 0.04333 0.36201 0.0
C840 C 0.08746 0.03301 0.4479 0.0
C841 C 0.12713 0.01978 0.47444 0.0
C842 C 0.08145 0.01484 0.46503 0.0
C843 C 0.06657 0.01299 0.501 0.0
C844 C 0.05718 0.02926 0.52058 0.0
C845 C 0.06292 0.04745 0.50269 0.0
C846 C 0.07786 0.0493 0.46654 0.0
H847 H 0.14279 0.02022 0.48233 0.0
H848 H 0.11963 0.02753 0.50595 0.0
H849 H 0.12242 1.00456 0.47532 0.0
H850 H 0.08828 1.00203 0.45049 0.0
H851 H 0.06238 0.99874 0.51343 0.0
H852 H 0.5094 0.19937 0.29914 0.0
H853 H 0.51393 0.17084 0.35247 0.0
H854 H 0.4983 0.13499 0.22285 0.0
H855 H 0.49414 0.16374 0.16884 0.0
H856 H 0.48614 0.14593 0.37852 0.0
H857 H 0.54399 0.10606 0.27902 0.0
H858 H 0.53883 0.13083 0.26482 0.0
H859 H 0.52393 0.11205 0.23863 0.0
C860 C 0.50741 0.18537 0.2816 0.0
C861 C 0.50155 0.18382 0.22963 0.0
C862 C 0.50989 0.16904 0.31225 0.0
C863 C 0.50655 0.15061 0.292 0.0
C864 C 0.50136 0.14894 0.23941 0.0
H865 H 0.50619 0.03886 0.45284 0.0
H866 H 0.50357 0.06424 0.38781 0.0
C867 C 0.499 0.16539 0.20843 0.0
C868 C 0.50707 0.13357 0.32746 0.0
H869 H 0.52895 0.0905 0.34968 0.0
C870 C 0.49555 0.13384 0.37205 0.0
C871 C 0.51915 0.1176 0.31921 0.0
C872 C 0.53231 0.11659 0.2731 0.0
C873 C 0.4959 0.11889 0.4086 0.0
C874 C 0.50831 0.1031 0.40111 0.0
C875 C 0.51946 0.10254 0.35578 0.0
C876 C 0.51032 0.08745 0.44056 0.0
C877 C 0.48282 0.12033 0.45484 0.0
C878 C 0.51526 0.09182 0.49204 0.0
C879 C 0.51647 0.07736 0.52956 0.0
C880 C 0.51319 0.05798 0.51661 0.0
C881 C 0.50875 0.05356 0.46464 0.0
C882 C 0.50734 0.0681 0.42716 0.0
H883 H 0.46928 0.12773 0.44452 0.0
H884 H 0.4792 0.10609 0.47117 0.0
H885 H 0.49006 0.12897 0.48531 0.0
H886 H 0.51802 0.10653 0.50347 0.0
H887 H 0.51978 0.0815 0.56892 0.0
H888 H 0.34069 0.51393 0.25497 0.0
H889 H 0.36944 0.52261 0.30532 0.0
H890 H 0.39472 0.46823 0.26639 0.0
H891 H 0.36641 0.45987 0.21539 0.0
H892 H 0.38099 0.50446 0.39053 0.0
H893 H 0.44082 0.50179 0.25123 0.0
H894 H 0.4161 0.50248 0.23062 0.0
H895 H 0.42689 0.48012 0.24935 0.0
C896 C 0.35277 0.50426 0.25526 0.0
C897 C 0.35137 0.48633 0.23056 0.0
C898 C 0.36913 0.5091 0.28466 0.0
C899 C 0.38448 0.49617 0.28965 0.0
C900 C 0.38345 0.47873 0.26249 0.0
H901 H 0.47929 0.47811 0.5043 0.0
H902 H 0.45411 0.47545 0.43806 0.0
C903 C 0.36719 0.47393 0.2332 0.0
C904 C 0.40052 0.49982 0.32734 0.0
H905 H 0.4494 0.49877 0.34118 0.0
C906 C 0.39594 0.5035 0.37942 0.0
C907 C 0.42013 0.49845 0.31341 0.0
C908 C 0.42628 0.49569 0.258 0.0
C909 C 0.41025 0.50524 0.41777 0.0
C910 C 0.42978 0.50341 0.40397 0.0
C911 C 0.43443 0.5 0.35193 0.0
C912 C 0.44551 0.50514 0.44312 0.0
C913 C 0.40437 0.50851 0.47321 0.0
C914 C 0.44927 0.52273 0.46773 0.0
C915 C 0.4638 0.52434 0.50508 0.0
C916 C 0.47497 0.50839 0.51889 0.0
C917 C 0.4712 0.49076 0.49413 0.0
C918 C 0.45674 0.4892 0.45637 0.0
H919 H 0.3888 0.50587 0.47918 0.0
H920 H 0.41258 0.49906 0.49964 0.0
H921 H 0.40758 0.52359 0.4841 0.0
H922 H 0.44096 0.53528 0.45791 0.0
H923 H 0.4663 0.53815 0.52316 0.0
H924 H 0.01814 0.34088 0.26322 0.0
H925 H 1.01045 0.36981 0.31351 0.0
H926 H 0.06656 0.39296 0.28025 0.0
H927 H 0.07399 0.36442 0.2295 0.0
H928 H 0.02845 0.38046 0.40076 0.0
H929 H 0.03539 0.44038 0.26228 0.0
H930 H 0.03357 0.41573 0.24144 0.0
H931 H 0.05627 0.42555 0.26219 0.0
C932 C 0.02845 0.35256 0.26474 0.0
C933 C 0.04653 0.35052 0.24156 0.0
C934 C 0.02417 0.36901 0.2941 0.0
C935 C 0.03784 0.38381 0.30061 0.0
C936 C 0.05552 0.38213 0.2751 0.0
H937 H 0.05507 0.47961 0.51629 0.0
H938 H 0.05862 0.45429 0.45057 0.0
C939 C 0.05978 0.36576 0.24591 0.0
C940 C 0.03457 0.39991 0.33818 0.0
H941 H 0.03723 0.44876 0.35239 0.0
C942 C 0.03014 0.39539 0.38986 0.0
C943 C 0.0369 0.4195 0.32455 0.0
C944 C 0.0406 0.4256 0.26948 0.0
C945 C 0.02846 0.40971 0.42812 0.0
C946 C 0.0311 0.42923 0.41461 0.0
C947 C 0.03537 0.43382 0.36297 0.0
C948 C 0.02899 0.445 0.45347 0.0
C949 C 0.02431 0.40382 0.48315 0.0
C950 C 0.01112 0.4485 0.47639 0.0
C951 C 1.00905 0.46298 0.51354 0.0
C952 C 0.02482 0.47433 0.52916 0.0
C953 C 0.04267 0.47107 0.5055 0.0
C954 C 0.0447 0.4566 0.46789 0.0
H955 H 0.02691 0.3883 0.48953 0.0
H956 H 0.03326 0.4122 0.51076 0.0
H957 H 1.00904 0.40673 0.49202 0.0
H958 H 0.99868 0.44006 0.46529 0.0
H959 H 0.99495 0.4654 0.52962 0.0
H960 H 0.8624 0.96758 0.036 0.0
H961 H 0.89116 0.9746 0.98507 0.0
H962 H 0.86266 0.0229 0.91581 0.0
H963 H 0.83394 0.01601 0.96767 0.0
H964 H 0.89174 0.97265 0.88064 0.0
H965 H 0.91567 0.04525 0.94085 0.0
H966 H 0.89909 0.0311 0.97868 0.0
H967 H 0.89084 0.04401 0.9228 0.0
C968 C 0.86259 0.98018 1.01151 0.0
C969 C 0.84607 0.99149 1.00662 0.0
C970 C 0.87897 0.98407 0.98194 0.0
C971 C 0.87925 0.99935 0.94653 0.0
C972 C 0.86306 1.01128 0.9435 0.0
H973 H 0.95431 0.03441 0.69495 0.0
H974 H 0.92885 0.0305 0.75868 0.0
C975 C 0.84665 1.00741 0.97337 0.0
C976 C 0.89559 1.00142 0.90933 0.0
H977 H 0.9296 0.03272 0.86391 0.0
C978 C 0.90012 0.98575 0.87737 0.0
C979 C 0.9065 0.01852 0.90453 0.0
C980 C 0.90293 0.03563 0.93884 0.0
C981 C 0.91487 0.9868 0.8403 0.0
C982 C 0.92579 1.00391 0.83544 0.0
C983 C 0.92131 0.01958 0.8675 0.0
C984 C 0.94155 1.00601 0.79648 0.0
C985 C 0.91818 0.96974 0.80555 0.0
C986 C 0.95739 0.99361 0.79623 0.0
C987 C 0.97203 0.99571 0.75932 0.0
C988 C 0.97131 1.01042 0.72207 0.0
C989 C 0.95546 0.02286 0.72273 0.0
C990 C 0.94084 0.0207 0.75944 0.0
H991 H 0.90551 0.96001 0.80441 0.0
H992 H 0.92154 0.97434 0.76545 0.0
H993 H 0.93051 0.96142 0.82051 0.0
H994 H 0.95856 0.98239 0.82494 0.0
H995 H 0.98399 0.9859 0.76036 0.0
H996 H 0.568 0.86218 0.02477 0.0
H997 H 0.56114 0.88962 0.97023 0.0
H998 H 0.50161 0.87293 0.96331 0.0
H999 H 0.50864 0.84459 0.01647 0.0
H1000 H 0.51326 0.88124 0.8702 0.0
H1001 H 0.53887 0.9404 0.9944 0.0
H1002 H 0.55767 0.92346 0.98478 0.0
H1003 H 0.53619 0.91631 0.01867 0.0
C1004 C 0.55335 0.86439 1.01224 0.0
C1005 C 0.5389 0.851 0.02497 0.0
C1006 C 0.54941 0.88033 0.98125 0.0
C1007 C 0.5308 0.88372 0.96271 0.0
C1008 C 0.51611 0.87079 0.97704 0.0
H1009 H 0.50434 0.99003 0.79552 0.0
H1010 H 0.50682 0.96439 0.85964 0.0
C1011 C 0.52009 0.85466 1.00799 0.0
C1012 C 0.52719 0.89986 0.92542 0.0
H1013 H 0.53649 0.94745 0.90344 0.0
C1014 C 0.51813 0.89576 0.87793 0.0
C1015 C 0.53336 0.91899 0.93501 0.0
C1016 C 0.54187 0.92506 0.98623 0.0
C1017 C 0.51552 0.90996 0.83973 0.0
C1018 C 0.52262 0.92881 0.84833 0.0
C1019 C 0.53126 0.93302 0.89623 0.0
C1020 C 0.52102 0.9444 0.8086 0.0
C1021 C 0.5049 0.90462 0.79082 0.0
C1022 C 0.52838 0.942 0.75839 0.0
C1023 C 0.52702 0.95672 0.72158 0.0
C1024 C 0.51829 0.97427 0.73398 0.0
C1025 C 0.51113 0.97674 0.78442 0.0
C1026 C 0.51252 0.96202 0.82123 0.0
H1027 H 0.49544 0.89194 0.7968 0.0
H1028 H 0.49602 0.91668 0.77664 0.0
H1029 H 0.5154 0.9009 0.7603 0.0
H1030 H 0.53553 0.92885 0.7478 0.0
H1031 H 0.53294 0.95436 0.68342 0.0
H1032 H 0.69033 0.51009 0.99858 0.0
H1033 H 0.6623 0.50561 0.94177 0.0
H1034 H 0.63916 0.55917 0.99587 0.0
H1035 H 0.66735 0.56389 0.05116 0.0
H1036 H 0.62323 0.5035 0.95123 0.0
H1037 H 0.64251 0.56936 0.84301 0.0
H1038 H 0.65827 0.55887 0.89037 0.0
H1039 H 0.63865 0.57375 0.91054 0.0
C1040 C 0.67898 0.52061 0.99933 0.0
C1041 C 0.68098 0.53729 0.0295 0.0
C1042 C 0.66302 0.51814 0.96651 0.0
C1043 C 0.64878 0.53232 0.96319 0.0
C1044 C 0.65014 0.54828 0.99633 0.0
H1045 H 0.54691 0.54837 0.7678 0.0
H1046 H 0.57169 0.55071 0.83515 0.0
C1047 C 0.66614 0.55084 0.02858 0.0
C1048 C 0.63306 0.53095 0.92361 0.0
H1049 H 0.61264 0.55489 0.82189 0.0
C1050 C 0.62098 0.51473 0.92291 0.0
C1051 C 0.63005 0.54552 0.88615 0.0
C1052 C 0.64317 0.56276 0.88207 0.0
C1053 C 0.60589 0.51287 0.88672 0.0
C1054 C 0.60281 0.52752 0.84973 0.0
C1055 C 0.61485 0.54373 0.85043 0.0
C1056 C 0.5876 0.52603 0.80895 0.0
C1057 C 0.59313 0.49533 0.88884 0.0
C1058 C 0.58839 0.5116 0.77111 0.0
C1059 C 0.57435 0.51032 0.73233 0.0
C1060 C 0.55906 0.52342 0.73028 0.0
C1061 C 0.55838 0.53799 0.76804 0.0
C1062 C 0.57256 0.53935 0.80668 0.0
H1063 H 0.5943 0.48782 0.92658 0.0
H1064 H 0.57791 0.49921 0.8822 0.0
H1065 H 0.59745 0.48519 0.85794 0.0
H1066 H 0.6 0.50137 0.77129 0.0
H1067 H 0.57547 0.49889 0.70412 0.0
H1068 H 0.96936 0.66715 0.04936 0.0
H1069 H 0.97694 0.63815 1.00035 0.0
H1070 H 0.02793 0.6656 0.94125 0.0
H1071 H 0.02017 0.69476 0.9902 0.0
H1072 H 1.00461 0.65213 0.86401 0.0
H1073 H 0.01456 0.59426 1.00772 0.0
H1074 H 0.9928 0.60738 0.01708 0.0
H1075 H 0.01555 0.61933 0.02509 0.0
C1076 C 0.98269 0.66664 0.02797 0.0
C1077 C 0.99442 0.68308 0.02473 0.0
C1078 C 0.98698 0.65005 0.99961 0.0
C1079 C 1.00311 0.64948 0.96713 0.0
C1080 C 0.01546 0.66555 0.96619 0.0
H1081 H 0.03755 0.5721 0.71683 0.0
H1082 H 0.03568 0.59753 0.78146 0.0
C1083 C 0.01119 0.68215 0.9948 0.0
C1084 C 1.0057 0.63324 0.92971 0.0
H1085 H 1.00895 0.58434 0.9203 0.0
C1086 C 1.0058 0.63734 0.87646 0.0
C1087 C 1.00698 0.61383 0.94556 0.0
C1088 C 1.00765 0.60841 1.00199 0.0
C1089 C 1.00671 0.62271 0.83889 0.0
C1090 C 1.00798 0.60329 0.85468 0.0
C1091 C 1.00796 0.59916 0.90795 0.0
C1092 C 1.00943 0.58718 0.81641 0.0
C1093 C 1.00567 0.62819 0.78248 0.0
C1094 C 0.99565 0.57235 0.81515 0.0
C1095 C 0.99673 0.55759 0.77814 0.0
C1096 C 0.0117 0.55723 0.7416 0.0
C1097 C 0.02568 0.5719 0.74378 0.0
C1098 C 0.0246 0.58659 0.78074 0.0
H1099 H 0.99933 0.64263 0.77715 0.0
H1100 H 0.02036 0.62854 0.76615 0.0
H1101 H 0.99702 0.61763 0.76007 0.0
H1102 H 0.98385 0.57237 0.84231 0.0
H1103 H 0.98572 0.54657 0.77791 0.0
H1104 H 0.12907 0.21932 0.38631 0.0
H1105 H 0.12022 0.20121 0.46371 0.0
H1106 H 0.09886 0.15515 0.36798 0.0
H1107 H 0.10641 0.1732 0.29134 0.0
H1108 H 0.08082 0.19412 0.4715 0.0
H1109 H 0.11996 0.12621 0.49307 0.0
H1110 H 0.12984 0.14666 0.45902 0.0
H1111 H 0.11358 0.13037 0.42681 0.0
C1112 C 0.12285 0.20516 0.38158 0.0
C1113 C 0.11797 0.1981 0.33208 0.0
C1114 C 0.11805 0.19473 0.42602 0.0
C1115 C 0.1089 0.17683 0.4216 0.0
C1116 C 0.10624 0.16877 0.37242 0.0
H1117 H 0.02147 0.10493 0.49306 0.0
H1118 H 0.05131 0.12128 0.47161 0.0
C1119 C 0.11065 0.17927 0.32819 0.0
C1120 C 0.09791 0.16866 0.4653 0.0
H1121 H 0.08602 0.12538 0.5177 0.0
C1122 C 0.08226 0.17927 0.48332 0.0
C1123 C 0.09985 0.14933 0.4804 0.0
C1124 C 0.11686 0.13756 0.46416 0.0
C1125 C 0.0673 0.17047 0.5108 0.0
C1126 C 0.06842 0.15064 0.522 0.0
C1127 C 0.08507 0.14054 0.50868 0.0
C1128 C 0.05139 0.13958 0.53936 0.0
C1129 C 0.04966 0.18209 0.52291 0.0
C1130 C 0.04159 0.14421 0.58503 0.0
C1131 C 0.02422 0.13511 0.5969 0.0
C1132 C 0.01669 0.12076 0.5642 0.0
C1133 C 0.02696 0.11568 0.51957 0.0
C1134 C 0.04408 0.12501 0.50727 0.0
H1135 H 0.04983 0.19628 0.5034 0.0
H1136 H 0.03647 0.17428 0.51085 0.0
H1137 H 0.04889 0.18464 0.56522 0.0
H1138 H 0.04718 0.15507 0.61103 0.0
H1139 H 0.01682 0.13912 0.63203 0.0
H1140 H 0.32327 0.1093 0.37603 0.0
H1141 H 0.35429 0.10828 0.41721 0.0
H1142 H 0.37336 0.15626 0.32448 0.0
H1143 H 0.3423 0.1562 0.27997 0.0
H1144 H 0.39666 0.13158 0.30975 0.0
H1145 H 0.38961 0.12834 0.51848 0.0
H1146 H 0.37172 0.11182 0.4964 0.0
H1147 H 0.37002 0.13695 0.47931 0.0
C1148 C 0.33374 0.12023 0.36607 0.0
C1149 C 0.33043 0.13277 0.3247 0.0
C1150 C 0.35161 0.11977 0.39013 0.0
C1151 C 0.36641 0.13228 0.37457 0.0
C1152 C 0.36231 0.14636 0.3372 0.0
H1153 H 0.46487 0.06575 0.4795 0.0
H1154 H 0.4463 0.09543 0.47381 0.0
C1155 C 0.34453 0.14643 0.31194 0.0
C1156 C 0.3866 0.12748 0.38819 0.0
H1157 H 0.41063 0.10193 0.47967 0.0
C1158 C 0.39992 0.1258 0.34764 0.0
C1159 C 0.39177 0.12066 0.43787 0.0
C1160 C 0.38001 0.12483 0.4854 0.0
C1161 C 0.41663 0.11498 0.35353 0.0
C1162 C 0.41955 0.10479 0.40009 0.0
C1163 C 0.40794 0.10892 0.44294 0.0
C1164 C 0.43219 0.08776 0.40209 0.0
C1165 C 0.4304 0.11374 0.30873 0.0
C1166 C 0.43004 0.07334 0.36448 0.0
C1167 C 0.44037 0.05637 0.36789 0.0
C1168 C 0.45295 0.05326 0.40941 0.0
C1169 C 0.4552 0.06769 0.44711 0.0
C1170 C 0.44478 0.08473 0.44366 0.0
H1171 H 0.43141 0.12777 0.28852 0.0
H1172 H 0.44498 0.1095 0.32152 0.0
H1173 H 0.42497 0.10309 0.28025 0.0
H1174 H 0.41976 0.07485 0.33331 0.0
H1175 H 0.43791 0.04538 0.33896 0.0
H1176 H 0.4012 0.34402 0.29283 0.0
H1177 H 0.4069 0.37137 0.35059 0.0
H1178 H 0.4409 0.33558 0.45038 0.0
H1179 H 0.4354 0.30845 0.39356 0.0
H1180 H 0.42282 0.3671 0.50306 0.0
H1181 H 0.46276 0.38847 0.32489 0.0
H1182 H 0.43721 0.38565 0.31986 0.0
H1183 H 0.45197 0.36506 0.33125 0.0
C1184 C 0.40931 0.34184 0.32808 0.0
C1185 C 0.41828 0.32417 0.33778 0.0
C1186 C 0.41249 0.35746 0.3611 0.0
C1187 C 0.42477 0.35557 0.40386 0.0
C1188 C 0.43145 0.33736 0.41742 0.0
H1189 H 0.51468 0.39733 0.57894 0.0
H1190 H 0.48416 0.38374 0.55103 0.0
C1191 C 0.42824 0.32177 0.38469 0.0
C1192 C 0.43435 0.37249 0.42717 0.0
H1193 H 0.47117 0.40337 0.4016 0.0
C1194 C 0.43305 0.37545 0.4808 0.0
C1195 C 0.44771 0.38336 0.39799 0.0
C1196 C 0.45017 0.38051 0.34039 0.0
C1197 C 0.44554 0.38822 0.50642 0.0
C1198 C 0.45992 0.39784 0.47771 0.0
C1199 C 0.46018 0.39597 0.42367 0.0
C1200 C 0.47645 0.40778 0.5024 0.0
C1201 C 0.44353 0.39081 0.56407 0.0
C1202 C 0.48245 0.42579 0.48423 0.0
C1203 C 0.50034 0.43322 0.4983 0.0
C1204 C 0.51255 0.42293 0.53158 0.0
C1205 C 0.50595 0.40545 0.55223 0.0
C1206 C 0.4882 0.39786 0.53735 0.0
H1207 H 0.42829 0.38938 0.57599 0.0
H1208 H 0.45169 0.37943 0.58422 0.0
H1209 H 0.44905 0.40501 0.57697 0.0
H1210 H 0.47373 0.43366 0.4569 0.0
H1211 H 0.50488 0.4466 0.4809 0.0
H1212 H 0.22908 0.43309 0.40128 0.0
H1213 H 0.21099 0.4444 0.47409 0.0
H1214 H 0.15901 0.42188 0.4063 0.0
H1215 H 0.17732 0.40842 0.33537 0.0
H1216 H 0.18904 0.47201 0.44251 0.0
H1217 H 0.14377 0.42217 0.55529 0.0
H1218 H 0.16397 0.41406 0.51766 0.0
H1219 H 0.14107 0.41799 0.48723 0.0
C1220 C 0.21403 0.4293 0.40261 0.0
C1221 C 0.20461 0.42059 0.36021 0.0
C1222 C 0.20361 0.436 0.44479 0.0
C1223 C 0.18357 0.43455 0.44505 0.0
C1224 C 0.17447 0.42331 0.40708 0.0
H1225 H 0.09275 0.5114 0.49752 0.0
H1226 H 0.11266 0.48329 0.48334 0.0
C1227 C 0.185 0.416 0.36559 0.0
C1228 C 0.17237 0.44879 0.47484 0.0
H1229 H 0.13215 0.45503 0.54799 0.0
C1230 C 0.17693 0.46821 0.46676 0.0
C1231 C 0.15632 0.44392 0.5056 0.0
C1232 C 0.15112 0.42337 0.51732 0.0
C1233 C 0.16549 0.48286 0.48645 0.0
C1234 C 0.14913 0.47802 0.51592 0.0
C1235 C 0.14477 0.45865 0.5255 0.0
C1236 C 0.13573 0.49305 0.53299 0.0
C1237 C 0.17045 0.50339 0.47299 0.0
C1238 C 0.1419 0.50756 0.5668 0.0
C1239 C 0.13058 0.5237 0.57498 0.0
C1240 C 0.11282 0.52556 0.54975 0.0
C1241 C 0.10624 0.51042 0.51813 0.0
C1242 C 0.11759 0.49429 0.50994 0.0
H1243 H 0.18124 0.50435 0.44152 0.0
H1244 H 0.15746 0.51132 0.46074 0.0
H1245 H 0.1765 0.51067 0.50761 0.0
H1246 H 0.15583 0.50674 0.58524 0.0
H1247 H 0.13594 0.53491 0.60024 0.0
H1248 H 0.94872 0.81078 0.84619 0.0
H1249 H 0.95241 0.8306 0.76988 0.0
H1250 H 0.90546 0.86605 0.81978 0.0
H1251 H 0.90214 0.84645 0.89823 0.0
H1252 H 0.93333 0.8444 0.68745 0.0
H1253 H 0.94905 0.90338 0.82791 0.0
H1254 H 0.94512 0.8791 0.84904 0.0
H1255 H 0.92523 0.89356 0.82864 0.0
C1256 C 0.93873 0.82241 0.84035 0.0
C1257 C 0.92529 0.82722 0.87861 0.0
C1258 C 0.94087 0.83378 0.79649 0.0
C1259 C 0.92955 0.85013 0.78969 0.0
C1260 C 0.91472 0.85381 0.82502 0.0
H1261 H 0.98836 0.94247 0.63323 0.0
H1262 H 0.95911 0.92425 0.65011 0.0
C1263 C 0.91279 0.84259 0.86966 0.0
C1264 C 0.9357 0.86448 0.75068 0.0
H1265 H 0.95917 0.90743 0.74372 0.0
C1266 C 0.93855 0.85841 0.69934 0.0
C1267 C 0.94245 0.88284 0.76607 0.0
C1268 C 0.94046 0.89015 0.82088 0.0
C1269 C 0.94935 0.86948 0.66445 0.0
C1270 C 0.95745 0.88699 0.68143 0.0
C1271 C 0.95296 0.89393 0.73087 0.0
C1272 C 0.97323 0.89677 0.65349 0.0
C1273 C 0.95276 0.86198 0.61057 0.0
C1274 C 0.99076 0.88726 0.6471 0.0
C1275 C 1.00758 0.89767 0.63758 0.0
C1276 C 1.00711 0.91777 0.63486 0.0
C1277 C 0.98925 0.92702 0.63599 0.0
C1278 C 0.97246 0.91661 0.6452 0.0
H1279 H 0.94076 0.85255 0.59771 0.0
H1280 H 0.95448 0.8739 0.58248 0.0
H1281 H 0.96605 0.85332 0.61033 0.0
H1282 H 0.99181 0.872 0.65432 0.0
H1283 H 0.02109 0.89011 0.63701 0.0
H1284 H 0.68888 0.8749 0.98786 0.0
H1285 H 0.66015 0.87321 0.93324 0.0
H1286 H 0.67685 0.92662 0.86107 0.0
H1287 H 0.70582 0.92739 0.91203 0.0
H1288 H 0.63334 0.89422 0.94576 0.0
H1289 H 0.64931 0.90693 0.74328 0.0
H1290 H 0.66796 0.89918 0.78688 0.0
H1291 H 0.66366 0.92445 0.77593 0.0
C1292 C 0.6868 0.88565 0.95819 0.0
C1293 C 0.69954 0.90125 0.95404 0.0
C1294 C 0.67034 0.88477 0.92716 0.0
C1295 C 0.66612 0.89976 0.89257 0.0
C1296 C 0.67979 0.91445 0.88568 0.0
H1297 H 0.58019 0.97416 0.92236 0.0
H1298 H 0.60212 0.94743 0.92846 0.0
C1299 C 0.69645 0.915 0.91541 0.0
C1300 C 0.64621 0.90271 0.8731 0.0
H1301 H 0.62317 0.92851 0.78031 0.0
C1302 C 0.63104 0.90105 0.90863 0.0
C1303 C 0.64244 0.91082 0.82393 0.0
C1304 C 0.65676 0.91016 0.78034 0.0
C1305 C 0.61334 0.90976 0.89929 0.0
C1306 C 0.61108 0.92126 0.8547 0.0
C1307 C 0.62511 0.9205 0.81584 0.0
C1308 C 0.59608 0.93628 0.8517 0.0
C1309 C 0.59757 0.90723 0.93855 0.0
C1310 C 0.58576 0.93953 0.80585 0.0
C1311 C 0.57358 0.95532 0.80176 0.0
C1312 C 0.57126 0.96796 0.84371 0.0
C1313 C 0.58129 0.96444 0.88978 0.0
C1314 C 0.59373 0.94898 0.89346 0.0
H1315 H 0.59756 0.89235 0.95394 0.0
H1316 H 0.60015 0.917 0.97178 0.0
H1317 H 0.58326 0.91024 0.92166 0.0
H1318 H 0.58745 0.93011 0.77284 0.0
H1319 H 0.56617 0.95776 0.76559 0.0
H1320 H 0.61818 0.69101 0.91035 0.0
H1321 H 0.60446 0.67314 0.83841 0.0
H1322 H 0.5885 0.72609 0.76426 0.0
H1323 H 0.60076 0.744 0.83784 0.0
H1324 H 0.55838 0.70613 0.78362 0.0
H1325 H 0.60927 0.65686 0.69221 0.0
H1326 H 0.61116 0.65437 0.76093 0.0
H1327 H 0.61726 0.67697 0.73096 0.0
C1328 C 0.61216 0.69892 0.87823 0.0
C1329 C 0.61001 0.71893 0.88099 0.0
C1330 C 0.60461 0.68865 0.83641 0.0
C1331 C 0.5953 0.69825 0.79585 0.0
C1332 C 0.59553 0.71836 0.7952 0.0
H1333 H 0.49852 0.63889 0.63968 0.0
H1334 H 0.52435 0.66271 0.64874 0.0
C1335 C 0.60274 0.72862 0.83744 0.0
C1336 C 0.58167 0.68753 0.76224 0.0
H1337 H 0.57587 0.64477 0.69974 0.0
C1338 C 0.56232 0.69306 0.76364 0.0
C1339 C 0.58672 0.67048 0.73611 0.0
C1340 C 0.6073 0.66449 0.72956 0.0
C1341 C 0.54778 0.68113 0.74417 0.0
C1342 C 0.55274 0.66328 0.72234 0.0
C1343 C 0.57214 0.65843 0.71698 0.0
C1344 C 0.53801 0.64837 0.71293 0.0
C1345 C 0.52713 0.68696 0.75104 0.0
C1346 C 0.53722 0.63254 0.74609 0.0
C1347 C 0.52239 0.61917 0.74175 0.0
C1348 C 0.50814 0.62117 0.70355 0.0
C1349 C 0.50913 0.63698 0.66982 0.0
C1350 C 0.52396 0.6505 0.67455 0.0
H1351 H 0.52572 0.70047 0.77352 0.0
H1352 H 0.52044 0.68913 0.71253 0.0
H1353 H 0.51897 0.67547 0.77116 0.0
H1354 H 0.54777 0.63085 0.77656 0.0
H1355 H 0.52189 0.60752 0.7694 0.0
H1356 H 0.83816 0.63618 0.91863 0.0
H1357 H 0.86137 0.63091 0.84914 0.0
H1358 H 0.82022 0.59481 0.77 0.0
H1359 H 0.7971 0.6005 0.83754 0.0
H1360 H 0.87494 0.59758 0.84025 0.0
H1361 H 0.84704 0.61429 0.64744 0.0
H1362 H 0.83645 0.62433 0.70506 0.0
H1363 H 0.82869 0.60123 0.68072 0.0
C1364 C 0.83386 0.62783 0.88517 0.0
C1365 C 0.81586 0.61864 0.88378 0.0
C1366 C 0.8471 0.62484 0.84541 0.0
C1367 C 0.84261 0.61248 0.80401 0.0
C1368 C 0.82399 0.60484 0.80039 0.0
H1369 H 0.88452 0.51298 0.68567 0.0
H1370 H 0.86706 0.54244 0.70515 0.0
C1371 C 0.81071 0.60804 0.83956 0.0
C1372 C 0.85807 0.60382 0.77235 0.0
H1373 H 0.86586 0.58389 0.65344 0.0
C1374 C 0.87335 0.59525 0.79898 0.0
C1375 C 0.85613 0.60068 0.71841 0.0
C1376 C 0.84126 0.61085 0.6864 0.0
C1377 C 0.88547 0.58218 0.77445 0.0
C1378 C 0.88223 0.57757 0.72193 0.0
C1379 C 0.86806 0.58728 0.694 0.0
C1380 C 0.89189 0.561 0.69829 0.0
C1381 C 0.90071 0.57221 0.80587 0.0
C1382 C 0.91143 0.56191 0.68631 0.0
C1383 C 0.92144 0.54513 0.67533 0.0
C1384 C 0.91202 0.52721 0.67621 0.0
C1385 C 0.89215 0.52656 0.68468 0.0
C1386 C 0.88215 0.54336 0.69561 0.0
H1387 H 0.9006 0.57663 0.84717 0.0
H1388 H 0.89863 0.55642 0.80379 0.0
H1389 H 0.91506 0.57558 0.78961 0.0
H1390 H 0.91914 0.57543 0.68824 0.0
H1391 H 0.9367 0.54611 0.66815 0.0
H1392 H 0.04578 0.2215 0.87391 0.0
H1393 H 0.04019 0.19463 0.81342 0.0
H1394 H 0.02237 0.1589 0.94076 0.0
H1395 H 0.02806 0.18552 1.00081 0.0
H1396 H 0.05919 0.15757 0.82074 0.0
H1397 H 0.98014 0.14971 0.83024 0.0
H1398 H 0.99246 0.1715 0.84903 0.0
H1399 H 0.99178 0.15132 0.89217 0.0
C1400 C 0.04016 0.20806 0.8886 0.0
C1401 C 0.03708 0.20569 0.94197 0.0
C1402 C 0.03713 0.19265 0.85414 0.0
C1403 C 0.03069 0.1747 0.87235 0.0
C1404 C 0.02703 0.17261 0.92546 0.0
H1405 H 1.00897 0.05913 0.76286 0.0
H1406 H 0.01226 0.08928 0.8105 0.0
C1407 C 0.03025 0.18786 0.9598 0.0
C1408 C 0.02898 0.15773 0.83703 0.0
H1409 H 0.99728 0.12367 0.79348 0.0
C1410 C 0.04562 0.15028 0.81421 0.0
C1411 C 0.01132 0.14806 0.82881 0.0
C1412 C 0.99285 0.1556 0.85093 0.0
C1413 C 0.04522 0.1331 0.78521 0.0
C1414 C 0.02756 0.12328 0.77744 0.0
C1415 C 0.01086 0.13103 0.79937 0.0
C1416 C 0.02608 0.10472 0.7481 0.0
C1417 C 0.06391 0.12525 0.76522 0.0
C1418 C 0.03266 0.1031 0.69684 0.0
C1419 C 0.03066 0.08582 0.66927 0.0
C1420 C 0.02229 0.06962 0.69265 0.0
C1421 C 0.01573 0.07123 0.7439 0.0
C1422 C 0.0175 0.08855 0.77113 0.0
H1423 H 0.07638 0.1311 0.78706 0.0
H1424 H 0.06419 0.10936 0.76771 0.0
H1425 H 0.06567 0.12943 0.72409 0.0
H1426 H 0.03932 0.11524 0.67803 0.0
H1427 H 0.03592 0.08507 0.62991 0.0
H1428 H 0.3204 0.06372 0.88147 0.0
H1429 H 0.34596 0.05451 0.82161 0.0
H1430 H 0.3649 1.01153 0.92961 0.0
H1431 H 0.33921 0.02076 0.9895 0.0
H1432 H 0.39374 0.03766 0.90058 0.0
H1433 H 0.35719 1.00856 0.72647 0.0
H1434 H 0.34788 0.03107 0.74865 0.0
H1435 H 0.34554 1.01014 0.7887 0.0
C1436 C 0.32947 0.05171 0.89129 0.0
C1437 C 0.3275 0.04262 0.93955 0.0
C1438 C 0.34418 0.04651 0.85717 0.0
C1439 C 0.35737 0.03222 0.87076 0.0
C1440 C 0.35485 0.0225 0.91798 0.0
H1441 H 0.45356 0.99118 0.68358 0.0
H1442 H 0.42375 0.99398 0.73269 0.0
C1443 C 0.34002 0.02759 0.95194 0.0
C1444 C 0.3749 0.02903 0.83862 0.0
H1445 H 0.39023 0.01695 0.71713 0.0
C1446 C 0.39295 0.03299 0.86058 0.0
C1447 C 0.37398 0.02289 0.78641 0.0
C1448 C 0.35513 0.01774 0.76115 0.0
C1449 C 0.40996 0.03143 0.83163 0.0
C1450 C 0.409 0.02588 0.77895 0.0
C1451 C 0.391 0.02142 0.75729 0.0
C1452 C 0.42658 0.02448 0.74615 0.0
C1453 C 0.4289 0.03559 0.85782 0.0
C1454 C 0.43792 0.04077 0.7359 0.0
C1455 C 0.45496 0.03924 0.70745 0.0
C1456 C 0.46119 0.02134 0.68887 0.0
C1457 C 0.4494 1.00518 0.69752 0.0
C1458 C 0.43229 1.00675 0.72569 0.0
H1459 H 0.42764 0.03522 0.90065 0.0
H1460 H 0.43993 0.02511 0.8457 0.0
H1461 H 0.43395 0.05012 0.84653 0.0
H1462 H 0.43367 0.05469 0.75031 0.0
H1463 H 0.46341 0.05208 0.7008 0.0
H1464 H 0.47934 0.31588 0.87159 0.0
H1465 H 0.48608 0.34065 0.80634 0.0
H1466 H 0.52264 0.37019 0.91548 0.0
H1467 H 0.51622 0.34527 0.97982 0.0
H1468 H 0.4762 0.37726 0.81324 0.0
H1469 H 0.55474 0.37569 0.78853 0.0
H1470 H 0.54175 0.3565 0.81988 0.0
H1471 H 0.54839 0.37779 0.85543 0.0
C1472 C 0.48954 0.32718 0.8806 0.0
C1473 C 0.49777 0.32828 0.93022 0.0
C1474 C 0.49319 0.34152 0.84356 0.0
C1475 C 0.50511 0.35733 0.85534 0.0
C1476 C 0.51387 0.35799 0.90443 0.0
H1477 H 0.52709 0.47229 0.75076 0.0
H1478 H 0.52501 0.44108 0.79334 0.0
C1479 C 0.51026 0.34365 0.9413 0.0
C1480 C 0.50681 0.37404 0.81886 0.0
H1481 H 0.53913 0.40495 0.76332 0.0
C1482 C 0.48998 0.38309 0.80165 0.0
C1483 C 0.52475 0.38183 0.80343 0.0
C1484 C 0.54341 0.37232 0.81734 0.0
C1485 C 0.49059 0.40002 0.77178 0.0
C1486 C 0.50853 0.40816 0.75802 0.0
C1487 C 0.52535 0.39884 0.77393 0.0
C1488 C 0.51015 0.42697 0.73025 0.0
C1489 C 0.472 0.40953 0.75707 0.0
C1490 C 0.50274 0.42955 0.68001 0.0
C1491 C 0.5039 0.44754 0.65546 0.0
C1492 C 0.5124 0.46332 0.68078 0.0
C1493 C 0.52018 0.46054 0.73046 0.0
C1494 C 0.51911 0.44262 0.75477 0.0
H1495 H 0.45968 0.4038 0.77956 0.0
H1496 H 0.47292 0.42526 0.76325 0.0
H1497 H 0.46908 0.40696 0.7154 0.0
H1498 H 0.49596 0.41769 0.65989 0.0
H1499 H 0.49772 0.44923 0.61728 0.0
H1500 H 0.20646 0.52308 0.94222 0.0
H1501 H 0.17961 0.52934 0.88241 0.0
H1502 H 0.16701 0.46885 0.87579 0.0
H1503 H 0.19378 0.46247 0.93409 0.0
H1504 H 0.16967 0.50911 0.77441 0.0
H1505 H 0.11696 0.49856 0.93305 0.0
H1506 H 0.14155 0.50565 0.94506 0.0
H1507 H 0.13594 0.48128 0.92829 0.0
C1508 C 0.19823 0.5111 0.92709 0.0
C1509 C 0.2022 0.49229 0.94361 0.0
C1510 C 0.1828 0.5147 0.89316 0.0
C1511 C 0.17107 0.49958 0.87522 0.0
C1512 C 0.17565 0.48078 0.88959 0.0
H1513 H 0.0628 0.48011 0.72039 0.0
H1514 H 0.09284 0.47881 0.76902 0.0
C1515 C 0.19099 0.47718 0.92307 0.0
C1516 C 0.15354 0.50314 0.84334 0.0
H1517 H 0.10457 0.50052 0.84814 0.0
C1518 C 0.15541 0.50747 0.79057 0.0
C1519 C 0.13494 0.50082 0.86425 0.0
C1520 C 0.13206 0.49644 0.92084 0.0
C1521 C 0.13922 0.50891 0.7579 0.0
C1522 C 0.12054 0.5064 0.77864 0.0
C1523 C 0.11876 0.50245 0.83181 0.0
C1524 C 0.10267 0.50706 0.74605 0.0
C1525 C 0.14236 0.51229 0.70105 0.0
C1526 C 0.09799 0.52325 0.71604 0.0
C1527 C 0.08059 0.524 0.68839 0.0
C1528 C 0.06739 0.50868 0.69059 0.0
C1529 C 0.07233 0.49235 0.7193 0.0
C1530 C 0.08965 0.49156 0.74679 0.0
H1531 H 0.15715 0.50852 0.68904 0.0
H1532 H 0.13204 0.50377 0.67752 0.0
H1533 H 0.14019 0.52771 0.69265 0.0
H1534 H 0.10748 0.53558 0.71528 0.0
H1535 H 0.07709 0.53688 0.66714 0.0
H1536 H 0.02159 0.83325 0.30062 0.0
H1537 H 0.02646 0.8605 0.36001 0.0
H1538 H 0.96532 0.86521 0.37922 0.0
H1539 H 0.96043 0.83819 0.32006 0.0
H1540 H 0.01216 0.89798 0.34334 0.0
H1541 H 0.98575 0.86879 0.52898 0.0
H1542 H 0.99099 0.85367 0.47416 0.0
H1543 H 0.96856 0.86619 0.47756 0.0
C1544 C 1.00923 0.83981 0.3185 0.0
C1545 C 0.99063 0.83348 0.30564 0.0
C1546 C 0.01201 0.85549 0.3522 0.0
C1547 C 0.99626 0.86492 0.3746 0.0
C1548 C 0.97773 0.85811 0.36323 0.0
H1549 H 0.97695 0.96968 0.5539 0.0
H1550 H 0.97376 0.93969 0.50458 0.0
C1551 C 0.97495 0.84266 0.32916 0.0
C1552 C 0.99897 0.88275 0.40641 0.0
H1553 H 0.98917 0.90295 0.52435 0.0
C1554 C 1.00732 0.89897 0.38309 0.0
C1555 C 0.99251 0.88424 0.45825 0.0
C1556 C 0.98411 0.86724 0.48641 0.0
C1557 C 1.00893 0.91663 0.40947 0.0
C1558 C 1.00238 0.91815 0.4612 0.0
C1559 C 0.99415 0.9019 0.48473 0.0
C1560 C 1.0042 0.93642 0.49145 0.0
C1561 C 0.01711 0.93371 0.38106 0.0
C1562 C 0.02231 0.94458 0.50121 0.0
C1563 C 0.0241 0.96183 0.52878 0.0
C1564 C 1.00782 0.97143 0.54751 0.0
C1565 C 0.98971 0.96307 0.53858 0.0
C1566 C 0.98791 0.94576 0.51093 0.0
H1567 H 0.01669 0.93162 0.33845 0.0
H1568 H 1.00917 0.94698 0.39076 0.0
H1569 H 0.03231 0.9358 0.39265 0.0
H1570 H 0.03516 0.93752 0.4878 0.0
H1571 H 0.03834 0.96765 0.53528 0.0
H1572 H 0.71906 1.00714 0.36918 0.0
H1573 H 0.69208 0.01339 0.42844 0.0
H1574 H 0.65254 1.00866 0.30067 0.0
H1575 H 0.67919 1.00244 0.24195 0.0
H1576 H 0.65937 0.04135 0.42726 0.0
H1577 H 0.63623 0.96558 0.40413 0.0
H1578 H 0.65993 0.97386 0.38667 0.0
H1579 H 0.63997 0.97807 0.34421 0.0
C1580 C 0.70465 1.00792 0.3537 0.0
C1581 C 0.70124 1.00414 0.30097 0.0
C1582 C 0.68923 1.01138 0.38758 0.0
C1583 C 0.67021 1.01112 0.3692 0.0
C1584 C 0.66701 1.00861 0.31601 0.0
H1585 H 0.55329 1.0114 0.47312 0.0
H1586 H 0.58377 1.01075 0.42731 0.0
C1587 C 0.68228 1.00513 0.28242 0.0
C1588 C 0.65347 0.01216 0.40516 0.0
H1589 H 0.61408 0.98657 0.44422 0.0
C1590 C 0.64957 0.02932 0.43156 0.0
C1591 C 0.64066 0.99646 0.41087 0.0
C1592 C 0.64444 0.97738 0.38539 0.0
C1593 C 0.6328 0.03143 0.46158 0.0
C1594 C 0.61971 0.01587 0.46602 0.0
C1595 C 0.62397 0.99857 0.44074 0.0
C1596 C 0.60111 0.01727 0.49463 0.0
C1597 C 0.62883 0.05055 0.48652 0.0
C1598 C 0.60047 0.02122 0.54801 0.0
C1599 C 0.58288 0.02139 0.57458 0.0
C1600 C 0.56555 0.01739 0.54849 0.0
C1601 C 0.56627 0.01387 0.49494 0.0
C1602 C 0.58377 0.01371 0.46848 0.0
H1603 H 0.63782 0.06219 0.46976 0.0
H1604 H 0.6135 0.05445 0.48214 0.0
H1605 H 0.63208 0.04966 0.52848 0.0
H1606 H 0.6136 0.0237 0.56945 0.0
H1607 H 0.58291 0.02415 0.61583 0.0
H1608 H 0.57092 0.70094 0.35063 0.0
H1609 H 0.56235 0.67416 0.40682 0.0
H1610 H 0.50912 0.66687 0.3238 0.0
H1611 H 0.51809 0.69345 0.26586 0.0
H1612 H 0.53492 0.66538 0.47261 0.0
H1613 H 0.53057 0.61391 0.30911 0.0
H1614 H 0.53943 0.63807 0.30119 0.0
H1615 H 0.51405 0.63343 0.30422 0.0
C1616 C 0.55724 0.69382 0.3447 0.0
C1617 C 0.54528 0.69927 0.30332 0.0
C1618 C 0.55235 0.67842 0.37692 0.0
C1619 C 0.53533 0.66794 0.3689 0.0
C1620 C 0.52263 0.67424 0.32999 0.0
H1621 H 0.49311 0.56349 0.52352 0.0
H1622 H 0.49629 0.59272 0.47131 0.0
C1623 C 0.52759 0.6897 0.29741 0.0
C1624 C 0.53146 0.65023 0.40053 0.0
H1625 H 0.52356 0.60171 0.39221 0.0
C1626 C 0.5324 0.6515 0.45483 0.0
C1627 C 0.52828 0.63193 0.37781 0.0
C1628 C 0.52819 0.62913 0.31992 0.0
C1629 C 0.53023 0.63521 0.48664 0.0
C1630 C 0.52715 0.61696 0.46394 0.0
C1631 C 0.5259 0.61566 0.40977 0.0
C1632 C 0.52531 0.59907 0.49578 0.0
C1633 C 0.53105 0.63773 0.5445 0.0
C1634 C 0.54057 0.59272 0.52693 0.0
C1635 C 0.53877 0.57597 0.55676 0.0
C1636 C 0.52171 0.56512 0.55602 0.0
C1637 C 0.50642 0.57154 0.52509 0.0
C1638 C 0.50827 0.58821 0.49498 0.0
H1639 H 0.52828 0.65281 0.55594 0.0
H1640 H 0.52043 0.62826 0.56388 0.0
H1641 H 0.54553 0.63383 0.55863 0.0
H1642 H 0.55397 0.60065 0.52791 0.0
H1643 H 0.55071 0.57153 0.58062 0.0
H1644 H 0.83545 0.5716 0.33422 0.0
H1645 H 0.86059 0.56364 0.39647 0.0
H1646 H 0.86133 0.5056 0.3389 0.0
H1647 H 0.83623 0.51373 0.27554 0.0
H1648 H 0.86517 0.53824 0.47503 0.0
H1649 H 0.91676 0.52195 0.31802 0.0
H1650 H 0.89386 0.53291 0.30567 0.0
H1651 H 0.89534 0.50753 0.31709 0.0
C1652 C 0.84065 0.557 0.33563 0.0
C1653 C 0.83381 0.54328 0.29997 0.0
C1654 C 0.85513 0.55248 0.37113 0.0
C1655 C 0.86332 0.53414 0.37179 0.0
C1656 C 0.85563 0.52001 0.33847 0.0
H1657 H 0.96523 0.4914 0.5333 0.0
H1658 H 0.93569 0.49462 0.48276 0.0
C1659 C 0.84104 0.52454 0.30282 0.0
C1660 C 0.88033 0.53035 0.40588 0.0
H1661 H 0.92785 0.51823 0.40356 0.0
C1662 C 0.87885 0.5338 0.45933 0.0
C1663 C 0.89833 0.52468 0.3857 0.0
C1664 C 0.90132 0.52171 0.32846 0.0
C1665 C 0.89464 0.53157 0.49295 0.0
C1666 C 0.91267 0.52601 0.47278 0.0
C1667 C 0.91411 0.52241 0.41937 0.0
C1668 C 0.93023 0.52389 0.50605 0.0
C1669 C 0.89167 0.53476 0.55001 0.0
C1670 C 0.93717 0.53918 0.5366 0.0
C1671 C 0.95404 0.53727 0.56593 0.0
C1672 C 0.96462 0.5202 0.56475 0.0
C1673 C 0.95751 0.50482 0.53495 0.0
C1674 C 0.94063 0.50667 0.50578 0.0
H1675 H 0.87635 0.53326 0.56102 0.0
H1676 H 0.90016 0.5244 0.57276 0.0
H1677 H 0.89644 0.54947 0.56048 0.0
H1678 H 0.92976 0.55276 0.53708 0.0
H1679 H 0.95889 0.54925 0.58929 0.0
loop_
_geom_bond_atom_site_label_1
_geom_bond_atom_site_label_2
_geom_bond_distance
_geom_bond_site_symmetry_2
_ccdc_geom_bond_type
C0 C1 1.391 . S
C0 C4 1.391 . S
C0 H42 0.948 . S
C1 C0 1.391 . S
C1 C2 1.391 . S
C2 C1 1.391 . S
C2 H58 0.947 . S
C2 C59 1.392 . S
C3 C4 1.391 . S
C3 C7 1.397 . S
C3 C59 1.419 . S
C4 C0 1.391 . S
C4 C3 1.391 . S
C4 C5 1.399 . S
C5 C4 1.399 . S
C5 C8 1.396 . S
C5 C17 1.453 . S
C5 C18 1.684 . S
H6 C30 0.948 . S
C7 C3 1.397 . S
C7 C8 1.394 . S
C7 C26 1.723 . S
C8 C5 1.396 . S
C8 C7 1.394 . S
C8 C38 1.723 . S
H9 C32 0.947 . S
H10 C33 0.948 . S
H11 C39 0.982 . S
H12 C40 0.979 . S
H13 C40 0.980 . S
H14 C40 0.983 . S
H15 C39 0.979 . S
H16 C39 0.977 . S
C17 C5 1.453 . S
C17 H46 0.982 . S
C17 H47 0.979 . S
C17 H48 0.977 . S
C18 C5 1.684 . S
C18 H43 0.979 . S
C18 H44 0.980 . S
C18 H45 0.983 . S
C19 C20 1.391 . S
C19 C24 1.391 . S
C19 H49 0.948 . S
C20 C19 1.391 . S
C20 C21 1.391 . S
C21 C20 1.391 . S
C21 C22 1.392 . S
C21 H50 0.947 1_554 S
C22 C21 1.392 . S
C22 C23 1.419 . S
C22 H51 0.948 . S
C23 C22 1.419 . S
C23 C24 1.391 . S
C23 C27 1.397 . S
C24 C19 1.391 . S
C24 C23 1.391 . S
C24 C25 1.399 . S
C25 C24 1.399 . S
C25 C26 1.396 . S
C25 C28 1.453 . S
C25 C29 1.684 . S
C26 C7 1.723 . S
C26 C25 1.396 . S
C26 C27 1.394 . S
C27 C23 1.397 . S
C27 C26 1.394 . S
C27 C37 1.723 . S
C28 C25 1.453 . S
C28 H52 0.982 . S
C28 H53 0.979 . S
C28 H54 0.977 . S
C29 C25 1.684 . S
C29 H55 0.979 . S
C29 H56 0.980 . S
C29 H57 0.983 . S
C30 H6 0.948 . S
C30 C31 1.391 . S
C30 C35 1.391 . S
C31 C30 1.391 . S
C31 C32 1.391 . S
C32 H9 0.947 . S
C32 C31 1.391 . S
C32 C33 1.392 . S
C33 H10 0.948 . S
C33 C32 1.392 . S
C33 C34 1.419 . S
C34 C33 1.419 . S
C34 C35 1.391 . S
C34 C38 1.397 . S
C35 C30 1.391 . S
C35 C34 1.391 . S
C35 C36 1.399 . S
C36 C35 1.399 . S
C36 C37 1.396 . S
C36 C39 1.453 . S
C36 C40 1.684 . S
C37 C27 1.723 . S
C37 C36 1.396 . S
C37 C38 1.394 . S
C38 C8 1.723 . S
C38 C34 1.397 . S
C38 C37 1.394 . S
C39 H11 0.982 . S
C39 H15 0.979 . S
C39 H16 0.977 . S
C39 C36 1.453 . S
C40 H12 0.979 . S
C40 H13 0.980 . S
C40 H14 0.983 . S
C40 C36 1.684 . S
H41 C59 0.948 . S
H42 C0 0.948 . S
H43 C18 0.979 . S
H44 C18 0.980 . S
H45 C18 0.983 . S
H46 C17 0.982 . S
H47 C17 0.979 . S
H48 C17 0.977 . S
H49 C19 0.948 . S
H50 C21 0.947 1_556 S
H51 C22 0.948 . S
H52 C28 0.982 . S
H53 C28 0.979 . S
H54 C28 0.977 . S
H55 C29 0.979 . S
H56 C29 0.980 . S
H57 C29 0.983 . S
H58 C2 0.947 . S
C59 C2 1.392 . S
C59 C3 1.419 . S
C59 H41 0.948 . S
C60 C61 1.391 . S
C60 C64 1.391 . S
C60 H102 0.948 1_554 S
C61 C60 1.391 . S
C61 C62 1.391 . S
C62 C61 1.391 . S
C62 H118 0.947 . S
C62 C119 1.392 . S
C63 C64 1.391 . S
C63 C67 1.397 . S
C63 C119 1.419 . S
C64 C60 1.391 . S
C64 C63 1.391 . S
C64 C65 1.399 . S
C65 C64 1.399 . S
C65 C68 1.396 . S
C65 C77 1.453 . S
C65 C78 1.684 . S
H66 C90 0.948 . S
C67 C63 1.397 . S
C67 C68 1.394 . S
C67 C86 1.723 . S
C68 C65 1.396 . S
C68 C67 1.394 . S
C68 C98 1.723 . S
H69 C92 0.947 . S
H70 C93 0.948 . S
H71 C99 0.982 . S
H72 C100 0.979 . S
H73 C100 0.980 . S
H74 C100 0.983 . S
H75 C99 0.979 . S
H76 C99 0.977 . S
C77 C65 1.453 . S
C77 H106 0.982 . S
C77 H107 0.979 . S
C77 H108 0.977 . S
C78 C65 1.684 . S
C78 H103 0.979 . S
C78 H104 0.980 . S
C78 H105 0.983 1_554 S
C79 C80 1.391 . S
C79 C84 1.391 . S
C79 H109 0.948 . S
C80 C79 1.391 . S
C80 C81 1.391 . S
C81 C80 1.391 . S
C81 C82 1.392 . S
C81 H110 0.947 . S
C82 C81 1.392 . S
C82 C83 1.419 . S
C82 H111 0.948 . S
C83 C82 1.419 . S
C83 C84 1.391 . S
C83 C87 1.397 . S
C84 C79 1.391 . S
C84 C83 1.391 . S
C84 C85 1.399 . S
C85 C84 1.399 . S
C85 C86 1.396 . S
C85 C88 1.453 . S
C85 C89 1.684 . S
C86 C67 1.723 . S
C86 C85 1.396 . S
C86 C87 1.394 . S
C87 C83 1.397 . S
C87 C86 1.394 . S
C87 C97 1.723 . S
C88 C85 1.453 . S
C88 H112 0.982 . S
C88 H113 0.979 . S
C88 H114 0.977 . S
C89 C85 1.684 . S
C89 H115 0.979 . S
C89 H116 0.980 . S
C89 H117 0.983 . S
C90 H66 0.948 . S
C90 C91 1.391 . S
C90 C95 1.391 . S
C91 C90 1.391 . S
C91 C92 1.391 . S
C92 H69 0.947 . S
C92 C91 1.391 . S
C92 C93 1.392 . S
C93 H70 0.948 . S
C93 C92 1.392 . S
C93 C94 1.419 . S
C94 C93 1.419 . S
C94 C95 1.391 . S
C94 C98 1.397 . S
C95 C90 1.391 . S
C95 C94 1.391 . S
C95 C96 1.399 . S
C96 C95 1.399 . S
C96 C97 1.396 . S
C96 C99 1.453 . S
C96 C100 1.684 . S
C97 C87 1.723 . S
C97 C96 1.396 . S
C97 C98 1.394 . S
C98 C68 1.723 . S
C98 C94 1.397 . S
C98 C97 1.394 . S
C99 H71 0.982 . S
C99 H75 0.979 . S
C99 H76 0.977 . S
C99 C96 1.453 . S
C100 H72 0.979 . S
C100 H73 0.980 . S
C100 H74 0.983 . S
C100 C96 1.684 . S
H101 C119 0.948 . S
H102 C60 0.948 1_556 S
H103 C78 0.979 . S
H104 C78 0.980 . S
H105 C78 0.983 1_556 S
H106 C77 0.982 . S
H107 C77 0.979 . S
H108 C77 0.977 . S
H109 C79 0.948 . S
H110 C81 0.947 . S
H111 C82 0.948 . S
H112 C88 0.982 . S
H113 C88 0.979 . S
H114 C88 0.977 . S
H115 C89 0.979 . S
H116 C89 0.980 . S
H117 C89 0.983 . S
H118 C62 0.947 . S
C119 C62 1.392 . S
C119 C63 1.419 . S
C119 H101 0.948 . S
C120 C121 1.391 . S
C120 C124 1.391 . S
C120 H162 0.948 . S
C121 C120 1.391 . S
C121 C122 1.391 . S
C122 C121 1.391 . S
C122 H178 0.947 . S
C122 C179 1.392 . S
C123 C124 1.391 . S
C123 C127 1.397 . S
C123 C179 1.419 . S
C124 C120 1.391 . S
C124 C123 1.391 . S
C124 C125 1.399 . S
C125 C124 1.399 . S
C125 C128 1.396 . S
C125 C137 1.453 . S
C125 C138 1.684 . S
H126 C150 0.948 . S
C127 C123 1.397 . S
C127 C128 1.394 . S
C127 C146 1.723 . S
C128 C125 1.396 . S
C128 C127 1.394 . S
C128 C158 1.723 . S
H129 C152 0.947 . S
H130 C153 0.948 . S
H131 C159 0.982 . S
H132 C160 0.979 . S
H133 C160 0.980 . S
H134 C160 0.983 . S
H135 C159 0.979 . S
H136 C159 0.977 . S
C137 C125 1.453 . S
C137 H166 0.982 . S
C137 H167 0.979 . S
C137 H168 0.977 . S
C138 C125 1.684 . S
C138 H163 0.979 . S
C138 H164 0.980 . S
C138 H165 0.983 . S
C139 C140 1.391 . S
C139 C144 1.391 . S
C139 H169 0.948 1_554 S
C140 C139 1.391 . S
C140 C141 1.391 . S
C141 C140 1.391 . S
C141 C142 1.392 . S
C141 H170 0.947 . S
C142 C141 1.392 . S
C142 C143 1.419 . S
C142 H171 0.948 . S
C143 C142 1.419 . S
C143 C144 1.391 . S
C143 C147 1.397 . S
C144 C139 1.391 . S
C144 C143 1.391 . S
C144 C145 1.399 . S
C145 C144 1.399 . S
C145 C146 1.396 . S
C145 C148 1.453 . S
C145 C149 1.684 . S
C146 C127 1.723 . S
C146 C145 1.396 . S
C146 C147 1.394 . S
C147 C143 1.397 . S
C147 C146 1.394 . S
C147 C157 1.723 . S
C148 C145 1.453 . S
C148 H172 0.982 . S
C148 H173 0.979 . S
C148 H174 0.977 . S
C149 C145 1.684 . S
C149 H175 0.979 . S
C149 H176 0.980 . S
C149 H177 0.983 1_554 S
C150 H126 0.948 . S
C150 C151 1.391 . S
C150 C155 1.391 . S
C151 C150 1.391 . S
C151 C152 1.391 . S
C152 H129 0.947 . S
C152 C151 1.391 . S
C152 C153 1.392 . S
C153 H130 0.948 . S
C153 C152 1.392 . S
C153 C154 1.419 . S
C154 C153 1.419 . S
C154 C155 1.391 . S
C154 C158 1.397 . S
C155 C150 1.391 . S
C155 C154 1.391 . S
C155 C156 1.399 . S
C156 C155 1.399 . S
C156 C157 1.396 . S
C156 C159 1.453 . S
C156 C160 1.684 . S
C157 C147 1.723 . S
C157 C156 1.396 . S
C157 C158 1.394 . S
C158 C128 1.723 . S
C158 C154 1.397 . S
C158 C157 1.394 . S
C159 H131 0.982 . S
C159 H135 0.979 . S
C159 H136 0.977 . S
C159 C156 1.453 . S
C160 H132 0.979 . S
C160 H133 0.980 . S
C160 H134 0.983 . S
C160 C156 1.684 . S
H161 C179 0.948 . S
H162 C120 0.948 . S
H163 C138 0.979 . S
H164 C138 0.980 . S
H165 C138 0.983 . S
H166 C137 0.982 . S
H167 C137 0.979 . S
H168 C137 0.977 . S
H169 C139 0.948 1_556 S
H170 C141 0.947 . S
H171 C142 0.948 . S
H172 C148 0.982 . S
H173 C148 0.979 . S
H174 C148 0.977 . S
H175 C149 0.979 . S
H176 C149 0.980 . S
H177 C149 0.983 1_556 S
H178 C122 0.947 . S
C179 C122 1.392 . S
C179 C123 1.419 . S
C179 H161 0.948 . S
C180 C181 1.391 . S
C180 C184 1.391 . S
C180 H222 0.948 . S
C181 C180 1.391 . S
C181 C182 1.391 . S
C182 C181 1.391 . S
C182 H238 0.947 . S
C182 C239 1.392 . S
C183 C184 1.391 . S
C183 C187 1.397 . S
C183 C239 1.419 . S
C184 C180 1.391 . S
C184 C183 1.391 . S
C184 C185 1.399 . S
C185 C184 1.399 . S
C185 C188 1.396 . S
C185 C197 1.453 . S
C185 C198 1.684 . S
H186 C210 0.948 . S
C187 C183 1.397 . S
C187 C188 1.394 . S
C187 C206 1.723 . S
C188 C185 1.396 . S
C188 C187 1.394 . S
C188 C218 1.723 . S
H189 C212 0.947 . S
H190 C213 0.948 . S
H191 C219 0.982 . S
H192 C220 0.979 . S
H193 C220 0.980 . S
H194 C220 0.983 . S
H195 C219 0.979 . S
H196 C219 0.977 . S
C197 C185 1.453 . S
C197 H226 0.982 . S
C197 H227 0.979 . S
C197 H228 0.977 . S
C198 C185 1.684 . S
C198 H223 0.979 . S
C198 H224 0.980 . S
C198 H225 0.983 . S
C199 C200 1.391 . S
C199 C204 1.391 . S
C199 H229 0.948 . S
C200 C199 1.391 . S
C200 C201 1.391 . S
C201 C200 1.391 . S
C201 C202 1.392 . S
C201 H230 0.947 1_554 S
C202 C201 1.392 . S
C202 C203 1.419 . S
C202 H231 0.948 . S
C203 C202 1.419 . S
C203 C204 1.391 . S
C203 C207 1.397 . S
C204 C199 1.391 . S
C204 C203 1.391 . S
C204 C205 1.399 . S
C205 C204 1.399 . S
C205 C206 1.396 . S
C205 C208 1.453 . S
C205 C209 1.684 . S
C206 C187 1.723 . S
C206 C205 1.396 . S
C206 C207 1.394 . S
C207 C203 1.397 . S
C207 C206 1.394 . S
C207 C217 1.723 . S
C208 C205 1.453 . S
C208 H232 0.982 . S
C208 H233 0.979 . S
C208 H234 0.977 . S
C209 C205 1.684 . S
C209 H235 0.979 . S
C209 H236 0.980 . S
C209 H237 0.983 . S
C210 H186 0.948 . S
C210 C211 1.391 . S
C210 C215 1.391 . S
C211 C210 1.391 . S
C211 C212 1.391 . S
C212 H189 0.947 . S
C212 C211 1.391 . S
C212 C213 1.392 . S
C213 H190 0.948 . S
C213 C212 1.392 . S
C213 C214 1.419 . S
C214 C213 1.419 . S
C214 C215 1.391 . S
C214 C218 1.397 . S
C215 C210 1.391 . S
C215 C214 1.391 . S
C215 C216 1.399 . S
C216 C215 1.399 . S
C216 C217 1.396 . S
C216 C219 1.453 . S
C216 C220 1.684 . S
C217 C207 1.723 . S
C217 C216 1.396 . S
C217 C218 1.394 . S
C218 C188 1.723 . S
C218 C214 1.397 . S
C218 C217 1.394 . S
C219 H191 0.982 . S
C219 H195 0.979 . S
C219 H196 0.977 . S
C219 C216 1.453 . S
C220 H192 0.979 . S
C220 H193 0.980 . S
C220 H194 0.983 . S
C220 C216 1.684 . S
H221 C239 0.948 . S
H222 C180 0.948 . S
H223 C198 0.979 . S
H224 C198 0.980 . S
H225 C198 0.983 . S
H226 C197 0.982 . S
H227 C197 0.979 . S
H228 C197 0.977 . S
H229 C199 0.948 . S
H230 C201 0.947 1_556 S
H231 C202 0.948 . S
H232 C208 0.982 . S
H233 C208 0.979 . S
H234 C208 0.977 . S
H235 C209 0.979 . S
H236 C209 0.980 . S
H237 C209 0.983 . S
H238 C182 0.947 . S
C239 C182 1.392 . S
C239 C183 1.419 . S
C239 H221 0.948 . S
C240 C241 1.391 . S
C240 C244 1.391 . S
C240 H282 0.948 . S
C241 C240 1.391 . S
C241 C242 1.391 . S
C242 C241 1.391 . S
C242 H298 0.947 . S
C242 C299 1.392 . S
C243 C244 1.391 . S
C243 C247 1.397 . S
C243 C299 1.419 . S
C244 C240 1.391 . S
C244 C243 1.391 . S
C244 C245 1.399 1_554 S
C245 C244 1.399 1_556 S
C245 C248 1.396 1_556 S
C245 C257 1.453 . S
C245 C258 1.684 . S
H246 C270 0.948 . S
C247 C243 1.397 . S
C247 C248 1.394 . S
C247 C266 1.723 . S
C248 C245 1.396 1_554 S
C248 C247 1.394 . S
C248 C278 1.723 1_554 S
H249 C272 0.947 . S
H250 C273 0.948 . S
H251 C279 0.982 . S
H252 C280 0.979 . S
H253 C280 0.980 1_554 S
H254 C280 0.983 . S
H255 C279 0.979 . S
H256 C279 0.977 1_554 S
C257 C245 1.453 . S
C257 H286 0.982 . S
C257 H287 0.979 . S
C257 H288 0.977 . S
C258 C245 1.684 . S
C258 H283 0.979 . S
C258 H284 0.980 . S
C258 H285 0.983 . S
C259 C260 1.391 . S
C259 C264 1.391 . S
C259 H289 0.948 . S
C260 C259 1.391 . S
C260 C261 1.391 . S
C261 C260 1.391 . S
C261 C262 1.392 . S
C261 H290 0.947 . S
C262 C261 1.392 . S
C262 C263 1.419 . S
C262 H291 0.948 . S
C263 C262 1.419 . S
C263 C264 1.391 . S
C263 C267 1.397 . S
C264 C259 1.391 . S
C264 C263 1.391 . S
C264 C265 1.399 . S
C265 C264 1.399 . S
C265 C266 1.396 . S
C265 C268 1.453 . S
C265 C269 1.684 . S
C266 C247 1.723 . S
C266 C265 1.396 . S
C266 C267 1.394 . S
C267 C263 1.397 . S
C267 C266 1.394 . S
C267 C277 1.723 . S
C268 C265 1.453 . S
C268 H292 0.982 . S
C268 H293 0.979 . S
C268 H294 0.977 . S
C269 C265 1.684 . S
C269 H295 0.979 . S
C269 H296 0.980 . S
C269 H297 0.983 . S
C270 H246 0.948 . S
C270 C271 1.391 . S
C270 C275 1.391 . S
C271 C270 1.391 . S
C271 C272 1.391 . S
C272 H249 0.947 . S
C272 C271 1.391 . S
C272 C273 1.392 . S
C273 H250 0.948 . S
C273 C272 1.392 . S
C273 C274 1.419 . S
C274 C273 1.419 . S
C274 C275 1.391 . S
C274 C278 1.397 . S
C275 C270 1.391 . S
C275 C274 1.391 . S
C275 C276 1.399 . S
C276 C275 1.399 . S
C276 C277 1.396 1_556 S
C276 C279 1.453 . S
C276 C280 1.684 . S
C277 C267 1.723 . S
C277 C276 1.396 1_554 S
C277 C278 1.394 1_554 S
C278 C248 1.723 1_556 S
C278 C274 1.397 . S
C278 C277 1.394 1_556 S
C279 H251 0.982 . S
C279 H255 0.979 . S
C279 H256 0.977 1_556 S
C279 C276 1.453 . S
C280 H252 0.979 . S
C280 H253 0.980 1_556 S
C280 H254 0.983 . S
C280 C276 1.684 . S
H281 C299 0.948 . S
H282 C240 0.948 . S
H283 C258 0.979 . S
H284 C258 0.980 . S
H285 C258 0.983 . S
H286 C257 0.982 . S
H287 C257 0.979 . S
H288 C257 0.977 . S
H289 C259 0.948 . S
H290 C261 0.947 . S
H291 C262 0.948 . S
H292 C268 0.982 . S
H293 C268 0.979 . S
H294 C268 0.977 . S
H295 C269 0.979 . S
H296 C269 0.980 . S
H297 C269 0.983 . S
H298 C242 0.947 . S
C299 C242 1.392 . S
C299 C243 1.419 . S
C299 H281 0.948 . S
C300 C301 1.391 . S
C300 C304 1.391 . S
C300 H342 0.948 . S
C301 C300 1.391 . S
C301 C302 1.391 . S
C302 C301 1.391 . S
C302 H358 0.947 . S
C302 C359 1.392 . S
C303 C304 1.391 . S
C303 C307 1.397 . S
C303 C359 1.419 . S
C304 C300 1.391 . S
C304 C303 1.391 . S
C304 C305 1.399 . S
C305 C304 1.399 . S
C305 C308 1.396 . S
C305 C317 1.453 . S
C305 C318 1.684 . S
H306 C330 0.948 . S
C307 C303 1.397 . S
C307 C308 1.394 . S
C307 C326 1.723 . S
C308 C305 1.396 . S
C308 C307 1.394 . S
C308 C338 1.723 . S
H309 C332 0.947 . S
H310 C333 0.948 . S
H311 C339 0.982 . S
H312 C340 0.979 . S
H313 C340 0.980 . S
H314 C340 0.983 . S
H315 C339 0.979 . S
H316 C339 0.977 . S
C317 C305 1.453 . S
C317 H346 0.982 . S
C317 H347 0.979 . S
C317 H348 0.977 . S
C318 C305 1.684 . S
C318 H343 0.979 . S
C318 H344 0.980 . S
C318 H345 0.983 . S
C319 C320 1.391 . S
C319 C324 1.391 . S
C319 H349 0.948 . S
C320 C319 1.391 . S
C320 C321 1.391 . S
C321 C320 1.391 . S
C321 C322 1.392 . S
C321 H350 0.947 . S
C322 C321 1.392 . S
C322 C323 1.419 . S
C322 H351 0.948 . S
C323 C322 1.419 . S
C323 C324 1.391 . S
C323 C327 1.397 . S
C324 C319 1.391 . S
C324 C323 1.391 . S
C324 C325 1.399 . S
C325 C324 1.399 . S
C325 C326 1.396 1_556 S
C325 C328 1.453 . S
C325 C329 1.684 . S
C326 C307 1.723 . S
C326 C325 1.396 1_554 S
C326 C327 1.394 1_554 S
C327 C323 1.397 . S
C327 C326 1.394 1_556 S
C327 C337 1.723 1_556 S
C328 C325 1.453 . S
C328 H352 0.982 . S
C328 H353 0.979 . S
C328 H354 0.977 1_556 S
C329 C325 1.684 . S
C329 H355 0.979 . S
C329 H356 0.980 1_556 S
C329 H357 0.983 . S
C330 H306 0.948 . S
C330 C331 1.391 . S
C330 C335 1.391 . S
C331 C330 1.391 . S
C331 C332 1.391 . S
C332 H309 0.947 . S
C332 C331 1.391 . S
C332 C333 1.392 . S
C333 H310 0.948 . S
C333 C332 1.392 . S
C333 C334 1.419 . S
C334 C333 1.419 . S
C334 C335 1.391 . S
C334 C338 1.397 . S
C335 C330 1.391 . S
C335 C334 1.391 . S
C335 C336 1.399 1_554 S
C336 C335 1.399 1_556 S
C336 C337 1.396 1_556 S
C336 C339 1.453 . S
C336 C340 1.684 . S
C337 C327 1.723 1_554 S
C337 C336 1.396 1_554 S
C337 C338 1.394 . S
C338 C308 1.723 . S
C338 C334 1.397 . S
C338 C337 1.394 . S
C339 H311 0.982 . S
C339 H315 0.979 . S
C339 H316 0.977 . S
C339 C336 1.453 . S
C340 H312 0.979 . S
C340 H313 0.980 . S
C340 H314 0.983 . S
C340 C336 1.684 . S
H341 C359 0.948 . S
H342 C300 0.948 . S
H343 C318 0.979 . S
H344 C318 0.980 . S
H345 C318 0.983 . S
H346 C317 0.982 . S
H347 C317 0.979 . S
H348 C317 0.977 . S
H349 C319 0.948 . S
H350 C321 0.947 . S
H351 C322 0.948 . S
H352 C328 0.982 . S
H353 C328 0.979 . S
H354 C328 0.977 1_554 S
H355 C329 0.979 . S
H356 C329 0.980 1_554 S
H357 C329 0.983 . S
H358 C302 0.947 . S
C359 C302 1.392 . S
C359 C303 1.419 . S
C359 H341 0.948 . S
C360 C361 1.391 . S
C360 C364 1.391 . S
C360 H402 0.948 . S
C361 C360 1.391 . S
C361 C362 1.391 . S
C362 C361 1.391 . S
C362 H418 0.947 . S
C362 C419 1.392 . S
C363 C364 1.391 . S
C363 C367 1.397 . S
C363 C419 1.419 . S
C364 C360 1.391 . S
C364 C363 1.391 . S
C364 C365 1.399 . S
C365 C364 1.399 . S
C365 C368 1.396 . S
C365 C377 1.453 . S
C365 C378 1.684 . S
H366 C390 0.948 . S
C367 C363 1.397 . S
C367 C368 1.394 . S
C367 C386 1.723 1_556 S
C368 C365 1.396 . S
C368 C367 1.394 . S
C368 C398 1.723 1_556 S
H369 C392 0.947 . S
H370 C393 0.948 1_556 S
H371 C399 0.982 . S
H372 C400 0.979 . S
H373 C400 0.980 . S
H374 C400 0.983 . S
H375 C399 0.979 . S
H376 C399 0.977 . S
C377 C365 1.453 . S
C377 H406 0.982 . S
C377 H407 0.979 . S
C377 H408 0.977 . S
C378 C365 1.684 . S
C378 H403 0.979 . S
C378 H404 0.980 . S
C378 H405 0.983 . S
C379 C380 1.391 . S
C379 C384 1.391 . S
C379 H409 0.948 . S
C380 C379 1.391 . S
C380 C381 1.391 . S
C381 C380 1.391 . S
C381 C382 1.392 . S
C381 H410 0.947 . S
C382 C381 1.392 . S
C382 C383 1.419 . S
C382 H411 0.948 . S
C383 C382 1.419 . S
C383 C384 1.391 . S
C383 C387 1.397 . S
C384 C379 1.391 . S
C384 C383 1.391 . S
C384 C385 1.399 . S
C385 C384 1.399 . S
C385 C386 1.396 . S
C385 C388 1.453 . S
C385 C389 1.684 . S
C386 C367 1.723 1_554 S
C386 C385 1.396 . S
C386 C387 1.394 . S
C387 C383 1.397 . S
C387 C386 1.394 . S
C387 C397 1.723 . S
C388 C385 1.453 . S
C388 H412 0.982 . S
C388 H413 0.979 . S
C388 H414 0.977 1_554 S
C389 C385 1.684 . S
C389 H415 0.979 . S
C389 H416 0.980 1_554 S
C389 H417 0.983 . S
C390 H366 0.948 . S
C390 C391 1.391 . S
C390 C395 1.391 . S
C391 C390 1.391 . S
C391 C392 1.391 . S
C392 H369 0.947 . S
C392 C391 1.391 . S
C392 C393 1.392 . S
C393 H370 0.948 1_554 S
C393 C392 1.392 . S
C393 C394 1.419 . S
C394 C393 1.419 . S
C394 C395 1.391 . S
C394 C398 1.397 . S
C395 C390 1.391 . S
C395 C394 1.391 . S
C395 C396 1.399 . S
C396 C395 1.399 . S
C396 C397 1.396 . S
C396 C399 1.453 . S
C396 C400 1.684 . S
C397 C387 1.723 . S
C397 C396 1.396 . S
C397 C398 1.394 . S
C398 C368 1.723 1_554 S
C398 C394 1.397 . S
C398 C397 1.394 . S
C399 H371 0.982 . S
C399 H375 0.979 . S
C399 H376 0.977 . S
C399 C396 1.453 . S
C400 H372 0.979 . S
C400 H373 0.980 . S
C400 H374 0.983 . S
C400 C396 1.684 . S
H401 C419 0.948 . S
H402 C360 0.948 . S
H403 C378 0.979 . S
H404 C378 0.980 . S
H405 C378 0.983 . S
H406 C377 0.982 . S
H407 C377 0.979 . S
H408 C377 0.977 . S
H409 C379 0.948 . S
H410 C381 0.947 . S
H411 C382 0.948 . S
H412 C388 0.982 . S
H413 C388 0.979 . S
H414 C388 0.977 1_556 S
H415 C389 0.979 . S
H416 C389 0.980 1_556 S
H417 C389 0.983 . S
H418 C362 0.947 . S
C419 C362 1.392 . S
C419 C363 1.419 . S
C419 H401 0.948 . S
C420 C421 1.391 . S
C420 C424 1.391 . S
C420 H462 0.948 . S
C421 C420 1.391 . S
C421 C422 1.391 . S
C422 C421 1.391 . S
C422 H478 0.947 . S
C422 C479 1.392 . S
C423 C424 1.391 . S
C423 C427 1.397 . S
C423 C479 1.419 . S
C424 C420 1.391 . S
C424 C423 1.391 . S
C424 C425 1.399 . S
C425 C424 1.399 . S
C425 C428 1.396 . S
C425 C437 1.453 . S
C425 C438 1.684 . S
H426 C450 0.948 . S
C427 C423 1.397 . S
C427 C428 1.394 . S
C427 C446 1.723 1_556 S
C428 C425 1.396 . S
C428 C427 1.394 . S
C428 C458 1.723 1_556 S
H429 C452 0.947 1_556 S
H430 C453 0.948 1_556 S
H431 C459 0.982 . S
H432 C460 0.979 . S
H433 C460 0.980 . S
H434 C460 0.983 . S
H435 C459 0.979 . S
H436 C459 0.977 . S
C437 C425 1.453 . S
C437 H466 0.982 . S
C437 H467 0.979 . S
C437 H468 0.977 . S
C438 C425 1.684 . S
C438 H463 0.979 . S
C438 H464 0.980 . S
C438 H465 0.983 . S
C439 C440 1.391 . S
C439 C444 1.391 . S
C439 H469 0.948 . S
C440 C439 1.391 . S
C440 C441 1.391 . S
C441 C440 1.391 . S
C441 C442 1.392 . S
C441 H470 0.947 . S
C442 C441 1.392 . S
C442 C443 1.419 . S
C442 H471 0.948 . S
C443 C442 1.419 . S
C443 C444 1.391 . S
C443 C447 1.397 . S
C444 C439 1.391 . S
C444 C443 1.391 . S
C444 C445 1.399 . S
C445 C444 1.399 . S
C445 C446 1.396 . S
C445 C448 1.453 . S
C445 C449 1.684 . S
C446 C427 1.723 1_554 S
C446 C445 1.396 . S
C446 C447 1.394 . S
C447 C443 1.397 . S
C447 C446 1.394 . S
C447 C457 1.723 . S
C448 C445 1.453 . S
C448 H472 0.982 . S
C448 H473 0.979 . S
C448 H474 0.977 1_554 S
C449 C445 1.684 . S
C449 H475 0.979 . S
C449 H476 0.980 1_554 S
C449 H477 0.983 . S
C450 H426 0.948 . S
C450 C451 1.391 . S
C450 C455 1.391 . S
C451 C450 1.391 . S
C451 C452 1.391 . S
C452 H429 0.947 1_554 S
C452 C451 1.391 . S
C452 C453 1.392 . S
C453 H430 0.948 1_554 S
C453 C452 1.392 . S
C453 C454 1.419 . S
C454 C453 1.419 . S
C454 C455 1.391 . S
C454 C458 1.397 . S
C455 C450 1.391 . S
C455 C454 1.391 . S
C455 C456 1.399 . S
C456 C455 1.399 . S
C456 C457 1.396 . S
C456 C459 1.453 . S
C456 C460 1.684 . S
C457 C447 1.723 . S
C457 C456 1.396 . S
C457 C458 1.394 . S
C458 C428 1.723 1_554 S
C458 C454 1.397 . S
C458 C457 1.394 . S
C459 H431 0.982 . S
C459 H435 0.979 . S
C459 H436 0.977 . S
C459 C456 1.453 . S
C460 H432 0.979 . S
C460 H433 0.980 . S
C460 H434 0.983 . S
C460 C456 1.684 . S
H461 C479 0.948 . S
H462 C420 0.948 . S
H463 C438 0.979 . S
H464 C438 0.980 . S
H465 C438 0.983 . S
H466 C437 0.982 . S
H467 C437 0.979 . S
H468 C437 0.977 . S
H469 C439 0.948 . S
H470 C441 0.947 . S
H471 C442 0.948 . S
H472 C448 0.982 . S
H473 C448 0.979 . S
H474 C448 0.977 1_556 S
H475 C449 0.979 . S
H476 C449 0.980 1_556 S
H477 C449 0.983 . S
H478 C422 0.947 . S
C479 C422 1.392 . S
C479 C423 1.419 . S
C479 H461 0.948 . S
Tb480 N509 2.617 . S
Tb480 N515 2.572 . S
Tb480 O524 2.460 1_655 S
Tb480 O525 2.387 1_545 S
Tb480 O527 2.428 . S
Tb480 O528 2.308 1_655 S
Tb480 O532 2.349 1_655 S
Tb480 O535 2.393 . S
Tb480 C544 2.802 . S
C481 N482 1.379 1_545 S
C481 C484 1.416 . S
C481 C488 1.424 . S
N482 C481 1.379 1_565 S
N482 C485 1.334 . S
N482 Tb491 2.617 . S
C483 C485 1.390 1_545 S
C483 C486 1.339 . S
C483 H503 0.930 . S
C484 C481 1.416 . S
C484 C486 1.416 . S
C484 C490 1.448 . S
C485 N482 1.334 . S
C485 C483 1.390 1_565 S
C485 H496 0.930 . S
C486 C483 1.339 . S
C486 C484 1.416 . S
C486 H507 0.930 . S
C487 C488 1.413 . S
C487 C489 1.427 . S
C487 C493 1.416 . S
C488 C481 1.424 . S
C488 C487 1.413 . S
C488 N492 1.361 . S
C489 C487 1.427 . S
C489 C490 1.328 . S
C489 H504 0.929 . S
C490 C484 1.448 . S
C490 C489 1.328 . S
C490 H505 0.930 . S
Tb491 N482 2.617 . S
Tb491 N492 2.572 1_565 S
Tb491 O526 2.349 . S
Tb491 O529 2.393 . S
Tb491 O530 2.465 . S
Tb491 O531 2.387 1_565 S
Tb491 O533 2.428 . S
Tb491 O534 2.304 1_465 S
Tb491 C555 2.802 . S
N492 C488 1.361 . S
N492 Tb491 2.572 1_545 S
N492 C494 1.340 . S
C493 C487 1.416 . S
C493 C495 1.332 . S
C493 H501 0.931 . S
C494 N492 1.340 . S
C494 C495 1.407 . S
C494 H500 0.880 1_445 S
C495 C493 1.332 . S
C495 C494 1.407 . S
C495 H497 0.983 . S
H496 C485 0.930 . S
H497 C495 0.983 . S
H498 C513 0.930 . S
H499 C520 0.929 1_455 S
H500 C494 0.880 1_665 S
H501 C493 0.931 . S
H502 C516 0.922 1_455 S
H503 C483 0.930 . S
H504 C489 0.929 . S
H505 C490 0.930 . S
H506 C511 0.930 . S
H507 C486 0.930 . S
H508 C519 0.931 . S
N509 Tb480 2.617 . S
N509 C510 1.379 . S
N509 C513 1.334 . S
C510 N509 1.379 . S
C510 C512 1.416 1_545 S
C510 C518 1.424 . S
C511 H506 0.930 . S
C511 C513 1.390 . S
C511 C514 1.333 1_545 S
C512 C510 1.416 1_565 S
C512 C514 1.418 . S
C512 C545 1.448 . S
C513 H498 0.930 . S
C513 N509 1.334 . S
C513 C511 1.390 . S
C514 C511 1.333 1_565 S
C514 C512 1.418 . S
C514 H521 0.935 . S
N515 Tb480 2.572 . S
N515 C516 1.347 . S
N515 C518 1.361 . S
C516 H502 0.922 1_655 S
C516 N515 1.347 . S
C516 C520 1.408 1_545 S
C517 C518 1.413 1_565 S
C517 C519 1.416 . S
C517 C546 1.427 . S
C518 C510 1.424 . S
C518 N515 1.361 . S
C518 C517 1.413 1_545 S
C519 H508 0.931 . S
C519 C517 1.416 . S
C519 C520 1.332 . S
C520 H499 0.929 1_655 S
C520 C516 1.408 1_565 S
C520 C519 1.332 . S
H521 C514 0.935 . S
H522 C545 0.930 . S
H523 C546 0.929 . S
O524 Tb480 2.460 1_455 S
O524 C544 1.251 1_455 S
O525 Tb480 2.387 1_565 S
O525 C536 1.264 . S
O526 Tb491 2.349 . S
O526 C536 1.243 1_455 S
O527 Tb480 2.428 . S
O527 C544 1.256 . S
O528 Tb480 2.308 1_455 S
O528 C543 1.266 . S
O529 Tb491 2.393 . S
O529 C543 1.248 1_565 S
O530 Tb491 2.465 . S
O530 C555 1.264 . S
O531 Tb491 2.387 1_545 S
O531 C547 1.264 . S
O532 Tb480 2.349 1_455 S
O532 C547 1.243 . S
O533 Tb491 2.428 . S
O533 C555 1.256 . S
O534 Tb491 2.304 1_645 S
O534 C554 1.269 . S
O535 Tb480 2.393 . S
O535 C554 1.248 . S
C536 O525 1.264 . S
C536 O526 1.243 1_655 S
C537 C540 1.399 . S
C537 C542 1.383 . S
C537 C544 1.496 . S
C538 C539 1.399 . S
C538 C542 1.389 . S
C539 C538 1.399 . S
C539 C541 1.380 . S
C539 H556 0.929 . S
C540 C537 1.399 . S
C540 C541 1.392 . S
C540 H557 0.929 . S
C541 C539 1.380 . S
C541 C540 1.392 . S
C541 H558 0.929 . S
C542 C537 1.383 . S
C542 C538 1.389 . S
C542 H559 0.931 1_655 S
C543 O528 1.266 . S
C543 O529 1.248 1_545 S
C544 Tb480 2.802 . S
C544 O524 1.251 1_655 S
C544 O527 1.256 . S
C544 C537 1.496 . S
C545 C512 1.448 . S
C545 H522 0.930 . S
C545 C546 1.328 . S
C546 C517 1.427 . S
C546 H523 0.929 . S
C546 C545 1.328 . S
C547 O531 1.264 . S
C547 O532 1.243 . S
C548 C551 1.399 . S
C548 C552 1.383 . S
C548 C555 1.496 . S
C549 C550 1.399 . S
C549 C552 1.389 . S
C550 C549 1.399 . S
C550 C553 1.380 . S
C550 H560 0.929 . S
C551 C548 1.399 . S
C551 C553 1.392 . S
C551 H561 0.929 . S
C552 C548 1.383 . S
C552 C549 1.389 . S
C552 H562 0.961 . S
C553 C550 1.380 . S
C553 C551 1.392 . S
C553 H563 0.929 . S
C554 O534 1.269 . S
C554 O535 1.248 . S
C555 Tb491 2.802 . S
C555 O530 1.264 . S
C555 O533 1.256 . S
C555 C548 1.496 . S
H556 C539 0.929 . S
H557 C540 0.929 . S
H558 C541 0.929 . S
H559 C542 0.931 1_455 S
H560 C550 0.929 . S
H561 C551 0.929 . S
H562 C552 0.961 . S
H563 C553 0.929 . S
Tb564 N593 2.617 . S
Tb564 N599 2.572 . S
Tb564 O608 2.465 . S
Tb564 O609 2.387 . S
Tb564 O611 2.428 . S
Tb564 O612 2.308 . S
Tb564 O616 2.349 1_545 S
Tb564 O619 2.393 . S
Tb564 C628 2.802 . S
C565 N566 1.379 . S
C565 C568 1.416 . S
C565 C572 1.424 . S
N566 C565 1.379 . S
N566 C569 1.334 . S
N566 Tb575 2.617 . S
C567 C569 1.390 . S
C567 C570 1.339 . S
C567 H587 0.930 . S
C568 C565 1.416 . S
C568 C570 1.416 . S
C568 C574 1.448 . S
C569 N566 1.334 . S
C569 C567 1.390 . S
C569 H580 0.930 . S
C570 C567 1.339 . S
C570 C568 1.416 . S
C570 H591 0.930 . S
C571 C572 1.413 . S
C571 C573 1.427 . S
C571 C577 1.416 . S
C572 C565 1.424 . S
C572 C571 1.413 . S
C572 N576 1.361 . S
C573 C571 1.427 . S
C573 C574 1.328 . S
C573 H588 0.929 . S
C574 C568 1.448 . S
C574 C573 1.328 . S
C574 H589 0.930 . S
Tb575 N566 2.617 . S
Tb575 N576 2.572 . S
Tb575 O610 2.349 1_565 S
Tb575 O613 2.393 . S
Tb575 O614 2.465 . S
Tb575 O615 2.387 . S
Tb575 O617 2.428 . S
Tb575 O618 2.308 1_565 S
Tb575 C639 2.802 . S
N576 C572 1.361 . S
N576 Tb575 2.572 . S
N576 C578 1.340 . S
C577 C571 1.416 . S
C577 C579 1.332 . S
C577 H585 0.931 . S
C578 N576 1.340 . S
C578 C579 1.407 . S
C578 H584 0.930 . S
C579 C577 1.332 . S
C579 C578 1.407 . S
C579 H581 0.929 . S
H580 C569 0.930 . S
H581 C579 0.929 . S
H582 C597 0.930 . S
H583 C604 0.929 . S
H584 C578 0.930 . S
H585 C577 0.931 . S
H586 C600 0.930 . S
H587 C567 0.930 . S
H588 C573 0.929 . S
H589 C574 0.930 . S
H590 C595 0.930 . S
H591 C570 0.930 . S
H592 C603 0.931 . S
N593 Tb564 2.617 . S
N593 C594 1.379 . S
N593 C597 1.334 . S
C594 N593 1.379 . S
C594 C596 1.416 . S
C594 C602 1.424 . S
C595 H590 0.930 . S
C595 C597 1.390 . S
C595 C598 1.339 . S
C596 C594 1.416 . S
C596 C598 1.416 . S
C596 C629 1.448 . S
C597 H582 0.930 . S
C597 N593 1.334 . S
C597 C595 1.390 . S
C598 C595 1.339 . S
C598 C596 1.416 . S
C598 H605 0.930 . S
N599 Tb564 2.572 . S
N599 C600 1.340 . S
N599 C602 1.361 . S
C600 H586 0.930 . S
C600 N599 1.340 . S
C600 C604 1.407 . S
C601 C602 1.413 . S
C601 C603 1.416 . S
C601 C630 1.427 . S
C602 C594 1.424 . S
C602 N599 1.361 . S
C602 C601 1.413 . S
C603 H592 0.931 . S
C603 C601 1.416 . S
C603 C604 1.332 . S
C604 H583 0.929 . S
C604 C600 1.407 . S
C604 C603 1.332 . S
H605 C598 0.930 . S
H606 C629 0.930 . S
H607 C630 0.929 . S
O608 Tb564 2.465 . S
O608 C628 1.264 . S
O609 Tb564 2.387 . S
O609 C620 1.264 . S
O610 Tb575 2.349 1_545 S
O610 C620 1.243 . S
O611 Tb564 2.428 . S
O611 C628 1.256 . S
O612 Tb564 2.308 . S
O612 C627 1.266 1_545 S
O613 Tb575 2.393 . S
O613 C627 1.248 . S
O614 Tb575 2.465 . S
O614 C639 1.264 . S
O615 Tb575 2.387 . S
O615 C631 1.264 . S
O616 Tb564 2.349 1_565 S
O616 C631 1.243 . S
O617 Tb575 2.428 . S
O617 C639 1.256 . S
O618 Tb575 2.308 1_545 S
O618 C638 1.266 . S
O619 Tb564 2.393 . S
O619 C638 1.248 . S
C620 O609 1.264 . S
C620 O610 1.243 . S
C621 C624 1.399 . S
C621 C626 1.383 . S
C621 C628 1.496 . S
C622 C623 1.399 . S
C622 C626 1.389 . S
C623 C622 1.399 . S
C623 C625 1.380 . S
C623 H640 0.929 . S
C624 C621 1.399 . S
C624 C625 1.392 . S
C624 H641 0.929 . S
C625 C623 1.380 . S
C625 C624 1.392 . S
C625 H642 0.929 . S
C626 C621 1.383 . S
C626 C622 1.389 . S
C626 H643 0.931 . S
C627 O612 1.266 1_565 S
C627 O613 1.248 . S
C628 Tb564 2.802 . S
C628 O608 1.264 . S
C628 O611 1.256 . S
C628 C621 1.496 . S
C629 C596 1.448 . S
C629 H606 0.930 . S
C629 C630 1.328 . S
C630 C601 1.427 . S
C630 H607 0.929 . S
C630 C629 1.328 . S
C631 O615 1.264 . S
C631 O616 1.243 . S
C632 C635 1.399 . S
C632 C636 1.383 1_565 S
C632 C639 1.496 . S
C633 C634 1.399 1_545 S
C633 C636 1.389 . S
C634 C633 1.399 1_565 S
C634 C637 1.380 . S
C634 H644 0.929 . S
C635 C632 1.399 . S
C635 C637 1.392 . S
C635 H645 0.929 . S
C636 C632 1.383 1_545 S
C636 C633 1.389 . S
C636 H646 0.931 . S
C637 C634 1.380 . S
C637 C635 1.392 . S
C637 H647 0.929 . S
C638 O618 1.266 . S
C638 O619 1.248 . S
C639 Tb575 2.802 . S
C639 O614 1.264 . S
C639 O617 1.256 . S
C639 C632 1.496 . S
H640 C623 0.929 . S
H641 C624 0.929 . S
H642 C625 0.929 . S
H643 C626 0.931 . S
H644 C634 0.929 . S
H645 C635 0.929 . S
H646 C636 0.931 . S
H647 C637 0.929 . S
Tb648 N677 2.617 . S
Tb648 N683 2.572 . S
Tb648 O692 2.465 . S
Tb648 O693 2.387 . S
Tb648 O695 2.428 . S
Tb648 O696 2.308 . S
Tb648 O700 2.349 . S
Tb648 O703 2.393 . S
Tb648 C712 2.802 . S
C649 N650 1.379 . S
C649 C652 1.416 . S
C649 C656 1.424 . S
N650 C649 1.379 . S
N650 C653 1.334 . S
N650 Tb659 2.617 . S
C651 C653 1.390 . S
C651 C654 1.339 . S
C651 H671 0.930 . S
C652 C649 1.416 . S
C652 C654 1.416 . S
C652 C658 1.448 . S
C653 N650 1.334 . S
C653 C651 1.390 . S
C653 H664 0.930 . S
C654 C651 1.339 . S
C654 C652 1.416 . S
C654 H675 0.930 . S
C655 C656 1.413 . S
C655 C657 1.427 . S
C655 C661 1.416 . S
C656 C649 1.424 . S
C656 C655 1.413 . S
C656 N660 1.361 . S
C657 C655 1.427 . S
C657 C658 1.328 . S
C657 H672 0.929 . S
C658 C652 1.448 . S
C658 C657 1.328 . S
C658 H673 0.930 . S
Tb659 N650 2.617 . S
Tb659 N660 2.572 . S
Tb659 O694 2.349 . S
Tb659 O697 2.393 . S
Tb659 O698 2.465 . S
Tb659 O699 2.387 . S
Tb659 O701 2.428 . S
Tb659 O702 2.308 . S
Tb659 C723 2.802 . S
N660 C656 1.361 . S
N660 Tb659 2.572 . S
N660 C662 1.340 . S
C661 C655 1.416 . S
C661 C663 1.332 . S
C661 H669 0.931 . S
C662 N660 1.340 . S
C662 C663 1.407 . S
C662 H668 0.930 . S
C663 C661 1.332 . S
C663 C662 1.407 . S
C663 H665 0.929 . S
H664 C653 0.930 . S
H665 C663 0.929 . S
H666 C681 0.930 . S
H667 C688 0.929 . S
H668 C662 0.930 . S
H669 C661 0.931 . S
H670 C684 0.930 . S
H671 C651 0.930 . S
H672 C657 0.929 . S
H673 C658 0.930 . S
H674 C679 0.930 . S
H675 C654 0.930 . S
H676 C687 0.931 . S
N677 Tb648 2.617 . S
N677 C678 1.379 . S
N677 C681 1.334 . S
C678 N677 1.379 . S
C678 C680 1.416 . S
C678 C686 1.424 . S
C679 H674 0.930 . S
C679 C681 1.390 . S
C679 C682 1.339 . S
C680 C678 1.416 . S
C680 C682 1.416 . S
C680 C713 1.448 . S
C681 H666 0.930 . S
C681 N677 1.334 . S
C681 C679 1.390 . S
C682 C679 1.339 . S
C682 C680 1.416 . S
C682 H689 0.930 . S
N683 Tb648 2.572 . S
N683 C684 1.340 . S
N683 C686 1.361 . S
C684 H670 0.930 . S
C684 N683 1.340 . S
C684 C688 1.407 . S
C685 C686 1.413 . S
C685 C687 1.416 . S
C685 C714 1.427 . S
C686 C678 1.424 . S
C686 N683 1.361 . S
C686 C685 1.413 . S
C687 H676 0.931 . S
C687 C685 1.416 . S
C687 C688 1.332 . S
C688 H667 0.929 . S
C688 C684 1.407 . S
C688 C687 1.332 . S
H689 C682 0.930 . S
H690 C713 0.930 . S
H691 C714 0.929 . S
O692 Tb648 2.465 . S
O692 C712 1.264 . S
O693 Tb648 2.387 . S
O693 C704 1.264 . S
O694 Tb659 2.349 . S
O694 C704 1.243 . S
O695 Tb648 2.428 . S
O695 C712 1.256 . S
O696 Tb648 2.308 . S
O696 C711 1.266 . S
O697 Tb659 2.393 . S
O697 C711 1.248 . S
O698 Tb659 2.465 . S
O698 C723 1.264 . S
O699 Tb659 2.387 . S
O699 C715 1.264 . S
O700 Tb648 2.349 . S
O700 C715 1.243 . S
O701 Tb659 2.428 . S
O701 C723 1.256 . S
O702 Tb659 2.308 . S
O702 C722 1.266 . S
O703 Tb648 2.393 . S
O703 C722 1.248 . S
C704 O693 1.264 . S
C704 O694 1.243 . S
C705 C708 1.399 . S
C705 C710 1.383 . S
C705 C712 1.496 . S
C706 C707 1.399 . S
C706 C710 1.389 . S
C707 C706 1.399 . S
C707 C709 1.380 . S
C707 H724 0.929 . S
C708 C705 1.399 . S
C708 C709 1.392 . S
C708 H725 0.929 . S
C709 C707 1.380 . S
C709 C708 1.392 . S
C709 H726 0.929 . S
C710 C705 1.383 . S
C710 C706 1.389 . S
C710 H727 0.931 . S
C711 O696 1.266 . S
C711 O697 1.248 . S
C712 Tb648 2.802 . S
C712 O692 1.264 . S
C712 O695 1.256 . S
C712 C705 1.496 . S
C713 C680 1.448 . S
C713 H690 0.930 . S
C713 C714 1.328 . S
C714 C685 1.427 . S
C714 H691 0.929 . S
C714 C713 1.328 . S
C715 O699 1.264 . S
C715 O700 1.243 . S
C716 C719 1.399 . S
C716 C720 1.383 . S
C716 C723 1.496 . S
C717 C718 1.399 . S
C717 C720 1.389 . S
C718 C717 1.399 . S
C718 C721 1.380 . S
C718 H728 0.929 . S
C719 C716 1.399 . S
C719 C721 1.392 . S
C719 H729 0.929 . S
C720 C716 1.383 . S
C720 C717 1.389 . S
C720 H730 0.931 . S
C721 C718 1.380 . S
C721 C719 1.392 . S
C721 H731 0.929 . S
C722 O702 1.266 . S
C722 O703 1.248 . S
C723 Tb659 2.802 . S
C723 O698 1.264 . S
C723 O701 1.256 . S
C723 C716 1.496 . S
H724 C707 0.929 . S
H725 C708 0.929 . S
H726 C709 0.929 . S
H727 C710 0.931 . S
H728 C718 0.929 . S
H729 C719 0.929 . S
H730 C720 0.931 . S
H731 C721 0.929 . S
Tb732 N761 2.617 . S
Tb732 N767 2.572 . S
Tb732 O776 2.465 . S
Tb732 O777 2.387 1_455 S
Tb732 O779 2.428 . S
Tb732 O780 2.308 . S
Tb732 O784 2.349 . S
Tb732 O787 2.393 . S
Tb732 C796 2.802 . S
C733 N734 1.379 1_455 S
C733 C736 1.416 . S
C733 C740 1.424 . S
N734 C733 1.379 1_655 S
N734 C737 1.334 . S
N734 Tb743 2.617 . S
C735 C737 1.390 1_455 S
C735 C738 1.339 . S
C735 H755 0.929 1_455 S
C736 C733 1.416 . S
C736 C738 1.416 . S
C736 C742 1.448 . S
C737 N734 1.334 . S
C737 C735 1.390 1_655 S
C737 H748 0.930 . S
C738 C735 1.339 . S
C738 C736 1.416 . S
C738 H759 0.930 . S
C739 C740 1.413 . S
C739 C741 1.427 . S
C739 C745 1.416 . S
C740 C733 1.424 . S
C740 C739 1.413 . S
C740 N744 1.382 . S
C741 C739 1.427 . S
C741 C742 1.328 . S
C741 H756 0.929 . S
C742 C736 1.448 . S
C742 C741 1.328 . S
C742 H757 0.930 . S
Tb743 N734 2.617 . S
Tb743 N744 2.555 1_655 S
Tb743 O778 2.349 . S
Tb743 O781 2.393 . S
Tb743 O782 2.465 . S
Tb743 O783 2.387 1_655 S
Tb743 O785 2.428 . S
Tb743 O786 2.305 1_655 S
Tb743 C807 2.802 . S
N744 C740 1.382 . S
N744 Tb743 2.555 1_455 S
N744 C746 1.348 . S
C745 C739 1.416 . S
C745 C747 1.332 . S
C745 H753 0.931 . S
C746 N744 1.348 . S
C746 C747 1.407 . S
C746 H752 0.930 1_455 S
C747 C745 1.332 . S
C747 C746 1.407 . S
C747 H749 0.929 . S
H748 C737 0.930 . S
H749 C747 0.929 . S
H750 C765 0.930 . S
H751 C772 0.935 . S
H752 C746 0.930 1_655 S
H753 C745 0.931 . S
H754 C768 0.930 . S
H755 C735 0.929 1_655 S
H756 C741 0.929 . S
H757 C742 0.930 . S
H758 C763 0.930 . S
H759 C738 0.930 . S
H760 C771 0.931 . S
N761 Tb732 2.617 . S
N761 C762 1.379 . S
N761 C765 1.334 . S
C762 N761 1.379 . S
C762 C764 1.403 1_455 S
C762 C770 1.424 . S
C763 H758 0.930 . S
C763 C765 1.390 . S
C763 C766 1.365 . S
C764 C762 1.403 1_655 S
C764 C766 1.412 1_655 S
C764 C797 1.467 . S
C765 H750 0.930 . S
C765 N761 1.334 . S
C765 C763 1.390 . S
C766 C763 1.365 . S
C766 C764 1.412 1_455 S
C766 H773 0.911 1_455 S
N767 Tb732 2.572 . S
N767 C768 1.340 . S
N767 C770 1.361 . S
C768 H754 0.930 . S
C768 N767 1.340 . S
C768 C772 1.386 1_455 S
C769 C770 1.413 1_655 S
C769 C771 1.416 . S
C769 C798 1.427 . S
C770 C762 1.424 . S
C770 N767 1.361 . S
C770 C769 1.413 1_455 S
C771 H760 0.931 . S
C771 C769 1.416 . S
C771 C772 1.350 . S
C772 H751 0.935 . S
C772 C768 1.386 1_655 S
C772 C771 1.350 . S
H773 C766 0.911 1_655 S
H774 C797 0.930 . S
H775 C798 0.929 . S
O776 Tb732 2.465 . S
O776 C796 1.264 . S
O777 Tb732 2.387 1_655 S
O777 C788 1.264 . S
O778 Tb743 2.349 . S
O778 C788 1.243 . S
O779 Tb732 2.428 . S
O779 C796 1.256 . S
O780 Tb732 2.308 . S
O780 C795 1.266 . S
O781 Tb743 2.393 . S
O781 C795 1.248 1_655 S
O782 Tb743 2.465 . S
O782 C807 1.264 . S
O783 Tb743 2.387 1_455 S
O783 C799 1.264 . S
O784 Tb732 2.349 . S
O784 C799 1.243 . S
O785 Tb743 2.428 . S
O785 C807 1.256 . S
O786 Tb743 2.305 1_455 S
O786 C806 1.269 . S
O787 Tb732 2.393 . S
O787 C806 1.248 . S
C788 O777 1.264 . S
C788 O778 1.243 . S
C789 C792 1.399 . S
C789 C794 1.383 . S
C789 C796 1.496 . S
C790 C791 1.399 . S
C790 C794 1.389 . S
C791 C790 1.399 . S
C791 C793 1.380 . S
C791 H808 0.929 . S
C792 C789 1.399 . S
C792 C793 1.392 . S
C792 H809 0.929 . S
C793 C791 1.380 . S
C793 C792 1.392 . S
C793 H810 0.929 . S
C794 C789 1.383 . S
C794 C790 1.389 . S
C794 H811 0.931 . S
C795 O780 1.266 . S
C795 O781 1.248 1_455 S
C796 Tb732 2.802 . S
C796 O776 1.264 . S
C796 O779 1.256 . S
C796 C789 1.496 . S
C797 C764 1.467 . S
C797 H774 0.930 . S
C797 C798 1.328 . S
C798 C769 1.427 . S
C798 H775 0.929 . S
C798 C797 1.328 . S
C799 O783 1.264 . S
C799 O784 1.243 . S
C800 C803 1.399 . S
C800 C804 1.383 . S
C800 C807 1.496 . S
C801 C802 1.399 . S
C801 C804 1.389 . S
C802 C801 1.399 . S
C802 C805 1.380 . S
C802 H812 0.929 . S
C803 C800 1.399 . S
C803 C805 1.392 . S
C803 H813 0.929 . S
C804 C800 1.383 . S
C804 C801 1.389 . S
C804 H814 0.931 . S
C805 C802 1.380 . S
C805 C803 1.392 . S
C805 H815 0.929 . S
C806 O786 1.269 . S
C806 O787 1.248 . S
C807 Tb743 2.802 . S
C807 O782 1.264 . S
C807 O785 1.256 . S
C807 C800 1.496 . S
H808 C791 0.929 . S
H809 C792 0.929 . S
H810 C793 0.929 . S
H811 C794 0.931 . S
H812 C802 0.929 . S
H813 C803 0.929 . S
H814 C804 0.931 . S
H815 C805 0.929 . S
H816 C824 0.929 . S
H817 C826 0.930 . S
H818 C828 0.930 . S
H819 C831 0.929 . S
H820 C834 0.930 . S
H821 C836 0.960 . S
H822 C836 0.960 . S
H823 C836 0.960 . S
C824 H816 0.929 . S
C824 C825 1.377 . S
C824 C826 1.384 . S
C825 C824 1.377 . S
C825 C831 1.390 . S
C826 H817 0.930 . S
C826 C824 1.384 . S
C826 C827 1.372 . S
C827 C826 1.372 . S
C827 C828 1.400 . S
C827 C832 1.490 . S
C828 H818 0.930 . S
C828 C827 1.400 . S
C828 C831 1.386 . S
H829 C845 0.930 . S
H830 C846 0.931 . S
C831 H819 0.929 . S
C831 C825 1.390 . S
C831 C828 1.386 . S
C832 C827 1.490 . S
C832 C834 1.395 . S
C832 C835 1.403 . S
H833 C839 0.930 . S
C834 H820 0.930 . S
C834 C832 1.395 . S
C834 C837 1.403 . S
C835 C832 1.403 . S
C835 C836 1.524 . S
C835 C839 1.400 . S
C836 H821 0.960 . S
C836 H822 0.960 . S
C836 H823 0.960 . S
C836 C835 1.524 . S
C837 C834 1.403 . S
C837 C838 1.392 . S
C837 C841 1.495 1_545 S
C838 C837 1.392 . S
C838 C839 1.385 . S
C838 C840 1.478 . S
C839 H833 0.930 . S
C839 C835 1.400 . S
C839 C838 1.385 . S
C840 C838 1.478 . S
C840 C842 1.381 . S
C840 C846 1.383 . S
C841 C837 1.495 1_565 S
C841 H847 0.959 . S
C841 H848 0.961 . S
C841 H849 0.960 . S
C842 C840 1.381 . S
C842 C843 1.394 . S
C842 H850 0.930 . S
C843 C842 1.394 . S
C843 C844 1.383 . S
C843 H851 0.929 . S
C844 C843 1.383 . S
C844 C845 1.377 . S
C845 H829 0.930 . S
C845 C844 1.377 . S
C845 C846 1.379 . S
C846 H830 0.931 . S
C846 C840 1.383 . S
C846 C845 1.379 . S
H847 C841 0.959 . S
H848 C841 0.961 . S
H849 C841 0.960 . S
H850 C842 0.930 . S
H851 C843 0.929 . S
H852 C860 0.929 . S
H853 C862 0.930 . S
H854 C864 0.930 . S
H855 C867 0.929 . S
H856 C870 0.930 . S
H857 C872 0.960 . S
H858 C872 0.960 . S
H859 C872 0.960 . S
C860 H852 0.929 . S
C860 C861 1.377 . S
C860 C862 1.384 . S
C861 C860 1.377 . S
C861 C867 1.390 . S
C862 H853 0.930 . S
C862 C860 1.384 . S
C862 C863 1.372 . S
C863 C862 1.372 . S
C863 C864 1.400 . S
C863 C868 1.490 . S
C864 H854 0.930 . S
C864 C863 1.400 . S
C864 C867 1.386 . S
H865 C881 0.930 . S
H866 C882 0.931 . S
C867 H855 0.929 . S
C867 C861 1.390 . S
C867 C864 1.386 . S
C868 C863 1.490 . S
C868 C870 1.395 . S
C868 C871 1.403 . S
H869 C875 0.930 . S
C870 H856 0.930 . S
C870 C868 1.395 . S
C870 C873 1.403 . S
C871 C868 1.403 . S
C871 C872 1.524 . S
C871 C875 1.400 . S
C872 H857 0.960 . S
C872 H858 0.960 . S
C872 H859 0.960 . S
C872 C871 1.524 . S
C873 C870 1.403 . S
C873 C874 1.392 . S
C873 C877 1.495 . S
C874 C873 1.392 . S
C874 C875 1.385 . S
C874 C876 1.478 . S
C875 H869 0.930 . S
C875 C871 1.400 . S
C875 C874 1.385 . S
C876 C874 1.478 . S
C876 C878 1.381 . S
C876 C882 1.383 . S
C877 C873 1.495 . S
C877 H883 0.959 . S
C877 H884 0.961 . S
C877 H885 0.960 . S
C878 C876 1.381 . S
C878 C879 1.394 . S
C878 H886 0.930 . S
C879 C878 1.394 . S
C879 C880 1.383 . S
C879 H887 0.929 . S
C880 C879 1.383 . S
C880 C881 1.377 . S
C881 H865 0.930 . S
C881 C880 1.377 . S
C881 C882 1.379 . S
C882 H866 0.931 . S
C882 C876 1.383 . S
C882 C881 1.379 . S
H883 C877 0.959 . S
H884 C877 0.961 . S
H885 C877 0.960 . S
H886 C878 0.930 . S
H887 C879 0.929 . S
H888 C896 0.929 . S
H889 C898 0.930 . S
H890 C900 0.930 . S
H891 C903 0.929 . S
H892 C906 0.930 . S
H893 C908 0.960 . S
H894 C908 0.960 . S
H895 C908 0.960 . S
C896 H888 0.929 . S
C896 C897 1.377 . S
C896 C898 1.384 . S
C897 C896 1.377 . S
C897 C903 1.390 . S
C898 H889 0.930 . S
C898 C896 1.384 . S
C898 C899 1.372 . S
C899 C898 1.372 . S
C899 C900 1.400 . S
C899 C904 1.490 . S
C900 H890 0.930 . S
C900 C899 1.400 . S
C900 C903 1.386 . S
H901 C917 0.930 . S
H902 C918 0.931 . S
C903 H891 0.929 . S
C903 C897 1.390 . S
C903 C900 1.386 . S
C904 C899 1.490 . S
C904 C906 1.395 . S
C904 C907 1.403 . S
H905 C911 0.930 . S
C906 H892 0.930 . S
C906 C904 1.395 . S
C906 C909 1.403 . S
C907 C904 1.403 . S
C907 C908 1.524 . S
C907 C911 1.400 . S
C908 H893 0.960 . S
C908 H894 0.960 . S
C908 H895 0.960 . S
C908 C907 1.524 . S
C909 C906 1.403 . S
C909 C910 1.392 . S
C909 C913 1.495 . S
C910 C909 1.392 . S
C910 C911 1.385 . S
C910 C912 1.478 . S
C911 H905 0.930 . S
C911 C907 1.400 . S
C911 C910 1.385 . S
C912 C910 1.478 . S
C912 C914 1.381 . S
C912 C918 1.383 . S
C913 C909 1.495 . S
C913 H919 0.959 . S
C913 H920 0.961 . S
C913 H921 0.960 . S
C914 C912 1.381 . S
C914 C915 1.394 . S
C914 H922 0.930 . S
C915 C914 1.394 . S
C915 C916 1.383 . S
C915 H923 0.929 . S
C916 C915 1.383 . S
C916 C917 1.377 . S
C917 H901 0.930 . S
C917 C916 1.377 . S
C917 C918 1.379 . S
C918 H902 0.931 . S
C918 C912 1.383 . S
C918 C917 1.379 . S
H919 C913 0.959 . S
H920 C913 0.961 . S
H921 C913 0.960 . S
H922 C914 0.930 . S
H923 C915 0.929 . S
H924 C932 0.929 . S
H925 C934 0.930 . S
H926 C936 0.930 . S
H927 C939 0.929 . S
H928 C942 0.930 . S
H929 C944 0.951 1_655 S
H930 C944 0.937 1_655 S
H931 C944 0.960 . S
C932 H924 0.929 . S
C932 C933 1.377 . S
C932 C934 1.384 . S
C933 C932 1.377 . S
C933 C939 1.390 . S
C934 H925 0.930 . S
C934 C932 1.384 . S
C934 C935 1.372 . S
C935 C934 1.372 . S
C935 C936 1.400 . S
C935 C940 1.490 . S
C936 H926 0.930 . S
C936 C935 1.400 . S
C936 C939 1.386 . S
H937 C953 0.930 . S
H938 C954 0.931 . S
C939 H927 0.929 . S
C939 C933 1.390 . S
C939 C936 1.386 . S
C940 C935 1.490 . S
C940 C942 1.395 . S
C940 C943 1.403 . S
H941 C947 0.930 . S
C942 H928 0.930 . S
C942 C940 1.395 . S
C942 C945 1.403 . S
C943 C940 1.403 . S
C943 C944 1.524 . S
C943 C947 1.400 . S
C944 H929 0.951 1_455 S
C944 H930 0.937 1_455 S
C944 H931 0.960 . S
C944 C943 1.524 . S
C945 C942 1.403 . S
C945 C946 1.392 . S
C945 C949 1.495 . S
C946 C945 1.392 . S
C946 C947 1.385 . S
C946 C948 1.478 . S
C947 H941 0.930 . S
C947 C943 1.400 . S
C947 C946 1.385 . S
C948 C946 1.478 . S
C948 C950 1.381 . S
C948 C954 1.383 . S
C949 C945 1.495 . S
C949 H955 0.959 . S
C949 H956 0.961 . S
C949 H957 0.960 . S
C950 C948 1.381 . S
C950 C951 1.394 . S
C950 H958 0.930 . S
C951 C950 1.394 . S
C951 C952 1.383 . S
C951 H959 0.929 . S
C952 C951 1.383 . S
C952 C953 1.377 . S
C953 H937 0.930 . S
C953 C952 1.377 . S
C953 C954 1.379 . S
C954 H938 0.931 . S
C954 C948 1.383 . S
C954 C953 1.379 . S
H955 C949 0.959 . S
H956 C949 0.961 . S
H957 C949 0.960 . S
H958 C950 0.930 . S
H959 C951 0.929 . S
H960 C968 0.929 . S
H961 C970 0.925 1_556 S
H962 C972 0.930 1_556 S
H963 C975 0.929 . S
H964 C978 0.930 . S
H965 C980 0.960 . S
H966 C980 0.960 1_564 S
H967 C980 0.960 . S
C968 H960 0.929 . S
C968 C969 1.377 . S
C968 C970 1.384 . S
C969 C968 1.377 . S
C969 C975 1.390 . S
C970 H961 0.925 1_554 S
C970 C968 1.384 . S
C970 C971 1.372 1_554 S
C971 C970 1.372 1_556 S
C971 C972 1.400 1_556 S
C971 C976 1.490 . S
C972 H962 0.930 1_554 S
C972 C971 1.400 1_554 S
C972 C975 1.386 . S
H973 C989 0.930 . S
H974 C990 0.931 . S
C975 H963 0.929 . S
C975 C969 1.390 . S
C975 C972 1.386 . S
C976 C971 1.490 . S
C976 C978 1.395 . S
C976 C979 1.403 . S
H977 C983 0.930 1_545 S
C978 H964 0.930 . S
C978 C976 1.395 . S
C978 C981 1.403 . S
C979 C976 1.403 . S
C979 C980 1.524 1_565 S
C979 C983 1.400 . S
C980 H965 0.960 . S
C980 H966 0.960 1_546 S
C980 H967 0.960 . S
C980 C979 1.524 1_545 S
C981 C978 1.403 . S
C981 C982 1.392 . S
C981 C985 1.495 . S
C982 C981 1.392 . S
C982 C983 1.385 . S
C982 C984 1.478 . S
C983 H977 0.930 1_565 S
C983 C979 1.400 . S
C983 C982 1.385 . S
C984 C982 1.478 . S
C984 C986 1.381 . S
C984 C990 1.383 1_565 S
C985 C981 1.495 . S
C985 H991 0.959 . S
C985 H992 0.961 . S
C985 H993 0.960 . S
C986 C984 1.381 . S
C986 C987 1.394 . S
C986 H994 0.930 . S
C987 C986 1.394 . S
C987 C988 1.383 . S
C987 H995 0.929 . S
C988 C987 1.383 . S
C988 C989 1.377 1_565 S
C989 H973 0.930 . S
C989 C988 1.377 1_545 S
C989 C990 1.379 . S
C990 H974 0.931 . S
C990 C984 1.383 1_545 S
C990 C989 1.379 . S
H991 C985 0.959 . S
H992 C985 0.961 . S
H993 C985 0.960 . S
H994 C986 0.930 . S
H995 C987 0.929 . S
H996 C1004 0.929 . S
H997 C1006 0.930 . S
H998 C1008 0.930 . S
H999 C1011 0.929 . S
H1000 C1014 0.930 . S
H1001 C1016 0.960 . S
H1002 C1016 0.960 . S
H1003 C1016 0.960 1_554 S
C1004 H996 0.929 . S
C1004 C1005 1.377 . S
C1004 C1006 1.384 1_554 S
C1005 C1004 1.377 . S
C1005 C1011 1.390 . S
C1006 H997 0.930 . S
C1006 C1004 1.384 1_556 S
C1006 C1007 1.372 . S
C1007 C1006 1.372 . S
C1007 C1008 1.400 1_556 S
C1007 C1012 1.490 . S
C1008 H998 0.930 . S
C1008 C1007 1.400 1_554 S
C1008 C1011 1.386 . S
H1009 C1025 0.930 . S
H1010 C1026 0.931 . S
C1011 H999 0.929 . S
C1011 C1005 1.390 . S
C1011 C1008 1.386 . S
C1012 C1007 1.490 . S
C1012 C1014 1.395 . S
C1012 C1015 1.403 . S
H1013 C1019 0.930 . S
C1014 H1000 0.930 . S
C1014 C1012 1.395 . S
C1014 C1017 1.403 . S
C1015 C1012 1.403 . S
C1015 C1016 1.524 . S
C1015 C1019 1.400 . S
C1016 H1001 0.960 . S
C1016 H1002 0.960 . S
C1016 H1003 0.960 1_556 S
C1016 C1015 1.524 . S
C1017 C1014 1.403 . S
C1017 C1018 1.392 . S
C1017 C1021 1.495 . S
C1018 C1017 1.392 . S
C1018 C1019 1.385 . S
C1018 C1020 1.478 . S
C1019 H1013 0.930 . S
C1019 C1015 1.400 . S
C1019 C1018 1.385 . S
C1020 C1018 1.478 . S
C1020 C1022 1.381 . S
C1020 C1026 1.383 . S
C1021 C1017 1.495 . S
C1021 H1027 0.959 . S
C1021 H1028 0.961 . S
C1021 H1029 0.960 . S
C1022 C1020 1.381 . S
C1022 C1023 1.394 . S
C1022 H1030 0.930 . S
C1023 C1022 1.394 . S
C1023 C1024 1.383 . S
C1023 H1031 0.929 . S
C1024 C1023 1.383 . S
C1024 C1025 1.377 . S
C1025 H1009 0.930 . S
C1025 C1024 1.377 . S
C1025 C1026 1.379 . S
C1026 H1010 0.931 . S
C1026 C1020 1.383 . S
C1026 C1025 1.379 . S
H1027 C1021 0.959 . S
H1028 C1021 0.961 . S
H1029 C1021 0.960 . S
H1030 C1022 0.930 . S
H1031 C1023 0.929 . S
H1032 C1040 0.929 . S
H1033 C1042 0.930 1_556 S
H1034 C1044 0.930 . S
H1035 C1047 0.929 . S
H1036 C1050 0.930 . S
H1037 C1052 0.960 . S
H1038 C1052 0.960 . S
H1039 C1052 0.960 . S
C1040 H1032 0.929 . S
C1040 C1041 1.377 . S
C1040 C1042 1.384 . S
C1041 C1040 1.377 . S
C1041 C1047 1.390 . S
C1042 H1033 0.930 1_554 S
C1042 C1040 1.384 . S
C1042 C1043 1.372 1_554 S
C1043 C1042 1.372 1_556 S
C1043 C1044 1.400 1_556 S
C1043 C1048 1.490 . S
C1044 H1034 0.930 . S
C1044 C1043 1.400 1_554 S
C1044 C1047 1.386 . S
H1045 C1061 0.930 . S
H1046 C1062 0.931 . S
C1047 H1035 0.929 . S
C1047 C1041 1.390 . S
C1047 C1044 1.386 . S
C1048 C1043 1.490 . S
C1048 C1050 1.395 . S
C1048 C1051 1.403 . S
H1049 C1055 0.930 . S
C1050 H1036 0.930 . S
C1050 C1048 1.395 . S
C1050 C1053 1.403 . S
C1051 C1048 1.403 . S
C1051 C1052 1.524 . S
C1051 C1055 1.400 . S
C1052 H1037 0.960 . S
C1052 H1038 0.960 . S
C1052 H1039 0.960 . S
C1052 C1051 1.524 . S
C1053 C1050 1.403 . S
C1053 C1054 1.392 . S
C1053 C1057 1.495 . S
C1054 C1053 1.392 . S
C1054 C1055 1.385 . S
C1054 C1056 1.478 . S
C1055 H1049 0.930 . S
C1055 C1051 1.400 . S
C1055 C1054 1.385 . S
C1056 C1054 1.478 . S
C1056 C1058 1.381 . S
C1056 C1062 1.383 . S
C1057 C1053 1.495 . S
C1057 H1063 0.959 . S
C1057 H1064 0.961 . S
C1057 H1065 0.960 . S
C1058 C1056 1.381 . S
C1058 C1059 1.394 . S
C1058 H1066 0.930 . S
C1059 C1058 1.394 . S
C1059 C1060 1.383 . S
C1059 H1067 0.929 . S
C1060 C1059 1.383 . S
C1060 C1061 1.377 . S
C1061 H1045 0.930 . S
C1061 C1060 1.377 . S
C1061 C1062 1.379 . S
C1062 H1046 0.931 . S
C1062 C1056 1.383 . S
C1062 C1061 1.379 . S
H1063 C1057 0.959 . S
H1064 C1057 0.961 . S
H1065 C1057 0.960 . S
H1066 C1058 0.930 . S
H1067 C1059 0.929 . S
H1068 C1076 0.929 . S
H1069 C1078 0.930 . S
H1070 C1080 0.930 . S
H1071 C1083 0.929 . S
H1072 C1086 0.930 . S
H1073 C1088 0.960 . S
H1074 C1088 0.960 . S
H1075 C1088 0.960 1_554 S
C1076 H1068 0.929 . S
C1076 C1077 1.377 . S
C1076 C1078 1.384 1_554 S
C1077 C1076 1.377 . S
C1077 C1083 1.390 . S
C1078 H1069 0.930 . S
C1078 C1076 1.384 1_556 S
C1078 C1079 1.372 . S
C1079 C1078 1.372 . S
C1079 C1080 1.400 1_556 S
C1079 C1084 1.490 . S
C1080 H1070 0.930 . S
C1080 C1079 1.400 1_554 S
C1080 C1083 1.386 . S
H1081 C1097 0.930 . S
H1082 C1098 0.931 . S
C1083 H1071 0.929 . S
C1083 C1077 1.390 . S
C1083 C1080 1.386 . S
C1084 C1079 1.490 . S
C1084 C1086 1.395 . S
C1084 C1087 1.403 . S
H1085 C1091 0.930 . S
C1086 H1072 0.930 . S
C1086 C1084 1.395 . S
C1086 C1089 1.403 . S
C1087 C1084 1.403 . S
C1087 C1088 1.524 . S
C1087 C1091 1.400 . S
C1088 H1073 0.960 . S
C1088 H1074 0.960 . S
C1088 H1075 0.960 1_556 S
C1088 C1087 1.524 . S
C1089 C1086 1.403 . S
C1089 C1090 1.392 . S
C1089 C1093 1.495 . S
C1090 C1089 1.392 . S
C1090 C1091 1.385 . S
C1090 C1092 1.478 . S
C1091 H1085 0.930 . S
C1091 C1087 1.400 . S
C1091 C1090 1.385 . S
C1092 C1090 1.478 . S
C1092 C1094 1.381 . S
C1092 C1098 1.383 1_655 S
C1093 C1089 1.495 . S
C1093 H1099 0.959 . S
C1093 H1100 0.961 1_655 S
C1093 H1101 0.960 . S
C1094 C1092 1.381 . S
C1094 C1095 1.394 . S
C1094 H1102 0.930 . S
C1095 C1094 1.394 . S
C1095 C1096 1.383 . S
C1095 H1103 0.929 . S
C1096 C1095 1.383 . S
C1096 C1097 1.377 1_655 S
C1097 H1081 0.930 . S
C1097 C1096 1.377 1_455 S
C1097 C1098 1.379 . S
C1098 H1082 0.931 . S
C1098 C1092 1.383 1_455 S
C1098 C1097 1.379 . S
H1099 C1093 0.959 . S
H1100 C1093 0.961 1_455 S
H1101 C1093 0.960 . S
H1102 C1094 0.930 . S
H1103 C1095 0.929 . S
H1104 C1112 0.929 . S
H1105 C1114 0.930 . S
H1106 C1116 0.930 . S
H1107 C1119 0.929 . S
H1108 C1122 0.930 . S
H1109 C1124 0.960 . S
H1110 C1124 0.960 . S
H1111 C1124 0.960 . S
C1112 H1104 0.929 . S
C1112 C1113 1.377 . S
C1112 C1114 1.384 . S
C1113 C1112 1.377 . S
C1113 C1119 1.390 . S
C1114 H1105 0.930 . S
C1114 C1112 1.384 . S
C1114 C1115 1.372 . S
C1115 C1114 1.372 . S
C1115 C1116 1.400 . S
C1115 C1120 1.490 . S
C1116 H1106 0.930 . S
C1116 C1115 1.400 . S
C1116 C1119 1.386 . S
H1117 C1133 0.930 . S
H1118 C1134 0.950 . S
C1119 H1107 0.929 . S
C1119 C1113 1.390 . S
C1119 C1116 1.386 . S
C1120 C1115 1.490 . S
C1120 C1122 1.395 . S
C1120 C1123 1.403 . S
H1121 C1127 0.930 . S
C1122 H1108 0.930 . S
C1122 C1120 1.395 . S
C1122 C1125 1.403 . S
C1123 C1120 1.403 . S
C1123 C1124 1.524 . S
C1123 C1127 1.400 . S
C1124 H1109 0.960 . S
C1124 H1110 0.960 . S
C1124 H1111 0.960 . S
C1124 C1123 1.524 . S
C1125 C1122 1.403 . S
C1125 C1126 1.392 . S
C1125 C1129 1.495 . S
C1126 C1125 1.392 . S
C1126 C1127 1.385 . S
C1126 C1128 1.478 . S
C1127 H1121 0.930 . S
C1127 C1123 1.400 . S
C1127 C1126 1.385 . S
C1128 C1126 1.478 . S
C1128 C1130 1.381 . S
C1128 C1134 1.354 1_455 S
C1129 C1125 1.495 . S
C1129 H1135 0.959 . S
C1129 H1136 0.961 1_455 S
C1129 H1137 0.960 . S
C1130 C1128 1.381 . S
C1130 C1131 1.394 . S
C1130 H1138 0.930 . S
C1131 C1130 1.394 . S
C1131 C1132 1.383 . S
C1131 H1139 0.929 . S
C1132 C1131 1.383 . S
C1132 C1133 1.377 1_455 S
C1133 H1117 0.930 . S
C1133 C1132 1.377 1_655 S
C1133 C1134 1.391 . S
C1134 H1118 0.950 . S
C1134 C1128 1.354 1_655 S
C1134 C1133 1.391 . S
H1135 C1129 0.959 . S
H1136 C1129 0.961 1_655 S
H1137 C1129 0.960 . S
H1138 C1130 0.930 . S
H1139 C1131 0.929 . S
H1140 C1148 0.929 . S
H1141 C1150 0.930 . S
H1142 C1152 0.930 . S
H1143 C1155 0.929 . S
H1144 C1158 0.930 . S
H1145 C1160 0.960 . S
H1146 C1160 0.960 . S
H1147 C1160 0.960 . S
C1148 H1140 0.929 . S
C1148 C1149 1.377 . S
C1148 C1150 1.384 . S
C1149 C1148 1.377 . S
C1149 C1155 1.390 . S
C1150 H1141 0.930 . S
C1150 C1148 1.384 . S
C1150 C1151 1.372 . S
C1151 C1150 1.372 . S
C1151 C1152 1.400 . S
C1151 C1156 1.490 . S
C1152 H1142 0.930 . S
C1152 C1151 1.400 . S
C1152 C1155 1.386 . S
H1153 C1169 0.930 . S
H1154 C1170 0.931 . S
C1155 H1143 0.929 . S
C1155 C1149 1.390 . S
C1155 C1152 1.386 . S
C1156 C1151 1.490 . S
C1156 C1158 1.395 . S
C1156 C1159 1.403 . S
H1157 C1163 0.930 . S
C1158 H1144 0.930 . S
C1158 C1156 1.395 . S
C1158 C1161 1.403 . S
C1159 C1156 1.403 . S
C1159 C1160 1.524 . S
C1159 C1163 1.400 . S
C1160 H1145 0.960 . S
C1160 H1146 0.960 . S
C1160 H1147 0.960 . S
C1160 C1159 1.524 . S
C1161 C1158 1.403 . S
C1161 C1162 1.392 . S
C1161 C1165 1.495 . S
C1162 C1161 1.392 . S
C1162 C1163 1.385 . S
C1162 C1164 1.478 . S
C1163 H1157 0.930 . S
C1163 C1159 1.400 . S
C1163 C1162 1.385 . S
C1164 C1162 1.478 . S
C1164 C1166 1.381 1_545 S
C1164 C1170 1.383 . S
C1165 C1161 1.495 . S
C1165 H1171 0.959 . S
C1165 H1172 0.961 . S
C1165 H1173 0.960 . S
C1166 C1164 1.381 1_565 S
C1166 C1167 1.394 . S
C1166 H1174 0.930 . S
C1167 C1166 1.394 . S
C1167 C1168 1.383 1_565 S
C1167 H1175 0.929 . S
C1168 C1167 1.383 1_545 S
C1168 C1169 1.377 . S
C1169 H1153 0.930 . S
C1169 C1168 1.377 . S
C1169 C1170 1.379 . S
C1170 H1154 0.931 . S
C1170 C1164 1.383 . S
C1170 C1169 1.379 . S
H1171 C1165 0.959 . S
H1172 C1165 0.961 . S
H1173 C1165 0.960 . S
H1174 C1166 0.930 . S
H1175 C1167 0.929 . S
H1176 C1184 0.929 . S
H1177 C1186 0.930 . S
H1178 C1188 0.930 . S
H1179 C1191 0.929 . S
H1180 C1194 0.930 . S
H1181 C1196 0.960 . S
H1182 C1196 0.960 . S
H1183 C1196 0.960 . S
C1184 H1176 0.929 . S
C1184 C1185 1.377 . S
C1184 C1186 1.384 . S
C1185 C1184 1.377 . S
C1185 C1191 1.390 . S
C1186 H1177 0.930 . S
C1186 C1184 1.384 . S
C1186 C1187 1.372 . S
C1187 C1186 1.372 . S
C1187 C1188 1.400 . S
C1187 C1192 1.490 . S
C1188 H1178 0.930 . S
C1188 C1187 1.400 . S
C1188 C1191 1.386 . S
H1189 C1205 0.930 . S
H1190 C1206 0.931 . S
C1191 H1179 0.929 . S
C1191 C1185 1.390 . S
C1191 C1188 1.386 . S
C1192 C1187 1.490 . S
C1192 C1194 1.395 . S
C1192 C1195 1.403 . S
H1193 C1199 0.930 . S
C1194 H1180 0.930 . S
C1194 C1192 1.395 . S
C1194 C1197 1.403 . S
C1195 C1192 1.403 . S
C1195 C1196 1.524 . S
C1195 C1199 1.400 . S
C1196 H1181 0.960 . S
C1196 H1182 0.960 . S
C1196 H1183 0.960 . S
C1196 C1195 1.524 . S
C1197 C1194 1.403 . S
C1197 C1198 1.392 . S
C1197 C1201 1.495 . S
C1198 C1197 1.392 . S
C1198 C1199 1.385 . S
C1198 C1200 1.478 . S
C1199 H1193 0.930 . S
C1199 C1195 1.400 . S
C1199 C1198 1.385 . S
C1200 C1198 1.478 . S
C1200 C1202 1.381 . S
C1200 C1206 1.383 . S
C1201 C1197 1.495 . S
C1201 H1207 0.959 . S
C1201 H1208 0.961 . S
C1201 H1209 0.960 . S
C1202 C1200 1.381 . S
C1202 C1203 1.394 . S
C1202 H1210 0.930 . S
C1203 C1202 1.394 . S
C1203 C1204 1.383 . S
C1203 H1211 0.929 . S
C1204 C1203 1.383 . S
C1204 C1205 1.377 . S
C1205 H1189 0.930 . S
C1205 C1204 1.377 . S
C1205 C1206 1.379 . S
C1206 H1190 0.931 . S
C1206 C1200 1.383 . S
C1206 C1205 1.379 . S
H1207 C1201 0.959 . S
H1208 C1201 0.961 . S
H1209 C1201 0.960 . S
H1210 C1202 0.930 . S
H1211 C1203 0.929 . S
H1212 C1220 0.929 . S
H1213 C1222 0.930 . S
H1214 C1224 0.930 . S
H1215 C1227 0.929 . S
H1216 C1230 0.930 . S
H1217 C1232 0.960 . S
H1218 C1232 0.960 . S
H1219 C1232 0.960 . S
C1220 H1212 0.929 . S
C1220 C1221 1.377 . S
C1220 C1222 1.384 . S
C1221 C1220 1.377 . S
C1221 C1227 1.390 . S
C1222 H1213 0.930 . S
C1222 C1220 1.384 . S
C1222 C1223 1.372 . S
C1223 C1222 1.372 . S
C1223 C1224 1.400 . S
C1223 C1228 1.490 . S
C1224 H1214 0.930 . S
C1224 C1223 1.400 . S
C1224 C1227 1.386 . S
H1225 C1241 0.930 . S
H1226 C1242 0.931 . S
C1227 H1215 0.929 . S
C1227 C1221 1.390 . S
C1227 C1224 1.386 . S
C1228 C1223 1.490 . S
C1228 C1230 1.395 . S
C1228 C1231 1.403 . S
H1229 C1235 0.930 . S
C1230 H1216 0.930 . S
C1230 C1228 1.395 . S
C1230 C1233 1.403 . S
C1231 C1228 1.403 . S
C1231 C1232 1.524 . S
C1231 C1235 1.400 . S
C1232 H1217 0.960 . S
C1232 H1218 0.960 . S
C1232 H1219 0.960 . S
C1232 C1231 1.524 . S
C1233 C1230 1.403 . S
C1233 C1234 1.392 . S
C1233 C1237 1.495 . S
C1234 C1233 1.392 . S
C1234 C1235 1.385 . S
C1234 C1236 1.478 . S
C1235 H1229 0.930 . S
C1235 C1231 1.400 . S
C1235 C1234 1.385 . S
C1236 C1234 1.478 . S
C1236 C1238 1.381 . S
C1236 C1242 1.383 . S
C1237 C1233 1.495 . S
C1237 H1243 0.959 . S
C1237 H1244 0.961 . S
C1237 H1245 0.960 . S
C1238 C1236 1.381 . S
C1238 C1239 1.394 . S
C1238 H1246 0.930 . S
C1239 C1238 1.394 . S
C1239 C1240 1.383 . S
C1239 H1247 0.929 . S
C1240 C1239 1.383 . S
C1240 C1241 1.377 . S
C1241 H1225 0.930 . S
C1241 C1240 1.377 . S
C1241 C1242 1.379 . S
C1242 H1226 0.931 . S
C1242 C1236 1.383 . S
C1242 C1241 1.379 . S
H1243 C1237 0.959 . S
H1244 C1237 0.961 . S
H1245 C1237 0.960 . S
H1246 C1238 0.930 . S
H1247 C1239 0.929 . S
H1248 C1256 0.929 . S
H1249 C1258 0.946 . S
H1250 C1260 0.930 . S
H1251 C1263 0.929 1_554 S
H1252 C1266 0.930 . S
H1253 C1268 0.960 . S
H1254 C1268 0.960 1_554 S
H1255 C1268 0.960 . S
C1256 H1248 0.929 . S
C1256 C1257 1.377 . S
C1256 C1258 1.384 1_554 S
C1257 C1256 1.377 . S
C1257 C1263 1.390 1_554 S
C1258 H1249 0.946 . S
C1258 C1256 1.384 1_556 S
C1258 C1259 1.372 . S
C1259 C1258 1.372 . S
C1259 C1260 1.400 . S
C1259 C1264 1.490 . S
C1260 H1250 0.930 . S
C1260 C1259 1.400 . S
C1260 C1263 1.386 . S
H1261 C1277 0.930 . S
H1262 C1278 0.931 . S
C1263 H1251 0.929 1_556 S
C1263 C1257 1.390 1_556 S
C1263 C1260 1.386 . S
C1264 C1259 1.490 . S
C1264 C1266 1.395 . S
C1264 C1267 1.403 . S
H1265 C1271 0.930 . S
C1266 H1252 0.930 . S
C1266 C1264 1.395 . S
C1266 C1269 1.403 . S
C1267 C1264 1.403 . S
C1267 C1268 1.524 . S
C1267 C1271 1.400 . S
C1268 H1253 0.960 . S
C1268 H1254 0.960 1_556 S
C1268 H1255 0.960 . S
C1268 C1267 1.524 . S
C1269 C1266 1.403 . S
C1269 C1270 1.392 . S
C1269 C1273 1.495 1_655 S
C1270 C1269 1.392 . S
C1270 C1271 1.385 . S
C1270 C1272 1.478 . S
C1271 H1265 0.930 . S
C1271 C1267 1.400 . S
C1271 C1270 1.385 . S
C1272 C1270 1.478 . S
C1272 C1274 1.381 1_655 S
C1272 C1278 1.383 . S
C1273 C1269 1.495 1_455 S
C1273 H1279 0.959 . S
C1273 H1280 0.954 1_455 S
C1273 H1281 0.960 . S
C1274 C1272 1.381 1_455 S
C1274 C1275 1.394 . S
C1274 H1282 0.930 . S
C1275 C1274 1.394 . S
C1275 C1276 1.383 . S
C1275 H1283 0.929 . S
C1276 C1275 1.383 . S
C1276 C1277 1.377 1_455 S
C1277 H1261 0.930 . S
C1277 C1276 1.377 1_655 S
C1277 C1278 1.379 . S
C1278 H1262 0.931 . S
C1278 C1272 1.383 . S
C1278 C1277 1.379 . S
H1279 C1273 0.959 . S
H1280 C1273 0.954 1_655 S
H1281 C1273 0.960 . S
H1282 C1274 0.930 . S
H1283 C1275 0.929 . S
H1284 C1292 0.925 1_554 S
H1285 C1294 0.930 . S
H1286 C1296 0.930 . S
H1287 C1299 0.929 . S
H1288 C1302 0.930 . S
H1289 C1304 0.960 . S
H1290 C1304 0.960 . S
H1291 C1304 0.960 . S
C1292 H1284 0.925 1_556 S
C1292 C1293 1.370 1_556 S
C1292 C1294 1.396 . S
C1293 C1292 1.370 1_554 S
C1293 C1299 1.390 . S
C1294 H1285 0.930 . S
C1294 C1292 1.396 . S
C1294 C1295 1.372 . S
C1295 C1294 1.372 . S
C1295 C1296 1.400 . S
C1295 C1300 1.490 . S
C1296 H1286 0.930 . S
C1296 C1295 1.400 . S
C1296 C1299 1.386 1_556 S
H1297 C1313 0.930 . S
H1298 C1314 0.931 . S
C1299 H1287 0.929 . S
C1299 C1293 1.390 . S
C1299 C1296 1.386 1_554 S
C1300 C1295 1.490 . S
C1300 C1302 1.395 . S
C1300 C1303 1.403 . S
H1301 C1307 0.930 . S
C1302 H1288 0.930 . S
C1302 C1300 1.395 . S
C1302 C1305 1.403 . S
C1303 C1300 1.403 . S
C1303 C1304 1.524 . S
C1303 C1307 1.400 . S
C1304 H1289 0.960 . S
C1304 H1290 0.960 . S
C1304 H1291 0.960 . S
C1304 C1303 1.524 . S
C1305 C1302 1.403 . S
C1305 C1306 1.392 . S
C1305 C1309 1.495 . S
C1306 C1305 1.392 . S
C1306 C1307 1.385 . S
C1306 C1308 1.478 . S
C1307 H1301 0.930 . S
C1307 C1303 1.400 . S
C1307 C1306 1.385 . S
C1308 C1306 1.478 . S
C1308 C1310 1.381 . S
C1308 C1314 1.383 1_565 S
C1309 C1305 1.495 . S
C1309 H1315 0.959 . S
C1309 H1316 0.961 . S
C1309 H1317 0.960 . S
C1310 C1308 1.381 . S
C1310 C1311 1.394 . S
C1310 H1318 0.930 . S
C1311 C1310 1.394 . S
C1311 C1312 1.383 1_565 S
C1311 H1319 0.929 . S
C1312 C1311 1.383 1_545 S
C1312 C1313 1.377 . S
C1313 H1297 0.930 . S
C1313 C1312 1.377 . S
C1313 C1314 1.379 . S
C1314 H1298 0.931 . S
C1314 C1308 1.383 1_545 S
C1314 C1313 1.379 . S
H1315 C1309 0.959 . S
H1316 C1309 0.961 . S
H1317 C1309 0.960 . S
H1318 C1310 0.930 . S
H1319 C1311 0.929 . S
H1320 C1328 0.929 . S
H1321 C1330 0.930 . S
H1322 C1332 0.930 . S
H1323 C1335 0.929 . S
H1324 C1338 0.930 . S
H1325 C1340 0.960 . S
H1326 C1340 0.960 . S
H1327 C1340 0.960 . S
C1328 H1320 0.929 . S
C1328 C1329 1.377 . S
C1328 C1330 1.384 . S
C1329 C1328 1.377 . S
C1329 C1335 1.390 1_554 S
C1330 H1321 0.930 . S
C1330 C1328 1.384 . S
C1330 C1331 1.372 1_554 S
C1331 C1330 1.372 1_556 S
C1331 C1332 1.400 . S
C1331 C1336 1.490 . S
C1332 H1322 0.930 . S
C1332 C1331 1.400 . S
C1332 C1335 1.386 . S
H1333 C1349 0.930 . S
H1334 C1350 0.931 . S
C1335 H1323 0.929 . S
C1335 C1329 1.390 1_556 S
C1335 C1332 1.386 . S
C1336 C1331 1.490 . S
C1336 C1338 1.395 . S
C1336 C1339 1.403 . S
H1337 C1343 0.930 . S
C1338 H1324 0.930 . S
C1338 C1336 1.395 . S
C1338 C1341 1.403 . S
C1339 C1336 1.403 . S
C1339 C1340 1.524 . S
C1339 C1343 1.400 . S
C1340 H1325 0.960 . S
C1340 H1326 0.960 . S
C1340 H1327 0.960 . S
C1340 C1339 1.524 . S
C1341 C1338 1.403 . S
C1341 C1342 1.392 . S
C1341 C1345 1.495 . S
C1342 C1341 1.392 . S
C1342 C1343 1.385 . S
C1342 C1344 1.478 . S
C1343 H1337 0.930 . S
C1343 C1339 1.400 . S
C1343 C1342 1.385 . S
C1344 C1342 1.478 . S
C1344 C1346 1.381 . S
C1344 C1350 1.383 . S
C1345 C1341 1.495 . S
C1345 H1351 0.959 . S
C1345 H1352 0.961 . S
C1345 H1353 0.960 . S
C1346 C1344 1.381 . S
C1346 C1347 1.394 . S
C1346 H1354 0.930 . S
C1347 C1346 1.394 . S
C1347 C1348 1.383 . S
C1347 H1355 0.929 . S
C1348 C1347 1.383 . S
C1348 C1349 1.377 . S
C1349 H1333 0.930 . S
C1349 C1348 1.377 . S
C1349 C1350 1.379 . S
C1350 H1334 0.931 . S
C1350 C1344 1.383 . S
C1350 C1349 1.379 . S
H1351 C1345 0.959 . S
H1352 C1345 0.961 . S
H1353 C1345 0.960 . S
H1354 C1346 0.930 . S
H1355 C1347 0.929 . S
H1356 C1364 0.929 1_554 S
H1357 C1366 0.930 . S
H1358 C1368 0.930 . S
H1359 C1371 0.929 . S
H1360 C1374 0.930 . S
H1361 C1376 0.960 . S
H1362 C1376 0.960 . S
H1363 C1376 0.960 . S
C1364 H1356 0.929 1_556 S
C1364 C1365 1.377 1_556 S
C1364 C1366 1.384 . S
C1365 C1364 1.377 1_554 S
C1365 C1371 1.390 . S
C1366 H1357 0.930 . S
C1366 C1364 1.384 . S
C1366 C1367 1.372 . S
C1367 C1366 1.372 . S
C1367 C1368 1.400 . S
C1367 C1372 1.490 . S
C1368 H1358 0.930 . S
C1368 C1367 1.400 . S
C1368 C1371 1.386 1_556 S
H1369 C1385 0.930 . S
H1370 C1386 0.931 . S
C1371 H1359 0.929 . S
C1371 C1365 1.390 . S
C1371 C1368 1.386 1_554 S
C1372 C1367 1.490 . S
C1372 C1374 1.395 . S
C1372 C1375 1.403 . S
H1373 C1379 0.930 . S
C1374 H1360 0.930 . S
C1374 C1372 1.395 . S
C1374 C1377 1.403 . S
C1375 C1372 1.403 . S
C1375 C1376 1.524 . S
C1375 C1379 1.400 . S
C1376 H1361 0.960 . S
C1376 H1362 0.960 . S
C1376 H1363 0.960 . S
C1376 C1375 1.524 . S
C1377 C1374 1.403 . S
C1377 C1378 1.392 . S
C1377 C1381 1.495 . S
C1378 C1377 1.392 . S
C1378 C1379 1.385 . S
C1378 C1380 1.478 . S
C1379 H1373 0.930 . S
C1379 C1375 1.400 . S
C1379 C1378 1.385 . S
C1380 C1378 1.478 . S
C1380 C1382 1.381 . S
C1380 C1386 1.383 . S
C1381 C1377 1.495 . S
C1381 H1387 0.959 . S
C1381 H1388 0.961 . S
C1381 H1389 0.960 . S
C1382 C1380 1.381 . S
C1382 C1383 1.394 . S
C1382 H1390 0.930 . S
C1383 C1382 1.394 . S
C1383 C1384 1.383 . S
C1383 H1391 0.929 . S
C1384 C1383 1.383 . S
C1384 C1385 1.377 . S
C1385 H1369 0.930 . S
C1385 C1384 1.377 . S
C1385 C1386 1.379 . S
C1386 H1370 0.931 . S
C1386 C1380 1.383 . S
C1386 C1385 1.379 . S
H1387 C1381 0.959 . S
H1388 C1381 0.961 . S
H1389 C1381 0.960 . S
H1390 C1382 0.930 . S
H1391 C1383 0.929 . S
H1392 C1400 0.929 . S
H1393 C1402 0.930 . S
H1394 C1404 0.930 . S
H1395 C1407 0.929 . S
H1396 C1410 0.930 . S
H1397 C1412 0.960 1_655 S
H1398 C1412 0.960 1_655 S
H1399 C1412 0.960 . S
C1400 H1392 0.929 . S
C1400 C1401 1.377 . S
C1400 C1402 1.384 . S
C1401 C1400 1.377 . S
C1401 C1407 1.390 . S
C1402 H1393 0.930 . S
C1402 C1400 1.384 . S
C1402 C1403 1.372 . S
C1403 C1402 1.372 . S
C1403 C1404 1.400 . S
C1403 C1408 1.490 . S
C1404 H1394 0.930 . S
C1404 C1403 1.400 . S
C1404 C1407 1.386 . S
H1405 C1421 0.930 . S
H1406 C1422 0.931 . S
C1407 H1395 0.929 . S
C1407 C1401 1.390 . S
C1407 C1404 1.386 . S
C1408 C1403 1.490 . S
C1408 C1410 1.395 . S
C1408 C1411 1.403 . S
H1409 C1415 0.930 . S
C1410 H1396 0.930 . S
C1410 C1408 1.395 . S
C1410 C1413 1.403 . S
C1411 C1408 1.403 . S
C1411 C1412 1.524 . S
C1411 C1415 1.400 . S
C1412 H1397 0.960 1_455 S
C1412 H1398 0.960 1_455 S
C1412 H1399 0.960 . S
C1412 C1411 1.524 . S
C1413 C1410 1.403 . S
C1413 C1414 1.392 . S
C1413 C1417 1.495 . S
C1414 C1413 1.392 . S
C1414 C1415 1.385 . S
C1414 C1416 1.478 . S
C1415 H1409 0.930 . S
C1415 C1411 1.400 . S
C1415 C1414 1.385 . S
C1416 C1414 1.478 . S
C1416 C1418 1.381 . S
C1416 C1422 1.383 . S
C1417 C1413 1.495 . S
C1417 H1423 0.959 . S
C1417 H1424 0.961 . S
C1417 H1425 0.960 . S
C1418 C1416 1.381 . S
C1418 C1419 1.394 . S
C1418 H1426 0.930 . S
C1419 C1418 1.394 . S
C1419 C1420 1.383 . S
C1419 H1427 0.929 . S
C1420 C1419 1.383 . S
C1420 C1421 1.377 . S
C1421 H1405 0.930 . S
C1421 C1420 1.377 . S
C1421 C1422 1.379 . S
C1422 H1406 0.931 . S
C1422 C1416 1.383 . S
C1422 C1421 1.379 . S
H1423 C1417 0.959 . S
H1424 C1417 0.961 . S
H1425 C1417 0.960 . S
H1426 C1418 0.930 . S
H1427 C1419 0.929 . S
H1428 C1436 0.929 . S
H1429 C1438 0.930 . S
H1430 C1440 0.930 . S
H1431 C1443 0.929 . S
H1432 C1446 0.930 . S
H1433 C1448 0.960 . S
H1434 C1448 0.960 . S
H1435 C1448 0.960 . S
C1436 H1428 0.929 . S
C1436 C1437 1.377 . S
C1436 C1438 1.384 . S
C1437 C1436 1.377 . S
C1437 C1443 1.390 . S
C1438 H1429 0.930 . S
C1438 C1436 1.384 . S
C1438 C1439 1.372 . S
C1439 C1438 1.372 . S
C1439 C1440 1.400 . S
C1439 C1444 1.490 . S
C1440 H1430 0.930 . S
C1440 C1439 1.400 . S
C1440 C1443 1.386 . S
H1441 C1457 0.930 1_565 S
H1442 C1458 0.898 1_565 S
C1443 H1431 0.929 . S
C1443 C1437 1.390 . S
C1443 C1440 1.386 . S
C1444 C1439 1.490 . S
C1444 C1446 1.395 . S
C1444 C1447 1.403 . S
H1445 C1451 0.930 . S
C1446 H1432 0.930 . S
C1446 C1444 1.395 . S
C1446 C1449 1.403 . S
C1447 C1444 1.403 . S
C1447 C1448 1.524 . S
C1447 C1451 1.400 . S
C1448 H1433 0.960 . S
C1448 H1434 0.960 . S
C1448 H1435 0.960 . S
C1448 C1447 1.524 . S
C1449 C1446 1.403 . S
C1449 C1450 1.392 . S
C1449 C1453 1.495 . S
C1450 C1449 1.392 . S
C1450 C1451 1.385 . S
C1450 C1452 1.478 . S
C1451 H1445 0.930 . S
C1451 C1447 1.400 . S
C1451 C1450 1.385 . S
C1452 C1450 1.478 . S
C1452 C1454 1.381 . S
C1452 C1458 1.383 . S
C1453 C1449 1.495 . S
C1453 H1459 0.959 . S
C1453 H1460 0.961 . S
C1453 H1461 0.960 . S
C1454 C1452 1.381 . S
C1454 C1455 1.394 . S
C1454 H1462 0.930 . S
C1455 C1454 1.394 . S
C1455 C1456 1.383 . S
C1455 H1463 0.929 . S
C1456 C1455 1.383 . S
C1456 C1457 1.377 . S
C1457 H1441 0.930 1_545 S
C1457 C1456 1.377 . S
C1457 C1458 1.379 . S
C1458 H1442 0.898 1_545 S
C1458 C1452 1.383 . S
C1458 C1457 1.379 . S
H1459 C1453 0.959 . S
H1460 C1453 0.961 . S
H1461 C1453 0.960 . S
H1462 C1454 0.930 . S
H1463 C1455 0.929 . S
H1464 C1472 0.929 . S
H1465 C1474 0.930 . S
H1466 C1476 0.930 . S
H1467 C1479 0.929 . S
H1468 C1482 0.930 . S
H1469 C1484 0.960 . S
H1470 C1484 0.960 . S
H1471 C1484 0.960 . S
C1472 H1464 0.929 . S
C1472 C1473 1.377 . S
C1472 C1474 1.384 . S
C1473 C1472 1.377 . S
C1473 C1479 1.390 . S
C1474 H1465 0.930 . S
C1474 C1472 1.384 . S
C1474 C1475 1.372 . S
C1475 C1474 1.372 . S
C1475 C1476 1.400 . S
C1475 C1480 1.490 . S
C1476 H1466 0.930 . S
C1476 C1475 1.400 . S
C1476 C1479 1.386 . S
H1477 C1493 0.930 . S
H1478 C1494 0.931 . S
C1479 H1467 0.929 . S
C1479 C1473 1.390 . S
C1479 C1476 1.386 . S
C1480 C1475 1.490 . S
C1480 C1482 1.395 . S
C1480 C1483 1.403 . S
H1481 C1487 0.930 . S
C1482 H1468 0.930 . S
C1482 C1480 1.395 . S
C1482 C1485 1.403 . S
C1483 C1480 1.403 . S
C1483 C1484 1.524 . S
C1483 C1487 1.400 . S
C1484 H1469 0.960 . S
C1484 H1470 0.960 . S
C1484 H1471 0.960 . S
C1484 C1483 1.524 . S
C1485 C1482 1.403 . S
C1485 C1486 1.392 . S
C1485 C1489 1.495 . S
C1486 C1485 1.392 . S
C1486 C1487 1.385 . S
C1486 C1488 1.478 . S
C1487 H1481 0.930 . S
C1487 C1483 1.400 . S
C1487 C1486 1.385 . S
C1488 C1486 1.478 . S
C1488 C1490 1.381 . S
C1488 C1494 1.383 . S
C1489 C1485 1.495 . S
C1489 H1495 0.959 . S
C1489 H1496 0.961 . S
C1489 H1497 0.960 . S
C1490 C1488 1.381 . S
C1490 C1491 1.394 . S
C1490 H1498 0.930 . S
C1491 C1490 1.394 . S
C1491 C1492 1.383 . S
C1491 H1499 0.929 . S
C1492 C1491 1.383 . S
C1492 C1493 1.377 . S
C1493 H1477 0.930 . S
C1493 C1492 1.377 . S
C1493 C1494 1.379 . S
C1494 H1478 0.931 . S
C1494 C1488 1.383 . S
C1494 C1493 1.379 . S
H1495 C1489 0.959 . S
H1496 C1489 0.961 . S
H1497 C1489 0.960 . S
H1498 C1490 0.930 . S
H1499 C1491 0.929 . S
H1500 C1508 0.929 . S
H1501 C1510 0.930 . S
H1502 C1512 0.930 . S
H1503 C1515 0.929 . S
H1504 C1518 0.930 . S
H1505 C1520 0.960 . S
H1506 C1520 0.960 . S
H1507 C1520 0.960 . S
C1508 H1500 0.929 . S
C1508 C1509 1.377 . S
C1508 C1510 1.384 . S
C1509 C1508 1.377 . S
C1509 C1515 1.390 . S
C1510 H1501 0.930 . S
C1510 C1508 1.384 . S
C1510 C1511 1.372 . S
C1511 C1510 1.372 . S
C1511 C1512 1.400 . S
C1511 C1516 1.490 . S
C1512 H1502 0.930 . S
C1512 C1511 1.400 . S
C1512 C1515 1.386 . S
H1513 C1529 0.930 . S
H1514 C1530 0.931 . S
C1515 H1503 0.929 . S
C1515 C1509 1.390 . S
C1515 C1512 1.386 . S
C1516 C1511 1.490 . S
C1516 C1518 1.395 . S
C1516 C1519 1.403 . S
H1517 C1523 0.930 . S
C1518 H1504 0.930 . S
C1518 C1516 1.395 . S
C1518 C1521 1.403 . S
C1519 C1516 1.403 . S
C1519 C1520 1.524 . S
C1519 C1523 1.400 . S
C1520 H1505 0.960 . S
C1520 H1506 0.960 . S
C1520 H1507 0.960 . S
C1520 C1519 1.524 . S
C1521 C1518 1.403 . S
C1521 C1522 1.392 . S
C1521 C1525 1.495 . S
C1522 C1521 1.392 . S
C1522 C1523 1.385 . S
C1522 C1524 1.478 . S
C1523 H1517 0.930 . S
C1523 C1519 1.400 . S
C1523 C1522 1.385 . S
C1524 C1522 1.478 . S
C1524 C1526 1.381 . S
C1524 C1530 1.383 . S
C1525 C1521 1.495 . S
C1525 H1531 0.959 . S
C1525 H1532 0.961 . S
C1525 H1533 0.960 . S
C1526 C1524 1.381 . S
C1526 C1527 1.394 . S
C1526 H1534 0.930 . S
C1527 C1526 1.394 . S
C1527 C1528 1.383 . S
C1527 H1535 0.929 . S
C1528 C1527 1.383 . S
C1528 C1529 1.377 . S
C1529 H1513 0.930 . S
C1529 C1528 1.377 . S
C1529 C1530 1.379 . S
C1530 H1514 0.931 . S
C1530 C1524 1.383 . S
C1530 C1529 1.379 . S
H1531 C1525 0.959 . S
H1532 C1525 0.961 . S
H1533 C1525 0.960 . S
H1534 C1526 0.930 . S
H1535 C1527 0.929 . S
H1536 C1544 0.929 . S
H1537 C1546 0.930 . S
H1538 C1548 0.930 . S
H1539 C1551 0.929 . S
H1540 C1554 0.930 . S
H1541 C1556 0.960 . S
H1542 C1556 0.960 . S
H1543 C1556 0.960 . S
C1544 H1536 0.929 . S
C1544 C1545 1.377 . S
C1544 C1546 1.384 . S
C1545 C1544 1.377 . S
C1545 C1551 1.390 . S
C1546 H1537 0.930 . S
C1546 C1544 1.384 . S
C1546 C1547 1.372 . S
C1547 C1546 1.372 . S
C1547 C1548 1.400 . S
C1547 C1552 1.490 . S
C1548 H1538 0.930 . S
C1548 C1547 1.400 . S
C1548 C1551 1.386 . S
H1549 C1565 0.930 . S
H1550 C1566 0.931 . S
C1551 H1539 0.929 . S
C1551 C1545 1.390 . S
C1551 C1548 1.386 . S
C1552 C1547 1.490 . S
C1552 C1554 1.395 . S
C1552 C1555 1.403 . S
H1553 C1559 0.930 . S
C1554 H1540 0.930 . S
C1554 C1552 1.395 . S
C1554 C1557 1.403 . S
C1555 C1552 1.403 . S
C1555 C1556 1.524 . S
C1555 C1559 1.400 . S
C1556 H1541 0.960 . S
C1556 H1542 0.960 . S
C1556 H1543 0.960 . S
C1556 C1555 1.524 . S
C1557 C1554 1.403 . S
C1557 C1558 1.392 . S
C1557 C1561 1.495 . S
C1558 C1557 1.392 . S
C1558 C1559 1.385 . S
C1558 C1560 1.478 . S
C1559 H1553 0.930 . S
C1559 C1555 1.400 . S
C1559 C1558 1.385 . S
C1560 C1558 1.478 . S
C1560 C1562 1.337 1_655 S
C1560 C1566 1.383 . S
C1561 C1557 1.495 . S
C1561 H1567 0.959 . S
C1561 H1568 0.961 . S
C1561 H1569 0.960 . S
C1562 C1560 1.337 1_455 S
C1562 C1563 1.403 . S
C1562 H1570 0.968 . S
C1563 C1562 1.403 . S
C1563 C1564 1.383 1_455 S
C1563 H1571 0.929 . S
C1564 C1563 1.383 1_655 S
C1564 C1565 1.377 . S
C1565 H1549 0.930 . S
C1565 C1564 1.377 . S
C1565 C1566 1.379 . S
C1566 H1550 0.931 . S
C1566 C1560 1.383 . S
C1566 C1565 1.379 . S
H1567 C1561 0.959 . S
H1568 C1561 0.961 . S
H1569 C1561 0.960 . S
H1570 C1562 0.968 . S
H1571 C1563 0.929 . S
H1572 C1580 0.929 . S
H1573 C1582 0.930 . S
H1574 C1584 0.930 . S
H1575 C1587 0.929 . S
H1576 C1590 0.930 . S
H1577 C1592 0.960 . S
H1578 C1592 0.960 . S
H1579 C1592 0.960 . S
C1580 H1572 0.929 . S
C1580 C1581 1.377 . S
C1580 C1582 1.384 . S
C1581 C1580 1.377 . S
C1581 C1587 1.390 . S
C1582 H1573 0.930 . S
C1582 C1580 1.384 . S
C1582 C1583 1.372 . S
C1583 C1582 1.372 . S
C1583 C1584 1.400 . S
C1583 C1588 1.490 . S
C1584 H1574 0.930 . S
C1584 C1583 1.400 . S
C1584 C1587 1.386 . S
H1585 C1601 0.943 . S
H1586 C1602 0.931 . S
C1587 H1575 0.929 . S
C1587 C1581 1.390 . S
C1587 C1584 1.386 . S
C1588 C1583 1.490 . S
C1588 C1590 1.395 . S
C1588 C1591 1.403 . S
H1589 C1595 0.930 . S
C1590 H1576 0.930 . S
C1590 C1588 1.395 . S
C1590 C1593 1.403 . S
C1591 C1588 1.403 . S
C1591 C1592 1.524 . S
C1591 C1595 1.400 . S
C1592 H1577 0.960 . S
C1592 H1578 0.960 . S
C1592 H1579 0.960 . S
C1592 C1591 1.524 . S
C1593 C1590 1.403 . S
C1593 C1594 1.392 . S
C1593 C1597 1.495 1_565 S
C1594 C1593 1.392 . S
C1594 C1595 1.385 . S
C1594 C1596 1.478 . S
C1595 H1589 0.930 . S
C1595 C1591 1.400 . S
C1595 C1594 1.385 . S
C1596 C1594 1.478 . S
C1596 C1598 1.381 . S
C1596 C1602 1.383 . S
C1597 C1593 1.495 1_545 S
C1597 H1603 0.959 . S
C1597 H1604 0.961 . S
C1597 H1605 0.960 . S
C1598 C1596 1.381 . S
C1598 C1599 1.394 . S
C1598 H1606 0.930 . S
C1599 C1598 1.394 . S
C1599 C1600 1.383 . S
C1599 H1607 0.929 . S
C1600 C1599 1.383 . S
C1600 C1601 1.377 . S
C1601 H1585 0.943 . S
C1601 C1600 1.377 . S
C1601 C1602 1.379 . S
C1602 H1586 0.931 . S
C1602 C1596 1.383 . S
C1602 C1601 1.379 . S
H1603 C1597 0.959 . S
H1604 C1597 0.961 . S
H1605 C1597 0.960 . S
H1606 C1598 0.930 . S
H1607 C1599 0.929 . S
H1608 C1616 0.929 . S
H1609 C1618 0.930 . S
H1610 C1620 0.930 . S
H1611 C1623 0.929 . S
H1612 C1626 0.930 . S
H1613 C1628 0.960 . S
H1614 C1628 0.960 . S
H1615 C1628 0.960 . S
C1616 H1608 0.929 . S
C1616 C1617 1.377 . S
C1616 C1618 1.384 . S
C1617 C1616 1.377 . S
C1617 C1623 1.390 . S
C1618 H1609 0.930 . S
C1618 C1616 1.384 . S
C1618 C1619 1.372 . S
C1619 C1618 1.372 . S
C1619 C1620 1.400 . S
C1619 C1624 1.490 . S
C1620 H1610 0.930 . S
C1620 C1619 1.400 . S
C1620 C1623 1.386 . S
H1621 C1637 0.930 . S
H1622 C1638 0.931 . S
C1623 H1611 0.929 . S
C1623 C1617 1.390 . S
C1623 C1620 1.386 . S
C1624 C1619 1.490 . S
C1624 C1626 1.395 . S
C1624 C1627 1.403 . S
H1625 C1631 0.930 . S
C1626 H1612 0.930 . S
C1626 C1624 1.395 . S
C1626 C1629 1.403 . S
C1627 C1624 1.403 . S
C1627 C1628 1.524 . S
C1627 C1631 1.400 . S
C1628 H1613 0.960 . S
C1628 H1614 0.960 . S
C1628 H1615 0.960 . S
C1628 C1627 1.524 . S
C1629 C1626 1.403 . S
C1629 C1630 1.392 . S
C1629 C1633 1.495 . S
C1630 C1629 1.392 . S
C1630 C1631 1.385 . S
C1630 C1632 1.478 . S
C1631 H1625 0.930 . S
C1631 C1627 1.400 . S
C1631 C1630 1.385 . S
C1632 C1630 1.478 . S
C1632 C1634 1.381 . S
C1632 C1638 1.383 . S
C1633 C1629 1.495 . S
C1633 H1639 0.959 . S
C1633 H1640 0.961 . S
C1633 H1641 0.960 . S
C1634 C1632 1.381 . S
C1634 C1635 1.394 . S
C1634 H1642 0.930 . S
C1635 C1634 1.394 . S
C1635 C1636 1.383 . S
C1635 H1643 0.929 . S
C1636 C1635 1.383 . S
C1636 C1637 1.377 . S
C1637 H1621 0.930 . S
C1637 C1636 1.377 . S
C1637 C1638 1.379 . S
C1638 H1622 0.931 . S
C1638 C1632 1.383 . S
C1638 C1637 1.379 . S
H1639 C1633 0.959 . S
H1640 C1633 0.961 . S
H1641 C1633 0.960 . S
H1642 C1634 0.930 . S
H1643 C1635 0.929 . S
H1644 C1652 0.929 . S
H1645 C1654 0.930 . S
H1646 C1656 0.930 . S
H1647 C1659 0.929 . S
H1648 C1662 0.930 . S
H1649 C1664 0.960 . S
H1650 C1664 0.960 . S
H1651 C1664 0.960 . S
C1652 H1644 0.929 . S
C1652 C1653 1.377 . S
C1652 C1654 1.384 . S
C1653 C1652 1.377 . S
C1653 C1659 1.390 . S
C1654 H1645 0.930 . S
C1654 C1652 1.384 . S
C1654 C1655 1.372 . S
C1655 C1654 1.372 . S
C1655 C1656 1.400 . S
C1655 C1660 1.490 . S
C1656 H1646 0.930 . S
C1656 C1655 1.400 . S
C1656 C1659 1.386 . S
H1657 C1673 0.930 . S
H1658 C1674 0.931 . S
C1659 H1647 0.929 . S
C1659 C1653 1.390 . S
C1659 C1656 1.386 . S
C1660 C1655 1.490 . S
C1660 C1662 1.395 . S
C1660 C1663 1.403 . S
H1661 C1667 0.930 . S
C1662 H1648 0.930 . S
C1662 C1660 1.395 . S
C1662 C1665 1.403 . S
C1663 C1660 1.403 . S
C1663 C1664 1.524 . S
C1663 C1667 1.400 . S
C1664 H1649 0.960 . S
C1664 H1650 0.960 . S
C1664 H1651 0.960 . S
C1664 C1663 1.524 . S
C1665 C1662 1.403 . S
C1665 C1666 1.392 . S
C1665 C1669 1.495 . S
C1666 C1665 1.392 . S
C1666 C1667 1.385 . S
C1666 C1668 1.478 . S
C1667 H1661 0.930 . S
C1667 C1663 1.400 . S
C1667 C1666 1.385 . S
C1668 C1666 1.478 . S
C1668 C1670 1.381 . S
C1668 C1674 1.383 . S
C1669 C1665 1.495 . S
C1669 H1675 0.959 . S
C1669 H1676 0.961 . S
C1669 H1677 0.960 . S
C1670 C1668 1.381 . S
C1670 C1671 1.394 . S
C1670 H1678 0.930 . S
C1671 C1670 1.394 . S
C1671 C1672 1.383 . S
C1671 H1679 0.929 . S
C1672 C1671 1.383 . S
C1672 C1673 1.377 . S
C1673 H1657 0.930 . S
C1673 C1672 1.377 . S
C1673 C1674 1.379 . S
C1674 H1658 0.931 . S
C1674 C1668 1.383 . S
C1674 C1673 1.379 . S
H1675 C1669 0.959 . S
H1676 C1669 0.961 . S
H1677 C1669 0.960 . S
H1678 C1670 0.930 . S
H1679 C1671 0.929 . S
C825 C391 2.174 . S
C844 C543 2.175 . S
C880 C620 2.210 . S
C861 C451 2.190 . S
C916 C711 2.180 . S
C897 C241 1.907 . S
C952 C795 2.171 . S
C933 C331 1.885 . S
C988 C554 2.196 1_565 S
C969 C121 1.958 . S
C1005 C211 2.156 . S
C1024 C631 2.215 . S
C1041 C31 2.126 . S
C1060 C722 2.163 . S
C1077 C91 1.926 . S
C1096 C806 2.163 1_655 S
C1132 C538 0.349 1_455 S
C1113 C301 0.496 . S
C1168 C633 0.433 . S
C1149 C380 0.189 . S
C1204 C706 0.521 . S
C1185 C440 0.252 . S
C1221 C260 0.500 . S
C1240 C790 0.321 . S
C1257 C61 0.365 . S
C1276 C549 0.365 . S
C1312 C622 0.437 . S
C1293 C140 0.392 . S
C1348 C717 0.384 . S
C1329 C200 0.407 . S
C1365 C20 0.380 . S
C1384 C801 0.497 . S
C1401 C320 2.518 . S
C1420 C547 2.642 . S
C1437 C361 2.232 . S
C1456 C638 2.654 . S
C1492 C715 2.672 . S
C1473 C421 2.270 . S
C1528 C799 2.665 . S
C1509 C271 2.540 . S
C1545 C80 2.547 . S
C1564 C536 2.654 . S
C1600 C627 2.655 . S
C1581 C151 2.536 . S
C1636 C704 2.663 . S
C1617 C181 2.222 . S
C1653 C1 2.229 . S
C1672 C788 2.665 . S
