# Generated by pormake.
# Topology pyr, (3,6)-cn, num edge types: 1
# Building blocks:
#     Node 0, Type 0, BuildingBlock: KAKCAD_clean_linker_0, # of connection points: 3
#     Node 1, Type 0, BuildingBlock: KAKCAD_clean_linker_0, # of connection points: 3
#     Node 2, Type 0, BuildingBlock: KAKCAD_clean_linker_0, # of connection points: 3
#     Node 3, Type 0, BuildingBlock: KAKCAD_clean_linker_0, # of connection points: 3
#     Node 4, Type 0, BuildingBlock: KAKCAD_clean_linker_0, # of connection points: 3
#     Node 5, Type 0, BuildingBlock: KAKCAD_clean_linker_0, # of connection points: 3
#     Node 6, Type 0, BuildingBlock: KAKCAD_clean_linker_0, # of connection points: 3
#     Node 7, Type 0, BuildingBlock: KAKCAD_clean_linker_0, # of connection points: 3
#     Node 8, Type 1, BuildingBlock: JUFBIX_clean_sbu_0, # of connection points: 6
#     Node 9, Type 1, BuildingBlock: JUFBIX_clean_sbu_0, # of connection points: 6
#     Node 10, Type 1, BuildingBlock: JUFBIX_clean_sbu_0, # of connection points: 6
#     Node 11, Type 1, BuildingBlock: JUFBIX_clean_sbu_0, # of connection points: 6
#     Edge 12, Type (0, 1), BuildingBlock: ZUJKAS_clean_linker_0, # of connection points: 2
#     Edge 13, Type (0, 1), BuildingBlock: ZUJKAS_clean_linker_0, # of connection points: 2
#     Edge 14, Type (0, 1), BuildingBlock: ZUJKAS_clean_linker_0, # of connection points: 2
#     Edge 15, Type (0, 1), BuildingBlock: ZUJKAS_clean_linker_0, # of connection points: 2
#     Edge 16, Type (0, 1), BuildingBlock: ZUJKAS_clean_linker_0, # of connection points: 2
#     Edge 17, Type (0, 1), BuildingBlock: ZUJKAS_clean_linker_0, # of connection points: 2
#     Edge 18, Type (0, 1), BuildingBlock: ZUJKAS_clean_linker_0, # of connection points: 2
#     Edge 19, Type (0, 1), BuildingBlock: ZUJKAS_clean_linker_0, # of connection points: 2
#     Edge 20, Type (0, 1), BuildingBlock: ZUJKAS_clean_linker_0, # of connection points: 2
#     Edge 21, Type (0, 1), BuildingBlock: ZUJKAS_clean_linker_0, # of connection points: 2
#     Edge 22, Type (0, 1), BuildingBlock: ZUJKAS_clean_linker_0, # of connection points: 2
#     Edge 23, Type (0, 1), BuildingBlock: ZUJKAS_clean_linker_0, # of connection points: 2
#     Edge 24, Type (0, 1), BuildingBlock: ZUJKAS_clean_linker_0, # of connection points: 2
#     Edge 25, Type (0, 1), BuildingBlock: ZUJKAS_clean_linker_0, # of connection points: 2
#     Edge 26, Type (0, 1), BuildingBlock: ZUJKAS_clean_linker_0, # of connection points: 2
#     Edge 27, Type (0, 1), BuildingBlock: ZUJKAS_clean_linker_0, # of connection points: 2
#     Edge 28, Type (0, 1), BuildingBlock: ZUJKAS_clean_linker_0, # of connection points: 2
#     Edge 29, Type (0, 1), BuildingBlock: ZUJKAS_clean_linker_0, # of connection points: 2
#     Edge 30, Type (0, 1), BuildingBlock: ZUJKAS_clean_linker_0, # of connection points: 2
#     Edge 31, Type (0, 1), BuildingBlock: ZUJKAS_clean_linker_0, # of connection points: 2
#     Edge 32, Type (0, 1), BuildingBlock: ZUJKAS_clean_linker_0, # of connection points: 2
#     Edge 33, Type (0, 1), BuildingBlock: ZUJKAS_clean_linker_0, # of connection points: 2
#     Edge 34, Type (0, 1), BuildingBlock: ZUJKAS_clean_linker_0, # of connection points: 2
#     Edge 35, Type (0, 1), BuildingBlock: ZUJKAS_clean_linker_0, # of connection points: 2
# Relax obj value: 0.036
# Max RMSD: 0.087
# Mean RMSD: 0.030
data_MOF--net-pry--node1-JUFBIX_clean_sbu_0--node2-KAKCAD_clean_linker_0--edge1-ZUJKAS_clean_linker_0
_symmetry_space_group_name_H-M    P1
_symmetry_Int_Tables_number       1
_symmetry_cell_setting            triclinic
loop_
_symmetry_equiv_pos_as_xyz
'x, y, z'
_cell_length_a     57.003271
_cell_length_b     54.780334
_cell_length_c     56.835272
_cell_angle_alpha  86.053125
_cell_angle_beta   89.649872
_cell_angle_gamma 91.653123
loop_
_atom_site_label
_atom_site_type_symbol
_atom_site_fract_x
_atom_site_fract_y
_atom_site_fract_z
_atom_type_partial_charge
C0 C 0.12558 0.1255 0.23155 0.0
C1 C 0.13879 0.11949 0.25189 0.0
C2 C 0.13646 0.13558 0.21081 0.0
C3 C 0.16091 0.13975 0.20966 0.0
C4 C 0.17425 0.13329 0.22974 0.0
C5 C 0.16334 0.1234 0.25061 0.0
C6 C 0.17225 0.15144 0.18777 0.0
C7 C 0.16217 0.1719 0.17593 0.0
C8 C 0.17236 0.18324 0.15521 0.0
C9 C 0.1931 0.17373 0.14636 0.0
C10 C 0.20359 0.15316 0.15781 0.0
C11 C 0.193 0.14226 0.17863 0.0
C12 C 0.22538 0.14294 0.14785 0.0
C13 C 0.22857 0.1423 0.12331 0.0
C14 C 0.2432 0.13372 0.16273 0.0
C15 C 0.26357 0.1242 0.15336 0.0
C16 C 0.26679 0.12366 0.1288 0.0
C17 C 0.16127 0.20503 0.14295 0.0
C18 C 0.13669 0.20627 0.1414 0.0
C19 C 0.17506 0.22491 0.13302 0.0
C20 C 0.16455 0.24552 0.12209 0.0
C21 C 0.13996 0.24687 0.12086 0.0
C22 C 0.12619 0.2269 0.13057 0.0
C23 C 0.24896 0.1329 0.11395 0.0
H24 H 0.10675 0.12228 0.23153 0.0
H25 H 0.12569 0.13999 0.19555 0.0
H26 H 0.19309 0.13649 0.22953 0.0
H27 H 0.17416 0.11938 0.2659 0.0
H28 H 0.14658 0.17942 0.18329 0.0
H29 H 0.20049 0.12614 0.18739 0.0
H30 H 0.20108 0.18236 0.13044 0.0
H31 H 0.21518 0.14887 0.11123 0.0
H32 H 0.24158 0.13408 0.18169 0.0
H33 H 0.27668 0.11701 0.16545 0.0
H34 H 0.12546 0.19117 0.14839 0.0
H35 H 0.19401 0.22482 0.13414 0.0
H36 H 0.25081 0.13315 0.09496 0.0
H37 H 0.10723 0.22709 0.1296 0.0
H38 H 0.1757 0.26066 0.11506 0.0
C39 C 0.4233 0.91611 0.69791 0.0
C40 C 0.44773 0.91771 0.7008 0.0
C41 C 0.41372 0.90661 0.67788 0.0
C42 C 0.42833 0.89854 0.66016 0.0
C43 C 0.45281 0.90075 0.6627 0.0
C44 C 0.46244 0.91037 0.68282 0.0
C45 C 0.41777 0.88662 0.63992 0.0
C46 C 0.3973 0.89581 0.62943 0.0
C47 C 0.38509 0.88282 0.61269 0.0
C48 C 0.3942 0.86092 0.60564 0.0
C49 C 0.41479 0.85153 0.61574 0.0
C50 C 0.42657 0.8646 0.63276 0.0
C51 C 0.42284 0.82711 0.60996 0.0
C52 C 0.40647 0.80774 0.60777 0.0
C53 C 0.44684 0.82279 0.60708 0.0
C54 C 0.45427 0.7996 0.60206 0.0
C55 C 0.43784 0.78026 0.59983 0.0
C56 C 0.36173 0.89083 0.60432 0.0
C57 C 0.34554 0.89944 0.62034 0.0
C58 C 0.35492 0.88876 0.58078 0.0
C59 C 0.33234 0.89498 0.57351 0.0
C60 C 0.31622 0.90351 0.58961 0.0
C61 C 0.3231 0.90576 0.61305 0.0
C62 C 0.41386 0.78464 0.60267 0.0
H63 H 0.41154 0.92192 0.71134 0.0
H64 H 0.3948 0.90486 0.67665 0.0
H65 H 0.46449 0.89481 0.64926 0.0
H66 H 0.48134 0.91135 0.68465 0.0
H67 H 0.39053 0.9129 0.63476 0.0
H68 H 0.44177 0.85686 0.6415 0.0
H69 H 0.38475 0.85067 0.5929 0.0
H70 H 0.38788 0.8103 0.6103 0.0
H71 H 0.45987 0.83738 0.60857 0.0
H72 H 0.47289 0.79676 0.60019 0.0
H73 H 0.34998 0.90068 0.63873 0.0
H74 H 0.36705 0.88237 0.56798 0.0
H75 H 0.40071 0.77027 0.60075 0.0
H76 H 0.31091 0.9119 0.62595 0.0
H77 H 0.32756 0.89331 0.55526 0.0
C78 C 0.75097 0.40426 0.87347 0.0
C79 C 0.76815 0.38792 0.88175 0.0
C80 C 0.73008 0.39554 0.86385 0.0
C81 C 0.72586 0.37029 0.86232 0.0
C82 C 0.74311 0.35398 0.8704 0.0
C83 C 0.76401 0.36269 0.87999 0.0
C84 C 0.70339 0.36097 0.85266 0.0
C85 C 0.69352 0.37273 0.83244 0.0
C86 C 0.67222 0.36407 0.82328 0.0
C87 C 0.66073 0.34347 0.83475 0.0
C88 C 0.6704 0.33137 0.85484 0.0
C89 C 0.69172 0.34025 0.86367 0.0
C90 C 0.65834 0.30928 0.86642 0.0
C91 C 0.63395 0.30869 0.8703 0.0
C92 C 0.67113 0.28847 0.87334 0.0
C93 C 0.65974 0.26744 0.88368 0.0
C94 C 0.63533 0.2668 0.88746 0.0
C95 C 0.66207 0.37623 0.80159 0.0
C96 C 0.66271 0.4019 0.79781 0.0
C97 C 0.65151 0.3622 0.78451 0.0
C98 C 0.64153 0.37353 0.76436 0.0
C99 C 0.64201 0.39916 0.76069 0.0
C100 C 0.65284 0.41324 0.77755 0.0
C101 C 0.62257 0.2877 0.88078 0.0
H102 H 0.75344 0.42378 0.87487 0.0
H103 H 0.71702 0.40857 0.85807 0.0
H104 H 0.74057 0.33445 0.86912 0.0
H105 H 0.77702 0.34963 0.88582 0.0
H106 H 0.70279 0.38825 0.82345 0.0
H107 H 0.69895 0.33133 0.87951 0.0
H108 H 0.64426 0.33669 0.82794 0.0
H109 H 0.62365 0.32452 0.86534 0.0
H110 H 0.68992 0.28831 0.87041 0.0
H111 H 0.67008 0.25171 0.88887 0.0
H112 H 0.67044 0.41328 0.81073 0.0
H113 H 0.65114 0.3424 0.78657 0.0
H114 H 0.60372 0.28771 0.88331 0.0
H115 H 0.65327 0.43304 0.77531 0.0
H116 H 0.63367 0.36218 0.75149 0.0
C117 C 0.91753 0.61014 0.32301 0.0
C118 C 0.94088 0.60652 0.31634 0.0
C119 C 0.91217 0.61667 0.34566 0.0
C120 C 0.93003 0.61979 0.36221 0.0
C121 C 0.95347 0.61684 0.35542 0.0
C122 C 0.95885 0.61022 0.33269 0.0
C123 C 0.92395 0.62597 0.38648 0.0
C124 C 0.90463 0.6142 0.39826 0.0
C125 C 0.89726 0.6212 0.42033 0.0
C126 C 0.9099 0.63973 0.43103 0.0
C127 C 0.92924 0.65193 0.41944 0.0
C128 C 0.93631 0.64468 0.39726 0.0
C129 C 0.94044 0.67387 0.42922 0.0
C130 C 0.92651 0.69115 0.43942 0.0
C131 C 0.9648 0.67855 0.42718 0.0
C132 C 0.97485 0.70035 0.43452 0.0
C133 C 0.96073 0.71792 0.44402 0.0
C134 C 0.87496 0.61087 0.43091 0.0
C135 C 0.85488 0.60947 0.41682 0.0
C136 C 0.87328 0.60312 0.45498 0.0
C137 C 0.85182 0.59414 0.46473 0.0
C138 C 0.83169 0.59318 0.45063 0.0
C139 C 0.8335 0.60079 0.42658 0.0
C140 C 0.93653 0.71282 0.4468 0.0
H141 H 0.90333 0.60799 0.31068 0.0
H142 H 0.89399 0.6194 0.35018 0.0
H143 H 0.96757 0.61907 0.36785 0.0
H144 H 0.977 0.6074 0.32814 0.0
H145 H 0.89501 0.59973 0.39006 0.0
H146 H 0.95055 0.65455 0.38771 0.0
H147 H 0.90404 0.64537 0.44795 0.0
H148 H 0.90766 0.68838 0.44099 0.0
H149 H 0.97606 0.66551 0.4196 0.0
H150 H 0.99354 0.70376 0.43206 0.0
H151 H 0.85557 0.61558 0.39829 0.0
H152 H 0.88853 0.60396 0.4662 0.0
H153 H 0.92521 0.72577 0.45442 0.0
H154 H 0.81832 0.60001 0.41524 0.0
H155 H 0.85085 0.58844 0.48335 0.0
C156 C 0.87561 0.86323 0.76855 0.0
C157 C 0.87813 0.88879 0.76425 0.0
C158 C 0.86494 0.85295 0.78932 0.0
C159 C 0.85646 0.86789 0.80648 0.0
C160 C 0.85869 0.89346 0.8021 0.0
C161 C 0.86939 0.90376 0.78128 0.0
C162 C 0.84566 0.85671 0.82892 0.0
C163 C 0.85541 0.83584 0.84046 0.0
C164 C 0.84533 0.82463 0.86131 0.0
C165 C 0.82511 0.8347 0.87067 0.0
C166 C 0.8151 0.85569 0.85961 0.0
C167 C 0.82559 0.8666 0.83879 0.0
C168 C 0.79356 0.86606 0.86974 0.0
C169 C 0.77466 0.85063 0.87795 0.0
C170 C 0.79178 0.89145 0.87143 0.0
C171 C 0.77173 0.90111 0.8813 0.0
C172 C 0.75282 0.88567 0.88948 0.0
C173 C 0.85604 0.80246 0.87324 0.0
C174 C 0.86506 0.78407 0.85992 0.0
C175 C 0.85766 0.79961 0.89797 0.0
C176 C 0.86815 0.77907 0.90904 0.0
C177 C 0.87732 0.76076 0.8957 0.0
C178 C 0.87555 0.76356 0.87098 0.0
C179 C 0.75452 0.8603 0.88758 0.0
H180 H 0.88164 0.85108 0.75569 0.0
H181 H 0.86314 0.8332 0.79182 0.0
H182 H 0.85261 0.90554 0.81499 0.0
H183 H 0.87124 0.9235 0.77878 0.0
H184 H 0.87131 0.82863 0.83346 0.0
H185 H 0.81767 0.88239 0.82987 0.0
H186 H 0.81712 0.82617 0.88664 0.0
H187 H 0.77533 0.83101 0.87673 0.0
H188 H 0.80605 0.90386 0.86543 0.0
H189 H 0.77095 0.92074 0.88229 0.0
H190 H 0.86391 0.78544 0.84087 0.0
H191 H 0.85113 0.81346 0.90883 0.0
H192 H 0.7404 0.84784 0.89386 0.0
H193 H 0.88261 0.75005 0.86005 0.0
H194 H 0.86892 0.77746 0.92812 0.0
C195 C 0.57643 0.06862 0.34548 0.0
C196 C 0.56405 0.08118 0.32735 0.0
C197 C 0.58598 0.0812 0.36391 0.0
C198 C 0.58353 0.10663 0.36444 0.0
C199 C 0.57022 0.11894 0.34683 0.0
C200 C 0.56052 0.10633 0.32854 0.0
C201 C 0.59632 0.12062 0.3821 0.0
C202 C 0.61956 0.11494 0.38795 0.0
C203 C 0.63269 0.12939 0.40285 0.0
C204 C 0.6223 0.14952 0.4122 0.0
C205 C 0.59914 0.15551 0.40658 0.0
C206 C 0.58619 0.14088 0.39167 0.0
C207 C 0.5893 0.17813 0.41493 0.0
C208 C 0.59283 0.18432 0.43825 0.0
C209 C 0.57787 0.19458 0.39912 0.0
C210 C 0.57094 0.2172 0.40624 0.0
C211 C 0.57526 0.22378 0.42932 0.0
C212 C 0.65768 0.12431 0.4075 0.0
C213 C 0.66476 0.1003 0.41318 0.0
C214 C 0.67469 0.14345 0.40584 0.0
C215 C 0.69833 0.13866 0.40966 0.0
C216 C 0.70547 0.11463 0.41528 0.0
C217 C 0.6884 0.09552 0.4171 0.0
C218 C 0.58586 0.2069 0.44538 0.0
H219 H 0.57917 0.04916 0.34513 0.0
H220 H 0.59575 0.07109 0.37744 0.0
H221 H 0.56825 0.13857 0.34647 0.0
H222 H 0.55133 0.11655 0.31463 0.0
H223 H 0.62793 0.10003 0.37992 0.0
H224 H 0.56826 0.1454 0.38742 0.0
H225 H 0.63252 0.16097 0.42338 0.0
H226 H 0.60132 0.17183 0.45088 0.0
H227 H 0.57519 0.19043 0.38095 0.0
H228 H 0.56305 0.2299 0.39338 0.0
H229 H 0.65198 0.08525 0.4148 0.0
H230 H 0.66978 0.16209 0.40111 0.0
H231 H 0.58901 0.21125 0.46342 0.0
H232 H 0.69326 0.07685 0.42181 0.0
H233 H 0.71107 0.15374 0.40775 0.0
C234 C 0.25641 0.6203 0.15969 0.0
C235 C 0.25365 0.62049 0.13511 0.0
C236 C 0.27747 0.62853 0.16932 0.0
C237 C 0.29629 0.63712 0.1546 0.0
C238 C 0.29353 0.63726 0.13002 0.0
C239 C 0.27247 0.62906 0.1204 0.0
C240 C 0.31869 0.64596 0.1648 0.0
C241 C 0.32833 0.63341 0.18472 0.0
C242 C 0.34952 0.64162 0.1944 0.0
C243 C 0.36114 0.6626 0.18386 0.0
C244 C 0.35176 0.67551 0.16403 0.0
C245 C 0.3305 0.66703 0.15466 0.0
C246 C 0.36405 0.69796 0.15325 0.0
C247 C 0.37496 0.71488 0.16753 0.0
C248 C 0.36497 0.70267 0.12861 0.0
C249 C 0.37644 0.72379 0.11852 0.0
C250 C 0.38741 0.74059 0.13282 0.0
C251 C 0.35943 0.62853 0.21571 0.0
C252 C 0.34481 0.62036 0.23484 0.0
C253 C 0.38366 0.62469 0.21735 0.0
C254 C 0.39311 0.61336 0.23779 0.0
C255 C 0.37856 0.60559 0.2571 0.0
C256 C 0.35427 0.60905 0.25531 0.0
C257 C 0.38658 0.73588 0.15743 0.0
H258 H 0.24214 0.61414 0.17152 0.0
H259 H 0.27889 0.62852 0.18832 0.0
H260 H 0.3078 0.64339 0.11818 0.0
H261 H 0.27106 0.62908 0.1014 0.0
H262 H 0.31959 0.61689 0.19239 0.0
H263 H 0.32278 0.67724 0.1398 0.0
H264 H 0.3775 0.66897 0.19123 0.0
H265 H 0.37423 0.7121 0.18657 0.0
H266 H 0.3571 0.68987 0.11706 0.0
H267 H 0.37704 0.72679 0.09949 0.0
H268 H 0.32609 0.6232 0.23421 0.0
H269 H 0.39536 0.63049 0.20282 0.0
H270 H 0.39458 0.74868 0.16891 0.0
H271 H 0.34254 0.60303 0.26975 0.0
H272 H 0.41192 0.61119 0.23865 0.0
C273 C 0.08015 0.29679 0.57321 0.0
C274 C 0.0559 0.29248 0.57655 0.0
C275 C 0.09096 0.31832 0.58006 0.0
C276 C 0.07777 0.33611 0.59039 0.0
C277 C 0.05338 0.33215 0.5931 0.0
C278 C 0.04254 0.31057 0.58619 0.0
C279 C 0.08973 0.35796 0.5995 0.0
C280 C 0.10842 0.37006 0.5868 0.0
C281 C 0.12129 0.38919 0.59637 0.0
C282 C 0.11511 0.39642 0.61874 0.0
C283 C 0.0966 0.38449 0.63173 0.0
C284 C 0.0838 0.36549 0.62188 0.0
C285 C 0.09185 0.39071 0.65627 0.0
C286 C 0.11053 0.39374 0.67191 0.0
C287 C 0.06878 0.39335 0.66434 0.0
C288 C 0.06453 0.39931 0.6875 0.0
C289 C 0.08327 0.40262 0.70307 0.0
C290 C 0.14259 0.40014 0.5842 0.0
C291 C 0.15928 0.38496 0.57493 0.0
C292 C 0.14739 0.4255 0.58359 0.0
C293 C 0.16887 0.43534 0.57481 0.0
C294 C 0.18601 0.41997 0.56666 0.0
C295 C 0.18078 0.39477 0.5663 0.0
C296 C 0.1063 0.39959 0.69502 0.0
H297 H 0.09087 0.28334 0.56553 0.0
H298 H 0.1098 0.32064 0.57795 0.0
H299 H 0.04272 0.34561 0.60083 0.0
H300 H 0.02383 0.30773 0.58909 0.0
H301 H 0.11313 0.36442 0.56953 0.0
H302 H 0.07009 0.35563 0.63224 0.0
H303 H 0.12529 0.41082 0.62644 0.0
H304 H 0.12848 0.39128 0.66636 0.0
H305 H 0.05405 0.39121 0.65262 0.0
H306 H 0.0466 0.40178 0.69306 0.0
H307 H 0.15619 0.36534 0.57533 0.0
H308 H 0.13476 0.43765 0.59045 0.0
H309 H 0.12111 0.40147 0.70668 0.0
H310 H 0.19358 0.38253 0.55988 0.0
H311 H 0.17245 0.45482 0.57538 0.0
Co312 Co 0.99022 0.00794 0.50035 0.0
C313 C 0.01231 0.96323 0.49618 0.0
Co314 Co 0.02511 0.00523 0.51672 0.0
C315 C 0.94879 0.02652 0.47698 0.0
C316 C 0.94573 0.98814 0.48693 0.0
N317 N 0.96062 0.0077 0.48728 0.0
N318 N 0.92714 0.01941 0.47019 0.0
C319 C 0.9252 0.99525 0.47636 0.0
H320 H 0.95583 0.0451 0.47469 0.0
H321 H 0.94933 0.96995 0.49441 0.0
C322 C 1.00274 0.04985 0.52104 0.0
N323 N 0.05494 0.00564 0.52965 0.0
C324 C 0.06845 0.98678 0.53701 0.0
C325 C 0.0687 0.02584 0.53172 0.0
N326 N 0.08999 0.99451 0.5436 0.0
C327 C 0.09011 0.01908 0.54037 0.0
C328 C 0.02581 0.02377 0.46928 0.0
O329 O 0.98622 0.04026 0.50965 0.0
O330 O 0.02084 0.03755 0.52578 0.0
O331 O 0.03832 0.01793 0.48715 0.0
O332 O 1.00361 0.02099 0.47101 0.0
O333 O 0.02885 0.97275 0.50764 0.0
H334 H 0.06394 0.04434 0.52633 0.0
H335 H 0.06284 0.96774 0.53702 0.0
O336 O 0.9944 0.97572 0.49111 0.0
O337 O 0.97705 0.99487 0.52987 0.0
O338 O 0.01178 0.99253 0.54614 0.0
C339 C 0.9896 0.98934 0.54781 0.0
H340 H 0.9097 0.98375 0.47425 0.0
H341 H 0.10506 0.03125 0.54283 0.0
Co342 Co 0.501 1.0012 0.99525 0.0
C343 C 0.49596 0.96303 0.02993 0.0
Co344 Co 0.52084 0.00719 0.02756 0.0
C345 C 0.49188 0.99524 0.94614 0.0
C346 C 0.46102 0.98913 0.96764 0.0
N347 N 0.48396 0.9957 0.96851 0.0
N348 N 0.47487 0.9883 0.93138 0.0
C349 C 0.45539 0.98456 0.94486 0.0
H350 H 0.51004 0.99879 0.94098 0.0
H351 H 0.44932 0.98702 0.98275 0.0
C352 C 0.52586 0.04536 0.99289 0.0
N353 N 0.53776 0.01247 0.05438 0.0
C354 C 0.52976 0.01115 0.07682 0.0
C355 C 0.56072 0.01881 0.05578 0.0
N356 N 0.54679 0.01644 0.0922 0.0
C357 C 0.56634 0.0212 0.07903 0.0
C358 C 0.54643 0.98375 0.99401 0.0
O359 O 0.51217 0.03197 0.98134 0.0
O360 O 0.53176 0.03794 0.01364 0.0
O361 O 0.54732 0.99184 0.01444 0.0
O362 O 0.52749 0.98574 0.98244 0.0
O363 O 0.50973 0.97639 0.0414 0.0
H364 H 0.57253 0.02181 0.04082 0.0
H365 H 0.51176 0.00635 0.08177 0.0
O366 O 0.48999 0.97047 0.00923 0.0
O367 O 0.47459 0.01667 0.00832 0.0
O368 O 0.49429 0.02256 0.04045 0.0
C369 C 0.4754 0.02465 0.0288 0.0
H370 H 0.43837 0.97849 0.93879 0.0
H371 H 0.58331 0.02671 0.08564 0.0
Co372 Co 0.52643 0.51294 0.50307 0.0
C373 C 0.48917 0.51581 0.47157 0.0
Co374 Co 0.4932 0.49632 0.51748 0.0
C375 C 0.57613 0.52209 0.49479 0.0
C376 C 0.55502 0.54885 0.4765 0.0
N377 N 0.55365 0.52825 0.49092 0.0
N378 N 0.59146 0.53801 0.48326 0.0
C379 C 0.5782 0.55484 0.4717 0.0
H380 H 0.58115 0.50622 0.50581 0.0
H381 H 0.54011 0.55909 0.47017 0.0
C382 C 0.53044 0.49344 0.54897 0.0
N383 N 0.46601 0.48087 0.52952 0.0
C384 C 0.44353 0.48748 0.52648 0.0
C385 C 0.46464 0.45896 0.54188 0.0
N386 N 0.42822 0.47037 0.53622 0.0
C387 C 0.44146 0.45244 0.54599 0.0
C388 C 0.52158 0.46435 0.49488 0.0
O389 O 0.54172 0.50494 0.53211 0.0
O390 O 0.5089 0.48783 0.54621 0.0
O391 O 0.50219 0.46662 0.50551 0.0
O392 O 0.53556 0.48279 0.49173 0.0
O393 O 0.4777 0.50493 0.48864 0.0
H394 H 0.47956 0.44812 0.54704 0.0
H395 H 0.43849 0.50404 0.51652 0.0
O396 O 0.51087 0.52078 0.47415 0.0
O397 O 0.51712 0.54293 0.5145 0.0
O398 O 0.48439 0.52615 0.52939 0.0
C399 C 0.49799 0.54484 0.52575 0.0
H400 H 0.58481 0.57073 0.46105 0.0
H401 H 0.43484 0.43571 0.55526 0.0
Co402 Co 0.02018 0.50506 0.9923 0.0
C403 C 0.97579 0.48331 0.99025 0.0
Co404 Co 1.00033 0.50521 0.02566 0.0
C405 C 0.03708 0.4885 0.94844 0.0
C406 C 0.0497 0.52476 0.95422 0.0
N407 N 0.03658 0.50588 0.96412 0.0
N408 N 0.04991 0.49581 0.92902 0.0
C409 C 0.05793 0.51863 0.93268 0.0
H410 H 0.02801 0.47091 0.95119 0.0
H411 H 0.05261 0.5421 0.96192 0.0
C412 C 0.04474 0.52693 0.02769 0.0
N413 N 0.98394 0.5043 0.05388 0.0
C414 C 0.98427 0.52102 0.07024 0.0
C415 C 0.97024 0.48561 0.06326 0.0
N416 N 0.97142 0.51344 0.08957 0.0
C417 C 0.9625 0.49117 0.08515 0.0
C418 C 0.02799 0.46407 0.02224 0.0
O419 O 0.04576 0.52155 1.00633 0.0
O420 O 0.02616 0.52148 0.03958 0.0
O421 O 0.0135 0.4744 0.03516 0.0
O422 O 0.03351 0.47436 1.00213 0.0
O423 O 0.97467 0.48897 0.01152 0.0
H424 H 0.9667 0.46868 0.05501 0.0
H425 H 0.99404 0.53826 0.0681 0.0
O426 O 0.99447 0.48852 0.97843 0.0
O427 O 1.00675 0.53576 0.98268 0.0
O428 O 0.98725 0.53605 0.016 0.0
C429 C 0.9925 0.54621 0.99577 0.0
H430 H 0.06831 0.53045 0.92034 0.0
H431 H 0.95193 0.47925 0.09723 0.0
H432 H 0.15474 0.08494 0.28521 0.0
H433 H 0.13538 0.06916 0.32196 0.0
H434 H 0.07643 0.1147 0.3061 0.0
H435 H 0.0959 0.13137 0.2698 0.0
H436 H 0.11422 0.10335 0.36016 0.0
H437 H 0.05255 0.03794 0.31958 0.0
H438 H 0.08062 0.04694 0.30622 0.0
H439 H 0.05723 0.06813 0.3053 0.0
C440 C 0.13779 0.09189 0.28958 0.0
C441 C 0.12696 0.10948 0.27431 0.0
C442 C 0.12668 0.08268 0.31056 0.0
C443 C 0.10442 0.09064 0.31666 0.0
C444 C 0.09352 0.10815 0.3016 0.0
H445 H 1.00487 0.04472 0.42972 0.0
H446 H 0.02395 0.0616 0.39315 0.0
C447 C 0.10467 0.11752 0.28072 0.0
C448 C 0.09264 0.0809 0.33891 0.0
H449 H 0.04925 0.04106 0.36056 0.0
C450 C 0.10005 0.08969 0.36032 0.0
C451 C 0.074 0.06333 0.33898 0.0
C452 C 0.06554 0.05334 0.31637 0.0
C453 C 0.08916 0.0815 0.38185 0.0
C454 C 0.07079 0.06344 0.38207 0.0
C455 C 0.06333 0.0548 0.36052 0.0
C456 C 0.0592 0.05318 0.40441 0.0
C457 C 0.09707 0.09284 0.40404 0.0
C458 C 0.07251 0.04243 0.42288 0.0
C459 C 0.06167 0.03301 0.44389 0.0
C460 C 0.03716 0.03368 0.44682 0.0
C461 C 0.02377 0.04393 0.42811 0.0
C462 C 0.03467 0.05358 0.40716 0.0
H463 H 0.10549 0.11122 0.40004 0.0
H464 H 0.08213 0.09469 0.41636 0.0
H465 H 0.11023 0.08104 0.41305 0.0
H466 H 0.09134 0.04115 0.42102 0.0
H467 H 0.07253 0.02502 0.45779 0.0
H468 H 0.43314 0.90358 0.74533 0.0
H469 H 0.44723 0.91867 0.78221 0.0
H470 H 0.49893 0.96504 0.74391 0.0
H471 H 0.4845 0.95025 0.70658 0.0
H472 H 0.49404 0.91781 0.80141 0.0
H473 H 0.4608 0.01205 0.78356 0.0
H474 H 0.45061 0.98681 0.76713 0.0
H475 H 0.47953 0.99987 0.76187 0.0
C476 C 0.44743 0.91708 0.74471 0.0
C477 C 0.45751 0.92601 0.72307 0.0
C478 C 0.45558 0.92554 0.76579 0.0
C479 C 0.47393 0.94312 0.76571 0.0
C480 C 0.48456 0.95165 0.74425 0.0
H481 H 0.50534 0.01057 0.89932 0.0
H482 H 0.51039 1.00091 0.85802 0.0
C483 C 0.47642 0.94309 0.72302 0.0
C484 C 0.48111 0.95268 0.78834 0.0
H485 H 0.47366 1.00125 0.82189 0.0
C486 C 0.49007 0.93622 0.80578 0.0
C487 C 0.476 0.97674 0.79388 0.0
C488 C 0.46611 0.99498 0.77575 0.0
C489 C 0.49278 0.94274 0.82903 0.0
C490 C 0.48604 0.96618 0.83495 0.0
C491 C 0.47869 0.98326 0.8172 0.0
C492 C 0.4836 0.97207 0.85979 0.0
C493 C 0.50191 0.92418 0.8473 0.0
C494 C 0.46662 0.95931 0.87416 0.0
C495 C 0.46363 0.96483 0.89754 0.0
C496 C 0.47758 0.98323 0.90702 0.0
C497 C 0.49451 0.99614 0.89252 0.0
C498 C 0.49737 0.99072 0.86899 0.0
H499 H 0.51256 0.91032 0.83909 0.0
H500 H 0.51277 0.93319 0.86056 0.0
H501 H 0.48685 0.91446 0.85664 0.0
H502 H 0.45558 0.9451 0.86723 0.0
H503 H 0.45066 0.95435 0.90828 0.0
H504 H 0.59948 0.38799 0.74167 0.0
H505 H 0.58184 0.40688 0.70597 0.0
H506 H 0.64185 0.4563 0.69602 0.0
H507 H 0.65979 0.43732 0.73164 0.0
H508 H 0.57253 0.45989 0.6959 0.0
H509 H 0.63385 0.42129 0.63242 0.0
H510 H 0.6297 0.40811 0.66223 0.0
H511 H 0.64659 0.43609 0.65682 0.0
C512 C 0.60899 0.40278 0.7318 0.0
C513 C 0.63109 0.41108 0.73937 0.0
C514 C 0.59884 0.41363 0.71152 0.0
C515 C 0.61066 0.4328 0.69832 0.0
C516 C 0.63258 0.44136 0.70591 0.0
H517 H 0.57522 0.50549 0.56209 0.0
H518 H 0.59484 0.4928 0.59895 0.0
C519 C 0.6427 0.43062 0.72631 0.0
C520 C 0.59996 0.44373 0.67656 0.0
H521 H 0.60475 0.44706 0.61654 0.0
C522 C 0.57957 0.45719 0.67852 0.0
C523 C 0.60934 0.44026 0.654 0.0
C524 C 0.631 0.42554 0.65104 0.0
C525 C 0.56822 0.46729 0.65843 0.0
C526 C 0.5772 0.46322 0.63579 0.0
C527 C 0.59787 0.45012 0.63389 0.0
C528 C 0.565 0.47165 0.61384 0.0
C529 C 0.54691 0.48245 0.66169 0.0
C530 C 0.5418 0.4638 0.60987 0.0
C531 C 0.5305 0.47114 0.58893 0.0
C532 C 0.54229 0.48623 0.57138 0.0
C533 C 0.56562 0.49393 0.57529 0.0
C534 C 0.57686 0.48668 0.59633 0.0
H535 H 0.54682 0.49019 0.67926 0.0
H536 H 0.54608 0.49773 0.64786 0.0
H537 H 0.53085 0.47067 0.66054 0.0
H538 H 0.53251 0.45165 0.62283 0.0
H539 H 0.51261 0.46469 0.58639 0.0
H540 H 0.97705 0.6221 0.28629 0.0
H541 H 0.98535 0.60829 0.24703 0.0
H542 H 0.92485 0.5591 0.25336 0.0
H543 H 0.9169 0.57212 0.29274 0.0
H544 H 0.96516 0.53751 0.23753 0.0
H545 H 0.94886 0.62553 0.18622 0.0
H546 H 0.96981 0.62702 0.20963 0.0
H547 H 0.93955 0.61962 0.21655 0.0
C548 C 0.96561 0.60824 0.27935 0.0
C549 C 0.94621 0.59833 0.29256 0.0
C550 C 0.97023 0.60058 0.25683 0.0
C551 C 0.95548 0.58298 0.24717 0.0
C552 C 0.93633 0.57286 0.26044 0.0
H553 H 0.93602 0.50742 0.12164 0.0
H554 H 0.93379 0.52522 0.15978 0.0
C555 C 0.93172 0.58045 0.28287 0.0
C556 C 0.9601 0.57448 0.22346 0.0
H557 H 0.96089 0.59261 0.16472 0.0
C558 C 0.96432 0.54957 0.22162 0.0
C559 C 0.95908 0.59031 0.20277 0.0
C560 C 0.95391 0.61708 0.20373 0.0
C561 C 0.96723 0.53998 0.19959 0.0
C562 C 0.96559 0.55565 0.1789 0.0
C563 C 0.96206 0.58069 0.18069 0.0
C564 C 0.96652 0.54603 0.15526 0.0
C565 C 0.97198 0.5131 0.19861 0.0
C566 C 0.98534 0.55243 0.13986 0.0
C567 C 0.98675 0.54216 0.11806 0.0
C568 C 0.96925 0.52543 0.11126 0.0
C569 C 0.95002 0.51981 0.12649 0.0
C570 C 0.94867 0.53001 0.14826 0.0
H571 H 0.9783 0.50495 0.21577 0.0
H572 H 0.9555 0.5032 0.19419 0.0
H573 H 0.98522 0.51017 0.18474 0.0
H574 H 0.99923 0.56485 0.14498 0.0
H575 H 1.0019 0.54676 0.1069 0.0
H576 H 0.31225 0.1274 0.14482 0.0
H577 H 0.34768 0.11095 0.12814 0.0
H578 H 0.3066 0.081 0.07304 0.0
H579 H 0.27099 0.09677 0.08985 0.0
H580 H 0.3572 0.06072 0.11934 0.0
H581 H 0.35979 0.12186 0.03719 0.0
H582 H 0.34268 0.12834 0.06275 0.0
H583 H 0.33226 0.10584 0.04345 0.0
C584 C 0.31062 0.11711 0.12929 0.0
C585 C 0.28858 0.11358 0.1187 0.0
C586 C 0.33098 0.10783 0.11969 0.0
C587 C 0.3299 0.09503 0.09913 0.0
C588 C 0.30798 0.09124 0.08863 0.0
H589 H 0.43112 0.02765 0.01045 0.0
H590 H 0.39634 0.04443 0.02808 0.0
C591 C 0.28759 0.10037 0.09828 0.0
C592 C 0.3516 0.08532 0.08887 0.0
H593 H 0.3869 0.08988 0.0398 0.0
C594 C 0.36379 0.06717 0.102 0.0
C595 C 0.36012 0.09365 0.0662 0.0
C596 C 0.3482 0.11363 0.05158 0.0
C597 C 0.38393 0.05674 0.09288 0.0
C598 C 0.39256 0.06514 0.07021 0.0
C599 C 0.38038 0.08339 0.05715 0.0
C600 C 0.41398 0.05506 0.05956 0.0
C601 C 0.3953 0.03626 0.10737 0.0
C602 C 0.4357 0.05572 0.07113 0.0
C603 C 0.45564 0.04596 0.06114 0.0
C604 C 0.45441 0.03561 0.03917 0.0
C605 C 0.43275 0.03545 0.02739 0.0
C606 C 0.41281 0.04507 0.03746 0.0
H607 H 0.38294 0.02728 0.12069 0.0
H608 H 0.40178 0.02215 0.09601 0.0
H609 H 0.41046 0.04385 0.11694 0.0
H610 H 0.43731 0.06389 0.08787 0.0
H611 H 0.47203 0.04656 0.07066 0.0
H612 H 0.29228 0.94374 0.59998 0.0
H613 H 0.25196 0.9536 0.5895 0.0
H614 H 0.24557 0.88806 0.55184 0.0
H615 H 0.28595 0.87781 0.5626 0.0
H616 H 0.23312 0.95912 0.54176 0.0
H617 H 0.18822 0.88517 0.59921 0.0
H618 H 0.21816 0.89512 0.60415 0.0
H619 H 0.21145 0.87684 0.57996 0.0
C620 C 0.28226 0.93135 0.58958 0.0
C621 C 0.29218 0.90994 0.58221 0.0
C622 C 0.2593 0.93704 0.58354 0.0
C623 C 0.24581 0.92139 0.57016 0.0
C624 C 0.25569 0.90018 0.56243 0.0
H625 H 0.10012 0.95013 0.5282 0.0
H626 H 0.13727 0.92892 0.53378 0.0
C627 C 0.27877 0.8945 0.56839 0.0
C628 C 0.22149 0.92779 0.56419 0.0
H629 H 0.16424 0.9137 0.57879 0.0
C630 C 0.21803 0.94903 0.54959 0.0
C631 C 0.20193 0.91445 0.57439 0.0
C632 C 0.20493 0.89166 0.59042 0.0
C633 C 0.19549 0.9578 0.54554 0.0
C634 C 0.17603 0.94518 0.55669 0.0
C635 C 0.17931 0.9233 0.57039 0.0
C636 C 0.15255 0.95579 0.55574 0.0
C637 C 0.19267 0.98086 0.52982 0.0
C638 C 0.1487 0.97728 0.56703 0.0
C639 C 0.12763 0.9893 0.56397 0.0
C640 C 0.11 0.98002 0.54959 0.0
C641 C 0.11334 0.95763 0.53946 0.0
C642 C 0.13454 0.94558 0.54253 0.0
H643 H 0.20825 0.98492 0.51821 0.0
H644 H 0.17684 0.97936 0.51866 0.0
H645 H 0.19049 0.99653 0.54094 0.0
H646 H 0.16235 0.98519 0.57758 0.0
H647 H 0.12535 0.00625 0.57233 0.0
H648 H 0.79079 0.36841 0.92074 0.0
H649 H 0.82663 0.38391 0.93869 0.0
H650 H 0.83108 0.44376 0.88533 0.0
H651 H 0.79536 0.42827 0.86708 0.0
H652 H 0.87199 0.39247 0.91881 0.0
H653 H 0.83378 0.4777 0.94782 0.0
H654 H 0.81591 0.45233 0.93873 0.0
H655 H 0.83028 0.4731 0.91702 0.0
C656 C 0.79949 0.38475 0.91267 0.0
C657 C 0.79014 0.39715 0.8925 0.0
C658 C 0.81992 0.39363 0.92302 0.0
C659 C 0.83132 0.41514 0.91352 0.0
C660 C 0.82228 0.42739 0.89321 0.0
H661 H 0.97195 0.46954 0.94497 0.0
H662 H 0.93727 0.45215 0.92634 0.0
C663 C 0.80185 0.41852 0.88283 0.0
C664 C 0.85271 0.4247 0.92487 0.0
H665 H 0.87478 0.47364 0.95256 0.0
C666 C 0.87264 0.41021 0.92621 0.0
C667 C 0.85337 0.44771 0.93475 0.0
C668 C 0.83215 0.46357 0.93475 0.0
C669 C 0.89333 0.41826 0.93693 0.0
C670 C 0.89415 0.44152 0.94631 0.0
C671 C 0.87414 0.45589 0.9452 0.0
C672 C 0.91546 0.45121 0.95771 0.0
C673 C 0.91399 0.40163 0.93853 0.0
C674 C 0.91462 0.45673 0.98144 0.0
C675 C 0.93434 0.46675 0.99211 0.0
C676 C 0.95528 0.47161 0.9792 0.0
C677 C 0.95613 0.46592 0.95544 0.0
C678 C 0.93637 0.45587 0.94479 0.0
H679 H 0.90871 0.38236 0.93578 0.0
H680 H 0.92706 0.40785 0.9247 0.0
H681 H 0.92263 0.40222 0.95595 0.0
H682 H 0.89862 0.45334 0.99169 0.0
H683 H 0.93307 0.47094 0.01042 0.0
H684 H 0.82138 0.55183 0.47922 0.0
H685 H 0.78223 0.53632 0.49259 0.0
H686 H 0.75116 0.59986 0.45789 0.0
H687 H 0.78997 0.61544 0.44468 0.0
H688 H 0.73381 0.58429 0.50636 0.0
H689 H 0.73337 0.51087 0.44303 0.0
H690 H 0.75809 0.51382 0.46234 0.0
H691 H 0.75316 0.53722 0.43944 0.0
C692 C 0.80618 0.5626 0.47479 0.0
C693 C 0.80862 0.58469 0.46073 0.0
C694 C 0.7839 0.55369 0.48231 0.0
C695 C 0.76389 0.56689 0.47602 0.0
C696 C 0.76643 0.58941 0.46286 0.0
H697 H 0.62128 0.55447 0.4483 0.0
H698 H 0.66408 0.55748 0.45013 0.0
C699 C 0.78856 0.5982 0.45522 0.0
C700 C 0.74 0.55698 0.48178 0.0
H701 H 0.69793 0.51773 0.46236 0.0
C702 C 0.72604 0.56936 0.49722 0.0
C703 C 0.73 0.53763 0.4696 0.0
C704 C 0.74428 0.52406 0.45257 0.0
C705 C 0.70198 0.5636 0.49999 0.0
C706 C 0.69177 0.54502 0.48697 0.0
C707 C 0.70594 0.53188 0.47238 0.0
C708 C 0.66603 0.54131 0.48584 0.0
C709 C 0.68732 0.5784 0.51565 0.0
C710 C 0.65306 0.53083 0.50522 0.0
C711 C 0.62853 0.52908 0.5042 0.0
C712 C 0.6167 0.53797 0.48385 0.0
C713 C 0.62989 0.54783 0.46431 0.0
C714 C 0.65431 0.54939 0.46528 0.0
H715 H 0.69765 0.59354 0.52305 0.0
H716 H 0.67236 0.58627 0.50558 0.0
H717 H 0.67995 0.56628 0.53049 0.0
H718 H 0.66187 0.5244 0.5212 0.0
H719 H 0.61882 0.52154 0.51957 0.0
H720 H 0.10143 0.27008 0.13651 0.0
H721 H 0.0828 0.30633 0.11834 0.0
H722 H 0.13444 0.31074 0.06239 0.0
H723 H 0.15297 0.27418 0.08022 0.0
H724 H 0.1036 0.35394 0.10819 0.0
H725 H 0.07119 0.31341 0.02705 0.0
H726 H 0.08019 0.29491 0.05278 0.0
H727 H 0.10184 0.3097 0.03315 0.0
C728 C 0.10869 0.27856 0.12018 0.0
C729 C 0.12866 0.26907 0.10978 0.0
C730 C 0.09808 0.29938 0.10989 0.0
C731 C 0.10701 0.3111 0.08884 0.0
C732 C 0.12701 0.3018 0.07844 0.0
H733 H 0.06312 0.43943 1.00159 0.0
H734 H 0.08261 0.40264 0.01759 0.0
C735 C 0.13772 0.28103 0.08879 0.0
C736 C 0.09572 0.33337 0.07817 0.0
H737 H 0.06617 0.35586 0.02954 0.0
C738 C 0.09537 0.35435 0.09102 0.0
C739 C 0.08511 0.33396 0.05568 0.0
C740 C 0.08437 0.31177 0.04136 0.0
C741 C 0.08493 0.37594 0.08194 0.0
C742 C 0.07396 0.37644 0.05961 0.0
C743 C 0.07451 0.35551 0.04665 0.0
C744 C 0.06163 0.3984 0.04955 0.0
C745 C 0.08624 0.39818 0.09619 0.0
C746 C 0.04295 0.408 0.06187 0.0
C747 C 0.03186 0.42907 0.05283 0.0
C748 C 0.03898 0.44091 0.03109 0.0
C749 C 0.05721 0.43084 0.01841 0.0
C750 C 0.06838 0.40979 0.02754 0.0
H751 H 0.10087 0.39716 0.10901 0.0
H752 H 0.08863 0.41526 0.08462 0.0
H753 H 0.06965 0.39929 0.10633 0.0
H754 H 0.03696 0.39922 0.07857 0.0
H755 H 0.01776 0.43615 0.063 0.0
H756 H 0.60113 0.26346 0.92167 0.0
H757 H 0.58167 0.2263 0.93975 0.0
H758 H 0.62238 0.18237 0.89544 0.0
H759 H 0.64199 0.21939 0.87742 0.0
H760 H 0.55488 0.19056 0.9202 0.0
H761 H 0.63471 0.15106 0.9609 0.0
H762 H 0.6339 0.18238 0.94889 0.0
H763 H 0.63756 0.15798 0.92967 0.0
C764 C 0.60586 0.24588 0.91572 0.0
C765 C 0.62323 0.24434 0.89825 0.0
C766 C 0.59478 0.22468 0.9261 0.0
C767 C 0.60087 0.20155 0.91923 0.0
C768 C 0.61784 0.19998 0.90144 0.0
H769 H 0.52179 0.06414 0.94721 0.0
H770 H 0.53915 0.10248 0.92942 0.0
C771 C 0.62901 0.22115 0.89115 0.0
C772 C 0.58935 0.17907 0.93055 0.0
H773 H 0.60057 0.12507 0.96143 0.0
C774 C 0.56483 0.17626 0.9293 0.0
C775 C 0.60235 0.16061 0.9427 0.0
C776 C 0.62855 0.1632 0.94586 0.0
C777 C 0.55299 0.15529 0.93955 0.0
C778 C 0.56609 0.13643 0.95095 0.0
C779 C 0.59057 0.13943 0.95249 0.0
C780 C 0.55484 0.11356 0.96176 0.0
C781 C 0.52655 0.15376 0.93847 0.0
C782 C 0.55827 0.10679 0.98572 0.0
C783 C 0.54863 0.08478 0.99587 0.0
C784 C 0.53533 0.06906 0.98223 0.0
C785 C 0.53178 0.07593 0.95825 0.0
C786 C 0.54157 0.09792 0.94807 0.0
H787 H 0.51899 0.17214 0.93522 0.0
H788 H 0.52121 0.14257 0.92375 0.0
H789 H 0.51891 0.14498 0.95508 0.0
H790 H 0.56852 0.11853 0.99659 0.0
H791 H 0.55172 0.08004 0.01439 0.0
H792 H 0.94199 0.76282 0.43529 0.0
H793 H 0.95743 0.8023 0.4465 0.0
H794 H 0.01797 0.76746 0.47716 0.0
H795 H 1.00238 0.72751 0.46633 0.0
H796 H 0.96912 0.81272 0.49542 0.0
H797 H 0.04402 0.82709 0.4319 0.0
H798 H 0.01952 0.80656 0.42664 0.0
H799 H 0.04064 0.79807 0.44872 0.0
C800 C 0.95852 0.76344 0.44457 0.0
C801 C 0.97084 0.74196 0.45014 0.0
C802 C 0.96738 0.78605 0.4508 0.0
C803 C 0.98884 0.78775 0.46254 0.0
C804 C 1.00148 0.7665 0.46785 0.0
H805 H 0.04517 0.92887 0.5084 0.0
H806 H 0.04285 0.88498 0.50173 0.0
C807 C 0.99256 0.74374 0.46165 0.0
C808 C 0.99714 0.81183 0.46996 0.0
H809 H 0.03544 0.85965 0.45526 0.0
C810 C 0.98385 0.82285 0.48692 0.0
C811 C 0.01643 0.82486 0.4589 0.0
C812 C 0.03104 0.81372 0.44043 0.0
C813 C 0.98874 0.84698 0.49244 0.0
C814 C 1.00717 0.86051 0.48043 0.0
C815 C 0.02129 0.84914 0.46436 0.0
C816 C 0.01018 0.88712 0.48265 0.0
C817 C 0.97366 0.85814 0.51054 0.0
C818 C 0.99295 0.90276 0.47352 0.0
C819 C 0.9942 0.92763 0.47722 0.0
C820 C 0.01277 0.93741 0.49014 0.0
C821 C 0.03062 0.92187 0.49842 0.0
C822 C 0.02935 0.89685 0.49465 0.0
H823 H 0.96431 0.84389 0.52223 0.0
H824 H 0.98441 0.87006 0.52159 0.0
H825 H 0.96032 0.8696 0.50137 0.0
H826 H 0.97816 0.89556 0.46399 0.0
H827 H 0.98023 0.93906 0.47045 0.0
H828 H 0.42065 0.73575 0.61817 0.0
H829 H 0.43157 0.6952 0.60716 0.0
H830 H 0.48343 0.72826 0.55846 0.0
H831 H 0.47226 0.76898 0.56886 0.0
H832 H 0.43051 0.67999 0.55821 0.0
H833 H 0.51826 0.67413 0.60022 0.0
H834 H 0.49617 0.69456 0.60942 0.0
H835 H 0.5126 0.70195 0.58273 0.0
C836 C 0.43433 0.73444 0.60505 0.0
C837 C 0.44552 0.75562 0.59431 0.0
C838 C 0.44062 0.71127 0.59892 0.0
C839 C 0.45838 0.70885 0.58218 0.0
C840 C 0.4699 0.72984 0.57169 0.0
H841 H 0.52065 0.58901 0.51649 0.0
H842 H 0.51023 0.62846 0.53051 0.0
C843 C 0.46353 0.75305 0.57771 0.0
C844 C 0.46406 0.68441 0.57479 0.0
H845 H 0.50731 0.64266 0.57561 0.0
C846 C 0.44723 0.6717 0.56209 0.0
C847 C 0.48592 0.67387 0.57986 0.0
C848 C 0.50429 0.68667 0.59395 0.0
C849 C 0.4519 0.64881 0.55378 0.0
C850 C 0.47378 0.63818 0.55889 0.0
C851 C 0.49054 0.65087 0.57177 0.0
C852 C 0.47987 0.61415 0.55056 0.0
C853 C 0.43367 0.63661 0.53902 0.0
C854 C 0.46636 0.59299 0.5574 0.0
C855 C 0.47215 0.57043 0.54926 0.0
C856 C 0.49174 0.56862 0.5344 0.0
C857 C 0.50543 0.58979 0.5279 0.0
C858 C 0.49954 0.61234 0.53591 0.0
H859 H 0.42087 0.64988 0.53153 0.0
H860 H 0.44198 0.62759 0.52431 0.0
H861 H 0.42379 0.62241 0.55024 0.0
H862 H 0.45142 0.59391 0.56914 0.0
H863 H 0.46137 0.5544 0.55473 0.0
H864 H 0.8663 0.92986 0.73669 0.0
H865 H 0.88537 0.94707 0.70027 0.0
H866 H 0.93562 0.88969 0.70521 0.0
H867 H 0.91689 0.87252 0.74171 0.0
H868 H 0.9319 0.96407 0.69172 0.0
H869 H 0.90978 0.8856 0.63834 0.0
H870 H 0.89577 0.88969 0.66632 0.0
H871 H 0.92465 0.87743 0.66539 0.0
C872 C 0.88152 0.92097 0.73017 0.0
C873 C 0.8899 0.89964 0.74216 0.0
C874 C 0.89235 0.9308 0.70925 0.0
C875 C 0.91172 0.91947 0.69975 0.0
C876 C 0.92038 0.89845 0.71186 0.0
H877 H 0.01028 0.97995 0.59091 0.0
H878 H 0.99152 0.96349 0.62781 0.0
C879 C 0.90959 0.88863 0.73277 0.0
C880 C 0.92296 0.92973 0.6773 0.0
H881 H 0.936 0.91619 0.6209 0.0
C882 C 0.93277 0.95361 0.67623 0.0
C883 C 0.92389 0.9162 0.65697 0.0
C884 C 0.91279 0.89089 0.65663 0.0
C885 C 0.94379 0.96414 0.65557 0.0
C886 C 0.94523 0.95038 0.63545 0.0
C887 C 0.9351 0.92665 0.63639 0.0
C888 C 0.95673 0.96046 0.61308 0.0
C889 C 0.95347 0.99008 0.65528 0.0
C890 C 0.94354 0.96385 0.5924 0.0
C891 C 0.95419 0.97328 0.57129 0.0
C892 C 0.97838 0.9793 0.57031 0.0
C893 C 0.99162 0.9756 0.59101 0.0
C894 C 0.9809 0.9663 0.61217 0.0
H895 H 0.94646 0.99993 0.67013 0.0
H896 H 0.97286 0.9898 0.65686 0.0
H897 H 0.94926 1.00045 0.63842 0.0
H898 H 0.9249 0.95936 0.59263 0.0
H899 H 0.94345 0.97577 0.5557 0.0
H900 H 0.59008 0.05107 0.30221 0.0
H901 H 0.58072 0.03549 0.26404 0.0
H902 H 0.51264 0.06772 0.26606 0.0
H903 H 0.52209 0.08377 0.30421 0.0
H904 H 0.54596 0.00565 0.24708 0.0
H905 H 0.54145 0.10061 0.20613 0.0
H906 H 0.55231 0.09406 0.23554 0.0
H907 H 0.52127 0.09338 0.23013 0.0
C908 C 0.57293 0.05442 0.29476 0.0
C909 C 0.55687 0.0688 0.30606 0.0
C910 C 0.56763 0.04557 0.27292 0.0
C911 C 0.54619 0.05088 0.26202 0.0
C912 C 0.52952 0.06393 0.27393 0.0
H913 H 0.50819 0.0295 0.11577 0.0
H914 H 0.50496 0.03507 0.15804 0.0
C915 C 0.53489 0.07301 0.29571 0.0
C916 C 0.54215 0.04408 0.23758 0.0
H917 H 0.53539 0.06857 0.18124 0.0
C918 C 0.54344 0.01937 0.2327 0.0
C919 C 0.53898 0.06206 0.21884 0.0
C920 C 0.53861 0.08904 0.22279 0.0
C921 C 0.54202 0.01221 0.2095 0.0
C922 C 0.53938 0.03025 0.1908 0.0
C923 C 0.53731 0.05482 0.19572 0.0
C924 C 0.54047 0.02441 0.16584 0.0
C925 C 0.54359 0.98546 0.2051 0.0
C926 C 0.5615 0.01658 0.15634 0.0
C927 C 0.56343 0.0135 0.13224 0.0
C928 C 0.54433 0.01816 0.11723 0.0
C929 C 0.5231 0.02547 0.12692 0.0
C930 C 0.52125 0.02874 0.15102 0.0
H931 H 0.53956 0.97352 0.2213 0.0
H932 H 0.53135 0.98047 0.19096 0.0
H933 H 0.56169 0.98179 0.19929 0.0
H934 H 0.57665 0.01355 0.16747 0.0
H935 H 0.57991 0.00766 0.12529 0.0
H936 H 0.36686 0.61406 0.30256 0.0
H937 H 0.38471 0.59712 0.3389 0.0
H938 H 0.43172 0.55598 0.29824 0.0
H939 H 0.41348 0.57225 0.26178 0.0
H940 H 0.41178 0.5289 0.33785 0.0
H941 H 0.45019 0.61825 0.36132 0.0
H942 H 0.41912 0.61822 0.35621 0.0
H943 H 0.43892 0.61342 0.33234 0.0
C944 C 0.38079 0.60116 0.30133 0.0
C945 C 0.38882 0.5946 0.27924 0.0
C946 C 0.39114 0.59171 0.32212 0.0
C947 C 0.40978 0.57562 0.32123 0.0
C948 C 0.41746 0.56852 0.29928 0.0
H949 H 0.50891 0.53918 0.43198 0.0
H950 H 0.48939 0.55241 0.39533 0.0
C951 C 0.40713 0.57797 0.27847 0.0
C952 C 0.42145 0.56639 0.34316 0.0
H953 H 0.4531 0.58489 0.38988 0.0
C954 C 0.42084 0.5411 0.34925 0.0
C955 C 0.43351 0.58235 0.3578 0.0
C956 C 0.43572 0.60955 0.35155 0.0
C957 C 0.43172 0.53137 0.36979 0.0
C958 C 0.44324 0.54741 0.38473 0.0
C959 C 0.44408 0.57266 0.37848 0.0
C960 C 0.45499 0.53842 0.40672 0.0
C961 C 0.43119 0.50399 0.37508 0.0
C962 C 0.44209 0.52622 0.42533 0.0
C963 C 0.45321 0.51857 0.44634 0.0
C964 C 0.47742 0.52313 0.44913 0.0
C965 C 0.49026 0.53532 0.43041 0.0
C966 C 0.47914 0.54293 0.40945 0.0
H967 H 0.42687 0.49406 0.35919 0.0
H968 H 0.44833 0.49773 0.382 0.0
H969 H 0.41756 0.49894 0.38871 0.0
H970 H 0.42335 0.52298 0.42377 0.0
H971 H 0.44279 0.50936 0.46046 0.0
H972 H 0.10849 0.43549 0.72759 0.0
H973 H 0.10186 0.4466 0.76789 0.0
H974 H 0.0415 0.39727 0.77416 0.0
H975 H 0.04823 0.38561 0.73385 0.0
H976 H 0.03416 0.44548 0.78884 0.0
H977 H 0.11319 0.40431 0.82972 0.0
H978 H 0.1192 0.4236 0.8034 0.0
H979 H 0.10191 0.39582 0.8017 0.0
C980 C 0.094 0.42668 0.73762 0.0
C981 C 0.07899 0.40951 0.72753 0.0
C982 C 0.09025 0.43308 0.76065 0.0
C983 C 0.07145 0.42244 0.77409 0.0
C984 C 0.05621 0.40555 0.76407 0.0
H985 H 0.0213 0.46012 0.91293 0.0
H986 H 0.02591 0.43966 0.87639 0.0
C987 C 0.05999 0.39905 0.74101 0.0
C988 C 0.06728 0.42982 0.79827 0.0
H989 H 0.09308 0.43266 0.85207 0.0
C990 C 0.04685 0.44242 0.80281 0.0
C991 C 0.08392 0.42577 0.81635 0.0
C992 C 0.1057 0.41144 0.81269 0.0
C993 C 0.0431 0.45209 0.82471 0.0
C994 C 0.06005 0.44859 0.84262 0.0
C995 C 0.08016 0.43536 0.83828 0.0
C996 C 0.05788 0.45967 0.86554 0.0
C997 C 0.02155 0.46688 0.82812 0.0
C998 C 0.07479 0.47702 0.87197 0.0
C999 C 0.07241 0.48851 0.89299 0.0
C1000 C 0.05306 0.48284 0.90805 0.0
C1001 C 0.03649 0.46487 0.90187 0.0
C1002 C 0.03893 0.45334 0.88083 0.0
H1003 H 0.01313 0.47243 0.81108 0.0
H1004 H 1.00854 0.45569 0.8391 0.0
H1005 H 0.026 0.4836 0.83736 0.0
H1006 H 0.08966 0.48202 0.86048 0.0
H1007 H 0.08571 0.50189 0.89739 0.0
H1008 H 0.70658 0.87317 0.88206 0.0
H1009 H 0.67165 0.89004 0.89939 0.0
H1010 H 0.71567 0.9377 0.93869 0.0
H1011 H 0.75061 0.92123 0.9211 0.0
H1012 H 0.65639 0.88994 0.94377 0.0
H1013 H 0.67138 0.98631 0.90971 0.0
H1014 H 0.68815 0.96168 0.89941 0.0
H1015 H 0.6956 0.97483 0.92667 0.0
C1016 C 0.70883 0.88725 0.8944 0.0
C1017 C 0.73145 0.89595 0.90004 0.0
C1018 C 0.68881 0.89694 0.90426 0.0
C1019 C 0.69087 0.91554 0.92005 0.0
C1020 C 0.71346 0.92394 0.92603 0.0
H1021 H 0.59132 0.98269 0.01111 0.0
H1022 H 0.62599 0.96575 0.99318 0.0
C1023 C 0.73348 0.91442 0.916 0.0
C1024 C 0.66944 0.92564 0.93067 0.0
H1025 H 0.64147 0.97891 0.93909 0.0
C1026 C 0.65311 0.90938 0.94257 0.0
C1027 C 0.66495 0.95105 0.9291 0.0
C1028 C 0.68082 0.96945 0.91533 0.0
C1029 C 0.63279 0.91783 0.95324 0.0
C1030 C 0.62865 0.94319 0.95207 0.0
C1031 C 0.64481 0.95947 0.94012 0.0
C1032 C 0.60748 0.9531 0.96303 0.0
C1033 C 0.61593 0.8997 0.966 0.0
C1034 C 0.58558 0.95166 0.95199 0.0
C1035 C 0.56574 0.96147 0.96209 0.0
C1036 C 0.56737 0.97279 0.98356 0.0
C1037 C 0.58937 0.97402 0.99464 0.0
C1038 C 0.60923 0.9644 0.9844 0.0
H1039 H 0.6227 0.88084 0.96725 0.0
H1040 H 0.6124 0.90531 0.98406 0.0
H1041 H 0.59897 0.89952 0.9565 0.0
H1042 H 0.58388 0.9431 0.93543 0.0
H1043 H 0.54913 0.96021 0.95303 0.0
H1044 H 0.72985 0.07619 0.40045 0.0
H1045 H 0.77086 0.06683 0.40802 0.0
H1046 H 0.77945 0.13255 0.44511 0.0
H1047 H 0.73813 0.14155 0.43851 0.0
H1048 H 0.81202 0.09367 0.39573 0.0
H1049 H 0.80119 0.07929 0.49316 0.0
H1050 H 0.77648 0.08113 0.4735 0.0
H1051 H 0.79241 0.10848 0.48037 0.0
C1052 C 0.74037 0.08853 0.41046 0.0
C1053 C 0.73064 0.10947 0.41911 0.0
C1054 C 0.76385 0.08328 0.41456 0.0
C1055 C 0.77807 0.09884 0.42737 0.0
C1056 C 0.76865 0.12011 0.4355 0.0
H1057 H 0.91929 0.06648 0.47893 0.0
H1058 H 0.88534 0.09037 0.46617 0.0
C1059 C 0.7451 0.12533 0.43151 0.0
C1060 C 0.80257 0.09229 0.43257 0.0
H1061 H 0.83876 0.07383 0.47754 0.0
C1062 C 0.81797 0.08955 0.41362 0.0
C1063 C 0.81026 0.08705 0.45594 0.0
C1064 C 0.79423 0.08892 0.47695 0.0
C1065 C 0.84069 0.08103 0.41741 0.0
C1066 C 0.84803 0.0749 0.44071 0.0
C1067 C 0.83303 0.07866 0.4597 0.0
C1068 C 0.87008 0.0621 0.44577 0.0
C1069 C 0.85654 0.07827 0.39647 0.0
C1070 C 0.87276 0.03846 0.43834 0.0
C1071 C 0.89199 0.02481 0.44565 0.0
C1072 C 0.90889 0.03456 0.46055 0.0
C1073 C 0.90666 0.05862 0.46725 0.0
C1074 C 0.88727 0.07223 0.46007 0.0
H1075 H 0.8513 0.0903 0.38097 0.0
H1076 H 0.87512 0.08262 0.40072 0.0
H1077 H 0.85531 0.05904 0.39148 0.0
H1078 H 0.85946 0.03016 0.42765 0.0
H1079 H 0.89339 0.0064 0.44008 0.0
H1080 H 0.23029 0.64069 0.09688 0.0
H1081 H 0.19397 0.6256 0.0795 0.0
H1082 H 0.18978 0.5657 0.13284 0.0
H1083 H 0.22646 0.58026 0.14996 0.0
H1084 H 0.18289 0.55137 0.08712 0.0
H1085 H 0.12688 0.62918 0.10551 0.0
H1086 H 0.15385 0.63795 0.09029 0.0
H1087 H 0.15466 0.62408 0.11986 0.0
C1088 C 0.2217 0.62425 0.10487 0.0
C1089 C 0.23127 0.6117 0.12484 0.0
C1090 C 0.2008 0.61582 0.09507 0.0
C1091 C 0.18901 0.59475 0.1051 0.0
C1092 C 0.19853 0.58212 0.12495 0.0
H1093 H 0.04861 0.54043 0.07305 0.0
H1094 H 0.08352 0.55701 0.09197 0.0
C1095 C 0.2194 0.59055 0.1348 0.0
C1096 C 0.16719 0.58537 0.09437 0.0
H1097 H 0.11101 0.60026 0.08009 0.0
C1098 C 0.16714 0.56201 0.08565 0.0
C1099 C 0.14661 0.59919 0.09272 0.0
C1100 C 0.14532 0.6239 0.10278 0.0
C1101 C 0.14718 0.55228 0.07492 0.0
C1102 C 0.12685 0.56643 0.07256 0.0
C1103 C 0.12672 0.58958 0.08171 0.0
C1104 C 0.10551 0.55737 0.06079 0.0
C1105 C 0.14792 0.5268 0.06644 0.0
C1106 C 0.1062 0.55261 0.03686 0.0
C1107 C 0.08632 0.54316 0.02599 0.0
C1108 C 0.06533 0.53837 0.03884 0.0
C1109 C 0.06452 0.54381 0.06267 0.0
C1110 C 0.08443 0.5533 0.07351 0.0
H1111 H 0.16244 0.51623 0.07469 0.0
H1112 H 0.13109 0.51655 0.07035 0.0
H1113 H 0.15074 0.52805 0.04706 0.0
H1114 H 0.12218 0.55606 0.02662 0.0
H1115 H 0.08751 0.53931 1.00758 0.0
H1116 H 0.22761 0.40087 0.58045 0.0
H1117 H 0.26714 0.41736 0.57125 0.0
H1118 H 0.23819 0.47793 0.52975 0.0
H1119 H 0.19829 0.46146 0.5389 0.0
H1120 H 0.27882 0.44734 0.50931 0.0
H1121 H 0.29452 0.48571 0.59607 0.0
H1122 H 0.28075 0.45566 0.59695 0.0
H1123 H 0.26545 0.48144 0.58416 0.0
C1124 C 0.22962 0.41757 0.56917 0.0
C1125 C 0.20988 0.42982 0.56028 0.0
C1126 C 0.25218 0.42705 0.5641 0.0
C1127 C 0.25545 0.44889 0.54999 0.0
C1128 C 0.23589 0.46109 0.54078 0.0
H1129 H 0.4003 0.50954 0.53683 0.0
H1130 H 0.35713 0.50882 0.5369 0.0
C1131 C 0.2132 0.45171 0.54605 0.0
C1132 C 0.27953 0.45849 0.54488 0.0
H1133 H 0.32822 0.48018 0.57216 0.0
C1134 C 0.28956 0.455 0.52283 0.0
C1135 C 0.29332 0.46864 0.56254 0.0
C1136 C 0.28301 0.47331 0.58625 0.0
C1137 C 0.31354 0.45999 0.5185 0.0
C1138 C 0.3277 0.46852 0.53674 0.0
C1139 C 0.31731 0.47354 0.55825 0.0
C1140 C 0.35358 0.4696 0.53488 0.0
C1141 C 0.32376 0.45534 0.49474 0.0
C1142 C 0.36572 0.4478 0.53387 0.0
C1143 C 0.39018 0.44815 0.53406 0.0
C1144 C 0.403 0.47032 0.53521 0.0
C1145 C 0.39083 0.49224 0.53578 0.0
C1146 C 0.36625 0.49185 0.53586 0.0
H1147 H 0.31006 0.4555 0.48091 0.0
H1148 H 0.33769 0.46924 0.48938 0.0
H1149 H 0.33174 0.43705 0.49578 0.0
H1150 H 0.35624 0.43041 0.53347 0.0
H1151 H 0.39909 0.43103 0.53332 0.0
H1152 H 0.87454 0.71295 0.88376 0.0
H1153 H 0.8942 0.67762 0.90228 0.0
H1154 H 0.92531 0.72334 0.95316 0.0
H1155 H 0.90642 0.75901 0.93419 0.0
H1156 H 0.95723 0.69322 0.93529 0.0
H1157 H 0.87717 0.63922 0.96384 0.0
H1158 H 0.87765 0.64808 0.93285 0.0
H1159 H 0.87647 0.67117 0.95382 0.0
C1160 C 0.88566 0.71559 0.89881 0.0
C1161 C 0.88879 0.73895 0.90745 0.0
C1162 C 0.89667 0.69525 0.90959 0.0
C1163 C 0.91094 0.69766 0.92941 0.0
C1164 C 0.91424 0.72093 0.93802 0.0
H1165 H 0.96118 0.57354 0.01886 0.0
H1166 H 0.94224 0.61099 1.00377 0.0
C1167 C 0.90325 0.74131 0.92724 0.0
C1168 C 0.92298 0.67608 0.94069 0.0
H1169 H 0.91322 0.61818 0.966 0.0
C1170 C 0.94759 0.67687 0.94212 0.0
C1171 C 0.91044 0.65483 0.94997 0.0
C1172 C 0.88397 0.65329 0.95029 0.0
C1173 C 0.95998 0.65684 0.95198 0.0
C1174 C 0.94749 0.63519 0.96029 0.0
C1175 C 0.92285 0.63463 0.95942 0.0
C1176 C 0.95962 0.61283 0.96971 0.0
C1177 C 0.98635 0.65921 0.95365 0.0
C1178 C 0.97562 0.60124 0.95559 0.0
C1179 C 0.98654 0.57989 0.9642 0.0
C1180 C 0.98157 0.56946 0.98709 0.0
C1181 C 0.9655 0.58108 1.0012 0.0
C1182 C 0.95461 0.60248 0.99257 0.0
H1183 H 0.99243 0.6787 0.95318 0.0
H1184 H 0.99277 0.64959 0.97009 0.0
H1185 H 0.99442 0.65091 0.9384 0.0
H1186 H 0.9794 0.60848 0.93772 0.0
H1187 H 0.99866 0.57138 0.95275 0.0
H1188 H 0.37185 0.77215 0.09736 0.0
H1189 H 0.39179 0.80943 0.08 0.0
H1190 H 0.45009 0.79718 0.12687 0.0
H1191 H 0.43034 0.75979 0.14426 0.0
H1192 H 0.40931 0.85145 0.10757 0.0
H1193 H 0.47792 0.80662 0.05686 0.0
H1194 H 0.45058 0.79114 0.06592 0.0
H1195 H 0.47318 0.79559 0.08715 0.0
C1196 C 0.389 0.77729 0.10382 0.0
C1197 C 0.39956 0.76304 0.12213 0.0
C1198 C 0.40029 0.79861 0.09398 0.0
C1199 C 0.42243 0.80588 0.10208 0.0
C1200 C 0.43307 0.79172 0.1203 0.0
H1201 H 0.49926 0.94495 0.07588 0.0
H1202 H 0.48186 0.9066 0.09385 0.0
C1203 C 0.4217 0.7705 0.1303 0.0
C1204 C 0.43418 0.82857 0.09175 0.0
H1205 H 0.47999 0.8498 0.05631 0.0
C1206 C 0.42479 0.85114 0.09641 0.0
C1207 C 0.45427 0.82797 0.07712 0.0
C1208 C 0.46462 0.80408 0.07125 0.0
C1209 C 0.43512 0.87325 0.0869 0.0
C1210 C 0.45528 0.87266 0.07239 0.0
C1211 C 0.4646 0.85009 0.06759 0.0
C1212 C 0.46648 0.89537 0.06148 0.0
C1213 C 0.42428 0.89712 0.09207 0.0
C1214 C 0.46378 0.90147 0.03731 0.0
C1215 C 0.47355 0.92337 0.02702 0.0
C1216 C 0.48641 0.93943 0.04071 0.0
C1217 C 0.48949 0.93297 0.06486 0.0
C1218 C 0.47953 0.91114 0.07517 0.0
H1219 H 0.40698 0.8943 0.10111 0.0
H1220 H 0.43619 0.90729 0.10356 0.0
H1221 H 0.42198 0.90869 0.07547 0.0
H1222 H 0.45378 0.88946 0.0265 0.0
H1223 H 0.47091 0.92776 0.00837 0.0
H1224 H 0.07286 0.24698 0.58641 0.0
H1225 H 0.05543 0.20769 0.57688 0.0
H1226 H 0.99629 0.24448 0.5454 0.0
H1227 H 0.01394 0.28415 0.55447 0.0
H1228 H 0.00963 0.18727 0.59109 0.0
H1229 H 0.0212 0.2011 0.49353 0.0
H1230 H 0.0373 0.21942 0.51355 0.0
H1231 H 1.00674 0.22444 0.5085 0.0
C1232 C 0.05627 0.24678 0.57722 0.0
C1233 C 0.0449 0.26869 0.57095 0.0
C1234 C 0.04624 0.22431 0.57197 0.0
C1235 C 0.0247 0.22324 0.56028 0.0
C1236 C 0.01307 0.24499 0.55422 0.0
H1237 H 0.97043 0.08448 0.50818 0.0
H1238 H 0.97061 0.1273 0.51857 0.0
C1239 C 0.02308 0.26757 0.55955 0.0
C1240 C 0.01481 0.19915 0.55447 0.0
H1241 H 1.00769 0.16232 0.50883 0.0
C1242 C 1.00883 0.1819 0.57308 0.0
C1243 C 0.01361 0.19231 0.53096 0.0
C1244 C 0.02014 0.21015 0.51039 0.0
C1245 C 1.0027 0.15763 0.56887 0.0
C1246 C 1.00297 0.15038 0.54547 0.0
C1247 C 1.00755 0.16797 0.52675 0.0
C1248 C 1.00153 0.12426 0.54035 0.0
C1249 C 0.99661 0.13978 0.58955 0.0
C1250 C 0.01891 0.10852 0.54904 0.0
C1251 C 0.01893 0.08427 0.5431 0.0
C1252 C 1.00158 0.07522 0.52824 0.0
C1253 C 0.98395 0.0909 0.51975 0.0
C1254 C 0.98404 0.11533 0.52564 0.0
H1255 H 0.98975 0.14932 0.60467 0.0
H1256 H 0.98335 0.1258 0.58467 0.0
H1257 H 0.01268 0.13025 0.59547 0.0
H1258 H 0.03286 0.11519 0.55999 0.0
H1259 H 0.03279 0.07272 0.54991 0.0
H1260 H 0.60217 0.25368 0.45545 0.0
H1261 H 0.59362 0.29495 0.4662 0.0
H1262 H 0.52792 0.29165 0.42919 0.0
H1263 H 0.53617 0.25016 0.41856 0.0
H1264 H 0.55601 0.33556 0.4189 0.0
H1265 H 0.5438 0.31272 0.51511 0.0
H1266 H 0.57061 0.30254 0.50273 0.0
H1267 H 0.54298 0.28974 0.4938 0.0
C1268 C 0.58572 0.26157 0.4499 0.0
C1269 C 0.56974 0.24858 0.43631 0.0
C1270 C 0.58093 0.28517 0.45598 0.0
C1271 C 0.56006 0.29616 0.44867 0.0
C1272 C 0.54413 0.28339 0.43499 0.0
H1273 H 0.49506 0.42213 0.49913 0.0
H1274 H 0.50519 0.382 0.48679 0.0
C1275 C 0.54889 0.25975 0.4289 0.0
C1276 C 0.55496 0.32113 0.4551 0.0
H1277 H 0.54409 0.3547 0.50212 0.0
C1278 C 0.55339 0.33982 0.43707 0.0
C1279 C 0.55143 0.32644 0.47882 0.0
C1280 C 0.55208 0.30681 0.49877 0.0
C1281 C 0.54844 0.36384 0.44218 0.0
C1282 C 0.54525 0.36921 0.46593 0.0
C1283 C 0.54675 0.35049 0.48394 0.0
C1284 C 0.5392 0.39388 0.47251 0.0
C1285 C 0.54616 0.38315 0.42215 0.0
C1286 C 0.55505 0.41384 0.46856 0.0
C1287 C 0.54932 0.43692 0.47558 0.0
C1288 C 0.52768 0.44029 0.48674 0.0
C1289 C 0.51186 0.4202 0.49056 0.0
C1290 C 0.51761 0.39723 0.48356 0.0
H1291 H 0.54432 0.37501 0.40486 0.0
H1292 H 0.53075 0.39459 0.42497 0.0
H1293 H 0.56208 0.39533 0.42136 0.0
H1294 H 0.57197 0.41149 0.46037 0.0
H1295 H 0.5619 0.45202 0.4725 0.0
loop_
_geom_bond_atom_site_label_1
_geom_bond_atom_site_label_2
_geom_bond_distance
_geom_bond_site_symmetry_2
_ccdc_geom_bond_type
C0 C1 1.386 . S
C0 C2 1.397 . S
C0 H24 0.931 . S
C1 C0 1.386 . S
C1 C5 1.397 . S
C2 C0 1.397 . S
C2 C3 1.384 . S
C2 H25 0.930 . S
C3 C2 1.384 . S
C3 C4 1.377 . S
C3 C6 1.481 . S
C4 C3 1.377 . S
C4 C5 1.389 . S
C4 H26 0.929 . S
C5 C1 1.397 . S
C5 C4 1.389 . S
C5 H27 0.931 . S
C6 C3 1.481 . S
C6 C7 1.387 . S
C6 C11 1.390 . S
C7 C6 1.387 . S
C7 C8 1.401 . S
C7 H28 0.930 . S
C8 C7 1.401 . S
C8 C9 1.376 . S
C8 C17 1.511 . S
C9 C8 1.376 . S
C9 C10 1.392 . S
C9 H30 0.931 . S
C10 C9 1.392 . S
C10 C11 1.361 . S
C10 C12 1.500 . S
C11 C6 1.390 . S
C11 C10 1.361 . S
C11 H29 0.931 . S
C12 C10 1.500 . S
C12 C13 1.371 . S
C12 C14 1.365 . S
C13 C12 1.371 . S
C13 C23 1.386 . S
C13 H31 0.931 . S
C14 C12 1.365 . S
C14 C15 1.409 . S
C14 H32 0.929 . S
C15 C14 1.409 . S
C15 C16 1.380 . S
C15 H33 0.930 . S
C16 C15 1.380 . S
C16 C23 1.357 . S
C17 C8 1.511 . S
C17 C18 1.341 . S
C17 C19 1.371 . S
C18 C17 1.341 . S
C18 C22 1.394 . S
C18 H34 0.930 . S
C19 C17 1.371 . S
C19 C20 1.392 . S
C19 H35 0.931 . S
C20 C19 1.392 . S
C20 C21 1.331 . S
C20 H38 0.932 . S
C21 C20 1.331 . S
C21 C22 1.336 . S
C22 C18 1.394 . S
C22 C21 1.336 . S
C22 H37 0.929 . S
C23 C13 1.386 . S
C23 C16 1.357 . S
C23 H36 0.928 . S
H24 C0 0.931 . S
H25 C2 0.930 . S
H26 C4 0.929 . S
H27 C5 0.931 . S
H28 C7 0.930 . S
H29 C11 0.931 . S
H30 C9 0.931 . S
H31 C13 0.931 . S
H32 C14 0.929 . S
H33 C15 0.930 . S
H34 C18 0.930 . S
H35 C19 0.931 . S
H36 C23 0.928 . S
H37 C22 0.929 . S
H38 C20 0.932 . S
C39 C40 1.386 . S
C39 C41 1.397 . S
C39 H63 0.931 . S
C40 C39 1.386 . S
C40 C44 1.397 . S
C41 C39 1.397 . S
C41 C42 1.384 . S
C41 H64 0.930 . S
C42 C41 1.384 . S
C42 C43 1.377 . S
C42 C45 1.481 . S
C43 C42 1.377 . S
C43 C44 1.389 . S
C43 H65 0.929 . S
C44 C40 1.397 . S
C44 C43 1.389 . S
C44 H66 0.931 . S
C45 C42 1.481 . S
C45 C46 1.387 . S
C45 C50 1.390 . S
C46 C45 1.387 . S
C46 C47 1.401 . S
C46 H67 0.930 . S
C47 C46 1.401 . S
C47 C48 1.376 . S
C47 C56 1.511 . S
C48 C47 1.376 . S
C48 C49 1.392 . S
C48 H69 0.931 . S
C49 C48 1.392 . S
C49 C50 1.361 . S
C49 C51 1.500 . S
C50 C45 1.390 . S
C50 C49 1.361 . S
C50 H68 0.931 . S
C51 C49 1.500 . S
C51 C52 1.371 . S
C51 C53 1.365 . S
C52 C51 1.371 . S
C52 C62 1.386 . S
C52 H70 0.931 . S
C53 C51 1.365 . S
C53 C54 1.409 . S
C53 H71 0.929 . S
C54 C53 1.409 . S
C54 C55 1.380 . S
C54 H72 0.930 . S
C55 C54 1.380 . S
C55 C62 1.357 . S
C56 C47 1.511 . S
C56 C57 1.341 . S
C56 C58 1.371 . S
C57 C56 1.341 . S
C57 C61 1.394 . S
C57 H73 0.930 . S
C58 C56 1.371 . S
C58 C59 1.392 . S
C58 H74 0.931 . S
C59 C58 1.392 . S
C59 C60 1.331 . S
C59 H77 0.932 . S
C60 C59 1.331 . S
C60 C61 1.336 . S
C61 C57 1.394 . S
C61 C60 1.336 . S
C61 H76 0.929 . S
C62 C52 1.386 . S
C62 C55 1.357 . S
C62 H75 0.928 . S
H63 C39 0.931 . S
H64 C41 0.930 . S
H65 C43 0.929 . S
H66 C44 0.931 . S
H67 C46 0.930 . S
H68 C50 0.931 . S
H69 C48 0.931 . S
H70 C52 0.931 . S
H71 C53 0.929 . S
H72 C54 0.930 . S
H73 C57 0.930 . S
H74 C58 0.931 . S
H75 C62 0.928 . S
H76 C61 0.929 . S
H77 C59 0.932 . S
C78 C79 1.386 . S
C78 C80 1.397 . S
C78 H102 0.931 . S
C79 C78 1.386 . S
C79 C83 1.397 . S
C80 C78 1.397 . S
C80 C81 1.384 . S
C80 H103 0.930 . S
C81 C80 1.384 . S
C81 C82 1.377 . S
C81 C84 1.481 . S
C82 C81 1.377 . S
C82 C83 1.389 . S
C82 H104 0.929 . S
C83 C79 1.397 . S
C83 C82 1.389 . S
C83 H105 0.931 . S
C84 C81 1.481 . S
C84 C85 1.387 . S
C84 C89 1.390 . S
C85 C84 1.387 . S
C85 C86 1.401 . S
C85 H106 0.930 . S
C86 C85 1.401 . S
C86 C87 1.376 . S
C86 C95 1.511 . S
C87 C86 1.376 . S
C87 C88 1.392 . S
C87 H108 0.931 . S
C88 C87 1.392 . S
C88 C89 1.361 . S
C88 C90 1.500 . S
C89 C84 1.390 . S
C89 C88 1.361 . S
C89 H107 0.931 . S
C90 C88 1.500 . S
C90 C91 1.371 . S
C90 C92 1.365 . S
C91 C90 1.371 . S
C91 C101 1.386 . S
C91 H109 0.931 . S
C92 C90 1.365 . S
C92 C93 1.409 . S
C92 H110 0.929 . S
C93 C92 1.409 . S
C93 C94 1.380 . S
C93 H111 0.930 . S
C94 C93 1.380 . S
C94 C101 1.357 . S
C95 C86 1.511 . S
C95 C96 1.341 . S
C95 C97 1.371 . S
C96 C95 1.341 . S
C96 C100 1.394 . S
C96 H112 0.930 . S
C97 C95 1.371 . S
C97 C98 1.392 . S
C97 H113 0.931 . S
C98 C97 1.392 . S
C98 C99 1.331 . S
C98 H116 0.932 . S
C99 C98 1.331 . S
C99 C100 1.336 . S
C100 C96 1.394 . S
C100 C99 1.336 . S
C100 H115 0.929 . S
C101 C91 1.386 . S
C101 C94 1.357 . S
C101 H114 0.928 . S
H102 C78 0.931 . S
H103 C80 0.930 . S
H104 C82 0.929 . S
H105 C83 0.931 . S
H106 C85 0.930 . S
H107 C89 0.931 . S
H108 C87 0.931 . S
H109 C91 0.931 . S
H110 C92 0.929 . S
H111 C93 0.930 . S
H112 C96 0.930 . S
H113 C97 0.931 . S
H114 C101 0.928 . S
H115 C100 0.929 . S
H116 C98 0.932 . S
C117 C118 1.386 . S
C117 C119 1.397 . S
C117 H141 0.931 . S
C118 C117 1.386 . S
C118 C122 1.397 . S
C119 C117 1.397 . S
C119 C120 1.384 . S
C119 H142 0.930 . S
C120 C119 1.384 . S
C120 C121 1.377 . S
C120 C123 1.481 . S
C121 C120 1.377 . S
C121 C122 1.389 . S
C121 H143 0.929 . S
C122 C118 1.397 . S
C122 C121 1.389 . S
C122 H144 0.931 . S
C123 C120 1.481 . S
C123 C124 1.387 . S
C123 C128 1.390 . S
C124 C123 1.387 . S
C124 C125 1.401 . S
C124 H145 0.930 . S
C125 C124 1.401 . S
C125 C126 1.376 . S
C125 C134 1.511 . S
C126 C125 1.376 . S
C126 C127 1.392 . S
C126 H147 0.931 . S
C127 C126 1.392 . S
C127 C128 1.361 . S
C127 C129 1.500 . S
C128 C123 1.390 . S
C128 C127 1.361 . S
C128 H146 0.931 . S
C129 C127 1.500 . S
C129 C130 1.371 . S
C129 C131 1.365 . S
C130 C129 1.371 . S
C130 C140 1.386 . S
C130 H148 0.931 . S
C131 C129 1.365 . S
C131 C132 1.409 . S
C131 H149 0.929 . S
C132 C131 1.409 . S
C132 C133 1.380 . S
C132 H150 0.930 . S
C133 C132 1.380 . S
C133 C140 1.357 . S
C134 C125 1.511 . S
C134 C135 1.341 . S
C134 C136 1.371 . S
C135 C134 1.341 . S
C135 C139 1.394 . S
C135 H151 0.930 . S
C136 C134 1.371 . S
C136 C137 1.392 . S
C136 H152 0.931 . S
C137 C136 1.392 . S
C137 C138 1.331 . S
C137 H155 0.932 . S
C138 C137 1.331 . S
C138 C139 1.336 . S
C139 C135 1.394 . S
C139 C138 1.336 . S
C139 H154 0.929 . S
C140 C130 1.386 . S
C140 C133 1.357 . S
C140 H153 0.928 . S
H141 C117 0.931 . S
H142 C119 0.930 . S
H143 C121 0.929 . S
H144 C122 0.931 . S
H145 C124 0.930 . S
H146 C128 0.931 . S
H147 C126 0.931 . S
H148 C130 0.931 . S
H149 C131 0.929 . S
H150 C132 0.930 . S
H151 C135 0.930 . S
H152 C136 0.931 . S
H153 C140 0.928 . S
H154 C139 0.929 . S
H155 C137 0.932 . S
C156 C157 1.386 . S
C156 C158 1.397 . S
C156 H180 0.931 . S
C157 C156 1.386 . S
C157 C161 1.397 . S
C158 C156 1.397 . S
C158 C159 1.384 . S
C158 H181 0.930 . S
C159 C158 1.384 . S
C159 C160 1.377 . S
C159 C162 1.481 . S
C160 C159 1.377 . S
C160 C161 1.389 . S
C160 H182 0.929 . S
C161 C157 1.397 . S
C161 C160 1.389 . S
C161 H183 0.931 . S
C162 C159 1.481 . S
C162 C163 1.387 . S
C162 C167 1.390 . S
C163 C162 1.387 . S
C163 C164 1.401 . S
C163 H184 0.930 . S
C164 C163 1.401 . S
C164 C165 1.376 . S
C164 C173 1.511 . S
C165 C164 1.376 . S
C165 C166 1.392 . S
C165 H186 0.931 . S
C166 C165 1.392 . S
C166 C167 1.361 . S
C166 C168 1.500 . S
C167 C162 1.390 . S
C167 C166 1.361 . S
C167 H185 0.931 . S
C168 C166 1.500 . S
C168 C169 1.371 . S
C168 C170 1.365 . S
C169 C168 1.371 . S
C169 C179 1.386 . S
C169 H187 0.931 . S
C170 C168 1.365 . S
C170 C171 1.409 . S
C170 H188 0.929 . S
C171 C170 1.409 . S
C171 C172 1.380 . S
C171 H189 0.930 . S
C172 C171 1.380 . S
C172 C179 1.357 . S
C173 C164 1.511 . S
C173 C174 1.341 . S
C173 C175 1.371 . S
C174 C173 1.341 . S
C174 C178 1.394 . S
C174 H190 0.930 . S
C175 C173 1.371 . S
C175 C176 1.392 . S
C175 H191 0.931 . S
C176 C175 1.392 . S
C176 C177 1.331 . S
C176 H194 0.932 . S
C177 C176 1.331 . S
C177 C178 1.336 . S
C178 C174 1.394 . S
C178 C177 1.336 . S
C178 H193 0.929 . S
C179 C169 1.386 . S
C179 C172 1.357 . S
C179 H192 0.928 . S
H180 C156 0.931 . S
H181 C158 0.930 . S
H182 C160 0.929 . S
H183 C161 0.931 . S
H184 C163 0.930 . S
H185 C167 0.931 . S
H186 C165 0.931 . S
H187 C169 0.931 . S
H188 C170 0.929 . S
H189 C171 0.930 . S
H190 C174 0.930 . S
H191 C175 0.931 . S
H192 C179 0.928 . S
H193 C178 0.929 . S
H194 C176 0.932 . S
C195 C196 1.386 . S
C195 C197 1.397 . S
C195 H219 0.931 . S
C196 C195 1.386 . S
C196 C200 1.397 . S
C197 C195 1.397 . S
C197 C198 1.384 . S
C197 H220 0.930 . S
C198 C197 1.384 . S
C198 C199 1.377 . S
C198 C201 1.481 . S
C199 C198 1.377 . S
C199 C200 1.389 . S
C199 H221 0.929 . S
C200 C196 1.397 . S
C200 C199 1.389 . S
C200 H222 0.931 . S
C201 C198 1.481 . S
C201 C202 1.387 . S
C201 C206 1.390 . S
C202 C201 1.387 . S
C202 C203 1.401 . S
C202 H223 0.930 . S
C203 C202 1.401 . S
C203 C204 1.376 . S
C203 C212 1.511 . S
C204 C203 1.376 . S
C204 C205 1.392 . S
C204 H225 0.931 . S
C205 C204 1.392 . S
C205 C206 1.361 . S
C205 C207 1.500 . S
C206 C201 1.390 . S
C206 C205 1.361 . S
C206 H224 0.931 . S
C207 C205 1.500 . S
C207 C208 1.371 . S
C207 C209 1.365 . S
C208 C207 1.371 . S
C208 C218 1.386 . S
C208 H226 0.931 . S
C209 C207 1.365 . S
C209 C210 1.409 . S
C209 H227 0.929 . S
C210 C209 1.409 . S
C210 C211 1.380 . S
C210 H228 0.930 . S
C211 C210 1.380 . S
C211 C218 1.357 . S
C212 C203 1.511 . S
C212 C213 1.341 . S
C212 C214 1.371 . S
C213 C212 1.341 . S
C213 C217 1.394 . S
C213 H229 0.930 . S
C214 C212 1.371 . S
C214 C215 1.392 . S
C214 H230 0.931 . S
C215 C214 1.392 . S
C215 C216 1.331 . S
C215 H233 0.932 . S
C216 C215 1.331 . S
C216 C217 1.336 . S
C217 C213 1.394 . S
C217 C216 1.336 . S
C217 H232 0.929 . S
C218 C208 1.386 . S
C218 C211 1.357 . S
C218 H231 0.928 . S
H219 C195 0.931 . S
H220 C197 0.930 . S
H221 C199 0.929 . S
H222 C200 0.931 . S
H223 C202 0.930 . S
H224 C206 0.931 . S
H225 C204 0.931 . S
H226 C208 0.931 . S
H227 C209 0.929 . S
H228 C210 0.930 . S
H229 C213 0.930 . S
H230 C214 0.931 . S
H231 C218 0.928 . S
H232 C217 0.929 . S
H233 C215 0.932 . S
C234 C235 1.386 . S
C234 C236 1.397 . S
C234 H258 0.931 . S
C235 C234 1.386 . S
C235 C239 1.397 . S
C236 C234 1.397 . S
C236 C237 1.384 . S
C236 H259 0.930 . S
C237 C236 1.384 . S
C237 C238 1.377 . S
C237 C240 1.481 . S
C238 C237 1.377 . S
C238 C239 1.389 . S
C238 H260 0.929 . S
C239 C235 1.397 . S
C239 C238 1.389 . S
C239 H261 0.931 . S
C240 C237 1.481 . S
C240 C241 1.387 . S
C240 C245 1.390 . S
C241 C240 1.387 . S
C241 C242 1.401 . S
C241 H262 0.930 . S
C242 C241 1.401 . S
C242 C243 1.376 . S
C242 C251 1.511 . S
C243 C242 1.376 . S
C243 C244 1.392 . S
C243 H264 0.931 . S
C244 C243 1.392 . S
C244 C245 1.361 . S
C244 C246 1.500 . S
C245 C240 1.390 . S
C245 C244 1.361 . S
C245 H263 0.931 . S
C246 C244 1.500 . S
C246 C247 1.371 . S
C246 C248 1.365 . S
C247 C246 1.371 . S
C247 C257 1.386 . S
C247 H265 0.931 . S
C248 C246 1.365 . S
C248 C249 1.409 . S
C248 H266 0.929 . S
C249 C248 1.409 . S
C249 C250 1.380 . S
C249 H267 0.930 . S
C250 C249 1.380 . S
C250 C257 1.357 . S
C251 C242 1.511 . S
C251 C252 1.341 . S
C251 C253 1.371 . S
C252 C251 1.341 . S
C252 C256 1.394 . S
C252 H268 0.930 . S
C253 C251 1.371 . S
C253 C254 1.392 . S
C253 H269 0.931 . S
C254 C253 1.392 . S
C254 C255 1.331 . S
C254 H272 0.932 . S
C255 C254 1.331 . S
C255 C256 1.336 . S
C256 C252 1.394 . S
C256 C255 1.336 . S
C256 H271 0.929 . S
C257 C247 1.386 . S
C257 C250 1.357 . S
C257 H270 0.928 . S
H258 C234 0.931 . S
H259 C236 0.930 . S
H260 C238 0.929 . S
H261 C239 0.931 . S
H262 C241 0.930 . S
H263 C245 0.931 . S
H264 C243 0.931 . S
H265 C247 0.931 . S
H266 C248 0.929 . S
H267 C249 0.930 . S
H268 C252 0.930 . S
H269 C253 0.931 . S
H270 C257 0.928 . S
H271 C256 0.929 . S
H272 C254 0.932 . S
C273 C274 1.386 . S
C273 C275 1.397 . S
C273 H297 0.931 . S
C274 C273 1.386 . S
C274 C278 1.397 . S
C275 C273 1.397 . S
C275 C276 1.384 . S
C275 H298 0.930 . S
C276 C275 1.384 . S
C276 C277 1.377 . S
C276 C279 1.481 . S
C277 C276 1.377 . S
C277 C278 1.389 . S
C277 H299 0.929 . S
C278 C274 1.397 . S
C278 C277 1.389 . S
C278 H300 0.931 . S
C279 C276 1.481 . S
C279 C280 1.387 . S
C279 C284 1.390 . S
C280 C279 1.387 . S
C280 C281 1.401 . S
C280 H301 0.930 . S
C281 C280 1.401 . S
C281 C282 1.376 . S
C281 C290 1.511 . S
C282 C281 1.376 . S
C282 C283 1.392 . S
C282 H303 0.931 . S
C283 C282 1.392 . S
C283 C284 1.361 . S
C283 C285 1.500 . S
C284 C279 1.390 . S
C284 C283 1.361 . S
C284 H302 0.931 . S
C285 C283 1.500 . S
C285 C286 1.371 . S
C285 C287 1.365 . S
C286 C285 1.371 . S
C286 C296 1.386 . S
C286 H304 0.931 . S
C287 C285 1.365 . S
C287 C288 1.409 . S
C287 H305 0.929 . S
C288 C287 1.409 . S
C288 C289 1.380 . S
C288 H306 0.930 . S
C289 C288 1.380 . S
C289 C296 1.357 . S
C290 C281 1.511 . S
C290 C291 1.341 . S
C290 C292 1.371 . S
C291 C290 1.341 . S
C291 C295 1.394 . S
C291 H307 0.930 . S
C292 C290 1.371 . S
C292 C293 1.392 . S
C292 H308 0.931 . S
C293 C292 1.392 . S
C293 C294 1.331 . S
C293 H311 0.932 . S
C294 C293 1.331 . S
C294 C295 1.336 . S
C295 C291 1.394 . S
C295 C294 1.336 . S
C295 H310 0.929 . S
C296 C286 1.386 . S
C296 C289 1.357 . S
C296 H309 0.928 . S
H297 C273 0.931 . S
H298 C275 0.930 . S
H299 C277 0.929 . S
H300 C278 0.931 . S
H301 C280 0.930 . S
H302 C284 0.931 . S
H303 C282 0.931 . S
H304 C286 0.931 . S
H305 C287 0.929 . S
H306 C288 0.930 . S
H307 C291 0.930 . S
H308 C292 0.931 . S
H309 C296 0.928 . S
H310 C295 0.929 . S
H311 C293 0.932 . S
Co312 N317 2.057 . S
Co312 O329 2.021 . S
Co312 O332 2.062 . S
Co312 O336 2.117 1_545 S
Co312 O337 2.020 1_545 S
C313 O333 1.259 1_655 S
C313 O336 1.258 . S
Co314 N323 2.057 . S
Co314 O330 2.117 1_565 S
Co314 O331 2.020 1_565 S
Co314 O333 2.021 . S
Co314 O338 2.062 . S
C315 N317 1.316 . S
C315 N318 1.347 . S
C315 H320 0.931 . S
C316 N317 1.375 1_565 S
C316 C319 1.350 1_565 S
C316 H321 0.930 . S
N317 Co312 2.057 . S
N317 C315 1.316 . S
N317 C316 1.375 1_545 S
N318 C315 1.347 . S
N318 C319 1.373 . S
C319 C316 1.350 1_545 S
C319 N318 1.373 . S
C319 H340 0.931 1_545 S
H320 C315 0.931 . S
H321 C316 0.930 . S
C322 O329 1.259 1_455 S
C322 O330 1.258 . S
N323 Co314 2.057 . S
N323 C324 1.316 . S
N323 C325 1.375 1_565 S
C324 N323 1.316 . S
C324 N326 1.347 . S
C324 H335 0.931 . S
C325 N323 1.375 1_545 S
C325 C327 1.350 1_545 S
C325 H334 0.930 . S
N326 C324 1.347 . S
N326 C327 1.373 . S
C327 C325 1.350 1_565 S
C327 N326 1.373 . S
C327 H341 0.931 1_565 S
C328 O331 1.256 . S
C328 O332 1.255 1_455 S
O329 Co312 2.021 . S
O329 C322 1.259 1_655 S
O330 Co314 2.117 1_545 S
O330 C322 1.258 . S
O331 Co314 2.020 1_545 S
O331 C328 1.256 . S
O332 Co312 2.062 . S
O332 C328 1.255 1_655 S
O333 C313 1.259 1_455 S
O333 Co314 2.021 . S
H334 C325 0.930 . S
H335 C324 0.931 . S
O336 Co312 2.117 1_565 S
O336 C313 1.258 . S
O337 Co312 2.020 1_565 S
O337 C339 1.256 . S
O338 Co314 2.062 . S
O338 C339 1.255 1_455 S
C339 O337 1.256 . S
C339 O338 1.255 1_655 S
H340 C319 0.931 1_565 S
H341 C327 0.931 1_545 S
Co342 N347 2.057 . S
Co342 O359 2.021 1_565 S
Co342 O362 2.062 . S
Co342 O366 2.138 . S
Co342 O367 2.020 1_565 S
C343 O363 1.259 . S
C343 O366 1.221 1_554 S
Co344 N353 2.057 . S
Co344 O360 2.117 . S
Co344 O361 2.020 1_545 S
Co344 O363 2.021 1_545 S
Co344 O368 2.062 . S
C345 N347 1.316 . S
C345 N348 1.347 . S
C345 H350 0.931 1_565 S
C346 N347 1.375 . S
C346 C349 1.350 . S
C346 H351 0.930 . S
N347 Co342 2.057 . S
N347 C345 1.316 . S
N347 C346 1.375 . S
N348 C345 1.347 . S
N348 C349 1.373 . S
C349 C346 1.350 . S
C349 N348 1.373 . S
C349 H370 0.931 . S
H350 C345 0.931 1_545 S
H351 C346 0.930 . S
C352 O359 1.259 . S
C352 O360 1.258 1_556 S
N353 Co344 2.057 . S
N353 C354 1.316 . S
N353 C355 1.375 . S
C354 N353 1.316 . S
C354 N356 1.347 . S
C354 H365 0.931 1_545 S
C355 N353 1.375 . S
C355 C357 1.350 . S
C355 H364 0.930 . S
N356 C354 1.347 . S
N356 C357 1.373 . S
C357 C355 1.350 . S
C357 N356 1.373 . S
C357 H371 0.931 . S
C358 O361 1.256 1_556 S
C358 O362 1.255 . S
O359 Co342 2.021 1_545 S
O359 C352 1.259 . S
O360 Co344 2.117 . S
O360 C352 1.258 1_554 S
O361 Co344 2.020 1_565 S
O361 C358 1.256 1_554 S
O362 Co342 2.062 . S
O362 C358 1.255 . S
O363 C343 1.259 . S
O363 Co344 2.021 1_565 S
H364 C355 0.930 . S
H365 C354 0.931 1_565 S
O366 Co342 2.138 . S
O366 C343 1.221 1_556 S
O367 Co342 2.020 1_545 S
O367 C369 1.256 1_556 S
O368 Co344 2.062 . S
O368 C369 1.255 . S
C369 O367 1.256 1_554 S
C369 O368 1.255 . S
H370 C349 0.931 . S
H371 C357 0.931 . S
Co372 N377 2.057 . S
Co372 O389 2.021 . S
Co372 O392 2.062 . S
Co372 O396 2.117 . S
Co372 O397 2.020 . S
C373 O393 1.259 . S
C373 O396 1.258 . S
Co374 N383 2.057 . S
Co374 O390 2.117 . S
Co374 O391 2.020 . S
Co374 O393 2.021 . S
Co374 O398 2.062 . S
C375 N377 1.316 . S
C375 N378 1.347 . S
C375 H380 0.931 . S
C376 N377 1.375 . S
C376 C379 1.350 . S
C376 H381 0.930 . S
N377 Co372 2.057 . S
N377 C375 1.316 . S
N377 C376 1.375 . S
N378 C375 1.347 . S
N378 C379 1.373 . S
C379 C376 1.350 . S
C379 N378 1.373 . S
C379 H400 0.931 . S
H380 C375 0.931 . S
H381 C376 0.930 . S
C382 O389 1.259 . S
C382 O390 1.258 . S
N383 Co374 2.057 . S
N383 C384 1.316 . S
N383 C385 1.375 . S
C384 N383 1.316 . S
C384 N386 1.347 . S
C384 H395 0.931 . S
C385 N383 1.375 . S
C385 C387 1.350 . S
C385 H394 0.930 . S
N386 C384 1.347 . S
N386 C387 1.373 . S
C387 C385 1.350 . S
C387 N386 1.373 . S
C387 H401 0.931 . S
C388 O391 1.256 . S
C388 O392 1.255 . S
O389 Co372 2.021 . S
O389 C382 1.259 . S
O390 Co374 2.117 . S
O390 C382 1.258 . S
O391 Co374 2.020 . S
O391 C388 1.256 . S
O392 Co372 2.062 . S
O392 C388 1.255 . S
O393 C373 1.259 . S
O393 Co374 2.021 . S
H394 C385 0.930 . S
H395 C384 0.931 . S
O396 Co372 2.117 . S
O396 C373 1.258 . S
O397 Co372 2.020 . S
O397 C399 1.256 . S
O398 Co374 2.062 . S
O398 C399 1.255 . S
C399 O397 1.256 . S
C399 O398 1.255 . S
H400 C379 0.931 . S
H401 C387 0.931 . S
Co402 N407 2.057 . S
Co402 O419 2.021 . S
Co402 O422 2.062 . S
Co402 O426 2.117 1_455 S
Co402 O427 2.020 1_455 S
C403 O423 1.259 1_556 S
C403 O426 1.258 . S
Co404 N413 2.057 . S
Co404 O420 2.117 1_655 S
Co404 O421 2.020 1_655 S
Co404 O423 2.021 . S
Co404 O428 2.062 . S
C405 N407 1.316 . S
C405 N408 1.347 . S
C405 H410 0.931 . S
C406 N407 1.375 1_655 S
C406 C409 1.350 1_655 S
C406 H411 0.930 . S
N407 Co402 2.057 . S
N407 C405 1.316 . S
N407 C406 1.375 1_455 S
N408 C405 1.347 . S
N408 C409 1.373 . S
C409 C406 1.350 1_455 S
C409 N408 1.373 . S
C409 H430 0.931 1_455 S
H410 C405 0.931 . S
H411 C406 0.930 . S
C412 O419 1.259 1_554 S
C412 O420 1.258 . S
N413 Co404 2.057 . S
N413 C414 1.316 . S
N413 C415 1.375 1_655 S
C414 N413 1.316 . S
C414 N416 1.347 . S
C414 H425 0.931 . S
C415 N413 1.375 1_455 S
C415 C417 1.350 1_455 S
C415 H424 0.930 . S
N416 C414 1.347 . S
N416 C417 1.373 . S
C417 C415 1.350 1_655 S
C417 N416 1.373 . S
C417 H431 0.931 1_655 S
C418 O421 1.256 . S
C418 O422 1.255 1_554 S
O419 Co402 2.021 . S
O419 C412 1.259 1_556 S
O420 Co404 2.117 1_455 S
O420 C412 1.258 . S
O421 Co404 2.020 1_455 S
O421 C418 1.256 . S
O422 Co402 2.062 . S
O422 C418 1.255 1_556 S
O423 C403 1.259 1_554 S
O423 Co404 2.021 . S
H424 C415 0.930 . S
H425 C414 0.931 . S
O426 Co402 2.117 1_655 S
O426 C403 1.258 . S
O427 Co402 2.020 1_655 S
O427 C429 1.256 . S
O428 Co404 2.062 . S
O428 C429 1.255 1_554 S
C429 O427 1.256 . S
C429 O428 1.255 1_556 S
H430 C409 0.931 1_655 S
H431 C417 0.931 1_455 S
H432 C440 0.929 . S
H433 C442 0.930 . S
H434 C444 0.930 . S
H435 C447 0.929 . S
H436 C450 0.930 . S
H437 C452 0.960 . S
H438 C452 0.960 . S
H439 C452 0.960 . S
C440 H432 0.929 . S
C440 C441 1.377 . S
C440 C442 1.384 . S
C441 C440 1.377 . S
C441 C447 1.390 . S
C442 H433 0.930 . S
C442 C440 1.384 . S
C442 C443 1.372 . S
C443 C442 1.372 . S
C443 C444 1.400 . S
C443 C448 1.490 . S
C444 H434 0.930 . S
C444 C443 1.400 . S
C444 C447 1.386 . S
H445 C461 0.930 . S
H446 C462 0.931 . S
C447 H435 0.929 . S
C447 C441 1.390 . S
C447 C444 1.386 . S
C448 C443 1.490 . S
C448 C450 1.395 . S
C448 C451 1.403 . S
H449 C455 0.930 . S
C450 H436 0.930 . S
C450 C448 1.395 . S
C450 C453 1.403 . S
C451 C448 1.403 . S
C451 C452 1.524 . S
C451 C455 1.400 . S
C452 H437 0.960 . S
C452 H438 0.960 . S
C452 H439 0.960 . S
C452 C451 1.524 . S
C453 C450 1.403 . S
C453 C454 1.392 . S
C453 C457 1.495 . S
C454 C453 1.392 . S
C454 C455 1.385 . S
C454 C456 1.478 . S
C455 H449 0.930 . S
C455 C451 1.400 . S
C455 C454 1.385 . S
C456 C454 1.478 . S
C456 C458 1.381 . S
C456 C462 1.383 . S
C457 C453 1.495 . S
C457 H463 0.959 . S
C457 H464 0.961 . S
C457 H465 0.960 1_545 S
C458 C456 1.381 . S
C458 C459 1.394 . S
C458 H466 0.930 1_545 S
C459 C458 1.394 . S
C459 C460 1.383 . S
C459 H467 0.929 1_545 S
C460 C459 1.383 . S
C460 C461 1.377 . S
C461 H445 0.930 . S
C461 C460 1.377 . S
C461 C462 1.379 . S
C462 H446 0.931 . S
C462 C456 1.383 . S
C462 C461 1.379 . S
H463 C457 0.959 . S
H464 C457 0.961 . S
H465 C457 0.960 1_565 S
H466 C458 0.930 1_565 S
H467 C459 0.929 1_565 S
H468 C476 0.929 . S
H469 C478 0.930 . S
H470 C480 0.930 . S
H471 C483 0.929 . S
H472 C486 0.930 . S
H473 C488 0.960 . S
H474 C488 0.960 . S
H475 C488 0.960 . S
C476 H468 0.929 . S
C476 C477 1.377 . S
C476 C478 1.384 . S
C477 C476 1.377 . S
C477 C483 1.390 . S
C478 H469 0.930 . S
C478 C476 1.384 . S
C478 C479 1.372 . S
C479 C478 1.372 . S
C479 C480 1.400 . S
C479 C484 1.490 . S
C480 H470 0.930 . S
C480 C479 1.400 . S
C480 C483 1.386 . S
H481 C497 0.930 . S
H482 C498 0.931 . S
C483 H471 0.929 . S
C483 C477 1.390 . S
C483 C480 1.386 . S
C484 C479 1.490 . S
C484 C486 1.395 . S
C484 C487 1.403 . S
H485 C491 0.930 . S
C486 H472 0.930 . S
C486 C484 1.395 . S
C486 C489 1.403 . S
C487 C484 1.403 . S
C487 C488 1.524 . S
C487 C491 1.400 . S
C488 H473 0.960 . S
C488 H474 0.960 . S
C488 H475 0.960 . S
C488 C487 1.524 . S
C489 C486 1.403 . S
C489 C490 1.392 . S
C489 C493 1.495 . S
C490 C489 1.392 . S
C490 C491 1.385 . S
C490 C492 1.478 . S
C491 H485 0.930 . S
C491 C487 1.400 . S
C491 C490 1.385 . S
C492 C490 1.478 . S
C492 C494 1.381 . S
C492 C498 1.383 . S
C493 C489 1.495 . S
C493 H499 0.959 . S
C493 H500 0.961 . S
C493 H501 0.960 . S
C494 C492 1.381 . S
C494 C495 1.394 . S
C494 H502 0.930 . S
C495 C494 1.394 . S
C495 C496 1.383 . S
C495 H503 0.929 . S
C496 C495 1.383 . S
C496 C497 1.377 . S
C497 H481 0.930 . S
C497 C496 1.377 . S
C497 C498 1.379 . S
C498 H482 0.931 . S
C498 C492 1.383 . S
C498 C497 1.379 . S
H499 C493 0.959 . S
H500 C493 0.961 . S
H501 C493 0.960 . S
H502 C494 0.930 . S
H503 C495 0.929 . S
H504 C512 0.929 . S
H505 C514 0.930 . S
H506 C516 0.930 . S
H507 C519 0.929 . S
H508 C522 0.930 . S
H509 C524 0.960 . S
H510 C524 0.960 . S
H511 C524 0.960 . S
C512 H504 0.929 . S
C512 C513 1.377 . S
C512 C514 1.384 . S
C513 C512 1.377 . S
C513 C519 1.390 . S
C514 H505 0.930 . S
C514 C512 1.384 . S
C514 C515 1.372 . S
C515 C514 1.372 . S
C515 C516 1.400 . S
C515 C520 1.490 . S
C516 H506 0.930 . S
C516 C515 1.400 . S
C516 C519 1.386 . S
H517 C533 0.930 . S
H518 C534 0.931 . S
C519 H507 0.929 . S
C519 C513 1.390 . S
C519 C516 1.386 . S
C520 C515 1.490 . S
C520 C522 1.395 . S
C520 C523 1.403 . S
H521 C527 0.930 . S
C522 H508 0.930 . S
C522 C520 1.395 . S
C522 C525 1.403 . S
C523 C520 1.403 . S
C523 C524 1.524 . S
C523 C527 1.400 . S
C524 H509 0.960 . S
C524 H510 0.960 . S
C524 H511 0.960 . S
C524 C523 1.524 . S
C525 C522 1.403 . S
C525 C526 1.392 . S
C525 C529 1.495 . S
C526 C525 1.392 . S
C526 C527 1.385 . S
C526 C528 1.478 . S
C527 H521 0.930 . S
C527 C523 1.400 . S
C527 C526 1.385 . S
C528 C526 1.478 . S
C528 C530 1.381 . S
C528 C534 1.383 . S
C529 C525 1.495 . S
C529 H535 0.959 . S
C529 H536 0.961 . S
C529 H537 0.960 . S
C530 C528 1.381 . S
C530 C531 1.394 . S
C530 H538 0.930 . S
C531 C530 1.394 . S
C531 C532 1.383 . S
C531 H539 0.929 . S
C532 C531 1.383 . S
C532 C533 1.377 . S
C533 H517 0.930 . S
C533 C532 1.377 . S
C533 C534 1.379 . S
C534 H518 0.931 . S
C534 C528 1.383 . S
C534 C533 1.379 . S
H535 C529 0.959 . S
H536 C529 0.961 . S
H537 C529 0.960 . S
H538 C530 0.930 . S
H539 C531 0.929 . S
H540 C548 0.929 . S
H541 C550 0.930 . S
H542 C552 0.930 . S
H543 C555 0.929 . S
H544 C558 0.930 . S
H545 C560 0.960 . S
H546 C560 0.960 . S
H547 C560 0.960 . S
C548 H540 0.929 . S
C548 C549 1.377 . S
C548 C550 1.384 . S
C549 C548 1.377 . S
C549 C555 1.390 . S
C550 H541 0.930 . S
C550 C548 1.384 . S
C550 C551 1.372 . S
C551 C550 1.372 . S
C551 C552 1.400 . S
C551 C556 1.490 . S
C552 H542 0.930 . S
C552 C551 1.400 . S
C552 C555 1.386 . S
H553 C569 0.930 . S
H554 C570 0.931 . S
C555 H543 0.929 . S
C555 C549 1.390 . S
C555 C552 1.386 . S
C556 C551 1.490 . S
C556 C558 1.395 . S
C556 C559 1.403 . S
H557 C563 0.930 . S
C558 H544 0.930 . S
C558 C556 1.395 . S
C558 C561 1.403 . S
C559 C556 1.403 . S
C559 C560 1.524 . S
C559 C563 1.400 . S
C560 H545 0.960 . S
C560 H546 0.960 . S
C560 H547 0.960 . S
C560 C559 1.524 . S
C561 C558 1.403 . S
C561 C562 1.392 . S
C561 C565 1.495 . S
C562 C561 1.392 . S
C562 C563 1.385 . S
C562 C564 1.478 . S
C563 H557 0.930 . S
C563 C559 1.400 . S
C563 C562 1.385 . S
C564 C562 1.478 . S
C564 C566 1.381 . S
C564 C570 1.383 . S
C565 C561 1.495 . S
C565 H571 0.959 . S
C565 H572 0.961 . S
C565 H573 0.960 . S
C566 C564 1.381 . S
C566 C567 1.394 . S
C566 H574 0.930 . S
C567 C566 1.394 . S
C567 C568 1.383 . S
C567 H575 0.929 . S
C568 C567 1.383 . S
C568 C569 1.377 . S
C569 H553 0.930 . S
C569 C568 1.377 . S
C569 C570 1.379 . S
C570 H554 0.931 . S
C570 C564 1.383 . S
C570 C569 1.379 . S
H571 C565 0.959 . S
H572 C565 0.961 . S
H573 C565 0.960 . S
H574 C566 0.930 . S
H575 C567 0.929 . S
H576 C584 0.929 . S
H577 C586 0.930 . S
H578 C588 0.930 . S
H579 C591 0.929 . S
H580 C594 0.930 . S
H581 C596 0.960 . S
H582 C596 0.960 . S
H583 C596 0.960 . S
C584 H576 0.929 . S
C584 C585 1.377 . S
C584 C586 1.384 . S
C585 C584 1.377 . S
C585 C591 1.390 . S
C586 H577 0.930 . S
C586 C584 1.384 . S
C586 C587 1.372 . S
C587 C586 1.372 . S
C587 C588 1.400 . S
C587 C592 1.490 . S
C588 H578 0.930 . S
C588 C587 1.400 . S
C588 C591 1.386 . S
H589 C605 0.930 1_556 S
H590 C606 0.931 . S
C591 H579 0.929 . S
C591 C585 1.390 . S
C591 C588 1.386 . S
C592 C587 1.490 . S
C592 C594 1.395 . S
C592 C595 1.403 . S
H593 C599 0.930 . S
C594 H580 0.930 . S
C594 C592 1.395 . S
C594 C597 1.403 . S
C595 C592 1.403 . S
C595 C596 1.524 . S
C595 C599 1.400 . S
C596 H581 0.960 . S
C596 H582 0.960 . S
C596 H583 0.960 . S
C596 C595 1.524 . S
C597 C594 1.403 . S
C597 C598 1.392 . S
C597 C601 1.495 . S
C598 C597 1.392 . S
C598 C599 1.385 . S
C598 C600 1.478 . S
C599 H593 0.930 . S
C599 C595 1.400 . S
C599 C598 1.385 . S
C600 C598 1.478 . S
C600 C602 1.381 . S
C600 C606 1.383 . S
C601 C597 1.495 . S
C601 H607 0.959 . S
C601 H608 0.961 1_545 S
C601 H609 0.960 . S
C602 C600 1.381 . S
C602 C603 1.394 . S
C602 H610 0.930 . S
C603 C602 1.394 . S
C603 C604 1.383 . S
C603 H611 0.929 . S
C604 C603 1.383 . S
C604 C605 1.377 . S
C605 H589 0.930 1_554 S
C605 C604 1.377 . S
C605 C606 1.379 . S
C606 H590 0.931 . S
C606 C600 1.383 . S
C606 C605 1.379 . S
H607 C601 0.959 . S
H608 C601 0.961 1_565 S
H609 C601 0.960 . S
H610 C602 0.930 . S
H611 C603 0.929 . S
H612 C620 0.929 . S
H613 C622 0.930 . S
H614 C624 0.930 . S
H615 C627 0.929 . S
H616 C630 0.930 . S
H617 C632 0.960 . S
H618 C632 0.960 . S
H619 C632 0.960 . S
C620 H612 0.929 . S
C620 C621 1.377 . S
C620 C622 1.384 . S
C621 C620 1.377 . S
C621 C627 1.390 . S
C622 H613 0.930 . S
C622 C620 1.384 . S
C622 C623 1.372 . S
C623 C622 1.372 . S
C623 C624 1.400 . S
C623 C628 1.490 . S
C624 H614 0.930 . S
C624 C623 1.400 . S
C624 C627 1.386 . S
H625 C641 0.930 . S
H626 C642 0.931 . S
C627 H615 0.929 . S
C627 C621 1.390 . S
C627 C624 1.386 . S
C628 C623 1.490 . S
C628 C630 1.395 . S
C628 C631 1.403 . S
H629 C635 0.930 . S
C630 H616 0.930 . S
C630 C628 1.395 . S
C630 C633 1.403 . S
C631 C628 1.403 . S
C631 C632 1.524 . S
C631 C635 1.400 . S
C632 H617 0.960 . S
C632 H618 0.960 . S
C632 H619 0.960 . S
C632 C631 1.524 . S
C633 C630 1.403 . S
C633 C634 1.392 . S
C633 C637 1.495 . S
C634 C633 1.392 . S
C634 C635 1.385 . S
C634 C636 1.478 . S
C635 H629 0.930 . S
C635 C631 1.400 . S
C635 C634 1.385 . S
C636 C634 1.478 . S
C636 C638 1.381 . S
C636 C642 1.383 . S
C637 C633 1.495 . S
C637 H643 0.959 . S
C637 H644 0.961 . S
C637 H645 0.960 . S
C638 C636 1.381 . S
C638 C639 1.394 . S
C638 H646 0.930 . S
C639 C638 1.394 . S
C639 C640 1.383 . S
C639 H647 0.929 . S
C640 C639 1.383 . S
C640 C641 1.377 . S
C641 H625 0.930 . S
C641 C640 1.377 . S
C641 C642 1.379 . S
C642 H626 0.931 . S
C642 C636 1.383 . S
C642 C641 1.379 . S
H643 C637 0.959 . S
H644 C637 0.961 . S
H645 C637 0.960 . S
H646 C638 0.930 . S
H647 C639 0.929 . S
H648 C656 0.929 . S
H649 C658 0.930 . S
H650 C660 0.930 . S
H651 C663 0.929 . S
H652 C666 0.930 . S
H653 C668 0.960 . S
H654 C668 0.960 . S
H655 C668 0.960 . S
C656 H648 0.929 . S
C656 C657 1.377 . S
C656 C658 1.384 . S
C657 C656 1.377 . S
C657 C663 1.390 . S
C658 H649 0.930 . S
C658 C656 1.384 . S
C658 C659 1.372 . S
C659 C658 1.372 . S
C659 C660 1.400 . S
C659 C664 1.490 . S
C660 H650 0.930 . S
C660 C659 1.400 . S
C660 C663 1.386 . S
H661 C677 0.930 . S
H662 C678 0.931 . S
C663 H651 0.929 . S
C663 C657 1.390 . S
C663 C660 1.386 . S
C664 C659 1.490 . S
C664 C666 1.395 . S
C664 C667 1.403 . S
H665 C671 0.930 . S
C666 H652 0.930 . S
C666 C664 1.395 . S
C666 C669 1.403 . S
C667 C664 1.403 . S
C667 C668 1.524 . S
C667 C671 1.400 . S
C668 H653 0.960 . S
C668 H654 0.960 . S
C668 H655 0.960 . S
C668 C667 1.524 . S
C669 C666 1.403 . S
C669 C670 1.392 . S
C669 C673 1.495 . S
C670 C669 1.392 . S
C670 C671 1.385 . S
C670 C672 1.478 . S
C671 H665 0.930 . S
C671 C667 1.400 . S
C671 C670 1.385 . S
C672 C670 1.478 . S
C672 C674 1.381 . S
C672 C678 1.383 . S
C673 C669 1.495 . S
C673 H679 0.959 . S
C673 H680 0.961 . S
C673 H681 0.960 . S
C674 C672 1.381 . S
C674 C675 1.394 . S
C674 H682 0.930 . S
C675 C674 1.394 . S
C675 C676 1.383 . S
C675 H683 0.929 1_556 S
C676 C675 1.383 . S
C676 C677 1.377 . S
C677 H661 0.930 . S
C677 C676 1.377 . S
C677 C678 1.379 . S
C678 H662 0.931 . S
C678 C672 1.383 . S
C678 C677 1.379 . S
H679 C673 0.959 . S
H680 C673 0.961 . S
H681 C673 0.960 . S
H682 C674 0.930 . S
H683 C675 0.929 1_554 S
H684 C692 0.929 . S
H685 C694 0.930 . S
H686 C696 0.930 . S
H687 C699 0.929 . S
H688 C702 0.930 . S
H689 C704 0.960 . S
H690 C704 0.960 . S
H691 C704 0.960 . S
C692 H684 0.929 . S
C692 C693 1.377 . S
C692 C694 1.384 . S
C693 C692 1.377 . S
C693 C699 1.390 . S
C694 H685 0.930 . S
C694 C692 1.384 . S
C694 C695 1.372 . S
C695 C694 1.372 . S
C695 C696 1.400 . S
C695 C700 1.490 . S
C696 H686 0.930 . S
C696 C695 1.400 . S
C696 C699 1.386 . S
H697 C713 0.930 . S
H698 C714 0.931 . S
C699 H687 0.929 . S
C699 C693 1.390 . S
C699 C696 1.386 . S
C700 C695 1.490 . S
C700 C702 1.395 . S
C700 C703 1.403 . S
H701 C707 0.930 . S
C702 H688 0.930 . S
C702 C700 1.395 . S
C702 C705 1.403 . S
C703 C700 1.403 . S
C703 C704 1.524 . S
C703 C707 1.400 . S
C704 H689 0.960 . S
C704 H690 0.960 . S
C704 H691 0.960 . S
C704 C703 1.524 . S
C705 C702 1.403 . S
C705 C706 1.392 . S
C705 C709 1.495 . S
C706 C705 1.392 . S
C706 C707 1.385 . S
C706 C708 1.478 . S
C707 H701 0.930 . S
C707 C703 1.400 . S
C707 C706 1.385 . S
C708 C706 1.478 . S
C708 C710 1.381 . S
C708 C714 1.383 . S
C709 C705 1.495 . S
C709 H715 0.959 . S
C709 H716 0.961 . S
C709 H717 0.960 . S
C710 C708 1.381 . S
C710 C711 1.394 . S
C710 H718 0.930 . S
C711 C710 1.394 . S
C711 C712 1.383 . S
C711 H719 0.929 . S
C712 C711 1.383 . S
C712 C713 1.377 . S
C713 H697 0.930 . S
C713 C712 1.377 . S
C713 C714 1.379 . S
C714 H698 0.931 . S
C714 C708 1.383 . S
C714 C713 1.379 . S
H715 C709 0.959 . S
H716 C709 0.961 . S
H717 C709 0.960 . S
H718 C710 0.930 . S
H719 C711 0.929 . S
H720 C728 0.929 . S
H721 C730 0.930 . S
H722 C732 0.930 . S
H723 C735 0.929 . S
H724 C738 0.930 . S
H725 C740 0.986 . S
H726 C740 0.960 . S
H727 C740 0.960 . S
C728 H720 0.929 . S
C728 C729 1.377 . S
C728 C730 1.384 . S
C729 C728 1.377 . S
C729 C735 1.390 . S
C730 H721 0.930 . S
C730 C728 1.384 . S
C730 C731 1.372 . S
C731 C730 1.372 . S
C731 C732 1.400 . S
C731 C736 1.490 . S
C732 H722 0.930 . S
C732 C731 1.400 . S
C732 C735 1.386 . S
H733 C749 0.930 1_556 S
H734 C750 0.939 . S
C735 H723 0.929 . S
C735 C729 1.390 . S
C735 C732 1.386 . S
C736 C731 1.490 . S
C736 C738 1.395 . S
C736 C739 1.403 . S
H737 C743 0.930 . S
C738 H724 0.930 . S
C738 C736 1.395 . S
C738 C741 1.403 . S
C739 C736 1.403 . S
C739 C740 1.524 . S
C739 C743 1.400 . S
C740 H725 0.986 . S
C740 H726 0.960 . S
C740 H727 0.960 . S
C740 C739 1.524 . S
C741 C738 1.403 . S
C741 C742 1.392 . S
C741 C745 1.495 . S
C742 C741 1.392 . S
C742 C743 1.385 . S
C742 C744 1.478 . S
C743 H737 0.930 . S
C743 C739 1.400 . S
C743 C742 1.385 . S
C744 C742 1.478 . S
C744 C746 1.381 . S
C744 C750 1.383 . S
C745 C741 1.495 . S
C745 H751 0.959 . S
C745 H752 0.961 . S
C745 H753 0.960 . S
C746 C744 1.381 . S
C746 C747 1.394 . S
C746 H754 0.930 . S
C747 C746 1.394 . S
C747 C748 1.383 . S
C747 H755 0.929 . S
C748 C747 1.383 . S
C748 C749 1.377 . S
C749 H733 0.930 1_554 S
C749 C748 1.377 . S
C749 C750 1.379 . S
C750 H734 0.939 . S
C750 C744 1.383 . S
C750 C749 1.379 . S
H751 C745 0.959 . S
H752 C745 0.961 . S
H753 C745 0.960 . S
H754 C746 0.930 . S
H755 C747 0.929 . S
H756 C764 0.929 . S
H757 C766 0.930 . S
H758 C768 0.930 . S
H759 C771 0.929 . S
H760 C774 0.930 . S
H761 C776 0.960 . S
H762 C776 0.960 . S
H763 C776 0.960 . S
C764 H756 0.929 . S
C764 C765 1.377 . S
C764 C766 1.384 . S
C765 C764 1.377 . S
C765 C771 1.390 . S
C766 H757 0.930 . S
C766 C764 1.384 . S
C766 C767 1.372 . S
C767 C766 1.372 . S
C767 C768 1.400 . S
C767 C772 1.490 . S
C768 H758 0.930 . S
C768 C767 1.400 . S
C768 C771 1.386 . S
H769 C785 0.930 . S
H770 C786 0.931 . S
C771 H759 0.929 . S
C771 C765 1.390 . S
C771 C768 1.386 . S
C772 C767 1.490 . S
C772 C774 1.395 . S
C772 C775 1.403 . S
H773 C779 0.930 . S
C774 H760 0.930 . S
C774 C772 1.395 . S
C774 C777 1.403 . S
C775 C772 1.403 . S
C775 C776 1.524 . S
C775 C779 1.400 . S
C776 H761 0.960 . S
C776 H762 0.960 . S
C776 H763 0.960 . S
C776 C775 1.524 . S
C777 C774 1.403 . S
C777 C778 1.392 . S
C777 C781 1.495 . S
C778 C777 1.392 . S
C778 C779 1.385 . S
C778 C780 1.478 . S
C779 H773 0.930 . S
C779 C775 1.400 . S
C779 C778 1.385 . S
C780 C778 1.478 . S
C780 C782 1.381 . S
C780 C786 1.383 . S
C781 C777 1.495 . S
C781 H787 0.959 . S
C781 H788 0.961 . S
C781 H789 0.960 . S
C782 C780 1.381 . S
C782 C783 1.394 . S
C782 H790 0.930 . S
C783 C782 1.394 . S
C783 C784 1.383 . S
C783 H791 0.929 1_556 S
C784 C783 1.383 . S
C784 C785 1.377 . S
C785 H769 0.930 . S
C785 C784 1.377 . S
C785 C786 1.379 . S
C786 H770 0.931 . S
C786 C780 1.383 . S
C786 C785 1.379 . S
H787 C781 0.959 . S
H788 C781 0.961 . S
H789 C781 0.960 . S
H790 C782 0.930 . S
H791 C783 0.929 1_554 S
H792 C800 0.929 . S
H793 C802 0.930 . S
H794 C804 0.930 . S
H795 C807 0.929 . S
H796 C810 0.930 . S
H797 C812 0.960 . S
H798 C812 0.960 . S
H799 C812 0.960 . S
C800 H792 0.929 . S
C800 C801 1.377 . S
C800 C802 1.384 . S
C801 C800 1.377 . S
C801 C807 1.390 . S
C802 H793 0.930 . S
C802 C800 1.384 . S
C802 C803 1.372 . S
C803 C802 1.372 . S
C803 C804 1.400 . S
C803 C808 1.490 . S
C804 H794 0.930 . S
C804 C803 1.400 . S
C804 C807 1.386 . S
H805 C821 0.930 . S
H806 C822 0.931 . S
C807 H795 0.929 . S
C807 C801 1.390 . S
C807 C804 1.386 . S
C808 C803 1.490 . S
C808 C810 1.395 . S
C808 C811 1.403 . S
H809 C815 0.930 . S
C810 H796 0.930 . S
C810 C808 1.395 . S
C810 C813 1.403 . S
C811 C808 1.403 . S
C811 C812 1.524 1_655 S
C811 C815 1.400 . S
C812 H797 0.960 . S
C812 H798 0.960 . S
C812 H799 0.960 . S
C812 C811 1.524 1_455 S
C813 C810 1.403 . S
C813 C814 1.392 . S
C813 C817 1.495 . S
C814 C813 1.392 . S
C814 C815 1.385 . S
C814 C816 1.478 . S
C815 H809 0.930 . S
C815 C811 1.400 . S
C815 C814 1.385 . S
C816 C814 1.478 . S
C816 C818 1.381 . S
C816 C822 1.383 . S
C817 C813 1.495 . S
C817 H823 0.959 . S
C817 H824 0.961 . S
C817 H825 0.960 . S
C818 C816 1.381 . S
C818 C819 1.394 . S
C818 H826 0.930 . S
C819 C818 1.394 . S
C819 C820 1.383 . S
C819 H827 0.929 . S
C820 C819 1.383 . S
C820 C821 1.377 . S
C821 H805 0.930 . S
C821 C820 1.377 . S
C821 C822 1.379 . S
C822 H806 0.931 . S
C822 C816 1.383 . S
C822 C821 1.379 . S
H823 C817 0.959 . S
H824 C817 0.961 . S
H825 C817 0.960 . S
H826 C818 0.930 . S
H827 C819 0.929 . S
H828 C836 0.929 . S
H829 C838 0.930 . S
H830 C840 0.930 . S
H831 C843 0.929 . S
H832 C846 0.930 . S
H833 C848 0.960 . S
H834 C848 0.960 . S
H835 C848 0.960 . S
C836 H828 0.929 . S
C836 C837 1.377 . S
C836 C838 1.384 . S
C837 C836 1.377 . S
C837 C843 1.390 . S
C838 H829 0.930 . S
C838 C836 1.384 . S
C838 C839 1.372 . S
C839 C838 1.372 . S
C839 C840 1.400 . S
C839 C844 1.490 . S
C840 H830 0.930 . S
C840 C839 1.400 . S
C840 C843 1.386 . S
H841 C857 0.930 . S
H842 C858 0.931 . S
C843 H831 0.929 . S
C843 C837 1.390 . S
C843 C840 1.386 . S
C844 C839 1.490 . S
C844 C846 1.395 . S
C844 C847 1.403 . S
H845 C851 0.930 . S
C846 H832 0.930 . S
C846 C844 1.395 . S
C846 C849 1.403 . S
C847 C844 1.403 . S
C847 C848 1.524 . S
C847 C851 1.400 . S
C848 H833 0.960 . S
C848 H834 0.960 . S
C848 H835 0.960 . S
C848 C847 1.524 . S
C849 C846 1.403 . S
C849 C850 1.392 . S
C849 C853 1.495 . S
C850 C849 1.392 . S
C850 C851 1.385 . S
C850 C852 1.478 . S
C851 H845 0.930 . S
C851 C847 1.400 . S
C851 C850 1.385 . S
C852 C850 1.478 . S
C852 C854 1.381 . S
C852 C858 1.383 . S
C853 C849 1.495 . S
C853 H859 0.959 . S
C853 H860 0.961 . S
C853 H861 0.960 . S
C854 C852 1.381 . S
C854 C855 1.394 . S
C854 H862 0.930 . S
C855 C854 1.394 . S
C855 C856 1.383 . S
C855 H863 0.929 . S
C856 C855 1.383 . S
C856 C857 1.377 . S
C857 H841 0.930 . S
C857 C856 1.377 . S
C857 C858 1.379 . S
C858 H842 0.931 . S
C858 C852 1.383 . S
C858 C857 1.379 . S
H859 C853 0.959 . S
H860 C853 0.961 . S
H861 C853 0.960 . S
H862 C854 0.930 . S
H863 C855 0.929 . S
H864 C872 0.929 . S
H865 C874 0.930 . S
H866 C876 0.930 . S
H867 C879 0.929 . S
H868 C882 0.930 . S
H869 C884 0.960 . S
H870 C884 0.960 . S
H871 C884 0.960 . S
C872 H864 0.929 . S
C872 C873 1.377 . S
C872 C874 1.384 . S
C873 C872 1.377 . S
C873 C879 1.390 . S
C874 H865 0.930 . S
C874 C872 1.384 . S
C874 C875 1.372 . S
C875 C874 1.372 . S
C875 C876 1.400 . S
C875 C880 1.490 . S
C876 H866 0.930 . S
C876 C875 1.400 . S
C876 C879 1.386 . S
H877 C893 0.930 1_455 S
H878 C894 0.966 . S
C879 H867 0.929 . S
C879 C873 1.390 . S
C879 C876 1.386 . S
C880 C875 1.490 . S
C880 C882 1.395 . S
C880 C883 1.403 . S
H881 C887 0.930 . S
C882 H868 0.930 . S
C882 C880 1.395 . S
C882 C885 1.403 . S
C883 C880 1.403 . S
C883 C884 1.524 . S
C883 C887 1.400 . S
C884 H869 0.960 . S
C884 H870 0.960 . S
C884 H871 0.960 . S
C884 C883 1.524 . S
C885 C882 1.403 . S
C885 C886 1.392 . S
C885 C889 1.495 1_565 S
C886 C885 1.392 . S
C886 C887 1.385 . S
C886 C888 1.478 . S
C887 H881 0.930 . S
C887 C883 1.400 . S
C887 C886 1.385 . S
C888 C886 1.478 . S
C888 C890 1.381 . S
C888 C894 1.383 . S
C889 C885 1.495 1_545 S
C889 H895 0.959 . S
C889 H896 0.961 . S
C889 H897 0.960 . S
C890 C888 1.381 . S
C890 C891 1.394 . S
C890 H898 0.930 . S
C891 C890 1.394 . S
C891 C892 1.383 . S
C891 H899 0.929 . S
C892 C891 1.383 . S
C892 C893 1.377 . S
C893 H877 0.930 1_655 S
C893 C892 1.377 . S
C893 C894 1.379 . S
C894 H878 0.966 . S
C894 C888 1.383 . S
C894 C893 1.379 . S
H895 C889 0.959 . S
H896 C889 0.961 . S
H897 C889 0.960 . S
H898 C890 0.930 . S
H899 C891 0.929 . S
H900 C908 0.929 . S
H901 C910 0.930 . S
H902 C912 0.930 . S
H903 C915 0.929 . S
H904 C918 0.930 . S
H905 C920 0.960 . S
H906 C920 0.960 . S
H907 C920 0.960 . S
C908 H900 0.929 . S
C908 C909 1.377 . S
C908 C910 1.384 . S
C909 C908 1.377 . S
C909 C915 1.390 . S
C910 H901 0.930 . S
C910 C908 1.384 . S
C910 C911 1.372 . S
C911 C910 1.372 . S
C911 C912 1.400 . S
C911 C916 1.490 . S
C912 H902 0.930 . S
C912 C911 1.400 . S
C912 C915 1.386 . S
H913 C929 0.930 . S
H914 C930 0.931 . S
C915 H903 0.929 . S
C915 C909 1.390 . S
C915 C912 1.386 . S
C916 C911 1.490 . S
C916 C918 1.395 . S
C916 C919 1.403 . S
H917 C923 0.930 . S
C918 H904 0.930 . S
C918 C916 1.395 . S
C918 C921 1.403 . S
C919 C916 1.403 . S
C919 C920 1.524 . S
C919 C923 1.400 . S
C920 H905 0.960 . S
C920 H906 0.960 . S
C920 H907 0.960 . S
C920 C919 1.524 . S
C921 C918 1.403 . S
C921 C922 1.392 . S
C921 C925 1.495 . S
C922 C921 1.392 . S
C922 C923 1.385 . S
C922 C924 1.478 . S
C923 H917 0.930 . S
C923 C919 1.400 . S
C923 C922 1.385 . S
C924 C922 1.478 . S
C924 C926 1.381 . S
C924 C930 1.383 . S
C925 C921 1.495 . S
C925 H931 0.959 . S
C925 H932 0.961 . S
C925 H933 0.960 . S
C926 C924 1.381 . S
C926 C927 1.394 . S
C926 H934 0.930 . S
C927 C926 1.394 . S
C927 C928 1.383 . S
C927 H935 0.929 . S
C928 C927 1.383 . S
C928 C929 1.377 . S
C929 H913 0.930 . S
C929 C928 1.377 . S
C929 C930 1.379 . S
C930 H914 0.931 . S
C930 C924 1.383 . S
C930 C929 1.379 . S
H931 C925 0.959 . S
H932 C925 0.961 . S
H933 C925 0.960 . S
H934 C926 0.930 . S
H935 C927 0.929 . S
H936 C944 0.929 . S
H937 C946 0.930 . S
H938 C948 0.930 . S
H939 C951 0.929 . S
H940 C954 0.930 . S
H941 C956 0.960 . S
H942 C956 0.960 . S
H943 C956 0.960 . S
C944 H936 0.929 . S
C944 C945 1.377 . S
C944 C946 1.384 . S
C945 C944 1.377 . S
C945 C951 1.390 . S
C946 H937 0.930 . S
C946 C944 1.384 . S
C946 C947 1.372 . S
C947 C946 1.372 . S
C947 C948 1.400 . S
C947 C952 1.490 . S
C948 H938 0.930 . S
C948 C947 1.400 . S
C948 C951 1.386 . S
H949 C965 0.930 . S
H950 C966 0.931 . S
C951 H939 0.929 . S
C951 C945 1.390 . S
C951 C948 1.386 . S
C952 C947 1.490 . S
C952 C954 1.395 . S
C952 C955 1.403 . S
H953 C959 0.930 . S
C954 H940 0.930 . S
C954 C952 1.395 . S
C954 C957 1.403 . S
C955 C952 1.403 . S
C955 C956 1.524 . S
C955 C959 1.400 . S
C956 H941 0.960 . S
C956 H942 0.960 . S
C956 H943 0.960 . S
C956 C955 1.524 . S
C957 C954 1.403 . S
C957 C958 1.392 . S
C957 C961 1.495 . S
C958 C957 1.392 . S
C958 C959 1.385 . S
C958 C960 1.478 . S
C959 H953 0.930 . S
C959 C955 1.400 . S
C959 C958 1.385 . S
C960 C958 1.478 . S
C960 C962 1.381 . S
C960 C966 1.383 . S
C961 C957 1.495 . S
C961 H967 0.959 . S
C961 H968 0.961 . S
C961 H969 0.960 . S
C962 C960 1.381 . S
C962 C963 1.394 . S
C962 H970 0.930 . S
C963 C962 1.394 . S
C963 C964 1.383 . S
C963 H971 0.929 . S
C964 C963 1.383 . S
C964 C965 1.377 . S
C965 H949 0.930 . S
C965 C964 1.377 . S
C965 C966 1.379 . S
C966 H950 0.931 . S
C966 C960 1.383 . S
C966 C965 1.379 . S
H967 C961 0.959 . S
H968 C961 0.961 . S
H969 C961 0.960 . S
H970 C962 0.930 . S
H971 C963 0.929 . S
H972 C980 0.929 . S
H973 C982 0.930 . S
H974 C984 0.930 . S
H975 C987 0.929 . S
H976 C990 0.930 . S
H977 C992 0.960 . S
H978 C992 0.960 . S
H979 C992 0.960 . S
C980 H972 0.929 . S
C980 C981 1.377 . S
C980 C982 1.384 . S
C981 C980 1.377 . S
C981 C987 1.390 . S
C982 H973 0.930 . S
C982 C980 1.384 . S
C982 C983 1.372 . S
C983 C982 1.372 . S
C983 C984 1.400 . S
C983 C988 1.490 . S
C984 H974 0.930 . S
C984 C983 1.400 . S
C984 C987 1.386 . S
H985 C1001 0.930 . S
H986 C1002 0.931 . S
C987 H975 0.929 . S
C987 C981 1.390 . S
C987 C984 1.386 . S
C988 C983 1.490 . S
C988 C990 1.395 . S
C988 C991 1.403 . S
H989 C995 0.930 . S
C990 H976 0.930 . S
C990 C988 1.395 . S
C990 C993 1.403 . S
C991 C988 1.403 . S
C991 C992 1.524 . S
C991 C995 1.400 . S
C992 H977 0.960 . S
C992 H978 0.960 . S
C992 H979 0.960 . S
C992 C991 1.524 . S
C993 C990 1.403 . S
C993 C994 1.392 . S
C993 C997 1.495 . S
C994 C993 1.392 . S
C994 C995 1.385 . S
C994 C996 1.478 . S
C995 H989 0.930 . S
C995 C991 1.400 . S
C995 C994 1.385 . S
C996 C994 1.478 . S
C996 C998 1.381 . S
C996 C1002 1.383 . S
C997 C993 1.495 . S
C997 H1003 0.959 . S
C997 H1004 0.961 . S
C997 H1005 0.960 . S
C998 C996 1.381 . S
C998 C999 1.394 . S
C998 H1006 0.930 . S
C999 C998 1.394 . S
C999 C1000 1.383 . S
C999 H1007 0.929 . S
C1000 C999 1.383 . S
C1000 C1001 1.377 . S
C1001 H985 0.930 . S
C1001 C1000 1.377 . S
C1001 C1002 1.379 . S
C1002 H986 0.931 . S
C1002 C996 1.383 . S
C1002 C1001 1.379 . S
H1003 C997 0.959 . S
H1004 C997 0.961 . S
H1005 C997 0.960 . S
H1006 C998 0.930 . S
H1007 C999 0.929 . S
H1008 C1016 0.929 . S
H1009 C1018 0.930 . S
H1010 C1020 0.930 . S
H1011 C1023 0.929 . S
H1012 C1026 0.930 . S
H1013 C1028 0.960 1_545 S
H1014 C1028 0.960 . S
H1015 C1028 0.960 . S
C1016 H1008 0.929 . S
C1016 C1017 1.377 . S
C1016 C1018 1.384 . S
C1017 C1016 1.377 . S
C1017 C1023 1.390 . S
C1018 H1009 0.930 . S
C1018 C1016 1.384 . S
C1018 C1019 1.372 . S
C1019 C1018 1.372 . S
C1019 C1020 1.400 . S
C1019 C1024 1.490 . S
C1020 H1010 0.930 . S
C1020 C1019 1.400 . S
C1020 C1023 1.386 . S
H1021 C1037 0.930 1_554 S
H1022 C1038 0.931 . S
C1023 H1011 0.929 . S
C1023 C1017 1.390 . S
C1023 C1020 1.386 . S
C1024 C1019 1.490 . S
C1024 C1026 1.395 . S
C1024 C1027 1.403 . S
H1025 C1031 0.930 . S
C1026 H1012 0.930 . S
C1026 C1024 1.395 . S
C1026 C1029 1.403 . S
C1027 C1024 1.403 . S
C1027 C1028 1.524 . S
C1027 C1031 1.400 . S
C1028 H1013 0.960 1_565 S
C1028 H1014 0.960 . S
C1028 H1015 0.960 . S
C1028 C1027 1.524 . S
C1029 C1026 1.403 . S
C1029 C1030 1.392 . S
C1029 C1033 1.495 . S
C1030 C1029 1.392 . S
C1030 C1031 1.385 . S
C1030 C1032 1.478 . S
C1031 H1025 0.930 . S
C1031 C1027 1.400 . S
C1031 C1030 1.385 . S
C1032 C1030 1.478 . S
C1032 C1034 1.381 . S
C1032 C1038 1.383 . S
C1033 C1029 1.495 . S
C1033 H1039 0.959 . S
C1033 H1040 0.961 . S
C1033 H1041 0.960 . S
C1034 C1032 1.381 . S
C1034 C1035 1.394 . S
C1034 H1042 0.930 . S
C1035 C1034 1.394 . S
C1035 C1036 1.383 . S
C1035 H1043 0.929 . S
C1036 C1035 1.383 . S
C1036 C1037 1.377 . S
C1037 H1021 0.930 1_556 S
C1037 C1036 1.377 . S
C1037 C1038 1.379 . S
C1038 H1022 0.931 . S
C1038 C1032 1.383 . S
C1038 C1037 1.379 . S
H1039 C1033 0.959 . S
H1040 C1033 0.961 . S
H1041 C1033 0.960 . S
H1042 C1034 0.930 . S
H1043 C1035 0.929 . S
H1044 C1052 0.929 . S
H1045 C1054 0.930 . S
H1046 C1056 0.930 . S
H1047 C1059 0.929 . S
H1048 C1062 0.930 . S
H1049 C1064 0.960 . S
H1050 C1064 0.960 . S
H1051 C1064 0.960 . S
C1052 H1044 0.929 . S
C1052 C1053 1.377 . S
C1052 C1054 1.384 . S
C1053 C1052 1.377 . S
C1053 C1059 1.390 . S
C1054 H1045 0.930 . S
C1054 C1052 1.384 . S
C1054 C1055 1.372 . S
C1055 C1054 1.372 . S
C1055 C1056 1.400 . S
C1055 C1060 1.490 . S
C1056 H1046 0.930 . S
C1056 C1055 1.400 . S
C1056 C1059 1.386 . S
H1057 C1073 0.930 . S
H1058 C1074 0.931 . S
C1059 H1047 0.929 . S
C1059 C1053 1.390 . S
C1059 C1056 1.386 . S
C1060 C1055 1.490 . S
C1060 C1062 1.395 . S
C1060 C1063 1.403 . S
H1061 C1067 0.930 . S
C1062 H1048 0.930 . S
C1062 C1060 1.395 . S
C1062 C1065 1.403 . S
C1063 C1060 1.403 . S
C1063 C1064 1.524 . S
C1063 C1067 1.400 . S
C1064 H1049 0.960 . S
C1064 H1050 0.960 . S
C1064 H1051 0.960 . S
C1064 C1063 1.524 . S
C1065 C1062 1.403 . S
C1065 C1066 1.392 . S
C1065 C1069 1.495 . S
C1066 C1065 1.392 . S
C1066 C1067 1.385 . S
C1066 C1068 1.478 . S
C1067 H1061 0.930 . S
C1067 C1063 1.400 . S
C1067 C1066 1.385 . S
C1068 C1066 1.478 . S
C1068 C1070 1.381 . S
C1068 C1074 1.383 . S
C1069 C1065 1.495 . S
C1069 H1075 0.959 . S
C1069 H1076 0.961 . S
C1069 H1077 0.960 . S
C1070 C1068 1.381 . S
C1070 C1071 1.394 . S
C1070 H1078 0.930 . S
C1071 C1070 1.394 . S
C1071 C1072 1.383 . S
C1071 H1079 0.929 . S
C1072 C1071 1.383 . S
C1072 C1073 1.377 . S
C1073 H1057 0.930 . S
C1073 C1072 1.377 . S
C1073 C1074 1.379 . S
C1074 H1058 0.931 . S
C1074 C1068 1.383 . S
C1074 C1073 1.379 . S
H1075 C1069 0.959 . S
H1076 C1069 0.961 . S
H1077 C1069 0.960 . S
H1078 C1070 0.930 . S
H1079 C1071 0.929 . S
H1080 C1088 0.929 . S
H1081 C1090 0.930 . S
H1082 C1092 0.930 . S
H1083 C1095 0.929 . S
H1084 C1098 0.930 . S
H1085 C1100 0.960 . S
H1086 C1100 0.960 . S
H1087 C1100 0.960 . S
C1088 H1080 0.929 . S
C1088 C1089 1.377 . S
C1088 C1090 1.384 . S
C1089 C1088 1.377 . S
C1089 C1095 1.390 . S
C1090 H1081 0.930 . S
C1090 C1088 1.384 . S
C1090 C1091 1.372 . S
C1091 C1090 1.372 . S
C1091 C1092 1.400 . S
C1091 C1096 1.490 . S
C1092 H1082 0.930 . S
C1092 C1091 1.400 . S
C1092 C1095 1.386 . S
H1093 C1109 0.930 . S
H1094 C1110 0.931 . S
C1095 H1083 0.929 . S
C1095 C1089 1.390 . S
C1095 C1092 1.386 . S
C1096 C1091 1.490 . S
C1096 C1098 1.395 . S
C1096 C1099 1.403 . S
H1097 C1103 0.930 . S
C1098 H1084 0.930 . S
C1098 C1096 1.395 . S
C1098 C1101 1.403 . S
C1099 C1096 1.403 . S
C1099 C1100 1.524 . S
C1099 C1103 1.400 . S
C1100 H1085 0.960 . S
C1100 H1086 0.960 . S
C1100 H1087 0.960 . S
C1100 C1099 1.524 . S
C1101 C1098 1.403 . S
C1101 C1102 1.392 . S
C1101 C1105 1.495 . S
C1102 C1101 1.392 . S
C1102 C1103 1.385 . S
C1102 C1104 1.478 . S
C1103 H1097 0.930 . S
C1103 C1099 1.400 . S
C1103 C1102 1.385 . S
C1104 C1102 1.478 . S
C1104 C1106 1.381 . S
C1104 C1110 1.383 . S
C1105 C1101 1.495 . S
C1105 H1111 0.949 1_554 S
C1105 H1112 0.961 . S
C1105 H1113 0.960 1_554 S
C1106 C1104 1.381 . S
C1106 C1107 1.394 . S
C1106 H1114 0.930 . S
C1107 C1106 1.394 . S
C1107 C1108 1.383 . S
C1107 H1115 0.929 1_554 S
C1108 C1107 1.383 . S
C1108 C1109 1.377 . S
C1109 H1093 0.930 . S
C1109 C1108 1.377 . S
C1109 C1110 1.379 . S
C1110 H1094 0.931 . S
C1110 C1104 1.383 . S
C1110 C1109 1.379 . S
H1111 C1105 0.949 1_556 S
H1112 C1105 0.961 . S
H1113 C1105 0.960 1_556 S
H1114 C1106 0.930 . S
H1115 C1107 0.929 1_556 S
H1116 C1124 0.929 . S
H1117 C1126 0.930 . S
H1118 C1128 0.930 . S
H1119 C1131 0.929 . S
H1120 C1134 0.930 . S
H1121 C1136 0.960 . S
H1122 C1136 0.960 . S
H1123 C1136 0.960 . S
C1124 H1116 0.929 . S
C1124 C1125 1.377 . S
C1124 C1126 1.384 . S
C1125 C1124 1.377 . S
C1125 C1131 1.390 . S
C1126 H1117 0.930 . S
C1126 C1124 1.384 . S
C1126 C1127 1.372 . S
C1127 C1126 1.372 . S
C1127 C1128 1.400 . S
C1127 C1132 1.490 . S
C1128 H1118 0.930 . S
C1128 C1127 1.400 . S
C1128 C1131 1.386 . S
H1129 C1145 0.930 . S
H1130 C1146 0.931 . S
C1131 H1119 0.929 . S
C1131 C1125 1.390 . S
C1131 C1128 1.386 . S
C1132 C1127 1.490 . S
C1132 C1134 1.395 . S
C1132 C1135 1.403 . S
H1133 C1139 0.930 . S
C1134 H1120 0.930 . S
C1134 C1132 1.395 . S
C1134 C1137 1.403 . S
C1135 C1132 1.403 . S
C1135 C1136 1.524 . S
C1135 C1139 1.400 . S
C1136 H1121 0.960 . S
C1136 H1122 0.960 . S
C1136 H1123 0.960 . S
C1136 C1135 1.524 . S
C1137 C1134 1.403 . S
C1137 C1138 1.392 . S
C1137 C1141 1.495 . S
C1138 C1137 1.392 . S
C1138 C1139 1.385 . S
C1138 C1140 1.478 . S
C1139 H1133 0.930 . S
C1139 C1135 1.400 . S
C1139 C1138 1.385 . S
C1140 C1138 1.478 . S
C1140 C1142 1.381 . S
C1140 C1146 1.383 . S
C1141 C1137 1.495 . S
C1141 H1147 0.959 . S
C1141 H1148 0.961 . S
C1141 H1149 0.960 . S
C1142 C1140 1.381 . S
C1142 C1143 1.394 . S
C1142 H1150 0.930 . S
C1143 C1142 1.394 . S
C1143 C1144 1.383 . S
C1143 H1151 0.929 . S
C1144 C1143 1.383 . S
C1144 C1145 1.377 . S
C1145 H1129 0.930 . S
C1145 C1144 1.377 . S
C1145 C1146 1.379 . S
C1146 H1130 0.931 . S
C1146 C1140 1.383 . S
C1146 C1145 1.379 . S
H1147 C1141 0.959 . S
H1148 C1141 0.961 . S
H1149 C1141 0.960 . S
H1150 C1142 0.930 . S
H1151 C1143 0.929 . S
H1152 C1160 0.929 . S
H1153 C1162 0.930 . S
H1154 C1164 0.930 . S
H1155 C1167 0.929 . S
H1156 C1170 0.930 . S
H1157 C1172 0.960 1_554 S
H1158 C1172 0.960 . S
H1159 C1172 0.960 . S
C1160 H1152 0.929 . S
C1160 C1161 1.377 . S
C1160 C1162 1.384 . S
C1161 C1160 1.377 . S
C1161 C1167 1.390 . S
C1162 H1153 0.930 . S
C1162 C1160 1.384 . S
C1162 C1163 1.372 . S
C1163 C1162 1.372 . S
C1163 C1164 1.400 . S
C1163 C1168 1.490 . S
C1164 H1154 0.930 . S
C1164 C1163 1.400 . S
C1164 C1167 1.386 . S
H1165 C1181 0.930 1_455 S
H1166 C1182 0.931 . S
C1167 H1155 0.929 . S
C1167 C1161 1.390 . S
C1167 C1164 1.386 . S
C1168 C1163 1.490 . S
C1168 C1170 1.395 . S
C1168 C1171 1.403 . S
H1169 C1175 0.930 . S
C1170 H1156 0.930 . S
C1170 C1168 1.395 . S
C1170 C1173 1.403 . S
C1171 C1168 1.403 . S
C1171 C1172 1.524 . S
C1171 C1175 1.400 . S
C1172 H1157 0.960 1_556 S
C1172 H1158 0.960 . S
C1172 H1159 0.960 . S
C1172 C1171 1.524 . S
C1173 C1170 1.403 . S
C1173 C1174 1.392 . S
C1173 C1177 1.495 . S
C1174 C1173 1.392 . S
C1174 C1175 1.385 . S
C1174 C1176 1.478 . S
C1175 H1169 0.930 . S
C1175 C1171 1.400 . S
C1175 C1174 1.385 . S
C1176 C1174 1.478 . S
C1176 C1178 1.381 . S
C1176 C1182 1.383 . S
C1177 C1173 1.495 . S
C1177 H1183 0.959 . S
C1177 H1184 0.961 . S
C1177 H1185 0.960 . S
C1178 C1176 1.381 . S
C1178 C1179 1.394 . S
C1178 H1186 0.930 . S
C1179 C1178 1.394 . S
C1179 C1180 1.383 . S
C1179 H1187 0.929 . S
C1180 C1179 1.383 . S
C1180 C1181 1.377 . S
C1181 H1165 0.930 1_655 S
C1181 C1180 1.377 . S
C1181 C1182 1.379 . S
C1182 H1166 0.931 . S
C1182 C1176 1.383 . S
C1182 C1181 1.379 . S
H1183 C1177 0.959 . S
H1184 C1177 0.961 . S
H1185 C1177 0.960 . S
H1186 C1178 0.930 . S
H1187 C1179 0.929 . S
H1188 C1196 0.929 . S
H1189 C1198 0.930 . S
H1190 C1200 0.930 . S
H1191 C1203 0.929 . S
H1192 C1206 0.930 . S
H1193 C1208 0.960 . S
H1194 C1208 0.960 . S
H1195 C1208 0.960 . S
C1196 H1188 0.929 . S
C1196 C1197 1.377 . S
C1196 C1198 1.384 . S
C1197 C1196 1.377 . S
C1197 C1203 1.390 . S
C1198 H1189 0.930 . S
C1198 C1196 1.384 . S
C1198 C1199 1.372 . S
C1199 C1198 1.372 . S
C1199 C1200 1.400 . S
C1199 C1204 1.490 . S
C1200 H1190 0.930 . S
C1200 C1199 1.400 . S
C1200 C1203 1.386 . S
H1201 C1217 0.930 . S
H1202 C1218 0.931 . S
C1203 H1191 0.929 . S
C1203 C1197 1.390 . S
C1203 C1200 1.386 . S
C1204 C1199 1.490 . S
C1204 C1206 1.395 . S
C1204 C1207 1.403 . S
H1205 C1211 0.930 . S
C1206 H1192 0.930 . S
C1206 C1204 1.395 . S
C1206 C1209 1.403 . S
C1207 C1204 1.403 . S
C1207 C1208 1.524 . S
C1207 C1211 1.400 . S
C1208 H1193 0.960 . S
C1208 H1194 0.960 . S
C1208 H1195 0.960 . S
C1208 C1207 1.524 . S
C1209 C1206 1.403 . S
C1209 C1210 1.392 . S
C1209 C1213 1.495 . S
C1210 C1209 1.392 . S
C1210 C1211 1.385 . S
C1210 C1212 1.478 . S
C1211 H1205 0.930 . S
C1211 C1207 1.400 . S
C1211 C1210 1.385 . S
C1212 C1210 1.478 . S
C1212 C1214 1.381 . S
C1212 C1218 1.383 . S
C1213 C1209 1.495 . S
C1213 H1219 0.959 . S
C1213 H1220 0.961 . S
C1213 H1221 0.960 . S
C1214 C1212 1.381 . S
C1214 C1215 1.394 . S
C1214 H1222 0.930 . S
C1215 C1214 1.394 . S
C1215 C1216 1.383 . S
C1215 H1223 0.929 . S
C1216 C1215 1.383 . S
C1216 C1217 1.377 . S
C1217 H1201 0.930 . S
C1217 C1216 1.377 . S
C1217 C1218 1.379 . S
C1218 H1202 0.931 . S
C1218 C1212 1.383 . S
C1218 C1217 1.379 . S
H1219 C1213 0.959 . S
H1220 C1213 0.961 . S
H1221 C1213 0.960 . S
H1222 C1214 0.930 . S
H1223 C1215 0.929 . S
H1224 C1232 0.929 . S
H1225 C1234 0.930 . S
H1226 C1236 0.930 . S
H1227 C1239 0.929 . S
H1228 C1242 0.930 . S
H1229 C1244 0.960 . S
H1230 C1244 0.960 . S
H1231 C1244 0.960 . S
C1232 H1224 0.929 . S
C1232 C1233 1.377 . S
C1232 C1234 1.384 . S
C1233 C1232 1.377 . S
C1233 C1239 1.390 . S
C1234 H1225 0.930 . S
C1234 C1232 1.384 . S
C1234 C1235 1.372 . S
C1235 C1234 1.372 . S
C1235 C1236 1.400 . S
C1235 C1240 1.490 . S
C1236 H1226 0.930 . S
C1236 C1235 1.400 . S
C1236 C1239 1.386 . S
H1237 C1253 0.930 1_655 S
H1238 C1254 0.931 1_655 S
C1239 H1227 0.929 . S
C1239 C1233 1.390 . S
C1239 C1236 1.386 . S
C1240 C1235 1.490 . S
C1240 C1242 1.395 . S
C1240 C1243 1.403 . S
H1241 C1247 0.930 . S
C1242 H1228 0.930 . S
C1242 C1240 1.395 . S
C1242 C1245 1.403 . S
C1243 C1240 1.403 . S
C1243 C1244 1.524 . S
C1243 C1247 1.400 . S
C1244 H1229 0.960 . S
C1244 H1230 0.960 . S
C1244 H1231 0.960 . S
C1244 C1243 1.524 . S
C1245 C1242 1.403 . S
C1245 C1246 1.392 . S
C1245 C1249 1.495 . S
C1246 C1245 1.392 . S
C1246 C1247 1.385 . S
C1246 C1248 1.478 . S
C1247 H1241 0.930 . S
C1247 C1243 1.400 . S
C1247 C1246 1.385 . S
C1248 C1246 1.478 . S
C1248 C1250 1.381 . S
C1248 C1254 1.383 . S
C1249 C1245 1.495 . S
C1249 H1255 0.959 . S
C1249 H1256 0.961 . S
C1249 H1257 0.960 . S
C1250 C1248 1.381 . S
C1250 C1251 1.394 . S
C1250 H1258 0.930 . S
C1251 C1250 1.394 . S
C1251 C1252 1.383 . S
C1251 H1259 0.929 . S
C1252 C1251 1.383 . S
C1252 C1253 1.377 . S
C1253 H1237 0.930 1_455 S
C1253 C1252 1.377 . S
C1253 C1254 1.379 . S
C1254 H1238 0.931 1_455 S
C1254 C1248 1.383 . S
C1254 C1253 1.379 . S
H1255 C1249 0.959 . S
H1256 C1249 0.961 . S
H1257 C1249 0.960 . S
H1258 C1250 0.930 . S
H1259 C1251 0.929 . S
H1260 C1268 0.929 . S
H1261 C1270 0.930 . S
H1262 C1272 0.930 . S
H1263 C1275 0.929 . S
H1264 C1278 0.930 . S
H1265 C1280 0.960 . S
H1266 C1280 0.960 . S
H1267 C1280 0.960 . S
C1268 H1260 0.929 . S
C1268 C1269 1.377 . S
C1268 C1270 1.384 . S
C1269 C1268 1.377 . S
C1269 C1275 1.390 . S
C1270 H1261 0.930 . S
C1270 C1268 1.384 . S
C1270 C1271 1.372 . S
C1271 C1270 1.372 . S
C1271 C1272 1.400 . S
C1271 C1276 1.490 . S
C1272 H1262 0.930 . S
C1272 C1271 1.400 . S
C1272 C1275 1.386 . S
H1273 C1289 0.930 . S
H1274 C1290 0.931 . S
C1275 H1263 0.929 . S
C1275 C1269 1.390 . S
C1275 C1272 1.386 . S
C1276 C1271 1.490 . S
C1276 C1278 1.395 . S
C1276 C1279 1.403 . S
H1277 C1283 0.930 . S
C1278 H1264 0.930 . S
C1278 C1276 1.395 . S
C1278 C1281 1.403 . S
C1279 C1276 1.403 . S
C1279 C1280 1.524 . S
C1279 C1283 1.400 . S
C1280 H1265 0.960 . S
C1280 H1266 0.960 . S
C1280 H1267 0.960 . S
C1280 C1279 1.524 . S
C1281 C1278 1.403 . S
C1281 C1282 1.392 . S
C1281 C1285 1.495 . S
C1282 C1281 1.392 . S
C1282 C1283 1.385 . S
C1282 C1284 1.478 . S
C1283 H1277 0.930 . S
C1283 C1279 1.400 . S
C1283 C1282 1.385 . S
C1284 C1282 1.478 . S
C1284 C1286 1.381 . S
C1284 C1290 1.383 . S
C1285 C1281 1.495 . S
C1285 H1291 0.959 . S
C1285 H1292 0.961 . S
C1285 H1293 0.960 . S
C1286 C1284 1.381 . S
C1286 C1287 1.394 . S
C1286 H1294 0.930 . S
C1287 C1286 1.394 . S
C1287 C1288 1.383 . S
C1287 H1295 0.929 . S
C1288 C1287 1.383 . S
C1288 C1289 1.377 . S
C1289 H1273 0.930 . S
C1289 C1288 1.377 . S
C1289 C1290 1.379 . S
C1290 H1274 0.931 . S
C1290 C1284 1.383 . S
C1290 C1289 1.379 . S
H1291 C1285 0.959 . S
H1292 C1285 0.961 . S
H1293 C1285 0.960 . S
H1294 C1286 0.930 . S
H1295 C1287 0.929 . S
C441 C1 2.192 . S
C460 C328 2.199 . S
C477 C40 1.089 . S
C496 N348 1.075 . S
C532 C382 1.974 . S
C513 C99 1.976 . S
C549 C118 1.318 . S
C568 N416 1.238 . S
C604 C369 2.387 . S
C585 C16 2.377 . S
C640 N326 1.132 . S
C621 C60 1.199 . S
C676 C403 1.979 . S
C657 C79 1.972 . S
C712 N378 0.971 . S
C693 C138 0.994 . S
C729 C21 1.851 . S
C748 C418 1.857 . S
C784 C352 1.712 . S
C765 C94 1.707 . S
C801 C133 1.453 . S
C820 C313 1.474 . S
C837 C55 1.459 . S
C856 C399 1.472 . S
C892 C339 2.203 . S
C873 C157 2.188 . S
C909 C196 1.091 . S
C928 N356 1.106 . S
C945 C255 1.962 . S
C964 C373 1.973 . S
C981 C289 1.315 . S
C1000 N408 1.230 . S
C1017 C172 2.380 . S
C1036 C358 2.391 . S
C1072 N318 1.195 . S
C1053 C216 1.214 . S
C1108 C412 1.974 . S
C1089 C235 1.967 . S
C1144 N386 1.000 . S
C1125 C294 0.982 . S
C1161 C177 1.840 . S
C1180 C429 1.859 . S
C1216 C343 1.721 . S
C1197 C250 1.711 . S
C1252 C322 1.473 . S
C1233 C274 1.453 . S
C1269 C211 1.453 . S
C1288 C388 1.467 . S
