# Generated by pormake.
# Topology apo, (3,6)-cn, num edge types: 1
# Building blocks:
#     Node 0, Type 0, BuildingBlock: ESEHIV_clean_linker_0, # of connection points: 3
#     Node 1, Type 0, BuildingBlock: ESEHIV_clean_linker_0, # of connection points: 3
#     Node 2, Type 0, BuildingBlock: ESEHIV_clean_linker_0, # of connection points: 3
#     Node 3, Type 0, BuildingBlock: ESEHIV_clean_linker_0, # of connection points: 3
#     Node 4, Type 0, BuildingBlock: ESEHIV_clean_linker_0, # of connection points: 3
#     Node 5, Type 0, BuildingBlock: ESEHIV_clean_linker_0, # of connection points: 3
#     Node 6, Type 0, BuildingBlock: ESEHIV_clean_linker_0, # of connection points: 3
#     Node 7, Type 0, BuildingBlock: ESEHIV_clean_linker_0, # of connection points: 3
#     Node 8, Type 1, BuildingBlock: KUMJIN_clean_sbu_1, # of connection points: 6
#     Node 9, Type 1, BuildingBlock: KUMJIN_clean_sbu_1, # of connection points: 6
#     Node 10, Type 1, BuildingBlock: KUMJIN_clean_sbu_1, # of connection points: 6
#     Node 11, Type 1, BuildingBlock: KUMJIN_clean_sbu_1, # of connection points: 6
#     Edge 12, Type (0, 1), BuildingBlock: OJICUG_clean_linker_0, # of connection points: 2
#     Edge 13, Type (0, 1), BuildingBlock: OJICUG_clean_linker_0, # of connection points: 2
#     Edge 14, Type (0, 1), BuildingBlock: OJICUG_clean_linker_0, # of connection points: 2
#     Edge 15, Type (0, 1), BuildingBlock: OJICUG_clean_linker_0, # of connection points: 2
#     Edge 16, Type (0, 1), BuildingBlock: OJICUG_clean_linker_0, # of connection points: 2
#     Edge 17, Type (0, 1), BuildingBlock: OJICUG_clean_linker_0, # of connection points: 2
#     Edge 18, Type (0, 1), BuildingBlock: OJICUG_clean_linker_0, # of connection points: 2
#     Edge 19, Type (0, 1), BuildingBlock: OJICUG_clean_linker_0, # of connection points: 2
#     Edge 20, Type (0, 1), BuildingBlock: OJICUG_clean_linker_0, # of connection points: 2
#     Edge 21, Type (0, 1), BuildingBlock: OJICUG_clean_linker_0, # of connection points: 2
#     Edge 22, Type (0, 1), BuildingBlock: OJICUG_clean_linker_0, # of connection points: 2
#     Edge 23, Type (0, 1), BuildingBlock: OJICUG_clean_linker_0, # of connection points: 2
#     Edge 24, Type (0, 1), BuildingBlock: OJICUG_clean_linker_0, # of connection points: 2
#     Edge 25, Type (0, 1), BuildingBlock: OJICUG_clean_linker_0, # of connection points: 2
#     Edge 26, Type (0, 1), BuildingBlock: OJICUG_clean_linker_0, # of connection points: 2
#     Edge 27, Type (0, 1), BuildingBlock: OJICUG_clean_linker_0, # of connection points: 2
#     Edge 28, Type (0, 1), BuildingBlock: OJICUG_clean_linker_0, # of connection points: 2
#     Edge 29, Type (0, 1), BuildingBlock: OJICUG_clean_linker_0, # of connection points: 2
#     Edge 30, Type (0, 1), BuildingBlock: OJICUG_clean_linker_0, # of connection points: 2
#     Edge 31, Type (0, 1), BuildingBlock: OJICUG_clean_linker_0, # of connection points: 2
#     Edge 32, Type (0, 1), BuildingBlock: OJICUG_clean_linker_0, # of connection points: 2
#     Edge 33, Type (0, 1), BuildingBlock: OJICUG_clean_linker_0, # of connection points: 2
#     Edge 34, Type (0, 1), BuildingBlock: OJICUG_clean_linker_0, # of connection points: 2
#     Edge 35, Type (0, 1), BuildingBlock: OJICUG_clean_linker_0, # of connection points: 2
# Relax obj value: 0.006
# Max RMSD: 0.142
# Mean RMSD: 0.105
data_MOF--net-apo--node1-KUMJIN_clean_sbu_1--node2-ESEHIV_clean_linker_0--edge1-OJICUG_clean_linker_0
_symmetry_space_group_name_H-M    P1
_symmetry_Int_Tables_number       1
_symmetry_cell_setting            triclinic
loop_
_symmetry_equiv_pos_as_xyz
'x, y, z'
_cell_length_a     16.402423
_cell_length_b     28.5044
_cell_length_c     38.394993
_cell_angle_alpha  89.898897
_cell_angle_beta   89.885759
_cell_angle_gamma 91.080975
loop_
_atom_site_label
_atom_site_type_symbol
_atom_site_fract_x
_atom_site_fract_y
_atom_site_fract_z
_atom_type_partial_charge
H0 H 0.32246 0.44649 0.43343 0.0
H1 H 0.27093 0.36855 0.34012 0.0
H2 H 0.19182 0.31388 0.43937 0.0
C3 C 0.29654 0.41558 0.42094 0.0
C4 C 0.25825 0.38022 0.44119 0.0
C5 C 0.30094 0.41152 0.38454 0.0
C6 C 0.26771 0.37161 0.36825 0.0
C7 C 0.22731 0.33661 0.38781 0.0
C8 C 0.22219 0.3412 0.42424 0.0
H9 H 0.14084 0.0713 0.9284 0.0
H10 H 0.25139 0.12405 0.83386 0.0
H11 H 0.27805 0.20169 0.92855 0.0
C12 C 0.17737 0.09756 0.91478 0.0
C13 C 0.20813 0.13675 0.93312 0.0
C14 C 0.19198 0.09275 0.87882 0.0
C15 C 0.2382 0.12753 0.86141 0.0
C16 C 0.26747 0.16716 0.87915 0.0
C17 C 0.25251 0.17163 0.91486 0.0
H18 H 0.85955 0.06884 0.60154 0.0
H19 H 0.77722 0.12855 0.69798 0.0
H20 H 0.72406 0.19664 0.60136 0.0
C21 C 0.82795 0.09599 0.61556 0.0
C22 C 0.79451 0.13376 0.59699 0.0
C23 C 0.82181 0.09379 0.65224 0.0
C24 C 0.78225 0.12994 0.6699 0.0
C25 C 0.7475 0.16737 0.65194 0.0
C26 C 0.75364 0.16883 0.61552 0.0
H27 H 0.64552 0.4148 0.1009 0.0
H28 H 0.7729 0.37748 0.19462 0.0
H29 H 0.76959 0.2836 0.10722 0.0
C30 C 0.6833 0.39094 0.11545 0.0
C31 C 0.7081 0.34903 0.09978 0.0
C32 C 0.70427 0.40086 0.15023 0.0
C33 C 0.75288 0.36909 0.16845 0.0
C34 C 0.77538 0.32634 0.15369 0.0
C35 C 0.75315 0.3166 0.11906 0.0
H36 H 0.65971 0.56795 0.59851 0.0
H37 H 0.78374 0.70279 0.60223 0.0
H38 H 0.74041 0.62594 0.69634 0.0
C39 C 0.68884 0.59603 0.61313 0.0
C40 C 0.69718 0.59154 0.64947 0.0
C41 C 0.71915 0.63623 0.59556 0.0
C42 C 0.7574 0.6722 0.61509 0.0
C43 C 0.76504 0.66817 0.65124 0.0
C44 C 0.73475 0.6282 0.66825 0.0
H45 H 0.7964 0.95528 0.09889 0.0
H46 H 0.76165 0.87195 0.19149 0.0
H47 H 0.67631 0.81974 0.09281 0.0
C48 C 0.77319 0.92364 0.11145 0.0
C49 C 0.73625 0.88796 0.09129 0.0
C50 C 0.78351 0.91781 0.14754 0.0
C51 C 0.75511 0.87633 0.16356 0.0
C52 C 0.71535 0.84126 0.14406 0.0
C53 C 0.70657 0.84702 0.10792 0.0
H54 H 0.14623 0.91532 0.42973 0.0
H55 H 0.27938 0.78729 0.42677 0.0
H56 H 0.26236 0.87288 0.33469 0.0
C57 C 0.18386 0.89113 0.41541 0.0
C58 C 0.20219 0.89943 0.38014 0.0
C59 C 0.2112 0.85046 0.43196 0.0
C60 C 0.25799 0.81821 0.41342 0.0
C61 C 0.27706 0.82584 0.37809 0.0
C62 C 0.24902 0.86672 0.36193 0.0
H63 H 0.37469 0.57438 0.92739 0.0
H64 H 0.28696 0.63058 0.83072 0.0
H65 H 0.22998 0.69869 0.92691 0.0
C66 C 0.34078 0.60049 0.91327 0.0
C67 C 0.30472 0.63752 0.93164 0.0
C68 C 0.33428 0.59762 0.87668 0.0
C69 C 0.29204 0.6325 0.85876 0.0
C70 C 0.25502 0.66938 0.87645 0.0
C71 C 0.26127 0.6714 0.9129 0.0
Eu72 Eu 0.10679 0.11951 0.23582 0.0
C73 C 0.76601 0.05046 0.27195 0.0
N74 N 0.78908 0.09652 0.27197 0.0
C75 C 0.67076 0.11622 0.23893 0.0
C76 C 0.69511 0.03528 0.25421 0.0
C77 C 0.74219 0.12955 0.25643 0.0
C78 C 0.64742 0.06885 0.23758 0.0
C79 C 0.79131 0.97045 0.28997 0.0
C80 C 0.81418 0.01843 0.28941 0.0
C81 C 0.72227 0.95495 0.27134 0.0
C82 C 0.67419 0.9873 0.2536 0.0
Eu83 Eu 0.91042 0.11594 0.30188 0.0
N84 N 0.88111 0.03437 0.30707 0.0
C85 C 0.83693 0.93969 0.31021 0.0
C86 C 0.91941 0.00548 0.32989 0.0
C87 C 0.89999 0.95752 0.33096 0.0
H88 H 0.76032 0.16612 0.25746 0.0
H89 H 0.93245 0.93457 0.34838 0.0
H90 H 0.21767 0.02437 0.25293 0.0
H91 H 0.19967 0.30393 0.22646 0.0
H92 H 0.9631 0.01944 0.3482 0.0
H93 H 0.8214 0.90259 0.31134 0.0
H94 H 0.10388 0.23596 0.22345 0.0
H95 H 0.63387 0.14243 0.22644 0.0
H96 H 0.70446 0.91815 0.27117 0.0
H97 H 0.62044 0.9749 0.23979 0.0
H98 H 0.35916 0.00589 0.26928 0.0
H99 H 0.59228 0.0586 0.22383 0.0
H100 H 0.3432 0.29217 0.24353 0.0
N101 N 0.23941 0.09809 0.25223 0.0
C102 C 0.29517 0.13376 0.2551 0.0
C103 C 0.34183 0.04201 0.2656 0.0
C104 C 0.37707 0.12475 0.26353 0.0
C105 C 0.26154 0.0526 0.25679 0.0
C106 C 0.39984 0.07822 0.26907 0.0
N107 N 0.19156 0.18698 0.24037 0.0
C108 C 0.16612 0.23073 0.23143 0.0
C109 C 0.32784 0.21702 0.25015 0.0
C110 C 0.27087 0.1794 0.24862 0.0
C111 C 0.30136 0.26233 0.24253 0.0
C112 C 0.22029 0.26915 0.23294 0.0
H113 H 0.46219 0.06985 0.27554 0.0
H114 H 0.49692 0.15594 0.27208 0.0
H115 H 0.45382 0.23666 0.26037 0.0
O116 O 0.07536 0.13102 0.18118 0.0
O117 O 0.12068 0.16729 0.28305 0.0
O118 O 0.00145 0.17296 0.31606 0.0
O119 O 0.182 0.09132 0.19403 0.0
O120 O 0.00113 0.1661 0.22235 0.0
O121 O 0.91985 0.18324 0.27055 0.0
O122 O 0.87639 0.10482 0.35675 0.0
O123 O 0.90264 0.09453 0.24456 0.0
O124 O 0.02182 0.05645 0.23799 0.0
O125 O 0.81559 0.15832 0.32592 0.0
O126 O 0.03225 0.08795 0.32093 0.0
O127 O 0.08306 0.05714 0.27053 0.0
C128 C 0.07727 0.1852 0.30859 0.0
C129 C 0.18748 0.13746 0.14292 0.0
C130 C 0.21368 0.15798 0.08219 0.0
C131 C 0.27265 0.19122 0.09304 0.0
C132 C 0.2478 0.17018 0.15307 0.0
C133 C 0.28978 0.19704 0.1283 0.0
C134 C 0.17113 0.13104 0.10731 0.0
C135 C 0.94525 0.19086 0.23833 0.0
C136 C 0.14036 0.11083 0.16926 0.0
C137 C 0.43375 0.16222 0.26564 0.0
C138 C 0.40922 0.2082 0.25895 0.0
C139 C 0.94435 0.06038 0.23088 0.0
C140 C 0.77193 0.14997 0.38637 0.0
C141 C 0.75091 0.15433 0.44929 0.0
C142 C 0.67916 0.17927 0.44356 0.0
C143 C 0.69973 0.17479 0.38131 0.0
C144 C 0.79686 0.13914 0.42058 0.0
C145 C 0.6535 0.18907 0.40977 0.0
C146 C 0.0809 0.05909 0.30462 0.0
C147 C 0.82228 0.13756 0.35595 0.0
H148 H 0.3067 0.21203 0.07415 0.0
H149 H 0.26288 0.17495 0.18005 0.0
H150 H 0.33601 0.22228 0.13646 0.0
H151 H 0.12498 0.10561 0.09921 0.0
H152 H 0.64306 0.19128 0.46535 0.0
H153 H 0.67916 0.1834 0.35531 0.0
H154 H 0.85296 0.12052 0.42493 0.0
H155 H 0.59805 0.20829 0.40563 0.0
Eu156 Eu 0.41312 0.36867 0.73172 0.0
C157 C 0.79202 0.38187 0.7789 0.0
N158 N 0.73486 0.34685 0.78112 0.0
C159 C 0.83415 0.29057 0.76395 0.0
C160 C 0.87252 0.3726 0.76823 0.0
C161 C 0.75568 0.30135 0.77535 0.0
C162 C 0.89265 0.32641 0.76001 0.0
C163 C 0.83066 0.46318 0.78979 0.0
C164 C 0.77143 0.42663 0.78944 0.0
C165 C 0.91008 0.45444 0.77805 0.0
C166 C 0.93094 0.40928 0.76724 0.0
Eu167 Eu 0.60418 0.3688 0.8008 0.0
N168 N 0.6941 0.43418 0.80044 0.0
C169 C 0.80845 0.50725 0.8024 0.0
C170 C 0.67327 0.47621 0.81464 0.0
C171 C 0.72959 0.51365 0.81519 0.0
H172 H 0.7123 0.27307 0.78005 0.0
H173 H 0.71238 0.54728 0.82566 0.0
H174 H 0.26888 0.42331 0.77607 0.0
H175 H 0.42434 0.18535 0.68835 0.0
H176 H 0.61254 0.48082 0.82495 0.0
H177 H 0.85208 0.53625 0.80299 0.0
H178 H 0.46467 0.26878 0.68854 0.0
H179 H 0.84987 0.25452 0.75883 0.0
H180 H 0.95622 0.48215 0.77784 0.0
H181 H 0.99293 0.40283 0.75898 0.0
H182 H 0.13804 0.40409 0.80575 0.0
H183 H 0.95381 0.31786 0.75173 0.0
H184 H 0.30451 0.15802 0.72249 0.0
N185 N 0.2898 0.35286 0.76125 0.0
C186 C 0.26091 0.30788 0.76035 0.0
C187 C 0.17236 0.37667 0.79334 0.0
C188 C 0.18751 0.29518 0.77737 0.0
C189 C 0.24624 0.38746 0.77663 0.0
C190 C 0.14315 0.33028 0.79395 0.0
N191 N 0.37585 0.28805 0.72613 0.0
C192 C 0.41558 0.25715 0.70529 0.0
C193 C 0.27866 0.22717 0.74245 0.0
C194 C 0.30612 0.27438 0.74299 0.0
C195 C 0.32344 0.19462 0.72348 0.0
C196 C 0.39137 0.20986 0.70434 0.0
H197 H 0.08616 0.32199 0.80711 0.0
H198 H 0.10528 0.2375 0.79073 0.0
H199 H 0.18526 0.1779 0.76034 0.0
O200 O 0.35766 0.35741 0.68 0.0
O201 O 0.40203 0.34477 0.78829 0.0
O202 O 0.52031 0.30576 0.79615 0.0
O203 O 0.34382 0.42437 0.70695 0.0
O204 O 0.53206 0.33735 0.71285 0.0
O205 O 0.58348 0.30769 0.7639 0.0
O206 O 0.56774 0.3768 0.85524 0.0
O207 O 0.6002 0.42888 0.76145 0.0
O208 O 0.53373 0.39891 0.71299 0.0
O209 O 0.68103 0.34331 0.84292 0.0
O210 O 0.49258 0.41036 0.81453 0.0
O211 O 0.42881 0.43555 0.76373 0.0
C212 C 0.44192 0.3095 0.80145 0.0
C213 C 0.27701 0.41714 0.65055 0.0
C214 C 0.23458 0.41661 0.58933 0.0
C215 C 0.17345 0.44867 0.5976 0.0
C216 C 0.21611 0.44964 0.65786 0.0
C217 C 0.16465 0.46514 0.63155 0.0
C218 C 0.28656 0.40085 0.61605 0.0
C219 C 0.58281 0.3103 0.72977 0.0
C220 C 0.32699 0.39914 0.67952 0.0
C221 C 0.16109 0.24804 0.77748 0.0
C222 C 0.20676 0.21409 0.76023 0.0
C223 C 0.58052 0.4306 0.7282 0.0
C224 C 0.61597 0.32122 0.89545 0.0
C225 C 0.62229 0.30158 0.95747 0.0
C226 C 0.59315 0.25603 0.94943 0.0
C227 C 0.58651 0.27589 0.88809 0.0
C228 C 0.63281 0.33409 0.93001 0.0
C229 C 0.57494 0.24353 0.91505 0.0
C230 C 0.44932 0.44058 0.79683 0.0
C231 C 0.63103 0.35549 0.86749 0.0
H232 H 0.13313 0.46161 0.57759 0.0
H233 H 0.20723 0.46245 0.68412 0.0
H234 H 0.11753 0.48998 0.63752 0.0
H235 H 0.33347 0.37581 0.61009 0.0
H236 H 0.58569 0.22964 0.96954 0.0
H237 H 0.57322 0.26551 0.86155 0.0
H238 H 0.65387 0.36961 0.93535 0.0
H239 H 0.55266 0.20842 0.90926 0.0
Eu240 Eu 0.09017 0.87392 0.72918 0.0
C241 C 0.74951 0.81242 0.78699 0.0
N242 N 0.78065 0.8567 0.78355 0.0
C243 C 0.65613 0.88211 0.75779 0.0
C244 C 0.67064 0.80093 0.77479 0.0
C245 C 0.73513 0.8917 0.76982 0.0
C246 C 0.62392 0.83646 0.76005 0.0
C247 C 0.76713 0.73201 0.80584 0.0
C248 C 0.79745 0.77844 0.80231 0.0
C249 C 0.68923 0.72015 0.79305 0.0
C250 C 0.64102 0.75454 0.77767 0.0
Eu251 Eu 0.91357 0.87021 0.80472 0.0
N252 N 0.87274 0.79096 0.81444 0.0
C253 C 0.81539 0.69906 0.82274 0.0
C254 C 0.9172 0.75977 0.83314 0.0
C255 C 0.8902 0.7132 0.8369 0.0
H256 H 0.75959 0.92709 0.76835 0.0
H257 H 0.92654 0.68843 0.85121 0.0
H258 H 0.22497 0.7912 0.75417 0.0
H259 H 0.1539 0.05832 0.69997 0.0
H260 H 0.97246 0.77073 0.84609 0.0
H261 H 0.79439 0.66303 0.82591 0.0
H262 H 0.0768 0.98262 0.69748 0.0
H263 H 0.62012 0.9099 0.74681 0.0
H264 H 0.66522 0.6846 0.79538 0.0
H265 H 0.58074 0.74496 0.76826 0.0
H266 H 0.35908 0.78798 0.78265 0.0
H267 H 0.56284 0.8291 0.75055 0.0
H268 H 0.28416 0.06349 0.73234 0.0
N269 N 0.2219 0.86591 0.75381 0.0
C270 C 0.266 0.90639 0.75812 0.0
C271 C 0.33307 0.82158 0.77641 0.0
C272 C 0.34427 0.90608 0.77331 0.0
C273 C 0.2562 0.82363 0.76084 0.0
C274 C 0.37673 0.86304 0.78326 0.0
N275 N 0.16147 0.9467 0.72913 0.0
C276 C 0.13377 0.98495 0.71154 0.0
C277 C 0.28146 0.99004 0.74704 0.0
C278 C 0.23541 0.94789 0.745 0.0
C279 C 0.25066 0.03039 0.73129 0.0
C280 C 0.17717 0.02762 0.71294 0.0
H281 H 0.4367 0.8613 0.79495 0.0
H282 H 0.44873 0.94884 0.78878 0.0
H283 H 0.39346 0.02242 0.76594 0.0
O284 O 0.06227 0.88144 0.67383 0.0
O285 O 0.07495 0.93537 0.76602 0.0
O286 O 0.04109 0.89705 0.81597 0.0
O287 O 0.17467 0.84968 0.68936 0.0
O288 O 0.96664 0.904 0.71705 0.0
O289 O 0.91478 0.93424 0.76856 0.0
O290 O 0.87989 0.86172 0.85941 0.0
O291 O 0.8875 0.83971 0.75098 0.0
O292 O 0.01019 0.80872 0.73503 0.0
O293 O 0.85935 0.92803 0.8337 0.0
O294 O 0.03628 0.83814 0.81711 0.0
O295 O 0.08429 0.80967 0.7646 0.0
C296 C 0.07286 0.93344 0.80002 0.0
C297 C 0.11719 0.82535 0.63605 0.0
C298 C 0.12654 0.80445 0.57451 0.0
C299 C 0.10002 0.75853 0.58307 0.0
C300 C 0.09065 0.77958 0.64404 0.0
C301 C 0.08189 0.74638 0.61757 0.0
C302 C 0.13434 0.83775 0.60141 0.0
C303 C 0.92636 0.93588 0.7344 0.0
C304 C 0.12783 0.86068 0.66345 0.0
C305 C 0.38887 0.94839 0.77687 0.0
C306 C 0.35748 0.99028 0.7638 0.0
C307 C 0.93012 0.80825 0.73432 0.0
C308 C 0.77699 0.90861 0.8835 0.0
C309 C 0.71319 0.90885 0.9412 0.0
C310 C 0.63899 0.92097 0.92566 0.0
C311 C 0.70214 0.92014 0.86843 0.0
C312 C 0.78189 0.90247 0.91983 0.0
C313 C 0.63352 0.92618 0.8895 0.0
C314 C 0.08077 0.80902 0.79888 0.0
C315 C 0.85162 0.9038 0.86244 0.0
H316 H 0.09453 0.73169 0.56325 0.0
H317 H 0.07732 0.76959 0.67069 0.0
H318 H 0.0617 0.71098 0.62384 0.0
H319 H 0.15328 0.87354 0.59552 0.0
H320 H 0.58505 0.92589 0.94146 0.0
H321 H 0.6968 0.92477 0.84055 0.0
H322 H 0.83978 0.89373 0.93156 0.0
H323 H 0.57591 0.93518 0.87777 0.0
Eu324 Eu 0.41155 0.61941 0.23035 0.0
C325 C 0.79146 0.64693 0.27411 0.0
N326 N 0.74207 0.60823 0.27682 0.0
C327 C 0.85267 0.55881 0.26102 0.0
C328 C 0.87422 0.64285 0.26477 0.0
C329 C 0.77112 0.56452 0.27057 0.0
C330 C 0.90447 0.59811 0.25812 0.0
C331 C 0.80945 0.73152 0.27894 0.0
C332 C 0.75938 0.69084 0.28102 0.0
C333 C 0.89186 0.72752 0.26959 0.0
C334 C 0.92414 0.68335 0.26254 0.0
Eu335 Eu 0.60698 0.62159 0.29446 0.0
N336 N 0.67911 0.69373 0.28974 0.0
C337 C 0.77516 0.775 0.28642 0.0
C338 C 0.64614 0.73573 0.29828 0.0
C339 C 0.69328 0.77705 0.29628 0.0
H340 H 0.7318 0.53395 0.27364 0.0
H341 H 0.66664 0.81043 0.30265 0.0
H342 H 0.27145 0.68198 0.27244 0.0
H343 H 0.40841 0.43292 0.19578 0.0
H344 H 0.58377 0.73747 0.30681 0.0
H345 H 0.81153 0.80708 0.28501 0.0
H346 H 0.45602 0.51514 0.19288 0.0
H347 H 0.87569 0.52408 0.25619 0.0
H348 H 0.93123 0.7584 0.26783 0.0
H349 H 0.98792 0.68085 0.25548 0.0
H350 H 0.13967 0.66857 0.30258 0.0
H351 H 0.96772 0.59352 0.25091 0.0
H352 H 0.28445 0.41197 0.22961 0.0
N353 N 0.28609 0.61011 0.25983 0.0
C354 C 0.25336 0.56591 0.26069 0.0
C355 C 0.17131 0.63938 0.29113 0.0
C356 C 0.1786 0.55663 0.27778 0.0
C357 C 0.24611 0.64683 0.27429 0.0
C358 C 0.13755 0.59407 0.29303 0.0
N359 N 0.36836 0.53964 0.22892 0.0
C360 C 0.40591 0.50607 0.20978 0.0
C361 C 0.26427 0.48334 0.24636 0.0
C362 C 0.29619 0.52963 0.24526 0.0
C363 C 0.30688 0.44797 0.22935 0.0
C364 C 0.37721 0.45958 0.21045 0.0
H365 H 0.07973 0.5884 0.30623 0.0
H366 H 0.0903 0.50262 0.29246 0.0
H367 H 0.16522 0.4385 0.265 0.0
O368 O 0.39149 0.60995 0.1737 0.0
O369 O 0.40288 0.59079 0.28607 0.0
O370 O 0.52618 0.55659 0.29311 0.0
O371 O 0.31565 0.65719 0.204 0.0
O372 O 0.53037 0.58837 0.21027 0.0
O373 O 0.58761 0.55847 0.26013 0.0
O374 O 0.58522 0.63357 0.34988 0.0
O375 O 0.62302 0.66219 0.24338 0.0
O376 O 0.49475 0.68292 0.22418 0.0
O377 O 0.68617 0.591 0.33391 0.0
O378 O 0.49438 0.66101 0.31104 0.0
O379 O 0.42741 0.68629 0.26143 0.0
C380 C 0.44776 0.55769 0.29942 0.0
C381 C 0.28231 0.651 0.14271 0.0
C382 C 0.26371 0.65617 0.07966 0.0
C383 C 0.18949 0.67878 0.08513 0.0
C384 C 0.20747 0.67344 0.14738 0.0
C385 C 0.1614 0.68703 0.11878 0.0
C386 C 0.30991 0.64174 0.10856 0.0
C387 C 0.5801 0.5595 0.22607 0.0
C388 C 0.33104 0.63898 0.17375 0.0
C389 C 0.14752 0.51045 0.27933 0.0
C390 C 0.19033 0.4739 0.26377 0.0
C391 C 0.57469 0.687 0.2234 0.0
C392 C 0.70203 0.63577 0.38542 0.0
C393 C 0.73408 0.65543 0.44575 0.0
C394 C 0.79516 0.68688 0.43401 0.0
C395 C 0.76446 0.66665 0.37433 0.0
C396 C 0.68761 0.62978 0.42128 0.0
C397 C 0.81052 0.69215 0.39848 0.0
C398 C 0.44461 0.6892 0.2948 0.0
C399 C 0.64972 0.6112 0.35989 0.0
H400 H 0.15311 0.69004 0.06323 0.0
H401 H 0.18446 0.6807 0.17325 0.0
H402 H 0.10397 0.70437 0.1227 0.0
H403 H 0.36766 0.62472 0.10446 0.0
H404 H 0.83193 0.70678 0.45239 0.0
H405 H 0.7777 0.67116 0.34709 0.0
H406 H 0.63962 0.60589 0.43011 0.0
H407 H 0.85828 0.71606 0.38962 0.0
C408 C 0.16745 0.98532 0.37746 0.0
C409 C 0.17033 0.94097 0.36146 0.0
H410 H 0.13699 0.05799 0.37181 0.0
C411 C 0.14379 0.93641 0.32681 0.0
H412 H 0.18787 0.9901 0.40404 0.0
C413 C 0.11742 0.9752 0.30828 0.0
C414 C 0.11472 0.01942 0.32415 0.0
H415 H 0.14241 0.90264 0.31393 0.0
H416 H 0.09667 0.97015 0.28175 0.0
C417 C 0.13925 0.02421 0.35899 0.0
C418 C 0.39901 0.5641 0.82275 0.0
C419 C 0.36779 0.55749 0.85675 0.0
H420 H 0.44676 0.5319 0.77668 0.0
C421 C 0.36362 0.51177 0.87047 0.0
H422 H 0.40531 0.59886 0.81156 0.0
C423 C 0.38944 0.47376 0.85068 0.0
C424 C 0.41823 0.48052 0.81654 0.0
H425 H 0.33876 0.5051 0.89619 0.0
H426 H 0.38582 0.43887 0.86192 0.0
C427 C 0.42276 0.52588 0.80266 0.0
C428 C 0.7145 0.53078 0.69594 0.0
C429 C 0.66861 0.54852 0.66814 0.0
H430 H 0.72268 0.47991 0.73626 0.0
C431 C 0.59491 0.52558 0.6592 0.0
H432 H 0.77271 0.5466 0.70298 0.0
C433 C 0.56705 0.48652 0.67826 0.0
C434 C 0.61188 0.47008 0.70681 0.0
H435 H 0.55768 0.53849 0.63813 0.0
H436 H 0.50931 0.47005 0.67126 0.0
C437 C 0.68603 0.49236 0.71514 0.0
C438 C 0.79811 0.00124 0.16777 0.0
C439 C 0.82472 0.95468 0.16865 0.0
H440 H 0.81464 0.0713 0.18734 0.0
C441 C 0.89053 0.94323 0.1902 0.0
H442 H 0.74691 0.01078 0.15163 0.0
C443 C 0.92987 0.9778 0.21011 0.0
C444 C 0.90302 0.02427 0.20941 0.0
H445 H 0.9121 0.90757 0.19135 0.0
H446 H 0.98055 0.96801 0.22648 0.0
C447 C 0.8365 0.03569 0.18825 0.0
C448 C 0.84512 0.00729 0.65968 0.0
C449 C 0.85268 0.05325 0.67263 0.0
H450 H 0.86196 0.93405 0.6694 0.0
C451 C 0.8844 0.05987 0.70647 0.0
H452 H 0.81998 0.00063 0.63407 0.0
C453 C 0.90501 0.02158 0.7272 0.0
C454 C 0.89693 0.97594 0.71415 0.0
H455 H 0.89349 0.09473 0.71708 0.0
H456 H 0.92961 0.02773 0.75299 0.0
C457 C 0.8679 0.9691 0.6801 0.0
C458 C 0.66328 0.48606 0.15218 0.0
C459 C 0.6721 0.4424 0.16884 0.0
H460 H 0.62708 0.55786 0.15738 0.0
C461 C 0.64991 0.4382 0.20414 0.0
H462 H 0.68001 0.4906 0.12508 0.0
C463 C 0.62235 0.47665 0.22262 0.0
C464 C 0.6139 0.52019 0.20615 0.0
H465 H 0.65284 0.40488 0.21763 0.0
H466 H 0.60544 0.47181 0.24971 0.0
C467 C 0.63373 0.52461 0.17067 0.0
C468 C 0.40917 0.44045 0.34352 0.0
C469 C 0.33897 0.44926 0.36319 0.0
H470 H 0.49917 0.46822 0.30817 0.0
C471 C 0.30387 0.49375 0.36152 0.0
H472 H 0.43678 0.40623 0.34427 0.0
C473 C 0.3385 0.52896 0.3404 0.0
C474 C 0.40966 0.52043 0.32116 0.0
H475 H 0.24911 0.50103 0.37622 0.0
H476 H 0.31025 0.56299 0.33947 0.0
C477 C 0.44475 0.47588 0.32298 0.0
C478 C 0.15766 0.00659 0.87397 0.0
C479 C 0.15918 0.05176 0.85913 0.0
H480 H 0.12892 0.93358 0.86676 0.0
C481 C 0.13055 0.05749 0.82488 0.0
H482 H 0.18024 0.0008 0.90007 0.0
C483 C 0.10276 0.01896 0.80571 0.0
C484 C 0.10193 0.97395 0.82047 0.0
H485 H 0.12896 0.09186 0.81286 0.0
H486 H 0.08076 0.02457 0.7795 0.0
C487 C 0.12877 0.96807 0.85486 0.0
C488 C 0.2056 0.10139 0.99325 0.0
C489 C 0.1973 0.1408 0.97147 0.0
H490 H 0.21656 0.07602 0.04567 0.0
C491 C 0.18495 0.18488 0.9868 0.0
H492 H 0.21582 0.06698 0.98235 0.0
C493 C 0.18657 0.19002 0.02291 0.0
C494 C 0.1993 0.1511 0.04452 0.0
H495 H 0.17624 0.21576 0.97086 0.0
H496 H 0.18003 0.22469 0.03398 0.0
C497 C 0.20619 0.1065 0.02949 0.0
C498 C 0.32368 0.39931 0.49899 0.0
C499 C 0.25446 0.38487 0.47986 0.0
H500 H 0.3721 0.4196 0.54884 0.0
C501 C 0.18072 0.3768 0.49778 0.0
H502 H 0.38163 0.40528 0.48599 0.0
C503 C 0.17531 0.38521 0.53363 0.0
C504 C 0.24377 0.4012 0.55252 0.0
H505 H 0.1263 0.3658 0.48385 0.0
H506 H 0.11693 0.38031 0.5465 0.0
C507 C 0.31853 0.40704 0.535 0.0
C508 C 0.61923 0.30719 0.05674 0.0
C509 C 0.68457 0.33817 0.06355 0.0
H510 H 0.54644 0.27252 0.01811 0.0
C511 C 0.72863 0.35785 0.03567 0.0
H512 H 0.58438 0.2918 0.07802 0.0
C513 C 0.70846 0.34609 1.00133 0.0
C514 C 0.64295 0.31485 0.99415 0.0
H515 H 0.7796 0.38166 0.04051 0.0
H516 H 0.74551 0.36082 0.98052 0.0
C517 C 0.59818 0.29591 0.02241 0.0
C518 C 0.81083 0.18052 0.54191 0.0
C519 C 0.79844 0.13668 0.55822 0.0
H520 H 0.80549 0.22014 0.49451 0.0
C521 C 0.78166 0.09717 0.53726 0.0
H522 H 0.82566 0.21149 0.55712 0.0
C523 C 0.77162 0.10216 0.50114 0.0
C524 C 0.77802 0.14668 0.48555 0.0
H525 H 0.77149 0.06296 0.54897 0.0
H526 H 0.75416 0.07181 0.48574 0.0
C527 C 0.79998 0.18551 0.50606 0.0
C528 C 0.75737 0.85772 0.03058 0.0
C529 C 0.72975 0.89319 0.05285 0.0
H530 H 0.77486 0.83522 0.97778 0.0
C531 C 0.69689 0.93385 0.03816 0.0
H532 H 0.78356 0.82618 0.04121 0.0
C533 C 0.69083 0.93871 1.00195 0.0
C534 C 0.71909 0.90344 0.97966 0.0
H535 H 0.67503 0.96168 0.05473 0.0
H536 H 0.665 0.97035 0.99133 0.0
C537 C 0.75287 0.86301 0.99435 0.0
C538 C 0.72457 0.60051 0.53547 0.0
C539 C 0.71437 0.64012 0.55686 0.0
H540 H 0.73763 0.57435 0.48338 0.0
C541 C 0.70372 0.68407 0.54087 0.0
H542 H 0.73404 0.56618 0.54669 0.0
C543 C 0.70765 0.68871 0.5047 0.0
C544 C 0.72056 0.64942 0.4836 0.0
H545 H 0.69357 0.71517 0.55632 0.0
H546 H 0.70174 0.7232 0.49317 0.0
C547 C 0.72697 0.6051 0.49918 0.0
C548 C 0.29737 0.60059 0.99155 0.0
C549 C 0.30905 0.64063 0.97041 0.0
H550 H 0.27492 0.57414 0.04331 0.0
C551 C 0.31784 0.68469 0.98662 0.0
H552 H 0.28999 0.56617 0.97996 0.0
C553 C 0.3086 0.68911 0.02262 0.0
C554 C 0.29175 0.64956 0.04337 0.0
H555 H 0.32876 0.71613 0.9713 0.0
H556 H 0.31099 0.72379 0.03414 0.0
C557 C 0.28884 0.60505 0.02778 0.0
C558 C 0.23244 0.86008 0.49586 0.0
C559 C 0.18794 0.8403 0.46831 0.0
H560 H 0.24948 0.86344 0.55099 0.0
C561 C 0.12251 0.80945 0.47547 0.0
H562 H 0.28351 0.88375 0.4907 0.0
C563 C 0.10186 0.7983 0.50988 0.0
C564 C 0.14698 0.8174 0.53781 0.0
H565 H 0.08746 0.79396 0.45439 0.0
H566 H 0.05023 0.77489 0.51455 0.0
C567 C 0.21244 0.84859 0.53031 0.0
C568 C 0.237 0.26765 0.34795 0.0
C569 C 0.18962 0.29582 0.36967 0.0
H570 H 0.23969 0.20912 0.31352 0.0
C571 C 0.10557 0.28634 0.37243 0.0
H572 H 0.30214 0.27398 0.34569 0.0
C573 C 0.0691 0.25024 0.35283 0.0
C574 C 0.11622 0.22246 0.33043 0.0
H575 H 0.06774 0.3078 0.38891 0.0
H576 H 0.00376 0.24467 0.35485 0.0
C577 C 0.20091 0.23094 0.32904 0.0
C578 C 0.28834 0.25067 0.86116 0.0
C579 C 0.31374 0.20395 0.86015 0.0
H580 H 0.30916 0.32097 0.84288 0.0
C581 C 0.38219 0.19231 0.84021 0.0
H582 H 0.23522 0.26025 0.87618 0.0
C583 C 0.42475 0.22693 0.82153 0.0
C584 C 0.39854 0.2735 0.82207 0.0
H585 H 0.40281 0.15645 0.83917 0.0
H586 H 0.47717 0.21714 0.80614 0.0
C587 C 0.33018 0.28519 0.84204 0.0
C588 C 0.70752 0.25153 0.66047 0.0
C589 C 0.70379 0.20435 0.67144 0.0
H590 H 0.6709 0.3222 0.67042 0.0
C591 C 0.65891 0.19279 0.70168 0.0
H592 H 0.74234 0.26193 0.63766 0.0
C593 C 0.62112 0.22752 0.72098 0.0
C594 C 0.625 0.2743 0.70986 0.0
H595 H 0.65218 0.1568 0.71042 0.0
H596 H 0.58714 0.21766 0.74419 0.0
C597 C 0.66743 0.28611 0.6793 0.0
C598 C 0.88424 0.26625 0.16136 0.0
C599 C 0.81954 0.29174 0.17528 0.0
H600 H 0.97539 0.21519 0.17031 0.0
C601 C 0.79777 0.28462 0.21043 0.0
H602 H 0.90315 0.27132 0.13455 0.0
C603 C 0.83978 0.2529 0.23119 0.0
C604 C 0.90408 0.22706 0.21722 0.0
H605 H 0.74736 0.3032 0.22188 0.0
H606 H 0.82092 0.24824 0.25804 0.0
C607 C 0.92608 0.23435 0.18207 0.0
C608 C 0.7688 0.74667 0.67979 0.0
C609 C 0.80775 0.70479 0.6715 0.0
H610 H 0.77718 0.81248 0.70653 0.0
C611 C 0.8865 0.69683 0.684 0.0
H612 H 0.70763 0.75305 0.67056 0.0
C613 C 0.92628 0.73057 0.70443 0.0
C614 C 0.88752 0.77258 0.71294 0.0
H615 H 0.91704 0.66444 0.678 0.0
H616 H 0.98701 0.72351 0.7139 0.0
C617 C 0.80829 0.7803 0.70053 0.0
C618 C 0.73059 0.76883 0.1802 0.0
C619 C 0.68024 0.7996 0.162 0.0
H620 H 0.73727 0.70743 0.21194 0.0
C621 C 0.59556 0.79198 0.16264 0.0
H622 H 0.79621 0.77394 0.17983 0.0
C623 C 0.56145 0.75514 0.18226 0.0
C624 C 0.6115 0.72466 0.20121 0.0
H625 H 0.55565 0.81546 0.14884 0.0
H626 H 0.49568 0.75104 0.18289 0.0
C627 C 0.69663 0.73118 0.19903 0.0
C628 C 0.37357 0.80492 0.32941 0.0
C629 C 0.32298 0.79066 0.35743 0.0
H630 H 0.44956 0.78363 0.28688 0.0
C631 C 0.31404 0.74231 0.3645 0.0
H632 H 0.38431 0.84167 0.32359 0.0
C633 C 0.35454 0.7094 0.34425 0.0
C634 C 0.40253 0.72401 0.31588 0.0
H635 H 0.27451 0.7296 0.3852 0.0
H636 H 0.34681 0.67239 0.3502 0.0
C637 C 0.41159 0.77184 0.30843 0.0
C638 C 0.16577 0.69306 0.82629 0.0
C639 C 0.20952 0.7054 0.85661 0.0
H640 H 0.09252 0.71667 0.78374 0.0
C641 C 0.21073 0.75259 0.86734 0.0
H642 H 0.16121 0.65698 0.81765 0.0
C643 C 0.16879 0.78632 0.84845 0.0
C644 C 0.12681 0.77377 0.818 0.0
H645 H 0.24481 0.7637 0.89009 0.0
H646 H 0.17013 0.8224 0.85734 0.0
C647 C 0.126 0.72708 0.80687 0.0
loop_
_geom_bond_atom_site_label_1
_geom_bond_atom_site_label_2
_geom_bond_distance
_geom_bond_site_symmetry_2
_ccdc_geom_bond_type
H0 C3 0.931 . S
H1 C6 0.928 . S
H2 C8 0.930 . S
C3 H0 0.931 . S
C3 C4 1.413 . S
C3 C5 1.360 . S
C4 C3 1.413 . S
C4 C8 1.429 . S
C5 C3 1.360 . S
C5 C6 1.372 . S
C6 H1 0.928 . S
C6 C5 1.372 . S
C6 C7 1.404 . S
C7 C6 1.404 . S
C7 C8 1.391 . S
C8 H2 0.930 . S
C8 C4 1.429 . S
C8 C7 1.391 . S
H9 C12 0.931 . S
H10 C15 0.928 . S
H11 C17 0.930 . S
C12 H9 0.931 . S
C12 C13 1.413 . S
C12 C14 1.360 . S
C13 C12 1.413 . S
C13 C17 1.429 . S
C14 C12 1.360 . S
C14 C15 1.372 . S
C15 H10 0.928 . S
C15 C14 1.372 . S
C15 C16 1.404 . S
C16 C15 1.404 . S
C16 C17 1.391 . S
C17 H11 0.930 . S
C17 C13 1.429 . S
C17 C16 1.391 . S
H18 C21 0.931 . S
H19 C24 0.928 . S
H20 C26 0.930 . S
C21 H18 0.931 . S
C21 C22 1.413 . S
C21 C23 1.360 . S
C22 C21 1.413 . S
C22 C26 1.429 . S
C23 C21 1.360 . S
C23 C24 1.372 . S
C24 H19 0.928 . S
C24 C23 1.372 . S
C24 C25 1.404 . S
C25 C24 1.404 . S
C25 C26 1.391 . S
C26 H20 0.930 . S
C26 C22 1.429 . S
C26 C25 1.391 . S
H27 C30 0.931 . S
H28 C33 0.928 . S
H29 C35 0.930 . S
C30 H27 0.931 . S
C30 C31 1.413 . S
C30 C32 1.360 . S
C31 C30 1.413 . S
C31 C35 1.429 . S
C32 C30 1.360 . S
C32 C33 1.372 . S
C33 H28 0.928 . S
C33 C32 1.372 . S
C33 C34 1.404 . S
C34 C33 1.404 . S
C34 C35 1.391 . S
C35 H29 0.930 . S
C35 C31 1.429 . S
C35 C34 1.391 . S
H36 C39 0.931 . S
H37 C42 0.928 . S
H38 C44 0.930 . S
C39 H36 0.931 . S
C39 C40 1.413 . S
C39 C41 1.360 . S
C40 C39 1.413 . S
C40 C44 1.429 . S
C41 C39 1.360 . S
C41 C42 1.372 . S
C42 H37 0.928 . S
C42 C41 1.372 . S
C42 C43 1.404 . S
C43 C42 1.404 . S
C43 C44 1.391 . S
C44 H38 0.930 . S
C44 C40 1.429 . S
C44 C43 1.391 . S
H45 C48 0.931 . S
H46 C51 0.928 . S
H47 C53 0.930 . S
C48 H45 0.931 . S
C48 C49 1.413 . S
C48 C50 1.360 . S
C49 C48 1.413 . S
C49 C53 1.429 . S
C50 C48 1.360 . S
C50 C51 1.372 . S
C51 H46 0.928 . S
C51 C50 1.372 . S
C51 C52 1.404 . S
C52 C51 1.404 . S
C52 C53 1.391 . S
C53 H47 0.930 . S
C53 C49 1.429 . S
C53 C52 1.391 . S
H54 C57 0.931 . S
H55 C60 0.928 . S
H56 C62 0.930 . S
C57 H54 0.931 . S
C57 C58 1.413 . S
C57 C59 1.360 . S
C58 C57 1.413 . S
C58 C62 1.429 . S
C59 C57 1.360 . S
C59 C60 1.372 . S
C60 H55 0.928 . S
C60 C59 1.372 . S
C60 C61 1.404 . S
C61 C60 1.404 . S
C61 C62 1.391 . S
C62 H56 0.930 . S
C62 C58 1.429 . S
C62 C61 1.391 . S
H63 C66 0.931 . S
H64 C69 0.928 . S
H65 C71 0.930 . S
C66 H63 0.931 . S
C66 C67 1.413 . S
C66 C68 1.360 . S
C67 C66 1.413 . S
C67 C71 1.429 . S
C68 C66 1.360 . S
C68 C69 1.372 . S
C69 H64 0.928 . S
C69 C68 1.372 . S
C69 C70 1.404 . S
C70 C69 1.404 . S
C70 C71 1.391 . S
C71 H65 0.930 . S
C71 C67 1.429 . S
C71 C70 1.391 . S
Eu72 N101 2.600 . S
Eu72 N107 2.562 . S
Eu72 O116 2.462 . S
Eu72 O117 2.373 . S
Eu72 O119 2.432 . S
Eu72 O120 2.291 1_455 S
Eu72 O124 2.332 1_455 S
Eu72 O127 2.372 . S
Eu72 C136 2.787 . S
C73 N74 1.365 . S
C73 C76 1.405 . S
C73 C80 1.448 . S
N74 C73 1.365 . S
N74 C77 1.319 . S
N74 Eu83 2.600 . S
C75 C77 1.397 . S
C75 C78 1.367 . S
C75 H95 0.931 . S
C76 C73 1.405 . S
C76 C78 1.403 . S
C76 C82 1.439 . S
C77 N74 1.319 . S
C77 C75 1.397 . S
C77 H88 0.930 . S
C78 C75 1.367 . S
C78 C76 1.403 . S
C78 H99 0.929 . S
C79 C80 1.430 . S
C79 C81 1.387 . S
C79 C85 1.404 1_545 S
C80 C73 1.448 . S
C80 C79 1.430 . S
C80 N84 1.351 . S
C81 C79 1.387 . S
C81 C82 1.374 . S
C81 H96 0.931 1_545 S
C82 C76 1.439 . S
C82 C81 1.374 . S
C82 H97 0.931 . S
Eu83 N74 2.600 . S
Eu83 N84 2.562 . S
Eu83 O118 2.335 1_655 S
Eu83 O121 2.372 . S
Eu83 O122 2.462 . S
Eu83 O123 2.373 . S
Eu83 O125 2.432 . S
Eu83 O126 2.291 1_655 S
Eu83 C147 2.787 . S
N84 C80 1.351 . S
N84 Eu83 2.562 . S
N84 C86 1.325 . S
C85 C79 1.404 1_565 S
C85 C87 1.366 . S
C85 H93 0.930 . S
C86 N84 1.325 . S
C86 C87 1.416 1_545 S
C86 H92 0.929 . S
C87 C85 1.366 . S
C87 C86 1.416 1_565 S
C87 H89 0.930 . S
H88 C77 0.930 . S
H89 C87 0.930 . S
H90 C105 0.930 . S
H91 C112 0.930 . S
H92 C86 0.929 . S
H93 C85 0.930 . S
H94 C108 0.929 . S
H95 C75 0.931 . S
H96 C81 0.931 1_565 S
H97 C82 0.931 . S
H98 C103 0.931 . S
H99 C78 0.929 . S
H100 C111 0.930 . S
N101 Eu72 2.600 . S
N101 C102 1.365 . S
N101 C105 1.319 . S
C102 N101 1.365 . S
C102 C104 1.405 . S
C102 C110 1.448 . S
C103 H98 0.931 . S
C103 C105 1.397 . S
C103 C106 1.367 . S
C104 C102 1.405 . S
C104 C106 1.403 . S
C104 C137 1.439 . S
C105 H90 0.930 . S
C105 N101 1.319 . S
C105 C103 1.397 . S
C106 C103 1.367 . S
C106 C104 1.403 . S
C106 H113 0.929 . S
N107 Eu72 2.562 . S
N107 C108 1.325 . S
N107 C110 1.351 . S
C108 H94 0.929 . S
C108 N107 1.325 . S
C108 C112 1.416 . S
C109 C110 1.430 . S
C109 C111 1.404 . S
C109 C138 1.387 . S
C110 C102 1.448 . S
C110 N107 1.351 . S
C110 C109 1.430 . S
C111 H100 0.930 . S
C111 C109 1.404 . S
C111 C112 1.366 . S
C112 H91 0.930 . S
C112 C108 1.416 . S
C112 C111 1.366 . S
H113 C106 0.929 . S
H114 C137 0.931 . S
H115 C138 0.931 . S
O116 Eu72 2.462 . S
O116 C136 1.252 . S
O117 Eu72 2.373 . S
O117 C128 1.249 . S
O118 Eu83 2.335 1_455 S
O118 C128 1.264 . S
O119 Eu72 2.432 . S
O119 C136 1.268 . S
O120 Eu72 2.291 1_655 S
O120 C135 1.255 . S
O121 Eu83 2.372 . S
O121 C135 1.257 . S
O122 Eu83 2.462 . S
O122 C147 1.252 . S
O123 Eu83 2.373 . S
O123 C139 1.249 . S
O124 Eu72 2.332 1_655 S
O124 C139 1.267 . S
O125 Eu83 2.432 . S
O125 C147 1.268 . S
O126 Eu83 2.291 1_455 S
O126 C146 1.255 . S
O127 Eu72 2.372 . S
O127 C146 1.257 . S
C128 O117 1.249 . S
C128 O118 1.264 . S
C129 C132 1.382 . S
C129 C134 1.390 . S
C129 C136 1.506 . S
C130 C131 1.398 . S
C130 C134 1.392 . S
C131 C130 1.398 . S
C131 C133 1.372 . S
C131 H148 0.931 . S
C132 C129 1.382 . S
C132 C133 1.390 . S
C132 H149 0.931 . S
C133 C131 1.372 . S
C133 C132 1.390 . S
C133 H150 0.929 . S
C134 C129 1.390 . S
C134 C130 1.392 . S
C134 H151 0.930 . S
C135 O120 1.255 . S
C135 O121 1.257 . S
C136 Eu72 2.787 . S
C136 O116 1.252 . S
C136 O119 1.268 . S
C136 C129 1.506 . S
C137 C104 1.439 . S
C137 H114 0.931 . S
C137 C138 1.374 . S
C138 C109 1.387 . S
C138 H115 0.931 . S
C138 C137 1.374 . S
C139 O123 1.249 . S
C139 O124 1.267 . S
C140 C143 1.382 . S
C140 C144 1.390 . S
C140 C147 1.506 . S
C141 C142 1.398 . S
C141 C144 1.392 . S
C142 C141 1.398 . S
C142 C145 1.372 . S
C142 H152 0.931 . S
C143 C140 1.382 . S
C143 C145 1.390 . S
C143 H153 0.931 . S
C144 C140 1.390 . S
C144 C141 1.392 . S
C144 H154 0.930 . S
C145 C142 1.372 . S
C145 C143 1.390 . S
C145 H155 0.929 . S
C146 O126 1.255 . S
C146 O127 1.257 . S
C147 Eu83 2.787 . S
C147 O122 1.252 . S
C147 O125 1.268 . S
C147 C140 1.506 . S
H148 C131 0.931 . S
H149 C132 0.931 . S
H150 C133 0.929 . S
H151 C134 0.930 . S
H152 C142 0.931 . S
H153 C143 0.931 . S
H154 C144 0.930 . S
H155 C145 0.929 . S
Eu156 N185 2.600 . S
Eu156 N191 2.562 . S
Eu156 O200 2.462 . S
Eu156 O201 2.373 . S
Eu156 O203 2.432 . S
Eu156 O204 2.291 . S
Eu156 O208 2.335 . S
Eu156 O211 2.372 . S
Eu156 C220 2.787 . S
C157 N158 1.365 . S
C157 C160 1.405 . S
C157 C164 1.448 . S
N158 C157 1.365 . S
N158 C161 1.319 . S
N158 Eu167 2.600 . S
C159 C161 1.397 . S
C159 C162 1.367 . S
C159 H179 0.931 . S
C160 C157 1.405 . S
C160 C162 1.403 . S
C160 C166 1.439 . S
C161 N158 1.319 . S
C161 C159 1.397 . S
C161 H172 0.930 . S
C162 C159 1.367 . S
C162 C160 1.403 . S
C162 H183 0.929 . S
C163 C164 1.430 . S
C163 C165 1.387 . S
C163 C169 1.404 . S
C164 C157 1.448 . S
C164 C163 1.430 . S
C164 N168 1.351 . S
C165 C163 1.387 . S
C165 C166 1.374 . S
C165 H180 0.931 . S
C166 C160 1.439 . S
C166 C165 1.374 . S
C166 H181 0.931 . S
Eu167 N158 2.600 . S
Eu167 N168 2.562 . S
Eu167 O202 2.335 . S
Eu167 O205 2.372 . S
Eu167 O206 2.462 . S
Eu167 O207 2.373 . S
Eu167 O209 2.432 . S
Eu167 O210 2.291 . S
Eu167 C231 2.787 . S
N168 C164 1.351 . S
N168 Eu167 2.562 . S
N168 C170 1.325 . S
C169 C163 1.404 . S
C169 C171 1.366 . S
C169 H177 0.930 . S
C170 N168 1.325 . S
C170 C171 1.416 . S
C170 H176 0.929 . S
C171 C169 1.366 . S
C171 C170 1.416 . S
C171 H173 0.930 . S
H172 C161 0.930 . S
H173 C171 0.930 . S
H174 C189 0.930 . S
H175 C196 0.930 . S
H176 C170 0.929 . S
H177 C169 0.930 . S
H178 C192 0.929 . S
H179 C159 0.931 . S
H180 C165 0.931 . S
H181 C166 0.931 . S
H182 C187 0.931 . S
H183 C162 0.929 . S
H184 C195 0.930 . S
N185 Eu156 2.600 . S
N185 C186 1.365 . S
N185 C189 1.319 . S
C186 N185 1.365 . S
C186 C188 1.405 . S
C186 C194 1.448 . S
C187 H182 0.931 . S
C187 C189 1.397 . S
C187 C190 1.367 . S
C188 C186 1.405 . S
C188 C190 1.403 . S
C188 C221 1.439 . S
C189 H174 0.930 . S
C189 N185 1.319 . S
C189 C187 1.397 . S
C190 C187 1.367 . S
C190 C188 1.403 . S
C190 H197 0.929 . S
N191 Eu156 2.562 . S
N191 C192 1.325 . S
N191 C194 1.351 . S
C192 H178 0.929 . S
C192 N191 1.325 . S
C192 C196 1.416 . S
C193 C194 1.430 . S
C193 C195 1.404 . S
C193 C222 1.387 . S
C194 C186 1.448 . S
C194 N191 1.351 . S
C194 C193 1.430 . S
C195 H184 0.930 . S
C195 C193 1.404 . S
C195 C196 1.366 . S
C196 H175 0.930 . S
C196 C192 1.416 . S
C196 C195 1.366 . S
H197 C190 0.929 . S
H198 C221 0.931 . S
H199 C222 0.931 . S
O200 Eu156 2.462 . S
O200 C220 1.252 . S
O201 Eu156 2.373 . S
O201 C212 1.249 . S
O202 Eu167 2.335 . S
O202 C212 1.264 . S
O203 Eu156 2.432 . S
O203 C220 1.268 . S
O204 Eu156 2.291 . S
O204 C219 1.255 . S
O205 Eu167 2.372 . S
O205 C219 1.257 . S
O206 Eu167 2.462 . S
O206 C231 1.252 . S
O207 Eu167 2.373 . S
O207 C223 1.249 . S
O208 Eu156 2.335 . S
O208 C223 1.264 . S
O209 Eu167 2.432 . S
O209 C231 1.268 . S
O210 Eu167 2.291 . S
O210 C230 1.255 . S
O211 Eu156 2.372 . S
O211 C230 1.257 . S
C212 O201 1.249 . S
C212 O202 1.264 . S
C213 C216 1.382 . S
C213 C218 1.390 . S
C213 C220 1.506 . S
C214 C215 1.398 . S
C214 C218 1.392 . S
C215 C214 1.398 . S
C215 C217 1.372 . S
C215 H232 0.931 . S
C216 C213 1.382 . S
C216 C217 1.390 . S
C216 H233 0.931 . S
C217 C215 1.372 . S
C217 C216 1.390 . S
C217 H234 0.929 . S
C218 C213 1.390 . S
C218 C214 1.392 . S
C218 H235 0.930 . S
C219 O204 1.255 . S
C219 O205 1.257 . S
C220 Eu156 2.787 . S
C220 O200 1.252 . S
C220 O203 1.268 . S
C220 C213 1.506 . S
C221 C188 1.439 . S
C221 H198 0.931 . S
C221 C222 1.374 . S
C222 C193 1.387 . S
C222 H199 0.931 . S
C222 C221 1.374 . S
C223 O207 1.249 . S
C223 O208 1.264 . S
C224 C227 1.382 . S
C224 C228 1.390 . S
C224 C231 1.506 . S
C225 C226 1.398 . S
C225 C228 1.392 . S
C226 C225 1.398 . S
C226 C229 1.372 . S
C226 H236 0.931 . S
C227 C224 1.382 . S
C227 C229 1.390 . S
C227 H237 0.931 . S
C228 C224 1.390 . S
C228 C225 1.392 . S
C228 H238 0.930 . S
C229 C226 1.372 . S
C229 C227 1.390 . S
C229 H239 0.929 . S
C230 O210 1.255 . S
C230 O211 1.257 . S
C231 Eu167 2.787 . S
C231 O206 1.252 . S
C231 O209 1.268 . S
C231 C224 1.506 . S
H232 C215 0.931 . S
H233 C216 0.931 . S
H234 C217 0.929 . S
H235 C218 0.930 . S
H236 C226 0.931 . S
H237 C227 0.931 . S
H238 C228 0.930 . S
H239 C229 0.929 . S
Eu240 N269 2.600 . S
Eu240 N275 2.562 . S
Eu240 O284 2.462 . S
Eu240 O285 2.373 . S
Eu240 O287 2.432 . S
Eu240 O288 2.291 . S
Eu240 O292 2.335 . S
Eu240 O295 2.372 . S
Eu240 C304 2.787 . S
C241 N242 1.365 . S
C241 C244 1.405 . S
C241 C248 1.448 . S
N242 C241 1.365 . S
N242 C245 1.319 . S
N242 Eu251 2.600 . S
C243 C245 1.397 . S
C243 C246 1.367 . S
C243 H263 0.931 . S
C244 C241 1.405 . S
C244 C246 1.403 . S
C244 C250 1.439 . S
C245 N242 1.319 . S
C245 C243 1.397 . S
C245 H256 0.930 . S
C246 C243 1.367 . S
C246 C244 1.403 . S
C246 H267 0.929 . S
C247 C248 1.430 . S
C247 C249 1.387 . S
C247 C253 1.404 . S
C248 C241 1.448 . S
C248 C247 1.430 . S
C248 N252 1.351 . S
C249 C247 1.387 . S
C249 C250 1.374 . S
C249 H264 0.931 . S
C250 C244 1.439 . S
C250 C249 1.374 . S
C250 H265 0.931 . S
Eu251 N242 2.600 . S
Eu251 N252 2.562 . S
Eu251 O286 2.335 1_655 S
Eu251 O289 2.372 . S
Eu251 O290 2.462 . S
Eu251 O291 2.373 . S
Eu251 O293 2.432 . S
Eu251 O294 2.291 1_655 S
Eu251 C315 2.787 . S
N252 C248 1.351 . S
N252 Eu251 2.562 . S
N252 C254 1.325 . S
C253 C247 1.404 . S
C253 C255 1.366 . S
C253 H261 0.930 . S
C254 N252 1.325 . S
C254 C255 1.416 . S
C254 H260 0.929 . S
C255 C253 1.366 . S
C255 C254 1.416 . S
C255 H257 0.930 . S
H256 C245 0.930 . S
H257 C255 0.930 . S
H258 C273 0.930 . S
H259 C280 0.930 . S
H260 C254 0.929 . S
H261 C253 0.930 . S
H262 C276 0.929 . S
H263 C243 0.931 . S
H264 C249 0.931 . S
H265 C250 0.931 . S
H266 C271 0.931 . S
H267 C246 0.929 . S
H268 C279 0.930 . S
N269 Eu240 2.600 . S
N269 C270 1.365 . S
N269 C273 1.319 . S
C270 N269 1.365 . S
C270 C272 1.405 . S
C270 C278 1.448 . S
C271 H266 0.931 . S
C271 C273 1.397 . S
C271 C274 1.367 . S
C272 C270 1.405 . S
C272 C274 1.403 . S
C272 C305 1.439 . S
C273 H258 0.930 . S
C273 N269 1.319 . S
C273 C271 1.397 . S
C274 C271 1.367 . S
C274 C272 1.403 . S
C274 H281 0.929 . S
N275 Eu240 2.562 . S
N275 C276 1.325 . S
N275 C278 1.351 . S
C276 H262 0.929 . S
C276 N275 1.325 . S
C276 C280 1.416 1_565 S
C277 C278 1.430 . S
C277 C279 1.404 1_565 S
C277 C306 1.387 . S
C278 C270 1.448 . S
C278 N275 1.351 . S
C278 C277 1.430 . S
C279 H268 0.930 . S
C279 C277 1.404 1_545 S
C279 C280 1.366 . S
C280 H259 0.930 . S
C280 C276 1.416 1_545 S
C280 C279 1.366 . S
H281 C274 0.929 . S
H282 C305 0.931 . S
H283 C306 0.931 1_545 S
O284 Eu240 2.462 . S
O284 C304 1.252 . S
O285 Eu240 2.373 . S
O285 C296 1.249 . S
O286 Eu251 2.335 1_455 S
O286 C296 1.264 . S
O287 Eu240 2.432 . S
O287 C304 1.268 . S
O288 Eu240 2.291 . S
O288 C303 1.255 1_455 S
O289 Eu251 2.372 . S
O289 C303 1.257 . S
O290 Eu251 2.462 . S
O290 C315 1.252 . S
O291 Eu251 2.373 . S
O291 C307 1.249 . S
O292 Eu240 2.335 . S
O292 C307 1.264 1_455 S
O293 Eu251 2.432 . S
O293 C315 1.268 . S
O294 Eu251 2.291 1_455 S
O294 C314 1.255 . S
O295 Eu240 2.372 . S
O295 C314 1.257 . S
C296 O285 1.249 . S
C296 O286 1.264 . S
C297 C300 1.382 . S
C297 C302 1.390 . S
C297 C304 1.506 . S
C298 C299 1.398 . S
C298 C302 1.392 . S
C299 C298 1.398 . S
C299 C301 1.372 . S
C299 H316 0.931 . S
C300 C297 1.382 . S
C300 C301 1.390 . S
C300 H317 0.931 . S
C301 C299 1.372 . S
C301 C300 1.390 . S
C301 H318 0.929 . S
C302 C297 1.390 . S
C302 C298 1.392 . S
C302 H319 0.930 . S
C303 O288 1.255 1_655 S
C303 O289 1.257 . S
C304 Eu240 2.787 . S
C304 O284 1.252 . S
C304 O287 1.268 . S
C304 C297 1.506 . S
C305 C272 1.439 . S
C305 H282 0.931 . S
C305 C306 1.374 . S
C306 C277 1.387 . S
C306 H283 0.931 1_565 S
C306 C305 1.374 . S
C307 O291 1.249 . S
C307 O292 1.264 1_655 S
C308 C311 1.382 . S
C308 C312 1.390 . S
C308 C315 1.506 . S
C309 C310 1.398 . S
C309 C312 1.392 . S
C310 C309 1.398 . S
C310 C313 1.372 . S
C310 H320 0.931 . S
C311 C308 1.382 . S
C311 C313 1.390 . S
C311 H321 0.931 . S
C312 C308 1.390 . S
C312 C309 1.392 . S
C312 H322 0.930 . S
C313 C310 1.372 . S
C313 C311 1.390 . S
C313 H323 0.929 . S
C314 O294 1.255 . S
C314 O295 1.257 . S
C315 Eu251 2.787 . S
C315 O290 1.252 . S
C315 O293 1.268 . S
C315 C308 1.506 . S
H316 C299 0.931 . S
H317 C300 0.931 . S
H318 C301 0.929 . S
H319 C302 0.930 . S
H320 C310 0.931 . S
H321 C311 0.931 . S
H322 C312 0.930 . S
H323 C313 0.929 . S
Eu324 N353 2.600 . S
Eu324 N359 2.562 . S
Eu324 O368 2.462 . S
Eu324 O369 2.373 . S
Eu324 O371 2.432 . S
Eu324 O372 2.291 . S
Eu324 O376 2.335 . S
Eu324 O379 2.372 . S
Eu324 C388 2.787 . S
C325 N326 1.365 . S
C325 C328 1.405 . S
C325 C332 1.448 . S
N326 C325 1.365 . S
N326 C329 1.319 . S
N326 Eu335 2.600 . S
C327 C329 1.397 . S
C327 C330 1.367 . S
C327 H347 0.931 . S
C328 C325 1.405 . S
C328 C330 1.403 . S
C328 C334 1.439 . S
C329 N326 1.319 . S
C329 C327 1.397 . S
C329 H340 0.930 . S
C330 C327 1.367 . S
C330 C328 1.403 . S
C330 H351 0.929 . S
C331 C332 1.430 . S
C331 C333 1.387 . S
C331 C337 1.404 . S
C332 C325 1.448 . S
C332 C331 1.430 . S
C332 N336 1.351 . S
C333 C331 1.387 . S
C333 C334 1.374 . S
C333 H348 0.931 . S
C334 C328 1.439 . S
C334 C333 1.374 . S
C334 H349 0.931 . S
Eu335 N326 2.600 . S
Eu335 N336 2.562 . S
Eu335 O370 2.335 . S
Eu335 O373 2.372 . S
Eu335 O374 2.462 . S
Eu335 O375 2.373 . S
Eu335 O377 2.432 . S
Eu335 O378 2.291 . S
Eu335 C399 2.787 . S
N336 C332 1.351 . S
N336 Eu335 2.562 . S
N336 C338 1.325 . S
C337 C331 1.404 . S
C337 C339 1.366 . S
C337 H345 0.930 . S
C338 N336 1.325 . S
C338 C339 1.416 . S
C338 H344 0.929 . S
C339 C337 1.366 . S
C339 C338 1.416 . S
C339 H341 0.930 . S
H340 C329 0.930 . S
H341 C339 0.930 . S
H342 C357 0.930 . S
H343 C364 0.930 . S
H344 C338 0.929 . S
H345 C337 0.930 . S
H346 C360 0.929 . S
H347 C327 0.931 . S
H348 C333 0.931 . S
H349 C334 0.931 . S
H350 C355 0.931 . S
H351 C330 0.929 . S
H352 C363 0.930 . S
N353 Eu324 2.600 . S
N353 C354 1.365 . S
N353 C357 1.319 . S
C354 N353 1.365 . S
C354 C356 1.405 . S
C354 C362 1.448 . S
C355 H350 0.931 . S
C355 C357 1.397 . S
C355 C358 1.367 . S
C356 C354 1.405 . S
C356 C358 1.403 . S
C356 C389 1.439 . S
C357 H342 0.930 . S
C357 N353 1.319 . S
C357 C355 1.397 . S
C358 C355 1.367 . S
C358 C356 1.403 . S
C358 H365 0.929 . S
N359 Eu324 2.562 . S
N359 C360 1.325 . S
N359 C362 1.351 . S
C360 H346 0.929 . S
C360 N359 1.325 . S
C360 C364 1.416 . S
C361 C362 1.430 . S
C361 C363 1.404 . S
C361 C390 1.387 . S
C362 C354 1.448 . S
C362 N359 1.351 . S
C362 C361 1.430 . S
C363 H352 0.930 . S
C363 C361 1.404 . S
C363 C364 1.366 . S
C364 H343 0.930 . S
C364 C360 1.416 . S
C364 C363 1.366 . S
H365 C358 0.929 . S
H366 C389 0.931 . S
H367 C390 0.931 . S
O368 Eu324 2.462 . S
O368 C388 1.252 . S
O369 Eu324 2.373 . S
O369 C380 1.249 . S
O370 Eu335 2.335 . S
O370 C380 1.264 . S
O371 Eu324 2.432 . S
O371 C388 1.268 . S
O372 Eu324 2.291 . S
O372 C387 1.255 . S
O373 Eu335 2.372 . S
O373 C387 1.257 . S
O374 Eu335 2.462 . S
O374 C399 1.252 . S
O375 Eu335 2.373 . S
O375 C391 1.249 . S
O376 Eu324 2.335 . S
O376 C391 1.264 . S
O377 Eu335 2.432 . S
O377 C399 1.268 . S
O378 Eu335 2.291 . S
O378 C398 1.255 . S
O379 Eu324 2.372 . S
O379 C398 1.257 . S
C380 O369 1.249 . S
C380 O370 1.264 . S
C381 C384 1.382 . S
C381 C386 1.390 . S
C381 C388 1.506 . S
C382 C383 1.398 . S
C382 C386 1.392 . S
C383 C382 1.398 . S
C383 C385 1.372 . S
C383 H400 0.931 . S
C384 C381 1.382 . S
C384 C385 1.390 . S
C384 H401 0.931 . S
C385 C383 1.372 . S
C385 C384 1.390 . S
C385 H402 0.929 . S
C386 C381 1.390 . S
C386 C382 1.392 . S
C386 H403 0.930 . S
C387 O372 1.255 . S
C387 O373 1.257 . S
C388 Eu324 2.787 . S
C388 O368 1.252 . S
C388 O371 1.268 . S
C388 C381 1.506 . S
C389 C356 1.439 . S
C389 H366 0.931 . S
C389 C390 1.374 . S
C390 C361 1.387 . S
C390 H367 0.931 . S
C390 C389 1.374 . S
C391 O375 1.249 . S
C391 O376 1.264 . S
C392 C395 1.382 . S
C392 C396 1.390 . S
C392 C399 1.506 . S
C393 C394 1.398 . S
C393 C396 1.392 . S
C394 C393 1.398 . S
C394 C397 1.372 . S
C394 H404 0.931 . S
C395 C392 1.382 . S
C395 C397 1.390 . S
C395 H405 0.931 . S
C396 C392 1.390 . S
C396 C393 1.392 . S
C396 H406 0.930 . S
C397 C394 1.372 . S
C397 C395 1.390 . S
C397 H407 0.929 . S
C398 O378 1.255 . S
C398 O379 1.257 . S
C399 Eu335 2.787 . S
C399 O374 1.252 . S
C399 O377 1.268 . S
C399 C392 1.506 . S
H400 C383 0.931 . S
H401 C384 0.931 . S
H402 C385 0.929 . S
H403 C386 0.930 . S
H404 C394 0.931 . S
H405 C395 0.931 . S
H406 C396 0.930 . S
H407 C397 0.929 . S
C408 C409 1.387 . S
C408 H412 0.950 . S
C408 C417 1.390 1_565 S
C409 C408 1.387 . S
C409 C411 1.387 . S
H410 C417 0.950 . S
C411 C409 1.387 . S
C411 C413 1.390 1_565 S
C411 H415 0.950 . S
H412 C408 0.950 . S
C413 C411 1.390 1_545 S
C413 C414 1.387 . S
C413 H416 0.950 . S
C414 C413 1.387 . S
C414 C417 1.387 . S
H415 C411 0.950 . S
H416 C413 0.950 . S
C417 C408 1.390 1_545 S
C417 H410 0.950 . S
C417 C414 1.387 . S
C418 C419 1.387 . S
C418 H422 0.950 . S
C418 C427 1.390 . S
C419 C418 1.387 . S
C419 C421 1.387 . S
H420 C427 0.950 . S
C421 C419 1.387 . S
C421 C423 1.390 . S
C421 H425 0.950 . S
H422 C418 0.950 . S
C423 C421 1.390 . S
C423 C424 1.387 . S
C423 H426 0.950 . S
C424 C423 1.387 . S
C424 C427 1.387 . S
H425 C421 0.950 . S
H426 C423 0.950 . S
C427 C418 1.390 . S
C427 H420 0.950 . S
C427 C424 1.387 . S
C428 C429 1.387 . S
C428 H432 0.950 . S
C428 C437 1.390 . S
C429 C428 1.387 . S
C429 C431 1.387 . S
H430 C437 0.950 . S
C431 C429 1.387 . S
C431 C433 1.390 . S
C431 H435 0.950 . S
H432 C428 0.950 . S
C433 C431 1.390 . S
C433 C434 1.387 . S
C433 H436 0.950 . S
C434 C433 1.387 . S
C434 C437 1.387 . S
H435 C431 0.950 . S
H436 C433 0.950 . S
C437 C428 1.390 . S
C437 H430 0.950 . S
C437 C434 1.387 . S
C438 C439 1.387 . S
C438 H442 0.950 . S
C438 C447 1.390 1_565 S
C439 C438 1.387 . S
C439 C441 1.387 . S
H440 C447 0.950 . S
C441 C439 1.387 . S
C441 C443 1.390 1_565 S
C441 H445 0.950 . S
H442 C438 0.950 . S
C443 C441 1.390 1_545 S
C443 C444 1.387 . S
C443 H446 0.950 . S
C444 C443 1.387 . S
C444 C447 1.387 . S
H445 C441 0.950 . S
H446 C443 0.950 . S
C447 C438 1.390 1_545 S
C447 H440 0.950 . S
C447 C444 1.387 . S
C448 C449 1.387 . S
C448 H452 0.950 . S
C448 C457 1.390 1_545 S
C449 C448 1.387 . S
C449 C451 1.387 . S
H450 C457 0.950 . S
C451 C449 1.387 . S
C451 C453 1.390 1_545 S
C451 H455 0.950 . S
H452 C448 0.950 . S
C453 C451 1.390 1_565 S
C453 C454 1.388 . S
C453 H456 0.950 . S
C454 C453 1.388 . S
C454 C457 1.387 . S
H455 C451 0.950 . S
H456 C453 0.950 . S
C457 C448 1.390 1_565 S
C457 H450 0.950 . S
C457 C454 1.387 . S
C458 C459 1.387 . S
C458 H462 0.950 . S
C458 C467 1.390 . S
C459 C458 1.387 . S
C459 C461 1.387 . S
H460 C467 0.950 . S
C461 C459 1.387 . S
C461 C463 1.390 . S
C461 H465 0.950 . S
H462 C458 0.950 . S
C463 C461 1.390 . S
C463 C464 1.387 . S
C463 H466 0.950 . S
C464 C463 1.387 . S
C464 C467 1.387 . S
H465 C461 0.950 . S
H466 C463 0.950 . S
C467 C458 1.390 . S
C467 H460 0.950 . S
C467 C464 1.387 . S
C468 C469 1.387 . S
C468 H472 0.950 . S
C468 C477 1.390 . S
C469 C468 1.387 . S
C469 C471 1.387 . S
H470 C477 0.950 . S
C471 C469 1.387 . S
C471 C473 1.390 . S
C471 H475 0.950 . S
H472 C468 0.950 . S
C473 C471 1.390 . S
C473 C474 1.387 . S
C473 H476 0.950 . S
C474 C473 1.387 . S
C474 C477 1.387 . S
H475 C471 0.950 . S
H476 C473 0.950 . S
C477 C468 1.390 . S
C477 H470 0.950 . S
C477 C474 1.387 . S
C478 C479 1.400 . S
C478 H482 0.950 . S
C478 C487 1.378 1_545 S
C479 C478 1.400 . S
C479 C481 1.387 . S
H480 C487 0.950 . S
C481 C479 1.387 . S
C481 C483 1.386 1_545 S
C481 H485 0.950 . S
H482 C478 0.950 . S
C483 C481 1.386 1_565 S
C483 C484 1.392 . S
C483 H486 0.950 . S
C484 C483 1.392 . S
C484 C487 1.387 . S
H485 C481 0.950 . S
H486 C483 0.950 . S
C487 C478 1.378 1_565 S
C487 H480 0.950 . S
C487 C484 1.387 . S
C488 C489 1.387 . S
C488 H492 0.950 . S
C488 C497 1.390 1_556 S
C489 C488 1.387 . S
C489 C491 1.387 . S
H490 C497 0.950 . S
C491 C489 1.387 . S
C491 C493 1.390 1_556 S
C491 H495 0.950 . S
H492 C488 0.950 . S
C493 C491 1.390 1_554 S
C493 C494 1.387 . S
C493 H496 0.950 . S
C494 C493 1.387 . S
C494 C497 1.387 . S
H495 C491 0.950 . S
H496 C493 0.950 . S
C497 C488 1.390 1_554 S
C497 H490 0.950 . S
C497 C494 1.387 . S
C498 C499 1.387 . S
C498 H502 0.950 . S
C498 C507 1.390 . S
C499 C498 1.387 . S
C499 C501 1.387 . S
H500 C507 0.950 . S
C501 C499 1.387 . S
C501 C503 1.390 . S
C501 H505 0.950 . S
H502 C498 0.950 . S
C503 C501 1.390 . S
C503 C504 1.387 . S
C503 H506 0.950 . S
C504 C503 1.387 . S
C504 C507 1.387 . S
H505 C501 0.950 . S
H506 C503 0.950 . S
C507 C498 1.390 . S
C507 H500 0.950 . S
C507 C504 1.387 . S
C508 C509 1.387 . S
C508 H512 0.950 . S
C508 C517 1.390 1_554 S
C509 C508 1.387 . S
C509 C511 1.387 . S
H510 C517 0.950 . S
C511 C509 1.387 . S
C511 C513 1.390 1_554 S
C511 H515 0.950 . S
H512 C508 0.950 . S
C513 C511 1.390 1_556 S
C513 C514 1.387 . S
C513 H516 0.950 . S
C514 C513 1.387 . S
C514 C517 1.387 . S
H515 C511 0.950 . S
H516 C513 0.950 . S
C517 C508 1.390 1_556 S
C517 H510 0.950 . S
C517 C514 1.387 . S
C518 C519 1.387 . S
C518 H522 0.950 . S
C518 C527 1.390 . S
C519 C518 1.387 . S
C519 C521 1.387 . S
H520 C527 0.950 . S
C521 C519 1.387 . S
C521 C523 1.390 . S
C521 H525 0.950 . S
H522 C518 0.950 . S
C523 C521 1.390 . S
C523 C524 1.387 . S
C523 H526 0.950 . S
C524 C523 1.387 . S
C524 C527 1.387 . S
H525 C521 0.950 . S
H526 C523 0.950 . S
C527 C518 1.390 . S
C527 H520 0.950 . S
C527 C524 1.387 . S
C528 C529 1.387 . S
C528 H532 0.950 . S
C528 C537 1.390 1_554 S
C529 C528 1.387 . S
C529 C531 1.387 . S
H530 C537 0.950 . S
C531 C529 1.387 . S
C531 C533 1.390 1_554 S
C531 H535 0.950 . S
H532 C528 0.950 . S
C533 C531 1.390 1_556 S
C533 C534 1.387 . S
C533 H536 0.950 . S
C534 C533 1.387 . S
C534 C537 1.387 . S
H535 C531 0.950 . S
H536 C533 0.950 . S
C537 C528 1.390 1_556 S
C537 H530 0.950 . S
C537 C534 1.387 . S
C538 C539 1.387 . S
C538 H542 0.950 . S
C538 C547 1.390 . S
C539 C538 1.387 . S
C539 C541 1.387 . S
H540 C547 0.950 . S
C541 C539 1.387 . S
C541 C543 1.390 . S
C541 H545 0.950 . S
H542 C538 0.950 . S
C543 C541 1.390 . S
C543 C544 1.387 . S
C543 H546 0.950 . S
C544 C543 1.387 . S
C544 C547 1.387 . S
H545 C541 0.950 . S
H546 C543 0.950 . S
C547 C538 1.390 . S
C547 H540 0.950 . S
C547 C544 1.387 . S
C548 C549 1.387 . S
C548 H552 0.950 . S
C548 C557 1.390 1_556 S
C549 C548 1.387 . S
C549 C551 1.387 . S
H550 C557 0.950 . S
C551 C549 1.387 . S
C551 C553 1.390 1_556 S
C551 H555 0.950 . S
H552 C548 0.950 . S
C553 C551 1.390 1_554 S
C553 C554 1.387 . S
C553 H556 0.950 . S
C554 C553 1.387 . S
C554 C557 1.387 . S
H555 C551 0.950 . S
H556 C553 0.950 . S
C557 C548 1.390 1_554 S
C557 H550 0.950 . S
C557 C554 1.387 . S
C558 C559 1.387 . S
C558 H562 0.950 . S
C558 C567 1.390 . S
C559 C558 1.387 . S
C559 C561 1.387 . S
H560 C567 0.950 . S
C561 C559 1.387 . S
C561 C563 1.390 . S
C561 H565 0.950 . S
H562 C558 0.950 . S
C563 C561 1.390 . S
C563 C564 1.387 . S
C563 H566 0.950 . S
C564 C563 1.387 . S
C564 C567 1.387 . S
H565 C561 0.950 . S
H566 C563 0.950 . S
C567 C558 1.390 . S
C567 H560 0.950 . S
C567 C564 1.387 . S
C568 C569 1.387 . S
C568 H572 0.950 . S
C568 C577 1.390 . S
C569 C568 1.387 . S
C569 C571 1.387 . S
H570 C577 0.950 . S
C571 C569 1.387 . S
C571 C573 1.390 . S
C571 H575 0.950 . S
H572 C568 0.950 . S
C573 C571 1.390 . S
C573 C574 1.387 . S
C573 H576 0.950 . S
C574 C573 1.387 . S
C574 C577 1.387 . S
H575 C571 0.950 . S
H576 C573 0.950 . S
C577 C568 1.390 . S
C577 H570 0.950 . S
C577 C574 1.387 . S
C578 C579 1.387 . S
C578 H582 0.950 . S
C578 C587 1.390 . S
C579 C578 1.387 . S
C579 C581 1.387 . S
H580 C587 0.950 . S
C581 C579 1.387 . S
C581 C583 1.390 . S
C581 H585 0.950 . S
H582 C578 0.950 . S
C583 C581 1.390 . S
C583 C584 1.387 . S
C583 H586 0.950 . S
C584 C583 1.387 . S
C584 C587 1.387 . S
H585 C581 0.950 . S
H586 C583 0.950 . S
C587 C578 1.390 . S
C587 H580 0.950 . S
C587 C584 1.387 . S
C588 C589 1.387 . S
C588 H592 0.950 . S
C588 C597 1.390 . S
C589 C588 1.387 . S
C589 C591 1.387 . S
H590 C597 0.950 . S
C591 C589 1.387 . S
C591 C593 1.390 . S
C591 H595 0.950 . S
H592 C588 0.950 . S
C593 C591 1.390 . S
C593 C594 1.387 . S
C593 H596 0.950 . S
C594 C593 1.387 . S
C594 C597 1.387 . S
H595 C591 0.950 . S
H596 C593 0.950 . S
C597 C588 1.390 . S
C597 H590 0.950 . S
C597 C594 1.387 . S
C598 C599 1.387 . S
C598 H602 0.950 . S
C598 C607 1.390 . S
C599 C598 1.387 . S
C599 C601 1.387 . S
H600 C607 0.950 . S
C601 C599 1.387 . S
C601 C603 1.390 . S
C601 H605 0.950 . S
H602 C598 0.950 . S
C603 C601 1.390 . S
C603 C604 1.387 . S
C603 H606 0.950 . S
C604 C603 1.387 . S
C604 C607 1.387 . S
H605 C601 0.950 . S
H606 C603 0.950 . S
C607 C598 1.390 . S
C607 H600 0.950 . S
C607 C604 1.387 . S
C608 C609 1.387 . S
C608 H612 0.950 . S
C608 C617 1.390 . S
C609 C608 1.387 . S
C609 C611 1.387 . S
H610 C617 0.950 . S
C611 C609 1.387 . S
C611 C613 1.390 . S
C611 H615 0.950 . S
H612 C608 0.950 . S
C613 C611 1.390 . S
C613 C614 1.387 . S
C613 H616 0.950 . S
C614 C613 1.387 . S
C614 C617 1.387 . S
H615 C611 0.950 . S
H616 C613 0.950 . S
C617 C608 1.390 . S
C617 H610 0.950 . S
C617 C614 1.387 . S
C618 C619 1.387 . S
C618 H622 0.950 . S
C618 C627 1.390 . S
C619 C618 1.387 . S
C619 C621 1.387 . S
H620 C627 0.950 . S
C621 C619 1.387 . S
C621 C623 1.390 . S
C621 H625 0.950 . S
H622 C618 0.950 . S
C623 C621 1.390 . S
C623 C624 1.387 . S
C623 H626 0.950 . S
C624 C623 1.387 . S
C624 C627 1.387 . S
H625 C621 0.950 . S
H626 C623 0.950 . S
C627 C618 1.390 . S
C627 H620 0.950 . S
C627 C624 1.387 . S
C628 C629 1.387 . S
C628 H632 0.950 . S
C628 C637 1.390 . S
C629 C628 1.387 . S
C629 C631 1.387 . S
H630 C637 0.950 . S
C631 C629 1.387 . S
C631 C633 1.390 . S
C631 H635 0.950 . S
H632 C628 0.950 . S
C633 C631 1.390 . S
C633 C634 1.387 . S
C633 H636 0.950 . S
C634 C633 1.387 . S
C634 C637 1.387 . S
H635 C631 0.950 . S
H636 C633 0.950 . S
C637 C628 1.390 . S
C637 H630 0.950 . S
C637 C634 1.387 . S
C638 C639 1.387 . S
C638 H642 0.950 . S
C638 C647 1.390 . S
C639 C638 1.387 . S
C639 C641 1.387 . S
H640 C647 0.950 . S
C641 C639 1.387 . S
C641 C643 1.390 . S
C641 H645 0.950 . S
H642 C638 0.950 . S
C643 C641 1.390 . S
C643 C644 1.387 . S
C643 H646 0.950 . S
C644 C643 1.387 . S
C644 C647 1.387 . S
H645 C641 0.950 . S
H646 C643 0.950 . S
C647 C638 1.390 . S
C647 H640 0.950 . S
C647 C644 1.387 . S
C409 C58 1.478 . S
C414 C146 1.457 . S
C424 C230 1.457 . S
C419 C68 1.478 . S
C434 C223 1.468 . S
C429 C40 1.470 . S
C439 C50 1.469 . S
C444 C139 1.469 . S
C454 C303 1.458 . S
C449 C23 1.481 . S
C464 C387 1.458 . S
C459 C32 1.479 . S
C469 C5 1.472 . S
C474 C380 1.470 . S
C479 C14 1.471 . S
C484 C296 1.469 . S
C494 C130 1.325 . S
C489 C13 1.503 . S
C504 C214 1.324 . S
C499 C4 1.503 . S
C514 C225 1.406 . S
C509 C31 1.520 . S
C524 C141 1.407 . S
C519 C22 1.520 . S
C534 C309 1.326 . S
C529 C49 1.502 . S
C539 C41 1.505 . S
C544 C393 1.329 . S
C554 C382 1.407 . S
C549 C67 1.520 . S
C559 C59 1.522 . S
C564 C298 1.407 . S
C574 C128 1.518 . S
C569 C7 1.516 . S
C584 C212 1.516 . S
C579 C16 1.513 . S
C589 C25 1.513 . S
C594 C219 1.501 . S
C604 C135 1.499 . S
C599 C34 1.512 . S
C614 C307 1.518 . S
C609 C43 1.517 . S
C619 C52 1.514 . S
C624 C391 1.519 . S
C629 C61 1.515 . S
C634 C398 1.502 . S
C639 C70 1.513 . S
C644 C314 1.503 . S
