# Generated by pormake.
# Topology rtl, (3,6)-cn, num edge types: 1
# Building blocks:
#     Node 0, Type 0, BuildingBlock: BETDAH_clean_linker_0, # of connection points: 3
#     Node 1, Type 0, BuildingBlock: BETDAH_clean_linker_0, # of connection points: 3
#     Node 2, Type 0, BuildingBlock: BETDAH_clean_linker_0, # of connection points: 3
#     Node 3, Type 0, BuildingBlock: BETDAH_clean_linker_0, # of connection points: 3
#     Node 4, Type 1, BuildingBlock: VOLQOD_clean_sbu_1, # of connection points: 6
#     Node 5, Type 1, BuildingBlock: VOLQOD_clean_sbu_1, # of connection points: 6
#     Edge 6, Type (0, 1), BuildingBlock: UVAHIK_clean_linker_0, # of connection points: 2
#     Edge 7, Type (0, 1), BuildingBlock: UVAHIK_clean_linker_0, # of connection points: 2
#     Edge 8, Type (0, 1), BuildingBlock: UVAHIK_clean_linker_0, # of connection points: 2
#     Edge 9, Type (0, 1), BuildingBlock: UVAHIK_clean_linker_0, # of connection points: 2
#     Edge 10, Type (0, 1), BuildingBlock: UVAHIK_clean_linker_0, # of connection points: 2
#     Edge 11, Type (0, 1), BuildingBlock: UVAHIK_clean_linker_0, # of connection points: 2
#     Edge 12, Type (0, 1), BuildingBlock: UVAHIK_clean_linker_0, # of connection points: 2
#     Edge 13, Type (0, 1), BuildingBlock: UVAHIK_clean_linker_0, # of connection points: 2
#     Edge 14, Type (0, 1), BuildingBlock: UVAHIK_clean_linker_0, # of connection points: 2
#     Edge 15, Type (0, 1), BuildingBlock: UVAHIK_clean_linker_0, # of connection points: 2
#     Edge 16, Type (0, 1), BuildingBlock: UVAHIK_clean_linker_0, # of connection points: 2
#     Edge 17, Type (0, 1), BuildingBlock: UVAHIK_clean_linker_0, # of connection points: 2
# Relax obj value: 0.041
# Max RMSD: 0.143
# Mean RMSD: 0.096
data_MOF--net-rtl--node1-VOLQOD_clean_sbu_1--node2-BETDAH_clean_linker_0--edge1-UVAHIK_clean_linker_0
_symmetry_space_group_name_H-M    P1
_symmetry_Int_Tables_number       1
_symmetry_cell_setting            triclinic
loop_
_symmetry_equiv_pos_as_xyz
'x, y, z'
_cell_length_a     48.203882
_cell_length_b     48.396209
_cell_length_c     28.184731
_cell_angle_alpha  91.046194
_cell_angle_beta   91.742317
_cell_angle_gamma 89.974867
loop_
_atom_site_label
_atom_site_type_symbol
_atom_site_fract_x
_atom_site_fract_y
_atom_site_fract_z
_atom_type_partial_charge
H0 H 0.16281 0.8302 0.96895 0.0
H1 H 0.16275 0.76234 0.06611 0.0
H2 H 0.16723 0.74644 0.91652 0.0
C3 C 0.16402 0.80828 0.9759 0.0
C4 C 0.16511 0.78955 0.93743 0.0
C5 C 0.16268 0.79892 0.02271 0.0
C6 C 0.16427 0.77032 0.03063 0.0
C7 C 0.16674 0.75159 0.99256 0.0
C8 C 0.16666 0.76113 0.94596 0.0
N9 N 0.16763 0.72296 0.00119 0.0
C10 C 0.1928 0.7091 0.00271 0.0
H11 H 0.65104 0.67037 0.51343 0.0
H12 H 0.68955 0.74404 0.46261 0.0
H13 H 0.66854 0.73839 0.60942 0.0
C14 C 0.65991 0.69073 0.51996 0.0
C15 C 0.65919 0.70236 0.56571 0.0
C16 C 0.67036 0.70575 0.48224 0.0
C17 C 0.68129 0.73233 0.49138 0.0
C18 C 0.68085 0.74402 0.53748 0.0
C19 C 0.66915 0.72922 0.57408 0.0
N20 N 0.6916 0.77074 0.54805 0.0
C21 C 0.71292 0.78244 0.52323 0.0
H22 H 0.8562 0.16222 0.0044 0.0
H23 H 0.82656 0.24056 0.05647 0.0
H24 H 0.82996 0.22484 0.90625 0.0
C25 C 0.84718 0.18233 -0.00258 0.0
C26 C 0.8434 0.19103 0.95046 0.0
C27 C 0.84131 0.20009 0.03572 0.0
C28 C 0.83069 0.22661 0.02701 0.0
C29 C 0.82644 0.23534 0.98004 0.0
C30 C 0.83314 0.21771 0.94224 0.0
N31 N 0.81682 0.26223 0.96944 0.0
C32 C 0.79707 0.27618 0.99544 0.0
H33 H 0.34426 0.35156 0.53962 0.0
H34 H 0.27045 0.31124 0.58625 0.0
H35 H 0.27601 0.33616 0.44127 0.0
C36 C 0.32379 0.343 0.53207 0.0
C37 C 0.31223 0.34471 0.486 0.0
C38 C 0.30896 0.33103 0.56864 0.0
C39 C 0.28228 0.32028 0.55837 0.0
C40 C 0.27052 0.32211 0.51225 0.0
C41 C 0.28543 0.33448 0.47652 0.0
N42 N 0.24318 0.31291 0.5013 0.0
C43 C 0.23306 0.28781 0.51622 0.0
O44 O 0.94503 0.97128 0.47083 0.0
Zn45 Zn 0.96757 0.00559 0.4826 0.0
O46 O 0.00716 0.99729 0.48639 0.0
Zn47 Zn 0.02245 0.00891 0.54881 0.0
Zn48 Zn 0.01231 0.95744 0.47835 0.0
Zn49 Zn 0.02589 0.01694 0.43608 0.0
O50 O 0.05153 0.03838 0.54241 0.0
O51 O 0.05514 0.04254 0.46449 0.0
O52 O 0.95478 0.02326 0.54322 0.0
O53 O 0.99271 0.02467 0.58985 0.0
O54 O 0.04037 0.97707 0.58339 0.0
O55 O 0.03292 0.94133 0.53419 0.0
O56 O 0.03591 0.94943 0.4228 0.0
O57 O 0.95835 0.03162 0.42987 0.0
O58 O 0.04475 0.99015 0.39125 0.0
O59 O 0.99891 0.04063 0.3982 0.0
C60 C 0.95076 0.94572 0.46627 0.0
C61 C 0.06264 0.0493 0.50686 0.0
C62 C 0.04294 0.9515 0.57297 0.0
C63 C 0.96692 0.02933 0.58278 0.0
C64 C 0.04725 0.96394 0.3916 0.0
C65 C 0.97274 0.04408 0.3998 0.0
O66 O 0.97577 0.93719 0.46866 0.0
O67 O 0.56791 0.47963 0.02552 0.0
Zn68 Zn 0.54372 0.51307 0.01915 0.0
O69 O 0.50466 0.50355 0.0245 0.0
Zn70 Zn 0.48416 0.51568 0.96781 0.0
Zn71 Zn 0.50116 0.46334 0.03014 0.0
Zn72 Zn 0.48989 0.52237 0.0805 0.0
O73 O 0.45352 0.54189 0.98446 0.0
O74 O 0.45744 0.54693 0.06274 0.0
O75 O 0.55101 0.53063 0.95671 0.0
O76 O 0.509 0.5353 0.92322 0.0
O77 O 0.46631 0.48337 0.93297 0.0
O78 O 0.47789 0.4469 0.97592 0.0
O79 O 0.48187 0.45415 0.09014 0.0
O80 O 0.55612 0.54015 0.07032 0.0
O81 O 0.47579 0.49473 0.12648 0.0
O82 O 0.51903 0.54614 0.11407 0.0
C83 C 0.56339 0.45394 0.03035 0.0
C84 C 0.44534 0.55248 0.02326 0.0
C85 C 0.46532 0.45749 0.94023 0.0
C86 C 0.53515 0.53899 0.92301 0.0
C87 C 0.47337 0.46852 0.1251 0.0
C88 C 0.5443 0.55131 0.10559 0.0
O89 O 0.53876 0.44451 0.0321 0.0
C90 C 0.20947 0.25488 0.56746 0.0
C91 C 0.22129 0.26106 0.52416 0.0
C92 C 0.19589 0.2296 0.57285 0.0
C93 C 0.18618 0.15984 0.51634 0.0
H94 H 0.11455 0.16272 0.5752 0.0
C95 C 0.09985 0.07998 0.47692 0.0
C96 C 0.0842 0.07082 0.51486 0.0
C97 C 0.11938 0.10108 0.48392 0.0
C98 C 0.1347 0.16147 0.55933 0.0
H99 H 0.22897 0.24634 0.4529 0.0
H100 H 0.20501 0.20246 0.46168 0.0
H101 H 0.14418 0.20356 0.57767 0.0
H102 H 0.07713 0.0764 0.59014 0.0
H103 H 0.11111 0.11351 0.60212 0.0
H104 H 0.17611 0.11804 0.49637 0.0
C105 C 0.20652 0.21654 0.49195 0.0
C106 C 0.15174 0.18485 0.56084 0.0
C107 C 0.22008 0.2417 0.48672 0.0
C108 C 0.08883 0.08297 0.56014 0.0
C109 C 0.10819 0.10429 0.56701 0.0
C110 C 0.16906 0.13655 0.51454 0.0
C111 C 0.19394 0.21029 0.53487 0.0
C112 C 0.17743 0.1845 0.53846 0.0
C113 C 0.12354 0.11365 0.5289 0.0
C114 C 0.14292 0.13731 0.53518 0.0
H115 H 0.21023 0.26976 0.59668 0.0
H116 H 0.18667 0.22532 0.60649 0.0
H117 H 0.20609 0.15867 0.4996 0.0
H118 H 0.09687 0.07104 0.44163 0.0
H119 H 0.13068 0.10809 0.45376 0.0
C120 C 0.23213 0.6908 0.04985 0.0
C121 C 0.21902 0.69496 0.00558 0.0
C122 C 0.2575 0.67685 0.05286 0.0
C123 C 0.31761 0.65617 0.98185 0.0
H124 H 0.32904 0.60158 0.07957 0.0
C125 C 0.40733 0.5774 0.97899 0.0
C126 C 0.42083 0.571 0.02235 0.0
C127 C 0.38362 0.59399 0.97802 0.0
C128 C 0.32634 0.61703 0.05249 0.0
H129 H 0.22146 0.68836 0.92976 0.0
H130 H 0.26579 0.66363 0.93473 0.0
H131 H 0.2858 0.62768 0.07571 0.0
H132 H 0.42016 0.57749 0.09871 0.0
H133 H 0.37885 0.60664 0.09691 0.0
H134 H 0.35806 0.64533 0.95838 0.0
C135 C 0.25682 0.67134 0.96716 0.0
C136 C 0.30155 0.63198 0.05026 0.0
C137 C 0.23144 0.68528 0.96424 0.0
C138 C 0.41025 0.58193 0.0647 0.0
C139 C 0.38648 0.59851 0.06371 0.0
C140 C 0.3424 0.64122 0.98408 0.0
C141 C 0.27011 0.66689 0.01154 0.0
C142 C 0.29681 0.65159 0.01472 0.0
C143 C 0.37281 0.60459 0.02037 0.0
C144 C 0.34698 0.62135 0.01923 0.0
H145 H 0.22277 0.69832 0.0821 0.0
H146 H 0.26736 0.67409 0.0875 0.0
H147 H 0.3148 0.67146 0.95453 0.0
H148 H 0.41485 0.56933 0.94567 0.0
H149 H 0.3734 0.59799 0.94409 0.0
C150 C 0.7611 0.77979 0.4976 0.0
C151 C 0.73654 0.79491 0.5022 0.0
C152 C 0.78517 0.79282 0.48292 0.0
C153 C 0.81153 0.85681 0.42896 0.0
H154 H 0.87697 0.84314 0.50853 0.0
C155 C 0.90021 0.93519 0.45413 0.0
C156 C 0.92768 0.92568 0.45946 0.0
C157 C 0.87813 0.91659 0.45056 0.0
C158 C 0.8591 0.84684 0.4853 0.0
H159 H 0.717 0.83482 0.49421 0.0
H160 H 0.75905 0.85784 0.46873 0.0
H161 H 0.83565 0.81502 0.5172 0.0
H162 H 0.95349 0.88901 0.46367 0.0
H163 H 0.91477 0.85644 0.45735 0.0
H164 H 0.83477 0.88922 0.3981 0.0
C165 C 0.75985 0.83591 0.47567 0.0
C166 C 0.83538 0.8307 0.49026 0.0
C167 C 0.73583 0.82286 0.49042 0.0
C168 C 0.93259 0.89704 0.45981 0.0
C169 C 0.91041 0.87838 0.45637 0.0
C170 C 0.83526 0.87294 0.42397 0.0
C171 C 0.78495 0.82118 0.47273 0.0
C172 C 0.81111 0.83593 0.46294 0.0
C173 C 0.88292 0.88798 0.45226 0.0
C174 C 0.85908 0.86857 0.45291 0.0
H175 H 0.76191 0.75815 0.50675 0.0
H176 H 0.80409 0.78085 0.4805 0.0
H177 H 0.79331 0.86104 0.40683 0.0
H178 H 0.89563 0.9571 0.45358 0.0
H179 H 0.85721 0.92471 0.44813 0.0
C180 C 0.77919 0.32016 0.02651 0.0
C181 C 0.77484 0.29227 0.01465 0.0
C182 C 0.75666 0.33723 0.03659 0.0
C183 C 0.68174 0.33818 0.06325 0.0
H184 H 0.68249 0.4068 0.9944 0.0
C185 C 0.58377 0.40609 0.03277 0.0
C186 C 0.58742 0.43492 0.03423 0.0
C187 C 0.60675 0.38841 0.03525 0.0
C188 C 0.68206 0.38796 0.01451 0.0
H189 H 0.74436 0.2597 0.00544 0.0
H190 H 0.70475 0.28951 0.02306 0.0
H191 H 0.72271 0.37661 0.99319 0.0
H192 H 0.61808 0.46773 0.04105 0.0
H193 H 0.65785 0.43705 0.04615 0.0
H194 H 0.64085 0.34955 0.08417 0.0
C195 C 0.72545 0.29824 0.02524 0.0
C196 C 0.70518 0.37064 0.01386 0.0
C197 C 0.74802 0.2812 0.01511 0.0
C198 C 0.61448 0.44564 0.03923 0.0
C199 C 0.63735 0.42803 0.04198 0.0
C200 C 0.65857 0.35561 0.06407 0.0
C201 C 0.72945 0.32663 0.03466 0.0
C202 C 0.70529 0.34553 0.03808 0.0
C203 C 0.63383 0.39921 0.03944 0.0
C204 C 0.65845 0.38069 0.03957 0.0
H205 H 0.79982 0.32902 0.02596 0.0
H206 H 0.76044 0.35892 0.04439 0.0
H207 H 0.68128 0.31901 0.08245 0.0
H208 H 0.56321 0.39716 0.02894 0.0
H209 H 0.60331 0.36632 0.03271 0.0
C210 C 0.16814 0.81433 0.10853 0.0
C211 C 0.15718 0.81873 0.06241 0.0
C212 C 0.16094 0.8318 0.14627 0.0
C213 C 0.13437 0.90024 0.17745 0.0
H214 H 0.09762 0.86381 0.27949 0.0
C215 C 0.06648 0.95999 0.31013 0.0
C216 C 0.06428 0.94974 0.35608 0.0
C217 C 0.08135 0.94527 0.27608 0.0
C218 C 0.10838 0.87444 0.25205 0.0
H219 H 0.1301 0.84539 0.0203 0.0
H220 H 0.11873 0.8763 0.08565 0.0
H221 H 0.11901 0.83622 0.21771 0.0
H222 H 0.0772 0.9171 0.40354 0.0
H223 H 0.10422 0.89225 0.34532 0.0
H224 H 0.12415 0.93849 0.21182 0.0
C225 C 0.1329 0.85933 0.09235 0.0
C226 C 0.12054 0.85853 0.21654 0.0
C227 C 0.13961 0.84162 0.05486 0.0
C228 C 0.07814 0.9252 0.36804 0.0
C229 C 0.0935 0.91087 0.33448 0.0
C230 C 0.12267 0.91622 0.21351 0.0
C231 C 0.1431 0.8543 0.13846 0.0
C232 C 0.13322 0.87128 0.17858 0.0
C233 C 0.09482 0.92032 0.28771 0.0
C234 C 0.10909 0.90353 0.25091 0.0
H235 H 0.18207 0.79724 0.11564 0.0
H236 H 0.1691 0.82761 0.18166 0.0
H237 H 0.14416 0.91048 0.14848 0.0
H238 H 0.05592 0.97886 0.30005 0.0
H239 H 0.08152 0.95307 0.24034 0.0
C240 C 0.6241 0.69623 0.62796 0.0
C241 C 0.6474 0.68642 0.60433 0.0
C242 C 0.61181 0.68016 0.66224 0.0
C243 C 0.60955 0.60766 0.70501 0.0
H244 H 0.57382 0.64216 0.81236 0.0
C245 C 0.57527 0.55068 0.87292 0.0
C246 C 0.54727 0.5544 0.884 0.0
C247 C 0.58707 0.56621 0.83745 0.0
C248 C 0.58364 0.63235 0.78235 0.0
H249 H 0.67681 0.65287 0.59847 0.0
H250 H 0.65644 0.62535 0.66009 0.0
H251 H 0.5964 0.67098 0.75485 0.0
H252 H 0.50967 0.57725 0.86679 0.0
H253 H 0.53068 0.60502 0.80562 0.0
H254 H 0.59764 0.56896 0.7342 0.0
C255 C 0.64681 0.64486 0.65116 0.0
C256 C 0.59644 0.6488 0.7492 0.0
C257 C 0.6587 0.66069 0.6162 0.0
C258 C 0.53126 0.57384 0.85879 0.0
C259 C 0.54325 0.58981 0.82407 0.0
C260 C 0.59725 0.59123 0.73873 0.0
C261 C 0.62293 0.65417 0.67419 0.0
C262 C 0.60952 0.63669 0.70994 0.0
C263 C 0.57124 0.58613 0.81326 0.0
C264 C 0.58412 0.60347 0.77749 0.0
H265 H 0.61493 0.71595 0.61885 0.0
H266 H 0.5932 0.68788 0.67845 0.0
H267 H 0.61878 0.59752 0.67479 0.0
H268 H 0.58806 0.53579 0.89171 0.0
H269 H 0.60875 0.56315 0.82967 0.0
C270 C 0.87106 0.2048 0.10918 0.0
C271 C 0.84921 0.19135 0.08415 0.0
C272 C 0.883 0.19298 0.14983 0.0
C273 C 0.87416 0.14246 0.2432 0.0
H274 H 0.95202 0.12567 0.22714 0.0
C275 C 0.93019 0.06018 0.3556 0.0
C276 C 0.95864 0.06322 0.36665 0.0
C277 C 0.91662 0.07837 0.32479 0.0
C278 C 0.93048 0.13063 0.23301 0.0
H279 H 0.82158 0.15611 0.08287 0.0
H280 H 0.84181 0.13588 0.1551 0.0
H281 H 0.92763 0.15482 0.17016 0.0
H282 H 0.9951 0.08804 0.35491 0.0
H283 H 0.97127 0.12054 0.30271 0.0
H284 H 0.87688 0.11873 0.30635 0.0
C285 C 0.84981 0.1554 0.14318 0.0
C286 C 0.91651 0.1473 0.20016 0.0
C287 C 0.83825 0.16692 0.10201 0.0
C288 C 0.97321 0.08501 0.34659 0.0
C289 C 0.95951 0.10357 0.31648 0.0
C290 C 0.88825 0.12623 0.27666 0.0
C291 C 0.8729 0.16782 0.16645 0.0
C292 C 0.88813 0.15295 0.20451 0.0
C293 C 0.93102 0.10044 0.30495 0.0
C294 C 0.9165 0.11959 0.2715 0.0
H295 H 0.88004 0.22347 0.09558 0.0
H296 H 0.90077 0.20293 0.1673 0.0
H297 H 0.85228 0.14667 0.24735 0.0
H298 H 0.91844 0.04345 0.37025 0.0
H299 H 0.89489 0.07475 0.31601 0.0
C300 C 0.34926 0.32706 0.62622 0.0
C301 C 0.32087 0.33226 0.6178 0.0
C302 C 0.36209 0.33437 0.66969 0.0
C303 C 0.35337 0.38658 0.76341 0.0
H304 H 0.42055 0.35343 0.81585 0.0
C305 C 0.43477 0.45101 0.86747 0.0
C306 C 0.44815 0.43968 0.90762 0.0
C307 C 0.41746 0.43475 0.83787 0.0
C308 C 0.40162 0.36279 0.80212 0.0
H309 H 0.28311 0.34673 0.64985 0.0
H310 H 0.30535 0.3588 0.72642 0.0
H311 H 0.39201 0.32765 0.75731 0.0
H312 H 0.454 0.40215 0.94776 0.0
H313 H 0.42356 0.37377 0.896 0.0
H314 H 0.36297 0.42172 0.80789 0.0
C315 C 0.31786 0.34973 0.69892 0.0
C316 C 0.38537 0.34811 0.76828 0.0
C317 C 0.30504 0.3425 0.65526 0.0
C318 C 0.44408 0.41154 0.91706 0.0
C319 C 0.42668 0.39524 0.88737 0.0
C320 C 0.36953 0.40117 0.79726 0.0
C321 C 0.34676 0.3469 0.70588 0.0
C322 C 0.36145 0.36014 0.74756 0.0
C323 C 0.41297 0.40676 0.84767 0.0
C324 C 0.39426 0.38981 0.81598 0.0
H325 H 0.36191 0.31877 0.59819 0.0
H326 H 0.38437 0.33193 0.67357 0.0
H327 H 0.33529 0.39668 0.74797 0.0
H328 H 0.43752 0.47254 0.8589 0.0
H329 H 0.40773 0.44413 0.80699 0.0
C330 C 0.65583 0.71054 0.39668 0.0
C331 C 0.66727 0.69431 0.43317 0.0
C332 C 0.6475 0.69837 0.35318 0.0
C333 C 0.60997 0.66346 0.28834 0.0
H334 H 0.64502 0.59961 0.23059 0.0
C335 C 0.54813 0.58257 0.17743 0.0
C336 C 0.56034 0.57055 0.13738 0.0
C337 C 0.5634 0.60034 0.20782 0.0
C338 C 0.6351 0.61764 0.2458 0.0
H339 H 0.68132 0.65317 0.4513 0.0
H340 H 0.66637 0.63185 0.37599 0.0
H341 H 0.67044 0.62682 0.29123 0.0
H342 H 0.59816 0.56818 0.09755 0.0
H343 H 0.62469 0.59935 0.15046 0.0
H344 H 0.57459 0.65421 0.24322 0.0
C345 C 0.66386 0.65396 0.38063 0.0
C346 C 0.64958 0.63309 0.28086 0.0
C347 C 0.6722 0.66612 0.42401 0.0
C348 C 0.58811 0.57696 0.12819 0.0
C349 C 0.60339 0.59475 0.1586 0.0
C350 C 0.59553 0.64805 0.25329 0.0
C351 C 0.65046 0.66975 0.34536 0.0
C352 C 0.63695 0.6558 0.30331 0.0
C353 C 0.59123 0.60657 0.19887 0.0
C354 C 0.60766 0.62458 0.23243 0.0
H355 H 0.6517 0.73231 0.40271 0.0
H356 H 0.63769 0.71118 0.32641 0.0
H357 H 0.59946 0.68063 0.30518 0.0
H358 H 0.52682 0.57807 0.18567 0.0
H359 H 0.55354 0.60873 0.23895 0.0
C360 C 0.86565 0.18378 0.87191 0.0
C361 C 0.85162 0.17281 0.91031 0.0
C362 C 0.87473 0.16651 0.83535 0.0
C363 C 0.8793 0.12691 0.75112 0.0
H364 H 0.91893 0.06035 0.78702 0.0
C365 C 0.9233 0.05104 0.61221 0.0
C366 C 0.95093 0.04273 0.62085 0.0
C367 C 0.90867 0.06489 0.64745 0.0
C368 C 0.9079 0.07886 0.7765 0.0
H369 H 0.83537 0.13518 0.93961 0.0
H370 H 0.85157 0.10495 0.87586 0.0
H371 H 0.89752 0.08899 0.84804 0.0
H372 H 0.98459 0.04184 0.67378 0.0
H373 H 0.95904 0.06605 0.73511 0.0
H374 H 0.89033 0.11723 0.67977 0.0
C375 C 0.8557 0.12692 0.8744 0.0
C376 C 0.89542 0.0951 0.81133 0.0
C377 C 0.84648 0.14421 0.91089 0.0
C378 C 0.96336 0.048 0.66587 0.0
C379 C 0.94867 0.0617 0.70116 0.0
C380 C 0.89164 0.1106 0.71627 0.0
C381 C 0.87011 0.13788 0.83646 0.0
C382 C 0.88135 0.11951 0.79907 0.0
C383 C 0.92129 0.07055 0.69215 0.0
C384 C 0.90642 0.08663 0.7287 0.0
H385 H 0.8704 0.20562 0.87076 0.0
H386 H 0.88616 0.1755 0.80694 0.0
H387 H 0.86837 0.14549 0.74062 0.0
H388 H 0.91306 0.04725 0.57798 0.0
H389 H 0.88748 0.07123 0.63969 0.0
C390 C 0.33079 0.34398 0.40401 0.0
C391 C 0.32819 0.3575 0.44813 0.0
C392 C 0.34701 0.35544 0.36913 0.0
C393 C 0.40325 0.40658 0.35396 0.0
H394 H 0.38029 0.40073 0.2211 0.0
C395 C 0.45321 0.46907 0.20602 0.0
C396 C 0.4591 0.45461 0.16379 0.0
C397 C 0.43831 0.45641 0.24137 0.0
C398 C 0.38708 0.40227 0.25805 0.0
H399 H 0.33959 0.39398 0.48994 0.0
H400 H 0.36729 0.4144 0.42875 0.0
H401 H 0.35131 0.38077 0.28106 0.0
H402 H 0.45429 0.41535 0.12591 0.0
H403 H 0.42807 0.39338 0.1876 0.0
H404 H 0.43871 0.42869 0.33076 0.0
C405 C 0.35756 0.39456 0.42143 0.0
C406 C 0.37052 0.3908 0.29242 0.0
C407 C 0.34159 0.38295 0.45642 0.0
C408 C 0.45014 0.42707 0.15803 0.0
C409 C 0.43498 0.41453 0.19316 0.0
C410 C 0.41964 0.41829 0.31962 0.0
C411 C 0.36071 0.38082 0.37751 0.0
C412 C 0.37838 0.39285 0.34082 0.0
C413 C 0.42875 0.42914 0.23499 0.0
C414 C 0.4117 0.41625 0.27136 0.0
H415 H 0.32087 0.32418 0.39696 0.0
H416 H 0.34926 0.3441 0.33599 0.0
H417 H 0.41024 0.40808 0.3908 0.0
H418 H 0.45986 0.49029 0.21162 0.0
H419 H 0.43363 0.46819 0.27318 0.0
C420 C 0.17668 0.82185 0.87272 0.0
C421 C 0.16063 0.79996 0.88887 0.0
C422 C 0.16867 0.83564 0.83139 0.0
C423 C 0.11695 0.83458 0.72909 0.0
H424 H 0.1246 0.9141 0.7421 0.0
C425 C 0.06975 0.90824 0.58919 0.0
C426 C 0.05861 0.93332 0.60577 0.0
C427 C 0.08516 0.89131 0.61976 0.0
C428 C 0.12201 0.89195 0.73804 0.0
H429 H 0.1245 0.77441 0.8738 0.0
H430 H 0.10989 0.79888 0.80277 0.0
H431 H 0.14675 0.88465 0.80052 0.0
H432 H 0.05449 0.96016 0.66755 0.0
H433 H 0.08026 0.93017 0.72142 0.0
H434 H 0.09053 0.84205 0.66846 0.0
C435 C 0.12909 0.8051 0.82082 0.0
C436 C 0.13525 0.87493 0.77114 0.0
C437 C 0.1374 0.79102 0.86164 0.0
C438 C 0.06298 0.94104 0.65366 0.0
C439 C 0.07799 0.9239 0.68444 0.0
C440 C 0.10332 0.85164 0.69638 0.0
C441 C 0.14409 0.82821 0.80602 0.0
C442 C 0.13259 0.84601 0.76756 0.0
C443 C 0.08943 0.89886 0.66786 0.0
C444 C 0.10532 0.88059 0.70085 0.0
H445 H 0.19475 0.829 0.89317 0.0
H446 H 0.18119 0.85282 0.82041 0.0
H447 H 0.11475 0.81241 0.72463 0.0
H448 H 0.06699 0.90186 0.5523 0.0
H449 H 0.09399 0.87248 0.60544 0.0
loop_
_geom_bond_atom_site_label_1
_geom_bond_atom_site_label_2
_geom_bond_distance
_geom_bond_site_symmetry_2
_ccdc_geom_bond_type
H0 C3 0.929 . S
H1 C6 0.929 . S
H2 C8 0.930 . S
C3 H0 0.929 . S
C3 C4 1.398 1_554 S
C3 C5 1.396 . S
C4 C3 1.398 1_556 S
C4 C8 1.407 . S
C5 C3 1.396 . S
C5 C6 1.394 . S
C6 H1 0.929 . S
C6 C5 1.394 . S
C6 C7 1.382 1_554 S
C7 C6 1.382 1_556 S
C7 C8 1.392 . S
C7 N9 1.420 . S
C8 H2 0.930 . S
C8 C4 1.407 . S
C8 C7 1.392 . S
N9 C7 1.420 . S
N9 C10 1.244 1_556 S
C10 N9 1.244 1_554 S
H11 C14 0.929 . S
H12 C17 0.929 . S
H13 C19 0.930 . S
C14 H11 0.929 . S
C14 C15 1.398 . S
C14 C16 1.396 . S
C15 C14 1.398 . S
C15 C19 1.407 . S
C16 C14 1.396 . S
C16 C17 1.394 . S
C17 H12 0.929 . S
C17 C16 1.394 . S
C17 C18 1.382 . S
C18 C17 1.382 . S
C18 C19 1.392 . S
C18 N20 1.420 . S
C19 H13 0.930 . S
C19 C15 1.407 . S
C19 C18 1.392 . S
N20 C18 1.420 . S
N20 C21 1.244 . S
C21 N20 1.244 . S
H22 C25 0.929 . S
H23 C28 0.929 . S
H24 C30 0.930 . S
C25 H22 0.929 . S
C25 C26 1.398 1_554 S
C25 C27 1.396 . S
C26 C25 1.398 1_556 S
C26 C30 1.407 . S
C27 C25 1.396 . S
C27 C28 1.394 . S
C28 H23 0.929 . S
C28 C27 1.394 . S
C28 C29 1.382 1_554 S
C29 C28 1.382 1_556 S
C29 C30 1.392 . S
C29 N31 1.420 . S
C30 H24 0.930 . S
C30 C26 1.407 . S
C30 C29 1.392 . S
N31 C29 1.420 . S
N31 C32 1.244 1_556 S
C32 N31 1.244 1_554 S
H33 C36 0.929 . S
H34 C39 0.929 . S
H35 C41 0.930 . S
C36 H33 0.929 . S
C36 C37 1.398 . S
C36 C38 1.396 . S
C37 C36 1.398 . S
C37 C41 1.407 . S
C38 C36 1.396 . S
C38 C39 1.394 . S
C39 H34 0.929 . S
C39 C38 1.394 . S
C39 C40 1.382 . S
C40 C39 1.382 . S
C40 C41 1.392 . S
C40 N42 1.420 . S
C41 H35 0.930 . S
C41 C37 1.407 . S
C41 C40 1.392 . S
N42 C40 1.420 . S
N42 C43 1.244 . S
C43 N42 1.244 . S
O44 Zn45 1.953 1_565 S
O44 C60 1.225 . S
Zn45 O44 1.953 1_545 S
Zn45 O46 1.949 1_655 S
Zn45 O52 1.919 . S
Zn45 O57 1.924 . S
O46 Zn45 1.949 1_455 S
O46 Zn47 1.923 . S
O46 Zn48 1.950 1_545 S
O46 Zn49 1.945 . S
Zn47 O46 1.923 . S
Zn47 O50 1.933 . S
Zn47 O53 1.929 1_455 S
Zn47 O54 1.965 1_545 S
Zn48 O46 1.950 1_565 S
Zn48 O55 1.938 . S
Zn48 O56 1.906 . S
Zn48 O66 1.953 1_455 S
Zn49 O46 1.945 . S
Zn49 O51 1.932 . S
Zn49 O58 1.967 1_545 S
Zn49 O59 1.910 1_455 S
O50 Zn47 1.933 . S
O50 C61 1.226 . S
O51 Zn49 1.932 . S
O51 C61 1.307 . S
O52 Zn45 1.919 . S
O52 C63 1.253 . S
O53 Zn47 1.929 1_655 S
O53 C63 1.300 . S
O54 Zn47 1.965 1_565 S
O54 C62 1.303 . S
O55 Zn48 1.938 . S
O55 C62 1.247 . S
O56 Zn48 1.906 . S
O56 C64 1.304 . S
O57 Zn45 1.924 . S
O57 C65 1.311 . S
O58 Zn49 1.967 1_565 S
O58 C64 1.285 . S
O59 Zn49 1.910 1_655 S
O59 C65 1.231 . S
C60 O44 1.225 . S
C60 O66 1.298 . S
C61 O50 1.226 . S
C61 O51 1.307 . S
C62 O54 1.303 . S
C62 O55 1.247 . S
C63 O52 1.253 . S
C63 O53 1.300 . S
C64 O56 1.304 . S
C64 O58 1.285 . S
C65 O57 1.311 . S
C65 O59 1.231 . S
O66 Zn48 1.953 1_655 S
O66 C60 1.298 . S
O67 Zn68 1.953 . S
O67 C83 1.225 . S
Zn68 O67 1.953 . S
Zn68 O69 1.949 . S
Zn68 O75 1.919 1_554 S
Zn68 O80 1.924 . S
O69 Zn68 1.949 . S
O69 Zn70 1.923 1_554 S
O69 Zn71 1.950 . S
O69 Zn72 1.945 . S
Zn70 O69 1.923 1_556 S
Zn70 O73 1.933 . S
Zn70 O76 1.941 . S
Zn70 O77 1.965 . S
Zn71 O69 1.950 . S
Zn71 O78 1.938 1_554 S
Zn71 O79 1.906 . S
Zn71 O89 1.953 . S
Zn72 O69 1.945 . S
Zn72 O74 1.932 . S
Zn72 O81 1.977 . S
Zn72 O82 1.910 . S
O73 Zn70 1.933 . S
O73 C84 1.226 1_556 S
O74 Zn72 1.932 . S
O74 C84 1.307 . S
O75 Zn68 1.919 1_556 S
O75 C86 1.253 . S
O76 Zn70 1.941 . S
O76 C86 1.283 . S
O77 Zn70 1.965 . S
O77 C85 1.303 . S
O78 Zn71 1.938 1_556 S
O78 C85 1.247 . S
O79 Zn71 1.906 . S
O79 C87 1.304 . S
O80 Zn68 1.924 . S
O80 C88 1.311 . S
O81 Zn72 1.977 . S
O81 C87 1.272 . S
O82 Zn72 1.910 . S
O82 C88 1.231 . S
C83 O67 1.225 . S
C83 O89 1.298 . S
C84 O73 1.226 1_554 S
C84 O74 1.307 . S
C85 O77 1.303 . S
C85 O78 1.247 . S
C86 O75 1.253 . S
C86 O76 1.283 . S
C87 O79 1.304 . S
C87 O81 1.272 . S
C88 O80 1.311 . S
C88 O82 1.231 . S
O89 Zn71 1.953 . S
O89 C83 1.298 . S
C90 C91 1.349 . S
C90 C92 1.327 . S
C90 H115 0.950 . S
C91 C90 1.349 . S
C91 C107 1.349 . S
C92 C90 1.327 . S
C92 C111 1.429 . S
C92 H116 0.950 . S
C93 C110 1.574 . S
C93 C112 1.368 . S
C93 H117 0.949 . S
H94 C98 0.949 . S
C95 C96 1.349 . S
C95 C97 1.327 . S
C95 H118 0.950 . S
C96 C95 1.349 . S
C96 C108 1.349 . S
C97 C95 1.327 . S
C97 C113 1.429 . S
C97 H119 0.950 . S
C98 H94 0.949 . S
C98 C106 1.574 . S
C98 C114 1.368 . S
H99 C107 0.950 . S
H100 C105 0.950 . S
H101 C106 0.949 . S
H102 C108 0.950 . S
H103 C109 0.950 . S
H104 C110 0.949 . S
C105 H100 0.950 . S
C105 C107 1.327 . S
C105 C111 1.429 . S
C106 C98 1.574 . S
C106 H101 0.949 . S
C106 C112 1.368 . S
C107 C91 1.349 . S
C107 H99 0.950 . S
C107 C105 1.327 . S
C108 C96 1.349 . S
C108 H102 0.950 . S
C108 C109 1.327 . S
C109 H103 0.950 . S
C109 C108 1.327 . S
C109 C113 1.429 . S
C110 C93 1.574 . S
C110 H104 0.949 . S
C110 C114 1.368 . S
C111 C92 1.429 . S
C111 C105 1.429 . S
C111 C112 1.523 . S
C112 C93 1.368 . S
C112 C106 1.368 . S
C112 C111 1.523 . S
C113 C97 1.429 . S
C113 C109 1.429 . S
C113 C114 1.523 . S
C114 C98 1.368 . S
C114 C110 1.368 . S
C114 C113 1.523 . S
H115 C90 0.950 . S
H116 C92 0.950 . S
H117 C93 0.949 . S
H118 C95 0.950 . S
H119 C97 0.950 . S
C120 C121 1.349 . S
C120 C122 1.327 . S
C120 H145 0.950 . S
C121 C120 1.349 . S
C121 C137 1.349 1_554 S
C122 C120 1.327 . S
C122 C141 1.429 . S
C122 H146 0.950 . S
C123 C140 1.574 . S
C123 C142 1.368 1_556 S
C123 H147 0.949 . S
H124 C128 0.949 . S
C125 C126 1.349 1_556 S
C125 C127 1.327 . S
C125 H148 0.950 . S
C126 C125 1.349 1_554 S
C126 C138 1.349 . S
C127 C125 1.327 . S
C127 C143 1.429 1_556 S
C127 H149 0.950 . S
C128 H124 0.949 . S
C128 C136 1.574 . S
C128 C144 1.368 . S
H129 C137 0.950 . S
H130 C135 0.950 . S
H131 C136 0.949 . S
H132 C138 0.950 . S
H133 C139 0.950 . S
H134 C140 0.949 . S
C135 H130 0.950 . S
C135 C137 1.327 . S
C135 C141 1.429 1_556 S
C136 C128 1.574 . S
C136 H131 0.949 . S
C136 C142 1.368 . S
C137 C121 1.349 1_556 S
C137 H129 0.950 . S
C137 C135 1.327 . S
C138 C126 1.349 . S
C138 H132 0.950 . S
C138 C139 1.327 . S
C139 H133 0.950 . S
C139 C138 1.327 . S
C139 C143 1.429 . S
C140 C123 1.574 . S
C140 H134 0.949 . S
C140 C144 1.368 1_556 S
C141 C122 1.429 . S
C141 C135 1.429 1_554 S
C141 C142 1.523 . S
C142 C123 1.368 1_554 S
C142 C136 1.368 . S
C142 C141 1.523 . S
C143 C127 1.429 1_554 S
C143 C139 1.429 . S
C143 C144 1.523 . S
C144 C128 1.368 . S
C144 C140 1.368 1_554 S
C144 C143 1.523 . S
H145 C120 0.950 . S
H146 C122 0.950 . S
H147 C123 0.949 . S
H148 C125 0.950 . S
H149 C127 0.950 . S
C150 C151 1.349 . S
C150 C152 1.327 . S
C150 H175 0.950 . S
C151 C150 1.349 . S
C151 C167 1.349 . S
C152 C150 1.327 . S
C152 C171 1.429 . S
C152 H176 0.950 . S
C153 C170 1.574 . S
C153 C172 1.368 . S
C153 H177 0.949 . S
H154 C158 0.949 . S
C155 C156 1.349 . S
C155 C157 1.327 . S
C155 H178 0.950 . S
C156 C155 1.349 . S
C156 C168 1.349 . S
C157 C155 1.327 . S
C157 C173 1.429 . S
C157 H179 0.950 . S
C158 H154 0.949 . S
C158 C166 1.574 . S
C158 C174 1.368 . S
H159 C167 0.950 . S
H160 C165 0.950 . S
H161 C166 0.949 . S
H162 C168 0.950 . S
H163 C169 0.950 . S
H164 C170 0.949 . S
C165 H160 0.950 . S
C165 C167 1.327 . S
C165 C171 1.429 . S
C166 C158 1.574 . S
C166 H161 0.949 . S
C166 C172 1.368 . S
C167 C151 1.349 . S
C167 H159 0.950 . S
C167 C165 1.327 . S
C168 C156 1.349 . S
C168 H162 0.950 . S
C168 C169 1.327 . S
C169 H163 0.950 . S
C169 C168 1.327 . S
C169 C173 1.429 . S
C170 C153 1.574 . S
C170 H164 0.949 . S
C170 C174 1.368 . S
C171 C152 1.429 . S
C171 C165 1.429 . S
C171 C172 1.523 . S
C172 C153 1.368 . S
C172 C166 1.368 . S
C172 C171 1.523 . S
C173 C157 1.429 . S
C173 C169 1.429 . S
C173 C174 1.523 . S
C174 C158 1.368 . S
C174 C170 1.368 . S
C174 C173 1.523 . S
H175 C150 0.950 . S
H176 C152 0.950 . S
H177 C153 0.949 . S
H178 C155 0.950 . S
H179 C157 0.950 . S
C180 C181 1.349 . S
C180 C182 1.327 . S
C180 H205 0.950 . S
C181 C180 1.349 . S
C181 C197 1.349 . S
C182 C180 1.327 . S
C182 C201 1.429 . S
C182 H206 0.950 . S
C183 C200 1.574 . S
C183 C202 1.368 . S
C183 H207 0.949 . S
H184 C188 0.949 . S
C185 C186 1.349 . S
C185 C187 1.327 . S
C185 H208 0.950 . S
C186 C185 1.349 . S
C186 C198 1.349 . S
C187 C185 1.327 . S
C187 C203 1.429 . S
C187 H209 0.950 . S
C188 H184 0.949 . S
C188 C196 1.574 . S
C188 C204 1.368 . S
H189 C197 0.950 . S
H190 C195 0.950 . S
H191 C196 0.949 . S
H192 C198 0.950 . S
H193 C199 0.950 . S
H194 C200 0.949 . S
C195 H190 0.950 . S
C195 C197 1.327 . S
C195 C201 1.429 . S
C196 C188 1.574 . S
C196 H191 0.949 . S
C196 C202 1.368 . S
C197 C181 1.349 . S
C197 H189 0.950 . S
C197 C195 1.327 . S
C198 C186 1.349 . S
C198 H192 0.950 . S
C198 C199 1.327 . S
C199 H193 0.950 . S
C199 C198 1.327 . S
C199 C203 1.429 . S
C200 C183 1.574 . S
C200 H194 0.949 . S
C200 C204 1.368 . S
C201 C182 1.429 . S
C201 C195 1.429 . S
C201 C202 1.523 . S
C202 C183 1.368 . S
C202 C196 1.368 . S
C202 C201 1.523 . S
C203 C187 1.429 . S
C203 C199 1.429 . S
C203 C204 1.523 . S
C204 C188 1.368 . S
C204 C200 1.368 . S
C204 C203 1.523 . S
H205 C180 0.950 . S
H206 C182 0.950 . S
H207 C183 0.949 . S
H208 C185 0.950 . S
H209 C187 0.950 . S
C210 C211 1.349 . S
C210 C212 1.327 . S
C210 H235 0.950 . S
C211 C210 1.349 . S
C211 C227 1.349 . S
C212 C210 1.327 . S
C212 C231 1.429 . S
C212 H236 0.950 . S
C213 C230 1.574 . S
C213 C232 1.368 . S
C213 H237 0.949 . S
H214 C218 0.949 . S
C215 C216 1.349 . S
C215 C217 1.327 . S
C215 H238 0.950 . S
C216 C215 1.349 . S
C216 C228 1.349 . S
C217 C215 1.327 . S
C217 C233 1.429 . S
C217 H239 0.950 . S
C218 H214 0.949 . S
C218 C226 1.574 . S
C218 C234 1.368 . S
H219 C227 0.950 . S
H220 C225 0.950 . S
H221 C226 0.949 . S
H222 C228 0.950 . S
H223 C229 0.950 . S
H224 C230 0.949 . S
C225 H220 0.950 . S
C225 C227 1.327 . S
C225 C231 1.429 . S
C226 C218 1.574 . S
C226 H221 0.949 . S
C226 C232 1.368 . S
C227 C211 1.349 . S
C227 H219 0.950 . S
C227 C225 1.327 . S
C228 C216 1.349 . S
C228 H222 0.950 . S
C228 C229 1.327 . S
C229 H223 0.950 . S
C229 C228 1.327 . S
C229 C233 1.429 . S
C230 C213 1.574 . S
C230 H224 0.949 . S
C230 C234 1.368 . S
C231 C212 1.429 . S
C231 C225 1.429 . S
C231 C232 1.523 . S
C232 C213 1.368 . S
C232 C226 1.368 . S
C232 C231 1.523 . S
C233 C217 1.429 . S
C233 C229 1.429 . S
C233 C234 1.523 . S
C234 C218 1.368 . S
C234 C230 1.368 . S
C234 C233 1.523 . S
H235 C210 0.950 . S
H236 C212 0.950 . S
H237 C213 0.949 . S
H238 C215 0.950 . S
H239 C217 0.950 . S
C240 C241 1.349 . S
C240 C242 1.327 . S
C240 H265 0.950 . S
C241 C240 1.349 . S
C241 C257 1.349 . S
C242 C240 1.327 . S
C242 C261 1.429 . S
C242 H266 0.950 . S
C243 C260 1.574 . S
C243 C262 1.368 . S
C243 H267 0.949 . S
H244 C248 0.949 . S
C245 C246 1.349 . S
C245 C247 1.327 . S
C245 H268 0.950 . S
C246 C245 1.349 . S
C246 C258 1.349 . S
C247 C245 1.327 . S
C247 C263 1.429 . S
C247 H269 0.950 . S
C248 H244 0.949 . S
C248 C256 1.574 . S
C248 C264 1.368 . S
H249 C257 0.950 . S
H250 C255 0.950 . S
H251 C256 0.949 . S
H252 C258 0.950 . S
H253 C259 0.950 . S
H254 C260 0.949 . S
C255 H250 0.950 . S
C255 C257 1.327 . S
C255 C261 1.429 . S
C256 C248 1.574 . S
C256 H251 0.949 . S
C256 C262 1.368 . S
C257 C241 1.349 . S
C257 H249 0.950 . S
C257 C255 1.327 . S
C258 C246 1.349 . S
C258 H252 0.950 . S
C258 C259 1.327 . S
C259 H253 0.950 . S
C259 C258 1.327 . S
C259 C263 1.429 . S
C260 C243 1.574 . S
C260 H254 0.949 . S
C260 C264 1.368 . S
C261 C242 1.429 . S
C261 C255 1.429 . S
C261 C262 1.523 . S
C262 C243 1.368 . S
C262 C256 1.368 . S
C262 C261 1.523 . S
C263 C247 1.429 . S
C263 C259 1.429 . S
C263 C264 1.523 . S
C264 C248 1.368 . S
C264 C260 1.368 . S
C264 C263 1.523 . S
H265 C240 0.950 . S
H266 C242 0.950 . S
H267 C243 0.949 . S
H268 C245 0.950 . S
H269 C247 0.950 . S
C270 C271 1.349 . S
C270 C272 1.327 . S
C270 H295 0.950 . S
C271 C270 1.349 . S
C271 C287 1.349 . S
C272 C270 1.327 . S
C272 C291 1.429 . S
C272 H296 0.950 . S
C273 C290 1.574 . S
C273 C292 1.368 . S
C273 H297 0.949 . S
H274 C278 0.949 . S
C275 C276 1.349 . S
C275 C277 1.327 . S
C275 H298 0.950 . S
C276 C275 1.349 . S
C276 C288 1.349 . S
C277 C275 1.327 . S
C277 C293 1.429 . S
C277 H299 0.950 . S
C278 H274 0.949 . S
C278 C286 1.574 . S
C278 C294 1.368 . S
H279 C287 0.950 . S
H280 C285 0.950 . S
H281 C286 0.949 . S
H282 C288 0.950 . S
H283 C289 0.950 . S
H284 C290 0.949 . S
C285 H280 0.950 . S
C285 C287 1.327 . S
C285 C291 1.429 . S
C286 C278 1.574 . S
C286 H281 0.949 . S
C286 C292 1.368 . S
C287 C271 1.349 . S
C287 H279 0.950 . S
C287 C285 1.327 . S
C288 C276 1.349 . S
C288 H282 0.950 . S
C288 C289 1.327 . S
C289 H283 0.950 . S
C289 C288 1.327 . S
C289 C293 1.429 . S
C290 C273 1.574 . S
C290 H284 0.949 . S
C290 C294 1.368 . S
C291 C272 1.429 . S
C291 C285 1.429 . S
C291 C292 1.523 . S
C292 C273 1.368 . S
C292 C286 1.368 . S
C292 C291 1.523 . S
C293 C277 1.429 . S
C293 C289 1.429 . S
C293 C294 1.523 . S
C294 C278 1.368 . S
C294 C290 1.368 . S
C294 C293 1.523 . S
H295 C270 0.950 . S
H296 C272 0.950 . S
H297 C273 0.949 . S
H298 C275 0.950 . S
H299 C277 0.950 . S
C300 C301 1.349 . S
C300 C302 1.327 . S
C300 H325 0.950 . S
C301 C300 1.349 . S
C301 C317 1.349 . S
C302 C300 1.327 . S
C302 C321 1.429 . S
C302 H326 0.950 . S
C303 C320 1.574 . S
C303 C322 1.368 . S
C303 H327 0.949 . S
H304 C308 0.949 . S
C305 C306 1.349 . S
C305 C307 1.327 . S
C305 H328 0.950 . S
C306 C305 1.349 . S
C306 C318 1.349 . S
C307 C305 1.327 . S
C307 C323 1.429 . S
C307 H329 0.950 . S
C308 H304 0.949 . S
C308 C316 1.574 . S
C308 C324 1.368 . S
H309 C317 0.950 . S
H310 C315 0.950 . S
H311 C316 0.949 . S
H312 C318 0.950 . S
H313 C319 0.950 . S
H314 C320 0.949 . S
C315 H310 0.950 . S
C315 C317 1.327 . S
C315 C321 1.429 . S
C316 C308 1.574 . S
C316 H311 0.949 . S
C316 C322 1.368 . S
C317 C301 1.349 . S
C317 H309 0.950 . S
C317 C315 1.327 . S
C318 C306 1.349 . S
C318 H312 0.950 . S
C318 C319 1.327 . S
C319 H313 0.950 . S
C319 C318 1.327 . S
C319 C323 1.429 . S
C320 C303 1.574 . S
C320 H314 0.949 . S
C320 C324 1.368 . S
C321 C302 1.429 . S
C321 C315 1.429 . S
C321 C322 1.523 . S
C322 C303 1.368 . S
C322 C316 1.368 . S
C322 C321 1.523 . S
C323 C307 1.429 . S
C323 C319 1.429 . S
C323 C324 1.523 . S
C324 C308 1.368 . S
C324 C320 1.368 . S
C324 C323 1.523 . S
H325 C300 0.950 . S
H326 C302 0.950 . S
H327 C303 0.949 . S
H328 C305 0.950 . S
H329 C307 0.950 . S
C330 C331 1.349 . S
C330 C332 1.327 . S
C330 H355 0.950 . S
C331 C330 1.349 . S
C331 C347 1.349 . S
C332 C330 1.327 . S
C332 C351 1.429 . S
C332 H356 0.950 . S
C333 C350 1.574 . S
C333 C352 1.368 . S
C333 H357 0.949 . S
H334 C338 0.949 . S
C335 C336 1.349 . S
C335 C337 1.327 . S
C335 H358 0.950 . S
C336 C335 1.349 . S
C336 C348 1.349 . S
C337 C335 1.327 . S
C337 C353 1.429 . S
C337 H359 0.950 . S
C338 H334 0.949 . S
C338 C346 1.574 . S
C338 C354 1.368 . S
H339 C347 0.950 . S
H340 C345 0.950 . S
H341 C346 0.949 . S
H342 C348 0.950 . S
H343 C349 0.950 . S
H344 C350 0.949 . S
C345 H340 0.950 . S
C345 C347 1.327 . S
C345 C351 1.429 . S
C346 C338 1.574 . S
C346 H341 0.949 . S
C346 C352 1.368 . S
C347 C331 1.349 . S
C347 H339 0.950 . S
C347 C345 1.327 . S
C348 C336 1.349 . S
C348 H342 0.950 . S
C348 C349 1.327 . S
C349 H343 0.950 . S
C349 C348 1.327 . S
C349 C353 1.429 . S
C350 C333 1.574 . S
C350 H344 0.949 . S
C350 C354 1.368 . S
C351 C332 1.429 . S
C351 C345 1.429 . S
C351 C352 1.523 . S
C352 C333 1.368 . S
C352 C346 1.368 . S
C352 C351 1.523 . S
C353 C337 1.429 . S
C353 C349 1.429 . S
C353 C354 1.523 . S
C354 C338 1.368 . S
C354 C350 1.368 . S
C354 C353 1.523 . S
H355 C330 0.950 . S
H356 C332 0.950 . S
H357 C333 0.949 . S
H358 C335 0.950 . S
H359 C337 0.950 . S
C360 C361 1.349 . S
C360 C362 1.327 . S
C360 H385 0.950 . S
C361 C360 1.349 . S
C361 C377 1.349 . S
C362 C360 1.327 . S
C362 C381 1.429 . S
C362 H386 0.950 . S
C363 C380 1.574 . S
C363 C382 1.368 . S
C363 H387 0.949 . S
H364 C368 0.949 . S
C365 C366 1.349 . S
C365 C367 1.327 . S
C365 H388 0.950 . S
C366 C365 1.349 . S
C366 C378 1.349 . S
C367 C365 1.327 . S
C367 C383 1.429 . S
C367 H389 0.950 . S
C368 H364 0.949 . S
C368 C376 1.574 . S
C368 C384 1.368 . S
H369 C377 0.950 . S
H370 C375 0.950 . S
H371 C376 0.949 . S
H372 C378 0.950 . S
H373 C379 0.950 . S
H374 C380 0.949 . S
C375 H370 0.950 . S
C375 C377 1.327 . S
C375 C381 1.429 . S
C376 C368 1.574 . S
C376 H371 0.949 . S
C376 C382 1.368 . S
C377 C361 1.349 . S
C377 H369 0.950 . S
C377 C375 1.327 . S
C378 C366 1.349 . S
C378 H372 0.950 . S
C378 C379 1.327 . S
C379 H373 0.950 . S
C379 C378 1.327 . S
C379 C383 1.429 . S
C380 C363 1.574 . S
C380 H374 0.949 . S
C380 C384 1.368 . S
C381 C362 1.429 . S
C381 C375 1.429 . S
C381 C382 1.523 . S
C382 C363 1.368 . S
C382 C376 1.368 . S
C382 C381 1.523 . S
C383 C367 1.429 . S
C383 C379 1.429 . S
C383 C384 1.523 . S
C384 C368 1.368 . S
C384 C380 1.368 . S
C384 C383 1.523 . S
H385 C360 0.950 . S
H386 C362 0.950 . S
H387 C363 0.949 . S
H388 C365 0.950 . S
H389 C367 0.950 . S
C390 C391 1.349 . S
C390 C392 1.327 . S
C390 H415 0.950 . S
C391 C390 1.349 . S
C391 C407 1.349 . S
C392 C390 1.327 . S
C392 C411 1.429 . S
C392 H416 0.950 . S
C393 C410 1.574 . S
C393 C412 1.368 . S
C393 H417 0.949 . S
H394 C398 0.949 . S
C395 C396 1.349 . S
C395 C397 1.327 . S
C395 H418 0.950 . S
C396 C395 1.349 . S
C396 C408 1.349 . S
C397 C395 1.327 . S
C397 C413 1.429 . S
C397 H419 0.950 . S
C398 H394 0.949 . S
C398 C406 1.574 . S
C398 C414 1.368 . S
H399 C407 0.950 . S
H400 C405 0.950 . S
H401 C406 0.949 . S
H402 C408 0.950 . S
H403 C409 0.950 . S
H404 C410 0.949 . S
C405 H400 0.950 . S
C405 C407 1.327 . S
C405 C411 1.429 . S
C406 C398 1.574 . S
C406 H401 0.949 . S
C406 C412 1.368 . S
C407 C391 1.349 . S
C407 H399 0.950 . S
C407 C405 1.327 . S
C408 C396 1.349 . S
C408 H402 0.950 . S
C408 C409 1.327 . S
C409 H403 0.950 . S
C409 C408 1.327 . S
C409 C413 1.429 . S
C410 C393 1.574 . S
C410 H404 0.949 . S
C410 C414 1.368 . S
C411 C392 1.429 . S
C411 C405 1.429 . S
C411 C412 1.523 . S
C412 C393 1.368 . S
C412 C406 1.368 . S
C412 C411 1.523 . S
C413 C397 1.429 . S
C413 C409 1.429 . S
C413 C414 1.523 . S
C414 C398 1.368 . S
C414 C410 1.368 . S
C414 C413 1.523 . S
H415 C390 0.950 . S
H416 C392 0.950 . S
H417 C393 0.949 . S
H418 C395 0.950 . S
H419 C397 0.950 . S
C420 C421 1.349 . S
C420 C422 1.327 . S
C420 H445 0.950 . S
C421 C420 1.349 . S
C421 C437 1.349 . S
C422 C420 1.327 . S
C422 C441 1.429 . S
C422 H446 0.950 . S
C423 C440 1.574 . S
C423 C442 1.368 . S
C423 H447 0.949 . S
H424 C428 0.949 . S
C425 C426 1.349 . S
C425 C427 1.327 . S
C425 H448 0.950 . S
C426 C425 1.349 . S
C426 C438 1.349 . S
C427 C425 1.327 . S
C427 C443 1.429 . S
C427 H449 0.950 . S
C428 H424 0.949 . S
C428 C436 1.574 . S
C428 C444 1.368 . S
H429 C437 0.950 . S
H430 C435 0.950 . S
H431 C436 0.949 . S
H432 C438 0.950 . S
H433 C439 0.950 . S
H434 C440 0.949 . S
C435 H430 0.950 . S
C435 C437 1.327 . S
C435 C441 1.429 . S
C436 C428 1.574 . S
C436 H431 0.949 . S
C436 C442 1.368 . S
C437 C421 1.349 . S
C437 H429 0.950 . S
C437 C435 1.327 . S
C438 C426 1.349 . S
C438 H432 0.950 . S
C438 C439 1.327 . S
C439 H433 0.950 . S
C439 C438 1.327 . S
C439 C443 1.429 . S
C440 C423 1.574 . S
C440 H434 0.949 . S
C440 C444 1.368 . S
C441 C422 1.429 . S
C441 C435 1.429 . S
C441 C442 1.523 . S
C442 C423 1.368 . S
C442 C436 1.368 . S
C442 C441 1.523 . S
C443 C427 1.429 . S
C443 C439 1.429 . S
C443 C444 1.523 . S
C444 C428 1.368 . S
C444 C440 1.368 . S
C444 C443 1.523 . S
H445 C420 0.950 . S
H446 C422 0.950 . S
H447 C423 0.949 . S
H448 C425 0.950 . S
H449 C427 0.950 . S
C96 C61 1.481 . S
C91 C43 1.480 . S
C121 C10 1.482 . S
C126 C84 1.484 . S
C151 C21 1.520 . S
C156 C60 1.523 . S
C181 C32 1.519 . S
C186 C83 1.522 . S
C216 C64 1.466 . S
C211 C5 1.481 . S
C246 C86 1.493 . S
C241 C15 1.539 . S
C271 C27 1.501 . S
C276 C65 1.472 . S
C301 C38 1.514 . S
C306 C85 1.484 . S
C336 C88 1.386 . S
C331 C16 1.411 . S
C366 C63 1.411 . S
C361 C26 1.457 . S
C396 C87 1.381 . S
C391 C37 1.413 . S
C421 C4 1.438 . S
C426 C62 1.397 . S
