# Generated by pormake.
# Topology apo, (3,6)-cn, num edge types: 1
# Building blocks:
#     Node 0, Type 0, BuildingBlock: QEWDON_clean_linker_0, # of connection points: 3
#     Node 1, Type 0, BuildingBlock: QEWDON_clean_linker_0, # of connection points: 3
#     Node 2, Type 0, BuildingBlock: QEWDON_clean_linker_0, # of connection points: 3
#     Node 3, Type 0, BuildingBlock: QEWDON_clean_linker_0, # of connection points: 3
#     Node 4, Type 0, BuildingBlock: QEWDON_clean_linker_0, # of connection points: 3
#     Node 5, Type 0, BuildingBlock: QEWDON_clean_linker_0, # of connection points: 3
#     Node 6, Type 0, BuildingBlock: QEWDON_clean_linker_0, # of connection points: 3
#     Node 7, Type 0, BuildingBlock: QEWDON_clean_linker_0, # of connection points: 3
#     Node 8, Type 1, BuildingBlock: KUMBUR_clean_sbu_1, # of connection points: 6
#     Node 9, Type 1, BuildingBlock: KUMBUR_clean_sbu_1, # of connection points: 6
#     Node 10, Type 1, BuildingBlock: KUMBUR_clean_sbu_1, # of connection points: 6
#     Node 11, Type 1, BuildingBlock: KUMBUR_clean_sbu_1, # of connection points: 6
#     Edge 12, Type (0, 1), BuildingBlock: OJICUG_clean_linker_0, # of connection points: 2
#     Edge 13, Type (0, 1), BuildingBlock: OJICUG_clean_linker_0, # of connection points: 2
#     Edge 14, Type (0, 1), BuildingBlock: OJICUG_clean_linker_0, # of connection points: 2
#     Edge 15, Type (0, 1), BuildingBlock: OJICUG_clean_linker_0, # of connection points: 2
#     Edge 16, Type (0, 1), BuildingBlock: OJICUG_clean_linker_0, # of connection points: 2
#     Edge 17, Type (0, 1), BuildingBlock: OJICUG_clean_linker_0, # of connection points: 2
#     Edge 18, Type (0, 1), BuildingBlock: OJICUG_clean_linker_0, # of connection points: 2
#     Edge 19, Type (0, 1), BuildingBlock: OJICUG_clean_linker_0, # of connection points: 2
#     Edge 20, Type (0, 1), BuildingBlock: OJICUG_clean_linker_0, # of connection points: 2
#     Edge 21, Type (0, 1), BuildingBlock: OJICUG_clean_linker_0, # of connection points: 2
#     Edge 22, Type (0, 1), BuildingBlock: OJICUG_clean_linker_0, # of connection points: 2
#     Edge 23, Type (0, 1), BuildingBlock: OJICUG_clean_linker_0, # of connection points: 2
#     Edge 24, Type (0, 1), BuildingBlock: OJICUG_clean_linker_0, # of connection points: 2
#     Edge 25, Type (0, 1), BuildingBlock: OJICUG_clean_linker_0, # of connection points: 2
#     Edge 26, Type (0, 1), BuildingBlock: OJICUG_clean_linker_0, # of connection points: 2
#     Edge 27, Type (0, 1), BuildingBlock: OJICUG_clean_linker_0, # of connection points: 2
#     Edge 28, Type (0, 1), BuildingBlock: OJICUG_clean_linker_0, # of connection points: 2
#     Edge 29, Type (0, 1), BuildingBlock: OJICUG_clean_linker_0, # of connection points: 2
#     Edge 30, Type (0, 1), BuildingBlock: OJICUG_clean_linker_0, # of connection points: 2
#     Edge 31, Type (0, 1), BuildingBlock: OJICUG_clean_linker_0, # of connection points: 2
#     Edge 32, Type (0, 1), BuildingBlock: OJICUG_clean_linker_0, # of connection points: 2
#     Edge 33, Type (0, 1), BuildingBlock: OJICUG_clean_linker_0, # of connection points: 2
#     Edge 34, Type (0, 1), BuildingBlock: OJICUG_clean_linker_0, # of connection points: 2
#     Edge 35, Type (0, 1), BuildingBlock: OJICUG_clean_linker_0, # of connection points: 2
# Relax obj value: 0.076
# Max RMSD: 0.275
# Mean RMSD: 0.217
data_MOF--net-apo--node1-KUMBUR_clean_sbu_1--node2-QEWDON_clean_linker_0--edge1-OJICUG_clean_linker_0
_symmetry_space_group_name_H-M    P1
_symmetry_Int_Tables_number       1
_symmetry_cell_setting            triclinic
loop_
_symmetry_equiv_pos_as_xyz
'x, y, z'
_cell_length_a     22.68016
_cell_length_b     31.32782
_cell_length_c     39.39325
_cell_angle_alpha  90.511073
_cell_angle_beta   90.274509
_cell_angle_gamma 90.737886
loop_
_atom_site_label
_atom_site_type_symbol
_atom_site_fract_x
_atom_site_fract_y
_atom_site_fract_z
_atom_type_partial_charge
H0 H 0.27392 0.41149 0.36439 0.0
C1 C 0.29435 0.41315 0.38931 0.0
C2 C 0.34431 0.43946 0.39471 0.0
C3 C 0.26927 0.39068 0.41656 0.0
H4 H 0.40488 0.46599 0.43145 0.0
C5 C 0.36856 0.44368 0.42744 0.0
C6 C 0.34414 0.42174 0.45508 0.0
C7 C 0.29535 0.39444 0.44903 0.0
C8 C 0.21112 0.36844 0.413 0.0
H9 H 0.27616 0.37679 0.46986 0.0
C10 C 0.19947 0.3367 0.38793 0.0
C11 C 0.14329 0.31649 0.38611 0.0
C12 C 0.1662 0.37966 0.43576 0.0
H13 H 0.17365 0.4042 0.45492 0.0
C14 C 0.11116 0.35974 0.43408 0.0
H15 H 0.23362 0.32781 0.37018 0.0
C16 C 0.09979 0.32839 0.40964 0.0
H17 H 0.05672 0.313 0.4094 0.0
H18 H 0.07714 0.36856 0.4519 0.0
H19 H 0.25386 0.1012 0.86979 0.0
C20 C 0.24236 0.10118 0.89647 0.0
C21 C 0.19532 0.07531 0.90789 0.0
C22 C 0.27829 0.12393 0.91971 0.0
H23 H 0.14823 0.05377 0.9525 0.0
C24 C 0.18403 0.07355 0.94311 0.0
C25 C 0.21937 0.09647 0.96657 0.0
C26 C 0.2661 0.12186 0.95458 0.0
C27 C 0.33527 0.14232 0.90855 0.0
H28 H 0.29542 0.13792 0.97254 0.0
C29 C 0.339 0.18083 0.89038 0.0
C30 C 0.39442 0.19643 0.87962 0.0
C31 C 0.38697 0.12005 0.91608 0.0
H32 H 0.38488 0.09041 0.93004 0.0
C33 C 0.44163 0.13542 0.90534 0.0
H34 H 0.29932 0.19828 0.88453 0.0
C35 C 0.4454 0.17326 0.88711 0.0
H36 H 0.48835 0.18475 0.87909 0.0
H37 H 0.48121 0.11792 0.91113 0.0
H38 H 0.76794 0.1141 0.69846 0.0
C39 C 0.78449 0.11546 0.67271 0.0
C40 C 0.83381 0.09135 0.66344 0.0
C41 C 0.75278 0.13779 0.64799 0.0
H42 H 0.89111 0.0736 0.62214 0.0
C43 C 0.85281 0.09182 0.62944 0.0
C44 C 0.82111 0.11347 0.60435 0.0
C45 C 0.7714 0.13682 0.61399 0.0
C46 C 0.69474 0.15593 0.65624 0.0
H47 H 0.7449 0.15218 0.59477 0.0
C48 C 0.68948 0.19179 0.67776 0.0
C49 C 0.63367 0.20949 0.68356 0.0
C50 C 0.6439 0.13739 0.64152 0.0
H51 H 0.64715 0.10967 0.62502 0.0
C52 C 0.58853 0.15441 0.64793 0.0
H53 H 0.72855 0.20667 0.68884 0.0
C54 C 0.5834 0.19046 0.66864 0.0
H55 H 0.54017 0.20386 0.67279 0.0
H56 H 0.54959 0.13996 0.63646 0.0
H57 H 0.7573 0.42861 0.19542 0.0
C58 C 0.74357 0.42485 0.16916 0.0
C59 C 0.69438 0.44698 0.15687 0.0
C60 C 0.77784 0.4001 0.14721 0.0
H61 H 0.64246 0.4605 0.11188 0.0
C62 C 0.6799 0.44354 0.122 0.0
C63 C 0.71377 0.4183 0.09993 0.0
C64 C 0.76248 0.39651 0.11285 0.0
C65 C 0.83421 0.38279 0.15908 0.0
H66 H 0.79026 0.37836 0.09581 0.0
C67 C 0.8364 0.34369 0.1762 0.0
C68 C 0.89097 0.32774 0.18686 0.0
C69 C 0.88653 0.40571 0.15279 0.0
H70 H 0.8854 0.43586 0.13954 0.0
C71 C 0.94064 0.38992 0.1636 0.0
H72 H 0.79615 0.3257 0.1809 0.0
C73 C 0.94294 0.35108 0.18057 0.0
H74 H 0.98531 0.33902 0.18861 0.0
H75 H 0.98087 0.40773 0.15871 0.0
H76 H 0.67581 0.65188 0.69971 0.0
C77 C 0.67186 0.64066 0.67368 0.0
C78 C 0.64979 0.59924 0.66684 0.0
C79 C 0.68554 0.66837 0.64679 0.0
H80 H 0.62333 0.55409 0.62798 0.0
C81 C 0.64157 0.58569 0.63307 0.0
C82 C 0.65402 0.6131 0.60594 0.0
C83 C 0.67693 0.65412 0.61305 0.0
C84 C 0.69946 0.71424 0.65331 0.0
H85 H 0.68512 0.67595 0.59234 0.0
C86 C 0.75024 0.72809 0.67154 0.0
C87 C 0.76327 0.77227 0.67508 0.0
C88 C 0.66126 0.74479 0.63987 0.0
H89 H 0.62187 0.73496 0.62605 0.0
C90 C 0.6731 0.78819 0.64416 0.0
H91 H 0.78024 0.70477 0.68175 0.0
C92 C 0.72363 0.80187 0.66148 0.0
H93 H 0.7315 0.83589 0.66445 0.0
H94 H 0.64308 0.81138 0.63384 0.0
H95 H 0.80836 0.89805 0.18401 0.0
C96 C 0.80547 0.90961 0.15825 0.0
C97 C 0.82424 0.95165 0.1503 0.0
C98 C 0.78605 0.88129 0.13253 0.0
H99 H 0.83905 0.99561 0.10866 0.0
C100 C 0.82169 0.96469 0.11595 0.0
C101 C 0.80108 0.93677 0.09028 0.0
C102 C 0.78202 0.89573 0.0991 0.0
C103 C 0.78063 0.83467 0.13829 0.0
H104 H 0.76677 0.87378 0.07938 0.0
C105 C 0.74002 0.81668 0.16134 0.0
C106 C 0.73487 0.7718 0.1641 0.0
C107 C 0.81616 0.8076 0.11865 0.0
H108 H 0.84801 0.82069 0.10101 0.0
C109 C 0.81075 0.76354 0.12113 0.0
H110 H 0.71279 0.83727 0.17677 0.0
C111 C 0.77022 0.74573 0.14341 0.0
H112 H 0.76645 0.71125 0.14438 0.0
H113 H 0.8379 0.74308 0.10558 0.0
H114 H 0.17349 0.87473 0.35388 0.0
C115 C 0.16423 0.87795 0.38071 0.0
C116 C 0.13991 0.91593 0.39379 0.0
C117 C 0.1746 0.84304 0.40193 0.0
H118 H 0.10608 0.94615 0.43949 0.0
C119 C 0.12695 0.91817 0.42888 0.0
C120 C 0.13919 0.88383 0.45049 0.0
C121 C 0.16313 0.84649 0.43675 0.0
C122 C 0.18686 0.80056 0.38723 0.0
H123 H 0.16973 0.81906 0.45289 0.0
C124 C 0.24423 0.7882 0.37817 0.0
C125 C 0.25435 0.74627 0.36631 0.0
C126 C 0.13981 0.77132 0.38367 0.0
H127 H 0.09546 0.78036 0.39058 0.0
C128 C 0.1495 0.73023 0.37134 0.0
H129 H 0.28073 0.81059 0.3812 0.0
C130 C 0.20629 0.71768 0.36281 0.0
H131 H 0.21256 0.68558 0.35313 0.0
H132 H 0.11291 0.70793 0.36853 0.0
H133 H 0.3285 0.64765 0.85645 0.0
C134 C 0.33464 0.6421 0.88334 0.0
C135 C 0.35038 0.60145 0.89505 0.0
C136 C 0.32875 0.67636 0.90609 0.0
H137 H 0.37159 0.56487 0.93981 0.0
C138 C 0.35774 0.59551 0.93033 0.0
C139 C 0.34986 0.62935 0.95356 0.0
C140 C 0.33603 0.66985 0.941 0.0
C141 C 0.32007 0.71999 0.89341 0.0
H142 H 0.33016 0.69649 0.95835 0.0
C143 C 0.26653 0.73198 0.87825 0.0
C144 C 0.2582 0.77461 0.86852 0.0
C145 C 0.36563 0.75032 0.89769 0.0
H146 H 0.4071 0.7415 0.90928 0.0
C147 C 0.35807 0.79221 0.88706 0.0
H148 H 0.23088 0.70882 0.87542 0.0
C149 C 0.30463 0.80441 0.87274 0.0
H150 H 0.29934 0.83729 0.8651 0.0
H151 H 0.39346 0.81542 0.89033 0.0
Tb152 Tb 0.07112 0.11464 0.24355 0.0
C153 C 0.8237 0.07148 0.28649 0.0
N154 N 0.85164 0.10993 0.29046 0.0
C155 C 0.768 0.14469 0.26585 0.0
C156 C 0.76802 0.06794 0.27059 0.0
C157 C 0.82295 0.14657 0.28212 0.0
C158 C 0.74086 0.10516 0.2595 0.0
C159 C 0.82193 0.9954 0.29764 0.0
C160 C 0.85 0.03567 0.29978 0.0
C161 C 0.76749 0.9914 0.2807 0.0
C162 C 0.74064 0.0276 0.26714 0.0
Tb163 Tb 0.94334 0.10786 0.31557 0.0
N164 N 0.90352 0.04059 0.31508 0.0
C165 C 0.84921 0.96059 0.31297 0.0
C166 C 0.92866 1.00742 0.33184 0.0
C167 C 0.90238 0.96678 0.33058 0.0
H168 H 0.84136 0.17754 0.28849 0.0
H169 H 0.92301 0.94032 0.34327 0.0
H170 H 0.17496 0.05313 0.27589 0.0
H171 H 0.077 0.27913 0.20195 0.0
H172 H 0.96904 1.01238 0.346 0.0
H173 H 0.82902 0.92907 0.31196 0.0
H174 H 0.03682 0.20615 0.20469 0.0
H175 H 0.74618 0.17381 0.2587 0.0
H176 H 0.74539 0.96064 0.27842 0.0
H177 H 0.6981 0.0242 0.2547 0.0
H178 H 0.27556 0.0623 0.2988 0.0
H179 H 0.69807 0.10386 0.24716 0.0
H180 H 0.17417 0.29624 0.22784 0.0
N181 N 0.16515 0.11891 0.26421 0.0
C182 C 0.19219 0.15775 0.2623 0.0
C183 C 0.25234 0.08953 0.28895 0.0
C184 C 0.24979 0.16445 0.27497 0.0
C185 C 0.19488 0.08458 0.27633 0.0
C186 C 0.27972 0.12973 0.28862 0.0
N187 N 0.10614 0.18283 0.23565 0.0
C188 C 0.07714 0.21351 0.21798 0.0
C189 C 0.18736 0.23196 0.24585 0.0
C190 C 0.16131 0.19097 0.24798 0.0
C191 C 0.15577 0.26429 0.22998 0.0
C192 C 0.10079 0.25482 0.21552 0.0
H193 H 0.32415 0.13348 0.29853 0.0
H194 H 0.31961 0.2113 0.28337 0.0
H195 H 0.26491 0.27047 0.25789 0.0
O196 O 0.09823 0.12435 0.19314 0.0
O197 O 0.08789 0.14228 0.29446 0.0
O198 O 0.99841 0.16609 0.31408 0.0
O199 O 0.10104 0.06181 0.21528 0.0
O200 O 0.98807 0.14837 0.23302 0.0
O201 O 0.94389 0.16602 0.2846 0.0
O202 O 0.95871 0.10032 0.36811 0.0
O203 O 0.95572 0.05796 0.27651 0.0
O204 O 0.98157 0.09478 0.22932 0.0
O205 O 0.8814 0.13156 0.35035 0.0
O206 O 0.03125 0.08382 0.32727 0.0
O207 O 0.06783 0.05752 0.27632 0.0
C208 C 0.05581 0.17112 0.30988 0.0
C209 C 0.16457 0.07572 0.16813 0.0
C210 C 0.21086 0.07191 0.11217 0.0
C211 C 0.26028 0.05292 0.12709 0.0
C212 C 0.21464 0.05715 0.18258 0.0
C213 C 0.2623 0.04603 0.1621 0.0
C214 C 0.16333 0.08363 0.13294 0.0
C215 C 0.95297 0.17219 0.25187 0.0
C216 C 0.11139 0.08456 0.18833 0.0
C217 C 0.27551 0.20542 0.27356 0.0
C218 C 0.24431 0.23912 0.2591 0.0
C219 C 0.95102 0.06443 0.24385 0.0
C220 C 0.87287 0.09366 0.40162 0.0
C221 C 0.84372 0.08044 0.46037 0.0
C222 C 0.80487 0.04811 0.44874 0.0
C223 C 0.83258 0.062 0.39073 0.0
C224 C 0.87782 0.10321 0.43657 0.0
C225 C 0.79924 0.03916 0.41416 0.0
C226 C 0.06223 0.056 0.30979 0.0
C227 C 0.90897 0.11729 0.37678 0.0
H228 H 0.29744 0.04363 0.11163 0.0
H229 H 0.2166 0.05062 0.20948 0.0
H230 H 0.30068 0.03149 0.17335 0.0
H231 H 0.12456 0.09762 0.12154 0.0
H232 H 0.77773 0.03038 0.46641 0.0
H233 H 0.82621 0.05517 0.36413 0.0
H234 H 0.90821 0.12805 0.4452 0.0
H235 H 0.76844 0.0147 0.40544 0.0
Tb236 Tb 0.44284 0.40783 0.74327 0.0
C237 C 0.65852 0.48612 0.8128 0.0
N238 N 0.64586 0.44462 0.80518 0.0
C239 C 0.7408 0.43705 0.77937 0.0
C240 C 0.71207 0.5053 0.80279 0.0
C241 C 0.68675 0.41952 0.7896 0.0
C242 C 0.7533 0.48023 0.78568 0.0
C243 C 0.62809 0.55234 0.83902 0.0
C244 C 0.61685 0.50926 0.83031 0.0
C245 C 0.68076 0.57213 0.8284 0.0
C246 C 0.72268 0.54864 0.81031 0.0
Tb247 Tb 0.55667 0.41891 0.82325 0.0
N248 N 0.56655 0.48891 0.84011 0.0
C249 C 0.58691 0.57378 0.85901 0.0
C250 C 0.52911 0.50861 0.86214 0.0
C251 C 0.53777 0.55153 0.87119 0.0
H252 H 0.67753 0.38607 0.78498 0.0
H253 H 0.50708 0.56717 0.88802 0.0
H254 H 0.33656 0.47895 0.76074 0.0
H255 H 0.42078 0.2416 0.70883 0.0
H256 H 0.49329 0.49103 0.87356 0.0
H257 H 0.59384 0.60691 0.86629 0.0
H258 H 0.46937 0.31294 0.71098 0.0
H259 H 0.77278 0.41727 0.76664 0.0
H260 H 0.68999 0.60532 0.8346 0.0
H261 H 0.76342 0.56413 0.80265 0.0
H262 H 0.23588 0.47699 0.78346 0.0
H263 H 0.79508 0.49374 0.7776 0.0
H264 H 0.32283 0.23106 0.73529 0.0
N265 N 0.34652 0.41122 0.76117 0.0
C266 C 0.31757 0.37312 0.76363 0.0
C267 C 0.25871 0.44746 0.77856 0.0
C268 C 0.25895 0.37051 0.77528 0.0
C269 C 0.3165 0.44835 0.76628 0.0
C270 C 0.23019 0.40833 0.78376 0.0
N271 N 0.40066 0.34137 0.73943 0.0
C272 C 0.42669 0.30833 0.72251 0.0
C273 C 0.31573 0.29716 0.75119 0.0
C274 C 0.3452 0.33699 0.75174 0.0
C275 C 0.34399 0.26225 0.73626 0.0
C276 C 0.39927 0.26807 0.72127 0.0
H277 H 0.18515 0.40775 0.79282 0.0
H278 H 0.18541 0.32781 0.78585 0.0
H279 H 0.23528 0.26347 0.76476 0.0
O280 O 0.47362 0.40023 0.69344 0.0
O281 O 0.45411 0.35425 0.77825 0.0
O282 O 0.47185 0.38534 0.83016 0.0
O283 O 0.38833 0.42628 0.70246 0.0
O284 O 0.5347 0.38697 0.73819 0.0
O285 O 0.56869 0.36266 0.79021 0.0
O286 O 0.56828 0.42289 0.87604 0.0
O287 O 0.57638 0.44803 0.7735 0.0
O288 O 0.48862 0.4695 0.75023 0.0
O289 O 0.6093 0.37295 0.84775 0.0
O290 O 0.4643 0.43803 0.82951 0.0
O291 O 0.43452 0.46353 0.77739 0.0
C292 C 0.45129 0.3536 0.81144 0.0
C293 C 0.43683 0.44617 0.65187 0.0
C294 C 0.4289 0.46213 0.59146 0.0
C295 C 0.46215 0.49972 0.59706 0.0
C296 C 0.4696 0.48392 0.65705 0.0
C297 C 0.48202 0.51063 0.62972 0.0
C298 C 0.41609 0.4356 0.61916 0.0
C299 C 0.56468 0.3597 0.75672 0.0
C300 C 0.42677 0.416 0.67962 0.0
C301 C 0.23022 0.33052 0.77662 0.0
C302 C 0.25856 0.29389 0.76456 0.0
C303 C 0.54535 0.47551 0.75608 0.0
C304 C 0.65776 0.3995 0.89792 0.0
C305 C 0.7018 0.41303 0.95379 0.0
C306 C 0.75504 0.42452 0.9381 0.0
C307 C 0.71168 0.41043 0.88275 0.0
C308 C 0.65334 0.40025 0.93358 0.0
C309 C 0.76001 0.42282 0.90279 0.0
C310 C 0.43352 0.46438 0.81083 0.0
C311 C 0.60416 0.39121 0.8774 0.0
H312 H 0.472 0.52087 0.57621 0.0
H313 H 0.48599 0.4924 0.68206 0.0
H314 H 0.50732 0.53974 0.63389 0.0
H315 H 0.39128 0.40615 0.61512 0.0
H316 H 0.79289 0.43446 0.95323 0.0
H317 H 0.71641 0.40996 0.85553 0.0
H318 H 0.61177 0.39215 0.94555 0.0
H319 H 0.80131 0.43153 0.89088 0.0
Tb320 Tb 0.06475 0.91578 0.74366 0.0
C321 C 0.82467 0.86449 0.80926 0.0
N322 N 0.84856 0.90318 0.80182 0.0
C323 C 0.75789 0.92413 0.77567 0.0
C324 C 0.76691 0.85335 0.79897 0.0
C325 C 0.81553 0.93361 0.78637 0.0
C326 C 0.73368 0.88364 0.78163 0.0
C327 C 0.83552 0.79572 0.83588 0.0
C328 C 0.8587 0.83613 0.82722 0.0
C329 C 0.77841 0.78389 0.82505 0.0
C330 C 0.74419 0.81265 0.80659 0.0
Tb331 Tb 0.94322 0.91528 0.81942 0.0
N332 N 0.91386 0.84867 0.83696 0.0
C333 C 0.87013 0.76868 0.85553 0.0
C334 C 0.94632 0.82333 0.85789 0.0
C335 C 0.92544 0.78281 0.86695 0.0
H336 H 0.83361 0.96514 0.78219 0.0
H337 H 0.95174 0.76271 0.88312 0.0
H338 H 0.16148 0.83856 0.75893 0.0
H339 H 0.10481 0.08249 0.71834 0.0
H340 H 0.98784 0.83435 0.86843 0.0
H341 H 0.85398 0.73736 0.86273 0.0
H342 H 0.04771 0.01448 0.71729 0.0
H343 H 0.73213 0.94809 0.76294 0.0
H344 H 0.76004 0.75283 0.83119 0.0
H345 H 0.70001 0.8033 0.79871 0.0
H346 H 0.26079 0.83303 0.78425 0.0
H347 H 0.68905 0.87637 0.77328 0.0
H348 H 0.20393 0.08544 0.745 0.0
N349 N 0.15902 0.9062 0.76327 0.0
C350 C 0.19215 0.94233 0.76749 0.0
C351 C 0.24157 0.86406 0.78035 0.0
C352 C 0.25032 0.94092 0.78017 0.0
C353 C 0.18454 0.86726 0.76695 0.0
C354 C 0.27415 0.90113 0.78777 0.0
N355 N 0.11333 0.98014 0.74395 0.0
C356 C 0.09093 0.0157 0.72895 0.0
C357 C 0.20315 0.01839 0.75798 0.0
C358 C 0.16918 0.98048 0.75657 0.0
C359 C 0.17919 0.05563 0.7445 0.0
C360 C 0.12317 0.0541 0.72947 0.0
H361 H 0.31861 0.89859 0.79767 0.0
H362 H 0.32806 0.97861 0.79345 0.0
H363 H 0.28667 0.04653 0.774 0.0
O364 O 0.04605 0.93079 0.69283 0.0
O365 O 0.06141 0.96747 0.78282 0.0
O366 O 0.03481 0.93122 0.83007 0.0
O367 O 0.11811 0.89035 0.70476 0.0
O368 O 0.97823 0.94205 0.73439 0.0
O369 O 0.94485 0.97088 0.78503 0.0
O370 O 0.9192 0.91494 0.87086 0.0
O371 O 0.91907 0.8878 0.76987 0.0
O372 O 0.00328 0.86039 0.74531 0.0
O373 O 0.91774 0.97319 0.8424 0.0
O374 O 0.02647 0.88093 0.82675 0.0
O375 O 0.06174 0.85739 0.7747 0.0
C376 C 0.06336 0.96269 0.81591 0.0
C377 C 0.07064 0.87961 0.65164 0.0
C378 C 0.06868 0.86581 0.59043 0.0
C379 C 0.03002 0.83115 0.5958 0.0
C380 C 0.03326 0.84422 0.65648 0.0
C381 C 0.01287 0.82027 0.62866 0.0
C382 C 0.08907 0.88996 0.61856 0.0
C383 C 0.94928 0.97109 0.75154 0.0
C384 C 0.08772 0.90739 0.68052 0.0
C385 C 0.28352 0.97897 0.78341 0.0
C386 C 0.26003 0.01763 0.77222 0.0
C387 C 0.94601 0.85883 0.75155 0.0
C388 C 0.85471 0.96785 0.89076 0.0
C389 C 0.80654 0.97421 0.94608 0.0
C390 C 0.75773 0.9927 0.93001 0.0
C391 C 0.80544 0.98603 0.87515 0.0
C392 C 0.855 0.9622 0.9261 0.0
C393 C 0.75729 0.99846 0.8948 0.0
C394 C 0.05757 0.85421 0.80801 0.0
C395 C 0.90745 0.95535 0.87156 0.0
H396 H 0.01385 0.81207 0.57457 0.0
H397 H 0.01935 0.83543 0.68171 0.0
H398 H 0.98351 0.79327 0.63258 0.0
H399 H 0.11814 0.9172 0.61465 0.0
H400 H 0.71942 1.00188 0.94452 0.0
H401 H 0.80423 0.9908 0.84797 0.0
H402 H 0.89354 0.94868 0.9381 0.0
H403 H 0.71931 1.01245 0.88267 0.0
Tb404 Tb 0.45329 0.62357 0.24363 0.0
C405 C 0.71122 0.64072 0.30488 0.0
N406 N 0.67711 0.60477 0.3032 0.0
C407 C 0.76132 0.56347 0.28776 0.0
C408 C 0.77198 0.63947 0.29766 0.0
C409 C 0.7012 0.5663 0.29503 0.0
C410 C 0.79688 0.6002 0.28905 0.0
C411 C 0.71801 0.71742 0.31346 0.0
C412 C 0.68445 0.67925 0.3125 0.0
C413 C 0.77872 0.71629 0.30662 0.0
C414 C 0.80561 0.67743 0.29872 0.0
Tb415 Tb 0.58007 0.61359 0.31585 0.0
N416 N 0.62505 0.6794 0.31757 0.0
C417 C 0.68947 0.75562 0.32107 0.0
C418 C 0.59765 0.7163 0.32663 0.0
C419 C 0.62917 0.75496 0.328 0.0
H420 H 0.67444 0.53757 0.29492 0.0
H421 H 0.60701 0.7842 0.33478 0.0
H422 H 0.36 0.70031 0.26345 0.0
H423 H 0.42036 0.45449 0.22019 0.0
H424 H 0.55197 0.71635 0.33355 0.0
H425 H 0.71368 0.78565 0.32209 0.0
H426 H 0.47585 0.52242 0.21989 0.0
H427 H 0.78025 0.53292 0.28134 0.0
H428 H 0.8052 0.74532 0.30719 0.0
H429 H 0.85237 0.67713 0.29323 0.0
H430 H 0.25691 0.70547 0.28319 0.0
H431 H 0.84341 0.5979 0.2833 0.0
H432 H 0.31702 0.45249 0.24003 0.0
N433 N 0.35774 0.63272 0.25977 0.0
C434 C 0.32374 0.59668 0.26076 0.0
C435 C 0.27535 0.67461 0.27728 0.0
C436 C 0.26439 0.59807 0.27103 0.0
C437 C 0.33396 0.67158 0.26669 0.0
C438 C 0.24058 0.63764 0.27985 0.0
N439 N 0.40636 0.55846 0.24146 0.0
C440 C 0.43162 0.52202 0.22956 0.0
C441 C 0.3148 0.52032 0.25087 0.0
C442 C 0.34852 0.55836 0.25065 0.0
C443 C 0.3414 0.48246 0.24025 0.0
C444 C 0.39985 0.48343 0.22921 0.0
H445 H 0.19517 0.64011 0.28797 0.0
H446 H 0.1851 0.56046 0.27973 0.0
H447 H 0.22928 0.49238 0.26219 0.0
O448 O 0.46201 0.61081 0.19119 0.0
O449 O 0.43399 0.58896 0.29138 0.0
O450 O 0.52049 0.5588 0.31012 0.0
O451 O 0.4058 0.66075 0.20891 0.0
O452 O 0.53467 0.59014 0.23084 0.0
O453 O 0.57317 0.55965 0.27973 0.0
O454 O 0.56921 0.62821 0.36774 0.0
O455 O 0.60277 0.64528 0.26829 0.0
O456 O 0.51876 0.67612 0.24649 0.0
O457 O 0.6289 0.57941 0.35186 0.0
O458 O 0.49617 0.64488 0.32788 0.0
O459 O 0.46703 0.67739 0.27845 0.0
C460 C 0.4627 0.55923 0.30793 0.0
C461 C 0.37669 0.62444 0.15836 0.0
C462 C 0.34363 0.61099 0.09983 0.0
C463 C 0.28872 0.59707 0.11237 0.0
C464 C 0.32108 0.61109 0.16992 0.0
C465 C 0.2777 0.59716 0.14712 0.0
C466 C 0.38773 0.6245 0.12317 0.0
C467 C 0.56831 0.56225 0.24631 0.0
C468 C 0.42297 0.6389 0.18263 0.0
C469 C 0.23074 0.56012 0.27174 0.0
C470 C 0.25587 0.52135 0.26168 0.0
C471 C 0.57658 0.67277 0.24842 0.0
C472 C 0.58817 0.5732 0.40676 0.0
C473 C 0.58877 0.56166 0.4682 0.0
C474 C 0.55663 0.52338 0.46277 0.0
C475 C 0.55617 0.53508 0.40206 0.0
C476 C 0.60428 0.58644 0.43979 0.0
C477 C 0.54045 0.51034 0.42996 0.0
C478 C 0.46455 0.67321 0.31156 0.0
C479 C 0.60613 0.59933 0.37761 0.0
H480 H 0.25349 0.58723 0.09525 0.0
H481 H 0.31057 0.61198 0.19647 0.0
H482 H 0.23497 0.587 0.15641 0.0
H483 H 0.43044 0.63507 0.11404 0.0
H484 H 0.54471 0.5031 0.48383 0.0
H485 H 0.54397 0.52436 0.37683 0.0
H486 H 0.62844 0.61624 0.44328 0.0
H487 H 0.5161 0.48074 0.42612 0.0
C488 C 0.12795 0.99471 0.38275 0.0
C489 C 0.1251 0.95225 0.37076 0.0
H490 H 0.11049 0.0605 0.37286 0.0
C491 C 0.10595 0.94494 0.337 0.0
H492 H 0.14383 1.00209 0.40811 0.0
C493 C 0.08872 0.9789 0.31633 0.0
C494 C 0.08901 0.02081 0.32915 0.0
H495 H 0.10198 0.91286 0.32678 0.0
H496 H 0.07224 0.9721 0.29097 0.0
C497 C 0.10948 0.02839 0.36239 0.0
C498 C 0.39 0.57446 0.83911 0.0
C499 C 0.36299 0.56602 0.87058 0.0
H500 H 0.43216 0.5485 0.79502 0.0
C501 C 0.35199 0.52319 0.87939 0.0
H502 H 0.40011 0.60682 0.83147 0.0
C503 C 0.37174 0.48988 0.85874 0.0
C504 C 0.40168 0.49862 0.82848 0.0
H505 H 0.32975 0.51526 0.9028 0.0
H506 H 0.3657 0.45724 0.86707 0.0
C507 C 0.40849 0.54105 0.81809 0.0
C508 C 0.65775 0.53301 0.70154 0.0
C509 C 0.6285 0.57111 0.6943 0.0
H510 H 0.65455 0.47296 0.72724 0.0
C511 C 0.5739 0.57899 0.70961 0.0
H512 H 0.69945 0.52603 0.68954 0.0
C513 C 0.54774 0.54842 0.73066 0.0
C514 C 0.57607 0.50967 0.73708 0.0
H515 H 0.55014 0.60785 0.70388 0.0
H516 H 0.50458 0.55455 0.74116 0.0
C517 C 0.63205 0.50274 0.72306 0.0
C518 C 0.84884 0.02538 0.17372 0.0
C519 C 0.85171 0.98062 0.1768 0.0
H520 H 0.87866 0.08666 0.19217 0.0
C521 C 0.88439 0.96409 0.20422 0.0
H522 H 0.82282 0.03974 0.15387 0.0
C523 C 0.9147 0.99135 0.22692 0.0
C524 C 0.9143 0.03568 0.22231 0.0
H525 H 0.88883 0.93006 0.20755 0.0
H526 H 0.94055 0.97768 0.24721 0.0
C527 C 0.88049 0.05246 0.19583 0.0
C528 C 0.8733 0.01939 0.67619 0.0
C529 C 0.86069 0.06084 0.68759 0.0
H530 H 0.90992 0.95898 0.68739 0.0
C531 C 0.87328 0.07189 0.72165 0.0
H532 H 0.86227 1.00917 0.65057 0.0
C533 C 0.90045 0.04246 0.74329 0.0
C534 C 0.91534 1.00172 0.73107 0.0
H535 H 0.86353 0.10351 0.73123 0.0
H536 H 0.91141 0.05196 0.76909 0.0
C537 C 0.90036 0.99041 0.6975 0.0
C538 C 0.64166 0.51562 0.16846 0.0
C539 C 0.66106 0.47587 0.18 0.0
H540 H 0.59815 0.57386 0.1803 0.0
C541 C 0.65023 0.46481 0.21406 0.0
H542 H 0.6503 0.52576 0.14273 0.0
C543 C 0.62073 0.49285 0.23593 0.0
C544 C 0.6013 0.53246 0.22417 0.0
H545 H 0.66401 0.43427 0.22376 0.0
H546 H 0.61235 0.48322 0.26182 0.0
C547 C 0.61208 0.54342 0.19018 0.0
C548 C 0.42779 0.45848 0.35668 0.0
C549 C 0.36983 0.4657 0.36729 0.0
H550 H 0.50182 0.48165 0.32856 0.0
C551 C 0.3404 0.502 0.35576 0.0
H552 H 0.45142 0.43085 0.36554 0.0
C553 C 0.3698 0.5319 0.33545 0.0
C554 C 0.42888 0.52567 0.32606 0.0
H555 H 0.29593 0.50848 0.36411 0.0
H556 H 0.34714 0.56076 0.32849 0.0
C557 C 0.45673 0.48785 0.33588 0.0
C558 C 0.14584 0.06077 0.85085 0.0
C559 C 0.1617 0.04701 0.88362 0.0
H560 H 0.10123 0.04539 0.80391 0.0
C561 C 0.14605 1.00524 0.89308 0.0
H562 H 0.15678 0.09282 0.84271 0.0
C563 C 0.11471 0.97833 0.87089 0.0
C564 C 0.09846 0.99196 0.83829 0.0
H565 H 0.1586 0.99294 0.91764 0.0
H566 H 0.1033 0.94657 0.87944 0.0
C567 C 0.11433 0.03355 0.82848 0.0
C568 C 0.21438 0.04906 1.01744 0.0
C569 C 0.21205 0.09028 1.00374 0.0
H570 H 0.21673 1.01114 0.06256 0.0
C571 C 0.20682 0.12542 1.02596 0.0
H572 H 0.21903 0.02147 1.00093 0.0
C573 C 0.20435 0.11941 0.06119 0.0
C574 C 0.20869 0.07827 0.07485 0.0
H575 H 0.2051 0.15752 1.01604 0.0
H576 H 0.2009 0.14697 0.07783 0.0
C577 C 0.2134 0.04317 0.05263 0.0
C578 C 0.42672 0.43976 0.49653 0.0
C579 C 0.36672 0.42997 0.49041 0.0
H580 H 0.49311 0.45801 0.53308 0.0
C581 C 0.32785 0.43016 0.51824 0.0
H582 H 0.45842 0.43921 0.47609 0.0
C583 C 0.34826 0.43987 0.55103 0.0
C584 C 0.40777 0.45053 0.5568 0.0
H585 H 0.28116 0.42394 0.51474 0.0
H586 H 0.31711 0.44017 0.57179 0.0
C587 C 0.44682 0.45036 0.52924 0.0
C588 C 0.70469 0.45528 0.04414 0.0
C589 C 0.7023 0.41733 0.06283 0.0
H590 H 0.7072 0.48344 0.99462 0.0
C591 C 0.69531 0.37819 0.04544 0.0
H592 H 0.71077 0.48577 0.05695 0.0
C593 C 0.69218 0.37696 1.00992 0.0
C594 C 0.69741 0.41474 0.99124 0.0
H595 H 0.69366 0.34852 0.05933 0.0
H596 H 0.68822 0.34638 0.99698 0.0
C597 C 0.70295 0.45395 1.0086 0.0
C598 C 0.84585 0.06516 0.55553 0.0
C599 C 0.83471 0.1066 0.56773 0.0
H600 H 0.85806 0.02465 0.51214 0.0
C601 C 0.83211 0.14023 0.54433 0.0
H602 H 0.84741 0.03839 0.57272 0.0
C603 C 0.83844 0.13225 0.50943 0.0
C604 C 0.84662 0.09042 0.49729 0.0
H605 H 0.82388 0.17253 0.55295 0.0
H606 H 0.83412 0.15843 0.49185 0.0
C607 C 0.85154 0.05717 0.52078 0.0
C608 C 0.82775 0.9186 0.03033 0.0
C609 C 0.80465 0.9481 0.0537 0.0
H610 H 0.84543 0.90329 0.97848 0.0
C611 C 0.78366 0.98717 0.04159 0.0
H612 H 0.8451 0.88845 0.03885 0.0
C613 C 0.78426 0.99591 1.00669 0.0
C614 C 0.80649 0.96593 0.9833 0.0
H615 H 0.76561 1.0105 0.059 0.0
H616 H 0.76755 0.02617 0.99802 0.0
C617 C 0.82853 0.92732 0.99567 0.0
C618 C 0.58274 0.58115 0.56364 0.0
C619 C 0.63802 0.60016 0.57053 0.0
H620 H 0.52343 0.55512 0.52627 0.0
C621 C 0.67682 0.6073 0.54339 0.0
H622 H 0.55124 0.5764 0.58383 0.0
C623 C 0.66098 0.59498 0.51021 0.0
C624 C 0.60578 0.57551 0.50337 0.0
H625 H 0.71977 0.62183 0.54789 0.0
H626 H 0.69246 0.60007 0.49002 0.0
C627 C 0.5668 0.56903 0.53057 0.0
C628 C 0.38055 0.65379 1.01238 0.0
C629 C 0.35487 0.62246 0.9909 0.0
H630 H 0.39734 0.67476 0.06351 0.0
C631 C 0.33083 0.58544 1.00561 0.0
H632 H 0.4005 0.68234 1.00193 0.0
C633 C 0.32985 0.58084 0.04088 0.0
C634 C 0.35272 0.61316 0.06242 0.0
H635 H 0.3105 0.56071 0.98995 0.0
H636 H 0.30972 0.55234 0.05134 0.0
C637 C 0.3795 0.64919 0.04772 0.0
C638 C 0.06321 0.88994 0.49625 0.0
C639 C 0.12242 0.88488 0.48691 0.0
H640 H 0.99973 0.88735 0.53652 0.0
C641 C 0.16449 0.87673 0.5123 0.0
H642 H 0.02987 0.89577 0.47712 0.0
C643 C 0.14746 0.87279 0.5463 0.0
C644 C 0.08785 0.87587 0.55538 0.0
H645 H 0.21037 0.87252 0.50568 0.0
H646 H 0.18044 0.86545 0.56528 0.0
C647 C 0.04598 0.88497 0.53012 0.0
C648 C 0.16326 0.24616 0.3563 0.0
C649 C 0.12802 0.28246 0.36069 0.0
H650 H 0.16799 0.18187 0.33668 0.0
C651 C 0.07279 0.28336 0.34436 0.0
H652 H 0.20596 0.24446 0.36859 0.0
C653 C 0.05093 0.24767 0.32681 0.0
C654 C 0.08394 0.21021 0.32452 0.0
H655 H 0.04501 0.31111 0.34665 0.0
H656 H 0.00713 0.24899 0.31592 0.0
C657 C 0.1414 0.21028 0.33821 0.0
C658 C 0.38923 0.27621 0.87625 0.0
C659 C 0.40082 0.23675 0.86061 0.0
H660 H 0.39705 0.34455 0.87304 0.0
C661 C 0.42625 0.23613 0.82821 0.0
H662 H 0.3704 0.27738 0.90146 0.0
C663 C 0.44118 0.2742 0.81202 0.0
C664 C 0.43168 0.31374 0.82805 0.0
H665 H 0.43621 0.20605 0.81585 0.0
H666 H 0.46252 0.27256 0.78753 0.0
C667 C 0.40503 0.31447 0.8602 0.0
C668 C 0.613 0.2869 0.68546 0.0
C669 C 0.62683 0.24957 0.70293 0.0
H670 H 0.58399 0.35129 0.6888 0.0
C671 C 0.62605 0.24972 0.73854 0.0
H672 H 0.61306 0.28724 0.65795 0.0
C673 C 0.60871 0.28635 0.75642 0.0
C674 C 0.59185 0.32317 0.73881 0.0
H675 H 0.63598 0.22095 0.75239 0.0
H676 H 0.60577 0.28509 0.78382 0.0
C677 C 0.59609 0.32341 0.70319 0.0
C678 C 0.89889 0.28455 0.23932 0.0
C679 C 0.89509 0.28628 0.20385 0.0
H680 H 0.91865 0.24634 0.28257 0.0
C681 C 0.90321 0.2491 0.18451 0.0
H682 H 0.89293 0.31311 0.25457 0.0
C683 C 0.9184 0.21105 0.20038 0.0
C684 C 0.92627 0.20984 0.23579 0.0
H685 H 0.90066 0.25003 0.15706 0.0
H686 H 0.92688 0.18314 0.1848 0.0
C687 C 0.91381 0.24645 0.25523 0.0
C688 C 0.84976 0.82298 0.67844 0.0
C689 C 0.81751 0.78883 0.69264 0.0
H690 H 0.91573 0.87183 0.6862 0.0
C691 C 0.83369 0.77442 0.72505 0.0
H692 H 0.8389 0.83459 0.65339 0.0
C693 C 0.87862 0.79551 0.74359 0.0
C694 C 0.90813 0.83111 0.72997 0.0
H695 H 0.80955 0.74846 0.7368 0.0
H696 H 0.8888 0.78502 0.76901 0.0
C697 C 0.89418 0.84407 0.69701 0.0
C698 C 0.63432 0.76174 0.19105 0.0
C699 C 0.69417 0.75074 0.18847 0.0
H700 H 0.54936 0.74558 0.21199 0.0
C701 C 0.71457 0.71577 0.20692 0.0
H702 H 0.61728 0.7884 0.17689 0.0
C703 C 0.67601 0.69091 0.22584 0.0
C704 C 0.61588 0.70089 0.22809 0.0
H705 H 0.76046 0.70665 0.20586 0.0
H706 H 0.69361 0.66299 0.23799 0.0
C707 C 0.59538 0.73695 0.21076 0.0
C708 C 0.34987 0.75509 0.33476 0.0
C709 C 0.31421 0.7315 0.35707 0.0
H710 H 0.42635 0.75492 0.30274 0.0
C711 C 0.33326 0.6912 0.36772 0.0
H712 H 0.33619 0.78615 0.32607 0.0
C713 C 0.38464 0.67354 0.35457 0.0
C714 C 0.41771 0.69565 0.33022 0.0
H715 H 0.30703 0.67253 0.38522 0.0
H716 H 0.39635 0.64146 0.36185 0.0
C717 C 0.40123 0.73722 0.32137 0.0
C718 C 0.1744 0.8247 0.87141 0.0
C719 C 0.20066 0.78947 0.85569 0.0
H720 H 0.10781 0.87179 0.86913 0.0
C721 C 0.17431 0.77155 0.82642 0.0
H722 H 0.19336 0.83864 0.89432 0.0
C723 C 0.12499 0.79087 0.81167 0.0
C724 C 0.10163 0.82821 0.8261 0.0
H725 H 0.19374 0.7442 0.81397 0.0
H726 H 0.10705 0.77796 0.78815 0.0
C727 C 0.12519 0.84358 0.85698 0.0
loop_
_geom_bond_atom_site_label_1
_geom_bond_atom_site_label_2
_geom_bond_distance
_geom_bond_site_symmetry_2
_ccdc_geom_bond_type
H0 C1 0.949 . S
C1 H0 0.949 . S
C1 C2 1.395 . S
C1 C3 1.391 . S
C2 C1 1.395 . S
C2 C5 1.390 . S
C3 C1 1.391 . S
C3 C7 1.387 . S
C3 C8 1.491 . S
H4 C5 0.950 . S
C5 C2 1.390 . S
C5 H4 0.950 . S
C5 C6 1.378 . S
C6 C5 1.378 . S
C6 C7 1.409 . S
C7 C3 1.387 . S
C7 C6 1.409 . S
C7 H9 0.951 . S
C8 C3 1.491 . S
C8 C10 1.382 . S
C8 C12 1.404 . S
H9 C7 0.951 . S
C10 C8 1.382 . S
C10 C11 1.390 . S
C10 H15 0.949 . S
C11 C10 1.390 . S
C11 C16 1.399 . S
C12 C8 1.404 . S
C12 H13 0.950 . S
C12 C14 1.375 . S
H13 C12 0.950 . S
C14 C12 1.375 . S
C14 C16 1.382 . S
C14 H18 0.950 . S
H15 C10 0.949 . S
C16 C11 1.399 . S
C16 C14 1.382 . S
C16 H17 0.952 . S
H17 C16 0.952 . S
H18 C14 0.950 . S
H19 C20 0.949 . S
C20 H19 0.949 . S
C20 C21 1.395 . S
C20 C22 1.391 . S
C21 C20 1.395 . S
C21 C24 1.390 . S
C22 C20 1.391 . S
C22 C26 1.387 . S
C22 C27 1.491 . S
H23 C24 0.950 . S
C24 C21 1.390 . S
C24 H23 0.950 . S
C24 C25 1.378 . S
C25 C24 1.378 . S
C25 C26 1.409 . S
C26 C22 1.387 . S
C26 C25 1.409 . S
C26 H28 0.951 . S
C27 C22 1.491 . S
C27 C29 1.382 . S
C27 C31 1.404 . S
H28 C26 0.951 . S
C29 C27 1.382 . S
C29 C30 1.390 . S
C29 H34 0.949 . S
C30 C29 1.390 . S
C30 C35 1.399 . S
C31 C27 1.404 . S
C31 H32 0.950 . S
C31 C33 1.375 . S
H32 C31 0.950 . S
C33 C31 1.375 . S
C33 C35 1.382 . S
C33 H37 0.950 . S
H34 C29 0.949 . S
C35 C30 1.399 . S
C35 C33 1.382 . S
C35 H36 0.952 . S
H36 C35 0.952 . S
H37 C33 0.950 . S
H38 C39 0.949 . S
C39 H38 0.949 . S
C39 C40 1.395 . S
C39 C41 1.391 . S
C40 C39 1.395 . S
C40 C43 1.390 . S
C41 C39 1.391 . S
C41 C45 1.387 . S
C41 C46 1.491 . S
H42 C43 0.950 . S
C43 C40 1.390 . S
C43 H42 0.950 . S
C43 C44 1.378 . S
C44 C43 1.378 . S
C44 C45 1.409 . S
C45 C41 1.387 . S
C45 C44 1.409 . S
C45 H47 0.951 . S
C46 C41 1.491 . S
C46 C48 1.382 . S
C46 C50 1.404 . S
H47 C45 0.951 . S
C48 C46 1.382 . S
C48 C49 1.390 . S
C48 H53 0.949 . S
C49 C48 1.390 . S
C49 C54 1.399 . S
C50 C46 1.404 . S
C50 H51 0.950 . S
C50 C52 1.375 . S
H51 C50 0.950 . S
C52 C50 1.375 . S
C52 C54 1.382 . S
C52 H56 0.950 . S
H53 C48 0.949 . S
C54 C49 1.399 . S
C54 C52 1.382 . S
C54 H55 0.952 . S
H55 C54 0.952 . S
H56 C52 0.950 . S
H57 C58 0.949 . S
C58 H57 0.949 . S
C58 C59 1.395 . S
C58 C60 1.391 . S
C59 C58 1.395 . S
C59 C62 1.390 . S
C60 C58 1.391 . S
C60 C64 1.387 . S
C60 C65 1.491 . S
H61 C62 0.950 . S
C62 C59 1.390 . S
C62 H61 0.950 . S
C62 C63 1.378 . S
C63 C62 1.378 . S
C63 C64 1.409 . S
C64 C60 1.387 . S
C64 C63 1.409 . S
C64 H66 0.951 . S
C65 C60 1.491 . S
C65 C67 1.382 . S
C65 C69 1.404 . S
H66 C64 0.951 . S
C67 C65 1.382 . S
C67 C68 1.390 . S
C67 H72 0.949 . S
C68 C67 1.390 . S
C68 C73 1.399 . S
C69 C65 1.404 . S
C69 H70 0.950 . S
C69 C71 1.375 . S
H70 C69 0.950 . S
C71 C69 1.375 . S
C71 C73 1.382 . S
C71 H75 0.950 . S
H72 C67 0.949 . S
C73 C68 1.399 . S
C73 C71 1.382 . S
C73 H74 0.952 . S
H74 C73 0.952 . S
H75 C71 0.950 . S
H76 C77 0.949 . S
C77 H76 0.949 . S
C77 C78 1.395 . S
C77 C79 1.391 . S
C78 C77 1.395 . S
C78 C81 1.390 . S
C79 C77 1.391 . S
C79 C83 1.387 . S
C79 C84 1.491 . S
H80 C81 0.950 . S
C81 C78 1.390 . S
C81 H80 0.950 . S
C81 C82 1.378 . S
C82 C81 1.378 . S
C82 C83 1.409 . S
C83 C79 1.387 . S
C83 C82 1.409 . S
C83 H85 0.951 . S
C84 C79 1.491 . S
C84 C86 1.382 . S
C84 C88 1.404 . S
H85 C83 0.951 . S
C86 C84 1.382 . S
C86 C87 1.390 . S
C86 H91 0.949 . S
C87 C86 1.390 . S
C87 C92 1.399 . S
C88 C84 1.404 . S
C88 H89 0.950 . S
C88 C90 1.375 . S
H89 C88 0.950 . S
C90 C88 1.375 . S
C90 C92 1.382 . S
C90 H94 0.950 . S
H91 C86 0.949 . S
C92 C87 1.399 . S
C92 C90 1.382 . S
C92 H93 0.952 . S
H93 C92 0.952 . S
H94 C90 0.950 . S
H95 C96 0.949 . S
C96 H95 0.949 . S
C96 C97 1.395 . S
C96 C98 1.391 . S
C97 C96 1.395 . S
C97 C100 1.390 . S
C98 C96 1.391 . S
C98 C102 1.387 . S
C98 C103 1.491 . S
H99 C100 0.950 . S
C100 C97 1.390 . S
C100 H99 0.950 . S
C100 C101 1.378 . S
C101 C100 1.378 . S
C101 C102 1.409 . S
C102 C98 1.387 . S
C102 C101 1.409 . S
C102 H104 0.951 . S
C103 C98 1.491 . S
C103 C105 1.382 . S
C103 C107 1.404 . S
H104 C102 0.951 . S
C105 C103 1.382 . S
C105 C106 1.390 . S
C105 H110 0.949 . S
C106 C105 1.390 . S
C106 C111 1.399 . S
C107 C103 1.404 . S
C107 H108 0.950 . S
C107 C109 1.375 . S
H108 C107 0.950 . S
C109 C107 1.375 . S
C109 C111 1.382 . S
C109 H113 0.950 . S
H110 C105 0.949 . S
C111 C106 1.399 . S
C111 C109 1.382 . S
C111 H112 0.952 . S
H112 C111 0.952 . S
H113 C109 0.950 . S
H114 C115 0.949 . S
C115 H114 0.949 . S
C115 C116 1.395 . S
C115 C117 1.391 . S
C116 C115 1.395 . S
C116 C119 1.390 . S
C117 C115 1.391 . S
C117 C121 1.387 . S
C117 C122 1.491 . S
H118 C119 0.950 . S
C119 C116 1.390 . S
C119 H118 0.950 . S
C119 C120 1.378 . S
C120 C119 1.378 . S
C120 C121 1.409 . S
C121 C117 1.387 . S
C121 C120 1.409 . S
C121 H123 0.951 . S
C122 C117 1.491 . S
C122 C124 1.382 . S
C122 C126 1.404 . S
H123 C121 0.951 . S
C124 C122 1.382 . S
C124 C125 1.390 . S
C124 H129 0.949 . S
C125 C124 1.390 . S
C125 C130 1.399 . S
C126 C122 1.404 . S
C126 H127 0.950 . S
C126 C128 1.375 . S
H127 C126 0.950 . S
C128 C126 1.375 . S
C128 C130 1.382 . S
C128 H132 0.950 . S
H129 C124 0.949 . S
C130 C125 1.399 . S
C130 C128 1.382 . S
C130 H131 0.952 . S
H131 C130 0.952 . S
H132 C128 0.950 . S
H133 C134 0.949 . S
C134 H133 0.949 . S
C134 C135 1.395 . S
C134 C136 1.391 . S
C135 C134 1.395 . S
C135 C138 1.390 . S
C136 C134 1.391 . S
C136 C140 1.387 . S
C136 C141 1.491 . S
H137 C138 0.950 . S
C138 C135 1.390 . S
C138 H137 0.950 . S
C138 C139 1.378 . S
C139 C138 1.378 . S
C139 C140 1.409 . S
C140 C136 1.387 . S
C140 C139 1.409 . S
C140 H142 0.951 . S
C141 C136 1.491 . S
C141 C143 1.382 . S
C141 C145 1.404 . S
H142 C140 0.951 . S
C143 C141 1.382 . S
C143 C144 1.390 . S
C143 H148 0.949 . S
C144 C143 1.390 . S
C144 C149 1.399 . S
C145 C141 1.404 . S
C145 H146 0.950 . S
C145 C147 1.375 . S
H146 C145 0.950 . S
C147 C145 1.375 . S
C147 C149 1.382 . S
C147 H151 0.950 . S
H148 C143 0.949 . S
C149 C144 1.399 . S
C149 C147 1.382 . S
C149 H150 0.952 . S
H150 C149 0.952 . S
H151 C147 0.950 . S
Tb152 N181 2.617 . S
Tb152 N187 2.572 . S
Tb152 O196 2.465 . S
Tb152 O197 2.387 . S
Tb152 O199 2.428 . S
Tb152 O200 2.308 1_455 S
Tb152 O204 2.349 1_455 S
Tb152 O207 2.393 . S
Tb152 C216 2.802 . S
C153 N154 1.379 . S
C153 C156 1.416 . S
C153 C160 1.424 . S
N154 C153 1.379 . S
N154 C157 1.334 . S
N154 Tb163 2.617 . S
C155 C157 1.390 . S
C155 C158 1.339 . S
C155 H175 0.930 . S
C156 C153 1.416 . S
C156 C158 1.416 . S
C156 C162 1.448 . S
C157 N154 1.334 . S
C157 C155 1.390 . S
C157 H168 0.930 . S
C158 C155 1.339 . S
C158 C156 1.416 . S
C158 H179 0.930 . S
C159 C160 1.413 1_565 S
C159 C161 1.427 . S
C159 C165 1.416 . S
C160 C153 1.424 . S
C160 C159 1.413 1_545 S
C160 N164 1.361 . S
C161 C159 1.427 . S
C161 C162 1.328 1_565 S
C161 H176 0.929 . S
C162 C156 1.448 . S
C162 C161 1.328 1_545 S
C162 H177 0.930 . S
Tb163 N154 2.617 . S
Tb163 N164 2.572 . S
Tb163 O198 2.349 1_655 S
Tb163 O201 2.393 . S
Tb163 O202 2.465 . S
Tb163 O203 2.387 . S
Tb163 O205 2.428 . S
Tb163 O206 2.308 1_655 S
Tb163 C227 2.802 . S
N164 C160 1.361 . S
N164 Tb163 2.572 . S
N164 C166 1.340 1_545 S
C165 C159 1.416 . S
C165 C167 1.332 . S
C165 H173 0.931 . S
C166 N164 1.340 1_565 S
C166 C167 1.407 . S
C166 H172 0.930 . S
C167 C165 1.332 . S
C167 C166 1.407 . S
C167 H169 0.929 . S
H168 C157 0.930 . S
H169 C167 0.929 . S
H170 C185 0.930 . S
H171 C192 0.929 . S
H172 C166 0.930 . S
H173 C165 0.931 . S
H174 C188 0.930 . S
H175 C155 0.930 . S
H176 C161 0.929 . S
H177 C162 0.930 . S
H178 C183 0.930 . S
H179 C158 0.930 . S
H180 C191 0.931 . S
N181 Tb152 2.617 . S
N181 C182 1.379 . S
N181 C185 1.334 . S
C182 N181 1.379 . S
C182 C184 1.416 . S
C182 C190 1.424 . S
C183 H178 0.930 . S
C183 C185 1.390 . S
C183 C186 1.339 . S
C184 C182 1.416 . S
C184 C186 1.416 . S
C184 C217 1.448 . S
C185 H170 0.930 . S
C185 N181 1.334 . S
C185 C183 1.390 . S
C186 C183 1.339 . S
C186 C184 1.416 . S
C186 H193 0.930 . S
N187 Tb152 2.572 . S
N187 C188 1.340 . S
N187 C190 1.361 . S
C188 H174 0.930 . S
C188 N187 1.340 . S
C188 C192 1.407 . S
C189 C190 1.413 . S
C189 C191 1.416 . S
C189 C218 1.427 . S
C190 C182 1.424 . S
C190 N187 1.361 . S
C190 C189 1.413 . S
C191 H180 0.931 . S
C191 C189 1.416 . S
C191 C192 1.332 . S
C192 H171 0.929 . S
C192 C188 1.407 . S
C192 C191 1.332 . S
H193 C186 0.930 . S
H194 C217 0.930 . S
H195 C218 0.929 . S
O196 Tb152 2.465 . S
O196 C216 1.264 . S
O197 Tb152 2.387 . S
O197 C208 1.264 . S
O198 Tb163 2.349 1_455 S
O198 C208 1.243 . S
O199 Tb152 2.428 . S
O199 C216 1.256 . S
O200 Tb152 2.308 1_655 S
O200 C215 1.266 . S
O201 Tb163 2.393 . S
O201 C215 1.248 . S
O202 Tb163 2.465 . S
O202 C227 1.264 . S
O203 Tb163 2.387 . S
O203 C219 1.264 . S
O204 Tb152 2.349 1_655 S
O204 C219 1.243 . S
O205 Tb163 2.428 . S
O205 C227 1.256 . S
O206 Tb163 2.308 1_455 S
O206 C226 1.266 . S
O207 Tb152 2.393 . S
O207 C226 1.248 . S
C208 O197 1.264 . S
C208 O198 1.243 . S
C209 C212 1.399 . S
C209 C214 1.383 . S
C209 C216 1.496 . S
C210 C211 1.399 . S
C210 C214 1.389 . S
C211 C210 1.399 . S
C211 C213 1.380 . S
C211 H228 0.929 . S
C212 C209 1.399 . S
C212 C213 1.392 . S
C212 H229 0.929 . S
C213 C211 1.380 . S
C213 C212 1.392 . S
C213 H230 0.929 1_545 S
C214 C209 1.383 . S
C214 C210 1.389 . S
C214 H231 0.931 . S
C215 O200 1.266 . S
C215 O201 1.248 . S
C216 Tb152 2.802 . S
C216 O196 1.264 . S
C216 O199 1.256 . S
C216 C209 1.496 . S
C217 C184 1.448 . S
C217 H194 0.930 . S
C217 C218 1.328 . S
C218 C189 1.427 . S
C218 H195 0.929 . S
C218 C217 1.328 . S
C219 O203 1.264 . S
C219 O204 1.243 . S
C220 C223 1.399 . S
C220 C224 1.383 . S
C220 C227 1.496 . S
C221 C222 1.399 . S
C221 C224 1.389 . S
C222 C221 1.399 . S
C222 C225 1.380 . S
C222 H232 0.929 . S
C223 C220 1.399 . S
C223 C225 1.392 . S
C223 H233 0.929 . S
C224 C220 1.383 . S
C224 C221 1.389 . S
C224 H234 0.931 . S
C225 C222 1.380 . S
C225 C223 1.392 . S
C225 H235 0.929 . S
C226 O206 1.266 . S
C226 O207 1.248 . S
C227 Tb163 2.802 . S
C227 O202 1.264 . S
C227 O205 1.256 . S
C227 C220 1.496 . S
H228 C211 0.929 . S
H229 C212 0.929 . S
H230 C213 0.929 1_565 S
H231 C214 0.931 . S
H232 C222 0.929 . S
H233 C223 0.929 . S
H234 C224 0.931 . S
H235 C225 0.929 . S
Tb236 N265 2.617 . S
Tb236 N271 2.572 . S
Tb236 O280 2.465 . S
Tb236 O281 2.387 . S
Tb236 O283 2.428 . S
Tb236 O284 2.308 . S
Tb236 O288 2.349 . S
Tb236 O291 2.393 . S
Tb236 C300 2.802 . S
C237 N238 1.379 . S
C237 C240 1.416 . S
C237 C244 1.424 . S
N238 C237 1.379 . S
N238 C241 1.334 . S
N238 Tb247 2.617 . S
C239 C241 1.390 . S
C239 C242 1.339 . S
C239 H259 0.930 . S
C240 C237 1.416 . S
C240 C242 1.416 . S
C240 C246 1.448 . S
C241 N238 1.334 . S
C241 C239 1.390 . S
C241 H252 0.930 . S
C242 C239 1.339 . S
C242 C240 1.416 . S
C242 H263 0.930 . S
C243 C244 1.413 . S
C243 C245 1.427 . S
C243 C249 1.416 . S
C244 C237 1.424 . S
C244 C243 1.413 . S
C244 N248 1.361 . S
C245 C243 1.427 . S
C245 C246 1.328 . S
C245 H260 0.929 . S
C246 C240 1.448 . S
C246 C245 1.328 . S
C246 H261 0.930 . S
Tb247 N238 2.617 . S
Tb247 N248 2.572 . S
Tb247 O282 2.349 . S
Tb247 O285 2.393 . S
Tb247 O286 2.465 . S
Tb247 O287 2.387 . S
Tb247 O289 2.428 . S
Tb247 O290 2.308 . S
Tb247 C311 2.802 . S
N248 C244 1.361 . S
N248 Tb247 2.572 . S
N248 C250 1.340 . S
C249 C243 1.416 . S
C249 C251 1.332 . S
C249 H257 0.931 . S
C250 N248 1.340 . S
C250 C251 1.407 . S
C250 H256 0.930 . S
C251 C249 1.332 . S
C251 C250 1.407 . S
C251 H253 0.929 . S
H252 C241 0.930 . S
H253 C251 0.929 . S
H254 C269 0.930 . S
H255 C276 0.929 . S
H256 C250 0.930 . S
H257 C249 0.931 . S
H258 C272 0.930 . S
H259 C239 0.930 . S
H260 C245 0.929 . S
H261 C246 0.930 . S
H262 C267 0.930 . S
H263 C242 0.930 . S
H264 C275 0.931 . S
N265 Tb236 2.617 . S
N265 C266 1.379 . S
N265 C269 1.334 . S
C266 N265 1.379 . S
C266 C268 1.416 . S
C266 C274 1.424 . S
C267 H262 0.930 . S
C267 C269 1.390 . S
C267 C270 1.339 . S
C268 C266 1.416 . S
C268 C270 1.416 . S
C268 C301 1.448 . S
C269 H254 0.930 . S
C269 N265 1.334 . S
C269 C267 1.390 . S
C270 C267 1.339 . S
C270 C268 1.416 . S
C270 H277 0.930 . S
N271 Tb236 2.572 . S
N271 C272 1.340 . S
N271 C274 1.361 . S
C272 H258 0.930 . S
C272 N271 1.340 . S
C272 C276 1.407 . S
C273 C274 1.413 . S
C273 C275 1.416 . S
C273 C302 1.427 . S
C274 C266 1.424 . S
C274 N271 1.361 . S
C274 C273 1.413 . S
C275 H264 0.931 . S
C275 C273 1.416 . S
C275 C276 1.332 . S
C276 H255 0.929 . S
C276 C272 1.407 . S
C276 C275 1.332 . S
H277 C270 0.930 . S
H278 C301 0.930 . S
H279 C302 0.929 . S
O280 Tb236 2.465 . S
O280 C300 1.264 . S
O281 Tb236 2.387 . S
O281 C292 1.264 . S
O282 Tb247 2.349 . S
O282 C292 1.243 . S
O283 Tb236 2.428 . S
O283 C300 1.256 . S
O284 Tb236 2.308 . S
O284 C299 1.266 . S
O285 Tb247 2.393 . S
O285 C299 1.248 . S
O286 Tb247 2.465 . S
O286 C311 1.264 . S
O287 Tb247 2.387 . S
O287 C303 1.264 . S
O288 Tb236 2.349 . S
O288 C303 1.243 . S
O289 Tb247 2.428 . S
O289 C311 1.256 . S
O290 Tb247 2.308 . S
O290 C310 1.266 . S
O291 Tb236 2.393 . S
O291 C310 1.248 . S
C292 O281 1.264 . S
C292 O282 1.243 . S
C293 C296 1.399 . S
C293 C298 1.383 . S
C293 C300 1.496 . S
C294 C295 1.399 . S
C294 C298 1.389 . S
C295 C294 1.399 . S
C295 C297 1.380 . S
C295 H312 0.929 . S
C296 C293 1.399 . S
C296 C297 1.392 . S
C296 H313 0.929 . S
C297 C295 1.380 . S
C297 C296 1.392 . S
C297 H314 0.929 . S
C298 C293 1.383 . S
C298 C294 1.389 . S
C298 H315 0.931 . S
C299 O284 1.266 . S
C299 O285 1.248 . S
C300 Tb236 2.802 . S
C300 O280 1.264 . S
C300 O283 1.256 . S
C300 C293 1.496 . S
C301 C268 1.448 . S
C301 H278 0.930 . S
C301 C302 1.328 . S
C302 C273 1.427 . S
C302 H279 0.929 . S
C302 C301 1.328 . S
C303 O287 1.264 . S
C303 O288 1.243 . S
C304 C307 1.399 . S
C304 C308 1.383 . S
C304 C311 1.496 . S
C305 C306 1.399 . S
C305 C308 1.389 . S
C306 C305 1.399 . S
C306 C309 1.380 . S
C306 H316 0.929 . S
C307 C304 1.399 . S
C307 C309 1.392 . S
C307 H317 0.929 . S
C308 C304 1.383 . S
C308 C305 1.389 . S
C308 H318 0.931 . S
C309 C306 1.380 . S
C309 C307 1.392 . S
C309 H319 0.929 . S
C310 O290 1.266 . S
C310 O291 1.248 . S
C311 Tb247 2.802 . S
C311 O286 1.264 . S
C311 O289 1.256 . S
C311 C304 1.496 . S
H312 C295 0.929 . S
H313 C296 0.929 . S
H314 C297 0.929 . S
H315 C298 0.931 . S
H316 C306 0.929 . S
H317 C307 0.929 . S
H318 C308 0.931 . S
H319 C309 0.929 . S
Tb320 N349 2.617 . S
Tb320 N355 2.572 . S
Tb320 O364 2.465 . S
Tb320 O365 2.387 . S
Tb320 O367 2.428 . S
Tb320 O368 2.294 1_455 S
Tb320 O372 2.347 1_455 S
Tb320 O375 2.393 . S
Tb320 C384 2.802 . S
C321 N322 1.379 . S
C321 C324 1.416 . S
C321 C328 1.424 . S
N322 C321 1.379 . S
N322 C325 1.334 . S
N322 Tb331 2.617 . S
C323 C325 1.390 . S
C323 C326 1.339 . S
C323 H343 0.930 . S
C324 C321 1.416 . S
C324 C326 1.416 . S
C324 C330 1.448 . S
C325 N322 1.334 . S
C325 C323 1.390 . S
C325 H336 0.930 . S
C326 C323 1.339 . S
C326 C324 1.416 . S
C326 H347 0.930 . S
C327 C328 1.413 . S
C327 C329 1.427 . S
C327 C333 1.416 . S
C328 C321 1.424 . S
C328 C327 1.413 . S
C328 N332 1.361 . S
C329 C327 1.427 . S
C329 C330 1.328 . S
C329 H344 0.929 . S
C330 C324 1.448 . S
C330 C329 1.328 . S
C330 H345 0.930 . S
Tb331 N322 2.617 . S
Tb331 N332 2.572 . S
Tb331 O366 2.349 1_655 S
Tb331 O369 2.393 . S
Tb331 O370 2.465 . S
Tb331 O371 2.387 . S
Tb331 O373 2.428 . S
Tb331 O374 2.308 1_655 S
Tb331 C395 2.802 . S
N332 C328 1.361 . S
N332 Tb331 2.572 . S
N332 C334 1.340 . S
C333 C327 1.416 . S
C333 C335 1.332 . S
C333 H341 0.931 . S
C334 N332 1.340 . S
C334 C335 1.407 . S
C334 H340 0.930 . S
C335 C333 1.332 . S
C335 C334 1.407 . S
C335 H337 0.929 . S
H336 C325 0.930 . S
H337 C335 0.929 . S
H338 C353 0.930 . S
H339 C360 0.929 . S
H340 C334 0.930 . S
H341 C333 0.931 . S
H342 C356 0.930 . S
H343 C323 0.930 . S
H344 C329 0.929 . S
H345 C330 0.930 . S
H346 C351 0.930 . S
H347 C326 0.930 . S
H348 C359 0.931 . S
N349 Tb320 2.617 . S
N349 C350 1.379 . S
N349 C353 1.334 . S
C350 N349 1.379 . S
C350 C352 1.416 . S
C350 C358 1.424 . S
C351 H346 0.930 . S
C351 C353 1.390 . S
C351 C354 1.339 . S
C352 C350 1.416 . S
C352 C354 1.416 . S
C352 C385 1.448 . S
C353 H338 0.930 . S
C353 N349 1.334 . S
C353 C351 1.390 . S
C354 C351 1.339 . S
C354 C352 1.416 . S
C354 H361 0.930 . S
N355 Tb320 2.572 . S
N355 C356 1.340 1_565 S
N355 C358 1.361 . S
C356 H342 0.930 . S
C356 N355 1.340 1_545 S
C356 C360 1.407 . S
C357 C358 1.413 1_545 S
C357 C359 1.416 . S
C357 C386 1.427 . S
C358 C350 1.424 . S
C358 N355 1.361 . S
C358 C357 1.413 1_565 S
C359 H348 0.931 . S
C359 C357 1.416 . S
C359 C360 1.332 . S
C360 H339 0.929 . S
C360 C356 1.407 . S
C360 C359 1.332 . S
H361 C354 0.930 . S
H362 C385 0.930 . S
H363 C386 0.929 . S
O364 Tb320 2.465 . S
O364 C384 1.264 . S
O365 Tb320 2.387 . S
O365 C376 1.264 . S
O366 Tb331 2.349 1_455 S
O366 C376 1.243 . S
O367 Tb320 2.428 . S
O367 C384 1.256 . S
O368 Tb320 2.294 1_655 S
O368 C383 1.283 . S
O369 Tb331 2.393 . S
O369 C383 1.248 . S
O370 Tb331 2.465 . S
O370 C395 1.264 . S
O371 Tb331 2.387 . S
O371 C387 1.264 . S
O372 Tb320 2.347 1_655 S
O372 C387 1.246 . S
O373 Tb331 2.428 . S
O373 C395 1.256 . S
O374 Tb331 2.308 1_455 S
O374 C394 1.266 . S
O375 Tb320 2.393 . S
O375 C394 1.248 . S
C376 O365 1.264 . S
C376 O366 1.243 . S
C377 C380 1.399 . S
C377 C382 1.383 . S
C377 C384 1.496 . S
C378 C379 1.399 . S
C378 C382 1.389 . S
C379 C378 1.399 . S
C379 C381 1.380 . S
C379 H396 0.929 . S
C380 C377 1.399 . S
C380 C381 1.392 . S
C380 H397 0.929 . S
C381 C379 1.380 . S
C381 C380 1.392 . S
C381 H398 0.929 . S
C382 C377 1.383 . S
C382 C378 1.389 . S
C382 H399 0.931 . S
C383 O368 1.283 . S
C383 O369 1.248 . S
C384 Tb320 2.802 . S
C384 O364 1.264 . S
C384 O367 1.256 . S
C384 C377 1.496 . S
C385 C352 1.448 . S
C385 H362 0.930 . S
C385 C386 1.328 1_565 S
C386 C357 1.427 . S
C386 H363 0.929 . S
C386 C385 1.328 1_545 S
C387 O371 1.264 . S
C387 O372 1.246 . S
C388 C391 1.399 . S
C388 C392 1.383 . S
C388 C395 1.496 . S
C389 C390 1.399 . S
C389 C392 1.389 . S
C390 C389 1.399 . S
C390 C393 1.380 . S
C390 H400 0.929 . S
C391 C388 1.399 . S
C391 C393 1.392 . S
C391 H401 0.929 . S
C392 C388 1.383 . S
C392 C389 1.389 . S
C392 H402 0.931 . S
C393 C390 1.380 . S
C393 C391 1.392 . S
C393 H403 0.929 1_565 S
C394 O374 1.266 . S
C394 O375 1.248 . S
C395 Tb331 2.802 . S
C395 O370 1.264 . S
C395 O373 1.256 . S
C395 C388 1.496 . S
H396 C379 0.929 . S
H397 C380 0.929 . S
H398 C381 0.929 . S
H399 C382 0.931 . S
H400 C390 0.929 . S
H401 C391 0.929 . S
H402 C392 0.931 . S
H403 C393 0.929 1_545 S
Tb404 N433 2.617 . S
Tb404 N439 2.572 . S
Tb404 O448 2.465 . S
Tb404 O449 2.387 . S
Tb404 O451 2.428 . S
Tb404 O452 2.308 . S
Tb404 O456 2.349 . S
Tb404 O459 2.393 . S
Tb404 C468 2.802 . S
C405 N406 1.379 . S
C405 C408 1.416 . S
C405 C412 1.424 . S
N406 C405 1.379 . S
N406 C409 1.334 . S
N406 Tb415 2.617 . S
C407 C409 1.390 . S
C407 C410 1.339 . S
C407 H427 0.930 . S
C408 C405 1.416 . S
C408 C410 1.416 . S
C408 C414 1.448 . S
C409 N406 1.334 . S
C409 C407 1.390 . S
C409 H420 0.930 . S
C410 C407 1.339 . S
C410 C408 1.416 . S
C410 H431 0.930 . S
C411 C412 1.413 . S
C411 C413 1.427 . S
C411 C417 1.416 . S
C412 C405 1.424 . S
C412 C411 1.413 . S
C412 N416 1.361 . S
C413 C411 1.427 . S
C413 C414 1.328 . S
C413 H428 0.929 . S
C414 C408 1.448 . S
C414 C413 1.328 . S
C414 H429 0.930 . S
Tb415 N406 2.617 . S
Tb415 N416 2.572 . S
Tb415 O450 2.349 . S
Tb415 O453 2.393 . S
Tb415 O454 2.465 . S
Tb415 O455 2.387 . S
Tb415 O457 2.428 . S
Tb415 O458 2.308 . S
Tb415 C479 2.802 . S
N416 C412 1.361 . S
N416 Tb415 2.572 . S
N416 C418 1.340 . S
C417 C411 1.416 . S
C417 C419 1.332 . S
C417 H425 0.931 . S
C418 N416 1.340 . S
C418 C419 1.407 . S
C418 H424 0.930 . S
C419 C417 1.332 . S
C419 C418 1.407 . S
C419 H421 0.929 . S
H420 C409 0.930 . S
H421 C419 0.929 . S
H422 C437 0.930 . S
H423 C444 0.929 . S
H424 C418 0.930 . S
H425 C417 0.931 . S
H426 C440 0.930 . S
H427 C407 0.930 . S
H428 C413 0.929 . S
H429 C414 0.930 . S
H430 C435 0.930 . S
H431 C410 0.930 . S
H432 C443 0.931 . S
N433 Tb404 2.617 . S
N433 C434 1.379 . S
N433 C437 1.334 . S
C434 N433 1.379 . S
C434 C436 1.416 . S
C434 C442 1.424 . S
C435 H430 0.930 . S
C435 C437 1.390 . S
C435 C438 1.339 . S
C436 C434 1.416 . S
C436 C438 1.416 . S
C436 C469 1.448 . S
C437 H422 0.930 . S
C437 N433 1.334 . S
C437 C435 1.390 . S
C438 C435 1.339 . S
C438 C436 1.416 . S
C438 H445 0.930 . S
N439 Tb404 2.572 . S
N439 C440 1.340 . S
N439 C442 1.361 . S
C440 H426 0.930 . S
C440 N439 1.340 . S
C440 C444 1.407 . S
C441 C442 1.413 . S
C441 C443 1.416 . S
C441 C470 1.427 . S
C442 C434 1.424 . S
C442 N439 1.361 . S
C442 C441 1.413 . S
C443 H432 0.931 . S
C443 C441 1.416 . S
C443 C444 1.332 . S
C444 H423 0.929 . S
C444 C440 1.407 . S
C444 C443 1.332 . S
H445 C438 0.930 . S
H446 C469 0.930 . S
H447 C470 0.929 . S
O448 Tb404 2.465 . S
O448 C468 1.264 . S
O449 Tb404 2.387 . S
O449 C460 1.264 . S
O450 Tb415 2.349 . S
O450 C460 1.243 . S
O451 Tb404 2.428 . S
O451 C468 1.256 . S
O452 Tb404 2.308 . S
O452 C467 1.266 . S
O453 Tb415 2.393 . S
O453 C467 1.248 . S
O454 Tb415 2.465 . S
O454 C479 1.264 . S
O455 Tb415 2.387 . S
O455 C471 1.264 . S
O456 Tb404 2.349 . S
O456 C471 1.243 . S
O457 Tb415 2.428 . S
O457 C479 1.256 . S
O458 Tb415 2.308 . S
O458 C478 1.266 . S
O459 Tb404 2.393 . S
O459 C478 1.248 . S
C460 O449 1.264 . S
C460 O450 1.243 . S
C461 C464 1.399 . S
C461 C466 1.383 . S
C461 C468 1.496 . S
C462 C463 1.399 . S
C462 C466 1.389 . S
C463 C462 1.399 . S
C463 C465 1.380 . S
C463 H480 0.929 . S
C464 C461 1.399 . S
C464 C465 1.392 . S
C464 H481 0.929 . S
C465 C463 1.380 . S
C465 C464 1.392 . S
C465 H482 0.929 . S
C466 C461 1.383 . S
C466 C462 1.389 . S
C466 H483 0.931 . S
C467 O452 1.266 . S
C467 O453 1.248 . S
C468 Tb404 2.802 . S
C468 O448 1.264 . S
C468 O451 1.256 . S
C468 C461 1.496 . S
C469 C436 1.448 . S
C469 H446 0.930 . S
C469 C470 1.328 . S
C470 C441 1.427 . S
C470 H447 0.929 . S
C470 C469 1.328 . S
C471 O455 1.264 . S
C471 O456 1.243 . S
C472 C475 1.399 . S
C472 C476 1.383 . S
C472 C479 1.496 . S
C473 C474 1.399 . S
C473 C476 1.389 . S
C474 C473 1.399 . S
C474 C477 1.380 . S
C474 H484 0.929 . S
C475 C472 1.399 . S
C475 C477 1.392 . S
C475 H485 0.929 . S
C476 C472 1.383 . S
C476 C473 1.389 . S
C476 H486 0.931 . S
C477 C474 1.380 . S
C477 C475 1.392 . S
C477 H487 0.929 . S
C478 O458 1.266 . S
C478 O459 1.248 . S
C479 Tb415 2.802 . S
C479 O454 1.264 . S
C479 O457 1.256 . S
C479 C472 1.496 . S
H480 C463 0.929 . S
H481 C464 0.929 . S
H482 C465 0.929 . S
H483 C466 0.931 . S
H484 C474 0.929 . S
H485 C475 0.929 . S
H486 C476 0.931 . S
H487 C477 0.929 . S
C488 C489 1.387 . S
C488 H492 0.950 . S
C488 C497 1.393 . S
C489 C488 1.387 . S
C489 C491 1.387 . S
H490 C497 0.945 1_545 S
C491 C489 1.387 . S
C491 C493 1.390 . S
C491 H495 0.950 . S
H492 C488 0.950 . S
C493 C491 1.390 . S
C493 C494 1.387 . S
C493 H496 0.950 . S
C494 C493 1.387 . S
C494 C497 1.390 . S
H495 C491 0.950 . S
H496 C493 0.950 . S
C497 C488 1.393 . S
C497 H490 0.945 1_565 S
C497 C494 1.390 . S
C498 C499 1.387 . S
C498 H502 0.950 . S
C498 C507 1.390 . S
C499 C498 1.387 . S
C499 C501 1.387 . S
H500 C507 0.950 . S
C501 C499 1.387 . S
C501 C503 1.390 . S
C501 H505 0.950 . S
H502 C498 0.950 . S
C503 C501 1.390 . S
C503 C504 1.387 . S
C503 H506 0.950 . S
C504 C503 1.387 . S
C504 C507 1.387 . S
H505 C501 0.950 . S
H506 C503 0.950 . S
C507 C498 1.390 . S
C507 H500 0.950 . S
C507 C504 1.387 . S
C508 C509 1.387 . S
C508 H512 0.950 . S
C508 C517 1.390 . S
C509 C508 1.387 . S
C509 C511 1.387 . S
H510 C517 0.950 . S
C511 C509 1.387 . S
C511 C513 1.390 . S
C511 H515 0.950 . S
H512 C508 0.950 . S
C513 C511 1.390 . S
C513 C514 1.387 . S
C513 H516 0.950 . S
C514 C513 1.387 . S
C514 C517 1.387 . S
H515 C511 0.950 . S
H516 C513 0.950 . S
C517 C508 1.390 . S
C517 H510 0.950 . S
C517 C514 1.387 . S
C518 C519 1.387 . S
C518 H522 0.950 . S
C518 C527 1.390 . S
C519 C518 1.387 . S
C519 C521 1.387 . S
H520 C527 0.950 1_545 S
C521 C519 1.387 . S
C521 C523 1.390 . S
C521 H525 0.950 . S
H522 C518 0.950 . S
C523 C521 1.390 . S
C523 C524 1.387 . S
C523 H526 0.950 . S
C524 C523 1.387 . S
C524 C527 1.387 . S
H525 C521 0.950 . S
H526 C523 0.950 . S
C527 C518 1.390 . S
C527 H520 0.950 1_565 S
C527 C524 1.387 . S
C528 C529 1.387 . S
C528 H532 0.950 . S
C528 C537 1.390 . S
C529 C528 1.387 . S
C529 C531 1.387 . S
H530 C537 0.950 1_565 S
C531 C529 1.387 . S
C531 C533 1.390 . S
C531 H535 0.950 . S
H532 C528 0.950 . S
C533 C531 1.390 . S
C533 C534 1.387 . S
C533 H536 0.950 . S
C534 C533 1.387 . S
C534 C537 1.387 . S
H535 C531 0.950 . S
H536 C533 0.950 . S
C537 C528 1.390 . S
C537 H530 0.950 1_545 S
C537 C534 1.387 . S
C538 C539 1.387 . S
C538 H542 0.950 . S
C538 C547 1.390 . S
C539 C538 1.387 . S
C539 C541 1.387 . S
H540 C547 0.950 . S
C541 C539 1.387 . S
C541 C543 1.390 . S
C541 H545 0.950 . S
H542 C538 0.950 . S
C543 C541 1.390 . S
C543 C544 1.387 . S
C543 H546 0.950 . S
C544 C543 1.387 . S
C544 C547 1.387 . S
H545 C541 0.950 . S
H546 C543 0.950 . S
C547 C538 1.390 . S
C547 H540 0.950 . S
C547 C544 1.387 . S
C548 C549 1.387 . S
C548 H552 0.950 . S
C548 C557 1.390 . S
C549 C548 1.387 . S
C549 C551 1.387 . S
H550 C557 0.950 . S
C551 C549 1.387 . S
C551 C553 1.390 . S
C551 H555 0.950 . S
H552 C548 0.950 . S
C553 C551 1.390 . S
C553 C554 1.387 . S
C553 H556 0.950 . S
C554 C553 1.387 . S
C554 C557 1.387 . S
H555 C551 0.950 . S
H556 C553 0.950 . S
C557 C548 1.390 . S
C557 H550 0.950 . S
C557 C554 1.387 . S
C558 C559 1.387 . S
C558 H562 0.950 . S
C558 C567 1.390 . S
C559 C558 1.387 . S
C559 C561 1.387 . S
H560 C567 0.950 . S
C561 C559 1.387 . S
C561 C563 1.390 . S
C561 H565 0.950 . S
H562 C558 0.950 . S
C563 C561 1.390 . S
C563 C564 1.387 . S
C563 H566 0.950 1_545 S
C564 C563 1.387 . S
C564 C567 1.387 . S
H565 C561 0.950 . S
H566 C563 0.950 1_565 S
C567 C558 1.390 . S
C567 H560 0.950 . S
C567 C564 1.387 . S
C568 C569 1.387 . S
C568 H572 0.950 . S
C568 C577 1.390 1_556 S
C569 C568 1.387 . S
C569 C571 1.387 . S
H570 C577 0.950 . S
C571 C569 1.387 . S
C571 C573 1.390 1_556 S
C571 H575 0.950 . S
H572 C568 0.950 . S
C573 C571 1.390 1_554 S
C573 C574 1.387 . S
C573 H576 0.950 . S
C574 C573 1.387 . S
C574 C577 1.387 . S
H575 C571 0.950 . S
H576 C573 0.950 . S
C577 C568 1.390 1_554 S
C577 H570 0.950 . S
C577 C574 1.387 . S
C578 C579 1.387 . S
C578 H582 0.950 . S
C578 C587 1.390 . S
C579 C578 1.387 . S
C579 C581 1.387 . S
H580 C587 0.950 . S
C581 C579 1.387 . S
C581 C583 1.390 . S
C581 H585 0.950 . S
H582 C578 0.950 . S
C583 C581 1.390 . S
C583 C584 1.387 . S
C583 H586 0.950 . S
C584 C583 1.387 . S
C584 C587 1.387 . S
H585 C581 0.950 . S
H586 C583 0.950 . S
C587 C578 1.390 . S
C587 H580 0.950 . S
C587 C584 1.387 . S
C588 C589 1.387 . S
C588 H592 0.950 . S
C588 C597 1.390 1_554 S
C589 C588 1.387 . S
C589 C591 1.387 . S
H590 C597 0.950 . S
C591 C589 1.387 . S
C591 C593 1.390 1_554 S
C591 H595 0.950 . S
H592 C588 0.950 . S
C593 C591 1.390 1_556 S
C593 C594 1.387 . S
C593 H596 0.950 . S
C594 C593 1.387 . S
C594 C597 1.387 . S
H595 C591 0.950 . S
H596 C593 0.950 . S
C597 C588 1.390 1_556 S
C597 H590 0.950 . S
C597 C594 1.387 . S
C598 C599 1.387 . S
C598 H602 0.950 . S
C598 C607 1.390 . S
C599 C598 1.387 . S
C599 C601 1.387 . S
H600 C607 0.950 . S
C601 C599 1.387 . S
C601 C603 1.390 . S
C601 H605 0.950 . S
H602 C598 0.950 . S
C603 C601 1.390 . S
C603 C604 1.387 . S
C603 H606 0.950 . S
C604 C603 1.387 . S
C604 C607 1.387 . S
H605 C601 0.950 . S
H606 C603 0.950 . S
C607 C598 1.390 . S
C607 H600 0.950 . S
C607 C604 1.387 . S
C608 C609 1.387 . S
C608 H612 0.950 . S
C608 C617 1.390 1_554 S
C609 C608 1.387 . S
C609 C611 1.387 . S
H610 C617 0.950 . S
C611 C609 1.387 . S
C611 C613 1.390 1_554 S
C611 H615 0.950 . S
H612 C608 0.950 . S
C613 C611 1.390 1_556 S
C613 C614 1.387 . S
C613 H616 0.950 . S
C614 C613 1.387 . S
C614 C617 1.387 . S
H615 C611 0.950 . S
H616 C613 0.950 . S
C617 C608 1.390 1_556 S
C617 H610 0.950 . S
C617 C614 1.387 . S
C618 C619 1.387 . S
C618 H622 0.950 . S
C618 C627 1.390 . S
C619 C618 1.387 . S
C619 C621 1.387 . S
H620 C627 0.950 . S
C621 C619 1.387 . S
C621 C623 1.390 . S
C621 H625 0.950 . S
H622 C618 0.950 . S
C623 C621 1.390 . S
C623 C624 1.387 . S
C623 H626 0.950 . S
C624 C623 1.387 . S
C624 C627 1.387 . S
H625 C621 0.950 . S
H626 C623 0.950 . S
C627 C618 1.390 . S
C627 H620 0.950 . S
C627 C624 1.387 . S
C628 C629 1.387 . S
C628 H632 0.950 . S
C628 C637 1.390 1_556 S
C629 C628 1.387 . S
C629 C631 1.387 . S
H630 C637 0.950 . S
C631 C629 1.387 . S
C631 C633 1.390 1_556 S
C631 H635 0.950 . S
H632 C628 0.950 . S
C633 C631 1.390 1_554 S
C633 C634 1.387 . S
C633 H636 0.950 . S
C634 C633 1.387 . S
C634 C637 1.387 . S
H635 C631 0.950 . S
H636 C633 0.950 . S
C637 C628 1.390 1_554 S
C637 H630 0.950 . S
C637 C634 1.387 . S
C638 C639 1.387 . S
C638 H642 0.950 . S
C638 C647 1.390 . S
C639 C638 1.387 . S
C639 C641 1.387 . S
H640 C647 0.950 . S
C641 C639 1.387 . S
C641 C643 1.390 . S
C641 H645 0.950 . S
H642 C638 0.950 . S
C643 C641 1.390 . S
C643 C644 1.387 . S
C643 H646 0.950 . S
C644 C643 1.387 . S
C644 C647 1.387 . S
H645 C641 0.950 . S
H646 C643 0.950 . S
C647 C638 1.390 . S
C647 H640 0.950 . S
C647 C644 1.387 . S
C648 C649 1.387 . S
C648 H652 0.950 . S
C648 C657 1.390 . S
C649 C648 1.387 . S
C649 C651 1.387 . S
H650 C657 0.950 . S
C651 C649 1.387 . S
C651 C653 1.390 . S
C651 H655 0.950 . S
H652 C648 0.950 . S
C653 C651 1.390 . S
C653 C654 1.387 . S
C653 H656 0.950 . S
C654 C653 1.387 . S
C654 C657 1.387 . S
H655 C651 0.950 . S
H656 C653 0.950 . S
C657 C648 1.390 . S
C657 H650 0.950 . S
C657 C654 1.387 . S
C658 C659 1.387 . S
C658 H662 0.950 . S
C658 C667 1.390 . S
C659 C658 1.387 . S
C659 C661 1.387 . S
H660 C667 0.950 . S
C661 C659 1.387 . S
C661 C663 1.390 . S
C661 H665 0.950 . S
H662 C658 0.950 . S
C663 C661 1.390 . S
C663 C664 1.387 . S
C663 H666 0.950 . S
C664 C663 1.387 . S
C664 C667 1.387 . S
H665 C661 0.950 . S
H666 C663 0.950 . S
C667 C658 1.390 . S
C667 H660 0.950 . S
C667 C664 1.387 . S
C668 C669 1.387 . S
C668 H672 0.950 . S
C668 C677 1.390 . S
C669 C668 1.387 . S
C669 C671 1.387 . S
H670 C677 0.950 . S
C671 C669 1.387 . S
C671 C673 1.390 . S
C671 H675 0.950 . S
H672 C668 0.950 . S
C673 C671 1.390 . S
C673 C674 1.387 . S
C673 H676 0.950 . S
C674 C673 1.387 . S
C674 C677 1.387 . S
H675 C671 0.950 . S
H676 C673 0.950 . S
C677 C668 1.390 . S
C677 H670 0.950 . S
C677 C674 1.387 . S
C678 C679 1.387 . S
C678 H682 0.950 . S
C678 C687 1.390 . S
C679 C678 1.387 . S
C679 C681 1.387 . S
H680 C687 0.950 . S
C681 C679 1.387 . S
C681 C683 1.390 . S
C681 H685 0.950 . S
H682 C678 0.950 . S
C683 C681 1.390 . S
C683 C684 1.387 . S
C683 H686 0.950 . S
C684 C683 1.387 . S
C684 C687 1.387 . S
H685 C681 0.950 . S
H686 C683 0.950 . S
C687 C678 1.390 . S
C687 H680 0.950 . S
C687 C684 1.387 . S
C688 C689 1.387 . S
C688 H692 0.950 . S
C688 C697 1.390 . S
C689 C688 1.387 . S
C689 C691 1.387 . S
H690 C697 0.950 . S
C691 C689 1.387 . S
C691 C693 1.390 . S
C691 H695 0.950 . S
H692 C688 0.950 . S
C693 C691 1.390 . S
C693 C694 1.387 . S
C693 H696 0.950 . S
C694 C693 1.387 . S
C694 C697 1.387 . S
H695 C691 0.950 . S
H696 C693 0.950 . S
C697 C688 1.390 . S
C697 H690 0.950 . S
C697 C694 1.387 . S
C698 C699 1.387 . S
C698 H702 0.950 . S
C698 C707 1.390 . S
C699 C698 1.387 . S
C699 C701 1.387 . S
H700 C707 0.950 . S
C701 C699 1.387 . S
C701 C703 1.390 . S
C701 H705 0.950 . S
H702 C698 0.950 . S
C703 C701 1.390 . S
C703 C704 1.387 . S
C703 H706 0.950 . S
C704 C703 1.387 . S
C704 C707 1.387 . S
H705 C701 0.950 . S
H706 C703 0.950 . S
C707 C698 1.390 . S
C707 H700 0.950 . S
C707 C704 1.387 . S
C708 C709 1.387 . S
C708 H712 0.950 . S
C708 C717 1.390 . S
C709 C708 1.387 . S
C709 C711 1.387 . S
H710 C717 0.950 . S
C711 C709 1.387 . S
C711 C713 1.390 . S
C711 H715 0.950 . S
H712 C708 0.950 . S
C713 C711 1.390 . S
C713 C714 1.387 . S
C713 H716 0.950 . S
C714 C713 1.387 . S
C714 C717 1.387 . S
H715 C711 0.950 . S
H716 C713 0.950 . S
C717 C708 1.390 . S
C717 H710 0.950 . S
C717 C714 1.387 . S
C718 C719 1.387 . S
C718 H722 0.950 . S
C718 C727 1.390 . S
C719 C718 1.387 . S
C719 C721 1.387 . S
H720 C727 0.950 . S
C721 C719 1.387 . S
C721 C723 1.390 . S
C721 H725 0.950 . S
H722 C718 0.950 . S
C723 C721 1.390 . S
C723 C724 1.387 . S
C723 H726 0.950 . S
C724 C723 1.387 . S
C724 C727 1.387 . S
H725 C721 0.950 . S
H726 C723 0.950 . S
C727 C718 1.390 . S
C727 H720 0.950 . S
C727 C724 1.387 . S
C489 C116 1.807 . S
C494 C226 1.805 1_565 S
C504 C310 1.806 . S
C499 C135 1.808 . S
C514 C303 1.800 . S
C509 C78 1.807 . S
C519 C97 1.807 . S
C524 C219 1.799 1_565 S
C534 C383 1.807 1_545 S
C529 C40 1.809 . S
C544 C467 1.807 . S
C539 C59 1.809 . S
C549 C2 1.809 . S
C554 C460 1.800 . S
C559 C21 1.809 . S
C564 C376 1.799 1_545 S
C574 C210 1.553 . S
C569 C25 1.728 . S
C584 C294 1.553 . S
C579 C6 1.728 . S
C594 C305 1.423 . S
C589 C63 1.721 . S
C604 C221 1.423 . S
C599 C44 1.721 . S
C614 C389 1.553 . S
C609 C101 1.725 . S
C619 C82 1.727 . S
C624 C473 1.557 . S
C634 C462 1.423 . S
C629 C139 1.719 . S
C639 C120 1.719 . S
C644 C378 1.423 . S
C654 C208 1.509 . S
C649 C11 1.440 . S
C664 C292 1.510 . S
C659 C30 1.439 . S
C669 C49 1.428 . S
C674 C299 1.469 . S
C684 C215 1.470 . S
C679 C68 1.427 . S
C694 C387 1.509 . S
C689 C87 1.375 . S
C699 C106 1.374 . S
C704 C471 1.509 . S
C709 C125 1.373 . S
C714 C478 1.470 . S
C719 C144 1.377 . S
C724 C394 1.470 . S
