# Generated by pormake.
# Topology anh, (6,3)-cn, num edge types: 1
# Building blocks:
#     Node 0, Type 0, BuildingBlock: PAMTOO_clean_sbu_0, # of connection points: 6
#     Node 1, Type 0, BuildingBlock: PAMTOO_clean_sbu_0, # of connection points: 6
#     Node 2, Type 0, BuildingBlock: PAMTOO_clean_sbu_0, # of connection points: 6
#     Node 3, Type 1, BuildingBlock: CUQRIR_clean_linker_1, # of connection points: 3
#     Node 4, Type 1, BuildingBlock: CUQRIR_clean_linker_1, # of connection points: 3
#     Node 5, Type 1, BuildingBlock: CUQRIR_clean_linker_1, # of connection points: 3
#     Node 6, Type 1, BuildingBlock: CUQRIR_clean_linker_1, # of connection points: 3
#     Node 7, Type 1, BuildingBlock: CUQRIR_clean_linker_1, # of connection points: 3
#     Node 8, Type 1, BuildingBlock: CUQRIR_clean_linker_1, # of connection points: 3
#     Edge 9, Type (0, 1), BuildingBlock: MIFKUJ_clean_linker_0, # of connection points: 2
#     Edge 10, Type (0, 1), BuildingBlock: MIFKUJ_clean_linker_0, # of connection points: 2
#     Edge 11, Type (0, 1), BuildingBlock: MIFKUJ_clean_linker_0, # of connection points: 2
#     Edge 12, Type (0, 1), BuildingBlock: MIFKUJ_clean_linker_0, # of connection points: 2
#     Edge 13, Type (0, 1), BuildingBlock: MIFKUJ_clean_linker_0, # of connection points: 2
#     Edge 14, Type (0, 1), BuildingBlock: MIFKUJ_clean_linker_0, # of connection points: 2
#     Edge 15, Type (0, 1), BuildingBlock: MIFKUJ_clean_linker_0, # of connection points: 2
#     Edge 16, Type (0, 1), BuildingBlock: MIFKUJ_clean_linker_0, # of connection points: 2
#     Edge 17, Type (0, 1), BuildingBlock: MIFKUJ_clean_linker_0, # of connection points: 2
#     Edge 18, Type (0, 1), BuildingBlock: MIFKUJ_clean_linker_0, # of connection points: 2
#     Edge 19, Type (0, 1), BuildingBlock: MIFKUJ_clean_linker_0, # of connection points: 2
#     Edge 20, Type (0, 1), BuildingBlock: MIFKUJ_clean_linker_0, # of connection points: 2
#     Edge 21, Type (0, 1), BuildingBlock: MIFKUJ_clean_linker_0, # of connection points: 2
#     Edge 22, Type (0, 1), BuildingBlock: MIFKUJ_clean_linker_0, # of connection points: 2
#     Edge 23, Type (0, 1), BuildingBlock: MIFKUJ_clean_linker_0, # of connection points: 2
#     Edge 24, Type (0, 1), BuildingBlock: MIFKUJ_clean_linker_0, # of connection points: 2
#     Edge 25, Type (0, 1), BuildingBlock: MIFKUJ_clean_linker_0, # of connection points: 2
#     Edge 26, Type (0, 1), BuildingBlock: MIFKUJ_clean_linker_0, # of connection points: 2
# Relax obj value: 0.169
# Max RMSD: 0.219
# Mean RMSD: 0.159
data_MOF--net-anh--node1-PAMTOO_clean_sbu_0--node2-CUQRIR_clean_linker_1--edge1-MIFKUJ_clean_linker_0
_symmetry_space_group_name_H-M    P1
_symmetry_Int_Tables_number       1
_symmetry_cell_setting            triclinic
loop_
_symmetry_equiv_pos_as_xyz
'x, y, z'
_cell_length_a     38.294191
_cell_length_b     36.321503
_cell_length_c     61.790201
_cell_angle_alpha  86.486647
_cell_angle_beta   94.331258
_cell_angle_gamma 107.16848
loop_
_atom_site_label
_atom_site_type_symbol
_atom_site_fract_x
_atom_site_fract_y
_atom_site_fract_z
_atom_type_partial_charge
Dy0 Dy 1.03142 0.56004 0.14218 0.0
Dy1 Dy 1.00372 0.46707 0.14003 0.0
C2 C 1.01897 0.52015 0.09738 0.0
O3 O 0.9691 0.54635 0.14578 0.0
O4 O 0.94992 0.48392 0.13487 0.0
O5 O 0.05594 0.61548 0.12665 0.0
O6 O 1.03878 0.6122 0.15953 0.0
O7 O 0.99683 0.48087 0.17375 0.0
O8 O 1.04367 0.53636 0.175 0.0
O9 O 0.06682 0.47975 0.14412 0.0
O10 O 0.08523 0.54551 0.13803 0.0
O11 O 1.00338 0.41113 0.15418 0.0
O12 O 0.9714 0.41553 0.12418 0.0
C13 C 0.94192 0.51536 0.14013 0.0
O14 O 1.01087 0.54624 0.10806 0.0
O15 O 1.02431 0.48943 0.10758 0.0
C16 C 0.09251 0.66174 0.15079 0.0
C17 C 0.16007 0.71589 0.16305 0.0
C18 C 0.15882 0.68554 0.1496 0.0
C19 C 0.12548 0.65867 0.14364 0.0
C20 C 0.09358 0.69174 0.16431 0.0
C21 C 0.12698 0.71846 0.17044 0.0
C22 C 0.05693 0.63422 0.14415 0.0
C23 C 1.02122 0.50698 0.1849 0.0
C24 C 0.09356 0.51244 0.14104 0.0
C25 C 0.94638 0.36434 0.14901 0.0
C26 C 0.8853 0.30975 0.16672 0.0
C27 C 0.89143 0.34949 0.16915 0.0
C28 C 0.92169 0.37652 0.16039 0.0
C29 C 0.94048 0.32486 0.14651 0.0
C30 C 0.91023 0.29778 0.15527 0.0
C31 C 0.97842 0.39266 0.13995 0.0
H32 H 0.18355 0.68283 0.14332 0.0
H33 H 0.12556 0.63571 0.13327 0.0
H34 H 0.06853 0.69454 0.17012 0.0
H35 H 0.12684 0.74095 0.18112 0.0
H36 H 0.87309 0.35973 0.17808 0.0
H37 H 0.92594 0.40695 0.16256 0.0
H38 H 0.95925 0.31498 0.13774 0.0
H39 H 0.9061 0.26749 0.15283 0.0
Dy40 Dy 0.57594 0.01019 0.51873 0.0
Dy41 Dy 0.66537 0.03641 0.52473 0.0
C42 C 0.61689 0.02038 0.56495 0.0
O43 O 0.59194 0.07413 0.51213 0.0
O44 O 0.65005 0.09063 0.52853 0.0
O45 O 0.52381 0.98788 0.53288 0.0
O46 O 0.52598 1.00413 0.49854 0.0
O47 O 0.64943 0.05106 0.49052 0.0
O48 O 0.59781 1.00044 0.48776 0.0
O49 O 0.64957 0.97278 0.51959 0.0
O50 O 0.58943 0.95526 0.52833 0.0
O51 O 0.71696 0.03545 0.5134 0.0
O52 O 0.7159 0.06641 0.54212 0.0
C53 C 0.62115 0.1001 0.52005 0.0
O54 O 0.5928 0.03148 0.55207 0.0
O55 O 0.64427 0.0121 0.55693 0.0
C56 C 0.47701 0.95123 0.50935 0.0
C57 C 0.42152 0.88215 0.50074 0.0
C58 C 0.45482 0.88131 0.51177 0.0
C59 C 0.48238 0.91553 0.51594 0.0
C60 C 0.4441 0.95228 0.49819 0.0
C61 C 0.4166 0.91805 0.49386 0.0
C62 C 0.50525 0.9875 0.51427 0.0
C63 C 0.62442 0.02673 0.4786 0.0
C64 C 0.61925 0.94625 0.52468 0.0
C65 C 0.76373 0.09449 0.51852 0.0
C66 C 0.81422 0.16109 0.50108 0.0
C67 C 0.7994 0.12847 0.48854 0.0
C68 C 0.7745 0.09553 0.49717 0.0
C69 C 0.77915 0.12681 0.53121 0.0
C70 C 0.80401 0.15981 0.52255 0.0
C71 C 0.73605 0.06028 0.52739 0.0
H72 H 0.4594 0.85425 0.51752 0.0
H73 H 0.50772 0.91409 0.52452 0.0
H74 H 0.43963 0.97961 0.49287 0.0
H75 H 0.39161 0.91974 0.48497 0.0
H76 H 0.80651 0.12865 0.47189 0.0
H77 H 0.76338 0.07107 0.48696 0.0
H78 H 0.77177 0.12675 0.5478 0.0
H79 H 0.81544 0.18425 0.53274 0.0
Dy80 Dy 0.61697 0.5661 0.83917 0.0
Dy81 Dy 0.52836 0.54036 0.83593 0.0
C82 C 0.57305 0.55727 0.79398 0.0
O83 O 0.60273 0.62131 0.83205 0.0
O84 O 0.54543 0.60219 0.84488 0.0
O85 O 0.66789 0.59725 0.82526 0.0
O86 O 0.66816 0.56454 0.85579 0.0
O87 O 0.54711 0.52329 0.86915 0.0
O88 O 0.59966 0.57295 0.87199 0.0
O89 O 0.54122 0.48626 0.82871 0.0
O90 O 0.59973 0.50177 0.84452 0.0
O91 O 0.47783 0.52882 0.85186 0.0
O92 O 0.4767 0.52514 0.81698 0.0
C93 C 0.57392 0.62949 0.83827 0.0
O94 O 0.59869 0.54669 0.80562 0.0
O95 O 0.54706 0.56568 0.80344 0.0
C96 C 0.70924 0.56016 0.82988 0.0
C97 C 0.74787 0.51744 0.81012 0.0
C98 C 0.74467 0.55236 0.80037 0.0
C99 C 0.72568 0.57359 0.81021 0.0
C100 C 0.71222 0.52505 0.83953 0.0
C101 C 0.73145 0.50402 0.82978 0.0
C102 C 0.68689 0.58137 0.83927 0.0
C103 C 0.57338 0.54618 0.88115 0.0
C104 C 0.5703 0.47638 0.83641 0.0
C105 C 0.43806 0.55608 0.83102 0.0
C106 C 0.40268 0.6133 0.83269 0.0
C107 C 0.38334 0.57411 0.83605 0.0
C108 C 0.40105 0.54567 0.8354 0.0
C109 C 0.45694 0.59503 0.82666 0.0
C110 C 0.43951 0.62351 0.82775 0.0
C111 C 0.4584 0.52756 0.83353 0.0
H112 H 0.75789 0.56393 0.7855 0.0
H113 H 0.72378 0.60051 0.80238 0.0
H114 H 0.69968 0.51366 0.85461 0.0
H115 H 0.73383 0.47746 0.83777 0.0
H116 H 0.35495 0.56562 0.84009 0.0
H117 H 0.38623 0.51581 0.839 0.0
H118 H 0.48552 0.60353 0.82309 0.0
H119 H 0.45491 0.65347 0.82507 0.0
C120 C 0.53021 0.0149 0.21839 0.0
N121 N 0.5572 0.03024 0.23359 0.0
N122 N 0.5026 0.98762 0.22761 0.0
C123 C 0.53153 0.02511 0.19447 0.0
C124 C 0.51363 0.9867 0.24887 0.0
N125 N 0.54703 0.01245 0.25255 0.0
C126 C 0.49072 0.96182 0.26604 0.0
H127 H 0.52278 0.05153 0.19111 0.0
H128 H 0.51288 1.0016 0.18484 0.0
H129 H 0.55987 0.03121 0.18927 0.0
H130 H 0.49796 0.93438 0.26844 0.0
H131 H 0.46112 0.9547 0.261 0.0
H132 H 0.49576 0.97641 0.28172 0.0
C133 C 0.61035 0.51997 0.5358 0.0
N134 N 0.60444 0.5442 0.55013 0.0
N135 N 0.60317 0.48351 0.54461 0.0
C136 C 0.62171 0.53125 0.51303 0.0
C137 C 0.59282 0.48637 0.56472 0.0
N138 N 0.59332 0.52296 0.568 0.0
C139 C 0.58449 0.45406 0.58176 0.0
H140 H 0.61278 0.50599 0.50256 0.0
H141 H 0.65201 0.54241 0.51334 0.0
H142 H 0.6101 0.55429 0.50603 0.0
H143 H 0.59069 0.42804 0.57667 0.0
H144 H 0.55508 0.44637 0.58508 0.0
H145 H 0.60059 0.46382 0.59713 0.0
C146 C 0.09207 0.61182 0.83914 0.0
N147 N 0.10497 0.61738 0.86008 0.0
N148 N 0.06271 0.58024 0.83782 0.0
C149 C 0.10892 0.63606 0.81989 0.0
C150 C 0.05782 0.56693 0.85861 0.0
N151 N 0.08402 0.58903 0.87211 0.0
C152 C 1.02605 0.534 0.86582 0.0
H153 H 0.09871 0.62119 0.8045 0.0
H154 H 0.1392 0.64294 0.82162 0.0
H155 H 0.10181 0.66361 0.81912 0.0
H156 H 1.03485 0.50745 0.86796 0.0
H157 H 1.00254 0.52876 0.85361 0.0
H158 H 1.01708 0.53977 0.8816 0.0
C159 C 0.10544 0.522 0.44676 0.0
N160 N 0.08474 0.50057 0.43065 0.0
N161 N 0.13566 0.54732 0.4388 0.0
C162 C 0.09766 0.51652 0.47042 0.0
C163 C 0.13274 0.54063 0.41737 0.0
N164 N 0.10201 0.51194 0.41247 0.0
C165 C 0.15885 0.5636 0.40108 0.0
H166 H 0.07778 0.53214 0.47358 0.0
H167 H 0.12297 0.52813 0.48086 0.0
H168 H 0.08543 0.48551 0.47481 0.0
H169 H 0.17213 0.59337 0.40643 0.0
H170 H 0.14461 0.56485 0.38486 0.0
H171 H 0.18051 0.54944 0.39957 0.0
C172 C 0.57256 0.05313 0.82261 0.0
N173 N 0.57376 0.02578 0.80882 0.0
N174 N 0.57403 0.08706 0.81153 0.0
C175 C 0.57297 0.04766 0.84691 0.0
C176 C 0.5756 0.07903 0.79058 0.0
N177 N 0.57589 0.04227 0.789 0.0
C178 C 0.57512 0.10645 0.77136 0.0
H179 H 0.54432 0.038 0.85187 0.0
H180 H 0.5873 0.07515 0.85479 0.0
H181 H 0.58645 0.02537 0.85262 0.0
H182 H 0.60368 0.12102 0.76707 0.0
H183 H 0.5619 0.12858 0.77495 0.0
H184 H 0.56018 0.0905 0.7571 0.0
C185 C 0.51917 0.51526 0.14152 0.0
N186 N 0.54541 0.51255 0.12783 0.0
N187 N 0.48551 0.51287 0.13056 0.0
C188 C 0.52613 0.51961 0.1655 0.0
C189 C 0.49274 0.5088 0.10987 0.0
N190 N 0.52787 0.50832 0.10827 0.0
C191 C 0.4656 0.50682 0.09067 0.0
H192 H 0.54419 0.50217 0.17214 0.0
H193 H 0.50002 0.51086 0.17377 0.0
H194 H 0.54042 0.55031 0.16866 0.0
H195 H 0.47931 0.52512 0.07696 0.0
H196 H 0.44183 0.51631 0.09443 0.0
H197 H 0.45539 0.47668 0.08538 0.0
H198 H 0.12482 0.45112 0.14821 0.0
H199 H 0.1888 0.45096 0.14776 0.0
H200 H 0.22141 0.57327 0.13319 0.0
H201 H 0.15728 0.57331 0.13333 0.0
H202 H 0.26447 0.54899 0.11189 0.0
H203 H 0.24071 0.5225 0.18734 0.0
H204 H 0.20895 0.48847 0.21927 0.0
H205 H 0.22464 0.38256 0.20103 0.0
H206 H 0.25684 0.41609 0.16904 0.0
H207 H 0.45898 0.57531 0.13133 0.0
H208 H 0.39529 0.57568 0.13417 0.0
H209 H 0.36259 0.45239 0.14495 0.0
H210 H 0.42652 0.4524 0.1422 0.0
H211 H 0.3198 0.47685 0.16826 0.0
H212 H 0.34747 0.50462 0.09411 0.0
H213 H 0.38211 0.53961 0.06336 0.0
H214 H 0.35905 0.64333 0.07894 0.0
H215 H 0.32486 0.60914 0.11009 0.0
C216 C 0.14537 0.47823 0.14496 0.0
C217 C 0.13438 0.51224 0.14091 0.0
C218 C 0.18284 0.47823 0.14488 0.0
C219 C 0.212 0.51227 0.14083 0.0
C220 C 0.20087 0.54616 0.13647 0.0
C221 C 0.16343 0.54619 0.13663 0.0
C222 C 0.25324 0.51258 0.14088 0.0
C223 C 0.27627 0.53352 0.12455 0.0
C224 C 0.27046 0.49205 0.15673 0.0
C225 C 0.25076 0.47168 0.1757 0.0
C226 C 0.23714 0.49189 0.19006 0.0
C227 C 0.21912 0.47271 0.20819 0.0
C228 C 0.21449 0.43331 0.21209 0.0
C229 C 0.22814 0.41305 0.19795 0.0
C230 C 0.24639 0.43215 0.17986 0.0
C231 C 0.43856 0.54833 0.13504 0.0
C232 C 0.44926 0.51402 0.13739 0.0
C233 C 0.40133 0.54835 0.13624 0.0
C234 C 0.37222 0.51395 0.13952 0.0
C235 C 0.38322 0.47976 0.14247 0.0
C236 C 0.42045 0.47975 0.14114 0.0
C237 C 0.33101 0.51345 0.13939 0.0
C238 C 0.30799 0.49239 0.15564 0.0
C239 C 0.31383 0.53387 0.12345 0.0
C240 C 0.33391 0.55441 0.10458 0.0
C241 C 0.34997 0.53496 0.09107 0.0
C242 C 0.36953 0.55464 0.07356 0.0
C243 C 0.37283 0.59368 0.06922 0.0
C244 C 0.35651 0.6131 0.08235 0.0
C245 C 0.33705 0.59359 0.09994 0.0
H246 H 0.38798 0.60887 0.05565 0.0
H247 H 0.20048 0.41852 0.22613 0.0
H248 H 0.81587 0.23617 0.50523 0.0
H249 H 0.85901 0.29422 0.4901 0.0
H250 H 0.91349 0.22382 0.46022 0.0
H251 H 0.87111 0.16571 0.4758 0.0
H252 H 0.96163 0.28266 0.48077 0.0
H253 H 0.8576 0.26704 0.42997 0.0
H254 H 0.79263 0.25856 0.41873 0.0
H255 H 0.79897 0.36654 0.44587 0.0
H256 H 0.86387 0.37542 0.45755 0.0
H257 H 0.07577 0.42903 0.41763 0.0
H258 H 1.02522 0.37131 0.42558 0.0
H259 H 0.97231 0.44055 0.4578 0.0
H260 H 1.02249 0.49855 0.44913 0.0
H261 H 0.92255 0.3822 0.43489 0.0
H262 H 1.02478 0.39672 0.48705 0.0
H263 H 0.08972 0.40606 0.49866 0.0
H264 H 0.08623 0.30034 0.46981 0.0
H265 H 1.02137 0.29072 0.45767 0.0
C266 C 0.83719 0.23307 0.49555 0.0
C267 C 0.84011 0.19635 0.49172 0.0
C268 C 0.86155 0.26624 0.48672 0.0
C269 C 0.88917 0.26329 0.47382 0.0
C270 C 0.89224 0.2267 0.47003 0.0
C271 C 0.86788 0.19354 0.47883 0.0
C272 C 0.91573 0.29841 0.46491 0.0
C273 C 0.95309 0.3041 0.47045 0.0
C274 C 0.90449 0.32687 0.45193 0.0
C275 C 0.86552 0.32171 0.44481 0.0
C276 C 0.84507 0.28884 0.43369 0.0
C277 C 0.80827 0.28398 0.42721 0.0
C278 C 0.79166 0.31195 0.43163 0.0
C279 C 0.81186 0.34488 0.44248 0.0
C280 C 0.84867 0.34986 0.44901 0.0
C281 C 0.05282 0.43192 0.42588 0.0
C282 C 0.05295 0.46787 0.433 0.0
C283 C 1.02416 0.39903 0.43054 0.0
C284 C 0.99539 0.40162 0.4426 0.0
C285 C 0.99436 0.43794 0.44856 0.0
C286 C 1.02303 0.47089 0.4438 0.0
C287 C 0.96831 0.36616 0.45065 0.0
C288 C 0.93097 0.36055 0.44508 0.0
C289 C 0.97948 0.33778 0.46372 0.0
C290 C 1.01833 0.3432 0.47127 0.0
C291 C 1.03793 0.3756 0.48305 0.0
C292 C 0.07472 0.38094 0.48973 0.0
C293 C 0.09211 0.35385 0.48493 0.0
C294 C 0.07272 0.32132 0.47348 0.0
C295 C 1.03594 0.31591 0.4667 0.0
H296 H 0.1206 0.35802 0.49013 0.0
H297 H 0.76316 0.30813 0.4266 0.0
H298 H 0.52139 0.6584 0.85253 0.0
H299 H 0.51913 0.72511 0.84967 0.0
H300 H 0.62134 0.75952 0.81824 0.0
H301 H 0.62416 0.69313 0.82145 0.0
H302 H 0.62231 0.80953 0.84709 0.0
H303 H 0.53414 0.74552 0.7912 0.0
H304 H 0.47881 0.69774 0.77631 0.0
H305 H 0.41186 0.74038 0.81502 0.0
H306 H 0.46685 0.78757 0.83073 0.0
H307 H 0.62422 0.99155 0.79947 0.0
H308 H 0.62182 0.92378 0.80633 0.0
H309 H 0.52045 0.90326 0.83767 0.0
H310 H 0.52233 0.9711 0.82994 0.0
H311 H 0.51598 0.84595 0.8117 0.0
H312 H 0.60169 0.90951 0.86728 0.0
H313 H 0.6559 0.95808 0.88274 0.0
H314 H 0.72569 0.91682 0.84538 0.0
H315 H 0.67183 0.86834 0.82944 0.0
C316 C 0.54346 0.68015 0.84504 0.0
C317 C 0.57298 0.67026 0.83721 0.0
C318 C 0.54201 0.71835 0.84331 0.0
C319 C 0.56983 0.74748 0.83347 0.0
C320 C 0.5995 0.73769 0.82589 0.0
C321 C 0.60108 0.6996 0.82773 0.0
C322 C 0.56857 0.78827 0.83124 0.0
C323 C 0.59917 0.81743 0.83911 0.0
C324 C 0.53784 0.79872 0.82157 0.0
C325 C 0.50476 0.76981 0.81237 0.0
C326 C 0.50769 0.74439 0.79678 0.0
C327 C 0.47635 0.71741 0.78818 0.0
C328 C 0.44184 0.71593 0.79479 0.0
C329 C 0.43861 0.74143 0.81001 0.0
C330 C 0.46987 0.76822 0.81881 0.0
C331 C 0.60134 0.97245 0.80766 0.0
C332 C 0.57336 0.98636 0.81409 0.0
C333 C 0.60013 0.93381 0.81181 0.0
C334 C 0.57114 0.9083 0.82275 0.0
C335 C 0.54314 0.92227 0.82924 0.0
C336 C 0.54433 0.961 0.82501 0.0
C337 C 0.57001 0.86707 0.82713 0.0
C338 C 0.53898 0.83792 0.81976 0.0
C339 C 0.60017 0.85649 0.8374 0.0
C340 C 0.63267 0.88548 0.84703 0.0
C341 C 0.62857 0.91096 0.86224 0.0
C342 C 0.65924 0.93846 0.87111 0.0
C343 C 0.69421 0.94058 0.86502 0.0
C344 C 0.69858 0.91516 0.85008 0.0
C345 C 0.66799 0.88764 0.84114 0.0
H346 H 0.71792 0.96189 0.8719 0.0
H347 H 0.41761 0.69504 0.78812 0.0
H348 H 0.91133 0.57149 0.15345 0.0
H349 H 0.84711 0.57167 0.15259 0.0
H350 H 0.8132 0.4601 0.12465 0.0
H351 H 0.87742 0.45989 0.12552 0.0
H352 H 0.77004 0.49782 0.10531 0.0
H353 H 0.80015 0.48093 0.18131 0.0
H354 H 0.83531 0.49709 0.2163 0.0
H355 H 0.81211 0.606 0.21382 0.0
H356 H 0.77718 0.59068 0.17865 0.0
H357 H 0.5769 0.45892 0.11563 0.0
H358 H 0.64109 0.4595 0.11874 0.0
H359 H 0.66964 0.56598 0.15204 0.0
H360 H 0.60451 0.56464 0.14935 0.0
H361 H 0.71626 0.53266 0.16867 0.0
H362 H 0.68817 0.55231 0.0933 0.0
H363 H 0.65414 0.53921 0.05785 0.0
H364 H 0.6748 0.42918 0.05823 0.0
H365 H 0.7089 0.44163 0.09385 0.0
C366 C 0.89044 0.54674 0.14713 0.0
C367 C 0.90106 0.51564 0.13961 0.0
C368 C 0.85291 0.54672 0.14676 0.0
C369 C 0.82339 0.51564 0.13879 0.0
C370 C 0.8341 0.48482 0.131 0.0
C371 C 0.87158 0.48467 0.13156 0.0
C372 C 0.78214 0.51528 0.13832 0.0
C373 C 0.75857 0.50497 0.11943 0.0
C374 C 0.76548 0.52556 0.15613 0.0
C375 C 0.78638 0.53482 0.17725 0.0
C376 C 0.80277 0.50844 0.18815 0.0
C377 C 0.82262 0.51743 0.20803 0.0
C378 C 0.82603 0.5526 0.21725 0.0
C379 C 0.8095 0.5788 0.20664 0.0
C380 C 0.78965 0.56997 0.18674 0.0
C381 C 0.5966 0.48255 0.12375 0.0
C382 C 0.58422 0.51162 0.13221 0.0
C383 C 0.6342 0.48319 0.12534 0.0
C384 C 0.66241 0.51343 0.13511 0.0
C385 C 0.64985 0.54204 0.14422 0.0
C386 C 0.61192 0.54123 0.14278 0.0
C387 C 0.70404 0.51497 0.13567 0.0
C388 C 0.72769 0.52549 0.15455 0.0
C389 C 0.72096 0.50531 0.11776 0.0
C390 C 0.70075 0.49773 0.09633 0.0
C391 C 0.68528 0.52523 0.08588 0.0
C392 C 0.66597 0.5179 0.06574 0.0
C393 C 0.66209 0.48325 0.05581 0.0
C394 C 0.67774 0.45596 0.06596 0.0
C395 C 0.69713 0.46316 0.08611 0.0
H396 H 0.64709 0.47755 0.04022 0.0
H397 H 0.8414 0.5595 0.23264 0.0
H398 H 0.34749 0.86848 0.5028 0.0
H399 H 0.29912 0.80906 0.495 0.0
H400 H 0.38027 0.75347 0.4823 0.0
H401 H 0.42873 0.81338 0.48893 0.0
H402 H 0.32644 0.73833 0.45199 0.0
H403 H 0.33411 0.73518 0.53018 0.0
H404 H 0.33432 0.76095 0.56622 0.0
H405 H 0.22537 0.76901 0.55149 0.0
H406 H 0.22468 0.74375 0.51525 0.0
H407 H 0.20677 0.55147 0.44431 0.0
H408 H 0.25621 0.6055 0.45904 0.0
H409 H 0.17668 0.66327 0.47189 0.0
H410 H 0.1273 0.60831 0.45786 0.0
H411 H 0.23022 0.67622 0.50313 0.0
H412 H 0.223 0.68288 0.42494 0.0
H413 H 0.22169 0.65775 0.3886 0.0
H414 H 0.32897 0.64468 0.40293 0.0
H415 H 0.33072 0.66926 0.43947 0.0
C416 C 0.35508 0.84375 0.49814 0.0
C417 C 0.39205 0.84575 0.49648 0.0
C418 C 0.32738 0.80962 0.49398 0.0
C419 C 0.3361 0.77663 0.4884 0.0
C420 C 0.37293 0.77852 0.48671 0.0
C421 C 0.40063 0.81272 0.4907 0.0
C422 C 0.3068 0.74054 0.48352 0.0
C423 C 0.30578 0.72441 0.46334 0.0
C424 C 0.27921 0.72299 0.49807 0.0
C425 C 0.27947 0.73786 0.51994 0.0
C426 C 0.31029 0.74268 0.53458 0.0
C427 C 0.31048 0.75716 0.55505 0.0
C428 C 0.27991 0.76669 0.56112 0.0
C429 C 0.24904 0.76165 0.54676 0.0
C430 C 0.24872 0.7472 0.52626 0.0
C431 C 0.20011 0.57549 0.45073 0.0
C432 C 0.16371 0.57629 0.45001 0.0
C433 C 0.22816 0.60632 0.459 0.0
C434 C 0.22017 0.63879 0.46611 0.0
C435 C 0.18346 0.63858 0.46643 0.0
C436 C 0.15537 0.6074 0.45846 0.0
C437 C 0.2501 0.67398 0.4717 0.0
C438 C 0.2511 0.69003 0.4919 0.0
C439 C 0.27759 0.69168 0.45713 0.0
C440 C 0.27686 0.67759 0.435 0.0
C441 C 0.24624 0.67447 0.42037 0.0
C442 C 0.24542 0.66034 0.39974 0.0
C443 C 0.27518 0.64954 0.39348 0.0
C444 C 0.30591 0.65301 0.40781 0.0
C445 C 0.30685 0.66708 0.42847 0.0
H446 H 0.27447 0.63855 0.37751 0.0
H447 H 0.28012 0.77792 0.57697 0.0
H448 H 0.60684 0.43825 0.86485 0.0
H449 H 0.60724 0.37119 0.86437 0.0
H450 H 0.53577 0.35589 0.80603 0.0
H451 H 0.53339 0.42227 0.80742 0.0
H452 H 0.5155 0.29503 0.82739 0.0
H453 H 0.63469 0.36896 0.80823 0.0
H454 H 0.69587 0.41658 0.81061 0.0
H455 H 0.72288 0.36108 0.8702 0.0
H456 H 0.66172 0.31341 0.86831 0.0
H457 H 0.62504 0.15374 0.80216 0.0
H458 H 0.62376 0.21847 0.80927 0.0
H459 H 0.53074 0.17014 0.84829 0.0
H460 H 0.53001 0.10498 0.83912 0.0
H461 H 0.63258 0.26231 0.83832 0.0
H462 H 0.4768 0.22859 0.84788 0.0
H463 H 0.41888 0.18111 0.83588 0.0
H464 H 0.46891 0.15967 0.77992 0.0
H465 H 0.52694 0.20733 0.79146 0.0
C466 C 0.59112 0.42049 0.85196 0.0
C467 C 0.57016 0.43554 0.83613 0.0
C468 C 0.59159 0.38213 0.85159 0.0
C469 C 0.57219 0.35827 0.83489 0.0
C470 C 0.55097 0.37336 0.81915 0.0
C471 C 0.54968 0.41142 0.81989 0.0
C472 C 0.57386 0.31772 0.83382 0.0
C473 C 0.54121 0.28803 0.82976 0.0
C474 C 0.6073 0.30811 0.83652 0.0
C475 C 0.64347 0.33784 0.83825 0.0
C476 C 0.65351 0.3672 0.82198 0.0
C477 C 0.68823 0.39412 0.8232 0.0
C478 C 0.71323 0.39182 0.84054 0.0
C479 C 0.70348 0.36281 0.85678 0.0
C480 C 0.6688 0.33584 0.85564 0.0
C481 C 0.60421 0.15702 0.81216 0.0
C482 C 0.57704 0.12446 0.8196 0.0
C483 C 0.60367 0.19411 0.81645 0.0
C484 C 0.57655 0.1997 0.82891 0.0
C485 C 0.55122 0.16694 0.83799 0.0
C486 C 0.55112 0.12964 0.8331 0.0
C487 C 0.57438 0.23976 0.83141 0.0
C488 C 0.60689 0.26933 0.83598 0.0
C489 C 0.54114 0.2496 0.82786 0.0
C490 C 0.50629 0.22115 0.82069 0.0
C491 C 0.47538 0.21379 0.833 0.0
C492 C 0.44255 0.18685 0.82627 0.0
C493 C 0.44026 0.16728 0.80719 0.0
C494 C 0.47075 0.17474 0.79474 0.0
C495 C 0.50362 0.20169 0.80137 0.0
H496 H 0.41483 0.14641 0.80203 0.0
H497 H 0.74025 0.41238 0.84135 0.0
H498 H 0.5653 0.88414 0.54002 0.0
H499 H 0.56508 0.8167 0.54392 0.0
H500 H 0.67154 0.84677 0.51773 0.0
H501 H 0.67205 0.91444 0.51377 0.0
H502 H 0.62625 0.78086 0.50052 0.0
H503 H 0.6648 0.82882 0.57073 0.0
H504 H 0.66334 0.86166 0.60423 0.0
H505 H 0.56038 0.77941 0.61799 0.0
H506 H 0.5609 0.74639 0.58432 0.0
H507 H 0.66164 0.60157 0.53507 0.0
H508 H 0.66589 0.6704 0.52996 0.0
H509 H 0.55798 0.64736 0.55345 0.0
H510 H 0.55341 0.5786 0.55794 0.0
H511 H 0.60727 0.71063 0.57212 0.0
H512 H 0.57049 0.66336 0.50018 0.0
H513 H 0.57616 0.63064 0.46739 0.0
H514 H 0.68102 0.71266 0.45773 0.0
H515 H 0.67623 0.74554 0.49069 0.0
C516 C 0.58871 0.87653 0.53504 0.0
C517 C 0.61878 0.90495 0.52665 0.0
C518 C 0.58858 0.83786 0.53736 0.0
C519 C 0.61844 0.82656 0.5313 0.0
C520 C 0.64819 0.8547 0.52254 0.0
C521 C 0.64848 0.89347 0.52036 0.0
C522 C 0.61862 0.78547 0.53431 0.0
C523 C 0.62259 0.76568 0.51624 0.0
C524 C 0.61351 0.76536 0.55476 0.0
C525 C 0.6127 0.78537 0.57487 0.0
C526 C 0.64163 0.81797 0.58076 0.0
C527 C 0.64102 0.83657 0.5998 0.0
C528 C 0.61177 0.82266 0.6132 0.0
C529 C 0.583 0.79017 0.60756 0.0
C530 C 0.58344 0.77148 0.5885 0.0
C531 C 0.6387 0.61122 0.53882 0.0
C532 C 0.60713 0.58474 0.54681 0.0
C533 C 0.64118 0.65054 0.53601 0.0
C534 C 0.61216 0.66415 0.54122 0.0
C535 C 0.58078 0.63769 0.54938 0.0
C536 C 0.57821 0.59843 0.552 0.0
C537 C 0.61438 0.7059 0.53829 0.0
C538 C 0.61093 0.72583 0.5564 0.0
C539 C 0.62039 0.7262 0.51793 0.0
C540 C 0.62317 0.70666 0.49803 0.0
C541 C 0.59489 0.67423 0.49117 0.0
C542 C 0.59793 0.65569 0.47253 0.0
C543 C 0.62897 0.6695 0.46052 0.0
C544 C 0.65701 0.70196 0.46708 0.0
C545 C 0.65415 0.72057 0.48573 0.0
H546 H 0.63127 0.6551 0.44609 0.0
H547 H 0.61155 0.83698 0.62799 0.0
H548 H 0.79962 0.49095 0.83254 0.0
H549 H 0.85024 0.476 0.8178 0.0
H550 H 0.8023 0.48398 0.75275 0.0
H551 H 0.75168 0.5008 0.7677 0.0
H552 H 0.87294 0.43326 0.79403 0.0
H553 H 0.86779 0.52746 0.72162 0.0
H554 H 0.83539 0.57263 0.70477 0.0
H555 H 0.83018 0.61511 0.76745 0.0
H556 H 0.86279 0.57038 0.78457 0.0
H557 H 0.06034 0.522 0.8123 0.0
H558 H 1.00998 0.49245 0.78579 0.0
H559 H 0.95812 0.57948 0.79779 0.0
H560 H 1.00932 0.6096 0.82293 0.0
H561 H 0.93879 0.55829 0.75886 0.0
H562 H 0.94401 0.48439 0.83133 0.0
H563 H 0.97521 0.44698 0.85648 0.0
H564 H 0.97887 0.37465 0.80475 0.0
H565 H 0.94772 0.41178 0.77935 0.0
C566 C 0.79908 0.48826 0.81515 0.0
C567 C 0.77227 0.49802 0.80123 0.0
C568 C 0.82809 0.47943 0.80665 0.0
C569 C 0.83074 0.47986 0.78405 0.0
C570 C 0.80138 0.48449 0.7702 0.0
C571 C 0.77255 0.49415 0.77873 0.0
C572 C 0.86732 0.484 0.77597 0.0
C573 C 0.88732 0.45992 0.78562 0.0
C574 C 0.88621 0.51819 0.76448 0.0
C575 C 0.86736 0.54554 0.7543 0.0
C576 C 0.85979 0.54657 0.73173 0.0
C577 C 0.84141 0.57204 0.72216 0.0
C578 C 0.83067 0.59667 0.73504 0.0
C579 C 0.83849 0.59603 0.7575 0.0
C580 C 0.85698 0.57072 0.76713 0.0
C581 C 1.03864 0.53527 0.80843 0.0
C582 C 1.03805 0.56771 0.8194 0.0
C583 C 1.00989 0.51841 0.79347 0.0
C584 C 0.97975 0.53315 0.79006 0.0
C585 C 0.98099 0.5675 0.79991 0.0
C586 C 1.01001 0.58469 0.81438 0.0
C587 C 0.94419 0.51042 0.77981 0.0
C588 C 0.92453 0.53027 0.76592 0.0
C589 C 0.92555 0.4733 0.78836 0.0
C590 C 0.94397 0.45092 0.8035 0.0
C591 C 0.95155 0.4605 0.82539 0.0
C592 C 0.96922 0.43941 0.83965 0.0
C593 C 0.97913 0.40855 0.83219 0.0
C594 C 0.97126 0.39862 0.81048 0.0
C595 C 0.9536 0.41965 0.79615 0.0
H596 H 0.99284 0.39227 0.84325 0.0
H597 H 0.81635 0.61627 0.7276 0.0
H598 H 0.17384 0.7938 0.16769 0.0
H599 H 0.2321 0.84092 0.1776 0.0
H600 H 0.28574 0.75148 0.18101 0.0
H601 H 0.22722 0.70375 0.17238 0.0
H602 H 0.30974 0.79598 0.2138 0.0
H603 H 0.29186 0.81877 0.13673 0.0
H604 H 0.2584 0.8328 0.10306 0.0
H605 H 0.25703 0.9403 0.12775 0.0
H606 H 0.29009 0.92668 0.16169 0.0
H607 H 0.49187 0.91461 0.21702 0.0
H608 H 0.43396 0.86951 0.20354 0.0
H609 H 0.38166 0.95988 0.20308 0.0
H610 H 0.44021 0.0051 0.2159 0.0
H611 H 0.35684 0.91585 0.16866 0.0
H612 H 0.37523 0.89336 0.24552 0.0
H613 H 0.40997 0.88013 0.27883 0.0
H614 H 0.41039 0.77204 0.25449 0.0
H615 H 0.37625 0.78496 0.22083 0.0
C616 C 0.19788 0.78395 0.17082 0.0
C617 C 0.19566 0.74483 0.16913 0.0
C618 C 0.23136 0.81112 0.17621 0.0
C619 C 0.26355 0.79996 0.17968 0.0
C620 C 0.26137 0.7609 0.17827 0.0
C621 C 0.22786 0.73365 0.1731 0.0
C622 C 0.29942 0.82879 0.18506 0.0
C623 C 0.32021 0.82191 0.20374 0.0
C624 C 0.31281 0.8632 0.17229 0.0
C625 C 0.29315 0.87154 0.15183 0.0
C626 C 0.2842 0.84528 0.13503 0.0
C627 C 0.26535 0.85318 0.11589 0.0
C628 C 0.25552 0.88738 0.11329 0.0
C629 C 0.26463 0.91381 0.1298 0.0
C630 C 0.28345 0.90603 0.14898 0.0
C631 C 0.46802 0.92471 0.21358 0.0
C632 C 0.47001 0.96293 0.21731 0.0
C633 C 0.43499 0.89907 0.20607 0.0
C634 C 0.40324 0.9111 0.20269 0.0
C635 C 0.40573 0.94991 0.20561 0.0
C636 C 0.43897 0.97567 0.21289 0.0
C637 C 0.36717 0.88278 0.19725 0.0
C638 C 0.34632 0.88985 0.17866 0.0
C639 C 0.35367 0.84853 0.21011 0.0
C640 C 0.37342 0.84027 0.23058 0.0
C641 C 0.38288 0.86685 0.24722 0.0
C642 C 0.40248 0.85941 0.26616 0.0
C643 C 0.41242 0.82529 0.26876 0.0
C644 C 0.40269 0.79847 0.25245 0.0
C645 C 0.3832 0.80583 0.23344 0.0
H646 H 0.42762 0.81959 0.28343 0.0
H647 H 0.24091 0.89343 0.09846 0.0
H648 H 0.56454 0.13035 0.5077 0.0
H649 H 0.56402 0.1973 0.50862 0.0
H650 H 0.6772 0.23037 0.53264 0.0
H651 H 0.67772 0.16326 0.53221 0.0
H652 H 0.64037 0.26398 0.55486 0.0
H653 H 0.64972 0.25116 0.4791 0.0
H654 H 0.63248 0.22156 0.4435 0.0
H655 H 0.52727 0.24132 0.44297 0.0
H656 H 0.54366 0.27053 0.47873 0.0
H657 H 0.66592 0.46529 0.54263 0.0
H658 H 0.67165 0.40176 0.53471 0.0
H659 H 0.55502 0.36068 0.52014 0.0
H660 H 0.54958 0.4242 0.5283 0.0
H661 H 0.59594 0.33281 0.49184 0.0
H662 H 0.58587 0.34207 0.56845 0.0
H663 H 0.60331 0.37199 0.60395 0.0
H664 H 0.71103 0.35924 0.60232 0.0
H665 H 0.69436 0.32966 0.56665 0.0
C666 C 0.58943 0.15183 0.51308 0.0
C667 C 0.62119 0.14121 0.51986 0.0
C668 C 0.58914 0.19028 0.5135 0.0
C669 C 0.62071 0.21924 0.52044 0.0
C670 C 0.65247 0.20872 0.52719 0.0
C671 C 0.65273 0.17023 0.52688 0.0
C672 C 0.62028 0.26019 0.52129 0.0
C673 C 0.63125 0.27914 0.54092 0.0
C674 C 0.60766 0.28003 0.5033 0.0
C675 C 0.59782 0.26275 0.4817 0.0
C676 C 0.62281 0.24896 0.47147 0.0
C677 C 0.6132 0.23227 0.45125 0.0
C678 C 0.57877 0.22949 0.44101 0.0
C679 C 0.55391 0.24346 0.45094 0.0
C680 C 0.56336 0.26012 0.47118 0.0
C681 C 0.64183 0.4429 0.5371 0.0
C682 C 0.60742 0.44944 0.53574 0.0
C683 C 0.64499 0.40662 0.53275 0.0
C684 C 0.6137 0.3763 0.52696 0.0
C685 C 0.57954 0.38359 0.52447 0.0
C686 C 0.5764 0.41977 0.52903 0.0
C687 C 0.61612 0.33632 0.52533 0.0
C688 C 0.60538 0.3176 0.50564 0.0
C689 C 0.62904 0.31666 0.54322 0.0
C690 C 0.63899 0.33403 0.56478 0.0
C691 C 0.61336 0.3459 0.57559 0.0
C692 C 0.62309 0.36275 0.59575 0.0
C693 C 0.65829 0.36763 0.60535 0.0
C694 C 0.68379 0.35551 0.59484 0.0
C695 C 0.67421 0.33866 0.57466 0.0
H696 H 0.66578 0.38071 0.62095 0.0
H697 H 0.5714 0.21662 0.42535 0.0
H698 H 0.33737 0.61726 0.81434 0.0
H699 H 0.30238 0.65915 0.82398 0.0
H700 H 0.39218 0.71887 0.86745 0.0
H701 H 0.42728 0.67607 0.85792 0.0
H702 H 0.33343 0.69683 0.88837 0.0
H703 H 0.35965 0.77265 0.82667 0.0
H704 H 0.37484 0.79212 0.78883 0.0
H705 H 0.2667 0.72713 0.76625 0.0
H706 H 0.25101 0.70648 0.80385 0.0
H707 H 0.12788 0.69516 0.85478 0.0
H708 H 0.19165 0.73592 0.85942 0.0
H709 H 0.22327 0.6362 0.88507 0.0
H710 H 0.16013 0.59666 0.88089 0.0
H711 H 0.24069 0.73062 0.83708 0.0
H712 H 0.29699 0.64816 0.91157 0.0
H713 H 0.28376 0.63291 0.94998 0.0
H714 H 0.23128 0.72241 0.94905 0.0
H715 H 0.24474 0.73882 0.91069 0.0
C716 C 0.34993 0.63989 0.82557 0.0
C717 C 0.38469 0.64325 0.83557 0.0
C718 C 0.33017 0.66426 0.83089 0.0
C719 C 0.34479 0.69262 0.84629 0.0
C720 C 0.38046 0.69743 0.85544 0.0
C721 C 0.40043 0.67304 0.84998 0.0
C722 C 0.31984 0.71154 0.85516 0.0
C723 C 0.31343 0.70511 0.87733 0.0
C724 C 0.29537 0.72556 0.8411 0.0
C725 C 0.30404 0.73826 0.81825 0.0
C726 C 0.33907 0.76243 0.81366 0.0
C727 C 0.3478 0.77364 0.79221 0.0
C728 C 0.32171 0.76099 0.77515 0.0
C729 C 0.28683 0.73707 0.7795 0.0
C730 C 0.27796 0.72569 0.80091 0.0
C731 C 0.14858 0.68266 0.8621 0.0
C732 C 0.13964 0.64295 0.86733 0.0
C733 C 0.18486 0.70584 0.86482 0.0
C734 C 0.21254 0.68943 0.87274 0.0
C735 C 0.20267 0.6502 0.87956 0.0
C736 C 0.16654 0.62732 0.87702 0.0
C737 C 0.25176 0.70958 0.86952 0.0
C738 C 0.26122 0.72416 0.84847 0.0
C739 C 0.2795 0.70438 0.88482 0.0
C740 C 0.27217 0.69498 0.90815 0.0
C741 C 0.28314 0.66508 0.91957 0.0
C742 C 0.27541 0.65607 0.94135 0.0
C743 C 0.25674 0.67671 0.95196 0.0
C744 C 0.24575 0.70643 0.94081 0.0
C745 C 0.25339 0.71558 0.91903 0.0
H746 H 0.25075 0.66964 0.96881 0.0
H747 H 0.32853 0.76966 0.75856 0.0
H748 H 0.88214 0.23989 0.18741 0.0
H749 H 0.8286 0.19195 0.20159 0.0
H750 H 0.76177 0.26632 0.1813 0.0
H751 H 0.81511 0.31431 0.16697 0.0
H752 H 0.746 0.23418 0.22143 0.0
H753 H 0.76062 0.18986 0.15158 0.0
H754 H 0.79413 0.17019 0.12401 0.0
H755 H 0.81018 0.07863 0.16722 0.0
H756 H 0.77717 0.09811 0.19519 0.0
H757 H 0.56752 0.10202 0.21617 0.0
H758 H 0.6262 0.14916 0.20797 0.0
H759 H 0.68333 0.06864 0.23415 0.0
H760 H 0.62436 0.02149 0.24229 0.0
H761 H 0.70668 0.10184 0.19382 0.0
H762 H 0.68734 0.14232 0.26249 0.0
H763 H 0.65242 0.16075 0.2897 0.0
H764 H 0.6449 0.2587 0.2491 0.0
H765 H 0.67916 0.24042 0.22139 0.0
C766 C 0.85601 0.24597 0.18582 0.0
C767 C 0.85294 0.28091 0.17591 0.0
C768 C 0.82543 0.21856 0.19401 0.0
C769 C 0.79105 0.22534 0.19233 0.0
C770 C 0.78802 0.26048 0.18285 0.0
C771 C 0.81859 0.28793 0.17469 0.0
C772 C 0.75802 0.19553 0.19998 0.0
C773 C 0.73722 0.20537 0.21524 0.0
C774 C 0.74707 0.15754 0.19238 0.0
C775 C 0.76678 0.14571 0.17556 0.0
C776 C 0.77155 0.16573 0.15527 0.0
C777 C 0.7904 0.15458 0.13956 0.0
C778 C 0.80437 0.12325 0.14388 0.0
C779 C 0.7994 0.10293 0.16391 0.0
C780 C 0.78061 0.114 0.17969 0.0
C781 C 0.59271 0.09464 0.22017 0.0
C782 C 0.59176 0.0584 0.22978 0.0
C783 C 0.62613 0.12149 0.21561 0.0
C784 C 0.65914 0.11245 0.22053 0.0
C785 C 0.65819 0.07619 0.23023 0.0
C786 C 0.6247 0.04945 0.23497 0.0
C787 C 0.69446 0.14068 0.21501 0.0
C788 C 0.71566 0.13055 0.20016 0.0
C789 C 0.70577 0.17834 0.22301 0.0
C790 C 0.68558 0.1898 0.23976 0.0
C791 C 0.678 0.16762 0.25926 0.0
C792 C 0.65834 0.17806 0.2748 0.0
C793 C 0.6464 0.21084 0.27112 0.0
C794 C 0.65415 0.2333 0.25191 0.0
C795 C 0.67371 0.22292 0.23629 0.0
H796 H 0.63119 0.21889 0.28316 0.0
H797 H 0.81895 0.11466 0.1317 0.0
H798 H 1.03621 0.4727 0.06988 0.0
H799 H 0.05065 0.48639 0.03184 0.0
H800 H 1.0308 0.59699 0.03385 0.0
H801 H 1.01571 0.58333 0.07177 0.0
H802 H 1.00174 0.5628 -0.00298 0.0
H803 H 0.11769 0.58938 0.03731 0.0
H804 H 0.16419 0.57526 0.06364 0.0
H805 H 0.16813 0.48145 0.02579 0.0
H806 H 0.12118 0.49461 -0.0006 0.0
H807 H 0.08296 0.64304 0.89962 0.0
H808 H 0.07696 0.63386 0.93906 0.0
H809 H 0.08324 0.51758 0.93623 0.0
H810 H 0.08938 0.52704 0.8968 0.0
H811 H 0.12099 0.55653 0.97359 0.0
H812 H 1.00323 0.52915 0.93416 0.0
H813 H 0.95738 0.54423 0.90772 0.0
H814 H 0.95775 0.6411 0.94435 0.0
H815 H 1.00417 0.62699 0.97081 0.0
C816 C 1.03463 0.49983 0.0622 0.0
C817 C 1.02493 0.52698 0.0739 0.0
C818 C 1.04313 0.5077 0.04049 0.0
C819 C 1.04242 0.543 0.03012 0.0
C820 C 1.03167 0.56964 0.04156 0.0
C821 C 1.02305 0.56176 0.06325 0.0
C822 C 0.05307 0.55226 0.00739 0.0
C823 C 1.02803 0.56196 0.99199 0.0
C824 C 0.08715 0.55054 0.00074 0.0
C825 C 0.11564 0.54276 0.01648 0.0
C826 C 0.12826 0.56556 0.03468 0.0
C827 C 0.15473 0.55775 0.04961 0.0
C828 C 0.16904 0.52742 0.04642 0.0
C829 C 0.15698 0.5049 0.02825 0.0
C830 C 0.13046 0.51254 0.0133 0.0
C831 C 0.08389 0.61594 0.90762 0.0
C832 C 0.08619 0.58555 0.89542 0.0
C833 C 0.08033 0.61063 0.93002 0.0
C834 C 0.07921 0.57487 0.94045 0.0
C835 C 0.08398 0.54533 0.92845 0.0
C836 C 0.08726 0.5506 0.90603 0.0
C837 C 0.06969 0.56708 0.96339 0.0
C838 C 0.09483 0.55755 0.97874 0.0
C839 C 1.03577 0.56907 0.97006 0.0
C840 C 1.00746 0.57726 0.95434 0.0
C841 C 0.99376 0.55385 0.93649 0.0
C842 C 0.96764 0.5622 0.92151 0.0
C843 C 0.95472 0.59366 0.92433 0.0
C844 C 0.96783 0.61677 0.94217 0.0
C845 C 0.99404 0.60861 0.95717 0.0
H846 H 0.93449 0.60008 0.91272 0.0
H847 H 0.18952 0.52142 0.05799 0.0
H848 H 0.65851 0.0896 0.45331 0.0
H849 H 0.6572 0.09528 0.41349 0.0
H850 H 0.59222 0.97634 0.41017 0.0
H851 H 0.59258 0.97065 0.44989 0.0
H852 H 0.65771 0.00576 0.38132 0.0
H853 H 0.54681 0.03329 0.40334 0.0
H854 H 0.51751 0.07084 0.42403 0.0
H855 H 0.57988 0.17564 0.39239 0.0
H856 H 0.60989 0.13868 0.37172 0.0
H857 H 0.56319 0.96053 0.28142 0.0
H858 H 0.58824 0.97172 0.31867 0.0
H859 H 0.60399 0.09396 0.30738 0.0
H860 H 0.57588 0.08195 0.27044 0.0
H861 H 0.57573 0.07544 0.34332 0.0
H862 H 0.67782 0.05211 0.31606 0.0
H863 H 0.71326 0.02073 0.29568 0.0
H864 H 0.67879 0.91811 0.33647 0.0
H865 H 0.64262 0.9486 0.35689 0.0
C866 C 0.64419 0.06458 0.44409 0.0
C867 C 0.6255 0.0297 0.45469 0.0
C868 C 0.6435 0.0679 0.42139 0.0
C869 C 0.6247 0.03619 0.40899 0.0
C870 C 0.60701 1.00104 0.41953 0.0
C871 C 0.60705 0.99792 0.44218 0.0
C872 C 0.62148 0.03995 0.38501 0.0
C873 C 0.63974 0.02081 0.37289 0.0
C874 C 0.59956 0.06132 0.37414 0.0
C875 C 0.58084 0.0833 0.38618 0.0
C876 C 0.55444 0.06436 0.40091 0.0
C877 C 0.53768 0.08553 0.41261 0.0
C878 C 0.54691 0.12562 0.40958 0.0
C879 C 0.5728 0.1446 0.39475 0.0
C880 C 0.58966 0.12356 0.38303 0.0
C881 C 0.57209 0.98974 0.28694 0.0
C882 C 0.56717 0.02028 0.27326 0.0
C883 C 0.58699 0.9963 0.30814 0.0
C884 C 0.59857 0.03382 0.31593 0.0
C885 C 0.5953 0.06474 0.30184 0.0
C886 C 0.5796 0.05798 0.28069 0.0
C887 C 0.61089 0.03981 0.33926 0.0
C888 C 0.59438 0.0609 0.35142 0.0
C889 C 0.63543 0.02119 0.35009 0.0
C890 C 0.65733 1.00264 0.33797 0.0
C891 C 0.67759 0.02276 0.32061 0.0
C892 C 0.69784 0.00513 0.30905 0.0
C893 C 0.69825 0.96744 0.31476 0.0
C894 C 0.67846 0.94732 0.33207 0.0
C895 C 0.65812 0.96479 0.34368 0.0
H896 H 0.71394 0.95384 0.30579 0.0
H897 H 0.53393 0.14196 0.41867 0.0
H898 H 0.63164 0.56674 0.76953 0.0
H899 H 0.63199 0.56836 0.72983 0.0
H900 H 0.51565 0.55259 0.72467 0.0
H901 H 0.51518 0.55205 0.76441 0.0
H902 H 0.54808 0.49846 0.70095 0.0
H903 H 0.55586 0.63201 0.71064 0.0
H904 H 0.58253 0.69535 0.72684 0.0
H905 H 0.6864 0.70386 0.70188 0.0
H906 H 0.66048 0.64023 0.68582 0.0
H907 H 0.53032 0.50861 0.58765 0.0
H908 H 0.5236 0.52256 0.62523 0.0
H909 H 0.63964 0.58027 0.6323 0.0
H910 H 0.64565 0.56753 0.59432 0.0
H911 H 0.60501 0.61506 0.65534 0.0
H912 H 0.60356 0.4844 0.64822 0.0
H913 H 0.58297 0.41963 0.63317 0.0
H914 H 0.47516 0.40319 0.65465 0.0
H915 H 0.49503 0.46806 0.66964 0.0
C916 C 0.60616 0.56383 0.75994 0.0
C917 C 0.57335 0.55923 0.77004 0.0
C918 C 0.60645 0.56489 0.73731 0.0
C919 C 0.57388 0.56069 0.72443 0.0
C920 C 0.54106 0.556 0.73442 0.0
C921 C 0.54086 0.55579 0.75706 0.0
C922 C 0.57404 0.55968 0.70055 0.0
C923 C 0.55985 0.52402 0.69086 0.0
C924 C 0.59075 0.59285 0.68767 0.0
C925 C 0.60632 0.63117 0.69722 0.0
C926 C 0.58449 0.6472 0.70879 0.0
C927 C 0.59944 0.6832 0.71791 0.0
C928 C 0.63616 0.70357 0.71544 0.0
C929 C 0.65797 0.68802 0.7038 0.0
C930 C 0.64315 0.65201 0.69467 0.0
C931 C 0.55401 0.52513 0.59719 0.0
C932 C 0.58843 0.53707 0.58842 0.0
C933 C 0.55033 0.53285 0.61862 0.0
C934 C 0.58129 0.55161 0.63179 0.0
C935 C 0.61539 0.56563 0.62252 0.0
C936 C 0.61888 0.55845 0.60092 0.0
C937 C 0.57864 0.55377 0.65554 0.0
C938 C 0.59272 0.58951 0.66529 0.0
C939 C 0.56263 0.52044 0.66863 0.0
C940 C 0.55068 0.48123 0.65986 0.0
C941 C 0.57541 0.46705 0.64962 0.0
C942 C 0.56388 0.43032 0.64112 0.0
C943 C 0.52775 0.40737 0.64288 0.0
C944 C 0.50312 0.42104 0.65325 0.0
C945 C 0.51451 0.45776 0.66179 0.0
H946 H 0.51887 0.37896 0.63626 0.0
H947 H 0.6477 0.73144 0.72251 0.0
H948 H 0.65055 0.98342 0.59625 0.0
H949 H 0.64261 0.97833 0.63549 0.0
H950 H 0.56596 0.04509 0.62621 0.0
H951 H 0.57345 0.05007 0.58719 0.0
H952 H 0.61947 0.07195 0.65827 0.0
H953 H 0.53506 0.95332 0.63592 0.0
H954 H 0.51402 0.88996 0.6193 0.0
H955 H 0.58557 0.84759 0.66433 0.0
H956 H 0.60787 0.91108 0.68084 0.0
H957 H 0.52456 0.99514 0.76304 0.0
H958 H 0.53195 0.98249 0.72517 0.0
H959 H 0.64735 0.04239 0.73313 0.0
H960 H 0.63943 0.05566 0.77059 0.0
H961 H 0.57312 0.94985 0.70173 0.0
H962 H 0.67151 0.10258 0.69199 0.0
H963 H 0.68514 0.16669 0.70753 0.0
H964 H 0.57345 0.1412 0.72426 0.0
H965 H 0.55933 0.07675 0.70911 0.0
C966 C 0.63204 0.99701 0.6026 0.0
C967 C 0.61275 0.0173 0.58864 0.0
C968 C 0.62735 0.99384 0.62497 0.0
C969 C 0.60359 0.01121 0.63368 0.0
C970 C 0.5844 0.03146 0.61977 0.0
C971 C 0.58872 0.03425 0.59747 0.0
C972 C 0.59977 0.01003 0.6574 0.0
C973 C 0.60957 0.04519 0.66776 0.0
C974 C 0.58625 0.97514 0.66969 0.0
C975 C 0.57355 0.9372 0.65943 0.0
C976 C 0.54678 0.93072 0.64206 0.0
C977 C 0.53455 0.89473 0.63269 0.0
C978 C 0.54854 0.86481 0.6407 0.0
C979 C 0.57484 0.87084 0.65809 0.0
C980 C 0.58735 0.90685 0.66743 0.0
C981 C 0.55156 1.00425 0.75676 0.0
C982 C 0.58154 0.02601 0.76945 0.0
C983 C 0.55582 0.99722 0.73522 0.0
C984 C 0.5901 0.01208 0.72626 0.0
C985 C 0.62058 0.03112 0.73962 0.0
C986 C 0.61621 0.03839 0.76099 0.0
C987 C 0.59338 0.01173 0.70253 0.0
C988 C 0.58348 0.97645 0.6922 0.0
C989 C 0.60611 0.04652 0.69005 0.0
C990 C 0.61449 0.08483 0.69959 0.0
C991 C 0.64993 0.11066 0.69906 0.0
C992 C 0.65775 0.14698 0.70785 0.0
C993 C 0.63022 0.15792 0.71699 0.0
C994 C 0.5948 0.13257 0.71733 0.0
C995 C 0.58692 0.09607 0.70876 0.0
H996 H 0.63629 0.18608 0.72373 0.0
H997 H 0.53891 0.83693 0.63348 0.0
H998 H 0.61707 0.59381 0.91149 0.0
H999 H 0.61579 0.58581 0.95105 0.0
H1000 H 0.5296 0.47859 0.94457 0.0
H1001 H 0.53003 0.48693 0.90511 0.0
H1002 H 0.51278 0.51936 0.97269 0.0
H1003 H 0.62034 0.48343 0.96133 0.0
H1004 H 0.68126 0.49067 0.94812 0.0
H1005 H 0.72729 0.59033 0.98633 0.0
H1006 H 0.66651 0.58405 -0.00047 0.0
H1007 H 0.5102 0.45058 0.08065 0.0
H1008 H 0.52514 0.45588 0.04244 0.0
H1009 H 0.59545 0.57153 0.05171 0.0
H1010 H 0.58027 0.56597 0.09005 0.0
H1011 H 0.62219 0.5283 0.02273 0.0
H1012 H 0.51267 0.56622 0.03093 0.0
H1013 H 0.45111 0.55855 0.04348 0.0
H1014 H 0.40965 0.45103 0.01171 0.0
H1015 H 0.47087 0.45835 -0.00126 0.0
C1016 C 0.59795 0.56845 0.9185 0.0
C1017 C 0.57357 0.54107 0.90513 0.0
C1018 C 0.59741 0.56378 0.94114 0.0
C1019 C 0.57286 0.53136 0.95086 0.0
C1020 C 0.54877 0.50386 0.9375 0.0
C1021 C 0.54906 0.50868 0.9149 0.0
C1022 C 0.57091 0.52682 0.97487 0.0
C1023 C 0.53671 0.52067 0.98355 0.0
C1024 C 0.60219 0.52955 0.98921 0.0
C1025 C 0.63875 0.53355 0.9812 0.0
C1026 C 0.64337 0.50713 0.96675 0.0
C1027 C 0.6779 0.51101 0.9593 0.0
C1028 C 0.70811 0.54102 0.96632 0.0
C1029 C 0.70386 0.56715 0.98086 0.0
C1030 C 0.66937 0.56344 0.98834 0.0
C1031 C 0.52965 0.47661 0.07458 0.0
C1032 C 0.54402 0.50795 0.08802 0.0
C1033 C 0.538 0.47976 0.05282 0.0
C1034 C 0.56082 0.51439 0.04417 0.0
C1035 C 0.57764 0.54464 0.05806 0.0
C1036 C 0.56921 0.54144 0.0799 0.0
C1037 C 0.56412 0.52001 0.02034 0.0
C1038 C 0.59842 0.52666 0.01178 0.0
C1039 C 0.53297 0.51741 0.00602 0.0
C1040 C 0.49633 0.51267 0.01404 0.0
C1041 C 0.49043 0.54088 0.02671 0.0
C1042 C 0.45558 0.5367 0.03378 0.0
C1043 C 0.42654 0.50424 0.02847 0.0
C1044 C 0.43219 0.4761 0.01586 0.0
C1045 C 0.46689 0.48035 0.00854 0.0
H1046 H 0.39964 0.50094 0.03407 0.0
H1047 H 0.73482 0.54395 0.96055 0.0
H1048 H 0.05684 0.56178 0.21359 0.0
H1049 H 0.06511 0.55365 0.25294 0.0
H1050 H 1.00212 0.43387 0.24971 0.0
H1051 H 0.99263 0.44218 0.2103 0.0
H1052 H 0.98659 0.46227 0.28456 0.0
H1053 H 0.09524 0.46006 0.25388 0.0
H1054 H 0.1469 0.48241 0.2302 0.0
H1055 H 0.18824 0.58645 0.26531 0.0
H1056 H 0.13619 0.5651 0.2889 0.0
H1057 H 0.12978 0.47319 0.38611 0.0
H1058 H 0.11023 0.45991 0.34787 0.0
H1059 H 1.02505 0.51455 0.35236 0.0
H1060 H 1.04359 0.52548 0.39084 0.0
H1061 H 0.11417 0.50679 0.31636 0.0
H1062 H 0.95661 0.48674 0.31454 0.0
H1063 H 0.90519 0.45685 0.33772 0.0
H1064 H 0.96333 0.38076 0.36785 0.0
H1065 H 1.01479 0.40965 0.34457 0.0
C1066 C 1.04456 0.53376 0.22125 0.0
C1067 C 1.02442 0.50252 0.20883 0.0
C1068 C 0.04936 0.52911 0.24375 0.0
C1069 C 1.03488 0.49293 0.25424 0.0
C1070 C 1.01365 0.462 0.24197 0.0
C1071 C 1.00836 0.46678 0.21944 0.0
C1072 C 1.0433 0.48729 0.27784 0.0
C1073 C 1.01445 0.47185 0.29157 0.0
C1074 C 0.07978 0.49837 0.28688 0.0
C1075 C 0.11163 0.51108 0.27306 0.0
C1076 C 0.11523 0.4878 0.25649 0.0
C1077 C 0.14461 0.50031 0.24307 0.0
C1078 C 0.17089 0.53586 0.24624 0.0
C1079 C 0.16785 0.55893 0.26287 0.0
C1080 C 0.1384 0.54664 0.27627 0.0
C1081 C 0.1063 0.48124 0.37887 0.0
C1082 C 0.08782 0.49994 0.39109 0.0
C1083 C 0.09525 0.47396 0.3571 0.0
C1084 C 0.06596 0.48598 0.34715 0.0
C1085 C 0.04707 0.50405 0.35968 0.0
C1086 C 0.05766 0.5105 0.38157 0.0
C1087 C 0.05735 0.48289 0.32334 0.0
C1088 C 0.08625 0.49673 0.30948 0.0
C1089 C 1.02104 0.46891 0.31421 0.0
C1090 C 0.98972 0.45062 0.32789 0.0
C1091 C 0.95832 0.46343 0.32598 0.0
C1092 C 0.92918 0.44669 0.33917 0.0
C1093 C 0.93103 0.41699 0.35428 0.0
C1094 C 0.96196 0.40383 0.35617 0.0
C1095 C 0.99113 0.4204 0.34299 0.0
H1096 H 0.90847 0.40414 0.36451 0.0
H1097 H 0.19361 0.54554 0.23582 0.0
loop_
_geom_bond_atom_site_label_1
_geom_bond_atom_site_label_2
_geom_bond_distance
_geom_bond_site_symmetry_2
_ccdc_geom_bond_type
Dy0 O3 2.307 1_455 S
Dy0 O5 2.395 . S
Dy0 O6 2.379 . S
Dy0 O8 2.339 . S
Dy0 O10 2.298 . S
Dy0 O14 2.275 . S
Dy0 C22 2.738 . S
Dy1 O4 2.298 . S
Dy1 O7 2.274 1_655 S
Dy1 O9 2.307 1_655 S
Dy1 O11 2.395 . S
Dy1 O12 2.379 . S
Dy1 O15 2.339 . S
Dy1 C31 2.738 . S
C2 O14 1.254 . S
C2 O15 1.257 1_455 S
O3 Dy0 2.307 1_655 S
O3 C13 1.266 . S
O4 Dy1 2.298 . S
O4 C13 1.236 . S
O5 Dy0 2.395 . S
O5 C22 1.255 . S
O6 Dy0 2.379 . S
O6 C22 1.249 . S
O7 Dy1 2.274 1_455 S
O7 C23 1.254 . S
O8 Dy0 2.339 . S
O8 C23 1.257 . S
O9 Dy1 2.307 1_455 S
O9 C24 1.266 . S
O10 Dy0 2.298 . S
O10 C24 1.236 . S
O11 Dy1 2.395 . S
O11 C31 1.255 . S
O12 Dy1 2.379 . S
O12 C31 1.249 . S
C13 O3 1.266 . S
C13 O4 1.236 . S
O14 Dy0 2.275 . S
O14 C2 1.254 . S
O15 Dy1 2.339 . S
O15 C2 1.257 1_655 S
C16 C19 1.344 . S
C16 C20 1.328 . S
C16 C22 1.516 . S
C17 C18 1.304 . S
C17 C21 1.323 . S
C18 C17 1.304 . S
C18 C19 1.371 . S
C18 H32 0.930 . S
C19 C16 1.344 . S
C19 C18 1.371 . S
C19 H33 0.931 . S
C20 C16 1.328 . S
C20 C21 1.433 . S
C20 H34 0.931 . S
C21 C17 1.323 . S
C21 C20 1.433 . S
C21 H35 0.933 . S
C22 Dy0 2.738 . S
C22 O5 1.255 . S
C22 O6 1.249 . S
C22 C16 1.516 . S
C23 O7 1.254 . S
C23 O8 1.257 . S
C24 O9 1.266 . S
C24 O10 1.236 . S
C25 C28 1.344 . S
C25 C29 1.328 . S
C25 C31 1.516 . S
C26 C27 1.304 . S
C26 C30 1.323 . S
C27 C26 1.304 . S
C27 C28 1.371 . S
C27 H36 0.930 . S
C28 C25 1.344 . S
C28 C27 1.371 . S
C28 H37 0.931 . S
C29 C25 1.328 . S
C29 C30 1.433 . S
C29 H38 0.931 . S
C30 C26 1.323 . S
C30 C29 1.433 . S
C30 H39 0.933 . S
C31 Dy1 2.738 . S
C31 O11 1.255 . S
C31 O12 1.249 . S
C31 C25 1.516 . S
H32 C18 0.930 . S
H33 C19 0.931 . S
H34 C20 0.931 . S
H35 C21 0.933 . S
H36 C27 0.930 . S
H37 C28 0.931 . S
H38 C29 0.931 . S
H39 C30 0.933 . S
Dy40 O43 2.307 1_565 S
Dy40 O45 2.395 . S
Dy40 O46 2.379 . S
Dy40 O48 2.339 1_565 S
Dy40 O50 2.298 . S
Dy40 O54 2.275 1_565 S
Dy40 C62 2.738 . S
Dy41 O44 2.298 . S
Dy41 O47 2.275 . S
Dy41 O49 2.307 1_545 S
Dy41 O51 2.395 . S
Dy41 O52 2.379 . S
Dy41 O55 2.339 . S
Dy41 C71 2.738 . S
C42 O54 1.254 . S
C42 O55 1.257 . S
O43 Dy40 2.307 1_545 S
O43 C53 1.266 . S
O44 Dy41 2.298 . S
O44 C53 1.236 . S
O45 Dy40 2.395 . S
O45 C62 1.255 . S
O46 Dy40 2.379 . S
O46 C62 1.249 . S
O47 Dy41 2.275 . S
O47 C63 1.254 . S
O48 Dy40 2.339 1_545 S
O48 C63 1.257 . S
O49 Dy41 2.307 1_565 S
O49 C64 1.266 . S
O50 Dy40 2.298 . S
O50 C64 1.236 . S
O51 Dy41 2.395 . S
O51 C71 1.255 . S
O52 Dy41 2.379 . S
O52 C71 1.249 . S
C53 O43 1.266 . S
C53 O44 1.236 . S
O54 Dy40 2.275 1_545 S
O54 C42 1.254 . S
O55 Dy41 2.339 . S
O55 C42 1.257 . S
C56 C59 1.344 . S
C56 C60 1.328 . S
C56 C62 1.516 . S
C57 C58 1.304 . S
C57 C61 1.323 . S
C58 C57 1.304 . S
C58 C59 1.371 . S
C58 H72 0.930 . S
C59 C56 1.344 . S
C59 C58 1.371 . S
C59 H73 0.931 . S
C60 C56 1.328 . S
C60 C61 1.433 . S
C60 H74 0.931 . S
C61 C57 1.323 . S
C61 C60 1.433 . S
C61 H75 0.933 . S
C62 Dy40 2.738 . S
C62 O45 1.255 . S
C62 O46 1.249 . S
C62 C56 1.516 . S
C63 O47 1.254 . S
C63 O48 1.257 . S
C64 O49 1.266 . S
C64 O50 1.236 . S
C65 C68 1.344 . S
C65 C69 1.328 . S
C65 C71 1.516 . S
C66 C67 1.304 . S
C66 C70 1.323 . S
C67 C66 1.304 . S
C67 C68 1.371 . S
C67 H76 0.930 . S
C68 C65 1.344 . S
C68 C67 1.371 . S
C68 H77 0.931 . S
C69 C65 1.328 . S
C69 C70 1.433 . S
C69 H78 0.931 . S
C70 C66 1.323 . S
C70 C69 1.433 . S
C70 H79 0.933 . S
C71 Dy41 2.738 . S
C71 O51 1.255 . S
C71 O52 1.249 . S
C71 C65 1.516 . S
H72 C58 0.930 . S
H73 C59 0.931 . S
H74 C60 0.931 . S
H75 C61 0.933 . S
H76 C67 0.930 . S
H77 C68 0.931 . S
H78 C69 0.931 . S
H79 C70 0.933 . S
Dy80 O83 2.307 . S
Dy80 O85 2.395 . S
Dy80 O86 2.379 . S
Dy80 O88 2.339 . S
Dy80 O90 2.298 . S
Dy80 O94 2.275 . S
Dy80 C102 2.738 . S
Dy81 O84 2.298 . S
Dy81 O87 2.275 . S
Dy81 O89 2.307 . S
Dy81 O91 2.395 . S
Dy81 O92 2.379 . S
Dy81 O95 2.339 . S
Dy81 C111 2.738 . S
C82 O94 1.254 . S
C82 O95 1.257 . S
O83 Dy80 2.307 . S
O83 C93 1.266 . S
O84 Dy81 2.298 . S
O84 C93 1.236 . S
O85 Dy80 2.395 . S
O85 C102 1.255 . S
O86 Dy80 2.379 . S
O86 C102 1.249 . S
O87 Dy81 2.275 . S
O87 C103 1.254 . S
O88 Dy80 2.339 . S
O88 C103 1.257 . S
O89 Dy81 2.307 . S
O89 C104 1.266 . S
O90 Dy80 2.298 . S
O90 C104 1.236 . S
O91 Dy81 2.395 . S
O91 C111 1.255 . S
O92 Dy81 2.379 . S
O92 C111 1.249 . S
C93 O83 1.266 . S
C93 O84 1.236 . S
O94 Dy80 2.275 . S
O94 C82 1.254 . S
O95 Dy81 2.339 . S
O95 C82 1.257 . S
C96 C99 1.344 . S
C96 C100 1.328 . S
C96 C102 1.516 . S
C97 C98 1.304 . S
C97 C101 1.323 . S
C98 C97 1.304 . S
C98 C99 1.371 . S
C98 H112 0.930 . S
C99 C96 1.344 . S
C99 C98 1.371 . S
C99 H113 0.931 . S
C100 C96 1.328 . S
C100 C101 1.433 . S
C100 H114 0.931 . S
C101 C97 1.323 . S
C101 C100 1.433 . S
C101 H115 0.933 . S
C102 Dy80 2.738 . S
C102 O85 1.255 . S
C102 O86 1.249 . S
C102 C96 1.516 . S
C103 O87 1.254 . S
C103 O88 1.257 . S
C104 O89 1.266 . S
C104 O90 1.236 . S
C105 C108 1.344 . S
C105 C109 1.328 . S
C105 C111 1.516 . S
C106 C107 1.304 . S
C106 C110 1.323 . S
C107 C106 1.304 . S
C107 C108 1.371 . S
C107 H116 0.930 . S
C108 C105 1.344 . S
C108 C107 1.371 . S
C108 H117 0.931 . S
C109 C105 1.328 . S
C109 C110 1.433 . S
C109 H118 0.931 . S
C110 C106 1.323 . S
C110 C109 1.433 . S
C110 H119 0.933 . S
C111 Dy81 2.738 . S
C111 O91 1.255 . S
C111 O92 1.249 . S
C111 C105 1.516 . S
H112 C98 0.930 . S
H113 C99 0.931 . S
H114 C100 0.931 . S
H115 C101 0.933 . S
H116 C107 0.930 . S
H117 C108 0.931 . S
H118 C109 0.931 . S
H119 C110 0.933 . S
C120 N121 1.317 . S
C120 N122 1.348 1_545 S
C120 C123 1.485 . S
N121 C120 1.317 . S
N121 N125 1.370 . S
N122 C120 1.348 1_565 S
N122 C124 1.346 . S
C123 C120 1.485 . S
C123 H127 0.960 . S
C123 H128 0.961 . S
C123 H129 0.960 . S
C124 N122 1.346 . S
C124 N125 1.307 1_565 S
C124 C126 1.486 . S
N125 N121 1.370 . S
N125 C124 1.307 1_545 S
C126 C124 1.486 . S
C126 H130 0.960 . S
C126 H131 0.960 . S
C126 H132 0.959 . S
H127 C123 0.960 . S
H128 C123 0.961 . S
H129 C123 0.960 . S
H130 C126 0.960 . S
H131 C126 0.960 . S
H132 C126 0.959 . S
C133 N134 1.317 . S
C133 N135 1.348 . S
C133 C136 1.485 . S
N134 C133 1.317 . S
N134 N138 1.370 . S
N135 C133 1.348 . S
N135 C137 1.346 . S
C136 C133 1.485 . S
C136 H140 0.960 . S
C136 H141 0.961 . S
C136 H142 0.960 . S
C137 N135 1.346 . S
C137 N138 1.307 . S
C137 C139 1.486 . S
N138 N134 1.370 . S
N138 C137 1.307 . S
C139 C137 1.486 . S
C139 H143 0.960 . S
C139 H144 0.960 . S
C139 H145 0.959 . S
H140 C136 0.960 . S
H141 C136 0.961 . S
H142 C136 0.960 . S
H143 C139 0.960 . S
H144 C139 0.960 . S
H145 C139 0.959 . S
C146 N147 1.317 . S
C146 N148 1.348 1_455 S
C146 C149 1.485 . S
N147 C146 1.317 . S
N147 N151 1.370 . S
N148 C146 1.348 1_655 S
N148 C150 1.346 . S
C149 C146 1.485 . S
C149 H153 0.960 . S
C149 H154 0.961 1_455 S
C149 H155 0.960 . S
C150 N148 1.346 . S
C150 N151 1.307 1_655 S
C150 C152 1.486 . S
N151 N147 1.370 . S
N151 C150 1.307 1_455 S
C152 C150 1.486 . S
C152 H156 0.960 . S
C152 H157 0.960 . S
C152 H158 0.959 . S
H153 C149 0.960 . S
H154 C149 0.961 1_655 S
H155 C149 0.960 . S
H156 C152 0.960 . S
H157 C152 0.960 . S
H158 C152 0.959 . S
C159 N160 1.317 . S
C159 N161 1.348 . S
C159 C162 1.485 . S
N160 C159 1.317 . S
N160 N164 1.370 . S
N161 C159 1.348 . S
N161 C163 1.346 . S
C162 C159 1.485 . S
C162 H166 0.960 . S
C162 H167 0.961 . S
C162 H168 0.960 . S
C163 N161 1.346 . S
C163 N164 1.307 . S
C163 C165 1.486 . S
N164 N160 1.370 . S
N164 C163 1.307 . S
C165 C163 1.486 . S
C165 H169 0.960 . S
C165 H170 0.960 . S
C165 H171 0.959 . S
H166 C162 0.960 . S
H167 C162 0.961 . S
H168 C162 0.960 . S
H169 C165 0.960 . S
H170 C165 0.960 . S
H171 C165 0.959 . S
C172 N173 1.317 . S
C172 N174 1.348 . S
C172 C175 1.485 . S
N173 C172 1.317 . S
N173 N177 1.370 . S
N174 C172 1.348 . S
N174 C176 1.346 . S
C175 C172 1.485 . S
C175 H179 0.960 . S
C175 H180 0.961 . S
C175 H181 0.960 . S
C176 N174 1.346 . S
C176 N177 1.307 . S
C176 C178 1.486 . S
N177 N173 1.370 . S
N177 C176 1.307 . S
C178 C176 1.486 . S
C178 H182 0.960 . S
C178 H183 0.960 . S
C178 H184 0.959 . S
H179 C175 0.960 . S
H180 C175 0.961 . S
H181 C175 0.960 . S
H182 C178 0.960 . S
H183 C178 0.960 . S
H184 C178 0.959 . S
C185 N186 1.317 . S
C185 N187 1.348 . S
C185 C188 1.485 . S
N186 C185 1.317 . S
N186 N190 1.370 . S
N187 C185 1.348 . S
N187 C189 1.346 . S
C188 C185 1.485 . S
C188 H192 0.960 . S
C188 H193 0.961 . S
C188 H194 0.960 . S
C189 N187 1.346 . S
C189 N190 1.307 . S
C189 C191 1.486 . S
N190 N186 1.370 . S
N190 C189 1.307 . S
C191 C189 1.486 . S
C191 H195 0.960 . S
C191 H196 0.960 . S
C191 H197 0.959 . S
H192 C188 0.960 . S
H193 C188 0.961 . S
H194 C188 0.960 . S
H195 C191 0.960 . S
H196 C191 0.960 . S
H197 C191 0.959 . S
H198 C216 0.951 . S
H199 C218 0.951 . S
H200 C220 0.950 . S
H201 C221 0.950 . S
H202 C223 0.950 . S
H203 C226 0.950 . S
H204 C227 0.950 . S
H205 C229 0.950 . S
H206 C230 0.950 . S
H207 C231 0.951 . S
H208 C233 0.951 . S
H209 C235 0.950 . S
H210 C236 0.950 . S
H211 C238 0.950 . S
H212 C241 0.950 . S
H213 C242 0.950 . S
H214 C244 0.950 . S
H215 C245 0.950 . S
C216 H198 0.951 . S
C216 C217 1.366 . S
C216 C218 1.388 . S
C217 C216 1.366 . S
C217 C221 1.385 . S
C218 H199 0.951 . S
C218 C216 1.388 . S
C218 C219 1.366 . S
C219 C218 1.366 . S
C219 C220 1.414 . S
C219 C222 1.499 . S
C220 H200 0.950 . S
C220 C219 1.414 . S
C220 C221 1.374 . S
C221 H201 0.950 . S
C221 C217 1.385 . S
C221 C220 1.374 . S
C222 C219 1.499 . S
C222 C223 1.373 . S
C222 C224 1.389 . S
C223 H202 0.950 . S
C223 C222 1.373 . S
C223 C239 1.377 . S
C224 C222 1.389 . S
C224 C225 1.524 . S
C224 C238 1.377 . S
C225 C224 1.524 . S
C225 C226 1.397 . S
C225 C230 1.363 . S
C226 H203 0.950 . S
C226 C225 1.397 . S
C226 C227 1.334 . S
C227 H204 0.950 . S
C227 C226 1.334 . S
C227 C228 1.287 . S
C228 C227 1.287 . S
C228 C229 1.524 . S
C228 H247 0.913 . S
C229 H205 0.950 . S
C229 C228 1.524 . S
C229 C230 1.415 . S
C230 H206 0.950 . S
C230 C225 1.363 . S
C230 C229 1.415 . S
C231 H207 0.951 . S
C231 C232 1.366 . S
C231 C233 1.388 . S
C232 C231 1.366 . S
C232 C236 1.385 . S
C233 H208 0.951 . S
C233 C231 1.388 . S
C233 C234 1.366 . S
C234 C233 1.366 . S
C234 C235 1.414 . S
C234 C237 1.499 . S
C235 H209 0.950 . S
C235 C234 1.414 . S
C235 C236 1.374 . S
C236 H210 0.950 . S
C236 C232 1.385 . S
C236 C235 1.374 . S
C237 C234 1.499 . S
C237 C238 1.373 . S
C237 C239 1.389 . S
C238 H211 0.950 . S
C238 C224 1.377 . S
C238 C237 1.373 . S
C239 C223 1.377 . S
C239 C237 1.389 . S
C239 C240 1.524 . S
C240 C239 1.524 . S
C240 C241 1.397 . S
C240 C245 1.363 . S
C241 H212 0.950 . S
C241 C240 1.397 . S
C241 C242 1.334 . S
C242 H213 0.950 . S
C242 C241 1.334 . S
C242 C243 1.287 . S
C243 C242 1.287 . S
C243 C244 1.524 . S
C243 H246 0.999 . S
C244 H214 0.950 . S
C244 C243 1.524 . S
C244 C245 1.415 . S
C245 H215 0.950 . S
C245 C240 1.363 . S
C245 C244 1.415 . S
H246 C243 0.999 . S
H247 C228 0.913 . S
H248 C266 0.951 . S
H249 C268 0.951 . S
H250 C270 0.950 . S
H251 C271 0.950 . S
H252 C273 0.950 . S
H253 C276 0.950 . S
H254 C277 0.950 . S
H255 C279 0.950 . S
H256 C280 0.950 . S
H257 C281 0.951 . S
H258 C283 0.951 . S
H259 C285 0.950 . S
H260 C286 0.950 . S
H261 C288 0.950 . S
H262 C291 0.950 . S
H263 C292 0.950 . S
H264 C294 0.950 . S
H265 C295 0.950 . S
C266 H248 0.951 . S
C266 C267 1.366 . S
C266 C268 1.388 . S
C267 C266 1.366 . S
C267 C271 1.385 . S
C268 H249 0.951 . S
C268 C266 1.388 . S
C268 C269 1.366 . S
C269 C268 1.366 . S
C269 C270 1.414 . S
C269 C272 1.499 . S
C270 H250 0.950 . S
C270 C269 1.414 . S
C270 C271 1.374 . S
C271 H251 0.950 . S
C271 C267 1.385 . S
C271 C270 1.374 . S
C272 C269 1.499 . S
C272 C273 1.373 . S
C272 C274 1.389 . S
C273 H252 0.950 . S
C273 C272 1.373 . S
C273 C289 1.377 . S
C274 C272 1.389 . S
C274 C275 1.524 . S
C274 C288 1.377 . S
C275 C274 1.524 . S
C275 C276 1.397 . S
C275 C280 1.363 . S
C276 H253 0.950 . S
C276 C275 1.397 . S
C276 C277 1.334 . S
C277 H254 0.950 . S
C277 C276 1.334 . S
C277 C278 1.287 . S
C278 C277 1.287 . S
C278 C279 1.524 . S
C278 H297 0.913 . S
C279 H255 0.950 . S
C279 C278 1.524 . S
C279 C280 1.415 . S
C280 H256 0.950 . S
C280 C275 1.363 . S
C280 C279 1.415 . S
C281 H257 0.951 . S
C281 C282 1.366 . S
C281 C283 1.388 1_455 S
C282 C281 1.366 . S
C282 C286 1.385 1_455 S
C283 H258 0.951 . S
C283 C281 1.388 1_655 S
C283 C284 1.366 . S
C284 C283 1.366 . S
C284 C285 1.414 . S
C284 C287 1.499 . S
C285 H259 0.950 . S
C285 C284 1.414 . S
C285 C286 1.374 . S
C286 H260 0.950 . S
C286 C282 1.385 1_655 S
C286 C285 1.374 . S
C287 C284 1.499 . S
C287 C288 1.373 . S
C287 C289 1.389 . S
C288 H261 0.950 . S
C288 C274 1.377 . S
C288 C287 1.373 . S
C289 C273 1.377 . S
C289 C287 1.389 . S
C289 C290 1.524 . S
C290 C289 1.524 . S
C290 C291 1.397 . S
C290 C295 1.363 . S
C291 H262 0.950 . S
C291 C290 1.397 . S
C291 C292 1.334 1_655 S
C292 H263 0.950 . S
C292 C291 1.334 1_455 S
C292 C293 1.287 . S
C293 C292 1.287 . S
C293 C294 1.524 . S
C293 H296 0.999 . S
C294 H264 0.950 . S
C294 C293 1.524 . S
C294 C295 1.415 1_455 S
C295 H265 0.950 . S
C295 C290 1.363 . S
C295 C294 1.415 1_655 S
H296 C293 0.999 . S
H297 C278 0.913 . S
H298 C316 0.951 . S
H299 C318 0.951 . S
H300 C320 0.950 . S
H301 C321 0.950 . S
H302 C323 0.950 . S
H303 C326 0.950 . S
H304 C327 0.950 . S
H305 C329 0.950 . S
H306 C330 0.950 . S
H307 C331 0.951 . S
H308 C333 0.951 . S
H309 C335 0.950 . S
H310 C336 0.950 . S
H311 C338 0.950 . S
H312 C341 0.950 . S
H313 C342 0.950 . S
H314 C344 0.950 . S
H315 C345 0.950 . S
C316 H298 0.951 . S
C316 C317 1.366 . S
C316 C318 1.388 . S
C317 C316 1.366 . S
C317 C321 1.385 . S
C318 H299 0.951 . S
C318 C316 1.388 . S
C318 C319 1.366 . S
C319 C318 1.366 . S
C319 C320 1.414 . S
C319 C322 1.499 . S
C320 H300 0.950 . S
C320 C319 1.414 . S
C320 C321 1.374 . S
C321 H301 0.950 . S
C321 C317 1.385 . S
C321 C320 1.374 . S
C322 C319 1.499 . S
C322 C323 1.373 . S
C322 C324 1.389 . S
C323 H302 0.950 . S
C323 C322 1.373 . S
C323 C339 1.377 . S
C324 C322 1.389 . S
C324 C325 1.524 . S
C324 C338 1.377 . S
C325 C324 1.524 . S
C325 C326 1.397 . S
C325 C330 1.363 . S
C326 H303 0.950 . S
C326 C325 1.397 . S
C326 C327 1.334 . S
C327 H304 0.950 . S
C327 C326 1.334 . S
C327 C328 1.287 . S
C328 C327 1.287 . S
C328 C329 1.524 . S
C328 H347 0.913 . S
C329 H305 0.950 . S
C329 C328 1.524 . S
C329 C330 1.415 . S
C330 H306 0.950 . S
C330 C325 1.363 . S
C330 C329 1.415 . S
C331 H307 0.951 . S
C331 C332 1.366 . S
C331 C333 1.388 . S
C332 C331 1.366 . S
C332 C336 1.385 . S
C333 H308 0.951 . S
C333 C331 1.388 . S
C333 C334 1.366 . S
C334 C333 1.366 . S
C334 C335 1.414 . S
C334 C337 1.499 . S
C335 H309 0.950 . S
C335 C334 1.414 . S
C335 C336 1.374 . S
C336 H310 0.950 . S
C336 C332 1.385 . S
C336 C335 1.374 . S
C337 C334 1.499 . S
C337 C338 1.373 . S
C337 C339 1.389 . S
C338 H311 0.950 . S
C338 C324 1.377 . S
C338 C337 1.373 . S
C339 C323 1.377 . S
C339 C337 1.389 . S
C339 C340 1.524 . S
C340 C339 1.524 . S
C340 C341 1.397 . S
C340 C345 1.363 . S
C341 H312 0.950 . S
C341 C340 1.397 . S
C341 C342 1.334 . S
C342 H313 0.950 . S
C342 C341 1.334 . S
C342 C343 1.287 . S
C343 C342 1.287 . S
C343 C344 1.524 . S
C343 H346 0.999 . S
C344 H314 0.950 . S
C344 C343 1.524 . S
C344 C345 1.415 . S
C345 H315 0.950 . S
C345 C340 1.363 . S
C345 C344 1.415 . S
H346 C343 0.999 . S
H347 C328 0.913 . S
H348 C366 0.951 . S
H349 C368 0.951 . S
H350 C370 0.950 . S
H351 C371 0.950 . S
H352 C373 0.950 . S
H353 C376 0.950 . S
H354 C377 0.950 . S
H355 C379 0.950 . S
H356 C380 0.950 . S
H357 C381 0.951 . S
H358 C383 0.951 . S
H359 C385 0.950 . S
H360 C386 0.950 . S
H361 C388 0.950 . S
H362 C391 0.950 . S
H363 C392 0.950 . S
H364 C394 0.950 . S
H365 C395 0.950 . S
C366 H348 0.951 . S
C366 C367 1.366 . S
C366 C368 1.388 . S
C367 C366 1.366 . S
C367 C371 1.385 . S
C368 H349 0.951 . S
C368 C366 1.388 . S
C368 C369 1.366 . S
C369 C368 1.366 . S
C369 C370 1.414 . S
C369 C372 1.499 . S
C370 H350 0.950 . S
C370 C369 1.414 . S
C370 C371 1.374 . S
C371 H351 0.950 . S
C371 C367 1.385 . S
C371 C370 1.374 . S
C372 C369 1.499 . S
C372 C373 1.373 . S
C372 C374 1.389 . S
C373 H352 0.950 . S
C373 C372 1.373 . S
C373 C389 1.377 . S
C374 C372 1.389 . S
C374 C375 1.524 . S
C374 C388 1.377 . S
C375 C374 1.524 . S
C375 C376 1.397 . S
C375 C380 1.363 . S
C376 H353 0.950 . S
C376 C375 1.397 . S
C376 C377 1.334 . S
C377 H354 0.950 . S
C377 C376 1.334 . S
C377 C378 1.287 . S
C378 C377 1.287 . S
C378 C379 1.524 . S
C378 H397 0.913 . S
C379 H355 0.950 . S
C379 C378 1.524 . S
C379 C380 1.415 . S
C380 H356 0.950 . S
C380 C375 1.363 . S
C380 C379 1.415 . S
C381 H357 0.951 . S
C381 C382 1.366 . S
C381 C383 1.388 . S
C382 C381 1.366 . S
C382 C386 1.385 . S
C383 H358 0.951 . S
C383 C381 1.388 . S
C383 C384 1.366 . S
C384 C383 1.366 . S
C384 C385 1.414 . S
C384 C387 1.499 . S
C385 H359 0.950 . S
C385 C384 1.414 . S
C385 C386 1.374 . S
C386 H360 0.950 . S
C386 C382 1.385 . S
C386 C385 1.374 . S
C387 C384 1.499 . S
C387 C388 1.373 . S
C387 C389 1.389 . S
C388 H361 0.950 . S
C388 C374 1.377 . S
C388 C387 1.373 . S
C389 C373 1.377 . S
C389 C387 1.389 . S
C389 C390 1.524 . S
C390 C389 1.524 . S
C390 C391 1.397 . S
C390 C395 1.363 . S
C391 H362 0.950 . S
C391 C390 1.397 . S
C391 C392 1.334 . S
C392 H363 0.950 . S
C392 C391 1.334 . S
C392 C393 1.287 . S
C393 C392 1.287 . S
C393 C394 1.524 . S
C393 H396 0.999 . S
C394 H364 0.950 . S
C394 C393 1.524 . S
C394 C395 1.415 . S
C395 H365 0.950 . S
C395 C390 1.363 . S
C395 C394 1.415 . S
H396 C393 0.999 . S
H397 C378 0.913 . S
H398 C416 0.951 . S
H399 C418 0.951 . S
H400 C420 0.950 . S
H401 C421 0.950 . S
H402 C423 0.950 . S
H403 C426 0.950 . S
H404 C427 0.950 . S
H405 C429 0.950 . S
H406 C430 0.950 . S
H407 C431 0.951 . S
H408 C433 0.951 . S
H409 C435 0.950 . S
H410 C436 0.950 . S
H411 C438 0.950 . S
H412 C441 0.950 . S
H413 C442 0.950 . S
H414 C444 0.950 . S
H415 C445 0.950 . S
C416 H398 0.951 . S
C416 C417 1.366 . S
C416 C418 1.388 . S
C417 C416 1.366 . S
C417 C421 1.385 . S
C418 H399 0.951 . S
C418 C416 1.388 . S
C418 C419 1.366 . S
C419 C418 1.366 . S
C419 C420 1.414 . S
C419 C422 1.499 . S
C420 H400 0.950 . S
C420 C419 1.414 . S
C420 C421 1.374 . S
C421 H401 0.950 . S
C421 C417 1.385 . S
C421 C420 1.374 . S
C422 C419 1.499 . S
C422 C423 1.373 . S
C422 C424 1.389 . S
C423 H402 0.950 . S
C423 C422 1.373 . S
C423 C439 1.377 . S
C424 C422 1.389 . S
C424 C425 1.524 . S
C424 C438 1.377 . S
C425 C424 1.524 . S
C425 C426 1.397 . S
C425 C430 1.363 . S
C426 H403 0.950 . S
C426 C425 1.397 . S
C426 C427 1.334 . S
C427 H404 0.950 . S
C427 C426 1.334 . S
C427 C428 1.287 . S
C428 C427 1.287 . S
C428 C429 1.524 . S
C428 H447 0.913 . S
C429 H405 0.950 . S
C429 C428 1.524 . S
C429 C430 1.415 . S
C430 H406 0.950 . S
C430 C425 1.363 . S
C430 C429 1.415 . S
C431 H407 0.951 . S
C431 C432 1.366 . S
C431 C433 1.388 . S
C432 C431 1.366 . S
C432 C436 1.385 . S
C433 H408 0.951 . S
C433 C431 1.388 . S
C433 C434 1.366 . S
C434 C433 1.366 . S
C434 C435 1.414 . S
C434 C437 1.499 . S
C435 H409 0.950 . S
C435 C434 1.414 . S
C435 C436 1.374 . S
C436 H410 0.950 . S
C436 C432 1.385 . S
C436 C435 1.374 . S
C437 C434 1.499 . S
C437 C438 1.373 . S
C437 C439 1.389 . S
C438 H411 0.950 . S
C438 C424 1.377 . S
C438 C437 1.373 . S
C439 C423 1.377 . S
C439 C437 1.389 . S
C439 C440 1.524 . S
C440 C439 1.524 . S
C440 C441 1.397 . S
C440 C445 1.363 . S
C441 H412 0.950 . S
C441 C440 1.397 . S
C441 C442 1.334 . S
C442 H413 0.950 . S
C442 C441 1.334 . S
C442 C443 1.287 . S
C443 C442 1.287 . S
C443 C444 1.524 . S
C443 H446 0.999 . S
C444 H414 0.950 . S
C444 C443 1.524 . S
C444 C445 1.415 . S
C445 H415 0.950 . S
C445 C440 1.363 . S
C445 C444 1.415 . S
H446 C443 0.999 . S
H447 C428 0.913 . S
H448 C466 0.951 . S
H449 C468 0.951 . S
H450 C470 0.950 . S
H451 C471 0.950 . S
H452 C473 0.950 . S
H453 C476 0.950 . S
H454 C477 0.950 . S
H455 C479 0.950 . S
H456 C480 0.950 . S
H457 C481 0.951 . S
H458 C483 0.951 . S
H459 C485 0.950 . S
H460 C486 0.950 . S
H461 C488 0.950 . S
H462 C491 0.950 . S
H463 C492 0.950 . S
H464 C494 0.950 . S
H465 C495 0.950 . S
C466 H448 0.951 . S
C466 C467 1.366 . S
C466 C468 1.388 . S
C467 C466 1.366 . S
C467 C471 1.385 . S
C468 H449 0.951 . S
C468 C466 1.388 . S
C468 C469 1.366 . S
C469 C468 1.366 . S
C469 C470 1.414 . S
C469 C472 1.499 . S
C470 H450 0.950 . S
C470 C469 1.414 . S
C470 C471 1.374 . S
C471 H451 0.950 . S
C471 C467 1.385 . S
C471 C470 1.374 . S
C472 C469 1.499 . S
C472 C473 1.373 . S
C472 C474 1.389 . S
C473 H452 0.950 . S
C473 C472 1.373 . S
C473 C489 1.377 . S
C474 C472 1.389 . S
C474 C475 1.524 . S
C474 C488 1.377 . S
C475 C474 1.524 . S
C475 C476 1.397 . S
C475 C480 1.363 . S
C476 H453 0.950 . S
C476 C475 1.397 . S
C476 C477 1.334 . S
C477 H454 0.950 . S
C477 C476 1.334 . S
C477 C478 1.287 . S
C478 C477 1.287 . S
C478 C479 1.524 . S
C478 H497 0.913 . S
C479 H455 0.950 . S
C479 C478 1.524 . S
C479 C480 1.415 . S
C480 H456 0.950 . S
C480 C475 1.363 . S
C480 C479 1.415 . S
C481 H457 0.951 . S
C481 C482 1.366 . S
C481 C483 1.388 . S
C482 C481 1.366 . S
C482 C486 1.385 . S
C483 H458 0.951 . S
C483 C481 1.388 . S
C483 C484 1.366 . S
C484 C483 1.366 . S
C484 C485 1.414 . S
C484 C487 1.499 . S
C485 H459 0.950 . S
C485 C484 1.414 . S
C485 C486 1.374 . S
C486 H460 0.950 . S
C486 C482 1.385 . S
C486 C485 1.374 . S
C487 C484 1.499 . S
C487 C488 1.373 . S
C487 C489 1.389 . S
C488 H461 0.950 . S
C488 C474 1.377 . S
C488 C487 1.373 . S
C489 C473 1.377 . S
C489 C487 1.389 . S
C489 C490 1.524 . S
C490 C489 1.524 . S
C490 C491 1.397 . S
C490 C495 1.363 . S
C491 H462 0.950 . S
C491 C490 1.397 . S
C491 C492 1.334 . S
C492 H463 0.950 . S
C492 C491 1.334 . S
C492 C493 1.287 . S
C493 C492 1.287 . S
C493 C494 1.524 . S
C493 H496 0.999 . S
C494 H464 0.950 . S
C494 C493 1.524 . S
C494 C495 1.415 . S
C495 H465 0.950 . S
C495 C490 1.363 . S
C495 C494 1.415 . S
H496 C493 0.999 . S
H497 C478 0.913 . S
H498 C516 0.951 . S
H499 C518 0.951 . S
H500 C520 0.950 . S
H501 C521 0.950 . S
H502 C523 0.950 . S
H503 C526 0.950 . S
H504 C527 0.950 . S
H505 C529 0.950 . S
H506 C530 0.950 . S
H507 C531 0.951 . S
H508 C533 0.951 . S
H509 C535 0.950 . S
H510 C536 0.950 . S
H511 C538 0.950 . S
H512 C541 0.950 . S
H513 C542 0.950 . S
H514 C544 0.950 . S
H515 C545 0.950 . S
C516 H498 0.951 . S
C516 C517 1.366 . S
C516 C518 1.388 . S
C517 C516 1.366 . S
C517 C521 1.385 . S
C518 H499 0.951 . S
C518 C516 1.388 . S
C518 C519 1.366 . S
C519 C518 1.366 . S
C519 C520 1.414 . S
C519 C522 1.499 . S
C520 H500 0.950 . S
C520 C519 1.414 . S
C520 C521 1.374 . S
C521 H501 0.950 . S
C521 C517 1.385 . S
C521 C520 1.374 . S
C522 C519 1.499 . S
C522 C523 1.373 . S
C522 C524 1.389 . S
C523 H502 0.950 . S
C523 C522 1.373 . S
C523 C539 1.377 . S
C524 C522 1.389 . S
C524 C525 1.524 . S
C524 C538 1.377 . S
C525 C524 1.524 . S
C525 C526 1.397 . S
C525 C530 1.363 . S
C526 H503 0.950 . S
C526 C525 1.397 . S
C526 C527 1.334 . S
C527 H504 0.950 . S
C527 C526 1.334 . S
C527 C528 1.287 . S
C528 C527 1.287 . S
C528 C529 1.524 . S
C528 H547 0.913 . S
C529 H505 0.950 . S
C529 C528 1.524 . S
C529 C530 1.415 . S
C530 H506 0.950 . S
C530 C525 1.363 . S
C530 C529 1.415 . S
C531 H507 0.951 . S
C531 C532 1.366 . S
C531 C533 1.388 . S
C532 C531 1.366 . S
C532 C536 1.385 . S
C533 H508 0.951 . S
C533 C531 1.388 . S
C533 C534 1.366 . S
C534 C533 1.366 . S
C534 C535 1.414 . S
C534 C537 1.499 . S
C535 H509 0.950 . S
C535 C534 1.414 . S
C535 C536 1.374 . S
C536 H510 0.950 . S
C536 C532 1.385 . S
C536 C535 1.374 . S
C537 C534 1.499 . S
C537 C538 1.373 . S
C537 C539 1.389 . S
C538 H511 0.950 . S
C538 C524 1.377 . S
C538 C537 1.373 . S
C539 C523 1.377 . S
C539 C537 1.389 . S
C539 C540 1.524 . S
C540 C539 1.524 . S
C540 C541 1.397 . S
C540 C545 1.363 . S
C541 H512 0.950 . S
C541 C540 1.397 . S
C541 C542 1.334 . S
C542 H513 0.950 . S
C542 C541 1.334 . S
C542 C543 1.287 . S
C543 C542 1.287 . S
C543 C544 1.524 . S
C543 H546 0.999 . S
C544 H514 0.950 . S
C544 C543 1.524 . S
C544 C545 1.415 . S
C545 H515 0.950 . S
C545 C540 1.363 . S
C545 C544 1.415 . S
H546 C543 0.999 . S
H547 C528 0.913 . S
H548 C566 0.951 . S
H549 C568 0.951 . S
H550 C570 0.950 . S
H551 C571 0.950 . S
H552 C573 0.950 . S
H553 C576 0.950 . S
H554 C577 0.950 . S
H555 C579 0.950 . S
H556 C580 0.950 . S
H557 C581 0.951 . S
H558 C583 0.951 . S
H559 C585 0.950 . S
H560 C586 0.950 . S
H561 C588 0.950 . S
H562 C591 0.950 . S
H563 C592 0.950 . S
H564 C594 0.950 . S
H565 C595 0.950 . S
C566 H548 0.951 . S
C566 C567 1.366 . S
C566 C568 1.388 . S
C567 C566 1.366 . S
C567 C571 1.385 . S
C568 H549 0.951 . S
C568 C566 1.388 . S
C568 C569 1.366 . S
C569 C568 1.366 . S
C569 C570 1.414 . S
C569 C572 1.499 . S
C570 H550 0.950 . S
C570 C569 1.414 . S
C570 C571 1.374 . S
C571 H551 0.950 . S
C571 C567 1.385 . S
C571 C570 1.374 . S
C572 C569 1.499 . S
C572 C573 1.373 . S
C572 C574 1.389 . S
C573 H552 0.950 . S
C573 C572 1.373 . S
C573 C589 1.377 . S
C574 C572 1.389 . S
C574 C575 1.524 . S
C574 C588 1.377 . S
C575 C574 1.524 . S
C575 C576 1.397 . S
C575 C580 1.363 . S
C576 H553 0.950 . S
C576 C575 1.397 . S
C576 C577 1.334 . S
C577 H554 0.950 . S
C577 C576 1.334 . S
C577 C578 1.287 . S
C578 C577 1.287 . S
C578 C579 1.524 . S
C578 H597 0.913 . S
C579 H555 0.950 . S
C579 C578 1.524 . S
C579 C580 1.415 . S
C580 H556 0.950 . S
C580 C575 1.363 . S
C580 C579 1.415 . S
C581 H557 0.951 . S
C581 C582 1.366 . S
C581 C583 1.388 . S
C582 C581 1.366 . S
C582 C586 1.385 . S
C583 H558 0.951 . S
C583 C581 1.388 . S
C583 C584 1.366 . S
C584 C583 1.366 . S
C584 C585 1.414 . S
C584 C587 1.499 . S
C585 H559 0.950 . S
C585 C584 1.414 . S
C585 C586 1.374 . S
C586 H560 0.950 . S
C586 C582 1.385 . S
C586 C585 1.374 . S
C587 C584 1.499 . S
C587 C588 1.373 . S
C587 C589 1.389 . S
C588 H561 0.950 . S
C588 C574 1.377 . S
C588 C587 1.373 . S
C589 C573 1.377 . S
C589 C587 1.389 . S
C589 C590 1.524 . S
C590 C589 1.524 . S
C590 C591 1.397 . S
C590 C595 1.363 . S
C591 H562 0.950 . S
C591 C590 1.397 . S
C591 C592 1.334 . S
C592 H563 0.950 . S
C592 C591 1.334 . S
C592 C593 1.287 . S
C593 C592 1.287 . S
C593 C594 1.524 . S
C593 H596 0.999 . S
C594 H564 0.950 . S
C594 C593 1.524 . S
C594 C595 1.415 . S
C595 H565 0.950 . S
C595 C590 1.363 . S
C595 C594 1.415 . S
H596 C593 0.999 . S
H597 C578 0.913 . S
H598 C616 0.951 . S
H599 C618 0.951 . S
H600 C620 0.950 . S
H601 C621 0.950 . S
H602 C623 0.950 . S
H603 C626 0.950 . S
H604 C627 0.950 . S
H605 C629 0.950 . S
H606 C630 0.950 . S
H607 C631 0.951 . S
H608 C633 0.951 . S
H609 C635 0.950 . S
H610 C636 0.950 . S
H611 C638 0.950 . S
H612 C641 0.950 . S
H613 C642 0.950 . S
H614 C644 0.950 . S
H615 C645 0.950 . S
C616 H598 0.951 . S
C616 C617 1.366 . S
C616 C618 1.388 . S
C617 C616 1.366 . S
C617 C621 1.385 . S
C618 H599 0.951 . S
C618 C616 1.388 . S
C618 C619 1.366 . S
C619 C618 1.366 . S
C619 C620 1.414 . S
C619 C622 1.499 . S
C620 H600 0.950 . S
C620 C619 1.414 . S
C620 C621 1.374 . S
C621 H601 0.950 . S
C621 C617 1.385 . S
C621 C620 1.374 . S
C622 C619 1.499 . S
C622 C623 1.373 . S
C622 C624 1.389 . S
C623 H602 0.950 . S
C623 C622 1.373 . S
C623 C639 1.377 . S
C624 C622 1.389 . S
C624 C625 1.524 . S
C624 C638 1.377 . S
C625 C624 1.524 . S
C625 C626 1.397 . S
C625 C630 1.363 . S
C626 H603 0.950 . S
C626 C625 1.397 . S
C626 C627 1.334 . S
C627 H604 0.950 . S
C627 C626 1.334 . S
C627 C628 1.287 . S
C628 C627 1.287 . S
C628 C629 1.524 . S
C628 H647 0.913 . S
C629 H605 0.950 . S
C629 C628 1.524 . S
C629 C630 1.415 . S
C630 H606 0.950 . S
C630 C625 1.363 . S
C630 C629 1.415 . S
C631 H607 0.951 . S
C631 C632 1.366 . S
C631 C633 1.388 . S
C632 C631 1.366 . S
C632 C636 1.385 . S
C633 H608 0.951 . S
C633 C631 1.388 . S
C633 C634 1.366 . S
C634 C633 1.366 . S
C634 C635 1.414 . S
C634 C637 1.499 . S
C635 H609 0.950 . S
C635 C634 1.414 . S
C635 C636 1.374 . S
C636 H610 0.950 . S
C636 C632 1.385 . S
C636 C635 1.374 . S
C637 C634 1.499 . S
C637 C638 1.373 . S
C637 C639 1.389 . S
C638 H611 0.950 . S
C638 C624 1.377 . S
C638 C637 1.373 . S
C639 C623 1.377 . S
C639 C637 1.389 . S
C639 C640 1.524 . S
C640 C639 1.524 . S
C640 C641 1.397 . S
C640 C645 1.363 . S
C641 H612 0.950 . S
C641 C640 1.397 . S
C641 C642 1.334 . S
C642 H613 0.950 . S
C642 C641 1.334 . S
C642 C643 1.287 . S
C643 C642 1.287 . S
C643 C644 1.524 . S
C643 H646 0.999 . S
C644 H614 0.950 . S
C644 C643 1.524 . S
C644 C645 1.415 . S
C645 H615 0.950 . S
C645 C640 1.363 . S
C645 C644 1.415 . S
H646 C643 0.999 . S
H647 C628 0.913 . S
H648 C666 0.951 . S
H649 C668 0.951 . S
H650 C670 0.950 . S
H651 C671 0.950 . S
H652 C673 0.950 . S
H653 C676 0.950 . S
H654 C677 0.950 . S
H655 C679 0.950 . S
H656 C680 0.950 . S
H657 C681 0.951 . S
H658 C683 0.951 . S
H659 C685 0.950 . S
H660 C686 0.950 . S
H661 C688 0.950 . S
H662 C691 0.950 . S
H663 C692 0.950 . S
H664 C694 0.950 . S
H665 C695 0.950 . S
C666 H648 0.951 . S
C666 C667 1.366 . S
C666 C668 1.388 . S
C667 C666 1.366 . S
C667 C671 1.385 . S
C668 H649 0.951 . S
C668 C666 1.388 . S
C668 C669 1.366 . S
C669 C668 1.366 . S
C669 C670 1.414 . S
C669 C672 1.499 . S
C670 H650 0.950 . S
C670 C669 1.414 . S
C670 C671 1.374 . S
C671 H651 0.950 . S
C671 C667 1.385 . S
C671 C670 1.374 . S
C672 C669 1.499 . S
C672 C673 1.373 . S
C672 C674 1.389 . S
C673 H652 0.950 . S
C673 C672 1.373 . S
C673 C689 1.377 . S
C674 C672 1.389 . S
C674 C675 1.524 . S
C674 C688 1.377 . S
C675 C674 1.524 . S
C675 C676 1.397 . S
C675 C680 1.363 . S
C676 H653 0.950 . S
C676 C675 1.397 . S
C676 C677 1.334 . S
C677 H654 0.950 . S
C677 C676 1.334 . S
C677 C678 1.287 . S
C678 C677 1.287 . S
C678 C679 1.524 . S
C678 H697 0.913 . S
C679 H655 0.950 . S
C679 C678 1.524 . S
C679 C680 1.415 . S
C680 H656 0.950 . S
C680 C675 1.363 . S
C680 C679 1.415 . S
C681 H657 0.951 . S
C681 C682 1.366 . S
C681 C683 1.388 . S
C682 C681 1.366 . S
C682 C686 1.385 . S
C683 H658 0.951 . S
C683 C681 1.388 . S
C683 C684 1.366 . S
C684 C683 1.366 . S
C684 C685 1.414 . S
C684 C687 1.499 . S
C685 H659 0.950 . S
C685 C684 1.414 . S
C685 C686 1.374 . S
C686 H660 0.950 . S
C686 C682 1.385 . S
C686 C685 1.374 . S
C687 C684 1.499 . S
C687 C688 1.373 . S
C687 C689 1.389 . S
C688 H661 0.950 . S
C688 C674 1.377 . S
C688 C687 1.373 . S
C689 C673 1.377 . S
C689 C687 1.389 . S
C689 C690 1.524 . S
C690 C689 1.524 . S
C690 C691 1.397 . S
C690 C695 1.363 . S
C691 H662 0.950 . S
C691 C690 1.397 . S
C691 C692 1.334 . S
C692 H663 0.950 . S
C692 C691 1.334 . S
C692 C693 1.287 . S
C693 C692 1.287 . S
C693 C694 1.524 . S
C693 H696 0.999 . S
C694 H664 0.950 . S
C694 C693 1.524 . S
C694 C695 1.415 . S
C695 H665 0.950 . S
C695 C690 1.363 . S
C695 C694 1.415 . S
H696 C693 0.999 . S
H697 C678 0.913 . S
H698 C716 0.951 . S
H699 C718 0.951 . S
H700 C720 0.950 . S
H701 C721 0.950 . S
H702 C723 0.950 . S
H703 C726 0.950 . S
H704 C727 0.950 . S
H705 C729 0.950 . S
H706 C730 0.950 . S
H707 C731 0.951 . S
H708 C733 0.951 . S
H709 C735 0.950 . S
H710 C736 0.950 . S
H711 C738 0.950 . S
H712 C741 0.950 . S
H713 C742 0.950 . S
H714 C744 0.950 . S
H715 C745 0.950 . S
C716 H698 0.951 . S
C716 C717 1.366 . S
C716 C718 1.388 . S
C717 C716 1.366 . S
C717 C721 1.385 . S
C718 H699 0.951 . S
C718 C716 1.388 . S
C718 C719 1.366 . S
C719 C718 1.366 . S
C719 C720 1.414 . S
C719 C722 1.499 . S
C720 H700 0.950 . S
C720 C719 1.414 . S
C720 C721 1.374 . S
C721 H701 0.950 . S
C721 C717 1.385 . S
C721 C720 1.374 . S
C722 C719 1.499 . S
C722 C723 1.373 . S
C722 C724 1.389 . S
C723 H702 0.950 . S
C723 C722 1.373 . S
C723 C739 1.377 . S
C724 C722 1.389 . S
C724 C725 1.524 . S
C724 C738 1.377 . S
C725 C724 1.524 . S
C725 C726 1.397 . S
C725 C730 1.363 . S
C726 H703 0.950 . S
C726 C725 1.397 . S
C726 C727 1.334 . S
C727 H704 0.950 . S
C727 C726 1.334 . S
C727 C728 1.287 . S
C728 C727 1.287 . S
C728 C729 1.524 . S
C728 H747 0.913 . S
C729 H705 0.950 . S
C729 C728 1.524 . S
C729 C730 1.415 . S
C730 H706 0.950 . S
C730 C725 1.363 . S
C730 C729 1.415 . S
C731 H707 0.951 . S
C731 C732 1.366 . S
C731 C733 1.388 . S
C732 C731 1.366 . S
C732 C736 1.385 . S
C733 H708 0.951 . S
C733 C731 1.388 . S
C733 C734 1.366 . S
C734 C733 1.366 . S
C734 C735 1.414 . S
C734 C737 1.499 . S
C735 H709 0.950 . S
C735 C734 1.414 . S
C735 C736 1.374 . S
C736 H710 0.950 . S
C736 C732 1.385 . S
C736 C735 1.374 . S
C737 C734 1.499 . S
C737 C738 1.373 . S
C737 C739 1.389 . S
C738 H711 0.950 . S
C738 C724 1.377 . S
C738 C737 1.373 . S
C739 C723 1.377 . S
C739 C737 1.389 . S
C739 C740 1.524 . S
C740 C739 1.524 . S
C740 C741 1.397 . S
C740 C745 1.363 . S
C741 H712 0.950 . S
C741 C740 1.397 . S
C741 C742 1.334 . S
C742 H713 0.950 . S
C742 C741 1.334 . S
C742 C743 1.287 . S
C743 C742 1.287 . S
C743 C744 1.524 . S
C743 H746 0.999 . S
C744 H714 0.950 . S
C744 C743 1.524 . S
C744 C745 1.415 . S
C745 H715 0.950 . S
C745 C740 1.363 . S
C745 C744 1.415 . S
H746 C743 0.999 . S
H747 C728 0.913 . S
H748 C766 0.951 . S
H749 C768 0.951 . S
H750 C770 0.950 . S
H751 C771 0.950 . S
H752 C773 0.950 . S
H753 C776 0.950 . S
H754 C777 0.950 . S
H755 C779 0.950 . S
H756 C780 0.950 . S
H757 C781 0.951 . S
H758 C783 0.951 . S
H759 C785 0.950 . S
H760 C786 0.950 . S
H761 C788 0.950 . S
H762 C791 0.950 . S
H763 C792 0.950 . S
H764 C794 0.950 . S
H765 C795 0.950 . S
C766 H748 0.951 . S
C766 C767 1.366 . S
C766 C768 1.388 . S
C767 C766 1.366 . S
C767 C771 1.385 . S
C768 H749 0.951 . S
C768 C766 1.388 . S
C768 C769 1.366 . S
C769 C768 1.366 . S
C769 C770 1.414 . S
C769 C772 1.499 . S
C770 H750 0.950 . S
C770 C769 1.414 . S
C770 C771 1.374 . S
C771 H751 0.950 . S
C771 C767 1.385 . S
C771 C770 1.374 . S
C772 C769 1.499 . S
C772 C773 1.373 . S
C772 C774 1.389 . S
C773 H752 0.950 . S
C773 C772 1.373 . S
C773 C789 1.377 . S
C774 C772 1.389 . S
C774 C775 1.524 . S
C774 C788 1.377 . S
C775 C774 1.524 . S
C775 C776 1.397 . S
C775 C780 1.363 . S
C776 H753 0.950 . S
C776 C775 1.397 . S
C776 C777 1.334 . S
C777 H754 0.950 . S
C777 C776 1.334 . S
C777 C778 1.287 . S
C778 C777 1.287 . S
C778 C779 1.524 . S
C778 H797 0.913 . S
C779 H755 0.950 . S
C779 C778 1.524 . S
C779 C780 1.415 . S
C780 H756 0.950 . S
C780 C775 1.363 . S
C780 C779 1.415 . S
C781 H757 0.951 . S
C781 C782 1.366 . S
C781 C783 1.388 . S
C782 C781 1.366 . S
C782 C786 1.385 . S
C783 H758 0.951 . S
C783 C781 1.388 . S
C783 C784 1.366 . S
C784 C783 1.366 . S
C784 C785 1.414 . S
C784 C787 1.499 . S
C785 H759 0.950 . S
C785 C784 1.414 . S
C785 C786 1.374 . S
C786 H760 0.950 . S
C786 C782 1.385 . S
C786 C785 1.374 . S
C787 C784 1.499 . S
C787 C788 1.373 . S
C787 C789 1.389 . S
C788 H761 0.950 . S
C788 C774 1.377 . S
C788 C787 1.373 . S
C789 C773 1.377 . S
C789 C787 1.389 . S
C789 C790 1.524 . S
C790 C789 1.524 . S
C790 C791 1.397 . S
C790 C795 1.363 . S
C791 H762 0.950 . S
C791 C790 1.397 . S
C791 C792 1.334 . S
C792 H763 0.950 . S
C792 C791 1.334 . S
C792 C793 1.287 . S
C793 C792 1.287 . S
C793 C794 1.524 . S
C793 H796 0.999 . S
C794 H764 0.950 . S
C794 C793 1.524 . S
C794 C795 1.415 . S
C795 H765 0.950 . S
C795 C790 1.363 . S
C795 C794 1.415 . S
H796 C793 0.999 . S
H797 C778 0.913 . S
H798 C816 0.951 . S
H799 C818 0.951 . S
H800 C820 0.950 . S
H801 C821 0.950 . S
H802 C823 0.950 . S
H803 C826 0.950 . S
H804 C827 0.950 . S
H805 C829 0.950 . S
H806 C830 0.950 1_655 S
H807 C831 0.951 . S
H808 C833 0.951 . S
H809 C835 0.942 1_655 S
H810 C836 0.950 1_655 S
H811 C838 0.950 . S
H812 C841 0.950 . S
H813 C842 0.950 . S
H814 C844 0.950 . S
H815 C845 0.962 . S
C816 H798 0.951 . S
C816 C817 1.366 1_655 S
C816 C818 1.388 . S
C817 C816 1.366 1_455 S
C817 C821 1.385 . S
C818 H799 0.951 . S
C818 C816 1.388 . S
C818 C819 1.366 1_655 S
C819 C818 1.366 1_455 S
C819 C820 1.414 . S
C819 C822 1.499 . S
C820 H800 0.950 . S
C820 C819 1.414 . S
C820 C821 1.374 . S
C821 H801 0.950 . S
C821 C817 1.385 . S
C821 C820 1.374 . S
C822 C819 1.499 . S
C822 C823 1.373 . S
C822 C824 1.389 . S
C823 H802 0.950 . S
C823 C822 1.373 . S
C823 C839 1.430 . S
C824 C822 1.389 . S
C824 C825 1.524 . S
C824 C838 1.377 1_554 S
C825 C824 1.524 . S
C825 C826 1.397 . S
C825 C830 1.363 . S
C826 H803 0.950 . S
C826 C825 1.397 . S
C826 C827 1.334 . S
C827 H804 0.950 . S
C827 C826 1.334 . S
C827 C828 1.287 . S
C828 C827 1.287 . S
C828 C829 1.524 . S
C828 H847 0.913 . S
C829 H805 0.950 . S
C829 C828 1.524 . S
C829 C830 1.415 . S
C830 H806 0.950 1_455 S
C830 C825 1.363 . S
C830 C829 1.415 . S
C831 H807 0.951 . S
C831 C832 1.366 . S
C831 C833 1.388 . S
C832 C831 1.366 . S
C832 C836 1.385 . S
C833 H808 0.951 . S
C833 C831 1.388 . S
C833 C834 1.366 . S
C834 C833 1.366 . S
C834 C835 1.420 . S
C834 C837 1.499 . S
C835 H809 0.942 1_455 S
C835 C834 1.420 . S
C835 C836 1.376 . S
C836 H810 0.950 1_455 S
C836 C832 1.385 . S
C836 C835 1.376 . S
C837 C834 1.499 . S
C837 C838 1.373 . S
C837 C839 1.354 1_556 S
C838 H811 0.950 . S
C838 C824 1.377 1_556 S
C838 C837 1.373 . S
C839 C823 1.430 . S
C839 C837 1.354 1_554 S
C839 C840 1.510 1_554 S
C840 C839 1.510 1_556 S
C840 C841 1.397 1_455 S
C840 C845 1.356 1_556 S
C841 H812 0.950 . S
C841 C840 1.397 1_655 S
C841 C842 1.334 . S
C842 H813 0.950 . S
C842 C841 1.334 . S
C842 C843 1.287 . S
C843 C842 1.287 . S
C843 C844 1.524 1_655 S
C843 H846 0.999 . S
C844 H814 0.950 . S
C844 C843 1.524 1_455 S
C844 C845 1.411 1_556 S
C845 H815 0.962 . S
C845 C840 1.356 1_554 S
C845 C844 1.411 1_554 S
H846 C843 0.999 . S
H847 C828 0.913 . S
H848 C866 0.951 . S
H849 C868 0.951 . S
H850 C870 0.950 . S
H851 C871 0.950 . S
H852 C873 0.950 . S
H853 C876 0.950 . S
H854 C877 0.950 . S
H855 C879 0.950 . S
H856 C880 0.950 . S
H857 C881 0.958 . S
H858 C883 0.957 . S
H859 C885 0.950 . S
H860 C886 0.950 . S
H861 C888 0.950 . S
H862 C891 0.950 . S
H863 C892 0.950 . S
H864 C894 0.950 . S
H865 C895 0.950 . S
C866 H848 0.951 . S
C866 C867 1.366 . S
C866 C868 1.388 . S
C867 C866 1.366 . S
C867 C871 1.385 1_545 S
C868 H849 0.951 . S
C868 C866 1.388 . S
C868 C869 1.366 . S
C869 C868 1.366 . S
C869 C870 1.414 1_545 S
C869 C872 1.499 . S
C870 H850 0.950 . S
C870 C869 1.414 1_565 S
C870 C871 1.374 . S
C871 H851 0.950 . S
C871 C867 1.385 1_565 S
C871 C870 1.374 . S
C872 C869 1.499 . S
C872 C873 1.373 . S
C872 C874 1.389 . S
C873 H852 0.950 . S
C873 C872 1.373 . S
C873 C889 1.377 . S
C874 C872 1.389 . S
C874 C875 1.524 . S
C874 C888 1.377 . S
C875 C874 1.524 . S
C875 C876 1.397 . S
C875 C880 1.363 . S
C876 H853 0.950 . S
C876 C875 1.397 . S
C876 C877 1.334 . S
C877 H854 0.950 . S
C877 C876 1.334 . S
C877 C878 1.287 . S
C878 C877 1.287 . S
C878 C879 1.524 . S
C878 H897 0.913 . S
C879 H855 0.950 . S
C879 C878 1.524 . S
C879 C880 1.415 . S
C880 H856 0.950 . S
C880 C875 1.363 . S
C880 C879 1.415 . S
C881 H857 0.958 . S
C881 C882 1.358 1_565 S
C881 C883 1.388 . S
C882 C881 1.358 1_545 S
C882 C886 1.385 . S
C883 H858 0.957 . S
C883 C881 1.388 . S
C883 C884 1.360 1_565 S
C884 C883 1.360 1_545 S
C884 C885 1.414 . S
C884 C887 1.499 . S
C885 H859 0.950 . S
C885 C884 1.414 . S
C885 C886 1.374 . S
C886 H860 0.950 . S
C886 C882 1.385 . S
C886 C885 1.374 . S
C887 C884 1.499 . S
C887 C888 1.373 . S
C887 C889 1.389 . S
C888 H861 0.950 . S
C888 C874 1.377 . S
C888 C887 1.373 . S
C889 C873 1.377 . S
C889 C887 1.389 . S
C889 C890 1.524 . S
C890 C889 1.524 . S
C890 C891 1.397 . S
C890 C895 1.363 1_545 S
C891 H862 0.950 . S
C891 C890 1.397 . S
C891 C892 1.334 . S
C892 H863 0.950 . S
C892 C891 1.334 . S
C892 C893 1.287 1_545 S
C893 C892 1.287 1_565 S
C893 C894 1.524 . S
C893 H896 0.999 . S
C894 H864 0.950 . S
C894 C893 1.524 . S
C894 C895 1.415 . S
C895 H865 0.950 . S
C895 C890 1.363 1_565 S
C895 C894 1.415 . S
H896 C893 0.999 . S
H897 C878 0.913 . S
H898 C916 0.951 . S
H899 C918 0.951 . S
H900 C920 0.950 . S
H901 C921 0.950 . S
H902 C923 0.950 . S
H903 C926 0.950 . S
H904 C927 0.950 . S
H905 C929 0.950 . S
H906 C930 0.950 . S
H907 C931 0.951 . S
H908 C933 0.951 . S
H909 C935 0.950 . S
H910 C936 0.950 . S
H911 C938 0.950 . S
H912 C941 0.950 . S
H913 C942 0.950 . S
H914 C944 0.950 . S
H915 C945 0.950 . S
C916 H898 0.951 . S
C916 C917 1.366 . S
C916 C918 1.388 . S
C917 C916 1.366 . S
C917 C921 1.385 . S
C918 H899 0.951 . S
C918 C916 1.388 . S
C918 C919 1.366 . S
C919 C918 1.366 . S
C919 C920 1.414 . S
C919 C922 1.499 . S
C920 H900 0.950 . S
C920 C919 1.414 . S
C920 C921 1.374 . S
C921 H901 0.950 . S
C921 C917 1.385 . S
C921 C920 1.374 . S
C922 C919 1.499 . S
C922 C923 1.373 . S
C922 C924 1.389 . S
C923 H902 0.950 . S
C923 C922 1.373 . S
C923 C939 1.377 . S
C924 C922 1.389 . S
C924 C925 1.524 . S
C924 C938 1.377 . S
C925 C924 1.524 . S
C925 C926 1.397 . S
C925 C930 1.363 . S
C926 H903 0.950 . S
C926 C925 1.397 . S
C926 C927 1.334 . S
C927 H904 0.950 . S
C927 C926 1.334 . S
C927 C928 1.287 . S
C928 C927 1.287 . S
C928 C929 1.524 . S
C928 H947 0.913 . S
C929 H905 0.950 . S
C929 C928 1.524 . S
C929 C930 1.415 . S
C930 H906 0.950 . S
C930 C925 1.363 . S
C930 C929 1.415 . S
C931 H907 0.951 . S
C931 C932 1.366 . S
C931 C933 1.388 . S
C932 C931 1.366 . S
C932 C936 1.385 . S
C933 H908 0.951 . S
C933 C931 1.388 . S
C933 C934 1.366 . S
C934 C933 1.366 . S
C934 C935 1.414 . S
C934 C937 1.499 . S
C935 H909 0.950 . S
C935 C934 1.414 . S
C935 C936 1.374 . S
C936 H910 0.950 . S
C936 C932 1.385 . S
C936 C935 1.374 . S
C937 C934 1.499 . S
C937 C938 1.373 . S
C937 C939 1.389 . S
C938 H911 0.950 . S
C938 C924 1.377 . S
C938 C937 1.373 . S
C939 C923 1.377 . S
C939 C937 1.389 . S
C939 C940 1.524 . S
C940 C939 1.524 . S
C940 C941 1.397 . S
C940 C945 1.363 . S
C941 H912 0.950 . S
C941 C940 1.397 . S
C941 C942 1.334 . S
C942 H913 0.950 . S
C942 C941 1.334 . S
C942 C943 1.287 . S
C943 C942 1.287 . S
C943 C944 1.524 . S
C943 H946 0.999 . S
C944 H914 0.950 . S
C944 C943 1.524 . S
C944 C945 1.415 . S
C945 H915 0.950 . S
C945 C940 1.363 . S
C945 C944 1.415 . S
H946 C943 0.999 . S
H947 C928 0.913 . S
H948 C966 0.951 . S
H949 C968 0.951 . S
H950 C970 0.950 . S
H951 C971 0.950 . S
H952 C973 0.950 . S
H953 C976 0.950 . S
H954 C977 0.950 . S
H955 C979 0.950 . S
H956 C980 0.950 . S
H957 C981 0.951 . S
H958 C983 0.951 . S
H959 C985 0.950 1_565 S
H960 C986 0.950 1_565 S
H961 C988 0.950 . S
H962 C991 0.950 . S
H963 C992 0.950 . S
H964 C994 0.950 . S
H965 C995 0.950 . S
C966 H948 0.951 . S
C966 C967 1.366 1_565 S
C966 C968 1.388 . S
C967 C966 1.366 1_545 S
C967 C971 1.385 . S
C968 H949 0.951 . S
C968 C966 1.388 . S
C968 C969 1.366 1_565 S
C969 C968 1.366 1_545 S
C969 C970 1.414 . S
C969 C972 1.499 . S
C970 H950 0.950 . S
C970 C969 1.414 . S
C970 C971 1.374 . S
C971 H951 0.950 . S
C971 C967 1.385 . S
C971 C970 1.374 . S
C972 C969 1.499 . S
C972 C973 1.373 . S
C972 C974 1.389 1_545 S
C973 H952 0.950 . S
C973 C972 1.373 . S
C973 C989 1.377 . S
C974 C972 1.389 1_565 S
C974 C975 1.524 . S
C974 C988 1.377 . S
C975 C974 1.524 . S
C975 C976 1.397 . S
C975 C980 1.363 . S
C976 H953 0.950 . S
C976 C975 1.397 . S
C976 C977 1.334 . S
C977 H954 0.950 . S
C977 C976 1.334 . S
C977 C978 1.287 . S
C978 C977 1.287 . S
C978 C979 1.524 . S
C978 H997 0.913 . S
C979 H955 0.950 . S
C979 C978 1.524 . S
C979 C980 1.415 . S
C980 H956 0.950 . S
C980 C975 1.363 . S
C980 C979 1.415 . S
C981 H957 0.951 . S
C981 C982 1.366 . S
C981 C983 1.388 . S
C982 C981 1.366 . S
C982 C986 1.385 . S
C983 H958 0.951 . S
C983 C981 1.388 . S
C983 C984 1.366 . S
C984 C983 1.366 . S
C984 C985 1.414 . S
C984 C987 1.499 . S
C985 H959 0.950 1_545 S
C985 C984 1.414 . S
C985 C986 1.374 . S
C986 H960 0.950 1_545 S
C986 C982 1.385 . S
C986 C985 1.374 . S
C987 C984 1.499 . S
C987 C988 1.373 1_545 S
C987 C989 1.389 . S
C988 H961 0.950 . S
C988 C974 1.377 . S
C988 C987 1.373 1_565 S
C989 C973 1.377 . S
C989 C987 1.389 . S
C989 C990 1.524 . S
C990 C989 1.524 . S
C990 C991 1.397 . S
C990 C995 1.363 . S
C991 H962 0.950 . S
C991 C990 1.397 . S
C991 C992 1.334 . S
C992 H963 0.950 . S
C992 C991 1.334 . S
C992 C993 1.287 . S
C993 C992 1.287 . S
C993 C994 1.524 . S
C993 H996 0.999 . S
C994 H964 0.950 . S
C994 C993 1.524 . S
C994 C995 1.415 . S
C995 H965 0.950 . S
C995 C990 1.363 . S
C995 C994 1.415 . S
H996 C993 0.999 . S
H997 C978 0.913 . S
H998 C1016 0.951 . S
H999 C1018 0.951 . S
H1000 C1020 0.950 . S
H1001 C1021 0.950 . S
H1002 C1023 0.950 . S
H1003 C1026 0.950 . S
H1004 C1027 0.950 . S
H1005 C1029 0.950 . S
H1006 C1030 0.950 . S
H1007 C1031 0.951 . S
H1008 C1033 0.951 . S
H1009 C1035 0.950 . S
H1010 C1036 0.950 . S
H1011 C1038 0.967 . S
H1012 C1041 0.950 . S
H1013 C1042 0.950 . S
H1014 C1044 0.950 . S
H1015 C1045 0.943 1_556 S
C1016 H998 0.951 . S
C1016 C1017 1.366 . S
C1016 C1018 1.388 . S
C1017 C1016 1.366 . S
C1017 C1021 1.385 . S
C1018 H999 0.951 . S
C1018 C1016 1.388 . S
C1018 C1019 1.366 . S
C1019 C1018 1.366 . S
C1019 C1020 1.414 . S
C1019 C1022 1.499 . S
C1020 H1000 0.950 . S
C1020 C1019 1.414 . S
C1020 C1021 1.374 . S
C1021 H1001 0.950 . S
C1021 C1017 1.385 . S
C1021 C1020 1.374 . S
C1022 C1019 1.499 . S
C1022 C1023 1.373 . S
C1022 C1024 1.389 . S
C1023 H1002 0.950 . S
C1023 C1022 1.373 . S
C1023 C1039 1.377 . S
C1024 C1022 1.389 . S
C1024 C1025 1.524 . S
C1024 C1038 1.345 1_556 S
C1025 C1024 1.524 . S
C1025 C1026 1.397 . S
C1025 C1030 1.363 . S
C1026 H1003 0.950 . S
C1026 C1025 1.397 . S
C1026 C1027 1.334 . S
C1027 H1004 0.950 . S
C1027 C1026 1.334 . S
C1027 C1028 1.287 . S
C1028 C1027 1.287 . S
C1028 C1029 1.524 . S
C1028 H1047 0.913 . S
C1029 H1005 0.950 . S
C1029 C1028 1.524 . S
C1029 C1030 1.415 . S
C1030 H1006 0.950 . S
C1030 C1025 1.363 . S
C1030 C1029 1.415 . S
C1031 H1007 0.951 . S
C1031 C1032 1.366 . S
C1031 C1033 1.388 . S
C1032 C1031 1.366 . S
C1032 C1036 1.385 . S
C1033 H1008 0.951 . S
C1033 C1031 1.388 . S
C1033 C1034 1.366 . S
C1034 C1033 1.366 . S
C1034 C1035 1.414 . S
C1034 C1037 1.499 . S
C1035 H1009 0.950 . S
C1035 C1034 1.414 . S
C1035 C1036 1.374 . S
C1036 H1010 0.950 . S
C1036 C1032 1.385 . S
C1036 C1035 1.374 . S
C1037 C1034 1.499 . S
C1037 C1038 1.389 . S
C1037 C1039 1.389 1_554 S
C1038 H1011 0.967 . S
C1038 C1024 1.345 1_554 S
C1038 C1037 1.389 . S
C1039 C1023 1.377 . S
C1039 C1037 1.389 1_556 S
C1039 C1040 1.524 1_556 S
C1040 C1039 1.524 1_554 S
C1040 C1041 1.397 . S
C1040 C1045 1.366 . S
C1041 H1012 0.950 . S
C1041 C1040 1.397 . S
C1041 C1042 1.334 . S
C1042 H1013 0.950 . S
C1042 C1041 1.334 . S
C1042 C1043 1.287 . S
C1043 C1042 1.287 . S
C1043 C1044 1.524 . S
C1043 H1046 0.999 . S
C1044 H1014 0.950 . S
C1044 C1043 1.524 . S
C1044 C1045 1.419 . S
C1045 H1015 0.943 1_554 S
C1045 C1040 1.366 . S
C1045 C1044 1.419 . S
H1046 C1043 0.999 . S
H1047 C1028 0.913 . S
H1048 C1066 0.951 . S
H1049 C1068 0.951 . S
H1050 C1070 0.950 . S
H1051 C1071 0.950 . S
H1052 C1073 0.950 . S
H1053 C1076 0.950 . S
H1054 C1077 0.950 . S
H1055 C1079 0.950 . S
H1056 C1080 0.950 . S
H1057 C1081 0.951 1_655 S
H1058 C1083 0.951 1_655 S
H1059 C1085 0.950 . S
H1060 C1086 0.950 . S
H1061 C1088 0.950 . S
H1062 C1091 0.950 . S
H1063 C1092 0.950 . S
H1064 C1094 0.950 . S
H1065 C1095 0.950 . S
C1066 H1048 0.951 . S
C1066 C1067 1.366 . S
C1066 C1068 1.388 . S
C1067 C1066 1.366 . S
C1067 C1071 1.385 1_455 S
C1068 H1049 0.951 . S
C1068 C1066 1.388 . S
C1068 C1069 1.366 . S
C1069 C1068 1.366 . S
C1069 C1070 1.414 1_455 S
C1069 C1072 1.499 . S
C1070 H1050 0.950 . S
C1070 C1069 1.414 1_655 S
C1070 C1071 1.374 . S
C1071 H1051 0.950 . S
C1071 C1067 1.385 1_655 S
C1071 C1070 1.374 . S
C1072 C1069 1.499 . S
C1072 C1073 1.373 1_455 S
C1072 C1074 1.389 . S
C1073 H1052 0.950 . S
C1073 C1072 1.373 1_655 S
C1073 C1089 1.377 . S
C1074 C1072 1.389 . S
C1074 C1075 1.524 . S
C1074 C1088 1.377 . S
C1075 C1074 1.524 . S
C1075 C1076 1.397 . S
C1075 C1080 1.363 . S
C1076 H1053 0.950 . S
C1076 C1075 1.397 . S
C1076 C1077 1.334 . S
C1077 H1054 0.950 . S
C1077 C1076 1.334 . S
C1077 C1078 1.287 . S
C1078 C1077 1.287 . S
C1078 C1079 1.524 . S
C1078 H1097 0.913 . S
C1079 H1055 0.950 . S
C1079 C1078 1.524 . S
C1079 C1080 1.415 . S
C1080 H1056 0.950 . S
C1080 C1075 1.363 . S
C1080 C1079 1.415 . S
C1081 H1057 0.951 1_455 S
C1081 C1082 1.366 . S
C1081 C1083 1.388 . S
C1082 C1081 1.366 . S
C1082 C1086 1.385 . S
C1083 H1058 0.951 1_455 S
C1083 C1081 1.388 . S
C1083 C1084 1.366 . S
C1084 C1083 1.366 . S
C1084 C1085 1.414 . S
C1084 C1087 1.499 . S
C1085 H1059 0.950 . S
C1085 C1084 1.414 . S
C1085 C1086 1.374 . S
C1086 H1060 0.950 . S
C1086 C1082 1.385 . S
C1086 C1085 1.374 . S
C1087 C1084 1.499 . S
C1087 C1088 1.373 . S
C1087 C1089 1.389 1_455 S
C1088 H1061 0.950 . S
C1088 C1074 1.377 . S
C1088 C1087 1.373 . S
C1089 C1073 1.377 . S
C1089 C1087 1.389 1_655 S
C1089 C1090 1.524 . S
C1090 C1089 1.524 . S
C1090 C1091 1.397 . S
C1090 C1095 1.363 . S
C1091 H1062 0.950 . S
C1091 C1090 1.397 . S
C1091 C1092 1.334 . S
C1092 H1063 0.950 . S
C1092 C1091 1.334 . S
C1092 C1093 1.287 . S
C1093 C1092 1.287 . S
C1093 C1094 1.524 . S
C1093 H1096 0.999 . S
C1094 H1064 0.950 . S
C1094 C1093 1.524 . S
C1094 C1095 1.415 . S
C1095 H1065 0.950 . S
C1095 C1090 1.363 . S
C1095 C1094 1.415 . S
H1096 C1093 0.999 . S
H1097 C1078 0.913 . S
C217 C24 2.585 . S
C232 N187 2.557 . S
C267 C66 1.006 . S
C282 N160 1.012 . S
C317 C93 1.608 . S
C332 N173 1.619 1_565 S
C367 C13 3.336 . S
C382 N186 3.359 . S
C432 N161 1.291 . S
C417 C57 1.294 . S
C482 N174 1.935 . S
C467 C104 1.961 . S
C517 C64 1.785 . S
C532 N134 1.783 . S
C567 C97 0.239 . S
C582 N148 0.323 . S
C617 C17 1.281 . S
C632 N122 1.287 . S
C682 N135 1.774 . S
C667 C53 1.774 . S
C732 N147 0.420 . S
C717 C106 0.453 . S
C767 C26 1.018 . S
C782 N121 1.026 . S
C832 N151 1.264 . S
C817 C2 1.278 . S
C867 C63 1.543 . S
C882 N125 1.605 . S
C917 C82 1.453 . S
C932 N138 1.457 . S
C982 N177 1.563 . S
C967 C42 1.548 . S
C1032 N190 1.721 . S
C1017 C103 1.693 . S
C1067 C23 1.511 . S
C1082 N164 1.561 . S
