# Generated by pormake.
# Topology ptr, (4,4)-cn, num edge types: 1
# Building blocks:
#     Node 0, Type 0, BuildingBlock: KUFVIS_clean_sbu_0, # of connection points: 4
#     Node 1, Type 0, BuildingBlock: KUFVIS_clean_sbu_0, # of connection points: 4
#     Node 2, Type 0, BuildingBlock: KUFVIS_clean_sbu_0, # of connection points: 4
#     Node 3, Type 0, BuildingBlock: KUFVIS_clean_sbu_0, # of connection points: 4
#     Node 4, Type 0, BuildingBlock: KUFVIS_clean_sbu_0, # of connection points: 4
#     Node 5, Type 0, BuildingBlock: KUFVIS_clean_sbu_0, # of connection points: 4
#     Node 6, Type 0, BuildingBlock: KUFVIS_clean_sbu_0, # of connection points: 4
#     Node 7, Type 0, BuildingBlock: KUFVIS_clean_sbu_0, # of connection points: 4
#     Node 8, Type 0, BuildingBlock: KUFVIS_clean_sbu_0, # of connection points: 4
#     Node 9, Type 0, BuildingBlock: KUFVIS_clean_sbu_0, # of connection points: 4
#     Node 10, Type 0, BuildingBlock: KUFVIS_clean_sbu_0, # of connection points: 4
#     Node 11, Type 0, BuildingBlock: KUFVIS_clean_sbu_0, # of connection points: 4
#     Node 12, Type 0, BuildingBlock: KUFVIS_clean_sbu_0, # of connection points: 4
#     Node 13, Type 0, BuildingBlock: KUFVIS_clean_sbu_0, # of connection points: 4
#     Node 14, Type 0, BuildingBlock: KUFVIS_clean_sbu_0, # of connection points: 4
#     Node 15, Type 0, BuildingBlock: KUFVIS_clean_sbu_0, # of connection points: 4
#     Node 16, Type 0, BuildingBlock: KUFVIS_clean_sbu_0, # of connection points: 4
#     Node 17, Type 0, BuildingBlock: KUFVIS_clean_sbu_0, # of connection points: 4
#     Node 18, Type 1, BuildingBlock: MIFKUJ_clean_linker_1, # of connection points: 4
#     Node 19, Type 1, BuildingBlock: MIFKUJ_clean_linker_1, # of connection points: 4
#     Node 20, Type 1, BuildingBlock: MIFKUJ_clean_linker_1, # of connection points: 4
#     Node 21, Type 1, BuildingBlock: MIFKUJ_clean_linker_1, # of connection points: 4
#     Node 22, Type 1, BuildingBlock: MIFKUJ_clean_linker_1, # of connection points: 4
#     Node 23, Type 1, BuildingBlock: MIFKUJ_clean_linker_1, # of connection points: 4
#     Node 24, Type 1, BuildingBlock: MIFKUJ_clean_linker_1, # of connection points: 4
#     Node 25, Type 1, BuildingBlock: MIFKUJ_clean_linker_1, # of connection points: 4
#     Node 26, Type 1, BuildingBlock: MIFKUJ_clean_linker_1, # of connection points: 4
#     Node 27, Type 1, BuildingBlock: MIFKUJ_clean_linker_1, # of connection points: 4
#     Node 28, Type 1, BuildingBlock: MIFKUJ_clean_linker_1, # of connection points: 4
#     Node 29, Type 1, BuildingBlock: MIFKUJ_clean_linker_1, # of connection points: 4
#     Node 30, Type 1, BuildingBlock: MIFKUJ_clean_linker_1, # of connection points: 4
#     Node 31, Type 1, BuildingBlock: MIFKUJ_clean_linker_1, # of connection points: 4
#     Node 32, Type 1, BuildingBlock: MIFKUJ_clean_linker_1, # of connection points: 4
#     Node 33, Type 1, BuildingBlock: MIFKUJ_clean_linker_1, # of connection points: 4
#     Node 34, Type 1, BuildingBlock: MIFKUJ_clean_linker_1, # of connection points: 4
#     Node 35, Type 1, BuildingBlock: MIFKUJ_clean_linker_1, # of connection points: 4
#     Edge 36, Type (0, 1), BuildingBlock: OJICUG_clean_linker_0, # of connection points: 2
#     Edge 37, Type (0, 1), BuildingBlock: OJICUG_clean_linker_0, # of connection points: 2
#     Edge 38, Type (0, 1), BuildingBlock: OJICUG_clean_linker_0, # of connection points: 2
#     Edge 39, Type (0, 1), BuildingBlock: OJICUG_clean_linker_0, # of connection points: 2
#     Edge 40, Type (0, 1), BuildingBlock: OJICUG_clean_linker_0, # of connection points: 2
#     Edge 41, Type (0, 1), BuildingBlock: OJICUG_clean_linker_0, # of connection points: 2
#     Edge 42, Type (0, 1), BuildingBlock: OJICUG_clean_linker_0, # of connection points: 2
#     Edge 43, Type (0, 1), BuildingBlock: OJICUG_clean_linker_0, # of connection points: 2
#     Edge 44, Type (0, 1), BuildingBlock: OJICUG_clean_linker_0, # of connection points: 2
#     Edge 45, Type (0, 1), BuildingBlock: OJICUG_clean_linker_0, # of connection points: 2
#     Edge 46, Type (0, 1), BuildingBlock: OJICUG_clean_linker_0, # of connection points: 2
#     Edge 47, Type (0, 1), BuildingBlock: OJICUG_clean_linker_0, # of connection points: 2
#     Edge 48, Type (0, 1), BuildingBlock: OJICUG_clean_linker_0, # of connection points: 2
#     Edge 49, Type (0, 1), BuildingBlock: OJICUG_clean_linker_0, # of connection points: 2
#     Edge 50, Type (0, 1), BuildingBlock: OJICUG_clean_linker_0, # of connection points: 2
#     Edge 51, Type (0, 1), BuildingBlock: OJICUG_clean_linker_0, # of connection points: 2
#     Edge 52, Type (0, 1), BuildingBlock: OJICUG_clean_linker_0, # of connection points: 2
#     Edge 53, Type (0, 1), BuildingBlock: OJICUG_clean_linker_0, # of connection points: 2
#     Edge 54, Type (0, 1), BuildingBlock: OJICUG_clean_linker_0, # of connection points: 2
#     Edge 55, Type (0, 1), BuildingBlock: OJICUG_clean_linker_0, # of connection points: 2
#     Edge 56, Type (0, 1), BuildingBlock: OJICUG_clean_linker_0, # of connection points: 2
#     Edge 57, Type (0, 1), BuildingBlock: OJICUG_clean_linker_0, # of connection points: 2
#     Edge 58, Type (0, 1), BuildingBlock: OJICUG_clean_linker_0, # of connection points: 2
#     Edge 59, Type (0, 1), BuildingBlock: OJICUG_clean_linker_0, # of connection points: 2
#     Edge 60, Type (0, 1), BuildingBlock: OJICUG_clean_linker_0, # of connection points: 2
#     Edge 61, Type (0, 1), BuildingBlock: OJICUG_clean_linker_0, # of connection points: 2
#     Edge 62, Type (0, 1), BuildingBlock: OJICUG_clean_linker_0, # of connection points: 2
#     Edge 63, Type (0, 1), BuildingBlock: OJICUG_clean_linker_0, # of connection points: 2
#     Edge 64, Type (0, 1), BuildingBlock: OJICUG_clean_linker_0, # of connection points: 2
#     Edge 65, Type (0, 1), BuildingBlock: OJICUG_clean_linker_0, # of connection points: 2
#     Edge 66, Type (0, 1), BuildingBlock: OJICUG_clean_linker_0, # of connection points: 2
#     Edge 67, Type (0, 1), BuildingBlock: OJICUG_clean_linker_0, # of connection points: 2
#     Edge 68, Type (0, 1), BuildingBlock: OJICUG_clean_linker_0, # of connection points: 2
#     Edge 69, Type (0, 1), BuildingBlock: OJICUG_clean_linker_0, # of connection points: 2
#     Edge 70, Type (0, 1), BuildingBlock: OJICUG_clean_linker_0, # of connection points: 2
#     Edge 71, Type (0, 1), BuildingBlock: OJICUG_clean_linker_0, # of connection points: 2
#     Edge 72, Type (0, 1), BuildingBlock: OJICUG_clean_linker_0, # of connection points: 2
#     Edge 73, Type (0, 1), BuildingBlock: OJICUG_clean_linker_0, # of connection points: 2
#     Edge 74, Type (0, 1), BuildingBlock: OJICUG_clean_linker_0, # of connection points: 2
#     Edge 75, Type (0, 1), BuildingBlock: OJICUG_clean_linker_0, # of connection points: 2
#     Edge 76, Type (0, 1), BuildingBlock: OJICUG_clean_linker_0, # of connection points: 2
#     Edge 77, Type (0, 1), BuildingBlock: OJICUG_clean_linker_0, # of connection points: 2
#     Edge 78, Type (0, 1), BuildingBlock: OJICUG_clean_linker_0, # of connection points: 2
#     Edge 79, Type (0, 1), BuildingBlock: OJICUG_clean_linker_0, # of connection points: 2
#     Edge 80, Type (0, 1), BuildingBlock: OJICUG_clean_linker_0, # of connection points: 2
#     Edge 81, Type (0, 1), BuildingBlock: OJICUG_clean_linker_0, # of connection points: 2
#     Edge 82, Type (0, 1), BuildingBlock: OJICUG_clean_linker_0, # of connection points: 2
#     Edge 83, Type (0, 1), BuildingBlock: OJICUG_clean_linker_0, # of connection points: 2
#     Edge 84, Type (0, 1), BuildingBlock: OJICUG_clean_linker_0, # of connection points: 2
#     Edge 85, Type (0, 1), BuildingBlock: OJICUG_clean_linker_0, # of connection points: 2
#     Edge 86, Type (0, 1), BuildingBlock: OJICUG_clean_linker_0, # of connection points: 2
#     Edge 87, Type (0, 1), BuildingBlock: OJICUG_clean_linker_0, # of connection points: 2
#     Edge 88, Type (0, 1), BuildingBlock: OJICUG_clean_linker_0, # of connection points: 2
#     Edge 89, Type (0, 1), BuildingBlock: OJICUG_clean_linker_0, # of connection points: 2
#     Edge 90, Type (0, 1), BuildingBlock: OJICUG_clean_linker_0, # of connection points: 2
#     Edge 91, Type (0, 1), BuildingBlock: OJICUG_clean_linker_0, # of connection points: 2
#     Edge 92, Type (0, 1), BuildingBlock: OJICUG_clean_linker_0, # of connection points: 2
#     Edge 93, Type (0, 1), BuildingBlock: OJICUG_clean_linker_0, # of connection points: 2
#     Edge 94, Type (0, 1), BuildingBlock: OJICUG_clean_linker_0, # of connection points: 2
#     Edge 95, Type (0, 1), BuildingBlock: OJICUG_clean_linker_0, # of connection points: 2
#     Edge 96, Type (0, 1), BuildingBlock: OJICUG_clean_linker_0, # of connection points: 2
#     Edge 97, Type (0, 1), BuildingBlock: OJICUG_clean_linker_0, # of connection points: 2
#     Edge 98, Type (0, 1), BuildingBlock: OJICUG_clean_linker_0, # of connection points: 2
#     Edge 99, Type (0, 1), BuildingBlock: OJICUG_clean_linker_0, # of connection points: 2
#     Edge 100, Type (0, 1), BuildingBlock: OJICUG_clean_linker_0, # of connection points: 2
#     Edge 101, Type (0, 1), BuildingBlock: OJICUG_clean_linker_0, # of connection points: 2
#     Edge 102, Type (0, 1), BuildingBlock: OJICUG_clean_linker_0, # of connection points: 2
#     Edge 103, Type (0, 1), BuildingBlock: OJICUG_clean_linker_0, # of connection points: 2
#     Edge 104, Type (0, 1), BuildingBlock: OJICUG_clean_linker_0, # of connection points: 2
#     Edge 105, Type (0, 1), BuildingBlock: OJICUG_clean_linker_0, # of connection points: 2
#     Edge 106, Type (0, 1), BuildingBlock: OJICUG_clean_linker_0, # of connection points: 2
#     Edge 107, Type (0, 1), BuildingBlock: OJICUG_clean_linker_0, # of connection points: 2
# Relax obj value: 0.041
# Max RMSD: 0.154
# Mean RMSD: 0.069
data_MOF--net-ptr--node1-KUFVIS_clean_sbu_0--node2-MIFKUJ_clean_linker_1--edge1-OJICUG_clean_linker_0
_symmetry_space_group_name_H-M    P1
_symmetry_Int_Tables_number       1
_symmetry_cell_setting            triclinic
loop_
_symmetry_equiv_pos_as_xyz
'x, y, z'
_cell_length_a     69.250352
_cell_length_b     68.97783
_cell_length_c     47.889526
_cell_angle_alpha  89.793045
_cell_angle_beta   90.518112
_cell_angle_gamma 119.49924
loop_
_atom_site_label
_atom_site_type_symbol
_atom_site_fract_x
_atom_site_fract_y
_atom_site_fract_z
_atom_type_partial_charge
Mn0 Mn 0.99685 0.35244 0.00667 0.0
Mn1 Mn 0.04493 0.40141 0.00506 0.0
C2 C 1.00138 0.37942 0.97443 0.0
C3 C 0.97451 0.31561 0.9929 0.0
C4 C 0.00954 0.39014 0.04871 0.0
O5 O 0.01806 0.34555 0.02911 0.0
O6 O 0.04943 0.37833 0.02371 0.0
C7 C 0.07042 0.38854 0.96744 0.0
N8 N 0.06224 0.40234 0.97376 0.0
C9 C 0.08095 0.42612 0.93478 0.0
C10 C 0.08967 0.41223 0.92789 0.0
C11 C 0.08427 0.39328 0.94421 0.0
C12 C 0.0671 0.42044 0.95801 0.0
H13 H 0.06648 0.3741 0.98012 0.0
C14 C 0.03894 0.35824 0.03255 0.0
O15 O 0.97078 0.32318 0.01578 0.0
O16 O 0.99185 0.32909 0.97862 0.0
N17 N 0.04325 0.42541 0.98731 0.0
C18 C 0.03228 0.4362 0.99567 0.0
C19 C 0.03512 0.45502 0.98083 0.0
C20 C 0.04957 0.46282 0.95797 0.0
C21 C 0.0609 0.45159 0.94999 0.0
C22 C 0.05717 0.43277 0.96532 0.0
H23 H 0.02141 0.43044 0.01348 0.0
O24 O 0.98172 0.3639 0.98138 0.0
O25 O 0.01797 0.37861 0.98621 0.0
O26 O 0.99547 0.37119 0.03885 0.0
O27 O 0.02858 0.40253 0.03805 0.0
C28 C 0.07559 0.4582 0.92727 0.0
C29 C 0.08541 0.44534 0.91947 0.0
H30 H 0.10043 0.41588 0.91005 0.0
H31 H 0.09088 0.38245 0.93899 0.0
H32 H 0.02632 0.46359 0.98712 0.0
H33 H 0.05176 0.47736 0.94661 0.0
H34 H 0.07922 0.47299 0.9154 0.0
H35 H 0.09629 0.45033 0.90159 0.0
Mn36 Mn 0.65165 0.64762 0.01955 0.0
Mn37 Mn 0.65206 0.5989 0.02432 0.0
C38 C 0.62942 0.62124 0.05203 0.0
C39 C 0.66549 0.68479 0.03199 0.0
C40 C 0.62692 0.6084 0.97909 0.0
O41 O 0.67962 0.65423 0.99811 0.0
O42 O 0.67879 0.62151 0.00446 0.0
C43 C 0.69089 0.61399 0.06211 0.0
N44 N 0.66916 0.59957 0.05617 0.0
C45 C 0.66541 0.57816 0.09755 0.0
C46 C 0.68779 0.5927 0.10406 0.0
C47 C 0.70055 0.61075 0.08633 0.0
C48 C 0.65668 0.58229 0.07322 0.0
H49 H 0.70077 0.62781 0.04845 0.0
C50 C 0.68788 0.64142 0.99494 0.0
O51 O 0.65434 0.67679 0.00899 0.0
O52 O 0.66945 0.67152 0.0472 0.0
N53 N 0.62741 0.57519 0.04302 0.0
C54 C 0.60585 0.56333 0.03438 0.0
C55 C 0.59073 0.54496 0.05014 0.0
C56 C 0.598 0.53874 0.07428 0.0
C57 C 0.62033 0.55103 0.08256 0.0
C58 C 0.63462 0.5692 0.06605 0.0
H59 H 0.60024 0.56788 0.01565 0.0
O60 O 0.62517 0.63669 0.04388 0.0
O61 O 0.64701 0.62187 0.04147 0.0
O62 O 0.63208 0.62797 0.98731 0.0
O63 O 0.63371 0.59634 0.99129 0.0
C64 C 0.62892 0.54617 0.10672 0.0
C65 C 0.6514 0.55982 0.11432 0.0
H66 H 0.6953 0.59024 0.12269 0.0
H67 H 0.7178 0.62209 0.09126 0.0
H68 H 0.57353 0.53555 0.04362 0.0
H69 H 0.58628 0.52455 0.08635 0.0
H70 H 0.61833 0.53212 0.1198 0.0
H71 H 0.65771 0.55611 0.13318 0.0
Mn72 Mn 0.34982 0.00265 0.02186 0.0
Mn73 Mn 0.39897 0.05056 0.02429 0.0
C74 C 0.37727 0.00606 0.05276 0.0
C75 C 0.31322 0.98087 0.03711 0.0
C76 C 0.38712 0.01552 0.97932 0.0
O77 O 0.34291 0.02449 1.00092 0.0
O78 O 0.37609 0.05546 0.00556 0.0
C79 C 0.38588 0.07539 0.0629 0.0
N80 N 0.39977 0.06744 0.05622 0.0
C81 C 0.42285 0.08502 0.09641 0.0
C82 C 0.40887 0.09352 0.10368 0.0
C83 C 0.39024 0.08858 0.08692 0.0
C84 C 0.41756 0.07185 0.07237 0.0
H85 H 0.37163 0.07174 0.04996 0.0
C86 C 0.35593 0.04528 0.99699 0.0
O87 O 0.31965 0.97706 0.01335 0.0
O88 O 0.32775 0.9979 0.05125 0.0
N89 N 0.42304 0.04888 0.04178 0.0
C90 C 0.4343 0.03864 0.0325 0.0
C91 C 0.45307 0.04139 0.04735 0.0
C92 C 0.46035 0.05503 0.0712 0.0
C93 C 0.44874 0.06575 0.08004 0.0
C94 C 0.43006 0.06224 0.06453 0.0
H95 H 0.42894 0.02837 0.01396 0.0
O96 O 0.36132 0.98662 0.04544 0.0
O97 O 0.37653 0.02314 0.0423 0.0
O98 O 0.36783 0.0016 0.98834 0.0
O99 O 0.39982 0.03418 0.99114 0.0
C100 C 0.45481 0.07959 0.10379 0.0
C101 C 0.44176 0.08905 0.11213 0.0
H102 H 0.41222 0.10376 0.12214 0.0
H103 H 0.37934 0.09501 0.09244 0.0
H104 H 0.46197 0.0331 0.04036 0.0
H105 H 0.47482 0.05709 0.08262 0.0
H106 H 0.46937 0.0829 0.11599 0.0
H107 H 0.4464 0.09935 0.1307 0.0
Mn108 Mn 1.00191 0.65138 0.99832 0.0
Mn109 Mn 0.04967 0.64938 0.99546 0.0
C110 C 0.00492 0.62723 0.96759 0.0
C111 C 0.97985 0.6665 0.98398 0.0
C112 C 0.01564 0.62711 0.04106 0.0
O113 O 0.0239 0.67978 0.01882 0.0
O114 O 0.05491 0.67731 0.01385 0.0
C115 C 0.07324 0.68652 0.95569 0.0
N116 N 0.06544 0.6648 0.96277 0.0
C117 C 0.08017 0.65804 0.92092 0.0
C118 C 0.08848 0.68038 0.91323 0.0
C119 C 0.08492 0.69466 0.93066 0.0
C120 C 0.06855 0.65087 0.94603 0.0
H121 H 0.07053 0.69753 0.96904 0.0
C122 C 0.04465 0.68727 0.0226 0.0
O123 O 0.97661 0.65618 0.00767 0.0
O124 O 0.99647 0.66882 0.9692 0.0
N125 N 0.04754 0.62336 0.97835 0.0
C126 C 0.03842 0.60229 0.98879 0.0
C127 C 0.04044 0.5859 0.97383 0.0
C128 C 0.05213 0.59144 0.94858 0.0
C129 C 0.06186 0.61337 0.93864 0.0
C130 C 0.05934 0.62899 0.95448 0.0
H131 H 0.02958 0.59798 0.0083 0.0
O132 O 0.98561 0.62401 0.97501 0.0
O133 O 0.02203 0.64482 0.97785 0.0
O134 O 1.00159 0.63251 0.03177 0.0
O135 O 0.03415 0.63274 0.02925 0.0
C136 C 0.07387 0.62032 0.91356 0.0
C137 C 0.08287 0.6426 0.90459 0.0
H138 H 0.09754 0.68673 0.89397 0.0
H139 H 0.09121 0.71189 0.92482 0.0
H140 H 0.03299 0.56905 0.98173 0.0
H141 H 0.05352 0.57873 0.937 0.0
H142 H 0.07614 0.60862 0.9009 0.0
H143 H 0.09185 0.64767 0.88511 0.0
Mn144 Mn 0.34948 0.35689 0.02501 0.0
Mn145 Mn 0.39668 0.35383 0.02721 0.0
C146 C 0.37811 0.38003 0.05503 0.0
C147 C 0.3134 0.34424 0.04127 0.0
C148 C 0.38592 0.37754 0.98097 0.0
O149 O 0.34065 0.32757 0.00487 0.0
O150 O 0.37207 0.32592 0.01136 0.0
C151 C 0.38301 0.31809 0.06943 0.0
N152 N 0.39772 0.33894 0.06039 0.0
C153 C 0.42221 0.34475 0.09927 0.0
C154 C 0.4075 0.32321 0.1088 0.0
C155 C 0.38773 0.30989 0.09392 0.0
C156 C 0.41657 0.35205 0.07481 0.0
H157 H 0.36779 0.30786 0.05807 0.0
C158 C 0.35199 0.31763 0.00274 0.0
O159 O 0.31964 0.354 0.01716 0.0
O160 O 0.32778 0.34115 0.0552 0.0
N161 N 0.42214 0.3794 0.04223 0.0
C162 C 0.43368 0.40032 0.0314 0.0
C163 C 0.4534 0.4161 0.04454 0.0
C164 C 0.46128 0.41009 0.06832 0.0
C165 C 0.44923 0.38839 0.07891 0.0
C166 C 0.42962 0.37343 0.06504 0.0
H167 H 0.42786 0.40493 0.0129 0.0
O168 O 0.36282 0.38477 0.04783 0.0
O169 O 0.37597 0.36156 0.04496 0.0
O170 O 0.36751 0.3745 0.99077 0.0
O171 O 0.39747 0.3699 0.99263 0.0
C172 C 0.45573 0.38108 0.10291 0.0
C173 C 0.44213 0.35936 0.11323 0.0
H174 H 0.41109 0.31682 0.12767 0.0
H175 H 0.37618 0.29332 0.10127 0.0
H176 H 0.4626 0.43283 0.03626 0.0
H177 H 0.47651 0.42232 0.07838 0.0
H178 H 0.47101 0.39212 0.11383 0.0
H179 H 0.44707 0.35411 0.13204 0.0
Mn180 Mn 0.65044 0.00363 0.00362 0.0
Mn181 Mn 0.60256 0.95471 0.99959 0.0
C182 C 0.62305 0.99957 0.97236 0.0
C183 C 0.68696 0.0263 0.98923 0.0
C184 C 0.61332 0.98831 0.0464 0.0
O185 O 0.65794 0.98211 0.02398 0.0
O186 O 0.62633 0.94989 0.01571 0.0
C187 C 0.61557 0.93219 0.95727 0.0
N188 N 0.60147 0.93934 0.96601 0.0
C189 C 0.57779 0.92319 0.92587 0.0
C190 C 0.59192 0.91544 0.91656 0.0
C191 C 0.61096 0.92009 0.93226 0.0
C192 C 0.5833 0.93528 0.95086 0.0
H193 H 0.63021 0.93573 0.9693 0.0
C194 C 0.64622 0.96091 0.02517 0.0
O195 O 0.68006 0.02964 0.01292 0.0
O196 O 0.67291 0.00933 0.97459 0.0
N197 N 0.57802 0.95671 0.98412 0.0
C198 C 0.5669 0.96658 0.99507 0.0
C199 C 0.54792 0.96432 0.98127 0.0
C200 C 0.54033 0.95161 0.95669 0.0
C201 C 0.55188 0.94135 0.94605 0.0
C202 C 0.57078 0.94434 0.96057 0.0
H203 H 0.5725 0.97616 0.01412 0.0
O204 O 0.63834 0.01923 0.98012 0.0
O205 O 0.62442 0.98285 0.98274 0.0
O206 O 0.63187 0.00342 0.03692 0.0
O207 O 0.60172 0.96941 0.03453 0.0
C208 C 0.54549 0.92845 0.92147 0.0
C209 C 0.55855 0.91957 0.91122 0.0
H210 H 0.5884 0.90607 0.89731 0.0
H211 H 0.62203 0.91429 0.92512 0.0
H212 H 0.53909 0.97227 0.98964 0.0
H213 H 0.5257 0.94992 0.94608 0.0
H214 H 0.53074 0.92556 0.91003 0.0
H215 H 0.55373 0.9101 0.89195 0.0
Mn216 Mn 0.66648 0.68824 0.33835 0.0
Mn217 Mn 0.71477 0.73705 0.33689 0.0
C218 C 0.67165 0.71496 0.30549 0.0
C219 C 0.64393 0.65136 0.32491 0.0
C220 C 0.67862 0.72723 0.37869 0.0
O221 O 0.687 0.68105 0.36149 0.0
O222 O 0.71804 0.71448 0.35897 0.0
C223 C 0.7405 0.72163 0.3037 0.0
N224 N 0.73279 0.73617 0.30753 0.0
C225 C 0.75265 0.75767 0.2675 0.0
C226 C 0.76091 0.743 0.26318 0.0
C227 C 0.75471 0.72484 0.28128 0.0
C228 C 0.73842 0.75353 0.29005 0.0
H229 H 0.73589 0.70775 0.31769 0.0
C230 C 0.70735 0.69429 0.36742 0.0
O231 O 0.64006 0.6592 0.34746 0.0
O232 O 0.66145 0.6646 0.31077 0.0
N233 N 0.71458 0.76077 0.31634 0.0
C234 C 0.70437 0.77275 0.32268 0.0
C235 C 0.70838 0.79122 0.30618 0.0
C236 C 0.72319 0.79745 0.28375 0.0
C237 C 0.73374 0.78504 0.27787 0.0
C238 C 0.72899 0.76673 0.29493 0.0
H239 H 0.69322 0.76821 0.34016 0.0
O240 O 0.65186 0.69975 0.31247 0.0
O241 O 0.68809 0.71407 0.31769 0.0
O242 O 0.66528 0.70749 0.37025 0.0
O243 O 0.69737 0.73975 0.36739 0.0
C244 C 0.74862 0.78997 0.2556 0.0
C245 C 0.7579 0.77618 0.25026 0.0
H246 H 0.77193 0.74546 0.24597 0.0
H247 H 0.76095 0.7134 0.27804 0.0
H248 H 0.70018 0.80072 0.31085 0.0
H249 H 0.72626 0.81173 0.27111 0.0
H250 H 0.75287 0.80419 0.24224 0.0
H251 H 0.76902 0.77993 0.23279 0.0
Mn252 Mn 0.31622 0.98455 0.35275 0.0
Mn253 Mn 0.31309 0.93401 0.35403 0.0
C254 C 0.29369 0.95797 0.38492 0.0
C255 C 0.33159 0.02167 0.36636 0.0
C256 C 0.288 0.9462 0.31229 0.0
O257 O 0.34349 0.99035 0.33049 0.0
O258 O 0.33886 0.95572 0.33171 0.0
C259 C 0.35421 0.94763 0.38696 0.0
N260 N 0.332 0.93393 0.3833 0.0
C261 C 0.3302 0.91247 0.4239 0.0
C262 C 0.35308 0.92627 0.42802 0.0
C263 C 0.36512 0.94399 0.40954 0.0
C264 C 0.32022 0.91702 0.40115 0.0
H265 H 0.36355 0.96121 0.37275 0.0
C266 C 0.3494 0.97613 0.32397 0.0
O267 O 0.32012 0.01436 0.34346 0.0
O268 O 0.335 0.00768 0.38086 0.0
N269 N 0.28935 0.91095 0.37476 0.0
C270 C 0.26731 0.89953 0.36827 0.0
C271 C 0.25288 0.8814 0.38488 0.0
C272 C 0.26132 0.8749 0.40762 0.0
C273 C 0.28412 0.88668 0.41366 0.0
C274 C 0.29768 0.90462 0.39637 0.0
H275 H 0.26079 0.90423 0.35058 0.0
O276 O 0.29015 0.9741 0.37775 0.0
O277 O 0.31062 0.95784 0.37339 0.0
O278 O 0.29592 0.96636 0.32015 0.0
O279 O 0.29274 0.93235 0.32385 0.0
C280 C 0.29389 0.88148 0.43629 0.0
C281 C 0.31688 0.89446 0.44153 0.0
H282 H 0.36156 0.92347 0.44536 0.0
H283 H 0.38277 0.95475 0.41263 0.0
H284 H 0.23531 0.87237 0.38005 0.0
H285 H 0.25013 0.86087 0.42032 0.0
H286 H 0.28385 0.86764 0.44997 0.0
H287 H 0.32415 0.89047 0.45921 0.0
Mn288 Mn 0.01002 0.33075 0.35345 0.0
Mn289 Mn 0.05937 0.37824 0.35784 0.0
C290 C 0.03726 0.33272 0.38343 0.0
C291 C 0.97354 0.30912 0.36896 0.0
C292 C 0.04709 0.34507 0.31035 0.0
O293 O 0.00357 0.35356 0.33442 0.0
O294 O 0.0367 0.38439 0.34093 0.0
C295 C 0.04683 0.40121 0.40001 0.0
N296 N 0.06038 0.39327 0.3917 0.0
C297 C 0.08236 0.40658 0.4337 0.0
C298 C 0.06872 0.41503 0.44266 0.0
C299 C 0.05083 0.41226 0.42578 0.0
C300 C 0.07749 0.39563 0.4079 0.0
H301 H 0.03307 0.39911 0.38708 0.0
C302 C 0.01663 0.3745 0.33195 0.0
O303 O 0.97954 0.30571 0.34465 0.0
O304 O 0.9884 0.32567 0.38341 0.0
N305 N 0.08319 0.37516 0.37368 0.0
C306 C 0.09466 0.3659 0.36207 0.0
C307 C 0.11302 0.36711 0.37639 0.0
C308 C 0.11961 0.37813 0.40223 0.0
C309 C 0.10787 0.388 0.41342 0.0
C310 C 0.08975 0.3863 0.39818 0.0
H311 H 0.08978 0.35757 0.3421 0.0
O312 O 0.02114 0.31359 0.37547 0.0
O313 O 0.03675 0.3502 0.37413 0.0
O314 O 0.02793 0.33063 0.31926 0.0
O315 O 0.05975 0.3634 0.32293 0.0
C316 C 0.11337 0.39935 0.43919 0.0
C317 C 0.10052 0.40848 0.44942 0.0
H318 H 0.07177 0.42358 0.46251 0.0
H319 H 0.04018 0.41865 0.4326 0.0
H320 H 0.12205 0.35955 0.36753 0.0
H321 H 0.13368 0.3789 0.41331 0.0
H322 H 0.12733 0.40098 0.45141 0.0
H323 H 0.10475 0.41693 0.46942 0.0
Mn324 Mn 0.66778 0.98022 0.33287 0.0
Mn325 Mn 0.71633 0.97966 0.33147 0.0
C326 C 0.6728 0.95808 0.30081 0.0
C327 C 0.64482 0.99439 0.3191 0.0
C328 C 0.68072 0.95427 0.37425 0.0
O329 O 0.68834 0.00801 0.35544 0.0
O330 O 0.71968 0.00589 0.35252 0.0
C331 C 0.74104 0.01973 0.29633 0.0
N332 N 0.73357 0.9977 0.30106 0.0
C333 C 0.75164 0.99481 0.25989 0.0
C334 C 0.75964 0.01751 0.25464 0.0
C335 C 0.75424 0.03 0.27289 0.0
C336 C 0.73846 0.98547 0.28349 0.0
H337 H 0.73696 0.02939 0.31035 0.0
C338 C 0.70885 0.01534 0.36101 0.0
O339 O 0.64133 0.98304 0.34197 0.0
O340 O 0.66222 0.9984 0.30477 0.0
N341 N 0.71609 0.95539 0.31194 0.0
C342 C 0.70674 0.93361 0.31973 0.0
C343 C 0.71028 0.91876 0.30345 0.0
C344 C 0.72374 0.92654 0.27969 0.0
C345 C 0.73362 0.94913 0.27249 0.0
C346 C 0.72946 0.96313 0.28947 0.0
H347 H 0.69655 0.92759 0.33812 0.0
O348 O 0.65305 0.95385 0.30772 0.0
O349 O 0.68927 0.9755 0.31244 0.0
O350 O 0.6671 0.96034 0.3653 0.0
O351 O 0.69951 0.96038 0.36299 0.0
C352 C 0.74727 0.95828 0.24898 0.0
C353 C 0.75614 0.98106 0.24257 0.0
H354 H 0.76986 0.02549 0.23661 0.0
H355 H 0.76028 0.0475 0.26893 0.0
H356 H 0.70267 0.90137 0.30922 0.0
H357 H 0.72633 0.91501 0.26711 0.0
H358 H 0.75092 0.9479 0.23556 0.0
H359 H 0.76638 0.98783 0.22425 0.0
Mn360 Mn 0.02058 0.69006 0.35351 0.0
Mn361 Mn 0.06903 0.68932 0.35509 0.0
C362 C 0.04877 0.71342 0.38377 0.0
C363 C 0.98445 0.67679 0.37003 0.0
C364 C 0.05763 0.71327 0.31017 0.0
O365 O 0.0125 0.66099 0.3332 0.0
O366 O 0.04548 0.66218 0.33645 0.0
C367 C 0.05523 0.65112 0.39353 0.0
N368 N 0.06949 0.67276 0.38689 0.0
C369 C 0.09235 0.67722 0.42713 0.0
C370 C 0.07798 0.65494 0.43435 0.0
C371 C 0.05929 0.64187 0.41753 0.0
C372 C 0.08739 0.68554 0.40306 0.0
H373 H 0.0409 0.641 0.38059 0.0
C374 C 0.02512 0.65272 0.32866 0.0
O375 O 0.99045 0.68652 0.34587 0.0
O376 O 0.99903 0.67387 0.38372 0.0
N377 N 0.09358 0.71433 0.37253 0.0
C378 C 0.10521 0.73577 0.36336 0.0
C379 C 0.12406 0.75121 0.37833 0.0
C380 C 0.13103 0.74435 0.4022 0.0
C381 C 0.11903 0.72211 0.41093 0.0
C382 C 0.1003 0.7075 0.39528 0.0
H383 H 0.10005 0.74106 0.34485 0.0
O384 O 0.03322 0.71776 0.3765 0.0
O385 O 0.04729 0.6953 0.37344 0.0
O386 O 0.03836 0.7082 0.31922 0.0
O387 O 0.07022 0.70702 0.32213 0.0
C388 C 0.12474 0.71389 0.43475 0.0
C389 C 0.11131 0.69152 0.44298 0.0
H390 H 0.08108 0.64774 0.45281 0.0
H391 H 0.04808 0.62469 0.42301 0.0
H392 H 0.13326 0.76834 0.37143 0.0
H393 H 0.14554 0.75633 0.41374 0.0
H394 H 0.1393 0.7247 0.44707 0.0
H395 H 0.11568 0.68551 0.46158 0.0
Mn396 Mn 0.32095 0.33964 0.33845 0.0
Mn397 Mn 0.27346 0.29054 0.33185 0.0
C398 C 0.29404 0.33634 0.30694 0.0
C399 C 0.35762 0.36303 0.32572 0.0
C400 C 0.28297 0.32258 0.38013 0.0
O401 O 0.3283 0.31772 0.35818 0.0
O402 O 0.29713 0.28567 0.34806 0.0
C403 C 0.28795 0.27 0.28863 0.0
N404 N 0.27349 0.27667 0.29742 0.0
C405 C 0.25161 0.26295 0.25539 0.0
C406 C 0.2662 0.25582 0.24593 0.0
C407 C 0.2845 0.25944 0.26258 0.0
C408 C 0.25599 0.27349 0.28144 0.0
H409 H 0.302 0.27272 0.30141 0.0
C410 C 0.31672 0.29648 0.35849 0.0
O411 O 0.35001 0.36569 0.34923 0.0
O412 O 0.34426 0.34634 0.31018 0.0
N413 N 0.2489 0.29248 0.31636 0.0
C414 C 0.23658 0.30064 0.32835 0.0
C415 C 0.21777 0.29854 0.31427 0.0
C416 C 0.21158 0.28774 0.28825 0.0
C417 C 0.22422 0.27902 0.27663 0.0
C418 C 0.24279 0.28161 0.29164 0.0
H419 H 0.24112 0.30877 0.34846 0.0
O420 O 0.30923 0.35579 0.31544 0.0
O421 O 0.29536 0.31936 0.31652 0.0
O422 O 0.30146 0.33827 0.37131 0.0
O423 O 0.27179 0.30393 0.36752 0.0
C424 C 0.21919 0.26799 0.25067 0.0
C425 C 0.23298 0.26012 0.23995 0.0
H426 H 0.26357 0.24764 0.22588 0.0
H427 H 0.29587 0.25406 0.25539 0.0
H428 H 0.20804 0.30521 0.32345 0.0
H429 H 0.19713 0.28625 0.27738 0.0
H430 H 0.20487 0.26565 0.23866 0.0
H431 H 0.22911 0.25194 0.21978 0.0
Mn432 Mn 0.33218 0.02126 0.67273 0.0
Mn433 Mn 0.38101 0.06936 0.66935 0.0
C434 C 0.33709 0.04774 0.63956 0.0
C435 C 0.30923 0.98432 0.65991 0.0
C436 C 0.34615 0.06037 0.71304 0.0
O437 O 0.3529 0.01406 0.69557 0.0
O438 O 0.38464 0.04639 0.68978 0.0
C439 C 0.40522 0.05384 0.63336 0.0
N440 N 0.39789 0.06851 0.63855 0.0
C441 C 0.41709 0.09064 0.59861 0.0
C442 C 0.42494 0.07582 0.59287 0.0
C443 C 0.41887 0.05727 0.61024 0.0
C444 C 0.40337 0.08623 0.62178 0.0
H445 H 0.40075 0.03969 0.64684 0.0
C446 C 0.37376 0.02653 0.69929 0.0
O447 O 0.3057 0.99242 0.68249 0.0
O448 O 0.3266 0.99734 0.64542 0.0
N449 N 0.3804 0.09336 0.65003 0.0
C450 C 0.37039 0.10529 0.65756 0.0
C451 C 0.37414 0.12401 0.64177 0.0
C452 C 0.38852 0.13055 0.61884 0.0
C453 C 0.39887 0.11817 0.61174 0.0
C454 C 0.39429 0.09954 0.62804 0.0
H455 H 0.35962 0.10053 0.67544 0.0
O456 O 0.31736 0.03275 0.64704 0.0
O457 O 0.35357 0.04668 0.65133 0.0
O458 O 0.33177 0.04106 0.7044 0.0
O459 O 0.36496 0.07214 0.7015 0.0
C460 C 0.41338 0.12345 0.58898 0.0
C461 C 0.42229 0.10956 0.58223 0.0
H462 H 0.43556 0.07848 0.57514 0.0
H463 H 0.42481 0.04573 0.60591 0.0
H464 H 0.3661 0.13348 0.64738 0.0
H465 H 0.39142 0.14503 0.60677 0.0
H466 H 0.41761 0.13802 0.5763 0.0
H467 H 0.43307 0.11357 0.56436 0.0
Mn468 Mn 0.98085 0.31361 0.68804 0.0
Mn469 Mn 0.97963 0.26405 0.69223 0.0
C470 C 0.95816 0.28733 0.72043 0.0
C471 C 0.99557 0.35087 0.7007 0.0
C472 C 0.95525 0.27482 0.64724 0.0
O473 O 0.00865 0.31956 0.66656 0.0
O474 O 0.00664 0.28627 0.67261 0.0
C475 C 0.01833 0.27783 0.72993 0.0
N476 N 0.9965 0.26393 0.72392 0.0
C477 C 0.99225 0.24166 0.76459 0.0
C478 C 0.01472 0.25567 0.77118 0.0
C479 C 0.02778 0.2739 0.75384 0.0
C480 C 0.98372 0.24651 0.74062 0.0
H481 H 0.02845 0.29176 0.71654 0.0
C482 C 0.01634 0.30627 0.66334 0.0
O483 O 0.98436 0.34314 0.67768 0.0
O484 O 0.99908 0.33725 0.71583 0.0
N485 N 0.95463 0.24063 0.71075 0.0
C486 C 0.93303 0.22939 0.70217 0.0
C487 C 0.91762 0.21097 0.71761 0.0
C488 C 0.92465 0.20403 0.74133 0.0
C489 C 0.94703 0.2157 0.74956 0.0
C490 C 0.9616 0.23399 0.73344 0.0
H491 H 0.92761 0.23446 0.68371 0.0
O492 O 0.95442 0.30315 0.71245 0.0
O493 O 0.97548 0.28749 0.70972 0.0
O494 O 0.96098 0.29447 0.65568 0.0
O495 O 0.9615 0.26226 0.65927 0.0
C496 C 0.95542 0.21006 0.77329 0.0
C497 C 0.97796 0.22315 0.78094 0.0
H498 H 0.02209 0.25264 0.78955 0.0
H499 H 0.04512 0.28482 0.75882 0.0
H500 H 0.90038 0.20205 0.71113 0.0
H501 H 0.91271 0.18979 0.75314 0.0
H502 H 0.94464 0.19584 0.786 0.0
H503 H 0.98412 0.21886 0.79948 0.0
Mn504 Mn 0.68123 0.66144 0.68352 0.0
Mn505 Mn 0.72825 0.71109 0.68781 0.0
C506 C 0.70901 0.66587 0.71437 0.0
C507 C 0.64484 0.63814 0.69798 0.0
C508 C 0.71803 0.67812 0.64034 0.0
O509 O 0.67328 0.6827 0.66297 0.0
O510 O 0.70369 0.71545 0.67342 0.0
C511 C 0.71498 0.73154 0.73256 0.0
N512 N 0.72937 0.72522 0.7225 0.0
C513 C 0.75253 0.73915 0.7635 0.0
C514 C 0.7381 0.74606 0.77415 0.0
C515 C 0.71919 0.74215 0.75865 0.0
C516 C 0.74745 0.72863 0.7374 0.0
H517 H 0.70035 0.72842 0.72079 0.0
C518 C 0.68413 0.704 0.66307 0.0
O519 O 0.65195 0.63487 0.67442 0.0
O520 O 0.65848 0.65539 0.71249 0.0
N521 N 0.75349 0.70954 0.70162 0.0
C522 C 0.7654 0.70127 0.68878 0.0
C523 C 0.78463 0.70346 0.70178 0.0
C524 C 0.79161 0.71439 0.72764 0.0
C525 C 0.77934 0.72315 0.74019 0.0
C526 C 0.76037 0.72055 0.72619 0.0
H527 H 0.76024 0.69299 0.66881 0.0
O528 O 0.6937 0.64613 0.70698 0.0
O529 O 0.70721 0.68241 0.70422 0.0
O530 O 0.70027 0.66217 0.65047 0.0
O531 O 0.7288 0.69736 0.65172 0.0
C532 C 0.78508 0.73416 0.76617 0.0
C533 C 0.7716 0.74202 0.77791 0.0
H534 H 0.74128 0.75422 0.79429 0.0
H535 H 0.70788 0.74728 0.76683 0.0
H536 H 0.79405 0.69672 0.6919 0.0
H537 H 0.80635 0.71589 0.73771 0.0
H538 H 0.79967 0.73643 0.77747 0.0
H539 H 0.776 0.75015 0.79811 0.0
Mn540 Mn 0.33138 0.31584 0.66784 0.0
Mn541 Mn 0.38011 0.31583 0.6671 0.0
C542 C 0.3357 0.2915 0.63881 0.0
C543 C 0.30888 0.32968 0.65084 0.0
C544 C 0.34612 0.29466 0.71333 0.0
O545 O 0.35258 0.34494 0.68758 0.0
O546 O 0.38479 0.34477 0.68179 0.0
C547 C 0.40261 0.35024 0.62369 0.0
N548 N 0.39544 0.3292 0.63331 0.0
C549 C 0.41006 0.32006 0.59317 0.0
C550 C 0.41782 0.34171 0.58297 0.0
C551 C 0.414 0.35683 0.59825 0.0
C552 C 0.3988 0.31444 0.61862 0.0
H553 H 0.39958 0.36185 0.63528 0.0
C554 C 0.37363 0.35396 0.68998 0.0
O555 O 0.30547 0.32027 0.67522 0.0
O556 O 0.32589 0.33191 0.63707 0.0
N557 N 0.37829 0.28898 0.65324 0.0
C558 C 0.36914 0.26853 0.66554 0.0
C559 C 0.37113 0.25135 0.65265 0.0
C560 C 0.38274 0.25543 0.62746 0.0
C561 C 0.39236 0.27671 0.61547 0.0
C562 C 0.38992 0.2932 0.62933 0.0
H563 H 0.3603 0.26531 0.68498 0.0
O564 O 0.31604 0.28773 0.64547 0.0
O565 O 0.35222 0.30959 0.64892 0.0
O566 O 0.33132 0.29835 0.70251 0.0
O567 O 0.36508 0.30114 0.70224 0.0
C568 C 0.40409 0.28213 0.59015 0.0
C569 C 0.41281 0.30375 0.57892 0.0
H570 H 0.42658 0.34684 0.56334 0.0
H571 H 0.4198 0.37352 0.59042 0.0
H572 H 0.36371 0.23499 0.66208 0.0
H573 H 0.3841 0.24209 0.61746 0.0
H574 H 0.40625 0.26972 0.57897 0.0
H575 H 0.42149 0.30761 0.55921 0.0
Mn576 Mn 0.68165 0.02103 0.69038 0.0
Mn577 Mn 0.72943 0.01912 0.69441 0.0
C578 C 0.70915 0.04387 0.72179 0.0
C579 C 0.64493 0.00732 0.70472 0.0
C580 C 0.71916 0.04301 0.64796 0.0
O581 O 0.67413 0.99235 0.66941 0.0
O582 O 0.70564 0.99115 0.67754 0.0
C583 C 0.71555 0.98293 0.73602 0.0
N584 N 0.73 0.00408 0.72771 0.0
C585 C 0.75318 0.01031 0.76816 0.0
C586 C 0.7387 0.98849 0.777 0.0
C587 C 0.71973 0.97479 0.76094 0.0
C588 C 0.74809 0.01752 0.74322 0.0
H589 H 0.70095 0.97238 0.72374 0.0
C590 C 0.68584 0.98277 0.6678 0.0
O591 O 0.65194 0.01785 0.6812 0.0
O592 O 0.65899 0.00413 0.71926 0.0
N593 N 0.75411 0.04488 0.71043 0.0
C594 C 0.76571 0.06586 0.69978 0.0
C595 C 0.78474 0.08191 0.71392 0.0
C596 C 0.79188 0.07611 0.73852 0.0
C597 C 0.77989 0.05431 0.7488 0.0
C598 C 0.76099 0.03907 0.73392 0.0
H599 H 0.76045 0.07035 0.68072 0.0
O600 O 0.69375 0.04833 0.71419 0.0
O601 O 0.70774 0.02582 0.71135 0.0
O602 O 0.70048 0.0396 0.65724 0.0
O603 O 0.73067 0.03541 0.65984 0.0
C604 C 0.7858 0.04716 0.77341 0.0
C605 C 0.77235 0.02524 0.78322 0.0
H606 H 0.74189 0.98214 0.79619 0.0
H607 H 0.70839 0.95798 0.76773 0.0
H608 H 0.79393 0.09869 0.70581 0.0
H609 H 0.80653 0.08855 0.74941 0.0
H610 H 0.80052 0.05848 0.78514 0.0
H611 H 0.77684 0.02009 0.80246 0.0
Mn612 Mn 0.98892 0.67298 0.67062 0.0
Mn613 Mn 0.93969 0.6254 0.66708 0.0
C614 C 0.96141 0.67068 0.64092 0.0
C615 C 0.0253 0.6946 0.65513 0.0
C616 C 0.95295 0.65852 0.71483 0.0
O617 O 0.99546 0.65019 0.68952 0.0
O618 O 0.96282 0.61901 0.68166 0.0
C619 C 0.95043 0.60246 0.62283 0.0
N620 N 0.93738 0.61056 0.63258 0.0
C621 C 0.91391 0.59763 0.59174 0.0
C622 C 0.92702 0.58903 0.58132 0.0
C623 C 0.94541 0.59153 0.5969 0.0
C624 C 0.91978 0.60843 0.61766 0.0
H625 H 0.96456 0.60434 0.63477 0.0
C626 C 0.9829 0.62906 0.69064 0.0
O627 O 0.01926 0.69798 0.67942 0.0
O628 O 0.01048 0.67807 0.64056 0.0
N629 N 0.91565 0.629 0.65318 0.0
C630 C 0.90501 0.6387 0.66589 0.0
C631 C 0.88638 0.63793 0.65287 0.0
C632 C 0.87871 0.62693 0.62714 0.0
C633 C 0.88969 0.61672 0.61473 0.0
C634 C 0.90812 0.61798 0.62872 0.0
H635 H 0.91072 0.64704 0.68575 0.0
O636 O 0.97752 0.68994 0.64855 0.0
O637 O 0.96208 0.65337 0.65045 0.0
O638 O 0.97144 0.67332 0.70485 0.0
O639 O 0.9404 0.63982 0.70296 0.0
C640 C 0.88317 0.60549 0.58892 0.0
C641 C 0.89536 0.59608 0.57734 0.0
H642 H 0.9232 0.58059 0.56133 0.0
H643 H 0.95566 0.58501 0.58895 0.0
H644 H 0.87796 0.64579 0.66263 0.0
H645 H 0.86443 0.62649 0.61707 0.0
H646 H 0.86896 0.60421 0.57764 0.0
H647 H 0.89038 0.58778 0.55728 0.0
H648 H 0.1504 0.35391 0.20972 0.0
H649 H 0.12488 0.35854 0.2397 0.0
H650 H 0.06982 0.29979 0.2035 0.0
H651 H 0.09585 0.29481 0.1738 0.0
H652 H 0.16071 0.32273 0.20822 0.0
H653 H 0.13449 0.35621 0.14467 0.0
H654 H 0.10803 0.36294 0.11848 0.0
H655 H 0.08175 0.29859 0.07889 0.0
H656 H 0.10834 0.29172 0.10573 0.0
H657 H 0.17633 0.29489 0.09857 0.0
H658 H 0.20848 0.29928 0.07189 0.0
H659 H 0.25108 0.35888 0.11851 0.0
H660 H 0.21906 0.35531 0.14385 0.0
H661 H 0.15642 0.31949 0.10479 0.0
H662 H 0.19437 0.29438 0.17521 0.0
H663 H 0.22452 0.29871 0.20623 0.0
H664 H 0.23476 0.3632 0.23198 0.0
H665 H 0.20418 0.35824 0.2019 0.0
C666 C 0.12511 0.324 0.18949 0.0
C667 C 0.13285 0.34195 0.2082 0.0
C668 C 0.11815 0.34473 0.22514 0.0
C669 C 0.09522 0.32967 0.22384 0.0
C670 C 0.08739 0.31165 0.20507 0.0
C671 C 0.10221 0.30887 0.18797 0.0
C672 C 0.14138 0.32131 0.17213 0.0
C673 C 0.15966 0.32188 0.18558 0.0
C674 C 0.14008 0.32018 0.14263 0.0
C675 C 0.12325 0.32341 0.12727 0.0
C676 C 0.12285 0.34339 0.13067 0.0
C677 C 0.1078 0.34725 0.1156 0.0
C678 C 0.09292 0.3313 0.09661 0.0
C679 C 0.09295 0.31106 0.09357 0.0
C680 C 0.10819 0.30721 0.10867 0.0
C681 C 0.19529 0.32434 0.12396 0.0
C682 C 0.19255 0.30902 0.10287 0.0
C683 C 0.21087 0.31152 0.08764 0.0
C684 C 0.23221 0.32925 0.09349 0.0
C685 C 0.23482 0.34488 0.11394 0.0
C686 C 0.21653 0.34268 0.12865 0.0
C687 C 0.1761 0.32143 0.14097 0.0
C688 C 0.1571 0.31954 0.12743 0.0
C689 C 0.17721 0.32253 0.17051 0.0
C690 C 0.19692 0.32585 0.18662 0.0
C691 C 0.20327 0.30946 0.18748 0.0
C692 C 0.22056 0.31202 0.20522 0.0
C693 C 0.23177 0.33107 0.2223 0.0
C694 C 0.22605 0.34795 0.22001 0.0
C695 C 0.20867 0.34525 0.20263 0.0
H696 H 0.72091 0.90213 0.17513 0.0
H697 H 0.7164 0.92701 0.20756 0.0
H698 H 0.64632 0.87979 0.21286 0.0
H699 H 0.65107 0.85504 0.18066 0.0
H700 H 0.69065 0.84333 0.19567 0.0
H701 H 0.717 0.9039 0.11789 0.0
H702 H 0.70907 0.92971 0.09122 0.0
H703 H 0.64081 0.87762 0.08145 0.0
H704 H 0.64915 0.85201 0.10702 0.0
H705 H 0.6619 0.80411 0.08402 0.0
H706 H 0.65896 0.77327 0.05699 0.0
H707 H 0.70778 0.77013 0.11123 0.0
H708 H 0.71315 0.80325 0.13502 0.0
H709 H 0.68754 0.84271 0.09219 0.0
H710 H 0.65224 0.78624 0.16739 0.0
H711 H 0.64713 0.75723 0.20124 0.0
H712 H 0.717 0.7935 0.22118 0.0
H713 H 0.72189 0.82288 0.18839 0.0
C714 C 0.68632 0.87682 0.17561 0.0
C715 C 0.70456 0.89738 0.18301 0.0
C716 C 0.70194 0.91155 0.20153 0.0
C717 C 0.68106 0.90526 0.21316 0.0
C718 C 0.6627 0.88497 0.20476 0.0
C719 C 0.66533 0.87088 0.18621 0.0
C720 C 0.68927 0.86052 0.1589 0.0
C721 C 0.69053 0.8434 0.17299 0.0
C722 C 0.68811 0.86016 0.12954 0.0
C723 C 0.68367 0.87609 0.11408 0.0
C724 C 0.70039 0.89816 0.10984 0.0
C725 C 0.69579 0.91288 0.09476 0.0
C726 C 0.67436 0.90568 0.08386 0.0
C727 C 0.65763 0.88361 0.08882 0.0
C728 C 0.6623 0.86895 0.10359 0.0
C729 C 0.68734 0.80591 0.11232 0.0
C730 C 0.67235 0.79711 0.08978 0.0
C731 C 0.67034 0.77895 0.07455 0.0
C732 C 0.68267 0.76838 0.08199 0.0
C733 C 0.69799 0.77755 0.1043 0.0
C734 C 0.70066 0.79633 0.11872 0.0
C735 C 0.68893 0.82501 0.12886 0.0
C736 C 0.68842 0.84274 0.11481 0.0
C737 C 0.68983 0.82545 0.15846 0.0
C738 C 0.68746 0.8065 0.17534 0.0
C739 C 0.66649 0.7877 0.17879 0.0
C740 C 0.66358 0.77126 0.19811 0.0
C741 C 0.68172 0.77326 0.21378 0.0
C742 C 0.70285 0.7916 0.2093 0.0
C743 C 0.70564 0.80832 0.19061 0.0
H744 H 0.11156 0.82779 0.20081 0.0
H745 H 0.08868 0.7982 0.23356 0.0
H746 H 0.10955 0.75506 0.195 0.0
H747 H 0.13306 0.78501 0.16311 0.0
H748 H 0.15575 0.84662 0.20001 0.0
H749 H 0.0965 0.80416 0.13293 0.0
H750 H 0.07199 0.7704 0.10648 0.0
H751 H 0.12924 0.77318 0.06712 0.0
H752 H 0.15349 0.80573 0.09479 0.0
H753 H 0.20333 0.85902 0.09754 0.0
H754 H 0.23484 0.88806 0.07244 0.0
H755 H 0.22309 0.938 0.11049 0.0
H756 H 0.19163 0.90876 0.13586 0.0
H757 H 0.16103 0.84504 0.09708 0.0
H758 H 0.21894 0.87699 0.16399 0.0
H759 H 0.2471 0.90072 0.19813 0.0
H760 H 0.19869 0.9123 0.23982 0.0
H761 H 0.17065 0.88905 0.20517 0.0
C762 C 0.12398 0.80866 0.17933 0.0
C763 C 0.11093 0.81183 0.19913 0.0
C764 C 0.09772 0.79482 0.21776 0.0
C765 C 0.09735 0.77425 0.2171 0.0
C766 C 0.10966 0.77078 0.19639 0.0
C767 C 0.12293 0.78783 0.17785 0.0
C768 C 0.14058 0.82786 0.16267 0.0
C769 C 0.15657 0.84656 0.1774 0.0
C770 C 0.1423 0.82716 0.13326 0.0
C771 C 0.12693 0.80738 0.11627 0.0
C772 C 0.10375 0.79733 0.11883 0.0
C773 C 0.08972 0.77816 0.1034 0.0
C774 C 0.0986 0.76885 0.08486 0.0
C775 C 0.12177 0.77949 0.08167 0.0
C776 C 0.13571 0.79836 0.09728 0.0
C777 C 0.19513 0.88165 0.11878 0.0
C778 C 0.2074 0.8762 0.10033 0.0
C779 C 0.2254 0.89287 0.08585 0.0
C780 C 0.23155 0.91544 0.08933 0.0
C781 C 0.21904 0.92084 0.10755 0.0
C782 C 0.20101 0.90413 0.12207 0.0
C783 C 0.1763 0.8637 0.13451 0.0
C784 C 0.1599 0.84534 0.11964 0.0
C785 C 0.1747 0.8642 0.16394 0.0
C786 C 0.19265 0.88134 0.18179 0.0
C787 C 0.21453 0.88525 0.17983 0.0
C788 C 0.23062 0.89876 0.19945 0.0
C789 C 0.22503 0.90824 0.22169 0.0
C790 C 0.20339 0.90504 0.223 0.0
C791 C 0.18739 0.8918 0.20319 0.0
H792 H 0.28392 0.18256 0.82324 0.0
H793 H 0.2915 0.21289 0.79086 0.0
H794 H 0.35428 0.25416 0.8325 0.0
H795 H 0.34689 0.2235 0.86419 0.0
H796 H 0.31179 0.16499 0.82256 0.0
H797 H 0.28614 0.1977 0.89651 0.0
H798 H 0.2923 0.22944 0.92566 0.0
H799 H 0.35535 0.23677 0.95275 0.0
H800 H 0.34847 0.20463 0.9249 0.0
H801 H 0.35089 0.1393 0.88153 0.0
H802 H 0.35905 0.11347 0.90713 0.0
H803 H 0.29698 0.08794 0.9509 0.0
H804 H 0.28867 0.11368 0.92469 0.0
H805 H 0.31548 0.16099 0.92564 0.0
H806 H 0.34603 0.15972 0.81815 0.0
H807 H 0.35297 0.13709 0.7855 0.0
H808 H 0.29944 0.07745 0.82153 0.0
H809 H 0.29193 0.10054 0.85381 0.0
C810 C 0.31473 0.20078 0.84631 0.0
C811 C 0.29904 0.19835 0.82584 0.0
C812 C 0.30339 0.21576 0.80739 0.0
C813 C 0.3236 0.23591 0.80892 0.0
C814 C 0.33868 0.23876 0.83053 0.0
C815 C 0.33433 0.22133 0.84896 0.0
C816 C 0.31244 0.18091 0.86134 0.0
C817 C 0.31208 0.16384 0.84515 0.0
C818 C 0.31371 0.17992 0.89074 0.0
C819 C 0.31675 0.19869 0.90877 0.0
C820 C 0.30115 0.20609 0.90903 0.0
C821 C 0.3048 0.22435 0.92556 0.0
C822 C 0.32426 0.2357 0.9419 0.0
C823 C 0.33985 0.22819 0.94126 0.0
C824 C 0.33603 0.20982 0.92515 0.0
C825 C 0.31906 0.12827 0.90099 0.0
C826 C 0.33883 0.12788 0.89625 0.0
C827 C 0.34356 0.11323 0.91109 0.0
C828 C 0.3287 0.09873 0.93116 0.0
C829 C 0.30865 0.09876 0.93542 0.0
C830 C 0.30396 0.11354 0.9206 0.0
C831 C 0.31495 0.14508 0.88675 0.0
C832 C 0.31422 0.16161 0.90309 0.0
C833 C 0.31428 0.14647 0.8573 0.0
C834 C 0.31842 0.13187 0.83843 0.0
C835 C 0.33568 0.14177 0.81904 0.0
C836 C 0.33982 0.12875 0.80055 0.0
C837 C 0.32691 0.1054 0.80103 0.0
C838 C 0.30961 0.09539 0.82053 0.0
C839 C 0.30541 0.10854 0.83912 0.0
H840 H 0.81434 0.10117 0.84623 0.0
H841 H 0.78478 0.07597 0.81441 0.0
H842 H 0.76104 0.12317 0.80822 0.0
H843 H 0.79026 0.14798 0.84071 0.0
H844 H 0.84073 0.16009 0.82578 0.0
H845 H 0.81146 0.09866 0.89725 0.0
H846 H 0.77996 0.06983 0.92299 0.0
H847 H 0.76252 0.119 0.94967 0.0
H848 H 0.79407 0.14768 0.92386 0.0
H849 H 0.85294 0.19878 0.93717 0.0
H850 H 0.88072 0.22904 0.96479 0.0
H851 H 0.93195 0.2316 0.91106 0.0
H852 H 0.9043 0.19892 0.88671 0.0
H853 H 0.84112 0.15983 0.92931 0.0
H854 H 0.86153 0.21768 0.85156 0.0
H855 H 0.88679 0.24606 0.81845 0.0
H856 H 0.9184 0.20673 0.80299 0.0
H857 H 0.89257 0.17802 0.83491 0.0
C858 C 0.80423 0.12624 0.84609 0.0
C859 C 0.8024 0.10578 0.83856 0.0
C860 C 0.7856 0.09148 0.82021 0.0
C861 C 0.77076 0.0977 0.80844 0.0
C862 C 0.77239 0.11803 0.81659 0.0
C863 C 0.78896 0.13214 0.83528 0.0
C864 C 0.8234 0.14264 0.86272 0.0
C865 C 0.84105 0.15994 0.84845 0.0
C866 C 0.8235 0.14257 0.89217 0.0
C867 C 0.8048 0.12518 0.90823 0.0
C868 C 0.80071 0.10314 0.90844 0.0
C869 C 0.78275 0.08672 0.92325 0.0
C870 C 0.76867 0.09209 0.93833 0.0
C871 C 0.77317 0.11433 0.93857 0.0
C872 C 0.7911 0.13072 0.92369 0.0
C873 C 0.87623 0.19676 0.90904 0.0
C874 C 0.8702 0.20556 0.9316 0.0
C875 C 0.88628 0.22338 0.94717 0.0
C876 C 0.90891 0.2336 0.94004 0.0
C877 C 0.91491 0.22443 0.91769 0.0
C878 C 0.89887 0.20595 0.90292 0.0
C879 C 0.85873 0.17787 0.89245 0.0
C880 C 0.84119 0.16006 0.90667 0.0
C881 C 0.85856 0.1776 0.86283 0.0
C882 C 0.87542 0.19595 0.84582 0.0
C883 C 0.8741 0.21536 0.84124 0.0
C884 C 0.88843 0.23146 0.82234 0.0
C885 C 0.90453 0.22851 0.80825 0.0
C886 C 0.90624 0.20941 0.81366 0.0
C887 C 0.89153 0.19305 0.83186 0.0
H888 H 0.80034 0.6462 0.82003 0.0
H889 H 0.77047 0.64128 0.78854 0.0
H890 H 0.77926 0.70519 0.81453 0.0
H891 H 0.80854 0.70939 0.84696 0.0
H892 H 0.8438 0.6803 0.81758 0.0
H893 H 0.78507 0.64618 0.87986 0.0
H894 H 0.75196 0.63787 0.90626 0.0
H895 H 0.78757 0.7017 0.94754 0.0
H896 H 0.8208 0.71021 0.92037 0.0
H897 H 0.90446 0.71952 0.89468 0.0
H898 H 0.93392 0.71747 0.92117 0.0
H899 H 0.88818 0.6487 0.94113 0.0
H900 H 0.85902 0.65084 0.9143 0.0
H901 H 0.84398 0.68639 0.92076 0.0
H902 H 0.9056 0.71395 0.84493 0.0
H903 H 0.93141 0.70841 0.81594 0.0
H904 H 0.88005 0.64048 0.80028 0.0
H905 H 0.85521 0.64581 0.83074 0.0
C906 C 0.80672 0.67822 0.83564 0.0
C907 C 0.7957 0.65907 0.81901 0.0
C908 C 0.77872 0.6564 0.80082 0.0
C909 C 0.77266 0.67306 0.79837 0.0
C910 C 0.78336 0.69197 0.81576 0.0
C911 C 0.80017 0.69447 0.8343 0.0
C912 C 0.82577 0.68152 0.85328 0.0
C913 C 0.844 0.68202 0.84012 0.0
C914 C 0.82566 0.68311 0.8827 0.0
C915 C 0.80536 0.67894 0.89786 0.0
C916 C 0.78569 0.65861 0.89417 0.0
C917 C 0.76683 0.65378 0.90951 0.0
C918 C 0.76719 0.66908 0.92911 0.0
C919 C 0.78675 0.68966 0.93244 0.0
C920 C 0.80575 0.69448 0.91708 0.0
C921 C 0.87974 0.68523 0.90223 0.0
C922 C 0.90088 0.70402 0.9047 0.0
C923 C 0.91763 0.70283 0.91986 0.0
C924 C 0.91336 0.68292 0.9332 0.0
C925 C 0.89192 0.66434 0.93136 0.0
C926 C 0.87528 0.66549 0.91596 0.0
C927 C 0.86228 0.68582 0.88488 0.0
C928 C 0.84421 0.68577 0.89814 0.0
C929 C 0.86202 0.68365 0.85554 0.0
C930 C 0.87865 0.68015 0.84046 0.0
C931 C 0.90026 0.69767 0.83604 0.0
C932 C 0.91487 0.69455 0.81901 0.0
C933 C 0.90795 0.67396 0.80562 0.0
C934 C 0.88633 0.65641 0.81062 0.0
C935 C 0.87194 0.65946 0.8279 0.0
H936 H 0.81813 0.69533 0.52278 0.0
H937 H 0.79322 0.69966 0.55441 0.0
H938 H 0.74415 0.63038 0.54177 0.0
H939 H 0.77015 0.62596 0.51186 0.0
H940 H 0.83058 0.65936 0.53577 0.0
H941 H 0.82017 0.69267 0.43806 0.0
H942 H 0.79333 0.69986 0.41366 0.0
H943 H 0.7404 0.63536 0.43915 0.0
H944 H 0.76777 0.62778 0.4622 0.0
H945 H 0.84816 0.6314 0.4273 0.0
H946 H 0.88005 0.63466 0.40124 0.0
H947 H 0.92395 0.69232 0.45022 0.0
H948 H 0.8922 0.68998 0.47494 0.0
H949 H 0.83018 0.65679 0.4323 0.0
H950 H 0.86397 0.62976 0.5066 0.0
H951 H 0.8928 0.63334 0.53942 0.0
H952 H 0.90441 0.69878 0.56299 0.0
H953 H 0.87499 0.69449 0.53116 0.0
C954 C 0.79582 0.66046 0.5145 0.0
C955 C 0.80188 0.68117 0.52659 0.0
C956 C 0.78744 0.68362 0.54457 0.0
C957 C 0.76641 0.66541 0.55074 0.0
C958 C 0.76022 0.64476 0.53793 0.0
C959 C 0.77491 0.64225 0.52034 0.0
C960 C 0.81246 0.65763 0.49839 0.0
C961 C 0.83032 0.65837 0.51314 0.0
C962 C 0.81233 0.65687 0.46891 0.0
C963 C 0.79588 0.65991 0.45242 0.0
C964 C 0.80282 0.67997 0.4381 0.0
C965 C 0.78739 0.68414 0.42445 0.0
C966 C 0.76461 0.6684 0.42503 0.0
C967 C 0.75779 0.64787 0.43841 0.0
C968 C 0.77335 0.64362 0.45188 0.0
C969 C 0.8677 0.66 0.45384 0.0
C970 C 0.86462 0.64484 0.43235 0.0
C971 C 0.88281 0.64669 0.41745 0.0
C972 C 0.90442 0.66356 0.42402 0.0
C973 C 0.90747 0.67893 0.44509 0.0
C974 C 0.8893 0.67741 0.45948 0.0
C975 C 0.84835 0.65802 0.46975 0.0
C976 C 0.83006 0.65668 0.45495 0.0
C977 C 0.84836 0.65895 0.49931 0.0
C978 C 0.86728 0.66177 0.51673 0.0
C979 C 0.87288 0.64487 0.5188 0.0
C980 C 0.88943 0.64703 0.53757 0.0
C981 C 0.90071 0.66618 0.55447 0.0
C982 C 0.89565 0.68347 0.55115 0.0
C983 C 0.87896 0.68117 0.53275 0.0
H984 H 0.38177 0.23836 0.50655 0.0
H985 H 0.37691 0.26255 0.53953 0.0
H986 H 0.31193 0.20819 0.56028 0.0
H987 H 0.31747 0.18406 0.52823 0.0
H988 H 0.35201 0.17401 0.533 0.0
H989 H 0.38541 0.23021 0.43495 0.0
H990 H 0.37825 0.2564 0.40763 0.0
H991 H 0.31178 0.22572 0.44042 0.0
H992 H 0.31891 0.19978 0.46737 0.0
H993 H 0.33332 0.14356 0.418 0.0
H994 H 0.33038 0.11302 0.39026 0.0
H995 H 0.37592 0.10645 0.447 0.0
H996 H 0.38149 0.13934 0.47157 0.0
H997 H 0.35983 0.18208 0.43016 0.0
H998 H 0.31739 0.12048 0.50321 0.0
H999 H 0.31194 0.09085 0.53627 0.0
H1000 H 0.38201 0.12557 0.55501 0.0
H1001 H 0.38725 0.15555 0.52317 0.0
C1002 C 0.35007 0.20941 0.51518 0.0
C1003 C 0.36646 0.23179 0.51814 0.0
C1004 C 0.36358 0.2456 0.53701 0.0
C1005 C 0.34416 0.23729 0.55314 0.0
C1006 C 0.3274 0.21507 0.54902 0.0
C1007 C 0.33043 0.20125 0.53048 0.0
C1008 C 0.35378 0.19396 0.49754 0.0
C1009 C 0.35394 0.17586 0.5105 0.0
C1010 C 0.35607 0.1963 0.46829 0.0
C1011 C 0.35273 0.2132 0.45328 0.0
C1012 C 0.3694 0.22936 0.4364 0.0
C1013 C 0.36536 0.24432 0.42096 0.0
C1014 C 0.34444 0.24295 0.42187 0.0
C1015 C 0.32799 0.22701 0.4392 0.0
C1016 C 0.33209 0.21229 0.45473 0.0
C1017 C 0.35702 0.14347 0.44777 0.0
C1018 C 0.34309 0.13589 0.42414 0.0
C1019 C 0.34105 0.11789 0.4085 0.0
C1020 C 0.35223 0.10629 0.4166 0.0
C1021 C 0.36689 0.11457 0.43968 0.0
C1022 C 0.36965 0.13321 0.45453 0.0
C1023 C 0.35762 0.16154 0.46554 0.0
C1024 C 0.35847 0.18037 0.45269 0.0
C1025 C 0.3554 0.15951 0.49496 0.0
C1026 C 0.35278 0.1399 0.5105 0.0
C1027 C 0.33161 0.1214 0.51407 0.0
C1028 C 0.32851 0.10463 0.53297 0.0
C1029 C 0.34664 0.10603 0.54811 0.0
C1030 C 0.3679 0.12409 0.54349 0.0
C1031 C 0.37089 0.14113 0.52528 0.0
H1032 H 0.77614 0.15751 0.53878 0.0
H1033 H 0.75303 0.12821 0.57173 0.0
H1034 H 0.77312 0.08425 0.53373 0.0
H1035 H 0.79685 0.11391 0.50161 0.0
H1036 H 0.82085 0.17585 0.53719 0.0
H1037 H 0.75972 0.13284 0.47118 0.0
H1038 H 0.73493 0.09857 0.44558 0.0
H1039 H 0.79188 0.1002 0.40695 0.0
H1040 H 0.81637 0.13341 0.43344 0.0
H1041 H 0.86557 0.18723 0.43217 0.0
H1042 H 0.89615 0.21623 0.4057 0.0
H1043 H 0.88532 0.26617 0.44558 0.0
H1044 H 0.85494 0.23701 0.47238 0.0
H1045 H 0.82334 0.1731 0.434 0.0
H1046 H 0.88208 0.20227 0.49851 0.0
H1047 H 0.91205 0.2252 0.53102 0.0
H1048 H 0.8682 0.24241 0.57456 0.0
H1049 H 0.83837 0.21986 0.54146 0.0
C1050 C 0.78813 0.13791 0.51753 0.0
C1051 C 0.77531 0.14144 0.5373 0.0
C1052 C 0.76197 0.1246 0.55603 0.0
C1053 C 0.76125 0.10386 0.55551 0.0
C1054 C 0.77347 0.1001 0.53498 0.0
C1055 C 0.78687 0.11698 0.51632 0.0
C1056 C 0.80453 0.15679 0.50037 0.0
C1057 C 0.82104 0.17554 0.51454 0.0
C1058 C 0.80555 0.1557 0.47091 0.0
C1059 C 0.78998 0.13561 0.45457 0.0
C1060 C 0.76683 0.12567 0.45735 0.0
C1061 C 0.75266 0.10621 0.44248 0.0
C1062 C 0.76141 0.09645 0.42445 0.0
C1063 C 0.78454 0.10691 0.42111 0.0
C1064 C 0.79861 0.12613 0.43605 0.0
C1065 C 0.85801 0.20991 0.45445 0.0
C1066 C 0.86967 0.20442 0.43508 0.0
C1067 C 0.88711 0.22105 0.41981 0.0
C1068 C 0.89325 0.24361 0.4234 0.0
C1069 C 0.8813 0.24903 0.44253 0.0
C1070 C 0.86388 0.23236 0.45788 0.0
C1071 C 0.83967 0.19207 0.47087 0.0
C1072 C 0.8228 0.17367 0.4566 0.0
C1073 C 0.83898 0.1928 0.50036 0.0
C1074 C 0.85798 0.20946 0.51735 0.0
C1075 C 0.87907 0.2115 0.51451 0.0
C1076 C 0.89613 0.22441 0.53334 0.0
C1077 C 0.89246 0.23547 0.55554 0.0
C1078 C 0.87164 0.23426 0.55758 0.0
C1079 C 0.85454 0.22129 0.53874 0.0
H1080 H 0.95803 0.53536 0.18367 0.0
H1081 H 0.96707 0.56623 0.15108 0.0
H1082 H 0.0207 0.55827 0.11817 0.0
H1083 H 0.01227 0.52848 0.15118 0.0
H1084 H 0.97775 0.48988 0.1541 0.0
H1085 H 0.95271 0.5186 0.25521 0.0
H1086 H 0.96241 0.55263 0.28183 0.0
H1087 H 0.02546 0.5863 0.23975 0.0
H1088 H 0.01595 0.55233 0.21387 0.0
H1089 H 0.00792 0.4862 0.26307 0.0
H1090 H 0.01534 0.46136 0.29152 0.0
H1091 H 0.961 0.4045 0.251 0.0
H1092 H 0.95248 0.42963 0.22416 0.0
H1093 H 0.97702 0.49564 0.25712 0.0
H1094 H 0.01641 0.47888 0.17881 0.0
H1095 H 0.02366 0.45639 0.14627 0.0
H1096 H 0.95324 0.40923 0.1418 0.0
H1097 H 0.94624 0.43323 0.1726 0.0
C1098 C 0.98443 0.52955 0.16983 0.0
C1099 C 0.97189 0.54052 0.16962 0.0
C1100 C 0.97697 0.55803 0.15086 0.0
C1101 C 0.99469 0.56483 0.13206 0.0
C1102 C 0.00723 0.55385 0.13263 0.0
C1103 C 0.00223 0.53655 0.15131 0.0
C1104 C 0.97915 0.51042 0.18865 0.0
C1105 C 0.97714 0.49099 0.17666 0.0
C1106 C 0.97866 0.51196 0.21807 0.0
C1107 C 0.98348 0.53299 0.23231 0.0
C1108 C 0.9685 0.53342 0.25155 0.0
C1109 C 0.97401 0.55288 0.26663 0.0
C1110 C 0.99474 0.57211 0.26298 0.0
C1111 C 0.00946 0.5717 0.24326 0.0
C1112 C 0.00394 0.55234 0.22821 0.0
C1113 C 0.97992 0.45988 0.24091 0.0
C1114 C 0.99731 0.46839 0.26058 0.0
C1115 C 1.00174 0.45409 0.27662 0.0
C1116 C 0.98913 0.43085 0.27314 0.0
C1117 C 0.97111 0.42228 0.25425 0.0
C1118 C 0.96645 0.43667 0.23847 0.0
C1119 C 0.97673 0.47554 0.2225 0.0
C1120 C 0.97669 0.49415 0.23455 0.0
C1121 C 0.97679 0.47399 0.19307 0.0
C1122 C 0.98085 0.45751 0.17844 0.0
C1123 C 0.00261 0.46344 0.17121 0.0
C1124 C 0.0067 0.45037 0.15259 0.0
C1125 C 0.98907 0.43079 0.14104 0.0
C1126 C 0.96728 0.42436 0.14959 0.0
C1127 C 0.9632 0.43784 0.16765 0.0
H1128 H 0.49278 0.44511 0.16276 0.0
H1129 H 0.4632 0.42024 0.13067 0.0
H1130 H 0.424 0.45033 0.15414 0.0
H1131 H 0.45339 0.47484 0.18714 0.0
H1132 H 0.51202 0.4948 0.15788 0.0
H1133 H 0.47115 0.4323 0.21766 0.0
H1134 H 0.43903 0.40509 0.24276 0.0
H1135 H 0.44401 0.45723 0.29758 0.0
H1136 H 0.47381 0.48464 0.26948 0.0
H1137 H 0.52315 0.53404 0.26852 0.0
H1138 H 0.55056 0.56446 0.29624 0.0
H1139 H 0.60247 0.56692 0.24394 0.0
H1140 H 0.57514 0.53408 0.2195 0.0
H1141 H 0.51195 0.49517 0.26129 0.0
H1142 H 0.53285 0.55251 0.1829 0.0
H1143 H 0.55831 0.58051 0.14961 0.0
H1144 H 0.58977 0.54084 0.13561 0.0
H1145 H 0.56371 0.51246 0.16776 0.0
C1146 C 0.4751 0.46158 0.17751 0.0
C1147 C 0.47764 0.44605 0.16139 0.0
C1148 C 0.46078 0.43186 0.14312 0.0
C1149 C 0.44142 0.43339 0.14006 0.0
C1150 C 0.43881 0.44886 0.15627 0.0
C1151 C 0.45548 0.46274 0.17511 0.0
C1152 C 0.49388 0.47796 0.19472 0.0
C1153 C 0.51204 0.49481 0.18056 0.0
C1154 C 0.49362 0.47802 0.22429 0.0
C1155 C 0.47465 0.46083 0.2408 0.0
C1156 C 0.46483 0.43805 0.23437 0.0
C1157 C 0.44667 0.42225 0.24952 0.0
C1158 C 0.43843 0.42862 0.2725 0.0
C1159 C 0.44906 0.4514 0.27965 0.0
C1160 C 0.46659 0.46724 0.26376 0.0
C1161 C 0.54679 0.53192 0.24111 0.0
C1162 C 0.54048 0.54083 0.26329 0.0
C1163 C 0.55635 0.55874 0.27892 0.0
C1164 C 0.57905 0.56897 0.2722 0.0
C1165 C 0.58535 0.55973 0.25023 0.0
C1166 C 0.5695 0.54115 0.23542 0.0
C1167 C 0.52945 0.51293 0.22448 0.0
C1168 C 0.51172 0.49532 0.23866 0.0
C1169 C 0.52955 0.51244 0.19492 0.0
C1170 C 0.54663 0.53061 0.17792 0.0
C1171 C 0.54544 0.55004 0.17289 0.0
C1172 C 0.55988 0.56592 0.15389 0.0
C1173 C 0.57596 0.56275 0.14015 0.0
C1174 C 0.57761 0.54367 0.14603 0.0
C1175 C 0.56277 0.52751 0.16436 0.0
H1176 H 0.55358 0.04504 0.15092 0.0
H1177 H 0.57715 0.03871 0.11879 0.0
H1178 H 0.56118 0.97757 0.16198 0.0
H1179 H 0.53708 0.98367 0.1935 0.0
H1180 H 0.50968 0.01837 0.15477 0.0
H1181 H 0.57246 0.04099 0.21445 0.0
H1182 H 0.60073 0.03617 0.23839 0.0
H1183 H 0.55072 0.98861 0.29406 0.0
H1184 H 0.52233 0.99089 0.26712 0.0
H1185 H 0.46705 0.98156 0.25645 0.0
H1186 H 0.43331 0.97334 0.28121 0.0
H1187 H 0.43543 0.03195 0.24535 0.0
H1188 H 0.47005 0.04079 0.22184 0.0
H1189 H 0.50859 0.01562 0.25818 0.0
H1190 H 0.45508 0.97904 0.17493 0.0
H1191 H 0.42575 0.97565 0.14274 0.0
H1192 H 0.45702 0.04729 0.13825 0.0
H1193 H 0.4866 0.05058 0.16967 0.0
C1194 C 0.54363 0.01489 0.1747 0.0
C1195 C 0.55538 0.03041 0.15367 0.0
C1196 C 0.56899 0.02685 0.13544 0.0
C1197 C 0.57102 0.00759 0.13775 0.0
C1198 C 0.5598 0.99245 0.15945 0.0
C1199 C 0.54618 0.99601 0.17765 0.0
C1200 C 0.52716 0.01738 0.19177 0.0
C1201 C 0.5098 0.01821 0.17744 0.0
C1202 C 0.52705 0.01672 0.22143 0.0
C1203 C 0.54495 0.01577 0.23811 0.0
C1204 C 0.56746 0.029 0.23128 0.0
C1205 C 0.58385 0.02659 0.24564 0.0
C1206 C 0.57835 0.01167 0.26826 0.0
C1207 C 0.5559 0.99961 0.2762 0.0
C1208 C 0.53946 0.00129 0.26104 0.0
C1209 C 0.47094 0.01158 0.23684 0.0
C1210 C 0.4604 0.99279 0.2541 0.0
C1211 C 0.44092 0.98797 0.26802 0.0
C1212 C 0.43135 0.00175 0.26492 0.0
C1213 C 0.44229 0.02096 0.24824 0.0
C1214 C 0.46195 0.02587 0.23445 0.0
C1215 C 0.49098 0.01562 0.22103 0.0
C1216 C 0.50896 0.01613 0.23556 0.0
C1217 C 0.49165 0.01701 0.19162 0.0
C1218 C 0.47283 0.01505 0.17473 0.0
C1219 C 0.45544 0.99399 0.16716 0.0
C1220 C 0.4388 0.99208 0.14873 0.0
C1221 C 0.43919 0.01125 0.1379 0.0
C1222 C 0.45628 0.0323 0.1463 0.0
C1223 C 0.47315 0.03419 0.16423 0.0
H1224 H 0.48638 0.01559 0.87635 0.0
H1225 H 0.46321 0.02223 0.90826 0.0
H1226 H 0.40464 0.96698 0.87207 0.0
H1227 H 0.42825 0.95986 0.84047 0.0
H1228 H 0.49392 0.98304 0.87142 0.0
H1229 H 0.46691 0.01959 0.81334 0.0
H1230 H 0.44096 0.02803 0.7888 0.0
H1231 H 0.41393 0.96547 0.74452 0.0
H1232 H 0.43975 0.95676 0.76991 0.0
H1233 H 0.51927 0.95059 0.79518 0.0
H1234 H 0.55119 0.95474 0.76878 0.0
H1235 H 0.5657 0.02074 0.7435 0.0
H1236 H 0.5337 0.01637 0.76991 0.0
H1237 H 0.48653 0.98226 0.76828 0.0
H1238 H 0.51986 0.95085 0.84663 0.0
H1239 H 0.55068 0.95625 0.87705 0.0
H1240 H 0.57215 0.02649 0.88247 0.0
H1241 H 0.54179 0.02108 0.85115 0.0
C1242 C 0.45913 0.98721 0.85594 0.0
C1243 C 0.46856 0.00477 0.87529 0.0
C1244 C 0.45522 0.00872 0.89336 0.0
C1245 C 0.432 0.9953 0.89256 0.0
C1246 C 0.42247 0.97758 0.87329 0.0
C1247 C 0.43592 0.9736 0.85509 0.0
C1248 C 0.47394 0.9835 0.83699 0.0
C1249 C 0.49195 0.98242 0.84887 0.0
C1250 C 0.47184 0.98322 0.80752 0.0
C1251 C 0.45509 0.98745 0.79365 0.0
C1252 C 0.45512 0.00746 0.79878 0.0
C1253 C 0.4404 0.01234 0.78458 0.0
C1254 C 0.42551 0.99744 0.76465 0.0
C1255 C 0.4251 0.97714 0.75996 0.0
C1256 C 0.43991 0.97224 0.77425 0.0
C1257 C 0.5243 0.98328 0.78481 0.0
C1258 C 0.52933 0.96593 0.78392 0.0
C1259 C 0.54759 0.96834 0.76881 0.0
C1260 C 0.56116 0.98815 0.75414 0.0
C1261 C 0.55553 0.00518 0.75427 0.0
C1262 C 0.53727 0.00275 0.76945 0.0
C1263 C 0.50628 0.98168 0.80293 0.0
C1264 C 0.48779 0.98183 0.79085 0.0
C1265 C 0.50835 0.98214 0.83228 0.0
C1266 C 0.52876 0.98561 0.84652 0.0
C1267 C 0.53164 0.96749 0.85369 0.0
C1268 C 0.54912 0.97058 0.87132 0.0
C1269 C 0.56346 0.99168 0.8828 0.0
C1270 C 0.5611 0.00995 0.87443 0.0
C1271 C 0.54391 0.00693 0.8564 0.0
H1272 H 0.04618 0.5687 0.83666 0.0
H1273 H 0.04254 0.59423 0.86862 0.0
H1274 H 0.97681 0.54192 0.8906 0.0
H1275 H 0.98115 0.51642 0.85962 0.0
H1276 H 0.01529 0.50519 0.86518 0.0
H1277 H 0.04858 0.55915 0.76564 0.0
H1278 H 0.04217 0.58571 0.73802 0.0
H1279 H 0.97588 0.5567 0.77108 0.0
H1280 H 0.98227 0.53039 0.79831 0.0
H1281 H 0.99521 0.47213 0.75116 0.0
H1282 H 0.99248 0.44148 0.72383 0.0
H1283 H 0.03833 0.43574 0.78089 0.0
H1284 H 0.04366 0.4687 0.80505 0.0
H1285 H 0.02202 0.51081 0.7621 0.0
H1286 H 0.98012 0.45083 0.83773 0.0
H1287 H 0.97523 0.42197 0.87175 0.0
H1288 H 0.04559 0.45711 0.88866 0.0
H1289 H 0.05028 0.48634 0.85586 0.0
C1290 C 0.01402 0.54066 0.84603 0.0
C1291 C 0.03097 0.56286 0.84831 0.0
C1292 C 0.02879 0.57746 0.86658 0.0
C1293 C 0.00952 0.57013 0.88277 0.0
C1294 C 0.99219 0.54807 0.87929 0.0
C1295 C 0.99453 0.53346 0.86136 0.0
C1296 C 0.01698 0.52444 0.82899 0.0
C1297 C 0.01693 0.50647 0.84262 0.0
C1298 C 0.01895 0.52606 0.79967 0.0
C1299 C 0.01594 0.54295 0.7841 0.0
C1300 C 0.03276 0.55871 0.76702 0.0
C1301 C 0.02914 0.57388 0.75142 0.0
C1302 C 0.0085 0.57312 0.75236 0.0
C1303 C 0.99187 0.5575 0.76979 0.0
C1304 C 0.99555 0.54258 0.78549 0.0
C1305 C 0.01907 0.47248 0.78104 0.0
C1306 C 0.00507 0.46458 0.75748 0.0
C1307 C 0.00316 0.44654 0.74207 0.0
C1308 C 0.01458 0.43521 0.75029 0.0
C1309 C 0.02916 0.44368 0.77343 0.0
C1310 C 0.03177 0.46235 0.78806 0.0
C1311 C 0.01991 0.49095 0.79821 0.0
C1312 C 0.02086 0.50959 0.78466 0.0
C1313 C 0.01801 0.48962 0.8277 0.0
C1314 C 0.01561 0.47041 0.84403 0.0
C1315 C 0.99451 0.45202 0.84844 0.0
C1316 C 0.99174 0.43569 0.86791 0.0
C1317 C 0.0101 0.43743 0.88282 0.0
C1318 C 0.03127 0.45539 0.87741 0.0
C1319 C 0.03396 0.472 0.85862 0.0
H1320 H 0.44666 0.49253 0.87287 0.0
H1321 H 0.42257 0.46354 0.90562 0.0
H1322 H 0.43788 0.41693 0.86505 0.0
H1323 H 0.46265 0.44619 0.83332 0.0
H1324 H 0.49074 0.50837 0.87041 0.0
H1325 H 0.42975 0.47342 0.79744 0.0
H1326 H 0.40384 0.44214 0.76795 0.0
H1327 H 0.45723 0.4297 0.74586 0.0
H1328 H 0.48287 0.46139 0.77396 0.0
H1329 H 0.52982 0.51732 0.75885 0.0
H1330 H 0.55928 0.54437 0.73023 0.0
H1331 H 0.56501 0.59706 0.7846 0.0
H1332 H 0.53312 0.57008 0.81044 0.0
H1333 H 0.49231 0.50595 0.76718 0.0
H1334 H 0.55181 0.53188 0.83301 0.0
H1335 H 0.58218 0.55482 0.86517 0.0
H1336 H 0.54001 0.57537 0.90659 0.0
H1337 H 0.5099 0.55283 0.8739 0.0
C1338 C 0.45635 0.47157 0.85036 0.0
C1339 C 0.44454 0.47596 0.87076 0.0
C1340 C 0.43064 0.4593 0.88939 0.0
C1341 C 0.42833 0.43787 0.88812 0.0
C1342 C 0.43945 0.43329 0.86688 0.0
C1343 C 0.45341 0.44997 0.84838 0.0
C1344 C 0.47361 0.49011 0.83351 0.0
C1345 C 0.4909 0.50817 0.84776 0.0
C1346 C 0.4745 0.48923 0.80411 0.0
C1347 C 0.45822 0.46977 0.78766 0.0
C1348 C 0.43574 0.46389 0.78611 0.0
C1349 C 0.42097 0.44596 0.76934 0.0
C1350 C 0.42843 0.4335 0.75407 0.0
C1351 C 0.45091 0.43924 0.75645 0.0
C1352 C 0.46562 0.45727 0.77276 0.0
C1353 C 0.52911 0.54135 0.7873 0.0
C1354 C 0.53705 0.53475 0.76437 0.0
C1355 C 0.55447 0.55043 0.74817 0.0
C1356 C 0.56524 0.57328 0.75495 0.0
C1357 C 0.55725 0.57985 0.77803 0.0
C1358 C 0.53916 0.5642 0.79352 0.0
C1359 C 0.51007 0.52428 0.80402 0.0
C1360 C 0.49225 0.50658 0.7898 0.0
C1361 C 0.50943 0.52481 0.83363 0.0
C1362 C 0.52861 0.54075 0.85092 0.0
C1363 C 0.54927 0.54173 0.8486 0.0
C1364 C 0.56655 0.55469 0.86718 0.0
C1365 C 0.56348 0.56683 0.88856 0.0
C1366 C 0.54302 0.56643 0.8902 0.0
C1367 C 0.52574 0.55344 0.87164 0.0
H1368 H 0.61614 0.84325 0.48888 0.0
H1369 H 0.62402 0.87193 0.45363 0.0
H1370 H 0.68852 0.91324 0.4912 0.0
H1371 H 0.68085 0.8843 0.52572 0.0
H1372 H 0.64076 0.82273 0.4912 0.0
H1373 H 0.62111 0.86255 0.56184 0.0
H1374 H 0.62773 0.89497 0.58987 0.0
H1375 H 0.69214 0.9043 0.61394 0.0
H1376 H 0.68484 0.87146 0.58724 0.0
H1377 H 0.68266 0.81631 0.59008 0.0
H1378 H 0.68908 0.78971 0.61617 0.0
H1379 H 0.62568 0.73623 0.58778 0.0
H1380 H 0.6198 0.76314 0.56065 0.0
H1381 H 0.65169 0.82831 0.59384 0.0
H1382 H 0.67908 0.79895 0.52743 0.0
H1383 H 0.68598 0.77651 0.49407 0.0
H1384 H 0.62239 0.75616 0.45489 0.0
H1385 H 0.6152 0.77812 0.48909 0.0
C1386 C 0.64778 0.86168 0.51017 0.0
C1387 C 0.63176 0.85872 0.4899 0.0
C1388 C 0.63628 0.87515 0.4698 0.0
C1389 C 0.65699 0.89478 0.46946 0.0
C1390 C 0.67252 0.89818 0.49068 0.0
C1391 C 0.66801 0.88177 0.51073 0.0
C1392 C 0.64495 0.84263 0.52764 0.0
C1393 C 0.64224 0.82352 0.5138 0.0
C1394 C 0.64831 0.84433 0.55689 0.0
C1395 C 0.6524 0.86449 0.5727 0.0
C1396 C 0.6366 0.87163 0.57327 0.0
C1397 C 0.64049 0.89025 0.58921 0.0
C1398 C 0.66037 0.90221 0.60461 0.0
C1399 C 0.67633 0.89522 0.60321 0.0
C1400 C 0.67228 0.87649 0.58772 0.0
C1401 C 0.65071 0.79177 0.57353 0.0
C1402 C 0.67006 0.79887 0.5896 0.0
C1403 C 0.67363 0.78358 0.60468 0.0
C1404 C 0.65775 0.76074 0.60451 0.0
C1405 C 0.63834 0.75361 0.58829 0.0
C1406 C 0.63489 0.76899 0.57287 0.0
C1407 C 0.64746 0.80837 0.55734 0.0
C1408 C 0.64909 0.82698 0.57139 0.0
C1409 C 0.64419 0.80672 0.52806 0.0
C1410 C 0.64648 0.79003 0.51103 0.0
C1411 C 0.66624 0.78904 0.51235 0.0
C1412 C 0.67032 0.77644 0.49297 0.0
C1413 C 0.65485 0.76477 0.47163 0.0
C1414 C 0.63457 0.76483 0.47119 0.0
C1415 C 0.63047 0.77744 0.49065 0.0
H1416 H 0.15682 0.77355 0.50355 0.0
H1417 H 0.1279 0.7484 0.47084 0.0
H1418 H 0.09573 0.78818 0.47697 0.0
H1419 H 0.12434 0.81291 0.51036 0.0
H1420 H 0.1791 0.82899 0.49003 0.0
H1421 H 0.14645 0.76695 0.55652 0.0
H1422 H 0.11536 0.73776 0.58236 0.0
H1423 H 0.10169 0.78733 0.61753 0.0
H1424 H 0.13284 0.81638 0.5917 0.0
H1425 H 0.18832 0.86798 0.60099 0.0
H1426 H 0.21543 0.89804 0.62956 0.0
H1427 H 0.26795 0.90111 0.57796 0.0
H1428 H 0.24093 0.8687 0.55261 0.0
H1429 H 0.1772 0.82914 0.59348 0.0
H1430 H 0.19756 0.88636 0.51589 0.0
H1431 H 0.2225 0.91518 0.48308 0.0
H1432 H 0.25654 0.87797 0.46879 0.0
H1433 H 0.23096 0.84877 0.50039 0.0
C1434 C 0.14248 0.79486 0.50955 0.0
C1435 C 0.14325 0.77652 0.4983 0.0
C1436 C 0.12678 0.76222 0.4796 0.0
C1437 C 0.10969 0.76644 0.47125 0.0
C1438 C 0.1088 0.78464 0.48293 0.0
C1439 C 0.12501 0.79866 0.50207 0.0
C1440 C 0.16113 0.81149 0.52662 0.0
C1441 C 0.17893 0.82892 0.5127 0.0
C1442 C 0.16048 0.81156 0.55605 0.0
C1443 C 0.14174 0.79379 0.57181 0.0
C1444 C 0.13661 0.77148 0.56957 0.0
C1445 C 0.11887 0.75482 0.58445 0.0
C1446 C 0.10599 0.76018 0.60203 0.0
C1447 C 0.11143 0.78263 0.60453 0.0
C1448 C 0.12915 0.79925 0.58963 0.0
C1449 C 0.21232 0.86625 0.57388 0.0
C1450 C 0.20572 0.87486 0.59608 0.0
C1451 C 0.22141 0.89253 0.61223 0.0
C1452 C 0.24421 0.90275 0.60605 0.0
C1453 C 0.25075 0.89387 0.58392 0.0
C1454 C 0.23509 0.87556 0.56858 0.0
C1455 C 0.19531 0.84727 0.55696 0.0
C1456 C 0.17767 0.82932 0.57085 0.0
C1457 C 0.19583 0.84691 0.52737 0.0
C1458 C 0.2126 0.8656 0.51067 0.0
C1459 C 0.21058 0.8846 0.50589 0.0
C1460 C 0.22473 0.90095 0.48712 0.0
C1461 C 0.24137 0.89871 0.47333 0.0
C1462 C 0.24389 0.8801 0.47909 0.0
C1463 C 0.22933 0.86345 0.49715 0.0
H1464 H 0.1235 0.30542 0.48927 0.0
H1465 H 0.09368 0.30192 0.45863 0.0
H1466 H 0.10704 0.36763 0.48375 0.0
H1467 H 0.13622 0.37042 0.51533 0.0
H1468 H 0.16802 0.33962 0.48382 0.0
H1469 H 0.11147 0.306 0.54974 0.0
H1470 H 0.07912 0.2992 0.57682 0.0
H1471 H 0.1167 0.36397 0.61533 0.0
H1472 H 0.14924 0.3709 0.58754 0.0
H1473 H 0.21471 0.37212 0.591 0.0
H1474 H 0.24466 0.37077 0.61741 0.0
H1475 H 0.23186 0.31148 0.57247 0.0
H1476 H 0.2013 0.31204 0.54732 0.0
H1477 H 0.17144 0.345 0.58715 0.0
H1478 H 0.23241 0.36929 0.51809 0.0
H1479 H 0.25865 0.36502 0.48802 0.0
H1480 H 0.20437 0.30453 0.45392 0.0
H1481 H 0.17873 0.30841 0.48449 0.0
C1482 C 0.13211 0.33823 0.50435 0.0
C1483 C 0.1198 0.31896 0.48831 0.0
C1484 C 0.10288 0.3171 0.47059 0.0
C1485 C 0.09821 0.33472 0.46804 0.0
C1486 C 0.11008 0.3537 0.48504 0.0
C1487 C 0.12684 0.35539 0.5031 0.0
C1488 C 0.15141 0.34083 0.52083 0.0
C1489 C 0.16888 0.34083 0.50644 0.0
C1490 C 0.15232 0.34246 0.55023 0.0
C1491 C 0.13272 0.33904 0.56642 0.0
C1492 C 0.11272 0.3189 0.5637 0.0
C1493 C 0.09428 0.31496 0.57937 0.0
C1494 C 0.0954 0.33102 0.59831 0.0
C1495 C 0.11533 0.35137 0.60076 0.0
C1496 C 0.13392 0.35528 0.58507 0.0
C1497 C 0.20613 0.34256 0.56653 0.0
C1498 C 0.21824 0.35873 0.58698 0.0
C1499 C 0.23531 0.35799 0.60203 0.0
C1500 C 0.24066 0.34121 0.59658 0.0
C1501 C 0.22824 0.32478 0.57665 0.0
C1502 C 0.21091 0.32523 0.56212 0.0
C1503 C 0.18827 0.34351 0.55012 0.0
C1504 C 0.17105 0.34442 0.56451 0.0
C1505 C 0.18708 0.34166 0.52057 0.0
C1506 C 0.20359 0.33915 0.50359 0.0
C1507 C 0.2263 0.35497 0.50439 0.0
C1508 C 0.24124 0.35259 0.48705 0.0
C1509 C 0.23367 0.33436 0.46862 0.0
C1510 C 0.21094 0.31853 0.46819 0.0
C1511 C 0.19615 0.32087 0.48547 0.0
C1512 C 0.98265 0.39721 0.07503 0.0
C1513 C 0.00349 0.39861 0.07342 0.0
H1514 H 0.962 0.4069 0.09674 0.0
C1515 C 0.01897 0.40913 0.09502 0.0
H1516 H 0.9705 0.3893 0.05846 0.0
C1517 C 0.01386 0.41847 0.11766 0.0
C1518 C 0.99341 0.41825 0.11876 0.0
H1519 H 0.03508 0.41014 0.09438 0.0
H1520 H 0.02615 0.42611 0.13409 0.0
C1521 C 0.97776 0.40719 0.09721 0.0
C1522 C 0.59282 0.59615 0.07333 0.0
C1523 C 0.61602 0.60596 0.07441 0.0
H1524 H 0.56197 0.57464 0.09341 0.0
C1525 C 0.62613 0.60276 0.09817 0.0
H1526 H 0.58471 0.59889 0.05551 0.0
C1527 C 0.61315 0.58872 0.11969 0.0
C1528 C 0.58991 0.5784 0.1182 0.0
H1529 H 0.64404 0.61107 0.10002 0.0
H1530 H 0.62124 0.58597 0.13753 0.0
C1531 C 0.57987 0.58245 0.09501 0.0
C1532 C 0.39709 0.02105 0.09814 0.0
C1533 C 0.39322 0.0077 0.07443 0.0
H1534 H 0.41501 0.03291 0.13679 0.0
C1535 C 0.40323 0.99435 0.07264 0.0
H1536 H 0.38872 0.03069 0.1005 0.0
C1537 C 0.41789 0.99527 0.09351 0.0
C1538 C 0.4226 0.00937 0.1167 0.0
H1539 H 0.40002 0.98352 0.05482 0.0
H1540 H 0.42594 0.98531 0.09118 0.0
C1541 C 0.41192 0.02213 0.11895 0.0
C1542 C 0.38919 0.98759 0.94738 0.0
C1543 C 0.3961 0.00982 0.95459 0.0
H1544 H 0.3953 0.96546 0.92226 0.0
C1545 C 0.41324 0.02698 0.93926 0.0
H1546 H 0.37605 0.974 0.95884 0.0
C1547 C 0.42402 0.02213 0.91825 0.0
C1548 C 0.41818 0.99998 0.91216 0.0
H1549 H 0.41874 0.04429 0.94392 0.0
H1550 H 0.43737 0.03584 0.9072 0.0
C1551 C 0.40019 0.98271 0.92639 0.0
C1552 C 0.01828 0.3974 0.9291 0.0
C1553 C 0.00387 0.39439 0.95115 0.0
H1554 H 0.03189 0.41383 0.89022 0.0
C1555 C 0.99032 0.4042 0.94959 0.0
H1556 H 0.02806 0.38907 0.92927 0.0
C1557 C 0.99199 0.41778 0.92698 0.0
C1558 C 0.00715 0.42163 0.9055 0.0
H1559 H 0.97869 0.40163 0.96608 0.0
H1560 H 0.98182 0.4257 0.9266 0.0
C1561 C 0.02022 0.41125 0.90667 0.0
C1562 C 0.60093 0.60943 0.94264 0.0
C1563 C 0.61172 0.59866 0.95471 0.0
H1564 H 0.57738 0.60796 0.9121 0.0
C1565 C 0.60724 0.5779 0.94387 0.0
H1566 H 0.60398 0.62543 0.9504 0.0
C1567 C 0.59206 0.56795 0.92199 0.0
C1568 C 0.58087 0.57843 0.91036 0.0
H1569 H 0.6152 0.56906 0.95256 0.0
H1570 H 0.58858 0.55167 0.91478 0.0
C1571 C 0.58561 0.59938 0.92077 0.0
C1572 C 0.01727 0.622 0.92082 0.0
C1573 C 0.00643 0.61292 0.94606 0.0
H1574 H 0.02642 0.6157 0.88073 0.0
C1575 C 0.99545 0.58981 0.94978 0.0
H1576 H 0.02518 0.63979 0.91721 0.0
C1577 C 0.99649 0.57601 0.9293 0.0
C1578 C 0.00784 0.58497 0.90411 0.0
H1579 H 0.98663 0.58248 0.96896 0.0
H1580 H 0.98881 0.55836 0.93363 0.0
C1581 C 0.01797 0.60817 0.9 0.0
C1582 C 0.41475 0.39368 0.94363 0.0
C1583 C 0.39532 0.39157 0.95562 0.0
H1584 H 0.44033 0.40987 0.9135 0.0
C1585 C 0.38603 0.40396 0.9441 0.0
H1586 H 0.42248 0.38447 0.95183 0.0
C1587 C 0.39634 0.41859 0.92174 0.0
C1588 C 0.4161 0.42107 0.9103 0.0
H1589 H 0.37109 0.40278 0.95276 0.0
H1590 H 0.38894 0.42811 0.91357 0.0
C1591 C 0.42497 0.40819 0.92136 0.0
C1592 C 0.60616 0.98495 0.92565 0.0
C1593 C 0.60773 0.99727 0.94964 0.0
H1594 H 0.59084 0.97344 0.88553 0.0
C1595 C 0.5959 0.00885 0.95084 0.0
H1596 H 0.61589 0.97661 0.92394 0.0
C1597 C 0.58173 0.00719 0.92896 0.0
C1598 C 0.5795 0.99427 0.9052 0.0
H1599 H 0.59727 0.01879 0.969 0.0
H1600 H 0.57213 0.01563 0.93096 0.0
C1601 C 0.59199 0.98327 0.90368 0.0
C1602 C 0.58422 0.97614 0.08334 0.0
C1603 C 0.6039 0.99305 0.07153 0.0
H1604 H 0.55848 0.96748 0.11314 0.0
C1605 C 0.61353 0.0146 0.08301 0.0
H1606 H 0.57628 0.95932 0.07515 0.0
C1607 C 0.60326 0.01926 0.10505 0.0
C1608 C 0.58322 0.00245 0.11621 0.0
H1609 H 0.62868 0.02804 0.0745 0.0
H1610 H 0.61088 0.0361 0.11314 0.0
C1611 C 0.57404 0.98077 0.10536 0.0
C1612 C 0.02711 0.61229 0.08179 0.0
C1613 C 0.01013 0.61295 0.0663 0.0
H1614 H 0.03562 0.59734 0.11531 0.0
C1615 C 0.98797 0.59912 0.07433 0.0
H1616 H 0.04437 0.62299 0.07647 0.0
C1617 C 0.9829 0.58406 0.09645 0.0
C1618 C 0.9999 0.5827 0.1111 0.0
H1619 H 0.97451 0.59925 0.0628 0.0
H1620 H 0.96564 0.57283 0.10121 0.0
C1621 C 0.02207 0.5975 0.10402 0.0
C1622 C 0.39812 0.38336 0.09999 0.0
C1623 C 0.39457 0.39353 0.07657 0.0
H1624 H 0.41637 0.38813 0.13826 0.0
C1625 C 0.40535 0.41687 0.07512 0.0
H1626 H 0.38911 0.36542 0.10222 0.0
C1627 C 0.42029 0.42983 0.0961 0.0
C1628 C 0.42462 0.41964 0.11887 0.0
H1629 H 0.40239 0.42506 0.05758 0.0
H1630 H 0.42878 0.44781 0.0943 0.0
C1631 C 0.41339 0.39631 0.12072 0.0
C1632 C 0.68765 0.75719 0.41406 0.0
C1633 C 0.67231 0.73633 0.40283 0.0
H1634 H 0.69412 0.78241 0.44425 0.0
C1635 C 0.65112 0.72455 0.41484 0.0
H1636 H 0.70412 0.76681 0.40541 0.0
C1637 C 0.6454 0.73358 0.43737 0.0
C1638 C 0.66081 0.75446 0.44848 0.0
H1639 H 0.63889 0.70844 0.40674 0.0
H1640 H 0.62897 0.72421 0.44617 0.0
C1641 C 0.68199 0.7661 0.43656 0.0
C1642 C 0.29094 0.93858 0.43018 0.0
C1643 C 0.28053 0.94281 0.40756 0.0
H1644 H 0.2866 0.92088 0.46868 0.0
C1645 C 0.25743 0.93392 0.4078 0.0
H1646 H 0.30884 0.94611 0.43103 0.0
C1647 C 0.24479 0.92 0.42954 0.0
C1648 C 0.25506 0.91485 0.45153 0.0
H1649 H 0.24912 0.93742 0.39088 0.0
H1650 H 0.22692 0.9128 0.4288 0.0
C1651 C 0.27828 0.92441 0.45179 0.0
C1652 C 0.05457 0.34388 0.43065 0.0
C1653 C 0.05292 0.3336 0.40486 0.0
H1654 H 0.06977 0.35194 0.47115 0.0
C1655 C 0.06498 0.32254 0.40048 0.0
H1656 H 0.04473 0.35183 0.43471 0.0
C1657 C 0.07965 0.32294 0.42095 0.0
C1658 C 0.0819 0.33371 0.44672 0.0
H1659 H 0.06356 0.31415 0.38085 0.0
H1660 H 0.08957 0.31524 0.41617 0.0
C1661 C 0.06892 0.34392 0.45143 0.0
C1662 C 0.05111 0.31849 0.27817 0.0
C1663 C 0.05617 0.34031 0.28503 0.0
H1664 H 0.0597 0.29794 0.25352 0.0
C1665 C 0.07213 0.35812 0.26925 0.0
H1666 H 0.03894 0.30445 0.29005 0.0
C1667 C 0.08377 0.35441 0.24827 0.0
C1668 C 0.08001 0.33283 0.24273 0.0
H1669 H 0.07617 0.37509 0.27374 0.0
H1670 H 0.09631 0.36863 0.23699 0.0
C1671 C 0.06299 0.31478 0.25724 0.0
C1672 C 0.68894 0.73272 0.26019 0.0
C1673 C 0.67441 0.72986 0.28203 0.0
H1674 H 0.70304 0.74924 0.22148 0.0
C1675 C 0.66105 0.73986 0.28019 0.0
H1676 H 0.69861 0.72426 0.2606 0.0
C1677 C 0.66308 0.75355 0.25757 0.0
C1678 C 0.67842 0.75733 0.23638 0.0
H1679 H 0.64932 0.73739 0.29651 0.0
H1680 H 0.65306 0.76164 0.25699 0.0
C1681 C 0.69125 0.7467 0.23774 0.0
C1682 C 0.24966 0.92221 0.29455 0.0
C1683 C 0.2718 0.938 0.28923 0.0
H1684 H 0.21746 0.90063 0.27728 0.0
C1685 C 0.27844 0.94494 0.2617 0.0
H1686 H 0.24421 0.91675 0.31568 0.0
C1687 C 0.26319 0.93559 0.23961 0.0
C1688 C 0.24102 0.9195 0.24488 0.0
H1689 H 0.29552 0.95709 0.25724 0.0
H1690 H 0.26872 0.94078 0.21843 0.0
C1691 C 0.23436 0.91316 0.27262 0.0
C1692 C 0.66347 0.92159 0.27988 0.0
C1693 C 0.67541 0.94489 0.27859 0.0
H1694 H 0.65651 0.89085 0.26077 0.0
C1695 C 0.68818 0.95527 0.25493 0.0
H1696 H 0.65314 0.91326 0.29772 0.0
C1697 C 0.68993 0.94248 0.23348 0.0
C1698 C 0.67863 0.91907 0.23518 0.0
H1699 H 0.69682 0.97325 0.25307 0.0
H1700 H 0.70007 0.9509 0.21556 0.0
C1701 C 0.66526 0.9088 0.25858 0.0
C1702 C 0.05579 0.73843 0.27286 0.0
C1703 C 0.06658 0.72769 0.28504 0.0
H1704 H 0.05685 0.76137 0.24164 0.0
C1705 C 0.08686 0.73159 0.27366 0.0
H1706 H 0.04016 0.73584 0.28102 0.0
C1707 C 0.09638 0.74616 0.25128 0.0
C1708 C 0.08595 0.75735 0.23947 0.0
H1709 H 0.09573 0.72367 0.28235 0.0
H1710 H 0.11236 0.74922 0.24386 0.0
C1711 C 0.06542 0.75316 0.25037 0.0
C1712 C 0.26491 0.34443 0.28993 0.0
C1713 C 0.27813 0.33464 0.2854 0.0
H1714 H 0.2391 0.34988 0.27436 0.0
C1715 C 0.27723 0.32481 0.25951 0.0
H1716 H 0.26571 0.35243 0.30968 0.0
C1717 C 0.26248 0.32392 0.23873 0.0
C1718 C 0.24841 0.33287 0.24358 0.0
H1719 H 0.28793 0.31783 0.25537 0.0
H1720 H 0.26216 0.31625 0.21892 0.0
C1721 C 0.2499 0.34319 0.26948 0.0
C1722 C 0.2575 0.30788 0.42086 0.0
C1723 C 0.27303 0.32624 0.40542 0.0
H1724 H 0.23367 0.29615 0.4536 0.0
C1725 C 0.27739 0.3477 0.41304 0.0
H1726 H 0.25402 0.29116 0.41581 0.0
C1727 C 0.26536 0.35055 0.43449 0.0
C1728 C 0.24891 0.332 0.44888 0.0
H1729 H 0.28924 0.36217 0.40148 0.0
H1730 H 0.26816 0.36714 0.43878 0.0
C1731 C 0.24575 0.31074 0.44245 0.0
C1732 C 0.68976 0.93349 0.4104 0.0
C1733 C 0.67458 0.93938 0.39898 0.0
H1734 H 0.69608 0.91484 0.4413 0.0
C1735 C 0.6536 0.93085 0.41141 0.0
H1736 H 0.70605 0.93966 0.40143 0.0
C1737 C 0.64791 0.9166 0.4345 0.0
C1738 C 0.66312 0.9107 0.44578 0.0
H1739 H 0.64149 0.93504 0.40323 0.0
H1740 H 0.63163 0.91027 0.44359 0.0
C1741 C 0.68411 0.91938 0.43348 0.0
C1742 C 0.07519 0.7501 0.40478 0.0
C1743 C 0.06466 0.72679 0.40586 0.0
H1744 H 0.098 0.78093 0.42452 0.0
C1745 C 0.06789 0.71647 0.42935 0.0
H1746 H 0.07248 0.75838 0.38714 0.0
C1747 C 0.08254 0.7293 0.45068 0.0
C1748 C 0.09362 0.75267 0.44922 0.0
H1749 H 0.05911 0.69849 0.43118 0.0
H1750 H 0.08511 0.72098 0.46837 0.0
C1751 C 0.08963 0.76294 0.4262 0.0
C1752 C 0.31886 0.06279 0.7453 0.0
C1753 C 0.34091 0.07014 0.73736 0.0
H1754 H 0.29706 0.06832 0.7715 0.0
C1755 C 0.35818 0.08778 0.7522 0.0
H1756 H 0.30519 0.04922 0.73429 0.0
C1757 C 0.35356 0.09842 0.77369 0.0
C1758 C 0.33154 0.09196 0.7807 0.0
H1759 H 0.37537 0.09361 0.74699 0.0
H1760 H 0.36733 0.11206 0.7845 0.0
C1761 C 0.31422 0.07366 0.76672 0.0
C1762 C 0.95473 0.26839 0.76623 0.0
C1763 C 0.94466 0.27217 0.74287 0.0
H1764 H 0.94978 0.25105 0.80516 0.0
C1765 C 0.92152 0.26294 0.74218 0.0
H1766 H 0.97263 0.27625 0.76781 0.0
C1767 C 0.90853 0.24915 0.76381 0.0
C1768 C 0.9185 0.24445 0.78654 0.0
H1769 H 0.91345 0.26612 0.72468 0.0
H1770 H 0.89066 0.24173 0.76246 0.0
C1771 C 0.94172 0.25428 0.78768 0.0
C1772 C 0.72651 0.67831 0.76133 0.0
C1773 C 0.72553 0.66834 0.73551 0.0
H1774 H 0.74183 0.6873 0.80171 0.0
C1775 C 0.73911 0.65896 0.73087 0.0
H1776 H 0.71555 0.68495 0.76558 0.0
C1777 C 0.75446 0.66066 0.75115 0.0
C1778 C 0.75594 0.67102 0.77702 0.0
H1779 H 0.73825 0.65084 0.71121 0.0
H1780 H 0.76544 0.65419 0.74623 0.0
C1781 C 0.74158 0.67964 0.78193 0.0
C1782 C 0.74063 0.69141 0.59685 0.0
C1783 C 0.72783 0.67394 0.61528 0.0
H1784 H 0.76178 0.70219 0.56131 0.0
C1785 C 0.72625 0.65308 0.61099 0.0
H1786 H 0.74198 0.70762 0.59949 0.0
C1787 C 0.73824 0.6501 0.58962 0.0
C1788 C 0.75175 0.66781 0.57165 0.0
H1789 H 0.7167 0.63938 0.62507 0.0
H1790 H 0.73761 0.63416 0.58809 0.0
C1791 C 0.75218 0.6883 0.5751 0.0
C1792 C 0.35374 0.06511 0.59386 0.0
C1793 C 0.33966 0.06259 0.61612 0.0
H1794 H 0.36736 0.08136 0.55487 0.0
C1795 C 0.32653 0.07286 0.61474 0.0
H1796 H 0.36319 0.05643 0.59392 0.0
C1797 C 0.32836 0.08648 0.59213 0.0
C1798 C 0.34328 0.08994 0.57052 0.0
H1799 H 0.31514 0.07065 0.6314 0.0
H1800 H 0.31857 0.09482 0.59192 0.0
C1801 C 0.35587 0.07904 0.57144 0.0
C1802 C 0.92912 0.27653 0.61153 0.0
C1803 C 0.94011 0.26564 0.62271 0.0
H1804 H 0.90553 0.27564 0.58143 0.0
C1805 C 0.93592 0.24532 0.61077 0.0
H1806 H 0.93192 0.2922 0.62019 0.0
C1807 C 0.92091 0.23593 0.5886 0.0
C1808 C 0.90957 0.24653 0.5778 0.0
H1809 H 0.94404 0.23642 0.61875 0.0
H1810 H 0.9177 0.21998 0.58047 0.0
C1811 C 0.91393 0.26701 0.5894 0.0
C1812 C 0.34913 0.2876 0.59224 0.0
C1813 C 0.33822 0.27785 0.61724 0.0
H1814 H 0.35926 0.28252 0.55215 0.0
C1815 C 0.32828 0.25476 0.62058 0.0
H1816 H 0.35627 0.30536 0.58894 0.0
C1817 C 0.33033 0.24168 0.59989 0.0
C1818 C 0.34167 0.25134 0.5749 0.0
H1819 H 0.31946 0.24692 0.63957 0.0
H1820 H 0.32338 0.22405 0.60386 0.0
C1821 C 0.35084 0.27449 0.57125 0.0
C1822 C 0.74902 0.06069 0.61202 0.0
C1823 C 0.72877 0.0573 0.62288 0.0
H1824 H 0.77509 0.07798 0.58275 0.0
C1825 C 0.71861 0.06853 0.61033 0.0
H1826 H 0.75743 0.05242 0.62105 0.0
C1827 C 0.7288 0.08322 0.58802 0.0
C1828 C 0.74932 0.08696 0.57768 0.0
H1829 H 0.70301 0.06633 0.61807 0.0
H1830 H 0.72067 0.09178 0.579 0.0
C1831 C 0.75913 0.07529 0.58979 0.0
C1832 C 0.9333 0.67992 0.62267 0.0
C1833 C 0.94589 0.66934 0.61903 0.0
H1834 H 0.90826 0.68614 0.60597 0.0
C1835 C 0.94472 0.65879 0.59361 0.0
H1836 H 0.93431 0.68845 0.64205 0.0
C1837 C 0.93037 0.65805 0.5724 0.0
C1838 C 0.91688 0.6678 0.57634 0.0
H1839 H 0.95493 0.65116 0.59016 0.0
H1840 H 0.92992 0.64988 0.55296 0.0
C1841 C 0.91861 0.67879 0.60178 0.0
C1842 C 0.93155 0.64628 0.75913 0.0
C1843 C 0.94456 0.6635 0.74053 0.0
H1844 H 0.91088 0.63631 0.7951 0.0
C1845 C 0.94748 0.68486 0.74523 0.0
H1846 H 0.92924 0.6297 0.75616 0.0
C1847 C 0.93634 0.68855 0.76706 0.0
C1848 C 0.92237 0.67102 0.78497 0.0
H1849 H 0.95729 0.69839 0.73104 0.0
H1850 H 0.93781 0.70486 0.76889 0.0
C1851 C 0.92086 0.65006 0.7813 0.0
C1852 C 0.35671 0.27688 0.7519 0.0
C1853 C 0.34081 0.28128 0.73938 0.0
H1854 H 0.36373 0.25916 0.78339 0.0
C1855 C 0.31957 0.27186 0.75126 0.0
H1856 H 0.37324 0.28381 0.74341 0.0
C1857 C 0.31414 0.25774 0.77444 0.0
C1858 C 0.32985 0.2528 0.78635 0.0
H1859 H 0.30691 0.27493 0.74228 0.0
H1860 H 0.29753 0.25044 0.7828 0.0
C1861 C 0.3513 0.26284 0.77505 0.0
C1862 C 0.73675 0.08064 0.74141 0.0
C1863 C 0.72517 0.05737 0.74368 0.0
H1864 H 0.76069 0.11157 0.75973 0.0
C1865 C 0.72761 0.04735 0.768 0.0
H1866 H 0.73473 0.0887 0.72303 0.0
C1867 C 0.74234 0.06038 0.78916 0.0
C1868 C 0.75451 0.08371 0.78657 0.0
H1869 H 0.7181 0.02945 0.77063 0.0
H1870 H 0.7441 0.05223 0.8076 0.0
C1871 C 0.75143 0.09368 0.76251 0.0
C1872 C 0.07546 0.36394 0.04974 0.0
C1873 C 0.05231 0.35004 0.04768 0.0
H1874 H 0.10616 0.36873 0.06642 0.0
C1875 C 0.0426 0.329 0.06062 0.0
H1876 H 0.08371 0.38013 0.03979 0.0
C1877 C 0.05578 0.32241 0.076 0.0
C1878 C 0.07876 0.33685 0.07878 0.0
H1879 H 0.02487 0.31783 0.05932 0.0
H1880 H 0.04796 0.30639 0.08637 0.0
C1881 C 0.08844 0.35746 0.06508 0.0
C1882 C 0.69138 0.72099 0.05521 0.0
C1883 C 0.67094 0.70704 0.04224 0.0
H1884 H 0.71182 0.75179 0.07604 0.0
C1885 C 0.65478 0.71362 0.04118 0.0
H1886 H 0.70411 0.71621 0.05619 0.0
C1887 C 0.65858 0.7334 0.05393 0.0
C1888 C 0.67905 0.74763 0.0672 0.0
H1889 H 0.63871 0.7029 0.03169 0.0
H1890 H 0.64502 0.73693 0.05406 0.0
C1891 C 0.69558 0.74128 0.06699 0.0
C1892 C 0.28571 0.96892 0.076 0.0
C1893 C 0.29117 0.96535 0.049 0.0
H1894 H 0.26294 0.956 0.10996 0.0
C1895 C 0.27614 0.94591 0.03461 0.0
H1896 H 0.29693 0.98368 0.08773 0.0
C1897 C 0.2565 0.93004 0.04733 0.0
C1898 C 0.25143 0.9332 0.07478 0.0
H1899 H 0.27981 0.94266 0.01377 0.0
H1900 H 0.24541 0.91515 0.03575 0.0
C1901 C 0.26612 0.95306 0.08873 0.0
C1902 C 0.32635 0.04928 0.97019 0.0
C1903 C 0.34807 0.0587 0.98106 0.0
H1904 H 0.3031 0.05454 0.94578 0.0
C1905 C 0.3629 0.08139 0.97594 0.0
H1906 H 0.31448 0.0319 0.97373 0.0
C1907 C 0.35644 0.09418 0.95996 0.0
C1908 C 0.33494 0.08477 0.94866 0.0
H1909 H 0.37972 0.0894 0.98404 0.0
H1910 H 0.36835 0.11159 0.95657 0.0
C1911 C 0.31981 0.06224 0.95424 0.0
C1912 C 0.93553 0.28774 0.98189 0.0
C1913 C 0.95801 0.2938 0.98157 0.0
H1914 H 0.90286 0.26528 0.96781 0.0
C1915 C 0.96447 0.27978 0.96852 0.0
H1916 H 0.93023 0.29857 0.99139 0.0
C1917 C 0.94855 0.25985 0.95603 0.0
C1918 C 0.92591 0.25401 0.95524 0.0
H1919 H 0.98179 0.28418 0.96809 0.0
H1920 H 0.95418 0.2492 0.94695 0.0
C1921 C 0.91976 0.26839 0.96845 0.0
C1922 C 0.71742 0.63492 0.97478 0.0
C1923 C 0.70879 0.64937 0.97902 0.0
H1924 H 0.74253 0.62992 0.95614 0.0
C1925 C 0.7201 0.67091 0.96746 0.0
H1926 H 0.70939 0.61828 0.98347 0.0
C1927 C 0.73934 0.67761 0.95163 0.0
C1928 C 0.74749 0.66283 0.94689 0.0
H1929 H 0.71399 0.6825 0.97037 0.0
H1930 H 0.74753 0.69413 0.94257 0.0
C1931 C 0.73644 0.64155 0.95894 0.0
C1932 C 0.94365 0.66633 0.98621 0.0
C1933 C 0.96404 0.67329 0.97293 0.0
H1934 H 0.91166 0.66403 0.98411 0.0
C1935 C 0.96829 0.68504 0.94763 0.0
H1936 H 0.93987 0.65725 0.00573 0.0
C1937 C 0.95215 0.68896 0.9353 0.0
C1938 C 0.93135 0.68104 0.9479 0.0
H1939 H 0.98384 0.69062 0.93687 0.0
H1940 H 0.9556 0.69732 0.91528 0.0
C1941 C 0.92744 0.67008 0.97375 0.0
C1942 C 0.32878 0.29076 0.96503 0.0
C1943 C 0.34207 0.29554 0.98914 0.0
H1944 H 0.31324 0.26846 0.93065 0.0
C1945 C 0.34766 0.27971 0.99888 0.0
H1946 H 0.32437 0.30277 0.95698 0.0
C1947 C 0.34084 0.25987 0.98435 0.0
C1948 C 0.3288 0.25556 0.95915 0.0
H1949 H 0.35768 0.28283 0.01758 0.0
H1950 H 0.34548 0.24812 0.99269 0.0
C1951 C 0.32238 0.27104 0.95002 0.0
C1952 C 0.7229 0.06239 0.99161 0.0
C1953 C 0.70907 0.04213 0.97798 0.0
H1954 H 0.75271 0.09402 0.98993 0.0
C1955 C 0.71574 0.03786 0.95215 0.0
H1956 H 0.71823 0.06617 0.01154 0.0
C1957 C 0.73538 0.05382 0.93973 0.0
C1958 C 0.74882 0.07445 0.95281 0.0
H1959 H 0.70545 0.02243 0.94107 0.0
H1960 H 0.73959 0.0503 0.91935 0.0
C1961 C 0.74255 0.07841 0.97912 0.0
C1962 C 0.64757 0.9257 0.0304 0.0
C1963 C 0.65558 0.94794 0.03843 0.0
H1964 H 0.64786 0.89534 0.03759 0.0
C1965 C 0.67131 0.95689 0.06018 0.0
H1966 H 0.6357 0.91841 0.01343 0.0
C1967 C 0.67796 0.9434 0.0746 0.0
C1968 C 0.66917 0.92084 0.06725 0.0
H1969 H 0.67772 0.97398 0.06684 0.0
H1970 H 0.68928 0.95042 0.09214 0.0
C1971 C 0.65443 0.91241 0.04443 0.0
C1972 C 0.07845 0.71273 0.0502 0.0
C1973 C 0.05784 0.7081 0.0388 0.0
H1974 H 0.10685 0.7348 0.07428 0.0
C1975 C 0.05025 0.72335 0.04332 0.0
H1976 H 0.08469 0.70121 0.04763 0.0
C1977 C 0.06331 0.74306 0.05841 0.0
C1978 C 0.0841 0.74776 0.06945 0.0
H1979 H 0.03443 0.72026 0.03485 0.0
H1980 H 0.0573 0.75476 0.06095 0.0
C1981 C 0.09128 0.73214 0.06544 0.0
C1982 C 0.27444 0.3382 0.0376 0.0
C1983 C 0.2917 0.33855 0.05371 0.0
H1984 H 0.24168 0.33448 0.03759 0.0
C1985 C 0.28861 0.3346 0.08259 0.0
H1986 H 0.27634 0.34118 0.01531 0.0
C1987 C 0.26911 0.33121 0.09526 0.0
C1988 C 0.25203 0.33123 0.0793 0.0
H1989 H 0.30157 0.33483 0.09565 0.0
H1990 H 0.26743 0.3288 0.11767 0.0
C1991 C 0.25464 0.33432 0.05028 0.0
C1992 C 0.73773 0.70185 0.40105 0.0
C1993 C 0.71992 0.68642 0.3846 0.0
H1994 H 0.76518 0.70807 0.42733 0.0
C1995 C 0.71566 0.66432 0.38322 0.0
H1996 H 0.74119 0.71892 0.4029 0.0
C1997 C 0.72981 0.65814 0.3969 0.0
C1998 C 0.74827 0.67395 0.41231 0.0
H1999 H 0.70206 0.65212 0.3706 0.0
H2000 H 0.72679 0.64126 0.3945 0.0
C2001 C 0.7516 0.69566 0.4149 0.0
C2002 C 0.35829 0.05698 0.39096 0.0
C2003 C 0.33799 0.04404 0.37715 0.0
H2004 H 0.3795 0.08728 0.41241 0.0
C2005 C 0.32286 0.05192 0.37523 0.0
H2006 H 0.37026 0.05122 0.39258 0.0
C2007 C 0.3275 0.07199 0.38787 0.0
C2008 C 0.34786 0.08526 0.4019 0.0
H2009 H 0.3069 0.04203 0.36506 0.0
H2010 H 0.31462 0.07652 0.38727 0.0
C2011 C 0.36339 0.07757 0.40267 0.0
C2012 C 0.93643 0.27412 0.36712 0.0
C2013 C 0.95167 0.2936 0.38124 0.0
H2014 H 0.90584 0.24323 0.3691 0.0
C2015 C 0.94675 0.2972 0.40851 0.0
H2016 H 0.9397 0.27085 0.34609 0.0
C2017 C 0.92753 0.2813 0.42182 0.0
C2018 C 0.91265 0.26138 0.40818 0.0
H2019 H 0.95815 0.312 0.42005 0.0
H2020 H 0.92484 0.28428 0.44325 0.0
C2021 C 0.91712 0.25819 0.38043 0.0
C2022 C 0.98634 0.38113 0.3123 0.0
C2023 C 0.00897 0.3884 0.31698 0.0
H2024 H 0.96218 0.38895 0.29539 0.0
C2025 C 0.02476 0.40941 0.30681 0.0
H2026 H 0.97375 0.36503 0.31985 0.0
C2027 C 0.01822 0.42285 0.2925 0.0
C2028 C 0.99564 0.41593 0.28821 0.0
H2029 H 0.04237 0.41547 0.30954 0.0
H2030 H 0.03102 0.43864 0.28446 0.0
C2031 C 0.97973 0.39481 0.29817 0.0
C2032 C 0.63418 0.61534 0.30132 0.0
C2033 C 0.62755 0.62944 0.31377 0.0
H2034 H 0.62421 0.58463 0.28023 0.0
C2035 C 0.60506 0.62336 0.31352 0.0
H2036 H 0.65152 0.61976 0.30133 0.0
C2037 C 0.58947 0.60391 0.30008 0.0
C2038 C 0.59583 0.58947 0.28745 0.0
H2039 H 0.59963 0.63425 0.32255 0.0
H2040 H 0.57257 0.60077 0.29896 0.0
C2041 C 0.61845 0.59533 0.28884 0.0
C2042 C 0.38604 0.00582 0.30491 0.0
C2043 C 0.36978 0.98325 0.30729 0.0
H2044 H 0.41843 0.02941 0.29015 0.0
C2045 C 0.37354 0.96711 0.29447 0.0
H2046 H 0.3837 0.01867 0.3146 0.0
C2047 C 0.39322 0.97324 0.28029 0.0
C2048 C 0.40988 0.99569 0.27871 0.0
H2049 H 0.36129 0.94959 0.2955 0.0
H2050 H 0.39537 0.96028 0.27058 0.0
C2051 C 0.40592 0.01197 0.29083 0.0
C2052 C 0.60565 0.98381 0.30919 0.0
C2053 C 0.62816 0.99986 0.30806 0.0
H2054 H 0.57273 0.97411 0.29632 0.0
C2055 C 0.63443 0.02017 0.29466 0.0
H2056 H 0.60046 0.96782 0.31897 0.0
C2057 C 0.61833 0.02442 0.2827 0.0
C2058 C 0.59564 0.00802 0.28282 0.0
H2059 H 0.65176 0.03282 0.2936 0.0
H2060 H 0.62385 0.04057 0.27335 0.0
C2061 C 0.58967 0.98762 0.2963 0.0
C2062 C 0.03041 0.62234 0.30822 0.0
C2063 C 0.01644 0.63142 0.31297 0.0
H2064 H 0.03446 0.59664 0.28916 0.0
C2065 C 0.99473 0.62028 0.30189 0.0
H2066 H 0.04716 0.63021 0.31657 0.0
C2067 C 0.98742 0.6008 0.28597 0.0
C2068 C 1.00173 0.59221 0.28068 0.0
H2069 H 0.9835 0.62674 0.30515 0.0
H2070 H 0.97078 0.59276 0.27726 0.0
C2071 C 0.02318 0.60308 0.29231 0.0
C2072 C 0.3856 0.40234 0.31604 0.0
C2073 C 0.37947 0.37974 0.31525 0.0
H2074 H 0.40785 0.43511 0.30201 0.0
C2075 C 0.3932 0.37322 0.30173 0.0
H2076 H 0.37498 0.40767 0.32592 0.0
C2077 C 0.41279 0.3891 0.289 0.0
C2078 C 0.41858 0.4118 0.28839 0.0
H2079 H 0.38873 0.3558 0.30092 0.0
H2080 H 0.42317 0.38337 0.27945 0.0
C2081 C 0.40466 0.41812 0.30236 0.0
C2082 C 0.31291 0.2598 0.37211 0.0
C2083 C 0.3255 0.28321 0.37263 0.0
H2084 H 0.30919 0.22895 0.38708 0.0
C2085 C 0.34555 0.29336 0.38794 0.0
H2086 H 0.29754 0.25129 0.3603 0.0
C2087 C 0.35229 0.28032 0.40329 0.0
C2088 C 0.33899 0.25701 0.40372 0.0
H2089 H 0.35569 0.31132 0.38871 0.0
H2090 H 0.36741 0.28845 0.41563 0.0
C2091 C 0.31953 0.24692 0.38751 0.0
C2092 C 0.7412 0.03984 0.39136 0.0
C2093 C 0.72118 0.03562 0.37844 0.0
H2094 H 0.76897 0.0617 0.41654 0.0
C2095 C 0.71371 0.05106 0.38203 0.0
H2096 H 0.7473 0.02815 0.38954 0.0
C2097 C 0.72646 0.0707 0.3974 0.0
C2098 C 0.74683 0.07514 0.40957 0.0
H2099 H 0.69834 0.04827 0.37239 0.0
H2100 H 0.72069 0.08265 0.39907 0.0
C2101 C 0.75373 0.0592 0.4068 0.0
C2102 C 0.9603 0.66781 0.41195 0.0
C2103 C 0.96296 0.67133 0.38295 0.0
H2104 H 0.93982 0.66287 0.44754 0.0
C2105 C 0.94558 0.67107 0.36721 0.0
H2106 H 0.97338 0.66801 0.42474 0.0
C2107 C 0.92612 0.66772 0.38035 0.0
C2108 C 0.92396 0.6651 0.40948 0.0
H2109 H 0.94714 0.67375 0.34486 0.0
H2110 H 0.91309 0.66795 0.36791 0.0
C2111 C 0.94114 0.66497 0.42508 0.0
C2112 C 0.37657 0.99655 0.72662 0.0
C2113 C 0.38656 0.01826 0.71556 0.0
H2114 H 0.38113 0.97282 0.75096 0.0
C2115 C 0.40937 0.03255 0.72031 0.0
H2116 H 0.35908 0.9851 0.72327 0.0
C2117 C 0.4218 0.02558 0.73602 0.0
C2118 C 0.41186 0.00411 0.74746 0.0
H2119 H 0.4178 0.04933 0.71202 0.0
H2120 H 0.43934 0.03705 0.7391 0.0
C2121 C 0.38917 0.9895 0.74236 0.0
C2122 C 0.02178 0.38653 0.72489 0.0
C2123 C 1.0016 0.37329 0.71096 0.0
H2124 H 0.0425 0.41695 0.74636 0.0
C2125 C 0.98619 0.38081 0.70879 0.0
H2126 H 0.03396 0.38105 0.72672 0.0
C2127 C 0.99043 0.40078 0.72136 0.0
C2128 C 0.01063 0.41431 0.73559 0.0
H2129 H 0.97032 0.37067 0.69853 0.0
H2130 H 0.97735 0.40503 0.72058 0.0
C2131 C 0.02647 0.40703 0.73652 0.0
C2132 C 0.617 0.59895 0.70913 0.0
C2133 C 0.62329 0.62159 0.70967 0.0
H2134 H 0.59508 0.56639 0.7241 0.0
C2135 C 0.61008 0.62837 0.72405 0.0
H2136 H 0.62722 0.59339 0.69865 0.0
C2137 C 0.59086 0.61271 0.73774 0.0
C2138 C 0.58488 0.58995 0.73846 0.0
H2139 H 0.61467 0.64581 0.72475 0.0
H2140 H 0.58088 0.61866 0.74787 0.0
C2141 C 0.59833 0.5834 0.72373 0.0
C2142 C 0.66168 0.70929 0.62528 0.0
C2143 C 0.67435 0.71667 0.64998 0.0
H2144 H 0.64695 0.71759 0.59104 0.0
C2145 C 0.67961 0.73759 0.66085 0.0
H2146 H 0.65752 0.69327 0.61637 0.0
C2147 C 0.67322 0.75129 0.64678 0.0
C2148 C 0.66184 0.7447 0.62105 0.0
H2149 H 0.68911 0.74363 0.68004 0.0
H2150 H 0.67767 0.76732 0.65587 0.0
C2151 C 0.65562 0.72325 0.61082 0.0
C2152 C 0.27023 0.95654 0.64861 0.0
C2153 C 0.29267 0.96238 0.64904 0.0
H2154 H 0.23778 0.93432 0.63352 0.0
C2155 C 0.29917 0.94819 0.63659 0.0
H2156 H 0.26492 0.96751 0.65765 0.0
C2157 C 0.2834 0.92839 0.62378 0.0
C2158 C 0.26088 0.92285 0.622 0.0
H2159 H 0.31646 0.95243 0.63674 0.0
H2160 H 0.28907 0.91763 0.61511 0.0
C2161 C 0.25461 0.93728 0.63483 0.0
C2162 C 0.04891 0.33487 0.63538 0.0
C2163 C 0.03735 0.31367 0.64782 0.0
H2164 H 0.07648 0.3571 0.60991 0.0
C2165 C 0.04581 0.29895 0.64488 0.0
H2166 H 0.04294 0.34666 0.63732 0.0
C2167 C 0.0648 0.30489 0.6293 0.0
C2168 C 0.07602 0.32575 0.61622 0.0
H2169 H 0.03764 0.28258 0.65435 0.0
H2170 H 0.07069 0.29303 0.62741 0.0
C2171 C 0.06814 0.34089 0.61979 0.0
C2172 C 0.29326 0.33865 0.6088 0.0
C2173 C 0.29285 0.33536 0.63783 0.0
H2174 H 0.27682 0.34286 0.57308 0.0
C2175 C 0.27596 0.33568 0.65355 0.0
H2176 H 0.30599 0.33842 0.59607 0.0
C2177 C 0.25943 0.3386 0.64032 0.0
C2178 C 0.25933 0.34077 0.61117 0.0
H2179 H 0.27523 0.33318 0.67594 0.0
H2180 H 0.24623 0.33824 0.6527 0.0
C2181 C 0.27654 0.34111 0.59559 0.0
C2182 C 0.68324 0.94566 0.66228 0.0
C2183 C 0.67676 0.96104 0.65339 0.0
H2184 H 0.68232 0.91478 0.65486 0.0
C2185 C 0.66328 0.95619 0.62944 0.0
H2186 H 0.69341 0.94881 0.68084 0.0
C2187 C 0.65745 0.93686 0.61384 0.0
C2188 C 0.66471 0.92185 0.62217 0.0
H2189 H 0.65817 0.96784 0.62202 0.0
H2190 H 0.64803 0.93418 0.5947 0.0
C2191 C 0.67706 0.92623 0.64713 0.0
C2192 C 0.05263 0.70641 0.61621 0.0
C2193 C 0.04723 0.71013 0.64315 0.0
H2194 H 0.07517 0.7193 0.58205 0.0
C2195 C 0.06209 0.72977 0.6573 0.0
H2196 H 0.04151 0.69147 0.6047 0.0
C2197 C 0.0815 0.74575 0.64429 0.0
C2198 C 0.08646 0.74242 0.61689 0.0
H2199 H 0.05843 0.73312 0.67809 0.0
H2200 H 0.09247 0.76087 0.65557 0.0
C2201 C 0.072 0.72235 0.60323 0.0
C2202 C 0.97776 0.59174 0.70365 0.0
C2203 C 0.99115 0.61508 0.7041 0.0
H2204 H 0.97294 0.5604 0.71832 0.0
C2205 C 0.01145 0.62452 0.71884 0.0
H2206 H 0.96218 0.58377 0.69223 0.0
C2207 C 0.01766 0.61089 0.7338 0.0
C2208 C 0.00359 0.58769 0.73439 0.0
H2209 H 0.02219 0.64241 0.71954 0.0
H2210 H 0.03298 0.61853 0.74578 0.0
C2211 C 0.98388 0.57827 0.71865 0.0
C2212 C 0.40788 0.39068 0.69574 0.0
C2213 C 0.38615 0.37575 0.70409 0.0
H2214 H 0.43776 0.42101 0.70398 0.0
C2215 C 0.37753 0.38092 0.72759 0.0
H2216 H 0.41487 0.38725 0.67752 0.0
C2217 C 0.39096 0.40002 0.74347 0.0
C2218 C 0.41313 0.41448 0.73583 0.0
H2219 H 0.36084 0.36958 0.73457 0.0
H2220 H 0.38424 0.40286 0.76236 0.0
C2221 C 0.42108 0.40994 0.71116 0.0
C2222 C 0.60847 0.00706 0.70217 0.0
C2223 C 0.62255 1.00067 0.71575 0.0
H2224 H 0.57796 0.00796 0.70342 0.0
C2225 C 0.61569 0.9891 0.74119 0.0
H2226 H 0.61326 0.016 0.68255 0.0
C2227 C 0.59556 0.98458 0.75318 0.0
C2228 C 0.58174 0.99154 0.74009 0.0
H2229 H 0.62613 0.98397 0.75226 0.0
H2230 H 0.59122 0.97629 0.77325 0.0
C2231 C 0.58832 0.00259 0.71424 0.0
loop_
_geom_bond_atom_site_label_1
_geom_bond_atom_site_label_2
_geom_bond_distance
_geom_bond_site_symmetry_2
_ccdc_geom_bond_type
Mn0 O5 2.095 1_655 S
Mn0 O15 2.162 . S
Mn0 O16 2.297 1_554 S
Mn0 O24 2.385 1_554 S
Mn0 O25 2.209 1_654 S
Mn0 O26 2.094 . S
Mn1 O6 2.121 . S
Mn1 N8 2.257 1_554 S
Mn1 N17 2.290 . S
Mn1 O25 2.215 1_554 S
Mn1 O27 2.117 . S
C2 O24 1.234 1_455 S
C2 O25 1.283 . S
C3 O15 1.281 1_556 S
C3 O16 1.236 . S
C4 O26 1.255 . S
C4 O27 1.228 1_655 S
O5 Mn0 2.095 1_455 S
O5 C14 1.250 . S
O6 Mn1 2.121 . S
O6 C14 1.258 . S
C7 N8 1.326 . S
C7 C11 1.460 . S
C7 H13 0.929 . S
N8 Mn1 2.257 1_556 S
N8 C7 1.326 . S
N8 C12 1.362 . S
C9 C10 1.258 . S
C9 C12 1.431 . S
C9 C29 1.449 . S
C10 C9 1.258 . S
C10 C11 1.477 . S
C10 H30 0.931 . S
C11 C7 1.460 . S
C11 C10 1.477 . S
C11 H31 0.930 . S
C12 N8 1.362 . S
C12 C9 1.431 . S
C12 C22 1.476 . S
H13 C7 0.929 . S
C14 O5 1.250 . S
C14 O6 1.258 . S
O15 Mn0 2.162 . S
O15 C3 1.281 1_554 S
O16 Mn0 2.297 1_556 S
O16 C3 1.236 . S
N17 Mn1 2.290 . S
N17 C18 1.333 . S
N17 C22 1.302 1_554 S
C18 N17 1.333 . S
C18 C19 1.457 1_554 S
C18 H23 0.929 . S
C19 C18 1.457 1_556 S
C19 C20 1.291 . S
C19 H32 0.931 . S
C20 C19 1.291 . S
C20 C21 1.373 . S
C20 H33 0.929 . S
C21 C20 1.373 . S
C21 C22 1.396 . S
C21 C28 1.403 . S
C22 C12 1.476 . S
C22 N17 1.302 1_556 S
C22 C21 1.396 . S
H23 C18 0.929 . S
O24 Mn0 2.385 1_556 S
O24 C2 1.234 1_655 S
O25 Mn0 2.209 1_456 S
O25 Mn1 2.215 1_556 S
O25 C2 1.283 . S
O26 Mn0 2.094 . S
O26 C4 1.255 . S
O27 Mn1 2.117 . S
O27 C4 1.228 1_455 S
C28 C21 1.403 . S
C28 C29 1.399 . S
C28 H34 0.929 . S
C29 C9 1.449 . S
C29 C28 1.399 . S
C29 H35 0.930 . S
H30 C10 0.931 . S
H31 C11 0.930 . S
H32 C19 0.931 . S
H33 C20 0.929 . S
H34 C28 0.929 . S
H35 C29 0.930 . S
Mn36 O41 2.095 1_554 S
Mn36 O51 2.162 . S
Mn36 O52 2.297 . S
Mn36 O60 2.385 . S
Mn36 O61 2.209 . S
Mn36 O62 2.094 1_554 S
Mn37 O42 2.121 . S
Mn37 N44 2.257 1_556 S
Mn37 N53 2.282 1_556 S
Mn37 O61 2.215 1_556 S
Mn37 O63 2.117 . S
C38 O60 1.234 . S
C38 O61 1.283 . S
C39 O51 1.281 . S
C39 O52 1.236 . S
C40 O62 1.240 . S
C40 O63 1.264 . S
O41 Mn36 2.095 1_556 S
O41 C50 1.250 . S
O42 Mn37 2.121 . S
O42 C50 1.258 . S
C43 N44 1.326 . S
C43 C47 1.460 . S
C43 H49 0.929 . S
N44 Mn37 2.257 1_554 S
N44 C43 1.326 . S
N44 C48 1.362 . S
C45 C46 1.258 . S
C45 C48 1.431 . S
C45 C65 1.449 . S
C46 C45 1.258 . S
C46 C47 1.477 . S
C46 H66 0.931 . S
C47 C43 1.460 . S
C47 C46 1.477 . S
C47 H67 0.930 . S
C48 N44 1.362 . S
C48 C45 1.431 . S
C48 C58 1.476 . S
H49 C43 0.929 . S
C50 O41 1.250 . S
C50 O42 1.258 . S
O51 Mn36 2.162 . S
O51 C39 1.281 . S
O52 Mn36 2.297 . S
O52 C39 1.236 . S
N53 Mn37 2.282 1_554 S
N53 C54 1.328 . S
N53 C58 1.318 . S
C54 N53 1.328 . S
C54 C55 1.457 . S
C54 H59 0.929 1_554 S
C55 C54 1.457 . S
C55 C56 1.291 . S
C55 H68 0.931 . S
C56 C55 1.291 . S
C56 C57 1.373 . S
C56 H69 0.929 . S
C57 C56 1.373 . S
C57 C58 1.396 . S
C57 C64 1.403 . S
C58 C48 1.476 . S
C58 N53 1.318 . S
C58 C57 1.396 . S
H59 C54 0.929 1_556 S
O60 Mn36 2.385 . S
O60 C38 1.234 . S
O61 Mn36 2.209 . S
O61 Mn37 2.215 1_554 S
O61 C38 1.283 . S
O62 Mn36 2.094 1_556 S
O62 C40 1.240 . S
O63 Mn37 2.117 . S
O63 C40 1.264 . S
C64 C57 1.403 . S
C64 C65 1.399 . S
C64 H70 0.929 . S
C65 C45 1.449 . S
C65 C64 1.399 . S
C65 H71 0.930 . S
H66 C46 0.931 . S
H67 C47 0.930 . S
H68 C55 0.931 . S
H69 C56 0.929 . S
H70 C64 0.929 . S
H71 C65 0.930 . S
Mn72 O77 2.095 1_564 S
Mn72 O87 2.162 . S
Mn72 O88 2.297 . S
Mn72 O96 2.385 . S
Mn72 O97 2.209 1_565 S
Mn72 O98 2.094 1_554 S
Mn73 O78 2.121 1_554 S
Mn73 N80 2.257 . S
Mn73 N89 2.282 . S
Mn73 O97 2.215 . S
Mn73 O99 2.117 1_554 S
C74 O96 1.234 1_545 S
C74 O97 1.283 . S
C75 O87 1.281 . S
C75 O88 1.236 . S
C76 O98 1.240 . S
C76 O99 1.264 1_565 S
O77 Mn72 2.095 1_546 S
O77 C86 1.250 . S
O78 Mn73 2.121 1_556 S
O78 C86 1.258 . S
C79 N80 1.326 . S
C79 C83 1.460 . S
C79 H85 0.929 . S
N80 Mn73 2.257 . S
N80 C79 1.326 . S
N80 C84 1.362 . S
C81 C82 1.258 . S
C81 C84 1.431 . S
C81 C101 1.449 . S
C82 C81 1.258 . S
C82 C83 1.477 . S
C82 H102 0.931 . S
C83 C79 1.460 . S
C83 C82 1.477 . S
C83 H103 0.930 . S
C84 N80 1.362 . S
C84 C81 1.431 . S
C84 C94 1.476 . S
H85 C79 0.929 . S
C86 O77 1.250 . S
C86 O78 1.258 . S
O87 Mn72 2.162 . S
O87 C75 1.281 . S
O88 Mn72 2.297 . S
O88 C75 1.236 . S
N89 Mn73 2.282 . S
N89 C90 1.328 . S
N89 C94 1.318 . S
C90 N89 1.328 . S
C90 C91 1.457 . S
C90 H95 0.929 . S
C91 C90 1.457 . S
C91 C92 1.291 . S
C91 H104 0.931 . S
C92 C91 1.291 . S
C92 C93 1.373 . S
C92 H105 0.929 . S
C93 C92 1.373 . S
C93 C94 1.396 . S
C93 C100 1.403 . S
C94 C84 1.476 . S
C94 N89 1.318 . S
C94 C93 1.396 . S
H95 C90 0.929 . S
O96 Mn72 2.385 . S
O96 C74 1.234 1_565 S
O97 Mn72 2.209 1_545 S
O97 Mn73 2.215 . S
O97 C74 1.283 . S
O98 Mn72 2.094 1_556 S
O98 C76 1.240 . S
O99 Mn73 2.117 1_556 S
O99 C76 1.264 1_545 S
C100 C93 1.403 . S
C100 C101 1.399 . S
C100 H106 0.929 . S
C101 C81 1.449 . S
C101 C100 1.399 . S
C101 H107 0.930 . S
H102 C82 0.931 . S
H103 C83 0.930 . S
H104 C91 0.931 . S
H105 C92 0.929 . S
H106 C100 0.929 . S
H107 C101 0.930 . S
Mn108 O113 2.095 1_655 S
Mn108 O123 2.162 . S
Mn108 O124 2.297 1_554 S
Mn108 O132 2.385 1_554 S
Mn108 O133 2.209 1_654 S
Mn108 O134 2.094 . S
Mn109 O114 2.121 . S
Mn109 N116 2.257 1_554 S
Mn109 N125 2.284 . S
Mn109 O133 2.215 1_554 S
Mn109 O135 2.117 . S
C110 O132 1.234 1_455 S
C110 O133 1.283 . S
C111 O123 1.281 1_556 S
C111 O124 1.236 . S
C112 O134 1.240 . S
C112 O135 1.264 1_655 S
O113 Mn108 2.095 1_455 S
O113 C122 1.250 . S
O114 Mn109 2.121 . S
O114 C122 1.258 . S
C115 N116 1.326 . S
C115 C119 1.460 . S
C115 H121 0.929 . S
N116 Mn109 2.257 1_556 S
N116 C115 1.326 . S
N116 C120 1.362 . S
C117 C118 1.258 . S
C117 C120 1.431 . S
C117 C137 1.449 . S
C118 C117 1.258 . S
C118 C119 1.477 . S
C118 H138 0.931 . S
C119 C115 1.460 . S
C119 C118 1.477 . S
C119 H139 0.930 . S
C120 N116 1.362 . S
C120 C117 1.431 . S
C120 C130 1.476 . S
H121 C115 0.929 . S
C122 O113 1.250 . S
C122 O114 1.258 . S
O123 Mn108 2.162 . S
O123 C111 1.281 1_554 S
O124 Mn108 2.297 1_556 S
O124 C111 1.236 . S
N125 Mn109 2.284 . S
N125 C126 1.329 . S
N125 C130 1.314 1_554 S
C126 N125 1.329 . S
C126 C127 1.457 1_554 S
C126 H131 0.929 . S
C127 C126 1.457 1_556 S
C127 C128 1.291 . S
C127 H140 0.931 . S
C128 C127 1.291 . S
C128 C129 1.373 . S
C128 H141 0.929 . S
C129 C128 1.373 . S
C129 C130 1.396 . S
C129 C136 1.403 . S
C130 C120 1.476 . S
C130 N125 1.314 1_556 S
C130 C129 1.396 . S
H131 C126 0.929 . S
O132 Mn108 2.385 1_556 S
O132 C110 1.234 1_655 S
O133 Mn108 2.209 1_456 S
O133 Mn109 2.215 1_556 S
O133 C110 1.283 . S
O134 Mn108 2.094 . S
O134 C112 1.240 . S
O135 Mn109 2.117 . S
O135 C112 1.264 1_455 S
C136 C129 1.403 . S
C136 C137 1.399 . S
C136 H142 0.929 . S
C137 C117 1.449 . S
C137 C136 1.399 . S
C137 H143 0.930 . S
H138 C118 0.931 . S
H139 C119 0.930 . S
H140 C127 0.931 . S
H141 C128 0.929 . S
H142 C136 0.929 . S
H143 C137 0.930 . S
Mn144 O149 2.095 1_554 S
Mn144 O159 2.162 . S
Mn144 O160 2.297 . S
Mn144 O168 2.385 . S
Mn144 O169 2.209 . S
Mn144 O170 2.094 1_554 S
Mn145 O150 2.121 . S
Mn145 N152 2.257 1_556 S
Mn145 N161 2.282 1_556 S
Mn145 O169 2.215 1_556 S
Mn145 O171 2.117 . S
C146 O168 1.234 . S
C146 O169 1.283 . S
C147 O159 1.281 . S
C147 O160 1.236 . S
C148 O170 1.240 . S
C148 O171 1.264 . S
O149 Mn144 2.095 1_556 S
O149 C158 1.250 . S
O150 Mn145 2.121 . S
O150 C158 1.258 . S
C151 N152 1.326 . S
C151 C155 1.460 . S
C151 H157 0.929 . S
N152 Mn145 2.257 1_554 S
N152 C151 1.326 . S
N152 C156 1.362 . S
C153 C154 1.258 . S
C153 C156 1.431 . S
C153 C173 1.449 . S
C154 C153 1.258 . S
C154 C155 1.477 . S
C154 H174 0.931 . S
C155 C151 1.460 . S
C155 C154 1.477 . S
C155 H175 0.930 . S
C156 N152 1.362 . S
C156 C153 1.431 . S
C156 C166 1.476 . S
H157 C151 0.929 . S
C158 O149 1.250 . S
C158 O150 1.258 . S
O159 Mn144 2.162 . S
O159 C147 1.281 . S
O160 Mn144 2.297 . S
O160 C147 1.236 . S
N161 Mn145 2.282 1_554 S
N161 C162 1.328 . S
N161 C166 1.318 . S
C162 N161 1.328 . S
C162 C163 1.457 . S
C162 H167 0.929 1_554 S
C163 C162 1.457 . S
C163 C164 1.291 . S
C163 H176 0.931 . S
C164 C163 1.291 . S
C164 C165 1.373 . S
C164 H177 0.929 . S
C165 C164 1.373 . S
C165 C166 1.396 . S
C165 C172 1.403 . S
C166 C156 1.476 . S
C166 N161 1.318 . S
C166 C165 1.396 . S
H167 C162 0.929 1_556 S
O168 Mn144 2.385 . S
O168 C146 1.234 . S
O169 Mn144 2.209 . S
O169 Mn145 2.215 1_554 S
O169 C146 1.283 . S
O170 Mn144 2.094 1_556 S
O170 C148 1.240 . S
O171 Mn145 2.117 . S
O171 C148 1.264 . S
C172 C165 1.403 . S
C172 C173 1.399 . S
C172 H178 0.929 . S
C173 C153 1.449 . S
C173 C172 1.399 . S
C173 H179 0.930 . S
H174 C154 0.931 . S
H175 C155 0.930 . S
H176 C163 0.931 . S
H177 C164 0.929 . S
H178 C172 0.929 . S
H179 C173 0.930 . S
Mn180 O185 2.095 1_545 S
Mn180 O195 2.162 . S
Mn180 O196 2.297 1_554 S
Mn180 O204 2.385 1_554 S
Mn180 O205 2.209 1_544 S
Mn180 O206 2.094 . S
Mn181 O186 2.121 . S
Mn181 N188 2.257 1_554 S
Mn181 N197 2.294 . S
Mn181 O205 2.215 1_554 S
Mn181 O207 2.117 . S
C182 O204 1.234 1_565 S
C182 O205 1.283 . S
C183 O195 1.281 1_556 S
C183 O196 1.236 . S
C184 O206 1.240 . S
C184 O207 1.264 1_545 S
O185 Mn180 2.095 1_565 S
O185 C194 1.250 . S
O186 Mn181 2.121 . S
O186 C194 1.258 . S
C187 N188 1.326 . S
C187 C191 1.460 . S
C187 H193 0.929 . S
N188 Mn181 2.257 1_556 S
N188 C187 1.326 . S
N188 C192 1.362 . S
C189 C190 1.258 . S
C189 C192 1.431 . S
C189 C209 1.449 . S
C190 C189 1.258 . S
C190 C191 1.477 . S
C190 H210 0.931 . S
C191 C187 1.460 . S
C191 C190 1.477 . S
C191 H211 0.930 . S
C192 N188 1.362 . S
C192 C189 1.431 . S
C192 C202 1.476 . S
H193 C187 0.929 . S
C194 O185 1.250 . S
C194 O186 1.258 . S
O195 Mn180 2.162 . S
O195 C183 1.281 1_554 S
O196 Mn180 2.297 1_556 S
O196 C183 1.236 . S
N197 Mn181 2.294 . S
N197 C198 1.335 . S
N197 C202 1.296 1_554 S
C198 N197 1.335 . S
C198 C199 1.457 1_554 S
C198 H203 0.929 . S
C199 C198 1.457 1_556 S
C199 C200 1.291 . S
C199 H212 0.931 . S
C200 C199 1.291 . S
C200 C201 1.373 . S
C200 H213 0.929 . S
C201 C200 1.373 . S
C201 C202 1.396 . S
C201 C208 1.403 . S
C202 C192 1.476 . S
C202 N197 1.296 1_556 S
C202 C201 1.396 . S
H203 C198 0.929 . S
O204 Mn180 2.385 1_556 S
O204 C182 1.234 1_545 S
O205 Mn180 2.209 1_566 S
O205 Mn181 2.215 1_556 S
O205 C182 1.283 . S
O206 Mn180 2.094 . S
O206 C184 1.240 . S
O207 Mn181 2.117 . S
O207 C184 1.264 1_565 S
C208 C201 1.403 . S
C208 C209 1.399 . S
C208 H214 0.929 . S
C209 C189 1.449 . S
C209 C208 1.399 . S
C209 H215 0.930 . S
H210 C190 0.931 . S
H211 C191 0.930 . S
H212 C199 0.931 . S
H213 C200 0.929 . S
H214 C208 0.929 . S
H215 C209 0.930 . S
Mn216 O221 2.095 . S
Mn216 O231 2.162 . S
Mn216 O232 2.297 . S
Mn216 O240 2.385 . S
Mn216 O241 2.209 . S
Mn216 O242 2.094 . S
Mn217 O222 2.121 . S
Mn217 N224 2.257 . S
Mn217 N233 2.282 . S
Mn217 O241 2.215 . S
Mn217 O243 2.117 . S
C218 O240 1.234 . S
C218 O241 1.283 . S
C219 O231 1.281 . S
C219 O232 1.236 . S
C220 O242 1.240 . S
C220 O243 1.264 . S
O221 Mn216 2.095 . S
O221 C230 1.250 . S
O222 Mn217 2.121 . S
O222 C230 1.258 . S
C223 N224 1.326 . S
C223 C227 1.460 . S
C223 H229 0.929 . S
N224 Mn217 2.257 . S
N224 C223 1.326 . S
N224 C228 1.362 . S
C225 C226 1.258 . S
C225 C228 1.431 . S
C225 C245 1.449 . S
C226 C225 1.258 . S
C226 C227 1.477 . S
C226 H246 0.931 . S
C227 C223 1.460 . S
C227 C226 1.477 . S
C227 H247 0.930 . S
C228 N224 1.362 . S
C228 C225 1.431 . S
C228 C238 1.476 . S
H229 C223 0.929 . S
C230 O221 1.250 . S
C230 O222 1.258 . S
O231 Mn216 2.162 . S
O231 C219 1.281 . S
O232 Mn216 2.297 . S
O232 C219 1.236 . S
N233 Mn217 2.282 . S
N233 C234 1.328 . S
N233 C238 1.318 . S
C234 N233 1.328 . S
C234 C235 1.457 . S
C234 H239 0.929 . S
C235 C234 1.457 . S
C235 C236 1.291 . S
C235 H248 0.931 . S
C236 C235 1.291 . S
C236 C237 1.373 . S
C236 H249 0.929 . S
C237 C236 1.373 . S
C237 C238 1.396 . S
C237 C244 1.403 . S
C238 C228 1.476 . S
C238 N233 1.318 . S
C238 C237 1.396 . S
H239 C234 0.929 . S
O240 Mn216 2.385 . S
O240 C218 1.234 . S
O241 Mn216 2.209 . S
O241 Mn217 2.215 . S
O241 C218 1.283 . S
O242 Mn216 2.094 . S
O242 C220 1.240 . S
O243 Mn217 2.117 . S
O243 C220 1.264 . S
C244 C237 1.403 . S
C244 C245 1.399 . S
C244 H250 0.929 . S
C245 C225 1.449 . S
C245 C244 1.399 . S
C245 H251 0.930 . S
H246 C226 0.931 . S
H247 C227 0.930 . S
H248 C235 0.931 . S
H249 C236 0.929 . S
H250 C244 0.929 . S
H251 C245 0.930 . S
Mn252 O257 2.095 . S
Mn252 O267 2.162 1_565 S
Mn252 O268 2.297 1_565 S
Mn252 O276 2.385 . S
Mn252 O277 2.209 . S
Mn252 O278 2.094 . S
Mn253 O258 2.121 . S
Mn253 N260 2.257 . S
Mn253 N269 2.282 . S
Mn253 O277 2.215 . S
Mn253 O279 2.117 . S
C254 O276 1.234 . S
C254 O277 1.283 . S
C255 O267 1.281 . S
C255 O268 1.236 . S
C256 O278 1.240 . S
C256 O279 1.264 . S
O257 Mn252 2.095 . S
O257 C266 1.250 . S
O258 Mn253 2.121 . S
O258 C266 1.258 . S
C259 N260 1.326 . S
C259 C263 1.460 . S
C259 H265 0.929 . S
N260 Mn253 2.257 . S
N260 C259 1.326 . S
N260 C264 1.362 . S
C261 C262 1.258 . S
C261 C264 1.431 . S
C261 C281 1.449 . S
C262 C261 1.258 . S
C262 C263 1.477 . S
C262 H282 0.931 . S
C263 C259 1.460 . S
C263 C262 1.477 . S
C263 H283 0.930 . S
C264 N260 1.362 . S
C264 C261 1.431 . S
C264 C274 1.476 . S
H265 C259 0.929 . S
C266 O257 1.250 . S
C266 O258 1.258 . S
O267 Mn252 2.162 1_545 S
O267 C255 1.281 . S
O268 Mn252 2.297 1_545 S
O268 C255 1.236 . S
N269 Mn253 2.282 . S
N269 C270 1.328 . S
N269 C274 1.318 . S
C270 N269 1.328 . S
C270 C271 1.457 . S
C270 H275 0.929 . S
C271 C270 1.457 . S
C271 C272 1.291 . S
C271 H284 0.931 . S
C272 C271 1.291 . S
C272 C273 1.373 . S
C272 H285 0.929 . S
C273 C272 1.373 . S
C273 C274 1.396 . S
C273 C280 1.403 . S
C274 C264 1.476 . S
C274 N269 1.318 . S
C274 C273 1.396 . S
H275 C270 0.929 . S
O276 Mn252 2.385 . S
O276 C254 1.234 . S
O277 Mn252 2.209 . S
O277 Mn253 2.215 . S
O277 C254 1.283 . S
O278 Mn252 2.094 . S
O278 C256 1.240 . S
O279 Mn253 2.117 . S
O279 C256 1.264 . S
C280 C273 1.403 . S
C280 C281 1.399 . S
C280 H286 0.929 . S
C281 C261 1.449 . S
C281 C280 1.399 . S
C281 H287 0.930 . S
H282 C262 0.931 . S
H283 C263 0.930 . S
H284 C271 0.931 . S
H285 C272 0.929 . S
H286 C280 0.929 . S
H287 C281 0.930 . S
Mn288 O293 2.095 . S
Mn288 O303 2.162 1_455 S
Mn288 O304 2.297 1_455 S
Mn288 O312 2.385 . S
Mn288 O313 2.209 . S
Mn288 O314 2.094 . S
Mn289 O294 2.121 . S
Mn289 N296 2.257 . S
Mn289 N305 2.282 . S
Mn289 O313 2.215 . S
Mn289 O315 2.117 . S
C290 O312 1.234 . S
C290 O313 1.283 . S
C291 O303 1.281 . S
C291 O304 1.236 . S
C292 O314 1.240 . S
C292 O315 1.264 . S
O293 Mn288 2.095 . S
O293 C302 1.250 . S
O294 Mn289 2.121 . S
O294 C302 1.258 . S
C295 N296 1.326 . S
C295 C299 1.460 . S
C295 H301 0.929 . S
N296 Mn289 2.257 . S
N296 C295 1.326 . S
N296 C300 1.362 . S
C297 C298 1.258 . S
C297 C300 1.431 . S
C297 C317 1.449 . S
C298 C297 1.258 . S
C298 C299 1.477 . S
C298 H318 0.931 . S
C299 C295 1.460 . S
C299 C298 1.477 . S
C299 H319 0.930 . S
C300 N296 1.362 . S
C300 C297 1.431 . S
C300 C310 1.476 . S
H301 C295 0.929 . S
C302 O293 1.250 . S
C302 O294 1.258 . S
O303 Mn288 2.162 1_655 S
O303 C291 1.281 . S
O304 Mn288 2.297 1_655 S
O304 C291 1.236 . S
N305 Mn289 2.282 . S
N305 C306 1.328 . S
N305 C310 1.318 . S
C306 N305 1.328 . S
C306 C307 1.457 . S
C306 H311 0.929 . S
C307 C306 1.457 . S
C307 C308 1.291 . S
C307 H320 0.931 . S
C308 C307 1.291 . S
C308 C309 1.373 . S
C308 H321 0.929 . S
C309 C308 1.373 . S
C309 C310 1.396 . S
C309 C316 1.403 . S
C310 C300 1.476 . S
C310 N305 1.318 . S
C310 C309 1.396 . S
H311 C306 0.929 . S
O312 Mn288 2.385 . S
O312 C290 1.234 . S
O313 Mn288 2.209 . S
O313 Mn289 2.215 . S
O313 C290 1.283 . S
O314 Mn288 2.094 . S
O314 C292 1.240 . S
O315 Mn289 2.117 . S
O315 C292 1.264 . S
C316 C309 1.403 . S
C316 C317 1.399 . S
C316 H322 0.929 . S
C317 C297 1.449 . S
C317 C316 1.399 . S
C317 H323 0.930 . S
H318 C298 0.931 . S
H319 C299 0.930 . S
H320 C307 0.931 . S
H321 C308 0.929 . S
H322 C316 0.929 . S
H323 C317 0.930 . S
Mn324 O329 2.095 1_565 S
Mn324 O339 2.162 . S
Mn324 O340 2.297 . S
Mn324 O348 2.385 . S
Mn324 O349 2.209 . S
Mn324 O350 2.094 . S
Mn325 O330 2.121 1_565 S
Mn325 N332 2.257 . S
Mn325 N341 2.282 . S
Mn325 O349 2.215 . S
Mn325 O351 2.117 . S
C326 O348 1.234 . S
C326 O349 1.283 . S
C327 O339 1.281 . S
C327 O340 1.236 . S
C328 O350 1.240 . S
C328 O351 1.264 . S
O329 Mn324 2.095 1_545 S
O329 C338 1.250 . S
O330 Mn325 2.121 1_545 S
O330 C338 1.258 . S
C331 N332 1.326 1_545 S
C331 C335 1.460 . S
C331 H337 0.929 . S
N332 Mn325 2.257 . S
N332 C331 1.326 1_565 S
N332 C336 1.362 . S
C333 C334 1.258 1_565 S
C333 C336 1.431 . S
C333 C353 1.449 . S
C334 C333 1.258 1_545 S
C334 C335 1.477 . S
C334 H354 0.931 . S
C335 C331 1.460 . S
C335 C334 1.477 . S
C335 H355 0.930 . S
C336 N332 1.362 . S
C336 C333 1.431 . S
C336 C346 1.476 . S
H337 C331 0.929 . S
C338 O329 1.250 . S
C338 O330 1.258 . S
O339 Mn324 2.162 . S
O339 C327 1.281 . S
O340 Mn324 2.297 . S
O340 C327 1.236 . S
N341 Mn325 2.282 . S
N341 C342 1.328 . S
N341 C346 1.318 . S
C342 N341 1.328 . S
C342 C343 1.457 . S
C342 H347 0.929 . S
C343 C342 1.457 . S
C343 C344 1.291 . S
C343 H356 0.931 . S
C344 C343 1.291 . S
C344 C345 1.373 . S
C344 H357 0.929 . S
C345 C344 1.373 . S
C345 C346 1.396 . S
C345 C352 1.403 . S
C346 C336 1.476 . S
C346 N341 1.318 . S
C346 C345 1.396 . S
H347 C342 0.929 . S
O348 Mn324 2.385 . S
O348 C326 1.234 . S
O349 Mn324 2.209 . S
O349 Mn325 2.215 . S
O349 C326 1.283 . S
O350 Mn324 2.094 . S
O350 C328 1.240 . S
O351 Mn325 2.117 . S
O351 C328 1.264 . S
C352 C345 1.403 . S
C352 C353 1.399 . S
C352 H358 0.929 . S
C353 C333 1.449 . S
C353 C352 1.399 . S
C353 H359 0.930 . S
H354 C334 0.931 . S
H355 C335 0.930 . S
H356 C343 0.931 . S
H357 C344 0.929 . S
H358 C352 0.929 . S
H359 C353 0.930 . S
Mn360 O365 2.095 . S
Mn360 O375 2.162 1_455 S
Mn360 O376 2.297 1_455 S
Mn360 O384 2.385 . S
Mn360 O385 2.209 . S
Mn360 O386 2.094 . S
Mn361 O366 2.121 . S
Mn361 N368 2.257 . S
Mn361 N377 2.282 . S
Mn361 O385 2.215 . S
Mn361 O387 2.117 . S
C362 O384 1.234 . S
C362 O385 1.283 . S
C363 O375 1.281 . S
C363 O376 1.236 . S
C364 O386 1.240 . S
C364 O387 1.264 . S
O365 Mn360 2.095 . S
O365 C374 1.250 . S
O366 Mn361 2.121 . S
O366 C374 1.258 . S
C367 N368 1.326 . S
C367 C371 1.460 . S
C367 H373 0.929 . S
N368 Mn361 2.257 . S
N368 C367 1.326 . S
N368 C372 1.362 . S
C369 C370 1.258 . S
C369 C372 1.431 . S
C369 C389 1.449 . S
C370 C369 1.258 . S
C370 C371 1.477 . S
C370 H390 0.931 . S
C371 C367 1.460 . S
C371 C370 1.477 . S
C371 H391 0.930 . S
C372 N368 1.362 . S
C372 C369 1.431 . S
C372 C382 1.476 . S
H373 C367 0.929 . S
C374 O365 1.250 . S
C374 O366 1.258 . S
O375 Mn360 2.162 1_655 S
O375 C363 1.281 . S
O376 Mn360 2.297 1_655 S
O376 C363 1.236 . S
N377 Mn361 2.282 . S
N377 C378 1.328 . S
N377 C382 1.318 . S
C378 N377 1.328 . S
C378 C379 1.457 . S
C378 H383 0.929 . S
C379 C378 1.457 . S
C379 C380 1.291 . S
C379 H392 0.931 . S
C380 C379 1.291 . S
C380 C381 1.373 . S
C380 H393 0.929 . S
C381 C380 1.373 . S
C381 C382 1.396 . S
C381 C388 1.403 . S
C382 C372 1.476 . S
C382 N377 1.318 . S
C382 C381 1.396 . S
H383 C378 0.929 . S
O384 Mn360 2.385 . S
O384 C362 1.234 . S
O385 Mn360 2.209 . S
O385 Mn361 2.215 . S
O385 C362 1.283 . S
O386 Mn360 2.094 . S
O386 C364 1.240 . S
O387 Mn361 2.117 . S
O387 C364 1.264 . S
C388 C381 1.403 . S
C388 C389 1.399 . S
C388 H394 0.929 . S
C389 C369 1.449 . S
C389 C388 1.399 . S
C389 H395 0.930 . S
H390 C370 0.931 . S
H391 C371 0.930 . S
H392 C379 0.931 . S
H393 C380 0.929 . S
H394 C388 0.929 . S
H395 C389 0.930 . S
Mn396 O401 2.095 . S
Mn396 O411 2.162 . S
Mn396 O412 2.297 . S
Mn396 O420 2.385 . S
Mn396 O421 2.209 . S
Mn396 O422 2.094 . S
Mn397 O402 2.121 . S
Mn397 N404 2.257 . S
Mn397 N413 2.282 . S
Mn397 O421 2.215 . S
Mn397 O423 2.117 . S
C398 O420 1.234 . S
C398 O421 1.283 . S
C399 O411 1.281 . S
C399 O412 1.236 . S
C400 O422 1.240 . S
C400 O423 1.264 . S
O401 Mn396 2.095 . S
O401 C410 1.250 . S
O402 Mn397 2.121 . S
O402 C410 1.258 . S
C403 N404 1.326 . S
C403 C407 1.460 . S
C403 H409 0.929 . S
N404 Mn397 2.257 . S
N404 C403 1.326 . S
N404 C408 1.362 . S
C405 C406 1.258 . S
C405 C408 1.431 . S
C405 C425 1.449 . S
C406 C405 1.258 . S
C406 C407 1.477 . S
C406 H426 0.931 . S
C407 C403 1.460 . S
C407 C406 1.477 . S
C407 H427 0.930 . S
C408 N404 1.362 . S
C408 C405 1.431 . S
C408 C418 1.476 . S
H409 C403 0.929 . S
C410 O401 1.250 . S
C410 O402 1.258 . S
O411 Mn396 2.162 . S
O411 C399 1.281 . S
O412 Mn396 2.297 . S
O412 C399 1.236 . S
N413 Mn397 2.282 . S
N413 C414 1.328 . S
N413 C418 1.318 . S
C414 N413 1.328 . S
C414 C415 1.457 . S
C414 H419 0.929 . S
C415 C414 1.457 . S
C415 C416 1.291 . S
C415 H428 0.931 . S
C416 C415 1.291 . S
C416 C417 1.373 . S
C416 H429 0.929 . S
C417 C416 1.373 . S
C417 C418 1.396 . S
C417 C424 1.403 . S
C418 C408 1.476 . S
C418 N413 1.318 . S
C418 C417 1.396 . S
H419 C414 0.929 . S
O420 Mn396 2.385 . S
O420 C398 1.234 . S
O421 Mn396 2.209 . S
O421 Mn397 2.215 . S
O421 C398 1.283 . S
O422 Mn396 2.094 . S
O422 C400 1.240 . S
O423 Mn397 2.117 . S
O423 C400 1.264 . S
C424 C417 1.403 . S
C424 C425 1.399 . S
C424 H430 0.929 . S
C425 C405 1.449 . S
C425 C424 1.399 . S
C425 H431 0.930 . S
H426 C406 0.931 . S
H427 C407 0.930 . S
H428 C415 0.931 . S
H429 C416 0.929 . S
H430 C424 0.929 . S
H431 C425 0.930 . S
Mn432 O437 2.095 . S
Mn432 O447 2.162 1_545 S
Mn432 O448 2.297 1_545 S
Mn432 O456 2.385 . S
Mn432 O457 2.209 . S
Mn432 O458 2.094 . S
Mn433 O438 2.121 . S
Mn433 N440 2.257 . S
Mn433 N449 2.282 . S
Mn433 O457 2.215 . S
Mn433 O459 2.117 . S
C434 O456 1.234 . S
C434 O457 1.283 . S
C435 O447 1.281 . S
C435 O448 1.236 . S
C436 O458 1.240 . S
C436 O459 1.264 . S
O437 Mn432 2.095 . S
O437 C446 1.250 . S
O438 Mn433 2.121 . S
O438 C446 1.258 . S
C439 N440 1.326 . S
C439 C443 1.460 . S
C439 H445 0.929 . S
N440 Mn433 2.257 . S
N440 C439 1.326 . S
N440 C444 1.362 . S
C441 C442 1.258 . S
C441 C444 1.431 . S
C441 C461 1.449 . S
C442 C441 1.258 . S
C442 C443 1.477 . S
C442 H462 0.931 . S
C443 C439 1.460 . S
C443 C442 1.477 . S
C443 H463 0.930 . S
C444 N440 1.362 . S
C444 C441 1.431 . S
C444 C454 1.476 . S
H445 C439 0.929 . S
C446 O437 1.250 . S
C446 O438 1.258 . S
O447 Mn432 2.162 1_565 S
O447 C435 1.281 . S
O448 Mn432 2.297 1_565 S
O448 C435 1.236 . S
N449 Mn433 2.282 . S
N449 C450 1.328 . S
N449 C454 1.318 . S
C450 N449 1.328 . S
C450 C451 1.457 . S
C450 H455 0.929 . S
C451 C450 1.457 . S
C451 C452 1.291 . S
C451 H464 0.931 . S
C452 C451 1.291 . S
C452 C453 1.373 . S
C452 H465 0.929 . S
C453 C452 1.373 . S
C453 C454 1.396 . S
C453 C460 1.403 . S
C454 C444 1.476 . S
C454 N449 1.318 . S
C454 C453 1.396 . S
H455 C450 0.929 . S
O456 Mn432 2.385 . S
O456 C434 1.234 . S
O457 Mn432 2.209 . S
O457 Mn433 2.215 . S
O457 C434 1.283 . S
O458 Mn432 2.094 . S
O458 C436 1.240 . S
O459 Mn433 2.117 . S
O459 C436 1.264 . S
C460 C453 1.403 . S
C460 C461 1.399 . S
C460 H466 0.929 . S
C461 C441 1.449 . S
C461 C460 1.399 . S
C461 H467 0.930 . S
H462 C442 0.931 . S
H463 C443 0.930 . S
H464 C451 0.931 . S
H465 C452 0.929 . S
H466 C460 0.929 . S
H467 C461 0.930 . S
Mn468 O473 2.095 1_655 S
Mn468 O483 2.162 . S
Mn468 O484 2.297 . S
Mn468 O492 2.385 . S
Mn468 O493 2.209 . S
Mn468 O494 2.094 . S
Mn469 O474 2.121 1_655 S
Mn469 N476 2.257 . S
Mn469 N485 2.282 . S
Mn469 O493 2.215 . S
Mn469 O495 2.117 . S
C470 O492 1.234 . S
C470 O493 1.283 . S
C471 O483 1.281 . S
C471 O484 1.236 . S
C472 O494 1.240 . S
C472 O495 1.264 . S
O473 Mn468 2.095 1_455 S
O473 C482 1.250 . S
O474 Mn469 2.121 1_455 S
O474 C482 1.258 . S
C475 N476 1.326 1_455 S
C475 C479 1.460 . S
C475 H481 0.929 . S
N476 Mn469 2.257 . S
N476 C475 1.326 1_655 S
N476 C480 1.362 . S
C477 C478 1.258 1_655 S
C477 C480 1.431 . S
C477 C497 1.449 . S
C478 C477 1.258 1_455 S
C478 C479 1.477 . S
C478 H498 0.931 . S
C479 C475 1.460 . S
C479 C478 1.477 . S
C479 H499 0.930 . S
C480 N476 1.362 . S
C480 C477 1.431 . S
C480 C490 1.476 . S
H481 C475 0.929 . S
C482 O473 1.250 . S
C482 O474 1.258 . S
O483 Mn468 2.162 . S
O483 C471 1.281 . S
O484 Mn468 2.297 . S
O484 C471 1.236 . S
N485 Mn469 2.282 . S
N485 C486 1.328 . S
N485 C490 1.318 . S
C486 N485 1.328 . S
C486 C487 1.457 . S
C486 H491 0.929 . S
C487 C486 1.457 . S
C487 C488 1.291 . S
C487 H500 0.931 . S
C488 C487 1.291 . S
C488 C489 1.373 . S
C488 H501 0.929 . S
C489 C488 1.373 . S
C489 C490 1.396 . S
C489 C496 1.403 . S
C490 C480 1.476 . S
C490 N485 1.318 . S
C490 C489 1.396 . S
H491 C486 0.929 . S
O492 Mn468 2.385 . S
O492 C470 1.234 . S
O493 Mn468 2.209 . S
O493 Mn469 2.215 . S
O493 C470 1.283 . S
O494 Mn468 2.094 . S
O494 C472 1.240 . S
O495 Mn469 2.117 . S
O495 C472 1.264 . S
C496 C489 1.403 . S
C496 C497 1.399 . S
C496 H502 0.929 . S
C497 C477 1.449 . S
C497 C496 1.399 . S
C497 H503 0.930 . S
H498 C478 0.931 . S
H499 C479 0.930 . S
H500 C487 0.931 . S
H501 C488 0.929 . S
H502 C496 0.929 . S
H503 C497 0.930 . S
Mn504 O509 2.095 . S
Mn504 O519 2.162 . S
Mn504 O520 2.297 . S
Mn504 O528 2.385 . S
Mn504 O529 2.209 . S
Mn504 O530 2.094 . S
Mn505 O510 2.121 . S
Mn505 N512 2.257 . S
Mn505 N521 2.282 . S
Mn505 O529 2.215 . S
Mn505 O531 2.117 . S
C506 O528 1.234 . S
C506 O529 1.283 . S
C507 O519 1.281 . S
C507 O520 1.236 . S
C508 O530 1.240 . S
C508 O531 1.264 . S
O509 Mn504 2.095 . S
O509 C518 1.250 . S
O510 Mn505 2.121 . S
O510 C518 1.258 . S
C511 N512 1.326 . S
C511 C515 1.460 . S
C511 H517 0.929 . S
N512 Mn505 2.257 . S
N512 C511 1.326 . S
N512 C516 1.362 . S
C513 C514 1.258 . S
C513 C516 1.431 . S
C513 C533 1.449 . S
C514 C513 1.258 . S
C514 C515 1.477 . S
C514 H534 0.931 . S
C515 C511 1.460 . S
C515 C514 1.477 . S
C515 H535 0.930 . S
C516 N512 1.362 . S
C516 C513 1.431 . S
C516 C526 1.476 . S
H517 C511 0.929 . S
C518 O509 1.250 . S
C518 O510 1.258 . S
O519 Mn504 2.162 . S
O519 C507 1.281 . S
O520 Mn504 2.297 . S
O520 C507 1.236 . S
N521 Mn505 2.282 . S
N521 C522 1.328 . S
N521 C526 1.318 . S
C522 N521 1.328 . S
C522 C523 1.457 . S
C522 H527 0.929 . S
C523 C522 1.457 . S
C523 C524 1.291 . S
C523 H536 0.931 . S
C524 C523 1.291 . S
C524 C525 1.373 . S
C524 H537 0.929 . S
C525 C524 1.373 . S
C525 C526 1.396 . S
C525 C532 1.403 . S
C526 C516 1.476 . S
C526 N521 1.318 . S
C526 C525 1.396 . S
H527 C522 0.929 . S
O528 Mn504 2.385 . S
O528 C506 1.234 . S
O529 Mn504 2.209 . S
O529 Mn505 2.215 . S
O529 C506 1.283 . S
O530 Mn504 2.094 . S
O530 C508 1.240 . S
O531 Mn505 2.117 . S
O531 C508 1.264 . S
C532 C525 1.403 . S
C532 C533 1.399 . S
C532 H538 0.929 . S
C533 C513 1.449 . S
C533 C532 1.399 . S
C533 H539 0.930 . S
H534 C514 0.931 . S
H535 C515 0.930 . S
H536 C523 0.931 . S
H537 C524 0.929 . S
H538 C532 0.929 . S
H539 C533 0.930 . S
Mn540 O545 2.095 . S
Mn540 O555 2.162 . S
Mn540 O556 2.297 . S
Mn540 O564 2.385 . S
Mn540 O565 2.209 . S
Mn540 O566 2.094 . S
Mn541 O546 2.121 . S
Mn541 N548 2.257 . S
Mn541 N557 2.282 . S
Mn541 O565 2.215 . S
Mn541 O567 2.117 . S
C542 O564 1.234 . S
C542 O565 1.283 . S
C543 O555 1.281 . S
C543 O556 1.236 . S
C544 O566 1.240 . S
C544 O567 1.264 . S
O545 Mn540 2.095 . S
O545 C554 1.250 . S
O546 Mn541 2.121 . S
O546 C554 1.258 . S
C547 N548 1.326 . S
C547 C551 1.460 . S
C547 H553 0.929 . S
N548 Mn541 2.257 . S
N548 C547 1.326 . S
N548 C552 1.362 . S
C549 C550 1.258 . S
C549 C552 1.431 . S
C549 C569 1.449 . S
C550 C549 1.258 . S
C550 C551 1.477 . S
C550 H570 0.931 . S
C551 C547 1.460 . S
C551 C550 1.477 . S
C551 H571 0.930 . S
C552 N548 1.362 . S
C552 C549 1.431 . S
C552 C562 1.476 . S
H553 C547 0.929 . S
C554 O545 1.250 . S
C554 O546 1.258 . S
O555 Mn540 2.162 . S
O555 C543 1.281 . S
O556 Mn540 2.297 . S
O556 C543 1.236 . S
N557 Mn541 2.282 . S
N557 C558 1.328 . S
N557 C562 1.318 . S
C558 N557 1.328 . S
C558 C559 1.457 . S
C558 H563 0.929 . S
C559 C558 1.457 . S
C559 C560 1.291 . S
C559 H572 0.931 . S
C560 C559 1.291 . S
C560 C561 1.373 . S
C560 H573 0.929 . S
C561 C560 1.373 . S
C561 C562 1.396 . S
C561 C568 1.403 . S
C562 C552 1.476 . S
C562 N557 1.318 . S
C562 C561 1.396 . S
H563 C558 0.929 . S
O564 Mn540 2.385 . S
O564 C542 1.234 . S
O565 Mn540 2.209 . S
O565 Mn541 2.215 . S
O565 C542 1.283 . S
O566 Mn540 2.094 . S
O566 C544 1.240 . S
O567 Mn541 2.117 . S
O567 C544 1.264 . S
C568 C561 1.403 . S
C568 C569 1.399 . S
C568 H574 0.929 . S
C569 C549 1.449 . S
C569 C568 1.399 . S
C569 H575 0.930 . S
H570 C550 0.931 . S
H571 C551 0.930 . S
H572 C559 0.931 . S
H573 C560 0.929 . S
H574 C568 0.929 . S
H575 C569 0.930 . S
Mn576 O581 2.095 1_545 S
Mn576 O591 2.162 . S
Mn576 O592 2.297 . S
Mn576 O600 2.385 . S
Mn576 O601 2.209 . S
Mn576 O602 2.094 . S
Mn577 O582 2.121 1_545 S
Mn577 N584 2.257 . S
Mn577 N593 2.282 . S
Mn577 O601 2.215 . S
Mn577 O603 2.117 . S
C578 O600 1.234 . S
C578 O601 1.283 . S
C579 O591 1.281 . S
C579 O592 1.236 . S
C580 O602 1.240 . S
C580 O603 1.264 . S
O581 Mn576 2.095 1_565 S
O581 C590 1.250 . S
O582 Mn577 2.121 1_565 S
O582 C590 1.258 . S
C583 N584 1.326 1_565 S
C583 C587 1.460 . S
C583 H589 0.929 . S
N584 Mn577 2.257 . S
N584 C583 1.326 1_545 S
N584 C588 1.362 . S
C585 C586 1.258 1_545 S
C585 C588 1.431 . S
C585 C605 1.449 . S
C586 C585 1.258 1_565 S
C586 C587 1.477 . S
C586 H606 0.931 . S
C587 C583 1.460 . S
C587 C586 1.477 . S
C587 H607 0.930 . S
C588 N584 1.362 . S
C588 C585 1.431 . S
C588 C598 1.476 . S
H589 C583 0.929 . S
C590 O581 1.250 . S
C590 O582 1.258 . S
O591 Mn576 2.162 . S
O591 C579 1.281 . S
O592 Mn576 2.297 . S
O592 C579 1.236 . S
N593 Mn577 2.282 . S
N593 C594 1.328 . S
N593 C598 1.318 . S
C594 N593 1.328 . S
C594 C595 1.457 . S
C594 H599 0.929 . S
C595 C594 1.457 . S
C595 C596 1.291 . S
C595 H608 0.931 . S
C596 C595 1.291 . S
C596 C597 1.373 . S
C596 H609 0.929 . S
C597 C596 1.373 . S
C597 C598 1.396 . S
C597 C604 1.403 . S
C598 C588 1.476 . S
C598 N593 1.318 . S
C598 C597 1.396 . S
H599 C594 0.929 . S
O600 Mn576 2.385 . S
O600 C578 1.234 . S
O601 Mn576 2.209 . S
O601 Mn577 2.215 . S
O601 C578 1.283 . S
O602 Mn576 2.094 . S
O602 C580 1.240 . S
O603 Mn577 2.117 . S
O603 C580 1.264 . S
C604 C597 1.403 . S
C604 C605 1.399 . S
C604 H610 0.929 . S
C605 C585 1.449 . S
C605 C604 1.399 . S
C605 H611 0.930 . S
H606 C586 0.931 . S
H607 C587 0.930 . S
H608 C595 0.931 . S
H609 C596 0.929 . S
H610 C604 0.929 . S
H611 C605 0.930 . S
Mn612 O617 2.095 . S
Mn612 O627 2.162 1_655 S
Mn612 O628 2.297 1_655 S
Mn612 O636 2.385 . S
Mn612 O637 2.209 . S
Mn612 O638 2.094 . S
Mn613 O618 2.121 . S
Mn613 N620 2.257 . S
Mn613 N629 2.282 . S
Mn613 O637 2.215 . S
Mn613 O639 2.117 . S
C614 O636 1.234 . S
C614 O637 1.283 . S
C615 O627 1.281 . S
C615 O628 1.236 . S
C616 O638 1.240 . S
C616 O639 1.264 . S
O617 Mn612 2.095 . S
O617 C626 1.250 . S
O618 Mn613 2.121 . S
O618 C626 1.258 . S
C619 N620 1.326 . S
C619 C623 1.460 . S
C619 H625 0.929 . S
N620 Mn613 2.257 . S
N620 C619 1.326 . S
N620 C624 1.362 . S
C621 C622 1.258 . S
C621 C624 1.431 . S
C621 C641 1.449 . S
C622 C621 1.258 . S
C622 C623 1.477 . S
C622 H642 0.931 . S
C623 C619 1.460 . S
C623 C622 1.477 . S
C623 H643 0.930 . S
C624 N620 1.362 . S
C624 C621 1.431 . S
C624 C634 1.476 . S
H625 C619 0.929 . S
C626 O617 1.250 . S
C626 O618 1.258 . S
O627 Mn612 2.162 1_455 S
O627 C615 1.281 . S
O628 Mn612 2.297 1_455 S
O628 C615 1.236 . S
N629 Mn613 2.282 . S
N629 C630 1.328 . S
N629 C634 1.318 . S
C630 N629 1.328 . S
C630 C631 1.457 . S
C630 H635 0.929 . S
C631 C630 1.457 . S
C631 C632 1.291 . S
C631 H644 0.931 . S
C632 C631 1.291 . S
C632 C633 1.373 . S
C632 H645 0.929 . S
C633 C632 1.373 . S
C633 C634 1.396 . S
C633 C640 1.403 . S
C634 C624 1.476 . S
C634 N629 1.318 . S
C634 C633 1.396 . S
H635 C630 0.929 . S
O636 Mn612 2.385 . S
O636 C614 1.234 . S
O637 Mn612 2.209 . S
O637 Mn613 2.215 . S
O637 C614 1.283 . S
O638 Mn612 2.094 . S
O638 C616 1.240 . S
O639 Mn613 2.117 . S
O639 C616 1.264 . S
C640 C633 1.403 . S
C640 C641 1.399 . S
C640 H646 0.929 . S
C641 C621 1.449 . S
C641 C640 1.399 . S
C641 H647 0.930 . S
H642 C622 0.931 . S
H643 C623 0.930 . S
H644 C631 0.931 . S
H645 C632 0.929 . S
H646 C640 0.929 . S
H647 C641 0.930 . S
H648 C667 0.949 . S
H649 C668 0.950 . S
H650 C670 0.950 . S
H651 C671 0.950 . S
H652 C673 0.950 . S
H653 C676 0.950 . S
H654 C677 0.950 . S
H655 C679 0.951 . S
H656 C680 0.949 . S
H657 C682 0.949 . S
H658 C683 0.950 . S
H659 C685 0.950 . S
H660 C686 0.950 . S
H661 C688 0.950 . S
H662 C691 0.950 . S
H663 C692 0.950 . S
H664 C694 0.951 . S
H665 C695 0.949 . S
C666 C667 1.376 . S
C666 C671 1.386 . S
C666 C672 1.483 . S
C667 H648 0.949 . S
C667 C666 1.376 . S
C667 C668 1.397 . S
C668 H649 0.950 . S
C668 C667 1.397 . S
C668 C669 1.391 . S
C669 C668 1.391 . S
C669 C670 1.405 . S
C670 H650 0.950 . S
C670 C669 1.405 . S
C670 C671 1.367 . S
C671 H651 0.950 . S
C671 C666 1.386 . S
C671 C670 1.367 . S
C672 C666 1.483 . S
C672 C673 1.382 . S
C672 C674 1.403 . S
C673 H652 0.950 . S
C673 C672 1.382 . S
C673 C689 1.411 . S
C674 C672 1.403 . S
C674 C675 1.489 . S
C674 C688 1.411 . S
C675 C674 1.489 . S
C675 C676 1.383 . S
C675 C680 1.382 . S
C676 H653 0.950 . S
C676 C675 1.383 . S
C676 C677 1.395 . S
C677 H654 0.950 . S
C677 C676 1.395 . S
C677 C678 1.288 . S
C678 C677 1.288 . S
C678 C679 1.392 . S
C679 H655 0.951 . S
C679 C678 1.392 . S
C679 C680 1.392 . S
C680 H656 0.949 . S
C680 C675 1.382 . S
C680 C679 1.392 . S
C681 C682 1.376 . S
C681 C686 1.386 . S
C681 C687 1.483 . S
C682 H657 0.949 . S
C682 C681 1.376 . S
C682 C683 1.397 . S
C683 H658 0.950 . S
C683 C682 1.397 . S
C683 C684 1.391 . S
C684 C683 1.391 . S
C684 C685 1.405 . S
C685 H659 0.950 . S
C685 C684 1.405 . S
C685 C686 1.367 . S
C686 H660 0.950 . S
C686 C681 1.386 . S
C686 C685 1.367 . S
C687 C681 1.483 . S
C687 C688 1.382 . S
C687 C689 1.403 . S
C688 H661 0.950 . S
C688 C674 1.411 . S
C688 C687 1.382 . S
C689 C673 1.411 . S
C689 C687 1.403 . S
C689 C690 1.489 . S
C690 C689 1.489 . S
C690 C691 1.383 . S
C690 C695 1.382 . S
C691 H662 0.950 . S
C691 C690 1.383 . S
C691 C692 1.395 . S
C692 H663 0.950 . S
C692 C691 1.395 . S
C692 C693 1.288 . S
C693 C692 1.288 . S
C693 C694 1.392 . S
C694 H664 0.951 . S
C694 C693 1.392 . S
C694 C695 1.392 . S
C695 H665 0.949 . S
C695 C690 1.382 . S
C695 C694 1.392 . S
H696 C715 0.949 . S
H697 C716 0.950 . S
H698 C718 0.950 . S
H699 C719 0.950 . S
H700 C721 0.950 . S
H701 C724 0.950 . S
H702 C725 0.950 . S
H703 C727 0.951 . S
H704 C728 0.949 . S
H705 C730 0.949 . S
H706 C731 0.950 . S
H707 C733 0.950 . S
H708 C734 0.950 . S
H709 C736 0.950 . S
H710 C739 0.950 . S
H711 C740 0.950 . S
H712 C742 0.951 . S
H713 C743 0.949 . S
C714 C715 1.376 . S
C714 C719 1.386 . S
C714 C720 1.483 . S
C715 H696 0.949 . S
C715 C714 1.376 . S
C715 C716 1.397 . S
C716 H697 0.950 . S
C716 C715 1.397 . S
C716 C717 1.391 . S
C717 C716 1.391 . S
C717 C718 1.405 . S
C718 H698 0.950 . S
C718 C717 1.405 . S
C718 C719 1.367 . S
C719 H699 0.950 . S
C719 C714 1.386 . S
C719 C718 1.367 . S
C720 C714 1.483 . S
C720 C721 1.382 . S
C720 C722 1.403 . S
C721 H700 0.950 . S
C721 C720 1.382 . S
C721 C737 1.411 . S
C722 C720 1.403 . S
C722 C723 1.489 . S
C722 C736 1.411 . S
C723 C722 1.489 . S
C723 C724 1.383 . S
C723 C728 1.382 . S
C724 H701 0.950 . S
C724 C723 1.383 . S
C724 C725 1.395 . S
C725 H702 0.950 . S
C725 C724 1.395 . S
C725 C726 1.288 . S
C726 C725 1.288 . S
C726 C727 1.392 . S
C727 H703 0.951 . S
C727 C726 1.392 . S
C727 C728 1.392 . S
C728 H704 0.949 . S
C728 C723 1.382 . S
C728 C727 1.392 . S
C729 C730 1.376 . S
C729 C734 1.386 . S
C729 C735 1.483 . S
C730 H705 0.949 . S
C730 C729 1.376 . S
C730 C731 1.397 . S
C731 H706 0.950 . S
C731 C730 1.397 . S
C731 C732 1.391 . S
C732 C731 1.391 . S
C732 C733 1.405 . S
C733 H707 0.950 . S
C733 C732 1.405 . S
C733 C734 1.367 . S
C734 H708 0.950 . S
C734 C729 1.386 . S
C734 C733 1.367 . S
C735 C729 1.483 . S
C735 C736 1.382 . S
C735 C737 1.403 . S
C736 H709 0.950 . S
C736 C722 1.411 . S
C736 C735 1.382 . S
C737 C721 1.411 . S
C737 C735 1.403 . S
C737 C738 1.489 . S
C738 C737 1.489 . S
C738 C739 1.383 . S
C738 C743 1.382 . S
C739 H710 0.950 . S
C739 C738 1.383 . S
C739 C740 1.395 . S
C740 H711 0.950 . S
C740 C739 1.395 . S
C740 C741 1.288 . S
C741 C740 1.288 . S
C741 C742 1.392 . S
C742 H712 0.951 . S
C742 C741 1.392 . S
C742 C743 1.392 . S
C743 H713 0.949 . S
C743 C738 1.382 . S
C743 C742 1.392 . S
H744 C763 0.949 . S
H745 C764 0.950 . S
H746 C766 0.950 . S
H747 C767 0.950 . S
H748 C769 0.950 . S
H749 C772 0.950 . S
H750 C773 0.950 . S
H751 C775 0.951 . S
H752 C776 0.949 . S
H753 C778 0.949 . S
H754 C779 0.950 . S
H755 C781 0.950 . S
H756 C782 0.950 . S
H757 C784 0.950 . S
H758 C787 0.950 . S
H759 C788 0.950 . S
H760 C790 0.951 . S
H761 C791 0.949 . S
C762 C763 1.376 . S
C762 C767 1.386 . S
C762 C768 1.483 . S
C763 H744 0.949 . S
C763 C762 1.376 . S
C763 C764 1.397 . S
C764 H745 0.950 . S
C764 C763 1.397 . S
C764 C765 1.391 . S
C765 C764 1.391 . S
C765 C766 1.405 . S
C766 H746 0.950 . S
C766 C765 1.405 . S
C766 C767 1.367 . S
C767 H747 0.950 . S
C767 C762 1.386 . S
C767 C766 1.367 . S
C768 C762 1.483 . S
C768 C769 1.382 . S
C768 C770 1.403 . S
C769 H748 0.950 . S
C769 C768 1.382 . S
C769 C785 1.411 . S
C770 C768 1.403 . S
C770 C771 1.489 . S
C770 C784 1.411 . S
C771 C770 1.489 . S
C771 C772 1.383 . S
C771 C776 1.382 . S
C772 H749 0.950 . S
C772 C771 1.383 . S
C772 C773 1.395 . S
C773 H750 0.950 . S
C773 C772 1.395 . S
C773 C774 1.288 . S
C774 C773 1.288 . S
C774 C775 1.392 . S
C775 H751 0.951 . S
C775 C774 1.392 . S
C775 C776 1.392 . S
C776 H752 0.949 . S
C776 C771 1.382 . S
C776 C775 1.392 . S
C777 C778 1.376 . S
C777 C782 1.386 . S
C777 C783 1.483 . S
C778 H753 0.949 . S
C778 C777 1.376 . S
C778 C779 1.397 . S
C779 H754 0.950 . S
C779 C778 1.397 . S
C779 C780 1.391 . S
C780 C779 1.391 . S
C780 C781 1.405 . S
C781 H755 0.950 . S
C781 C780 1.405 . S
C781 C782 1.367 . S
C782 H756 0.950 . S
C782 C777 1.386 . S
C782 C781 1.367 . S
C783 C777 1.483 . S
C783 C784 1.382 . S
C783 C785 1.403 . S
C784 H757 0.950 . S
C784 C770 1.411 . S
C784 C783 1.382 . S
C785 C769 1.411 . S
C785 C783 1.403 . S
C785 C786 1.489 . S
C786 C785 1.489 . S
C786 C787 1.383 . S
C786 C791 1.382 . S
C787 H758 0.950 . S
C787 C786 1.383 . S
C787 C788 1.395 . S
C788 H759 0.950 . S
C788 C787 1.395 . S
C788 C789 1.288 . S
C789 C788 1.288 . S
C789 C790 1.392 . S
C790 H760 0.951 . S
C790 C789 1.392 . S
C790 C791 1.392 . S
C791 H761 0.949 . S
C791 C786 1.382 . S
C791 C790 1.392 . S
H792 C811 0.949 . S
H793 C812 0.950 . S
H794 C814 0.950 . S
H795 C815 0.950 . S
H796 C817 0.950 . S
H797 C820 0.950 . S
H798 C821 0.950 . S
H799 C823 0.951 . S
H800 C824 0.949 . S
H801 C826 0.949 . S
H802 C827 0.950 . S
H803 C829 0.950 . S
H804 C830 0.950 . S
H805 C832 0.950 . S
H806 C835 0.950 . S
H807 C836 0.950 . S
H808 C838 0.951 . S
H809 C839 0.949 . S
C810 C811 1.376 . S
C810 C815 1.386 . S
C810 C816 1.483 . S
C811 H792 0.949 . S
C811 C810 1.376 . S
C811 C812 1.397 . S
C812 H793 0.950 . S
C812 C811 1.397 . S
C812 C813 1.391 . S
C813 C812 1.391 . S
C813 C814 1.405 . S
C814 H794 0.950 . S
C814 C813 1.405 . S
C814 C815 1.367 . S
C815 H795 0.950 . S
C815 C810 1.386 . S
C815 C814 1.367 . S
C816 C810 1.483 . S
C816 C817 1.382 . S
C816 C818 1.403 . S
C817 H796 0.950 . S
C817 C816 1.382 . S
C817 C833 1.411 . S
C818 C816 1.403 . S
C818 C819 1.489 . S
C818 C832 1.411 . S
C819 C818 1.489 . S
C819 C820 1.383 . S
C819 C824 1.382 . S
C820 H797 0.950 . S
C820 C819 1.383 . S
C820 C821 1.395 . S
C821 H798 0.950 . S
C821 C820 1.395 . S
C821 C822 1.288 . S
C822 C821 1.288 . S
C822 C823 1.392 . S
C823 H799 0.951 . S
C823 C822 1.392 . S
C823 C824 1.392 . S
C824 H800 0.949 . S
C824 C819 1.382 . S
C824 C823 1.392 . S
C825 C826 1.376 . S
C825 C830 1.386 . S
C825 C831 1.483 . S
C826 H801 0.949 . S
C826 C825 1.376 . S
C826 C827 1.397 . S
C827 H802 0.950 . S
C827 C826 1.397 . S
C827 C828 1.391 . S
C828 C827 1.391 . S
C828 C829 1.405 . S
C829 H803 0.950 . S
C829 C828 1.405 . S
C829 C830 1.367 . S
C830 H804 0.950 . S
C830 C825 1.386 . S
C830 C829 1.367 . S
C831 C825 1.483 . S
C831 C832 1.382 . S
C831 C833 1.403 . S
C832 H805 0.950 . S
C832 C818 1.411 . S
C832 C831 1.382 . S
C833 C817 1.411 . S
C833 C831 1.403 . S
C833 C834 1.489 . S
C834 C833 1.489 . S
C834 C835 1.383 . S
C834 C839 1.382 . S
C835 H806 0.950 . S
C835 C834 1.383 . S
C835 C836 1.395 . S
C836 H807 0.950 . S
C836 C835 1.395 . S
C836 C837 1.288 . S
C837 C836 1.288 . S
C837 C838 1.392 . S
C838 H808 0.951 . S
C838 C837 1.392 . S
C838 C839 1.392 . S
C839 H809 0.949 . S
C839 C834 1.382 . S
C839 C838 1.392 . S
H840 C859 0.949 . S
H841 C860 0.950 . S
H842 C862 0.950 . S
H843 C863 0.950 . S
H844 C865 0.950 . S
H845 C868 0.950 . S
H846 C869 0.950 . S
H847 C871 0.951 . S
H848 C872 0.949 . S
H849 C874 0.949 . S
H850 C875 0.950 . S
H851 C877 0.950 . S
H852 C878 0.950 . S
H853 C880 0.950 . S
H854 C883 0.950 . S
H855 C884 0.950 . S
H856 C886 0.951 . S
H857 C887 0.949 . S
C858 C859 1.376 . S
C858 C863 1.386 . S
C858 C864 1.483 . S
C859 H840 0.949 . S
C859 C858 1.376 . S
C859 C860 1.397 . S
C860 H841 0.950 . S
C860 C859 1.397 . S
C860 C861 1.391 . S
C861 C860 1.391 . S
C861 C862 1.405 . S
C862 H842 0.950 . S
C862 C861 1.405 . S
C862 C863 1.367 . S
C863 H843 0.950 . S
C863 C858 1.386 . S
C863 C862 1.367 . S
C864 C858 1.483 . S
C864 C865 1.382 . S
C864 C866 1.403 . S
C865 H844 0.950 . S
C865 C864 1.382 . S
C865 C881 1.411 . S
C866 C864 1.403 . S
C866 C867 1.489 . S
C866 C880 1.411 . S
C867 C866 1.489 . S
C867 C868 1.383 . S
C867 C872 1.382 . S
C868 H845 0.950 . S
C868 C867 1.383 . S
C868 C869 1.395 . S
C869 H846 0.950 . S
C869 C868 1.395 . S
C869 C870 1.288 . S
C870 C869 1.288 . S
C870 C871 1.392 . S
C871 H847 0.951 . S
C871 C870 1.392 . S
C871 C872 1.392 . S
C872 H848 0.949 . S
C872 C867 1.382 . S
C872 C871 1.392 . S
C873 C874 1.376 . S
C873 C878 1.386 . S
C873 C879 1.483 . S
C874 H849 0.949 . S
C874 C873 1.376 . S
C874 C875 1.397 . S
C875 H850 0.950 . S
C875 C874 1.397 . S
C875 C876 1.391 . S
C876 C875 1.391 . S
C876 C877 1.405 . S
C877 H851 0.950 . S
C877 C876 1.405 . S
C877 C878 1.367 . S
C878 H852 0.950 . S
C878 C873 1.386 . S
C878 C877 1.367 . S
C879 C873 1.483 . S
C879 C880 1.382 . S
C879 C881 1.403 . S
C880 H853 0.950 . S
C880 C866 1.411 . S
C880 C879 1.382 . S
C881 C865 1.411 . S
C881 C879 1.403 . S
C881 C882 1.489 . S
C882 C881 1.489 . S
C882 C883 1.383 . S
C882 C887 1.382 . S
C883 H854 0.950 . S
C883 C882 1.383 . S
C883 C884 1.395 . S
C884 H855 0.950 . S
C884 C883 1.395 . S
C884 C885 1.288 . S
C885 C884 1.288 . S
C885 C886 1.392 . S
C886 H856 0.951 . S
C886 C885 1.392 . S
C886 C887 1.392 . S
C887 H857 0.949 . S
C887 C882 1.382 . S
C887 C886 1.392 . S
H888 C907 0.949 . S
H889 C908 0.950 . S
H890 C910 0.950 . S
H891 C911 0.950 . S
H892 C913 0.950 . S
H893 C916 0.950 . S
H894 C917 0.950 . S
H895 C919 0.951 . S
H896 C920 0.949 . S
H897 C922 0.949 . S
H898 C923 0.950 . S
H899 C925 0.950 . S
H900 C926 0.950 . S
H901 C928 0.950 . S
H902 C931 0.950 . S
H903 C932 0.950 . S
H904 C934 0.951 . S
H905 C935 0.949 . S
C906 C907 1.376 . S
C906 C911 1.386 . S
C906 C912 1.483 . S
C907 H888 0.949 . S
C907 C906 1.376 . S
C907 C908 1.397 . S
C908 H889 0.950 . S
C908 C907 1.397 . S
C908 C909 1.391 . S
C909 C908 1.391 . S
C909 C910 1.405 . S
C910 H890 0.950 . S
C910 C909 1.405 . S
C910 C911 1.367 . S
C911 H891 0.950 . S
C911 C906 1.386 . S
C911 C910 1.367 . S
C912 C906 1.483 . S
C912 C913 1.382 . S
C912 C914 1.403 . S
C913 H892 0.950 . S
C913 C912 1.382 . S
C913 C929 1.411 . S
C914 C912 1.403 . S
C914 C915 1.489 . S
C914 C928 1.411 . S
C915 C914 1.489 . S
C915 C916 1.383 . S
C915 C920 1.382 . S
C916 H893 0.950 . S
C916 C915 1.383 . S
C916 C917 1.395 . S
C917 H894 0.950 . S
C917 C916 1.395 . S
C917 C918 1.288 . S
C918 C917 1.288 . S
C918 C919 1.392 . S
C919 H895 0.951 . S
C919 C918 1.392 . S
C919 C920 1.392 . S
C920 H896 0.949 . S
C920 C915 1.382 . S
C920 C919 1.392 . S
C921 C922 1.376 . S
C921 C926 1.386 . S
C921 C927 1.483 . S
C922 H897 0.949 . S
C922 C921 1.376 . S
C922 C923 1.397 . S
C923 H898 0.950 . S
C923 C922 1.397 . S
C923 C924 1.391 . S
C924 C923 1.391 . S
C924 C925 1.405 . S
C925 H899 0.950 . S
C925 C924 1.405 . S
C925 C926 1.367 . S
C926 H900 0.950 . S
C926 C921 1.386 . S
C926 C925 1.367 . S
C927 C921 1.483 . S
C927 C928 1.382 . S
C927 C929 1.403 . S
C928 H901 0.950 . S
C928 C914 1.411 . S
C928 C927 1.382 . S
C929 C913 1.411 . S
C929 C927 1.403 . S
C929 C930 1.489 . S
C930 C929 1.489 . S
C930 C931 1.383 . S
C930 C935 1.382 . S
C931 H902 0.950 . S
C931 C930 1.383 . S
C931 C932 1.395 . S
C932 H903 0.950 . S
C932 C931 1.395 . S
C932 C933 1.288 . S
C933 C932 1.288 . S
C933 C934 1.392 . S
C934 H904 0.951 . S
C934 C933 1.392 . S
C934 C935 1.392 . S
C935 H905 0.949 . S
C935 C930 1.382 . S
C935 C934 1.392 . S
H936 C955 0.949 . S
H937 C956 0.950 . S
H938 C958 0.950 . S
H939 C959 0.950 . S
H940 C961 0.950 . S
H941 C964 0.950 . S
H942 C965 0.950 . S
H943 C967 0.951 . S
H944 C968 0.949 . S
H945 C970 0.949 . S
H946 C971 0.950 . S
H947 C973 0.950 . S
H948 C974 0.950 . S
H949 C976 0.950 . S
H950 C979 0.950 . S
H951 C980 0.950 . S
H952 C982 0.951 . S
H953 C983 0.949 . S
C954 C955 1.376 . S
C954 C959 1.386 . S
C954 C960 1.483 . S
C955 H936 0.949 . S
C955 C954 1.376 . S
C955 C956 1.397 . S
C956 H937 0.950 . S
C956 C955 1.397 . S
C956 C957 1.391 . S
C957 C956 1.391 . S
C957 C958 1.405 . S
C958 H938 0.950 . S
C958 C957 1.405 . S
C958 C959 1.367 . S
C959 H939 0.950 . S
C959 C954 1.386 . S
C959 C958 1.367 . S
C960 C954 1.483 . S
C960 C961 1.382 . S
C960 C962 1.403 . S
C961 H940 0.950 . S
C961 C960 1.382 . S
C961 C977 1.411 . S
C962 C960 1.403 . S
C962 C963 1.489 . S
C962 C976 1.411 . S
C963 C962 1.489 . S
C963 C964 1.383 . S
C963 C968 1.382 . S
C964 H941 0.950 . S
C964 C963 1.383 . S
C964 C965 1.395 . S
C965 H942 0.950 . S
C965 C964 1.395 . S
C965 C966 1.288 . S
C966 C965 1.288 . S
C966 C967 1.392 . S
C967 H943 0.951 . S
C967 C966 1.392 . S
C967 C968 1.392 . S
C968 H944 0.949 . S
C968 C963 1.382 . S
C968 C967 1.392 . S
C969 C970 1.376 . S
C969 C974 1.386 . S
C969 C975 1.483 . S
C970 H945 0.949 . S
C970 C969 1.376 . S
C970 C971 1.397 . S
C971 H946 0.950 . S
C971 C970 1.397 . S
C971 C972 1.391 . S
C972 C971 1.391 . S
C972 C973 1.405 . S
C973 H947 0.950 . S
C973 C972 1.405 . S
C973 C974 1.367 . S
C974 H948 0.950 . S
C974 C969 1.386 . S
C974 C973 1.367 . S
C975 C969 1.483 . S
C975 C976 1.382 . S
C975 C977 1.403 . S
C976 H949 0.950 . S
C976 C962 1.411 . S
C976 C975 1.382 . S
C977 C961 1.411 . S
C977 C975 1.403 . S
C977 C978 1.489 . S
C978 C977 1.489 . S
C978 C979 1.383 . S
C978 C983 1.382 . S
C979 H950 0.950 . S
C979 C978 1.383 . S
C979 C980 1.395 . S
C980 H951 0.950 . S
C980 C979 1.395 . S
C980 C981 1.288 . S
C981 C980 1.288 . S
C981 C982 1.392 . S
C982 H952 0.951 . S
C982 C981 1.392 . S
C982 C983 1.392 . S
C983 H953 0.949 . S
C983 C978 1.382 . S
C983 C982 1.392 . S
H984 C1003 0.949 . S
H985 C1004 0.950 . S
H986 C1006 0.950 . S
H987 C1007 0.950 . S
H988 C1009 0.950 . S
H989 C1012 0.950 . S
H990 C1013 0.950 . S
H991 C1015 0.951 . S
H992 C1016 0.949 . S
H993 C1018 0.949 . S
H994 C1019 0.950 . S
H995 C1021 0.950 . S
H996 C1022 0.950 . S
H997 C1024 0.950 . S
H998 C1027 0.950 . S
H999 C1028 0.950 . S
H1000 C1030 0.951 . S
H1001 C1031 0.949 . S
C1002 C1003 1.376 . S
C1002 C1007 1.386 . S
C1002 C1008 1.483 . S
C1003 H984 0.949 . S
C1003 C1002 1.376 . S
C1003 C1004 1.397 . S
C1004 H985 0.950 . S
C1004 C1003 1.397 . S
C1004 C1005 1.391 . S
C1005 C1004 1.391 . S
C1005 C1006 1.405 . S
C1006 H986 0.950 . S
C1006 C1005 1.405 . S
C1006 C1007 1.367 . S
C1007 H987 0.950 . S
C1007 C1002 1.386 . S
C1007 C1006 1.367 . S
C1008 C1002 1.483 . S
C1008 C1009 1.382 . S
C1008 C1010 1.403 . S
C1009 H988 0.950 . S
C1009 C1008 1.382 . S
C1009 C1025 1.411 . S
C1010 C1008 1.403 . S
C1010 C1011 1.489 . S
C1010 C1024 1.411 . S
C1011 C1010 1.489 . S
C1011 C1012 1.383 . S
C1011 C1016 1.382 . S
C1012 H989 0.950 . S
C1012 C1011 1.383 . S
C1012 C1013 1.395 . S
C1013 H990 0.950 . S
C1013 C1012 1.395 . S
C1013 C1014 1.288 . S
C1014 C1013 1.288 . S
C1014 C1015 1.392 . S
C1015 H991 0.951 . S
C1015 C1014 1.392 . S
C1015 C1016 1.392 . S
C1016 H992 0.949 . S
C1016 C1011 1.382 . S
C1016 C1015 1.392 . S
C1017 C1018 1.376 . S
C1017 C1022 1.386 . S
C1017 C1023 1.483 . S
C1018 H993 0.949 . S
C1018 C1017 1.376 . S
C1018 C1019 1.397 . S
C1019 H994 0.950 . S
C1019 C1018 1.397 . S
C1019 C1020 1.391 . S
C1020 C1019 1.391 . S
C1020 C1021 1.405 . S
C1021 H995 0.950 . S
C1021 C1020 1.405 . S
C1021 C1022 1.367 . S
C1022 H996 0.950 . S
C1022 C1017 1.386 . S
C1022 C1021 1.367 . S
C1023 C1017 1.483 . S
C1023 C1024 1.382 . S
C1023 C1025 1.403 . S
C1024 H997 0.950 . S
C1024 C1010 1.411 . S
C1024 C1023 1.382 . S
C1025 C1009 1.411 . S
C1025 C1023 1.403 . S
C1025 C1026 1.489 . S
C1026 C1025 1.489 . S
C1026 C1027 1.383 . S
C1026 C1031 1.382 . S
C1027 H998 0.950 . S
C1027 C1026 1.383 . S
C1027 C1028 1.395 . S
C1028 H999 0.950 . S
C1028 C1027 1.395 . S
C1028 C1029 1.288 . S
C1029 C1028 1.288 . S
C1029 C1030 1.392 . S
C1030 H1000 0.951 . S
C1030 C1029 1.392 . S
C1030 C1031 1.392 . S
C1031 H1001 0.949 . S
C1031 C1026 1.382 . S
C1031 C1030 1.392 . S
H1032 C1051 0.949 . S
H1033 C1052 0.950 . S
H1034 C1054 0.950 . S
H1035 C1055 0.950 . S
H1036 C1057 0.950 . S
H1037 C1060 0.950 . S
H1038 C1061 0.950 . S
H1039 C1063 0.951 . S
H1040 C1064 0.949 . S
H1041 C1066 0.949 . S
H1042 C1067 0.950 . S
H1043 C1069 0.950 . S
H1044 C1070 0.950 . S
H1045 C1072 0.950 . S
H1046 C1075 0.950 . S
H1047 C1076 0.950 . S
H1048 C1078 0.951 . S
H1049 C1079 0.949 . S
C1050 C1051 1.376 . S
C1050 C1055 1.386 . S
C1050 C1056 1.483 . S
C1051 H1032 0.949 . S
C1051 C1050 1.376 . S
C1051 C1052 1.397 . S
C1052 H1033 0.950 . S
C1052 C1051 1.397 . S
C1052 C1053 1.391 . S
C1053 C1052 1.391 . S
C1053 C1054 1.405 . S
C1054 H1034 0.950 . S
C1054 C1053 1.405 . S
C1054 C1055 1.367 . S
C1055 H1035 0.950 . S
C1055 C1050 1.386 . S
C1055 C1054 1.367 . S
C1056 C1050 1.483 . S
C1056 C1057 1.382 . S
C1056 C1058 1.403 . S
C1057 H1036 0.950 . S
C1057 C1056 1.382 . S
C1057 C1073 1.411 . S
C1058 C1056 1.403 . S
C1058 C1059 1.489 . S
C1058 C1072 1.411 . S
C1059 C1058 1.489 . S
C1059 C1060 1.383 . S
C1059 C1064 1.382 . S
C1060 H1037 0.950 . S
C1060 C1059 1.383 . S
C1060 C1061 1.395 . S
C1061 H1038 0.950 . S
C1061 C1060 1.395 . S
C1061 C1062 1.288 . S
C1062 C1061 1.288 . S
C1062 C1063 1.392 . S
C1063 H1039 0.951 . S
C1063 C1062 1.392 . S
C1063 C1064 1.392 . S
C1064 H1040 0.949 . S
C1064 C1059 1.382 . S
C1064 C1063 1.392 . S
C1065 C1066 1.376 . S
C1065 C1070 1.386 . S
C1065 C1071 1.483 . S
C1066 H1041 0.949 . S
C1066 C1065 1.376 . S
C1066 C1067 1.397 . S
C1067 H1042 0.950 . S
C1067 C1066 1.397 . S
C1067 C1068 1.391 . S
C1068 C1067 1.391 . S
C1068 C1069 1.405 . S
C1069 H1043 0.950 . S
C1069 C1068 1.405 . S
C1069 C1070 1.367 . S
C1070 H1044 0.950 . S
C1070 C1065 1.386 . S
C1070 C1069 1.367 . S
C1071 C1065 1.483 . S
C1071 C1072 1.382 . S
C1071 C1073 1.403 . S
C1072 H1045 0.950 . S
C1072 C1058 1.411 . S
C1072 C1071 1.382 . S
C1073 C1057 1.411 . S
C1073 C1071 1.403 . S
C1073 C1074 1.489 . S
C1074 C1073 1.489 . S
C1074 C1075 1.383 . S
C1074 C1079 1.382 . S
C1075 H1046 0.950 . S
C1075 C1074 1.383 . S
C1075 C1076 1.395 . S
C1076 H1047 0.950 . S
C1076 C1075 1.395 . S
C1076 C1077 1.288 . S
C1077 C1076 1.288 . S
C1077 C1078 1.392 . S
C1078 H1048 0.951 . S
C1078 C1077 1.392 . S
C1078 C1079 1.392 . S
C1079 H1049 0.949 . S
C1079 C1074 1.382 . S
C1079 C1078 1.392 . S
H1080 C1099 0.949 . S
H1081 C1100 0.950 . S
H1082 C1102 0.950 . S
H1083 C1103 0.950 . S
H1084 C1105 0.950 . S
H1085 C1108 0.950 . S
H1086 C1109 0.950 . S
H1087 C1111 0.951 . S
H1088 C1112 0.949 . S
H1089 C1114 0.949 . S
H1090 C1115 0.950 . S
H1091 C1117 0.950 . S
H1092 C1118 0.950 . S
H1093 C1120 0.950 . S
H1094 C1123 0.950 . S
H1095 C1124 0.950 . S
H1096 C1126 0.951 . S
H1097 C1127 0.949 . S
C1098 C1099 1.376 . S
C1098 C1103 1.386 1_655 S
C1098 C1104 1.483 . S
C1099 H1080 0.949 . S
C1099 C1098 1.376 . S
C1099 C1100 1.397 . S
C1100 H1081 0.950 . S
C1100 C1099 1.397 . S
C1100 C1101 1.391 . S
C1101 C1100 1.391 . S
C1101 C1102 1.405 1_655 S
C1102 H1082 0.950 . S
C1102 C1101 1.405 1_455 S
C1102 C1103 1.367 . S
C1103 H1083 0.950 . S
C1103 C1098 1.386 1_455 S
C1103 C1102 1.367 . S
C1104 C1098 1.483 . S
C1104 C1105 1.382 . S
C1104 C1106 1.403 1_655 S
C1105 H1084 0.950 . S
C1105 C1104 1.382 . S
C1105 C1121 1.411 . S
C1106 C1104 1.403 1_455 S
C1106 C1107 1.489 . S
C1106 C1120 1.411 . S
C1107 C1106 1.489 . S
C1107 C1108 1.383 1_455 S
C1107 C1112 1.382 . S
C1108 H1085 0.950 . S
C1108 C1107 1.383 1_655 S
C1108 C1109 1.395 . S
C1109 H1086 0.950 . S
C1109 C1108 1.395 . S
C1109 C1110 1.288 1_655 S
C1110 C1109 1.288 1_455 S
C1110 C1111 1.392 . S
C1111 H1087 0.951 . S
C1111 C1110 1.392 . S
C1111 C1112 1.392 . S
C1112 H1088 0.949 . S
C1112 C1107 1.382 . S
C1112 C1111 1.392 . S
C1113 C1114 1.376 . S
C1113 C1118 1.386 1_455 S
C1113 C1119 1.483 . S
C1114 H1089 0.949 . S
C1114 C1113 1.376 . S
C1114 C1115 1.397 . S
C1115 H1090 0.950 . S
C1115 C1114 1.397 . S
C1115 C1116 1.391 . S
C1116 C1115 1.391 . S
C1116 C1117 1.405 1_455 S
C1117 H1091 0.950 . S
C1117 C1116 1.405 1_655 S
C1117 C1118 1.367 . S
C1118 H1092 0.950 . S
C1118 C1113 1.386 1_655 S
C1118 C1117 1.367 . S
C1119 C1113 1.483 . S
C1119 C1120 1.382 . S
C1119 C1121 1.403 1_455 S
C1120 H1093 0.950 . S
C1120 C1106 1.411 . S
C1120 C1119 1.382 . S
C1121 C1105 1.411 . S
C1121 C1119 1.403 1_655 S
C1121 C1122 1.489 . S
C1122 C1121 1.489 . S
C1122 C1123 1.383 1_655 S
C1122 C1127 1.382 . S
C1123 H1094 0.950 . S
C1123 C1122 1.383 1_455 S
C1123 C1124 1.395 . S
C1124 H1095 0.950 . S
C1124 C1123 1.395 . S
C1124 C1125 1.288 1_455 S
C1125 C1124 1.288 1_655 S
C1125 C1126 1.392 . S
C1126 H1096 0.951 . S
C1126 C1125 1.392 . S
C1126 C1127 1.392 . S
C1127 H1097 0.949 . S
C1127 C1122 1.382 . S
C1127 C1126 1.392 . S
H1128 C1147 0.949 . S
H1129 C1148 0.950 . S
H1130 C1150 0.950 . S
H1131 C1151 0.950 . S
H1132 C1153 0.950 . S
H1133 C1156 0.950 . S
H1134 C1157 0.950 . S
H1135 C1159 0.951 . S
H1136 C1160 0.949 . S
H1137 C1162 0.949 . S
H1138 C1163 0.950 . S
H1139 C1165 0.950 . S
H1140 C1166 0.950 . S
H1141 C1168 0.950 . S
H1142 C1171 0.950 . S
H1143 C1172 0.950 . S
H1144 C1174 0.951 . S
H1145 C1175 0.949 . S
C1146 C1147 1.376 . S
C1146 C1151 1.386 . S
C1146 C1152 1.483 . S
C1147 H1128 0.949 . S
C1147 C1146 1.376 . S
C1147 C1148 1.397 . S
C1148 H1129 0.950 . S
C1148 C1147 1.397 . S
C1148 C1149 1.391 . S
C1149 C1148 1.391 . S
C1149 C1150 1.405 . S
C1150 H1130 0.950 . S
C1150 C1149 1.405 . S
C1150 C1151 1.367 . S
C1151 H1131 0.950 . S
C1151 C1146 1.386 . S
C1151 C1150 1.367 . S
C1152 C1146 1.483 . S
C1152 C1153 1.382 . S
C1152 C1154 1.403 . S
C1153 H1132 0.950 . S
C1153 C1152 1.382 . S
C1153 C1169 1.411 . S
C1154 C1152 1.403 . S
C1154 C1155 1.489 . S
C1154 C1168 1.411 . S
C1155 C1154 1.489 . S
C1155 C1156 1.383 . S
C1155 C1160 1.382 . S
C1156 H1133 0.950 . S
C1156 C1155 1.383 . S
C1156 C1157 1.395 . S
C1157 H1134 0.950 . S
C1157 C1156 1.395 . S
C1157 C1158 1.288 . S
C1158 C1157 1.288 . S
C1158 C1159 1.392 . S
C1159 H1135 0.951 . S
C1159 C1158 1.392 . S
C1159 C1160 1.392 . S
C1160 H1136 0.949 . S
C1160 C1155 1.382 . S
C1160 C1159 1.392 . S
C1161 C1162 1.376 . S
C1161 C1166 1.386 . S
C1161 C1167 1.483 . S
C1162 H1137 0.949 . S
C1162 C1161 1.376 . S
C1162 C1163 1.397 . S
C1163 H1138 0.950 . S
C1163 C1162 1.397 . S
C1163 C1164 1.391 . S
C1164 C1163 1.391 . S
C1164 C1165 1.405 . S
C1165 H1139 0.950 . S
C1165 C1164 1.405 . S
C1165 C1166 1.367 . S
C1166 H1140 0.950 . S
C1166 C1161 1.386 . S
C1166 C1165 1.367 . S
C1167 C1161 1.483 . S
C1167 C1168 1.382 . S
C1167 C1169 1.403 . S
C1168 H1141 0.950 . S
C1168 C1154 1.411 . S
C1168 C1167 1.382 . S
C1169 C1153 1.411 . S
C1169 C1167 1.403 . S
C1169 C1170 1.489 . S
C1170 C1169 1.489 . S
C1170 C1171 1.383 . S
C1170 C1175 1.382 . S
C1171 H1142 0.950 . S
C1171 C1170 1.383 . S
C1171 C1172 1.395 . S
C1172 H1143 0.950 . S
C1172 C1171 1.395 . S
C1172 C1173 1.288 . S
C1173 C1172 1.288 . S
C1173 C1174 1.392 . S
C1174 H1144 0.951 . S
C1174 C1173 1.392 . S
C1174 C1175 1.392 . S
C1175 H1145 0.949 . S
C1175 C1170 1.382 . S
C1175 C1174 1.392 . S
H1176 C1195 0.949 . S
H1177 C1196 0.950 . S
H1178 C1198 0.950 . S
H1179 C1199 0.950 . S
H1180 C1201 0.950 . S
H1181 C1204 0.950 . S
H1182 C1205 0.950 . S
H1183 C1207 0.951 . S
H1184 C1208 0.949 . S
H1185 C1210 0.949 . S
H1186 C1211 0.950 . S
H1187 C1213 0.950 . S
H1188 C1214 0.950 . S
H1189 C1216 0.950 . S
H1190 C1219 0.950 . S
H1191 C1220 0.950 . S
H1192 C1222 0.951 . S
H1193 C1223 0.949 . S
C1194 C1195 1.376 . S
C1194 C1199 1.386 1_545 S
C1194 C1200 1.483 . S
C1195 H1176 0.949 . S
C1195 C1194 1.376 . S
C1195 C1196 1.397 . S
C1196 H1177 0.950 . S
C1196 C1195 1.397 . S
C1196 C1197 1.391 . S
C1197 C1196 1.391 . S
C1197 C1198 1.405 1_545 S
C1198 H1178 0.950 . S
C1198 C1197 1.405 1_565 S
C1198 C1199 1.367 . S
C1199 H1179 0.950 . S
C1199 C1194 1.386 1_565 S
C1199 C1198 1.367 . S
C1200 C1194 1.483 . S
C1200 C1201 1.382 . S
C1200 C1202 1.403 1_545 S
C1201 H1180 0.950 . S
C1201 C1200 1.382 . S
C1201 C1217 1.411 . S
C1202 C1200 1.403 1_565 S
C1202 C1203 1.489 . S
C1202 C1216 1.411 . S
C1203 C1202 1.489 . S
C1203 C1204 1.383 1_565 S
C1203 C1208 1.382 . S
C1204 H1181 0.950 . S
C1204 C1203 1.383 1_545 S
C1204 C1205 1.395 . S
C1205 H1182 0.950 . S
C1205 C1204 1.395 . S
C1205 C1206 1.288 1_545 S
C1206 C1205 1.288 1_565 S
C1206 C1207 1.392 . S
C1207 H1183 0.951 . S
C1207 C1206 1.392 . S
C1207 C1208 1.392 . S
C1208 H1184 0.949 . S
C1208 C1203 1.382 . S
C1208 C1207 1.392 . S
C1209 C1210 1.376 . S
C1209 C1214 1.386 1_565 S
C1209 C1215 1.483 . S
C1210 H1185 0.949 . S
C1210 C1209 1.376 . S
C1210 C1211 1.397 . S
C1211 H1186 0.950 . S
C1211 C1210 1.397 . S
C1211 C1212 1.391 . S
C1212 C1211 1.391 . S
C1212 C1213 1.405 1_565 S
C1213 H1187 0.950 . S
C1213 C1212 1.405 1_545 S
C1213 C1214 1.367 . S
C1214 H1188 0.950 . S
C1214 C1209 1.386 1_545 S
C1214 C1213 1.367 . S
C1215 C1209 1.483 . S
C1215 C1216 1.382 . S
C1215 C1217 1.403 1_565 S
C1216 H1189 0.950 . S
C1216 C1202 1.411 . S
C1216 C1215 1.382 . S
C1217 C1201 1.411 . S
C1217 C1215 1.403 1_545 S
C1217 C1218 1.489 . S
C1218 C1217 1.489 . S
C1218 C1219 1.383 1_545 S
C1218 C1223 1.382 . S
C1219 H1190 0.950 . S
C1219 C1218 1.383 1_565 S
C1219 C1220 1.395 . S
C1220 H1191 0.950 . S
C1220 C1219 1.395 . S
C1220 C1221 1.288 1_565 S
C1221 C1220 1.288 1_545 S
C1221 C1222 1.392 . S
C1222 H1192 0.951 . S
C1222 C1221 1.392 . S
C1222 C1223 1.392 . S
C1223 H1193 0.949 . S
C1223 C1218 1.382 . S
C1223 C1222 1.392 . S
H1224 C1243 0.949 . S
H1225 C1244 0.950 . S
H1226 C1246 0.950 . S
H1227 C1247 0.950 . S
H1228 C1249 0.950 . S
H1229 C1252 0.950 . S
H1230 C1253 0.950 . S
H1231 C1255 0.951 . S
H1232 C1256 0.949 . S
H1233 C1258 0.949 . S
H1234 C1259 0.950 . S
H1235 C1261 0.950 . S
H1236 C1262 0.950 . S
H1237 C1264 0.950 . S
H1238 C1267 0.950 . S
H1239 C1268 0.950 . S
H1240 C1270 0.951 . S
H1241 C1271 0.949 . S
C1242 C1243 1.381 . S
C1242 C1247 1.384 1_545 S
C1242 C1248 1.504 . S
C1243 H1224 0.949 . S
C1243 C1242 1.381 . S
C1243 C1244 1.397 . S
C1244 H1225 0.950 . S
C1244 C1243 1.397 . S
C1244 C1245 1.391 1_545 S
C1245 C1244 1.391 1_565 S
C1245 C1246 1.405 . S
C1246 H1226 0.950 . S
C1246 C1245 1.405 . S
C1246 C1247 1.367 . S
C1247 H1227 0.950 . S
C1247 C1242 1.384 1_565 S
C1247 C1246 1.367 . S
C1248 C1242 1.504 . S
C1248 C1249 1.360 . S
C1248 C1250 1.398 1_545 S
C1249 H1228 0.950 . S
C1249 C1248 1.360 . S
C1249 C1265 1.411 . S
C1250 C1248 1.398 1_565 S
C1250 C1251 1.485 . S
C1250 C1264 1.438 . S
C1251 C1250 1.485 . S
C1251 C1252 1.342 1_565 S
C1251 C1256 1.405 . S
C1252 H1229 0.950 . S
C1252 C1251 1.342 1_545 S
C1252 C1253 1.395 . S
C1253 H1230 0.950 . S
C1253 C1252 1.395 . S
C1253 C1254 1.288 . S
C1254 C1253 1.288 . S
C1254 C1255 1.392 1_545 S
C1255 H1231 0.951 . S
C1255 C1254 1.392 1_565 S
C1255 C1256 1.392 . S
C1256 H1232 0.949 . S
C1256 C1251 1.405 . S
C1256 C1255 1.392 . S
C1257 C1258 1.371 . S
C1257 C1262 1.389 1_565 S
C1257 C1263 1.504 . S
C1258 H1233 0.949 . S
C1258 C1257 1.371 . S
C1258 C1259 1.397 . S
C1259 H1234 0.950 . S
C1259 C1258 1.397 . S
C1259 C1260 1.391 1_565 S
C1260 C1259 1.391 1_545 S
C1260 C1261 1.405 . S
C1261 H1235 0.950 . S
C1261 C1260 1.405 . S
C1261 C1262 1.367 . S
C1262 H1236 0.950 . S
C1262 C1257 1.389 1_545 S
C1262 C1261 1.367 . S
C1263 C1257 1.504 . S
C1263 C1264 1.365 . S
C1263 C1265 1.400 1_565 S
C1264 H1237 0.950 . S
C1264 C1250 1.438 . S
C1264 C1263 1.365 . S
C1265 C1249 1.411 . S
C1265 C1263 1.400 1_545 S
C1265 C1266 1.513 . S
C1266 C1265 1.513 . S
C1266 C1267 1.329 1_545 S
C1266 C1271 1.412 . S
C1267 H1238 0.950 . S
C1267 C1266 1.329 1_565 S
C1267 C1268 1.395 . S
C1268 H1239 0.950 . S
C1268 C1267 1.395 . S
C1268 C1269 1.288 . S
C1269 C1268 1.288 . S
C1269 C1270 1.392 1_565 S
C1270 H1240 0.951 . S
C1270 C1269 1.392 1_545 S
C1270 C1271 1.392 . S
C1271 H1241 0.949 . S
C1271 C1266 1.412 . S
C1271 C1270 1.392 . S
H1272 C1291 0.949 . S
H1273 C1292 0.950 . S
H1274 C1294 0.950 . S
H1275 C1295 0.950 . S
H1276 C1297 0.950 . S
H1277 C1300 0.950 . S
H1278 C1301 0.950 . S
H1279 C1303 0.951 . S
H1280 C1304 0.949 . S
H1281 C1306 0.949 . S
H1282 C1307 0.950 . S
H1283 C1309 0.950 . S
H1284 C1310 0.950 . S
H1285 C1312 0.950 . S
H1286 C1315 0.950 . S
H1287 C1316 0.950 . S
H1288 C1318 0.951 . S
H1289 C1319 0.949 . S
C1290 C1291 1.376 . S
C1290 C1295 1.386 1_455 S
C1290 C1296 1.483 . S
C1291 H1272 0.949 . S
C1291 C1290 1.376 . S
C1291 C1292 1.397 . S
C1292 H1273 0.950 . S
C1292 C1291 1.397 . S
C1292 C1293 1.391 . S
C1293 C1292 1.391 . S
C1293 C1294 1.405 1_455 S
C1294 H1274 0.950 . S
C1294 C1293 1.405 1_655 S
C1294 C1295 1.367 . S
C1295 H1275 0.950 . S
C1295 C1290 1.386 1_655 S
C1295 C1294 1.367 . S
C1296 C1290 1.483 . S
C1296 C1297 1.382 . S
C1296 C1298 1.403 1_455 S
C1297 H1276 0.950 . S
C1297 C1296 1.382 . S
C1297 C1313 1.411 . S
C1298 C1296 1.403 1_655 S
C1298 C1299 1.489 . S
C1298 C1312 1.411 . S
C1299 C1298 1.489 . S
C1299 C1300 1.383 1_655 S
C1299 C1304 1.382 . S
C1300 H1277 0.950 . S
C1300 C1299 1.383 1_455 S
C1300 C1301 1.395 . S
C1301 H1278 0.950 . S
C1301 C1300 1.395 . S
C1301 C1302 1.288 1_455 S
C1302 C1301 1.288 1_655 S
C1302 C1303 1.392 . S
C1303 H1279 0.951 . S
C1303 C1302 1.392 . S
C1303 C1304 1.392 . S
C1304 H1280 0.949 . S
C1304 C1299 1.382 . S
C1304 C1303 1.392 . S
C1305 C1306 1.376 . S
C1305 C1310 1.386 1_655 S
C1305 C1311 1.483 . S
C1306 H1281 0.949 . S
C1306 C1305 1.376 . S
C1306 C1307 1.397 . S
C1307 H1282 0.950 . S
C1307 C1306 1.397 . S
C1307 C1308 1.391 . S
C1308 C1307 1.391 . S
C1308 C1309 1.405 1_655 S
C1309 H1283 0.950 . S
C1309 C1308 1.405 1_455 S
C1309 C1310 1.367 . S
C1310 H1284 0.950 . S
C1310 C1305 1.386 1_455 S
C1310 C1309 1.367 . S
C1311 C1305 1.483 . S
C1311 C1312 1.382 . S
C1311 C1313 1.403 1_655 S
C1312 H1285 0.950 . S
C1312 C1298 1.411 . S
C1312 C1311 1.382 . S
C1313 C1297 1.411 . S
C1313 C1311 1.403 1_455 S
C1313 C1314 1.489 . S
C1314 C1313 1.489 . S
C1314 C1315 1.383 1_455 S
C1314 C1319 1.382 . S
C1315 H1286 0.950 . S
C1315 C1314 1.383 1_655 S
C1315 C1316 1.395 . S
C1316 H1287 0.950 . S
C1316 C1315 1.395 . S
C1316 C1317 1.288 1_655 S
C1317 C1316 1.288 1_455 S
C1317 C1318 1.392 . S
C1318 H1288 0.951 . S
C1318 C1317 1.392 . S
C1318 C1319 1.392 . S
C1319 H1289 0.949 . S
C1319 C1314 1.382 . S
C1319 C1318 1.392 . S
H1320 C1339 0.949 . S
H1321 C1340 0.950 . S
H1322 C1342 0.950 . S
H1323 C1343 0.950 . S
H1324 C1345 0.950 . S
H1325 C1348 0.950 . S
H1326 C1349 0.950 . S
H1327 C1351 0.951 . S
H1328 C1352 0.949 . S
H1329 C1354 0.949 . S
H1330 C1355 0.950 . S
H1331 C1357 0.950 . S
H1332 C1358 0.950 . S
H1333 C1360 0.950 . S
H1334 C1363 0.950 . S
H1335 C1364 0.950 . S
H1336 C1366 0.951 . S
H1337 C1367 0.949 . S
C1338 C1339 1.376 . S
C1338 C1343 1.386 . S
C1338 C1344 1.483 . S
C1339 H1320 0.949 . S
C1339 C1338 1.376 . S
C1339 C1340 1.397 . S
C1340 H1321 0.950 . S
C1340 C1339 1.397 . S
C1340 C1341 1.391 . S
C1341 C1340 1.391 . S
C1341 C1342 1.405 . S
C1342 H1322 0.950 . S
C1342 C1341 1.405 . S
C1342 C1343 1.367 . S
C1343 H1323 0.950 . S
C1343 C1338 1.386 . S
C1343 C1342 1.367 . S
C1344 C1338 1.483 . S
C1344 C1345 1.382 . S
C1344 C1346 1.403 . S
C1345 H1324 0.950 . S
C1345 C1344 1.382 . S
C1345 C1361 1.411 . S
C1346 C1344 1.403 . S
C1346 C1347 1.489 . S
C1346 C1360 1.411 . S
C1347 C1346 1.489 . S
C1347 C1348 1.383 . S
C1347 C1352 1.382 . S
C1348 H1325 0.950 . S
C1348 C1347 1.383 . S
C1348 C1349 1.395 . S
C1349 H1326 0.950 . S
C1349 C1348 1.395 . S
C1349 C1350 1.288 . S
C1350 C1349 1.288 . S
C1350 C1351 1.392 . S
C1351 H1327 0.951 . S
C1351 C1350 1.392 . S
C1351 C1352 1.392 . S
C1352 H1328 0.949 . S
C1352 C1347 1.382 . S
C1352 C1351 1.392 . S
C1353 C1354 1.376 . S
C1353 C1358 1.386 . S
C1353 C1359 1.483 . S
C1354 H1329 0.949 . S
C1354 C1353 1.376 . S
C1354 C1355 1.397 . S
C1355 H1330 0.950 . S
C1355 C1354 1.397 . S
C1355 C1356 1.391 . S
C1356 C1355 1.391 . S
C1356 C1357 1.405 . S
C1357 H1331 0.950 . S
C1357 C1356 1.405 . S
C1357 C1358 1.367 . S
C1358 H1332 0.950 . S
C1358 C1353 1.386 . S
C1358 C1357 1.367 . S
C1359 C1353 1.483 . S
C1359 C1360 1.382 . S
C1359 C1361 1.403 . S
C1360 H1333 0.950 . S
C1360 C1346 1.411 . S
C1360 C1359 1.382 . S
C1361 C1345 1.411 . S
C1361 C1359 1.403 . S
C1361 C1362 1.489 . S
C1362 C1361 1.489 . S
C1362 C1363 1.383 . S
C1362 C1367 1.382 . S
C1363 H1334 0.950 . S
C1363 C1362 1.383 . S
C1363 C1364 1.395 . S
C1364 H1335 0.950 . S
C1364 C1363 1.395 . S
C1364 C1365 1.288 . S
C1365 C1364 1.288 . S
C1365 C1366 1.392 . S
C1366 H1336 0.951 . S
C1366 C1365 1.392 . S
C1366 C1367 1.392 . S
C1367 H1337 0.949 . S
C1367 C1362 1.382 . S
C1367 C1366 1.392 . S
H1368 C1387 0.949 . S
H1369 C1388 0.950 . S
H1370 C1390 0.950 . S
H1371 C1391 0.950 . S
H1372 C1393 0.950 . S
H1373 C1396 0.950 . S
H1374 C1397 0.950 . S
H1375 C1399 0.951 . S
H1376 C1400 0.949 . S
H1377 C1402 0.949 . S
H1378 C1403 0.950 . S
H1379 C1405 0.950 . S
H1380 C1406 0.950 . S
H1381 C1408 0.950 . S
H1382 C1411 0.950 . S
H1383 C1412 0.950 . S
H1384 C1414 0.951 . S
H1385 C1415 0.949 . S
C1386 C1387 1.376 . S
C1386 C1391 1.386 . S
C1386 C1392 1.483 . S
C1387 H1368 0.949 . S
C1387 C1386 1.376 . S
C1387 C1388 1.397 . S
C1388 H1369 0.950 . S
C1388 C1387 1.397 . S
C1388 C1389 1.391 . S
C1389 C1388 1.391 . S
C1389 C1390 1.405 . S
C1390 H1370 0.950 . S
C1390 C1389 1.405 . S
C1390 C1391 1.367 . S
C1391 H1371 0.950 . S
C1391 C1386 1.386 . S
C1391 C1390 1.367 . S
C1392 C1386 1.483 . S
C1392 C1393 1.382 . S
C1392 C1394 1.403 . S
C1393 H1372 0.950 . S
C1393 C1392 1.382 . S
C1393 C1409 1.411 . S
C1394 C1392 1.403 . S
C1394 C1395 1.489 . S
C1394 C1408 1.411 . S
C1395 C1394 1.489 . S
C1395 C1396 1.383 . S
C1395 C1400 1.382 . S
C1396 H1373 0.950 . S
C1396 C1395 1.383 . S
C1396 C1397 1.395 . S
C1397 H1374 0.950 . S
C1397 C1396 1.395 . S
C1397 C1398 1.288 . S
C1398 C1397 1.288 . S
C1398 C1399 1.392 . S
C1399 H1375 0.951 . S
C1399 C1398 1.392 . S
C1399 C1400 1.392 . S
C1400 H1376 0.949 . S
C1400 C1395 1.382 . S
C1400 C1399 1.392 . S
C1401 C1402 1.376 . S
C1401 C1406 1.386 . S
C1401 C1407 1.483 . S
C1402 H1377 0.949 . S
C1402 C1401 1.376 . S
C1402 C1403 1.397 . S
C1403 H1378 0.950 . S
C1403 C1402 1.397 . S
C1403 C1404 1.391 . S
C1404 C1403 1.391 . S
C1404 C1405 1.405 . S
C1405 H1379 0.950 . S
C1405 C1404 1.405 . S
C1405 C1406 1.367 . S
C1406 H1380 0.950 . S
C1406 C1401 1.386 . S
C1406 C1405 1.367 . S
C1407 C1401 1.483 . S
C1407 C1408 1.382 . S
C1407 C1409 1.403 . S
C1408 H1381 0.950 . S
C1408 C1394 1.411 . S
C1408 C1407 1.382 . S
C1409 C1393 1.411 . S
C1409 C1407 1.403 . S
C1409 C1410 1.489 . S
C1410 C1409 1.489 . S
C1410 C1411 1.383 . S
C1410 C1415 1.382 . S
C1411 H1382 0.950 . S
C1411 C1410 1.383 . S
C1411 C1412 1.395 . S
C1412 H1383 0.950 . S
C1412 C1411 1.395 . S
C1412 C1413 1.288 . S
C1413 C1412 1.288 . S
C1413 C1414 1.392 . S
C1414 H1384 0.951 . S
C1414 C1413 1.392 . S
C1414 C1415 1.392 . S
C1415 H1385 0.949 . S
C1415 C1410 1.382 . S
C1415 C1414 1.392 . S
H1416 C1435 0.949 . S
H1417 C1436 0.950 . S
H1418 C1438 0.950 . S
H1419 C1439 0.950 . S
H1420 C1441 0.950 . S
H1421 C1444 0.950 . S
H1422 C1445 0.950 . S
H1423 C1447 0.951 . S
H1424 C1448 0.949 . S
H1425 C1450 0.949 . S
H1426 C1451 0.950 . S
H1427 C1453 0.950 . S
H1428 C1454 0.950 . S
H1429 C1456 0.950 . S
H1430 C1459 0.950 . S
H1431 C1460 0.950 . S
H1432 C1462 0.951 . S
H1433 C1463 0.949 . S
C1434 C1435 1.376 . S
C1434 C1439 1.386 . S
C1434 C1440 1.483 . S
C1435 H1416 0.949 . S
C1435 C1434 1.376 . S
C1435 C1436 1.397 . S
C1436 H1417 0.950 . S
C1436 C1435 1.397 . S
C1436 C1437 1.391 . S
C1437 C1436 1.391 . S
C1437 C1438 1.405 . S
C1438 H1418 0.950 . S
C1438 C1437 1.405 . S
C1438 C1439 1.367 . S
C1439 H1419 0.950 . S
C1439 C1434 1.386 . S
C1439 C1438 1.367 . S
C1440 C1434 1.483 . S
C1440 C1441 1.382 . S
C1440 C1442 1.403 . S
C1441 H1420 0.950 . S
C1441 C1440 1.382 . S
C1441 C1457 1.411 . S
C1442 C1440 1.403 . S
C1442 C1443 1.489 . S
C1442 C1456 1.411 . S
C1443 C1442 1.489 . S
C1443 C1444 1.383 . S
C1443 C1448 1.382 . S
C1444 H1421 0.950 . S
C1444 C1443 1.383 . S
C1444 C1445 1.395 . S
C1445 H1422 0.950 . S
C1445 C1444 1.395 . S
C1445 C1446 1.288 . S
C1446 C1445 1.288 . S
C1446 C1447 1.392 . S
C1447 H1423 0.951 . S
C1447 C1446 1.392 . S
C1447 C1448 1.392 . S
C1448 H1424 0.949 . S
C1448 C1443 1.382 . S
C1448 C1447 1.392 . S
C1449 C1450 1.376 . S
C1449 C1454 1.386 . S
C1449 C1455 1.483 . S
C1450 H1425 0.949 . S
C1450 C1449 1.376 . S
C1450 C1451 1.397 . S
C1451 H1426 0.950 . S
C1451 C1450 1.397 . S
C1451 C1452 1.391 . S
C1452 C1451 1.391 . S
C1452 C1453 1.405 . S
C1453 H1427 0.950 . S
C1453 C1452 1.405 . S
C1453 C1454 1.367 . S
C1454 H1428 0.950 . S
C1454 C1449 1.386 . S
C1454 C1453 1.367 . S
C1455 C1449 1.483 . S
C1455 C1456 1.382 . S
C1455 C1457 1.403 . S
C1456 H1429 0.950 . S
C1456 C1442 1.411 . S
C1456 C1455 1.382 . S
C1457 C1441 1.411 . S
C1457 C1455 1.403 . S
C1457 C1458 1.489 . S
C1458 C1457 1.489 . S
C1458 C1459 1.383 . S
C1458 C1463 1.382 . S
C1459 H1430 0.950 . S
C1459 C1458 1.383 . S
C1459 C1460 1.395 . S
C1460 H1431 0.950 . S
C1460 C1459 1.395 . S
C1460 C1461 1.288 . S
C1461 C1460 1.288 . S
C1461 C1462 1.392 . S
C1462 H1432 0.951 . S
C1462 C1461 1.392 . S
C1462 C1463 1.392 . S
C1463 H1433 0.949 . S
C1463 C1458 1.382 . S
C1463 C1462 1.392 . S
H1464 C1483 0.949 . S
H1465 C1484 0.950 . S
H1466 C1486 0.950 . S
H1467 C1487 0.950 . S
H1468 C1489 0.950 . S
H1469 C1492 0.950 . S
H1470 C1493 0.950 . S
H1471 C1495 0.951 . S
H1472 C1496 0.949 . S
H1473 C1498 0.949 . S
H1474 C1499 0.950 . S
H1475 C1501 0.950 . S
H1476 C1502 0.950 . S
H1477 C1504 0.950 . S
H1478 C1507 0.950 . S
H1479 C1508 0.950 . S
H1480 C1510 0.951 . S
H1481 C1511 0.949 . S
C1482 C1483 1.376 . S
C1482 C1487 1.386 . S
C1482 C1488 1.483 . S
C1483 H1464 0.949 . S
C1483 C1482 1.376 . S
C1483 C1484 1.397 . S
C1484 H1465 0.950 . S
C1484 C1483 1.397 . S
C1484 C1485 1.391 . S
C1485 C1484 1.391 . S
C1485 C1486 1.405 . S
C1486 H1466 0.950 . S
C1486 C1485 1.405 . S
C1486 C1487 1.367 . S
C1487 H1467 0.950 . S
C1487 C1482 1.386 . S
C1487 C1486 1.367 . S
C1488 C1482 1.483 . S
C1488 C1489 1.382 . S
C1488 C1490 1.403 . S
C1489 H1468 0.950 . S
C1489 C1488 1.382 . S
C1489 C1505 1.411 . S
C1490 C1488 1.403 . S
C1490 C1491 1.489 . S
C1490 C1504 1.411 . S
C1491 C1490 1.489 . S
C1491 C1492 1.383 . S
C1491 C1496 1.382 . S
C1492 H1469 0.950 . S
C1492 C1491 1.383 . S
C1492 C1493 1.395 . S
C1493 H1470 0.950 . S
C1493 C1492 1.395 . S
C1493 C1494 1.288 . S
C1494 C1493 1.288 . S
C1494 C1495 1.392 . S
C1495 H1471 0.951 . S
C1495 C1494 1.392 . S
C1495 C1496 1.392 . S
C1496 H1472 0.949 . S
C1496 C1491 1.382 . S
C1496 C1495 1.392 . S
C1497 C1498 1.376 . S
C1497 C1502 1.386 . S
C1497 C1503 1.483 . S
C1498 H1473 0.949 . S
C1498 C1497 1.376 . S
C1498 C1499 1.397 . S
C1499 H1474 0.950 . S
C1499 C1498 1.397 . S
C1499 C1500 1.391 . S
C1500 C1499 1.391 . S
C1500 C1501 1.405 . S
C1501 H1475 0.950 . S
C1501 C1500 1.405 . S
C1501 C1502 1.367 . S
C1502 H1476 0.950 . S
C1502 C1497 1.386 . S
C1502 C1501 1.367 . S
C1503 C1497 1.483 . S
C1503 C1504 1.382 . S
C1503 C1505 1.403 . S
C1504 H1477 0.950 . S
C1504 C1490 1.411 . S
C1504 C1503 1.382 . S
C1505 C1489 1.411 . S
C1505 C1503 1.403 . S
C1505 C1506 1.489 . S
C1506 C1505 1.489 . S
C1506 C1507 1.383 . S
C1506 C1511 1.382 . S
C1507 H1478 0.950 . S
C1507 C1506 1.383 . S
C1507 C1508 1.395 . S
C1508 H1479 0.950 . S
C1508 C1507 1.395 . S
C1508 C1509 1.288 . S
C1509 C1508 1.288 . S
C1509 C1510 1.392 . S
C1510 H1480 0.951 . S
C1510 C1509 1.392 . S
C1510 C1511 1.392 . S
C1511 H1481 0.949 . S
C1511 C1506 1.382 . S
C1511 C1510 1.392 . S
C1512 C1513 1.387 . S
C1512 H1516 0.950 . S
C1512 C1521 1.390 . S
C1513 C1512 1.387 . S
C1513 C1515 1.387 1_655 S
H1514 C1521 0.950 . S
C1515 C1513 1.387 1_455 S
C1515 C1517 1.390 . S
C1515 H1519 0.950 . S
H1516 C1512 0.950 . S
C1517 C1515 1.390 . S
C1517 C1518 1.387 1_455 S
C1517 H1520 0.950 . S
C1518 C1517 1.387 1_655 S
C1518 C1521 1.387 . S
H1519 C1515 0.950 . S
H1520 C1517 0.950 . S
C1521 C1512 1.390 . S
C1521 H1514 0.950 . S
C1521 C1518 1.387 . S
C1522 C1523 1.387 . S
C1522 H1526 0.950 . S
C1522 C1531 1.390 . S
C1523 C1522 1.387 . S
C1523 C1525 1.387 . S
H1524 C1531 0.950 . S
C1525 C1523 1.387 . S
C1525 C1527 1.390 . S
C1525 H1529 0.950 . S
H1526 C1522 0.950 . S
C1527 C1525 1.390 . S
C1527 C1528 1.387 . S
C1527 H1530 0.950 . S
C1528 C1527 1.387 . S
C1528 C1531 1.387 . S
H1529 C1525 0.950 . S
H1530 C1527 0.950 . S
C1531 C1522 1.390 . S
C1531 H1524 0.950 . S
C1531 C1528 1.387 . S
C1532 C1533 1.387 . S
C1532 H1536 0.950 . S
C1532 C1541 1.390 . S
C1533 C1532 1.387 . S
C1533 C1535 1.387 1_545 S
H1534 C1541 0.950 . S
C1535 C1533 1.387 1_565 S
C1535 C1537 1.390 . S
C1535 H1539 0.950 . S
H1536 C1532 0.950 . S
C1537 C1535 1.390 . S
C1537 C1538 1.387 1_565 S
C1537 H1540 0.950 . S
C1538 C1537 1.387 1_545 S
C1538 C1541 1.387 . S
H1539 C1535 0.950 . S
H1540 C1537 0.950 . S
C1541 C1532 1.390 . S
C1541 H1534 0.950 . S
C1541 C1538 1.387 . S
C1542 C1543 1.387 . S
C1542 H1546 0.950 . S
C1542 C1551 1.390 . S
C1543 C1542 1.387 . S
C1543 C1545 1.387 1_565 S
H1544 C1551 0.950 . S
C1545 C1543 1.387 1_545 S
C1545 C1547 1.390 . S
C1545 H1549 0.950 . S
H1546 C1542 0.950 . S
C1547 C1545 1.390 . S
C1547 C1548 1.387 1_545 S
C1547 H1550 0.950 . S
C1548 C1547 1.387 1_565 S
C1548 C1551 1.387 . S
H1549 C1545 0.950 . S
H1550 C1547 0.950 . S
C1551 C1542 1.390 . S
C1551 H1544 0.950 . S
C1551 C1548 1.387 . S
C1552 C1553 1.387 . S
C1552 H1556 0.950 . S
C1552 C1561 1.390 . S
C1553 C1552 1.387 . S
C1553 C1555 1.386 1_455 S
H1554 C1561 0.950 . S
C1555 C1553 1.386 1_655 S
C1555 C1557 1.391 . S
C1555 H1559 0.951 . S
H1556 C1552 0.950 . S
C1557 C1555 1.391 . S
C1557 C1558 1.387 1_655 S
C1557 H1560 0.950 . S
C1558 C1557 1.387 1_455 S
C1558 C1561 1.387 . S
H1559 C1555 0.951 . S
H1560 C1557 0.950 . S
C1561 C1552 1.390 . S
C1561 H1554 0.950 . S
C1561 C1558 1.387 . S
C1562 C1563 1.387 . S
C1562 H1566 0.950 . S
C1562 C1571 1.390 . S
C1563 C1562 1.387 . S
C1563 C1565 1.387 . S
H1564 C1571 0.950 . S
C1565 C1563 1.387 . S
C1565 C1567 1.390 . S
C1565 H1569 0.950 . S
H1566 C1562 0.950 . S
C1567 C1565 1.390 . S
C1567 C1568 1.387 . S
C1567 H1570 0.950 . S
C1568 C1567 1.387 . S
C1568 C1571 1.387 . S
H1569 C1565 0.950 . S
H1570 C1567 0.950 . S
C1571 C1562 1.390 . S
C1571 H1564 0.950 . S
C1571 C1568 1.387 . S
C1572 C1573 1.387 1_655 S
C1572 H1576 0.950 . S
C1572 C1581 1.390 . S
C1573 C1572 1.387 1_455 S
C1573 C1575 1.387 . S
H1574 C1581 0.950 . S
C1575 C1573 1.387 . S
C1575 C1577 1.390 . S
C1575 H1579 0.950 . S
H1576 C1572 0.950 . S
C1577 C1575 1.390 . S
C1577 C1578 1.387 . S
C1577 H1580 0.950 . S
C1578 C1577 1.387 . S
C1578 C1581 1.387 1_455 S
H1579 C1575 0.950 . S
H1580 C1577 0.950 . S
C1581 C1572 1.390 . S
C1581 H1574 0.950 . S
C1581 C1578 1.387 1_655 S
C1582 C1583 1.387 . S
C1582 H1586 0.950 . S
C1582 C1591 1.390 . S
C1583 C1582 1.387 . S
C1583 C1585 1.387 . S
H1584 C1591 0.950 . S
C1585 C1583 1.387 . S
C1585 C1587 1.390 . S
C1585 H1589 0.950 . S
H1586 C1582 0.950 . S
C1587 C1585 1.390 . S
C1587 C1588 1.387 . S
C1587 H1590 0.950 . S
C1588 C1587 1.387 . S
C1588 C1591 1.387 . S
H1589 C1585 0.950 . S
H1590 C1587 0.950 . S
C1591 C1582 1.390 . S
C1591 H1584 0.950 . S
C1591 C1588 1.387 . S
C1592 C1593 1.387 . S
C1592 H1596 0.950 . S
C1592 C1601 1.390 . S
C1593 C1592 1.387 . S
C1593 C1595 1.387 1_565 S
H1594 C1601 0.950 . S
C1595 C1593 1.387 1_545 S
C1595 C1597 1.390 . S
C1595 H1599 0.950 . S
H1596 C1592 0.950 . S
C1597 C1595 1.390 . S
C1597 C1598 1.387 1_545 S
C1597 H1600 0.950 . S
C1598 C1597 1.387 1_565 S
C1598 C1601 1.387 . S
H1599 C1595 0.950 . S
H1600 C1597 0.950 . S
C1601 C1592 1.390 . S
C1601 H1594 0.950 . S
C1601 C1598 1.387 . S
C1602 C1603 1.387 1_565 S
C1602 H1606 0.950 . S
C1602 C1611 1.390 . S
C1603 C1602 1.387 1_545 S
C1603 C1605 1.387 . S
H1604 C1611 0.950 . S
C1605 C1603 1.387 . S
C1605 C1607 1.390 . S
C1605 H1609 0.950 . S
H1606 C1602 0.950 . S
C1607 C1605 1.390 . S
C1607 C1608 1.387 . S
C1607 H1610 0.950 . S
C1608 C1607 1.387 . S
C1608 C1611 1.387 1_545 S
H1609 C1605 0.950 . S
H1610 C1607 0.950 . S
C1611 C1602 1.390 . S
C1611 H1604 0.950 . S
C1611 C1608 1.387 1_565 S
C1612 C1613 1.387 1_455 S
C1612 H1616 0.950 . S
C1612 C1621 1.390 . S
C1613 C1612 1.387 1_655 S
C1613 C1615 1.387 . S
H1614 C1621 0.950 . S
C1615 C1613 1.387 . S
C1615 C1617 1.390 . S
C1615 H1619 0.950 . S
H1616 C1612 0.950 . S
C1617 C1615 1.390 . S
C1617 C1618 1.387 . S
C1617 H1620 0.950 . S
C1618 C1617 1.387 . S
C1618 C1621 1.387 1_655 S
H1619 C1615 0.950 . S
H1620 C1617 0.950 . S
C1621 C1612 1.390 . S
C1621 H1614 0.950 . S
C1621 C1618 1.387 1_455 S
C1622 C1623 1.387 . S
C1622 H1626 0.950 . S
C1622 C1631 1.390 . S
C1623 C1622 1.387 . S
C1623 C1625 1.387 . S
H1624 C1631 0.950 . S
C1625 C1623 1.387 . S
C1625 C1627 1.390 . S
C1625 H1629 0.950 . S
H1626 C1622 0.950 . S
C1627 C1625 1.390 . S
C1627 C1628 1.387 . S
C1627 H1630 0.950 . S
C1628 C1627 1.387 . S
C1628 C1631 1.387 . S
H1629 C1625 0.950 . S
H1630 C1627 0.950 . S
C1631 C1622 1.390 . S
C1631 H1624 0.950 . S
C1631 C1628 1.387 . S
C1632 C1633 1.387 . S
C1632 H1636 0.950 . S
C1632 C1641 1.390 . S
C1633 C1632 1.387 . S
C1633 C1635 1.387 . S
H1634 C1641 0.950 . S
C1635 C1633 1.387 . S
C1635 C1637 1.390 . S
C1635 H1639 0.950 . S
H1636 C1632 0.950 . S
C1637 C1635 1.390 . S
C1637 C1638 1.387 . S
C1637 H1640 0.950 . S
C1638 C1637 1.387 . S
C1638 C1641 1.387 . S
H1639 C1635 0.950 . S
H1640 C1637 0.950 . S
C1641 C1632 1.390 . S
C1641 H1634 0.950 . S
C1641 C1638 1.387 . S
C1642 C1643 1.387 . S
C1642 H1646 0.950 . S
C1642 C1651 1.390 . S
C1643 C1642 1.387 . S
C1643 C1645 1.387 . S
H1644 C1651 0.950 . S
C1645 C1643 1.387 . S
C1645 C1647 1.390 . S
C1645 H1649 0.950 . S
H1646 C1642 0.950 . S
C1647 C1645 1.390 . S
C1647 C1648 1.387 . S
C1647 H1650 0.950 . S
C1648 C1647 1.387 . S
C1648 C1651 1.387 . S
H1649 C1645 0.950 . S
H1650 C1647 0.950 . S
C1651 C1642 1.390 . S
C1651 H1644 0.950 . S
C1651 C1648 1.387 . S
C1652 C1653 1.387 . S
C1652 H1656 0.950 . S
C1652 C1661 1.390 . S
C1653 C1652 1.387 . S
C1653 C1655 1.387 . S
H1654 C1661 0.950 . S
C1655 C1653 1.387 . S
C1655 C1657 1.390 . S
C1655 H1659 0.950 . S
H1656 C1652 0.950 . S
C1657 C1655 1.390 . S
C1657 C1658 1.387 . S
C1657 H1660 0.950 . S
C1658 C1657 1.387 . S
C1658 C1661 1.387 . S
H1659 C1655 0.950 . S
H1660 C1657 0.950 . S
C1661 C1652 1.390 . S
C1661 H1654 0.950 . S
C1661 C1658 1.387 . S
C1662 C1663 1.387 . S
C1662 H1666 0.950 . S
C1662 C1671 1.390 . S
C1663 C1662 1.387 . S
C1663 C1665 1.387 . S
H1664 C1671 0.950 . S
C1665 C1663 1.387 . S
C1665 C1667 1.390 . S
C1665 H1669 0.950 . S
H1666 C1662 0.950 . S
C1667 C1665 1.390 . S
C1667 C1668 1.387 . S
C1667 H1670 0.950 . S
C1668 C1667 1.387 . S
C1668 C1671 1.387 . S
H1669 C1665 0.950 . S
H1670 C1667 0.950 . S
C1671 C1662 1.390 . S
C1671 H1664 0.950 . S
C1671 C1668 1.387 . S
C1672 C1673 1.387 . S
C1672 H1676 0.950 . S
C1672 C1681 1.390 . S
C1673 C1672 1.387 . S
C1673 C1675 1.387 . S
H1674 C1681 0.950 . S
C1675 C1673 1.387 . S
C1675 C1677 1.390 . S
C1675 H1679 0.950 . S
H1676 C1672 0.950 . S
C1677 C1675 1.390 . S
C1677 C1678 1.387 . S
C1677 H1680 0.950 . S
C1678 C1677 1.387 . S
C1678 C1681 1.387 . S
H1679 C1675 0.950 . S
H1680 C1677 0.950 . S
C1681 C1672 1.390 . S
C1681 H1674 0.950 . S
C1681 C1678 1.387 . S
C1682 C1683 1.387 . S
C1682 H1686 0.950 . S
C1682 C1691 1.390 . S
C1683 C1682 1.387 . S
C1683 C1685 1.387 . S
H1684 C1691 0.950 . S
C1685 C1683 1.387 . S
C1685 C1687 1.390 . S
C1685 H1689 0.950 . S
H1686 C1682 0.950 . S
C1687 C1685 1.390 . S
C1687 C1688 1.387 . S
C1687 H1690 0.950 . S
C1688 C1687 1.387 . S
C1688 C1691 1.387 . S
H1689 C1685 0.950 . S
H1690 C1687 0.950 . S
C1691 C1682 1.390 . S
C1691 H1684 0.950 . S
C1691 C1688 1.387 . S
C1692 C1693 1.387 . S
C1692 H1696 0.950 . S
C1692 C1701 1.390 . S
C1693 C1692 1.387 . S
C1693 C1695 1.387 . S
H1694 C1701 0.950 . S
C1695 C1693 1.387 . S
C1695 C1697 1.390 . S
C1695 H1699 0.950 . S
H1696 C1692 0.950 . S
C1697 C1695 1.390 . S
C1697 C1698 1.387 . S
C1697 H1700 0.950 . S
C1698 C1697 1.387 . S
C1698 C1701 1.387 . S
H1699 C1695 0.950 . S
H1700 C1697 0.950 . S
C1701 C1692 1.390 . S
C1701 H1694 0.950 . S
C1701 C1698 1.387 . S
C1702 C1703 1.387 . S
C1702 H1706 0.950 . S
C1702 C1711 1.390 . S
C1703 C1702 1.387 . S
C1703 C1705 1.387 . S
H1704 C1711 0.950 . S
C1705 C1703 1.387 . S
C1705 C1707 1.390 . S
C1705 H1709 0.950 . S
H1706 C1702 0.950 . S
C1707 C1705 1.390 . S
C1707 C1708 1.387 . S
C1707 H1710 0.950 . S
C1708 C1707 1.387 . S
C1708 C1711 1.387 . S
H1709 C1705 0.950 . S
H1710 C1707 0.950 . S
C1711 C1702 1.390 . S
C1711 H1704 0.950 . S
C1711 C1708 1.387 . S
C1712 C1713 1.387 . S
C1712 H1716 0.950 . S
C1712 C1721 1.390 . S
C1713 C1712 1.387 . S
C1713 C1715 1.387 . S
H1714 C1721 0.950 . S
C1715 C1713 1.387 . S
C1715 C1717 1.390 . S
C1715 H1719 0.950 . S
H1716 C1712 0.950 . S
C1717 C1715 1.390 . S
C1717 C1718 1.387 . S
C1717 H1720 0.950 . S
C1718 C1717 1.387 . S
C1718 C1721 1.387 . S
H1719 C1715 0.950 . S
H1720 C1717 0.950 . S
C1721 C1712 1.390 . S
C1721 H1714 0.950 . S
C1721 C1718 1.387 . S
C1722 C1723 1.387 . S
C1722 H1726 0.950 . S
C1722 C1731 1.390 . S
C1723 C1722 1.387 . S
C1723 C1725 1.387 . S
H1724 C1731 0.950 . S
C1725 C1723 1.387 . S
C1725 C1727 1.390 . S
C1725 H1729 0.950 . S
H1726 C1722 0.950 . S
C1727 C1725 1.390 . S
C1727 C1728 1.387 . S
C1727 H1730 0.950 . S
C1728 C1727 1.387 . S
C1728 C1731 1.387 . S
H1729 C1725 0.950 . S
H1730 C1727 0.950 . S
C1731 C1722 1.390 . S
C1731 H1724 0.950 . S
C1731 C1728 1.387 . S
C1732 C1733 1.387 . S
C1732 H1736 0.950 . S
C1732 C1741 1.390 . S
C1733 C1732 1.387 . S
C1733 C1735 1.387 . S
H1734 C1741 0.950 . S
C1735 C1733 1.387 . S
C1735 C1737 1.390 . S
C1735 H1739 0.950 . S
H1736 C1732 0.950 . S
C1737 C1735 1.390 . S
C1737 C1738 1.387 . S
C1737 H1740 0.950 . S
C1738 C1737 1.387 . S
C1738 C1741 1.387 . S
H1739 C1735 0.950 . S
H1740 C1737 0.950 . S
C1741 C1732 1.390 . S
C1741 H1734 0.950 . S
C1741 C1738 1.387 . S
C1742 C1743 1.387 . S
C1742 H1746 0.950 . S
C1742 C1751 1.390 . S
C1743 C1742 1.387 . S
C1743 C1745 1.387 . S
H1744 C1751 0.950 . S
C1745 C1743 1.387 . S
C1745 C1747 1.390 . S
C1745 H1749 0.950 . S
H1746 C1742 0.950 . S
C1747 C1745 1.390 . S
C1747 C1748 1.387 . S
C1747 H1750 0.950 . S
C1748 C1747 1.387 . S
C1748 C1751 1.387 . S
H1749 C1745 0.950 . S
H1750 C1747 0.950 . S
C1751 C1742 1.390 . S
C1751 H1744 0.950 . S
C1751 C1748 1.387 . S
C1752 C1753 1.387 . S
C1752 H1756 0.950 . S
C1752 C1761 1.390 . S
C1753 C1752 1.387 . S
C1753 C1755 1.387 . S
H1754 C1761 0.950 . S
C1755 C1753 1.387 . S
C1755 C1757 1.390 . S
C1755 H1759 0.950 . S
H1756 C1752 0.950 . S
C1757 C1755 1.390 . S
C1757 C1758 1.387 . S
C1757 H1760 0.950 . S
C1758 C1757 1.387 . S
C1758 C1761 1.387 . S
H1759 C1755 0.950 . S
H1760 C1757 0.950 . S
C1761 C1752 1.390 . S
C1761 H1754 0.950 . S
C1761 C1758 1.387 . S
C1762 C1763 1.387 . S
C1762 H1766 0.950 . S
C1762 C1771 1.390 . S
C1763 C1762 1.387 . S
C1763 C1765 1.387 . S
H1764 C1771 0.950 . S
C1765 C1763 1.387 . S
C1765 C1767 1.390 . S
C1765 H1769 0.950 . S
H1766 C1762 0.950 . S
C1767 C1765 1.390 . S
C1767 C1768 1.387 . S
C1767 H1770 0.950 . S
C1768 C1767 1.387 . S
C1768 C1771 1.387 . S
H1769 C1765 0.950 . S
H1770 C1767 0.950 . S
C1771 C1762 1.390 . S
C1771 H1764 0.950 . S
C1771 C1768 1.387 . S
C1772 C1773 1.387 . S
C1772 H1776 0.950 . S
C1772 C1781 1.390 . S
C1773 C1772 1.387 . S
C1773 C1775 1.387 . S
H1774 C1781 0.950 . S
C1775 C1773 1.387 . S
C1775 C1777 1.390 . S
C1775 H1779 0.950 . S
H1776 C1772 0.950 . S
C1777 C1775 1.390 . S
C1777 C1778 1.387 . S
C1777 H1780 0.950 . S
C1778 C1777 1.387 . S
C1778 C1781 1.387 . S
H1779 C1775 0.950 . S
H1780 C1777 0.950 . S
C1781 C1772 1.390 . S
C1781 H1774 0.950 . S
C1781 C1778 1.387 . S
C1782 C1783 1.387 . S
C1782 H1786 0.950 . S
C1782 C1791 1.390 . S
C1783 C1782 1.387 . S
C1783 C1785 1.387 . S
H1784 C1791 0.950 . S
C1785 C1783 1.387 . S
C1785 C1787 1.390 . S
C1785 H1789 0.950 . S
H1786 C1782 0.950 . S
C1787 C1785 1.390 . S
C1787 C1788 1.387 . S
C1787 H1790 0.950 . S
C1788 C1787 1.387 . S
C1788 C1791 1.387 . S
H1789 C1785 0.950 . S
H1790 C1787 0.950 . S
C1791 C1782 1.390 . S
C1791 H1784 0.950 . S
C1791 C1788 1.387 . S
C1792 C1793 1.387 . S
C1792 H1796 0.950 . S
C1792 C1801 1.390 . S
C1793 C1792 1.387 . S
C1793 C1795 1.387 . S
H1794 C1801 0.950 . S
C1795 C1793 1.387 . S
C1795 C1797 1.390 . S
C1795 H1799 0.950 . S
H1796 C1792 0.950 . S
C1797 C1795 1.390 . S
C1797 C1798 1.387 . S
C1797 H1800 0.950 . S
C1798 C1797 1.387 . S
C1798 C1801 1.387 . S
H1799 C1795 0.950 . S
H1800 C1797 0.950 . S
C1801 C1792 1.390 . S
C1801 H1794 0.950 . S
C1801 C1798 1.387 . S
C1802 C1803 1.387 . S
C1802 H1806 0.950 . S
C1802 C1811 1.390 . S
C1803 C1802 1.387 . S
C1803 C1805 1.387 . S
H1804 C1811 0.950 . S
C1805 C1803 1.387 . S
C1805 C1807 1.390 . S
C1805 H1809 0.950 . S
H1806 C1802 0.950 . S
C1807 C1805 1.390 . S
C1807 C1808 1.387 . S
C1807 H1810 0.950 . S
C1808 C1807 1.387 . S
C1808 C1811 1.387 . S
H1809 C1805 0.950 . S
H1810 C1807 0.950 . S
C1811 C1802 1.390 . S
C1811 H1804 0.950 . S
C1811 C1808 1.387 . S
C1812 C1813 1.387 . S
C1812 H1816 0.950 . S
C1812 C1821 1.390 . S
C1813 C1812 1.387 . S
C1813 C1815 1.387 . S
H1814 C1821 0.950 . S
C1815 C1813 1.387 . S
C1815 C1817 1.390 . S
C1815 H1819 0.950 . S
H1816 C1812 0.950 . S
C1817 C1815 1.390 . S
C1817 C1818 1.387 . S
C1817 H1820 0.950 . S
C1818 C1817 1.387 . S
C1818 C1821 1.387 . S
H1819 C1815 0.950 . S
H1820 C1817 0.950 . S
C1821 C1812 1.390 . S
C1821 H1814 0.950 . S
C1821 C1818 1.387 . S
C1822 C1823 1.387 . S
C1822 H1826 0.950 . S
C1822 C1831 1.390 . S
C1823 C1822 1.387 . S
C1823 C1825 1.387 . S
H1824 C1831 0.950 . S
C1825 C1823 1.387 . S
C1825 C1827 1.390 . S
C1825 H1829 0.950 . S
H1826 C1822 0.950 . S
C1827 C1825 1.390 . S
C1827 C1828 1.387 . S
C1827 H1830 0.950 . S
C1828 C1827 1.387 . S
C1828 C1831 1.387 . S
H1829 C1825 0.950 . S
H1830 C1827 0.950 . S
C1831 C1822 1.390 . S
C1831 H1824 0.950 . S
C1831 C1828 1.387 . S
C1832 C1833 1.387 . S
C1832 H1836 0.950 . S
C1832 C1841 1.390 . S
C1833 C1832 1.387 . S
C1833 C1835 1.387 . S
H1834 C1841 0.950 . S
C1835 C1833 1.387 . S
C1835 C1837 1.390 . S
C1835 H1839 0.950 . S
H1836 C1832 0.950 . S
C1837 C1835 1.390 . S
C1837 C1838 1.387 . S
C1837 H1840 0.950 . S
C1838 C1837 1.387 . S
C1838 C1841 1.387 . S
H1839 C1835 0.950 . S
H1840 C1837 0.950 . S
C1841 C1832 1.390 . S
C1841 H1834 0.950 . S
C1841 C1838 1.387 . S
C1842 C1843 1.387 . S
C1842 H1846 0.950 . S
C1842 C1851 1.390 . S
C1843 C1842 1.387 . S
C1843 C1845 1.387 . S
H1844 C1851 0.950 . S
C1845 C1843 1.387 . S
C1845 C1847 1.390 . S
C1845 H1849 0.950 . S
H1846 C1842 0.950 . S
C1847 C1845 1.390 . S
C1847 C1848 1.387 . S
C1847 H1850 0.950 . S
C1848 C1847 1.387 . S
C1848 C1851 1.387 . S
H1849 C1845 0.950 . S
H1850 C1847 0.950 . S
C1851 C1842 1.390 . S
C1851 H1844 0.950 . S
C1851 C1848 1.387 . S
C1852 C1853 1.387 . S
C1852 H1856 0.950 . S
C1852 C1861 1.390 . S
C1853 C1852 1.387 . S
C1853 C1855 1.387 . S
H1854 C1861 0.950 . S
C1855 C1853 1.387 . S
C1855 C1857 1.390 . S
C1855 H1859 0.950 . S
H1856 C1852 0.950 . S
C1857 C1855 1.390 . S
C1857 C1858 1.387 . S
C1857 H1860 0.950 . S
C1858 C1857 1.387 . S
C1858 C1861 1.387 . S
H1859 C1855 0.950 . S
H1860 C1857 0.950 . S
C1861 C1852 1.390 . S
C1861 H1854 0.950 . S
C1861 C1858 1.387 . S
C1862 C1863 1.387 . S
C1862 H1866 0.950 . S
C1862 C1871 1.390 . S
C1863 C1862 1.387 . S
C1863 C1865 1.387 . S
H1864 C1871 0.950 . S
C1865 C1863 1.387 . S
C1865 C1867 1.390 . S
C1865 H1869 0.950 . S
H1866 C1862 0.950 . S
C1867 C1865 1.390 . S
C1867 C1868 1.387 . S
C1867 H1870 0.950 . S
C1868 C1867 1.387 . S
C1868 C1871 1.387 . S
H1869 C1865 0.950 . S
H1870 C1867 0.950 . S
C1871 C1862 1.390 . S
C1871 H1864 0.950 . S
C1871 C1868 1.387 . S
C1872 C1873 1.387 . S
C1872 H1876 0.950 . S
C1872 C1881 1.390 . S
C1873 C1872 1.387 . S
C1873 C1875 1.387 . S
H1874 C1881 0.950 . S
C1875 C1873 1.387 . S
C1875 C1877 1.390 . S
C1875 H1879 0.950 . S
H1876 C1872 0.950 . S
C1877 C1875 1.390 . S
C1877 C1878 1.387 . S
C1877 H1880 0.950 . S
C1878 C1877 1.387 . S
C1878 C1881 1.387 . S
H1879 C1875 0.950 . S
H1880 C1877 0.950 . S
C1881 C1872 1.390 . S
C1881 H1874 0.950 . S
C1881 C1878 1.387 . S
C1882 C1883 1.387 . S
C1882 H1886 0.950 . S
C1882 C1891 1.390 . S
C1883 C1882 1.387 . S
C1883 C1885 1.387 . S
H1884 C1891 0.950 . S
C1885 C1883 1.387 . S
C1885 C1887 1.390 . S
C1885 H1889 0.950 . S
H1886 C1882 0.950 . S
C1887 C1885 1.390 . S
C1887 C1888 1.387 . S
C1887 H1890 0.950 . S
C1888 C1887 1.387 . S
C1888 C1891 1.387 . S
H1889 C1885 0.950 . S
H1890 C1887 0.950 . S
C1891 C1882 1.390 . S
C1891 H1884 0.950 . S
C1891 C1888 1.387 . S
C1892 C1893 1.387 . S
C1892 H1896 0.950 . S
C1892 C1901 1.390 . S
C1893 C1892 1.387 . S
C1893 C1895 1.387 . S
H1894 C1901 0.950 . S
C1895 C1893 1.387 . S
C1895 C1897 1.390 . S
C1895 H1899 0.950 . S
H1896 C1892 0.950 . S
C1897 C1895 1.390 . S
C1897 C1898 1.387 . S
C1897 H1900 0.950 . S
C1898 C1897 1.387 . S
C1898 C1901 1.387 . S
H1899 C1895 0.950 . S
H1900 C1897 0.950 . S
C1901 C1892 1.390 . S
C1901 H1894 0.950 . S
C1901 C1898 1.387 . S
C1902 C1903 1.387 . S
C1902 H1906 0.950 . S
C1902 C1911 1.390 . S
C1903 C1902 1.387 . S
C1903 C1905 1.387 . S
H1904 C1911 0.950 . S
C1905 C1903 1.387 . S
C1905 C1907 1.390 . S
C1905 H1909 0.950 1_556 S
H1906 C1902 0.950 . S
C1907 C1905 1.390 . S
C1907 C1908 1.387 . S
C1907 H1910 0.950 . S
C1908 C1907 1.387 . S
C1908 C1911 1.387 . S
H1909 C1905 0.950 1_554 S
H1910 C1907 0.950 . S
C1911 C1902 1.390 . S
C1911 H1904 0.950 . S
C1911 C1908 1.387 . S
C1912 C1913 1.387 . S
C1912 H1916 0.950 . S
C1912 C1921 1.390 . S
C1913 C1912 1.387 . S
C1913 C1915 1.387 . S
H1914 C1921 0.950 . S
C1915 C1913 1.387 . S
C1915 C1917 1.390 . S
C1915 H1919 0.950 . S
H1916 C1912 0.950 . S
C1917 C1915 1.390 . S
C1917 C1918 1.387 . S
C1917 H1920 0.950 . S
C1918 C1917 1.387 . S
C1918 C1921 1.387 . S
H1919 C1915 0.950 . S
H1920 C1917 0.950 . S
C1921 C1912 1.390 . S
C1921 H1914 0.950 . S
C1921 C1918 1.387 . S
C1922 C1923 1.387 . S
C1922 H1926 0.950 . S
C1922 C1931 1.390 . S
C1923 C1922 1.387 . S
C1923 C1925 1.387 . S
H1924 C1931 0.950 . S
C1925 C1923 1.387 . S
C1925 C1927 1.390 . S
C1925 H1929 0.981 . S
H1926 C1922 0.950 . S
C1927 C1925 1.390 . S
C1927 C1928 1.387 . S
C1927 H1930 0.950 . S
C1928 C1927 1.387 . S
C1928 C1931 1.387 . S
H1929 C1925 0.981 . S
H1930 C1927 0.950 . S
C1931 C1922 1.390 . S
C1931 H1924 0.950 . S
C1931 C1928 1.387 . S
C1932 C1933 1.387 . S
C1932 H1936 0.950 . S
C1932 C1941 1.390 . S
C1933 C1932 1.387 . S
C1933 C1935 1.387 . S
H1934 C1941 0.950 . S
C1935 C1933 1.387 . S
C1935 C1937 1.390 . S
C1935 H1939 0.950 . S
H1936 C1932 0.950 . S
C1937 C1935 1.390 . S
C1937 C1938 1.387 . S
C1937 H1940 0.950 . S
C1938 C1937 1.387 . S
C1938 C1941 1.387 . S
H1939 C1935 0.950 . S
H1940 C1937 0.950 . S
C1941 C1932 1.390 . S
C1941 H1934 0.950 . S
C1941 C1938 1.387 . S
C1942 C1943 1.387 . S
C1942 H1946 0.950 . S
C1942 C1951 1.390 . S
C1943 C1942 1.387 . S
C1943 C1945 1.387 . S
H1944 C1951 0.950 . S
C1945 C1943 1.387 . S
C1945 C1947 1.390 . S
C1945 H1949 0.950 . S
H1946 C1942 0.950 . S
C1947 C1945 1.390 . S
C1947 C1948 1.387 . S
C1947 H1950 0.950 . S
C1948 C1947 1.387 . S
C1948 C1951 1.387 . S
H1949 C1945 0.950 . S
H1950 C1947 0.950 . S
C1951 C1942 1.390 . S
C1951 H1944 0.950 . S
C1951 C1948 1.387 . S
C1952 C1953 1.387 . S
C1952 H1956 0.950 1_556 S
C1952 C1961 1.390 . S
C1953 C1952 1.387 . S
C1953 C1955 1.387 . S
H1954 C1961 0.950 . S
C1955 C1953 1.387 . S
C1955 C1957 1.390 . S
C1955 H1959 0.950 . S
H1956 C1952 0.950 1_554 S
C1957 C1955 1.390 . S
C1957 C1958 1.387 . S
C1957 H1960 0.950 . S
C1958 C1957 1.387 . S
C1958 C1961 1.387 . S
H1959 C1955 0.950 . S
H1960 C1957 0.950 . S
C1961 C1952 1.390 . S
C1961 H1954 0.950 . S
C1961 C1958 1.387 . S
C1962 C1963 1.387 . S
C1962 H1966 0.950 . S
C1962 C1971 1.390 . S
C1963 C1962 1.387 . S
C1963 C1965 1.387 . S
H1964 C1971 0.950 . S
C1965 C1963 1.387 . S
C1965 C1967 1.390 . S
C1965 H1969 0.950 . S
H1966 C1962 0.950 . S
C1967 C1965 1.390 . S
C1967 C1968 1.387 . S
C1967 H1970 0.950 . S
C1968 C1967 1.387 . S
C1968 C1971 1.387 . S
H1969 C1965 0.950 . S
H1970 C1967 0.950 . S
C1971 C1962 1.390 . S
C1971 H1964 0.950 . S
C1971 C1968 1.387 . S
C1972 C1973 1.387 . S
C1972 H1976 0.950 . S
C1972 C1981 1.390 . S
C1973 C1972 1.387 . S
C1973 C1975 1.387 . S
H1974 C1981 0.950 . S
C1975 C1973 1.387 . S
C1975 C1977 1.390 . S
C1975 H1979 0.950 . S
H1976 C1972 0.950 . S
C1977 C1975 1.390 . S
C1977 C1978 1.387 . S
C1977 H1980 0.950 . S
C1978 C1977 1.387 . S
C1978 C1981 1.387 . S
H1979 C1975 0.950 . S
H1980 C1977 0.950 . S
C1981 C1972 1.390 . S
C1981 H1974 0.950 . S
C1981 C1978 1.387 . S
C1982 C1983 1.387 . S
C1982 H1986 0.950 . S
C1982 C1991 1.390 . S
C1983 C1982 1.387 . S
C1983 C1985 1.387 . S
H1984 C1991 0.950 . S
C1985 C1983 1.387 . S
C1985 C1987 1.390 . S
C1985 H1989 0.950 . S
H1986 C1982 0.950 . S
C1987 C1985 1.390 . S
C1987 C1988 1.387 . S
C1987 H1990 0.950 . S
C1988 C1987 1.387 . S
C1988 C1991 1.387 . S
H1989 C1985 0.950 . S
H1990 C1987 0.950 . S
C1991 C1982 1.390 . S
C1991 H1984 0.950 . S
C1991 C1988 1.387 . S
C1992 C1993 1.387 . S
C1992 H1996 0.950 . S
C1992 C2001 1.390 . S
C1993 C1992 1.387 . S
C1993 C1995 1.387 . S
H1994 C2001 0.950 . S
C1995 C1993 1.387 . S
C1995 C1997 1.390 . S
C1995 H1999 0.950 . S
H1996 C1992 0.950 . S
C1997 C1995 1.390 . S
C1997 C1998 1.387 . S
C1997 H2000 0.950 . S
C1998 C1997 1.387 . S
C1998 C2001 1.387 . S
H1999 C1995 0.950 . S
H2000 C1997 0.950 . S
C2001 C1992 1.390 . S
C2001 H1994 0.950 . S
C2001 C1998 1.387 . S
C2002 C2003 1.387 . S
C2002 H2006 0.950 . S
C2002 C2011 1.390 . S
C2003 C2002 1.387 . S
C2003 C2005 1.387 . S
H2004 C2011 0.950 . S
C2005 C2003 1.387 . S
C2005 C2007 1.390 . S
C2005 H2009 0.950 . S
H2006 C2002 0.950 . S
C2007 C2005 1.390 . S
C2007 C2008 1.387 . S
C2007 H2010 0.950 . S
C2008 C2007 1.387 . S
C2008 C2011 1.387 . S
H2009 C2005 0.950 . S
H2010 C2007 0.950 . S
C2011 C2002 1.390 . S
C2011 H2004 0.950 . S
C2011 C2008 1.387 . S
C2012 C2013 1.387 . S
C2012 H2016 0.950 . S
C2012 C2021 1.390 . S
C2013 C2012 1.387 . S
C2013 C2015 1.387 . S
H2014 C2021 0.950 . S
C2015 C2013 1.387 . S
C2015 C2017 1.390 . S
C2015 H2019 0.950 . S
H2016 C2012 0.950 . S
C2017 C2015 1.390 . S
C2017 C2018 1.387 . S
C2017 H2020 0.950 . S
C2018 C2017 1.387 . S
C2018 C2021 1.387 . S
H2019 C2015 0.950 . S
H2020 C2017 0.950 . S
C2021 C2012 1.390 . S
C2021 H2014 0.950 . S
C2021 C2018 1.387 . S
C2022 C2023 1.387 1_655 S
C2022 H2026 0.950 . S
C2022 C2031 1.390 . S
C2023 C2022 1.387 1_455 S
C2023 C2025 1.387 . S
H2024 C2031 0.950 . S
C2025 C2023 1.387 . S
C2025 C2027 1.390 . S
C2025 H2029 0.950 . S
H2026 C2022 0.950 . S
C2027 C2025 1.390 . S
C2027 C2028 1.387 . S
C2027 H2030 0.950 . S
C2028 C2027 1.387 . S
C2028 C2031 1.387 1_455 S
H2029 C2025 0.950 . S
H2030 C2027 0.950 . S
C2031 C2022 1.390 . S
C2031 H2024 0.950 . S
C2031 C2028 1.387 1_655 S
C2032 C2033 1.387 . S
C2032 H2036 0.950 . S
C2032 C2041 1.390 . S
C2033 C2032 1.387 . S
C2033 C2035 1.387 . S
H2034 C2041 0.950 . S
C2035 C2033 1.387 . S
C2035 C2037 1.390 . S
C2035 H2039 0.950 . S
H2036 C2032 0.950 . S
C2037 C2035 1.390 . S
C2037 C2038 1.387 . S
C2037 H2040 0.950 . S
C2038 C2037 1.387 . S
C2038 C2041 1.387 . S
H2039 C2035 0.950 . S
H2040 C2037 0.950 . S
C2041 C2032 1.390 . S
C2041 H2034 0.950 . S
C2041 C2038 1.387 . S
C2042 C2043 1.387 1_545 S
C2042 H2046 0.950 . S
C2042 C2051 1.390 . S
C2043 C2042 1.387 1_565 S
C2043 C2045 1.387 . S
H2044 C2051 0.950 . S
C2045 C2043 1.387 . S
C2045 C2047 1.390 . S
C2045 H2049 0.950 . S
H2046 C2042 0.950 . S
C2047 C2045 1.390 . S
C2047 C2048 1.387 . S
C2047 H2050 0.950 . S
C2048 C2047 1.387 . S
C2048 C2051 1.387 1_565 S
H2049 C2045 0.950 . S
H2050 C2047 0.950 . S
C2051 C2042 1.390 . S
C2051 H2044 0.950 . S
C2051 C2048 1.387 1_545 S
C2052 C2053 1.387 . S
C2052 H2056 0.950 . S
C2052 C2061 1.390 . S
C2053 C2052 1.387 . S
C2053 C2055 1.387 1_565 S
H2054 C2061 0.950 . S
C2055 C2053 1.387 1_545 S
C2055 C2057 1.390 . S
C2055 H2059 0.950 . S
H2056 C2052 0.950 . S
C2057 C2055 1.390 . S
C2057 C2058 1.387 1_545 S
C2057 H2060 0.950 . S
C2058 C2057 1.387 1_565 S
C2058 C2061 1.387 . S
H2059 C2055 0.950 . S
H2060 C2057 0.950 . S
C2061 C2052 1.390 . S
C2061 H2054 0.950 . S
C2061 C2058 1.387 . S
C2062 C2063 1.387 . S
C2062 H2066 0.950 . S
C2062 C2071 1.390 . S
C2063 C2062 1.387 . S
C2063 C2065 1.387 . S
H2064 C2071 0.950 . S
C2065 C2063 1.387 . S
C2065 C2067 1.376 . S
C2065 H2069 0.970 . S
H2066 C2062 0.950 . S
C2067 C2065 1.376 . S
C2067 C2068 1.411 . S
C2067 H2070 0.942 1_455 S
C2068 C2067 1.411 . S
C2068 C2071 1.387 . S
H2069 C2065 0.970 . S
H2070 C2067 0.942 1_655 S
C2071 C2062 1.390 . S
C2071 H2064 0.950 . S
C2071 C2068 1.387 . S
C2072 C2073 1.387 . S
C2072 H2076 0.950 . S
C2072 C2081 1.390 . S
C2073 C2072 1.387 . S
C2073 C2075 1.387 . S
H2074 C2081 0.950 . S
C2075 C2073 1.387 . S
C2075 C2077 1.390 . S
C2075 H2079 0.950 . S
H2076 C2072 0.950 . S
C2077 C2075 1.390 . S
C2077 C2078 1.387 . S
C2077 H2080 0.950 . S
C2078 C2077 1.387 . S
C2078 C2081 1.387 . S
H2079 C2075 0.950 . S
H2080 C2077 0.950 . S
C2081 C2072 1.390 . S
C2081 H2074 0.950 . S
C2081 C2078 1.387 . S
C2082 C2083 1.387 . S
C2082 H2086 0.950 . S
C2082 C2091 1.390 . S
C2083 C2082 1.387 . S
C2083 C2085 1.387 . S
H2084 C2091 0.950 . S
C2085 C2083 1.387 . S
C2085 C2087 1.390 . S
C2085 H2089 0.950 . S
H2086 C2082 0.950 . S
C2087 C2085 1.390 . S
C2087 C2088 1.387 . S
C2087 H2090 0.950 . S
C2088 C2087 1.387 . S
C2088 C2091 1.387 . S
H2089 C2085 0.950 . S
H2090 C2087 0.950 . S
C2091 C2082 1.390 . S
C2091 H2084 0.950 . S
C2091 C2088 1.387 . S
C2092 C2093 1.387 . S
C2092 H2096 0.950 . S
C2092 C2101 1.390 . S
C2093 C2092 1.387 . S
C2093 C2095 1.387 . S
H2094 C2101 0.950 . S
C2095 C2093 1.387 . S
C2095 C2097 1.390 . S
C2095 H2099 0.950 . S
H2096 C2092 0.950 . S
C2097 C2095 1.390 . S
C2097 C2098 1.387 . S
C2097 H2100 0.950 . S
C2098 C2097 1.387 . S
C2098 C2101 1.387 . S
H2099 C2095 0.950 . S
H2100 C2097 0.950 . S
C2101 C2092 1.390 . S
C2101 H2094 0.950 . S
C2101 C2098 1.387 . S
C2102 C2103 1.387 . S
C2102 H2106 0.950 . S
C2102 C2111 1.390 . S
C2103 C2102 1.387 . S
C2103 C2105 1.387 . S
H2104 C2111 0.950 . S
C2105 C2103 1.387 . S
C2105 C2107 1.390 . S
C2105 H2109 0.950 . S
H2106 C2102 0.950 . S
C2107 C2105 1.390 . S
C2107 C2108 1.387 . S
C2107 H2110 0.950 . S
C2108 C2107 1.387 . S
C2108 C2111 1.387 . S
H2109 C2105 0.950 . S
H2110 C2107 0.950 . S
C2111 C2102 1.390 . S
C2111 H2104 0.950 . S
C2111 C2108 1.387 . S
C2112 C2113 1.387 1_565 S
C2112 H2116 0.950 . S
C2112 C2121 1.390 . S
C2113 C2112 1.387 1_545 S
C2113 C2115 1.387 . S
H2114 C2121 0.950 . S
C2115 C2113 1.387 . S
C2115 C2117 1.390 . S
C2115 H2119 0.950 . S
H2116 C2112 0.950 . S
C2117 C2115 1.390 . S
C2117 C2118 1.387 . S
C2117 H2120 0.950 . S
C2118 C2117 1.387 . S
C2118 C2121 1.387 1_545 S
H2119 C2115 0.950 . S
H2120 C2117 0.950 . S
C2121 C2112 1.390 . S
C2121 H2114 0.950 . S
C2121 C2118 1.387 1_565 S
C2122 C2123 1.387 1_455 S
C2122 H2126 0.950 . S
C2122 C2131 1.390 . S
C2123 C2122 1.387 1_655 S
C2123 C2125 1.387 . S
H2124 C2131 0.950 . S
C2125 C2123 1.387 . S
C2125 C2127 1.390 . S
C2125 H2129 0.950 . S
H2126 C2122 0.950 . S
C2127 C2125 1.390 . S
C2127 C2128 1.387 . S
C2127 H2130 0.950 . S
C2128 C2127 1.387 . S
C2128 C2131 1.387 1_655 S
H2129 C2125 0.950 . S
H2130 C2127 0.950 . S
C2131 C2122 1.390 . S
C2131 H2124 0.950 . S
C2131 C2128 1.387 1_455 S
C2132 C2133 1.387 . S
C2132 H2136 0.950 . S
C2132 C2141 1.390 . S
C2133 C2132 1.387 . S
C2133 C2135 1.387 . S
H2134 C2141 0.950 . S
C2135 C2133 1.387 . S
C2135 C2137 1.390 . S
C2135 H2139 0.950 . S
H2136 C2132 0.950 . S
C2137 C2135 1.390 . S
C2137 C2138 1.387 . S
C2137 H2140 0.950 . S
C2138 C2137 1.387 . S
C2138 C2141 1.387 . S
H2139 C2135 0.950 . S
H2140 C2137 0.950 . S
C2141 C2132 1.390 . S
C2141 H2134 0.950 . S
C2141 C2138 1.387 . S
C2142 C2143 1.387 . S
C2142 H2146 0.950 . S
C2142 C2151 1.390 . S
C2143 C2142 1.387 . S
C2143 C2145 1.387 . S
H2144 C2151 0.950 . S
C2145 C2143 1.387 . S
C2145 C2147 1.390 . S
C2145 H2149 0.950 . S
H2146 C2142 0.950 . S
C2147 C2145 1.390 . S
C2147 C2148 1.387 . S
C2147 H2150 0.950 . S
C2148 C2147 1.387 . S
C2148 C2151 1.387 . S
H2149 C2145 0.950 . S
H2150 C2147 0.950 . S
C2151 C2142 1.390 . S
C2151 H2144 0.950 . S
C2151 C2148 1.387 . S
C2152 C2153 1.387 . S
C2152 H2156 0.950 . S
C2152 C2161 1.390 . S
C2153 C2152 1.387 . S
C2153 C2155 1.387 . S
H2154 C2161 0.950 . S
C2155 C2153 1.387 . S
C2155 C2157 1.390 . S
C2155 H2159 0.950 . S
H2156 C2152 0.950 . S
C2157 C2155 1.390 . S
C2157 C2158 1.387 . S
C2157 H2160 0.950 . S
C2158 C2157 1.387 . S
C2158 C2161 1.387 . S
H2159 C2155 0.950 . S
H2160 C2157 0.950 . S
C2161 C2152 1.390 . S
C2161 H2154 0.950 . S
C2161 C2158 1.387 . S
C2162 C2163 1.387 . S
C2162 H2166 0.950 . S
C2162 C2171 1.390 . S
C2163 C2162 1.387 . S
C2163 C2165 1.387 . S
H2164 C2171 0.950 . S
C2165 C2163 1.387 . S
C2165 C2167 1.390 . S
C2165 H2169 0.950 . S
H2166 C2162 0.950 . S
C2167 C2165 1.390 . S
C2167 C2168 1.387 . S
C2167 H2170 0.950 . S
C2168 C2167 1.387 . S
C2168 C2171 1.387 . S
H2169 C2165 0.950 . S
H2170 C2167 0.950 . S
C2171 C2162 1.390 . S
C2171 H2164 0.950 . S
C2171 C2168 1.387 . S
C2172 C2173 1.387 . S
C2172 H2176 0.950 . S
C2172 C2181 1.390 . S
C2173 C2172 1.387 . S
C2173 C2175 1.387 . S
H2174 C2181 0.950 . S
C2175 C2173 1.387 . S
C2175 C2177 1.390 . S
C2175 H2179 0.950 . S
H2176 C2172 0.950 . S
C2177 C2175 1.390 . S
C2177 C2178 1.387 . S
C2177 H2180 0.950 . S
C2178 C2177 1.387 . S
C2178 C2181 1.387 . S
H2179 C2175 0.950 . S
H2180 C2177 0.950 . S
C2181 C2172 1.390 . S
C2181 H2174 0.950 . S
C2181 C2178 1.387 . S
C2182 C2183 1.387 . S
C2182 H2186 0.950 . S
C2182 C2191 1.390 . S
C2183 C2182 1.387 . S
C2183 C2185 1.387 . S
H2184 C2191 0.950 . S
C2185 C2183 1.387 . S
C2185 C2187 1.390 . S
C2185 H2189 0.950 . S
H2186 C2182 0.950 . S
C2187 C2185 1.390 . S
C2187 C2188 1.387 . S
C2187 H2190 0.950 . S
C2188 C2187 1.387 . S
C2188 C2191 1.387 . S
H2189 C2185 0.950 . S
H2190 C2187 0.950 . S
C2191 C2182 1.390 . S
C2191 H2184 0.950 . S
C2191 C2188 1.387 . S
C2192 C2193 1.387 . S
C2192 H2196 0.950 . S
C2192 C2201 1.390 . S
C2193 C2192 1.387 . S
C2193 C2195 1.387 . S
H2194 C2201 0.950 . S
C2195 C2193 1.387 . S
C2195 C2197 1.390 . S
C2195 H2199 0.950 . S
H2196 C2192 0.950 . S
C2197 C2195 1.390 . S
C2197 C2198 1.387 . S
C2197 H2200 0.950 . S
C2198 C2197 1.387 . S
C2198 C2201 1.387 . S
H2199 C2195 0.950 . S
H2200 C2197 0.950 . S
C2201 C2192 1.390 . S
C2201 H2194 0.950 . S
C2201 C2198 1.387 . S
C2202 C2203 1.387 . S
C2202 H2206 0.950 . S
C2202 C2211 1.390 . S
C2203 C2202 1.387 . S
C2203 C2205 1.387 . S
H2204 C2211 0.950 . S
C2205 C2203 1.387 . S
C2205 C2207 1.390 . S
C2205 H2209 0.950 . S
H2206 C2202 0.950 . S
C2207 C2205 1.390 . S
C2207 C2208 1.387 . S
C2207 H2210 0.950 . S
C2208 C2207 1.387 . S
C2208 C2211 1.387 . S
H2209 C2205 0.950 . S
H2210 C2207 0.950 . S
C2211 C2202 1.390 . S
C2211 H2204 0.950 . S
C2211 C2208 1.387 . S
C2212 C2213 1.387 . S
C2212 H2216 0.950 . S
C2212 C2221 1.390 . S
C2213 C2212 1.387 . S
C2213 C2215 1.387 . S
H2214 C2221 0.950 . S
C2215 C2213 1.387 . S
C2215 C2217 1.390 . S
C2215 H2219 0.950 . S
H2216 C2212 0.950 . S
C2217 C2215 1.390 . S
C2217 C2218 1.387 . S
C2217 H2220 0.950 . S
C2218 C2217 1.387 . S
C2218 C2221 1.387 . S
H2219 C2215 0.950 . S
H2220 C2217 0.950 . S
C2221 C2212 1.390 . S
C2221 H2214 0.950 . S
C2221 C2218 1.387 . S
C2222 C2223 1.387 . S
C2222 H2226 0.950 . S
C2222 C2231 1.390 . S
C2223 C2222 1.387 . S
C2223 C2225 1.387 1_545 S
H2224 C2231 0.950 . S
C2225 C2223 1.387 1_565 S
C2225 C2227 1.390 . S
C2225 H2229 0.950 . S
H2226 C2222 0.950 . S
C2227 C2225 1.390 . S
C2227 C2228 1.387 1_565 S
C2227 H2230 0.950 . S
C2228 C2227 1.387 1_545 S
C2228 C2231 1.387 . S
H2229 C2225 0.950 . S
H2230 C2227 0.950 . S
C2231 C2222 1.390 . S
C2231 H2224 0.950 . S
C2231 C2228 1.387 . S
C1513 C4 1.487 . S
C1518 C1125 1.472 . S
C1523 C38 1.725 . S
C1528 C1173 1.716 . S
C1538 C1221 1.496 . S
C1533 C74 1.479 . S
C1543 C76 1.447 . S
C1548 C1245 1.474 . S
C1553 C2 1.554 . S
C1558 C1317 1.588 . S
C1563 C40 1.571 . S
C1568 C1365 1.559 . S
C1573 C110 1.526 . S
C1578 C1293 1.562 . S
C1588 C1341 1.566 . S
C1583 C148 1.587 . S
C1598 C1269 1.547 . S
C1593 C182 1.529 . S
C1603 C184 1.490 . S
C1608 C1197 1.522 . S
C1618 C1101 1.472 . S
C1613 C112 1.455 . S
C1623 C146 1.670 . S
C1628 C1149 1.660 . S
C1633 C220 1.658 . S
C1638 C1413 1.639 . S
C1643 C254 1.799 . S
C1648 C1461 1.779 . S
C1658 C1485 1.640 . S
C1653 C290 1.687 . S
C1663 C292 1.580 . S
C1668 C669 1.551 . S
C1673 C218 1.711 . S
C1678 C741 1.704 . S
C1683 C256 1.609 . S
C1688 C789 1.586 . S
C1693 C326 1.707 . S
C1698 C717 1.688 . S
C1703 C364 1.644 . S
C1708 C765 1.613 . S
C1718 C693 1.644 . S
C1713 C398 1.714 . S
C1728 C1509 1.620 . S
C1723 C400 1.673 . S
C1738 C1389 1.550 . S
C1733 C328 1.570 . S
C1748 C1437 1.720 . S
C1743 C362 1.744 . S
C1753 C436 1.600 . S
C1758 C837 1.583 . S
C1763 C470 1.774 . S
C1768 C885 1.757 . S
C1773 C506 1.682 . S
C1778 C909 1.640 . S
C1783 C508 1.639 . S
C1788 C957 1.606 . S
C1798 C1029 1.702 . S
C1793 C434 1.712 . S
C1808 C1077 1.608 . S
C1803 C472 1.632 . S
C1818 C1005 1.753 . S
C1813 C542 1.771 . S
C1828 C1053 1.630 . S
C1823 C580 1.662 . S
C1833 C614 1.710 . S
C1838 C981 1.636 . S
C1848 C933 1.558 . S
C1843 C616 1.608 . S
C1853 C544 1.574 . S
C1858 C813 1.557 . S
C1868 C861 1.689 . S
C1863 C578 1.710 . S
C1878 C678 1.657 . S
C1873 C14 1.656 . S
C1883 C39 1.579 . S
C1888 C732 1.539 . S
C1898 C780 1.545 . S
C1893 C75 1.592 . S
C1908 C828 1.489 . S
C1903 C86 1.514 . S
C1918 C876 1.580 . S
C1913 C3 1.620 . S
C1928 C918 1.586 . S
C1923 C50 1.585 . S
C1933 C111 1.605 . S
C1938 C924 1.588 . S
C1943 C158 1.552 . S
C1948 C822 1.487 . S
C1953 C183 1.693 . S
C1958 C870 1.628 . S
C1963 C194 1.630 . S
C1968 C726 1.587 . S
C1978 C774 1.516 . S
C1973 C122 1.581 . S
C1983 C147 1.509 . S
C1988 C684 1.492 . S
C1998 C966 1.622 . S
C1993 C230 1.624 . S
C2003 C255 1.658 . S
C2008 C1020 1.617 . S
C2013 C291 1.612 . S
C2018 C1068 1.563 . S
C2028 C1116 1.375 . S
C2023 C302 1.325 . S
C2033 C219 1.590 . S
C2038 C1164 1.555 . S
C2043 C266 1.392 . S
C2048 C1212 1.455 . S
C2053 C327 1.393 . S
C2058 C1206 1.384 . S
C2063 C374 1.370 . S
C2068 C1110 1.414 . S
C2078 C1158 1.594 . S
C2073 C399 1.653 . S
C2083 C410 1.602 . S
C2088 C1014 1.560 . S
C2093 C338 1.605 . S
C2098 C1062 1.559 . S
C2108 C972 1.567 . S
C2103 C363 1.587 . S
C2118 C1254 1.457 . S
C2113 C446 1.398 . S
C2123 C471 1.439 . S
C2128 C1308 1.436 . S
C2133 C507 1.554 . S
C2138 C1356 1.512 . S
C2148 C1404 1.471 . S
C2143 C518 1.503 . S
C2158 C1452 1.613 . S
C2153 C435 1.653 . S
C2163 C482 1.641 . S
C2168 C1494 1.655 . S
C2173 C543 1.563 . S
C2178 C1500 1.540 . S
C2183 C590 1.610 . S
C2188 C1398 1.568 . S
C2198 C1446 1.641 . S
C2193 C615 1.704 . S
C2208 C1302 1.454 . S
C2203 C626 1.388 . S
C2218 C1350 1.518 . S
C2213 C554 1.563 . S
C2223 C579 1.393 . S
C2228 C1260 1.392 . S
