# Generated by pormake.
# Topology zzz, (3,6)-cn, num edge types: 1
# Building blocks:
#     Node 0, Type 0, BuildingBlock: QEWDON_clean_linker_0, # of connection points: 3
#     Node 1, Type 0, BuildingBlock: QEWDON_clean_linker_0, # of connection points: 3
#     Node 2, Type 0, BuildingBlock: QEWDON_clean_linker_0, # of connection points: 3
#     Node 3, Type 0, BuildingBlock: QEWDON_clean_linker_0, # of connection points: 3
#     Node 4, Type 0, BuildingBlock: QEWDON_clean_linker_0, # of connection points: 3
#     Node 5, Type 0, BuildingBlock: QEWDON_clean_linker_0, # of connection points: 3
#     Node 6, Type 0, BuildingBlock: QEWDON_clean_linker_0, # of connection points: 3
#     Node 7, Type 0, BuildingBlock: QEWDON_clean_linker_0, # of connection points: 3
#     Node 8, Type 1, BuildingBlock: PAMTOO_clean_sbu_0, # of connection points: 6
#     Node 9, Type 1, BuildingBlock: PAMTOO_clean_sbu_0, # of connection points: 6
#     Node 10, Type 1, BuildingBlock: PAMTOO_clean_sbu_0, # of connection points: 6
#     Node 11, Type 1, BuildingBlock: PAMTOO_clean_sbu_0, # of connection points: 6
#     Edge 12, Type (0, 1), None
#     Edge 13, Type (0, 1), None
#     Edge 14, Type (0, 1), None
#     Edge 15, Type (0, 1), None
#     Edge 16, Type (0, 1), None
#     Edge 17, Type (0, 1), None
#     Edge 18, Type (0, 1), None
#     Edge 19, Type (0, 1), None
#     Edge 20, Type (0, 1), None
#     Edge 21, Type (0, 1), None
#     Edge 22, Type (0, 1), None
#     Edge 23, Type (0, 1), None
#     Edge 24, Type (0, 1), None
#     Edge 25, Type (0, 1), None
#     Edge 26, Type (0, 1), None
#     Edge 27, Type (0, 1), None
#     Edge 28, Type (0, 1), None
#     Edge 29, Type (0, 1), None
#     Edge 30, Type (0, 1), None
#     Edge 31, Type (0, 1), None
#     Edge 32, Type (0, 1), None
#     Edge 33, Type (0, 1), None
#     Edge 34, Type (0, 1), None
#     Edge 35, Type (0, 1), None
# Relax obj value: 0.369
# Max RMSD: 0.259
# Mean RMSD: 0.115
data_MOF--net-zzz--node1-PAMTOO_clean_sbu_0--node2-QEWDON_clean_linker_0--edge1-none
_symmetry_space_group_name_H-M    P1
_symmetry_Int_Tables_number       1
_symmetry_cell_setting            triclinic
loop_
_symmetry_equiv_pos_as_xyz
'x, y, z'
_cell_length_a     30.126222
_cell_length_b     23.560642
_cell_length_c     8.2223068
_cell_angle_alpha  91.527041
_cell_angle_beta   72.952046
_cell_angle_gamma 86.795478
loop_
_atom_site_label
_atom_site_type_symbol
_atom_site_fract_x
_atom_site_fract_y
_atom_site_fract_z
_atom_type_partial_charge
H0 H 0.85509 0.52839 0.73095 0.0
C1 C 0.89105 0.52509 0.73164 0.0
C2 C 0.90864 0.47465 0.78023 0.0
C3 C 0.92078 0.56651 0.65491 0.0
H4 H 0.97034 0.43244 0.8165 0.0
C5 C 0.95461 0.47236 0.79275 0.0
C6 C 0.98233 0.51955 0.76233 0.0
C7 C 0.96592 0.56623 0.68201 0.0
C8 C 0.90209 0.60719 0.54736 0.0
H9 H 0.98807 0.60079 0.63908 0.0
C10 C 0.87174 0.58889 0.4527 0.0
C11 C 0.84782 0.62804 0.37306 0.0
C12 C 0.91121 0.66469 0.54715 0.0
H13 H 0.93598 0.67991 0.60719 0.0
C14 C 0.88676 0.7039 0.47609 0.0
H15 H 0.86751 0.54393 0.43932 0.0
C16 C 0.85459 0.6863 0.39562 0.0
H17 H 0.83583 0.71925 0.34878 0.0
H18 H 0.89262 0.74867 0.48418 0.0
H19 H 1.03957 0.72422 0.69754 0.0
C20 C 1.03826 0.76622 0.75673 0.0
C21 C 1.06817 0.80629 0.67099 0.0
C22 C 1.00629 0.78047 0.91855 0.0
H23 H 0.08654 0.89293 0.67046 0.0
C24 C 1.06454 0.86135 0.74092 0.0
C25 C 1.03429 0.87735 0.89892 0.0
C26 C 1.00471 0.83663 -0.00841 0.0
C27 C 0.97405 0.73585 -0.00183 0.0
H28 H 0.98112 0.84822 0.11669 0.0
C29 C 0.98675 0.69486 0.10168 0.0
C30 C 0.96702 0.64049 0.12279 0.0
C31 C 0.93763 0.72464 0.93109 0.0
H32 H 0.92737 0.75452 0.84869 0.0
C33 C 0.91677 0.67278 0.95711 0.0
H34 H 1.01476 0.70401 0.1539 0.0
C35 C 0.93213 0.63038 0.04755 0.0
H36 H 0.91721 0.58941 0.05623 0.0
H37 H 0.89019 0.66413 0.89783 0.0
H38 H 0.82965 0.09995 0.34291 0.0
C39 C 0.80062 0.07836 0.42039 0.0
C40 C 0.75623 0.09611 0.41522 0.0
C41 C 0.8072 0.03578 0.5295 0.0
H42 H 0.68285 0.08506 0.50403 0.0
C43 C 0.71692 0.07051 0.51291 0.0
C44 C 0.71949 1.03039 0.63087 0.0
C45 C 0.76538 1.01299 0.64067 0.0
C46 C 0.85743 1.02108 0.53359 0.0
H47 H 0.76808 0.98285 0.73465 0.0
C48 C 0.89865 1.03086 0.39464 0.0
C49 C 0.94499 1.02173 0.40899 0.0
C50 C 0.8648 1.00067 0.68319 0.0
H51 H 0.83585 0.99364 0.79327 0.0
C52 C 0.90969 0.99069 0.69699 0.0
H53 H 0.89509 0.04513 0.27496 0.0
C54 C 0.94896 1.00111 0.56331 0.0
H55 H 0.9828 0.99261 0.58182 0.0
H56 H 0.91415 0.97514 0.81436 0.0
H57 H 0.58486 0.72495 0.10817 0.0
C58 C 0.58557 0.70364 0.22254 0.0
C59 C 0.57298 0.64608 0.24025 0.0
C60 C 0.60176 0.73219 0.34681 0.0
H61 H 0.56898 0.57255 0.39073 0.0
C62 C 0.57692 0.61699 0.38095 0.0
C63 C 0.59558 0.64154 0.49999 0.0
C64 C 0.6065 0.69934 0.4865 0.0
C65 C 0.61764 0.79357 0.32675 0.0
H66 H 0.61791 0.71837 0.58721 0.0
C67 C 0.59984 0.83775 0.23885 0.0
C68 C 0.61529 0.89494 0.23454 0.0
C69 C 0.65271 0.8083 0.39915 0.0
H70 H 0.66986 0.77702 0.4581 0.0
C71 C 0.66757 0.86328 0.39544 0.0
H72 H 0.57374 0.8282 0.17739 0.0
C73 C 0.64901 0.90592 0.31625 0.0
H74 H 0.66189 0.94789 0.31766 0.0
H75 H 0.69421 0.87294 0.45432 0.0
H76 H 0.27449 0.52301 0.38012 0.0
C77 C 0.25022 0.50959 0.31505 0.0
C78 C 0.2079 0.54054 0.34884 0.0
C79 C 0.26633 0.4696 0.18016 0.0
H80 H 0.1472 0.55479 0.26867 0.0
C81 C 0.17903 0.5292 0.24606 0.0
C82 C 0.19142 0.48635 0.11314 0.0
C83 C 0.2366 0.45754 0.07714 0.0
C84 C 0.3184 0.46132 0.12652 0.0
H85 H 0.24929 0.42857 0.96662 0.0
C86 C 0.34172 0.45066 0.2542 0.0
C87 C 0.37738 0.48573 0.27238 0.0
C88 C 0.33875 0.49733 -0.00316 0.0
H89 H 0.3228 0.50609 0.89702 0.0
C90 C 0.37144 0.53372 0.01889 0.0
H91 H 0.32652 0.42294 0.35587 0.0
C92 C 0.38985 0.52873 0.15531 0.0
H93 H 0.41504 0.55848 0.1655 0.0
H94 H 0.38185 0.56739 0.93156 0.0
H95 H 0.14445 0.35265 0.2739 0.0
C96 C 0.1338 0.31429 0.22594 0.0
C97 C 0.14585 0.26313 0.28934 0.0
C98 C 0.09788 0.31554 0.14704 0.0
H99 H 0.16782 0.17723 0.20369 0.0
C100 C 0.14853 0.21519 0.18278 0.0
C101 C 0.11196 0.20959 0.11174 0.0
C102 C 0.0863 0.26119 0.09137 0.0
C103 C 1.0664 0.37006 0.17129 0.0
H104 H 1.05639 0.25867 0.04461 0.0
C105 C 1.06535 0.41502 0.33823 0.0
C106 C 1.01888 0.46315 0.41456 0.0
C107 C 1.03185 0.3818 0.04582 0.0
H108 H 1.03504 0.35489 0.93358 0.0
C109 C 0.9812 0.42422 0.14054 0.0
H110 H 0.08652 0.40587 0.4218 0.0
C111 C 0.9745 0.45572 0.33289 0.0
H112 H 0.94094 0.47611 0.40012 0.0
H113 H 0.95179 0.42429 0.09152 0.0
H114 H 0.32716 0.95877 0.59795 0.0
C115 C 0.35524 0.97896 0.5097 0.0
C116 C 0.40083 0.95713 0.48774 0.0
C117 C 0.34577 1.02432 0.41422 0.0
H118 H 0.47377 0.96559 0.36824 0.0
C119 C 0.43867 0.98199 0.37694 0.0
C120 C 0.4332 1.02644 0.27564 0.0
C121 C 0.38584 0.04746 0.2923 0.0
C122 C 0.29399 0.04148 0.43336 0.0
H123 H 0.38045 0.08157 0.21332 0.0
C124 C 0.25521 0.03423 0.58561 0.0
C125 C 0.20709 0.04367 0.58758 0.0
C126 C 0.28248 0.06019 0.28926 0.0
H127 H 0.30932 0.06545 0.17107 0.0
C128 C 0.23622 0.0698 0.29072 0.0
H129 H 0.2622 1.02068 0.70086 0.0
C130 C 0.19945 0.06114 0.4354 0.0
H131 H 0.16447 0.06918 0.42757 0.0
H132 H 0.22865 0.08345 0.1764 0.0
H133 H 0.59968 0.33116 0.69668 0.0
C134 C 0.60347 0.34653 0.57072 0.0
C135 C 0.62789 0.39622 0.52307 0.0
C136 C 0.57997 0.32035 0.46422 0.0
H137 H 0.64902 0.45632 0.33253 0.0
C138 C 0.63063 0.41788 0.36394 0.0
C139 C 0.60221 0.40031 0.26622 0.0
C140 C 0.57839 0.34997 0.31358 0.0
C141 C 0.55477 0.265 0.5145 0.0
H142 H 0.55956 0.33414 0.23048 0.0
C143 C 0.56616 0.22363 0.62597 0.0
C144 C 0.54571 0.1694 0.64831 0.0
C145 C 0.51886 0.25194 0.44434 0.0
H146 H 0.50583 0.28185 0.36932 0.0
C147 C 0.49819 0.20003 0.46956 0.0
H148 H 0.59227 0.23196 0.68841 0.0
C149 C 0.51197 0.15899 0.56691 0.0
H150 H 0.49542 0.11899 0.58115 0.0
H151 H 0.47121 0.19131 0.41143 0.0
Dy152 Dy 1.04908 0.06325 0.88817 0.0
Dy153 Dy 0.10608 1.01251 0.11456 0.0
C154 C 0.16361 0.0372 0.74101 0.0
O155 O 1.01746 0.97876 0.92528 0.0
O156 O 0.08303 0.94309 0.97157 0.0
O157 O 1.04366 0.07249 0.63354 0.0
O158 O 1.0035 0.13083 0.84093 0.0
O159 O 1.03093 1.01854 0.29224 0.0
O160 O 0.98792 0.04964 0.11909 0.0
O161 O 0.11633 0.10612 0.14819 0.0
O162 O 1.06983 0.14236 -0.00399 0.0
O163 O 0.12018 0.98497 0.34441 0.0
O164 O 0.16322 0.95121 0.09706 0.0
C165 C 1.04116 0.93502 0.96061 0.0
O166 O 0.12243 1.03 0.71722 0.0
O167 O 0.16479 0.04215 0.89838 0.0
C168 C 1.05582 0.17005 0.61318 0.0
C169 C 0.11813 0.25128 0.46653 0.0
C170 C 0.13371 0.2048 0.54205 0.0
C171 C 0.10253 0.1645 0.61436 0.0
C172 C 1.03871 0.22204 0.57276 0.0
C173 C 1.06952 0.26404 0.51157 0.0
C174 C 1.02506 0.12432 0.67845 0.0
C175 C 0.98984 0.03127 0.26717 0.0
C176 C 0.09875 0.14993 0.08397 0.0
C177 C 0.14077 0.8866 0.30989 0.0
C178 C 0.10147 0.79676 0.49982 0.0
C179 C 0.08328 0.81577 0.37122 0.0
C180 C 0.10149 0.86301 0.28303 0.0
C181 C 0.16636 0.8563 0.40008 0.0
C182 C 0.14754 0.80922 0.48952 0.0
C183 C 0.151 0.94496 0.26061 0.0
H184 H 0.1706 0.19478 0.52001 0.0
H185 H 0.1156 0.12777 0.66348 0.0
H186 H 1.00227 0.22916 0.58245 0.0
H187 H 1.05591 0.30243 0.47318 0.0
H188 H 1.04904 0.80441 0.36937 0.0
H189 H 0.08171 0.8846 0.21068 0.0
H190 H 0.19774 0.87249 0.41708 0.0
H191 H 0.16356 0.79291 0.58229 0.0
Dy192 Dy 0.56478 0.98589 0.83383 0.0
Dy193 Dy 0.58747 0.07994 0.07799 0.0
C194 C 0.55808 0.12239 0.75373 0.0
O195 O 0.64504 0.98242 0.73245 0.0
O196 O 0.65364 0.06545 0.86202 0.0
O197 O 0.54936 0.95444 0.60817 0.0
O198 O 0.55194 0.89728 0.80555 0.0
O199 O 0.61627 0.99464 0.14462 0.0
O200 O 0.5685 0.93692 0.06186 0.0
O201 O 0.51193 0.06172 0.21824 0.0
O202 O 0.49226 1.02174 -0.00474 0.0
O203 O 0.60377 0.10969 0.30372 0.0
O204 O 0.60673 0.16626 0.09952 0.0
C205 C 0.67247 1.02139 0.75957 0.0
O206 O 0.56436 0.06872 0.69349 0.0
O207 O 0.55701 0.13428 0.91143 0.0
C208 C 0.49257 0.88833 0.67812 0.0
C209 C 0.41193 0.91145 0.59085 0.0
C210 C 0.4134 0.92904 0.75311 0.0
C211 C 0.45428 0.9176 0.79657 0.0
C212 C 0.48537 0.85715 0.54206 0.0
C213 C 0.44382 0.8672 0.50157 0.0
C214 C 0.53948 0.90457 0.66898 0.0
C215 C 0.59875 0.94423 0.14497 0.0
C216 C 0.47937 0.04368 0.15313 0.0
C217 C 0.66698 0.16772 0.22595 0.0
C218 C 0.74832 0.1413 0.30599 0.0
C219 C 0.74467 0.12181 0.14884 0.0
C220 C 0.70322 0.13412 0.11079 0.0
C221 C 0.67741 0.20057 0.35257 0.0
C222 C 0.71905 0.18826 0.3905 0.0
C223 C 0.61842 0.1575 0.23712 0.0
H224 H 0.38789 0.96097 0.829 0.0
H225 H 0.4581 0.93845 0.90965 0.0
H226 H 0.5135 0.83137 0.45493 0.0
H227 H 0.44202 0.85088 0.37933 0.0
H228 H 0.76838 0.08765 0.07602 0.0
H229 H 0.69785 0.11158 0.00423 0.0
H230 H 0.65197 0.2307 0.43395 0.0
H231 H 0.72285 0.2063 0.50793 0.0
Dy232 Dy 0.65635 0.53522 0.86817 0.0
Dy233 Dy 0.54393 0.50796 0.89013 0.0
C234 C 0.5985 0.43866 0.12296 0.0
O235 O 0.66147 0.44954 0.72207 0.0
O236 O 0.5992 0.48469 0.65805 0.0
O237 O 0.68366 0.57667 0.0488 0.0
O238 O 0.73237 0.54377 0.80591 0.0
O239 O 0.56007 0.5849 0.73141 0.0
O240 O 0.64103 0.58632 0.65463 0.0
O241 O 0.54173 0.56734 0.11463 0.0
O242 O 0.60496 0.60984 0.95914 0.0
O243 O 0.47381 0.52861 0.88869 0.0
O244 O 0.50418 0.44333 0.80993 0.0
C245 C 0.62784 0.44129 0.65321 0.0
O246 O 0.63152 0.4746 0.07617 0.0
O247 O 0.56231 0.4407 0.06151 0.0
C248 C 0.76373 0.57802 0.03885 0.0
C249 C 0.81834 0.6095 0.25928 0.0
C250 C 0.79859 0.55595 0.26832 0.0
C251 C 0.77094 0.54098 0.1622 0.0
C252 C 0.78423 0.63018 0.02665 0.0
C253 C 0.8098 0.64607 0.13618 0.0
C254 C 0.7267 0.57168 0.95253 0.0
C255 C 0.59957 0.6049 0.64093 0.0
C256 C 0.56931 0.61016 0.09451 0.0
C257 C 0.44769 0.48006 0.67361 0.0
C258 C 0.39935 0.48287 0.41771 0.0
C259 C 0.41326 0.53297 0.48279 0.0
C260 C 0.43756 0.53147 0.60487 0.0
C261 C 0.43305 0.42984 0.61286 0.0
C262 C 0.40949 0.43114 0.48646 0.0
C263 C 0.46897 0.47957 0.81912 0.0
H264 H 0.80271 0.52628 0.36175 0.0
H265 H 0.75407 0.50125 0.1802 0.0
H266 H 0.77823 0.66064 0.93757 0.0
H267 H 0.82283 0.68789 0.12119 0.0
H268 H 0.40507 0.57432 0.44092 0.0
H269 H 0.44734 0.57131 0.6487 0.0
H270 H 0.43962 0.38938 0.66395 0.0
H271 H 0.39984 0.3915 0.44104 0.0
Dy272 Dy 0.08674 0.58021 0.03808 0.0
Dy273 Dy 1.03915 0.45159 0.16866 0.0
C274 C 1.04872 0.48593 0.26958 0.0
O275 O 1.04348 0.56543 0.85476 0.0
O276 O 1.03762 0.46918 0.88567 0.0
O277 O 0.08857 0.66382 0.93758 0.0
O278 O 0.13884 0.63643 0.06694 0.0
O279 O 0.98782 0.53801 0.15259 0.0
O280 O 1.02431 0.60869 0.24185 0.0
O281 O 0.12509 0.43924 0.07113 0.0
O282 O 0.14664 0.51798 0.92615 0.0
O283 O 1.00074 0.37579 0.45446 0.0
O284 O 0.98753 0.34388 0.26379 0.0
C285 C 1.02604 0.51744 0.82252 0.0
O286 O 1.07047 0.53222 0.28137 0.0
O287 O 1.06853 0.52864 0.2963 0.0
C288 C 0.1665 0.66117 0.77861 0.0
C289 C 0.19651 0.58594 0.48888 0.0
C290 C 0.16681 0.63407 0.48954 0.0
C291 C 0.15195 0.67116 0.63335 0.0
C292 C 0.20359 0.62083 0.76235 0.0
C293 C 0.21606 0.58144 0.62551 0.0
C294 C 0.13091 0.66758 0.94681 0.0
C295 C 0.98862 0.5933 0.19997 0.0
C296 C 0.15704 0.47609 0.0128 0.0
C297 C 0.93035 0.34181 0.52082 0.0
C298 C 0.88471 0.42134 0.76638 0.0
C299 C 0.86933 0.4154 0.62021 0.0
C300 C 0.89424 0.37602 0.49114 0.0
C301 C 0.92693 0.33077 0.69169 0.0
C302 C 0.90241 0.371 0.81872 0.0
C303 C 0.97801 0.34662 0.4085 0.0
H304 H 0.15256 0.64135 0.38501 0.0
H305 H 0.12359 0.70189 0.64104 0.0
H306 H 0.2169 0.61255 0.86909 0.0
H307 H 0.23841 0.54516 0.63659 0.0
H308 H 0.84845 0.44903 0.58507 0.0
H309 H 0.89243 0.38149 0.3628 0.0
H310 H 0.95165 0.30112 0.72228 0.0
H311 H 0.90883 0.37006 0.94148 0.0
loop_
_geom_bond_atom_site_label_1
_geom_bond_atom_site_label_2
_geom_bond_distance
_geom_bond_site_symmetry_2
_ccdc_geom_bond_type
H0 C1 0.949 . S
C1 H0 0.949 . S
C1 C2 1.395 . S
C1 C3 1.391 1_556 S
C2 C1 1.395 . S
C2 C5 1.390 1_556 S
C3 C1 1.391 1_554 S
C3 C7 1.387 . S
C3 C8 1.491 . S
H4 C5 0.950 . S
C5 C2 1.390 1_554 S
C5 H4 0.950 . S
C5 C6 1.378 . S
C6 C5 1.378 . S
C6 C7 1.409 . S
C7 C3 1.387 . S
C7 C6 1.409 . S
C7 H9 0.951 . S
C8 C3 1.491 . S
C8 C10 1.382 1_554 S
C8 C12 1.404 . S
H9 C7 0.951 . S
C10 C8 1.382 1_556 S
C10 C11 1.390 . S
C10 H15 0.949 . S
C11 C10 1.390 . S
C11 C16 1.399 1_556 S
C12 C8 1.404 . S
C12 H13 0.950 . S
C12 C14 1.375 . S
H13 C12 0.950 . S
C14 C12 1.375 . S
C14 C16 1.382 . S
C14 H18 0.950 . S
H15 C10 0.949 . S
C16 C11 1.399 1_554 S
C16 C14 1.382 . S
C16 H17 0.952 . S
H17 C16 0.952 . S
H18 C14 0.950 . S
H19 C20 0.949 . S
C20 H19 0.949 . S
C20 C21 1.396 . S
C20 C22 1.391 . S
C21 C20 1.396 . S
C21 C24 1.388 1_655 S
C22 C20 1.391 . S
C22 C26 1.387 1_556 S
C22 C27 1.491 . S
H23 C24 0.950 . S
C24 C21 1.388 1_455 S
C24 H23 0.950 . S
C24 C25 1.380 1_456 S
C25 C24 1.380 1_654 S
C25 C26 1.415 . S
C26 C22 1.387 1_554 S
C26 C25 1.415 . S
C26 H28 0.951 . S
C27 C22 1.491 . S
C27 C29 1.382 . S
C27 C31 1.405 . S
H28 C26 0.951 . S
C29 C27 1.382 . S
C29 C30 1.390 . S
C29 H34 0.949 1_655 S
C30 C29 1.390 . S
C30 C35 1.399 . S
C31 C27 1.405 . S
C31 H32 0.948 1_556 S
C31 C33 1.375 . S
H32 C31 0.948 1_554 S
C33 C31 1.375 . S
C33 C35 1.382 . S
C33 H37 0.950 1_556 S
H34 C29 0.949 1_455 S
C35 C30 1.399 . S
C35 C33 1.382 . S
C35 H36 0.952 . S
H36 C35 0.952 . S
H37 C33 0.950 1_554 S
H38 C39 0.949 . S
C39 H38 0.949 . S
C39 C40 1.395 . S
C39 C41 1.391 . S
C40 C39 1.395 . S
C40 C43 1.391 1_565 S
C41 C39 1.391 . S
C41 C45 1.387 . S
C41 C46 1.491 . S
H42 C43 0.950 . S
C43 C40 1.391 1_545 S
C43 H42 0.950 . S
C43 C44 1.375 1_545 S
C44 C43 1.375 1_565 S
C44 C45 1.411 . S
C45 C41 1.387 . S
C45 C44 1.411 . S
C45 H47 0.951 . S
C46 C41 1.491 . S
C46 C48 1.382 . S
C46 C50 1.404 . S
H47 C45 0.951 . S
C48 C46 1.382 . S
C48 C49 1.390 . S
C48 H53 0.949 1_565 S
C49 C48 1.390 . S
C49 C54 1.399 . S
C50 C46 1.404 . S
C50 H51 0.950 . S
C50 C52 1.375 . S
H51 C50 0.950 . S
C52 C50 1.375 . S
C52 C54 1.382 . S
C52 H56 0.950 . S
H53 C48 0.949 1_545 S
C54 C49 1.399 . S
C54 C52 1.382 . S
C54 H55 0.952 . S
H55 C54 0.952 . S
H56 C52 0.950 . S
H57 C58 0.949 . S
C58 H57 0.949 . S
C58 C59 1.395 . S
C58 C60 1.391 . S
C59 C58 1.395 . S
C59 C62 1.390 . S
C60 C58 1.391 . S
C60 C64 1.387 . S
C60 C65 1.491 . S
H61 C62 0.950 . S
C62 C59 1.390 . S
C62 H61 0.950 . S
C62 C63 1.378 . S
C63 C62 1.378 . S
C63 C64 1.409 . S
C64 C60 1.387 . S
C64 C63 1.409 . S
C64 H66 0.951 . S
C65 C60 1.491 . S
C65 C67 1.382 . S
C65 C69 1.404 . S
H66 C64 0.951 . S
C67 C65 1.382 . S
C67 C68 1.390 . S
C67 H72 0.949 . S
C68 C67 1.390 . S
C68 C73 1.399 . S
C69 C65 1.404 . S
C69 H70 0.950 . S
C69 C71 1.375 . S
H70 C69 0.950 . S
C71 C69 1.375 . S
C71 C73 1.382 . S
C71 H75 0.950 . S
H72 C67 0.949 . S
C73 C68 1.399 . S
C73 C71 1.382 . S
C73 H74 0.952 . S
H74 C73 0.952 . S
H75 C71 0.950 . S
H76 C77 0.949 . S
C77 H76 0.949 . S
C77 C78 1.395 . S
C77 C79 1.391 1_554 S
C78 C77 1.395 . S
C78 C81 1.390 1_554 S
C79 C77 1.391 1_556 S
C79 C83 1.387 . S
C79 C84 1.491 . S
H80 C81 0.950 . S
C81 C78 1.390 1_556 S
C81 H80 0.950 . S
C81 C82 1.378 . S
C82 C81 1.378 . S
C82 C83 1.409 . S
C83 C79 1.387 . S
C83 C82 1.409 . S
C83 H85 0.951 . S
C84 C79 1.491 . S
C84 C86 1.382 1_556 S
C84 C88 1.404 . S
H85 C83 0.951 . S
C86 C84 1.382 1_554 S
C86 C87 1.390 . S
C86 H91 0.949 . S
C87 C86 1.390 . S
C87 C92 1.399 1_554 S
C88 C84 1.404 . S
C88 H89 0.950 . S
C88 C90 1.375 . S
H89 C88 0.950 . S
C90 C88 1.375 . S
C90 C92 1.382 . S
C90 H94 0.950 . S
H91 C86 0.949 . S
C92 C87 1.399 1_556 S
C92 C90 1.382 . S
C92 H93 0.952 . S
H93 C92 0.952 . S
H94 C90 0.950 . S
H95 C96 0.949 . S
C96 H95 0.949 . S
C96 C97 1.395 . S
C96 C98 1.391 . S
C97 C96 1.395 . S
C97 C100 1.390 1_655 S
C98 C96 1.391 . S
C98 C102 1.383 1_554 S
C98 C103 1.491 . S
H99 C100 0.950 . S
C100 C97 1.390 1_455 S
C100 H99 0.950 . S
C100 C101 1.375 1_454 S
C101 C100 1.375 1_656 S
C101 C102 1.410 . S
C102 C98 1.383 1_556 S
C102 C101 1.410 . S
C102 H104 0.956 . S
C103 C98 1.491 . S
C103 C105 1.382 . S
C103 C107 1.404 . S
H104 C102 0.956 . S
C105 C103 1.382 . S
C105 C106 1.390 . S
C105 H110 0.949 1_655 S
C106 C105 1.390 . S
C106 C111 1.399 . S
C107 C103 1.404 . S
C107 H108 0.950 . S
C107 C109 1.375 . S
H108 C107 0.950 . S
C109 C107 1.375 . S
C109 C111 1.382 . S
C109 H113 0.950 . S
H110 C105 0.949 1_455 S
C111 C106 1.399 . S
C111 C109 1.382 . S
C111 H112 0.952 . S
H112 C111 0.952 . S
H113 C109 0.950 . S
H114 C115 0.949 . S
C115 H114 0.949 . S
C115 C116 1.395 . S
C115 C117 1.391 . S
C116 C115 1.395 . S
C116 C119 1.390 1_565 S
C117 C115 1.391 . S
C117 C121 1.387 . S
C117 C122 1.491 . S
H118 C119 0.950 . S
C119 C116 1.390 1_545 S
C119 H118 0.950 . S
C119 C120 1.378 1_545 S
C120 C119 1.378 1_565 S
C120 C121 1.413 . S
C121 C117 1.387 . S
C121 C120 1.413 . S
C121 H123 0.951 . S
C122 C117 1.491 . S
C122 C124 1.382 . S
C122 C126 1.404 . S
H123 C121 0.951 . S
C124 C122 1.382 . S
C124 C125 1.390 . S
C124 H129 0.949 1_565 S
C125 C124 1.390 . S
C125 C130 1.399 . S
C126 C122 1.404 . S
C126 H127 0.950 . S
C126 C128 1.375 . S
H127 C126 0.950 . S
C128 C126 1.375 . S
C128 C130 1.382 . S
C128 H132 0.950 . S
H129 C124 0.949 1_545 S
C130 C125 1.399 . S
C130 C128 1.382 . S
C130 H131 0.952 . S
H131 C130 0.952 . S
H132 C128 0.950 . S
H133 C134 0.949 . S
C134 H133 0.949 . S
C134 C135 1.395 . S
C134 C136 1.391 . S
C135 C134 1.395 . S
C135 C138 1.390 . S
C136 C134 1.391 . S
C136 C140 1.387 . S
C136 C141 1.491 . S
H137 C138 0.950 . S
C138 C135 1.390 . S
C138 H137 0.950 . S
C138 C139 1.378 . S
C139 C138 1.378 . S
C139 C140 1.409 . S
C140 C136 1.387 . S
C140 C139 1.409 . S
C140 H142 0.951 . S
C141 C136 1.491 . S
C141 C143 1.382 . S
C141 C145 1.404 . S
H142 C140 0.951 . S
C143 C141 1.382 . S
C143 C144 1.390 . S
C143 H148 0.949 . S
C144 C143 1.390 . S
C144 C149 1.399 . S
C145 C141 1.404 . S
C145 H146 0.950 . S
C145 C147 1.375 . S
H146 C145 0.950 . S
C147 C145 1.375 . S
C147 C149 1.382 . S
C147 H151 0.950 . S
H148 C143 0.949 . S
C149 C144 1.399 . S
C149 C147 1.382 . S
C149 H150 0.952 . S
H150 C149 0.952 . S
H151 C147 0.950 . S
Dy152 O155 2.307 1_545 S
Dy152 O157 2.395 1_655 S
Dy152 O158 2.379 . S
Dy152 O160 2.339 . S
Dy152 O162 2.298 . S
Dy152 O166 2.275 1_655 S
Dy152 C174 2.738 . S
Dy153 O156 2.298 . S
Dy153 O159 2.275 1_455 S
Dy153 O161 2.307 1_565 S
Dy153 O163 2.395 1_455 S
Dy153 O164 2.379 . S
Dy153 O167 2.339 . S
Dy153 C183 2.738 . S
C154 O166 1.254 1_565 S
C154 O167 1.257 1_556 S
O155 Dy152 2.307 1_565 S
O155 C165 1.266 . S
O156 Dy153 2.298 . S
O156 C165 1.236 1_454 S
O157 Dy152 2.395 1_455 S
O157 C174 1.255 1_455 S
O158 Dy152 2.379 . S
O158 C174 1.249 . S
O159 Dy153 2.275 1_655 S
O159 C175 1.254 1_565 S
O160 Dy152 2.339 . S
O160 C175 1.257 1_556 S
O161 Dy153 2.307 1_545 S
O161 C176 1.266 . S
O162 Dy152 2.298 . S
O162 C176 1.236 1_656 S
O163 Dy153 2.395 1_655 S
O163 C183 1.255 1_655 S
O164 Dy153 2.379 . S
O164 C183 1.249 . S
C165 O155 1.266 . S
C165 O156 1.236 1_656 S
O166 Dy152 2.275 1_455 S
O166 C154 1.254 1_545 S
O167 Dy153 2.339 . S
O167 C154 1.257 1_554 S
C168 C171 1.344 1_655 S
C168 C172 1.328 . S
C168 C174 1.516 . S
C169 C170 1.304 1_655 S
C169 C173 1.323 . S
C170 C169 1.304 1_455 S
C170 C171 1.371 . S
C170 H184 0.930 . S
C171 C168 1.344 1_455 S
C171 C170 1.371 . S
C171 H185 0.931 . S
C172 C168 1.328 . S
C172 C173 1.433 . S
C172 H186 0.931 . S
C173 C169 1.323 . S
C173 C172 1.433 . S
C173 H187 0.933 . S
C174 Dy152 2.738 . S
C174 O157 1.255 1_655 S
C174 O158 1.249 . S
C174 C168 1.516 . S
C175 O159 1.254 1_545 S
C175 O160 1.257 1_554 S
C176 O161 1.266 . S
C176 O162 1.236 1_454 S
C177 C180 1.344 1_455 S
C177 C181 1.328 . S
C177 C183 1.516 . S
C178 C179 1.304 1_455 S
C178 C182 1.323 . S
C179 C178 1.304 1_655 S
C179 C180 1.371 . S
C179 H188 0.930 . S
C180 C177 1.344 1_655 S
C180 C179 1.371 . S
C180 H189 0.931 . S
C181 C177 1.328 . S
C181 C182 1.433 . S
C181 H190 0.931 . S
C182 C178 1.323 . S
C182 C181 1.433 . S
C182 H191 0.933 . S
C183 Dy153 2.738 . S
C183 O163 1.255 1_455 S
C183 O164 1.249 . S
C183 C177 1.516 . S
H184 C170 0.930 . S
H185 C171 0.931 . S
H186 C172 0.931 . S
H187 C173 0.933 . S
H188 C179 0.930 . S
H189 C180 0.931 . S
H190 C181 0.931 . S
H191 C182 0.933 . S
Dy192 O195 2.307 . S
Dy192 O197 2.395 1_565 S
Dy192 O198 2.379 . S
Dy192 O200 2.339 . S
Dy192 O202 2.298 1_556 S
Dy192 O206 2.275 1_565 S
Dy192 C214 2.738 . S
Dy193 O196 2.298 1_554 S
Dy193 O199 2.275 1_545 S
Dy193 O201 2.307 . S
Dy193 O203 2.395 1_545 S
Dy193 O204 2.379 . S
Dy193 O207 2.339 . S
Dy193 C223 2.738 . S
C194 O206 1.254 . S
C194 O207 1.257 1_556 S
O195 Dy192 2.307 . S
O195 C205 1.266 . S
O196 Dy193 2.298 1_556 S
O196 C205 1.236 1_545 S
O197 Dy192 2.395 1_545 S
O197 C214 1.255 1_545 S
O198 Dy192 2.379 . S
O198 C214 1.249 . S
O199 Dy193 2.275 1_565 S
O199 C215 1.254 . S
O200 Dy192 2.339 . S
O200 C215 1.257 1_556 S
O201 Dy193 2.307 . S
O201 C216 1.266 . S
O202 Dy192 2.298 1_554 S
O202 C216 1.236 1_565 S
O203 Dy193 2.395 1_565 S
O203 C223 1.255 1_565 S
O204 Dy193 2.379 . S
O204 C223 1.249 . S
C205 O195 1.266 . S
C205 O196 1.236 1_565 S
O206 Dy192 2.275 1_545 S
O206 C194 1.254 . S
O207 Dy193 2.339 . S
O207 C194 1.257 1_554 S
C208 C211 1.344 . S
C208 C212 1.328 . S
C208 C214 1.516 . S
C209 C210 1.304 . S
C209 C213 1.323 . S
C210 C209 1.304 . S
C210 C211 1.371 . S
C210 H224 0.930 1_565 S
C211 C208 1.344 . S
C211 C210 1.371 . S
C211 H225 0.931 1_565 S
C212 C208 1.328 . S
C212 C213 1.433 . S
C212 H226 0.931 . S
C213 C209 1.323 . S
C213 C212 1.433 . S
C213 H227 0.933 . S
C214 Dy192 2.738 . S
C214 O197 1.255 1_565 S
C214 O198 1.249 . S
C214 C208 1.516 . S
C215 O199 1.254 . S
C215 O200 1.257 1_554 S
C216 O201 1.266 . S
C216 O202 1.236 1_545 S
C217 C220 1.344 . S
C217 C221 1.328 . S
C217 C223 1.516 . S
C218 C219 1.304 . S
C218 C222 1.323 . S
C219 C218 1.304 . S
C219 C220 1.371 . S
C219 H228 0.930 1_545 S
C220 C217 1.344 . S
C220 C219 1.371 . S
C220 H229 0.931 1_545 S
C221 C217 1.328 . S
C221 C222 1.433 . S
C221 H230 0.931 . S
C222 C218 1.323 . S
C222 C221 1.433 . S
C222 H231 0.933 . S
C223 Dy193 2.738 . S
C223 O203 1.255 1_545 S
C223 O204 1.249 . S
C223 C217 1.516 . S
H224 C210 0.930 1_545 S
H225 C211 0.931 1_545 S
H226 C212 0.931 . S
H227 C213 0.933 . S
H228 C219 0.930 1_565 S
H229 C220 0.931 1_565 S
H230 C221 0.931 . S
H231 C222 0.933 . S
Dy232 O235 2.307 . S
Dy232 O237 2.395 1_556 S
Dy232 O238 2.379 . S
Dy232 O240 2.339 . S
Dy232 O242 2.298 1_556 S
Dy232 O246 2.275 1_556 S
Dy232 C254 2.738 1_556 S
Dy233 O236 2.298 1_554 S
Dy233 O239 2.275 1_554 S
Dy233 O241 2.307 . S
Dy233 O243 2.395 1_554 S
Dy233 O244 2.381 . S
Dy233 O247 2.339 . S
Dy233 C263 2.738 1_554 S
C234 O246 1.254 . S
C234 O247 1.257 . S
O235 Dy232 2.307 . S
O235 C245 1.266 . S
O236 Dy233 2.298 1_556 S
O236 C245 1.236 . S
O237 Dy232 2.395 1_554 S
O237 C254 1.255 . S
O238 Dy232 2.379 . S
O238 C254 1.249 1_556 S
O239 Dy233 2.275 1_556 S
O239 C255 1.254 . S
O240 Dy232 2.339 . S
O240 C255 1.257 . S
O241 Dy233 2.307 . S
O241 C256 1.266 . S
O242 Dy232 2.298 1_554 S
O242 C256 1.236 . S
O243 Dy233 2.395 1_556 S
O243 C263 1.255 . S
O244 Dy233 2.381 . S
O244 C263 1.243 1_554 S
C245 O235 1.266 . S
C245 O236 1.236 . S
O246 Dy232 2.275 1_554 S
O246 C234 1.254 . S
O247 Dy233 2.339 . S
O247 C234 1.257 . S
C248 C251 1.344 . S
C248 C252 1.328 . S
C248 C254 1.516 . S
C249 C250 1.304 . S
C249 C253 1.323 . S
C250 C249 1.304 . S
C250 C251 1.371 . S
C250 H264 0.930 . S
C251 C248 1.344 . S
C251 C250 1.371 . S
C251 H265 0.931 . S
C252 C248 1.328 . S
C252 C253 1.433 . S
C252 H266 0.931 . S
C253 C249 1.323 . S
C253 C252 1.433 . S
C253 H267 0.933 . S
C254 Dy232 2.738 1_554 S
C254 O237 1.255 . S
C254 O238 1.249 1_554 S
C254 C248 1.516 . S
C255 O239 1.254 . S
C255 O240 1.257 . S
C256 O241 1.266 . S
C256 O242 1.236 . S
C257 C260 1.344 . S
C257 C261 1.328 . S
C257 C263 1.516 . S
C258 C259 1.304 . S
C258 C262 1.323 . S
C259 C258 1.304 . S
C259 C260 1.371 . S
C259 H268 0.930 . S
C260 C257 1.344 . S
C260 C259 1.371 . S
C260 H269 0.931 . S
C261 C257 1.328 . S
C261 C262 1.433 . S
C261 H270 0.931 . S
C262 C258 1.323 . S
C262 C261 1.433 . S
C262 H271 0.933 . S
C263 Dy233 2.738 1_556 S
C263 O243 1.255 . S
C263 O244 1.243 1_556 S
C263 C257 1.516 . S
H264 C250 0.930 . S
H265 C251 0.931 . S
H266 C252 0.931 . S
H267 C253 0.933 . S
H268 C259 0.930 . S
H269 C260 0.931 . S
H270 C261 0.931 . S
H271 C262 0.933 . S
Dy272 O275 2.307 1_455 S
Dy272 O277 2.395 . S
Dy272 O278 2.379 . S
Dy272 O280 2.339 1_556 S
Dy272 O282 2.298 . S
Dy272 O286 2.275 . S
Dy272 C294 2.738 . S
Dy273 O276 2.298 . S
Dy273 O279 2.275 . S
Dy273 O281 2.307 1_655 S
Dy273 O283 2.395 . S
Dy273 O284 2.379 . S
Dy273 O287 2.339 1_554 S
Dy273 C303 2.738 . S
C274 O286 1.254 1_655 S
C274 O287 1.257 . S
O275 Dy272 2.307 1_655 S
O275 C285 1.266 1_556 S
O276 Dy273 2.298 . S
O276 C285 1.236 . S
O277 Dy272 2.395 . S
O277 C294 1.255 . S
O278 Dy272 2.379 . S
O278 C294 1.249 . S
O279 Dy273 2.275 . S
O279 C295 1.254 1_655 S
O280 Dy272 2.339 1_554 S
O280 C295 1.257 . S
O281 Dy273 2.307 1_455 S
O281 C296 1.266 1_554 S
O282 Dy272 2.298 . S
O282 C296 1.236 . S
O283 Dy273 2.395 . S
O283 C303 1.255 . S
O284 Dy273 2.379 . S
O284 C303 1.249 . S
C285 O275 1.266 1_554 S
C285 O276 1.236 . S
O286 Dy272 2.275 . S
O286 C274 1.254 1_455 S
O287 Dy273 2.339 1_556 S
O287 C274 1.257 . S
C288 C291 1.344 . S
C288 C292 1.328 . S
C288 C294 1.516 . S
C289 C290 1.304 . S
C289 C293 1.323 . S
C290 C289 1.304 . S
C290 C291 1.371 . S
C290 H304 0.930 . S
C291 C288 1.344 . S
C291 C290 1.371 . S
C291 H305 0.931 . S
C292 C288 1.328 . S
C292 C293 1.433 . S
C292 H306 0.931 . S
C293 C289 1.323 . S
C293 C292 1.433 . S
C293 H307 0.933 . S
C294 Dy272 2.738 . S
C294 O277 1.255 . S
C294 O278 1.249 . S
C294 C288 1.516 . S
C295 O279 1.254 1_455 S
C295 O280 1.257 . S
C296 O281 1.266 1_556 S
C296 O282 1.236 . S
C297 C300 1.344 . S
C297 C301 1.328 . S
C297 C303 1.516 . S
C298 C299 1.304 . S
C298 C302 1.323 . S
C299 C298 1.304 . S
C299 C300 1.371 . S
C299 H308 0.930 . S
C300 C297 1.344 . S
C300 C299 1.371 . S
C300 H309 0.931 . S
C301 C297 1.328 . S
C301 C302 1.433 . S
C301 H310 0.931 . S
C302 C298 1.323 . S
C302 C301 1.433 . S
C302 H311 0.933 . S
C303 Dy273 2.738 . S
C303 O283 1.255 . S
C303 O284 1.249 . S
C303 C297 1.516 . S
H304 C290 0.930 . S
H305 C291 0.931 . S
H306 C292 0.931 . S
H307 C293 0.933 . S
H308 C299 0.930 . S
H309 C300 0.931 . S
H310 C301 0.931 . S
H311 C302 0.933 . S
C125 C154 3.330 . S
C194 C144 2.783 . S
C258 C87 4.015 . S
C274 C106 4.047 1_556 S
C175 C49 3.365 1_545 S
C68 C215 2.921 . S
C11 C249 4.101 . S
C30 C295 4.059 1_656 S
C169 C97 0.661 . S
C209 C116 1.506 . S
C245 C135 1.543 . S
C78 C289 2.636 . S
C21 C178 0.672 1_655 S
C218 C40 1.515 1_545 S
C256 C59 1.550 . S
C2 C298 2.644 . S
C101 C176 3.217 1_656 S
C120 C216 3.460 1_565 S
C234 C139 2.361 . S
C296 C82 4.031 . S
C25 C165 3.221 1_554 S
C205 C44 3.461 . S
C255 C63 2.358 . S
C6 C285 4.039 . S
