# Generated by pormake.
# Topology hwx, (6,3)-cn, num edge types: 1
# Building blocks:
#     Node 0, Type 0, BuildingBlock: OJICUG_clean_sbu_0, # of connection points: 6
#     Node 1, Type 0, BuildingBlock: OJICUG_clean_sbu_0, # of connection points: 6
#     Node 2, Type 0, BuildingBlock: OJICUG_clean_sbu_0, # of connection points: 6
#     Node 3, Type 0, BuildingBlock: OJICUG_clean_sbu_0, # of connection points: 6
#     Node 4, Type 1, BuildingBlock: CUQRIR_clean_linker_1, # of connection points: 3
#     Node 5, Type 1, BuildingBlock: CUQRIR_clean_linker_1, # of connection points: 3
#     Node 6, Type 1, BuildingBlock: CUQRIR_clean_linker_1, # of connection points: 3
#     Node 7, Type 1, BuildingBlock: CUQRIR_clean_linker_1, # of connection points: 3
#     Node 8, Type 1, BuildingBlock: CUQRIR_clean_linker_1, # of connection points: 3
#     Node 9, Type 1, BuildingBlock: CUQRIR_clean_linker_1, # of connection points: 3
#     Node 10, Type 1, BuildingBlock: CUQRIR_clean_linker_1, # of connection points: 3
#     Node 11, Type 1, BuildingBlock: CUQRIR_clean_linker_1, # of connection points: 3
#     Edge 12, Type (0, 1), BuildingBlock: XIVTED_clean_linker_0, # of connection points: 2
#     Edge 13, Type (0, 1), BuildingBlock: XIVTED_clean_linker_0, # of connection points: 2
#     Edge 14, Type (0, 1), BuildingBlock: XIVTED_clean_linker_0, # of connection points: 2
#     Edge 15, Type (0, 1), BuildingBlock: XIVTED_clean_linker_0, # of connection points: 2
#     Edge 16, Type (0, 1), BuildingBlock: XIVTED_clean_linker_0, # of connection points: 2
#     Edge 17, Type (0, 1), BuildingBlock: XIVTED_clean_linker_0, # of connection points: 2
#     Edge 18, Type (0, 1), BuildingBlock: XIVTED_clean_linker_0, # of connection points: 2
#     Edge 19, Type (0, 1), BuildingBlock: XIVTED_clean_linker_0, # of connection points: 2
#     Edge 20, Type (0, 1), BuildingBlock: XIVTED_clean_linker_0, # of connection points: 2
#     Edge 21, Type (0, 1), BuildingBlock: XIVTED_clean_linker_0, # of connection points: 2
#     Edge 22, Type (0, 1), BuildingBlock: XIVTED_clean_linker_0, # of connection points: 2
#     Edge 23, Type (0, 1), BuildingBlock: XIVTED_clean_linker_0, # of connection points: 2
#     Edge 24, Type (0, 1), BuildingBlock: XIVTED_clean_linker_0, # of connection points: 2
#     Edge 25, Type (0, 1), BuildingBlock: XIVTED_clean_linker_0, # of connection points: 2
#     Edge 26, Type (0, 1), BuildingBlock: XIVTED_clean_linker_0, # of connection points: 2
#     Edge 27, Type (0, 1), BuildingBlock: XIVTED_clean_linker_0, # of connection points: 2
#     Edge 28, Type (0, 1), BuildingBlock: XIVTED_clean_linker_0, # of connection points: 2
#     Edge 29, Type (0, 1), BuildingBlock: XIVTED_clean_linker_0, # of connection points: 2
#     Edge 30, Type (0, 1), BuildingBlock: XIVTED_clean_linker_0, # of connection points: 2
#     Edge 31, Type (0, 1), BuildingBlock: XIVTED_clean_linker_0, # of connection points: 2
#     Edge 32, Type (0, 1), BuildingBlock: XIVTED_clean_linker_0, # of connection points: 2
#     Edge 33, Type (0, 1), BuildingBlock: XIVTED_clean_linker_0, # of connection points: 2
#     Edge 34, Type (0, 1), BuildingBlock: XIVTED_clean_linker_0, # of connection points: 2
#     Edge 35, Type (0, 1), BuildingBlock: XIVTED_clean_linker_0, # of connection points: 2
# Relax obj value: 0.003
# Max RMSD: 0.055
# Mean RMSD: 0.044
data_MOF--net-hwx--node1-OJICUG_clean_sbu_0--node2-CUQRIR_clean_linker_1--edge1-XIVTED_clean_linker_0
_symmetry_space_group_name_H-M    P1
_symmetry_Int_Tables_number       1
_symmetry_cell_setting            triclinic
loop_
_symmetry_equiv_pos_as_xyz
'x, y, z'
_cell_length_a     50.003772
_cell_length_b     49.947443
_cell_length_c     18.554815
_cell_angle_alpha  90.036642
_cell_angle_beta   89.989885
_cell_angle_gamma 90.083713
loop_
_atom_site_label
_atom_site_type_symbol
_atom_site_fract_x
_atom_site_fract_y
_atom_site_fract_z
_atom_type_partial_charge
Sc0 Sc 0.20365 0.20475 0.09333 0.0
Sc1 Sc 0.16016 0.16109 0.99965 0.0
Sc2 Sc 0.20169 0.2061 0.90411 0.0
O3 O 0.18847 0.19062 0.99903 0.0
C4 C 0.19867 0.25851 1.00133 0.0
C5 C 0.14176 0.19775 0.1322 0.0
C6 C 0.13933 0.19908 0.87296 0.0
C7 C 0.19917 0.1422 0.12621 0.0
C8 C 0.25581 0.20312 0.99488 0.0
C9 C 0.19694 0.14384 0.86649 0.0
O10 O 0.20084 0.24594 0.06054 0.0
O11 O 0.13721 0.18032 0.08363 0.0
O12 O 0.16207 0.20956 0.86151 0.0
O13 O 0.20863 0.16544 0.13709 0.0
O14 O 0.24302 0.2048 0.9359 0.0
O15 O 0.17999 0.13864 0.91574 0.0
O16 O 0.24437 0.20233 0.05602 0.0
O17 O 0.18156 0.1373 0.07841 0.0
O18 O 0.20666 0.1671 0.85669 0.0
O19 O 0.16458 0.20853 0.14126 0.0
O20 O 0.19811 0.24684 0.9405 0.0
O21 O 0.13535 0.1813 0.92094 0.0
Sc22 Sc 0.28281 0.70576 0.40958 0.0
Sc23 Sc 0.32658 0.66255 0.50289 0.0
Sc24 Sc 0.28493 0.70692 0.59925 0.0
O25 O 0.29813 0.69172 0.50389 0.0
C26 C 0.28678 0.75945 0.50213 0.0
C27 C 0.345 0.70012 0.37245 0.0
C28 C 0.34701 0.70053 0.63103 0.0
C29 C 0.28856 0.64361 0.37394 0.0
C30 C 0.23085 0.70263 0.50859 0.0
C31 C 0.29016 0.64457 0.63534 0.0
O32 O 0.28487 0.74689 0.44285 0.0
O33 O 0.3497 0.68271 0.42093 0.0
O34 O 0.32441 0.71139 0.64102 0.0
O35 O 0.27851 0.66661 0.3638 0.0
O36 O 0.24372 0.70432 0.56749 0.0
O37 O 0.30605 0.63929 0.58376 0.0
O38 O 0.24214 0.70246 0.44716 0.0
O39 O 0.306 0.63904 0.42225 0.0
O40 O 0.28128 0.66793 0.64819 0.0
O41 O 0.322 0.71037 0.36255 0.0
O42 O 0.28749 0.74776 0.56286 0.0
O43 O 0.35092 0.68237 0.58398 0.0
Sc44 Sc 0.78526 0.78312 0.92049 0.0
Sc45 Sc 0.82755 0.82741 0.01607 0.0
Sc46 Sc 0.7839 0.78389 0.10959 0.0
O47 O 0.79895 0.79818 0.01538 0.0
C48 C 0.73152 0.7863 0.01321 0.0
C49 C 0.7903 0.84535 0.8843 0.0
C50 C 0.78934 0.84633 0.14407 0.0
C51 C 0.84756 0.78994 0.88739 0.0
C52 C 0.78808 0.73038 0.01565 0.0
C53 C 0.84588 0.78988 0.14686 0.0
O54 O 0.74413 0.78413 0.95404 0.0
O55 O 0.80787 0.85017 0.93229 0.0
O56 O 0.77995 0.82308 0.15526 0.0
O57 O 0.82456 0.78011 0.87555 0.0
O58 O 0.78564 0.7428 0.07508 0.0
O59 O 0.85038 0.80791 0.09987 0.0
O60 O 0.78918 0.74224 0.95519 0.0
O61 O 0.85204 0.80695 0.9371 0.0
O62 O 0.82311 0.77897 0.15529 0.0
O63 O 0.77999 0.82232 0.87518 0.0
O64 O 0.74312 0.78738 0.07403 0.0
O65 O 0.80649 0.85131 0.09517 0.0
Sc66 Sc 0.70216 0.28179 0.59734 0.0
Sc67 Sc 0.66046 0.32656 0.50247 0.0
Sc68 Sc 0.70375 0.28334 0.40762 0.0
O69 O 0.68878 0.29725 0.50247 0.0
C70 C 0.75605 0.286 0.506 0.0
C71 C 0.69708 0.34414 0.63465 0.0
C72 C 0.69845 0.34553 0.3733 0.0
C73 C 0.6401 0.28808 0.62961 0.0
C74 C 0.69983 0.22949 0.49888 0.0
C75 C 0.64151 0.28963 0.37132 0.0
O76 O 0.74348 0.28475 0.56551 0.0
O77 O 0.68149 0.34966 0.58266 0.0
O78 O 0.70865 0.3226 0.36327 0.0
O79 O 0.66255 0.27675 0.6385 0.0
O80 O 0.70101 0.24212 0.43963 0.0
O81 O 0.63686 0.30652 0.42119 0.0
O82 O 0.69995 0.24108 0.55981 0.0
O83 O 0.6364 0.30685 0.58427 0.0
O84 O 0.66455 0.27961 0.3603 0.0
O85 O 0.70555 0.32063 0.64763 0.0
O86 O 0.74445 0.28584 0.44502 0.0
O87 O 0.6808 0.35001 0.42119 0.0
C88 C 0.23058 0.47142 0.94438 0.0
N89 N 0.23656 0.49673 0.9656 0.0
N90 N 0.22359 0.45619 1.00182 0.0
C91 C 0.2347 0.4607 0.86933 0.0
C92 C 0.22571 0.47303 0.05867 0.0
N93 N 0.23379 0.49754 0.0369 0.0
C94 C 0.21846 0.46597 0.13509 0.0
H95 H 0.21561 0.46214 0.83912 0.0
H96 H 0.24082 0.43937 0.87075 0.0
H97 H 0.2502 0.47233 0.84013 0.0
H98 H 0.23657 0.45884 0.16369 0.0
H99 H 0.20316 0.44986 0.13643 0.0
H100 H 0.21071 0.48378 0.16411 0.0
C101 C 0.01687 0.72519 0.5711 0.0
N102 N 0.99201 0.73225 0.54996 0.0
N103 N 0.03282 0.72097 0.51315 0.0
C104 C 0.02512 0.72108 0.64828 0.0
C105 C 0.01666 0.72569 0.45593 0.0
N106 N 0.99182 0.73231 0.47845 0.0
C107 C 0.02556 0.72555 0.37847 0.0
H108 H 0.03221 0.74038 0.67093 0.0
H109 H 0.04153 0.70623 0.65219 0.0
H110 H 0.00788 0.71416 0.68108 0.0
H111 H 0.02525 0.70465 0.35823 0.0
H112 H 0.0463 0.73329 0.3737 0.0
H113 H 0.01214 0.7377 0.344 0.0
C114 C 0.76144 0.5159 0.05806 0.0
N115 N 0.75331 0.4914 0.03623 0.0
N116 N 0.7637 0.5327 1.0012 0.0
C117 C 0.76866 0.52295 0.13453 0.0
C118 C 0.75678 0.51744 0.9437 0.0
N119 N 0.75068 0.49216 0.9649 0.0
C120 C 0.75291 0.52811 0.86856 0.0
H121 H 0.75055 0.53017 0.16304 0.0
H122 H 0.78403 0.53899 0.13598 0.0
H123 H 0.77631 0.50511 0.16357 0.0
H124 H 0.77206 0.52654 0.83868 0.0
H125 H 0.74691 0.54948 0.8698 0.0
H126 H 0.73742 0.51653 0.83915 0.0
C127 C 0.96915 0.25854 0.44339 0.0
N128 N -0.00556 0.25293 0.4647 0.0
N129 N 0.95401 0.26587 0.50074 0.0
C130 C 0.9589 0.2551 0.36769 0.0
C131 C 0.97103 0.26454 0.55734 0.0
N132 N -0.00441 0.25692 0.53535 0.0
C133 C 0.9635 0.26969 0.63456 0.0
H134 H 0.94192 0.2686 0.35619 0.0
H135 H 0.95184 0.23419 0.36078 0.0
H136 H 0.97502 0.25893 0.32788 0.0
H137 H 0.95803 0.25041 0.66037 0.0
H138 H 0.94618 0.28349 0.63812 0.0
H139 H 0.98067 0.27831 0.6646 0.0
C140 C 0.72822 0.01727 0.57139 0.0
N141 N 0.73487 0.99212 0.55099 0.0
N142 N 0.71988 0.03166 0.5137 0.0
C143 C 0.73155 0.02818 0.64651 0.0
C144 C 0.72165 0.01431 0.45783 0.0
N145 N 0.7305 0.99026 0.48062 0.0
C146 C 0.71592 0.02114 0.38046 0.0
H147 H 0.71757 0.04482 0.65759 0.0
H148 H 0.75223 0.03595 0.65255 0.0
H149 H 0.72837 0.01222 0.68717 0.0
H150 H 0.73491 0.02681 0.35353 0.0
H151 H 0.70173 0.03813 0.37652 0.0
H152 H 0.70753 0.00354 0.35171 0.0
C153 C 0.47081 0.22363 0.94488 0.0
N154 N 0.49526 0.23183 0.96652 0.0
N155 N 0.45395 0.22182 1.0018 0.0
C156 C 0.46309 0.21866 0.86769 0.0
C157 C 0.46908 0.2294 0.05895 0.0
N158 N 0.49418 0.23569 0.03724 0.0
C159 C 0.45899 0.23221 0.13503 0.0
H160 H 0.45793 0.23804 0.84208 0.0
H161 H 0.44555 0.20509 0.86411 0.0
H162 H 0.48005 0.20984 0.83737 0.0
H163 H 0.44217 0.21844 0.14628 0.0
H164 H 0.45176 0.25299 0.1431 0.0
H165 H 0.47525 0.22831 0.17431 0.0
C166 C 0.26769 0.97458 0.4415 0.0
N167 N 0.25999 -0.00079 0.46297 0.0
N168 N 0.26998 0.95794 0.49875 0.0
C169 C 0.27187 0.96656 0.36422 0.0
C170 C 0.2631 0.97337 0.55594 0.0
N171 N 0.25689 -0.00155 0.53397 0.0
C172 C 0.26039 0.96344 0.63217 0.0
H173 H 0.25231 0.96086 0.34043 0.0
H174 H 0.28567 0.94925 0.36017 0.0
H175 H 0.27999 0.98361 0.33271 0.0
H176 H 0.27537 0.94783 0.64453 0.0
H177 H 0.24023 0.9545 0.63909 0.0
H178 H 0.26272 0.98007 0.67135 0.0
C179 C 0.51722 0.76121 0.06297 0.0
N180 N 0.49225 0.75495 0.04046 0.0
N181 N 0.53359 0.76521 0.00573 0.0
C182 C 0.52601 0.76193 0.1405 0.0
C183 C 0.51766 0.76094 0.94781 0.0
N184 N 0.49261 0.75459 0.96896 0.0
C185 C 0.52623 0.76391 0.8705 0.0
H186 H 0.52677 0.78307 0.15873 0.0
H187 H 0.54635 0.75332 0.1461 0.0
H188 H 0.512 0.75092 0.17607 0.0
H189 H 0.5327 0.74413 0.84962 0.0
H190 H 0.54314 0.7782 0.86564 0.0
H191 H 0.5093 0.77095 0.83682 0.0
H192 H 0.09132 0.1761 0.14152 0.0
H193 H 0.04249 0.27663 0.4509 0.0
H194 H 0.14182 0.23701 0.23574 0.0
H195 H -0.00408 0.20939 0.37785 0.0
H196 H 0.07907 0.26278 0.37121 0.0
H197 H 0.05568 0.18871 0.22488 0.0
C198 C 0.09494 0.19216 0.17954 0.0
C199 C 0.11969 0.2055 0.18142 0.0
C200 C 0.06091 0.25095 0.37264 0.0
C201 C 0.07888 0.22 0.27726 0.0
C202 C 0.04019 0.25879 0.41837 0.0
C203 C 0.01634 0.24414 0.42035 0.0
C204 C 0.05762 0.22833 0.32837 0.0
C205 C 0.01398 0.22135 0.37676 0.0
C206 C 0.07458 0.19928 0.22734 0.0
C207 C 0.12315 0.22611 0.23219 0.0
N208 N 0.03433 0.21418 0.3322 0.0
N209 N 0.10298 0.23273 0.27791 0.0
H210 H 0.27532 0.59383 0.59833 0.0
H211 H 0.27935 0.52994 0.98239 0.0
H212 H 0.2869 0.64562 0.78179 0.0
H213 H 0.21225 0.51312 0.84367 0.0
H214 H 0.29199 0.56723 0.90285 0.0
H215 H 0.26171 0.55762 0.68061 0.0
C216 C 0.27509 0.59747 0.6559 0.0
C217 C 0.28205 0.62264 0.68364 0.0
C218 C 0.27449 0.55531 0.89023 0.0
C219 C 0.26737 0.58149 0.77708 0.0
C220 C 0.26716 0.53425 0.93567 0.0
C221 C 0.24454 0.51868 0.91982 0.0
C222 C 0.25965 0.56008 0.82746 0.0
C223 C 0.22995 0.52454 0.85721 0.0
C224 C 0.26728 0.57696 0.70248 0.0
C225 C 0.28143 0.62649 0.75855 0.0
N226 N 0.23792 0.54461 0.8127 0.0
N227 N 0.27451 0.60598 0.80297 0.0
H228 H 0.89316 0.81599 0.17397 0.0
H229 H 0.95258 0.70117 0.42622 0.0
H230 H 0.84881 0.74471 0.22995 0.0
H231 H 0.98241 0.78191 0.42852 0.0
H232 H 0.9164 0.71516 0.34475 0.0
H233 H 0.92862 0.80219 0.25687 0.0
C234 C 0.89092 0.79739 0.20338 0.0
C235 C 0.86793 0.7815 0.19503 0.0
C236 C 0.93072 0.7299 0.36339 0.0
C237 C 0.90844 0.76563 0.28973 0.0
C238 C 0.95118 0.72191 0.40971 0.0
C239 C 0.96993 0.74061 0.43396 0.0
C240 C 0.92949 0.75668 0.34038 0.0
C241 C 0.96794 0.76717 0.41088 0.0
C242 C 0.91109 0.78963 0.25097 0.0
C243 C 0.86608 0.75767 0.23489 0.0
N244 N 0.94809 0.77447 0.36489 0.0
N245 N 0.88611 0.75041 0.28025 0.0
H246 H 0.71258 0.39466 0.59775 0.0
H247 H 0.70783 0.45902 0.98134 0.0
H248 H 0.70008 0.34317 0.78124 0.0
H249 H 0.77518 0.4756 0.84331 0.0
H250 H 0.69533 0.42159 0.90199 0.0
H251 H 0.72626 0.43084 0.68006 0.0
C252 C 0.71264 0.39107 0.65534 0.0
C253 C 0.70538 0.36599 0.68307 0.0
C254 C 0.71286 0.43349 0.88948 0.0
C255 C 0.72015 0.40714 0.77655 0.0
C256 C 0.7201 0.45462 0.93481 0.0
C257 C 0.74275 0.47018 0.9191 0.0
C258 C 0.72782 0.4286 0.82694 0.0
C259 C 0.75746 0.46421 0.85673 0.0
C260 C 0.7205 0.41157 0.70194 0.0
C261 C 0.70579 0.36222 0.758 0.0
N262 N 0.74957 0.44406 0.81231 0.0
N263 N 0.71275 0.38273 0.80244 0.0
H264 H 0.59056 0.31005 0.36567 0.0
H265 H 0.54285 0.21311 0.04651 0.0
H266 H 0.64192 0.25152 0.26469 0.0
H267 H 0.49524 0.27812 0.1281 0.0
H268 H 0.5794 0.22655 0.12701 0.0
H269 H 0.55495 0.29779 0.28183 0.0
C270 C 0.59437 0.29456 0.32611 0.0
C271 C 0.61936 0.28182 0.32241 0.0
C272 C 0.561 0.23795 0.12732 0.0
C273 C 0.57859 0.26775 0.22594 0.0
C274 C 0.5403 0.23036 0.08119 0.0
C275 C 0.51613 0.24444 0.08154 0.0
C276 C 0.55739 0.25977 0.17423 0.0
C277 C 0.5135 0.26654 0.12751 0.0
C278 C 0.57403 0.28765 0.27802 0.0
C279 C 0.62305 0.26195 0.26968 0.0
N280 N 0.53385 0.27347 0.17239 0.0
N281 N 0.6029 0.25553 0.22366 0.0
H282 H 0.17699 0.09266 0.85698 0.0
H283 H 0.27931 0.04711 0.5487 0.0
H284 H 0.2361 0.14529 0.76305 0.0
H285 H 0.21297 -0.00121 0.61887 0.0
H286 H 0.26422 0.08328 0.62834 0.0
H287 H 0.19072 0.05751 0.77323 0.0
C288 C 0.19289 0.09685 0.81895 0.0
C289 C 0.20539 0.12204 0.81723 0.0
C290 C 0.25284 0.06483 0.62621 0.0
C291 C 0.22115 0.08183 0.721 0.0
C292 C 0.26138 0.04437 0.5805 0.0
C293 C 0.24732 0.02017 0.57778 0.0
C294 C 0.23015 0.06091 0.66971 0.0
C295 C 0.22441 0.01718 0.62048 0.0
C296 C 0.20064 0.07678 0.77092 0.0
C297 C 0.22583 0.12625 0.76645 0.0
N298 N 0.21658 0.03728 0.6651 0.0
N299 N 0.23308 0.10635 0.72054 0.0
H300 H 0.39343 0.6755 0.35267 0.0
H301 H 0.45069 0.78551 0.08106 0.0
H302 H 0.34698 0.74335 0.28141 0.0
H303 H 0.48453 0.70683 0.10173 0.0
H304 H 0.41402 0.77226 0.16201 0.0
H305 H 0.42905 0.68863 0.26973 0.0
C306 C 0.39074 0.69322 0.31988 0.0
C307 C 0.36712 0.70832 0.32406 0.0
C308 C 0.42933 0.75779 0.14851 0.0
C309 C 0.40789 0.72344 0.22898 0.0
C310 C 0.45006 0.76534 0.10234 0.0
C311 C 0.47014 0.74703 0.08483 0.0
C312 C 0.42911 0.73188 0.17804 0.0
C313 C 0.4691 0.72127 0.1142 0.0
C314 C 0.41104 0.70061 0.27223 0.0
C315 C 0.36477 0.73103 0.27985 0.0
N316 N 0.44895 0.71444 0.15983 0.0
N317 N 0.38494 0.73795 0.23437 0.0
H318 H 0.75058 0.84418 0.78274 0.0
H319 H 0.77833 0.99266 0.63794 0.0
H320 H 0.81096 0.89628 0.87304 0.0
H321 H 0.71293 0.94332 0.56624 0.0
H322 H 0.79235 0.95683 0.72024 0.0
H323 H 0.73796 0.87959 0.6994 0.0
C324 C 0.76119 0.86308 0.78526 0.0
C325 C 0.78191 0.86719 0.83521 0.0
C326 C 0.77495 0.95378 0.68646 0.0
C327 C 0.76752 0.90792 0.73921 0.0
C328 C 0.76699 0.9742 0.63982 0.0
C329 C 0.74438 0.9708 0.59619 0.0
C330 C 0.76021 0.92981 0.68898 0.0
C331 C 0.73053 0.94647 0.59905 0.0
C332 C 0.75395 0.88332 0.73748 0.0
C333 C 0.79484 0.89219 0.83569 0.0
N334 N 0.7386 0.9269 0.6449 0.0
N335 N 0.78746 0.91158 0.7883 0.0
H336 H 0.89904 0.80954 0.8809 0.0
H337 H 0.94258 0.71093 0.56055 0.0
H338 H 0.84651 0.75096 0.78392 0.0
H339 H 0.99336 0.77324 0.64409 0.0
H340 H 0.90705 0.72517 0.64319 0.0
H341 H 0.93434 0.79593 0.7972 0.0
C342 C 0.89493 0.79378 0.84232 0.0
C343 C 0.8697 0.78146 0.83948 0.0
C344 C 0.92591 0.73585 0.64338 0.0
C345 C 0.90996 0.76586 0.74342 0.0
C346 C 0.94599 0.72783 0.59587 0.0
C347 C 0.97062 0.7411 0.59576 0.0
C348 C 0.93066 0.75721 0.69121 0.0
C349 C 0.97453 0.76252 0.64336 0.0
C350 C 0.91506 0.78608 0.79438 0.0
C351 C 0.86556 0.76116 0.78812 0.0
N352 N 0.95477 0.76992 0.68941 0.0
N353 N 0.88544 0.75404 0.74224 0.0
H354 H 0.68046 0.39748 0.37076 0.0
H355 H 0.77313 0.44099 0.03749 0.0
H356 H 0.73606 0.34398 0.26587 0.0
H357 H 0.71606 0.49294 0.14004 0.0
H358 H 0.76012 0.40486 0.12074 0.0
H359 H 0.69392 0.43291 0.28777 0.0
C360 C 0.69554 0.39317 0.33052 0.0
C361 C 0.70706 0.36764 0.32536 0.0
C362 C 0.75045 0.42418 0.12512 0.0
C363 C 0.72253 0.40815 0.22982 0.0
C364 C 0.75784 0.44461 0.07764 0.0
C365 C 0.74568 0.46974 0.08284 0.0
C366 C 0.73081 0.42911 0.17786 0.0
C367 C 0.72601 0.47379 0.13541 0.0
C368 C 0.7032 0.41341 0.28298 0.0
C369 C 0.72655 0.3633 0.27193 0.0
N370 N 0.71919 0.45371 0.181 0.0
N371 N 0.73362 0.38333 0.22624 0.0
H372 H 0.09179 0.17313 0.8463 0.0
H373 H 0.0348 0.28803 0.58846 0.0
H374 H 0.13588 0.24492 0.79367 0.0
H375 H 0.00387 0.2077 0.58846 0.0
H376 H 0.06979 0.27422 0.67387 0.0
H377 H 0.05642 0.18723 0.76304 0.0
C378 C 0.09395 0.19192 0.81772 0.0
C379 C 0.11688 0.2078 0.8267 0.0
C380 C 0.05548 0.25953 0.65492 0.0
C381 C 0.07662 0.22398 0.73169 0.0
C382 C 0.03573 0.26742 0.60629 0.0
C383 C 0.01704 0.24876 0.58152 0.0
C384 C 0.05608 0.2329 0.67954 0.0
C385 C 0.01836 0.22238 0.60639 0.0
C386 C 0.07386 0.19985 0.76992 0.0
C387 C 0.11866 0.23191 0.78802 0.0
N388 N 0.03754 0.21517 0.65444 0.0
N389 N 0.0988 0.23927 0.74237 0.0
H390 H 0.30626 0.59158 0.37194 0.0
H391 H 0.21401 0.54798 0.03786 0.0
H392 H 0.25131 0.64529 0.26559 0.0
H393 H 0.27091 0.49607 0.14103 0.0
H394 H 0.227 0.58419 0.121 0.0
H395 H 0.2928 0.55612 0.28898 0.0
C396 C 0.29132 0.59593 0.33136 0.0
C397 C 0.27998 0.62153 0.32581 0.0
C398 C 0.23663 0.56486 0.12554 0.0
C399 C 0.26451 0.58097 0.2303 0.0
C400 C 0.22925 0.54438 0.07814 0.0
C401 C 0.24137 0.51924 0.08354 0.0
C402 C 0.25622 0.55997 0.17842 0.0
C403 C 0.26098 0.51522 0.13625 0.0
C404 C 0.28367 0.57567 0.28384 0.0
C405 C 0.26068 0.62592 0.27197 0.0
N406 N 0.26779 0.53535 0.18177 0.0
N407 N 0.25359 0.60587 0.2263 0.0
H408 H 0.34771 0.74293 0.72394 0.0
H409 H 0.49279 0.7111 0.88362 0.0
H410 H 0.39682 0.67772 0.64753 0.0
H411 H 0.44477 0.77824 0.94893 0.0
H412 H 0.45758 0.69759 0.79871 0.0
H413 H 0.38289 0.75555 0.80755 0.0
C414 C 0.36594 0.73124 0.72451 0.0
C415 C 0.36921 0.7091 0.6786 0.0
C416 C 0.45462 0.71519 0.83184 0.0
C417 C 0.40974 0.72355 0.77507 0.0
C418 C 0.47461 0.7228 0.88013 0.0
C419 C 0.4713 0.74558 0.92317 0.0
C420 C 0.43123 0.73061 0.82671 0.0
C421 C 0.44765 0.76028 0.91735 0.0
C422 C 0.38606 0.73851 0.77248 0.0
C423 C 0.39341 0.69493 0.68178 0.0
N424 N 0.42848 0.75257 0.86979 0.0
N425 N 0.41273 0.70234 0.72945 0.0
H426 H 0.74315 0.84816 0.2221 0.0
H427 H 0.78065 0.98168 0.43522 0.0
H428 H 0.81421 0.89411 0.17471 0.0
H429 H 0.70035 0.95124 0.42222 0.0
H430 H 0.79538 0.94673 0.35039 0.0
H431 H 0.72881 0.8831 0.30543 0.0
C432 C 0.75574 0.86564 0.22913 0.0
C433 C 0.77997 0.8682 0.19144 0.0
C434 C 0.77455 0.94763 0.36616 0.0
C435 C 0.76371 0.90816 0.2874 0.0
C436 C 0.7663 0.96734 0.41461 0.0
C437 C 0.73945 0.96887 0.4352 0.0
C438 C 0.75574 0.9293 0.33902 0.0
C439 C 0.72126 0.9503 0.40735 0.0
C440 C 0.74748 0.8856 0.27659 0.0
C441 C 0.79535 0.89138 0.20241 0.0
N442 N 0.72975 0.93113 0.3607 0.0
N443 N 0.78706 0.9104 0.24991 0.0
H444 H 0.63469 0.23999 0.69744 0.0
H445 H 0.50729 0.28231 0.92912 0.0
H446 H 0.5948 0.3158 0.66803 0.0
H447 H 0.53083 0.20035 0.89854 0.0
H448 H 0.54223 0.29645 0.84353 0.0
H449 H 0.59937 0.22624 0.78022 0.0
C450 C 0.61844 0.25374 0.70825 0.0
C451 C 0.61772 0.27914 0.67586 0.0
C452 C 0.53979 0.27537 0.85554 0.0
C453 C 0.57734 0.26354 0.7713 0.0
C454 C 0.5201 0.26743 0.90443 0.0
C455 C 0.5166 0.24029 0.92023 0.0
C456 C 0.55615 0.25593 0.8232 0.0
C457 C 0.53325 0.22147 0.88727 0.0
C458 C 0.59825 0.24583 0.75541 0.0
C459 C 0.59607 0.29602 0.69157 0.0
N460 N 0.55245 0.22964 0.84034 0.0
N461 N 0.57682 0.28801 0.73876 0.0
H462 H 0.24482 0.14136 0.2067 0.0
H463 H 0.21098 0.00373 0.40579 0.0
H464 H 0.17579 0.09329 0.15288 0.0
H465 H 0.2884 0.04112 0.4135 0.0
H466 H 0.1959 0.03822 0.32028 0.0
H467 H 0.25965 0.10649 0.28919 0.0
C468 C 0.23277 0.12342 0.21209 0.0
C469 C 0.20893 0.12029 0.1729 0.0
C470 C 0.21617 0.03896 0.34076 0.0
C471 C 0.22582 0.08029 0.26792 0.0
C472 C 0.22461 0.01949 0.38957 0.0
C473 C 0.2507 0.02013 0.41656 0.0
C474 C 0.23405 0.05919 0.31939 0.0
C475 C 0.26801 0.04045 0.39408 0.0
C476 C 0.24132 0.10349 0.25915 0.0
C477 C 0.19431 0.09651 0.18182 0.0
N478 N 0.25935 0.05932 0.34685 0.0
N479 N 0.2029 0.07748 0.22885 0.0
H480 H 0.18374 0.29333 0.89418 0.0
H481 H 0.24736 0.41968 0.08715 0.0
H482 H 0.21386 0.29112 0.11228 0.0
H483 H 0.18852 0.42841 0.91939 0.0
H484 H 0.23836 0.37158 0.09048 0.0
H485 H 0.18783 0.34223 0.89561 0.0
C486 C 0.19103 0.30311 0.94248 0.0
C487 C 0.19861 0.28809 1.0031 0.0
C488 C 0.22725 0.38401 0.05326 0.0
C489 C 0.20361 0.34379 0.00455 0.0
C490 C 0.23231 0.4114 0.05162 0.0
C491 C 0.2184 0.42788 1.00355 0.0
C492 C 0.20849 0.37296 0.00546 0.0
C493 C 0.19967 0.41619 0.95693 0.0
C494 C 0.19328 0.33097 0.94325 0.0
C495 C 0.20777 0.30183 0.06433 0.0
N496 N 0.19532 0.38931 0.95868 0.0
N497 N 0.2103 0.32887 0.06317 0.0
H498 H 0.19926 0.71856 0.62044 0.0
H499 H 0.05983 0.68337 0.43714 0.0
H500 H 0.19524 0.6864 0.40452 0.0
H501 H 0.0702 0.74824 0.58771 0.0
H502 H 0.10862 0.67669 0.43609 0.0
H503 H 0.15057 0.72116 0.62274 0.0
C504 C 0.18814 0.71179 0.57373 0.0
C505 C 0.20135 0.70241 0.51195 0.0
C506 C 0.1001 0.6923 0.46948 0.0
C507 C 0.14564 0.70529 0.51459 0.0
C508 C 0.07243 0.69615 0.46987 0.0
C509 C 0.06117 0.71628 0.51285 0.0
C510 C 0.11634 0.70843 0.51336 0.0
C511 C 0.07814 0.73216 0.55509 0.0
C512 C 0.16038 0.71344 0.57502 0.0
C513 C 0.18585 0.69399 0.45297 0.0
N514 N 0.10489 0.72782 0.55462 0.0
N515 N 0.15872 0.69559 0.45573 0.0
H516 H 0.77275 0.69759 0.12603 0.0
H517 H 0.79916 0.56015 0.91927 0.0
H518 H 0.80269 0.69569 0.90765 0.0
H519 H 0.74017 0.56942 0.08657 0.0
H520 H 0.80769 0.60871 0.92357 0.0
H521 H 0.76869 0.64894 0.12354 0.0
C522 C 0.77874 0.68696 0.07777 0.0
C523 C 0.78788 0.70079 0.01671 0.0
C524 C 0.79297 0.60002 0.95945 0.0
C525 C 0.78324 0.64508 0.01373 0.0
C526 C 0.78808 0.57248 0.95681 0.0
C527 C 0.7691 0.56097 1.003 0.0
C528 C 0.77901 0.61587 0.00935 0.0
C529 C 0.75533 0.57756 0.05121 0.0
C530 C 0.77625 0.6592 0.07632 0.0
C531 C 0.79531 0.68586 0.9557 0.0
N532 N 0.76064 0.60417 0.05341 0.0
N533 N 0.79281 0.65875 0.9557 0.0
H534 H 0.79055 0.30393 0.40185 0.0
H535 H 0.91833 0.23709 0.57661 0.0
H536 H 0.78875 0.26792 0.6133 0.0
H537 H 0.92548 0.30404 0.4319 0.0
H538 H 0.86984 0.24425 0.58187 0.0
H539 H 0.83946 0.3007 0.4025 0.0
C540 C 0.80044 0.29548 0.44851 0.0
C541 C 0.78558 0.28612 0.50757 0.0
C542 C 0.88201 0.25741 0.54905 0.0
C543 C 0.84126 0.28203 0.50803 0.0
C544 C 0.90954 0.25331 0.54608 0.0
C545 C 0.9256 0.26989 0.50332 0.0
C546 C 0.87051 0.27799 0.50803 0.0
C547 C 0.9135 0.29059 0.46429 0.0
C548 C 0.8283 0.29374 0.4489 0.0
C549 C 0.79942 0.27547 0.56676 0.0
N550 N 0.88655 0.29395 0.46698 0.0
N551 N 0.82648 0.27341 0.56512 0.0
H552 H 0.71702 0.19709 0.38984 0.0
H553 H 0.68107 0.05928 0.5825 0.0
H554 H 0.68272 0.19466 0.60337 0.0
H555 H 0.74706 0.06783 0.43526 0.0
H556 H 0.6738 0.10801 0.57719 0.0
H557 H 0.71999 0.14825 0.39082 0.0
C558 C 0.70985 0.18628 0.43662 0.0
C559 C 0.69977 0.19995 0.49685 0.0
C560 C 0.68984 0.09915 0.54607 0.0
C561 C 0.70301 0.14419 0.49796 0.0
C562 C 0.69402 0.07155 0.54938 0.0
C563 C 0.71487 0.05991 0.51001 0.0
C564 C 0.70628 0.1149 0.50172 0.0
C565 C 0.73079 0.07627 0.46625 0.0
C566 C 0.7117 0.15846 0.43723 0.0
C567 C 0.69085 0.1849 0.5561 0.0
N568 N 0.72614 0.103 0.46307 0.0
N569 N 0.69264 0.15775 0.55516 0.0
H570 H 0.28773 0.22195 0.88678 0.0
H571 H 0.4262 0.18285 0.06995 0.0
H572 H 0.29109 0.18516 0.09714 0.0
H573 H 0.41762 0.25035 0.92775 0.0
H574 H 0.37736 0.17637 0.06725 0.0
H575 H 0.33652 0.22497 0.88639 0.0
C576 C 0.29873 0.21427 0.9326 0.0
C577 C 0.28533 0.20341 0.9923 0.0
C578 C 0.38623 0.19258 0.03672 0.0
C579 C 0.34106 0.20671 0.99182 0.0
C580 C 0.4139 0.19632 0.03855 0.0
C581 C 0.42559 0.21735 0.99981 0.0
C582 C 0.37042 0.20967 0.99445 0.0
C583 C 0.40915 0.23393 0.95823 0.0
C584 C 0.32653 0.21615 0.93245 0.0
C585 C 0.30063 0.19388 0.05031 0.0
N586 N 0.38235 0.2297 0.95642 0.0
N587 N 0.32775 0.19568 0.04858 0.0
H588 H 0.3055 0.79427 0.60485 0.0
H589 H 0.23976 0.92221 0.42723 0.0
H590 H 0.26788 0.79185 0.39546 0.0
H591 H 0.30839 0.92923 0.56603 0.0
H592 H 0.24572 0.87349 0.42498 0.0
H593 H 0.30298 0.84332 0.60232 0.0
C594 C 0.2968 0.80405 0.55833 0.0
C595 C 0.28684 0.78899 0.50031 0.0
C596 C 0.25952 0.88569 0.45582 0.0
C597 C 0.28361 0.84477 0.49769 0.0
C598 C 0.25612 0.91335 0.45699 0.0
C599 C 0.27354 0.92944 0.49717 0.0
C600 C 0.28023 0.8741 0.49614 0.0
C601 C 0.29433 0.91724 0.53555 0.0
C602 C 0.29549 0.83196 0.55685 0.0
C603 C 0.27589 0.80266 0.44122 0.0
N604 N 0.29701 0.89016 0.53469 0.0
N605 N 0.2743 0.82978 0.44178 0.0
H606 H 0.69645 0.80393 0.11667 0.0
H607 H 0.57038 0.73613 0.93452 0.0
H608 H 0.69941 0.76765 0.90546 0.0
H609 H 0.56139 0.80312 0.07873 0.0
H610 H 0.61876 0.74338 0.93375 0.0
H611 H 0.64752 0.80026 0.1143 0.0
C612 C 0.68683 0.79532 0.06976 0.0
C613 C 0.70201 0.78601 0.01123 0.0
C614 C 0.6062 0.75659 0.9653 0.0
C615 C 0.64639 0.78147 0.00881 0.0
C616 C 0.57868 0.75252 0.96547 0.0
C617 C 0.56205 0.76926 0.00607 0.0
C618 C 0.6172 0.77723 0.00725 0.0
C619 C 0.57371 0.78974 0.04717 0.0
C620 C 0.65897 0.79333 0.0684 0.0
C621 C 0.68852 0.77515 0.95166 0.0
N622 N 0.60071 0.79311 0.04707 0.0
N623 N 0.66149 0.77291 0.95234 0.0
loop_
_geom_bond_atom_site_label_1
_geom_bond_atom_site_label_2
_geom_bond_distance
_geom_bond_site_symmetry_2
_ccdc_geom_bond_type
Sc0 O3 2.026 . S
Sc0 O10 2.105 . S
Sc0 O13 2.105 . S
Sc0 O16 2.105 . S
Sc0 O19 2.105 . S
Sc1 O3 2.025 . S
Sc1 O11 2.105 . S
Sc1 O15 2.105 1_554 S
Sc1 O17 2.105 . S
Sc1 O21 2.105 1_554 S
Sc2 O3 2.025 1_556 S
Sc2 O12 2.105 . S
Sc2 O14 2.105 . S
Sc2 O18 2.105 . S
Sc2 O20 2.105 . S
O3 Sc0 2.026 . S
O3 Sc1 2.025 . S
O3 Sc2 2.025 1_554 S
C4 O10 1.270 . S
C4 O20 1.266 1_554 S
C5 O11 1.268 . S
C5 O19 1.268 . S
C6 O12 1.268 . S
C6 O21 1.268 . S
C7 O13 1.268 . S
C7 O17 1.268 . S
C8 O14 1.266 1_554 S
C8 O16 1.270 . S
C9 O15 1.268 . S
C9 O18 1.268 . S
O10 Sc0 2.105 . S
O10 C4 1.270 . S
O11 Sc1 2.105 . S
O11 C5 1.268 . S
O12 Sc2 2.105 . S
O12 C6 1.268 . S
O13 Sc0 2.105 . S
O13 C7 1.268 . S
O14 Sc2 2.105 . S
O14 C8 1.266 1_556 S
O15 Sc1 2.105 1_556 S
O15 C9 1.268 . S
O16 Sc0 2.105 . S
O16 C8 1.270 . S
O17 Sc1 2.105 . S
O17 C7 1.268 . S
O18 Sc2 2.105 . S
O18 C9 1.268 . S
O19 Sc0 2.105 . S
O19 C5 1.268 . S
O20 Sc2 2.105 . S
O20 C4 1.266 1_556 S
O21 Sc1 2.105 1_556 S
O21 C6 1.268 . S
Sc22 O25 2.025 . S
Sc22 O32 2.105 . S
Sc22 O35 2.105 . S
Sc22 O38 2.105 . S
Sc22 O41 2.105 . S
Sc23 O25 2.025 . S
Sc23 O33 2.105 . S
Sc23 O37 2.105 . S
Sc23 O39 2.105 . S
Sc23 O43 2.105 . S
Sc24 O25 2.025 . S
Sc24 O34 2.105 . S
Sc24 O36 2.105 . S
Sc24 O40 2.105 . S
Sc24 O42 2.105 . S
O25 Sc22 2.025 . S
O25 Sc23 2.025 . S
O25 Sc24 2.025 . S
C26 O32 1.268 . S
C26 O42 1.268 . S
C27 O33 1.268 . S
C27 O41 1.268 . S
C28 O34 1.268 . S
C28 O43 1.268 . S
C29 O35 1.268 . S
C29 O39 1.268 . S
C30 O36 1.268 . S
C30 O38 1.268 . S
C31 O37 1.268 . S
C31 O40 1.268 . S
O32 Sc22 2.105 . S
O32 C26 1.268 . S
O33 Sc23 2.105 . S
O33 C27 1.268 . S
O34 Sc24 2.105 . S
O34 C28 1.268 . S
O35 Sc22 2.105 . S
O35 C29 1.268 . S
O36 Sc24 2.105 . S
O36 C30 1.268 . S
O37 Sc23 2.105 . S
O37 C31 1.268 . S
O38 Sc22 2.105 . S
O38 C30 1.268 . S
O39 Sc23 2.105 . S
O39 C29 1.268 . S
O40 Sc24 2.105 . S
O40 C31 1.268 . S
O41 Sc22 2.105 . S
O41 C27 1.268 . S
O42 Sc24 2.105 . S
O42 C26 1.268 . S
O43 Sc23 2.105 . S
O43 C28 1.268 . S
Sc44 O47 2.020 1_556 S
Sc44 O54 2.105 . S
Sc44 O57 2.105 . S
Sc44 O60 2.105 . S
Sc44 O63 2.105 . S
Sc45 O47 2.025 . S
Sc45 O55 2.100 1_554 S
Sc45 O59 2.110 . S
Sc45 O61 2.100 1_554 S
Sc45 O65 2.110 . S
Sc46 O47 2.031 . S
Sc46 O56 2.105 . S
Sc46 O58 2.105 . S
Sc46 O62 2.105 . S
Sc46 O64 2.105 . S
O47 Sc44 2.020 1_554 S
O47 Sc45 2.025 . S
O47 Sc46 2.031 . S
C48 O54 1.264 1_554 S
C48 O64 1.273 . S
C49 O55 1.268 . S
C49 O63 1.268 . S
C50 O56 1.268 . S
C50 O65 1.268 . S
C51 O57 1.268 . S
C51 O61 1.268 . S
C52 O58 1.273 . S
C52 O60 1.264 1_554 S
C53 O59 1.268 . S
C53 O62 1.268 . S
O54 Sc44 2.105 . S
O54 C48 1.264 1_556 S
O55 Sc45 2.100 1_556 S
O55 C49 1.268 . S
O56 Sc46 2.105 . S
O56 C50 1.268 . S
O57 Sc44 2.105 . S
O57 C51 1.268 . S
O58 Sc46 2.105 . S
O58 C52 1.273 . S
O59 Sc45 2.110 . S
O59 C53 1.268 . S
O60 Sc44 2.105 . S
O60 C52 1.264 1_556 S
O61 Sc45 2.100 1_556 S
O61 C51 1.268 . S
O62 Sc46 2.105 . S
O62 C53 1.268 . S
O63 Sc44 2.105 . S
O63 C49 1.268 . S
O64 Sc46 2.105 . S
O64 C48 1.273 . S
O65 Sc45 2.110 . S
O65 C50 1.268 . S
Sc66 O69 2.025 . S
Sc66 O76 2.105 . S
Sc66 O79 2.105 . S
Sc66 O82 2.105 . S
Sc66 O85 2.105 . S
Sc67 O69 2.025 . S
Sc67 O77 2.105 . S
Sc67 O81 2.105 . S
Sc67 O83 2.105 . S
Sc67 O87 2.105 . S
Sc68 O69 2.025 . S
Sc68 O78 2.105 . S
Sc68 O80 2.105 . S
Sc68 O84 2.105 . S
Sc68 O86 2.105 . S
O69 Sc66 2.025 . S
O69 Sc67 2.025 . S
O69 Sc68 2.025 . S
C70 O76 1.268 . S
C70 O86 1.268 . S
C71 O77 1.268 . S
C71 O85 1.268 . S
C72 O78 1.268 . S
C72 O87 1.268 . S
C73 O79 1.268 . S
C73 O83 1.268 . S
C74 O80 1.268 . S
C74 O82 1.268 . S
C75 O81 1.268 . S
C75 O84 1.268 . S
O76 Sc66 2.105 . S
O76 C70 1.268 . S
O77 Sc67 2.105 . S
O77 C71 1.268 . S
O78 Sc68 2.105 . S
O78 C72 1.268 . S
O79 Sc66 2.105 . S
O79 C73 1.268 . S
O80 Sc68 2.105 . S
O80 C74 1.268 . S
O81 Sc67 2.105 . S
O81 C75 1.268 . S
O82 Sc66 2.105 . S
O82 C74 1.268 . S
O83 Sc67 2.105 . S
O83 C73 1.268 . S
O84 Sc68 2.105 . S
O84 C75 1.268 . S
O85 Sc66 2.105 . S
O85 C71 1.268 . S
O86 Sc68 2.105 . S
O86 C70 1.268 . S
O87 Sc67 2.105 . S
O87 C72 1.268 . S
C88 N89 1.317 . S
C88 N90 1.361 . S
C88 C91 1.485 . S
N89 C88 1.317 . S
N89 N93 1.370 1_556 S
N90 C88 1.361 . S
N90 C92 1.334 1_556 S
C91 C88 1.485 . S
C91 H95 0.960 . S
C91 H96 0.961 . S
C91 H97 0.960 . S
C92 N90 1.334 1_554 S
C92 N93 1.307 . S
C92 C94 1.486 . S
N93 N89 1.370 1_554 S
N93 C92 1.307 . S
C94 C92 1.486 . S
C94 H98 0.960 . S
C94 H99 0.960 . S
C94 H100 0.959 . S
H95 C91 0.960 . S
H96 C91 0.961 . S
H97 C91 0.960 . S
H98 C94 0.960 . S
H99 C94 0.960 . S
H100 C94 0.959 . S
C101 N102 1.317 1_455 S
C101 N103 1.348 . S
C101 C104 1.485 . S
N102 C101 1.317 1_655 S
N102 N106 1.370 . S
N103 C101 1.348 . S
N103 C105 1.346 . S
C104 C101 1.485 . S
C104 H108 0.960 . S
C104 H109 0.961 . S
C104 H110 0.960 1_455 S
C105 N103 1.346 . S
C105 N106 1.307 1_455 S
C105 C107 1.486 . S
N106 N102 1.370 . S
N106 C105 1.307 1_655 S
C107 C105 1.486 . S
C107 H111 0.960 . S
C107 H112 0.960 . S
C107 H113 0.959 1_455 S
H108 C104 0.960 . S
H109 C104 0.961 . S
H110 C104 0.960 1_655 S
H111 C107 0.960 . S
H112 C107 0.960 . S
H113 C107 0.959 1_655 S
C114 N115 1.317 . S
C114 N116 1.348 . S
C114 C117 1.485 . S
N115 C114 1.317 . S
N115 N119 1.370 1_554 S
N116 C114 1.348 . S
N116 C118 1.346 1_554 S
C117 C114 1.485 . S
C117 H121 0.960 . S
C117 H122 0.961 . S
C117 H123 0.960 . S
C118 N116 1.346 1_556 S
C118 N119 1.307 . S
C118 C120 1.486 . S
N119 N115 1.370 1_556 S
N119 C118 1.307 . S
C120 C118 1.486 . S
C120 H124 0.960 . S
C120 H125 0.960 . S
C120 H126 0.959 . S
H121 C117 0.960 . S
H122 C117 0.961 . S
H123 C117 0.960 . S
H124 C120 0.960 . S
H125 C120 0.960 . S
H126 C120 0.959 . S
C127 N128 1.317 1_655 S
C127 N129 1.348 . S
C127 C130 1.485 . S
N128 C127 1.317 1_455 S
N128 N132 1.370 . S
N129 C127 1.348 . S
N129 C131 1.346 . S
C130 C127 1.485 . S
C130 H134 0.960 . S
C130 H135 0.961 . S
C130 H136 0.946 1_655 S
C131 N129 1.346 . S
C131 N132 1.307 1_655 S
C131 C133 1.486 . S
N132 N128 1.370 . S
N132 C131 1.307 1_455 S
C133 C131 1.486 . S
C133 H137 0.960 . S
C133 H138 0.960 . S
C133 H139 0.959 1_655 S
H134 C130 0.960 . S
H135 C130 0.961 . S
H136 C130 0.946 1_455 S
H137 C133 0.960 . S
H138 C133 0.960 . S
H139 C133 0.959 1_455 S
C140 N141 1.317 1_545 S
C140 N142 1.348 . S
C140 C143 1.485 . S
N141 C140 1.317 1_565 S
N141 N145 1.370 . S
N142 C140 1.348 . S
N142 C144 1.346 . S
C143 C140 1.485 . S
C143 H147 0.960 . S
C143 H148 0.961 . S
C143 H149 0.946 1_545 S
C144 N142 1.346 . S
C144 N145 1.307 1_545 S
C144 C146 1.486 . S
N145 N141 1.370 . S
N145 C144 1.307 1_565 S
C146 C144 1.486 . S
C146 H150 0.960 . S
C146 H151 0.960 . S
C146 H152 0.959 1_545 S
H147 C143 0.960 . S
H148 C143 0.961 . S
H149 C143 0.946 1_565 S
H150 C146 0.960 . S
H151 C146 0.960 . S
H152 C146 0.959 1_565 S
C153 N154 1.317 . S
C153 N155 1.361 . S
C153 C156 1.485 . S
N154 C153 1.317 . S
N154 N158 1.370 1_556 S
N155 C153 1.361 . S
N155 C157 1.334 1_556 S
C156 C153 1.485 . S
C156 H160 0.960 . S
C156 H161 0.961 . S
C156 H162 0.960 . S
C157 N155 1.334 1_554 S
C157 N158 1.307 . S
C157 C159 1.486 . S
N158 N154 1.370 1_554 S
N158 C157 1.307 . S
C159 C157 1.486 . S
C159 H163 0.960 . S
C159 H164 0.960 . S
C159 H165 0.959 . S
H160 C156 0.960 . S
H161 C156 0.961 . S
H162 C156 0.960 . S
H163 C159 0.960 . S
H164 C159 0.960 . S
H165 C159 0.959 . S
C166 N167 1.317 1_565 S
C166 N168 1.348 . S
C166 C169 1.485 . S
N167 C166 1.317 1_545 S
N167 N171 1.370 . S
N168 C166 1.348 . S
N168 C170 1.346 . S
C169 C166 1.485 . S
C169 H173 0.960 . S
C169 H174 0.961 . S
C169 H175 0.960 1_565 S
C170 N168 1.346 . S
C170 N171 1.307 1_565 S
C170 C172 1.486 . S
N171 N167 1.370 . S
N171 C170 1.307 1_545 S
C172 C170 1.486 . S
C172 H176 0.960 . S
C172 H177 0.960 . S
C172 H178 0.959 1_565 S
H173 C169 0.960 . S
H174 C169 0.961 . S
H175 C169 0.960 1_545 S
H176 C172 0.960 . S
H177 C172 0.960 . S
H178 C172 0.959 1_545 S
C179 N180 1.317 . S
C179 N181 1.348 . S
C179 C182 1.485 . S
N180 C179 1.317 . S
N180 N184 1.370 1_554 S
N181 C179 1.348 . S
N181 C183 1.346 1_554 S
C182 C179 1.485 . S
C182 H186 0.960 . S
C182 H187 0.961 . S
C182 H188 0.960 . S
C183 N181 1.346 1_556 S
C183 N184 1.307 . S
C183 C185 1.486 . S
N184 N180 1.370 1_556 S
N184 C183 1.307 . S
C185 C183 1.486 . S
C185 H189 0.960 . S
C185 H190 0.960 . S
C185 H191 0.959 . S
H186 C182 0.960 . S
H187 C182 0.961 . S
H188 C182 0.960 . S
H189 C185 0.960 . S
H190 C185 0.960 . S
H191 C185 0.959 . S
H192 C198 0.930 . S
H193 C202 0.930 . S
H194 C207 0.929 . S
H195 C205 0.929 . S
H196 C200 0.929 . S
H197 C206 0.929 . S
C198 H192 0.930 . S
C198 C199 1.367 . S
C198 C206 1.378 . S
C199 C198 1.367 . S
C199 C207 1.433 . S
C200 H196 0.929 . S
C200 C202 1.378 . S
C200 C204 1.350 . S
C201 C204 1.463 . S
C201 C206 1.350 . S
C201 N209 1.427 . S
C202 H193 0.930 . S
C202 C200 1.378 . S
C202 C203 1.367 . S
C203 C202 1.367 . S
C203 C205 1.433 . S
C204 C200 1.350 . S
C204 C201 1.463 . S
C204 N208 1.427 . S
C205 H195 0.929 . S
C205 C203 1.433 . S
C205 N208 1.384 . S
C206 H197 0.929 . S
C206 C198 1.378 . S
C206 C201 1.350 . S
C207 H194 0.929 . S
C207 C199 1.433 . S
C207 N209 1.384 . S
N208 C204 1.427 . S
N208 C205 1.384 . S
N209 C201 1.427 . S
N209 C207 1.384 . S
H210 C216 0.930 . S
H211 C220 0.930 . S
H212 C225 0.929 . S
H213 C223 0.929 . S
H214 C218 0.929 . S
H215 C224 0.929 . S
C216 H210 0.930 . S
C216 C217 1.367 . S
C216 C224 1.378 . S
C217 C216 1.367 . S
C217 C225 1.433 . S
C218 H214 0.929 . S
C218 C220 1.378 . S
C218 C222 1.350 . S
C219 C222 1.463 . S
C219 C224 1.350 . S
C219 N227 1.427 . S
C220 H211 0.930 . S
C220 C218 1.378 . S
C220 C221 1.367 . S
C221 C220 1.367 . S
C221 C223 1.433 . S
C222 C218 1.350 . S
C222 C219 1.463 . S
C222 N226 1.427 . S
C223 H213 0.929 . S
C223 C221 1.433 . S
C223 N226 1.384 . S
C224 H215 0.929 . S
C224 C216 1.378 . S
C224 C219 1.350 . S
C225 H212 0.929 . S
C225 C217 1.433 . S
C225 N227 1.384 . S
N226 C222 1.427 . S
N226 C223 1.384 . S
N227 C219 1.427 . S
N227 C225 1.384 . S
H228 C234 0.930 . S
H229 C238 0.930 . S
H230 C243 0.929 . S
H231 C241 0.929 . S
H232 C236 0.929 . S
H233 C242 0.929 . S
C234 H228 0.930 . S
C234 C235 1.367 . S
C234 C242 1.378 . S
C235 C234 1.367 . S
C235 C243 1.433 . S
C236 H232 0.929 . S
C236 C238 1.378 . S
C236 C240 1.350 . S
C237 C240 1.463 . S
C237 C242 1.350 . S
C237 N245 1.427 . S
C238 H229 0.930 . S
C238 C236 1.378 . S
C238 C239 1.367 . S
C239 C238 1.367 . S
C239 C241 1.433 . S
C240 C236 1.350 . S
C240 C237 1.463 . S
C240 N244 1.427 . S
C241 H231 0.929 . S
C241 C239 1.433 . S
C241 N244 1.384 . S
C242 H233 0.929 . S
C242 C234 1.378 . S
C242 C237 1.350 . S
C243 H230 0.929 . S
C243 C235 1.433 . S
C243 N245 1.384 . S
N244 C240 1.427 . S
N244 C241 1.384 . S
N245 C237 1.427 . S
N245 C243 1.384 . S
H246 C252 0.930 . S
H247 C256 0.930 . S
H248 C261 0.929 . S
H249 C259 0.929 . S
H250 C254 0.929 . S
H251 C260 0.929 . S
C252 H246 0.930 . S
C252 C253 1.367 . S
C252 C260 1.378 . S
C253 C252 1.367 . S
C253 C261 1.433 . S
C254 H250 0.929 . S
C254 C256 1.378 . S
C254 C258 1.350 . S
C255 C258 1.463 . S
C255 C260 1.350 . S
C255 N263 1.427 . S
C256 H247 0.930 . S
C256 C254 1.378 . S
C256 C257 1.367 . S
C257 C256 1.367 . S
C257 C259 1.433 . S
C258 C254 1.350 . S
C258 C255 1.463 . S
C258 N262 1.427 . S
C259 H249 0.929 . S
C259 C257 1.433 . S
C259 N262 1.384 . S
C260 H251 0.929 . S
C260 C252 1.378 . S
C260 C255 1.350 . S
C261 H248 0.929 . S
C261 C253 1.433 . S
C261 N263 1.384 . S
N262 C258 1.427 . S
N262 C259 1.384 . S
N263 C255 1.427 . S
N263 C261 1.384 . S
H264 C270 0.930 . S
H265 C274 0.930 . S
H266 C279 0.929 . S
H267 C277 0.929 . S
H268 C272 0.929 . S
H269 C278 0.929 . S
C270 H264 0.930 . S
C270 C271 1.367 . S
C270 C278 1.378 . S
C271 C270 1.367 . S
C271 C279 1.433 . S
C272 H268 0.929 . S
C272 C274 1.378 . S
C272 C276 1.350 . S
C273 C276 1.463 . S
C273 C278 1.350 . S
C273 N281 1.427 . S
C274 H265 0.930 . S
C274 C272 1.378 . S
C274 C275 1.367 . S
C275 C274 1.367 . S
C275 C277 1.433 . S
C276 C272 1.350 . S
C276 C273 1.463 . S
C276 N280 1.427 . S
C277 H267 0.929 . S
C277 C275 1.433 . S
C277 N280 1.384 . S
C278 H269 0.929 . S
C278 C270 1.378 . S
C278 C273 1.350 . S
C279 H266 0.929 . S
C279 C271 1.433 . S
C279 N281 1.384 . S
N280 C276 1.427 . S
N280 C277 1.384 . S
N281 C273 1.427 . S
N281 C279 1.384 . S
H282 C288 0.930 . S
H283 C292 0.930 . S
H284 C297 0.929 . S
H285 C295 0.929 . S
H286 C290 0.929 . S
H287 C296 0.929 . S
C288 H282 0.930 . S
C288 C289 1.367 . S
C288 C296 1.378 . S
C289 C288 1.367 . S
C289 C297 1.433 . S
C290 H286 0.929 . S
C290 C292 1.378 . S
C290 C294 1.350 . S
C291 C294 1.463 . S
C291 C296 1.350 . S
C291 N299 1.427 . S
C292 H283 0.930 . S
C292 C290 1.378 . S
C292 C293 1.367 . S
C293 C292 1.367 . S
C293 C295 1.433 . S
C294 C290 1.350 . S
C294 C291 1.463 . S
C294 N298 1.427 . S
C295 H285 0.929 . S
C295 C293 1.433 . S
C295 N298 1.384 . S
C296 H287 0.929 . S
C296 C288 1.378 . S
C296 C291 1.350 . S
C297 H284 0.929 . S
C297 C289 1.433 . S
C297 N299 1.384 . S
N298 C294 1.427 . S
N298 C295 1.384 . S
N299 C291 1.427 . S
N299 C297 1.384 . S
H300 C306 0.930 . S
H301 C310 0.930 . S
H302 C315 0.929 . S
H303 C313 0.929 . S
H304 C308 0.929 . S
H305 C314 0.929 . S
C306 H300 0.930 . S
C306 C307 1.367 . S
C306 C314 1.378 . S
C307 C306 1.367 . S
C307 C315 1.433 . S
C308 H304 0.929 . S
C308 C310 1.378 . S
C308 C312 1.350 . S
C309 C312 1.463 . S
C309 C314 1.350 . S
C309 N317 1.427 . S
C310 H301 0.930 . S
C310 C308 1.378 . S
C310 C311 1.367 . S
C311 C310 1.367 . S
C311 C313 1.433 . S
C312 C308 1.350 . S
C312 C309 1.463 . S
C312 N316 1.427 . S
C313 H303 0.929 . S
C313 C311 1.433 . S
C313 N316 1.384 . S
C314 H305 0.929 . S
C314 C306 1.378 . S
C314 C309 1.350 . S
C315 H302 0.929 . S
C315 C307 1.433 . S
C315 N317 1.384 . S
N316 C312 1.427 . S
N316 C313 1.384 . S
N317 C309 1.427 . S
N317 C315 1.384 . S
H318 C324 0.930 . S
H319 C328 0.930 . S
H320 C333 0.929 . S
H321 C331 0.929 . S
H322 C326 0.929 . S
H323 C332 0.929 . S
C324 H318 0.930 . S
C324 C325 1.367 . S
C324 C332 1.378 . S
C325 C324 1.367 . S
C325 C333 1.433 . S
C326 H322 0.929 . S
C326 C328 1.378 . S
C326 C330 1.350 . S
C327 C330 1.463 . S
C327 C332 1.350 . S
C327 N335 1.427 . S
C328 H319 0.930 . S
C328 C326 1.378 . S
C328 C329 1.367 . S
C329 C328 1.367 . S
C329 C331 1.433 . S
C330 C326 1.350 . S
C330 C327 1.463 . S
C330 N334 1.427 . S
C331 H321 0.929 . S
C331 C329 1.433 . S
C331 N334 1.384 . S
C332 H323 0.929 . S
C332 C324 1.378 . S
C332 C327 1.350 . S
C333 H320 0.929 . S
C333 C325 1.433 . S
C333 N335 1.384 . S
N334 C330 1.427 . S
N334 C331 1.384 . S
N335 C327 1.427 . S
N335 C333 1.384 . S
H336 C342 0.930 . S
H337 C346 0.930 . S
H338 C351 0.929 . S
H339 C349 0.929 . S
H340 C344 0.929 . S
H341 C350 0.929 . S
C342 H336 0.930 . S
C342 C343 1.367 . S
C342 C350 1.378 . S
C343 C342 1.367 . S
C343 C351 1.433 . S
C344 H340 0.929 . S
C344 C346 1.378 . S
C344 C348 1.350 . S
C345 C348 1.463 . S
C345 C350 1.350 . S
C345 N353 1.427 . S
C346 H337 0.930 . S
C346 C344 1.378 . S
C346 C347 1.367 . S
C347 C346 1.367 . S
C347 C349 1.433 . S
C348 C344 1.350 . S
C348 C345 1.463 . S
C348 N352 1.427 . S
C349 H339 0.929 . S
C349 C347 1.433 . S
C349 N352 1.384 . S
C350 H341 0.929 . S
C350 C342 1.378 . S
C350 C345 1.350 . S
C351 H338 0.929 . S
C351 C343 1.433 . S
C351 N353 1.384 . S
N352 C348 1.427 . S
N352 C349 1.384 . S
N353 C345 1.427 . S
N353 C351 1.384 . S
H354 C360 0.930 . S
H355 C364 0.930 . S
H356 C369 0.929 . S
H357 C367 0.929 . S
H358 C362 0.929 . S
H359 C368 0.929 . S
C360 H354 0.930 . S
C360 C361 1.367 . S
C360 C368 1.378 . S
C361 C360 1.367 . S
C361 C369 1.433 . S
C362 H358 0.929 . S
C362 C364 1.378 . S
C362 C366 1.350 . S
C363 C366 1.463 . S
C363 C368 1.350 . S
C363 N371 1.427 . S
C364 H355 0.930 . S
C364 C362 1.378 . S
C364 C365 1.367 . S
C365 C364 1.367 . S
C365 C367 1.433 . S
C366 C362 1.350 . S
C366 C363 1.463 . S
C366 N370 1.427 . S
C367 H357 0.929 . S
C367 C365 1.433 . S
C367 N370 1.384 . S
C368 H359 0.929 . S
C368 C360 1.378 . S
C368 C363 1.350 . S
C369 H356 0.929 . S
C369 C361 1.433 . S
C369 N371 1.384 . S
N370 C366 1.427 . S
N370 C367 1.384 . S
N371 C363 1.427 . S
N371 C369 1.384 . S
H372 C378 0.930 . S
H373 C382 0.930 . S
H374 C387 0.929 . S
H375 C385 0.929 . S
H376 C380 0.929 . S
H377 C386 0.929 . S
C378 H372 0.930 . S
C378 C379 1.367 . S
C378 C386 1.378 . S
C379 C378 1.367 . S
C379 C387 1.433 . S
C380 H376 0.929 . S
C380 C382 1.378 . S
C380 C384 1.350 . S
C381 C384 1.463 . S
C381 C386 1.350 . S
C381 N389 1.427 . S
C382 H373 0.930 . S
C382 C380 1.378 . S
C382 C383 1.367 . S
C383 C382 1.367 . S
C383 C385 1.433 . S
C384 C380 1.350 . S
C384 C381 1.463 . S
C384 N388 1.427 . S
C385 H375 0.929 . S
C385 C383 1.433 . S
C385 N388 1.384 . S
C386 H377 0.929 . S
C386 C378 1.378 . S
C386 C381 1.350 . S
C387 H374 0.929 . S
C387 C379 1.433 . S
C387 N389 1.384 . S
N388 C384 1.427 . S
N388 C385 1.384 . S
N389 C381 1.427 . S
N389 C387 1.384 . S
H390 C396 0.930 . S
H391 C400 0.930 . S
H392 C405 0.929 . S
H393 C403 0.929 . S
H394 C398 0.929 . S
H395 C404 0.929 . S
C396 H390 0.930 . S
C396 C397 1.367 . S
C396 C404 1.378 . S
C397 C396 1.367 . S
C397 C405 1.433 . S
C398 H394 0.929 . S
C398 C400 1.378 . S
C398 C402 1.350 . S
C399 C402 1.463 . S
C399 C404 1.350 . S
C399 N407 1.427 . S
C400 H391 0.930 . S
C400 C398 1.378 . S
C400 C401 1.367 . S
C401 C400 1.367 . S
C401 C403 1.433 . S
C402 C398 1.350 . S
C402 C399 1.463 . S
C402 N406 1.427 . S
C403 H393 0.929 . S
C403 C401 1.433 . S
C403 N406 1.384 . S
C404 H395 0.929 . S
C404 C396 1.378 . S
C404 C399 1.350 . S
C405 H392 0.929 . S
C405 C397 1.433 . S
C405 N407 1.384 . S
N406 C402 1.427 . S
N406 C403 1.384 . S
N407 C399 1.427 . S
N407 C405 1.384 . S
H408 C414 0.930 . S
H409 C418 0.930 . S
H410 C423 0.929 . S
H411 C421 0.929 . S
H412 C416 0.929 . S
H413 C422 0.929 . S
C414 H408 0.930 . S
C414 C415 1.367 . S
C414 C422 1.378 . S
C415 C414 1.367 . S
C415 C423 1.433 . S
C416 H412 0.929 . S
C416 C418 1.378 . S
C416 C420 1.350 . S
C417 C420 1.463 . S
C417 C422 1.350 . S
C417 N425 1.427 . S
C418 H409 0.930 . S
C418 C416 1.378 . S
C418 C419 1.367 . S
C419 C418 1.367 . S
C419 C421 1.433 . S
C420 C416 1.350 . S
C420 C417 1.463 . S
C420 N424 1.427 . S
C421 H411 0.929 . S
C421 C419 1.433 . S
C421 N424 1.384 . S
C422 H413 0.929 . S
C422 C414 1.378 . S
C422 C417 1.350 . S
C423 H410 0.929 . S
C423 C415 1.433 . S
C423 N425 1.384 . S
N424 C420 1.427 . S
N424 C421 1.384 . S
N425 C417 1.427 . S
N425 C423 1.384 . S
H426 C432 0.930 . S
H427 C436 0.930 . S
H428 C441 0.929 . S
H429 C439 0.929 . S
H430 C434 0.929 . S
H431 C440 0.929 . S
C432 H426 0.930 . S
C432 C433 1.367 . S
C432 C440 1.378 . S
C433 C432 1.367 . S
C433 C441 1.433 . S
C434 H430 0.929 . S
C434 C436 1.378 . S
C434 C438 1.350 . S
C435 C438 1.463 . S
C435 C440 1.350 . S
C435 N443 1.427 . S
C436 H427 0.930 . S
C436 C434 1.378 . S
C436 C437 1.367 . S
C437 C436 1.367 . S
C437 C439 1.433 . S
C438 C434 1.350 . S
C438 C435 1.463 . S
C438 N442 1.427 . S
C439 H429 0.929 . S
C439 C437 1.433 . S
C439 N442 1.384 . S
C440 H431 0.929 . S
C440 C432 1.378 . S
C440 C435 1.350 . S
C441 H428 0.929 . S
C441 C433 1.433 . S
C441 N443 1.384 . S
N442 C438 1.427 . S
N442 C439 1.384 . S
N443 C435 1.427 . S
N443 C441 1.384 . S
H444 C450 0.930 . S
H445 C454 0.930 . S
H446 C459 0.929 . S
H447 C457 0.929 . S
H448 C452 0.929 . S
H449 C458 0.929 . S
C450 H444 0.930 . S
C450 C451 1.367 . S
C450 C458 1.378 . S
C451 C450 1.367 . S
C451 C459 1.433 . S
C452 H448 0.929 . S
C452 C454 1.378 . S
C452 C456 1.350 . S
C453 C456 1.463 . S
C453 C458 1.350 . S
C453 N461 1.427 . S
C454 H445 0.930 . S
C454 C452 1.378 . S
C454 C455 1.367 . S
C455 C454 1.367 . S
C455 C457 1.433 . S
C456 C452 1.350 . S
C456 C453 1.463 . S
C456 N460 1.427 . S
C457 H447 0.929 . S
C457 C455 1.433 . S
C457 N460 1.384 . S
C458 H449 0.929 . S
C458 C450 1.378 . S
C458 C453 1.350 . S
C459 H446 0.929 . S
C459 C451 1.433 . S
C459 N461 1.384 . S
N460 C456 1.427 . S
N460 C457 1.384 . S
N461 C453 1.427 . S
N461 C459 1.384 . S
H462 C468 0.930 . S
H463 C472 0.930 . S
H464 C477 0.929 . S
H465 C475 0.929 . S
H466 C470 0.929 . S
H467 C476 0.929 . S
C468 H462 0.930 . S
C468 C469 1.367 . S
C468 C476 1.378 . S
C469 C468 1.367 . S
C469 C477 1.433 . S
C470 H466 0.929 . S
C470 C472 1.378 . S
C470 C474 1.350 . S
C471 C474 1.463 . S
C471 C476 1.350 . S
C471 N479 1.427 . S
C472 H463 0.930 . S
C472 C470 1.378 . S
C472 C473 1.367 . S
C473 C472 1.367 . S
C473 C475 1.433 . S
C474 C470 1.350 . S
C474 C471 1.463 . S
C474 N478 1.427 . S
C475 H465 0.929 . S
C475 C473 1.433 . S
C475 N478 1.384 . S
C476 H467 0.929 . S
C476 C468 1.378 . S
C476 C471 1.350 . S
C477 H464 0.929 . S
C477 C469 1.433 . S
C477 N479 1.384 . S
N478 C474 1.427 . S
N478 C475 1.384 . S
N479 C471 1.427 . S
N479 C477 1.384 . S
H480 C486 0.930 . S
H481 C490 0.930 . S
H482 C495 0.929 . S
H483 C493 0.929 . S
H484 C488 0.929 . S
H485 C494 0.929 . S
C486 H480 0.930 . S
C486 C487 1.374 . S
C486 C494 1.378 . S
C487 C486 1.374 . S
C487 C495 1.426 1_556 S
C488 H484 0.929 . S
C488 C490 1.378 . S
C488 C492 1.350 . S
C489 C492 1.463 1_556 S
C489 C494 1.350 . S
C489 N497 1.427 1_556 S
C490 H481 0.930 . S
C490 C488 1.378 . S
C490 C491 1.367 . S
C491 C490 1.367 . S
C491 C493 1.433 1_554 S
C492 C488 1.350 . S
C492 C489 1.463 1_554 S
C492 N496 1.427 1_554 S
C493 H483 0.929 . S
C493 C491 1.433 1_556 S
C493 N496 1.384 . S
C494 H485 0.929 . S
C494 C486 1.378 . S
C494 C489 1.350 . S
C495 H482 0.929 . S
C495 C487 1.426 1_554 S
C495 N497 1.384 . S
N496 C492 1.427 1_556 S
N496 C493 1.384 . S
N497 C489 1.427 1_554 S
N497 C495 1.384 . S
H498 C504 0.930 . S
H499 C508 0.930 . S
H500 C513 0.929 . S
H501 C511 0.929 . S
H502 C506 0.929 . S
H503 C512 0.929 . S
C504 H498 0.930 . S
C504 C505 1.367 . S
C504 C512 1.378 . S
C505 C504 1.367 . S
C505 C513 1.433 . S
C506 H502 0.929 . S
C506 C508 1.378 . S
C506 C510 1.350 . S
C507 C510 1.463 . S
C507 C512 1.350 . S
C507 N515 1.427 . S
C508 H499 0.930 . S
C508 C506 1.378 . S
C508 C509 1.367 . S
C509 C508 1.367 . S
C509 C511 1.433 . S
C510 C506 1.350 . S
C510 C507 1.463 . S
C510 N514 1.427 . S
C511 H501 0.929 . S
C511 C509 1.433 . S
C511 N514 1.384 . S
C512 H503 0.929 . S
C512 C504 1.378 . S
C512 C507 1.350 . S
C513 H500 0.929 . S
C513 C505 1.433 . S
C513 N515 1.384 . S
N514 C510 1.427 . S
N514 C511 1.384 . S
N515 C507 1.427 . S
N515 C513 1.384 . S
H516 C522 0.930 . S
H517 C526 0.930 . S
H518 C531 0.929 . S
H519 C529 0.929 . S
H520 C524 0.929 . S
H521 C530 0.929 . S
C522 H516 0.930 . S
C522 C523 1.367 . S
C522 C530 1.378 . S
C523 C522 1.367 . S
C523 C531 1.433 1_554 S
C524 H520 0.929 . S
C524 C526 1.378 . S
C524 C528 1.350 . S
C525 C528 1.463 1_554 S
C525 C530 1.350 . S
C525 N533 1.427 1_554 S
C526 H517 0.930 . S
C526 C524 1.378 . S
C526 C527 1.367 . S
C527 C526 1.367 . S
C527 C529 1.433 1_556 S
C528 C524 1.350 . S
C528 C525 1.463 1_556 S
C528 N532 1.427 1_556 S
C529 H519 0.929 . S
C529 C527 1.433 1_554 S
C529 N532 1.384 . S
C530 H521 0.929 . S
C530 C522 1.378 . S
C530 C525 1.350 . S
C531 H518 0.929 . S
C531 C523 1.433 1_556 S
C531 N533 1.384 . S
N532 C528 1.427 1_554 S
N532 C529 1.384 . S
N533 C525 1.427 1_556 S
N533 C531 1.384 . S
H534 C540 0.930 . S
H535 C544 0.930 . S
H536 C549 0.929 . S
H537 C547 0.929 . S
H538 C542 0.929 . S
H539 C548 0.929 . S
C540 H534 0.930 . S
C540 C541 1.367 . S
C540 C548 1.378 . S
C541 C540 1.367 . S
C541 C549 1.433 . S
C542 H538 0.929 . S
C542 C544 1.378 . S
C542 C546 1.350 . S
C543 C546 1.463 . S
C543 C548 1.350 . S
C543 N551 1.427 . S
C544 H535 0.930 . S
C544 C542 1.378 . S
C544 C545 1.367 . S
C545 C544 1.367 . S
C545 C547 1.433 . S
C546 C542 1.350 . S
C546 C543 1.463 . S
C546 N550 1.427 . S
C547 H537 0.929 . S
C547 C545 1.433 . S
C547 N550 1.384 . S
C548 H539 0.929 . S
C548 C540 1.378 . S
C548 C543 1.350 . S
C549 H536 0.929 . S
C549 C541 1.433 . S
C549 N551 1.384 . S
N550 C546 1.427 . S
N550 C547 1.384 . S
N551 C543 1.427 . S
N551 C549 1.384 . S
H552 C558 0.930 . S
H553 C562 0.930 . S
H554 C567 0.929 . S
H555 C565 0.929 . S
H556 C560 0.929 . S
H557 C566 0.929 . S
C558 H552 0.930 . S
C558 C559 1.367 . S
C558 C566 1.378 . S
C559 C558 1.367 . S
C559 C567 1.433 . S
C560 H556 0.929 . S
C560 C562 1.378 . S
C560 C564 1.350 . S
C561 C564 1.463 . S
C561 C566 1.350 . S
C561 N569 1.427 . S
C562 H553 0.930 . S
C562 C560 1.378 . S
C562 C563 1.367 . S
C563 C562 1.367 . S
C563 C565 1.433 . S
C564 C560 1.350 . S
C564 C561 1.463 . S
C564 N568 1.427 . S
C565 H555 0.929 . S
C565 C563 1.433 . S
C565 N568 1.384 . S
C566 H557 0.929 . S
C566 C558 1.378 . S
C566 C561 1.350 . S
C567 H554 0.929 . S
C567 C559 1.433 . S
C567 N569 1.384 . S
N568 C564 1.427 . S
N568 C565 1.384 . S
N569 C561 1.427 . S
N569 C567 1.384 . S
H570 C576 0.930 . S
H571 C580 0.930 . S
H572 C585 0.929 . S
H573 C583 0.929 . S
H574 C578 0.929 . S
H575 C584 0.929 . S
C576 H570 0.930 . S
C576 C577 1.367 . S
C576 C584 1.378 . S
C577 C576 1.367 . S
C577 C585 1.433 1_556 S
C578 H574 0.929 . S
C578 C580 1.378 . S
C578 C582 1.350 . S
C579 C582 1.463 1_556 S
C579 C584 1.350 . S
C579 N587 1.427 1_556 S
C580 H571 0.930 . S
C580 C578 1.378 . S
C580 C581 1.367 . S
C581 C580 1.367 . S
C581 C583 1.433 1_554 S
C582 C578 1.350 . S
C582 C579 1.463 1_554 S
C582 N586 1.427 1_554 S
C583 H573 0.929 . S
C583 C581 1.433 1_556 S
C583 N586 1.384 . S
C584 H575 0.929 . S
C584 C576 1.378 . S
C584 C579 1.350 . S
C585 H572 0.929 . S
C585 C577 1.433 1_554 S
C585 N587 1.384 . S
N586 C582 1.427 1_556 S
N586 C583 1.384 . S
N587 C579 1.427 1_554 S
N587 C585 1.384 . S
H588 C594 0.930 . S
H589 C598 0.930 . S
H590 C603 0.929 . S
H591 C601 0.929 . S
H592 C596 0.929 . S
H593 C602 0.929 . S
C594 H588 0.930 . S
C594 C595 1.367 . S
C594 C602 1.378 . S
C595 C594 1.367 . S
C595 C603 1.433 . S
C596 H592 0.929 . S
C596 C598 1.378 . S
C596 C600 1.350 . S
C597 C600 1.463 . S
C597 C602 1.350 . S
C597 N605 1.427 . S
C598 H589 0.930 . S
C598 C596 1.378 . S
C598 C599 1.367 . S
C599 C598 1.367 . S
C599 C601 1.433 . S
C600 C596 1.350 . S
C600 C597 1.463 . S
C600 N604 1.427 . S
C601 H591 0.929 . S
C601 C599 1.433 . S
C601 N604 1.384 . S
C602 H593 0.929 . S
C602 C594 1.378 . S
C602 C597 1.350 . S
C603 H590 0.929 . S
C603 C595 1.433 . S
C603 N605 1.384 . S
N604 C600 1.427 . S
N604 C601 1.384 . S
N605 C597 1.427 . S
N605 C603 1.384 . S
H606 C612 0.930 . S
H607 C616 0.930 . S
H608 C621 0.929 . S
H609 C619 0.929 . S
H610 C614 0.929 . S
H611 C620 0.929 . S
C612 H606 0.930 . S
C612 C613 1.367 . S
C612 C620 1.378 . S
C613 C612 1.367 . S
C613 C621 1.433 1_554 S
C614 H610 0.929 . S
C614 C616 1.378 . S
C614 C618 1.350 . S
C615 C618 1.463 1_554 S
C615 C620 1.350 . S
C615 N623 1.427 1_554 S
C616 H607 0.930 . S
C616 C614 1.378 . S
C616 C617 1.367 . S
C617 C616 1.367 . S
C617 C619 1.433 1_556 S
C618 C614 1.350 . S
C618 C615 1.463 1_556 S
C618 N622 1.427 1_556 S
C619 H609 0.929 . S
C619 C617 1.433 1_554 S
C619 N622 1.384 . S
C620 H611 0.929 . S
C620 C612 1.378 . S
C620 C615 1.350 . S
C621 H608 0.929 . S
C621 C613 1.433 1_556 S
C621 N623 1.384 . S
N622 C618 1.427 1_554 S
N622 C619 1.384 . S
N623 C615 1.427 1_556 S
N623 C621 1.384 . S
C199 C5 1.466 . S
C203 N128 1.482 . S
C217 C31 1.475 . S
C221 N89 1.481 . S
C239 N106 1.489 . S
C235 C53 1.467 . S
C253 C71 1.474 . S
C257 N119 1.488 . S
C275 N158 1.489 . S
C271 C75 1.470 . S
C293 N171 1.489 . S
C289 C9 1.470 . S
C311 N180 1.482 . S
C307 C27 1.465 . S
C329 N141 1.477 . S
C325 C49 1.468 . S
C343 C51 1.468 . S
C347 N102 1.489 . S
C361 C72 1.470 . S
C365 N115 1.490 . S
C379 C6 1.466 . S
C383 N132 1.486 . S
C401 N93 1.488 . S
C397 C29 1.470 . S
C415 C28 1.473 . S
C419 N184 1.484 . S
C437 N145 1.485 . S
C433 C50 1.475 . S
C455 N154 1.487 . S
C451 C73 1.467 . S
C469 C7 1.468 . S
C473 N167 1.487 . S
C491 N90 1.506 1_554 S
C487 C4 1.500 1_556 S
C509 N103 1.513 . S
C505 C30 1.496 . S
C523 C52 1.496 . S
C527 N116 1.514 1_556 S
C541 C70 1.497 . S
C545 N129 1.509 . S
C563 N142 1.508 . S
C559 C74 1.496 . S
C577 C8 1.495 1_556 S
C581 N155 1.513 1_554 S
C595 C26 1.497 . S
C599 N168 1.512 . S
C613 C48 1.498 . S
C617 N181 1.508 1_556 S
