# Generated by pormake.
# Topology anh, (6,3)-cn, num edge types: 1
# Building blocks:
#     Node 0, Type 0, BuildingBlock: BETDEL_clean_sbu_0, # of connection points: 6
#     Node 1, Type 0, BuildingBlock: BETDEL_clean_sbu_0, # of connection points: 6
#     Node 2, Type 0, BuildingBlock: BETDEL_clean_sbu_0, # of connection points: 6
#     Node 3, Type 1, BuildingBlock: VETTIZ_charged_linker_0, # of connection points: 3
#     Node 4, Type 1, BuildingBlock: VETTIZ_charged_linker_0, # of connection points: 3
#     Node 5, Type 1, BuildingBlock: VETTIZ_charged_linker_0, # of connection points: 3
#     Node 6, Type 1, BuildingBlock: VETTIZ_charged_linker_0, # of connection points: 3
#     Node 7, Type 1, BuildingBlock: VETTIZ_charged_linker_0, # of connection points: 3
#     Node 8, Type 1, BuildingBlock: VETTIZ_charged_linker_0, # of connection points: 3
#     Edge 9, Type (0, 1), BuildingBlock: CIFDUS_clean_linker_0, # of connection points: 2
#     Edge 10, Type (0, 1), BuildingBlock: CIFDUS_clean_linker_0, # of connection points: 2
#     Edge 11, Type (0, 1), BuildingBlock: CIFDUS_clean_linker_0, # of connection points: 2
#     Edge 12, Type (0, 1), BuildingBlock: CIFDUS_clean_linker_0, # of connection points: 2
#     Edge 13, Type (0, 1), BuildingBlock: CIFDUS_clean_linker_0, # of connection points: 2
#     Edge 14, Type (0, 1), BuildingBlock: CIFDUS_clean_linker_0, # of connection points: 2
#     Edge 15, Type (0, 1), BuildingBlock: CIFDUS_clean_linker_0, # of connection points: 2
#     Edge 16, Type (0, 1), BuildingBlock: CIFDUS_clean_linker_0, # of connection points: 2
#     Edge 17, Type (0, 1), BuildingBlock: CIFDUS_clean_linker_0, # of connection points: 2
#     Edge 18, Type (0, 1), BuildingBlock: CIFDUS_clean_linker_0, # of connection points: 2
#     Edge 19, Type (0, 1), BuildingBlock: CIFDUS_clean_linker_0, # of connection points: 2
#     Edge 20, Type (0, 1), BuildingBlock: CIFDUS_clean_linker_0, # of connection points: 2
#     Edge 21, Type (0, 1), BuildingBlock: CIFDUS_clean_linker_0, # of connection points: 2
#     Edge 22, Type (0, 1), BuildingBlock: CIFDUS_clean_linker_0, # of connection points: 2
#     Edge 23, Type (0, 1), BuildingBlock: CIFDUS_clean_linker_0, # of connection points: 2
#     Edge 24, Type (0, 1), BuildingBlock: CIFDUS_clean_linker_0, # of connection points: 2
#     Edge 25, Type (0, 1), BuildingBlock: CIFDUS_clean_linker_0, # of connection points: 2
#     Edge 26, Type (0, 1), BuildingBlock: CIFDUS_clean_linker_0, # of connection points: 2
# Relax obj value: 0.147
# Max RMSD: 0.168
# Mean RMSD: 0.137
data_MOF--net-anh--node1-BETDEL_clean_sbu_0--node2-VETTIZ_charged_linker_0--edge1-CIFDUS_clean_linker_0
_symmetry_space_group_name_H-M    P1
_symmetry_Int_Tables_number       1
_symmetry_cell_setting            triclinic
loop_
_symmetry_equiv_pos_as_xyz
'x, y, z'
_cell_length_a     32.186889
_cell_length_b     32.102535
_cell_length_c     58.196233
_cell_angle_alpha  89.822312
_cell_angle_beta   90.03296
_cell_angle_gamma 120.12707
loop_
_atom_site_label
_atom_site_type_symbol
_atom_site_fract_x
_atom_site_fract_y
_atom_site_fract_z
_atom_type_partial_charge
Dy0 Dy 0.07434 0.49526 0.16122 0.0
C1 C 0.94514 0.55794 0.17393 0.0
C2 C 0.1423 0.47918 0.14375 0.0
Dy3 Dy 0.01717 0.53996 0.16437 0.0
O4 O 0.11227 0.45318 0.15981 0.0
O5 O 0.13164 0.51055 0.13599 0.0
O6 O 0.09019 0.48552 0.1975 0.0
O7 O 0.0491 0.51844 0.19084 0.0
C8 C 0.06789 0.50577 0.20636 0.0
C9 C 0.04595 0.53927 0.12121 0.0
O10 O 0.08688 0.60797 0.17188 0.0
O11 O 0.13228 0.57463 0.16065 0.0
O12 O 0.96772 0.56636 0.15456 0.0
O13 O 0.96522 0.54339 0.18868 0.0
O14 O 0.04684 0.5759 0.131 0.0
O15 O 0.03009 0.50421 0.13525 0.0
O16 O 1.00387 0.42539 0.15906 0.0
O17 O 0.95738 0.46078 0.16383 0.0
C18 C 0.12914 0.61269 0.16675 0.0
C19 C 0.96107 0.42154 0.16158 0.0
Dy20 Dy 0.47512 0.02431 0.49729 0.0
C21 C 0.6707 0.13214 0.50958 0.0
C22 C 0.38326 0.9521 0.50293 0.0
Dy23 Dy 0.57781 0.07522 0.49685 0.0
O24 O 0.41787 0.96421 0.51728 0.0
O25 O 0.39818 0.98063 0.48503 0.0
O26 O 0.47864 0.05922 0.53106 0.0
O27 O 0.52784 0.03686 0.52406 0.0
C28 C 0.51495 0.05664 0.53877 0.0
C29 C 0.54281 0.07193 0.45423 0.0
O30 O 0.57032 1.00081 0.49804 0.0
O31 O 0.48872 0.96243 0.49153 0.0
O32 O 0.6567 0.10314 0.49201 0.0
O33 O 0.6337 0.1276 0.5206 0.0
O34 O 0.5807 0.10825 0.46284 0.0
O35 O 0.5256 0.03807 0.46885 0.0
O36 O 0.48356 0.09721 0.48854 0.0
O37 O 0.55911 0.1336 0.50405 0.0
C38 C 0.52865 0.96054 0.49456 0.0
C39 C 0.52177 0.13655 0.49642 0.0
Dy40 Dy 0.60278 0.62598 0.83285 0.0
C41 C 0.52764 0.43161 0.84074 0.0
C42 C 0.62934 0.72011 0.83619 0.0
Dy43 Dy 0.55424 0.52252 0.82754 0.0
O44 O 0.60094 0.6866 0.85022 0.0
O45 O 0.64369 0.70234 0.82004 0.0
O46 O 0.62998 0.61706 0.86672 0.0
O47 O 0.56049 0.56705 0.85668 0.0
C48 C 0.59101 0.5781 0.87247 0.0
C49 C 0.57011 0.55482 0.78445 0.0
O50 O 0.48685 0.52842 0.83186 0.0
O51 O 0.52702 0.61079 0.82663 0.0
O52 O 0.50342 0.44274 0.82653 0.0
O53 O 0.56524 0.47023 0.84806 0.0
O54 O 0.54951 0.50968 0.79002 0.0
O55 O 0.58243 0.58173 0.80201 0.0
O56 O 0.67042 0.62369 0.8266 0.0
O57 O 0.63303 0.54118 0.82989 0.0
C58 C 0.48625 0.56933 0.82916 0.0
C59 C 0.6729 0.58384 0.82808 0.0
C60 C 0.6635 0.14194 0.17098 0.0
C61 C 0.70378 0.18073 0.18239 0.0
C62 C 0.7039 0.18079 0.2065 0.0
C63 C 0.62615 0.10723 0.20801 0.0
C64 C 0.62508 0.10483 0.18428 0.0
C65 C 0.57965 0.05862 0.17637 0.0
H66 H 0.36592 0.85676 0.21351 0.0
C67 C 0.58179 0.06578 0.2175 0.0
C68 C 0.55339 0.03596 0.19921 0.0
H69 H 0.41435 0.88117 0.14329 0.0
H70 H 0.48577 0.95866 0.15442 0.0
H71 H 0.46007 0.8788 0.23331 0.0
H72 H 0.39094 0.96201 0.22479 0.0
H73 H 0.41966 0.98034 0.25142 0.0
H74 H 0.37473 0.91793 0.24713 0.0
H75 H 0.4133 0.87276 0.25215 0.0
H76 H 0.47588 0.91422 0.25808 0.0
C77 C 0.59486 0.02597 0.16413 0.0
C78 C 0.54946 0.07177 0.16069 0.0
C79 C 0.55389 0.05967 0.30444 0.0
C80 C 0.51473 0.02815 0.31842 0.0
C81 C 0.4755 0.98796 0.30828 0.0
C82 C 0.47447 0.97968 0.28469 0.0
C83 C 0.513 0.012 0.27071 0.0
C84 C 0.55199 0.051 0.28063 0.0
C85 C 0.58902 0.08169 0.26287 0.0
C86 C 0.56549 0.05474 0.24068 0.0
C87 C 0.52127 0.0141 0.24554 0.0
C88 C 0.63588 0.0809 0.26829 0.0
C89 C 0.59404 0.13237 0.26337 0.0
C90 C 0.3913 0.87865 0.20027 0.0
C91 C 0.38391 0.86246 0.17761 0.0
C92 C 0.41863 0.89266 0.16103 0.0
C93 C 0.46027 0.93726 0.16751 0.0
C94 C 0.46762 0.95171 0.19084 0.0
C95 C 0.43248 0.92177 0.20641 0.0
C96 C 0.44436 0.93859 0.2305 0.0
C97 C 0.49254 0.98357 0.22759 0.0
C98 C 0.50751 0.99305 0.20434 0.0
C99 C 0.44835 0.89921 0.24441 0.0
C100 C 0.40547 0.95007 0.23913 0.0
H101 H 0.66907 0.14858 0.23743 0.0
H102 H 0.6623 0.14039 0.1524 0.0
H103 H 0.54065 0.09695 0.1696 0.0
H104 H 0.51527 0.0394 0.15583 0.0
H105 H 0.56946 0.08948 0.14468 0.0
H106 H 0.61884 0.01921 0.17536 0.0
H107 H 0.61459 0.04316 0.14799 0.0
H108 H 0.56356 0.99065 0.15977 0.0
H109 H 0.5846 0.091 0.31174 0.0
H110 H 0.44533 0.9627 0.31868 0.0
H111 H 0.44319 0.94838 0.27836 0.0
H112 H 0.6281 0.04705 0.27724 0.0
H113 H 0.66016 0.11141 0.27953 0.0
H114 H 0.65558 0.08145 0.2526 0.0
H115 H 0.55893 0.12975 0.26719 0.0
H116 H 0.60499 0.15136 0.24669 0.0
H117 H 0.61984 0.15536 0.2768 0.0
H118 H 0.73361 0.20962 0.21576 0.0
C119 C 0.66589 0.14498 0.21916 0.0
C120 C 0.53393 0.67523 0.50297 0.0
C121 C 0.53496 0.71483 0.51472 0.0
C122 C 0.53127 0.71267 0.53875 0.0
C123 C 0.52854 0.63565 0.53965 0.0
C124 C 0.52999 0.63531 0.51591 0.0
C125 C 0.5269 0.58842 0.50753 0.0
H126 H 0.51066 0.37183 0.54198 0.0
C127 C 0.52637 0.59144 0.54876 0.0
C128 C 0.52433 0.56203 0.53017 0.0
H129 H 0.5167 0.41564 0.47135 0.0
H130 H 0.52019 0.49047 0.48423 0.0
H131 H 0.59315 0.47061 0.55833 0.0
H132 H 0.43974 0.40015 0.55933 0.0
H133 H 0.45713 0.43235 0.58518 0.0
H134 H 0.47284 0.38653 0.57984 0.0
H135 H 0.55698 0.42329 0.57818 0.0
H136 H 0.5795 0.48578 0.58494 0.0
C137 C 0.57242 0.60072 0.49374 0.0
C138 C 0.48096 0.5599 0.49318 0.0
C139 C 0.54768 0.58024 0.63533 0.0
C140 C 0.54836 0.54425 0.64904 0.0
C141 C 0.53497 0.49939 0.63889 0.0
C142 C 0.52519 0.49171 0.61544 0.0
C143 C 0.52818 0.52899 0.6016 0.0
C144 C 0.53723 0.57158 0.61168 0.0
C145 C 0.53529 0.60543 0.59426 0.0
C146 C 0.52767 0.57752 0.57189 0.0
C147 C 0.52387 0.53306 0.57642 0.0
C148 C 0.58438 0.6529 0.59468 0.0
C149 C 0.49138 0.61121 0.60025 0.0
C150 C 0.51354 0.39725 0.52893 0.0
C151 C 0.51431 0.38705 0.50556 0.0
C152 C 0.51615 0.42176 0.48959 0.0
C153 C 0.51836 0.46538 0.49705 0.0
C154 C 0.51855 0.47487 0.52079 0.0
C155 C 0.51608 0.44027 0.53596 0.0
C156 C 0.51758 0.45415 0.56045 0.0
C157 C 0.52077 0.50254 0.55812 0.0
C158 C 0.5213 0.51604 0.53488 0.0
C159 C 0.56381 0.45845 0.57126 0.0
C160 C 0.46966 0.41638 0.57198 0.0
H161 H 0.52638 0.67589 0.56935 0.0
H162 H 0.5362 0.67547 0.48441 0.0
H163 H 0.44897 0.55399 0.50314 0.0
H164 H 0.47525 0.52417 0.4883 0.0
H165 H 0.48288 0.57986 0.4772 0.0
H166 H 0.60509 0.62377 0.50408 0.0
H167 H 0.57421 0.62051 0.47772 0.0
H168 H 0.57342 0.56795 0.48895 0.0
H169 H 0.55662 0.61475 0.6426 0.0
H170 H 0.5329 0.47011 0.64908 0.0
H171 H 0.51684 0.45716 0.609 0.0
H172 H 0.61434 0.64512 0.59579 0.0
H173 H 0.58699 0.67516 0.60979 0.0
H174 H 0.59166 0.67495 0.57903 0.0
H175 H 0.46504 0.58155 0.61148 0.0
H176 H 0.47041 0.60945 0.58479 0.0
H177 H 0.50257 0.64554 0.60941 0.0
H178 H 0.53176 0.74198 0.54819 0.0
C179 C 0.52814 0.6739 0.5511 0.0
C180 C 0.19536 0.56599 0.83625 0.0
C181 C 0.2335 0.564 0.84818 0.0
C182 C 0.23014 0.55971 0.87223 0.0
C183 C 0.15587 0.56181 0.87277 0.0
C184 C 0.15663 0.56508 0.84909 0.0
C185 C 0.11198 0.56691 0.8408 0.0
H186 H 0.90404 0.56893 0.87569 0.0
C187 C 0.11249 0.56104 0.88188 0.0
C188 C 0.08536 0.56396 0.86347 0.0
H189 H 0.9466 0.57199 0.80527 0.0
H190 H 0.01858 0.56991 0.81816 0.0
H191 H 0.9191 0.48697 0.88884 0.0
H192 H 1.00939 0.63953 0.89783 0.0
H193 H 1.00773 0.61142 0.92412 0.0
H194 H 0.95278 0.60349 0.91209 0.0
H195 H 0.911 0.51749 0.91263 0.0
H196 H 0.95068 0.49297 0.91429 0.0
C197 C 0.08162 0.5232 0.82533 0.0
C198 C 0.1282 0.61483 0.82819 0.0
C199 C 0.08956 0.54717 0.96869 0.0
C200 C 0.05144 0.53936 0.98339 0.0
C201 C 1.01043 0.53733 0.97322 0.0
C202 C 1.00809 0.54397 0.9495 0.0
C203 C 0.04631 0.55115 0.9352 0.0
C204 C 0.08562 0.55172 0.9449 0.0
C205 C 0.12075 0.55492 0.92708 0.0
C206 C 0.09674 0.55756 0.90498 0.0
C207 C 0.0536 0.55615 0.90984 0.0
C208 C 0.1231 0.5077 0.92863 0.0
C209 C 0.16901 0.60216 0.93142 0.0
C210 C 0.929 0.57011 0.86286 0.0
C211 C 0.91945 0.57166 0.83946 0.0
C212 C 0.95273 0.57113 0.82351 0.0
C213 C 0.99449 0.56986 0.83096 0.0
C214 C 1.00292 0.56783 0.85467 0.0
C215 C 0.96955 0.56756 0.86992 0.0
C216 C 0.97999 0.56131 0.89427 0.0
C217 C 0.02613 0.56004 0.89175 0.0
C218 C 0.04093 0.56392 0.86848 0.0
C219 C 0.9381 0.51245 0.90316 0.0
C220 C 0.98766 0.60598 0.90798 0.0
H221 H 0.19438 0.55657 0.90253 0.0
H222 H 0.19608 0.56883 0.81771 0.0
H223 H 0.15204 0.6457 0.8394 0.0
H224 H 0.09725 0.61895 0.82333 0.0
H225 H 0.14839 0.61704 0.81231 0.0
H226 H 0.07302 0.48926 0.8344 0.0
H227 H 0.10146 0.5255 0.80931 0.0
H228 H 0.04725 0.52069 0.82052 0.0
H229 H 0.12211 0.54959 0.97527 0.0
H230 H 0.9793 0.52979 0.98336 0.0
H231 H 0.9762 0.5428 0.94323 0.0
H232 H 0.09013 0.47767 0.93656 0.0
H233 H 0.15409 0.51282 0.93916 0.0
H234 H 0.12492 0.49363 0.91154 0.0
H235 H 0.16273 0.63101 0.93808 0.0
H236 H 0.19035 0.61768 0.9156 0.0
H237 H 0.19124 0.5965 0.94428 0.0
H238 H 0.25696 0.55644 0.88208 0.0
C239 C 0.19268 0.55912 0.88432 0.0
C240 C 0.89982 0.43371 0.48842 0.0
C241 C 0.85996 0.39318 0.47915 0.0
C242 C 0.85233 0.38944 0.45527 0.0
C243 C 0.92696 0.46369 0.44976 0.0
C244 C 0.93306 0.46857 0.47335 0.0
C245 C 0.97908 0.51304 0.47991 0.0
H246 H 0.18613 0.70641 0.44498 0.0
C247 C 0.96992 0.50297 0.43879 0.0
C248 C 1.00079 0.53188 0.45635 0.0
H249 H 0.12529 0.67699 0.5132 0.0
H250 H 0.06093 0.59886 0.5006 0.0
H251 H 0.15411 0.59081 0.42951 0.0
H252 H 0.10207 0.69002 0.42356 0.0
H253 H 0.07966 0.65379 0.3992 0.0
H254 H 0.14383 0.69017 0.40316 0.0
H255 H 0.18166 0.64441 0.41217 0.0
H256 H 0.13432 0.58805 0.40105 0.0
C257 C 1.00974 0.49785 0.49436 0.0
C258 C 0.96625 0.54765 0.49247 0.0
C259 C 0.98677 0.51127 0.35151 0.0
C260 C 0.02397 0.54348 0.33696 0.0
C261 C 0.06617 0.58132 0.3464 0.0
C262 C 0.07162 0.58722 0.37017 0.0
C263 C 0.03424 0.55511 0.38468 0.0
C264 C 0.99265 0.5179 0.37537 0.0
C265 C 0.9574 0.48704 0.39369 0.0
C266 C 0.98412 0.51308 0.41538 0.0
C267 C 0.0292 0.55224 0.40988 0.0
C268 C 0.95128 0.43609 0.39212 0.0
C269 C 0.91032 0.48846 0.3904 0.0
C270 C 0.15948 0.68252 0.45732 0.0
C271 C 0.15966 0.69757 0.47983 0.0
C272 C 0.12506 0.66588 0.49562 0.0
C273 C 0.08756 0.62112 0.48816 0.0
C274 C 0.08488 0.60898 0.46475 0.0
C275 C 0.12111 0.63925 0.44992 0.0
C276 C 0.10986 0.62499 0.42526 0.0
C277 C 0.06045 0.5813 0.42751 0.0
C278 C 0.0463 0.57143 0.45062 0.0
C279 C 0.14695 0.61158 0.41631 0.0
C280 C 0.10904 0.66673 0.41194 0.0
H281 H 0.87833 0.41948 0.42243 0.0
H282 H 0.90604 0.43695 0.50679 0.0
H283 H 0.93083 0.54217 0.48679 0.0
H284 H 0.99186 0.58596 0.48864 0.0
H285 H 0.96431 0.5419 0.51136 0.0
H286 H 1.00954 0.46621 0.48649 0.0
H287 H 0.99532 0.48768 0.5121 0.0
H288 H 0.04784 0.5262 0.49544 0.0
H289 H 0.95433 0.48139 0.3445 0.0
H290 H 0.09536 0.60586 0.33531 0.0
H291 H 0.10493 0.61644 0.37627 0.0
H292 H 0.9865 0.43847 0.38892 0.0
H293 H 0.92687 0.41529 0.3778 0.0
H294 H 0.93778 0.41506 0.40815 0.0
H295 H 0.9175 0.52299 0.3824 0.0
H296 H 0.89234 0.48672 0.40686 0.0
H297 H 0.88474 0.45878 0.3791 0.0
H298 H 0.82141 0.35817 0.44804 0.0
C299 C 0.88556 0.42468 0.4405 0.0
C300 C 0.56541 0.95519 0.82055 0.0
C301 C 0.56215 0.91442 0.81029 0.0
C302 C 0.55289 0.90632 0.78661 0.0
C303 C 0.5558 0.98245 0.78305 0.0
C304 C 0.56231 0.98888 0.80656 0.0
C305 C 0.56862 0.0362 0.81423 0.0
H306 H 0.57258 0.24203 0.78755 0.0
C307 C 0.55867 0.0259 0.77317 0.0
C308 C 0.5658 0.05735 0.79137 0.0
H309 H 0.58494 0.19152 0.85466 0.0
H310 H 0.58379 0.12239 0.83746 0.0
H311 H 0.6481 0.21731 0.76313 0.0
H312 H 0.49432 0.14486 0.76774 0.0
H313 H 0.50796 0.13644 0.73951 0.0
H314 H 0.52856 0.19664 0.74979 0.0
H315 H 0.613 0.23434 0.74573 0.0
H316 H 0.62688 0.18901 0.73655 0.0
C317 C 0.61891 0.06578 0.82549 0.0
C318 C 0.52592 0.02567 0.83022 0.0
C319 C 0.55783 0.04631 0.68641 0.0
C320 C 0.56226 0.08451 0.6727 0.0
C321 C 0.56409 0.12476 0.6833 0.0
C322 C 0.56292 0.12778 0.70718 0.0
C323 C 0.56024 0.09031 0.72072 0.0
C324 C 0.55713 0.05012 0.7104 0.0
C325 C 0.55453 0.01406 0.72782 0.0
C326 C 0.55751 0.03993 0.75015 0.0
C327 C 0.56119 0.08457 0.74577 0.0
C328 C 0.59894 1.00804 0.72433 0.0
C329 C 0.50562 0.96683 0.72513 0.0
C330 C 0.57543 0.21607 0.79841 0.0
C331 C 0.5782 0.22117 0.82236 0.0
C332 C 0.5826 0.18765 0.83614 0.0
C333 C 0.58146 0.14753 0.82612 0.0
C334 C 0.57609 0.14145 0.80215 0.0
C335 C 0.57456 0.17612 0.78868 0.0
C336 C 0.57017 0.16445 0.76353 0.0
C337 C 0.56709 0.11586 0.76417 0.0
C338 C 0.57024 0.1026 0.78679 0.0
C339 C 0.61659 0.20324 0.75141 0.0
C340 C 0.52306 0.16064 0.75445 0.0
H341 H 0.54336 0.93266 0.75489 0.0
H342 H 0.57297 0.96199 0.83874 0.0
H343 H 0.4921 0.99406 0.824 0.0
H344 H 0.51803 0.05536 0.8308 0.0
H345 H 0.53238 0.01745 0.84798 0.0
H346 H 0.64515 0.05706 0.81766 0.0
H347 H 0.61737 0.05811 0.8442 0.0
H348 H 0.63505 0.10502 0.82288 0.0
H349 H 0.55605 0.0148 0.67868 0.0
H350 H 0.56624 0.15399 0.67302 0.0
H351 H 0.56443 0.15939 0.71414 0.0
H352 H 0.63182 0.04369 0.72162 0.0
H353 H 0.59434 0.9855 0.70904 0.0
H354 H 0.60685 0.99209 0.73932 0.0
H355 H 0.47798 0.97375 0.71746 0.0
H356 H 0.49018 0.94934 0.74185 0.0
H357 H 0.5089 0.94079 0.71384 0.0
H358 H 0.55031 0.87464 0.77863 0.0
C359 C 0.54935 0.94009 0.77291 0.0
C360 C 0.6524 0.50825 0.15755 0.0
C361 C 0.69326 0.50976 0.14859 0.0
C362 C 0.7014 0.51379 0.12465 0.0
C363 C 0.62766 0.51411 0.11887 0.0
C364 C 0.62012 0.51041 0.14238 0.0
C365 C 0.57512 0.50991 0.14903 0.0
H366 H 0.37766 0.51384 0.11751 0.0
C367 C 0.58769 0.51617 0.10802 0.0
C368 C 0.55705 0.51397 0.12562 0.0
H369 H 0.42369 0.50557 0.18639 0.0
H370 H 0.49463 0.50804 0.1709 0.0
H371 H 0.48143 0.59571 0.099 0.0
H372 H 0.40316 0.44083 0.09489 0.0
H373 H 0.43051 0.46281 0.06806 0.0
H374 H 0.3867 0.47764 0.07837 0.0
H375 H 0.42947 0.56341 0.0811 0.0
H376 H 0.4888 0.58 0.07102 0.0
C377 C 0.58906 0.55478 0.1642 0.0
C378 C 0.54124 0.46079 0.16078 0.0
C379 C 0.57855 0.52339 0.02117 0.0
C380 C 0.54485 0.52457 0.00624 0.0
C381 C 0.50477 0.52527 0.01555 0.0
C382 C 0.49807 0.52419 0.03938 0.0
C383 C 0.53187 0.52251 0.05407 0.0
C384 C 0.57144 0.52249 0.0449 0.0
C385 C 0.60379 0.521 0.06312 0.0
C386 C 0.57656 0.51915 0.08471 0.0
C387 C 0.53469 0.52022 0.07931 0.0
C388 C 0.65297 0.56826 0.06155 0.0
C389 C 0.60617 0.47435 0.05977 0.0
C390 C 0.40356 0.51356 0.12933 0.0
C391 C 0.39618 0.51073 0.15321 0.0
C392 C 0.42937 0.50835 0.16797 0.0
C393 C 0.47032 0.50984 0.15889 0.0
C394 C 0.47739 0.51336 0.13489 0.0
C395 C 0.4443 0.51521 0.12059 0.0
C396 C 0.45708 0.51836 0.09559 0.0
C397 C 0.50379 0.5182 0.09715 0.0
C398 C 0.51516 0.51518 0.12014 0.0
C399 C 0.46435 0.56664 0.08595 0.0
C400 C 0.41736 0.47286 0.08339 0.0
H401 H 0.67698 0.51947 0.09172 0.0
H402 H 0.64585 0.50567 0.17591 0.0
H403 H 0.54555 0.43146 0.1531 0.0
H404 H 0.50279 0.44881 0.15847 0.0
H405 H 0.54909 0.46196 0.17943 0.0
H406 H 0.62493 0.58538 0.15931 0.0
H407 H 0.59072 0.54677 0.18265 0.0
H408 H 0.56443 0.56911 0.16212 0.0
H409 H 0.61015 0.5237 0.01454 0.0
H410 H 0.47824 0.52603 0.00437 0.0
H411 H 0.46673 0.52448 0.04542 0.0
H412 H 0.64837 0.59902 0.05621 0.0
H413 H 0.67682 0.56508 0.04876 0.0
H414 H 0.67175 0.57932 0.07824 0.0
H415 H 0.5709 0.44421 0.05396 0.0
H416 H 0.61397 0.46112 0.0758 0.0
H417 H 0.63337 0.4796 0.04661 0.0
H418 H 0.73367 0.51629 0.11751 0.0
C419 C 0.66875 0.51601 0.10972 0.0
H420 H 0.1798 0.43312 0.16754 0.0
H421 H 0.21554 0.55043 0.12021 0.0
H422 H 0.30055 0.57983 0.12575 0.0
H423 H 0.36391 0.56952 0.14171 0.0
H424 H 0.32976 0.44461 0.18291 0.0
H425 H 0.24505 0.42309 0.18404 0.0
C426 C 0.20629 0.46445 0.1581 0.0
C427 C 0.19168 0.4891 0.14319 0.0
C428 C 0.25519 0.48089 0.16112 0.0
C429 C 0.22607 0.53028 0.13139 0.0
C430 C 0.27462 0.54767 0.13486 0.0
C431 C 0.33786 0.53805 0.15128 0.0
C432 C 0.3521 0.50794 0.16169 0.0
C433 C 0.2894 0.52313 0.14956 0.0
C434 C 0.31906 0.46806 0.17465 0.0
C435 C 0.27067 0.45518 0.1748 0.0
H436 H 0.68818 0.21732 0.52617 0.0
H437 H 0.75628 0.14636 0.49369 0.0
H438 H 0.82718 0.22459 0.48531 0.0
H439 H 0.86189 0.31159 0.48072 0.0
H440 H 0.78903 0.38186 0.50845 0.0
H441 H 0.72721 0.30534 0.52531 0.0
C442 C 0.71925 0.21898 0.51797 0.0
C443 C 0.71747 0.17644 0.51054 0.0
C444 C 0.75823 0.26388 0.51197 0.0
C445 C 0.75732 0.17884 0.49958 0.0
C446 C 0.79748 0.22345 0.49463 0.0
C447 C 0.83306 0.31005 0.49104 0.0
C448 C 0.82935 0.35143 0.49352 0.0
C449 C 0.7972 0.26598 0.49975 0.0
C450 C 0.7922 0.34998 0.50663 0.0
C451 C 0.75695 0.30636 0.51607 0.0
H452 H 0.57119 0.74533 0.85709 0.0
H453 H 0.69531 0.79913 0.81288 0.0
H454 H 0.68983 0.87093 0.80444 0.0
H455 H 0.64104 0.90954 0.80411 0.0
H456 H 0.51181 0.85124 0.84465 0.0
H457 H 0.52765 0.78942 0.86037 0.0
C458 C 0.59779 0.77347 0.84611 0.0
C459 C 0.63338 0.76733 0.83536 0.0
C460 C 0.59276 0.81297 0.84046 0.0
C461 C 0.66754 0.80346 0.82111 0.0
C462 C 0.66422 0.84416 0.81623 0.0
C463 C 0.61708 0.88373 0.81677 0.0
C464 C 0.5752 0.8837 0.82315 0.0
C465 C 0.62565 0.84795 0.82492 0.0
C466 C 0.54413 0.85109 0.83961 0.0
C467 C 0.55313 0.81593 0.84844 0.0
H468 H 0.88868 0.58571 0.19586 0.0
H469 H 0.88747 0.47908 0.15059 0.0
H470 H 0.80173 0.44384 0.14429 0.0
H471 H 0.73246 0.45417 0.14531 0.0
H472 H 0.73519 0.5678 0.18561 0.0
H473 H 0.81355 0.58791 0.20143 0.0
C474 C 0.86902 0.55427 0.18506 0.0
C475 C 0.89343 0.53518 0.17337 0.0
C476 C 0.82003 0.5354 0.18079 0.0
C477 C 0.8686 0.49425 0.1595 0.0
C478 C 0.81978 0.4741 0.15592 0.0
C479 C 0.74986 0.48245 0.15804 0.0
C480 C 0.72967 0.51057 0.16384 0.0
C481 C 0.7958 0.49587 0.16558 0.0
C482 C 0.75102 0.54624 0.18076 0.0
C483 C 0.79595 0.55814 0.18953 0.0
H484 H 0.30473 0.91834 0.47571 0.0
H485 H 0.36253 0.88258 0.53453 0.0
H486 H 0.29511 0.80041 0.53435 0.0
H487 H 0.2243 0.73614 0.51457 0.0
H488 H 0.16593 0.77269 0.45631 0.0
H489 H 0.22819 0.857 0.45938 0.0
C490 C 0.30184 0.89274 0.48873 0.0
C491 C 0.33837 0.90608 0.50488 0.0
C492 C 0.26299 0.84555 0.48857 0.0
C493 C 0.33456 0.8729 0.52181 0.0
C494 C 0.29617 0.82583 0.52172 0.0
C495 C 0.22478 0.76294 0.503 0.0
C496 C 0.19163 0.74865 0.48504 0.0
C497 C 0.26081 0.81137 0.50478 0.0
C498 C 0.19205 0.78329 0.47004 0.0
C499 C 0.22751 0.83136 0.47175 0.0
H500 H 0.59198 0.41044 0.85854 0.0
H501 H 0.45337 0.34687 0.82556 0.0
H502 H 0.45497 0.27239 0.81942 0.0
H503 H 0.501 0.23072 0.81839 0.0
H504 H 0.64181 0.29593 0.84884 0.0
H505 H 0.63458 0.36519 0.86106 0.0
C506 C 0.56154 0.37978 0.85058 0.0
C507 C 0.52265 0.38383 0.84237 0.0
C508 C 0.56369 0.33809 0.84631 0.0
C509 C 0.48357 0.34424 0.83197 0.0
C510 C 0.48469 0.30195 0.82831 0.0
C511 C 0.52963 0.25989 0.82805 0.0
C512 C 0.57193 0.25912 0.83268 0.0
C513 C 0.52537 0.29933 0.83458 0.0
C514 C 0.60899 0.29636 0.84525 0.0
C515 C 0.60485 0.33575 0.85212 0.0
H516 H 0.59989 0.93406 0.49505 0.0
H517 H 0.44598 0.87366 0.49519 0.0
H518 H 0.43418 0.7931 0.49825 0.0
H519 H 0.46639 0.7384 0.50422 0.0
H520 H 0.61919 0.79598 0.50355 0.0
H521 H 0.63222 0.87733 0.49711 0.0
C522 C 0.56377 0.90332 0.49554 0.0
C523 C 0.52404 0.91106 0.49499 0.0
C524 C 0.55676 0.85573 0.49709 0.0
C525 C 0.47761 0.86995 0.49557 0.0
C526 C 0.47059 0.82328 0.49735 0.0
C527 C 0.50249 0.76846 0.50174 0.0
C528 C 0.54166 0.76036 0.50362 0.0
C529 C 0.50973 0.81553 0.49841 0.0
C530 C 0.58825 0.80049 0.50135 0.0
C531 C 0.59573 0.84736 0.49804 0.0
H532 H 0.7096 0.52908 0.8087 0.0
H533 H 0.74706 0.64869 0.85406 0.0
H534 H 0.82531 0.65621 0.86127 0.0
H535 H 0.88349 0.628 0.85573 0.0
H536 H 0.85054 0.51337 0.80794 0.0
H537 H 0.77181 0.50552 0.80039 0.0
C538 C 0.73499 0.55694 0.82006 0.0
C539 C 0.72174 0.58817 0.83089 0.0
C540 C 0.78139 0.56223 0.82364 0.0
C541 C 0.75579 0.62426 0.84537 0.0
C542 C 0.80081 0.62855 0.84957 0.0
C543 C 0.85935 0.60152 0.84347 0.0
C544 C 0.8736 0.57124 0.83251 0.0
C545 C 0.81411 0.59771 0.83891 0.0
C546 C 0.84136 0.53752 0.81656 0.0
C547 C 0.79589 0.53276 0.81236 0.0
H548 H 0.21822 0.64263 0.18562 0.0
H549 H 0.14088 0.69364 0.14504 0.0
H550 H 0.21348 0.77327 0.14182 0.0
H551 H 0.29912 0.83106 0.15258 0.0
H552 H 0.37378 0.77992 0.19521 0.0
H553 H 0.3031 0.69936 0.19589 0.0
C554 C 0.2172 0.67124 0.17615 0.0
C555 C 0.17359 0.66196 0.16585 0.0
C556 C 0.25916 0.71758 0.17477 0.0
C557 C 0.17338 0.69974 0.15358 0.0
C558 C 0.21518 0.74539 0.15161 0.0
C559 C 0.30033 0.80195 0.16145 0.0
C560 C 0.34278 0.81182 0.17332 0.0
C561 C 0.25842 0.75516 0.16231 0.0
C562 C 0.34249 0.77353 0.1854 0.0
C563 C 0.3017 0.72729 0.186 0.0
H564 H 0.47958 0.18075 0.47065 0.0
H565 H 0.5658 0.19971 0.53081 0.0
H566 H 0.57241 0.27721 0.53813 0.0
H567 H 0.55598 0.34118 0.5278 0.0
H568 H 0.47016 0.32618 0.46813 0.0
H569 H 0.4631 0.24778 0.45995 0.0
C570 C 0.49959 0.20175 0.4854 0.0
C571 C 0.52223 0.18357 0.50011 0.0
C572 C 0.50417 0.24792 0.4895 0.0
C573 C 0.54829 0.21216 0.51899 0.0
C574 C 0.55216 0.25688 0.52327 0.0
C575 C 0.53505 0.32087 0.51308 0.0
C576 C 0.51306 0.34036 0.49889 0.0
C577 C 0.53058 0.27537 0.50865 0.0
C578 C 0.48778 0.3131 0.47948 0.0
C579 C 0.48334 0.26768 0.47489 0.0
H580 H 0.39506 0.5223 0.80752 0.0
H581 H 0.47666 0.62426 0.8607 0.0
H582 H 0.40897 0.63567 0.86905 0.0
H583 H 0.32664 0.61683 0.86229 0.0
H584 H 0.24073 0.51408 0.81042 0.0
H585 H 0.31003 0.50515 0.79971 0.0
C586 C 0.39782 0.54678 0.82099 0.0
C587 C 0.44144 0.57216 0.83361 0.0
C588 C 0.35811 0.55402 0.82561 0.0
C589 C 0.44408 0.60424 0.85072 0.0
C590 C 0.40523 0.61098 0.85548 0.0
C591 C 0.32276 0.5925 0.84849 0.0
C592 C 0.27761 0.56587 0.83741 0.0
C593 C 0.36215 0.58624 0.84309 0.0
C594 C 0.27452 0.53541 0.81928 0.0
C595 C 0.31423 0.52975 0.8134 0.0
H596 H 0.86484 0.3919 0.15204 0.0
H597 H 0.95646 0.33804 0.17525 0.0
H598 H 0.88641 0.25843 0.18125 0.0
H599 H 0.79821 0.2045 0.18285 0.0
H600 H 0.70552 0.25543 0.15823 0.0
H601 H 0.77596 0.33438 0.14949 0.0
C602 C 0.8696 0.36271 0.15823 0.0
C603 C 0.91669 0.37187 0.1633 0.0
C604 C 0.82854 0.31584 0.16126 0.0
C605 C 0.92135 0.33282 0.1711 0.0
C606 C 0.881 0.28693 0.1746 0.0
C607 C 0.7934 0.23231 0.17482 0.0
C608 C 0.7461 0.22313 0.17079 0.0
C609 C 0.83434 0.27797 0.17 0.0
C610 C 0.74106 0.26051 0.16097 0.0
C611 C 0.78157 0.30613 0.15629 0.0
H612 H 0.09055 0.5129 0.08875 0.0
H613 H 0.98273 0.55365 0.09768 0.0
H614 H 0.97495 0.55732 0.05622 0.0
H615 H 1.00357 0.55652 0.01796 0.0
H616 H 0.10582 0.50825 0.00757 0.0
H617 H 0.11274 0.50274 0.04888 0.0
C618 C 0.06484 0.52169 0.0815 0.0
C619 C 0.03744 0.5333 0.09619 0.0
C620 C 0.06061 0.52402 0.05739 0.0
C621 C 1.00445 0.54496 0.08667 0.0
C622 C 1.0001 0.54726 0.06296 0.0
C623 C 0.02642 0.54329 0.02431 0.0
C624 C 0.05421 0.5333 0.00898 0.0
C625 C 0.02873 0.53793 0.04816 0.0
C626 C 0.08469 0.51781 0.01844 0.0
C627 C 0.0883 0.51386 0.04229 0.0
H628 H 0.47217 0.05107 0.42265 0.0
H629 H 0.61451 0.072 0.43047 0.0
H630 H 0.61944 0.06153 0.38918 0.0
H631 H 0.58386 0.04773 0.35052 0.0
H632 H 0.44164 0.02708 0.34238 0.0
H633 H 0.43618 0.03655 0.38374 0.0
C634 C 0.504 0.05303 0.41522 0.0
C635 C 0.54296 0.06242 0.42944 0.0
C636 C 0.50684 0.04752 0.39132 0.0
C637 C 0.58419 0.06506 0.41973 0.0
C638 C 0.58708 0.05916 0.39613 0.0
C639 C 0.55194 0.04579 0.35782 0.0
C640 C 0.5133 0.03682 0.34342 0.0
C641 C 0.54886 0.05087 0.38169 0.0
C642 C 0.4718 0.0337 0.35315 0.0
C643 C 0.46862 0.0391 0.37681 0.0
H644 H 0.60855 0.53025 0.75026 0.0
H645 H 0.5388 0.61172 0.76475 0.0
H646 H 0.52826 0.61928 0.72334 0.0
H647 H 0.53027 0.59311 0.68317 0.0
H648 H 0.60505 0.51534 0.66994 0.0
H649 H 0.62235 0.51611 0.71054 0.0
C650 C 0.59226 0.55082 0.74426 0.0
C651 C 0.57458 0.5705 0.76032 0.0
C652 C 0.58639 0.55483 0.72064 0.0
C653 C 0.55327 0.59686 0.75255 0.0
C654 C 0.54678 0.60066 0.72891 0.0
C655 C 0.55111 0.57718 0.68913 0.0
C656 C 0.56466 0.55255 0.67349 0.0
C657 C 0.56189 0.57841 0.71277 0.0
C658 C 0.59231 0.53275 0.68159 0.0
C659 C 0.60267 0.53348 0.70485 0.0
H660 H 0.58369 0.12258 0.56609 0.0
H661 H 0.45938 0.98028 0.5658 0.0
H662 H 0.46594 0.97362 0.60748 0.0
H663 H 0.50336 0.01149 0.64432 0.0
H664 H 0.62649 0.15495 0.64453 0.0
H665 H 0.62459 0.15807 0.60263 0.0
C666 C 0.55844 0.09015 0.57528 0.0
C667 C 0.52096 0.05216 0.56334 0.0
C668 C 0.56217 0.08695 0.59915 0.0
C669 C 0.48826 1.01001 0.57502 0.0
C670 C 0.49204 1.00623 0.59873 0.0
C671 C 0.53021 0.043 0.63511 0.0
C672 C 0.56465 0.08313 0.64738 0.0
C673 C 0.52834 0.04486 0.61105 0.0
C674 C 0.5992 0.12392 0.63535 0.0
C675 C 0.59815 0.12574 0.61143 0.0
H676 H 0.59309 0.51366 0.90186 0.0
H677 H 0.55755 0.62603 0.89669 0.0
H678 H 0.53837 0.61848 0.93773 0.0
H679 H 0.5352 0.58233 0.97528 0.0
H680 H 0.57089 0.46992 0.98086 0.0
H681 H 0.58656 0.47486 0.93953 0.0
C682 C 0.5807 0.53598 0.90983 0.0
C683 C 0.57648 0.57018 0.89661 0.0
C684 C 0.57005 0.53158 0.93343 0.0
C685 C 0.56071 0.59934 0.9068 0.0
C686 C 0.5499 0.59511 0.93018 0.0
C687 C 0.54579 0.55849 0.96738 0.0
C688 C 0.55203 0.52594 0.98106 0.0
C689 C 0.55486 0.56166 0.9437 0.0
C690 C 0.56643 0.49572 0.97068 0.0
C691 C 0.57522 0.49838 0.94706 0.0
H692 H 0.02586 0.54999 0.22875 0.0
H693 H 0.09281 0.46403 0.2398 0.0
H694 H 0.08084 0.46447 0.28108 0.0
H695 H 0.05463 0.49193 0.3143 0.0
H696 H 0.99091 0.58064 0.30435 0.0
H697 H 0.99775 0.57634 0.26244 0.0
C698 C 0.03767 0.53135 0.24025 0.0
C699 C 0.06036 0.50719 0.23128 0.0
C700 C 0.03101 0.53206 0.26412 0.0
C701 C 0.07556 0.48317 0.24631 0.0
C702 C 0.0686 0.48323 0.26992 0.0
C703 C 0.04155 0.50951 0.30282 0.0
C704 C 0.02168 0.53584 0.31202 0.0
C705 C 0.04671 0.50777 0.27901 0.0
C706 C 1.0056 0.55951 0.29734 0.0
C707 C 1.00986 0.55733 0.27349 0.0
loop_
_geom_bond_atom_site_label_1
_geom_bond_atom_site_label_2
_geom_bond_distance
_geom_bond_site_symmetry_2
_ccdc_geom_bond_type
Dy0 O4 2.398 . S
Dy0 O5 2.491 . S
Dy0 O6 2.403 . S
Dy0 O7 2.664 . S
Dy0 O11 2.326 . S
Dy0 O15 2.310 . S
Dy0 O16 2.351 1_455 S
C1 O12 1.185 . S
C1 O13 1.355 . S
C2 O4 1.185 . S
C2 O5 1.355 . S
Dy3 O7 2.310 1_655 S
Dy3 O10 2.351 1_655 S
Dy3 O12 2.398 . S
Dy3 O13 2.491 . S
Dy3 O14 2.403 1_655 S
Dy3 O15 2.664 1_655 S
Dy3 O17 2.326 . S
O4 Dy0 2.398 . S
O4 C2 1.185 . S
O5 Dy0 2.491 . S
O5 C2 1.355 . S
O6 Dy0 2.403 . S
O6 C8 1.254 . S
O7 Dy0 2.664 . S
O7 Dy3 2.310 1_455 S
O7 C8 1.268 . S
C8 O6 1.254 . S
C8 O7 1.268 . S
C9 O14 1.254 . S
C9 O15 1.268 . S
O10 Dy3 2.351 1_455 S
O10 C18 1.249 . S
O11 Dy0 2.326 . S
O11 C18 1.267 . S
O12 C1 1.185 . S
O12 Dy3 2.398 . S
O13 C1 1.355 . S
O13 Dy3 2.491 . S
O14 Dy3 2.403 1_455 S
O14 C9 1.254 . S
O15 Dy0 2.310 . S
O15 Dy3 2.664 1_455 S
O15 C9 1.268 . S
O16 Dy0 2.351 1_655 S
O16 C19 1.249 . S
O17 Dy3 2.326 . S
O17 C19 1.267 . S
C18 O10 1.249 . S
C18 O11 1.267 . S
C19 O16 1.249 . S
C19 O17 1.267 . S
Dy20 O24 2.390 1_545 S
Dy20 O25 2.481 1_545 S
Dy20 O26 2.403 . S
Dy20 O27 2.666 . S
Dy20 O31 2.313 1_545 S
Dy20 O35 2.308 . S
Dy20 O36 2.365 . S
C21 O32 1.185 . S
C21 O33 1.355 . S
C22 O24 1.185 . S
C22 O25 1.355 . S
Dy23 O27 2.310 . S
Dy23 O30 2.351 1_545 S
Dy23 O32 2.398 . S
Dy23 O33 2.491 . S
Dy23 O34 2.403 . S
Dy23 O35 2.664 . S
Dy23 O37 2.326 . S
O24 Dy20 2.390 1_565 S
O24 C22 1.185 . S
O25 Dy20 2.481 1_565 S
O25 C22 1.355 . S
O26 Dy20 2.403 . S
O26 C28 1.254 . S
O27 Dy20 2.666 . S
O27 Dy23 2.310 . S
O27 C28 1.268 . S
C28 O26 1.254 . S
C28 O27 1.268 . S
C29 O34 1.254 . S
C29 O35 1.268 . S
O30 Dy23 2.351 1_565 S
O30 C38 1.249 . S
O31 Dy20 2.313 1_565 S
O31 C38 1.267 . S
O32 C21 1.185 . S
O32 Dy23 2.398 . S
O33 C21 1.355 . S
O33 Dy23 2.491 . S
O34 Dy23 2.403 . S
O34 C29 1.254 . S
O35 Dy20 2.308 . S
O35 Dy23 2.664 . S
O35 C29 1.268 . S
O36 Dy20 2.365 . S
O36 C39 1.249 . S
O37 Dy23 2.326 . S
O37 C39 1.267 . S
C38 O30 1.249 . S
C38 O31 1.267 . S
C39 O36 1.249 . S
C39 O37 1.267 . S
Dy40 O44 2.398 . S
Dy40 O45 2.491 . S
Dy40 O46 2.403 . S
Dy40 O47 2.664 . S
Dy40 O51 2.326 . S
Dy40 O55 2.310 . S
Dy40 O56 2.351 . S
C41 O52 1.185 . S
C41 O53 1.355 . S
C42 O44 1.185 . S
C42 O45 1.355 . S
Dy43 O47 2.310 . S
Dy43 O50 2.351 . S
Dy43 O52 2.398 . S
Dy43 O53 2.491 . S
Dy43 O54 2.403 . S
Dy43 O55 2.664 . S
Dy43 O57 2.326 . S
O44 Dy40 2.398 . S
O44 C42 1.185 . S
O45 Dy40 2.491 . S
O45 C42 1.355 . S
O46 Dy40 2.403 . S
O46 C48 1.254 . S
O47 Dy40 2.664 . S
O47 Dy43 2.310 . S
O47 C48 1.268 . S
C48 O46 1.254 . S
C48 O47 1.268 . S
C49 O54 1.254 . S
C49 O55 1.268 . S
O50 Dy43 2.351 . S
O50 C58 1.249 . S
O51 Dy40 2.326 . S
O51 C58 1.267 . S
O52 C41 1.185 . S
O52 Dy43 2.398 . S
O53 C41 1.355 . S
O53 Dy43 2.491 . S
O54 Dy43 2.403 . S
O54 C49 1.254 . S
O55 Dy40 2.310 . S
O55 Dy43 2.664 . S
O55 C49 1.268 . S
O56 Dy40 2.351 . S
O56 C59 1.249 . S
O57 Dy43 2.326 . S
O57 C59 1.267 . S
C58 O50 1.249 . S
C58 O51 1.267 . S
C59 O56 1.249 . S
C59 O57 1.267 . S
C60 C61 1.391 . S
C60 C64 1.391 . S
C60 H102 0.948 . S
C61 C60 1.391 . S
C61 C62 1.391 . S
C62 C61 1.391 . S
C62 H118 0.947 . S
C62 C119 1.392 . S
C63 C64 1.391 . S
C63 C67 1.397 . S
C63 C119 1.419 . S
C64 C60 1.391 . S
C64 C63 1.391 . S
C64 C65 1.399 . S
C65 C64 1.399 . S
C65 C68 1.396 . S
C65 C77 1.453 . S
C65 C78 1.684 . S
H66 C90 0.948 . S
C67 C63 1.397 . S
C67 C68 1.394 . S
C67 C86 1.723 . S
C68 C65 1.396 . S
C68 C67 1.394 . S
C68 C98 1.723 1_545 S
H69 C92 0.947 . S
H70 C93 0.948 . S
H71 C99 0.982 . S
H72 C100 0.979 . S
H73 C100 0.980 . S
H74 C100 0.983 . S
H75 C99 0.979 . S
H76 C99 0.977 . S
C77 C65 1.453 . S
C77 H106 0.982 . S
C77 H107 0.979 . S
C77 H108 0.977 1_545 S
C78 C65 1.684 . S
C78 H103 0.979 . S
C78 H104 0.980 . S
C78 H105 0.983 . S
C79 C80 1.391 . S
C79 C84 1.391 . S
C79 H109 0.948 . S
C80 C79 1.391 . S
C80 C81 1.391 1_545 S
C81 C80 1.391 1_565 S
C81 C82 1.392 . S
C81 H110 0.947 . S
C82 C81 1.392 . S
C82 C83 1.419 1_565 S
C82 H111 0.948 . S
C83 C82 1.419 1_545 S
C83 C84 1.391 . S
C83 C87 1.397 . S
C84 C79 1.391 . S
C84 C83 1.391 . S
C84 C85 1.399 . S
C85 C84 1.399 . S
C85 C86 1.396 . S
C85 C88 1.453 . S
C85 C89 1.684 . S
C86 C67 1.723 . S
C86 C85 1.396 . S
C86 C87 1.394 . S
C87 C83 1.397 . S
C87 C86 1.394 . S
C87 C97 1.723 1_545 S
C88 C85 1.453 . S
C88 H112 0.982 . S
C88 H113 0.979 . S
C88 H114 0.977 . S
C89 C85 1.684 . S
C89 H115 0.979 . S
C89 H116 0.980 . S
C89 H117 0.983 . S
C90 H66 0.948 . S
C90 C91 1.391 . S
C90 C95 1.391 . S
C91 C90 1.391 . S
C91 C92 1.391 . S
C92 H69 0.947 . S
C92 C91 1.391 . S
C92 C93 1.392 . S
C93 H70 0.948 . S
C93 C92 1.392 . S
C93 C94 1.419 . S
C94 C93 1.419 . S
C94 C95 1.391 . S
C94 C98 1.397 . S
C95 C90 1.391 . S
C95 C94 1.391 . S
C95 C96 1.399 . S
C96 C95 1.399 . S
C96 C97 1.396 . S
C96 C99 1.453 . S
C96 C100 1.684 . S
C97 C87 1.723 1_565 S
C97 C96 1.396 . S
C97 C98 1.394 . S
C98 C68 1.723 1_565 S
C98 C94 1.397 . S
C98 C97 1.394 . S
C99 H71 0.982 . S
C99 H75 0.979 . S
C99 H76 0.977 . S
C99 C96 1.453 . S
C100 H72 0.979 . S
C100 H73 0.980 . S
C100 H74 0.983 . S
C100 C96 1.684 . S
H101 C119 0.948 . S
H102 C60 0.948 . S
H103 C78 0.979 . S
H104 C78 0.980 . S
H105 C78 0.983 . S
H106 C77 0.982 . S
H107 C77 0.979 . S
H108 C77 0.977 1_565 S
H109 C79 0.948 . S
H110 C81 0.947 . S
H111 C82 0.948 . S
H112 C88 0.982 . S
H113 C88 0.979 . S
H114 C88 0.977 . S
H115 C89 0.979 . S
H116 C89 0.980 . S
H117 C89 0.983 . S
H118 C62 0.947 . S
C119 C62 1.392 . S
C119 C63 1.419 . S
C119 H101 0.948 . S
C120 C121 1.391 . S
C120 C124 1.391 . S
C120 H162 0.948 . S
C121 C120 1.391 . S
C121 C122 1.391 . S
C122 C121 1.391 . S
C122 H178 0.947 . S
C122 C179 1.392 . S
C123 C124 1.391 . S
C123 C127 1.397 . S
C123 C179 1.419 . S
C124 C120 1.391 . S
C124 C123 1.391 . S
C124 C125 1.399 . S
C125 C124 1.399 . S
C125 C128 1.396 . S
C125 C137 1.453 . S
C125 C138 1.684 . S
H126 C150 0.948 . S
C127 C123 1.397 . S
C127 C128 1.394 . S
C127 C146 1.723 . S
C128 C125 1.396 . S
C128 C127 1.394 . S
C128 C158 1.723 . S
H129 C152 0.947 . S
H130 C153 0.948 . S
H131 C159 0.982 . S
H132 C160 0.979 . S
H133 C160 0.980 . S
H134 C160 0.983 . S
H135 C159 0.979 . S
H136 C159 0.977 . S
C137 C125 1.453 . S
C137 H166 0.982 . S
C137 H167 0.979 . S
C137 H168 0.977 . S
C138 C125 1.684 . S
C138 H163 0.979 . S
C138 H164 0.980 . S
C138 H165 0.983 . S
C139 C140 1.391 . S
C139 C144 1.391 . S
C139 H169 0.948 . S
C140 C139 1.391 . S
C140 C141 1.391 . S
C141 C140 1.391 . S
C141 C142 1.392 . S
C141 H170 0.947 . S
C142 C141 1.392 . S
C142 C143 1.419 . S
C142 H171 0.948 . S
C143 C142 1.419 . S
C143 C144 1.391 . S
C143 C147 1.397 . S
C144 C139 1.391 . S
C144 C143 1.391 . S
C144 C145 1.399 . S
C145 C144 1.399 . S
C145 C146 1.396 . S
C145 C148 1.453 . S
C145 C149 1.684 . S
C146 C127 1.723 . S
C146 C145 1.396 . S
C146 C147 1.394 . S
C147 C143 1.397 . S
C147 C146 1.394 . S
C147 C157 1.723 . S
C148 C145 1.453 . S
C148 H172 0.982 . S
C148 H173 0.979 . S
C148 H174 0.977 . S
C149 C145 1.684 . S
C149 H175 0.979 . S
C149 H176 0.980 . S
C149 H177 0.983 . S
C150 H126 0.948 . S
C150 C151 1.391 . S
C150 C155 1.391 . S
C151 C150 1.391 . S
C151 C152 1.391 . S
C152 H129 0.947 . S
C152 C151 1.391 . S
C152 C153 1.392 . S
C153 H130 0.948 . S
C153 C152 1.392 . S
C153 C154 1.419 . S
C154 C153 1.419 . S
C154 C155 1.391 . S
C154 C158 1.397 . S
C155 C150 1.391 . S
C155 C154 1.391 . S
C155 C156 1.399 . S
C156 C155 1.399 . S
C156 C157 1.396 . S
C156 C159 1.453 . S
C156 C160 1.684 . S
C157 C147 1.723 . S
C157 C156 1.396 . S
C157 C158 1.394 . S
C158 C128 1.723 . S
C158 C154 1.397 . S
C158 C157 1.394 . S
C159 H131 0.982 . S
C159 H135 0.979 . S
C159 H136 0.977 . S
C159 C156 1.453 . S
C160 H132 0.979 . S
C160 H133 0.980 . S
C160 H134 0.983 . S
C160 C156 1.684 . S
H161 C179 0.948 . S
H162 C120 0.948 . S
H163 C138 0.979 . S
H164 C138 0.980 . S
H165 C138 0.983 . S
H166 C137 0.982 . S
H167 C137 0.979 . S
H168 C137 0.977 . S
H169 C139 0.948 . S
H170 C141 0.947 . S
H171 C142 0.948 . S
H172 C148 0.982 . S
H173 C148 0.979 . S
H174 C148 0.977 . S
H175 C149 0.979 . S
H176 C149 0.980 . S
H177 C149 0.983 . S
H178 C122 0.947 . S
C179 C122 1.392 . S
C179 C123 1.419 . S
C179 H161 0.948 . S
C180 C181 1.391 . S
C180 C184 1.391 . S
C180 H222 0.948 . S
C181 C180 1.391 . S
C181 C182 1.391 . S
C182 C181 1.391 . S
C182 H238 0.947 . S
C182 C239 1.392 . S
C183 C184 1.391 . S
C183 C187 1.397 . S
C183 C239 1.419 . S
C184 C180 1.391 . S
C184 C183 1.391 . S
C184 C185 1.399 . S
C185 C184 1.399 . S
C185 C188 1.396 . S
C185 C197 1.453 . S
C185 C198 1.684 . S
H186 C210 0.948 . S
C187 C183 1.397 . S
C187 C188 1.394 . S
C187 C206 1.723 . S
C188 C185 1.396 . S
C188 C187 1.394 . S
C188 C218 1.723 . S
H189 C212 0.947 . S
H190 C213 0.948 1_455 S
H191 C219 0.982 . S
H192 C220 0.979 . S
H193 C220 0.980 . S
H194 C220 0.983 . S
H195 C219 0.979 . S
H196 C219 0.977 . S
C197 C185 1.453 . S
C197 H226 0.982 . S
C197 H227 0.979 . S
C197 H228 0.977 . S
C198 C185 1.684 . S
C198 H223 0.979 . S
C198 H224 0.980 . S
C198 H225 0.983 . S
C199 C200 1.391 . S
C199 C204 1.391 . S
C199 H229 0.948 . S
C200 C199 1.391 . S
C200 C201 1.391 . S
C201 C200 1.391 . S
C201 C202 1.392 . S
C201 H230 0.947 1_455 S
C202 C201 1.392 . S
C202 C203 1.419 . S
C202 H231 0.948 1_455 S
C203 C202 1.419 . S
C203 C204 1.391 . S
C203 C207 1.397 . S
C204 C199 1.391 . S
C204 C203 1.391 . S
C204 C205 1.399 . S
C205 C204 1.399 . S
C205 C206 1.396 . S
C205 C208 1.453 . S
C205 C209 1.684 . S
C206 C187 1.723 . S
C206 C205 1.396 . S
C206 C207 1.394 . S
C207 C203 1.397 . S
C207 C206 1.394 . S
C207 C217 1.723 . S
C208 C205 1.453 . S
C208 H232 0.982 . S
C208 H233 0.979 . S
C208 H234 0.977 . S
C209 C205 1.684 . S
C209 H235 0.979 . S
C209 H236 0.980 . S
C209 H237 0.983 . S
C210 H186 0.948 . S
C210 C211 1.391 . S
C210 C215 1.391 . S
C211 C210 1.391 . S
C211 C212 1.391 . S
C212 H189 0.947 . S
C212 C211 1.391 . S
C212 C213 1.392 . S
C213 H190 0.948 1_655 S
C213 C212 1.392 . S
C213 C214 1.419 . S
C214 C213 1.419 . S
C214 C215 1.391 . S
C214 C218 1.397 1_655 S
C215 C210 1.391 . S
C215 C214 1.391 . S
C215 C216 1.399 . S
C216 C215 1.399 . S
C216 C217 1.396 1_655 S
C216 C219 1.453 . S
C216 C220 1.684 . S
C217 C207 1.723 . S
C217 C216 1.396 1_455 S
C217 C218 1.394 . S
C218 C188 1.723 . S
C218 C214 1.397 1_455 S
C218 C217 1.394 . S
C219 H191 0.982 . S
C219 H195 0.979 . S
C219 H196 0.977 . S
C219 C216 1.453 . S
C220 H192 0.979 . S
C220 H193 0.980 . S
C220 H194 0.983 . S
C220 C216 1.684 . S
H221 C239 0.948 . S
H222 C180 0.948 . S
H223 C198 0.979 . S
H224 C198 0.980 . S
H225 C198 0.983 . S
H226 C197 0.982 . S
H227 C197 0.979 . S
H228 C197 0.977 . S
H229 C199 0.948 . S
H230 C201 0.947 1_655 S
H231 C202 0.948 1_655 S
H232 C208 0.982 . S
H233 C208 0.979 . S
H234 C208 0.977 . S
H235 C209 0.979 . S
H236 C209 0.980 . S
H237 C209 0.983 . S
H238 C182 0.947 . S
C239 C182 1.392 . S
C239 C183 1.419 . S
C239 H221 0.948 . S
C240 C241 1.391 . S
C240 C244 1.391 . S
C240 H282 0.948 . S
C241 C240 1.391 . S
C241 C242 1.391 . S
C242 C241 1.391 . S
C242 H298 0.947 . S
C242 C299 1.392 . S
C243 C244 1.391 . S
C243 C247 1.397 . S
C243 C299 1.419 . S
C244 C240 1.391 . S
C244 C243 1.391 . S
C244 C245 1.399 . S
C245 C244 1.399 . S
C245 C248 1.396 . S
C245 C257 1.453 . S
C245 C258 1.684 . S
H246 C270 0.948 . S
C247 C243 1.397 . S
C247 C248 1.394 . S
C247 C266 1.723 . S
C248 C245 1.396 . S
C248 C247 1.394 . S
C248 C278 1.723 1_655 S
H249 C272 0.947 . S
H250 C273 0.948 . S
H251 C279 0.982 . S
H252 C280 0.979 . S
H253 C280 0.980 . S
H254 C280 0.983 . S
H255 C279 0.979 . S
H256 C279 0.977 . S
C257 C245 1.453 . S
C257 H286 0.982 1_655 S
C257 H287 0.979 . S
C257 H288 0.977 1_655 S
C258 C245 1.684 . S
C258 H283 0.979 . S
C258 H284 0.980 . S
C258 H285 0.983 . S
C259 C260 1.391 1_655 S
C259 C264 1.391 . S
C259 H289 0.948 . S
C260 C259 1.391 1_455 S
C260 C261 1.391 . S
C261 C260 1.391 . S
C261 C262 1.392 . S
C261 H290 0.947 . S
C262 C261 1.392 . S
C262 C263 1.419 . S
C262 H291 0.948 . S
C263 C262 1.419 . S
C263 C264 1.391 1_455 S
C263 C267 1.397 . S
C264 C259 1.391 . S
C264 C263 1.391 1_655 S
C264 C265 1.399 . S
C265 C264 1.399 . S
C265 C266 1.396 . S
C265 C268 1.453 . S
C265 C269 1.684 . S
C266 C247 1.723 . S
C266 C265 1.396 . S
C266 C267 1.394 1_655 S
C267 C263 1.397 . S
C267 C266 1.394 1_455 S
C267 C277 1.723 . S
C268 C265 1.453 . S
C268 H292 0.982 . S
C268 H293 0.979 . S
C268 H294 0.977 . S
C269 C265 1.684 . S
C269 H295 0.979 . S
C269 H296 0.980 . S
C269 H297 0.983 . S
C270 H246 0.948 . S
C270 C271 1.391 . S
C270 C275 1.391 . S
C271 C270 1.391 . S
C271 C272 1.391 . S
C272 H249 0.947 . S
C272 C271 1.391 . S
C272 C273 1.392 . S
C273 H250 0.948 . S
C273 C272 1.392 . S
C273 C274 1.419 . S
C274 C273 1.419 . S
C274 C275 1.391 . S
C274 C278 1.397 . S
C275 C270 1.391 . S
C275 C274 1.391 . S
C275 C276 1.399 . S
C276 C275 1.399 . S
C276 C277 1.396 . S
C276 C279 1.453 . S
C276 C280 1.684 . S
C277 C267 1.723 . S
C277 C276 1.396 . S
C277 C278 1.394 . S
C278 C248 1.723 1_455 S
C278 C274 1.397 . S
C278 C277 1.394 . S
C279 H251 0.982 . S
C279 H255 0.979 . S
C279 H256 0.977 . S
C279 C276 1.453 . S
C280 H252 0.979 . S
C280 H253 0.980 . S
C280 H254 0.983 . S
C280 C276 1.684 . S
H281 C299 0.948 . S
H282 C240 0.948 . S
H283 C258 0.979 . S
H284 C258 0.980 . S
H285 C258 0.983 . S
H286 C257 0.982 1_455 S
H287 C257 0.979 . S
H288 C257 0.977 1_455 S
H289 C259 0.948 . S
H290 C261 0.947 . S
H291 C262 0.948 . S
H292 C268 0.982 . S
H293 C268 0.979 . S
H294 C268 0.977 . S
H295 C269 0.979 . S
H296 C269 0.980 . S
H297 C269 0.983 . S
H298 C242 0.947 . S
C299 C242 1.392 . S
C299 C243 1.419 . S
C299 H281 0.948 . S
C300 C301 1.391 . S
C300 C304 1.391 . S
C300 H342 0.948 . S
C301 C300 1.391 . S
C301 C302 1.391 . S
C302 C301 1.391 . S
C302 H358 0.947 . S
C302 C359 1.392 . S
C303 C304 1.391 . S
C303 C307 1.397 1_565 S
C303 C359 1.419 . S
C304 C300 1.391 . S
C304 C303 1.391 . S
C304 C305 1.399 1_565 S
C305 C304 1.399 1_545 S
C305 C308 1.396 . S
C305 C317 1.453 . S
C305 C318 1.684 . S
H306 C330 0.948 . S
C307 C303 1.397 1_545 S
C307 C308 1.394 . S
C307 C326 1.723 . S
C308 C305 1.396 . S
C308 C307 1.394 . S
C308 C338 1.723 . S
H309 C332 0.947 . S
H310 C333 0.948 . S
H311 C339 0.982 . S
H312 C340 0.979 . S
H313 C340 0.980 . S
H314 C340 0.983 . S
H315 C339 0.979 . S
H316 C339 0.977 . S
C317 C305 1.453 . S
C317 H346 0.982 . S
C317 H347 0.979 . S
C317 H348 0.977 . S
C318 C305 1.684 . S
C318 H343 0.979 . S
C318 H344 0.980 . S
C318 H345 0.983 . S
C319 C320 1.391 . S
C319 C324 1.391 . S
C319 H349 0.948 1_545 S
C320 C319 1.391 . S
C320 C321 1.391 . S
C321 C320 1.391 . S
C321 C322 1.392 . S
C321 H350 0.947 . S
C322 C321 1.392 . S
C322 C323 1.419 . S
C322 H351 0.948 . S
C323 C322 1.419 . S
C323 C324 1.391 . S
C323 C327 1.397 . S
C324 C319 1.391 . S
C324 C323 1.391 . S
C324 C325 1.396 1_545 S
C325 C324 1.396 1_565 S
C325 C326 1.394 1_565 S
C325 C328 1.456 . S
C325 C329 1.687 . S
C326 C307 1.723 . S
C326 C325 1.394 1_545 S
C326 C327 1.394 . S
C327 C323 1.397 . S
C327 C326 1.394 . S
C327 C337 1.723 . S
C328 C325 1.456 . S
C328 H352 0.982 1_565 S
C328 H353 0.979 . S
C328 H354 0.977 . S
C329 C325 1.687 . S
C329 H355 0.979 . S
C329 H356 0.980 . S
C329 H357 0.983 . S
C330 H306 0.948 . S
C330 C331 1.391 . S
C330 C335 1.391 . S
C331 C330 1.391 . S
C331 C332 1.391 . S
C332 H309 0.947 . S
C332 C331 1.391 . S
C332 C333 1.392 . S
C333 H310 0.948 . S
C333 C332 1.392 . S
C333 C334 1.419 . S
C334 C333 1.419 . S
C334 C335 1.391 . S
C334 C338 1.397 . S
C335 C330 1.391 . S
C335 C334 1.391 . S
C335 C336 1.399 . S
C336 C335 1.399 . S
C336 C337 1.396 . S
C336 C339 1.453 . S
C336 C340 1.684 . S
C337 C327 1.723 . S
C337 C336 1.396 . S
C337 C338 1.394 . S
C338 C308 1.723 . S
C338 C334 1.397 . S
C338 C337 1.394 . S
C339 H311 0.982 . S
C339 H315 0.979 . S
C339 H316 0.977 . S
C339 C336 1.453 . S
C340 H312 0.979 . S
C340 H313 0.980 . S
C340 H314 0.983 . S
C340 C336 1.684 . S
H341 C359 0.948 . S
H342 C300 0.948 . S
H343 C318 0.979 . S
H344 C318 0.980 . S
H345 C318 0.983 . S
H346 C317 0.982 . S
H347 C317 0.979 . S
H348 C317 0.977 . S
H349 C319 0.948 1_565 S
H350 C321 0.947 . S
H351 C322 0.948 . S
H352 C328 0.982 1_545 S
H353 C328 0.979 . S
H354 C328 0.977 . S
H355 C329 0.979 . S
H356 C329 0.980 . S
H357 C329 0.983 . S
H358 C302 0.947 . S
C359 C302 1.392 . S
C359 C303 1.419 . S
C359 H341 0.948 . S
C360 C361 1.391 . S
C360 C364 1.391 . S
C360 H402 0.948 . S
C361 C360 1.391 . S
C361 C362 1.391 . S
C362 C361 1.391 . S
C362 H418 0.947 . S
C362 C419 1.392 . S
C363 C364 1.391 . S
C363 C367 1.397 . S
C363 C419 1.419 . S
C364 C360 1.391 . S
C364 C363 1.391 . S
C364 C365 1.399 . S
C365 C364 1.399 . S
C365 C368 1.396 . S
C365 C377 1.453 . S
C365 C378 1.684 . S
H366 C390 0.948 . S
C367 C363 1.397 . S
C367 C368 1.394 . S
C367 C386 1.723 . S
C368 C365 1.396 . S
C368 C367 1.394 . S
C368 C398 1.723 . S
H369 C392 0.947 . S
H370 C393 0.948 . S
H371 C399 0.982 . S
H372 C400 0.979 . S
H373 C400 0.980 . S
H374 C400 0.983 . S
H375 C399 0.979 . S
H376 C399 0.977 . S
C377 C365 1.453 . S
C377 H406 0.982 . S
C377 H407 0.979 . S
C377 H408 0.977 . S
C378 C365 1.684 . S
C378 H403 0.979 . S
C378 H404 0.980 . S
C378 H405 0.983 . S
C379 C380 1.391 . S
C379 C384 1.391 . S
C379 H409 0.948 . S
C380 C379 1.391 . S
C380 C381 1.391 . S
C381 C380 1.391 . S
C381 C382 1.392 . S
C381 H410 0.947 . S
C382 C381 1.392 . S
C382 C383 1.419 . S
C382 H411 0.948 . S
C383 C382 1.419 . S
C383 C384 1.391 . S
C383 C387 1.397 . S
C384 C379 1.391 . S
C384 C383 1.391 . S
C384 C385 1.399 . S
C385 C384 1.399 . S
C385 C386 1.396 . S
C385 C388 1.453 . S
C385 C389 1.684 . S
C386 C367 1.723 . S
C386 C385 1.396 . S
C386 C387 1.394 . S
C387 C383 1.397 . S
C387 C386 1.394 . S
C387 C397 1.723 . S
C388 C385 1.453 . S
C388 H412 0.982 . S
C388 H413 0.979 . S
C388 H414 0.977 . S
C389 C385 1.684 . S
C389 H415 0.979 . S
C389 H416 0.980 . S
C389 H417 0.983 . S
C390 H366 0.948 . S
C390 C391 1.391 . S
C390 C395 1.391 . S
C391 C390 1.391 . S
C391 C392 1.391 . S
C392 H369 0.947 . S
C392 C391 1.391 . S
C392 C393 1.392 . S
C393 H370 0.948 . S
C393 C392 1.392 . S
C393 C394 1.419 . S
C394 C393 1.419 . S
C394 C395 1.391 . S
C394 C398 1.397 . S
C395 C390 1.391 . S
C395 C394 1.391 . S
C395 C396 1.399 . S
C396 C395 1.399 . S
C396 C397 1.396 . S
C396 C399 1.453 . S
C396 C400 1.684 . S
C397 C387 1.723 . S
C397 C396 1.396 . S
C397 C398 1.394 . S
C398 C368 1.723 . S
C398 C394 1.397 . S
C398 C397 1.394 . S
C399 H371 0.982 . S
C399 H375 0.979 . S
C399 H376 0.977 . S
C399 C396 1.453 . S
C400 H372 0.979 . S
C400 H373 0.980 . S
C400 H374 0.983 . S
C400 C396 1.684 . S
H401 C419 0.948 . S
H402 C360 0.948 . S
H403 C378 0.979 . S
H404 C378 0.980 . S
H405 C378 0.983 . S
H406 C377 0.982 . S
H407 C377 0.979 . S
H408 C377 0.977 . S
H409 C379 0.948 . S
H410 C381 0.947 . S
H411 C382 0.948 . S
H412 C388 0.982 . S
H413 C388 0.979 . S
H414 C388 0.977 . S
H415 C389 0.979 . S
H416 C389 0.980 . S
H417 C389 0.983 . S
H418 C362 0.947 . S
C419 C362 1.392 . S
C419 C363 1.419 . S
C419 H401 0.948 . S
H420 C426 0.930 . S
H421 C429 0.930 . S
H422 C430 0.930 . S
H423 C431 0.930 . S
H424 C434 0.930 . S
H425 C435 0.930 . S
C426 H420 0.930 . S
C426 C427 1.355 . S
C426 C428 1.415 . S
C427 C426 1.355 . S
C427 C429 1.419 . S
C428 C426 1.415 . S
C428 C433 1.425 . S
C428 C435 1.409 . S
C429 H421 0.930 . S
C429 C427 1.419 . S
C429 C430 1.362 . S
C430 H422 0.930 . S
C430 C429 1.362 . S
C430 C433 1.409 . S
C431 H423 0.930 . S
C431 C432 1.355 . S
C431 C433 1.415 . S
C432 C431 1.355 . S
C432 C434 1.419 . S
C433 C428 1.425 . S
C433 C430 1.409 . S
C433 C431 1.415 . S
C434 H424 0.930 . S
C434 C432 1.419 . S
C434 C435 1.362 . S
C435 H425 0.930 . S
C435 C428 1.409 . S
C435 C434 1.362 . S
H436 C442 0.930 . S
H437 C445 0.930 . S
H438 C446 0.930 . S
H439 C447 0.930 . S
H440 C450 0.930 . S
H441 C451 0.930 . S
C442 H436 0.930 . S
C442 C443 1.355 . S
C442 C444 1.415 . S
C443 C442 1.355 . S
C443 C445 1.419 . S
C444 C442 1.415 . S
C444 C449 1.425 . S
C444 C451 1.409 . S
C445 H437 0.930 . S
C445 C443 1.419 . S
C445 C446 1.362 . S
C446 H438 0.930 . S
C446 C445 1.362 . S
C446 C449 1.409 . S
C447 H439 0.930 . S
C447 C448 1.355 . S
C447 C449 1.415 . S
C448 C447 1.355 . S
C448 C450 1.419 . S
C449 C444 1.425 . S
C449 C446 1.409 . S
C449 C447 1.415 . S
C450 H440 0.930 . S
C450 C448 1.419 . S
C450 C451 1.362 . S
C451 H441 0.930 . S
C451 C444 1.409 . S
C451 C450 1.362 . S
H452 C458 0.930 . S
H453 C461 0.930 . S
H454 C462 0.930 . S
H455 C463 0.930 . S
H456 C466 0.930 . S
H457 C467 0.930 . S
C458 H452 0.930 . S
C458 C459 1.355 . S
C458 C460 1.415 . S
C459 C458 1.355 . S
C459 C461 1.419 . S
C460 C458 1.415 . S
C460 C465 1.425 . S
C460 C467 1.409 . S
C461 H453 0.930 . S
C461 C459 1.419 . S
C461 C462 1.362 . S
C462 H454 0.930 . S
C462 C461 1.362 . S
C462 C465 1.409 . S
C463 H455 0.930 . S
C463 C464 1.355 . S
C463 C465 1.415 . S
C464 C463 1.355 . S
C464 C466 1.419 . S
C465 C460 1.425 . S
C465 C462 1.409 . S
C465 C463 1.415 . S
C466 H456 0.930 . S
C466 C464 1.419 . S
C466 C467 1.362 . S
C467 H457 0.930 . S
C467 C460 1.409 . S
C467 C466 1.362 . S
H468 C474 0.930 . S
H469 C477 0.930 . S
H470 C478 0.930 . S
H471 C479 0.930 . S
H472 C482 0.930 . S
H473 C483 0.930 . S
C474 H468 0.930 . S
C474 C475 1.355 . S
C474 C476 1.415 . S
C475 C474 1.355 . S
C475 C477 1.419 . S
C476 C474 1.415 . S
C476 C481 1.425 . S
C476 C483 1.409 . S
C477 H469 0.930 . S
C477 C475 1.419 . S
C477 C478 1.362 . S
C478 H470 0.930 . S
C478 C477 1.362 . S
C478 C481 1.409 . S
C479 H471 0.930 . S
C479 C480 1.355 . S
C479 C481 1.415 . S
C480 C479 1.355 . S
C480 C482 1.419 . S
C481 C476 1.425 . S
C481 C478 1.409 . S
C481 C479 1.415 . S
C482 H472 0.930 . S
C482 C480 1.419 . S
C482 C483 1.362 . S
C483 H473 0.930 . S
C483 C476 1.409 . S
C483 C482 1.362 . S
H484 C490 0.930 . S
H485 C493 0.930 . S
H486 C494 0.930 . S
H487 C495 0.930 . S
H488 C498 0.930 . S
H489 C499 0.930 . S
C490 H484 0.930 . S
C490 C491 1.355 . S
C490 C492 1.415 . S
C491 C490 1.355 . S
C491 C493 1.419 . S
C492 C490 1.415 . S
C492 C497 1.425 . S
C492 C499 1.409 . S
C493 H485 0.930 . S
C493 C491 1.419 . S
C493 C494 1.362 . S
C494 H486 0.930 . S
C494 C493 1.362 . S
C494 C497 1.409 . S
C495 H487 0.930 . S
C495 C496 1.355 . S
C495 C497 1.415 . S
C496 C495 1.355 . S
C496 C498 1.419 . S
C497 C492 1.425 . S
C497 C494 1.409 . S
C497 C495 1.415 . S
C498 H488 0.930 . S
C498 C496 1.419 . S
C498 C499 1.362 . S
C499 H489 0.930 . S
C499 C492 1.409 . S
C499 C498 1.362 . S
H500 C506 0.930 . S
H501 C509 0.930 . S
H502 C510 0.930 . S
H503 C511 0.930 . S
H504 C514 0.930 . S
H505 C515 0.930 . S
C506 H500 0.930 . S
C506 C507 1.355 . S
C506 C508 1.415 . S
C507 C506 1.355 . S
C507 C509 1.419 . S
C508 C506 1.415 . S
C508 C513 1.425 . S
C508 C515 1.409 . S
C509 H501 0.930 . S
C509 C507 1.419 . S
C509 C510 1.362 . S
C510 H502 0.930 . S
C510 C509 1.362 . S
C510 C513 1.409 . S
C511 H503 0.930 . S
C511 C512 1.355 . S
C511 C513 1.415 . S
C512 C511 1.355 . S
C512 C514 1.419 . S
C513 C508 1.425 . S
C513 C510 1.409 . S
C513 C511 1.415 . S
C514 H504 0.930 . S
C514 C512 1.419 . S
C514 C515 1.362 . S
C515 H505 0.930 . S
C515 C508 1.409 . S
C515 C514 1.362 . S
H516 C522 0.930 . S
H517 C525 0.930 . S
H518 C526 0.930 . S
H519 C527 0.930 . S
H520 C530 0.930 . S
H521 C531 0.930 . S
C522 H516 0.930 . S
C522 C523 1.355 . S
C522 C524 1.415 . S
C523 C522 1.355 . S
C523 C525 1.419 . S
C524 C522 1.415 . S
C524 C529 1.425 . S
C524 C531 1.409 . S
C525 H517 0.930 . S
C525 C523 1.419 . S
C525 C526 1.362 . S
C526 H518 0.930 . S
C526 C525 1.362 . S
C526 C529 1.409 . S
C527 H519 0.930 . S
C527 C528 1.355 . S
C527 C529 1.415 . S
C528 C527 1.355 . S
C528 C530 1.419 . S
C529 C524 1.425 . S
C529 C526 1.409 . S
C529 C527 1.415 . S
C530 H520 0.930 . S
C530 C528 1.419 . S
C530 C531 1.362 . S
C531 H521 0.930 . S
C531 C524 1.409 . S
C531 C530 1.362 . S
H532 C538 0.930 . S
H533 C541 0.930 . S
H534 C542 0.930 . S
H535 C543 0.930 . S
H536 C546 0.930 . S
H537 C547 0.930 . S
C538 H532 0.930 . S
C538 C539 1.355 . S
C538 C540 1.415 . S
C539 C538 1.355 . S
C539 C541 1.419 . S
C540 C538 1.415 . S
C540 C545 1.425 . S
C540 C547 1.409 . S
C541 H533 0.930 . S
C541 C539 1.419 . S
C541 C542 1.362 . S
C542 H534 0.930 . S
C542 C541 1.362 . S
C542 C545 1.409 . S
C543 H535 0.930 . S
C543 C544 1.355 . S
C543 C545 1.415 . S
C544 C543 1.355 . S
C544 C546 1.419 . S
C545 C540 1.425 . S
C545 C542 1.409 . S
C545 C543 1.415 . S
C546 H536 0.930 . S
C546 C544 1.419 . S
C546 C547 1.362 . S
C547 H537 0.930 . S
C547 C540 1.409 . S
C547 C546 1.362 . S
H548 C554 0.930 . S
H549 C557 0.930 . S
H550 C558 0.930 . S
H551 C559 0.930 . S
H552 C562 0.930 . S
H553 C563 0.930 . S
C554 H548 0.930 . S
C554 C555 1.355 . S
C554 C556 1.415 . S
C555 C554 1.355 . S
C555 C557 1.419 . S
C556 C554 1.415 . S
C556 C561 1.425 . S
C556 C563 1.409 . S
C557 H549 0.930 . S
C557 C555 1.419 . S
C557 C558 1.362 . S
C558 H550 0.930 . S
C558 C557 1.362 . S
C558 C561 1.409 . S
C559 H551 0.930 . S
C559 C560 1.355 . S
C559 C561 1.415 . S
C560 C559 1.355 . S
C560 C562 1.419 . S
C561 C556 1.425 . S
C561 C558 1.409 . S
C561 C559 1.415 . S
C562 H552 0.930 . S
C562 C560 1.419 . S
C562 C563 1.362 . S
C563 H553 0.930 . S
C563 C556 1.409 . S
C563 C562 1.362 . S
H564 C570 0.930 . S
H565 C573 0.930 . S
H566 C574 0.930 . S
H567 C575 0.930 . S
H568 C578 0.930 . S
H569 C579 0.930 . S
C570 H564 0.930 . S
C570 C571 1.355 . S
C570 C572 1.415 . S
C571 C570 1.355 . S
C571 C573 1.419 . S
C572 C570 1.415 . S
C572 C577 1.425 . S
C572 C579 1.409 . S
C573 H565 0.930 . S
C573 C571 1.419 . S
C573 C574 1.362 . S
C574 H566 0.930 . S
C574 C573 1.362 . S
C574 C577 1.409 . S
C575 H567 0.930 . S
C575 C576 1.355 . S
C575 C577 1.415 . S
C576 C575 1.355 . S
C576 C578 1.419 . S
C577 C572 1.425 . S
C577 C574 1.409 . S
C577 C575 1.415 . S
C578 H568 0.930 . S
C578 C576 1.419 . S
C578 C579 1.362 . S
C579 H569 0.930 . S
C579 C572 1.409 . S
C579 C578 1.362 . S
H580 C586 0.930 . S
H581 C589 0.930 . S
H582 C590 0.930 . S
H583 C591 0.930 . S
H584 C594 0.930 . S
H585 C595 0.930 . S
C586 H580 0.930 . S
C586 C587 1.355 . S
C586 C588 1.415 . S
C587 C586 1.355 . S
C587 C589 1.419 . S
C588 C586 1.415 . S
C588 C593 1.425 . S
C588 C595 1.409 . S
C589 H581 0.930 . S
C589 C587 1.419 . S
C589 C590 1.362 . S
C590 H582 0.930 . S
C590 C589 1.362 . S
C590 C593 1.409 . S
C591 H583 0.930 . S
C591 C592 1.355 . S
C591 C593 1.415 . S
C592 C591 1.355 . S
C592 C594 1.419 . S
C593 C588 1.425 . S
C593 C590 1.409 . S
C593 C591 1.415 . S
C594 H584 0.930 . S
C594 C592 1.419 . S
C594 C595 1.362 . S
C595 H585 0.930 . S
C595 C588 1.409 . S
C595 C594 1.362 . S
H596 C602 0.930 . S
H597 C605 0.930 . S
H598 C606 0.930 . S
H599 C607 0.930 . S
H600 C610 0.930 . S
H601 C611 0.930 . S
C602 H596 0.930 . S
C602 C603 1.355 . S
C602 C604 1.415 . S
C603 C602 1.355 . S
C603 C605 1.419 . S
C604 C602 1.415 . S
C604 C609 1.425 . S
C604 C611 1.409 . S
C605 H597 0.930 . S
C605 C603 1.419 . S
C605 C606 1.362 . S
C606 H598 0.930 . S
C606 C605 1.362 . S
C606 C609 1.409 . S
C607 H599 0.930 . S
C607 C608 1.355 . S
C607 C609 1.415 . S
C608 C607 1.355 . S
C608 C610 1.419 . S
C609 C604 1.425 . S
C609 C606 1.409 . S
C609 C607 1.415 . S
C610 H600 0.930 . S
C610 C608 1.419 . S
C610 C611 1.362 . S
C611 H601 0.930 . S
C611 C604 1.409 . S
C611 C610 1.362 . S
H612 C618 0.930 . S
H613 C621 0.930 1_655 S
H614 C622 0.930 . S
H615 C623 0.930 1_655 S
H616 C626 0.930 . S
H617 C627 0.930 . S
C618 H612 0.930 . S
C618 C619 1.355 . S
C618 C620 1.415 . S
C619 C618 1.355 . S
C619 C621 1.419 . S
C620 C618 1.415 . S
C620 C625 1.425 . S
C620 C627 1.409 . S
C621 H613 0.930 1_455 S
C621 C619 1.419 . S
C621 C622 1.362 1_455 S
C622 H614 0.930 . S
C622 C621 1.362 1_655 S
C622 C625 1.409 1_655 S
C623 H615 0.930 1_455 S
C623 C624 1.355 . S
C623 C625 1.415 . S
C624 C623 1.355 . S
C624 C626 1.419 . S
C625 C620 1.425 . S
C625 C622 1.409 1_455 S
C625 C623 1.415 . S
C626 H616 0.930 . S
C626 C624 1.419 . S
C626 C627 1.362 . S
C627 H617 0.930 . S
C627 C620 1.409 . S
C627 C626 1.362 . S
H628 C634 0.930 . S
H629 C637 0.930 . S
H630 C638 0.930 . S
H631 C639 0.930 . S
H632 C642 0.930 . S
H633 C643 0.930 . S
C634 H628 0.930 . S
C634 C635 1.355 . S
C634 C636 1.415 . S
C635 C634 1.355 . S
C635 C637 1.419 . S
C636 C634 1.415 . S
C636 C641 1.425 . S
C636 C643 1.409 . S
C637 H629 0.930 . S
C637 C635 1.419 . S
C637 C638 1.362 . S
C638 H630 0.930 . S
C638 C637 1.362 . S
C638 C641 1.409 . S
C639 H631 0.930 . S
C639 C640 1.355 . S
C639 C641 1.415 . S
C640 C639 1.355 . S
C640 C642 1.419 . S
C641 C636 1.425 . S
C641 C638 1.409 . S
C641 C639 1.415 . S
C642 H632 0.930 . S
C642 C640 1.419 . S
C642 C643 1.362 . S
C643 H633 0.930 . S
C643 C636 1.409 . S
C643 C642 1.362 . S
H644 C650 0.930 . S
H645 C653 0.930 . S
H646 C654 0.930 . S
H647 C655 0.930 . S
H648 C658 0.930 . S
H649 C659 0.930 . S
C650 H644 0.930 . S
C650 C651 1.355 . S
C650 C652 1.415 . S
C651 C650 1.355 . S
C651 C653 1.419 . S
C652 C650 1.415 . S
C652 C657 1.425 . S
C652 C659 1.409 . S
C653 H645 0.930 . S
C653 C651 1.419 . S
C653 C654 1.362 . S
C654 H646 0.930 . S
C654 C653 1.362 . S
C654 C657 1.409 . S
C655 H647 0.930 . S
C655 C656 1.355 . S
C655 C657 1.415 . S
C656 C655 1.355 . S
C656 C658 1.419 . S
C657 C652 1.425 . S
C657 C654 1.409 . S
C657 C655 1.415 . S
C658 H648 0.930 . S
C658 C656 1.419 . S
C658 C659 1.362 . S
C659 H649 0.930 . S
C659 C652 1.409 . S
C659 C658 1.362 . S
H660 C666 0.930 . S
H661 C669 0.930 . S
H662 C670 0.930 . S
H663 C671 0.930 1_565 S
H664 C674 0.930 . S
H665 C675 0.930 . S
C666 H660 0.930 . S
C666 C667 1.355 . S
C666 C668 1.415 . S
C667 C666 1.355 . S
C667 C669 1.419 1_545 S
C668 C666 1.415 . S
C668 C673 1.425 . S
C668 C675 1.409 . S
C669 H661 0.930 . S
C669 C667 1.419 1_565 S
C669 C670 1.362 . S
C670 H662 0.930 . S
C670 C669 1.362 . S
C670 C673 1.409 1_565 S
C671 H663 0.930 1_545 S
C671 C672 1.355 . S
C671 C673 1.415 . S
C672 C671 1.355 . S
C672 C674 1.419 . S
C673 C668 1.425 . S
C673 C670 1.409 1_545 S
C673 C671 1.415 . S
C674 H664 0.930 . S
C674 C672 1.419 . S
C674 C675 1.362 . S
C675 H665 0.930 . S
C675 C668 1.409 . S
C675 C674 1.362 . S
H676 C682 0.930 . S
H677 C685 0.930 . S
H678 C686 0.930 . S
H679 C687 0.930 . S
H680 C690 0.930 . S
H681 C691 0.930 . S
C682 H676 0.930 . S
C682 C683 1.355 . S
C682 C684 1.415 . S
C683 C682 1.355 . S
C683 C685 1.419 . S
C684 C682 1.415 . S
C684 C689 1.425 . S
C684 C691 1.409 . S
C685 H677 0.930 . S
C685 C683 1.419 . S
C685 C686 1.362 . S
C686 H678 0.930 . S
C686 C685 1.362 . S
C686 C689 1.409 . S
C687 H679 0.930 . S
C687 C688 1.355 . S
C687 C689 1.415 . S
C688 C687 1.355 . S
C688 C690 1.419 . S
C689 C684 1.425 . S
C689 C686 1.409 . S
C689 C687 1.415 . S
C690 H680 0.930 . S
C690 C688 1.419 . S
C690 C691 1.362 . S
C691 H681 0.930 . S
C691 C684 1.409 . S
C691 C690 1.362 . S
H692 C698 0.910 1_655 S
H693 C701 0.930 . S
H694 C702 0.930 . S
H695 C703 0.930 . S
H696 C706 0.930 . S
H697 C707 0.930 . S
C698 H692 0.910 1_455 S
C698 C699 1.355 . S
C698 C700 1.415 . S
C699 C698 1.355 . S
C699 C701 1.419 . S
C700 C698 1.415 . S
C700 C705 1.425 . S
C700 C707 1.409 1_455 S
C701 H693 0.930 . S
C701 C699 1.419 . S
C701 C702 1.362 . S
C702 H694 0.930 . S
C702 C701 1.362 . S
C702 C705 1.409 . S
C703 H695 0.930 . S
C703 C704 1.355 . S
C703 C705 1.415 . S
C704 C703 1.355 . S
C704 C706 1.419 1_455 S
C705 C700 1.425 . S
C705 C702 1.409 . S
C705 C703 1.415 . S
C706 H696 0.930 . S
C706 C704 1.419 1_655 S
C706 C707 1.362 . S
C707 H697 0.930 . S
C707 C700 1.409 1_655 S
C707 C706 1.362 . S
C427 C2 1.143 . S
C432 C391 1.115 . S
C443 C21 1.031 . S
C448 C241 1.043 . S
C459 C42 1.097 . S
C464 C301 1.081 . S
C475 C1 1.070 . S
C480 C361 1.065 . S
C496 C271 1.106 . S
C491 C22 1.114 . S
C512 C331 1.090 . S
C507 C41 1.032 . S
C523 C38 1.954 . S
C528 C121 1.780 . S
C539 C59 2.005 . S
C544 C211 2.004 . S
C555 C18 1.952 . S
C560 C91 1.936 . S
C576 C151 1.993 . S
C571 C39 2.007 . S
C592 C181 1.832 . S
C587 C58 1.938 . S
C603 C19 2.000 . S
C608 C61 1.858 . S
C624 C200 1.567 1_554 S
C619 C9 1.465 . S
C635 C29 1.470 . S
C640 C80 1.519 . S
C651 C49 1.534 . S
C656 C140 1.525 . S
C672 C320 1.341 . S
C667 C28 1.339 . S
C688 C380 1.375 1_556 S
C683 C48 1.335 . S
C699 C8 1.325 . S
C704 C260 1.360 . S
