# Generated by pormake.
# Topology zzz, (3,6)-cn, num edge types: 1
# Building blocks:
#     Node 0, Type 0, BuildingBlock: CUQRIR_clean_linker_1, # of connection points: 3
#     Node 1, Type 0, BuildingBlock: CUQRIR_clean_linker_1, # of connection points: 3
#     Node 2, Type 0, BuildingBlock: CUQRIR_clean_linker_1, # of connection points: 3
#     Node 3, Type 0, BuildingBlock: CUQRIR_clean_linker_1, # of connection points: 3
#     Node 4, Type 0, BuildingBlock: CUQRIR_clean_linker_1, # of connection points: 3
#     Node 5, Type 0, BuildingBlock: CUQRIR_clean_linker_1, # of connection points: 3
#     Node 6, Type 0, BuildingBlock: CUQRIR_clean_linker_1, # of connection points: 3
#     Node 7, Type 0, BuildingBlock: CUQRIR_clean_linker_1, # of connection points: 3
#     Node 8, Type 1, BuildingBlock: CUKXOW_clean_sbu_0, # of connection points: 6
#     Node 9, Type 1, BuildingBlock: CUKXOW_clean_sbu_0, # of connection points: 6
#     Node 10, Type 1, BuildingBlock: CUKXOW_clean_sbu_0, # of connection points: 6
#     Node 11, Type 1, BuildingBlock: CUKXOW_clean_sbu_0, # of connection points: 6
#     Edge 12, Type (0, 1), BuildingBlock: OJICUG_clean_linker_0, # of connection points: 2
#     Edge 13, Type (0, 1), BuildingBlock: OJICUG_clean_linker_0, # of connection points: 2
#     Edge 14, Type (0, 1), BuildingBlock: OJICUG_clean_linker_0, # of connection points: 2
#     Edge 15, Type (0, 1), BuildingBlock: OJICUG_clean_linker_0, # of connection points: 2
#     Edge 16, Type (0, 1), BuildingBlock: OJICUG_clean_linker_0, # of connection points: 2
#     Edge 17, Type (0, 1), BuildingBlock: OJICUG_clean_linker_0, # of connection points: 2
#     Edge 18, Type (0, 1), BuildingBlock: OJICUG_clean_linker_0, # of connection points: 2
#     Edge 19, Type (0, 1), BuildingBlock: OJICUG_clean_linker_0, # of connection points: 2
#     Edge 20, Type (0, 1), BuildingBlock: OJICUG_clean_linker_0, # of connection points: 2
#     Edge 21, Type (0, 1), BuildingBlock: OJICUG_clean_linker_0, # of connection points: 2
#     Edge 22, Type (0, 1), BuildingBlock: OJICUG_clean_linker_0, # of connection points: 2
#     Edge 23, Type (0, 1), BuildingBlock: OJICUG_clean_linker_0, # of connection points: 2
#     Edge 24, Type (0, 1), BuildingBlock: OJICUG_clean_linker_0, # of connection points: 2
#     Edge 25, Type (0, 1), BuildingBlock: OJICUG_clean_linker_0, # of connection points: 2
#     Edge 26, Type (0, 1), BuildingBlock: OJICUG_clean_linker_0, # of connection points: 2
#     Edge 27, Type (0, 1), BuildingBlock: OJICUG_clean_linker_0, # of connection points: 2
#     Edge 28, Type (0, 1), BuildingBlock: OJICUG_clean_linker_0, # of connection points: 2
#     Edge 29, Type (0, 1), BuildingBlock: OJICUG_clean_linker_0, # of connection points: 2
#     Edge 30, Type (0, 1), BuildingBlock: OJICUG_clean_linker_0, # of connection points: 2
#     Edge 31, Type (0, 1), BuildingBlock: OJICUG_clean_linker_0, # of connection points: 2
#     Edge 32, Type (0, 1), BuildingBlock: OJICUG_clean_linker_0, # of connection points: 2
#     Edge 33, Type (0, 1), BuildingBlock: OJICUG_clean_linker_0, # of connection points: 2
#     Edge 34, Type (0, 1), BuildingBlock: OJICUG_clean_linker_0, # of connection points: 2
#     Edge 35, Type (0, 1), BuildingBlock: OJICUG_clean_linker_0, # of connection points: 2
# Relax obj value: 0.059
# Max RMSD: 0.113
# Mean RMSD: 0.080
data_MOF--net-zzz--node1-CUKXOW_clean_sbu_0--node2-CUQRIR_clean_linker_1--edge1-OJICUG_clean_linker_0
_symmetry_space_group_name_H-M    P1
_symmetry_Int_Tables_number       1
_symmetry_cell_setting            triclinic
loop_
_symmetry_equiv_pos_as_xyz
'x, y, z'
_cell_length_a     33.503336
_cell_length_b     35.510503
_cell_length_c     10.180562
_cell_angle_alpha  94.489256
_cell_angle_beta   85.321818
_cell_angle_gamma 93.667583
loop_
_atom_site_label
_atom_site_type_symbol
_atom_site_fract_x
_atom_site_fract_y
_atom_site_fract_z
_atom_type_partial_charge
C0 C 0.74179 0.5322 0.16245 0.0
N1 N 0.78202 0.53313 0.16687 0.0
N2 N 0.73206 0.53233 0.03577 0.0
C3 C 0.71219 0.53027 0.28095 0.0
C4 C 0.76786 0.53283 0.96352 0.0
N5 N 0.79822 0.53336 0.04346 0.0
C6 C 0.77277 0.53054 0.81478 0.0
H7 H 0.70526 0.50016 0.30055 0.0
H8 H 0.6839 0.543 0.26305 0.0
H9 H 0.72504 0.54496 0.36953 0.0
H10 H 0.75997 0.55541 0.77825 0.0
H11 H 0.7558 0.50488 0.77492 0.0
H12 H 0.80464 0.52995 0.77614 0.0
C13 C 0.9779 0.75733 0.07024 0.0
N14 N 0.97634 0.79522 0.0719 0.0
N15 N 0.9753 0.74136 0.94582 0.0
C16 C 0.98503 0.73622 0.18779 0.0
C17 C 0.97206 0.77104 0.87187 0.0
N18 N 0.9726 0.80393 0.94897 0.0
C19 C 0.97102 0.76802 0.72412 0.0
H20 H 0.01777 0.73679 0.19823 0.0
H21 H 0.97341 0.70629 0.17499 0.0
H22 H 0.9706 0.74975 0.27987 0.0
H23 H 0.95252 0.74257 0.69109 0.0
H24 H 0.00198 0.76505 0.67836 0.0
H25 H 0.95889 0.79351 0.68931 0.0
C26 C 0.75035 0.00668 0.17074 0.0
N27 N 0.71087 0.01299 0.17127 0.0
N28 N 0.76764 0.00471 0.04533 0.0
C29 C 0.77201 0.00329 0.29242 0.0
C30 C 0.73743 0.01032 0.96999 0.0
N31 N 0.703 0.01548 0.04645 0.0
C32 C 0.74197 0.01185 0.82203 0.0
H33 H 0.7605 0.02323 0.37407 0.0
H34 H 0.80486 0.00867 0.27346 0.0
H35 H 0.76628 0.97415 0.32442 0.0
H36 H 0.76393 0.99175 0.77627 0.0
H37 H 0.75329 0.04076 0.79806 0.0
H38 H 0.71291 0.00514 0.77798 0.0
C39 C 0.57375 0.75319 0.14635 0.0
N40 N 0.56353 0.71584 0.14851 0.0
N41 N 0.56262 0.76653 0.03436 0.0
C42 C 0.59557 0.77616 0.2513 0.0
C43 C 0.54472 0.73591 0.96994 0.0
N44 N 0.54518 0.70518 0.03984 0.0
C45 C 0.52375 0.73668 0.84496 0.0
H46 H 0.57331 0.78708 0.32943 0.0
H47 H 0.61327 0.80053 0.20961 0.0
H48 H 0.61573 0.75835 0.2976 0.0
H49 H 0.51038 0.76428 0.84022 0.0
H50 H 0.49979 0.71372 0.83799 0.0
H51 H 0.54591 0.73255 0.75869 0.0
C52 C 0.26741 0.48782 0.2734 0.0
N53 N 0.22719 0.48716 0.26866 0.0
N54 N 0.27703 0.48735 0.40013 0.0
C55 C 0.29712 0.4897 0.15518 0.0
C56 C 0.24116 0.4869 0.47205 0.0
N57 N 0.21088 0.48672 0.3919 0.0
C58 C 0.23614 0.48863 0.62071 0.0
H59 H 0.32517 0.47653 0.17286 0.0
H60 H 0.30451 0.51982 0.1366 0.0
H61 H 0.28417 0.47541 0.06609 0.0
H62 H 0.25365 0.51378 0.66188 0.0
H63 H 0.24829 0.46324 0.65593 0.0
H64 H 0.2043 0.48975 0.65926 0.0
C65 C 0.03435 0.25778 0.3957 0.0
N66 N 0.03023 0.21976 0.39828 0.0
N67 N 0.02288 0.27461 0.51556 0.0
C68 C 0.05028 0.2785 0.27747 0.0
C69 C 0.01124 0.24541 0.59079 0.0
N70 N 0.0154 0.21207 0.51876 0.0
C71 C 0.99413 0.24958 0.73181 0.0
H72 H 0.07133 0.26118 0.21224 0.0
H73 H 0.0657 0.30595 0.30864 0.0
H74 H 0.02482 0.28428 0.22026 0.0
H75 H 0.97618 0.27496 0.74886 0.0
H76 H 0.01921 0.25338 0.79727 0.0
H77 H 0.97524 0.22408 0.7585 0.0
C78 C 0.26881 0.01517 0.29356 0.0
N79 N 0.30855 0.00963 0.28892 0.0
N80 N 0.25253 0.01625 0.4202 0.0
C81 C 0.24532 0.01671 0.17473 0.0
C82 C 0.2837 0.01108 0.49212 0.0
N83 N 0.31765 0.0068 0.41228 0.0
C84 C 0.28048 0.00855 0.6398 0.0
H85 H 0.26322 0.0315 0.09583 0.0
H86 H 0.21704 0.0311 0.20158 0.0
H87 H 0.23773 0.98737 0.13487 0.0
H88 H 0.26867 0.97967 0.66245 0.0
H89 H 0.25949 0.02888 0.68981 0.0
H90 H 0.31004 0.01438 0.68129 0.0
C91 C 0.43558 0.2648 0.30431 0.0
N92 N 0.43746 0.30287 0.30036 0.0
N93 N 0.43352 0.25519 0.43128 0.0
C94 C 0.44032 0.23729 0.18484 0.0
C95 C 0.43421 0.28899 0.50325 0.0
N96 N 0.43768 0.31795 0.42397 0.0
C97 C 0.43052 0.29392 0.652 0.0
H98 H 0.41158 0.22049 0.17349 0.0
H99 H 0.46358 0.21734 0.19848 0.0
H100 H 0.44855 0.25184 0.09315 0.0
H101 H 0.46071 0.29682 0.69011 0.0
H102 H 0.41377 0.26912 0.69419 0.0
H103 H 0.41496 0.32004 0.68569 0.0
Tb104 Tb 0.99799 0.98217 0.61107 0.0
C105 C 0.08974 0.0087 0.64201 0.0
Tb106 Tb 0.02109 0.03303 0.86028 0.0
O107 O 0.97009 0.02994 0.53279 0.0
O108 O 0.01554 0.03874 0.65947 0.0
O109 O 0.06344 0.98509 0.58115 0.0
C110 C 0.03481 0.09517 0.01482 0.0
O111 O 0.07976 0.03133 0.74903 0.0
C112 C 0.00697 0.96048 0.88953 0.0
C113 C 0.93086 0.00695 0.82796 0.0
O114 O 0.05353 0.06412 0.01758 0.0
O115 O 0.00864 0.0907 0.92711 0.0
O116 O 0.00195 0.98626 0.98654 0.0
O117 O 0.02277 0.97587 0.79027 0.0
O118 O 0.95609 0.03449 0.87142 0.0
O119 O 0.94206 0.98016 0.73671 0.0
C120 C 0.98991 0.92138 0.4452 0.0
O121 O 0.97466 0.92423 0.56653 0.0
O122 O 0.00869 0.95315 0.41554 0.0
C123 C 0.99057 0.05529 0.60367 0.0
Tb124 Tb 0.49997 0.05201 0.69212 0.0
C125 C 0.57828 0.01655 0.56209 0.0
Tb126 Tb 0.51985 0.97293 0.76815 0.0
O127 O 0.55287 0.07795 0.7817 0.0
O128 O 0.52418 0.02909 0.85276 0.0
O129 O 0.5496 0.03972 0.54603 0.0
C130 C 0.54889 0.91298 0.86108 0.0
O131 O 0.57475 0.99166 0.6541 0.0
C132 C 0.46668 0.97215 0.59355 0.0
C133 C 0.44081 0.00867 0.89767 0.0
O134 O 0.54909 0.91919 0.73708 0.0
O135 O 0.53258 0.94059 0.93229 0.0
O136 O 0.46944 0.94495 0.66959 0.0
O137 O 0.49612 0.99564 0.60748 0.0
O138 O 0.46794 0.98345 0.90676 0.0
O139 O 0.44593 0.0359 0.81449 0.0
C140 C 0.47204 0.11474 0.61492 0.0
O141 O 0.49048 0.1124 0.72063 0.0
O142 O 0.46902 0.08163 0.55206 0.0
C143 C 0.55461 0.05166 0.86212 0.0
Tb144 Tb 0.51975 0.53613 0.60793 0.0
C145 C 0.43018 0.50393 0.6197 0.0
Tb146 Tb 0.49048 0.47915 0.82015 0.0
O147 O 0.51048 0.49253 0.44774 0.0
O148 O 0.52343 0.47829 0.63376 0.0
O149 O 0.45558 0.53242 0.58521 0.0
C150 C 0.46923 0.41518 0.9351 0.0
O151 O 0.43926 0.47805 0.69872 0.0
C152 C 0.4941 0.551 0.90576 0.0
C153 C 0.57952 0.51224 0.8142 0.0
O154 O 0.44808 0.44488 0.94385 0.0
O155 O 0.50222 0.42168 0.8626 0.0
O156 O 0.4936 0.52371 0.98426 0.0
O157 O 0.4871 0.53677 0.79262 0.0
O158 O 0.5537 0.48485 0.85445 0.0
O159 O 0.57156 0.53601 0.72642 0.0
C160 C 0.54473 0.5976 0.4849 0.0
O161 O 0.56198 0.56562 0.46988 0.0
O162 O 0.513 0.59462 0.56614 0.0
C163 C 0.51325 0.46489 0.52247 0.0
Tb164 Tb 0.97121 0.50936 0.61979 0.0
C165 C 0.01028 0.43349 0.6465 0.0
Tb166 Tb 0.03741 0.50923 0.81607 0.0
O167 O 0.01554 0.4982 0.45184 0.0
O168 O 0.03219 0.52723 0.62622 0.0
O169 O 0.97766 0.44901 0.61516 0.0
C170 C 0.10589 0.50194 0.92634 0.0
O171 O 0.03933 0.45307 0.70856 0.0
C172 C 0.96327 0.50579 0.91967 0.0
C173 C 0.99693 0.58473 0.79156 0.0
O174 O 0.07388 0.47955 0.93871 0.0
O175 O 0.09921 0.52904 0.85395 0.0
O176 O 0.99317 0.52037 0.98431 0.0
O177 O 0.97654 0.49143 0.8098 0.0
O178 O 0.03016 0.56968 0.82054 0.0
O179 O 0.96799 0.56468 0.73086 0.0
C180 C 0.90311 0.51719 0.50853 0.0
O181 O 0.93514 0.53962 0.49783 0.0
O182 O 0.90958 0.48973 0.57966 0.0
C183 C 0.04542 0.51277 0.51649 0.0
C184 C 0.19702 0.04471 0.55858 0.0
C185 C 0.21095 0.01593 0.46746 0.0
H186 H 0.14796 0.06475 0.68751 0.0
C187 C 0.18478 0.98517 0.43165 0.0
H188 H 0.21685 0.0688 0.5862 0.0
C189 C 0.14538 0.98278 0.48847 0.0
C190 C 0.13161 0.01102 0.58313 0.0
H191 H 0.19525 0.96258 0.36222 0.0
H192 H 0.12595 0.9585 0.45969 0.0
C193 C 0.15779 0.04219 0.61681 0.0
C194 C 0.47344 0.21803 0.56015 0.0
C195 C 0.44223 0.21945 0.47697 0.0
H196 H 0.50631 0.18391 0.67165 0.0
C197 C 0.42079 0.18573 0.43736 0.0
H198 H 0.49159 0.24327 0.58757 0.0
C199 C 0.43048 0.15119 0.48105 0.0
C200 C 0.46097 0.15033 0.56746 0.0
H201 H 0.3966 0.18617 0.37336 0.0
H202 H 0.41387 0.12537 0.44907 0.0
C203 C 0.48216 0.184 0.60706 0.0
C204 C 0.34194 0.52258 0.42714 0.0
C205 C 0.31611 0.49075 0.45 0.0
H206 H 0.39815 0.55202 0.46368 0.0
C207 C 0.32795 0.46313 0.52751 0.0
H208 H 0.33307 0.54431 0.36834 0.0
C209 C 0.36484 0.46753 0.58342 0.0
C210 C 0.3907 0.49967 0.56238 0.0
H211 H 0.30856 0.43814 0.54459 0.0
H212 H 0.3731 0.4456 0.64252 0.0
C213 C 0.37894 0.52703 0.48266 0.0
C214 C 0.99412 0.33479 0.48384 0.0
C215 C 0.01969 0.31433 0.54976 0.0
H216 H 0.97097 0.38857 0.46299 0.0
C217 C 0.04253 0.33305 0.64701 0.0
H218 H 0.97629 0.32059 0.40863 0.0
C219 C 0.04006 0.372 0.67728 0.0
C220 C 0.01412 0.39259 0.61211 0.0
H221 H 0.06251 0.31752 0.69815 0.0
H222 H 0.05801 0.38585 0.75282 0.0
C223 C 0.99111 0.37353 0.51528 0.0
C224 C 0.83539 0.03538 0.02635 0.0
C225 C 0.80938 0.00365 0.00131 0.0
H226 H 0.89414 0.06148 0.9907 0.0
C227 C 0.82347 0.97259 0.92141 0.0
H228 H 0.82468 0.05974 0.08649 0.0
C229 C 0.86294 0.97356 0.86459 0.0
C230 C 0.889 0.00566 0.88744 0.0
H231 H 0.80354 0.94798 0.90082 0.0
H232 H 0.87294 0.94926 0.80254 0.0
C233 C 0.8749 0.03636 0.97049 0.0
C234 C 0.54955 0.83371 0.085 0.0
C235 C 0.56513 0.80487 0.99739 0.0
H236 H 0.53287 0.89116 0.11046 0.0
C237 C 0.5797 0.81314 0.86904 0.0
H238 H 0.53776 0.82777 0.18388 0.0
C239 C 0.57622 0.84907 0.82596 0.0
C240 C 0.55864 0.87732 0.91153 0.0
H241 H 0.59231 0.79131 0.80077 0.0
H242 H 0.58593 0.85433 0.72457 0.0
C243 C 0.54659 0.8698 0.04268 0.0
C244 C 0.68076 0.55516 0.90696 0.0
C245 C 0.69298 0.52816 0.98619 0.0
H246 H 0.63547 0.57132 0.78987 0.0
C247 C 0.66763 0.49612 0.01067 0.0
H248 H 0.69977 0.58031 0.88872 0.0
C249 C 0.63072 0.49083 0.95483 0.0
C250 C 0.61867 0.5175 0.87301 0.0
H251 H 0.67684 0.47486 0.07077 0.0
H252 H 0.6119 0.46566 0.97472 0.0
C253 C 0.64401 0.54989 0.85056 0.0
C254 C 0.01759 0.68681 0.91805 0.0
C255 C 0.98125 0.70262 0.90102 0.0
H256 H 0.05116 0.63716 0.89715 0.0
C257 C 0.95018 0.67982 0.8468 0.0
H258 H 0.04183 0.70415 0.95998 0.0
C259 C 0.95529 0.64151 0.81063 0.0
C260 C 0.99162 0.62538 0.82862 0.0
H261 H 0.92176 0.69156 0.83487 0.0
H262 H 0.93059 0.62451 0.77001 0.0
C263 C 0.02277 0.64854 0.88233 0.0
C264 C 0.97312 0.15281 0.49985 0.0
C265 C 0.00433 0.17464 0.55844 0.0
H266 H 0.9437 0.09753 0.46948 0.0
C267 C 0.02899 0.15766 0.63785 0.0
H268 H 0.95435 0.16557 0.43599 0.0
C269 C 0.02391 0.11893 0.65327 0.0
C270 C 0.99316 0.09666 0.59321 0.0
H271 H 0.05382 0.17394 0.68047 0.0
H272 H 0.04529 0.1062 0.70778 0.0
C273 C 0.96732 0.11405 0.51795 0.0
C274 C 0.39122 0.01791 0.41189 0.0
C275 C 0.3558 0.99703 0.45077 0.0
H276 H 0.45526 0.02359 0.41603 0.0
C277 C 0.3579 0.9658 0.52545 0.0
H278 H 0.39033 0.04174 0.35232 0.0
C279 C 0.39434 0.95716 0.56866 0.0
C280 C 0.42952 0.97897 0.53451 0.0
H281 H 0.33113 0.9485 0.55221 0.0
H282 H 0.39477 0.93388 0.63118 0.0
C283 C 0.42805 0.00819 0.45059 0.0
C284 C 0.4904 0.35985 0.52261 0.0
C285 C 0.4544 0.35538 0.45955 0.0
H286 H 0.53691 0.39852 0.59439 0.0
C287 C 0.43769 0.38736 0.41926 0.0
H288 H 0.50448 0.33548 0.55134 0.0
C289 C 0.45779 0.42287 0.43486 0.0
C290 C 0.49355 0.42723 0.49879 0.0
H291 H 0.40946 0.38481 0.37412 0.0
H292 H 0.44491 0.44702 0.39945 0.0
C293 C 0.50933 0.39565 0.54489 0.0
C294 C 0.15797 0.52585 0.49964 0.0
C295 C 0.16929 0.49209 0.43015 0.0
H296 H 0.10927 0.55864 0.58246 0.0
C297 C 0.13962 0.46505 0.38909 0.0
H298 H 0.18057 0.54713 0.53074 0.0
C299 C 0.09908 0.47222 0.41316 0.0
C300 C 0.08783 0.50601 0.48276 0.0
H301 H 0.14791 0.43851 0.33794 0.0
H302 H 0.07658 0.45104 0.38041 0.0
C303 C 0.11747 0.53252 0.52761 0.0
C304 C 0.95102 0.86925 0.97957 0.0
C305 C 0.97496 0.84218 0.90909 0.0
H306 H 0.94355 0.92822 0.03341 0.0
C307 C 0.0067 0.85445 0.82112 0.0
H308 H 0.92629 0.86033 0.0475 0.0
C309 C 0.016 0.89313 0.81086 0.0
C310 C 0.99439 0.92003 0.89109 0.0
H311 H 0.02599 0.83424 0.76751 0.0
H312 H 0.0415 0.90198 0.74575 0.0
C313 C 0.96116 0.9079 0.97288 0.0
C314 C 0.62978 0.00369 0.03896 0.0
C315 C 0.6653 0.0248 0.00314 0.0
H316 H 0.56598 0.99782 0.0309 0.0
C317 C 0.66367 0.05611 0.92851 0.0
H318 H 0.63042 0.97971 0.09804 0.0
C319 C 0.62736 0.06528 0.88547 0.0
C320 C 0.5919 0.04369 0.91861 0.0
H321 H 0.69061 0.07334 0.90321 0.0
H322 H 0.62719 0.08897 0.82467 0.0
C323 C 0.59317 0.01359 -0.00094 0.0
C324 C 0.54493 0.64869 0.88574 0.0
C325 C 0.52996 0.6673 0.00362 0.0
H326 H 0.54651 0.59737 0.76576 0.0
C327 C 0.50249 0.6477 0.08957 0.0
H328 H 0.56677 0.66307 0.81978 0.0
C329 C 0.49098 0.60961 0.05869 0.0
C330 C 0.50597 0.59106 0.93988 0.0
H331 H 0.4904 0.66175 0.18096 0.0
H332 H 0.47016 0.5948 0.12671 0.0
C333 C 0.53305 0.61101 0.85448 0.0
C334 C 0.8696 0.55456 0.04517 0.0
C335 C 0.83972 0.52764 0.00496 0.0
H336 H 0.93272 0.56808 0.05361 0.0
C337 C 0.85071 0.49365 0.93634 0.0
H338 H 0.86157 0.58127 0.09561 0.0
C339 C 0.89112 0.48661 0.90853 0.0
C340 C 0.92096 0.51297 0.95284 0.0
H341 H 0.82793 0.47248 0.90589 0.0
H342 H 0.89908 0.46031 0.85438 0.0
C343 C 0.91004 0.54701 0.0214 0.0
C344 C 0.062 0.16203 0.30423 0.0
C345 C 0.03741 0.19186 0.29058 0.0
H346 H 0.08048 0.10737 0.2267 0.0
C347 C 0.01573 0.1915 0.17876 0.0
H348 H 0.07917 0.16217 0.38988 0.0
C349 C 0.01666 0.16062 0.08559 0.0
C350 C 0.03913 0.12956 0.10352 0.0
H351 H 0.99635 0.21411 0.1676 0.0
H352 H 0.99838 0.16037 0.00245 0.0
C353 C 0.06279 0.13091 0.21132 0.0
C354 C 0.34693 0.03861 0.10258 0.0
C355 C 0.3367 0.00683 0.17437 0.0
H356 H 0.3878 0.06415 0.95819 0.0
C357 C 0.35881 0.9745 0.14705 0.0
H358 H 0.33071 0.06405 0.12429 0.0
C359 C 0.39215 0.97473 0.05498 0.0
C360 C 0.40362 0.00717 0.98708 0.0
H361 H 0.35138 0.94979 0.20209 0.0
H362 H 0.40944 0.9498 0.03932 0.0
C363 C 0.37989 0.03871 0.00891 0.0
C364 C 0.41256 0.34313 0.14373 0.0
C365 C 0.4442 0.32431 0.1859 0.0
H366 H 0.39587 0.38787 0.03289 0.0
C367 C 0.48338 0.3321 0.13195 0.0
H368 H 0.38223 0.33749 0.18578 0.0
C369 C 0.49117 0.36019 0.04286 0.0
C370 C 0.45994 0.38144 0.00976 0.0
H371 H 0.50807 0.31799 0.16491 0.0
H372 H 0.52191 0.36694 0.00683 0.0
C373 C 0.42042 0.37202 0.0578 0.0
C374 C 0.18481 0.45837 0.09883 0.0
C375 C 0.20487 0.49058 0.15601 0.0
H376 H 0.1365 0.43689 0.98332 0.0
C377 C 0.19605 0.52649 0.12212 0.0
H378 H 0.19123 0.43052 0.12499 0.0
C379 C 0.16551 0.53023 0.03874 0.0
C380 C 0.14278 0.49808 0.99208 0.0
H381 H 0.21101 0.55159 0.16716 0.0
H382 H 0.15776 0.55827 0.01884 0.0
C383 C 0.15344 0.46208 0.01929 0.0
C384 C 0.95448 0.8271 0.28612 0.0
C385 C 0.98365 0.82243 0.18036 0.0
H386 H 0.93388 0.86258 0.45516 0.0
C387 C 0.01662 0.84868 0.16912 0.0
H388 H 0.92863 0.80729 0.29478 0.0
C389 C 0.01865 0.88099 0.25576 0.0
C390 C 0.9885 0.88662 0.35788 0.0
H391 H 0.03937 0.84529 0.08791 0.0
H392 H 0.04343 0.90178 0.24178 0.0
C393 C 0.95721 0.85884 0.37585 0.0
C394 C 0.65861 0.04833 0.30354 0.0
C395 C 0.68193 0.01661 0.28368 0.0
H396 H 0.60707 0.07301 0.40559 0.0
C397 C 0.67319 0.98639 0.364 0.0
H398 H 0.66518 0.07208 0.24323 0.0
C399 C 0.64033 0.98699 0.45803 0.0
C400 C 0.61529 0.01765 0.47198 0.0
H401 H 0.69055 0.96152 0.34918 0.0
H402 H 0.63355 0.96266 0.51555 0.0
C403 C 0.62533 0.04871 0.3958 0.0
C404 C 0.58979 0.6587 0.21999 0.0
C405 C 0.56858 0.69144 0.25067 0.0
H406 H 0.59874 0.60269 0.27167 0.0
C407 C 0.54485 0.69553 0.37 0.0
H408 H 0.60799 0.65524 0.1274 0.0
C409 C 0.53892 0.66546 0.45112 0.0
C410 C 0.55709 0.63128 0.41392 0.0
H411 H 0.52806 0.72055 0.39388 0.0
H412 H 0.51835 0.66819 0.53871 0.0
C413 C 0.58419 0.62872 0.30156 0.0
C414 C 0.81268 0.49355 0.31357 0.0
C415 C 0.80437 0.52955 0.27923 0.0
H416 H 0.85053 0.46137 0.41696 0.0
C417 C 0.8249 0.56159 0.33572 0.0
H418 H 0.79734 0.46858 0.26904 0.0
C419 C 0.8562 0.55757 0.41512 0.0
C420 C 0.86636 0.52143 0.44271 0.0
H421 H 0.81884 0.5895 0.30922 0.0
H422 H 0.87347 0.58259 0.4507 0.0
C423 C 0.84319 0.48951 0.3967 0.0
loop_
_geom_bond_atom_site_label_1
_geom_bond_atom_site_label_2
_geom_bond_distance
_geom_bond_site_symmetry_2
_ccdc_geom_bond_type
C0 N1 1.317 . S
C0 N2 1.348 . S
C0 C3 1.485 . S
N1 C0 1.317 . S
N1 N5 1.370 . S
N2 C0 1.348 . S
N2 C4 1.346 1_554 S
C3 C0 1.485 . S
C3 H7 0.960 . S
C3 H8 0.961 . S
C3 H9 0.960 . S
C4 N2 1.346 1_556 S
C4 N5 1.307 1_556 S
C4 C6 1.486 . S
N5 N1 1.370 . S
N5 C4 1.307 1_554 S
C6 C4 1.486 . S
C6 H10 0.960 . S
C6 H11 0.960 . S
C6 H12 0.959 . S
H7 C3 0.960 . S
H8 C3 0.961 . S
H9 C3 0.960 . S
H10 C6 0.960 . S
H11 C6 0.960 . S
H12 C6 0.959 . S
C13 N14 1.317 . S
C13 N15 1.348 1_554 S
C13 C16 1.485 . S
N14 C13 1.317 . S
N14 N18 1.370 1_554 S
N15 C13 1.348 1_556 S
N15 C17 1.346 . S
C16 C13 1.485 . S
C16 H20 0.960 . S
C16 H21 0.961 . S
C16 H22 0.960 . S
C17 N15 1.346 . S
C17 N18 1.307 . S
C17 C19 1.486 . S
N18 N14 1.370 1_556 S
N18 C17 1.307 . S
C19 C17 1.486 . S
C19 H23 0.960 . S
C19 H24 0.960 . S
C19 H25 0.959 . S
H20 C16 0.960 . S
H21 C16 0.961 . S
H22 C16 0.960 . S
H23 C19 0.960 . S
H24 C19 0.960 . S
H25 C19 0.959 . S
C26 N27 1.317 . S
C26 N28 1.348 . S
C26 C29 1.485 . S
N27 C26 1.317 . S
N27 N31 1.370 . S
N28 C26 1.348 . S
N28 C30 1.346 1_554 S
C29 C26 1.485 . S
C29 H33 0.960 . S
C29 H34 0.961 . S
C29 H35 0.960 . S
C30 N28 1.346 1_556 S
C30 N31 1.307 1_556 S
C30 C32 1.486 . S
N31 N27 1.370 . S
N31 C30 1.307 1_554 S
C32 C30 1.486 . S
C32 H36 0.960 . S
C32 H37 0.960 . S
C32 H38 0.959 . S
H33 C29 0.960 . S
H34 C29 0.961 . S
H35 C29 0.960 . S
H36 C32 0.960 . S
H37 C32 0.960 . S
H38 C32 0.959 . S
C39 N40 1.317 . S
C39 N41 1.348 . S
C39 C42 1.485 . S
N40 C39 1.317 . S
N40 N44 1.370 . S
N41 C39 1.348 . S
N41 C43 1.346 1_554 S
C42 C39 1.485 . S
C42 H46 0.960 . S
C42 H47 0.961 . S
C42 H48 0.960 . S
C43 N41 1.346 1_556 S
C43 N44 1.307 1_556 S
C43 C45 1.486 . S
N44 N40 1.370 . S
N44 C43 1.307 1_554 S
C45 C43 1.486 . S
C45 H49 0.960 . S
C45 H50 0.960 . S
C45 H51 0.959 . S
H46 C42 0.960 . S
H47 C42 0.961 . S
H48 C42 0.960 . S
H49 C45 0.960 . S
H50 C45 0.960 . S
H51 C45 0.959 . S
C52 N53 1.317 . S
C52 N54 1.348 . S
C52 C55 1.485 . S
N53 C52 1.317 . S
N53 N57 1.370 . S
N54 C52 1.348 . S
N54 C56 1.346 . S
C55 C52 1.485 . S
C55 H59 0.960 . S
C55 H60 0.961 . S
C55 H61 0.960 . S
C56 N54 1.346 . S
C56 N57 1.307 . S
C56 C58 1.486 . S
N57 N53 1.370 . S
N57 C56 1.307 . S
C58 C56 1.486 . S
C58 H62 0.960 . S
C58 H63 0.960 . S
C58 H64 0.959 . S
H59 C55 0.960 . S
H60 C55 0.961 . S
H61 C55 0.960 . S
H62 C58 0.960 . S
H63 C58 0.960 . S
H64 C58 0.959 . S
C65 N66 1.317 . S
C65 N67 1.348 . S
C65 C68 1.485 . S
N66 C65 1.317 . S
N66 N70 1.370 . S
N67 C65 1.348 . S
N67 C69 1.346 . S
C68 C65 1.485 . S
C68 H72 0.960 . S
C68 H73 0.961 . S
C68 H74 0.960 . S
C69 N67 1.346 . S
C69 N70 1.307 . S
C69 C71 1.486 . S
N70 N66 1.370 . S
N70 C69 1.307 . S
C71 C69 1.486 . S
C71 H75 0.960 . S
C71 H76 0.960 . S
C71 H77 0.959 . S
H72 C68 0.960 . S
H73 C68 0.961 . S
H74 C68 0.960 . S
H75 C71 0.960 . S
H76 C71 0.960 . S
H77 C71 0.959 . S
C78 N79 1.317 . S
C78 N80 1.348 . S
C78 C81 1.485 . S
N79 C78 1.317 . S
N79 N83 1.370 . S
N80 C78 1.348 . S
N80 C82 1.346 . S
C81 C78 1.485 . S
C81 H85 0.960 . S
C81 H86 0.961 . S
C81 H87 0.960 . S
C82 N80 1.346 . S
C82 N83 1.307 . S
C82 C84 1.486 . S
N83 N79 1.370 . S
N83 C82 1.307 . S
C84 C82 1.486 . S
C84 H88 0.960 . S
C84 H89 0.960 . S
C84 H90 0.959 . S
H85 C81 0.960 . S
H86 C81 0.961 . S
H87 C81 0.960 . S
H88 C84 0.960 . S
H89 C84 0.960 . S
H90 C84 0.959 . S
C91 N92 1.317 . S
C91 N93 1.348 . S
C91 C94 1.485 . S
N92 C91 1.317 . S
N92 N96 1.370 . S
N93 C91 1.348 . S
N93 C95 1.346 . S
C94 C91 1.485 . S
C94 H98 0.960 . S
C94 H99 0.961 . S
C94 H100 0.960 . S
C95 N93 1.346 . S
C95 N96 1.307 . S
C95 C97 1.486 . S
N96 N92 1.370 . S
N96 C95 1.307 . S
C97 C95 1.486 . S
C97 H101 0.960 . S
C97 H102 0.960 . S
C97 H103 0.959 . S
H98 C94 0.960 . S
H99 C94 0.961 . S
H100 C94 0.960 . S
H101 C97 0.960 . S
H102 C97 0.960 . S
H103 C97 0.959 . S
Tb104 O107 2.453 1_565 S
Tb104 O108 2.596 1_665 S
Tb104 O109 2.374 1_665 S
Tb104 O117 2.343 . S
Tb104 O119 2.353 1_565 S
Tb104 O121 2.427 . S
Tb104 O122 2.513 1_655 S
C105 O109 1.251 . S
C105 O111 1.263 . S
Tb106 O108 2.343 . S
Tb106 O111 2.353 . S
Tb106 O114 2.427 . S
Tb106 O115 2.513 1_456 S
Tb106 O116 2.453 1_545 S
Tb106 O117 2.596 1_445 S
Tb106 O118 2.374 1_455 S
O107 Tb104 2.453 1_545 S
O107 C123 1.245 1_655 S
O108 Tb104 2.596 1_445 S
O108 Tb106 2.343 . S
O108 C123 1.259 . S
O109 Tb104 2.374 1_445 S
O109 C105 1.251 . S
C110 O114 1.275 1_554 S
C110 O115 1.246 1_455 S
O111 C105 1.263 . S
O111 Tb106 2.353 . S
C112 O116 1.245 . S
C112 O117 1.259 1_455 S
C113 O118 1.250 . S
C113 O119 1.263 . S
O114 Tb106 2.427 . S
O114 C110 1.275 1_556 S
O115 Tb106 2.513 1_654 S
O115 C110 1.246 1_655 S
O116 Tb106 2.453 1_565 S
O116 C112 1.245 . S
O117 Tb104 2.343 . S
O117 Tb106 2.596 1_665 S
O117 C112 1.259 1_655 S
O118 Tb106 2.374 1_655 S
O118 C113 1.250 . S
O119 Tb104 2.353 1_545 S
O119 C113 1.263 . S
C120 O121 1.275 . S
C120 O122 1.246 1_655 S
O121 Tb104 2.427 . S
O121 C120 1.275 . S
O122 Tb104 2.513 1_455 S
O122 C120 1.246 1_455 S
C123 O107 1.245 1_455 S
C123 O108 1.259 . S
Tb124 O127 2.453 . S
Tb124 O128 2.596 1_545 S
Tb124 O129 2.374 . S
Tb124 O137 2.343 . S
Tb124 O139 2.353 . S
Tb124 O141 2.427 . S
Tb124 O142 2.513 . S
C125 O129 1.246 1_565 S
C125 O131 1.266 . S
Tb126 O128 2.343 . S
Tb126 O131 2.353 . S
Tb126 O134 2.427 . S
Tb126 O135 2.513 . S
Tb126 O136 2.453 . S
Tb126 O137 2.596 1_565 S
Tb126 O138 2.374 . S
O127 Tb124 2.453 . S
O127 C143 1.245 . S
O128 Tb124 2.596 1_565 S
O128 Tb126 2.343 . S
O128 C143 1.259 1_565 S
O129 Tb124 2.374 . S
O129 C125 1.246 1_545 S
C130 O134 1.275 . S
C130 O135 1.246 . S
O131 C125 1.266 . S
O131 Tb126 2.353 . S
C132 O136 1.245 1_545 S
C132 O137 1.259 . S
C133 O138 1.250 1_545 S
C133 O139 1.263 . S
O134 Tb126 2.427 . S
O134 C130 1.275 . S
O135 Tb126 2.513 . S
O135 C130 1.246 . S
O136 Tb126 2.453 . S
O136 C132 1.245 1_565 S
O137 Tb124 2.343 . S
O137 Tb126 2.596 1_545 S
O137 C132 1.259 . S
O138 Tb126 2.374 . S
O138 C133 1.250 1_565 S
O139 Tb124 2.353 . S
O139 C133 1.263 . S
C140 O141 1.275 . S
C140 O142 1.246 . S
O141 Tb124 2.427 . S
O141 C140 1.275 . S
O142 Tb124 2.513 . S
O142 C140 1.246 . S
C143 O127 1.245 . S
C143 O128 1.259 1_545 S
Tb144 O147 2.453 . S
Tb144 O148 2.596 . S
Tb144 O149 2.374 . S
Tb144 O157 2.343 . S
Tb144 O159 2.353 . S
Tb144 O161 2.427 . S
Tb144 O162 2.513 . S
C145 O149 1.251 . S
C145 O151 1.263 . S
Tb146 O148 2.343 . S
Tb146 O151 2.353 . S
Tb146 O154 2.427 . S
Tb146 O155 2.513 . S
Tb146 O156 2.453 . S
Tb146 O157 2.596 . S
Tb146 O158 2.374 . S
O147 Tb144 2.453 . S
O147 C163 1.245 . S
O148 Tb144 2.596 . S
O148 Tb146 2.343 . S
O148 C163 1.259 . S
O149 Tb144 2.374 . S
O149 C145 1.251 . S
C150 O154 1.275 . S
C150 O155 1.246 . S
O151 C145 1.263 . S
O151 Tb146 2.353 . S
C152 O156 1.245 . S
C152 O157 1.259 . S
C153 O158 1.250 . S
C153 O159 1.263 . S
O154 Tb146 2.427 . S
O154 C150 1.275 . S
O155 Tb146 2.513 . S
O155 C150 1.246 . S
O156 Tb146 2.453 . S
O156 C152 1.245 . S
O157 Tb144 2.343 . S
O157 Tb146 2.596 . S
O157 C152 1.259 . S
O158 Tb146 2.374 . S
O158 C153 1.250 . S
O159 Tb144 2.353 . S
O159 C153 1.263 . S
C160 O161 1.275 . S
C160 O162 1.246 . S
O161 Tb144 2.427 . S
O161 C160 1.275 . S
O162 Tb144 2.513 . S
O162 C160 1.246 . S
C163 O147 1.245 . S
C163 O148 1.259 . S
Tb164 O167 2.453 1_655 S
Tb164 O168 2.596 1_655 S
Tb164 O169 2.372 1_655 S
Tb164 O177 2.343 . S
Tb164 O179 2.353 1_655 S
Tb164 O181 2.427 . S
Tb164 O182 2.513 . S
C165 O169 1.254 . S
C165 O171 1.263 . S
Tb166 O168 2.343 . S
Tb166 O171 2.353 . S
Tb166 O174 2.427 . S
Tb166 O175 2.513 . S
Tb166 O176 2.453 1_455 S
Tb166 O177 2.596 1_455 S
Tb166 O178 2.374 . S
O167 Tb164 2.453 1_455 S
O167 C183 1.245 . S
O168 Tb164 2.596 1_455 S
O168 Tb166 2.343 . S
O168 C183 1.259 . S
O169 Tb164 2.372 1_455 S
O169 C165 1.254 . S
C170 O174 1.275 . S
C170 O175 1.246 . S
O171 C165 1.263 . S
O171 Tb166 2.353 . S
C172 O176 1.245 . S
C172 O177 1.259 . S
C173 O178 1.248 1_655 S
C173 O179 1.263 1_655 S
O174 Tb166 2.427 . S
O174 C170 1.275 . S
O175 Tb166 2.513 . S
O175 C170 1.246 . S
O176 Tb166 2.453 1_655 S
O176 C172 1.245 . S
O177 Tb164 2.343 . S
O177 Tb166 2.596 1_655 S
O177 C172 1.259 . S
O178 Tb166 2.374 . S
O178 C173 1.248 1_455 S
O179 Tb164 2.353 1_455 S
O179 C173 1.263 1_455 S
C180 O181 1.275 . S
C180 O182 1.246 . S
O181 Tb164 2.427 . S
O181 C180 1.275 . S
O182 Tb164 2.513 . S
O182 C180 1.246 . S
C183 O167 1.245 . S
C183 O168 1.259 . S
C184 C185 1.387 . S
C184 H188 0.950 . S
C184 C193 1.390 . S
C185 C184 1.387 . S
C185 C187 1.387 . S
H186 C193 0.950 . S
C187 C185 1.387 . S
C187 C189 1.390 . S
C187 H191 0.950 . S
H188 C184 0.950 . S
C189 C187 1.390 . S
C189 C190 1.387 . S
C189 H192 0.950 1_545 S
C190 C189 1.387 . S
C190 C193 1.387 . S
H191 C187 0.950 . S
H192 C189 0.950 1_565 S
C193 C184 1.390 . S
C193 H186 0.950 . S
C193 C190 1.387 . S
C194 C195 1.387 . S
C194 H198 0.950 . S
C194 C203 1.390 . S
C195 C194 1.387 . S
C195 C197 1.387 . S
H196 C203 0.950 . S
C197 C195 1.387 . S
C197 C199 1.390 . S
C197 H201 0.950 . S
H198 C194 0.950 . S
C199 C197 1.390 . S
C199 C200 1.387 . S
C199 H202 0.950 . S
C200 C199 1.387 . S
C200 C203 1.387 . S
H201 C197 0.950 . S
H202 C199 0.950 . S
C203 C194 1.390 . S
C203 H196 0.950 . S
C203 C200 1.387 . S
C204 C205 1.387 . S
C204 H208 0.950 . S
C204 C213 1.390 . S
C205 C204 1.387 . S
C205 C207 1.387 . S
H206 C213 0.950 . S
C207 C205 1.387 . S
C207 C209 1.390 . S
C207 H211 0.950 . S
H208 C204 0.950 . S
C209 C207 1.390 . S
C209 C210 1.387 . S
C209 H212 0.950 . S
C210 C209 1.387 . S
C210 C213 1.387 . S
H211 C207 0.950 . S
H212 C209 0.950 . S
C213 C204 1.390 . S
C213 H206 0.950 . S
C213 C210 1.387 . S
C214 C215 1.387 . S
C214 H218 0.950 . S
C214 C223 1.390 . S
C215 C214 1.387 . S
C215 C217 1.387 . S
H216 C223 0.950 1_655 S
C217 C215 1.387 . S
C217 C219 1.390 . S
C217 H221 0.950 . S
H218 C214 0.950 . S
C219 C217 1.390 . S
C219 C220 1.387 . S
C219 H222 0.950 . S
C220 C219 1.387 . S
C220 C223 1.387 . S
H221 C217 0.950 . S
H222 C219 0.950 . S
C223 C214 1.390 . S
C223 H216 0.950 1_455 S
C223 C220 1.387 . S
C224 C225 1.387 1_545 S
C224 H228 0.950 . S
C224 C233 1.390 . S
C225 C224 1.387 1_565 S
C225 C227 1.387 . S
H226 C233 0.950 . S
C227 C225 1.387 . S
C227 C229 1.390 . S
C227 H231 0.950 1_556 S
H228 C224 0.950 . S
C229 C227 1.390 . S
C229 C230 1.387 . S
C229 H232 0.950 . S
C230 C229 1.387 . S
C230 C233 1.387 1_565 S
H231 C227 0.950 1_554 S
H232 C229 0.950 . S
C233 C224 1.390 . S
C233 H226 0.950 . S
C233 C230 1.387 1_545 S
C234 C235 1.387 . S
C234 H238 0.950 . S
C234 C243 1.390 1_554 S
C235 C234 1.387 . S
C235 C237 1.387 1_554 S
H236 C243 0.950 1_554 S
C237 C235 1.387 1_556 S
C237 C239 1.390 . S
C237 H241 0.950 . S
H238 C234 0.950 . S
C239 C237 1.390 . S
C239 C240 1.387 . S
C239 H242 0.950 . S
C240 C239 1.387 . S
C240 C243 1.387 . S
H241 C237 0.950 . S
H242 C239 0.950 . S
C243 C234 1.390 1_556 S
C243 H236 0.950 1_556 S
C243 C240 1.387 . S
C244 C245 1.387 . S
C244 H248 0.950 . S
C244 C253 1.390 . S
C245 C244 1.387 . S
C245 C247 1.387 . S
H246 C253 0.950 . S
C247 C245 1.387 . S
C247 C249 1.390 . S
C247 H251 0.950 1_556 S
H248 C244 0.950 . S
C249 C247 1.390 . S
C249 C250 1.387 . S
C249 H252 0.950 . S
C250 C249 1.387 . S
C250 C253 1.387 . S
H251 C247 0.950 1_554 S
H252 C249 0.950 . S
C253 C244 1.390 . S
C253 H246 0.950 . S
C253 C250 1.387 . S
C254 C255 1.387 . S
C254 H258 0.950 1_656 S
C254 C263 1.390 1_655 S
C255 C254 1.387 . S
C255 C257 1.387 . S
H256 C263 0.950 . S
C257 C255 1.387 . S
C257 C259 1.390 . S
C257 H261 0.950 . S
H258 C254 0.950 1_454 S
C259 C257 1.390 . S
C259 C260 1.387 . S
C259 H262 0.950 . S
C260 C259 1.387 . S
C260 C263 1.387 1_655 S
H261 C257 0.950 . S
H262 C259 0.950 . S
C263 C254 1.390 1_455 S
C263 H256 0.950 . S
C263 C260 1.387 1_455 S
C264 C265 1.387 . S
C264 H268 0.950 . S
C264 C273 1.390 . S
C265 C264 1.387 . S
C265 C267 1.387 . S
H266 C273 0.950 . S
C267 C265 1.387 . S
C267 C269 1.390 . S
C267 H271 0.950 . S
H268 C264 0.950 . S
C269 C267 1.390 . S
C269 C270 1.387 . S
C269 H272 0.950 . S
C270 C269 1.387 . S
C270 C273 1.387 . S
H271 C267 0.950 . S
H272 C269 0.950 . S
C273 C264 1.390 . S
C273 H266 0.950 . S
C273 C270 1.387 . S
C274 C275 1.387 . S
C274 H278 0.950 . S
C274 C283 1.390 . S
C275 C274 1.387 . S
C275 C277 1.387 . S
H276 C283 0.950 . S
C277 C275 1.387 . S
C277 C279 1.390 . S
C277 H281 0.950 1_545 S
H278 C274 0.950 . S
C279 C277 1.390 . S
C279 C280 1.387 . S
C279 H282 0.950 1_545 S
C280 C279 1.387 . S
C280 C283 1.387 . S
H281 C277 0.950 1_565 S
H282 C279 0.950 1_565 S
C283 C274 1.390 . S
C283 H276 0.950 . S
C283 C280 1.387 . S
C284 C285 1.387 . S
C284 H288 0.950 . S
C284 C293 1.390 . S
C285 C284 1.387 . S
C285 C287 1.387 . S
H286 C293 0.950 . S
C287 C285 1.387 . S
C287 C289 1.390 . S
C287 H291 0.950 . S
H288 C284 0.950 . S
C289 C287 1.390 . S
C289 C290 1.387 . S
C289 H292 0.950 . S
C290 C289 1.387 . S
C290 C293 1.387 . S
H291 C287 0.950 . S
H292 C289 0.950 . S
C293 C284 1.390 . S
C293 H286 0.950 . S
C293 C290 1.387 . S
C294 C295 1.387 . S
C294 H298 0.950 . S
C294 C303 1.390 . S
C295 C294 1.387 . S
C295 C297 1.387 . S
H296 C303 0.950 . S
C297 C295 1.387 . S
C297 C299 1.390 . S
C297 H301 0.950 . S
H298 C294 0.950 . S
C299 C297 1.390 . S
C299 C300 1.387 . S
C299 H302 0.950 . S
C300 C299 1.387 . S
C300 C303 1.387 . S
H301 C297 0.950 . S
H302 C299 0.950 . S
C303 C294 1.390 . S
C303 H296 0.950 . S
C303 C300 1.387 . S
C304 C305 1.387 . S
C304 H308 0.950 1_556 S
C304 C313 1.390 . S
C305 C304 1.387 . S
C305 C307 1.387 . S
H306 C313 0.950 . S
C307 C305 1.387 . S
C307 C309 1.390 1_655 S
C307 H311 0.950 . S
H308 C304 0.950 1_554 S
C309 C307 1.390 1_455 S
C309 C310 1.387 1_455 S
C309 H312 0.950 . S
C310 C309 1.387 1_655 S
C310 C313 1.387 . S
H311 C307 0.950 . S
H312 C309 0.950 . S
C313 C304 1.390 . S
C313 H306 0.950 . S
C313 C310 1.387 . S
C314 C315 1.387 . S
C314 H318 0.950 . S
C314 C323 1.390 . S
C315 C314 1.387 . S
C315 C317 1.387 1_566 S
H316 C323 0.950 . S
C317 C315 1.387 1_544 S
C317 C319 1.390 1_554 S
C317 H321 0.950 . S
H318 C314 0.950 . S
C319 C317 1.390 1_556 S
C319 C320 1.387 1_545 S
C319 H322 0.950 1_556 S
C320 C319 1.387 1_565 S
C320 C323 1.387 . S
H321 C317 0.950 . S
H322 C319 0.950 1_554 S
C323 C314 1.390 . S
C323 H316 0.950 . S
C323 C320 1.387 . S
C324 C325 1.387 . S
C324 H328 0.950 . S
C324 C333 1.390 . S
C325 C324 1.387 . S
C325 C327 1.387 1_556 S
H326 C333 0.950 . S
C327 C325 1.387 1_554 S
C327 C329 1.390 1_554 S
C327 H331 0.950 . S
H328 C324 0.950 . S
C329 C327 1.390 1_556 S
C329 C330 1.387 . S
C329 H332 0.950 1_556 S
C330 C329 1.387 . S
C330 C333 1.387 . S
H331 C327 0.950 . S
H332 C329 0.950 1_554 S
C333 C324 1.390 . S
C333 H326 0.950 . S
C333 C330 1.387 . S
C334 C335 1.387 . S
C334 H338 0.950 . S
C334 C343 1.390 . S
C335 C334 1.387 . S
C335 C337 1.387 . S
H336 C343 0.950 . S
C337 C335 1.387 . S
C337 C339 1.390 . S
C337 H341 0.950 1_556 S
H338 C334 0.950 . S
C339 C337 1.390 . S
C339 C340 1.387 . S
C339 H342 0.950 . S
C340 C339 1.387 . S
C340 C343 1.387 . S
H341 C337 0.950 1_554 S
H342 C339 0.950 . S
C343 C334 1.390 . S
C343 H336 0.950 . S
C343 C340 1.387 . S
C344 C345 1.387 . S
C344 H348 0.950 . S
C344 C353 1.390 . S
C345 C344 1.387 . S
C345 C347 1.387 . S
H346 C353 0.950 . S
C347 C345 1.387 . S
C347 C349 1.390 . S
C347 H351 0.950 . S
H348 C344 0.950 . S
C349 C347 1.390 . S
C349 C350 1.387 . S
C349 H352 0.950 1_455 S
C350 C349 1.387 . S
C350 C353 1.387 . S
H351 C347 0.950 . S
H352 C349 0.950 1_655 S
C353 C344 1.390 . S
C353 H346 0.950 . S
C353 C350 1.387 . S
C354 C355 1.387 . S
C354 H358 0.950 . S
C354 C363 1.390 . S
C355 C354 1.387 . S
C355 C357 1.387 . S
H356 C363 0.950 1_556 S
C357 C355 1.387 . S
C357 C359 1.390 . S
C357 H361 0.950 1_545 S
H358 C354 0.950 . S
C359 C357 1.390 . S
C359 C360 1.387 . S
C359 H362 0.950 1_545 S
C360 C359 1.387 . S
C360 C363 1.387 . S
H361 C357 0.950 1_565 S
H362 C359 0.950 1_565 S
C363 C354 1.390 . S
C363 H356 0.950 1_554 S
C363 C360 1.387 . S
C364 C365 1.387 . S
C364 H368 0.950 . S
C364 C373 1.390 . S
C365 C364 1.387 . S
C365 C367 1.387 . S
H366 C373 0.950 . S
C367 C365 1.387 . S
C367 C369 1.390 . S
C367 H371 0.950 . S
H368 C364 0.950 . S
C369 C367 1.390 . S
C369 C370 1.387 . S
C369 H372 0.950 1_554 S
C370 C369 1.387 . S
C370 C373 1.387 . S
H371 C367 0.950 . S
H372 C369 0.950 1_556 S
C373 C364 1.390 . S
C373 H366 0.950 . S
C373 C370 1.387 . S
C374 C375 1.387 . S
C374 H378 0.950 . S
C374 C383 1.390 . S
C375 C374 1.387 . S
C375 C377 1.387 . S
H376 C383 0.950 . S
C377 C375 1.387 . S
C377 C379 1.390 . S
C377 H381 0.950 . S
H378 C374 0.950 . S
C379 C377 1.390 . S
C379 C380 1.387 . S
C379 H382 0.950 . S
C380 C379 1.387 . S
C380 C383 1.387 . S
H381 C377 0.950 . S
H382 C379 0.950 . S
C383 C374 1.390 . S
C383 H376 0.950 . S
C383 C380 1.387 . S
C384 C385 1.387 . S
C384 H388 0.950 . S
C384 C393 1.390 . S
C385 C384 1.387 . S
C385 C387 1.387 . S
H386 C393 0.950 . S
C387 C385 1.387 . S
C387 C389 1.389 1_655 S
C387 H391 0.950 1_655 S
H388 C384 0.950 . S
C389 C387 1.389 1_455 S
C389 C390 1.383 1_455 S
C389 H392 0.955 . S
C390 C389 1.383 1_655 S
C390 C393 1.387 . S
H391 C387 0.950 1_455 S
H392 C389 0.955 . S
C393 C384 1.390 . S
C393 H386 0.950 . S
C393 C390 1.387 . S
C394 C395 1.387 1_545 S
C394 H398 0.950 . S
C394 C403 1.390 . S
C395 C394 1.387 1_565 S
C395 C397 1.387 . S
H396 C403 0.950 . S
C397 C395 1.387 . S
C397 C399 1.390 . S
C397 H401 0.950 . S
H398 C394 0.950 . S
C399 C397 1.390 . S
C399 C400 1.387 . S
C399 H402 0.950 . S
C400 C399 1.387 . S
C400 C403 1.387 1_565 S
H401 C397 0.950 . S
H402 C399 0.950 . S
C403 C394 1.390 . S
C403 H396 0.950 . S
C403 C400 1.387 1_545 S
C404 C405 1.387 . S
C404 H408 0.950 . S
C404 C413 1.390 . S
C405 C404 1.387 . S
C405 C407 1.387 . S
H406 C413 0.950 . S
C407 C405 1.387 . S
C407 C409 1.390 . S
C407 H411 0.950 . S
H408 C404 0.950 . S
C409 C407 1.390 . S
C409 C410 1.387 . S
C409 H412 0.950 . S
C410 C409 1.387 . S
C410 C413 1.387 . S
H411 C407 0.950 . S
H412 C409 0.950 . S
C413 C404 1.390 . S
C413 H406 0.950 . S
C413 C410 1.387 . S
C414 C415 1.387 . S
C414 H418 0.950 . S
C414 C423 1.390 . S
C415 C414 1.387 . S
C415 C417 1.387 . S
H416 C423 0.950 . S
C417 C415 1.387 . S
C417 C419 1.390 . S
C417 H421 0.950 . S
H418 C414 0.950 . S
C419 C417 1.390 . S
C419 C420 1.387 . S
C419 H422 0.950 . S
C420 C419 1.387 . S
C420 C423 1.387 . S
H421 C417 0.950 . S
H422 C419 0.950 . S
C423 C414 1.390 . S
C423 H416 0.950 . S
C423 C420 1.387 . S
C185 N80 1.570 . S
C190 C105 1.590 . S
C200 C140 1.554 . S
C195 N93 1.510 . S
C210 C145 1.402 . S
C205 N54 1.393 . S
C220 C165 1.529 . S
C215 N67 1.511 . S
C230 C113 1.589 1_565 S
C225 N28 1.580 1_556 S
C235 N41 1.526 . S
C240 C130 1.554 . S
C245 N2 1.398 1_556 S
C250 C153 1.402 . S
C255 N15 1.522 . S
C260 C173 1.533 . S
C270 C123 1.368 . S
C265 N70 1.386 . S
C280 C132 1.174 . S
C275 N83 1.187 . S
C290 C163 1.373 . S
C285 N96 1.362 . S
C295 N57 1.145 . S
C300 C183 1.107 . S
C305 N18 1.392 . S
C310 C112 1.367 1_655 S
C320 C143 1.176 1_565 S
C315 N31 1.189 1_556 S
C330 C152 1.374 . S
C325 N44 1.365 1_556 S
C335 N5 1.145 1_556 S
C340 C172 1.108 . S
C345 N66 1.469 . S
C350 C110 1.451 . S
C355 N79 1.527 . S
C360 C133 1.551 1_554 S
C370 C150 1.521 1_554 S
C365 N92 1.519 . S
C380 C170 1.540 1_554 S
C375 N53 1.560 . S
C385 N14 1.480 . S
C390 C120 1.452 . S
C400 C125 1.552 . S
C395 N27 1.542 . S
C410 C160 1.522 . S
C405 N40 1.537 . S
C415 N1 1.565 . S
C420 C180 1.541 . S
