# Generated by pormake.
# Topology eea, (3,6)-cn, num edge types: 1
# Building blocks:
#     Node 0, Type 0, BuildingBlock: BETDIP_clean_linker_0, # of connection points: 3
#     Node 1, Type 0, BuildingBlock: BETDIP_clean_linker_0, # of connection points: 3
#     Node 2, Type 0, BuildingBlock: BETDIP_clean_linker_0, # of connection points: 3
#     Node 3, Type 0, BuildingBlock: BETDIP_clean_linker_0, # of connection points: 3
#     Node 4, Type 0, BuildingBlock: BETDIP_clean_linker_0, # of connection points: 3
#     Node 5, Type 0, BuildingBlock: BETDIP_clean_linker_0, # of connection points: 3
#     Node 6, Type 0, BuildingBlock: BETDIP_clean_linker_0, # of connection points: 3
#     Node 7, Type 0, BuildingBlock: BETDIP_clean_linker_0, # of connection points: 3
#     Node 8, Type 0, BuildingBlock: BETDIP_clean_linker_0, # of connection points: 3
#     Node 9, Type 0, BuildingBlock: BETDIP_clean_linker_0, # of connection points: 3
#     Node 10, Type 0, BuildingBlock: BETDIP_clean_linker_0, # of connection points: 3
#     Node 11, Type 0, BuildingBlock: BETDIP_clean_linker_0, # of connection points: 3
#     Node 12, Type 0, BuildingBlock: BETDIP_clean_linker_0, # of connection points: 3
#     Node 13, Type 0, BuildingBlock: BETDIP_clean_linker_0, # of connection points: 3
#     Node 14, Type 0, BuildingBlock: BETDIP_clean_linker_0, # of connection points: 3
#     Node 15, Type 0, BuildingBlock: BETDIP_clean_linker_0, # of connection points: 3
#     Node 16, Type 0, BuildingBlock: BETDIP_clean_linker_0, # of connection points: 3
#     Node 17, Type 0, BuildingBlock: BETDIP_clean_linker_0, # of connection points: 3
#     Node 18, Type 1, BuildingBlock: CUWYAW_clean_sbu_0, # of connection points: 6
#     Node 19, Type 1, BuildingBlock: CUWYAW_clean_sbu_0, # of connection points: 6
#     Node 20, Type 1, BuildingBlock: CUWYAW_clean_sbu_0, # of connection points: 6
#     Node 21, Type 1, BuildingBlock: CUWYAW_clean_sbu_0, # of connection points: 6
#     Node 22, Type 1, BuildingBlock: CUWYAW_clean_sbu_0, # of connection points: 6
#     Node 23, Type 1, BuildingBlock: CUWYAW_clean_sbu_0, # of connection points: 6
#     Node 24, Type 1, BuildingBlock: CUWYAW_clean_sbu_0, # of connection points: 6
#     Node 25, Type 1, BuildingBlock: CUWYAW_clean_sbu_0, # of connection points: 6
#     Node 26, Type 1, BuildingBlock: CUWYAW_clean_sbu_0, # of connection points: 6
#     Edge 27, Type (0, 1), BuildingBlock: TEMPAE_clean_linker_10, # of connection points: 2
#     Edge 28, Type (0, 1), BuildingBlock: TEMPAE_clean_linker_10, # of connection points: 2
#     Edge 29, Type (0, 1), BuildingBlock: TEMPAE_clean_linker_10, # of connection points: 2
#     Edge 30, Type (0, 1), BuildingBlock: TEMPAE_clean_linker_10, # of connection points: 2
#     Edge 31, Type (0, 1), BuildingBlock: TEMPAE_clean_linker_10, # of connection points: 2
#     Edge 32, Type (0, 1), BuildingBlock: TEMPAE_clean_linker_10, # of connection points: 2
#     Edge 33, Type (0, 1), BuildingBlock: TEMPAE_clean_linker_10, # of connection points: 2
#     Edge 34, Type (0, 1), BuildingBlock: TEMPAE_clean_linker_10, # of connection points: 2
#     Edge 35, Type (0, 1), BuildingBlock: TEMPAE_clean_linker_10, # of connection points: 2
#     Edge 36, Type (0, 1), BuildingBlock: TEMPAE_clean_linker_10, # of connection points: 2
#     Edge 37, Type (0, 1), BuildingBlock: TEMPAE_clean_linker_10, # of connection points: 2
#     Edge 38, Type (0, 1), BuildingBlock: TEMPAE_clean_linker_10, # of connection points: 2
#     Edge 39, Type (0, 1), BuildingBlock: TEMPAE_clean_linker_10, # of connection points: 2
#     Edge 40, Type (0, 1), BuildingBlock: TEMPAE_clean_linker_10, # of connection points: 2
#     Edge 41, Type (0, 1), BuildingBlock: TEMPAE_clean_linker_10, # of connection points: 2
#     Edge 42, Type (0, 1), BuildingBlock: TEMPAE_clean_linker_10, # of connection points: 2
#     Edge 43, Type (0, 1), BuildingBlock: TEMPAE_clean_linker_10, # of connection points: 2
#     Edge 44, Type (0, 1), BuildingBlock: TEMPAE_clean_linker_10, # of connection points: 2
#     Edge 45, Type (0, 1), BuildingBlock: TEMPAE_clean_linker_10, # of connection points: 2
#     Edge 46, Type (0, 1), BuildingBlock: TEMPAE_clean_linker_10, # of connection points: 2
#     Edge 47, Type (0, 1), BuildingBlock: TEMPAE_clean_linker_10, # of connection points: 2
#     Edge 48, Type (0, 1), BuildingBlock: TEMPAE_clean_linker_10, # of connection points: 2
#     Edge 49, Type (0, 1), BuildingBlock: TEMPAE_clean_linker_10, # of connection points: 2
#     Edge 50, Type (0, 1), BuildingBlock: TEMPAE_clean_linker_10, # of connection points: 2
#     Edge 51, Type (0, 1), BuildingBlock: TEMPAE_clean_linker_10, # of connection points: 2
#     Edge 52, Type (0, 1), BuildingBlock: TEMPAE_clean_linker_10, # of connection points: 2
#     Edge 53, Type (0, 1), BuildingBlock: TEMPAE_clean_linker_10, # of connection points: 2
#     Edge 54, Type (0, 1), BuildingBlock: TEMPAE_clean_linker_10, # of connection points: 2
#     Edge 55, Type (0, 1), BuildingBlock: TEMPAE_clean_linker_10, # of connection points: 2
#     Edge 56, Type (0, 1), BuildingBlock: TEMPAE_clean_linker_10, # of connection points: 2
#     Edge 57, Type (0, 1), BuildingBlock: TEMPAE_clean_linker_10, # of connection points: 2
#     Edge 58, Type (0, 1), BuildingBlock: TEMPAE_clean_linker_10, # of connection points: 2
#     Edge 59, Type (0, 1), BuildingBlock: TEMPAE_clean_linker_10, # of connection points: 2
#     Edge 60, Type (0, 1), BuildingBlock: TEMPAE_clean_linker_10, # of connection points: 2
#     Edge 61, Type (0, 1), BuildingBlock: TEMPAE_clean_linker_10, # of connection points: 2
#     Edge 62, Type (0, 1), BuildingBlock: TEMPAE_clean_linker_10, # of connection points: 2
#     Edge 63, Type (0, 1), BuildingBlock: TEMPAE_clean_linker_10, # of connection points: 2
#     Edge 64, Type (0, 1), BuildingBlock: TEMPAE_clean_linker_10, # of connection points: 2
#     Edge 65, Type (0, 1), BuildingBlock: TEMPAE_clean_linker_10, # of connection points: 2
#     Edge 66, Type (0, 1), BuildingBlock: TEMPAE_clean_linker_10, # of connection points: 2
#     Edge 67, Type (0, 1), BuildingBlock: TEMPAE_clean_linker_10, # of connection points: 2
#     Edge 68, Type (0, 1), BuildingBlock: TEMPAE_clean_linker_10, # of connection points: 2
#     Edge 69, Type (0, 1), BuildingBlock: TEMPAE_clean_linker_10, # of connection points: 2
#     Edge 70, Type (0, 1), BuildingBlock: TEMPAE_clean_linker_10, # of connection points: 2
#     Edge 71, Type (0, 1), BuildingBlock: TEMPAE_clean_linker_10, # of connection points: 2
#     Edge 72, Type (0, 1), BuildingBlock: TEMPAE_clean_linker_10, # of connection points: 2
#     Edge 73, Type (0, 1), BuildingBlock: TEMPAE_clean_linker_10, # of connection points: 2
#     Edge 74, Type (0, 1), BuildingBlock: TEMPAE_clean_linker_10, # of connection points: 2
#     Edge 75, Type (0, 1), BuildingBlock: TEMPAE_clean_linker_10, # of connection points: 2
#     Edge 76, Type (0, 1), BuildingBlock: TEMPAE_clean_linker_10, # of connection points: 2
#     Edge 77, Type (0, 1), BuildingBlock: TEMPAE_clean_linker_10, # of connection points: 2
#     Edge 78, Type (0, 1), BuildingBlock: TEMPAE_clean_linker_10, # of connection points: 2
#     Edge 79, Type (0, 1), BuildingBlock: TEMPAE_clean_linker_10, # of connection points: 2
#     Edge 80, Type (0, 1), BuildingBlock: TEMPAE_clean_linker_10, # of connection points: 2
# Relax obj value: 0.060
# Max RMSD: 0.208
# Mean RMSD: 0.146
data_MOF--net-eea--node1-CUWYAW_clean_sbu_0--node2-BETDIP_clean_linker_0--edge1-TEMPAE_clean_linker_10
_symmetry_space_group_name_H-M    P1
_symmetry_Int_Tables_number       1
_symmetry_cell_setting            triclinic
loop_
_symmetry_equiv_pos_as_xyz
'x, y, z'
_cell_length_a     55.391739
_cell_length_b     55.016334
_cell_length_c     70.76687
_cell_angle_alpha  93.415065
_cell_angle_beta   93.462089
_cell_angle_gamma 119.82763
loop_
_atom_site_label
_atom_site_type_symbol
_atom_site_fract_x
_atom_site_fract_y
_atom_site_fract_z
_atom_type_partial_charge
H0 H 0.20031 0.09367 0.37613 0.0
H1 H 0.21682 0.13929 0.43126 0.0
H2 H 0.21297 0.05931 0.42637 0.0
H3 H 0.20988 0.13488 0.36545 0.0
C4 C 0.20462 0.14612 0.37603 0.0
C5 C 0.20463 0.09533 0.39139 0.0
C6 C 0.20699 0.07381 0.39972 0.0
C7 C 0.20782 0.11883 0.40288 0.0
C8 C 0.2137 0.12083 0.42261 0.0
C9 C 0.21642 0.09984 0.43112 0.0
C10 C 0.2123 0.07617 0.41963 0.0
N11 N 0.20478 0.14073 0.39541 0.0
H12 H 0.92519 0.12408 0.38313 0.0
H13 H 0.87882 0.09428 0.43131 0.0
H14 H 0.95019 0.17764 0.43609 0.0
H15 H 0.8713 0.05229 0.41762 0.0
C16 C 0.86629 0.05379 0.4028 0.0
C17 C 0.92237 0.12759 0.39786 0.0
C18 C 0.94059 0.15373 0.40853 0.0
C19 C 0.90045 0.10578 0.40606 0.0
C20 C 0.89636 0.11044 0.42503 0.0
C21 C 0.91415 0.13628 0.43592 0.0
C22 C 0.93613 0.15788 0.42757 0.0
N23 N 0.88229 0.07968 0.39485 0.0
H24 H 0.88523 0.79815 0.39274 0.0
H25 H 0.91595 0.77613 0.44233 0.0
H26 H 0.83802 0.77537 0.44122 0.0
H27 H 0.93742 0.76402 0.42068 0.0
C28 C 0.944 0.78042 0.41112 0.0
C29 C 0.88279 0.79179 0.40703 0.0
C30 C 0.85883 0.78685 0.41575 0.0
C31 C 0.90329 0.78755 0.41633 0.0
C32 C 0.90012 0.77906 0.43485 0.0
C33 C 0.87638 0.77423 0.44381 0.0
C34 C 0.85601 0.77835 0.43418 0.0
N35 N 0.92689 0.79228 0.40675 0.0
H36 H 0.08401 0.20368 0.61712 0.0
H37 H 0.13257 0.22642 0.56964 0.0
H38 H 0.06075 0.23644 0.56958 0.0
H39 H 0.16789 0.24181 0.59361 0.0
C40 C 0.15945 0.22372 0.60177 0.0
C41 C 0.08749 0.21204 0.60346 0.0
C42 C 0.06886 0.21947 0.59456 0.0
C43 C 0.1111 0.21563 0.59494 0.0
C44 C 0.11506 0.22469 0.5767 0.0
C45 C 0.09672 0.23181 0.56742 0.0
C46 C 0.07416 0.22989 0.5766 0.0
N47 N 0.13065 0.21003 0.60489 0.0
H48 H 0.81207 0.88998 0.63422 0.0
H49 H 0.78755 0.91438 0.58339 0.0
H50 H 0.77722 0.8316 0.58335 0.0
H51 H 0.8066 0.92597 0.64855 0.0
C52 C 0.81126 0.94104 0.63814 0.0
C53 C 0.80288 0.88478 0.61958 0.0
C54 C 0.79528 0.85831 0.60995 0.0
C55 C 0.79979 0.90488 0.60991 0.0
C56 C 0.78918 0.89845 0.59077 0.0
C57 C 0.78074 0.87207 0.58108 0.0
C58 C 0.78398 0.85214 0.59073 0.0
N59 N 0.80794 0.93227 0.61842 0.0
H60 H 0.12052 0.91702 0.62889 0.0
H61 H 0.08497 0.86874 0.57456 0.0
H62 H 0.16055 0.94903 0.5784 0.0
H63 H 0.04339 0.86557 0.59105 0.0
C64 C 0.04866 0.85752 0.60335 0.0
C65 C 0.12134 0.91518 0.61365 0.0
C66 C 0.14367 0.93638 0.60517 0.0
C67 C 0.09957 0.89149 0.60257 0.0
C68 C 0.10096 0.88783 0.5829 0.0
C69 C 0.12371 0.90803 0.57426 0.0
C70 C 0.14416 0.93265 0.58537 0.0
N71 N 0.07691 0.87112 0.6116 0.0
H72 H 0.85992 0.41676 0.7057 0.0
H73 H 0.89401 0.47464 0.75639 0.0
H74 H 0.89134 0.3951 0.75526 0.0
H75 H 0.91036 0.50533 0.72969 0.0
C76 C 0.88892 0.49669 0.72343 0.0
C77 C 0.8696 0.42189 0.72024 0.0
C78 C 0.87522 0.40273 0.72914 0.0
C79 C 0.87675 0.44797 0.7299 0.0
C80 C 0.88878 0.45463 0.74888 0.0
C81 C 0.89375 0.43549 0.75827 0.0
C82 C 0.88716 0.40975 0.7482 0.0
N83 N 0.87102 0.46696 0.7205 0.0
H84 H 0.59235 0.45771 0.71731 0.0
H85 H 0.54203 0.43032 0.76386 0.0
H86 H 0.61172 0.51481 0.76775 0.0
H87 H 0.53825 0.38837 0.75281 0.0
C88 C 0.5334 0.38855 0.73773 0.0
C89 C 0.58808 0.46212 0.73146 0.0
C90 C 0.60506 0.48896 0.74157 0.0
C91 C 0.56562 0.44076 0.73952 0.0
C92 C 0.55959 0.44657 0.75767 0.0
C93 C 0.57598 0.47324 0.76795 0.0
C94 C 0.59879 0.49428 0.75983 0.0
N95 N 0.5489 0.4138 0.72899 0.0
H96 H 0.56005 0.13291 0.72689 0.0
H97 H 0.59431 0.1192 0.7787 0.0
H98 H 0.51478 0.11523 0.77631 0.0
H99 H 0.61344 0.10248 0.7575 0.0
C100 C 0.61992 0.11779 0.74715 0.0
C101 C 0.55844 0.1285 0.74163 0.0
C102 C 0.53477 0.12437 0.75043 0.0
C103 C 0.57962 0.12584 0.7515 0.0
C104 C 0.5776 0.12015 0.77067 0.0
C105 C 0.55432 0.11648 0.77978 0.0
C106 C 0.533 0.11844 0.76948 0.0
N107 N 0.60283 0.12937 0.74188 0.0
H108 H 0.75597 0.55148 0.9573 0.0
H109 H 0.80034 0.56222 0.90808 0.0
H110 H 0.73016 0.57574 0.90649 0.0
H111 H 0.79621 0.51773 0.92203 0.0
C112 C 0.80747 0.53123 0.93509 0.0
C113 C 0.75835 0.5564 0.94269 0.0
C114 C 0.74008 0.56339 0.93298 0.0
C115 C 0.77953 0.55524 0.93359 0.0
C116 C 0.78321 0.56206 0.9148 0.0
C117 C 0.76587 0.5701 0.90505 0.0
C118 C 0.74419 0.57049 0.91419 0.0
N119 N 0.79767 0.54818 0.94374 0.0
H120 H 0.48744 0.23479 0.97157 0.0
H121 H 0.46372 0.25821 0.9199 0.0
H122 H 0.45045 0.17445 0.92192 0.0
H123 H 0.48096 0.27031 0.98495 0.0
C124 C 0.48662 0.2856 0.97462 0.0
C125 C 0.47831 0.22938 0.95691 0.0
C126 C 0.46928 0.20227 0.94793 0.0
C127 C 0.47577 0.24939 0.94677 0.0
C128 C 0.46485 0.24236 0.92768 0.0
C129 C 0.45534 0.21533 0.91859 0.0
C130 C 0.4576 0.19535 0.92883 0.0
N131 N 0.48439 0.27703 0.95496 0.0
H132 H 0.78777 0.25393 0.96028 0.0
H133 H 0.7558 0.20024 0.90741 0.0
H134 H 0.8339 0.27819 0.91139 0.0
H135 H 0.73559 0.16629 0.92785 0.0
C136 C 0.7289 0.17628 0.93837 0.0
C137 C 0.78986 0.24977 0.94548 0.0
C138 C 0.81349 0.26905 0.93713 0.0
C139 C 0.7693 0.22457 0.93509 0.0
C140 C 0.77197 0.21908 0.91585 0.0
C141 C 0.79511 0.23855 0.90717 0.0
C142 C 0.81583 0.26329 0.91796 0.0
N143 N 0.74592 0.20559 0.94425 0.0
H144 H 0.52447 0.75607 0.0388 0.0
H145 H 0.55773 0.81187 0.09046 0.0
H146 H 0.55683 0.73311 0.08718 0.0
H147 H 0.57754 0.84198 0.05924 0.0
C148 C 0.55551 0.83487 0.05567 0.0
C149 C 0.53419 0.76071 0.05331 0.0
C150 C 0.53982 0.74126 0.06169 0.0
C151 C 0.54139 0.78644 0.06348 0.0
C152 C 0.55327 0.79243 0.08246 0.0
C153 C 0.55801 0.77279 0.09133 0.0
C154 C 0.55184 0.74763 0.08068 0.0
N155 N 0.53554 0.80571 0.05469 0.0
H156 H 0.25905 0.80089 0.04963 0.0
H157 H 0.20677 0.7722 0.09508 0.0
H158 H 0.28257 0.85263 0.10324 0.0
H159 H 0.17329 0.75713 0.06618 0.0
C160 C 0.18227 0.74537 0.0598 0.0
C161 C 0.25514 0.80431 0.06409 0.0
C162 C 0.2738 0.82955 0.07549 0.0
C163 C 0.23068 0.78391 0.07095 0.0
C164 C 0.22543 0.78818 0.08964 0.0
C165 C 0.24409 0.81284 0.1014 0.0
C166 C 0.26804 0.83362 0.09416 0.0
N167 N 0.2117 0.75898 0.05902 0.0
H168 H 0.22491 0.46268 0.0576 0.0
H169 H 0.25337 0.44107 0.10845 0.0
H170 H 0.17398 0.43734 0.10416 0.0
H171 H 0.27663 0.42963 0.08791 0.0
C172 C 0.28349 0.44594 0.07828 0.0
C173 C 0.22157 0.45587 0.07175 0.0
C174 C 0.19678 0.45014 0.07958 0.0
C175 C 0.2418 0.45201 0.08181 0.0
C176 C 0.23763 0.44339 0.10026 0.0
C177 C 0.21302 0.43774 0.10829 0.0
C178 C 0.19272 0.44108 0.09783 0.0
N179 N 0.26622 0.45733 0.07309 0.0
H180 H 0.41386 0.87438 0.28472 0.0
H181 H 0.4622 0.90042 0.23701 0.0
H182 H 0.38803 0.90604 0.23792 0.0
H183 H 0.47802 0.87369 0.24538 0.0
C184 C 0.47829 0.87375 0.26072 0.0
C185 C 0.41682 0.88238 0.27091 0.0
C186 C 0.39827 0.89033 0.26267 0.0
C187 C 0.43954 0.88506 0.26156 0.0
C188 C 0.44392 0.89639 0.24396 0.0
C189 C 0.42529 0.90362 0.23525 0.0
C190 C 0.40261 0.90071 0.24472 0.0
N191 N 0.45807 0.87706 0.27036 0.0
H192 H 0.1487 0.55707 0.30795 0.0
H193 H 0.11527 0.5799 0.26053 0.0
H194 H 0.11403 0.50093 0.25599 0.0
H195 H 0.09714 0.58886 0.29812 0.0
C196 C 0.11917 0.60485 0.29914 0.0
C197 C 0.13853 0.55182 0.29355 0.0
C198 C 0.13165 0.52613 0.28319 0.0
C199 C 0.13202 0.57078 0.28554 0.0
C200 C 0.11942 0.56468 0.2668 0.0
C201 C 0.11363 0.53988 0.25586 0.0
C202 C 0.11951 0.52056 0.26421 0.0
N203 N 0.1393 0.59662 0.29611 0.0
H204 H 0.45244 0.58435 0.29507 0.0
H205 H 0.41879 0.53511 0.24081 0.0
H206 H 0.49182 0.61691 0.24442 0.0
H207 H 0.40098 0.49925 0.25982 0.0
C208 C 0.39411 0.50783 0.27114 0.0
C209 C 0.45347 0.58245 0.27987 0.0
C210 C 0.47525 0.60423 0.27131 0.0
C211 C 0.43307 0.55749 0.26908 0.0
C212 C 0.43457 0.554 0.2494 0.0
C213 C 0.45602 0.57531 0.24054 0.0
C214 C 0.47577 0.60042 0.25149 0.0
N215 N 0.41086 0.53675 0.27833 0.0
C216 C 0.53201 0.0353 0.06713 0.0
Eu217 Eu 0.51439 0.0272 0.03108 0.0
C218 C 0.52108 0.02043 0.08391 0.0
C219 C 0.52841 0.03586 0.10183 0.0
C220 C 0.51645 0.02253 0.11774 0.0
C221 C 0.49683 0.99352 0.11597 0.0
C222 C 0.4898 0.97803 0.09798 0.0
C223 C 0.50184 0.99138 0.08206 0.0
C224 C 0.5003 0.06142 0.01381 0.0
C225 C 0.44792 0.97888 0.02457 0.0
C226 C 0.46652 1.00097 0.9556 0.0
Eu227 Eu 0.4848 0.00498 0.99101 0.0
C228 C 0.47829 0.01666 0.93921 0.0
C229 C 0.50638 0.02674 0.93611 0.0
C230 C 0.51692 0.04056 0.92004 0.0
C231 C 0.4996 0.04468 0.90684 0.0
C232 C 0.47177 0.03548 0.91043 0.0
C233 C 0.46123 0.02154 0.92645 0.0
C234 C 0.49909 0.97015 0.00743 0.0
C235 C 0.55209 0.05088 0.99748 0.0
O236 O 0.53938 0.02292 0.05425 0.0
O237 O 0.51791 0.04627 0.05971 0.0
O238 O 0.5231 0.07059 0.02499 0.0
O239 O 0.48529 0.03504 0.01305 0.0
O240 O 0.47196 0.99014 0.03548 0.0
O241 O 0.44676 0.98461 0.00681 0.0
O242 O 0.46168 0.0144 0.96938 0.0
O243 O 0.47762 0.9864 0.9618 0.0
O244 O 0.47682 0.96154 0.99568 0.0
O245 O 0.51398 0.99674 0.00893 0.0
O246 O 0.52822 0.03994 0.98643 0.0
O247 O 0.55284 0.04595 0.01549 0.0
H248 H 0.54301 0.05834 0.10345 0.0
H249 H 0.52207 0.03507 0.13137 0.0
H250 H 0.47507 0.95559 0.09624 0.0
H251 H 0.49589 0.97912 0.06831 0.0
H252 H 0.52007 0.02349 0.9459 0.0
H253 H 0.53838 0.04722 0.9177 0.0
H254 H 0.45805 0.03888 0.90078 0.0
H255 H 0.43963 0.0143 0.92876 0.0
C256 C 1.00058 0.51613 0.06357 0.0
Eu257 Eu 0.99975 0.50214 0.0276 0.0
C258 C 0.01686 0.51954 0.08179 0.0
C259 C 0.02535 0.50013 0.08611 0.0
C260 C 0.03832 0.50219 0.1042 0.0
C261 C 0.04328 0.52386 0.11819 0.0
C262 C 0.03581 0.54391 0.11353 0.0
C263 C 0.02263 0.54169 0.09551 0.0
C264 C 0.9635 0.4521 0.00803 0.0
C265 C 0.04634 0.48326 0.0211 0.0
C266 C 0.01294 0.47835 0.95157 0.0
Eu267 Eu 0.01353 0.49366 0.98726 0.0
C268 C 0.99922 0.47651 0.93265 0.0
C269 C 0.01493 0.48244 0.91703 0.0
C270 C 0.00245 0.4801 0.89877 0.0
C271 C 0.97391 0.47156 0.89576 0.0
C272 C 0.9582 0.4659 0.91147 0.0
C273 C 0.97082 0.46857 0.92982 0.0
C274 C 0.04991 0.54399 0.00683 0.0
C275 C 0.96703 0.51291 0.99374 0.0
O276 O 0.01305 0.53464 0.05155 0.0
O277 O 0.98527 0.49044 0.05525 0.0
O278 O 0.95603 0.46528 0.01995 0.0
O279 O 0.98972 0.46463 0.00793 0.0
O280 O 0.03714 0.49599 0.03261 0.0
O281 O 0.03713 0.47632 0.00285 0.0
O282 O 0.99761 0.46095 0.96342 0.0
O283 O 0.03018 0.50368 0.95984 0.0
O284 O 0.05711 0.53088 0.9946 0.0
O285 O 0.02367 0.53131 0.00694 0.0
O286 O 0.97761 0.50203 0.9819 0.0
O287 O 0.9746 0.51803 0.01225 0.0
H288 H 0.02142 0.48301 0.07567 0.0
H289 H 0.04421 0.48669 0.10731 0.0
H290 H 0.03923 0.56073 0.12406 0.0
H291 H 0.01629 0.55689 0.09245 0.0
H292 H 0.03687 0.48862 0.91894 0.0
H293 H 0.015 0.48432 0.88691 0.0
H294 H 0.93621 0.45953 0.90957 0.0
H295 H 0.9584 0.46431 0.94172 0.0
C296 C 0.48111 0.47947 0.95172 0.0
Eu297 Eu 0.49915 0.50645 0.98565 0.0
C298 C 0.49348 0.48058 0.93362 0.0
C299 C 0.48272 0.48691 0.91737 0.0
C300 C 0.49444 0.48877 0.90019 0.0
C301 C 0.51705 0.48409 0.89885 0.0
C302 C 0.52774 0.47758 0.91509 0.0
C303 C 0.51617 0.47597 0.93234 0.0
C304 C 0.50943 0.55921 0.99556 0.0
C305 C 0.56803 0.53909 0.99026 0.0
C306 C 0.55048 0.56131 0.0582 0.0
Eu307 Eu 0.53208 0.53345 0.02449 0.0
C308 C 0.5379 0.56206 0.07578 0.0
C309 C 0.51197 0.53944 0.07923 0.0
C310 C 0.50047 0.54024 0.09616 0.0
C311 C 0.51475 0.56365 0.10995 0.0
C312 C 0.54046 0.58649 0.10619 0.0
C313 C 0.55189 0.58568 0.08925 0.0
C314 C 0.52215 0.48083 0.01459 0.0
C315 C 0.46324 0.50028 0.01985 0.0
O316 O 0.48929 0.47007 0.96588 0.0
O317 O 0.47878 0.50128 0.95717 0.0
O318 O 0.48624 0.53958 0.98624 0.0
O319 O 0.52644 0.55056 0.99836 0.0
O320 O 0.54406 0.52018 0.98049 0.0
O321 O 0.56892 0.55079 0.00734 0.0
O322 O 0.54334 0.57087 0.0437 0.0
O323 O 0.55078 0.53815 0.0534 0.0
O324 O 0.5452 0.50055 0.024 0.0
O325 O 0.5049 0.4892 0.0118 0.0
O326 O 0.48706 0.51991 0.02941 0.0
O327 O 0.46264 0.48817 0.00301 0.0
H328 H 0.46522 0.49049 0.91797 0.0
H329 H 0.48551 0.49344 0.88786 0.0
H330 H 0.54525 0.47403 0.9145 0.0
H331 H 0.5251 0.47123 0.94464 0.0
H332 H 0.50079 0.52104 0.06893 0.0
H333 H 0.48074 0.52224 0.09864 0.0
H334 H 0.55174 0.60504 0.11635 0.0
H335 H 0.57177 0.60345 0.08671 0.0
C336 C 0.20019 0.34892 0.3943 0.0
Eu337 Eu 0.17997 0.34746 0.35982 0.0
C338 C 0.18855 0.33571 0.41152 0.0
C339 C 0.19843 0.35195 0.42921 0.0
C340 C 0.18675 0.34033 0.44565 0.0
C341 C 0.16495 0.31217 0.44471 0.0
C342 C 0.15519 0.29587 0.42694 0.0
C343 C 0.16683 0.30756 0.41047 0.0
C344 C 0.16698 0.3854 0.34714 0.0
C345 C 0.11182 0.30393 0.35487 0.0
C346 C 0.12776 0.33068 0.28636 0.0
Eu347 Eu 0.14738 0.33078 0.32073 0.0
C348 C 0.14018 0.34534 0.26978 0.0
C349 C 0.16784 0.35324 0.2667 0.0
C350 C 0.17922 0.36657 0.25065 0.0
C351 C 0.16316 0.3723 0.23746 0.0
C352 C 0.13573 0.36504 0.2409 0.0
C353 C 0.12435 0.35165 0.25694 0.0
C354 C 0.16065 0.29293 0.33311 0.0
C355 C 0.21565 0.37345 0.32574 0.0
O356 O 0.19956 0.33239 0.37995 0.0
O357 O 0.19321 0.36717 0.38904 0.0
O358 O 0.19054 0.39232 0.3568 0.0
O359 O 0.15097 0.35904 0.34538 0.0
O360 O 0.13624 0.31325 0.36499 0.0
O361 O 0.11022 0.31103 0.33752 0.0
O362 O 0.12787 0.34648 0.30095 0.0
O363 O 0.13466 0.31223 0.29131 0.0
O364 O 0.13713 0.28598 0.32334 0.0
O365 O 0.17658 0.31932 0.33503 0.0
O366 O 0.19131 0.36492 0.31573 0.0
O367 O 0.21701 0.36592 0.34296 0.0
H368 H 0.21499 0.37378 0.43027 0.0
H369 H 0.19449 0.35355 0.45907 0.0
H370 H 0.13872 0.27402 0.42578 0.0
H371 H 0.15876 0.29463 0.39694 0.0
H372 H 0.18056 0.34886 0.27658 0.0
H373 H 0.20053 0.37228 0.2485 0.0
H374 H 0.12278 0.36899 0.23091 0.0
H375 H 0.10305 0.34589 0.25919 0.0
C376 C 0.67102 0.86418 0.39144 0.0
Eu377 Eu 0.66466 0.84116 0.35694 0.0
C378 C 0.68418 0.86347 0.40999 0.0
C379 C 0.66798 0.85496 0.42535 0.0
C380 C 0.67949 0.85289 0.44286 0.0
C381 C 0.70753 0.85947 0.4454 0.0
C382 C 0.72388 0.86828 0.43007 0.0
C383 C 0.71229 0.87014 0.41248 0.0
C384 C 0.6247 0.78776 0.34419 0.0
C385 C 0.70582 0.8144 0.35445 0.0
C386 C 0.66477 0.79336 0.28509 0.0
Eu387 Eu 0.67188 0.819 0.31887 0.0
C388 C 0.65262 0.79269 0.26593 0.0
C389 C 0.64666 0.81371 0.26125 0.0
C390 C 0.63643 0.81349 0.24264 0.0
C391 C 0.63198 0.79221 0.22846 0.0
C392 C 0.63734 0.77082 0.23344 0.0
C393 C 0.64761 0.77111 0.25201 0.0
C394 C 0.71217 0.87252 0.33143 0.0
C395 C 0.63151 0.84677 0.32143 0.0
O396 O 0.68762 0.87701 0.37851 0.0
O397 O 0.64873 0.84063 0.38441 0.0
O398 O 0.61942 0.80614 0.35225 0.0
O399 O 0.6506 0.79812 0.34336 0.0
O400 O 0.69975 0.83187 0.36383 0.0
O401 O 0.6938 0.80252 0.33718 0.0
O402 O 0.6472 0.78262 0.29786 0.0
O403 O 0.68738 0.81692 0.29168 0.0
O404 O 0.71696 0.8545 0.32225 0.0
O405 O 0.68631 0.86208 0.33259 0.0
O406 O 0.63721 0.82899 0.31203 0.0
O407 O 0.64361 0.85863 0.33872 0.0
H408 H 0.6463 0.84975 0.42376 0.0
H409 H 0.66653 0.84648 0.45451 0.0
H410 H 0.74553 0.87339 0.43163 0.0
H411 H 0.72526 0.87658 0.40084 0.0
H412 H 0.65034 0.8305 0.2719 0.0
H413 H 0.63265 0.83033 0.23926 0.0
H414 H 0.63358 0.75381 0.22297 0.0
H415 H 0.6519 0.75461 0.25546 0.0
C416 C 0.13925 0.81909 0.2812 0.0
Eu417 Eu 0.15819 0.83933 0.31655 0.0
C418 C 0.1517 0.81949 0.26331 0.0
C419 C 0.14258 0.82743 0.24714 0.0
C420 C 0.15453 0.82871 0.23014 0.0
C421 C 0.17576 0.82188 0.22892 0.0
C422 C 0.18489 0.81394 0.24518 0.0
C423 C 0.17305 0.81284 0.26223 0.0
C424 C 0.1723 0.89201 0.33027 0.0
C425 C 0.22616 0.86417 0.32192 0.0
C426 C 0.20801 0.8825 0.39057 0.0
Eu427 Eu 0.18982 0.85892 0.35577 0.0
C428 C 0.1951 0.88398 0.40795 0.0
C429 C 0.20225 0.87558 0.4247 0.0
C430 C 0.18992 0.87605 0.44125 0.0
C431 C 0.17025 0.88511 0.44146 0.0
C432 C 0.16318 0.89372 0.4247 0.0
C433 C 0.17538 0.89302 0.40806 0.0
C434 C 0.1754 0.80566 0.34283 0.0
C435 C 0.12158 0.83159 0.35048 0.0
O436 O 0.14225 0.80454 0.29416 0.0
O437 O 0.14293 0.84325 0.2884 0.0
O438 O 0.1481 0.87416 0.32131 0.0
O439 O 0.18793 0.8815 0.33158 0.0
O440 O 0.20192 0.84828 0.31144 0.0
O441 O 0.2275 0.87446 0.33954 0.0
O442 O 0.20559 0.89577 0.37647 0.0
O443 O 0.2045 0.85781 0.38484 0.0
O444 O 0.1986 0.82297 0.35325 0.0
O445 O 0.16011 0.81652 0.3407 0.0
O446 O 0.14569 0.84874 0.36076 0.0
O447 O 0.12066 0.82112 0.333 0.0
H448 H 0.12631 0.83287 0.24771 0.0
H449 H 0.1473 0.83533 0.21799 0.0
H450 H 0.20091 0.80816 0.24467 0.0
H451 H 0.1806 0.80678 0.27453 0.0
H452 H 0.21741 0.86858 0.42497 0.0
H453 H 0.19612 0.86973 0.45401 0.0
H454 H 0.14801 0.90069 0.42441 0.0
H455 H 0.16929 0.89945 0.39531 0.0
C456 C 0.86234 0.69511 0.73284 0.0
Eu457 Eu 0.84487 0.68745 0.69681 0.0
C458 C 0.85238 0.67967 0.74955 0.0
C459 C 0.86247 0.69416 0.76777 0.0
C460 C 0.85208 0.68027 0.78382 0.0
C461 C 0.83138 0.65156 0.78192 0.0
C462 C 0.82147 0.63704 0.76356 0.0
C463 C 0.83185 0.65101 0.74751 0.0
C464 C 0.83136 0.72161 0.67868 0.0
C465 C 0.7784 0.63883 0.68972 0.0
C466 C 0.79859 0.65883 0.62088 0.0
Eu467 Eu 0.81659 0.66453 0.65659 0.0
C468 C 0.80968 0.67348 0.60403 0.0
C469 C 0.80319 0.65762 0.58635 0.0
C470 C 0.81411 0.67084 0.57019 0.0
C471 C 0.83171 0.70023 0.57142 0.0
C472 C 0.8381 0.71616 0.58917 0.0
C473 C 0.82729 0.70287 0.60539 0.0
C474 C 0.83066 0.63034 0.67422 0.0
C475 C 0.88353 0.71197 0.66357 0.0
O476 O 0.87061 0.68385 0.71977 0.0
O477 O 0.84703 0.70497 0.72567 0.0
O478 O 0.85374 0.73061 0.69032 0.0
O479 O 0.81626 0.69516 0.67797 0.0
O480 O 0.80211 0.65071 0.70104 0.0
O481 O 0.77784 0.64386 0.67174 0.0
O482 O 0.7933 0.67243 0.63429 0.0
O483 O 0.8107 0.64546 0.62756 0.0
O484 O 0.80885 0.6213 0.66197 0.0
O485 O 0.84541 0.65688 0.6754 0.0
O486 O 0.86016 0.69921 0.65189 0.0
O487 O 0.88384 0.70857 0.68188 0.0
H488 H 0.8781 0.71637 0.76957 0.0
H489 H 0.85984 0.6922 0.79771 0.0
H490 H 0.80576 0.61488 0.76161 0.0
H491 H 0.82366 0.63951 0.73353 0.0
H492 H 0.78971 0.63494 0.58505 0.0
H493 H 0.80848 0.65806 0.55666 0.0
H494 H 0.85172 0.73882 0.59055 0.0
H495 H 0.83278 0.71551 0.61897 0.0
C496 C 0.33864 0.19155 0.72839 0.0
Eu497 Eu 0.33398 0.17 0.69371 0.0
C498 C 0.35257 0.19224 0.74694 0.0
C499 C 0.3373 0.18589 0.76279 0.0
C500 C 0.34957 0.18535 0.78044 0.0
C501 C 0.37742 0.19127 0.7826 0.0
C502 C 0.3928 0.19779 0.76671 0.0
C503 C 0.38043 0.19815 0.74899 0.0
C504 C 0.29441 0.11721 0.67951 0.0
C505 C 0.3768 0.14518 0.69032 0.0
C506 C 0.33549 0.12673 0.62081 0.0
Eu507 Eu 0.34236 0.15027 0.65518 0.0
C508 C 0.31952 0.12406 0.60265 0.0
C509 C 0.33359 0.13127 0.58628 0.0
C510 C 0.3194 0.13001 0.56897 0.0
C511 C 0.29078 0.12132 0.56765 0.0
C512 C 0.27654 0.11378 0.58401 0.0
C513 C 0.29084 0.1153 0.60143 0.0
C514 C 0.38222 0.20316 0.66914 0.0
C515 C 0.30101 0.17676 0.65854 0.0
O516 O 0.35466 0.2057 0.71554 0.0
O517 O 0.31791 0.1669 0.72133 0.0
O518 O 0.28879 0.13502 0.68805 0.0
O519 O 0.32038 0.12781 0.67896 0.0
O520 O 0.36953 0.16122 0.7003 0.0
O521 O 0.36573 0.13451 0.67268 0.0
O522 O 0.32124 0.11313 0.63452 0.0
O523 O 0.35596 0.15209 0.62681 0.0
O524 O 0.38741 0.18571 0.65957 0.0
O525 O 0.35627 0.19254 0.67002 0.0
O526 O 0.30726 0.15977 0.64868 0.0
O527 O 0.31257 0.18759 0.67607 0.0
H528 H 0.31579 0.18124 0.76148 0.0
H529 H 0.33736 0.18069 0.7925 0.0
H530 H 0.41426 0.20231 0.76797 0.0
H531 H 0.3926 0.20291 0.73691 0.0
H532 H 0.35567 0.13806 0.58693 0.0
H533 H 0.33077 0.13552 0.55652 0.0
H534 H 0.25449 0.1071 0.58337 0.0
H535 H 0.27953 0.10983 0.61391 0.0
C536 C 0.81104 0.14121 0.61696 0.0
Eu537 Eu 0.83044 0.16628 0.65136 0.0
C538 C 0.82327 0.1409 0.59904 0.0
C539 C 0.81133 0.1444 0.58214 0.0
C540 C 0.82313 0.14545 0.56509 0.0
C541 C 0.84709 0.1428 0.56451 0.0
C542 C 0.85904 0.13927 0.58152 0.0
C543 C 0.84731 0.13843 0.59863 0.0
C544 C 0.84259 0.21956 0.66222 0.0
C545 C 0.8986 0.19499 0.65541 0.0
C546 C 0.88431 0.21773 0.72374 0.0
Eu547 Eu 0.86419 0.19148 0.68973 0.0
C548 C 0.8728 0.21882 0.74184 0.0
C549 C 0.88258 0.21191 0.75823 0.0
C550 C 0.87177 0.21229 0.77549 0.0
C551 C 0.85107 0.21986 0.7768 0.0
C552 C 0.84122 0.22674 0.76032 0.0
C553 C 0.85193 0.22618 0.743 0.0
C554 C 0.85214 0.13823 0.67906 0.0
C555 C 0.79558 0.16144 0.68595 0.0
O556 O 0.81624 0.12935 0.63092 0.0
O557 O 0.81261 0.165 0.62274 0.0
O558 O 0.81888 0.20037 0.65328 0.0
O559 O 0.85915 0.2102 0.66428 0.0
O560 O 0.8743 0.17571 0.64632 0.0
O561 O 0.90031 0.20849 0.67192 0.0
O562 O 0.8784 0.22885 0.70964 0.0
O563 O 0.88298 0.19393 0.71828 0.0
O564 O 0.87584 0.15751 0.68799 0.0
O565 O 0.83543 0.14742 0.6769 0.0
O566 O 0.81994 0.18016 0.69538 0.0
O567 O 0.79408 0.14921 0.66892 0.0
H568 H 0.79299 0.14668 0.58217 0.0
H569 H 0.81365 0.14875 0.5524 0.0
H570 H 0.87729 0.13686 0.58161 0.0
H571 H 0.85713 0.13596 0.61152 0.0
H572 H 0.89853 0.20603 0.75765 0.0
H573 H 0.8795 0.2064 0.78779 0.0
H574 H 0.82554 0.23299 0.76086 0.0
H575 H 0.84388 0.23154 0.73057 0.0
C576 C 0.3066 0.88019 0.07111 0.0
C577 C 0.29914 0.85178 0.06791 0.0
C578 C 0.33049 0.90145 0.06411 0.0
C579 C 0.34741 0.89415 0.0537 0.0
C580 C 0.33999 0.8655 0.05041 0.0
C581 C 0.31591 0.84467 0.05751 0.0
C582 C 0.3376 0.93171 0.06782 0.0
C583 C 0.35763 0.8569 0.03953 0.0
C584 C 0.39605 0.94527 0.02108 0.0
C585 C 0.42194 0.95803 0.03225 0.0
C586 C 0.37159 0.92465 0.02795 0.0
C587 C 0.37303 0.91649 0.0464 0.0
C588 C 0.39902 0.92946 0.05781 0.0
C589 C 0.42311 0.95011 0.05064 0.0
C590 C 0.34423 0.91139 0.01538 0.0
C591 C 0.40145 0.92137 0.07757 0.0
H592 H 0.29353 0.8858 0.07891 0.0
H593 H 0.31045 0.82279 0.05518 0.0
H594 H 0.35859 0.9444 0.07589 0.0
H595 H 0.33846 0.94082 0.05414 0.0
H596 H 0.32214 0.93385 0.076 0.0
H597 H 0.3489 0.83373 0.03808 0.0
H598 H 0.35929 0.86408 0.0251 0.0
H599 H 0.37916 0.86718 0.04687 0.0
H600 H 0.39487 0.95122 0.00687 0.0
H601 H 0.44294 0.95981 0.05943 0.0
H602 H 0.32855 0.91425 0.02275 0.0
H603 H 0.3358 0.88839 0.01251 0.0
H604 H 0.3465 0.92051 0.00157 0.0
H605 H 0.38848 0.92613 0.08676 0.0
H606 H 0.42337 0.93269 0.08433 0.0
H607 H 0.39342 0.89838 0.07701 0.0
C608 C 0.14669 0.43308 0.06848 0.0
C609 C 0.175 0.45374 0.06898 0.0
C610 C 0.12559 0.43702 0.05987 0.0
C611 C 0.13298 0.4623 0.05161 0.0
C612 C 0.16156 0.48292 0.0516 0.0
C613 C 0.18227 0.47835 0.06024 0.0
C614 C 0.09537 0.41444 0.06004 0.0
C615 C 0.17023 0.51016 0.04297 0.0
C616 C 0.07879 0.46429 0.01713 0.0
C617 C 0.06815 0.47739 0.0289 0.0
C618 C 0.09994 0.45929 0.02431 0.0
C619 C 0.11073 0.4676 0.0437 0.0
C620 C 0.10002 0.48073 0.05567 0.0
C621 C 0.07887 0.48544 0.04813 0.0
C622 C 0.11076 0.4451 0.01115 0.0
C623 C 0.11094 0.48987 0.07644 0.0
H624 H 0.14102 0.41385 0.07499 0.0
H625 H 0.20411 0.49445 0.06074 0.0
H626 H 0.08437 0.42282 0.06847 0.0
H627 H 0.08465 0.40806 0.04535 0.0
H628 H 0.09322 0.39544 0.06623 0.0
H629 H 0.19331 0.52341 0.04328 0.0
H630 H 0.1608 0.50577 0.02799 0.0
H631 H 0.16235 0.52238 0.05087 0.0
H632 H 0.07068 0.458 0.00226 0.0
H633 H 0.07085 0.49559 0.05737 0.0
H634 H 0.10764 0.42538 0.01666 0.0
H635 H 0.13357 0.45899 0.01063 0.0
H636 H 0.10016 0.43992 0.99644 0.0
H637 H 0.1079 0.47145 0.08382 0.0
H638 H 0.10036 0.49978 0.08382 0.0
H639 H 0.13375 0.50515 0.07783 0.0
C640 C 0.52303 0.68945 0.05959 0.0
C641 C 0.53364 0.71446 0.05075 0.0
C642 C 0.51893 0.66446 0.04995 0.0
C643 C 0.52521 0.66428 0.03087 0.0
C644 C 0.53523 0.6892 0.02166 0.0
C645 C 0.53943 0.71402 0.03173 0.0
C646 C 0.50829 0.63833 0.06029 0.0
C647 C 0.54198 0.68975 0.00129 0.0
C648 C 0.54008 0.60704 0.0129 0.0
C649 C 0.51405 0.5868 0.00348 0.0
C650 C 0.54412 0.63254 0.02167 0.0
C651 C 0.5217 0.63806 0.02072 0.0
C652 C 0.49563 0.61804 0.01066 0.0
C653 C 0.49209 0.59258 0.00221 0.0
C654 C 0.57216 0.65323 0.03239 0.0
C655 C 0.4713 0.62324 0.0092 0.0
H656 H 0.51799 0.68943 0.07416 0.0
H657 H 0.54794 0.73327 0.02484 0.0
H658 H 0.48864 0.62099 0.05251 0.0
H659 H 0.5238 0.63114 0.06081 0.0
H660 H 0.50424 0.64194 0.07509 0.0
H661 H 0.54844 0.71048 0.99593 0.0
H662 H 0.55915 0.68504 1.00009 0.0
H663 H 0.52351 0.67322 0.99196 0.0
H664 H 0.55719 0.60275 0.01368 0.0
H665 H 0.47195 0.57698 0.99487 0.0
H666 H 0.56966 0.65606 0.04767 0.0
H667 H 0.5806 0.67413 0.02692 0.0
H668 H 0.5877 0.64618 0.03125 0.0
H669 H 0.46488 0.62473 0.02357 0.0
H670 H 0.45292 0.60625 1.0 0.0
H671 H 0.4776 0.6436 0.00335 0.0
C672 C 0.86413 0.30296 0.94739 0.0
C673 C 0.83599 0.29516 0.94828 0.0
C674 C 0.88577 0.32812 0.95719 0.0
C675 C 0.87912 0.34603 0.96804 0.0
C676 C 0.85072 0.33815 0.96915 0.0
C677 C 0.82947 0.3127 0.95933 0.0
C678 C 0.91576 0.33561 0.95584 0.0
C679 C 0.8428 0.35683 0.98044 0.0
C680 C 0.9328 0.40033 0.00668 0.0
C681 C 0.9438 0.42481 0.9974 0.0
C682 C 0.91204 0.37438 0.99718 0.0
C683 C 0.90187 0.37317 0.97808 0.0
C684 C 0.91313 0.39801 0.96868 0.0
C685 C 0.93406 0.4236 0.9785 0.0
C686 C 0.9007 0.34838 0.00765 0.0
C687 C 0.90273 0.39763 0.94838 0.0
H688 H 0.86922 0.28926 0.93904 0.0
H689 H 0.80775 0.30685 0.9599 0.0
H690 H 0.92713 0.35573 0.9494 0.0
H691 H 0.92649 0.3388 0.97029 0.0
H692 H 0.91738 0.31907 0.94717 0.0
H693 H 0.81978 0.34754 0.98001 0.0
H694 H 0.85171 0.36065 0.9955 0.0
H695 H 0.85176 0.37762 0.97473 0.0
H696 H 0.94025 0.40159 0.02143 0.0
H697 H 0.94229 0.44281 0.97158 0.0
H698 H 0.90288 0.33176 0.9996 0.0
H699 H 0.87805 0.33983 0.00878 0.0
H700 H 0.91158 0.35271 0.02221 0.0
H701 H 0.90687 0.38368 0.93883 0.0
H702 H 0.91287 0.41894 0.94338 0.0
H703 H 0.87977 0.38895 0.94703 0.0
C704 C 0.70915 0.58339 0.94022 0.0
C705 C 0.71624 0.56241 0.94223 0.0
C706 C 0.68597 0.58195 0.94829 0.0
C707 C 0.66949 0.55899 0.9586 0.0
C708 C 0.6768 0.538 0.96093 0.0
C709 C 0.70004 0.53995 0.95271 0.0
C710 C 0.67882 0.60473 0.94552 0.0
C711 C 0.65969 0.51311 0.97176 0.0
C712 C 0.62041 0.56238 0.99265 0.0
C713 C 0.59436 0.54638 0.98181 0.0
C714 C 0.6452 0.56734 0.98511 0.0
C715 C 0.64387 0.55611 0.96629 0.0
C716 C 0.61774 0.54076 0.95508 0.0
C717 C 0.59335 0.53604 0.96298 0.0
C718 C 0.67269 0.58384 0.99749 0.0
C719 C 0.6154 0.52853 0.93491 0.0
H720 H 0.72177 0.60098 0.93234 0.0
H721 H 0.70512 0.52345 0.9541 0.0
H722 H 0.65791 0.59549 0.93737 0.0
H723 H 0.67771 0.61415 0.95951 0.0
H724 H 0.69436 0.62174 0.93777 0.0
H725 H 0.66886 0.49925 0.97297 0.0
H726 H 0.658 0.52049 0.98629 0.0
H727 H 0.63814 0.50042 0.96448 0.0
H728 H 0.62142 0.57045 0.0072 0.0
H729 H 0.57337 0.52381 0.9544 0.0
H730 H 0.6881 0.60135 0.99005 0.0
H731 H 0.68142 0.56995 0.00029 0.0
H732 H 0.67043 0.59271 0.01135 0.0
H733 H 0.63023 0.54498 0.92652 0.0
H734 H 0.59393 0.51927 0.92757 0.0
H735 H 0.62105 0.51181 0.93503 0.0
C736 C 0.44991 0.15372 0.95804 0.0
C737 C 0.47254 0.18118 0.9582 0.0
C738 C 0.45301 0.13317 0.96698 0.0
C739 C 0.47949 0.14017 0.97602 0.0
C740 C 0.50242 0.1679 0.97621 0.0
C741 C 0.4986 0.18814 0.96743 0.0
C742 C 0.42797 0.10401 0.96676 0.0
C743 C 0.53108 0.17607 0.98545 0.0
C744 C 0.48537 0.09705 0.01413 0.0
C745 C 0.49289 0.07979 0.00385 0.0
C746 C 0.48016 0.11627 0.00512 0.0
C747 C 0.48323 0.11862 0.98546 0.0
C748 C 0.49073 0.101 0.97502 0.0
C749 C 0.4954 0.08169 0.98438 0.0
C750 C 0.47182 0.13436 0.01668 0.0
C751 C 0.49456 0.10305 0.95411 0.0
H752 H 0.42971 0.14837 0.95098 0.0
H753 H 0.51618 0.20928 0.96735 0.0
H754 H 0.43216 0.08825 0.95952 0.0
H755 H 0.42407 0.09861 0.98156 0.0
H756 H 0.40872 0.10211 0.9594 0.0
H757 H 0.54679 0.19838 0.98412 0.0
H758 H 0.53012 0.17289 0.00078 0.0
H759 H 0.53832 0.16234 0.97885 0.0
H760 H 0.48373 0.09559 0.02926 0.0
H761 H 0.50188 0.0687 0.9766 0.0
H762 H 0.45208 0.13205 0.00993 0.0
H763 H 0.48814 0.15686 0.01707 0.0
H764 H 0.46884 0.12884 0.03154 0.0
H765 H 0.47512 0.09952 0.94602 0.0
H766 H 0.50002 0.08751 0.94803 0.0
H767 H 0.51143 0.12453 0.952 0.0
C768 C 0.6898 0.12906 0.94371 0.0
C769 C 0.70338 0.15841 0.9476 0.0
C770 C 0.6655 0.11147 0.95211 0.0
C771 C 0.65433 0.12356 0.96456 0.0
C772 C 0.66794 0.15323 0.9685 0.0
C773 C 0.6924 0.17032 0.96003 0.0
C774 C 0.65173 0.07994 0.94764 0.0
C775 C 0.65649 0.16693 0.9815 0.0
C776 C 0.57729 0.07949 0.97158 0.0
C777 C 0.57838 0.06964 0.98929 0.0
C778 C 0.60181 0.09718 0.96345 0.0
C779 C 0.62816 0.10515 0.9732 0.0
C780 C 0.62945 0.09534 0.99109 0.0
C781 C 0.60454 0.0778 0.99897 0.0
C782 C 0.59945 0.10728 0.9444 0.0
C783 C 0.65715 0.1032 0.00183 0.0
H784 H 0.69828 0.11984 0.93409 0.0
H785 H 0.70271 0.19302 0.96301 0.0
H786 H 0.65011 0.06986 0.961 0.0
H787 H 0.63013 0.07135 0.94078 0.0
H788 H 0.66343 0.07386 0.93805 0.0
H789 H 0.66961 0.19027 0.98319 0.0
H790 H 0.63497 0.16101 0.97577 0.0
H791 H 0.65514 0.15925 0.99576 0.0
H792 H 0.55721 0.07356 0.96405 0.0
H793 H 0.60559 0.07025 0.01262 0.0
H794 H 0.60879 0.09968 0.93379 0.0
H795 H 0.61133 0.13064 0.94556 0.0
H796 H 0.5774 0.09983 0.93895 0.0
H797 H 0.66875 0.09597 0.99304 0.0
H798 H 0.65459 0.09385 0.01558 0.0
H799 H 0.67021 0.12643 0.00473 0.0
C800 C 0.83216 0.50476 0.94135 0.0
C801 C 0.83093 0.52944 0.94454 0.0
C802 C 0.8544 0.50258 0.94996 0.0
C803 C 0.87644 0.52609 0.96144 0.0
C804 C 0.87546 0.55126 0.96446 0.0
C805 C 0.85243 0.55248 0.95621 0.0
C806 C 0.85424 0.4751 0.94686 0.0
C807 C 0.89899 0.57705 0.97609 0.0
C808 C 0.92284 0.51373 0.99662 0.0
C809 C 0.94494 0.51817 0.98597 0.0
C810 C 0.90038 0.51626 0.98882 0.0
C811 C 0.90055 0.5243 0.97016 0.0
C812 C 0.92334 0.52974 0.95961 0.0
C813 C 0.94504 0.5261 0.96752 0.0
C814 C 0.87603 0.50937 0.00028 0.0
C815 C 0.9247 0.53915 0.93989 0.0
H816 H 0.81545 0.48698 0.93231 0.0
H817 H 0.85164 0.57172 0.95845 0.0
H818 H 0.87243 0.47824 0.93936 0.0
H819 H 0.85624 0.46761 0.96078 0.0
H820 H 0.83483 0.4584 0.93838 0.0
H821 H 0.89532 0.59516 0.97672 0.0
H822 H 0.90159 0.57224 0.99081 0.0
H823 H 0.91896 0.58336 0.96988 0.0
H824 H 0.92257 0.50721 0.0108 0.0
H825 H 0.96219 0.5296 0.95931 0.0
H826 H 0.85659 0.49158 0.99257 0.0
H827 H 0.87275 0.52765 0.00205 0.0
H828 H 0.87919 0.50353 0.0146 0.0
H829 H 0.90746 0.52215 0.92999 0.0
H830 H 0.94487 0.54462 0.93421 0.0
H831 H 0.9219 0.55778 0.94006 0.0
C832 C 0.50087 0.33496 0.96787 0.0
C833 C 0.49242 0.31442 0.98071 0.0
C834 C 0.50553 0.36202 0.97335 0.0
C835 C 0.50152 0.36867 0.99211 0.0
C836 C 0.49309 0.34805 0.00516 0.0
C837 C 0.48876 0.32118 0.99931 0.0
C838 C 0.51476 0.3835 0.95908 0.0
C839 C 0.48851 0.35433 0.02526 0.0
C840 C 0.53817 0.44589 0.01144 0.0
C841 C 0.51661 0.45212 0.00887 0.0
C842 C 0.53351 0.4188 0.00611 0.0
C843 C 0.50658 0.39737 0.99811 0.0
C844 C 0.48468 0.40354 0.99554 0.0
C845 C 0.49 0.43091 0.00091 0.0
C846 C 0.55746 0.41316 0.00891 0.0
C847 C 0.45568 0.38125 0.9871 0.0
H848 H 0.50389 0.32997 0.95347 0.0
H849 H 0.48217 0.3053 0.00923 0.0
H850 H 0.49943 0.39075 0.95697 0.0
H851 H 0.53516 0.40224 0.96454 0.0
H852 H 0.51692 0.37498 0.94505 0.0
H853 H 0.48168 0.33591 0.03359 0.0
H854 H 0.50812 0.37221 0.03269 0.0
H855 H 0.47242 0.36074 0.02503 0.0
H856 H 0.55881 0.4623 0.01753 0.0
H857 H 0.47329 0.43568 0.99895 0.0
H858 H 0.5614 0.40607 0.99503 0.0
H859 H 0.55198 0.39597 0.01819 0.0
H860 H 0.57709 0.43209 0.01541 0.0
H861 H 0.4565 0.37327 0.97252 0.0
H862 H 0.44086 0.38932 0.98637 0.0
H863 H 0.4474 0.3631 0.99572 0.0
C864 C 0.1346 0.70602 0.04824 0.0
C865 C 0.16333 0.71596 0.05153 0.0
C866 C 0.11584 0.67804 0.04088 0.0
C867 C 0.12603 0.65938 0.03714 0.0
C868 C 0.15507 0.66928 0.0406 0.0
C869 C 0.17345 0.69758 0.04759 0.0
C870 C 0.08513 0.66847 0.03704 0.0
C871 C 0.16666 0.64989 0.03712 0.0
C872 C 0.07382 0.58081 0.03429 0.0
C873 C 0.06873 0.5734 0.01463 0.0
C874 C 0.09263 0.60872 0.04187 0.0
C875 C 0.10631 0.62961 0.02939 0.0
C876 C 0.10102 0.62208 0.00946 0.0
C877 C 0.08252 0.59393 0.00233 0.0
C878 C 0.09814 0.61576 0.06321 0.0
C879 C 0.11476 0.64377 0.99568 0.0
H880 H 0.12681 0.72027 0.05134 0.0
H881 H 0.19564 0.70513 0.05033 0.0
H882 H 0.07781 0.66014 0.02187 0.0
H883 H 0.07272 0.65107 0.0457 0.0
H884 H 0.08068 0.68576 0.04035 0.0
H885 H 0.18964 0.66068 0.04096 0.0
H886 H 0.15641 0.63165 0.04556 0.0
H887 H 0.16201 0.64141 0.02191 0.0
H888 H 0.06373 0.56465 0.04374 0.0
H889 H 0.07856 0.58796 0.98709 0.0
H890 H 0.09282 0.63209 0.06753 0.0
H891 H 0.12072 0.6246 0.06773 0.0
H892 H 0.08588 0.59705 0.07092 0.0
H893 H 0.10973 0.66081 0.99807 0.0
H894 H 0.10793 0.63456 0.9806 0.0
H895 H 0.13783 0.65361 0.99813 0.0
C896 C 0.31997 0.47536 0.05725 0.0
C897 C 0.30975 0.45411 0.06954 0.0
C898 C 0.34495 0.483 0.04908 0.0
C899 C 0.35995 0.46898 0.05326 0.0
C900 C 0.34967 0.44751 0.06566 0.0
C901 C 0.32471 0.44039 0.07368 0.0
C902 C 0.35535 0.50611 0.036 0.0
C903 C 0.36503 0.43206 0.07044 0.0
C904 C 0.41104 0.47084 0.01902 0.0
C905 C 0.43677 0.49192 0.02842 0.0
C906 C 0.38588 0.46313 0.02696 0.0
C907 C 0.38645 0.47684 0.04471 0.0
C908 C 0.41234 0.49805 0.05431 0.0
C909 C 0.43715 0.50535 0.04604 0.0
C910 C 0.35866 0.44035 0.01634 0.0
C911 C 0.41388 0.51312 0.07329 0.0
H912 H 0.30854 0.48612 0.05405 0.0
H913 H 0.31682 0.42398 0.0832 0.0
H914 H 0.37651 0.52341 0.04173 0.0
H915 H 0.35722 0.49789 0.0218 0.0
H916 H 0.34125 0.51493 0.0342 0.0
H917 H 0.35416 0.41578 0.08025 0.0
H918 H 0.3672 0.42171 0.05723 0.0
H919 H 0.38646 0.4472 0.07717 0.0
H920 H 0.41051 0.46034 0.00542 0.0
H921 H 0.45686 0.52175 0.05341 0.0
H922 H 0.34458 0.44884 0.01318 0.0
H923 H 0.34784 0.42289 0.02531 0.0
H924 H 0.3618 0.43164 0.00273 0.0
H925 H 0.4014 0.52376 0.07191 0.0
H926 H 0.4357 0.5291 0.0789 0.0
H927 H 0.40471 0.49771 0.08387 0.0
C928 C 0.56512 0.87601 0.03802 0.0
C929 C 0.5474 0.85484 0.04877 0.0
C930 C 0.55762 0.89498 0.03105 0.0
C931 C 0.53243 0.89347 0.03573 0.0
C932 C 0.51487 0.87254 0.0471 0.0
C933 C 0.5223 0.85305 0.05314 0.0
C934 C 0.57636 0.91624 0.01837 0.0
C935 C 0.48842 0.87093 0.05303 0.0
C936 C 0.52669 0.95902 0.03109 0.0
C937 C 0.5082 0.951 0.01456 0.0
C938 C 0.53429 0.94031 0.03842 0.0
C939 C 0.52416 0.9134 0.02842 0.0
C940 C 0.50607 0.90551 0.01138 0.0
C941 C 0.49786 0.92419 0.00488 0.0
C942 C 0.55278 0.94918 0.057 0.0
C943 C 0.49559 0.87745 0.99992 0.0
H944 H 0.58451 0.87724 0.03465 0.0
H945 H 0.50883 0.83684 0.0617 0.0
H946 H 0.56432 0.91377 0.00458 0.0
H947 H 0.58405 0.93792 0.02504 0.0
H948 H 0.5947 0.91398 0.01554 0.0
H949 H 0.47806 0.85459 0.06289 0.0
H950 H 0.49325 0.89161 0.06014 0.0
H951 H 0.47346 0.86607 0.04031 0.0
H952 H 0.53471 0.97965 0.03853 0.0
H953 H 0.48369 0.91798 0.99198 0.0
H954 H 0.57285 0.95017 0.05465 0.0
H955 H 0.54255 0.93336 0.06719 0.0
H956 H 0.5574 0.97009 0.06359 0.0
H957 H 0.51354 0.87493 0.99642 0.0
H958 H 0.48291 0.87517 0.98645 0.0
H959 H 0.48258 0.86007 0.0084 0.0
C960 C 0.98123 0.16991 0.38887 0.0
C961 C 0.96468 0.17641 0.40001 0.0
C962 C 0.00459 0.19113 0.38132 0.0
C963 C 0.01164 0.21963 0.38493 0.0
C964 C 0.99482 0.22632 0.39596 0.0
C965 C 0.97161 0.20467 0.40338 0.0
C966 C 0.02204 0.18307 0.36974 0.0
C967 C 1.00151 0.25639 0.40008 0.0
C968 C 0.0873 0.27557 0.38123 0.0
C969 C 0.08583 0.2837 0.36294 0.0
C970 C 0.0633 0.25513 0.38865 0.0
C971 C 0.03703 0.24243 0.37757 0.0
C972 C 0.03525 0.25095 0.35928 0.0
C973 C 0.05963 0.27144 0.35218 0.0
C974 C 0.06617 0.24675 0.40823 0.0
C975 C 0.00764 0.23801 0.34704 0.0
H976 H 0.97631 0.14822 0.3864 0.0
H977 H 0.95876 0.20988 0.41177 0.0
H978 H 0.02338 0.19085 0.35552 0.0
H979 H 0.04369 0.19317 0.37687 0.0
H980 H 0.01338 0.15993 0.3678 0.0
H981 H 0.98596 0.25803 0.40845 0.0
H982 H 0.02252 0.26912 0.40813 0.0
H983 H 0.00216 0.26581 0.38655 0.0
H984 H 0.10734 0.2849 0.38974 0.0
H985 H 0.05818 0.2775 0.33805 0.0
H986 H 0.05959 0.22405 0.40725 0.0
H987 H 0.05225 0.24986 0.41747 0.0
H988 H 0.08796 0.25905 0.41517 0.0
H989 H 0.99935 0.21512 0.34363 0.0
H990 H 0.00953 0.24776 0.3335 0.0
H991 H 0.99205 0.24034 0.3549 0.0
C992 C 0.80817 0.77008 0.40671 0.0
C993 C 0.83639 0.7901 0.4057 0.0
C994 C 0.78661 0.77337 0.39816 0.0
C995 C 0.79337 0.79718 0.38825 0.0
C996 C 0.82178 0.8172 0.38683 0.0
C997 C 0.84297 0.81341 0.39558 0.0
C998 C 0.75658 0.75153 0.39995 0.0
C999 C 0.82978 0.84283 0.37634 0.0
C1000 C 0.73718 0.79381 0.35279 0.0
C1001 C 0.72744 0.80904 0.36331 0.0
C1002 C 0.75869 0.78987 0.36071 0.0
C1003 C 0.77066 0.8013 0.37962 0.0
C1004 C 0.76073 0.81641 0.39038 0.0
C1005 C 0.7393 0.82016 0.38209 0.0
C1006 C 0.76876 0.77366 0.34878 0.0
C1007 C 0.77282 0.82875 0.41065 0.0
H1008 H 0.80293 0.75175 0.41422 0.0
H1009 H 0.86471 0.82906 0.39488 0.0
H1010 H 0.74612 0.7615 0.40737 0.0
H1011 H 0.745 0.74256 0.38562 0.0
H1012 H 0.75486 0.73404 0.40794 0.0
H1013 H 0.85277 0.85595 0.37604 0.0
H1014 H 0.81971 0.83631 0.36148 0.0
H1015 H 0.8221 0.85597 0.38323 0.0
H1016 H 0.72826 0.78526 0.33825 0.0
H1017 H 0.73194 0.83194 0.39035 0.0
H1018 H 0.76619 0.7552 0.35589 0.0
H1019 H 0.79139 0.78717 0.34737 0.0
H1020 H 0.75726 0.76612 0.33431 0.0
H1021 H 0.77059 0.81188 0.41947 0.0
H1022 H 0.76247 0.83957 0.41717 0.0
H1023 H 0.79551 0.84411 0.41107 0.0
C1024 C 0.18434 0.03616 0.37184 0.0
C1025 C 0.20388 0.04866 0.38802 0.0
C1026 C 0.18011 0.01138 0.36163 0.0
C1027 C 0.19518 0.99833 0.36804 0.0
C1028 C 0.21522 0.01103 0.38413 0.0
C1029 C 0.21973 0.03627 0.39364 0.0
C1030 C 0.15907 0.99883 0.34422 0.0
C1031 C 0.23135 0.99754 0.39167 0.0
C1032 C 0.16223 0.91965 0.35419 0.0
C1033 C 0.17875 0.91905 0.3402 0.0
C1034 C 0.16771 0.94531 0.36365 0.0
C1035 C 0.18945 0.97094 0.35831 0.0
C1036 C 0.20594 0.97032 0.34394 0.0
C1037 C 0.20073 0.94425 0.3353 0.0
C1038 C 0.15045 0.94494 0.37946 0.0
C1039 C 0.22876 0.99714 0.33748 0.0
H1040 H 0.17179 0.04526 0.36738 0.0
H1041 H 0.23555 0.0461 0.40572 0.0
H1042 H 0.16872 0.99479 0.33201 0.0
H1043 H 0.14121 0.97828 0.34694 0.0
H1044 H 0.15087 0.01277 0.34013 0.0
H1045 H 0.24596 0.00995 0.40451 0.0
H1046 H 0.21658 0.97608 0.39536 0.0
H1047 H 0.24356 0.99519 0.38058 0.0
H1048 H 0.14529 0.89999 0.35795 0.0
H1049 H 0.21328 0.94356 0.32433 0.0
H1050 H 0.13905 0.95611 0.37578 0.0
H1051 H 0.16436 0.95625 0.39276 0.0
H1052 H 0.13501 0.92318 0.38229 0.0
H1053 H 0.21992 0.0102 0.33264 0.0
H1054 H 0.239 0.993 0.32568 0.0
H1055 H 0.24494 0.00972 0.34952 0.0
C1056 C 0.52462 0.64589 0.27693 0.0
C1057 C 0.49757 0.63076 0.28282 0.0
C1058 C 0.54523 0.67161 0.28679 0.0
C1059 C 0.53949 0.68185 0.30373 0.0
C1060 C 0.51283 0.66626 0.31032 0.0
C1061 C 0.49204 0.64136 0.29958 0.0
C1062 C 0.57305 0.68804 0.27888 0.0
C1063 C 0.50619 0.67592 0.3287 0.0
C1064 C 0.60324 0.73588 0.33681 0.0
C1065 C 0.6031 0.76074 0.33396 0.0
C1066 C 0.58211 0.70987 0.32753 0.0
C1067 C 0.5613 0.70907 0.31437 0.0
C1068 C 0.56167 0.73443 0.31113 0.0
C1069 C 0.58217 0.75987 0.32136 0.0
C1070 C 0.58179 0.68324 0.33202 0.0
C1071 C 0.54084 0.73482 0.29655 0.0
H1072 H 0.52995 0.63779 0.26454 0.0
H1073 H 0.47137 0.6305 0.30432 0.0
H1074 H 0.57772 0.70987 0.27729 0.0
H1075 H 0.59006 0.68954 0.28886 0.0
H1076 H 0.57349 0.67822 0.26482 0.0
H1077 H 0.48544 0.66015 0.33277 0.0
H1078 H 0.52245 0.68007 0.34041 0.0
H1079 H 0.50632 0.69595 0.32731 0.0
H1080 H 0.61943 0.7367 0.3467 0.0
H1081 H 0.5823 0.77925 0.31914 0.0
H1082 H 0.585 0.67312 0.31915 0.0
H1083 H 0.5611 0.66799 0.33642 0.0
H1084 H 0.59828 0.68728 0.34354 0.0
H1085 H 0.54246 0.72637 0.28234 0.0
H1086 H 0.54424 0.75637 0.29559 0.0
H1087 H 0.51921 0.72106 0.30011 0.0
C1088 C 0.35767 0.8635 0.2816 0.0
C1089 C 0.3742 0.88763 0.27259 0.0
C1090 C 0.33418 0.86024 0.29024 0.0
C1091 C 0.32702 0.88162 0.28989 0.0
C1092 C 0.34391 0.90624 0.28112 0.0
C1093 C 0.36727 0.90896 0.27262 0.0
C1094 C 0.31668 0.83365 0.29941 0.0
C1095 C 0.33705 0.92955 0.28048 0.0
C1096 C 0.25125 0.86075 0.29449 0.0
C1097 C 0.25225 0.86967 0.31368 0.0
C1098 C 0.27542 0.86468 0.28657 0.0
C1099 C 0.30133 0.8778 0.2981 0.0
C1100 C 0.3026 0.88713 0.31742 0.0
C1101 C 0.27807 0.883 0.32497 0.0
C1102 C 0.27316 0.85459 0.26586 0.0
C1103 C 0.32983 0.90121 0.33017 0.0
H1104 H 0.36269 0.8468 0.28148 0.0
H1105 H 0.38018 0.92787 0.26595 0.0
H1106 H 0.31472 0.83896 0.3144 0.0
H1107 H 0.29525 0.82195 0.29186 0.0
H1108 H 0.32569 0.81957 0.29918 0.0
H1109 H 0.35276 0.94771 0.27363 0.0
H1110 H 0.31621 0.9214 0.27246 0.0
H1111 H 0.33592 0.93712 0.2951 0.0
H1112 H 0.23149 0.85054 0.28558 0.0
H1113 H 0.27909 0.88991 0.33981 0.0
H1114 H 0.2797 0.83854 0.26463 0.0
H1115 H 0.28744 0.87236 0.2581 0.0
H1116 H 0.25156 0.84524 0.25876 0.0
H1117 H 0.33821 0.88668 0.33106 0.0
H1118 H 0.3274 0.90762 0.34479 0.0
H1119 H 0.34561 0.92017 0.32406 0.0
C1120 C 0.13149 0.50022 0.3113 0.0
C1121 C 0.13662 0.50499 0.29229 0.0
C1122 C 0.13596 0.48041 0.32014 0.0
C1123 C 0.14555 0.46468 0.30972 0.0
C1124 C 0.15049 0.46909 0.29048 0.0
C1125 C 0.1461 0.48927 0.28203 0.0
C1126 C 0.13049 0.47638 0.34069 0.0
C1127 C 0.16061 0.45264 0.27885 0.0
C1128 C 0.18255 0.43359 0.33774 0.0
C1129 C 0.1612 0.40554 0.33775 0.0
C1130 C 0.17777 0.45298 0.32858 0.0
C1131 C 0.151 0.44409 0.31913 0.0
C1132 C 0.12936 0.41574 0.31907 0.0
C1133 C 0.13467 0.39685 0.32851 0.0
C1134 C 0.20138 0.48303 0.32907 0.0
C1135 C 0.1006 0.40538 0.30904 0.0
H1136 H 0.12364 0.5118 0.31926 0.0
H1137 H 0.15045 0.49297 0.26742 0.0
H1138 H 0.11459 0.45414 0.34195 0.0
H1139 H 0.14992 0.48094 0.34936 0.0
H1140 H 0.123 0.49021 0.3468 0.0
H1141 H 0.16252 0.45784 0.26388 0.0
H1142 H 0.18132 0.4571 0.28535 0.0
H1143 H 0.14598 0.42969 0.27882 0.0
H1144 H 0.20312 0.44039 0.34485 0.0
H1145 H 0.11804 0.37525 0.32866 0.0
H1146 H 0.19532 0.49758 0.33595 0.0
H1147 H 0.2056 0.48867 0.31436 0.0
H1148 H 0.221 0.48652 0.33693 0.0
H1149 H 0.09125 0.41732 0.31536 0.0
H1150 H 0.08626 0.38256 0.30994 0.0
H1151 H 0.10213 0.40913 0.29381 0.0
C1152 C 0.35469 0.45949 0.27381 0.0
C1153 C 0.36823 0.48844 0.27957 0.0
C1154 C 0.32996 0.44047 0.28125 0.0
C1155 C 0.31828 0.45068 0.29464 0.0
C1156 C 0.33183 0.47998 0.30046 0.0
C1157 C 0.35672 0.49851 0.29291 0.0
C1158 C 0.31635 0.40942 0.27477 0.0
C1159 C 0.31991 0.49175 0.31456 0.0
C1160 C 0.24093 0.40465 0.30077 0.0
C1161 C 0.24191 0.39274 0.31761 0.0
C1162 C 0.26556 0.42355 0.29317 0.0
C1163 C 0.29191 0.4307 0.30257 0.0
C1164 C 0.29305 0.4186 0.31948 0.0
C1165 C 0.26808 0.39988 0.32683 0.0
C1166 C 0.26336 0.43602 0.27515 0.0
C1167 C 0.32069 0.42544 0.32983 0.0
H1168 H 0.36354 0.45166 0.26347 0.0
H1169 H 0.36698 0.5209 0.29734 0.0
H1170 H 0.31458 0.39749 0.28721 0.0
H1171 H 0.29481 0.40149 0.268 0.0
H1172 H 0.32825 0.40483 0.26444 0.0
H1173 H 0.33283 0.51502 0.31753 0.0
H1174 H 0.29841 0.48616 0.30904 0.0
H1175 H 0.3184 0.48227 0.32816 0.0
H1176 H 0.22088 0.39949 0.29358 0.0
H1177 H 0.26911 0.39079 0.33981 0.0
H1178 H 0.27379 0.4308 0.26401 0.0
H1179 H 0.27431 0.45931 0.27786 0.0
H1180 H 0.2413 0.42823 0.26954 0.0
H1181 H 0.33261 0.41979 0.32019 0.0
H1182 H 0.31801 0.41409 0.34271 0.0
H1183 H 0.33351 0.44841 0.33418 0.0
C1184 C 0.52583 0.87996 0.26247 0.0
C1185 C 0.50105 0.87155 0.27096 0.0
C1186 C 0.54772 0.87742 0.27125 0.0
C1187 C 0.54435 0.86525 0.28866 0.0
C1188 C 0.5193 0.85674 0.29734 0.0
C1189 C 0.49804 0.8604 0.28851 0.0
C1190 C 0.57434 0.88746 0.26176 0.0
C1191 C 0.51465 0.84299 0.31564 0.0
C1192 C 0.58904 0.83209 0.29895 0.0
C1193 C 0.6098 0.85207 0.31278 0.0
C1194 C 0.56727 0.83582 0.29135 0.0
C1195 C 0.56666 0.86053 0.29731 0.0
C1196 C 0.58787 0.88104 0.31101 0.0
C1197 C 0.60898 0.87637 0.31879 0.0
C1198 C 0.54474 0.81315 0.27708 0.0
C1199 C 0.58846 0.90807 0.31725 0.0
H1200 H 0.52813 0.88871 0.24891 0.0
H1201 H 0.47876 0.85368 0.29499 0.0
H1202 H 0.59271 0.90212 0.27195 0.0
H1203 H 0.57695 0.86929 0.25732 0.0
H1204 H 0.57442 0.89834 0.24902 0.0
H1205 H 0.4942 0.83789 0.32069 0.0
H1206 H 0.51542 0.82324 0.31351 0.0
H1207 H 0.53156 0.85701 0.32694 0.0
H1208 H 0.58943 0.81314 0.29435 0.0
H1209 H 0.62507 0.89192 0.32941 0.0
H1210 H 0.54404 0.82191 0.26348 0.0
H1211 H 0.524 0.80531 0.28248 0.0
H1212 H 0.54809 0.79504 0.27412 0.0
H1213 H 0.58953 0.91967 0.30473 0.0
H1214 H 0.60656 0.92202 0.32787 0.0
H1215 H 0.56892 0.90333 0.32355 0.0
C1216 C 0.11379 0.63966 0.31985 0.0
C1217 C 0.12793 0.63421 0.30599 0.0
C1218 C 0.12158 0.66744 0.32644 0.0
C1219 C 0.14309 0.69018 0.31825 0.0
C1220 C 0.157 0.68464 0.30389 0.0
C1221 C 0.14965 0.65668 0.29823 0.0
C1222 C 0.10703 0.67244 0.34231 0.0
C1223 C 0.17922 0.70819 0.29424 0.0
C1224 C 0.14356 0.75971 0.3233 0.0
C1225 C 0.16665 0.77599 0.33679 0.0
C1226 C 0.13608 0.732 0.31676 0.0
C1227 C 0.1511 0.71976 0.32472 0.0
C1228 C 0.17376 0.7358 0.33893 0.0
C1229 C 0.18164 0.76391 0.34449 0.0
C1230 C 0.11241 0.716 0.30112 0.0
C1231 C 0.18954 0.7232 0.3484 0.0
H1232 H 0.097 0.62215 0.32582 0.0
H1233 H 0.16026 0.65234 0.28728 0.0
H1234 H 0.12272 0.68671 0.35419 0.0
H1235 H 0.09558 0.68293 0.33719 0.0
H1236 H 0.09195 0.65255 0.34791 0.0
H1237 H 0.18705 0.70023 0.28271 0.0
H1238 H 0.17069 0.72081 0.28809 0.0
H1239 H 0.19717 0.72258 0.30479 0.0
H1240 H 0.13153 0.76873 0.31767 0.0
H1241 H 0.19931 0.77632 0.35512 0.0
H1242 H 0.09499 0.69745 0.30649 0.0
H1243 H 0.1196 0.70804 0.2892 0.0
H1244 H 0.10423 0.72924 0.2955 0.0
H1245 H 0.17473 0.7036 0.3544 0.0
H1246 H 0.2055 0.73793 0.36002 0.0
H1247 H 0.20019 0.71739 0.33777 0.0
C1248 C 0.8292 0.00334 0.40017 0.0
C1249 C 0.84343 0.02822 0.39142 0.0
C1250 C 0.80735 0.9786 0.39005 0.0
C1251 C 0.79947 0.97872 0.37066 0.0
C1252 C 0.81362 0.00388 0.36177 0.0
C1253 C 0.83549 0.02837 0.37226 0.0
C1254 C 0.79287 0.95224 0.40008 0.0
C1255 C 0.80578 0.00484 0.34114 0.0
C1256 C 0.76248 0.9077 0.34083 0.0
C1257 C 0.73432 0.90032 0.34064 0.0
C1258 C 0.78389 0.93338 0.35023 0.0
C1259 C 0.77699 0.95222 0.35963 0.0
C1260 C 0.74858 0.94509 0.35918 0.0
C1261 C 0.72756 0.9192 0.34966 0.0
C1262 C 0.81386 0.94005 0.35044 0.0
C1263 C 0.74036 0.96457 0.36905 0.0
H1264 H 0.83525 0.00321 0.41501 0.0
H1265 H 0.84632 0.04757 0.36544 0.0
H1266 H 0.77006 0.94435 0.39918 0.0
H1267 H 0.79565 0.9354 0.39297 0.0
H1268 H 0.80107 0.95583 0.41531 0.0
H1269 H 0.81828 0.0262 0.33646 0.0
H1270 H 0.80899 0.9898 0.332 0.0
H1271 H 0.78327 0.99824 0.33881 0.0
H1272 H 0.76779 0.89314 0.33389 0.0
H1273 H 0.70581 0.91362 0.34944 0.0
H1274 H 0.8227 0.94183 0.36529 0.0
H1275 H 0.82676 0.96064 0.34488 0.0
H1276 H 0.8158 0.92369 0.34181 0.0
H1277 H 0.74634 0.96714 0.38459 0.0
H1278 H 0.71753 0.95657 0.3666 0.0
H1279 H 0.75177 0.98575 0.36397 0.0
C1280 C 0.9797 0.80971 0.38954 0.0
C1281 C 0.96971 0.78828 0.40171 0.0
C1282 C 0.00426 0.81715 0.38083 0.0
C1283 C 0.01906 0.80274 0.38434 0.0
C1284 C 0.00897 0.78104 0.39657 0.0
C1285 C 0.98445 0.77413 0.40513 0.0
C1286 C 0.01447 0.84052 0.36797 0.0
C1287 C 0.02411 0.76515 0.40065 0.0
C1288 C 0.06922 0.80406 0.34942 0.0
C1289 C 0.09524 0.82431 0.35893 0.0
C1290 C 0.04424 0.79697 0.35746 0.0
C1291 C 0.04529 0.81053 0.3754 0.0
C1292 C 0.07147 0.83117 0.38499 0.0
C1293 C 0.09609 0.83777 0.37666 0.0
C1294 C 0.01672 0.77479 0.34683 0.0
C1295 C 0.07352 0.84619 0.40411 0.0
H1296 H 0.96844 0.8208 0.38688 0.0
H1297 H 0.97674 0.75758 0.41455 0.0
H1298 H 0.03578 0.85764 0.37358 0.0
H1299 H 0.01593 0.8325 0.35357 0.0
H1300 H 1.00049 0.84954 0.36663 0.0
H1301 H 0.0133 0.74858 0.41027 0.0
H1302 H 0.02592 0.7551 0.38715 0.0
H1303 H 0.04567 0.77997 0.4073 0.0
H1304 H 0.06834 0.79356 0.33572 0.0
H1305 H 0.11605 0.85359 0.3841 0.0
H1306 H 0.0028 0.78364 0.34432 0.0
H1307 H 0.00595 0.75696 0.35553 0.0
H1308 H 0.01944 0.76651 0.3329 0.0
H1309 H 0.06101 0.85683 0.4031 0.0
H1310 H 0.09544 0.86215 0.40949 0.0
H1311 H 0.0647 0.83071 0.41469 0.0
C1312 C 0.20242 0.17607 0.35161 0.0
C1313 C 0.19937 0.16873 0.37028 0.0
C1314 C 0.19727 0.19718 0.34572 0.0
C1315 C 0.18866 0.21113 0.35882 0.0
C1316 C 0.18575 0.20392 0.37776 0.0
C1317 C 0.19119 0.18285 0.38328 0.0
C1318 C 0.20074 0.20434 0.32543 0.0
C1319 C 0.17642 0.21815 0.39211 0.0
C1320 C 0.19524 0.28104 0.34786 0.0
C1321 C 0.168 0.27239 0.34003 0.0
C1322 C 0.20232 0.26135 0.35408 0.0
C1323 C 0.1816 0.23242 0.3525 0.0
C1324 C 0.15398 0.22371 0.3448 0.0
C1325 C 0.14756 0.24379 0.33861 0.0
C1326 C 0.23199 0.27146 0.36218 0.0
C1327 C 0.13121 0.19314 0.34304 0.0
H1328 H 0.20879 0.16522 0.34156 0.0
H1329 H 0.18871 0.17729 0.39775 0.0
H1330 H 0.18036 0.19965 0.31813 0.0
H1331 H 0.2155 0.22719 0.32521 0.0
H1332 H 0.20864 0.19236 0.31723 0.0
H1333 H 0.17602 0.21078 0.40643 0.0
H1334 H 0.1906 0.24131 0.39337 0.0
H1335 H 0.15515 0.21394 0.38723 0.0
H1336 H 0.21109 0.30315 0.34895 0.0
H1337 H 0.12643 0.23705 0.33266 0.0
H1338 H 0.24106 0.26113 0.35352 0.0
H1339 H 0.23222 0.26547 0.37685 0.0
H1340 H 0.24557 0.29466 0.36254 0.0
H1341 H 0.13703 0.18031 0.33377 0.0
H1342 H 0.1107 0.1899 0.33702 0.0
H1343 H 0.12877 0.18508 0.35722 0.0
C1344 C 0.64779 0.50479 0.7241 0.0
C1345 C 0.62963 0.51129 0.73326 0.0
C1346 C 0.67155 0.52576 0.71676 0.0
C1347 C 0.67734 0.55399 0.71856 0.0
C1348 C 0.65892 0.56065 0.72759 0.0
C1349 C 0.63535 0.53927 0.73485 0.0
C1350 C 0.69072 0.51778 0.70734 0.0
C1351 C 0.66424 0.59044 0.72972 0.0
C1352 C 0.75264 0.61182 0.7162 0.0
C1353 C 0.75216 0.6181 0.69727 0.0
C1354 C 0.72843 0.59128 0.72334 0.0
C1355 C 0.70297 0.57659 0.71133 0.0
C1356 C 0.70217 0.58314 0.69232 0.0
C1357 C 0.72675 0.60377 0.68551 0.0
C1358 C 0.73025 0.58499 0.7437 0.0
C1359 C 0.67542 0.56806 0.67907 0.0
H1360 H 0.64375 0.48332 0.72302 0.0
H1361 H 0.62125 0.54443 0.74169 0.0
H1362 H 0.69291 0.52403 0.69264 0.0
H1363 H 0.7119 0.52927 0.71527 0.0
H1364 H 0.68298 0.49481 0.7067 0.0
H1365 H 0.64761 0.59206 0.73673 0.0
H1366 H 0.68462 0.60448 0.73826 0.0
H1367 H 0.66553 0.59835 0.71554 0.0
H1368 H 0.77205 0.62275 0.72546 0.0
H1369 H 0.72607 0.60841 0.67089 0.0
H1370 H 0.7249 0.56273 0.74402 0.0
H1371 H 0.71488 0.58775 0.75154 0.0
H1372 H 0.75144 0.59879 0.75134 0.0
H1373 H 0.66815 0.54521 0.67707 0.0
H1374 H 0.67804 0.57619 0.66489 0.0
H1375 H 0.65872 0.57035 0.6854 0.0
C1376 C 0.51712 0.14832 0.72911 0.0
C1377 C 0.51158 0.12592 0.73994 0.0
C1378 C 0.49519 0.15104 0.72042 0.0
C1379 C 0.46711 0.1308 0.72257 0.0
C1380 C 0.46141 0.10772 0.73303 0.0
C1381 C 0.48369 0.10555 0.74156 0.0
C1382 C 0.50208 0.17595 0.70936 0.0
C1383 C 0.43177 0.0856 0.73555 0.0
C1384 C 0.41173 0.15222 0.71737 0.0
C1385 C 0.39907 0.14044 0.69882 0.0
C1386 C 0.43388 0.14926 0.72525 0.0
C1387 C 0.44366 0.13413 0.71434 0.0
C1388 C 0.43082 0.12193 0.69569 0.0
C1389 C 0.40869 0.12522 0.68816 0.0
C1390 C 0.44693 0.16249 0.74523 0.0
C1391 C 0.44061 0.10557 0.68364 0.0
H1392 H 0.53863 0.16421 0.72793 0.0
H1393 H 0.47928 0.08794 0.74967 0.0
H1394 H 0.49112 0.16862 0.69476 0.0
H1395 H 0.49461 0.18924 0.71632 0.0
H1396 H 0.5249 0.18917 0.70836 0.0
H1397 H 0.43088 0.06846 0.74357 0.0
H1398 H 0.42146 0.09545 0.74331 0.0
H1399 H 0.41949 0.0762 0.72147 0.0
H1400 H 0.40452 0.16404 0.72574 0.0
H1401 H 0.39914 0.11608 0.6738 0.0
H1402 H 0.46951 0.17788 0.74506 0.0
H1403 H 0.44532 0.1461 0.75431 0.0
H1404 H 0.43682 0.1735 0.75184 0.0
H1405 H 0.46299 0.11925 0.68158 0.0
H1406 H 0.42833 0.09728 0.66945 0.0
H1407 H 0.4389 0.08762 0.69102 0.0
C1408 C 0.8589 0.3509 0.72766 0.0
C1409 C 0.86931 0.3757 0.71856 0.0
C1410 C 0.85482 0.32572 0.71824 0.0
C1411 C 0.86089 0.32512 0.69912 0.0
C1412 C 0.87089 0.34987 0.68972 0.0
C1413 C 0.87509 0.37485 0.69956 0.0
C1414 C 0.84417 0.2998 0.72879 0.0
C1415 C 0.87743 0.35002 0.66931 0.0
C1416 C 0.87408 0.26688 0.68031 0.0
C1417 C 0.84786 0.24715 0.67086 0.0
C1418 C 0.87868 0.2924 0.68952 0.0
C1419 C 0.85663 0.29851 0.68897 0.0
C1420 C 0.83032 0.27891 0.67902 0.0
C1421 C 0.82623 0.25344 0.67014 0.0
C1422 C 0.90696 0.3126 0.70011 0.0
C1423 C 0.80634 0.28468 0.67797 0.0
H1424 H 0.85389 0.35113 0.74221 0.0
H1425 H 0.88351 0.39392 0.69246 0.0
H1426 H 0.82414 0.2826 0.72133 0.0
H1427 H 0.85933 0.29216 0.72903 0.0
H1428 H 0.84077 0.30384 0.74369 0.0
H1429 H 0.88442 0.37081 0.66389 0.0
H1430 H 0.89411 0.34461 0.66804 0.0
H1431 H 0.85866 0.33379 0.66007 0.0
H1432 H 0.89094 0.26221 0.6807 0.0
H1433 H 0.80593 0.23827 0.66281 0.0
H1434 H 0.90471 0.31577 0.71539 0.0
H1435 H 0.91585 0.33346 0.69453 0.0
H1436 H 0.92201 0.30493 0.69893 0.0
H1437 H 0.80058 0.28669 0.69248 0.0
H1438 H 0.78752 0.26775 0.66909 0.0
H1439 H 0.81277 0.30496 0.67196 0.0
C1440 C 0.19385 0.97598 0.61134 0.0
C1441 C 0.16645 0.96241 0.61671 0.0
C1442 C 0.21502 1.0014 0.62119 0.0
C1443 C 0.20917 0.01304 0.63743 0.0
C1444 C 0.18196 0.99907 0.64342 0.0
C1445 C 0.16085 0.97426 0.63282 0.0
C1446 C 0.24356 0.01604 0.61402 0.0
C1447 C 0.17509 0.01044 0.66096 0.0
C1448 C 0.27135 0.06526 0.67229 0.0
C1449 C 0.27319 0.09075 0.66855 0.0
C1450 C 0.25026 0.03969 0.6625 0.0
C1451 C 0.23149 0.03994 0.64808 0.0
C1452 C 0.23404 0.06594 0.64385 0.0
C1453 C 0.25446 0.091 0.65449 0.0
C1454 C 0.24771 0.01241 0.66785 0.0
C1455 C 0.21541 0.06734 0.62799 0.0
H1456 H 0.19893 0.96683 0.59934 0.0
H1457 H 0.13984 0.96446 0.63707 0.0
H1458 H 0.24942 0.03791 0.61141 0.0
H1459 H 0.25955 0.01745 0.62493 0.0
H1460 H 0.24434 0.00493 0.60064 0.0
H1461 H 0.15351 0.9961 0.66447 0.0
H1462 H 0.19007 0.01376 0.67334 0.0
H1463 H 0.17721 0.03119 0.6588 0.0
H1464 H 0.28589 0.06528 0.68328 0.0
H1465 H 0.25615 0.11088 0.65158 0.0
H1466 H 0.25046 1.00108 0.65543 0.0
H1467 H 0.22646 0.99851 0.67205 0.0
H1468 H 0.26339 0.01581 0.67979 0.0
H1469 H 0.21684 0.05709 0.61445 0.0
H1470 H 0.2211 0.08935 0.62591 0.0
H1471 H 0.19329 0.05567 0.63111 0.0
C1472 C 0.04507 0.21982 0.6239 0.0
C1473 C 0.04412 0.21657 0.60395 0.0
C1474 C 0.02181 0.21655 0.63283 0.0
C1475 C 0.99729 0.21115 0.62162 0.0
C1476 C 0.99632 0.20858 0.60154 0.0
C1477 C 0.01939 0.21063 0.59298 0.0
C1478 C 0.02333 0.21848 0.65429 0.0
C1479 C 0.97082 0.20348 0.58901 0.0
C1480 C 0.92673 0.17632 0.64133 0.0
C1481 C 0.92427 0.1996 0.6474 0.0
C1482 C 0.95077 0.17985 0.63347 0.0
C1483 C 0.97232 0.2073 0.63086 0.0
C1484 C 0.96971 0.23091 0.63678 0.0
C1485 C 0.94589 0.22679 0.64539 0.0
C1486 C 0.9531 0.15419 0.62801 0.0
C1487 C 0.99166 0.26038 0.63352 0.0
H1488 H 0.06404 0.22504 0.63266 0.0
H1489 H 0.01778 0.20726 0.57762 0.0
H1490 H 0.02063 0.23616 0.65984 0.0
H1491 H 0.00606 0.19888 0.65882 0.0
H1492 H 0.04353 0.2217 0.66095 0.0
H1493 H 0.97491 0.20609 0.57388 0.0
H1494 H 0.95337 0.18178 0.58981 0.0
H1495 H 0.96375 0.21822 0.59397 0.0
H1496 H 0.90997 0.15529 0.64307 0.0
H1497 H 0.94373 0.24472 0.64996 0.0
H1498 H 0.97317 0.15706 0.63461 0.0
H1499 H 0.95308 0.15134 0.61237 0.0
H1500 H 0.93563 0.13466 0.63249 0.0
H1501 H 0.0122 0.26575 0.64087 0.0
H1502 H 0.98628 0.2764 0.63867 0.0
H1503 H 0.9941 0.2616 0.61809 0.0
C1504 C 0.79274 0.83212 0.63843 0.0
C1505 C 0.79941 0.83716 0.61971 0.0
C1506 C 0.79658 0.81221 0.64772 0.0
C1507 C 0.80745 0.79699 0.6381 0.0
C1508 C 0.81398 0.80177 0.61915 0.0
C1509 C 0.80993 0.82179 0.61022 0.0
C1510 C 0.78929 0.80766 0.66791 0.0
C1511 C 0.82578 0.78614 0.60843 0.0
C1512 C 0.84521 0.76887 0.66839 0.0
C1513 C 0.8249 0.74033 0.66798 0.0
C1514 C 0.83983 0.78741 0.65864 0.0
C1515 C 0.81341 0.77721 0.64822 0.0
C1516 C 0.79285 0.74831 0.6476 0.0
C1517 C 0.79885 0.73018 0.65751 0.0
C1518 C 0.86242 0.81798 0.65957 0.0
C1519 C 0.76449 0.73662 0.63658 0.0
H1520 H 0.78426 0.84359 0.64578 0.0
H1521 H 0.8155 0.82578 0.59585 0.0
H1522 H 0.77421 0.78508 0.66889 0.0
H1523 H 0.80836 0.81342 0.67749 0.0
H1524 H 0.78004 0.82035 0.67314 0.0
H1525 H 0.82833 0.79114 0.59345 0.0
H1526 H 0.84649 0.79166 0.61562 0.0
H1527 H 0.81192 0.76307 0.60845 0.0
H1528 H 0.86547 0.77679 0.67638 0.0
H1529 H 0.78307 0.70815 0.65724 0.0
H1530 H 0.8549 0.8316 0.66593 0.0
H1531 H 0.86742 0.82393 0.645 0.0
H1532 H 0.88195 0.82248 0.66811 0.0
H1533 H 0.75376 0.74755 0.64223 0.0
H1534 H 0.75095 0.71362 0.63732 0.0
H1535 H 0.76691 0.74052 0.62142 0.0
C1536 C 0.99924 0.8336 0.61099 0.0
C1537 C 0.0257 0.83608 0.61309 0.0
C1538 C 0.97698 0.81351 0.62003 0.0
C1539 C 0.981 0.79469 0.63083 0.0
C1540 C 0.00765 0.79687 0.63274 0.0
C1541 C 0.02985 0.81789 0.62411 0.0
C1542 C 0.94919 0.81252 0.61807 0.0
C1543 C 0.01255 0.77661 0.64356 0.0
C1544 C 0.92935 0.75711 0.66673 0.0
C1545 C 0.90968 0.73199 0.65586 0.0
C1546 C 0.9528 0.77765 0.65883 0.0
C1547 C 0.95712 0.77251 0.63981 0.0
C1548 C 0.93782 0.74663 0.62905 0.0
C1549 C 0.91407 0.72693 0.63709 0.0
C1550 C 0.97228 0.80532 0.67057 0.0
C1551 C 0.94198 0.73991 0.60892 0.0
H1552 H 0.99609 0.84775 0.6025 0.0
H1553 H 0.05024 0.8196 0.62556 0.0
H1554 H 0.93289 0.7921 0.61042 0.0
H1555 H 0.94253 0.8141 0.63236 0.0
H1556 H 0.95002 0.82977 0.61021 0.0
H1557 H 0.03435 0.78083 0.64348 0.0
H1558 H 0.00811 0.77797 0.65853 0.0
H1559 H 0.998 0.75469 0.63718 0.0
H1560 H 0.92576 0.76124 0.68116 0.0
H1561 H 0.89887 0.70748 0.62866 0.0
H1562 H 0.97204 0.82276 0.66359 0.0
H1563 H 0.99406 0.80943 0.67143 0.0
H1564 H 0.96635 0.80581 0.68525 0.0
H1565 H 0.93973 0.75422 0.5995 0.0
H1566 H 0.92664 0.71784 0.60319 0.0
H1567 H 0.96342 0.74335 0.60833 0.0
C1568 C 0.17008 0.19264 0.6212 0.0
C1569 C 0.17895 0.21516 0.60999 0.0
C1570 C 0.18912 0.18507 0.62895 0.0
C1571 C 0.21756 0.20041 0.62537 0.0
C1572 C 0.22645 0.22297 0.6139 0.0
C1573 C 0.20703 0.23005 0.60637 0.0
C1574 C 0.17889 0.16089 0.64112 0.0
C1575 C 0.25656 0.23984 0.60973 0.0
C1576 C 0.27371 0.20182 0.65976 0.0
C1577 C 0.27976 0.18287 0.64997 0.0
C1578 C 0.25322 0.20735 0.65203 0.0
C1579 C 0.23835 0.1936 0.63408 0.0
C1580 C 0.24418 0.17429 0.62417 0.0
C1581 C 0.26483 0.16917 0.63222 0.0
C1582 C 0.24766 0.22815 0.66302 0.0
C1583 C 0.22879 0.15919 0.60499 0.0
H1584 H 0.14836 0.18101 0.62399 0.0
H1585 H 0.21387 0.24741 0.59764 0.0
H1586 H 0.18381 0.14489 0.63522 0.0
H1587 H 0.18989 0.16857 0.6557 0.0
H1588 H 0.156 0.15056 0.64208 0.0
H1589 H 0.25992 0.25631 0.60016 0.0
H1590 H 0.27032 0.25019 0.62321 0.0
H1591 H 0.2632 0.22569 0.60299 0.0
H1592 H 0.28504 0.21244 0.6735 0.0
H1593 H 0.26916 0.1543 0.6246 0.0
H1594 H 0.22522 0.21803 0.6654 0.0
H1595 H 0.25234 0.24615 0.65466 0.0
H1596 H 0.26045 0.23644 0.67704 0.0
H1597 H 0.2059 0.14748 0.60599 0.0
H1598 H 0.23517 0.14414 0.59942 0.0
H1599 H 0.23282 0.17475 0.59457 0.0
C1600 C 0.82481 0.99025 0.63126 0.0
C1601 C 0.81742 0.97003 0.64431 0.0
C1602 C 0.83004 0.0175 0.63684 0.0
C1603 C 0.82772 0.02476 0.6559 0.0
C1604 C 0.82028 0.00444 0.66914 0.0
C1605 C 0.81533 0.97734 0.66319 0.0
C1606 C 0.83817 0.0386 0.62232 0.0
C1607 C 0.81751 0.01134 0.68958 0.0
C1608 C 0.86685 0.10242 0.67451 0.0
C1609 C 0.8456 0.10921 0.67305 0.0
C1610 C 0.86129 0.07503 0.66903 0.0
C1611 C 0.83373 0.05382 0.66204 0.0
C1612 C 0.81215 0.06058 0.66054 0.0
C1613 C 0.81837 0.08827 0.666 0.0
C1614 C 0.88497 0.06883 0.67063 0.0
C1615 C 0.78251 0.03858 0.65316 0.0
H1616 H 0.82662 0.98487 0.61664 0.0
H1617 H 0.80957 0.96175 0.67328 0.0
H1618 H 0.82305 0.04623 0.62105 0.0
H1619 H 0.85905 0.05719 0.62704 0.0
H1620 H 0.83887 0.02958 0.60803 0.0
H1621 H 0.81107 0.99307 0.69801 0.0
H1622 H 0.83775 0.02905 0.69639 0.0
H1623 H 0.80185 0.01828 0.69014 0.0
H1624 H 0.88798 0.11862 0.67984 0.0
H1625 H 0.8019 0.09348 0.66487 0.0
H1626 H 0.88747 0.06118 0.65643 0.0
H1627 H 0.88011 0.05187 0.68002 0.0
H1628 H 0.90519 0.08765 0.67642 0.0
H1629 H 0.7819 0.0301 0.63841 0.0
H1630 H 0.76805 0.0471 0.65319 0.0
H1631 H 0.77475 0.02068 0.662 0.0
C1632 C 0.49783 0.3377 0.73626 0.0
C1633 C 0.5112 0.36205 0.72686 0.0
C1634 C 0.47646 0.31218 0.72666 0.0
C1635 C 0.46816 0.31099 0.70715 0.0
C1636 C 0.48148 0.33559 0.69758 0.0
C1637 C 0.50292 0.36086 0.70756 0.0
C1638 C 0.46289 0.28644 0.73737 0.0
C1639 C 0.47313 0.33516 0.67681 0.0
C1640 C 0.43229 0.23899 0.67862 0.0
C1641 C 0.404 0.23111 0.67834 0.0
C1642 C 0.45338 0.26507 0.68774 0.0
C1643 C 0.44599 0.28379 0.69672 0.0
C1644 C 0.41742 0.27606 0.69627 0.0
C1645 C 0.39674 0.24976 0.68709 0.0
C1646 C 0.48354 0.27237 0.68802 0.0
C1647 C 0.40869 0.29542 0.70568 0.0
H1648 H 0.50416 0.33862 0.75121 0.0
H1649 H 0.51308 0.37965 0.70024 0.0
H1650 H 0.43999 0.27804 0.73665 0.0
H1651 H 0.46603 0.2696 0.73067 0.0
H1652 H 0.47149 0.29099 0.75258 0.0
H1653 H 0.48511 0.35617 0.67154 0.0
H1654 H 0.47661 0.31992 0.66813 0.0
H1655 H 0.45049 0.328 0.67453 0.0
H1656 H 0.43798 0.22457 0.67191 0.0
H1657 H 0.37487 0.24376 0.68681 0.0
H1658 H 0.49272 0.27531 0.70293 0.0
H1659 H 0.49591 0.29255 0.68184 0.0
H1660 H 0.48583 0.2558 0.67996 0.0
H1661 H 0.41521 0.29906 0.7212 0.0
H1662 H 0.38572 0.28672 0.70348 0.0
H1663 H 0.41932 0.31621 0.69999 0.0
C1664 C 0.65562 0.14479 0.72488 0.0
C1665 C 0.64533 0.12428 0.7377 0.0
C1666 C 0.67996 0.15098 0.71621 0.0
C1667 C 0.69419 0.1362 0.72039 0.0
C1668 C 0.68375 0.11539 0.73326 0.0
C1669 C 0.65951 0.10977 0.74181 0.0
C1670 C 0.69057 0.17348 0.70268 0.0
C1671 C 0.69822 0.09908 0.73805 0.0
C1672 C 0.74326 0.1342 0.68569 0.0
C1673 C 0.76955 0.15463 0.69475 0.0
C1674 C 0.71857 0.12801 0.69386 0.0
C1675 C 0.72017 0.14267 0.71147 0.0
C1676 C 0.74663 0.16331 0.72069 0.0
C1677 C 0.77096 0.169 0.71224 0.0
C1678 C 0.69074 0.10573 0.68366 0.0
C1679 C 0.7493 0.17945 0.73947 0.0
H1680 H 0.64482 0.15617 0.72171 0.0
H1681 H 0.65157 0.09392 0.75173 0.0
H1682 H 0.71209 0.19044 0.708 0.0
H1683 H 0.69166 0.16445 0.68853 0.0
H1684 H 0.67706 0.18297 0.70087 0.0
H1685 H 0.68715 0.08326 0.74809 0.0
H1686 H 0.69961 0.08806 0.72487 0.0
H1687 H 0.71993 0.11376 0.74452 0.0
H1688 H 0.74193 0.12298 0.6722 0.0
H1689 H 0.79112 0.18489 0.71938 0.0
H1690 H 0.67731 0.11497 0.68055 0.0
H1691 H 0.67967 0.08873 0.69292 0.0
H1692 H 0.69305 0.09624 0.67008 0.0
H1693 H 0.73743 0.1907 0.73803 0.0
H1694 H 0.77141 0.19505 0.74468 0.0
H1695 H 0.74012 0.16464 0.7504 0.0
C1696 C 0.85196 0.50877 0.71429 0.0
C1697 C 0.88016 0.51609 0.71612 0.0
C1698 C 0.84389 0.52775 0.70808 0.0
C1699 C 0.86442 0.55425 0.70301 0.0
C1700 C 0.8929 0.5615 0.70462 0.0
C1701 C 0.90045 0.54252 0.71149 0.0
C1702 C 0.81344 0.51957 0.70713 0.0
C1703 C 0.91533 0.58914 0.69884 0.0
C1704 C 0.83917 0.5902 0.66927 0.0
C1705 C 0.84025 0.61172 0.68154 0.0
C1706 C 0.84754 0.57174 0.676 0.0
C1707 C 0.85609 0.57417 0.69563 0.0
C1708 C 0.85674 0.59566 0.70813 0.0
C1709 C 0.84929 0.61452 0.70083 0.0
C1710 C 0.8474 0.54976 0.66208 0.0
C1711 C 0.86474 0.5984 0.72925 0.0
H1712 H 0.83629 0.48847 0.71814 0.0
H1713 H 0.92227 0.54814 0.71293 0.0
H1714 H 0.81117 0.53578 0.71565 0.0
H1715 H 0.80529 0.51857 0.69223 0.0
H1716 H 0.80031 0.49883 0.7125 0.0
H1717 H 0.93639 0.59125 0.70047 0.0
H1718 H 0.91034 0.59104 0.68376 0.0
H1719 H 0.91608 0.60696 0.70757 0.0
H1720 H 0.83217 0.5881 0.65431 0.0
H1721 H 0.8496 0.63083 0.71031 0.0
H1722 H 0.83249 0.52838 0.66575 0.0
H1723 H 0.86844 0.55187 0.66296 0.0
H1724 H 0.84144 0.55152 0.64716 0.0
H1725 H 0.85079 0.57836 0.73513 0.0
H1726 H 0.86335 0.6157 0.73709 0.0
H1727 H 0.88642 0.60244 0.73192 0.0
C1728 C 0.42931 0.93887 0.21283 0.0
C1729 C 0.43017 0.91447 0.21631 0.0
C1730 C 0.43737 0.95112 0.19576 0.0
C1731 C 0.44649 0.93865 0.18193 0.0
C1732 C 0.44596 0.91321 0.18497 0.0
C1733 C 0.43774 0.90142 0.20209 0.0
C1734 C 0.43748 0.97815 0.19295 0.0
C1735 C 0.45538 0.89917 0.17056 0.0
C1736 C 0.45481 0.96067 0.13171 0.0
C1737 C 0.48371 0.9796 0.13285 0.0
C1738 C 0.44222 0.94751 0.14765 0.0
C1739 C 0.45897 0.95338 0.16509 0.0
C1740 C 0.48812 0.97259 0.16633 0.0
C1741 C 0.50011 0.98547 0.15021 0.0
C1742 C 0.41107 0.92725 0.14581 0.0
C1743 C 0.50675 0.97923 0.18463 0.0
H1744 H 0.42355 0.94907 0.2238 0.0
H1745 H 0.43793 0.88225 0.20459 0.0
H1746 H 0.45939 0.99572 0.19352 0.0
H1747 H 0.42691 0.9766 0.17874 0.0
H1748 H 0.42696 0.98346 0.20401 0.0
H1749 H 0.4516 0.87836 0.1744 0.0
H1750 H 0.44434 0.8962 0.15626 0.0
H1751 H 0.47809 0.91286 0.1695 0.0
H1752 H 0.44199 0.95641 0.1184 0.0
H1753 H 0.52249 0.99985 0.1511 0.0
H1754 H 0.40118 0.93425 0.15636 0.0
H1755 H 0.40686 0.90605 0.14896 0.0
H1756 H 0.40093 0.92542 0.13135 0.0
H1757 H 0.49915 0.98717 0.19628 0.0
H1758 H 0.52888 0.9952 0.18335 0.0
H1759 H 0.50599 0.95976 0.18881 0.0
C1760 C 0.08005 0.53901 0.2301 0.0
C1761 C 0.10232 0.53476 0.23555 0.0
C1762 C 0.07032 0.536 0.21085 0.0
C1763 C 0.0834 0.52889 0.19668 0.0
C1764 C 0.10562 0.52413 0.20211 0.0
C1765 C 0.11471 0.52698 0.2215 0.0
C1766 C 0.0463 0.54083 0.20565 0.0
C1767 C 0.12026 0.51678 0.18743 0.0
C1768 C 0.0437 0.50041 0.14737 0.0
C1769 C 0.05489 0.52481 0.13787 0.0
C1770 C 0.05303 0.50132 0.16644 0.0
C1771 C 0.07427 0.5272 0.17617 0.0
C1772 C 0.08616 0.55175 0.16649 0.0
C1773 C 0.0762 0.55029 0.14749 0.0
C1774 C 0.03961 0.47477 0.17632 0.0
C1775 C 0.10911 0.57966 0.17629 0.0
H1776 H 0.07026 0.54477 0.24095 0.0
H1777 H 0.13213 0.52397 0.22566 0.0
H1778 H 0.0534 0.55905 0.19715 0.0
H1779 H 0.02929 0.52217 0.1967 0.0
H1780 H 0.03761 0.54499 0.2184 0.0
H1781 H 0.13657 0.51286 0.19401 0.0
H1782 H 0.10489 0.49774 0.17798 0.0
H1783 H 0.13027 0.53424 0.17833 0.0
H1784 H 0.02698 0.48074 0.14005 0.0
H1785 H 0.08506 0.56912 0.14013 0.0
H1786 H 0.02893 0.47761 0.18832 0.0
H1787 H 0.05581 0.4704 0.18242 0.0
H1788 H 0.02405 0.45616 0.16656 0.0
H1789 H 0.1012 0.58647 0.18834 0.0
H1790 H 0.11708 0.59643 0.1665 0.0
H1791 H 0.12683 0.57745 0.18228 0.0
C1792 C 0.4657 0.59298 0.20837 0.0
C1793 C 0.45887 0.57111 0.21999 0.0
C1794 C 0.47211 0.5907 0.18969 0.0
C1795 C 0.47164 0.56591 0.18242 0.0
C1796 C 0.46335 0.54318 0.19372 0.0
C1797 C 0.45706 0.54605 0.21237 0.0
C1798 C 0.48068 0.61535 0.17808 0.0
C1799 C 0.46253 0.51638 0.18648 0.0
C1800 C 0.47477 0.55418 0.12922 0.0
C1801 C 0.5034 0.56399 0.12844 0.0
C1802 C 0.46402 0.55449 0.14668 0.0
C1803 C 0.48232 0.56484 0.16374 0.0
C1804 C 0.51118 0.57459 0.16303 0.0
C1805 C 0.52133 0.57402 0.14543 0.0
C1806 C 0.43314 0.54395 0.14686 0.0
C1807 C 0.5314 0.58569 0.1809 0.0
H1808 H 0.46667 0.61221 0.21407 0.0
H1809 H 0.45201 0.52915 0.2213 0.0
H1810 H 0.50312 0.6247 0.17586 0.0
H1811 H 0.46857 0.60825 0.16383 0.0
H1812 H 0.47755 0.63203 0.18512 0.0
H1813 H 0.45294 0.49968 0.1962 0.0
H1814 H 0.45058 0.50827 0.17219 0.0
H1815 H 0.48414 0.52081 0.18497 0.0
H1816 H 0.46082 0.54662 0.11614 0.0
H1817 H 0.54337 0.58114 0.14499 0.0
H1818 H 0.42999 0.5612 0.15274 0.0
H1819 H 0.4239 0.5268 0.15626 0.0
H1820 H 0.4216 0.53595 0.13241 0.0
H1821 H 0.53122 0.604 0.18821 0.0
H1822 H 0.55317 0.59232 0.17791 0.0
H1823 H 0.52484 0.56925 0.1909 0.0
C1824 C 0.92556 0.43514 0.78499 0.0
C1825 C 0.90551 0.44214 0.77863 0.0
C1826 C 0.93609 0.44038 0.80424 0.0
C1827 C 0.92664 0.45329 0.81748 0.0
C1828 C 0.90673 0.46079 0.81115 0.0
C1829 C 0.8963 0.455 0.79184 0.0
C1830 C 0.95726 0.43199 0.81044 0.0
C1831 C 0.89631 0.47477 0.82481 0.0
C1832 C 0.93555 0.44306 0.86958 0.0
C1833 C 0.96061 0.46783 0.87615 0.0
C1834 C 0.92397 0.43825 0.85058 0.0
C1835 C 0.93765 0.45885 0.83794 0.0
C1836 C 0.96247 0.48429 0.84468 0.0
C1837 C 0.97374 0.48841 0.86368 0.0
C1838 C 0.89761 0.41073 0.84389 0.0
C1839 C 0.97745 0.50693 0.83172 0.0
H1840 H 0.93319 0.42566 0.77487 0.0
H1841 H 0.88053 0.46013 0.78714 0.0
H1842 H 0.97694 0.45081 0.81691 0.0
H1843 H 0.94923 0.41716 0.82148 0.0
H1844 H 0.96218 0.42181 0.79842 0.0
H1845 H 0.88138 0.48001 0.81754 0.0
H1846 H 0.88576 0.46069 0.83587 0.0
H1847 H 0.9142 0.49443 0.83224 0.0
H1848 H 0.9255 0.427 0.87913 0.0
H1849 H 0.99296 0.50772 0.86879 0.0
H1850 H 0.90207 0.39876 0.83283 0.0
H1851 H 0.88143 0.41476 0.83728 0.0
H1852 H 0.88892 0.39741 0.85567 0.0
H1853 H 0.98499 0.49879 0.82014 0.0
H1854 H 0.99564 0.52612 0.83943 0.0
H1855 H 0.96282 0.5129 0.82494 0.0
C1856 C 0.54125 0.46808 0.79082 0.0
C1857 C 0.56922 0.47861 0.78727 0.0
C1858 C 0.53417 0.47071 0.80923 0.0
C1859 C 0.55559 0.48457 0.82449 0.0
C1860 C 0.58394 0.49622 0.82093 0.0
C1861 C 0.59042 0.49301 0.80237 0.0
C1862 C 0.50367 0.45801 0.8124 0.0
C1863 C 0.60737 0.5114 0.83681 0.0
C1864 C 0.53436 0.50745 0.86927 0.0
C1865 C 0.5289 0.48535 0.88041 0.0
C1866 C 0.54404 0.50804 0.85132 0.0
C1867 C 0.54805 0.48582 0.84424 0.0
C1868 C 0.54319 0.46379 0.85563 0.0
C1869 C 0.53381 0.4639 0.87361 0.0
C1870 C 0.54936 0.53208 0.83974 0.0
C1871 C 0.54694 0.43957 0.84853 0.0
H1872 H 0.52476 0.45745 0.77918 0.0
H1873 H 0.61206 0.50103 0.7998 0.0
H1874 H 0.498 0.44146 0.82226 0.0
H1875 H 0.49987 0.47434 0.81916 0.0
H1876 H 0.4896 0.44848 0.79894 0.0
H1877 H 0.62832 0.52102 0.83148 0.0
H1878 H 0.60532 0.5282 0.84473 0.0
H1879 H 0.60608 0.49643 0.84708 0.0
H1880 H 0.53096 0.52428 0.8746 0.0
H1881 H 0.52939 0.44666 0.8821 0.0
H1882 H 0.53432 0.52406 0.82672 0.0
H1883 H 0.57069 0.54168 0.83507 0.0
H1884 H 0.54722 0.54873 0.84782 0.0
H1885 H 0.53191 0.42766 0.83579 0.0
H1886 H 0.54359 0.42482 0.85947 0.0
H1887 H 0.56829 0.44761 0.84415 0.0
C1888 C 0.54105 0.12225 0.81228 0.0
C1889 C 0.55152 0.10974 0.79985 0.0
C1890 C 0.53505 0.11368 0.83052 0.0
C1891 C 0.53984 0.09224 0.83655 0.0
C1892 C 0.55183 0.0806 0.82448 0.0
C1893 C 0.55746 0.08945 0.80624 0.0
C1894 C 0.52231 0.12664 0.84296 0.0
C1895 C 0.55742 0.05782 0.83046 0.0
C1896 C 0.53739 0.08009 0.88895 0.0
C1897 C 0.51007 0.05734 0.88896 0.0
C1898 C 0.54753 0.09159 0.87199 0.0
C1899 C 0.52988 0.0802 0.85468 0.0
C1900 C 0.50231 0.0573 0.85461 0.0
C1901 C 0.49281 0.0461 0.87171 0.0
C1902 C 0.57708 0.11594 0.8726 0.0
C1903 C 0.4828 0.04457 0.83645 0.0
H1904 H 0.53694 0.13835 0.80757 0.0
H1905 H 0.5654 0.07957 0.79669 0.0
H1906 H 0.50047 0.11049 0.84476 0.0
H1907 H 0.53404 0.13404 0.85733 0.0
H1908 H 0.52206 0.14465 0.83684 0.0
H1909 H 0.56951 0.05315 0.82034 0.0
H1910 H 0.56913 0.06407 0.84484 0.0
H1911 H 0.53726 0.03821 0.83128 0.0
H1912 H 0.55078 0.08907 0.90224 0.0
H1913 H 0.4719 0.02817 0.8715 0.0
H1914 H 0.57681 0.13455 0.86761 0.0
H1915 H 0.58896 0.11044 0.86282 0.0
H1916 H 0.58836 0.1219 0.88713 0.0
H1917 H 0.47988 0.06091 0.82993 0.0
H1918 H 0.46193 0.02693 0.83886 0.0
H1919 H 0.49205 0.0366 0.82602 0.0
C1920 C 0.10786 0.22701 0.53421 0.0
C1921 C 0.10181 0.24171 0.54824 0.0
C1922 C 0.11569 0.23753 0.51668 0.0
C1923 C 0.11758 0.26342 0.5131 0.0
C1924 C 0.11029 0.27774 0.52687 0.0
C1925 C 0.10241 0.26666 0.54431 0.0
C1926 C 0.12306 0.22149 0.5023 0.0
C1927 C 0.11207 0.30542 0.52357 0.0
C1928 C 0.16992 0.30562 0.47915 0.0
C1929 C 0.15259 0.2999 0.46225 0.0
C1930 C 0.15869 0.29423 0.49584 0.0
C1931 C 0.12939 0.27654 0.49564 0.0
C1932 C 0.11173 0.27074 0.47866 0.0
C1933 C 0.12355 0.28253 0.46217 0.0
C1934 C 0.17824 0.30085 0.51365 0.0
C1935 C 0.08041 0.25196 0.4779 0.0
H1936 H 0.10699 0.20748 0.53713 0.0
H1937 H 0.09788 0.27814 0.55517 0.0
H1938 H 0.11139 0.21825 0.48821 0.0
H1939 H 0.14569 0.23392 0.50053 0.0
H1940 H 0.11838 0.20063 0.50664 0.0
H1941 H 0.10325 0.31255 0.53488 0.0
H1942 H 0.13428 0.32183 0.52318 0.0
H1943 H 0.10075 0.30362 0.50961 0.0
H1944 H 0.19239 0.3187 0.47925 0.0
H1945 H 0.11001 0.27838 0.44923 0.0
H1946 H 0.17664 0.28114 0.51811 0.0
H1947 H 0.17217 0.31019 0.52547 0.0
H1948 H 0.20041 0.3157 0.51159 0.0
H1949 H 0.0753 0.23068 0.48152 0.0
H1950 H 0.06957 0.24982 0.46364 0.0
H1951 H 0.07202 0.26052 0.48862 0.0
C1952 C 0.7772 0.85285 0.54724 0.0
C1953 C 0.76868 0.86582 0.56086 0.0
C1954 C 0.76758 0.84915 0.52786 0.0
C1955 C 0.74915 0.85878 0.52203 0.0
C1956 C 0.73981 0.87104 0.5358 0.0
C1957 C 0.74956 0.87426 0.55502 0.0
C1958 C 0.77775 0.83572 0.51359 0.0
C1959 C 0.72007 0.88149 0.53019 0.0
C1960 C 0.74555 0.88019 0.47244 0.0
C1961 C 0.7197 0.85784 0.46421 0.0
C1962 C 0.756 0.88019 0.49101 0.0
C1963 C 0.7403 0.85718 0.50151 0.0
C1964 C 0.71485 0.83392 0.49292 0.0
C1965 C 0.70479 0.83459 0.4744 0.0
C1966 C 0.78314 0.90547 0.49971 0.0
C1967 C 0.6977 0.80885 0.50357 0.0
H1968 H 0.79208 0.84641 0.55165 0.0
H1969 H 0.74245 0.88377 0.56553 0.0
H1970 H 0.75976 0.81827 0.50443 0.0
H1971 H 0.79094 0.85148 0.50413 0.0
H1972 H 0.79022 0.82734 0.52055 0.0
H1973 H 0.71429 0.8899 0.54271 0.0
H1974 H 0.72996 0.89842 0.52068 0.0
H1975 H 0.70066 0.86418 0.52214 0.0
H1976 H 0.75705 0.89827 0.46466 0.0
H1977 H 0.685 0.81707 0.46795 0.0
H1978 H 0.79748 0.89872 0.50587 0.0
H1979 H 0.77892 0.91662 0.5115 0.0
H1980 H 0.79391 0.92055 0.48918 0.0
H1981 H 0.71103 0.80108 0.50999 0.0
H1982 H 0.68003 0.79127 0.49423 0.0
H1983 H 0.68905 0.81522 0.51538 0.0
C1984 C 0.10463 0.89156 0.53973 0.0
C1985 C 0.12732 0.90317 0.55394 0.0
C1986 C 0.10841 0.88734 0.52055 0.0
C1987 C 0.13548 0.89495 0.51552 0.0
C1988 C 0.15835 0.90648 0.52983 0.0
C1989 C 0.15396 0.91028 0.5488 0.0
C1990 C 0.08351 0.87485 0.50569 0.0
C1991 C 0.18755 0.9148 0.52512 0.0
C1992 C 0.1487 0.86384 0.47072 0.0
C1993 C 0.1579 0.88623 0.45934 0.0
C1994 C 0.13977 0.86576 0.48862 0.0
C1995 C 0.14025 0.89075 0.49537 0.0
C1996 C 0.14826 0.9129 0.48357 0.0
C1997 C 0.1569 0.91033 0.46566 0.0
C1998 C 0.13113 0.84155 0.50066 0.0
C1999 C 0.14921 0.93996 0.49028 0.0
H2000 H 0.08402 0.88613 0.54355 0.0
H2001 H 0.17151 0.91865 0.55971 0.0
H2002 H 0.08699 0.88984 0.49494 0.0
H2003 H 0.08096 0.85536 0.49807 0.0
H2004 H 0.06379 0.8697 0.51194 0.0
H2005 H 0.20315 0.92391 0.53788 0.0
H2006 H 0.18784 0.89614 0.51855 0.0
H2007 H 0.19414 0.93051 0.51459 0.0
H2008 H 0.14899 0.84497 0.46576 0.0
H2009 H 0.16413 0.92776 0.45697 0.0
H2010 H 0.11096 0.83599 0.5063 0.0
H2011 H 0.14703 0.84788 0.51305 0.0
H2012 H 0.12897 0.82251 0.49257 0.0
H2013 H 0.12931 0.93542 0.49595 0.0
H2014 H 0.15303 0.95388 0.47873 0.0
H2015 H 0.16621 0.95154 0.50205 0.0
C2016 C 0.55719 0.75589 0.12345 0.0
C2017 C 0.56869 0.77793 0.11181 0.0
C2018 C 0.56755 0.75978 0.14261 0.0
C2019 C 0.58984 0.78645 0.15042 0.0
C2020 C 0.60111 0.80903 0.13892 0.0
C2021 C 0.59042 0.80449 0.11971 0.0
C2022 C 0.55495 0.73515 0.1544 0.0
C2023 C 0.62483 0.83779 0.14679 0.0
C2024 C 0.60096 0.79881 0.20444 0.0
C2025 C 0.62214 0.79236 0.20847 0.0
C2026 C 0.59081 0.79786 0.18557 0.0
C2027 C 0.60203 0.79016 0.17041 0.0
C2028 C 0.62387 0.78431 0.17439 0.0
C2029 C 0.6337 0.78557 0.19335 0.0
C2030 C 0.56756 0.80432 0.18188 0.0
C2031 C 0.63639 0.77603 0.15862 0.0
H2032 H 0.54 0.73547 0.11755 0.0
H2033 H 0.59951 0.82156 0.11077 0.0
H2034 H 0.57115 0.73006 0.15939 0.0
H2035 H 0.54742 0.74071 0.16722 0.0
H2036 H 0.5372 0.716 0.14631 0.0
H2037 H 0.63014 0.85351 0.13632 0.0
H2038 H 0.61928 0.84542 0.15977 0.0
H2039 H 0.64373 0.83646 0.151 0.0
H2040 H 0.59179 0.80389 0.21604 0.0
H2041 H 0.65047 0.78113 0.19634 0.0
H2042 H 0.54839 0.78508 0.17525 0.0
H2043 H 0.5734 0.82049 0.17172 0.0
H2044 H 0.56256 0.81198 0.19513 0.0
H2045 H 0.62012 0.7559 0.15059 0.0
H2046 H 0.65409 0.77338 0.16408 0.0
H2047 H 0.64397 0.7922 0.14841 0.0
C2048 C 0.23939 0.84166 0.12817 0.0
C2049 C 0.23819 0.81666 0.12119 0.0
C2050 C 0.23137 0.84441 0.14627 0.0
C2051 C 0.22215 0.82167 0.15765 0.0
C2052 C 0.22204 0.79685 0.15095 0.0
C2053 C 0.22998 0.79462 0.13278 0.0
C2054 C 0.23164 0.87115 0.15289 0.0
C2055 C 0.21265 0.77226 0.16273 0.0
C2056 C 0.21678 0.83299 0.21042 0.0
C2057 C 0.18797 0.8226 0.21066 0.0
C2058 C 0.22834 0.83319 0.19326 0.0
C2059 C 0.21068 0.82291 0.17592 0.0
C2060 C 0.18168 0.81277 0.17604 0.0
C2061 C 0.17067 0.81262 0.19339 0.0
C2062 C 0.25936 0.84408 0.1937 0.0
C2063 C 0.16214 0.80164 0.15784 0.0
H2064 H 0.24559 0.85867 0.11919 0.0
H2065 H 0.22945 0.77543 0.12751 0.0
H2066 H 0.20988 0.86651 0.15396 0.0
H2067 H 0.24316 0.87964 0.16728 0.0
H2068 H 0.24142 0.88764 0.14304 0.0
H2069 H 0.2157 0.75533 0.15605 0.0
H2070 H 0.22434 0.7794 0.17712 0.0
H2071 H 0.19014 0.76325 0.16459 0.0
H2072 H 0.23036 0.84113 0.22366 0.0
H2073 H 0.14834 0.80416 0.19344 0.0
H2074 H 0.26891 0.8615 0.18453 0.0
H2075 H 0.26297 0.82711 0.18789 0.0
H2076 H 0.2703 0.85184 0.20833 0.0
H2077 H 0.16951 0.81777 0.1476 0.0
H2078 H 0.14033 0.79562 0.1603 0.0
H2079 H 0.16208 0.78289 0.15108 0.0
C2080 C 0.22911 0.4427 0.14292 0.0
C2081 C 0.20826 0.42843 0.12764 0.0
C2082 C 0.2241 0.43493 0.16146 0.0
C2083 C 0.1977 0.41227 0.16469 0.0
C2084 C 0.17681 0.39744 0.14922 0.0
C2085 C 0.18234 0.40574 0.1309 0.0
C2086 C 0.24681 0.45127 0.17763 0.0
C2087 C 0.14849 0.37299 0.15205 0.0
C2088 C 0.188 0.37378 0.20882 0.0
C2089 C 0.17438 0.3845 0.21968 0.0
C2090 C 0.19661 0.38333 0.19115 0.0
C2091 C 0.19153 0.40417 0.18424 0.0
C2092 C 0.17875 0.41584 0.19547 0.0
C2093 C 0.17024 0.40579 0.21305 0.0
C2094 C 0.21005 0.37029 0.17954 0.0
C2095 C 0.17323 0.43829 0.18865 0.0
H2096 H 0.24909 0.4604 0.14045 0.0
H2097 H 0.16632 0.39446 0.11905 0.0
H2098 H 0.23957 0.4615 0.18804 0.0
H2099 H 0.25144 0.4368 0.18528 0.0
H2100 H 0.26646 0.46777 0.17265 0.0
H2101 H 0.13481 0.36325 0.13844 0.0
H2102 H 0.15099 0.35659 0.15883 0.0
H2103 H 0.1378 0.3802 0.16176 0.0
H2104 H 0.191 0.35711 0.2138 0.0
H2105 H 0.16007 0.4144 0.22154 0.0
H2106 H 0.22994 0.38693 0.17498 0.0
H2107 H 0.19601 0.35814 0.16646 0.0
H2108 H 0.21445 0.35592 0.18755 0.0
H2109 H 0.19272 0.45603 0.18446 0.0
H2110 H 0.16503 0.44664 0.19968 0.0
H2111 H 0.15775 0.42946 0.17585 0.0
C2112 C 0.77176 0.6038 0.88105 0.0
C2113 C 0.77126 0.57912 0.88563 0.0
C2114 C 0.77954 0.61413 0.86342 0.0
C2115 C 0.78688 0.59936 0.85005 0.0
C2116 C 0.7853 0.57381 0.85429 0.0
C2117 C 0.77757 0.56403 0.87206 0.0
C2118 C 0.78105 0.64149 0.85945 0.0
C2119 C 0.79269 0.55732 0.84032 0.0
C2120 C 0.79113 0.61853 0.79911 0.0
C2121 C 0.81995 0.6371 0.79906 0.0
C2122 C 0.78004 0.60571 0.81551 0.0
C2123 C 0.79819 0.61173 0.83226 0.0
C2124 C 0.82732 0.63012 0.83221 0.0
C2125 C 0.83784 0.64249 0.81561 0.0
C2126 C 0.74888 0.58613 0.815 0.0
C2127 C 0.84739 0.63703 0.84978 0.0
H2128 H 0.76716 0.61567 0.89155 0.0
H2129 H 0.77682 0.54472 0.87544 0.0
H2130 H 0.80312 0.65779 0.85845 0.0
H2131 H 0.76908 0.63883 0.8456 0.0
H2132 H 0.77274 0.64932 0.87073 0.0
H2133 H 0.78828 0.53679 0.84516 0.0
H2134 H 0.78081 0.55337 0.82621 0.0
H2135 H 0.81526 0.56975 0.83838 0.0
H2136 H 0.77713 0.61451 0.78646 0.0
H2137 H 0.86017 0.65642 0.81559 0.0
H2138 H 0.74011 0.59506 0.82515 0.0
H2139 H 0.7445 0.56549 0.81955 0.0
H2140 H 0.7378 0.58256 0.80059 0.0
H2141 H 0.84189 0.64699 0.86156 0.0
H2142 H 0.86947 0.65151 0.84732 0.0
H2143 H 0.84568 0.61742 0.85452 0.0
C2144 C 0.42474 0.21731 0.89202 0.0
C2145 C 0.44319 0.20832 0.89839 0.0
C2146 C 0.41441 0.21262 0.87281 0.0
C2147 C 0.42252 0.19835 0.85963 0.0
C2148 C 0.44047 0.18845 0.86601 0.0
C2149 C 0.45067 0.19362 0.88535 0.0
C2150 C 0.3952 0.22342 0.86657 0.0
C2151 C 0.44938 0.17297 0.85236 0.0
C2152 C 0.37575 0.16982 0.81303 0.0
C2153 C 0.39043 0.19143 0.80156 0.0
C2154 C 0.38661 0.17108 0.83171 0.0
C2155 C 0.41266 0.19462 0.83911 0.0
C2156 C 0.42812 0.21591 0.82732 0.0
C2157 C 0.41684 0.214 0.80864 0.0
C2158 C 0.36967 0.14781 0.84378 0.0
C2159 C 0.45591 0.24141 0.83473 0.0
H2160 H 0.41846 0.22821 0.9021 0.0
H2161 H 0.46508 0.1868 0.89018 0.0
H2162 H 0.40489 0.23888 0.85608 0.0
H2163 H 0.37516 0.20582 0.85942 0.0
H2164 H 0.39058 0.23374 0.87867 0.0
H2165 H 0.46206 0.16518 0.85977 0.0
H2166 H 0.43074 0.15479 0.84421 0.0
H2167 H 0.46192 0.18717 0.84191 0.0
H2168 H 0.35551 0.15211 0.80747 0.0
H2169 H 0.42815 0.23083 0.79984 0.0
H2170 H 0.36212 0.15604 0.85531 0.0
H2171 H 0.38286 0.1402 0.85065 0.0
H2172 H 0.35127 0.12967 0.83535 0.0
H2173 H 0.45271 0.25426 0.84591 0.0
H2174 H 0.46633 0.25486 0.82333 0.0
H2175 H 0.47013 0.23484 0.84139 0.0
C2176 C 0.79554 0.20759 0.87991 0.0
C2177 C 0.79817 0.23326 0.8869 0.0
C2178 C 0.80156 0.20363 0.86135 0.0
C2179 C 0.81014 0.2258 0.84951 0.0
C2180 C 0.81143 0.25123 0.85621 0.0
C2181 C 0.80554 0.25468 0.87485 0.0
C2182 C 0.80011 0.17629 0.85476 0.0
C2183 C 0.82017 0.27524 0.84398 0.0
C2184 C 0.85862 0.23172 0.81218 0.0
C2185 C 0.84026 0.22101 0.79539 0.0
C2186 C 0.84894 0.23291 0.82987 0.0
C2187 C 0.8202 0.22348 0.83083 0.0
C2188 C 0.8015 0.21269 0.81396 0.0
C2189 C 0.81173 0.2115 0.79644 0.0
C2190 C 0.86958 0.24456 0.84753 0.0
C2191 C 0.77074 0.20258 0.81442 0.0
H2192 H 0.78998 0.19106 0.88924 0.0
H2193 H 0.80719 0.27441 0.88016 0.0
H2194 H 0.78771 0.16754 0.84066 0.0
H2195 H 0.82151 0.18022 0.85308 0.0
H2196 H 0.79065 0.16027 0.86496 0.0
H2197 H 0.81767 0.29255 0.85065 0.0
H2198 H 0.84245 0.28393 0.8415 0.0
H2199 H 0.80767 0.26763 0.82986 0.0
H2200 H 0.88075 0.2396 0.8115 0.0
H2201 H 0.79733 0.20286 0.78357 0.0
H2202 H 0.86275 0.22894 0.85812 0.0
H2203 H 0.87035 0.26374 0.8542 0.0
H2204 H 0.89104 0.25007 0.84443 0.0
H2205 H 0.76152 0.18559 0.82394 0.0
H2206 H 0.75891 0.19451 0.80007 0.0
H2207 H 0.76797 0.22008 0.82031 0.0
C2208 C 0.21341 0.11354 0.46511 0.0
C2209 C 0.2247 0.10298 0.4519 0.0
C2210 C 0.22174 0.11702 0.4847 0.0
C2211 C 0.24172 0.10967 0.49118 0.0
C2212 C 0.25297 0.09878 0.47793 0.0
C2213 C 0.24445 0.09572 0.45848 0.0
C2214 C 0.2094 0.1288 0.49845 0.0
C2215 C 0.27437 0.09073 0.48426 0.0
C2216 C 0.28808 0.14196 0.53767 0.0
C2217 C 0.27601 0.11968 0.54905 0.0
C2218 C 0.2762 0.13955 0.51911 0.0
C2219 C 0.25179 0.11415 0.51172 0.0
C2220 C 0.23873 0.09208 0.52347 0.0
C2221 C 0.25098 0.09517 0.54207 0.0
C2222 C 0.29059 0.16367 0.50712 0.0
C2223 C 0.21276 0.06463 0.51605 0.0
H2224 H 0.19795 0.11893 0.46014 0.0
H2225 H 0.25368 0.08806 0.44835 0.0
H2226 H 0.19928 0.11388 0.50917 0.0
H2227 H 0.22627 0.14877 0.50628 0.0
H2228 H 0.19369 0.13296 0.49116 0.0
H2229 H 0.28026 0.08159 0.47219 0.0
H2230 H 0.29355 0.10957 0.49132 0.0
H2231 H 0.26608 0.07516 0.49483 0.0
H2232 H 0.30724 0.1611 0.54318 0.0
H2233 H 0.2417 0.07788 0.55082 0.0
H2234 H 0.27529 0.1688 0.50036 0.0
H2235 H 0.29965 0.15746 0.49551 0.0
H2236 H 0.30766 0.18294 0.51557 0.0
H2237 H 0.19674 0.06861 0.5091 0.0
H2238 H 0.20355 0.05082 0.52752 0.0
H2239 H 0.21804 0.0532 0.50512 0.0
C2240 C 0.90454 0.11965 0.46822 0.0
C2241 C 0.90923 0.14036 0.45597 0.0
C2242 C 0.89697 0.12156 0.48658 0.0
C2243 C 0.89373 0.14461 0.49281 0.0
C2244 C 0.89951 0.16617 0.48078 0.0
C2245 C 0.90735 0.16386 0.46251 0.0
C2246 C 0.89141 0.09833 0.49904 0.0
C2247 C 0.89611 0.19098 0.48683 0.0
C2248 C 0.84174 0.13058 0.52916 0.0
C2249 C 0.85931 0.14353 0.54618 0.0
C2250 C 0.85273 0.13125 0.51173 0.0
C2251 C 0.88208 0.14487 0.51122 0.0
C2252 C 0.90001 0.15789 0.52831 0.0
C2253 C 0.88843 0.15718 0.54556 0.0
C2254 C 0.83286 0.11712 0.49383 0.0
C2255 C 0.93141 0.17243 0.52837 0.0
H2256 H 0.90633 0.10163 0.46327 0.0
H2257 H 0.91082 0.17982 0.45304 0.0
H2258 H 0.90325 0.10734 0.51329 0.0
H2259 H 0.86886 0.08658 0.50113 0.0
H2260 H 0.89724 0.0832 0.49277 0.0
H2261 H 0.90364 0.20706 0.47653 0.0
H2262 H 0.87369 0.18359 0.48811 0.0
H2263 H 0.9077 0.20108 0.50102 0.0
H2264 H 0.81925 0.11951 0.52947 0.0
H2265 H 0.90224 0.1676 0.55855 0.0
H2266 H 0.83548 0.09973 0.48753 0.0
H2267 H 0.83772 0.13241 0.48311 0.0
H2268 H 0.81063 0.10837 0.49654 0.0
H2269 H 0.93754 0.15729 0.52265 0.0
H2270 H 0.94246 0.18145 0.54286 0.0
H2271 H 0.9386 0.18962 0.51895 0.0
C2272 C 0.89452 0.7765 0.47771 0.0
C2273 C 0.87236 0.76441 0.46311 0.0
C2274 C 0.89049 0.76774 0.49608 0.0
C2275 C 0.86369 0.74645 0.4999 0.0
C2276 C 0.84134 0.73405 0.48518 0.0
C2277 C 0.84598 0.7431 0.46698 0.0
C2278 C 0.91482 0.78135 0.51143 0.0
C2279 C 0.81246 0.7112 0.48865 0.0
C2280 C 0.85326 0.70228 0.54105 0.0
C2281 C 0.84276 0.71401 0.55404 0.0
C2282 C 0.86135 0.71343 0.52371 0.0
C2283 C 0.85877 0.73682 0.51922 0.0
C2284 C 0.84928 0.74949 0.53262 0.0
C2285 C 0.84144 0.73795 0.54991 0.0
C2286 C 0.87161 0.69949 0.50988 0.0
C2287 C 0.84616 0.7744 0.52832 0.0
H2288 H 0.91488 0.79316 0.47486 0.0
H2289 H 0.82889 0.73332 0.45568 0.0
H2290 H 0.90995 0.79177 0.5233 0.0
H2291 H 0.91842 0.76507 0.51738 0.0
H2292 H 0.93444 0.79726 0.50607 0.0
H2293 H 0.7973 0.70394 0.4757 0.0
H2294 H 0.81341 0.69285 0.49349 0.0
H2295 H 0.80447 0.71902 0.50012 0.0
H2296 H 0.85475 0.68405 0.54435 0.0
H2297 H 0.83319 0.74699 0.55987 0.0
H2298 H 0.89169 0.7154 0.50509 0.0
H2299 H 0.85624 0.68952 0.49706 0.0
H2300 H 0.87466 0.68307 0.51618 0.0
H2301 H 0.86578 0.79124 0.5236 0.0
H2302 H 0.84083 0.78327 0.54085 0.0
H2303 H 0.82938 0.76785 0.5165 0.0
loop_
_geom_bond_atom_site_label_1
_geom_bond_atom_site_label_2
_geom_bond_distance
_geom_bond_site_symmetry_2
_ccdc_geom_bond_type
H0 C5 0.930 . S
H1 C8 0.930 . S
H2 C10 0.930 . S
H3 C4 1.016 . S
C4 H3 1.016 . S
C4 N11 1.286 . S
C5 H0 0.930 . S
C5 C6 1.397 . S
C5 C7 1.361 . S
C6 C5 1.397 . S
C6 C10 1.390 . S
C7 C5 1.361 . S
C7 C8 1.393 . S
C7 N11 1.413 . S
C8 H1 0.930 . S
C8 C7 1.393 . S
C8 C9 1.399 . S
C9 C8 1.399 . S
C9 C10 1.381 . S
C10 H2 0.930 . S
C10 C6 1.390 . S
C10 C9 1.381 . S
N11 C4 1.286 . S
N11 C7 1.413 . S
H12 C17 0.930 . S
H13 C20 0.930 . S
H14 C22 0.930 . S
H15 C16 1.016 . S
C16 H15 1.016 . S
C16 N23 1.286 . S
C17 H12 0.930 . S
C17 C18 1.397 . S
C17 C19 1.361 . S
C18 C17 1.397 . S
C18 C22 1.390 . S
C19 C17 1.361 . S
C19 C20 1.393 . S
C19 N23 1.413 . S
C20 H13 0.930 . S
C20 C19 1.393 . S
C20 C21 1.399 . S
C21 C20 1.399 . S
C21 C22 1.381 . S
C22 H14 0.930 . S
C22 C18 1.390 . S
C22 C21 1.381 . S
N23 C16 1.286 . S
N23 C19 1.413 . S
H24 C29 0.930 . S
H25 C32 0.930 . S
H26 C34 0.930 . S
H27 C28 1.016 . S
C28 H27 1.016 . S
C28 N35 1.286 . S
C29 H24 0.930 . S
C29 C30 1.397 . S
C29 C31 1.361 . S
C30 C29 1.397 . S
C30 C34 1.390 . S
C31 C29 1.361 . S
C31 C32 1.393 . S
C31 N35 1.413 . S
C32 H25 0.930 . S
C32 C31 1.393 . S
C32 C33 1.399 . S
C33 C32 1.399 . S
C33 C34 1.381 . S
C34 H26 0.930 . S
C34 C30 1.390 . S
C34 C33 1.381 . S
N35 C28 1.286 . S
N35 C31 1.413 . S
H36 C41 0.930 . S
H37 C44 0.930 . S
H38 C46 0.930 . S
H39 C40 1.016 . S
C40 H39 1.016 . S
C40 N47 1.286 . S
C41 H36 0.930 . S
C41 C42 1.397 . S
C41 C43 1.361 . S
C42 C41 1.397 . S
C42 C46 1.390 . S
C43 C41 1.361 . S
C43 C44 1.393 . S
C43 N47 1.413 . S
C44 H37 0.930 . S
C44 C43 1.393 . S
C44 C45 1.399 . S
C45 C44 1.399 . S
C45 C46 1.381 . S
C46 H38 0.930 . S
C46 C42 1.390 . S
C46 C45 1.381 . S
N47 C40 1.286 . S
N47 C43 1.413 . S
H48 C53 0.930 . S
H49 C56 0.930 . S
H50 C58 0.930 . S
H51 C52 1.016 . S
C52 H51 1.016 . S
C52 N59 1.286 . S
C53 H48 0.930 . S
C53 C54 1.397 . S
C53 C55 1.361 . S
C54 C53 1.397 . S
C54 C58 1.390 . S
C55 C53 1.361 . S
C55 C56 1.393 . S
C55 N59 1.413 . S
C56 H49 0.930 . S
C56 C55 1.393 . S
C56 C57 1.399 . S
C57 C56 1.399 . S
C57 C58 1.381 . S
C58 H50 0.930 . S
C58 C54 1.390 . S
C58 C57 1.381 . S
N59 C52 1.286 . S
N59 C55 1.413 . S
H60 C65 0.930 . S
H61 C68 0.930 . S
H62 C70 0.930 . S
H63 C64 1.016 . S
C64 H63 1.016 . S
C64 N71 1.286 . S
C65 H60 0.930 . S
C65 C66 1.397 . S
C65 C67 1.361 . S
C66 C65 1.397 . S
C66 C70 1.390 . S
C67 C65 1.361 . S
C67 C68 1.393 . S
C67 N71 1.413 . S
C68 H61 0.930 . S
C68 C67 1.393 . S
C68 C69 1.399 . S
C69 C68 1.399 . S
C69 C70 1.381 . S
C70 H62 0.930 . S
C70 C66 1.390 . S
C70 C69 1.381 . S
N71 C64 1.286 . S
N71 C67 1.413 . S
H72 C77 0.930 . S
H73 C80 0.930 . S
H74 C82 0.930 . S
H75 C76 1.016 . S
C76 H75 1.016 . S
C76 N83 1.286 . S
C77 H72 0.930 . S
C77 C78 1.397 . S
C77 C79 1.361 . S
C78 C77 1.397 . S
C78 C82 1.390 . S
C79 C77 1.361 . S
C79 C80 1.393 . S
C79 N83 1.413 . S
C80 H73 0.930 . S
C80 C79 1.393 . S
C80 C81 1.399 . S
C81 C80 1.399 . S
C81 C82 1.381 . S
C82 H74 0.930 . S
C82 C78 1.390 . S
C82 C81 1.381 . S
N83 C76 1.286 . S
N83 C79 1.413 . S
H84 C89 0.930 . S
H85 C92 0.930 . S
H86 C94 0.930 . S
H87 C88 1.016 . S
C88 H87 1.016 . S
C88 N95 1.286 . S
C89 H84 0.930 . S
C89 C90 1.397 . S
C89 C91 1.361 . S
C90 C89 1.397 . S
C90 C94 1.390 . S
C91 C89 1.361 . S
C91 C92 1.393 . S
C91 N95 1.413 . S
C92 H85 0.930 . S
C92 C91 1.393 . S
C92 C93 1.399 . S
C93 C92 1.399 . S
C93 C94 1.381 . S
C94 H86 0.930 . S
C94 C90 1.390 . S
C94 C93 1.381 . S
N95 C88 1.286 . S
N95 C91 1.413 . S
H96 C101 0.930 . S
H97 C104 0.930 . S
H98 C106 0.930 . S
H99 C100 1.016 . S
C100 H99 1.016 . S
C100 N107 1.286 . S
C101 H96 0.930 . S
C101 C102 1.397 . S
C101 C103 1.361 . S
C102 C101 1.397 . S
C102 C106 1.390 . S
C103 C101 1.361 . S
C103 C104 1.393 . S
C103 N107 1.413 . S
C104 H97 0.930 . S
C104 C103 1.393 . S
C104 C105 1.399 . S
C105 C104 1.399 . S
C105 C106 1.381 . S
C106 H98 0.930 . S
C106 C102 1.390 . S
C106 C105 1.381 . S
N107 C100 1.286 . S
N107 C103 1.413 . S
H108 C113 0.930 . S
H109 C116 0.930 . S
H110 C118 0.930 . S
H111 C112 1.016 . S
C112 H111 1.016 . S
C112 N119 1.286 . S
C113 H108 0.930 . S
C113 C114 1.397 . S
C113 C115 1.361 . S
C114 C113 1.397 . S
C114 C118 1.390 . S
C115 C113 1.361 . S
C115 C116 1.393 . S
C115 N119 1.413 . S
C116 H109 0.930 . S
C116 C115 1.393 . S
C116 C117 1.399 . S
C117 C116 1.399 . S
C117 C118 1.381 . S
C118 H110 0.930 . S
C118 C114 1.390 . S
C118 C117 1.381 . S
N119 C112 1.286 . S
N119 C115 1.413 . S
H120 C125 0.930 . S
H121 C128 0.930 . S
H122 C130 0.930 . S
H123 C124 1.016 . S
C124 H123 1.016 . S
C124 N131 1.286 . S
C125 H120 0.930 . S
C125 C126 1.397 . S
C125 C127 1.361 . S
C126 C125 1.397 . S
C126 C130 1.390 . S
C127 C125 1.361 . S
C127 C128 1.393 . S
C127 N131 1.413 . S
C128 H121 0.930 . S
C128 C127 1.393 . S
C128 C129 1.399 . S
C129 C128 1.399 . S
C129 C130 1.381 . S
C130 H122 0.930 . S
C130 C126 1.390 . S
C130 C129 1.381 . S
N131 C124 1.286 . S
N131 C127 1.413 . S
H132 C137 0.930 . S
H133 C140 0.930 . S
H134 C142 0.930 . S
H135 C136 1.016 . S
C136 H135 1.016 . S
C136 N143 1.286 . S
C137 H132 0.930 . S
C137 C138 1.397 . S
C137 C139 1.361 . S
C138 C137 1.397 . S
C138 C142 1.390 . S
C139 C137 1.361 . S
C139 C140 1.393 . S
C139 N143 1.413 . S
C140 H133 0.930 . S
C140 C139 1.393 . S
C140 C141 1.399 . S
C141 C140 1.399 . S
C141 C142 1.381 . S
C142 H134 0.930 . S
C142 C138 1.390 . S
C142 C141 1.381 . S
N143 C136 1.286 . S
N143 C139 1.413 . S
H144 C149 0.930 . S
H145 C152 0.930 . S
H146 C154 0.930 . S
H147 C148 1.016 . S
C148 H147 1.016 . S
C148 N155 1.286 . S
C149 H144 0.930 . S
C149 C150 1.397 . S
C149 C151 1.361 . S
C150 C149 1.397 . S
C150 C154 1.390 . S
C151 C149 1.361 . S
C151 C152 1.393 . S
C151 N155 1.413 . S
C152 H145 0.930 . S
C152 C151 1.393 . S
C152 C153 1.399 . S
C153 C152 1.399 . S
C153 C154 1.381 . S
C154 H146 0.930 . S
C154 C150 1.390 . S
C154 C153 1.381 . S
N155 C148 1.286 . S
N155 C151 1.413 . S
H156 C161 0.930 . S
H157 C164 0.930 . S
H158 C166 0.930 . S
H159 C160 1.016 . S
C160 H159 1.016 . S
C160 N167 1.286 . S
C161 H156 0.930 . S
C161 C162 1.397 . S
C161 C163 1.361 . S
C162 C161 1.397 . S
C162 C166 1.390 . S
C163 C161 1.361 . S
C163 C164 1.393 . S
C163 N167 1.413 . S
C164 H157 0.930 . S
C164 C163 1.393 . S
C164 C165 1.399 . S
C165 C164 1.399 . S
C165 C166 1.381 . S
C166 H158 0.930 . S
C166 C162 1.390 . S
C166 C165 1.381 . S
N167 C160 1.286 . S
N167 C163 1.413 . S
H168 C173 0.930 . S
H169 C176 0.930 . S
H170 C178 0.930 . S
H171 C172 1.016 . S
C172 H171 1.016 . S
C172 N179 1.286 . S
C173 H168 0.930 . S
C173 C174 1.397 . S
C173 C175 1.361 . S
C174 C173 1.397 . S
C174 C178 1.390 . S
C175 C173 1.361 . S
C175 C176 1.393 . S
C175 N179 1.413 . S
C176 H169 0.930 . S
C176 C175 1.393 . S
C176 C177 1.399 . S
C177 C176 1.399 . S
C177 C178 1.381 . S
C178 H170 0.930 . S
C178 C174 1.390 . S
C178 C177 1.381 . S
N179 C172 1.286 . S
N179 C175 1.413 . S
H180 C185 0.930 . S
H181 C188 0.930 . S
H182 C190 0.930 . S
H183 C184 1.016 . S
C184 H183 1.016 . S
C184 N191 1.286 . S
C185 H180 0.930 . S
C185 C186 1.397 . S
C185 C187 1.361 . S
C186 C185 1.397 . S
C186 C190 1.390 . S
C187 C185 1.361 . S
C187 C188 1.393 . S
C187 N191 1.413 . S
C188 H181 0.930 . S
C188 C187 1.393 . S
C188 C189 1.399 . S
C189 C188 1.399 . S
C189 C190 1.381 . S
C190 H182 0.930 . S
C190 C186 1.390 . S
C190 C189 1.381 . S
N191 C184 1.286 . S
N191 C187 1.413 . S
H192 C197 0.930 . S
H193 C200 0.930 . S
H194 C202 0.930 . S
H195 C196 1.016 . S
C196 H195 1.016 . S
C196 N203 1.286 . S
C197 H192 0.930 . S
C197 C198 1.397 . S
C197 C199 1.361 . S
C198 C197 1.397 . S
C198 C202 1.390 . S
C199 C197 1.361 . S
C199 C200 1.393 . S
C199 N203 1.413 . S
C200 H193 0.930 . S
C200 C199 1.393 . S
C200 C201 1.399 . S
C201 C200 1.399 . S
C201 C202 1.381 . S
C202 H194 0.930 . S
C202 C198 1.390 . S
C202 C201 1.381 . S
N203 C196 1.286 . S
N203 C199 1.413 . S
H204 C209 0.930 . S
H205 C212 0.930 . S
H206 C214 0.930 . S
H207 C208 1.016 . S
C208 H207 1.016 . S
C208 N215 1.286 . S
C209 H204 0.930 . S
C209 C210 1.397 . S
C209 C211 1.361 . S
C210 C209 1.397 . S
C210 C214 1.390 . S
C211 C209 1.361 . S
C211 C212 1.393 . S
C211 N215 1.413 . S
C212 H205 0.930 . S
C212 C211 1.393 . S
C212 C213 1.399 . S
C213 C212 1.399 . S
C213 C214 1.381 . S
C214 H206 0.930 . S
C214 C210 1.390 . S
C214 C213 1.381 . S
N215 C208 1.286 . S
N215 C211 1.413 . S
C216 Eu217 2.835 . S
C216 C218 1.500 1_545 S
C216 O236 1.257 1_545 S
C216 O237 1.260 . S
Eu217 C216 2.835 . S
Eu217 O236 2.473 1_545 S
Eu217 O237 2.480 . S
Eu217 O238 2.430 . S
Eu217 O239 2.670 1_554 S
Eu217 O240 2.394 1_545 S
Eu217 O245 2.355 1_545 S
Eu217 O247 2.374 . S
C218 C216 1.500 1_565 S
C218 C219 1.377 1_565 S
C218 C223 1.377 . S
C219 C218 1.377 1_545 S
C219 C220 1.400 . S
C219 H248 0.931 . S
C220 C219 1.400 . S
C220 C221 1.362 1_545 S
C220 H249 0.947 . S
C221 C220 1.362 1_565 S
C221 C222 1.394 . S
C222 C221 1.394 . S
C222 C223 1.378 . S
C222 H250 0.931 . S
C223 C218 1.377 . S
C223 C222 1.378 . S
C223 H251 0.931 . S
C224 O238 1.259 . S
C224 O239 1.270 1_554 S
C225 O240 1.251 . S
C225 O241 1.251 1_554 S
C226 Eu227 2.835 1_545 S
C226 C228 1.500 . S
C226 O242 1.257 . S
C226 O243 1.260 1_545 S
Eu227 C226 2.835 1_565 S
Eu227 O239 2.355 1_565 S
Eu227 O241 2.374 . S
Eu227 O242 2.473 1_565 S
Eu227 O243 2.480 . S
Eu227 O244 2.430 . S
Eu227 O245 2.670 1_556 S
Eu227 O246 2.394 1_565 S
C228 C226 1.500 . S
C228 C229 1.377 . S
C228 C233 1.377 . S
C229 C228 1.377 . S
C229 C230 1.395 . S
C229 H252 0.931 1_545 S
C230 C229 1.395 . S
C230 C231 1.383 . S
C230 H253 0.931 1_545 S
C231 C230 1.383 . S
C231 C232 1.394 . S
C232 C231 1.394 . S
C232 C233 1.378 . S
C232 H254 0.931 . S
C233 C228 1.377 . S
C233 C232 1.378 . S
C233 H255 0.931 . S
C234 O244 1.259 1_554 S
C234 O245 1.270 . S
C235 O246 1.251 . S
C235 O247 1.251 1_556 S
O236 C216 1.257 1_565 S
O236 Eu217 2.473 1_565 S
O237 C216 1.260 . S
O237 Eu217 2.480 . S
O238 Eu217 2.430 . S
O238 C224 1.259 . S
O239 Eu217 2.670 1_556 S
O239 C224 1.270 1_556 S
O239 Eu227 2.355 1_545 S
O240 Eu217 2.394 1_565 S
O240 C225 1.251 . S
O241 C225 1.251 1_556 S
O241 Eu227 2.374 . S
O242 C226 1.257 . S
O242 Eu227 2.473 1_545 S
O243 C226 1.260 1_565 S
O243 Eu227 2.480 . S
O244 Eu227 2.430 . S
O244 C234 1.259 1_556 S
O245 Eu217 2.355 1_565 S
O245 Eu227 2.670 1_554 S
O245 C234 1.270 . S
O246 Eu227 2.394 1_545 S
O246 C235 1.251 . S
O247 Eu217 2.374 . S
O247 C235 1.251 1_554 S
H248 C219 0.931 . S
H249 C220 0.947 . S
H250 C222 0.931 . S
H251 C223 0.931 . S
H252 C229 0.931 1_565 S
H253 C230 0.931 1_565 S
H254 C232 0.931 . S
H255 C233 0.931 . S
C256 Eu257 2.835 1_455 S
C256 C258 1.500 . S
C256 O276 1.257 . S
C256 O277 1.260 1_455 S
Eu257 C256 2.835 1_655 S
Eu257 O276 2.473 1_655 S
Eu257 O277 2.480 . S
Eu257 O278 2.430 . S
Eu257 O279 2.670 1_554 S
Eu257 O280 2.394 1_655 S
Eu257 O285 2.355 1_655 S
Eu257 O287 2.374 . S
C258 C256 1.500 . S
C258 C259 1.377 . S
C258 C263 1.377 . S
C259 C258 1.377 . S
C259 C260 1.395 . S
C259 H288 0.931 1_455 S
C260 C259 1.395 . S
C260 C261 1.383 . S
C260 H289 0.931 . S
C261 C260 1.383 . S
C261 C262 1.394 . S
C262 C261 1.394 . S
C262 C263 1.378 . S
C262 H290 0.931 . S
C263 C258 1.377 . S
C263 C262 1.378 . S
C263 H291 0.931 . S
C264 O278 1.259 . S
C264 O279 1.270 1_554 S
C265 O280 1.251 . S
C265 O281 1.251 . S
C266 Eu267 2.835 1_655 S
C266 C268 1.500 . S
C266 O282 1.257 . S
C266 O283 1.260 1_655 S
Eu267 C266 2.835 1_455 S
Eu267 O279 2.355 1_455 S
Eu267 O281 2.374 1_556 S
Eu267 O282 2.473 1_455 S
Eu267 O283 2.480 . S
Eu267 O284 2.430 . S
Eu267 O285 2.670 1_556 S
Eu267 O286 2.394 1_455 S
C268 C266 1.500 . S
C268 C269 1.376 . S
C268 C273 1.377 . S
C269 C268 1.376 . S
C269 C270 1.394 . S
C269 H292 0.932 1_655 S
C270 C269 1.394 . S
C270 C271 1.383 . S
C270 H293 0.931 1_655 S
C271 C270 1.383 . S
C271 C272 1.394 . S
C272 C271 1.394 . S
C272 C273 1.378 . S
C272 H294 0.931 . S
C273 C268 1.377 . S
C273 C272 1.378 . S
C273 H295 0.931 . S
C274 O284 1.259 1_554 S
C274 O285 1.270 . S
C275 O286 1.251 . S
C275 O287 1.251 1_556 S
O276 C256 1.257 . S
O276 Eu257 2.473 1_455 S
O277 C256 1.260 1_655 S
O277 Eu257 2.480 . S
O278 Eu257 2.430 . S
O278 C264 1.259 . S
O279 Eu257 2.670 1_556 S
O279 C264 1.270 1_556 S
O279 Eu267 2.355 1_655 S
O280 Eu257 2.394 1_455 S
O280 C265 1.251 . S
O281 C265 1.251 . S
O281 Eu267 2.374 1_554 S
O282 C266 1.257 . S
O282 Eu267 2.473 1_655 S
O283 C266 1.260 1_455 S
O283 Eu267 2.480 . S
O284 Eu267 2.430 . S
O284 C274 1.259 1_556 S
O285 Eu257 2.355 1_455 S
O285 Eu267 2.670 1_554 S
O285 C274 1.270 . S
O286 Eu267 2.394 1_655 S
O286 C275 1.251 . S
O287 Eu257 2.374 . S
O287 C275 1.251 1_554 S
H288 C259 0.931 1_655 S
H289 C260 0.931 . S
H290 C262 0.931 . S
H291 C263 0.931 . S
H292 C269 0.932 1_455 S
H293 C270 0.931 1_455 S
H294 C272 0.931 . S
H295 C273 0.931 . S
C296 Eu297 2.835 . S
C296 C298 1.500 . S
C296 O316 1.257 . S
C296 O317 1.260 . S
Eu297 C296 2.835 . S
Eu297 O316 2.473 . S
Eu297 O317 2.480 . S
Eu297 O318 2.430 . S
Eu297 O319 2.670 1_556 S
Eu297 O320 2.394 . S
Eu297 O325 2.321 1_556 S
Eu297 O327 2.374 1_556 S
C298 C296 1.500 . S
C298 C299 1.377 . S
C298 C303 1.377 . S
C299 C298 1.377 . S
C299 C300 1.395 . S
C299 H328 0.931 . S
C300 C299 1.395 . S
C300 C301 1.383 . S
C300 H329 0.931 . S
C301 C300 1.383 . S
C301 C302 1.394 . S
C302 C301 1.394 . S
C302 C303 1.378 . S
C302 H330 0.931 . S
C303 C298 1.377 . S
C303 C302 1.378 . S
C303 H331 0.931 . S
C304 O318 1.259 1_554 S
C304 O319 1.270 . S
C305 O320 1.251 . S
C305 O321 1.251 1_556 S
C306 Eu307 2.835 . S
C306 C308 1.500 . S
C306 O322 1.257 . S
C306 O323 1.260 . S
Eu307 C306 2.835 . S
Eu307 O319 2.355 . S
Eu307 O321 2.374 . S
Eu307 O322 2.473 . S
Eu307 O323 2.480 . S
Eu307 O324 2.430 . S
Eu307 O325 2.724 . S
Eu307 O326 2.394 . S
C308 C306 1.500 . S
C308 C309 1.377 . S
C308 C313 1.377 . S
C309 C308 1.377 . S
C309 C310 1.395 . S
C309 H332 0.931 . S
C310 C309 1.395 . S
C310 C311 1.383 . S
C310 H333 0.931 . S
C311 C310 1.383 . S
C311 C312 1.394 . S
C312 C311 1.394 . S
C312 C313 1.378 . S
C312 H334 0.931 . S
C313 C308 1.377 . S
C313 C312 1.378 . S
C313 H335 0.931 . S
C314 O324 1.259 . S
C314 O325 1.301 . S
C315 O326 1.251 . S
C315 O327 1.251 . S
O316 C296 1.257 . S
O316 Eu297 2.473 . S
O317 C296 1.260 . S
O317 Eu297 2.480 . S
O318 Eu297 2.430 . S
O318 C304 1.259 1_556 S
O319 Eu297 2.670 1_554 S
O319 C304 1.270 . S
O319 Eu307 2.355 . S
O320 Eu297 2.394 . S
O320 C305 1.251 . S
O321 C305 1.251 1_554 S
O321 Eu307 2.374 . S
O322 C306 1.257 . S
O322 Eu307 2.473 . S
O323 C306 1.260 . S
O323 Eu307 2.480 . S
O324 Eu307 2.430 . S
O324 C314 1.259 . S
O325 Eu297 2.321 1_554 S
O325 Eu307 2.724 . S
O325 C314 1.301 . S
O326 Eu307 2.394 . S
O326 C315 1.251 . S
O327 Eu297 2.374 1_554 S
O327 C315 1.251 . S
H328 C299 0.931 . S
H329 C300 0.931 . S
H330 C302 0.931 . S
H331 C303 0.931 . S
H332 C309 0.931 . S
H333 C310 0.931 . S
H334 C312 0.931 . S
H335 C313 0.931 . S
C336 Eu337 2.835 . S
C336 C338 1.500 . S
C336 O356 1.257 . S
C336 O357 1.260 . S
Eu337 C336 2.835 . S
Eu337 O356 2.473 . S
Eu337 O357 2.480 . S
Eu337 O358 2.430 . S
Eu337 O359 2.670 . S
Eu337 O360 2.394 . S
Eu337 O365 2.355 . S
Eu337 O367 2.374 . S
C338 C336 1.500 . S
C338 C339 1.377 . S
C338 C343 1.377 . S
C339 C338 1.377 . S
C339 C340 1.395 . S
C339 H368 0.931 . S
C340 C339 1.395 . S
C340 C341 1.383 . S
C340 H369 0.931 . S
C341 C340 1.383 . S
C341 C342 1.394 . S
C342 C341 1.394 . S
C342 C343 1.378 . S
C342 H370 0.931 . S
C343 C338 1.377 . S
C343 C342 1.378 . S
C343 H371 0.931 . S
C344 O358 1.259 . S
C344 O359 1.270 . S
C345 O360 1.251 . S
C345 O361 1.251 . S
C346 Eu347 2.835 . S
C346 C348 1.500 . S
C346 O362 1.257 . S
C346 O363 1.260 . S
Eu347 C346 2.835 . S
Eu347 O359 2.355 . S
Eu347 O361 2.374 . S
Eu347 O362 2.473 . S
Eu347 O363 2.480 . S
Eu347 O364 2.430 . S
Eu347 O365 2.670 . S
Eu347 O366 2.394 . S
C348 C346 1.500 . S
C348 C349 1.377 . S
C348 C353 1.377 . S
C349 C348 1.377 . S
C349 C350 1.395 . S
C349 H372 0.931 . S
C350 C349 1.395 . S
C350 C351 1.383 . S
C350 H373 0.931 . S
C351 C350 1.383 . S
C351 C352 1.394 . S
C352 C351 1.394 . S
C352 C353 1.378 . S
C352 H374 0.931 . S
C353 C348 1.377 . S
C353 C352 1.378 . S
C353 H375 0.931 . S
C354 O364 1.259 . S
C354 O365 1.270 . S
C355 O366 1.251 . S
C355 O367 1.251 . S
O356 C336 1.257 . S
O356 Eu337 2.473 . S
O357 C336 1.260 . S
O357 Eu337 2.480 . S
O358 Eu337 2.430 . S
O358 C344 1.259 . S
O359 Eu337 2.670 . S
O359 C344 1.270 . S
O359 Eu347 2.355 . S
O360 Eu337 2.394 . S
O360 C345 1.251 . S
O361 C345 1.251 . S
O361 Eu347 2.374 . S
O362 C346 1.257 . S
O362 Eu347 2.473 . S
O363 C346 1.260 . S
O363 Eu347 2.480 . S
O364 Eu347 2.430 . S
O364 C354 1.259 . S
O365 Eu337 2.355 . S
O365 Eu347 2.670 . S
O365 C354 1.270 . S
O366 Eu347 2.394 . S
O366 C355 1.251 . S
O367 Eu337 2.374 . S
O367 C355 1.251 . S
H368 C339 0.931 . S
H369 C340 0.931 . S
H370 C342 0.931 . S
H371 C343 0.931 . S
H372 C349 0.931 . S
H373 C350 0.931 . S
H374 C352 0.931 . S
H375 C353 0.931 . S
C376 Eu377 2.835 . S
C376 C378 1.500 . S
C376 O396 1.257 . S
C376 O397 1.260 . S
Eu377 C376 2.835 . S
Eu377 O396 2.473 . S
Eu377 O397 2.480 . S
Eu377 O398 2.430 . S
Eu377 O399 2.670 . S
Eu377 O400 2.394 . S
Eu377 O405 2.355 . S
Eu377 O407 2.374 . S
C378 C376 1.500 . S
C378 C379 1.377 . S
C378 C383 1.377 . S
C379 C378 1.377 . S
C379 C380 1.395 . S
C379 H408 0.931 . S
C380 C379 1.395 . S
C380 C381 1.383 . S
C380 H409 0.931 . S
C381 C380 1.383 . S
C381 C382 1.394 . S
C382 C381 1.394 . S
C382 C383 1.378 . S
C382 H410 0.931 . S
C383 C378 1.377 . S
C383 C382 1.378 . S
C383 H411 0.931 . S
C384 O398 1.259 . S
C384 O399 1.270 . S
C385 O400 1.251 . S
C385 O401 1.251 . S
C386 Eu387 2.835 . S
C386 C388 1.500 . S
C386 O402 1.257 . S
C386 O403 1.260 . S
Eu387 C386 2.835 . S
Eu387 O399 2.355 . S
Eu387 O401 2.374 . S
Eu387 O402 2.473 . S
Eu387 O403 2.480 . S
Eu387 O404 2.430 . S
Eu387 O405 2.670 . S
Eu387 O406 2.394 . S
C388 C386 1.500 . S
C388 C389 1.377 . S
C388 C393 1.377 . S
C389 C388 1.377 . S
C389 C390 1.395 . S
C389 H412 0.931 . S
C390 C389 1.395 . S
C390 C391 1.383 . S
C390 H413 0.931 . S
C391 C390 1.383 . S
C391 C392 1.394 . S
C392 C391 1.394 . S
C392 C393 1.378 . S
C392 H414 0.931 . S
C393 C388 1.377 . S
C393 C392 1.378 . S
C393 H415 0.931 . S
C394 O404 1.259 . S
C394 O405 1.270 . S
C395 O406 1.251 . S
C395 O407 1.251 . S
O396 C376 1.257 . S
O396 Eu377 2.473 . S
O397 C376 1.260 . S
O397 Eu377 2.480 . S
O398 Eu377 2.430 . S
O398 C384 1.259 . S
O399 Eu377 2.670 . S
O399 C384 1.270 . S
O399 Eu387 2.355 . S
O400 Eu377 2.394 . S
O400 C385 1.251 . S
O401 C385 1.251 . S
O401 Eu387 2.374 . S
O402 C386 1.257 . S
O402 Eu387 2.473 . S
O403 C386 1.260 . S
O403 Eu387 2.480 . S
O404 Eu387 2.430 . S
O404 C394 1.259 . S
O405 Eu377 2.355 . S
O405 Eu387 2.670 . S
O405 C394 1.270 . S
O406 Eu387 2.394 . S
O406 C395 1.251 . S
O407 Eu377 2.374 . S
O407 C395 1.251 . S
H408 C379 0.931 . S
H409 C380 0.931 . S
H410 C382 0.931 . S
H411 C383 0.931 . S
H412 C389 0.931 . S
H413 C390 0.931 . S
H414 C392 0.931 . S
H415 C393 0.931 . S
C416 Eu417 2.835 . S
C416 C418 1.500 . S
C416 O436 1.257 . S
C416 O437 1.260 . S
Eu417 C416 2.835 . S
Eu417 O436 2.473 . S
Eu417 O437 2.480 . S
Eu417 O438 2.430 . S
Eu417 O439 2.670 . S
Eu417 O440 2.394 . S
Eu417 O445 2.355 . S
Eu417 O447 2.374 . S
C418 C416 1.500 . S
C418 C419 1.377 . S
C418 C423 1.377 . S
C419 C418 1.377 . S
C419 C420 1.395 . S
C419 H448 0.931 . S
C420 C419 1.395 . S
C420 C421 1.383 . S
C420 H449 0.931 . S
C421 C420 1.383 . S
C421 C422 1.394 . S
C422 C421 1.394 . S
C422 C423 1.378 . S
C422 H450 0.931 . S
C423 C418 1.377 . S
C423 C422 1.378 . S
C423 H451 0.931 . S
C424 O438 1.259 . S
C424 O439 1.270 . S
C425 O440 1.251 . S
C425 O441 1.251 . S
C426 Eu427 2.835 . S
C426 C428 1.500 . S
C426 O442 1.257 . S
C426 O443 1.260 . S
Eu427 C426 2.835 . S
Eu427 O439 2.355 . S
Eu427 O441 2.374 . S
Eu427 O442 2.473 . S
Eu427 O443 2.480 . S
Eu427 O444 2.430 . S
Eu427 O445 2.670 . S
Eu427 O446 2.394 . S
C428 C426 1.500 . S
C428 C429 1.377 . S
C428 C433 1.377 . S
C429 C428 1.377 . S
C429 C430 1.395 . S
C429 H452 0.931 . S
C430 C429 1.395 . S
C430 C431 1.383 . S
C430 H453 0.931 . S
C431 C430 1.383 . S
C431 C432 1.394 . S
C432 C431 1.394 . S
C432 C433 1.378 . S
C432 H454 0.931 . S
C433 C428 1.377 . S
C433 C432 1.378 . S
C433 H455 0.931 . S
C434 O444 1.259 . S
C434 O445 1.270 . S
C435 O446 1.251 . S
C435 O447 1.251 . S
O436 C416 1.257 . S
O436 Eu417 2.473 . S
O437 C416 1.260 . S
O437 Eu417 2.480 . S
O438 Eu417 2.430 . S
O438 C424 1.259 . S
O439 Eu417 2.670 . S
O439 C424 1.270 . S
O439 Eu427 2.355 . S
O440 Eu417 2.394 . S
O440 C425 1.251 . S
O441 C425 1.251 . S
O441 Eu427 2.374 . S
O442 C426 1.257 . S
O442 Eu427 2.473 . S
O443 C426 1.260 . S
O443 Eu427 2.480 . S
O444 Eu427 2.430 . S
O444 C434 1.259 . S
O445 Eu417 2.355 . S
O445 Eu427 2.670 . S
O445 C434 1.270 . S
O446 Eu427 2.394 . S
O446 C435 1.251 . S
O447 Eu417 2.374 . S
O447 C435 1.251 . S
H448 C419 0.931 . S
H449 C420 0.931 . S
H450 C422 0.931 . S
H451 C423 0.931 . S
H452 C429 0.931 . S
H453 C430 0.931 . S
H454 C432 0.931 . S
H455 C433 0.931 . S
C456 Eu457 2.835 . S
C456 C458 1.500 . S
C456 O476 1.257 . S
C456 O477 1.260 . S
Eu457 C456 2.835 . S
Eu457 O476 2.473 . S
Eu457 O477 2.480 . S
Eu457 O478 2.430 . S
Eu457 O479 2.670 . S
Eu457 O480 2.394 . S
Eu457 O485 2.355 . S
Eu457 O487 2.374 . S
C458 C456 1.500 . S
C458 C459 1.377 . S
C458 C463 1.377 . S
C459 C458 1.377 . S
C459 C460 1.395 . S
C459 H488 0.931 . S
C460 C459 1.395 . S
C460 C461 1.383 . S
C460 H489 0.931 . S
C461 C460 1.383 . S
C461 C462 1.394 . S
C462 C461 1.394 . S
C462 C463 1.378 . S
C462 H490 0.931 . S
C463 C458 1.377 . S
C463 C462 1.378 . S
C463 H491 0.931 . S
C464 O478 1.259 . S
C464 O479 1.270 . S
C465 O480 1.251 . S
C465 O481 1.251 . S
C466 Eu467 2.835 . S
C466 C468 1.500 . S
C466 O482 1.257 . S
C466 O483 1.260 . S
Eu467 C466 2.835 . S
Eu467 O479 2.355 . S
Eu467 O481 2.374 . S
Eu467 O482 2.473 . S
Eu467 O483 2.480 . S
Eu467 O484 2.430 . S
Eu467 O485 2.670 . S
Eu467 O486 2.394 . S
C468 C466 1.500 . S
C468 C469 1.377 . S
C468 C473 1.377 . S
C469 C468 1.377 . S
C469 C470 1.395 . S
C469 H492 0.931 . S
C470 C469 1.395 . S
C470 C471 1.383 . S
C470 H493 0.931 . S
C471 C470 1.383 . S
C471 C472 1.394 . S
C472 C471 1.394 . S
C472 C473 1.378 . S
C472 H494 0.931 . S
C473 C468 1.377 . S
C473 C472 1.378 . S
C473 H495 0.931 . S
C474 O484 1.259 . S
C474 O485 1.270 . S
C475 O486 1.251 . S
C475 O487 1.251 . S
O476 C456 1.257 . S
O476 Eu457 2.473 . S
O477 C456 1.260 . S
O477 Eu457 2.480 . S
O478 Eu457 2.430 . S
O478 C464 1.259 . S
O479 Eu457 2.670 . S
O479 C464 1.270 . S
O479 Eu467 2.355 . S
O480 Eu457 2.394 . S
O480 C465 1.251 . S
O481 C465 1.251 . S
O481 Eu467 2.374 . S
O482 C466 1.257 . S
O482 Eu467 2.473 . S
O483 C466 1.260 . S
O483 Eu467 2.480 . S
O484 Eu467 2.430 . S
O484 C474 1.259 . S
O485 Eu457 2.355 . S
O485 Eu467 2.670 . S
O485 C474 1.270 . S
O486 Eu467 2.394 . S
O486 C475 1.251 . S
O487 Eu457 2.374 . S
O487 C475 1.251 . S
H488 C459 0.931 . S
H489 C460 0.931 . S
H490 C462 0.931 . S
H491 C463 0.931 . S
H492 C469 0.931 . S
H493 C470 0.931 . S
H494 C472 0.931 . S
H495 C473 0.931 . S
C496 Eu497 2.835 . S
C496 C498 1.500 . S
C496 O516 1.257 . S
C496 O517 1.260 . S
Eu497 C496 2.835 . S
Eu497 O516 2.473 . S
Eu497 O517 2.480 . S
Eu497 O518 2.430 . S
Eu497 O519 2.670 . S
Eu497 O520 2.394 . S
Eu497 O525 2.355 . S
Eu497 O527 2.374 . S
C498 C496 1.500 . S
C498 C499 1.377 . S
C498 C503 1.377 . S
C499 C498 1.377 . S
C499 C500 1.395 . S
C499 H528 0.931 . S
C500 C499 1.395 . S
C500 C501 1.383 . S
C500 H529 0.931 . S
C501 C500 1.383 . S
C501 C502 1.394 . S
C502 C501 1.394 . S
C502 C503 1.378 . S
C502 H530 0.931 . S
C503 C498 1.377 . S
C503 C502 1.378 . S
C503 H531 0.931 . S
C504 O518 1.259 . S
C504 O519 1.270 . S
C505 O520 1.251 . S
C505 O521 1.251 . S
C506 Eu507 2.835 . S
C506 C508 1.500 . S
C506 O522 1.257 . S
C506 O523 1.260 . S
Eu507 C506 2.835 . S
Eu507 O519 2.355 . S
Eu507 O521 2.374 . S
Eu507 O522 2.473 . S
Eu507 O523 2.480 . S
Eu507 O524 2.430 . S
Eu507 O525 2.670 . S
Eu507 O526 2.394 . S
C508 C506 1.500 . S
C508 C509 1.377 . S
C508 C513 1.377 . S
C509 C508 1.377 . S
C509 C510 1.395 . S
C509 H532 0.931 . S
C510 C509 1.395 . S
C510 C511 1.383 . S
C510 H533 0.931 . S
C511 C510 1.383 . S
C511 C512 1.394 . S
C512 C511 1.394 . S
C512 C513 1.378 . S
C512 H534 0.931 . S
C513 C508 1.377 . S
C513 C512 1.378 . S
C513 H535 0.931 . S
C514 O524 1.259 . S
C514 O525 1.270 . S
C515 O526 1.251 . S
C515 O527 1.251 . S
O516 C496 1.257 . S
O516 Eu497 2.473 . S
O517 C496 1.260 . S
O517 Eu497 2.480 . S
O518 Eu497 2.430 . S
O518 C504 1.259 . S
O519 Eu497 2.670 . S
O519 C504 1.270 . S
O519 Eu507 2.355 . S
O520 Eu497 2.394 . S
O520 C505 1.251 . S
O521 C505 1.251 . S
O521 Eu507 2.374 . S
O522 C506 1.257 . S
O522 Eu507 2.473 . S
O523 C506 1.260 . S
O523 Eu507 2.480 . S
O524 Eu507 2.430 . S
O524 C514 1.259 . S
O525 Eu497 2.355 . S
O525 Eu507 2.670 . S
O525 C514 1.270 . S
O526 Eu507 2.394 . S
O526 C515 1.251 . S
O527 Eu497 2.374 . S
O527 C515 1.251 . S
H528 C499 0.931 . S
H529 C500 0.931 . S
H530 C502 0.931 . S
H531 C503 0.931 . S
H532 C509 0.931 . S
H533 C510 0.931 . S
H534 C512 0.931 . S
H535 C513 0.931 . S
C536 Eu537 2.835 . S
C536 C538 1.500 . S
C536 O556 1.257 . S
C536 O557 1.260 . S
Eu537 C536 2.835 . S
Eu537 O556 2.473 . S
Eu537 O557 2.480 . S
Eu537 O558 2.430 . S
Eu537 O559 2.670 . S
Eu537 O560 2.394 . S
Eu537 O565 2.355 . S
Eu537 O567 2.374 . S
C538 C536 1.500 . S
C538 C539 1.377 . S
C538 C543 1.377 . S
C539 C538 1.377 . S
C539 C540 1.395 . S
C539 H568 0.931 . S
C540 C539 1.395 . S
C540 C541 1.383 . S
C540 H569 0.931 . S
C541 C540 1.383 . S
C541 C542 1.394 . S
C542 C541 1.394 . S
C542 C543 1.378 . S
C542 H570 0.931 . S
C543 C538 1.377 . S
C543 C542 1.378 . S
C543 H571 0.931 . S
C544 O558 1.259 . S
C544 O559 1.270 . S
C545 O560 1.251 . S
C545 O561 1.251 . S
C546 Eu547 2.835 . S
C546 C548 1.500 . S
C546 O562 1.257 . S
C546 O563 1.260 . S
Eu547 C546 2.835 . S
Eu547 O559 2.355 . S
Eu547 O561 2.374 . S
Eu547 O562 2.473 . S
Eu547 O563 2.480 . S
Eu547 O564 2.430 . S
Eu547 O565 2.670 . S
Eu547 O566 2.394 . S
C548 C546 1.500 . S
C548 C549 1.377 . S
C548 C553 1.377 . S
C549 C548 1.377 . S
C549 C550 1.395 . S
C549 H572 0.931 . S
C550 C549 1.395 . S
C550 C551 1.383 . S
C550 H573 0.931 . S
C551 C550 1.383 . S
C551 C552 1.394 . S
C552 C551 1.394 . S
C552 C553 1.378 . S
C552 H574 0.931 . S
C553 C548 1.377 . S
C553 C552 1.378 . S
C553 H575 0.931 . S
C554 O564 1.259 . S
C554 O565 1.270 . S
C555 O566 1.251 . S
C555 O567 1.251 . S
O556 C536 1.257 . S
O556 Eu537 2.473 . S
O557 C536 1.260 . S
O557 Eu537 2.480 . S
O558 Eu537 2.430 . S
O558 C544 1.259 . S
O559 Eu537 2.670 . S
O559 C544 1.270 . S
O559 Eu547 2.355 . S
O560 Eu537 2.394 . S
O560 C545 1.251 . S
O561 C545 1.251 . S
O561 Eu547 2.374 . S
O562 C546 1.257 . S
O562 Eu547 2.473 . S
O563 C546 1.260 . S
O563 Eu547 2.480 . S
O564 Eu547 2.430 . S
O564 C554 1.259 . S
O565 Eu537 2.355 . S
O565 Eu547 2.670 . S
O565 C554 1.270 . S
O566 Eu547 2.394 . S
O566 C555 1.251 . S
O567 Eu537 2.374 . S
O567 C555 1.251 . S
H568 C539 0.931 . S
H569 C540 0.931 . S
H570 C542 0.931 . S
H571 C543 0.931 . S
H572 C549 0.931 . S
H573 C550 0.931 . S
H574 C552 0.931 . S
H575 C553 0.931 . S
C576 C577 1.391 . S
C576 C578 1.394 . S
C576 H592 0.931 . S
C577 C576 1.391 . S
C577 C581 1.376 . S
C578 C576 1.394 . S
C578 C579 1.369 . S
C578 C582 1.531 . S
C579 C578 1.369 . S
C579 C580 1.410 . S
C579 C587 1.503 . S
C580 C579 1.410 . S
C580 C581 1.392 . S
C580 C583 1.511 . S
C581 C577 1.376 . S
C581 C580 1.392 . S
C581 H593 0.929 . S
C582 C578 1.531 . S
C582 H594 0.960 . S
C582 H595 0.962 . S
C582 H596 0.960 . S
C583 C580 1.511 . S
C583 H597 0.961 . S
C583 H598 0.961 . S
C583 H599 0.961 . S
C584 C585 1.370 . S
C584 C586 1.363 . S
C584 H600 0.908 1_554 S
C585 C584 1.370 . S
C585 C589 1.408 . S
C586 C584 1.363 . S
C586 C587 1.370 . S
C586 C590 1.524 . S
C587 C579 1.503 . S
C587 C586 1.370 . S
C587 C588 1.403 . S
C588 C587 1.403 . S
C588 C589 1.404 . S
C588 C591 1.539 . S
C589 C585 1.408 . S
C589 C588 1.404 . S
C589 H601 0.930 . S
C590 C586 1.524 . S
C590 H602 0.956 1_554 S
C590 H603 0.961 . S
C590 H604 0.961 1_554 S
C591 C588 1.539 . S
C591 H605 0.958 . S
C591 H606 0.961 . S
C591 H607 0.960 . S
H592 C576 0.931 . S
H593 C581 0.929 . S
H594 C582 0.960 . S
H595 C582 0.962 . S
H596 C582 0.960 . S
H597 C583 0.961 . S
H598 C583 0.961 . S
H599 C583 0.961 . S
H600 C584 0.908 1_556 S
H601 C589 0.930 . S
H602 C590 0.956 1_556 S
H603 C590 0.961 . S
H604 C590 0.961 1_556 S
H605 C591 0.958 . S
H606 C591 0.961 . S
H607 C591 0.960 . S
C608 C609 1.391 . S
C608 C610 1.394 . S
C608 H624 0.931 . S
C609 C608 1.391 . S
C609 C613 1.376 . S
C610 C608 1.394 . S
C610 C611 1.369 . S
C610 C614 1.531 . S
C611 C610 1.369 . S
C611 C612 1.410 . S
C611 C619 1.503 . S
C612 C611 1.410 . S
C612 C613 1.392 . S
C612 C615 1.511 . S
C613 C609 1.376 . S
C613 C612 1.392 . S
C613 H625 0.929 . S
C614 C610 1.531 . S
C614 H626 0.960 . S
C614 H627 0.962 . S
C614 H628 0.960 . S
C615 C612 1.511 . S
C615 H629 0.961 . S
C615 H630 0.961 . S
C615 H631 0.961 . S
C616 C617 1.370 . S
C616 C618 1.363 . S
C616 H632 0.931 . S
C617 C616 1.370 . S
C617 C621 1.408 . S
C618 C616 1.363 . S
C618 C619 1.370 . S
C618 C622 1.524 . S
C619 C611 1.503 . S
C619 C618 1.370 . S
C619 C620 1.403 . S
C620 C619 1.403 . S
C620 C621 1.404 . S
C620 C623 1.539 . S
C621 C617 1.408 . S
C621 C620 1.404 . S
C621 H633 0.930 . S
C622 C618 1.524 . S
C622 H634 0.956 . S
C622 H635 0.961 . S
C622 H636 0.961 1_554 S
C623 C620 1.539 . S
C623 H637 0.958 . S
C623 H638 0.961 . S
C623 H639 0.960 . S
H624 C608 0.931 . S
H625 C613 0.929 . S
H626 C614 0.960 . S
H627 C614 0.962 . S
H628 C614 0.960 . S
H629 C615 0.961 . S
H630 C615 0.961 . S
H631 C615 0.961 . S
H632 C616 0.931 . S
H633 C621 0.930 . S
H634 C622 0.956 . S
H635 C622 0.961 . S
H636 C622 0.961 1_556 S
H637 C623 0.958 . S
H638 C623 0.961 . S
H639 C623 0.960 . S
C640 C641 1.391 . S
C640 C642 1.394 . S
C640 H656 0.931 . S
C641 C640 1.391 . S
C641 C645 1.376 . S
C642 C640 1.394 . S
C642 C643 1.369 . S
C642 C646 1.531 . S
C643 C642 1.369 . S
C643 C644 1.410 . S
C643 C651 1.503 . S
C644 C643 1.410 . S
C644 C645 1.392 . S
C644 C647 1.511 . S
C645 C641 1.376 . S
C645 C644 1.392 . S
C645 H657 0.929 . S
C646 C642 1.531 . S
C646 H658 0.960 . S
C646 H659 0.962 . S
C646 H660 0.960 . S
C647 C644 1.511 . S
C647 H661 0.961 . S
C647 H662 0.961 . S
C647 H663 0.961 . S
C648 C649 1.370 . S
C648 C650 1.363 . S
C648 H664 0.931 . S
C649 C648 1.370 . S
C649 C653 1.408 . S
C650 C648 1.363 . S
C650 C651 1.370 . S
C650 C654 1.524 . S
C651 C643 1.503 . S
C651 C650 1.370 . S
C651 C652 1.403 . S
C652 C651 1.403 . S
C652 C653 1.404 . S
C652 C655 1.539 1_554 S
C653 C649 1.408 . S
C653 C652 1.404 . S
C653 H665 0.930 1_554 S
C654 C650 1.524 . S
C654 H666 0.956 . S
C654 H667 0.961 . S
C654 H668 0.961 . S
C655 C652 1.539 1_556 S
C655 H669 0.958 . S
C655 H670 0.961 . S
C655 H671 0.960 . S
H656 C640 0.931 . S
H657 C645 0.929 . S
H658 C646 0.960 . S
H659 C646 0.962 . S
H660 C646 0.960 . S
H661 C647 0.961 . S
H662 C647 0.961 . S
H663 C647 0.961 . S
H664 C648 0.931 . S
H665 C653 0.930 1_556 S
H666 C654 0.956 . S
H667 C654 0.961 . S
H668 C654 0.961 . S
H669 C655 0.958 . S
H670 C655 0.961 . S
H671 C655 0.960 . S
C672 C673 1.391 . S
C672 C674 1.394 . S
C672 H688 0.931 . S
C673 C672 1.391 . S
C673 C677 1.376 . S
C674 C672 1.394 . S
C674 C675 1.369 . S
C674 C678 1.531 . S
C675 C674 1.369 . S
C675 C676 1.410 . S
C675 C683 1.503 . S
C676 C675 1.410 . S
C676 C677 1.392 . S
C676 C679 1.511 . S
C677 C673 1.376 . S
C677 C676 1.392 . S
C677 H689 0.929 . S
C678 C674 1.531 . S
C678 H690 0.960 . S
C678 H691 0.962 . S
C678 H692 0.960 . S
C679 C676 1.511 . S
C679 H693 0.961 . S
C679 H694 0.961 . S
C679 H695 0.961 . S
C680 C681 1.370 1_554 S
C680 C682 1.363 1_554 S
C680 H696 0.931 . S
C681 C680 1.370 1_556 S
C681 C685 1.408 . S
C682 C680 1.363 1_556 S
C682 C683 1.370 . S
C682 C686 1.524 1_556 S
C683 C675 1.503 . S
C683 C682 1.370 . S
C683 C684 1.403 . S
C684 C683 1.403 . S
C684 C685 1.404 . S
C684 C687 1.539 . S
C685 C681 1.408 . S
C685 C684 1.404 . S
C685 H697 0.930 . S
C686 C682 1.524 1_554 S
C686 H698 0.956 . S
C686 H699 0.961 . S
C686 H700 0.961 . S
C687 C684 1.539 . S
C687 H701 0.958 . S
C687 H702 0.961 . S
C687 H703 0.960 . S
H688 C672 0.931 . S
H689 C677 0.929 . S
H690 C678 0.960 . S
H691 C678 0.962 . S
H692 C678 0.960 . S
H693 C679 0.961 . S
H694 C679 0.961 . S
H695 C679 0.961 . S
H696 C680 0.931 . S
H697 C685 0.930 . S
H698 C686 0.956 . S
H699 C686 0.961 . S
H700 C686 0.961 . S
H701 C687 0.958 . S
H702 C687 0.961 . S
H703 C687 0.960 . S
C704 C705 1.391 . S
C704 C706 1.394 . S
C704 H720 0.931 . S
C705 C704 1.391 . S
C705 C709 1.376 . S
C706 C704 1.394 . S
C706 C707 1.369 . S
C706 C710 1.531 . S
C707 C706 1.369 . S
C707 C708 1.410 . S
C707 C715 1.503 . S
C708 C707 1.410 . S
C708 C709 1.392 . S
C708 C711 1.511 . S
C709 C705 1.376 . S
C709 C708 1.392 . S
C709 H721 0.929 . S
C710 C706 1.531 . S
C710 H722 0.960 . S
C710 H723 0.962 . S
C710 H724 0.960 . S
C711 C708 1.511 . S
C711 H725 0.961 . S
C711 H726 0.961 . S
C711 H727 0.961 . S
C712 C713 1.370 . S
C712 C714 1.363 . S
C712 H728 0.931 1_556 S
C713 C712 1.370 . S
C713 C717 1.408 . S
C714 C712 1.363 . S
C714 C715 1.370 . S
C714 C718 1.524 . S
C715 C707 1.503 . S
C715 C714 1.370 . S
C715 C716 1.403 . S
C716 C715 1.403 . S
C716 C717 1.404 . S
C716 C719 1.539 . S
C717 C713 1.408 . S
C717 C716 1.404 . S
C717 H729 0.930 . S
C718 C714 1.524 . S
C718 H730 0.956 . S
C718 H731 0.961 . S
C718 H732 0.961 1_556 S
C719 C716 1.539 . S
C719 H733 0.958 . S
C719 H734 0.961 . S
C719 H735 0.960 . S
H720 C704 0.931 . S
H721 C709 0.929 . S
H722 C710 0.960 . S
H723 C710 0.962 . S
H724 C710 0.960 . S
H725 C711 0.961 . S
H726 C711 0.961 . S
H727 C711 0.961 . S
H728 C712 0.931 1_554 S
H729 C717 0.930 . S
H730 C718 0.956 . S
H731 C718 0.961 . S
H732 C718 0.961 1_554 S
H733 C719 0.958 . S
H734 C719 0.961 . S
H735 C719 0.960 . S
C736 C737 1.391 . S
C736 C738 1.394 . S
C736 H752 0.931 . S
C737 C736 1.391 . S
C737 C741 1.376 . S
C738 C736 1.394 . S
C738 C739 1.369 . S
C738 C742 1.531 . S
C739 C738 1.369 . S
C739 C740 1.410 . S
C739 C747 1.503 . S
C740 C739 1.410 . S
C740 C741 1.392 . S
C740 C743 1.511 1_556 S
C741 C737 1.376 . S
C741 C740 1.392 . S
C741 H753 0.929 . S
C742 C738 1.531 . S
C742 H754 0.960 . S
C742 H755 0.962 . S
C742 H756 0.960 . S
C743 C740 1.511 1_554 S
C743 H757 0.961 . S
C743 H758 0.961 . S
C743 H759 0.961 1_554 S
C744 C745 1.370 1_554 S
C744 C746 1.363 . S
C744 H760 0.931 . S
C745 C744 1.370 1_556 S
C745 C749 1.408 . S
C746 C744 1.363 . S
C746 C747 1.370 1_554 S
C746 C750 1.524 . S
C747 C739 1.503 . S
C747 C746 1.370 1_556 S
C747 C748 1.403 . S
C748 C747 1.403 . S
C748 C749 1.404 . S
C748 C751 1.539 . S
C749 C745 1.408 . S
C749 C748 1.404 . S
C749 H761 0.930 . S
C750 C746 1.524 . S
C750 H762 0.956 . S
C750 H763 0.961 . S
C750 H764 0.961 . S
C751 C748 1.539 . S
C751 H765 0.958 . S
C751 H766 0.961 . S
C751 H767 0.960 . S
H752 C736 0.931 . S
H753 C741 0.929 . S
H754 C742 0.960 . S
H755 C742 0.962 . S
H756 C742 0.960 . S
H757 C743 0.961 . S
H758 C743 0.961 . S
H759 C743 0.961 1_556 S
H760 C744 0.931 . S
H761 C749 0.930 . S
H762 C750 0.956 . S
H763 C750 0.961 . S
H764 C750 0.961 . S
H765 C751 0.958 . S
H766 C751 0.961 . S
H767 C751 0.960 . S
C768 C769 1.391 . S
C768 C770 1.394 . S
C768 H784 0.931 . S
C769 C768 1.391 . S
C769 C773 1.376 . S
C770 C768 1.394 . S
C770 C771 1.369 . S
C770 C774 1.531 . S
C771 C770 1.369 . S
C771 C772 1.410 . S
C771 C779 1.503 . S
C772 C771 1.410 . S
C772 C773 1.392 . S
C772 C775 1.511 1_556 S
C773 C769 1.376 . S
C773 C772 1.392 . S
C773 H785 0.929 . S
C774 C770 1.531 . S
C774 H786 0.960 . S
C774 H787 0.962 . S
C774 H788 0.960 . S
C775 C772 1.511 1_554 S
C775 H789 0.961 . S
C775 H790 0.961 . S
C775 H791 0.961 . S
C776 C777 1.370 . S
C776 C778 1.363 . S
C776 H792 0.931 . S
C777 C776 1.370 . S
C777 C781 1.408 . S
C778 C776 1.363 . S
C778 C779 1.370 . S
C778 C782 1.524 . S
C779 C771 1.503 . S
C779 C778 1.370 . S
C779 C780 1.403 . S
C780 C779 1.403 . S
C780 C781 1.404 . S
C780 C783 1.539 . S
C781 C777 1.408 . S
C781 C780 1.404 . S
C781 H793 0.930 . S
C782 C778 1.524 . S
C782 H794 0.956 . S
C782 H795 0.961 . S
C782 H796 0.961 . S
C783 C780 1.539 . S
C783 H797 0.958 . S
C783 H798 0.961 . S
C783 H799 0.960 . S
H784 C768 0.931 . S
H785 C773 0.929 . S
H786 C774 0.960 . S
H787 C774 0.962 . S
H788 C774 0.960 . S
H789 C775 0.961 . S
H790 C775 0.961 . S
H791 C775 0.961 . S
H792 C776 0.931 . S
H793 C781 0.930 . S
H794 C782 0.956 . S
H795 C782 0.961 . S
H796 C782 0.961 . S
H797 C783 0.958 . S
H798 C783 0.961 . S
H799 C783 0.960 . S
C800 C801 1.391 . S
C800 C802 1.394 . S
C800 H816 0.931 . S
C801 C800 1.391 . S
C801 C805 1.376 . S
C802 C800 1.394 . S
C802 C803 1.369 . S
C802 C806 1.531 . S
C803 C802 1.369 . S
C803 C804 1.410 . S
C803 C811 1.503 . S
C804 C803 1.410 . S
C804 C805 1.392 . S
C804 C807 1.511 . S
C805 C801 1.376 . S
C805 C804 1.392 . S
C805 H817 0.929 . S
C806 C802 1.531 . S
C806 H818 0.960 . S
C806 H819 0.962 . S
C806 H820 0.960 . S
C807 C804 1.511 . S
C807 H821 0.991 . S
C807 H822 0.961 . S
C807 H823 0.961 . S
C808 C809 1.370 . S
C808 C810 1.363 . S
C808 H824 0.913 1_556 S
C809 C808 1.370 . S
C809 C813 1.408 . S
C810 C808 1.363 . S
C810 C811 1.370 . S
C810 C814 1.524 . S
C811 C803 1.503 . S
C811 C810 1.370 . S
C811 C812 1.403 . S
C812 C811 1.403 . S
C812 C813 1.404 . S
C812 C815 1.539 . S
C813 C809 1.408 . S
C813 C812 1.404 . S
C813 H825 0.930 . S
C814 C810 1.524 . S
C814 H826 0.956 . S
C814 H827 0.961 1_556 S
C814 H828 0.961 1_556 S
C815 C812 1.539 . S
C815 H829 0.958 . S
C815 H830 0.961 . S
C815 H831 0.960 . S
H816 C800 0.931 . S
H817 C805 0.929 . S
H818 C806 0.960 . S
H819 C806 0.962 . S
H820 C806 0.960 . S
H821 C807 0.991 . S
H822 C807 0.961 . S
H823 C807 0.961 . S
H824 C808 0.913 1_554 S
H825 C813 0.930 . S
H826 C814 0.956 . S
H827 C814 0.961 1_554 S
H828 C814 0.961 1_554 S
H829 C815 0.958 . S
H830 C815 0.961 . S
H831 C815 0.960 . S
C832 C833 1.391 . S
C832 C834 1.394 . S
C832 H848 0.931 . S
C833 C832 1.391 . S
C833 C837 1.376 . S
C834 C832 1.394 . S
C834 C835 1.369 . S
C834 C838 1.531 . S
C835 C834 1.369 . S
C835 C836 1.410 . S
C835 C843 1.503 . S
C836 C835 1.410 . S
C836 C837 1.392 . S
C836 C839 1.511 . S
C837 C833 1.376 . S
C837 C836 1.392 . S
C837 H849 0.929 . S
C838 C834 1.531 . S
C838 H850 0.960 . S
C838 H851 0.962 . S
C838 H852 0.960 . S
C839 C836 1.511 . S
C839 H853 0.987 . S
C839 H854 0.961 1_556 S
C839 H855 0.961 . S
C840 C841 1.376 . S
C840 C842 1.363 . S
C840 H856 0.931 . S
C841 C840 1.376 . S
C841 C845 1.401 1_554 S
C842 C840 1.363 . S
C842 C843 1.370 1_554 S
C842 C846 1.524 . S
C843 C835 1.503 . S
C843 C842 1.370 1_556 S
C843 C844 1.403 . S
C844 C843 1.403 . S
C844 C845 1.404 . S
C844 C847 1.539 . S
C845 C841 1.401 1_556 S
C845 C844 1.404 . S
C845 H857 0.930 . S
C846 C842 1.524 . S
C846 H858 0.956 . S
C846 H859 0.961 . S
C846 H860 0.961 . S
C847 C844 1.539 . S
C847 H861 0.958 . S
C847 H862 0.961 . S
C847 H863 0.960 . S
H848 C832 0.931 . S
H849 C837 0.929 . S
H850 C838 0.960 . S
H851 C838 0.962 . S
H852 C838 0.960 . S
H853 C839 0.987 . S
H854 C839 0.961 1_554 S
H855 C839 0.961 . S
H856 C840 0.931 . S
H857 C845 0.930 . S
H858 C846 0.956 . S
H859 C846 0.961 . S
H860 C846 0.961 . S
H861 C847 0.958 . S
H862 C847 0.961 . S
H863 C847 0.960 . S
C864 C865 1.391 . S
C864 C866 1.394 . S
C864 H880 0.931 . S
C865 C864 1.391 . S
C865 C869 1.376 . S
C866 C864 1.394 . S
C866 C867 1.369 . S
C866 C870 1.531 . S
C867 C866 1.369 . S
C867 C868 1.410 . S
C867 C875 1.503 . S
C868 C867 1.410 . S
C868 C869 1.392 . S
C868 C871 1.511 . S
C869 C865 1.376 . S
C869 C868 1.392 . S
C869 H881 0.929 . S
C870 C866 1.531 . S
C870 H882 0.960 . S
C870 H883 0.962 . S
C870 H884 0.960 . S
C871 C868 1.511 . S
C871 H885 0.961 . S
C871 H886 0.961 . S
C871 H887 0.961 . S
C872 C873 1.370 . S
C872 C874 1.363 . S
C872 H888 0.931 . S
C873 C872 1.370 . S
C873 C877 1.403 1_554 S
C874 C872 1.363 . S
C874 C875 1.370 . S
C874 C878 1.524 . S
C875 C867 1.503 . S
C875 C874 1.370 . S
C875 C876 1.403 . S
C876 C875 1.403 . S
C876 C877 1.404 1_554 S
C876 C879 1.539 1_554 S
C877 C873 1.403 1_556 S
C877 C876 1.404 1_556 S
C877 H889 0.935 . S
C878 C874 1.524 . S
C878 H890 0.956 . S
C878 H891 0.961 . S
C878 H892 0.961 . S
C879 C876 1.539 1_556 S
C879 H893 0.958 . S
C879 H894 0.961 . S
C879 H895 0.960 . S
H880 C864 0.931 . S
H881 C869 0.929 . S
H882 C870 0.960 . S
H883 C870 0.962 . S
H884 C870 0.960 . S
H885 C871 0.961 . S
H886 C871 0.961 . S
H887 C871 0.961 . S
H888 C872 0.931 . S
H889 C877 0.935 . S
H890 C878 0.956 . S
H891 C878 0.961 . S
H892 C878 0.961 . S
H893 C879 0.958 . S
H894 C879 0.961 . S
H895 C879 0.960 . S
C896 C897 1.391 . S
C896 C898 1.394 . S
C896 H912 0.931 . S
C897 C896 1.391 . S
C897 C901 1.376 . S
C898 C896 1.394 . S
C898 C899 1.369 . S
C898 C902 1.531 . S
C899 C898 1.369 . S
C899 C900 1.410 . S
C899 C907 1.503 . S
C900 C899 1.410 . S
C900 C901 1.392 . S
C900 C903 1.511 . S
C901 C897 1.376 . S
C901 C900 1.392 . S
C901 H913 0.929 . S
C902 C898 1.531 . S
C902 H914 0.960 . S
C902 H915 0.962 . S
C902 H916 0.960 . S
C903 C900 1.511 . S
C903 H917 0.961 . S
C903 H918 0.961 . S
C903 H919 0.961 . S
C904 C905 1.370 . S
C904 C906 1.363 . S
C904 H920 0.931 . S
C905 C904 1.370 . S
C905 C909 1.408 . S
C906 C904 1.363 . S
C906 C907 1.370 . S
C906 C910 1.524 . S
C907 C899 1.503 . S
C907 C906 1.370 . S
C907 C908 1.403 . S
C908 C907 1.403 . S
C908 C909 1.404 . S
C908 C911 1.539 . S
C909 C905 1.408 . S
C909 C908 1.404 . S
C909 H921 0.930 . S
C910 C906 1.524 . S
C910 H922 0.956 . S
C910 H923 0.961 . S
C910 H924 0.961 . S
C911 C908 1.539 . S
C911 H925 0.958 . S
C911 H926 0.961 . S
C911 H927 0.960 . S
H912 C896 0.931 . S
H913 C901 0.929 . S
H914 C902 0.960 . S
H915 C902 0.962 . S
H916 C902 0.960 . S
H917 C903 0.961 . S
H918 C903 0.961 . S
H919 C903 0.961 . S
H920 C904 0.931 . S
H921 C909 0.930 . S
H922 C910 0.956 . S
H923 C910 0.961 . S
H924 C910 0.961 . S
H925 C911 0.958 . S
H926 C911 0.961 . S
H927 C911 0.960 . S
C928 C929 1.391 . S
C928 C930 1.394 . S
C928 H944 0.931 . S
C929 C928 1.391 . S
C929 C933 1.376 . S
C930 C928 1.394 . S
C930 C931 1.369 . S
C930 C934 1.531 1_554 S
C931 C930 1.369 . S
C931 C932 1.410 . S
C931 C939 1.503 . S
C932 C931 1.410 . S
C932 C933 1.392 . S
C932 C935 1.511 . S
C933 C929 1.376 . S
C933 C932 1.392 . S
C933 H945 0.929 . S
C934 C930 1.531 1_556 S
C934 H946 0.960 . S
C934 H947 0.962 1_556 S
C934 H948 0.960 . S
C935 C932 1.511 . S
C935 H949 0.961 . S
C935 H950 0.961 . S
C935 H951 0.961 . S
C936 C937 1.370 . S
C936 C938 1.363 . S
C936 H952 0.931 . S
C937 C936 1.370 . S
C937 C941 1.408 1_554 S
C938 C936 1.363 . S
C938 C939 1.370 . S
C938 C942 1.524 . S
C939 C931 1.503 . S
C939 C938 1.370 . S
C939 C940 1.403 1_554 S
C940 C939 1.403 1_556 S
C940 C941 1.404 . S
C940 C943 1.539 . S
C941 C937 1.408 1_556 S
C941 C940 1.404 . S
C941 H953 0.930 . S
C942 C938 1.524 . S
C942 H954 0.956 . S
C942 H955 0.961 . S
C942 H956 0.961 . S
C943 C940 1.539 . S
C943 H957 0.958 . S
C943 H958 0.961 . S
C943 H959 0.960 . S
H944 C928 0.931 . S
H945 C933 0.929 . S
H946 C934 0.960 . S
H947 C934 0.962 1_554 S
H948 C934 0.960 . S
H949 C935 0.961 . S
H950 C935 0.961 . S
H951 C935 0.961 . S
H952 C936 0.931 . S
H953 C941 0.930 . S
H954 C942 0.956 . S
H955 C942 0.961 . S
H956 C942 0.961 . S
H957 C943 0.958 . S
H958 C943 0.961 . S
H959 C943 0.960 . S
C960 C961 1.391 . S
C960 C962 1.394 . S
C960 H976 0.931 . S
C961 C960 1.391 . S
C961 C965 1.376 . S
C962 C960 1.394 . S
C962 C963 1.369 . S
C962 C966 1.531 . S
C963 C962 1.369 . S
C963 C964 1.410 . S
C963 C971 1.503 1_655 S
C964 C963 1.410 . S
C964 C965 1.392 . S
C964 C967 1.511 . S
C965 C961 1.376 . S
C965 C964 1.392 . S
C965 H977 0.929 . S
C966 C962 1.531 . S
C966 H978 0.960 . S
C966 H979 0.962 . S
C966 H980 0.960 . S
C967 C964 1.511 . S
C967 H981 0.961 . S
C967 H982 0.961 . S
C967 H983 0.961 . S
C968 C969 1.370 . S
C968 C970 1.363 . S
C968 H984 0.931 . S
C969 C968 1.370 . S
C969 C973 1.408 . S
C970 C968 1.363 . S
C970 C971 1.370 . S
C970 C974 1.524 . S
C971 C963 1.503 1_455 S
C971 C970 1.370 . S
C971 C972 1.403 . S
C972 C971 1.403 . S
C972 C973 1.404 . S
C972 C975 1.539 1_455 S
C973 C969 1.408 . S
C973 C972 1.404 . S
C973 H985 0.930 . S
C974 C970 1.524 . S
C974 H986 0.956 . S
C974 H987 0.961 . S
C974 H988 0.961 . S
C975 C972 1.539 1_655 S
C975 H989 0.958 . S
C975 H990 0.961 . S
C975 H991 0.960 . S
H976 C960 0.931 . S
H977 C965 0.929 . S
H978 C966 0.960 . S
H979 C966 0.962 . S
H980 C966 0.960 . S
H981 C967 0.961 . S
H982 C967 0.961 . S
H983 C967 0.961 . S
H984 C968 0.931 . S
H985 C973 0.930 . S
H986 C974 0.956 . S
H987 C974 0.961 . S
H988 C974 0.961 . S
H989 C975 0.958 . S
H990 C975 0.961 . S
H991 C975 0.960 . S
C992 C993 1.391 . S
C992 C994 1.394 . S
C992 H1008 0.931 . S
C993 C992 1.391 . S
C993 C997 1.376 . S
C994 C992 1.394 . S
C994 C995 1.369 . S
C994 C998 1.531 . S
C995 C994 1.369 . S
C995 C996 1.410 . S
C995 C1003 1.503 . S
C996 C995 1.410 . S
C996 C997 1.392 . S
C996 C999 1.511 . S
C997 C993 1.376 . S
C997 C996 1.392 . S
C997 H1009 0.929 . S
C998 C994 1.531 . S
C998 H1010 0.960 . S
C998 H1011 0.962 . S
C998 H1012 0.960 . S
C999 C996 1.511 . S
C999 H1013 0.961 . S
C999 H1014 0.961 . S
C999 H1015 0.961 . S
C1000 C1001 1.370 . S
C1000 C1002 1.363 . S
C1000 H1016 0.931 . S
C1001 C1000 1.370 . S
C1001 C1005 1.408 . S
C1002 C1000 1.363 . S
C1002 C1003 1.370 . S
C1002 C1006 1.524 . S
C1003 C995 1.503 . S
C1003 C1002 1.370 . S
C1003 C1004 1.403 . S
C1004 C1003 1.403 . S
C1004 C1005 1.404 . S
C1004 C1007 1.539 . S
C1005 C1001 1.408 . S
C1005 C1004 1.404 . S
C1005 H1017 0.930 . S
C1006 C1002 1.524 . S
C1006 H1018 0.956 . S
C1006 H1019 0.961 . S
C1006 H1020 0.961 . S
C1007 C1004 1.539 . S
C1007 H1021 0.958 . S
C1007 H1022 0.961 . S
C1007 H1023 0.960 . S
H1008 C992 0.931 . S
H1009 C997 0.929 . S
H1010 C998 0.960 . S
H1011 C998 0.962 . S
H1012 C998 0.960 . S
H1013 C999 0.961 . S
H1014 C999 0.961 . S
H1015 C999 0.961 . S
H1016 C1000 0.931 . S
H1017 C1005 0.930 . S
H1018 C1006 0.956 . S
H1019 C1006 0.961 . S
H1020 C1006 0.961 . S
H1021 C1007 0.958 . S
H1022 C1007 0.961 . S
H1023 C1007 0.960 . S
C1024 C1025 1.391 . S
C1024 C1026 1.394 . S
C1024 H1040 0.931 . S
C1025 C1024 1.391 . S
C1025 C1029 1.376 . S
C1026 C1024 1.394 . S
C1026 C1027 1.369 . S
C1026 C1030 1.531 . S
C1027 C1026 1.369 . S
C1027 C1028 1.410 . S
C1027 C1035 1.503 . S
C1028 C1027 1.410 . S
C1028 C1029 1.392 . S
C1028 C1031 1.511 . S
C1029 C1025 1.376 . S
C1029 C1028 1.392 . S
C1029 H1041 0.929 . S
C1030 C1026 1.531 . S
C1030 H1042 0.960 . S
C1030 H1043 0.962 . S
C1030 H1044 0.960 . S
C1031 C1028 1.511 . S
C1031 H1045 0.961 . S
C1031 H1046 0.961 . S
C1031 H1047 0.961 . S
C1032 C1033 1.370 . S
C1032 C1034 1.363 . S
C1032 H1048 0.931 . S
C1033 C1032 1.370 . S
C1033 C1037 1.408 . S
C1034 C1032 1.363 . S
C1034 C1035 1.370 1_565 S
C1034 C1038 1.523 1_565 S
C1035 C1027 1.503 . S
C1035 C1034 1.370 1_545 S
C1035 C1036 1.380 1_545 S
C1036 C1035 1.380 1_565 S
C1036 C1037 1.442 . S
C1036 C1039 1.527 1_565 S
C1037 C1033 1.408 . S
C1037 C1036 1.442 . S
C1037 H1049 0.930 . S
C1038 C1034 1.523 1_545 S
C1038 H1050 0.958 . S
C1038 H1051 0.962 . S
C1038 H1052 0.959 1_545 S
C1039 C1036 1.527 1_545 S
C1039 H1053 0.958 . S
C1039 H1054 0.961 . S
C1039 H1055 0.960 . S
H1040 C1024 0.931 . S
H1041 C1029 0.929 . S
H1042 C1030 0.960 . S
H1043 C1030 0.962 . S
H1044 C1030 0.960 . S
H1045 C1031 0.961 . S
H1046 C1031 0.961 . S
H1047 C1031 0.961 . S
H1048 C1032 0.931 . S
H1049 C1037 0.930 . S
H1050 C1038 0.958 . S
H1051 C1038 0.962 . S
H1052 C1038 0.959 1_565 S
H1053 C1039 0.958 . S
H1054 C1039 0.961 . S
H1055 C1039 0.960 . S
C1056 C1057 1.391 . S
C1056 C1058 1.394 . S
C1056 H1072 0.931 . S
C1057 C1056 1.391 . S
C1057 C1061 1.376 . S
C1058 C1056 1.394 . S
C1058 C1059 1.369 . S
C1058 C1062 1.531 . S
C1059 C1058 1.369 . S
C1059 C1060 1.410 . S
C1059 C1067 1.503 . S
C1060 C1059 1.410 . S
C1060 C1061 1.392 . S
C1060 C1063 1.511 . S
C1061 C1057 1.376 . S
C1061 C1060 1.392 . S
C1061 H1073 0.929 . S
C1062 C1058 1.531 . S
C1062 H1074 0.960 . S
C1062 H1075 0.962 . S
C1062 H1076 0.960 . S
C1063 C1060 1.511 . S
C1063 H1077 0.961 . S
C1063 H1078 0.961 . S
C1063 H1079 0.961 . S
C1064 C1065 1.370 . S
C1064 C1066 1.363 . S
C1064 H1080 0.931 . S
C1065 C1064 1.370 . S
C1065 C1069 1.408 . S
C1066 C1064 1.363 . S
C1066 C1067 1.370 . S
C1066 C1070 1.524 . S
C1067 C1059 1.503 . S
C1067 C1066 1.370 . S
C1067 C1068 1.403 . S
C1068 C1067 1.403 . S
C1068 C1069 1.404 . S
C1068 C1071 1.539 . S
C1069 C1065 1.408 . S
C1069 C1068 1.404 . S
C1069 H1081 0.930 . S
C1070 C1066 1.524 . S
C1070 H1082 0.956 . S
C1070 H1083 0.961 . S
C1070 H1084 0.961 . S
C1071 C1068 1.539 . S
C1071 H1085 0.958 . S
C1071 H1086 0.961 . S
C1071 H1087 0.960 . S
H1072 C1056 0.931 . S
H1073 C1061 0.929 . S
H1074 C1062 0.960 . S
H1075 C1062 0.962 . S
H1076 C1062 0.960 . S
H1077 C1063 0.961 . S
H1078 C1063 0.961 . S
H1079 C1063 0.961 . S
H1080 C1064 0.931 . S
H1081 C1069 0.930 . S
H1082 C1070 0.956 . S
H1083 C1070 0.961 . S
H1084 C1070 0.961 . S
H1085 C1071 0.958 . S
H1086 C1071 0.961 . S
H1087 C1071 0.960 . S
C1088 C1089 1.391 . S
C1088 C1090 1.394 . S
C1088 H1104 0.931 . S
C1089 C1088 1.391 . S
C1089 C1093 1.376 . S
C1090 C1088 1.394 . S
C1090 C1091 1.369 . S
C1090 C1094 1.531 . S
C1091 C1090 1.369 . S
C1091 C1092 1.410 . S
C1091 C1099 1.503 . S
C1092 C1091 1.410 . S
C1092 C1093 1.392 . S
C1092 C1095 1.511 . S
C1093 C1089 1.376 . S
C1093 C1092 1.392 . S
C1093 H1105 0.929 . S
C1094 C1090 1.531 . S
C1094 H1106 0.960 . S
C1094 H1107 0.962 . S
C1094 H1108 0.960 . S
C1095 C1092 1.511 . S
C1095 H1109 0.961 . S
C1095 H1110 0.961 . S
C1095 H1111 0.961 . S
C1096 C1097 1.370 . S
C1096 C1098 1.363 . S
C1096 H1112 0.931 . S
C1097 C1096 1.370 . S
C1097 C1101 1.408 . S
C1098 C1096 1.363 . S
C1098 C1099 1.370 . S
C1098 C1102 1.524 . S
C1099 C1091 1.503 . S
C1099 C1098 1.370 . S
C1099 C1100 1.403 . S
C1100 C1099 1.403 . S
C1100 C1101 1.404 . S
C1100 C1103 1.539 . S
C1101 C1097 1.408 . S
C1101 C1100 1.404 . S
C1101 H1113 0.930 . S
C1102 C1098 1.524 . S
C1102 H1114 0.956 . S
C1102 H1115 0.961 . S
C1102 H1116 0.961 . S
C1103 C1100 1.539 . S
C1103 H1117 0.958 . S
C1103 H1118 0.961 . S
C1103 H1119 0.960 . S
H1104 C1088 0.931 . S
H1105 C1093 0.929 . S
H1106 C1094 0.960 . S
H1107 C1094 0.962 . S
H1108 C1094 0.960 . S
H1109 C1095 0.961 . S
H1110 C1095 0.961 . S
H1111 C1095 0.961 . S
H1112 C1096 0.931 . S
H1113 C1101 0.930 . S
H1114 C1102 0.956 . S
H1115 C1102 0.961 . S
H1116 C1102 0.961 . S
H1117 C1103 0.958 . S
H1118 C1103 0.961 . S
H1119 C1103 0.960 . S
C1120 C1121 1.391 . S
C1120 C1122 1.394 . S
C1120 H1136 0.931 . S
C1121 C1120 1.391 . S
C1121 C1125 1.376 . S
C1122 C1120 1.394 . S
C1122 C1123 1.369 . S
C1122 C1126 1.531 . S
C1123 C1122 1.369 . S
C1123 C1124 1.410 . S
C1123 C1131 1.503 . S
C1124 C1123 1.410 . S
C1124 C1125 1.392 . S
C1124 C1127 1.511 . S
C1125 C1121 1.376 . S
C1125 C1124 1.392 . S
C1125 H1137 0.929 . S
C1126 C1122 1.531 . S
C1126 H1138 0.960 . S
C1126 H1139 0.962 . S
C1126 H1140 0.960 . S
C1127 C1124 1.511 . S
C1127 H1141 0.961 . S
C1127 H1142 0.961 . S
C1127 H1143 0.961 . S
C1128 C1129 1.370 . S
C1128 C1130 1.363 . S
C1128 H1144 0.931 . S
C1129 C1128 1.370 . S
C1129 C1133 1.408 . S
C1130 C1128 1.363 . S
C1130 C1131 1.370 . S
C1130 C1134 1.524 . S
C1131 C1123 1.503 . S
C1131 C1130 1.370 . S
C1131 C1132 1.403 . S
C1132 C1131 1.403 . S
C1132 C1133 1.404 . S
C1132 C1135 1.539 . S
C1133 C1129 1.408 . S
C1133 C1132 1.404 . S
C1133 H1145 0.930 . S
C1134 C1130 1.524 . S
C1134 H1146 0.956 . S
C1134 H1147 0.961 . S
C1134 H1148 0.961 . S
C1135 C1132 1.539 . S
C1135 H1149 0.958 . S
C1135 H1150 0.961 . S
C1135 H1151 0.960 . S
H1136 C1120 0.931 . S
H1137 C1125 0.929 . S
H1138 C1126 0.960 . S
H1139 C1126 0.962 . S
H1140 C1126 0.960 . S
H1141 C1127 0.961 . S
H1142 C1127 0.961 . S
H1143 C1127 0.961 . S
H1144 C1128 0.931 . S
H1145 C1133 0.930 . S
H1146 C1134 0.956 . S
H1147 C1134 0.961 . S
H1148 C1134 0.961 . S
H1149 C1135 0.958 . S
H1150 C1135 0.961 . S
H1151 C1135 0.960 . S
C1152 C1153 1.391 . S
C1152 C1154 1.394 . S
C1152 H1168 0.931 . S
C1153 C1152 1.391 . S
C1153 C1157 1.376 . S
C1154 C1152 1.394 . S
C1154 C1155 1.369 . S
C1154 C1158 1.531 . S
C1155 C1154 1.369 . S
C1155 C1156 1.410 . S
C1155 C1163 1.503 . S
C1156 C1155 1.410 . S
C1156 C1157 1.392 . S
C1156 C1159 1.511 . S
C1157 C1153 1.376 . S
C1157 C1156 1.392 . S
C1157 H1169 0.929 . S
C1158 C1154 1.531 . S
C1158 H1170 0.960 . S
C1158 H1171 0.962 . S
C1158 H1172 0.960 . S
C1159 C1156 1.511 . S
C1159 H1173 0.961 . S
C1159 H1174 0.961 . S
C1159 H1175 0.961 . S
C1160 C1161 1.370 . S
C1160 C1162 1.363 . S
C1160 H1176 0.931 . S
C1161 C1160 1.370 . S
C1161 C1165 1.408 . S
C1162 C1160 1.363 . S
C1162 C1163 1.370 . S
C1162 C1166 1.524 . S
C1163 C1155 1.503 . S
C1163 C1162 1.370 . S
C1163 C1164 1.403 . S
C1164 C1163 1.403 . S
C1164 C1165 1.404 . S
C1164 C1167 1.539 . S
C1165 C1161 1.408 . S
C1165 C1164 1.404 . S
C1165 H1177 0.930 . S
C1166 C1162 1.524 . S
C1166 H1178 0.956 . S
C1166 H1179 0.961 . S
C1166 H1180 0.961 . S
C1167 C1164 1.539 . S
C1167 H1181 0.958 . S
C1167 H1182 0.961 . S
C1167 H1183 0.960 . S
H1168 C1152 0.931 . S
H1169 C1157 0.929 . S
H1170 C1158 0.960 . S
H1171 C1158 0.962 . S
H1172 C1158 0.960 . S
H1173 C1159 0.961 . S
H1174 C1159 0.961 . S
H1175 C1159 0.961 . S
H1176 C1160 0.931 . S
H1177 C1165 0.930 . S
H1178 C1166 0.956 . S
H1179 C1166 0.961 . S
H1180 C1166 0.961 . S
H1181 C1167 0.958 . S
H1182 C1167 0.961 . S
H1183 C1167 0.960 . S
C1184 C1185 1.391 . S
C1184 C1186 1.394 . S
C1184 H1200 0.931 . S
C1185 C1184 1.391 . S
C1185 C1189 1.376 . S
C1186 C1184 1.394 . S
C1186 C1187 1.369 . S
C1186 C1190 1.531 . S
C1187 C1186 1.369 . S
C1187 C1188 1.410 . S
C1187 C1195 1.503 . S
C1188 C1187 1.410 . S
C1188 C1189 1.392 . S
C1188 C1191 1.511 . S
C1189 C1185 1.376 . S
C1189 C1188 1.392 . S
C1189 H1201 0.929 . S
C1190 C1186 1.531 . S
C1190 H1202 0.960 . S
C1190 H1203 0.962 . S
C1190 H1204 0.960 . S
C1191 C1188 1.511 . S
C1191 H1205 0.961 . S
C1191 H1206 0.961 . S
C1191 H1207 0.961 . S
C1192 C1193 1.370 . S
C1192 C1194 1.363 . S
C1192 H1208 0.931 . S
C1193 C1192 1.370 . S
C1193 C1197 1.408 . S
C1194 C1192 1.363 . S
C1194 C1195 1.370 . S
C1194 C1198 1.524 . S
C1195 C1187 1.503 . S
C1195 C1194 1.370 . S
C1195 C1196 1.403 . S
C1196 C1195 1.403 . S
C1196 C1197 1.404 . S
C1196 C1199 1.539 . S
C1197 C1193 1.408 . S
C1197 C1196 1.404 . S
C1197 H1209 0.930 . S
C1198 C1194 1.524 . S
C1198 H1210 0.956 . S
C1198 H1211 0.961 . S
C1198 H1212 0.961 . S
C1199 C1196 1.539 . S
C1199 H1213 0.958 . S
C1199 H1214 0.961 . S
C1199 H1215 0.960 . S
H1200 C1184 0.931 . S
H1201 C1189 0.929 . S
H1202 C1190 0.960 . S
H1203 C1190 0.962 . S
H1204 C1190 0.960 . S
H1205 C1191 0.961 . S
H1206 C1191 0.961 . S
H1207 C1191 0.961 . S
H1208 C1192 0.931 . S
H1209 C1197 0.930 . S
H1210 C1198 0.956 . S
H1211 C1198 0.961 . S
H1212 C1198 0.961 . S
H1213 C1199 0.958 . S
H1214 C1199 0.961 . S
H1215 C1199 0.960 . S
C1216 C1217 1.391 . S
C1216 C1218 1.394 . S
C1216 H1232 0.931 . S
C1217 C1216 1.391 . S
C1217 C1221 1.376 . S
C1218 C1216 1.394 . S
C1218 C1219 1.369 . S
C1218 C1222 1.531 . S
C1219 C1218 1.369 . S
C1219 C1220 1.410 . S
C1219 C1227 1.503 . S
C1220 C1219 1.410 . S
C1220 C1221 1.392 . S
C1220 C1223 1.511 . S
C1221 C1217 1.376 . S
C1221 C1220 1.392 . S
C1221 H1233 0.929 . S
C1222 C1218 1.531 . S
C1222 H1234 0.960 . S
C1222 H1235 0.962 . S
C1222 H1236 0.960 . S
C1223 C1220 1.511 . S
C1223 H1237 0.961 . S
C1223 H1238 0.961 . S
C1223 H1239 0.961 . S
C1224 C1225 1.370 . S
C1224 C1226 1.363 . S
C1224 H1240 0.931 . S
C1225 C1224 1.370 . S
C1225 C1229 1.408 . S
C1226 C1224 1.363 . S
C1226 C1227 1.370 . S
C1226 C1230 1.524 . S
C1227 C1219 1.503 . S
C1227 C1226 1.370 . S
C1227 C1228 1.403 . S
C1228 C1227 1.403 . S
C1228 C1229 1.404 . S
C1228 C1231 1.539 . S
C1229 C1225 1.408 . S
C1229 C1228 1.404 . S
C1229 H1241 0.930 . S
C1230 C1226 1.524 . S
C1230 H1242 0.956 . S
C1230 H1243 0.961 . S
C1230 H1244 0.961 . S
C1231 C1228 1.539 . S
C1231 H1245 0.958 . S
C1231 H1246 0.961 . S
C1231 H1247 0.960 . S
H1232 C1216 0.931 . S
H1233 C1221 0.929 . S
H1234 C1222 0.960 . S
H1235 C1222 0.962 . S
H1236 C1222 0.960 . S
H1237 C1223 0.961 . S
H1238 C1223 0.961 . S
H1239 C1223 0.961 . S
H1240 C1224 0.931 . S
H1241 C1229 0.930 . S
H1242 C1230 0.956 . S
H1243 C1230 0.961 . S
H1244 C1230 0.961 . S
H1245 C1231 0.958 . S
H1246 C1231 0.961 . S
H1247 C1231 0.960 . S
C1248 C1249 1.391 . S
C1248 C1250 1.394 1_545 S
C1248 H1264 0.931 . S
C1249 C1248 1.391 . S
C1249 C1253 1.376 . S
C1250 C1248 1.394 1_565 S
C1250 C1251 1.369 . S
C1250 C1254 1.531 . S
C1251 C1250 1.369 . S
C1251 C1252 1.410 . S
C1251 C1259 1.503 . S
C1252 C1251 1.410 . S
C1252 C1253 1.392 1_565 S
C1252 C1255 1.511 . S
C1253 C1249 1.376 . S
C1253 C1252 1.392 1_545 S
C1253 H1265 0.929 . S
C1254 C1250 1.531 . S
C1254 H1266 0.960 . S
C1254 H1267 0.962 . S
C1254 H1268 0.960 . S
C1255 C1252 1.511 . S
C1255 H1269 0.961 . S
C1255 H1270 0.961 . S
C1255 H1271 0.961 . S
C1256 C1257 1.370 . S
C1256 C1258 1.363 . S
C1256 H1272 0.931 . S
C1257 C1256 1.370 . S
C1257 C1261 1.408 . S
C1258 C1256 1.363 . S
C1258 C1259 1.370 . S
C1258 C1262 1.524 . S
C1259 C1251 1.503 . S
C1259 C1258 1.370 . S
C1259 C1260 1.403 . S
C1260 C1259 1.403 . S
C1260 C1261 1.404 . S
C1260 C1263 1.539 . S
C1261 C1257 1.408 . S
C1261 C1260 1.404 . S
C1261 H1273 0.930 . S
C1262 C1258 1.524 . S
C1262 H1274 0.956 . S
C1262 H1275 0.961 . S
C1262 H1276 0.961 . S
C1263 C1260 1.539 . S
C1263 H1277 0.958 . S
C1263 H1278 0.961 . S
C1263 H1279 0.960 . S
H1264 C1248 0.931 . S
H1265 C1253 0.929 . S
H1266 C1254 0.960 . S
H1267 C1254 0.962 . S
H1268 C1254 0.960 . S
H1269 C1255 0.961 . S
H1270 C1255 0.961 . S
H1271 C1255 0.961 . S
H1272 C1256 0.931 . S
H1273 C1261 0.930 . S
H1274 C1262 0.956 . S
H1275 C1262 0.961 . S
H1276 C1262 0.961 . S
H1277 C1263 0.958 . S
H1278 C1263 0.961 . S
H1279 C1263 0.960 . S
C1280 C1281 1.391 1_455 S
C1280 C1282 1.394 . S
C1280 H1296 0.931 1_455 S
C1281 C1280 1.391 1_655 S
C1281 C1285 1.411 . S
C1282 C1280 1.394 . S
C1282 C1283 1.369 . S
C1282 C1286 1.531 . S
C1283 C1282 1.369 . S
C1283 C1284 1.410 . S
C1283 C1291 1.503 . S
C1284 C1283 1.410 . S
C1284 C1285 1.354 1_455 S
C1284 C1287 1.511 . S
C1285 C1281 1.411 . S
C1285 C1284 1.354 1_655 S
C1285 H1297 0.934 . S
C1286 C1282 1.531 . S
C1286 H1298 0.960 . S
C1286 H1299 0.962 . S
C1286 H1300 0.960 . S
C1287 C1284 1.511 . S
C1287 H1301 0.961 . S
C1287 H1302 0.961 . S
C1287 H1303 0.961 . S
C1288 C1289 1.370 . S
C1288 C1290 1.363 . S
C1288 H1304 0.931 . S
C1289 C1288 1.370 . S
C1289 C1293 1.408 . S
C1290 C1288 1.363 . S
C1290 C1291 1.370 . S
C1290 C1294 1.524 . S
C1291 C1283 1.503 . S
C1291 C1290 1.370 . S
C1291 C1292 1.403 . S
C1292 C1291 1.403 . S
C1292 C1293 1.404 . S
C1292 C1295 1.539 . S
C1293 C1289 1.408 . S
C1293 C1292 1.404 . S
C1293 H1305 0.930 . S
C1294 C1290 1.524 . S
C1294 H1306 0.956 . S
C1294 H1307 0.961 . S
C1294 H1308 0.961 . S
C1295 C1292 1.539 . S
C1295 H1309 0.958 . S
C1295 H1310 0.961 . S
C1295 H1311 0.960 . S
H1296 C1280 0.931 1_655 S
H1297 C1285 0.934 . S
H1298 C1286 0.960 . S
H1299 C1286 0.962 . S
H1300 C1286 0.960 . S
H1301 C1287 0.961 . S
H1302 C1287 0.961 . S
H1303 C1287 0.961 . S
H1304 C1288 0.931 . S
H1305 C1293 0.930 . S
H1306 C1294 0.956 . S
H1307 C1294 0.961 . S
H1308 C1294 0.961 . S
H1309 C1295 0.958 . S
H1310 C1295 0.961 . S
H1311 C1295 0.960 . S
C1312 C1313 1.391 . S
C1312 C1314 1.394 . S
C1312 H1328 0.931 . S
C1313 C1312 1.391 . S
C1313 C1317 1.376 . S
C1314 C1312 1.394 . S
C1314 C1315 1.369 . S
C1314 C1318 1.531 . S
C1315 C1314 1.369 . S
C1315 C1316 1.410 . S
C1315 C1323 1.503 . S
C1316 C1315 1.410 . S
C1316 C1317 1.392 . S
C1316 C1319 1.511 . S
C1317 C1313 1.376 . S
C1317 C1316 1.392 . S
C1317 H1329 0.929 . S
C1318 C1314 1.531 . S
C1318 H1330 0.960 . S
C1318 H1331 0.962 . S
C1318 H1332 0.960 . S
C1319 C1316 1.511 . S
C1319 H1333 0.961 . S
C1319 H1334 0.961 . S
C1319 H1335 0.961 . S
C1320 C1321 1.370 . S
C1320 C1322 1.363 . S
C1320 H1336 0.931 . S
C1321 C1320 1.370 . S
C1321 C1325 1.408 . S
C1322 C1320 1.363 . S
C1322 C1323 1.370 . S
C1322 C1326 1.524 . S
C1323 C1315 1.503 . S
C1323 C1322 1.370 . S
C1323 C1324 1.403 . S
C1324 C1323 1.403 . S
C1324 C1325 1.404 . S
C1324 C1327 1.539 . S
C1325 C1321 1.408 . S
C1325 C1324 1.404 . S
C1325 H1337 0.930 . S
C1326 C1322 1.524 . S
C1326 H1338 0.956 . S
C1326 H1339 0.961 . S
C1326 H1340 0.961 . S
C1327 C1324 1.539 . S
C1327 H1341 0.958 . S
C1327 H1342 0.961 . S
C1327 H1343 0.960 . S
H1328 C1312 0.931 . S
H1329 C1317 0.929 . S
H1330 C1318 0.960 . S
H1331 C1318 0.962 . S
H1332 C1318 0.960 . S
H1333 C1319 0.961 . S
H1334 C1319 0.961 . S
H1335 C1319 0.961 . S
H1336 C1320 0.931 . S
H1337 C1325 0.930 . S
H1338 C1326 0.956 . S
H1339 C1326 0.961 . S
H1340 C1326 0.961 . S
H1341 C1327 0.958 . S
H1342 C1327 0.961 . S
H1343 C1327 0.960 . S
C1344 C1345 1.391 . S
C1344 C1346 1.394 . S
C1344 H1360 0.931 . S
C1345 C1344 1.391 . S
C1345 C1349 1.376 . S
C1346 C1344 1.394 . S
C1346 C1347 1.369 . S
C1346 C1350 1.531 . S
C1347 C1346 1.369 . S
C1347 C1348 1.410 . S
C1347 C1355 1.503 . S
C1348 C1347 1.410 . S
C1348 C1349 1.392 . S
C1348 C1351 1.511 . S
C1349 C1345 1.376 . S
C1349 C1348 1.392 . S
C1349 H1361 0.929 . S
C1350 C1346 1.531 . S
C1350 H1362 0.960 . S
C1350 H1363 0.962 . S
C1350 H1364 0.960 . S
C1351 C1348 1.511 . S
C1351 H1365 0.961 . S
C1351 H1366 0.961 . S
C1351 H1367 0.961 . S
C1352 C1353 1.370 . S
C1352 C1354 1.363 . S
C1352 H1368 0.931 . S
C1353 C1352 1.370 . S
C1353 C1357 1.408 . S
C1354 C1352 1.363 . S
C1354 C1355 1.370 . S
C1354 C1358 1.524 . S
C1355 C1347 1.503 . S
C1355 C1354 1.370 . S
C1355 C1356 1.403 . S
C1356 C1355 1.403 . S
C1356 C1357 1.404 . S
C1356 C1359 1.539 . S
C1357 C1353 1.408 . S
C1357 C1356 1.404 . S
C1357 H1369 0.930 . S
C1358 C1354 1.524 . S
C1358 H1370 0.956 . S
C1358 H1371 0.961 . S
C1358 H1372 0.961 . S
C1359 C1356 1.539 . S
C1359 H1373 0.958 . S
C1359 H1374 0.961 . S
C1359 H1375 0.960 . S
H1360 C1344 0.931 . S
H1361 C1349 0.929 . S
H1362 C1350 0.960 . S
H1363 C1350 0.962 . S
H1364 C1350 0.960 . S
H1365 C1351 0.961 . S
H1366 C1351 0.961 . S
H1367 C1351 0.961 . S
H1368 C1352 0.931 . S
H1369 C1357 0.930 . S
H1370 C1358 0.956 . S
H1371 C1358 0.961 . S
H1372 C1358 0.961 . S
H1373 C1359 0.958 . S
H1374 C1359 0.961 . S
H1375 C1359 0.960 . S
C1376 C1377 1.391 . S
C1376 C1378 1.394 . S
C1376 H1392 0.931 . S
C1377 C1376 1.391 . S
C1377 C1381 1.376 . S
C1378 C1376 1.394 . S
C1378 C1379 1.369 . S
C1378 C1382 1.531 . S
C1379 C1378 1.369 . S
C1379 C1380 1.410 . S
C1379 C1387 1.503 . S
C1380 C1379 1.410 . S
C1380 C1381 1.392 . S
C1380 C1383 1.511 . S
C1381 C1377 1.376 . S
C1381 C1380 1.392 . S
C1381 H1393 0.929 . S
C1382 C1378 1.531 . S
C1382 H1394 0.960 . S
C1382 H1395 0.962 . S
C1382 H1396 0.960 . S
C1383 C1380 1.511 . S
C1383 H1397 0.961 . S
C1383 H1398 0.961 . S
C1383 H1399 0.961 . S
C1384 C1385 1.370 . S
C1384 C1386 1.363 . S
C1384 H1400 0.931 . S
C1385 C1384 1.370 . S
C1385 C1389 1.408 . S
C1386 C1384 1.363 . S
C1386 C1387 1.370 . S
C1386 C1390 1.524 . S
C1387 C1379 1.503 . S
C1387 C1386 1.370 . S
C1387 C1388 1.403 . S
C1388 C1387 1.403 . S
C1388 C1389 1.404 . S
C1388 C1391 1.539 . S
C1389 C1385 1.408 . S
C1389 C1388 1.404 . S
C1389 H1401 0.930 . S
C1390 C1386 1.524 . S
C1390 H1402 0.956 . S
C1390 H1403 0.961 . S
C1390 H1404 0.961 . S
C1391 C1388 1.539 . S
C1391 H1405 0.958 . S
C1391 H1406 0.961 . S
C1391 H1407 0.960 . S
H1392 C1376 0.931 . S
H1393 C1381 0.929 . S
H1394 C1382 0.960 . S
H1395 C1382 0.962 . S
H1396 C1382 0.960 . S
H1397 C1383 0.961 . S
H1398 C1383 0.961 . S
H1399 C1383 0.961 . S
H1400 C1384 0.931 . S
H1401 C1389 0.930 . S
H1402 C1390 0.956 . S
H1403 C1390 0.961 . S
H1404 C1390 0.961 . S
H1405 C1391 0.958 . S
H1406 C1391 0.961 . S
H1407 C1391 0.960 . S
C1408 C1409 1.391 . S
C1408 C1410 1.394 . S
C1408 H1424 0.931 . S
C1409 C1408 1.391 . S
C1409 C1413 1.376 . S
C1410 C1408 1.394 . S
C1410 C1411 1.369 . S
C1410 C1414 1.531 . S
C1411 C1410 1.369 . S
C1411 C1412 1.410 . S
C1411 C1419 1.503 . S
C1412 C1411 1.410 . S
C1412 C1413 1.392 . S
C1412 C1415 1.511 . S
C1413 C1409 1.376 . S
C1413 C1412 1.392 . S
C1413 H1425 0.929 . S
C1414 C1410 1.531 . S
C1414 H1426 0.960 . S
C1414 H1427 0.962 . S
C1414 H1428 0.960 . S
C1415 C1412 1.511 . S
C1415 H1429 0.961 . S
C1415 H1430 0.961 . S
C1415 H1431 0.961 . S
C1416 C1417 1.370 . S
C1416 C1418 1.363 . S
C1416 H1432 0.931 . S
C1417 C1416 1.370 . S
C1417 C1421 1.408 . S
C1418 C1416 1.363 . S
C1418 C1419 1.370 . S
C1418 C1422 1.524 . S
C1419 C1411 1.503 . S
C1419 C1418 1.370 . S
C1419 C1420 1.403 . S
C1420 C1419 1.403 . S
C1420 C1421 1.404 . S
C1420 C1423 1.539 . S
C1421 C1417 1.408 . S
C1421 C1420 1.404 . S
C1421 H1433 0.930 . S
C1422 C1418 1.524 . S
C1422 H1434 0.956 . S
C1422 H1435 0.961 . S
C1422 H1436 0.961 . S
C1423 C1420 1.539 . S
C1423 H1437 0.958 . S
C1423 H1438 0.961 . S
C1423 H1439 0.960 . S
H1424 C1408 0.931 . S
H1425 C1413 0.929 . S
H1426 C1414 0.960 . S
H1427 C1414 0.962 . S
H1428 C1414 0.960 . S
H1429 C1415 0.961 . S
H1430 C1415 0.961 . S
H1431 C1415 0.961 . S
H1432 C1416 0.931 . S
H1433 C1421 0.930 . S
H1434 C1422 0.956 . S
H1435 C1422 0.961 . S
H1436 C1422 0.961 . S
H1437 C1423 0.958 . S
H1438 C1423 0.961 . S
H1439 C1423 0.960 . S
C1440 C1441 1.391 . S
C1440 C1442 1.394 . S
C1440 H1456 0.931 . S
C1441 C1440 1.391 . S
C1441 C1445 1.376 . S
C1442 C1440 1.394 . S
C1442 C1443 1.369 . S
C1442 C1446 1.531 . S
C1443 C1442 1.369 . S
C1443 C1444 1.410 . S
C1443 C1451 1.503 1_565 S
C1444 C1443 1.410 . S
C1444 C1445 1.392 . S
C1444 C1447 1.511 . S
C1445 C1441 1.376 . S
C1445 C1444 1.392 . S
C1445 H1457 0.929 . S
C1446 C1442 1.531 . S
C1446 H1458 0.960 . S
C1446 H1459 0.962 . S
C1446 H1460 0.960 . S
C1447 C1444 1.511 . S
C1447 H1461 0.961 . S
C1447 H1462 0.961 1_565 S
C1447 H1463 0.959 . S
C1448 C1449 1.370 . S
C1448 C1450 1.363 . S
C1448 H1464 0.931 . S
C1449 C1448 1.370 . S
C1449 C1453 1.408 . S
C1450 C1448 1.363 . S
C1450 C1451 1.370 . S
C1450 C1454 1.524 1_545 S
C1451 C1443 1.503 1_545 S
C1451 C1450 1.370 . S
C1451 C1452 1.403 . S
C1452 C1451 1.403 . S
C1452 C1453 1.404 . S
C1452 C1455 1.539 . S
C1453 C1449 1.408 . S
C1453 C1452 1.404 . S
C1453 H1465 0.930 . S
C1454 C1450 1.524 1_565 S
C1454 H1466 0.956 . S
C1454 H1467 0.961 . S
C1454 H1468 0.961 1_565 S
C1455 C1452 1.539 . S
C1455 H1469 0.958 . S
C1455 H1470 0.961 . S
C1455 H1471 0.960 . S
H1456 C1440 0.931 . S
H1457 C1445 0.929 . S
H1458 C1446 0.960 . S
H1459 C1446 0.962 . S
H1460 C1446 0.960 . S
H1461 C1447 0.961 . S
H1462 C1447 0.961 1_545 S
H1463 C1447 0.959 . S
H1464 C1448 0.931 . S
H1465 C1453 0.930 . S
H1466 C1454 0.956 . S
H1467 C1454 0.961 . S
H1468 C1454 0.961 1_545 S
H1469 C1455 0.958 . S
H1470 C1455 0.961 . S
H1471 C1455 0.960 . S
C1472 C1473 1.391 . S
C1472 C1474 1.394 . S
C1472 H1488 0.931 . S
C1473 C1472 1.391 . S
C1473 C1477 1.376 . S
C1474 C1472 1.394 . S
C1474 C1475 1.369 . S
C1474 C1478 1.531 . S
C1475 C1474 1.369 . S
C1475 C1476 1.410 . S
C1475 C1483 1.503 1_455 S
C1476 C1475 1.410 . S
C1476 C1477 1.392 . S
C1476 C1479 1.511 1_455 S
C1477 C1473 1.376 . S
C1477 C1476 1.392 . S
C1477 H1489 0.929 . S
C1478 C1474 1.531 . S
C1478 H1490 0.960 . S
C1478 H1491 0.962 . S
C1478 H1492 0.960 . S
C1479 C1476 1.511 1_655 S
C1479 H1493 0.961 . S
C1479 H1494 0.961 . S
C1479 H1495 0.961 . S
C1480 C1481 1.370 . S
C1480 C1482 1.363 . S
C1480 H1496 0.931 . S
C1481 C1480 1.370 . S
C1481 C1485 1.408 . S
C1482 C1480 1.363 . S
C1482 C1483 1.370 . S
C1482 C1486 1.524 . S
C1483 C1475 1.503 1_655 S
C1483 C1482 1.370 . S
C1483 C1484 1.403 . S
C1484 C1483 1.403 . S
C1484 C1485 1.404 . S
C1484 C1487 1.539 1_655 S
C1485 C1481 1.408 . S
C1485 C1484 1.404 . S
C1485 H1497 0.930 . S
C1486 C1482 1.524 . S
C1486 H1498 0.989 . S
C1486 H1499 0.961 . S
C1486 H1500 0.961 . S
C1487 C1484 1.539 1_455 S
C1487 H1501 0.958 . S
C1487 H1502 0.961 1_455 S
C1487 H1503 0.960 . S
H1488 C1472 0.931 . S
H1489 C1477 0.929 . S
H1490 C1478 0.960 . S
H1491 C1478 0.962 . S
H1492 C1478 0.960 . S
H1493 C1479 0.961 . S
H1494 C1479 0.961 . S
H1495 C1479 0.961 . S
H1496 C1480 0.931 . S
H1497 C1485 0.930 . S
H1498 C1486 0.989 . S
H1499 C1486 0.961 . S
H1500 C1486 0.961 . S
H1501 C1487 0.958 . S
H1502 C1487 0.961 1_655 S
H1503 C1487 0.960 . S
C1504 C1505 1.391 . S
C1504 C1506 1.394 . S
C1504 H1520 0.931 . S
C1505 C1504 1.391 . S
C1505 C1509 1.376 . S
C1506 C1504 1.394 . S
C1506 C1507 1.369 . S
C1506 C1510 1.531 . S
C1507 C1506 1.369 . S
C1507 C1508 1.410 . S
C1507 C1515 1.503 . S
C1508 C1507 1.410 . S
C1508 C1509 1.392 . S
C1508 C1511 1.511 . S
C1509 C1505 1.376 . S
C1509 C1508 1.392 . S
C1509 H1521 0.929 . S
C1510 C1506 1.531 . S
C1510 H1522 0.960 . S
C1510 H1523 0.962 . S
C1510 H1524 0.960 . S
C1511 C1508 1.511 . S
C1511 H1525 0.961 . S
C1511 H1526 0.961 . S
C1511 H1527 0.961 . S
C1512 C1513 1.370 . S
C1512 C1514 1.363 . S
C1512 H1528 0.931 . S
C1513 C1512 1.370 . S
C1513 C1517 1.408 . S
C1514 C1512 1.363 . S
C1514 C1515 1.370 . S
C1514 C1518 1.524 . S
C1515 C1507 1.503 . S
C1515 C1514 1.370 . S
C1515 C1516 1.403 . S
C1516 C1515 1.403 . S
C1516 C1517 1.404 . S
C1516 C1519 1.539 . S
C1517 C1513 1.408 . S
C1517 C1516 1.404 . S
C1517 H1529 0.930 . S
C1518 C1514 1.524 . S
C1518 H1530 0.956 . S
C1518 H1531 0.961 . S
C1518 H1532 0.961 . S
C1519 C1516 1.539 . S
C1519 H1533 0.958 . S
C1519 H1534 0.961 . S
C1519 H1535 0.960 . S
H1520 C1504 0.931 . S
H1521 C1509 0.929 . S
H1522 C1510 0.960 . S
H1523 C1510 0.962 . S
H1524 C1510 0.960 . S
H1525 C1511 0.961 . S
H1526 C1511 0.961 . S
H1527 C1511 0.961 . S
H1528 C1512 0.931 . S
H1529 C1517 0.930 . S
H1530 C1518 0.956 . S
H1531 C1518 0.961 . S
H1532 C1518 0.961 . S
H1533 C1519 0.958 . S
H1534 C1519 0.961 . S
H1535 C1519 0.960 . S
C1536 C1537 1.391 . S
C1536 C1538 1.394 1_455 S
C1536 H1552 0.931 . S
C1537 C1536 1.391 . S
C1537 C1541 1.376 . S
C1538 C1536 1.394 1_655 S
C1538 C1539 1.369 . S
C1538 C1542 1.531 . S
C1539 C1538 1.369 . S
C1539 C1540 1.410 . S
C1539 C1547 1.503 . S
C1540 C1539 1.410 . S
C1540 C1541 1.392 1_655 S
C1540 C1543 1.511 . S
C1541 C1537 1.376 . S
C1541 C1540 1.392 1_455 S
C1541 H1553 0.929 . S
C1542 C1538 1.531 . S
C1542 H1554 0.960 . S
C1542 H1555 0.962 . S
C1542 H1556 0.960 . S
C1543 C1540 1.511 . S
C1543 H1557 0.953 1_655 S
C1543 H1558 0.961 . S
C1543 H1559 0.961 . S
C1544 C1545 1.370 . S
C1544 C1546 1.363 . S
C1544 H1560 0.931 . S
C1545 C1544 1.370 . S
C1545 C1549 1.408 . S
C1546 C1544 1.363 . S
C1546 C1547 1.370 . S
C1546 C1550 1.524 . S
C1547 C1539 1.503 . S
C1547 C1546 1.370 . S
C1547 C1548 1.403 . S
C1548 C1547 1.403 . S
C1548 C1549 1.404 . S
C1548 C1551 1.539 . S
C1549 C1545 1.408 . S
C1549 C1548 1.404 . S
C1549 H1561 0.930 . S
C1550 C1546 1.524 . S
C1550 H1562 0.956 . S
C1550 H1563 0.961 . S
C1550 H1564 0.961 . S
C1551 C1548 1.539 . S
C1551 H1565 0.958 . S
C1551 H1566 0.961 . S
C1551 H1567 0.960 . S
H1552 C1536 0.931 . S
H1553 C1541 0.929 . S
H1554 C1542 0.960 . S
H1555 C1542 0.962 . S
H1556 C1542 0.960 . S
H1557 C1543 0.953 1_455 S
H1558 C1543 0.961 . S
H1559 C1543 0.961 . S
H1560 C1544 0.931 . S
H1561 C1549 0.930 . S
H1562 C1550 0.956 . S
H1563 C1550 0.961 . S
H1564 C1550 0.961 . S
H1565 C1551 0.958 . S
H1566 C1551 0.961 . S
H1567 C1551 0.960 . S
C1568 C1569 1.391 . S
C1568 C1570 1.394 . S
C1568 H1584 0.931 . S
C1569 C1568 1.391 . S
C1569 C1573 1.376 . S
C1570 C1568 1.394 . S
C1570 C1571 1.369 . S
C1570 C1574 1.531 . S
C1571 C1570 1.369 . S
C1571 C1572 1.410 . S
C1571 C1579 1.503 . S
C1572 C1571 1.410 . S
C1572 C1573 1.392 . S
C1572 C1575 1.511 . S
C1573 C1569 1.376 . S
C1573 C1572 1.392 . S
C1573 H1585 0.929 . S
C1574 C1570 1.531 . S
C1574 H1586 0.960 . S
C1574 H1587 0.962 . S
C1574 H1588 0.960 . S
C1575 C1572 1.511 . S
C1575 H1589 0.961 . S
C1575 H1590 0.961 . S
C1575 H1591 0.961 . S
C1576 C1577 1.370 . S
C1576 C1578 1.363 . S
C1576 H1592 0.931 . S
C1577 C1576 1.370 . S
C1577 C1581 1.408 . S
C1578 C1576 1.363 . S
C1578 C1579 1.370 . S
C1578 C1582 1.524 . S
C1579 C1571 1.503 . S
C1579 C1578 1.370 . S
C1579 C1580 1.403 . S
C1580 C1579 1.403 . S
C1580 C1581 1.404 . S
C1580 C1583 1.539 . S
C1581 C1577 1.408 . S
C1581 C1580 1.404 . S
C1581 H1593 0.930 . S
C1582 C1578 1.524 . S
C1582 H1594 0.956 . S
C1582 H1595 0.961 . S
C1582 H1596 0.961 . S
C1583 C1580 1.539 . S
C1583 H1597 0.958 . S
C1583 H1598 0.961 . S
C1583 H1599 0.960 . S
H1584 C1568 0.931 . S
H1585 C1573 0.929 . S
H1586 C1574 0.960 . S
H1587 C1574 0.962 . S
H1588 C1574 0.960 . S
H1589 C1575 0.961 . S
H1590 C1575 0.961 . S
H1591 C1575 0.961 . S
H1592 C1576 0.931 . S
H1593 C1581 0.930 . S
H1594 C1582 0.956 . S
H1595 C1582 0.961 . S
H1596 C1582 0.961 . S
H1597 C1583 0.958 . S
H1598 C1583 0.961 . S
H1599 C1583 0.960 . S
C1600 C1601 1.391 . S
C1600 C1602 1.394 1_565 S
C1600 H1616 0.931 . S
C1601 C1600 1.391 . S
C1601 C1605 1.376 . S
C1602 C1600 1.394 1_545 S
C1602 C1603 1.369 . S
C1602 C1606 1.531 . S
C1603 C1602 1.369 . S
C1603 C1604 1.410 . S
C1603 C1611 1.503 . S
C1604 C1603 1.410 . S
C1604 C1605 1.392 1_545 S
C1604 C1607 1.511 . S
C1605 C1601 1.376 . S
C1605 C1604 1.392 1_565 S
C1605 H1617 0.929 . S
C1606 C1602 1.531 . S
C1606 H1618 0.960 . S
C1606 H1619 0.962 . S
C1606 H1620 0.960 . S
C1607 C1604 1.511 . S
C1607 H1621 0.961 . S
C1607 H1622 0.961 . S
C1607 H1623 0.961 . S
C1608 C1609 1.370 . S
C1608 C1610 1.363 . S
C1608 H1624 0.931 . S
C1609 C1608 1.370 . S
C1609 C1613 1.408 . S
C1610 C1608 1.363 . S
C1610 C1611 1.370 . S
C1610 C1614 1.524 . S
C1611 C1603 1.503 . S
C1611 C1610 1.370 . S
C1611 C1612 1.403 . S
C1612 C1611 1.403 . S
C1612 C1613 1.404 . S
C1612 C1615 1.539 . S
C1613 C1609 1.408 . S
C1613 C1612 1.404 . S
C1613 H1625 0.930 . S
C1614 C1610 1.524 . S
C1614 H1626 0.956 . S
C1614 H1627 0.961 . S
C1614 H1628 0.961 . S
C1615 C1612 1.539 . S
C1615 H1629 0.958 . S
C1615 H1630 0.961 . S
C1615 H1631 0.960 . S
H1616 C1600 0.931 . S
H1617 C1605 0.929 . S
H1618 C1606 0.960 . S
H1619 C1606 0.962 . S
H1620 C1606 0.960 . S
H1621 C1607 0.961 . S
H1622 C1607 0.961 . S
H1623 C1607 0.961 . S
H1624 C1608 0.931 . S
H1625 C1613 0.930 . S
H1626 C1614 0.956 . S
H1627 C1614 0.961 . S
H1628 C1614 0.961 . S
H1629 C1615 0.958 . S
H1630 C1615 0.961 . S
H1631 C1615 0.960 . S
C1632 C1633 1.391 . S
C1632 C1634 1.394 . S
C1632 H1648 0.931 . S
C1633 C1632 1.391 . S
C1633 C1637 1.376 . S
C1634 C1632 1.394 . S
C1634 C1635 1.369 . S
C1634 C1638 1.531 . S
C1635 C1634 1.369 . S
C1635 C1636 1.410 . S
C1635 C1643 1.503 . S
C1636 C1635 1.410 . S
C1636 C1637 1.392 . S
C1636 C1639 1.511 . S
C1637 C1633 1.376 . S
C1637 C1636 1.392 . S
C1637 H1649 0.929 . S
C1638 C1634 1.531 . S
C1638 H1650 0.960 . S
C1638 H1651 0.962 . S
C1638 H1652 0.960 . S
C1639 C1636 1.511 . S
C1639 H1653 0.961 . S
C1639 H1654 0.961 . S
C1639 H1655 0.961 . S
C1640 C1641 1.370 . S
C1640 C1642 1.363 . S
C1640 H1656 0.931 . S
C1641 C1640 1.370 . S
C1641 C1645 1.408 . S
C1642 C1640 1.363 . S
C1642 C1643 1.370 . S
C1642 C1646 1.524 . S
C1643 C1635 1.503 . S
C1643 C1642 1.370 . S
C1643 C1644 1.403 . S
C1644 C1643 1.403 . S
C1644 C1645 1.404 . S
C1644 C1647 1.539 . S
C1645 C1641 1.408 . S
C1645 C1644 1.404 . S
C1645 H1657 0.930 . S
C1646 C1642 1.524 . S
C1646 H1658 0.956 . S
C1646 H1659 0.961 . S
C1646 H1660 0.961 . S
C1647 C1644 1.539 . S
C1647 H1661 0.958 . S
C1647 H1662 0.961 . S
C1647 H1663 0.960 . S
H1648 C1632 0.931 . S
H1649 C1637 0.929 . S
H1650 C1638 0.960 . S
H1651 C1638 0.962 . S
H1652 C1638 0.960 . S
H1653 C1639 0.961 . S
H1654 C1639 0.961 . S
H1655 C1639 0.961 . S
H1656 C1640 0.931 . S
H1657 C1645 0.930 . S
H1658 C1646 0.956 . S
H1659 C1646 0.961 . S
H1660 C1646 0.961 . S
H1661 C1647 0.958 . S
H1662 C1647 0.961 . S
H1663 C1647 0.960 . S
C1664 C1665 1.391 . S
C1664 C1666 1.394 . S
C1664 H1680 0.931 . S
C1665 C1664 1.391 . S
C1665 C1669 1.376 . S
C1666 C1664 1.394 . S
C1666 C1667 1.369 . S
C1666 C1670 1.531 . S
C1667 C1666 1.369 . S
C1667 C1668 1.410 . S
C1667 C1675 1.503 . S
C1668 C1667 1.410 . S
C1668 C1669 1.392 . S
C1668 C1671 1.511 . S
C1669 C1665 1.376 . S
C1669 C1668 1.392 . S
C1669 H1681 0.929 . S
C1670 C1666 1.531 . S
C1670 H1682 0.960 . S
C1670 H1683 0.962 . S
C1670 H1684 0.960 . S
C1671 C1668 1.511 . S
C1671 H1685 0.961 . S
C1671 H1686 0.961 . S
C1671 H1687 0.961 . S
C1672 C1673 1.370 . S
C1672 C1674 1.363 . S
C1672 H1688 0.931 . S
C1673 C1672 1.370 . S
C1673 C1677 1.408 . S
C1674 C1672 1.363 . S
C1674 C1675 1.370 . S
C1674 C1678 1.524 . S
C1675 C1667 1.503 . S
C1675 C1674 1.370 . S
C1675 C1676 1.403 . S
C1676 C1675 1.403 . S
C1676 C1677 1.404 . S
C1676 C1679 1.539 . S
C1677 C1673 1.408 . S
C1677 C1676 1.404 . S
C1677 H1689 0.930 . S
C1678 C1674 1.524 . S
C1678 H1690 0.956 . S
C1678 H1691 0.961 . S
C1678 H1692 0.961 . S
C1679 C1676 1.539 . S
C1679 H1693 0.958 . S
C1679 H1694 0.961 . S
C1679 H1695 0.960 . S
H1680 C1664 0.931 . S
H1681 C1669 0.929 . S
H1682 C1670 0.960 . S
H1683 C1670 0.962 . S
H1684 C1670 0.960 . S
H1685 C1671 0.961 . S
H1686 C1671 0.961 . S
H1687 C1671 0.961 . S
H1688 C1672 0.931 . S
H1689 C1677 0.930 . S
H1690 C1678 0.956 . S
H1691 C1678 0.961 . S
H1692 C1678 0.961 . S
H1693 C1679 0.958 . S
H1694 C1679 0.961 . S
H1695 C1679 0.960 . S
C1696 C1697 1.391 . S
C1696 C1698 1.394 . S
C1696 H1712 0.931 . S
C1697 C1696 1.391 . S
C1697 C1701 1.376 . S
C1698 C1696 1.394 . S
C1698 C1699 1.369 . S
C1698 C1702 1.531 . S
C1699 C1698 1.369 . S
C1699 C1700 1.410 . S
C1699 C1707 1.503 . S
C1700 C1699 1.410 . S
C1700 C1701 1.392 . S
C1700 C1703 1.511 . S
C1701 C1697 1.376 . S
C1701 C1700 1.392 . S
C1701 H1713 0.929 . S
C1702 C1698 1.531 . S
C1702 H1714 0.960 . S
C1702 H1715 0.962 . S
C1702 H1716 0.960 . S
C1703 C1700 1.511 . S
C1703 H1717 0.961 . S
C1703 H1718 0.961 . S
C1703 H1719 0.961 . S
C1704 C1705 1.370 . S
C1704 C1706 1.363 . S
C1704 H1720 0.931 . S
C1705 C1704 1.370 . S
C1705 C1709 1.408 . S
C1706 C1704 1.363 . S
C1706 C1707 1.370 . S
C1706 C1710 1.524 . S
C1707 C1699 1.503 . S
C1707 C1706 1.370 . S
C1707 C1708 1.403 . S
C1708 C1707 1.403 . S
C1708 C1709 1.404 . S
C1708 C1711 1.539 . S
C1709 C1705 1.408 . S
C1709 C1708 1.404 . S
C1709 H1721 0.930 . S
C1710 C1706 1.524 . S
C1710 H1722 0.956 . S
C1710 H1723 0.961 . S
C1710 H1724 0.961 . S
C1711 C1708 1.539 . S
C1711 H1725 0.958 . S
C1711 H1726 0.961 . S
C1711 H1727 0.960 . S
H1712 C1696 0.931 . S
H1713 C1701 0.929 . S
H1714 C1702 0.960 . S
H1715 C1702 0.962 . S
H1716 C1702 0.960 . S
H1717 C1703 0.961 . S
H1718 C1703 0.961 . S
H1719 C1703 0.961 . S
H1720 C1704 0.931 . S
H1721 C1709 0.930 . S
H1722 C1710 0.956 . S
H1723 C1710 0.961 . S
H1724 C1710 0.961 . S
H1725 C1711 0.958 . S
H1726 C1711 0.961 . S
H1727 C1711 0.960 . S
C1728 C1729 1.391 . S
C1728 C1730 1.394 . S
C1728 H1744 0.931 . S
C1729 C1728 1.391 . S
C1729 C1733 1.376 . S
C1730 C1728 1.394 . S
C1730 C1731 1.369 . S
C1730 C1734 1.531 . S
C1731 C1730 1.369 . S
C1731 C1732 1.410 . S
C1731 C1739 1.503 . S
C1732 C1731 1.410 . S
C1732 C1733 1.392 . S
C1732 C1735 1.511 . S
C1733 C1729 1.376 . S
C1733 C1732 1.392 . S
C1733 H1745 0.929 . S
C1734 C1730 1.531 . S
C1734 H1746 0.960 . S
C1734 H1747 0.962 . S
C1734 H1748 0.960 . S
C1735 C1732 1.511 . S
C1735 H1749 0.961 . S
C1735 H1750 0.961 . S
C1735 H1751 0.961 . S
C1736 C1737 1.370 . S
C1736 C1738 1.363 . S
C1736 H1752 0.931 . S
C1737 C1736 1.370 . S
C1737 C1741 1.408 . S
C1738 C1736 1.363 . S
C1738 C1739 1.370 . S
C1738 C1742 1.524 . S
C1739 C1731 1.503 . S
C1739 C1738 1.370 . S
C1739 C1740 1.403 . S
C1740 C1739 1.403 . S
C1740 C1741 1.404 . S
C1740 C1743 1.539 1_565 S
C1741 C1737 1.408 . S
C1741 C1740 1.404 . S
C1741 H1753 0.930 1_565 S
C1742 C1738 1.524 . S
C1742 H1754 0.956 . S
C1742 H1755 0.961 . S
C1742 H1756 0.961 . S
C1743 C1740 1.539 1_545 S
C1743 H1757 0.958 . S
C1743 H1758 0.961 . S
C1743 H1759 0.960 1_545 S
H1744 C1728 0.931 . S
H1745 C1733 0.929 . S
H1746 C1734 0.960 . S
H1747 C1734 0.962 . S
H1748 C1734 0.960 . S
H1749 C1735 0.961 . S
H1750 C1735 0.961 . S
H1751 C1735 0.961 . S
H1752 C1736 0.931 . S
H1753 C1741 0.930 1_545 S
H1754 C1742 0.956 . S
H1755 C1742 0.961 . S
H1756 C1742 0.961 . S
H1757 C1743 0.958 . S
H1758 C1743 0.961 . S
H1759 C1743 0.960 1_565 S
C1760 C1761 1.391 . S
C1760 C1762 1.394 . S
C1760 H1776 0.931 . S
C1761 C1760 1.391 . S
C1761 C1765 1.376 . S
C1762 C1760 1.394 . S
C1762 C1763 1.369 . S
C1762 C1766 1.531 . S
C1763 C1762 1.369 . S
C1763 C1764 1.410 . S
C1763 C1771 1.503 . S
C1764 C1763 1.410 . S
C1764 C1765 1.392 . S
C1764 C1767 1.511 . S
C1765 C1761 1.376 . S
C1765 C1764 1.392 . S
C1765 H1777 0.929 . S
C1766 C1762 1.531 . S
C1766 H1778 0.960 . S
C1766 H1779 0.962 . S
C1766 H1780 0.960 . S
C1767 C1764 1.511 . S
C1767 H1781 0.961 . S
C1767 H1782 0.961 . S
C1767 H1783 0.961 . S
C1768 C1769 1.370 . S
C1768 C1770 1.363 . S
C1768 H1784 0.931 . S
C1769 C1768 1.370 . S
C1769 C1773 1.408 . S
C1770 C1768 1.363 . S
C1770 C1771 1.370 . S
C1770 C1774 1.524 . S
C1771 C1763 1.503 . S
C1771 C1770 1.370 . S
C1771 C1772 1.403 . S
C1772 C1771 1.403 . S
C1772 C1773 1.404 . S
C1772 C1775 1.539 . S
C1773 C1769 1.408 . S
C1773 C1772 1.404 . S
C1773 H1785 0.930 . S
C1774 C1770 1.524 . S
C1774 H1786 0.956 1_455 S
C1774 H1787 0.961 . S
C1774 H1788 0.961 1_455 S
C1775 C1772 1.539 . S
C1775 H1789 0.958 . S
C1775 H1790 0.961 . S
C1775 H1791 0.960 . S
H1776 C1760 0.931 . S
H1777 C1765 0.929 . S
H1778 C1766 0.960 . S
H1779 C1766 0.962 . S
H1780 C1766 0.960 . S
H1781 C1767 0.961 . S
H1782 C1767 0.961 . S
H1783 C1767 0.961 . S
H1784 C1768 0.931 . S
H1785 C1773 0.930 . S
H1786 C1774 0.956 1_655 S
H1787 C1774 0.961 . S
H1788 C1774 0.961 1_655 S
H1789 C1775 0.958 . S
H1790 C1775 0.961 . S
H1791 C1775 0.960 . S
C1792 C1793 1.391 . S
C1792 C1794 1.394 . S
C1792 H1808 0.931 . S
C1793 C1792 1.391 . S
C1793 C1797 1.376 . S
C1794 C1792 1.394 . S
C1794 C1795 1.369 . S
C1794 C1798 1.531 . S
C1795 C1794 1.369 . S
C1795 C1796 1.410 . S
C1795 C1803 1.503 . S
C1796 C1795 1.410 . S
C1796 C1797 1.392 . S
C1796 C1799 1.511 . S
C1797 C1793 1.376 . S
C1797 C1796 1.392 . S
C1797 H1809 0.929 . S
C1798 C1794 1.531 . S
C1798 H1810 0.960 . S
C1798 H1811 0.962 . S
C1798 H1812 0.960 . S
C1799 C1796 1.511 . S
C1799 H1813 0.961 . S
C1799 H1814 0.961 . S
C1799 H1815 0.961 . S
C1800 C1801 1.370 . S
C1800 C1802 1.363 . S
C1800 H1816 0.931 . S
C1801 C1800 1.370 . S
C1801 C1805 1.408 . S
C1802 C1800 1.363 . S
C1802 C1803 1.370 . S
C1802 C1806 1.524 . S
C1803 C1795 1.503 . S
C1803 C1802 1.370 . S
C1803 C1804 1.403 . S
C1804 C1803 1.403 . S
C1804 C1805 1.404 . S
C1804 C1807 1.539 . S
C1805 C1801 1.408 . S
C1805 C1804 1.404 . S
C1805 H1817 0.930 . S
C1806 C1802 1.524 . S
C1806 H1818 0.956 . S
C1806 H1819 0.961 . S
C1806 H1820 0.961 . S
C1807 C1804 1.539 . S
C1807 H1821 0.958 . S
C1807 H1822 0.961 . S
C1807 H1823 0.960 . S
H1808 C1792 0.931 . S
H1809 C1797 0.929 . S
H1810 C1798 0.960 . S
H1811 C1798 0.962 . S
H1812 C1798 0.960 . S
H1813 C1799 0.961 . S
H1814 C1799 0.961 . S
H1815 C1799 0.961 . S
H1816 C1800 0.931 . S
H1817 C1805 0.930 . S
H1818 C1806 0.956 . S
H1819 C1806 0.961 . S
H1820 C1806 0.961 . S
H1821 C1807 0.958 . S
H1822 C1807 0.961 . S
H1823 C1807 0.960 . S
C1824 C1825 1.391 . S
C1824 C1826 1.394 . S
C1824 H1840 0.931 . S
C1825 C1824 1.391 . S
C1825 C1829 1.376 . S
C1826 C1824 1.394 . S
C1826 C1827 1.369 . S
C1826 C1830 1.531 1_655 S
C1827 C1826 1.369 . S
C1827 C1828 1.410 . S
C1827 C1835 1.503 . S
C1828 C1827 1.410 . S
C1828 C1829 1.392 . S
C1828 C1831 1.511 . S
C1829 C1825 1.376 . S
C1829 C1828 1.392 . S
C1829 H1841 0.929 . S
C1830 C1826 1.531 1_455 S
C1830 H1842 0.960 . S
C1830 H1843 0.962 . S
C1830 H1844 0.960 . S
C1831 C1828 1.511 . S
C1831 H1845 0.961 . S
C1831 H1846 0.961 . S
C1831 H1847 0.961 . S
C1832 C1833 1.370 . S
C1832 C1834 1.363 . S
C1832 H1848 0.931 . S
C1833 C1832 1.370 . S
C1833 C1837 1.408 . S
C1834 C1832 1.363 . S
C1834 C1835 1.370 . S
C1834 C1838 1.524 . S
C1835 C1827 1.503 . S
C1835 C1834 1.370 . S
C1835 C1836 1.403 . S
C1836 C1835 1.403 . S
C1836 C1837 1.404 . S
C1836 C1839 1.539 . S
C1837 C1833 1.408 . S
C1837 C1836 1.404 . S
C1837 H1849 0.930 . S
C1838 C1834 1.524 . S
C1838 H1850 0.956 . S
C1838 H1851 0.961 . S
C1838 H1852 0.961 . S
C1839 C1836 1.539 . S
C1839 H1853 0.958 . S
C1839 H1854 0.961 . S
C1839 H1855 0.960 . S
H1840 C1824 0.931 . S
H1841 C1829 0.929 . S
H1842 C1830 0.960 . S
H1843 C1830 0.962 . S
H1844 C1830 0.960 . S
H1845 C1831 0.961 . S
H1846 C1831 0.961 . S
H1847 C1831 0.961 . S
H1848 C1832 0.931 . S
H1849 C1837 0.930 . S
H1850 C1838 0.956 . S
H1851 C1838 0.961 . S
H1852 C1838 0.961 . S
H1853 C1839 0.958 . S
H1854 C1839 0.961 . S
H1855 C1839 0.960 . S
C1856 C1857 1.391 . S
C1856 C1858 1.394 . S
C1856 H1872 0.931 . S
C1857 C1856 1.391 . S
C1857 C1861 1.376 . S
C1858 C1856 1.394 . S
C1858 C1859 1.369 . S
C1858 C1862 1.531 . S
C1859 C1858 1.369 . S
C1859 C1860 1.410 . S
C1859 C1867 1.503 . S
C1860 C1859 1.410 . S
C1860 C1861 1.392 . S
C1860 C1863 1.511 . S
C1861 C1857 1.376 . S
C1861 C1860 1.392 . S
C1861 H1873 0.929 . S
C1862 C1858 1.531 . S
C1862 H1874 0.960 . S
C1862 H1875 0.962 . S
C1862 H1876 0.960 . S
C1863 C1860 1.511 . S
C1863 H1877 0.961 . S
C1863 H1878 0.961 . S
C1863 H1879 0.961 . S
C1864 C1865 1.370 . S
C1864 C1866 1.363 . S
C1864 H1880 0.931 . S
C1865 C1864 1.370 . S
C1865 C1869 1.408 . S
C1866 C1864 1.363 . S
C1866 C1867 1.370 . S
C1866 C1870 1.524 . S
C1867 C1859 1.503 . S
C1867 C1866 1.370 . S
C1867 C1868 1.403 . S
C1868 C1867 1.403 . S
C1868 C1869 1.404 . S
C1868 C1871 1.539 . S
C1869 C1865 1.408 . S
C1869 C1868 1.404 . S
C1869 H1881 0.930 . S
C1870 C1866 1.524 . S
C1870 H1882 0.956 . S
C1870 H1883 0.961 . S
C1870 H1884 0.961 . S
C1871 C1868 1.539 . S
C1871 H1885 0.958 . S
C1871 H1886 0.961 . S
C1871 H1887 0.960 . S
H1872 C1856 0.931 . S
H1873 C1861 0.929 . S
H1874 C1862 0.960 . S
H1875 C1862 0.962 . S
H1876 C1862 0.960 . S
H1877 C1863 0.961 . S
H1878 C1863 0.961 . S
H1879 C1863 0.961 . S
H1880 C1864 0.931 . S
H1881 C1869 0.930 . S
H1882 C1870 0.956 . S
H1883 C1870 0.961 . S
H1884 C1870 0.961 . S
H1885 C1871 0.958 . S
H1886 C1871 0.961 . S
H1887 C1871 0.960 . S
C1888 C1889 1.391 . S
C1888 C1890 1.394 . S
C1888 H1904 0.931 . S
C1889 C1888 1.391 . S
C1889 C1893 1.376 . S
C1890 C1888 1.394 . S
C1890 C1891 1.369 . S
C1890 C1894 1.531 . S
C1891 C1890 1.369 . S
C1891 C1892 1.410 . S
C1891 C1899 1.503 . S
C1892 C1891 1.410 . S
C1892 C1893 1.392 . S
C1892 C1895 1.511 . S
C1893 C1889 1.376 . S
C1893 C1892 1.392 . S
C1893 H1905 0.929 . S
C1894 C1890 1.531 . S
C1894 H1906 0.960 . S
C1894 H1907 0.962 . S
C1894 H1908 0.960 . S
C1895 C1892 1.511 . S
C1895 H1909 0.961 . S
C1895 H1910 0.961 . S
C1895 H1911 0.961 . S
C1896 C1897 1.370 . S
C1896 C1898 1.363 . S
C1896 H1912 0.931 . S
C1897 C1896 1.370 . S
C1897 C1901 1.408 . S
C1898 C1896 1.363 . S
C1898 C1899 1.370 . S
C1898 C1902 1.524 . S
C1899 C1891 1.503 . S
C1899 C1898 1.370 . S
C1899 C1900 1.403 . S
C1900 C1899 1.403 . S
C1900 C1901 1.404 . S
C1900 C1903 1.539 . S
C1901 C1897 1.408 . S
C1901 C1900 1.404 . S
C1901 H1913 0.930 . S
C1902 C1898 1.524 . S
C1902 H1914 0.956 . S
C1902 H1915 0.961 . S
C1902 H1916 0.961 . S
C1903 C1900 1.539 . S
C1903 H1917 0.958 . S
C1903 H1918 0.961 . S
C1903 H1919 0.960 . S
H1904 C1888 0.931 . S
H1905 C1893 0.929 . S
H1906 C1894 0.960 . S
H1907 C1894 0.962 . S
H1908 C1894 0.960 . S
H1909 C1895 0.961 . S
H1910 C1895 0.961 . S
H1911 C1895 0.961 . S
H1912 C1896 0.931 . S
H1913 C1901 0.930 . S
H1914 C1902 0.956 . S
H1915 C1902 0.961 . S
H1916 C1902 0.961 . S
H1917 C1903 0.958 . S
H1918 C1903 0.961 . S
H1919 C1903 0.960 . S
C1920 C1921 1.391 . S
C1920 C1922 1.394 . S
C1920 H1936 0.931 . S
C1921 C1920 1.391 . S
C1921 C1925 1.376 . S
C1922 C1920 1.394 . S
C1922 C1923 1.369 . S
C1922 C1926 1.531 . S
C1923 C1922 1.369 . S
C1923 C1924 1.410 . S
C1923 C1931 1.503 . S
C1924 C1923 1.410 . S
C1924 C1925 1.392 . S
C1924 C1927 1.511 . S
C1925 C1921 1.376 . S
C1925 C1924 1.392 . S
C1925 H1937 0.929 . S
C1926 C1922 1.531 . S
C1926 H1938 0.960 . S
C1926 H1939 0.962 . S
C1926 H1940 0.960 . S
C1927 C1924 1.511 . S
C1927 H1941 0.961 . S
C1927 H1942 0.961 . S
C1927 H1943 0.961 . S
C1928 C1929 1.370 . S
C1928 C1930 1.363 . S
C1928 H1944 0.931 . S
C1929 C1928 1.370 . S
C1929 C1933 1.408 . S
C1930 C1928 1.363 . S
C1930 C1931 1.370 . S
C1930 C1934 1.524 . S
C1931 C1923 1.503 . S
C1931 C1930 1.370 . S
C1931 C1932 1.403 . S
C1932 C1931 1.403 . S
C1932 C1933 1.404 . S
C1932 C1935 1.539 . S
C1933 C1929 1.408 . S
C1933 C1932 1.404 . S
C1933 H1945 0.930 . S
C1934 C1930 1.524 . S
C1934 H1946 0.956 . S
C1934 H1947 0.961 . S
C1934 H1948 0.961 . S
C1935 C1932 1.539 . S
C1935 H1949 0.958 . S
C1935 H1950 0.961 . S
C1935 H1951 0.960 . S
H1936 C1920 0.931 . S
H1937 C1925 0.929 . S
H1938 C1926 0.960 . S
H1939 C1926 0.962 . S
H1940 C1926 0.960 . S
H1941 C1927 0.961 . S
H1942 C1927 0.961 . S
H1943 C1927 0.961 . S
H1944 C1928 0.931 . S
H1945 C1933 0.930 . S
H1946 C1934 0.956 . S
H1947 C1934 0.961 . S
H1948 C1934 0.961 . S
H1949 C1935 0.958 . S
H1950 C1935 0.961 . S
H1951 C1935 0.960 . S
C1952 C1953 1.391 . S
C1952 C1954 1.394 . S
C1952 H1968 0.931 . S
C1953 C1952 1.391 . S
C1953 C1957 1.376 . S
C1954 C1952 1.394 . S
C1954 C1955 1.369 . S
C1954 C1958 1.531 . S
C1955 C1954 1.369 . S
C1955 C1956 1.410 . S
C1955 C1963 1.503 . S
C1956 C1955 1.410 . S
C1956 C1957 1.392 . S
C1956 C1959 1.511 . S
C1957 C1953 1.376 . S
C1957 C1956 1.392 . S
C1957 H1969 0.929 . S
C1958 C1954 1.531 . S
C1958 H1970 0.960 . S
C1958 H1971 0.962 . S
C1958 H1972 0.960 . S
C1959 C1956 1.511 . S
C1959 H1973 0.961 . S
C1959 H1974 0.961 . S
C1959 H1975 0.961 . S
C1960 C1961 1.370 . S
C1960 C1962 1.363 . S
C1960 H1976 0.931 . S
C1961 C1960 1.370 . S
C1961 C1965 1.408 . S
C1962 C1960 1.363 . S
C1962 C1963 1.370 . S
C1962 C1966 1.524 . S
C1963 C1955 1.503 . S
C1963 C1962 1.370 . S
C1963 C1964 1.403 . S
C1964 C1963 1.403 . S
C1964 C1965 1.404 . S
C1964 C1967 1.539 . S
C1965 C1961 1.408 . S
C1965 C1964 1.404 . S
C1965 H1977 0.930 . S
C1966 C1962 1.524 . S
C1966 H1978 0.956 . S
C1966 H1979 0.961 . S
C1966 H1980 0.961 . S
C1967 C1964 1.539 . S
C1967 H1981 0.958 . S
C1967 H1982 0.961 . S
C1967 H1983 0.960 . S
H1968 C1952 0.931 . S
H1969 C1957 0.929 . S
H1970 C1958 0.960 . S
H1971 C1958 0.962 . S
H1972 C1958 0.960 . S
H1973 C1959 0.961 . S
H1974 C1959 0.961 . S
H1975 C1959 0.961 . S
H1976 C1960 0.931 . S
H1977 C1965 0.930 . S
H1978 C1966 0.956 . S
H1979 C1966 0.961 . S
H1980 C1966 0.961 . S
H1981 C1967 0.958 . S
H1982 C1967 0.961 . S
H1983 C1967 0.960 . S
C1984 C1985 1.391 . S
C1984 C1986 1.394 . S
C1984 H2000 0.931 . S
C1985 C1984 1.391 . S
C1985 C1989 1.376 . S
C1986 C1984 1.394 . S
C1986 C1987 1.369 . S
C1986 C1990 1.531 . S
C1987 C1986 1.369 . S
C1987 C1988 1.410 . S
C1987 C1995 1.503 . S
C1988 C1987 1.410 . S
C1988 C1989 1.392 . S
C1988 C1991 1.511 . S
C1989 C1985 1.376 . S
C1989 C1988 1.392 . S
C1989 H2001 0.929 . S
C1990 C1986 1.531 . S
C1990 H2002 0.960 . S
C1990 H2003 0.962 . S
C1990 H2004 0.960 . S
C1991 C1988 1.511 . S
C1991 H2005 0.961 . S
C1991 H2006 0.961 . S
C1991 H2007 0.961 . S
C1992 C1993 1.370 . S
C1992 C1994 1.363 . S
C1992 H2008 0.931 . S
C1993 C1992 1.370 . S
C1993 C1997 1.408 . S
C1994 C1992 1.363 . S
C1994 C1995 1.370 . S
C1994 C1998 1.524 . S
C1995 C1987 1.503 . S
C1995 C1994 1.370 . S
C1995 C1996 1.403 . S
C1996 C1995 1.403 . S
C1996 C1997 1.404 . S
C1996 C1999 1.539 . S
C1997 C1993 1.408 . S
C1997 C1996 1.404 . S
C1997 H2009 0.930 . S
C1998 C1994 1.524 . S
C1998 H2010 0.956 . S
C1998 H2011 0.961 . S
C1998 H2012 0.961 . S
C1999 C1996 1.539 . S
C1999 H2013 0.958 . S
C1999 H2014 0.961 . S
C1999 H2015 0.960 . S
H2000 C1984 0.931 . S
H2001 C1989 0.929 . S
H2002 C1990 0.960 . S
H2003 C1990 0.962 . S
H2004 C1990 0.960 . S
H2005 C1991 0.961 . S
H2006 C1991 0.961 . S
H2007 C1991 0.961 . S
H2008 C1992 0.931 . S
H2009 C1997 0.930 . S
H2010 C1998 0.956 . S
H2011 C1998 0.961 . S
H2012 C1998 0.961 . S
H2013 C1999 0.958 . S
H2014 C1999 0.961 . S
H2015 C1999 0.960 . S
C2016 C2017 1.391 . S
C2016 C2018 1.394 . S
C2016 H2032 0.931 . S
C2017 C2016 1.391 . S
C2017 C2021 1.376 . S
C2018 C2016 1.394 . S
C2018 C2019 1.369 . S
C2018 C2022 1.531 . S
C2019 C2018 1.369 . S
C2019 C2020 1.410 . S
C2019 C2027 1.503 . S
C2020 C2019 1.410 . S
C2020 C2021 1.392 . S
C2020 C2023 1.511 . S
C2021 C2017 1.376 . S
C2021 C2020 1.392 . S
C2021 H2033 0.929 . S
C2022 C2018 1.531 . S
C2022 H2034 0.960 . S
C2022 H2035 0.962 . S
C2022 H2036 0.960 . S
C2023 C2020 1.511 . S
C2023 H2037 0.961 . S
C2023 H2038 0.961 . S
C2023 H2039 0.961 . S
C2024 C2025 1.370 . S
C2024 C2026 1.363 . S
C2024 H2040 0.931 . S
C2025 C2024 1.370 . S
C2025 C2029 1.408 . S
C2026 C2024 1.363 . S
C2026 C2027 1.370 . S
C2026 C2030 1.524 . S
C2027 C2019 1.503 . S
C2027 C2026 1.370 . S
C2027 C2028 1.403 . S
C2028 C2027 1.403 . S
C2028 C2029 1.404 . S
C2028 C2031 1.539 . S
C2029 C2025 1.408 . S
C2029 C2028 1.404 . S
C2029 H2041 0.930 . S
C2030 C2026 1.524 . S
C2030 H2042 0.956 . S
C2030 H2043 0.961 . S
C2030 H2044 0.961 . S
C2031 C2028 1.539 . S
C2031 H2045 0.958 . S
C2031 H2046 0.961 . S
C2031 H2047 0.960 . S
H2032 C2016 0.931 . S
H2033 C2021 0.929 . S
H2034 C2022 0.960 . S
H2035 C2022 0.962 . S
H2036 C2022 0.960 . S
H2037 C2023 0.961 . S
H2038 C2023 0.961 . S
H2039 C2023 0.961 . S
H2040 C2024 0.931 . S
H2041 C2029 0.930 . S
H2042 C2030 0.956 . S
H2043 C2030 0.961 . S
H2044 C2030 0.961 . S
H2045 C2031 0.958 . S
H2046 C2031 0.961 . S
H2047 C2031 0.960 . S
C2048 C2049 1.391 . S
C2048 C2050 1.394 . S
C2048 H2064 0.931 . S
C2049 C2048 1.391 . S
C2049 C2053 1.376 . S
C2050 C2048 1.394 . S
C2050 C2051 1.369 . S
C2050 C2054 1.531 . S
C2051 C2050 1.369 . S
C2051 C2052 1.410 . S
C2051 C2059 1.503 . S
C2052 C2051 1.410 . S
C2052 C2053 1.392 . S
C2052 C2055 1.511 . S
C2053 C2049 1.376 . S
C2053 C2052 1.392 . S
C2053 H2065 0.929 . S
C2054 C2050 1.531 . S
C2054 H2066 0.960 . S
C2054 H2067 0.962 . S
C2054 H2068 0.960 . S
C2055 C2052 1.511 . S
C2055 H2069 0.961 . S
C2055 H2070 0.961 . S
C2055 H2071 0.961 . S
C2056 C2057 1.370 . S
C2056 C2058 1.363 . S
C2056 H2072 0.931 . S
C2057 C2056 1.370 . S
C2057 C2061 1.408 . S
C2058 C2056 1.363 . S
C2058 C2059 1.370 . S
C2058 C2062 1.524 . S
C2059 C2051 1.503 . S
C2059 C2058 1.370 . S
C2059 C2060 1.403 . S
C2060 C2059 1.403 . S
C2060 C2061 1.404 . S
C2060 C2063 1.539 . S
C2061 C2057 1.408 . S
C2061 C2060 1.404 . S
C2061 H2073 0.930 . S
C2062 C2058 1.524 . S
C2062 H2074 0.956 . S
C2062 H2075 0.961 . S
C2062 H2076 0.961 . S
C2063 C2060 1.539 . S
C2063 H2077 0.958 . S
C2063 H2078 0.961 . S
C2063 H2079 0.960 . S
H2064 C2048 0.931 . S
H2065 C2053 0.929 . S
H2066 C2054 0.960 . S
H2067 C2054 0.962 . S
H2068 C2054 0.960 . S
H2069 C2055 0.961 . S
H2070 C2055 0.961 . S
H2071 C2055 0.961 . S
H2072 C2056 0.931 . S
H2073 C2061 0.930 . S
H2074 C2062 0.956 . S
H2075 C2062 0.961 . S
H2076 C2062 0.961 . S
H2077 C2063 0.958 . S
H2078 C2063 0.961 . S
H2079 C2063 0.960 . S
C2080 C2081 1.391 . S
C2080 C2082 1.394 . S
C2080 H2096 0.931 . S
C2081 C2080 1.391 . S
C2081 C2085 1.376 . S
C2082 C2080 1.394 . S
C2082 C2083 1.369 . S
C2082 C2086 1.531 . S
C2083 C2082 1.369 . S
C2083 C2084 1.410 . S
C2083 C2091 1.503 . S
C2084 C2083 1.410 . S
C2084 C2085 1.392 . S
C2084 C2087 1.511 . S
C2085 C2081 1.376 . S
C2085 C2084 1.392 . S
C2085 H2097 0.929 . S
C2086 C2082 1.531 . S
C2086 H2098 0.960 . S
C2086 H2099 0.962 . S
C2086 H2100 0.960 . S
C2087 C2084 1.511 . S
C2087 H2101 0.961 . S
C2087 H2102 0.961 . S
C2087 H2103 0.961 . S
C2088 C2089 1.370 . S
C2088 C2090 1.363 . S
C2088 H2104 0.931 . S
C2089 C2088 1.370 . S
C2089 C2093 1.408 . S
C2090 C2088 1.363 . S
C2090 C2091 1.370 . S
C2090 C2094 1.524 . S
C2091 C2083 1.503 . S
C2091 C2090 1.370 . S
C2091 C2092 1.403 . S
C2092 C2091 1.403 . S
C2092 C2093 1.404 . S
C2092 C2095 1.539 . S
C2093 C2089 1.408 . S
C2093 C2092 1.404 . S
C2093 H2105 0.930 . S
C2094 C2090 1.524 . S
C2094 H2106 0.956 . S
C2094 H2107 0.961 . S
C2094 H2108 0.961 . S
C2095 C2092 1.539 . S
C2095 H2109 0.958 . S
C2095 H2110 0.961 . S
C2095 H2111 0.960 . S
H2096 C2080 0.931 . S
H2097 C2085 0.929 . S
H2098 C2086 0.960 . S
H2099 C2086 0.962 . S
H2100 C2086 0.960 . S
H2101 C2087 0.961 . S
H2102 C2087 0.961 . S
H2103 C2087 0.961 . S
H2104 C2088 0.931 . S
H2105 C2093 0.930 . S
H2106 C2094 0.956 . S
H2107 C2094 0.961 . S
H2108 C2094 0.961 . S
H2109 C2095 0.958 . S
H2110 C2095 0.961 . S
H2111 C2095 0.960 . S
C2112 C2113 1.391 . S
C2112 C2114 1.394 . S
C2112 H2128 0.931 . S
C2113 C2112 1.391 . S
C2113 C2117 1.376 . S
C2114 C2112 1.394 . S
C2114 C2115 1.369 . S
C2114 C2118 1.531 . S
C2115 C2114 1.369 . S
C2115 C2116 1.410 . S
C2115 C2123 1.503 . S
C2116 C2115 1.410 . S
C2116 C2117 1.392 . S
C2116 C2119 1.511 . S
C2117 C2113 1.376 . S
C2117 C2116 1.392 . S
C2117 H2129 0.929 . S
C2118 C2114 1.531 . S
C2118 H2130 0.960 . S
C2118 H2131 0.962 . S
C2118 H2132 0.960 . S
C2119 C2116 1.511 . S
C2119 H2133 0.961 . S
C2119 H2134 0.961 . S
C2119 H2135 0.961 . S
C2120 C2121 1.370 . S
C2120 C2122 1.363 . S
C2120 H2136 0.931 . S
C2121 C2120 1.370 . S
C2121 C2125 1.408 . S
C2122 C2120 1.363 . S
C2122 C2123 1.370 . S
C2122 C2126 1.524 . S
C2123 C2115 1.503 . S
C2123 C2122 1.370 . S
C2123 C2124 1.403 . S
C2124 C2123 1.403 . S
C2124 C2125 1.404 . S
C2124 C2127 1.539 . S
C2125 C2121 1.408 . S
C2125 C2124 1.404 . S
C2125 H2137 0.930 . S
C2126 C2122 1.524 . S
C2126 H2138 0.956 . S
C2126 H2139 0.961 . S
C2126 H2140 0.961 . S
C2127 C2124 1.539 . S
C2127 H2141 0.958 . S
C2127 H2142 0.961 . S
C2127 H2143 0.960 . S
H2128 C2112 0.931 . S
H2129 C2117 0.929 . S
H2130 C2118 0.960 . S
H2131 C2118 0.962 . S
H2132 C2118 0.960 . S
H2133 C2119 0.961 . S
H2134 C2119 0.961 . S
H2135 C2119 0.961 . S
H2136 C2120 0.931 . S
H2137 C2125 0.930 . S
H2138 C2126 0.956 . S
H2139 C2126 0.961 . S
H2140 C2126 0.961 . S
H2141 C2127 0.958 . S
H2142 C2127 0.961 . S
H2143 C2127 0.960 . S
C2144 C2145 1.391 . S
C2144 C2146 1.394 . S
C2144 H2160 0.931 . S
C2145 C2144 1.391 . S
C2145 C2149 1.376 . S
C2146 C2144 1.394 . S
C2146 C2147 1.369 . S
C2146 C2150 1.531 . S
C2147 C2146 1.369 . S
C2147 C2148 1.410 . S
C2147 C2155 1.503 . S
C2148 C2147 1.410 . S
C2148 C2149 1.392 . S
C2148 C2151 1.511 . S
C2149 C2145 1.376 . S
C2149 C2148 1.392 . S
C2149 H2161 0.929 . S
C2150 C2146 1.531 . S
C2150 H2162 0.960 . S
C2150 H2163 0.962 . S
C2150 H2164 0.960 . S
C2151 C2148 1.511 . S
C2151 H2165 0.961 . S
C2151 H2166 0.961 . S
C2151 H2167 0.961 . S
C2152 C2153 1.370 . S
C2152 C2154 1.363 . S
C2152 H2168 0.931 . S
C2153 C2152 1.370 . S
C2153 C2157 1.408 . S
C2154 C2152 1.363 . S
C2154 C2155 1.370 . S
C2154 C2158 1.524 . S
C2155 C2147 1.503 . S
C2155 C2154 1.370 . S
C2155 C2156 1.403 . S
C2156 C2155 1.403 . S
C2156 C2157 1.404 . S
C2156 C2159 1.539 . S
C2157 C2153 1.408 . S
C2157 C2156 1.404 . S
C2157 H2169 0.930 . S
C2158 C2154 1.524 . S
C2158 H2170 0.956 . S
C2158 H2171 0.961 . S
C2158 H2172 0.961 . S
C2159 C2156 1.539 . S
C2159 H2173 0.958 . S
C2159 H2174 0.961 . S
C2159 H2175 0.960 . S
H2160 C2144 0.931 . S
H2161 C2149 0.929 . S
H2162 C2150 0.960 . S
H2163 C2150 0.962 . S
H2164 C2150 0.960 . S
H2165 C2151 0.961 . S
H2166 C2151 0.961 . S
H2167 C2151 0.961 . S
H2168 C2152 0.931 . S
H2169 C2157 0.930 . S
H2170 C2158 0.956 . S
H2171 C2158 0.961 . S
H2172 C2158 0.961 . S
H2173 C2159 0.958 . S
H2174 C2159 0.961 . S
H2175 C2159 0.960 . S
C2176 C2177 1.391 . S
C2176 C2178 1.394 . S
C2176 H2192 0.931 . S
C2177 C2176 1.391 . S
C2177 C2181 1.376 . S
C2178 C2176 1.394 . S
C2178 C2179 1.369 . S
C2178 C2182 1.531 . S
C2179 C2178 1.369 . S
C2179 C2180 1.410 . S
C2179 C2187 1.503 . S
C2180 C2179 1.410 . S
C2180 C2181 1.392 . S
C2180 C2183 1.511 . S
C2181 C2177 1.376 . S
C2181 C2180 1.392 . S
C2181 H2193 0.929 . S
C2182 C2178 1.531 . S
C2182 H2194 0.960 . S
C2182 H2195 0.962 . S
C2182 H2196 0.960 . S
C2183 C2180 1.511 . S
C2183 H2197 0.961 . S
C2183 H2198 0.961 . S
C2183 H2199 0.961 . S
C2184 C2185 1.370 . S
C2184 C2186 1.363 . S
C2184 H2200 0.931 . S
C2185 C2184 1.370 . S
C2185 C2189 1.408 . S
C2186 C2184 1.363 . S
C2186 C2187 1.370 . S
C2186 C2190 1.524 . S
C2187 C2179 1.503 . S
C2187 C2186 1.370 . S
C2187 C2188 1.403 . S
C2188 C2187 1.403 . S
C2188 C2189 1.404 . S
C2188 C2191 1.539 . S
C2189 C2185 1.408 . S
C2189 C2188 1.404 . S
C2189 H2201 0.930 . S
C2190 C2186 1.524 . S
C2190 H2202 0.956 . S
C2190 H2203 0.961 . S
C2190 H2204 0.961 . S
C2191 C2188 1.539 . S
C2191 H2205 0.958 . S
C2191 H2206 0.961 . S
C2191 H2207 0.960 . S
H2192 C2176 0.931 . S
H2193 C2181 0.929 . S
H2194 C2182 0.960 . S
H2195 C2182 0.962 . S
H2196 C2182 0.960 . S
H2197 C2183 0.961 . S
H2198 C2183 0.961 . S
H2199 C2183 0.961 . S
H2200 C2184 0.931 . S
H2201 C2189 0.930 . S
H2202 C2190 0.956 . S
H2203 C2190 0.961 . S
H2204 C2190 0.961 . S
H2205 C2191 0.958 . S
H2206 C2191 0.961 . S
H2207 C2191 0.960 . S
C2208 C2209 1.391 . S
C2208 C2210 1.394 . S
C2208 H2224 0.931 . S
C2209 C2208 1.391 . S
C2209 C2213 1.376 . S
C2210 C2208 1.394 . S
C2210 C2211 1.369 . S
C2210 C2214 1.531 . S
C2211 C2210 1.369 . S
C2211 C2212 1.410 . S
C2211 C2219 1.503 . S
C2212 C2211 1.410 . S
C2212 C2213 1.392 . S
C2212 C2215 1.511 . S
C2213 C2209 1.376 . S
C2213 C2212 1.392 . S
C2213 H2225 0.929 . S
C2214 C2210 1.531 . S
C2214 H2226 0.960 . S
C2214 H2227 0.962 . S
C2214 H2228 0.960 . S
C2215 C2212 1.511 . S
C2215 H2229 0.961 . S
C2215 H2230 0.961 . S
C2215 H2231 0.961 . S
C2216 C2217 1.370 . S
C2216 C2218 1.363 . S
C2216 H2232 0.931 . S
C2217 C2216 1.370 . S
C2217 C2221 1.408 . S
C2218 C2216 1.363 . S
C2218 C2219 1.370 . S
C2218 C2222 1.524 . S
C2219 C2211 1.503 . S
C2219 C2218 1.370 . S
C2219 C2220 1.403 . S
C2220 C2219 1.403 . S
C2220 C2221 1.404 . S
C2220 C2223 1.539 . S
C2221 C2217 1.408 . S
C2221 C2220 1.404 . S
C2221 H2233 0.930 . S
C2222 C2218 1.524 . S
C2222 H2234 0.956 . S
C2222 H2235 0.961 . S
C2222 H2236 0.961 . S
C2223 C2220 1.539 . S
C2223 H2237 0.958 . S
C2223 H2238 0.961 . S
C2223 H2239 0.960 . S
H2224 C2208 0.931 . S
H2225 C2213 0.929 . S
H2226 C2214 0.960 . S
H2227 C2214 0.962 . S
H2228 C2214 0.960 . S
H2229 C2215 0.961 . S
H2230 C2215 0.961 . S
H2231 C2215 0.961 . S
H2232 C2216 0.931 . S
H2233 C2221 0.930 . S
H2234 C2222 0.956 . S
H2235 C2222 0.961 . S
H2236 C2222 0.961 . S
H2237 C2223 0.958 . S
H2238 C2223 0.961 . S
H2239 C2223 0.960 . S
C2240 C2241 1.391 . S
C2240 C2242 1.394 . S
C2240 H2256 0.931 . S
C2241 C2240 1.391 . S
C2241 C2245 1.376 . S
C2242 C2240 1.394 . S
C2242 C2243 1.369 . S
C2242 C2246 1.531 . S
C2243 C2242 1.369 . S
C2243 C2244 1.410 . S
C2243 C2251 1.503 . S
C2244 C2243 1.410 . S
C2244 C2245 1.392 . S
C2244 C2247 1.511 . S
C2245 C2241 1.376 . S
C2245 C2244 1.392 . S
C2245 H2257 0.929 . S
C2246 C2242 1.531 . S
C2246 H2258 0.960 . S
C2246 H2259 0.962 . S
C2246 H2260 0.960 . S
C2247 C2244 1.511 . S
C2247 H2261 0.961 . S
C2247 H2262 0.961 . S
C2247 H2263 0.961 . S
C2248 C2249 1.370 . S
C2248 C2250 1.363 . S
C2248 H2264 0.931 . S
C2249 C2248 1.370 . S
C2249 C2253 1.408 . S
C2250 C2248 1.363 . S
C2250 C2251 1.370 . S
C2250 C2254 1.524 . S
C2251 C2243 1.503 . S
C2251 C2250 1.370 . S
C2251 C2252 1.403 . S
C2252 C2251 1.403 . S
C2252 C2253 1.404 . S
C2252 C2255 1.539 . S
C2253 C2249 1.408 . S
C2253 C2252 1.404 . S
C2253 H2265 0.930 . S
C2254 C2250 1.524 . S
C2254 H2266 0.956 . S
C2254 H2267 0.961 . S
C2254 H2268 0.961 . S
C2255 C2252 1.539 . S
C2255 H2269 0.958 . S
C2255 H2270 0.961 . S
C2255 H2271 0.960 . S
H2256 C2240 0.931 . S
H2257 C2245 0.929 . S
H2258 C2246 0.960 . S
H2259 C2246 0.962 . S
H2260 C2246 0.960 . S
H2261 C2247 0.961 . S
H2262 C2247 0.961 . S
H2263 C2247 0.961 . S
H2264 C2248 0.931 . S
H2265 C2253 0.930 . S
H2266 C2254 0.956 . S
H2267 C2254 0.961 . S
H2268 C2254 0.961 . S
H2269 C2255 0.958 . S
H2270 C2255 0.961 . S
H2271 C2255 0.960 . S
C2272 C2273 1.391 . S
C2272 C2274 1.394 . S
C2272 H2288 0.931 . S
C2273 C2272 1.391 . S
C2273 C2277 1.376 . S
C2274 C2272 1.394 . S
C2274 C2275 1.369 . S
C2274 C2278 1.531 . S
C2275 C2274 1.369 . S
C2275 C2276 1.410 . S
C2275 C2283 1.503 . S
C2276 C2275 1.410 . S
C2276 C2277 1.392 . S
C2276 C2279 1.511 . S
C2277 C2273 1.376 . S
C2277 C2276 1.392 . S
C2277 H2289 0.929 . S
C2278 C2274 1.531 . S
C2278 H2290 0.960 . S
C2278 H2291 0.962 . S
C2278 H2292 0.960 . S
C2279 C2276 1.511 . S
C2279 H2293 0.961 . S
C2279 H2294 0.961 . S
C2279 H2295 0.961 . S
C2280 C2281 1.370 . S
C2280 C2282 1.363 . S
C2280 H2296 0.931 . S
C2281 C2280 1.370 . S
C2281 C2285 1.408 . S
C2282 C2280 1.363 . S
C2282 C2283 1.370 . S
C2282 C2286 1.524 . S
C2283 C2275 1.503 . S
C2283 C2282 1.370 . S
C2283 C2284 1.403 . S
C2284 C2283 1.403 . S
C2284 C2285 1.404 . S
C2284 C2287 1.539 . S
C2285 C2281 1.408 . S
C2285 C2284 1.404 . S
C2285 H2297 0.930 . S
C2286 C2282 1.524 . S
C2286 H2298 0.956 . S
C2286 H2299 0.961 . S
C2286 H2300 0.961 . S
C2287 C2284 1.539 . S
C2287 H2301 0.958 . S
C2287 H2302 0.961 . S
C2287 H2303 0.960 . S
H2288 C2272 0.931 . S
H2289 C2277 0.929 . S
H2290 C2278 0.960 . S
H2291 C2278 0.962 . S
H2292 C2278 0.960 . S
H2293 C2279 0.961 . S
H2294 C2279 0.961 . S
H2295 C2279 0.961 . S
H2296 C2280 0.931 . S
H2297 C2285 0.930 . S
H2298 C2286 0.956 . S
H2299 C2286 0.961 . S
H2300 C2286 0.961 . S
H2301 C2287 0.958 . S
H2302 C2287 0.961 . S
H2303 C2287 0.960 . S
C577 C162 1.653 . S
C585 C225 1.655 . S
C609 C174 1.772 . S
C617 C265 1.780 . S
C641 C150 1.610 . S
C649 C304 1.552 . S
C673 C138 1.462 . S
C681 C264 1.440 1_556 S
C713 C305 1.502 . S
C705 C114 1.497 . S
C737 C126 1.341 . S
C745 C224 1.342 1_556 S
C777 C235 1.617 . S
C769 C136 1.641 . S
C809 C275 1.635 . S
C801 C112 1.629 . S
C833 C124 1.609 . S
C841 C314 1.679 . S
C865 C160 1.516 . S
C873 C274 1.492 . S
C897 C172 1.430 . S
C905 C315 1.443 . S
C937 C234 1.469 . S
C929 C148 1.462 . S
C969 C345 1.650 . S
C961 C18 1.667 . S
C993 C30 1.774 . S
C1001 C385 1.780 . S
C1025 C6 1.608 . S
C1033 C424 1.562 . S
C1057 C210 1.461 . S
C1065 C384 1.443 . S
C1089 C186 1.499 . S
C1097 C425 1.494 . S
C1121 C198 1.354 . S
C1129 C344 1.351 . S
C1153 C208 1.649 . S
C1161 C355 1.627 . S
C1185 C184 1.642 . S
C1193 C395 1.629 . S
C1225 C434 1.656 . S
C1217 C196 1.658 . S
C1249 C16 1.519 . S
C1257 C394 1.496 . S
C1289 C435 1.437 . S
C1281 C28 1.434 . S
C1313 C4 1.468 . S
C1321 C354 1.468 . S
C1353 C465 1.651 . S
C1345 C90 1.665 . S
C1377 C102 1.783 . S
C1385 C505 1.771 . S
C1417 C544 1.552 . S
C1409 C78 1.610 . S
C1449 C504 1.443 . S
C1441 C66 1.461 . S
C1481 C545 1.496 . S
C1473 C42 1.499 . S
C1505 C54 1.345 . S
C1513 C464 1.349 . S
C1537 C64 1.630 . S
C1545 C475 1.620 . S
C1569 C40 1.622 . S
C1577 C515 1.645 . S
C1609 C554 1.675 . S
C1601 C52 1.619 . S
C1633 C88 1.478 . S
C1641 C514 1.513 . S
C1665 C100 1.432 . S
C1673 C555 1.446 . S
C1697 C76 1.421 . S
C1705 C474 1.486 . S
C1729 C189 1.511 . S
C1737 C221 1.493 . S
C1769 C261 1.933 . S
C1761 C201 1.930 . S
C1793 C213 1.550 . S
C1801 C311 1.582 . S
C1825 C81 1.782 . S
C1833 C271 1.785 . S
C1857 C93 1.685 . S
C1865 C301 1.684 . S
C1897 C231 1.329 . S
C1889 C105 1.301 . S
C1921 C45 1.494 . S
C1929 C341 1.504 . S
C1953 C57 1.929 . S
C1961 C381 1.934 . S
C1985 C69 1.545 . S
C1993 C431 1.583 . S
C2017 C153 1.762 . S
C2025 C391 1.786 . S
C2057 C421 1.682 . S
C2049 C165 1.692 . S
C2081 C177 1.315 . S
C2089 C351 1.326 . S
C2113 C117 1.512 . S
C2121 C461 1.493 . S
C2145 C129 1.932 . S
C2153 C501 1.933 . S
C2185 C551 1.577 . S
C2177 C141 1.572 . S
C2209 C9 1.759 . S
C2217 C511 1.787 . S
C2241 C21 1.675 . S
C2249 C541 1.689 . S
C2273 C33 1.306 . S
C2281 C471 1.327 . S
