# Generated by pormake.
# Topology rtl, (3,6)-cn, num edge types: 1
# Building blocks:
#     Node 0, Type 0, BuildingBlock: ESEHIV_clean_linker_0, # of connection points: 3
#     Node 1, Type 0, BuildingBlock: ESEHIV_clean_linker_0, # of connection points: 3
#     Node 2, Type 0, BuildingBlock: ESEHIV_clean_linker_0, # of connection points: 3
#     Node 3, Type 0, BuildingBlock: ESEHIV_clean_linker_0, # of connection points: 3
#     Node 4, Type 1, BuildingBlock: KUMBUR_clean_sbu_1, # of connection points: 6
#     Node 5, Type 1, BuildingBlock: KUMBUR_clean_sbu_1, # of connection points: 6
#     Edge 6, Type (0, 1), BuildingBlock: MIFKUJ_clean_linker_0, # of connection points: 2
#     Edge 7, Type (0, 1), BuildingBlock: MIFKUJ_clean_linker_0, # of connection points: 2
#     Edge 8, Type (0, 1), BuildingBlock: MIFKUJ_clean_linker_0, # of connection points: 2
#     Edge 9, Type (0, 1), BuildingBlock: MIFKUJ_clean_linker_0, # of connection points: 2
#     Edge 10, Type (0, 1), BuildingBlock: MIFKUJ_clean_linker_0, # of connection points: 2
#     Edge 11, Type (0, 1), BuildingBlock: MIFKUJ_clean_linker_0, # of connection points: 2
#     Edge 12, Type (0, 1), BuildingBlock: MIFKUJ_clean_linker_0, # of connection points: 2
#     Edge 13, Type (0, 1), BuildingBlock: MIFKUJ_clean_linker_0, # of connection points: 2
#     Edge 14, Type (0, 1), BuildingBlock: MIFKUJ_clean_linker_0, # of connection points: 2
#     Edge 15, Type (0, 1), BuildingBlock: MIFKUJ_clean_linker_0, # of connection points: 2
#     Edge 16, Type (0, 1), BuildingBlock: MIFKUJ_clean_linker_0, # of connection points: 2
#     Edge 17, Type (0, 1), BuildingBlock: MIFKUJ_clean_linker_0, # of connection points: 2
# Relax obj value: 0.017
# Max RMSD: 0.098
# Mean RMSD: 0.059
data_MOF--net-rtl--node1-KUMBUR_clean_sbu_1--node2-ESEHIV_clean_linker_0--edge1-MIFKUJ_clean_linker_0
_symmetry_space_group_name_H-M    P1
_symmetry_Int_Tables_number       1
_symmetry_cell_setting            triclinic
loop_
_symmetry_equiv_pos_as_xyz
'x, y, z'
_cell_length_a     40.31411
_cell_length_b     40.898898
_cell_length_c     35.474683
_cell_angle_alpha  80.269613
_cell_angle_beta   99.462814
_cell_angle_gamma 90.714389
loop_
_atom_site_label
_atom_site_type_symbol
_atom_site_fract_x
_atom_site_fract_y
_atom_site_fract_z
_atom_type_partial_charge
H0 H 0.16579 0.88201 0.01978 0.0
H1 H 0.24224 0.81516 0.09016 0.0
H2 H 0.23043 0.8292 0.9656 0.0
C3 C 0.18655 0.86473 0.02244 0.0
C4 C 0.19717 0.85807 0.98876 0.0
C5 C 0.2026 0.84928 0.05934 0.0
C6 C 0.22919 0.82655 0.06191 0.0
C7 C 0.23957 0.81902 0.0283 0.0
C8 C 0.22339 0.83514 0.99189 0.0
H9 H 0.64055 0.64544 0.61394 0.0
H10 H 0.70382 0.70555 0.54478 0.0
H11 H 0.70638 0.71603 0.66397 0.0
C12 C 0.6592 0.66463 0.61116 0.0
C13 C 0.67172 0.67987 0.64321 0.0
C14 C 0.67063 0.67372 0.57558 0.0
C15 C 0.69496 0.69844 0.5722 0.0
C16 C 0.70823 0.71378 0.60395 0.0
C17 C 0.69633 0.70439 0.63934 0.0
H18 H 0.84215 0.11915 0.06132 0.0
H19 H 0.78259 0.18347 0.10784 0.0
H20 H 0.77397 0.19053 0.98415 0.0
C21 C 0.82338 0.13881 0.05649 0.0
C22 C 0.80974 0.15383 0.01849 0.0
C23 C 0.81387 0.1497 0.08858 0.0
C24 C 0.78949 0.1749 0.08284 0.0
C25 C 0.77429 0.18928 0.04525 0.0
C26 C 0.78485 0.17884 0.01319 0.0
H27 H 0.35866 0.36988 0.44796 0.0
H28 H 0.2984 0.29954 0.51043 0.0
H29 H 0.29932 0.29957 0.38933 0.0
C30 C 0.34132 0.34939 0.44863 0.0
C31 C 0.33062 0.33615 0.41469 0.0
C32 C 0.32985 0.33636 0.48336 0.0
C33 C 0.30732 0.30988 0.48376 0.0
C34 C 0.29609 0.29661 0.44998 0.0
C35 C 0.30786 0.30979 0.41547 0.0
Tb36 Tb 0.03808 0.96777 0.52381 0.0
C37 C 0.95822 0.09678 0.48397 0.0
N38 N 0.98351 0.0888 0.5145 0.0
C39 C 0.0088 0.14153 0.49736 0.0
C40 C 0.9583 0.12661 0.45747 0.0
C41 C 0.00725 0.11178 0.52307 0.0
C42 C 0.98465 0.14864 0.4639 0.0
C43 C 0.90312 0.08409 0.45123 0.0
C44 C 0.93091 0.07607 0.48102 0.0
C45 C 0.90396 0.11272 0.42326 0.0
C46 C 0.9315 0.13398 0.4264 0.0
Tb47 Tb 0.97994 0.03765 0.55169 0.0
N48 N 0.93129 0.04837 0.50822 0.0
C49 C 0.87514 0.06343 0.45103 0.0
C50 C 0.90321 0.02943 0.50989 0.0
C51 C 0.87495 0.03633 0.48091 0.0
H52 H 0.02513 0.10723 0.5497 0.0
H53 H 0.8531 0.02074 0.48158 0.0
H54 H 0.01017 0.89829 0.56838 0.0
H55 H 0.16215 0.02179 0.54049 0.0
H56 H 0.90313 0.00841 0.53286 0.0
H57 H 0.85327 0.06867 0.42857 0.0
H58 H 0.1067 0.01124 0.50439 0.0
H59 H 0.02838 0.15911 0.50363 0.0
H60 H 0.8831 0.11907 0.3997 0.0
H61 H 0.93137 0.15651 0.40533 0.0
H62 H 0.02801 0.85756 0.6282 0.0
H63 H 0.98572 0.17183 0.44421 0.0
H64 H 0.18248 0.98837 0.6048 0.0
N65 N 0.05413 0.92719 0.57626 0.0
C66 C 0.08494 0.92987 0.59739 0.0
C67 C 0.04421 0.87791 0.61997 0.0
C68 C 0.09611 0.90758 0.63188 0.0
C69 C 0.03417 0.90094 0.58613 0.0
C70 C 0.07514 0.8815 0.64327 0.0
N71 N 0.09311 0.9756 0.55033 0.0
C72 C 0.11421 0.99772 0.53336 0.0
C73 C 0.13723 0.95935 0.60513 0.0
C74 C 0.10494 0.95541 0.58429 0.0
C75 C 0.15759 0.98427 0.58961 0.0
C76 C 0.14621 0.00316 0.55326 0.0
H77 H 0.08272 0.86384 0.66965 0.0
H78 H 0.13661 0.89557 0.68061 0.0
H79 H 0.1728 0.94091 0.65704 0.0
O80 O 0.0696 0.94906 0.48995 0.0
O81 O 0.0271 0.96903 0.58205 0.0
O82 O 0.02801 0.02325 0.58912 0.0
O83 O 0.02062 0.92935 0.49369 0.0
O84 O 0.04807 0.0203 0.503 0.0
O85 O 0.03334 0.0488 0.54915 0.0
O86 O 0.96262 0.02586 0.60527 0.0
O87 O 0.96592 0.01502 0.49973 0.0
O88 O 0.01437 0.00642 0.47705 0.0
O89 O 0.95891 0.07555 0.57388 0.0
O90 O 0.96339 0.98594 0.56537 0.0
O91 O 0.98528 0.95403 0.52574 0.0
C92 C 0.03692 0.99222 0.60242 0.0
C93 C 0.03724 0.93678 0.43231 0.0
C94 C 0.05182 0.93492 0.36844 0.0
C95 C 0.02071 0.95024 0.35113 0.0
C96 C 0.00635 0.95216 0.41413 0.0
C97 C 0.99822 0.95879 0.37387 0.0
C98 C 0.05989 0.92802 0.40926 0.0
C99 C 0.05061 0.04599 0.5213 0.0
C100 C 0.04594 0.93091 0.47511 0.0
C101 C 0.12771 0.91211 0.65368 0.0
C102 C 0.14825 0.93799 0.64031 0.0
C103 C 0.98319 0.01727 0.47137 0.0
C104 C 0.9712 0.06936 0.64134 0.0
C105 C 0.9663 0.08568 0.70329 0.0
C106 C 0.99956 0.09708 0.70598 0.0
C107 C 0.00463 0.08003 0.64516 0.0
C108 C 0.95218 0.07196 0.67052 0.0
C109 C 0.01865 0.09389 0.67733 0.0
C110 C 0.96387 0.95909 0.54897 0.0
C111 C 0.95588 0.05664 0.60631 0.0
H112 H 0.01359 0.95533 0.31988 0.0
H113 H 0.98835 0.95905 0.43102 0.0
H114 H 0.97432 0.97053 0.36027 0.0
H115 H 0.08385 0.91641 0.42302 0.0
H116 H 0.01082 0.10869 0.73019 0.0
H117 H 0.01967 0.07815 0.62295 0.0
H118 H 0.92654 0.06322 0.66769 0.0
H119 H 0.0443 0.10249 0.67992 0.0
Tb120 Tb 0.46812 0.49087 0.98674 0.0
C121 C 0.6109 0.5269 0.04964 0.0
N122 N 0.59248 0.50141 0.06468 0.0
C123 C 0.63946 0.46415 0.07121 0.0
C124 C 0.64382 0.52174 0.04303 0.0
C125 C 0.6072 0.4708 0.07803 0.0
C126 C 0.65762 0.4896 0.05289 0.0
C127 C 0.61663 0.58629 0.03121 0.0
C128 C 0.59762 0.55867 0.04374 0.0
C129 C 0.64878 0.58122 0.02263 0.0
C130 C 0.66232 0.54897 0.02841 0.0
Tb131 Tb 0.53898 0.51512 0.07146 0.0
N132 N 0.56617 0.56248 0.05149 0.0
C133 C 0.60298 0.61809 0.02856 0.0
C134 C 0.55343 0.59336 0.05115 0.0
C135 C 0.57146 0.62164 0.03918 0.0
H136 H 0.59436 0.45144 0.09439 0.0
H137 H 0.56102 0.6461 0.03803 0.0
H138 H 0.40491 0.53938 0.99166 0.0
H139 H 0.4795 0.35704 1.00095 0.0
H140 H 0.5291 0.59605 0.05942 0.0
H141 H 0.61682 0.64001 0.01914 0.0
H142 H 0.49632 0.41434 0.98205 0.0
H143 H 0.65052 0.43956 0.08073 0.0
H144 H 0.66368 0.60208 0.01243 0.0
H145 H 0.68752 0.54548 0.02273 0.0
H146 H 0.34825 0.53286 0.00975 0.0
H147 H 0.68279 0.48453 0.04818 0.0
H148 H 0.42576 0.34529 0.02498 0.0
N149 N 0.41613 0.48763 1.00392 0.0
C150 C 0.40425 0.45658 0.01301 0.0
C151 C 0.36382 0.51122 0.01097 0.0
C152 C 0.37172 0.45164 0.02227 0.0
C153 C 0.39608 0.51487 1.00129 0.0
C154 C 0.35162 0.47946 0.02169 0.0
N155 N 0.45537 0.43578 1.00128 0.0
C156 C 0.47414 0.41004 0.99535 0.0
C157 C 0.41315 0.39717 0.02119 0.0
C158 C 0.4248 0.42979 0.01242 0.0
C159 C 0.43372 0.37073 0.01837 0.0
C160 C 0.46414 0.37725 1.00493 0.0
H161 H 0.3265 0.47668 0.02882 0.0
H162 H 0.33476 0.41502 0.03682 0.0
H163 H 0.37137 0.36717 0.03732 0.0
O164 O 0.44753 0.47114 0.937 0.0
O165 O 0.45766 0.48912 0.04611 0.0
O166 O 0.50763 0.47184 0.08469 0.0
O167 O 0.44704 0.52364 0.93645 0.0
O168 O 0.51743 0.46555 0.99652 0.0
O169 O 0.5374 0.46315 0.06203 0.0
O170 O 0.52486 0.53532 0.11731 0.0
O171 O 0.53439 0.54254 0.01155 0.0
O172 O 0.51813 0.50359 0.97305 0.0
O173 O 0.57258 0.51073 0.12429 0.0
O174 O 0.49062 0.54185 0.06018 0.0
O175 O 0.46894 0.54297 0.99489 0.0
C176 C 0.47458 0.47201 0.07793 0.0
C177 C 0.45425 0.50507 0.87843 0.0
C178 C 0.45361 0.48961 0.81458 0.0
C179 C 0.47978 0.51198 0.80858 0.0
C180 C 0.48023 0.52735 0.87158 0.0
C181 C 0.49302 0.5305 0.83695 0.0
C182 C 0.44098 0.48632 0.8498 0.0
C183 C 0.53678 0.45219 0.02905 0.0
C184 C 0.44155 0.50016 0.91568 0.0
C185 C 0.36008 0.41924 0.03095 0.0
C186 C 0.38086 0.39204 0.0309 0.0
C187 C 0.53504 0.5302 0.97981 0.0
C188 C 0.54766 0.5089 0.18016 0.0
C189 C 0.55293 0.51074 0.24937 0.0
C190 C 0.53823 0.47924 0.2548 0.0
C191 C 0.53349 0.47738 0.18621 0.0
C192 C 0.55738 0.52544 0.21171 0.0
C193 C 0.52864 0.46272 0.22337 0.0
C194 C 0.47154 0.55516 0.02742 0.0
C195 C 0.55214 0.52519 0.14119 0.0
H196 H 0.48983 0.51553 0.78171 0.0
H197 H 0.49079 0.54218 0.89302 0.0
H198 H 0.51336 0.54728 0.832 0.0
H199 H 0.42126 0.46877 0.85533 0.0
H200 H 0.53471 0.4671 0.28343 0.0
H201 H 0.52633 0.4642 0.16225 0.0
H202 H 0.56809 0.54994 0.20677 0.0
H203 H 0.51761 0.43839 0.22788 0.0
H204 H 0.23338 0.29613 0.40729 0.0
H205 H 0.19067 0.25302 0.4147 0.0
H206 H 0.2613 0.19266 0.50269 0.0
H207 H 0.30364 0.23603 0.49612 0.0
H208 H 0.22042 0.15834 0.44241 0.0
H209 H 0.21212 0.23157 0.53561 0.0
H210 H 0.20521 0.28649 0.55352 0.0
H211 H 0.10973 0.30003 0.47814 0.0
H212 H 0.11637 0.24538 0.4593 0.0
H213 H 0.08755 0.08376 0.56882 0.0
H214 H 0.12905 0.12558 0.55196 0.0
H215 H 0.10943 0.10914 0.43335 0.0
H216 H 0.06863 0.06665 0.45046 0.0
H217 H 0.1244 0.18272 0.50524 0.0
H218 H 0.17585 0.12633 0.39064 0.0
H219 H 0.18421 0.07219 0.37135 0.0
H220 H 0.19544 0.02465 0.49027 0.0
H221 H 0.18661 0.07855 0.5103 0.0
C222 C 0.23982 0.27342 0.42777 0.0
C223 C 0.27167 0.26926 0.45116 0.0
C224 C 0.21548 0.24893 0.43204 0.0
C225 C 0.2229 0.21973 0.45925 0.0
C226 C 0.25517 0.21498 0.48145 0.0
C227 C 0.27924 0.23972 0.47778 0.0
C228 C 0.19653 0.19494 0.46639 0.0
C229 C 0.19932 0.16364 0.45599 0.0
C230 C 0.16908 0.20193 0.48407 0.0
C231 C 0.16493 0.23459 0.49571 0.0
C232 C 0.18981 0.2464 0.52258 0.0
C233 C 0.18591 0.27745 0.53296 0.0
C234 C 0.15709 0.29678 0.51689 0.0
C235 C 0.13207 0.28505 0.49051 0.0
C236 C 0.13588 0.25405 0.47998 0.0
C237 C 0.09209 0.08916 0.53915 0.0
C238 C 0.07496 0.07197 0.51096 0.0
C239 C 0.11581 0.11303 0.52951 0.0
C240 C 0.12282 0.12028 0.49147 0.0
C241 C 0.10517 0.10351 0.46309 0.0
C242 C 0.08171 0.07936 0.47283 0.0
C243 C 0.1483 0.14565 0.4817 0.0
C244 C 0.14532 0.17728 0.49145 0.0
C245 C 0.17554 0.13894 0.46329 0.0
C246 C 0.18033 0.10636 0.45186 0.0
C247 C 0.18001 0.10429 0.41266 0.0
C248 C 0.18469 0.07367 0.40161 0.0
C249 C 0.19009 0.04499 0.42961 0.0
C250 C 0.19083 0.04688 0.46869 0.0
C251 C 0.18586 0.07742 0.47988 0.0
H252 H 0.19385 0.02131 0.42104 0.0
H253 H 0.15412 0.32081 0.52496 0.0
H254 H 0.25235 0.76068 0.08 0.0
H255 H 0.29463 0.71796 0.08129 0.0
H256 H 0.329 0.77627 0.98254 0.0
H257 H 0.28815 0.81995 0.98213 0.0
H258 H 0.31249 0.70665 0.97696 0.0
H259 H 0.37722 0.77421 0.06112 0.0
H260 H 0.38751 0.80321 0.11739 0.0
H261 H 0.38123 0.711 0.19419 0.0
H262 H 0.37039 0.68152 0.13829 0.0
H263 H 0.4524 0.60721 0.96911 0.0
H264 H 0.41559 0.65408 0.97025 0.0
H265 H 0.40384 0.61306 0.08768 0.0
H266 H 0.44216 0.56737 0.08727 0.0
H267 H 0.40858 0.67514 0.08347 0.0
H268 H 0.34269 0.60658 1.00369 0.0
H269 H 0.32938 0.57525 0.94959 0.0
H270 H 0.33314 0.66484 0.86768 0.0
H271 H 0.34687 0.69668 0.92125 0.0
C272 C 0.26935 0.76486 0.05905 0.0
C273 C 0.2666 0.79381 0.03081 0.0
C274 C 0.29331 0.74026 0.05968 0.0
C275 C 0.31472 0.74398 0.03188 0.0
C276 C 0.31246 0.77289 1.00402 0.0
C277 C 0.28892 0.79773 1.00374 0.0
C278 C 0.33894 0.7173 0.03121 0.0
C279 C 0.33379 0.69994 0.99994 0.0
C280 C 0.36596 0.70803 0.06186 0.0
C281 C 0.37264 0.72572 0.09549 0.0
C282 C 0.37772 0.76017 0.08998 0.0
C283 C 0.38372 0.77668 0.12181 0.0
C284 C 0.38493 0.75898 0.15934 0.0
C285 C 0.38024 0.7247 0.16511 0.0
C286 C 0.37419 0.70807 0.13336 0.0
C287 C 0.44202 0.60841 0.99515 0.0
C288 C 0.45002 0.5838 0.02808 0.0
C289 C 0.42082 0.63504 0.99575 0.0
C290 C 0.4063 0.63685 0.02881 0.0
C291 C 0.41468 0.61234 0.06184 0.0
C292 C 0.43655 0.58622 0.06159 0.0
C293 C 0.38229 0.66412 0.02909 0.0
C294 C 0.38736 0.68166 0.06035 0.0
C295 C 0.3547 0.67306 0.99878 0.0
C296 C 0.34611 0.65398 0.96651 0.0
C297 C 0.34087 0.61957 0.97415 0.0
C298 C 0.33325 0.60172 0.9436 0.0
C299 C 0.33053 0.61802 0.90527 0.0
C300 C 0.33531 0.65224 0.89739 0.0
C301 C 0.34297 0.67021 0.92783 0.0
H302 H 0.32464 0.60415 0.88166 0.0
H303 H 0.38959 0.77181 0.18395 0.0
H304 H 0.7623 0.71286 0.5664 0.0
H305 H 0.80517 0.75492 0.5586 0.0
H306 H 0.75848 0.81377 0.62607 0.0
H307 H 0.7145 0.77232 0.63262 0.0
H308 H 0.77599 0.85223 0.56414 0.0
H309 H 0.83102 0.7684 0.66485 0.0
H310 H 0.85044 0.71183 0.69589 0.0
H311 H 0.90882 0.70698 0.606 0.0
H312 H 0.88937 0.76338 0.57412 0.0
H313 H 0.91495 0.95927 0.59433 0.0
H314 H 0.87191 0.91781 0.60508 0.0
H315 H 0.91052 0.85998 0.53044 0.0
H316 H 0.95366 0.90132 0.5193 0.0
H317 H 0.89728 0.82167 0.59817 0.0
H318 H 0.84108 0.90548 0.49712 0.0
H319 H 0.82303 0.96279 0.46772 0.0
H320 H 0.76758 0.96808 0.56007 0.0
H321 H 0.78575 0.91093 0.59038 0.0
C322 C 0.76088 0.73488 0.57929 0.0
C323 C 0.73485 0.73918 0.60011 0.0
C324 C 0.78569 0.75877 0.57517 0.0
C325 C 0.78536 0.78735 0.59218 0.0
C326 C 0.75934 0.79186 0.61281 0.0
C327 C 0.73439 0.76799 0.61684 0.0
C328 C 0.81201 0.81258 0.58802 0.0
C329 C 0.80249 0.84561 0.57215 0.0
C330 C 0.84666 0.80391 0.59775 0.0
C331 C 0.85848 0.77001 0.61691 0.0
C332 C 0.84779 0.75518 0.65154 0.0
C333 C 0.85884 0.72316 0.66931 0.0
C334 C 0.88079 0.70579 0.65288 0.0
C335 C 0.89179 0.72045 0.61868 0.0
C336 C 0.88079 0.75245 0.60076 0.0
C337 C 0.91436 0.93781 0.58008 0.0
C338 C 0.93781 0.93379 0.5558 0.0
C339 C 0.88966 0.91412 0.58626 0.0
C340 C 0.88786 0.88594 0.56833 0.0
C341 C 0.91148 0.88156 0.54457 0.0
C342 C 0.93608 0.90531 0.53818 0.0
C343 C 0.8612 0.86111 0.57414 0.0
C344 C 0.87074 0.82822 0.5903 0.0
C345 C 0.82662 0.86992 0.56481 0.0
C346 C 0.81504 0.90403 0.54621 0.0
C347 C 0.82521 0.91893 0.5113 0.0
C348 C 0.81495 0.95139 0.49446 0.0
C349 C 0.79425 0.96911 0.51208 0.0
C350 C 0.78365 0.95434 0.54649 0.0
C351 C 0.7939 0.9219 0.56349 0.0
H352 H 0.78638 0.99425 0.49903 0.0
H353 H 0.88932 0.681 0.66668 0.0
H354 H 0.76587 0.24684 0.99174 0.0
H355 H 0.72381 0.29088 0.98515 0.0
H356 H 0.68229 0.23622 0.0812 0.0
H357 H 0.72309 0.19141 0.08668 0.0
H358 H 0.63335 0.26232 0.027 0.0
H359 H 0.73598 0.30232 0.09147 0.0
H360 H 0.79592 0.31708 0.10026 0.0
H361 H 0.77787 0.38859 0.99525 0.0
H362 H 0.71787 0.37391 0.98555 0.0
H363 H 0.55264 0.39722 0.08412 0.0
H364 H 0.59149 0.35177 0.08274 0.0
H365 H 0.61084 0.39973 0.9707 0.0
H366 H 0.57151 0.44483 0.97161 0.0
H367 H 0.67026 0.37818 0.03015 0.0
H368 H 0.5673 0.33666 0.96625 0.0
H369 H 0.50744 0.32162 0.95913 0.0
H370 H 0.52674 0.25388 0.06711 0.0
H371 H 0.58681 0.26847 0.07477 0.0
C372 C 0.74745 0.24393 0.01106 0.0
C373 C 0.74802 0.21566 0.03993 0.0
C374 C 0.72366 0.26933 0.00756 0.0
C375 C 0.70023 0.26715 0.03313 0.0
C376 C 0.7002 0.23858 0.06127 0.0
C377 C 0.72378 0.21311 0.06461 0.0
C378 C 0.67596 0.29471 0.031 0.0
C379 C 0.64155 0.28756 0.02809 0.0
C380 C 0.68646 0.32783 0.03177 0.0
C381 C 0.72251 0.33674 0.03756 0.0
C382 C 0.74484 0.321 0.07009 0.0
C383 C 0.77882 0.32938 0.07526 0.0
C384 C 0.79071 0.35368 0.04827 0.0
C385 C 0.76863 0.36972 0.0161 0.0
C386 C 0.73463 0.36139 0.01076 0.0
C387 C 0.56511 0.39787 0.05918 0.0
C388 C 0.55922 0.42435 0.02797 0.0
C389 C 0.58716 0.37199 0.05838 0.0
C390 C 0.60391 0.3725 0.02659 0.0
C391 C 0.59808 0.39897 0.99543 0.0
C392 C 0.57556 0.42453 0.9959 0.0
C393 C 0.62798 0.34559 0.02627 0.0
C394 C 0.66226 0.35291 0.02886 0.0
C395 C 0.61746 0.31261 0.0256 0.0
C396 C 0.58142 0.30387 0.02124 0.0
C397 C 0.55872 0.31872 0.98858 0.0
C398 C 0.5248 0.31016 0.98437 0.0
C399 C 0.51326 0.2869 0.01272 0.0
C400 C 0.53569 0.27194 0.0452 0.0
C401 C 0.5697 0.28023 0.04942 0.0
H402 H 0.48694 0.28044 0.00949 0.0
H403 H 0.81703 0.36015 0.05233 0.0
H404 H 0.18356 0.90961 0.07357 0.0
H405 H 0.16396 0.92177 0.13127 0.0
H406 H 0.17846 0.81897 0.18464 0.0
H407 H 0.19656 0.80626 0.12616 0.0
H408 H 0.12052 0.84089 0.1956 0.0
H409 H 0.23299 0.88022 0.21313 0.0
H410 H 0.28219 0.91165 0.19497 0.0
H411 H 0.2266 0.00307 0.18016 0.0
H412 H 0.17689 0.97216 0.19771 0.0
H413 H 0.08593 0.87611 0.37512 0.0
H414 H 0.11867 0.85949 0.32873 0.0
H415 H 0.10219 0.95658 0.25837 0.0
H416 H 0.07007 0.9734 0.30476 0.0
H417 H 0.16607 0.93353 0.2616 0.0
H418 H 0.05241 0.89329 0.23732 0.0
H419 H 0.00308 0.8619 0.25524 0.0
H420 H 0.06203 0.77171 0.2832 0.0
H421 H 0.11185 0.80269 0.26593 0.0
C422 C 0.18235 0.88948 0.09742 0.0
C423 C 0.19164 0.85692 0.0951 0.0
C424 C 0.17155 0.89658 0.13067 0.0
C425 C 0.17022 0.8714 0.16265 0.0
C426 C 0.17946 0.83887 0.16047 0.0
C427 C 0.19009 0.8317 0.1271 0.0
C428 C 0.15799 0.87888 0.19769 0.0
C429 C 0.13098 0.86072 0.21049 0.0
C430 C 0.1712 0.9051 0.21684 0.0
C431 C 0.20112 0.92383 0.20647 0.0
C432 C 0.23117 0.90701 0.20575 0.0
C433 C 0.25917 0.92474 0.1956 0.0
C434 C 0.2575 0.95933 0.18635 0.0
C435 C 0.22785 0.97628 0.18731 0.0
C436 C 0.19977 0.95866 0.19741 0.0
C437 C 0.0899 0.89407 0.35015 0.0
C438 C 0.07514 0.92593 0.34334 0.0
C439 C 0.10839 0.88449 0.32355 0.0
C440 C 0.11246 0.90666 0.2898 0.0
C441 C 0.09928 0.93903 0.28411 0.0
C442 C 0.08073 0.94853 0.31051 0.0
C443 C 0.12848 0.89579 0.25905 0.0
C444 C 0.15607 0.91338 0.24702 0.0
C445 C 0.11589 0.869 0.24063 0.0
C446 C 0.08592 0.85035 0.25077 0.0
C447 C 0.0549 0.8668 0.24757 0.0
C448 C 0.02685 0.84908 0.25757 0.0
C449 C 0.02944 0.81484 0.27047 0.0
C450 C 0.06007 0.79824 0.27328 0.0
C451 C 0.08822 0.81586 0.26338 0.0
H452 H 0.0077 0.80116 0.27819 0.0
H453 H 0.2792 0.97302 0.17849 0.0
H454 H 0.70839 0.66955 0.71681 0.0
H455 H 0.68825 0.64921 0.77783 0.0
H456 H 0.58737 0.64518 0.7155 0.0
H457 H 0.60703 0.66678 0.65471 0.0
H458 H 0.58572 0.66692 0.78133 0.0
H459 H 0.63894 0.57567 0.7429 0.0
H460 H 0.68556 0.54673 0.72444 0.0
H461 H 0.74697 0.55405 0.83363 0.0
H462 H 0.70082 0.58344 0.85251 0.0
H463 H 0.55637 0.50477 0.92159 0.0
H464 H 0.58205 0.53423 0.86828 0.0
H465 H 0.58195 0.62421 0.91675 0.0
H466 H 0.55345 0.59539 0.96814 0.0
H467 H 0.63696 0.56262 0.86047 0.0
H468 H 0.57731 0.69171 0.84742 0.0
H469 H 0.527 0.71749 0.86229 0.0
H470 H 0.47133 0.62878 0.8491 0.0
H471 H 0.52118 0.60287 0.83356 0.0
C472 C 0.68182 0.66492 0.71616 0.0
C473 C 0.65938 0.66952 0.68076 0.0
C474 C 0.67038 0.65299 0.75105 0.0
C475 C 0.63636 0.64518 0.75124 0.0
C476 C 0.61374 0.65091 0.71614 0.0
C477 C 0.6251 0.66293 0.68131 0.0
C478 C 0.62438 0.62961 0.78753 0.0
C479 C 0.59704 0.64421 0.79878 0.0
C480 C 0.63888 0.59981 0.81017 0.0
C481 C 0.66659 0.58207 0.79892 0.0
C482 C 0.66248 0.57132 0.76284 0.0
C483 C 0.6888 0.55481 0.75232 0.0
C484 C 0.71924 0.54865 0.7778 0.0
C485 C 0.7234 0.5589 0.81389 0.0
C486 C 0.69717 0.57548 0.82452 0.0
C487 C 0.56174 0.53087 0.92085 0.0
C488 C 0.55301 0.54773 0.94928 0.0
C489 C 0.57669 0.54768 0.89045 0.0
C490 C 0.58363 0.58167 0.88796 0.0
C491 C 0.57622 0.59822 0.91732 0.0
C492 C 0.5605 0.58155 0.94724 0.0
C493 C 0.59784 0.59958 0.8541 0.0
C494 C 0.62577 0.58552 0.84336 0.0
C495 C 0.58336 0.62947 0.83142 0.0
C496 C 0.55306 0.64517 0.83986 0.0
C497 C 0.55428 0.67779 0.84757 0.0
C498 C 0.52586 0.69244 0.85611 0.0
C499 C 0.49602 0.67474 0.85681 0.0
C500 C 0.49448 0.64244 0.84872 0.0
C501 C 0.5228 0.62775 0.84007 0.0
H502 H 0.47407 0.6861 0.86351 0.0
H503 H 0.73959 0.53585 0.76961 0.0
H504 H 0.81776 0.08494 0.12398 0.0
H505 H 0.84632 0.06231 0.18987 0.0
H506 H 0.87733 0.1607 0.2072 0.0
H507 H 0.84806 0.1835 0.14188 0.0
H508 H 0.92998 0.10292 0.22547 0.0
H509 H 0.82141 0.13888 0.24943 0.0
H510 H 0.7594 0.13961 0.23881 0.0
H511 H 0.75947 0.03385 0.27394 0.0
H512 H 0.82152 0.03245 0.28416 0.0
H513 H 1.00035 0.07139 0.42398 0.0
H514 H 0.97062 0.09527 0.35959 0.0
H515 H 0.90061 0.0143 0.36516 0.0
H516 H 0.92836 0.99275 0.43129 0.0
H517 H 0.86723 0.06351 0.33325 0.0
H518 H 0.97233 0.02364 0.30987 0.0
H519 H 0.03415 0.01831 0.31854 0.0
H520 H 0.04134 0.12277 0.27849 0.0
H521 H 0.97965 0.12891 0.27035 0.0
C522 C 0.83061 0.10163 0.14202 0.0
C523 C 0.8307 0.13589 0.12819 0.0
C524 C 0.84682 0.08876 0.17946 0.0
C525 C 0.86383 0.10993 0.20316 0.0
C526 C 0.86429 0.14408 0.18921 0.0
C527 C 0.8475 0.15703 0.15213 0.0
C528 C 0.88126 0.09645 0.24257 0.0
C529 C 0.91645 0.0945 0.24927 0.0
C530 C 0.86334 0.0846 0.27296 0.0
C531 C 0.82607 0.08553 0.26711 0.0
C532 C 0.8082 0.11575 0.2545 0.0
C533 C 0.77304 0.11629 0.24864 0.0
C534 C 0.7555 0.08679 0.25558 0.0
C535 C 0.77308 0.05668 0.26851 0.0
C536 C 0.80824 0.05601 0.27436 0.0
C537 C 0.97867 0.05879 0.41111 0.0
C538 C 0.96668 0.03017 0.43187 0.0
C539 C 0.96182 0.07222 0.37424 0.0
C540 C 0.93386 0.0561 0.35667 0.0
C541 C 0.92209 0.02727 0.37777 0.0
C542 C 0.93803 0.01476 0.41535 0.0
C543 C 0.91649 0.06947 0.31671 0.0
C544 C 0.88114 0.07156 0.30971 0.0
C545 C 0.93433 0.08054 0.2857 0.0
C546 C 0.97139 0.07676 0.28983 0.0
C547 C 0.98712 0.04549 0.30311 0.0
C548 C 0.02212 0.04232 0.30793 0.0
C549 C 0.04164 0.07015 0.29911 0.0
C550 C 0.02619 0.10123 0.28535 0.0
C551 C 0.99121 0.10458 0.28062 0.0
H552 H 0.06873 0.06762 0.30289 0.0
H553 H 0.72828 0.08726 0.25103 0.0
H554 H 0.39392 0.35238 0.51251 0.0
H555 H 0.41284 0.37555 0.57154 0.0
H556 H 0.311 0.37481 0.59447 0.0
H557 H 0.29182 0.35204 0.53514 0.0
H558 H 0.34279 0.43375 0.60351 0.0
H559 H 0.36554 0.31741 0.64599 0.0
H560 H 0.38899 0.26261 0.64336 0.0
H561 H 0.4888 0.30171 0.65656 0.0
H562 H 0.46589 0.35691 0.6587 0.0
H563 H 0.38764 0.4742 0.79165 0.0
H564 H 0.3648 0.4446 0.73897 0.0
H565 H 0.46481 0.43243 0.7144 0.0
H566 H 0.48796 0.46042 0.76818 0.0
H567 H 0.43103 0.37788 0.70801 0.0
H568 H 0.40931 0.49428 0.66091 0.0
H569 H 0.38706 0.55002 0.66167 0.0
H570 H 0.28689 0.51197 0.65515 0.0
H571 H 0.30863 0.45588 0.65487 0.0
C572 C 0.37554 0.35732 0.53002 0.0
C573 C 0.34139 0.35035 0.51923 0.0
C574 C 0.38642 0.3703 0.56389 0.0
C575 C 0.36337 0.37659 0.58758 0.0
C576 C 0.32921 0.37 0.57667 0.0
C577 C 0.31834 0.35681 0.54293 0.0
C578 C 0.3749 0.39053 0.62342 0.0
C579 C 0.36168 0.4213 0.62668 0.0
C580 C 0.40009 0.3746 0.6532 0.0
C581 C 0.41396 0.34137 0.65216 0.0
C582 C 0.39247 0.3144 0.64803 0.0
C583 C 0.40567 0.28325 0.64668 0.0
C584 C 0.44036 0.2787 0.6497 0.0
C585 C 0.46193 0.30528 0.65418 0.0
C586 C 0.44885 0.33649 0.65551 0.0
C587 C 0.40485 0.46474 0.77548 0.0
C588 C 0.43964 0.47004 0.78395 0.0
C589 C 0.3917 0.44812 0.74506 0.0
C590 C 0.41301 0.43683 0.72219 0.0
C591 C 0.44782 0.44109 0.73143 0.0
C592 C 0.46099 0.45745 0.76197 0.0
C593 C 0.39916 0.42134 0.68801 0.0
C594 C 0.41196 0.39026 0.68501 0.0
C595 C 0.37377 0.43712 0.65828 0.0
C596 C 0.36064 0.47083 0.6583 0.0
C597 C 0.38257 0.49776 0.65993 0.0
C598 C 0.37005 0.52942 0.66023 0.0
C599 C 0.33559 0.53451 0.65858 0.0
C600 C 0.31358 0.50797 0.65651 0.0
C601 C 0.32598 0.47625 0.65625 0.0
H602 H 0.32594 0.55904 0.65881 0.0
H603 H 0.45053 0.25457 0.64865 0.0
H604 H 0.65127 0.70214 0.49949 0.0
H605 H 0.63034 0.6743 0.44453 0.0
H606 H 0.63896 0.57982 0.5211 0.0
H607 H 0.66065 0.60739 0.57598 0.0
H608 H 0.6635 0.57605 0.45588 0.0
H609 H 0.56289 0.61735 0.4886 0.0
H610 H 0.52568 0.65993 0.50188 0.0
H611 H 0.52432 0.71434 0.38695 0.0
H612 H 0.56192 0.67228 0.37316 0.0
H613 H 0.51994 0.51562 0.30996 0.0
H614 H 0.53901 0.54296 0.36584 0.0
H615 H 0.62942 0.57303 0.32 0.0
H616 H 0.61095 0.54509 0.26462 0.0
H617 H 0.5537 0.60712 0.37176 0.0
H618 H 0.69434 0.56976 0.39574 0.0
H619 H 0.72993 0.52463 0.38509 0.0
H620 H 0.64776 0.45724 0.39196 0.0
H621 H 0.61186 0.50183 0.40319 0.0
C622 C 0.6489 0.67541 0.50457 0.0
C623 C 0.65753 0.65698 0.54213 0.0
C624 C 0.63669 0.65957 0.47319 0.0
C625 C 0.63279 0.625 0.47875 0.0
C626 C 0.64167 0.60652 0.51614 0.0
C627 C 0.6538 0.62234 0.54753 0.0
C628 C 0.61973 0.608 0.44559 0.0
C629 C 0.63952 0.5829 0.43747 0.0
C630 C 0.58823 0.6166 0.42184 0.0
C631 C 0.56547 0.64182 0.42998 0.0
C632 C 0.55486 0.63852 0.46626 0.0
C633 C 0.53366 0.66254 0.47386 0.0
C634 C 0.52271 0.68986 0.44531 0.0
C635 C 0.53286 0.69318 0.40905 0.0
C636 C 0.55409 0.66924 0.40132 0.0
C637 C 0.54399 0.52786 0.31192 0.0
C638 C 0.56398 0.52805 0.28289 0.0
C639 C 0.55471 0.54371 0.34369 0.0
C640 C 0.58575 0.55981 0.34726 0.0
C641 C 0.60553 0.56047 0.31806 0.0
C642 C 0.5948 0.54471 0.28625 0.0
C643 C 0.59769 0.5755 0.38179 0.0
C644 C 0.57772 0.60037 0.39012 0.0
C645 C 0.62883 0.56639 0.40608 0.0
C646 C 0.65034 0.53924 0.39991 0.0
C647 C 0.68392 0.54528 0.39513 0.0
C648 C 0.70414 0.51979 0.38897 0.0
C649 C 0.69108 0.48811 0.38772 0.0
C650 C 0.65781 0.48182 0.39278 0.0
C651 C 0.63751 0.5072 0.399 0.0
H652 H 0.70676 0.46843 0.38291 0.0
H653 H 0.5063 0.70844 0.45125 0.0
H654 H 0.77496 0.14901 0.94584 0.0
H655 H 0.79782 0.13644 0.89013 0.0
H656 H 0.89671 0.12331 0.95953 0.0
H657 H 0.87469 0.13822 0.01415 0.0
H658 H 0.90202 0.15763 0.89402 0.0
H659 H 0.84476 0.05669 0.93311 0.0
H660 H 0.79639 0.0226 0.94882 0.0
H661 H 0.74271 0.05527 0.83382 0.0
H662 H 0.79062 0.08989 0.81757 0.0
H663 H 0.98792 0.07365 0.78157 0.0
H664 H 0.95727 0.08332 0.83267 0.0
H665 H 0.86922 0.11339 0.74735 0.0
H666 H 0.89996 0.10433 0.69574 0.0
H667 H 0.85522 0.07246 0.81652 0.0
H668 H 0.91564 0.17168 0.7782 0.0
H669 H 0.96604 0.20299 0.76384 0.0
H670 H 0.01588 0.1702 0.88058 0.0
H671 H 0.96594 0.13828 0.89547 0.0
C672 C 0.80163 0.14375 0.94917 0.0
C673 C 0.82288 0.14453 0.98474 0.0
C674 C 0.8146 0.13609 0.91738 0.0
C675 C 0.84897 0.12845 0.92067 0.0
C676 C 0.8701 0.129 0.95618 0.0
C677 C 0.85731 0.13713 0.98768 0.0
C678 C 0.8635 0.12105 0.88703 0.0
C679 C 0.89192 0.1387 0.87746 0.0
C680 C 0.84992 0.09699 0.86457 0.0
C681 C 0.82112 0.07616 0.87427 0.0
C682 C 0.82254 0.0568 0.91127 0.0
C683 C 0.79523 0.03735 0.92026 0.0
C684 C 0.76646 0.03685 0.89238 0.0
C685 C 0.76499 0.05573 0.85541 0.0
C686 C 0.79222 0.07525 0.84629 0.0
C687 C 0.96205 0.08238 0.77358 0.0
C688 C 0.94655 0.08869 0.73449 0.0
C689 C 0.94452 0.08769 0.80286 0.0
C690 C 0.91113 0.09945 0.7937 0.0
C691 C 0.89499 0.10431 0.75496 0.0
C692 C 0.91258 0.09907 0.72555 0.0
C693 C 0.89398 0.10849 0.82446 0.0
C694 C 0.86509 0.09138 0.83321 0.0
C695 C 0.9073 0.13275 0.84657 0.0
C696 C 0.93714 0.1524 0.83785 0.0
C697 C 0.93742 0.17099 0.80074 0.0
C698 C 0.9659 0.18886 0.79251 0.0
C699 C 0.99417 0.18853 0.82126 0.0
C700 C 0.99397 0.17041 0.85833 0.0
C701 C 0.96558 0.15246 0.86669 0.0
H702 H 0.0162 0.20237 0.81483 0.0
H703 H 0.74534 0.02177 0.89939 0.0
H704 H 0.36294 0.30279 0.37062 0.0
H705 H 0.38696 0.32617 0.31261 0.0
H706 H 0.35112 0.42353 0.31935 0.0
H707 H 0.328 0.40046 0.37803 0.0
H708 H 0.33717 0.3893 0.24012 0.0
H709 H 0.41888 0.42753 0.34077 0.0
H710 H 0.45871 0.41864 0.40239 0.0
H711 H 0.51459 0.34805 0.35984 0.0
H712 H 0.47469 0.35614 0.29818 0.0
H713 H 0.41378 0.48926 0.09407 0.0
H714 H 0.38699 0.46481 0.14908 0.0
H715 H 0.46738 0.39181 0.18552 0.0
H716 H 0.49462 0.41692 0.13119 0.0
H717 H 0.45837 0.4141 0.24474 0.0
H718 H 0.37847 0.36709 0.15175 0.0
H719 H 0.33577 0.36372 0.09416 0.0
H720 H 0.27791 0.44163 0.12101 0.0
H721 H 0.31975 0.44458 0.17956 0.0
C722 C 0.36016 0.32915 0.35959 0.0
C723 C 0.34365 0.34988 0.37864 0.0
C724 C 0.37399 0.34246 0.3267 0.0
C725 C 0.37098 0.37656 0.31203 0.0
C726 C 0.35386 0.39719 0.33049 0.0
C727 C 0.34069 0.38402 0.36386 0.0
C728 C 0.38504 0.39047 0.27682 0.0
C729 C 0.36357 0.39525 0.24104 0.0
C730 C 0.41964 0.397 0.27808 0.0
C731 C 0.44351 0.39205 0.31514 0.0
C732 C 0.43938 0.40977 0.34477 0.0
C733 C 0.46204 0.40498 0.37964 0.0
C734 C 0.48909 0.38269 0.38509 0.0
C735 C 0.49358 0.36524 0.35562 0.0
C736 C 0.47095 0.36992 0.32071 0.0
C737 C 0.42542 0.46769 0.11354 0.0
C738 C 0.45647 0.45521 0.10865 0.0
C739 C 0.40998 0.45354 0.14492 0.0
C740 C 0.42494 0.42621 0.17162 0.0
C741 C 0.45533 0.41298 0.16567 0.0
C742 C 0.47092 0.42734 0.13459 0.0
C743 C 0.4105 0.41301 0.20726 0.0
C744 C 0.4319 0.40835 0.2434 0.0
C745 C 0.3759 0.40591 0.20627 0.0
C746 C 0.35235 0.40634 0.16958 0.0
C747 C 0.35681 0.38372 0.14508 0.0
C748 C 0.33259 0.38163 0.11257 0.0
C749 C 0.30421 0.40254 0.10385 0.0
C750 C 0.29991 0.42548 0.12776 0.0
C751 C 0.32372 0.4272 0.16077 0.0
H752 H 0.28556 0.40095 0.07856 0.0
H753 H 0.50663 0.37904 0.41209 0.0
H754 H 0.13053 0.85939 0.95769 0.0
H755 H 0.10443 0.88405 0.89152 0.0
H756 H 0.20117 0.91902 0.86668 0.0
H757 H 0.22744 0.89377 0.93243 0.0
H758 H 0.14256 0.96729 0.84399 0.0
H759 H 0.17865 0.85722 0.83236 0.0
H760 H 0.18147 0.79627 0.85038 0.0
H761 H 0.07392 0.79194 0.82241 0.0
H762 H 0.07044 0.85294 0.80482 0.0
H763 H 0.09317 0.01715 0.64022 0.0
H764 H 0.12241 0.99603 0.70591 0.0
H765 H 0.04361 0.92488 0.72185 0.0
H766 H 0.01609 0.94436 0.6553 0.0
H767 H 0.09673 0.8948 0.74955 0.0
H768 H 0.05612 0.99929 0.77242 0.0
H769 H 0.04702 0.05975 0.76196 0.0
H770 H 0.15349 0.07477 0.77202 0.0
H771 H 0.16328 0.01411 0.78384 0.0
C772 C 0.14607 0.87257 0.93812 0.0
C773 C 0.18091 0.87474 0.94994 0.0
C774 C 0.13124 0.88648 0.90044 0.0
C775 C 0.15098 0.90317 0.87434 0.0
C776 C 0.1856 0.90619 0.88647 0.0
C777 C 0.20053 0.89175 0.92386 0.0
C778 C 0.13555 0.91702 0.83413 0.0
C779 C 0.13285 0.95154 0.82308 0.0
C780 C 0.12213 0.89636 0.80743 0.0
C781 C 0.12427 0.85967 0.81767 0.0
C782 C 0.15559 0.8433 0.8304 0.0
C783 C 0.1573 0.80873 0.84046 0.0
C784 C 0.12788 0.79025 0.83764 0.0
C785 C 0.09669 0.80629 0.82463 0.0
C786 C 0.09483 0.84085 0.81459 0.0
C787 C 0.08204 0.99734 0.65818 0.0
C788 C 0.0524 0.98247 0.64319 0.0
C789 C 0.0986 0.98534 0.69577 0.0
C790 C 0.08503 0.95915 0.71945 0.0
C791 C 0.05481 0.94498 0.7044 0.0
C792 C 0.0389 0.95626 0.66651 0.0
C793 C 0.10272 0.94544 0.75922 0.0
C794 C 0.10623 0.9108 0.77023 0.0
C795 C 0.11601 0.96598 0.78632 0.0
C796 C 0.11037 0.00232 0.7785 0.0
C797 C 0.07755 0.01553 0.77213 0.0
C798 C 0.07228 0.04983 0.76605 0.0
C799 C 0.09959 0.07119 0.76574 0.0
C800 C 0.13233 0.05822 0.77208 0.0
C801 C 0.13779 0.02388 0.77877 0.0
H802 H 0.09538 0.09777 0.76085 0.0
H803 H 0.12926 0.76349 0.84545 0.0
loop_
_geom_bond_atom_site_label_1
_geom_bond_atom_site_label_2
_geom_bond_distance
_geom_bond_site_symmetry_2
_ccdc_geom_bond_type
H0 C3 0.931 . S
H1 C6 0.928 . S
H2 C8 0.930 . S
C3 H0 0.931 . S
C3 C4 1.413 1_554 S
C3 C5 1.360 . S
C4 C3 1.413 1_556 S
C4 C8 1.429 . S
C5 C3 1.360 . S
C5 C6 1.372 . S
C6 H1 0.928 . S
C6 C5 1.372 . S
C6 C7 1.404 . S
C7 C6 1.404 . S
C7 C8 1.391 1_554 S
C8 H2 0.930 . S
C8 C4 1.429 . S
C8 C7 1.391 1_556 S
H9 C12 0.931 . S
H10 C15 0.928 . S
H11 C17 0.930 . S
C12 H9 0.931 . S
C12 C13 1.413 . S
C12 C14 1.360 . S
C13 C12 1.413 . S
C13 C17 1.429 . S
C14 C12 1.360 . S
C14 C15 1.372 . S
C15 H10 0.928 . S
C15 C14 1.372 . S
C15 C16 1.404 . S
C16 C15 1.404 . S
C16 C17 1.391 . S
C17 H11 0.930 . S
C17 C13 1.429 . S
C17 C16 1.391 . S
H18 C21 0.931 . S
H19 C24 0.928 . S
H20 C26 0.930 1_556 S
C21 H18 0.931 . S
C21 C22 1.413 . S
C21 C23 1.360 . S
C22 C21 1.413 . S
C22 C26 1.429 . S
C23 C21 1.360 . S
C23 C24 1.372 . S
C24 H19 0.928 . S
C24 C23 1.372 . S
C24 C25 1.404 . S
C25 C24 1.404 . S
C25 C26 1.391 . S
C26 H20 0.930 1_554 S
C26 C22 1.429 . S
C26 C25 1.391 . S
H27 C30 0.931 . S
H28 C33 0.928 . S
H29 C35 0.930 . S
C30 H27 0.931 . S
C30 C31 1.413 . S
C30 C32 1.360 . S
C31 C30 1.413 . S
C31 C35 1.429 . S
C32 C30 1.360 . S
C32 C33 1.372 . S
C33 H28 0.928 . S
C33 C32 1.372 . S
C33 C34 1.404 . S
C34 C33 1.404 . S
C34 C35 1.391 . S
C35 H29 0.930 . S
C35 C31 1.429 . S
C35 C34 1.391 . S
Tb36 N65 2.617 . S
Tb36 N71 2.572 . S
Tb36 O80 2.465 . S
Tb36 O81 2.387 . S
Tb36 O83 2.428 . S
Tb36 O84 2.308 1_565 S
Tb36 O88 2.349 1_455 S
Tb36 O91 2.393 1_455 S
Tb36 C100 2.802 . S
C37 N38 1.379 . S
C37 C40 1.416 . S
C37 C44 1.424 . S
N38 C37 1.379 . S
N38 C41 1.334 1_655 S
N38 Tb47 2.617 . S
C39 C41 1.390 1_655 S
C39 C42 1.339 . S
C39 H59 0.930 1_655 S
C40 C37 1.416 . S
C40 C42 1.416 . S
C40 C46 1.448 . S
C41 N38 1.334 1_455 S
C41 C39 1.390 1_455 S
C41 H52 0.930 . S
C42 C39 1.339 . S
C42 C40 1.416 . S
C42 H63 0.930 . S
C43 C44 1.413 . S
C43 C45 1.427 . S
C43 C49 1.416 . S
C44 C37 1.424 . S
C44 C43 1.413 . S
C44 N48 1.361 . S
C45 C43 1.427 . S
C45 C46 1.328 . S
C45 H60 0.929 . S
C46 C40 1.448 . S
C46 C45 1.328 . S
C46 H61 0.930 . S
Tb47 N38 2.617 . S
Tb47 N48 2.572 . S
Tb47 O82 2.349 1_655 S
Tb47 O85 2.393 1_655 S
Tb47 O86 2.465 . S
Tb47 O87 2.387 . S
Tb47 O89 2.428 . S
Tb47 O90 2.308 1_545 S
Tb47 C111 2.802 . S
N48 C44 1.361 . S
N48 Tb47 2.572 . S
N48 C50 1.340 . S
C49 C43 1.416 . S
C49 C51 1.332 . S
C49 H57 0.931 . S
C50 N48 1.340 . S
C50 C51 1.407 . S
C50 H56 0.930 . S
C51 C49 1.332 . S
C51 C50 1.407 . S
C51 H53 0.929 . S
H52 C41 0.930 . S
H53 C51 0.929 . S
H54 C69 0.930 1_655 S
H55 C76 0.929 . S
H56 C50 0.930 . S
H57 C49 0.931 . S
H58 C72 0.930 . S
H59 C39 0.930 1_455 S
H60 C45 0.929 . S
H61 C46 0.930 . S
H62 C67 0.930 1_655 S
H63 C42 0.930 . S
H64 C75 0.931 . S
N65 Tb36 2.617 . S
N65 C66 1.379 . S
N65 C69 1.334 . S
C66 N65 1.379 . S
C66 C68 1.416 . S
C66 C74 1.424 . S
C67 H62 0.930 1_455 S
C67 C69 1.390 . S
C67 C70 1.339 . S
C68 C66 1.416 . S
C68 C70 1.416 . S
C68 C101 1.448 . S
C69 H54 0.930 1_455 S
C69 N65 1.334 . S
C69 C67 1.390 . S
C70 C67 1.339 . S
C70 C68 1.416 . S
C70 H77 0.930 . S
N71 Tb36 2.572 . S
N71 C72 1.340 . S
N71 C74 1.361 . S
C72 H58 0.930 . S
C72 N71 1.340 . S
C72 C76 1.407 . S
C73 C74 1.413 . S
C73 C75 1.416 . S
C73 C102 1.427 . S
C74 C66 1.424 . S
C74 N71 1.361 . S
C74 C73 1.413 . S
C75 H64 0.931 . S
C75 C73 1.416 . S
C75 C76 1.332 . S
C76 H55 0.929 . S
C76 C72 1.407 . S
C76 C75 1.332 . S
H77 C70 0.930 . S
H78 C101 0.930 . S
H79 C102 0.929 . S
O80 Tb36 2.465 . S
O80 C100 1.264 . S
O81 Tb36 2.387 . S
O81 C92 1.264 . S
O82 Tb47 2.349 1_455 S
O82 C92 1.243 1_545 S
O83 Tb36 2.428 . S
O83 C100 1.256 . S
O84 Tb36 2.308 1_545 S
O84 C99 1.266 . S
O85 Tb47 2.393 1_455 S
O85 C99 1.248 . S
O86 Tb47 2.465 . S
O86 C111 1.264 . S
O87 Tb47 2.387 . S
O87 C103 1.264 . S
O88 Tb36 2.349 1_655 S
O88 C103 1.243 1_565 S
O89 Tb47 2.428 . S
O89 C111 1.256 . S
O90 Tb47 2.308 1_565 S
O90 C110 1.266 . S
O91 Tb36 2.393 1_655 S
O91 C110 1.248 . S
C92 O81 1.264 . S
C92 O82 1.243 1_565 S
C93 C96 1.399 . S
C93 C98 1.383 . S
C93 C100 1.496 . S
C94 C95 1.399 . S
C94 C98 1.389 . S
C95 C94 1.399 . S
C95 C97 1.380 . S
C95 H112 0.929 . S
C96 C93 1.399 . S
C96 C97 1.392 . S
C96 H113 0.929 . S
C97 C95 1.380 . S
C97 C96 1.392 . S
C97 H114 0.929 . S
C98 C93 1.383 . S
C98 C94 1.389 . S
C98 H115 0.931 . S
C99 O84 1.266 . S
C99 O85 1.248 . S
C100 Tb36 2.802 . S
C100 O80 1.264 . S
C100 O83 1.256 . S
C100 C93 1.496 . S
C101 C68 1.448 . S
C101 H78 0.930 . S
C101 C102 1.328 . S
C102 C73 1.427 . S
C102 H79 0.929 . S
C102 C101 1.328 . S
C103 O87 1.264 . S
C103 O88 1.243 1_545 S
C104 C107 1.399 . S
C104 C108 1.383 . S
C104 C111 1.496 . S
C105 C106 1.399 . S
C105 C108 1.389 . S
C106 C105 1.399 . S
C106 C109 1.380 . S
C106 H116 0.929 . S
C107 C104 1.399 . S
C107 C109 1.392 . S
C107 H117 0.929 . S
C108 C104 1.383 . S
C108 C105 1.389 . S
C108 H118 0.931 . S
C109 C106 1.380 . S
C109 C107 1.392 . S
C109 H119 0.929 . S
C110 O90 1.266 . S
C110 O91 1.248 . S
C111 Tb47 2.802 . S
C111 O86 1.264 . S
C111 O89 1.256 . S
C111 C104 1.496 . S
H112 C95 0.929 . S
H113 C96 0.929 . S
H114 C97 0.929 . S
H115 C98 0.931 . S
H116 C106 0.929 . S
H117 C107 0.929 . S
H118 C108 0.931 . S
H119 C109 0.929 . S
Tb120 N149 2.617 . S
Tb120 N155 2.572 1_556 S
Tb120 O164 2.465 . S
Tb120 O165 2.387 1_556 S
Tb120 O167 2.428 . S
Tb120 O168 2.308 1_556 S
Tb120 O172 2.349 . S
Tb120 O175 2.402 . S
Tb120 C184 2.802 . S
C121 N122 1.379 . S
C121 C124 1.416 . S
C121 C128 1.424 . S
N122 C121 1.379 . S
N122 C125 1.334 . S
N122 Tb131 2.617 . S
C123 C125 1.390 . S
C123 C126 1.339 . S
C123 H143 0.930 . S
C124 C121 1.416 . S
C124 C126 1.416 . S
C124 C130 1.448 . S
C125 N122 1.334 . S
C125 C123 1.390 . S
C125 H136 0.930 . S
C126 C123 1.339 . S
C126 C124 1.416 . S
C126 H147 0.930 . S
C127 C128 1.413 . S
C127 C129 1.427 . S
C127 C133 1.416 . S
C128 C121 1.424 . S
C128 C127 1.413 . S
C128 N132 1.361 . S
C129 C127 1.427 . S
C129 C130 1.328 . S
C129 H144 0.929 . S
C130 C124 1.448 . S
C130 C129 1.328 . S
C130 H145 0.930 . S
Tb131 N122 2.617 . S
Tb131 N132 2.572 . S
Tb131 O166 2.349 . S
Tb131 O169 2.393 . S
Tb131 O170 2.465 . S
Tb131 O171 2.387 1_554 S
Tb131 O173 2.428 . S
Tb131 O174 2.308 . S
Tb131 C195 2.802 . S
N132 C128 1.361 . S
N132 Tb131 2.572 . S
N132 C134 1.340 . S
C133 C127 1.416 . S
C133 C135 1.332 . S
C133 H141 0.931 . S
C134 N132 1.340 . S
C134 C135 1.407 . S
C134 H140 0.930 . S
C135 C133 1.332 . S
C135 C134 1.407 . S
C135 H137 0.929 . S
H136 C125 0.930 . S
H137 C135 0.929 . S
H138 C153 0.930 . S
H139 C160 0.929 . S
H140 C134 0.930 . S
H141 C133 0.931 . S
H142 C156 0.930 . S
H143 C123 0.930 . S
H144 C129 0.929 . S
H145 C130 0.930 . S
H146 C151 0.930 . S
H147 C126 0.930 . S
H148 C159 0.931 . S
N149 Tb120 2.617 . S
N149 C150 1.379 1_556 S
N149 C153 1.334 . S
C150 N149 1.379 1_554 S
C150 C152 1.416 . S
C150 C158 1.424 . S
C151 H146 0.930 . S
C151 C153 1.390 . S
C151 C154 1.339 1_556 S
C152 C150 1.416 . S
C152 C154 1.416 . S
C152 C185 1.448 . S
C153 H138 0.930 . S
C153 N149 1.334 . S
C153 C151 1.390 . S
C154 C151 1.339 1_554 S
C154 C152 1.416 . S
C154 H161 0.930 . S
N155 Tb120 2.572 1_554 S
N155 C156 1.340 . S
N155 C158 1.361 . S
C156 H142 0.930 . S
C156 N155 1.340 . S
C156 C160 1.407 . S
C157 C158 1.413 . S
C157 C159 1.416 . S
C157 C186 1.427 . S
C158 C150 1.424 . S
C158 N155 1.361 . S
C158 C157 1.413 . S
C159 H148 0.931 . S
C159 C157 1.416 . S
C159 C160 1.332 . S
C160 H139 0.929 . S
C160 C156 1.407 . S
C160 C159 1.332 . S
H161 C154 0.930 . S
H162 C185 0.930 . S
H163 C186 0.929 . S
O164 Tb120 2.465 . S
O164 C184 1.264 . S
O165 Tb120 2.387 1_554 S
O165 C176 1.264 . S
O166 Tb131 2.349 . S
O166 C176 1.243 . S
O167 Tb120 2.428 . S
O167 C184 1.256 . S
O168 Tb120 2.308 1_554 S
O168 C183 1.266 . S
O169 Tb131 2.393 . S
O169 C183 1.248 . S
O170 Tb131 2.465 . S
O170 C195 1.264 . S
O171 Tb131 2.387 1_556 S
O171 C187 1.264 . S
O172 Tb120 2.349 . S
O172 C187 1.243 . S
O173 Tb131 2.428 . S
O173 C195 1.256 . S
O174 Tb131 2.308 . S
O174 C194 1.266 . S
O175 Tb120 2.402 . S
O175 C194 1.227 1_556 S
C176 O165 1.264 . S
C176 O166 1.243 . S
C177 C180 1.399 . S
C177 C182 1.383 . S
C177 C184 1.496 . S
C178 C179 1.399 . S
C178 C182 1.389 . S
C179 C178 1.399 . S
C179 C181 1.380 . S
C179 H196 0.929 . S
C180 C177 1.399 . S
C180 C181 1.392 . S
C180 H197 0.929 . S
C181 C179 1.380 . S
C181 C180 1.392 . S
C181 H198 0.929 . S
C182 C177 1.383 . S
C182 C178 1.389 . S
C182 H199 0.931 . S
C183 O168 1.266 . S
C183 O169 1.248 . S
C184 Tb120 2.802 . S
C184 O164 1.264 . S
C184 O167 1.256 . S
C184 C177 1.496 . S
C185 C152 1.448 . S
C185 H162 0.930 . S
C185 C186 1.328 . S
C186 C157 1.427 . S
C186 H163 0.929 . S
C186 C185 1.328 . S
C187 O171 1.264 . S
C187 O172 1.243 . S
C188 C191 1.399 . S
C188 C192 1.383 . S
C188 C195 1.496 . S
C189 C190 1.399 . S
C189 C192 1.389 . S
C190 C189 1.399 . S
C190 C193 1.380 . S
C190 H200 0.929 . S
C191 C188 1.399 . S
C191 C193 1.392 . S
C191 H201 0.929 . S
C192 C188 1.383 . S
C192 C189 1.389 . S
C192 H202 0.931 . S
C193 C190 1.380 . S
C193 C191 1.392 . S
C193 H203 0.929 . S
C194 O174 1.266 . S
C194 O175 1.227 1_554 S
C195 Tb131 2.802 . S
C195 O170 1.264 . S
C195 O173 1.256 . S
C195 C188 1.496 . S
H196 C179 0.929 . S
H197 C180 0.929 . S
H198 C181 0.929 . S
H199 C182 0.931 . S
H200 C190 0.929 . S
H201 C191 0.929 . S
H202 C192 0.931 . S
H203 C193 0.929 . S
H204 C222 0.951 . S
H205 C224 0.951 . S
H206 C226 0.950 . S
H207 C227 0.950 . S
H208 C229 0.950 . S
H209 C232 0.950 . S
H210 C233 0.950 . S
H211 C235 0.950 . S
H212 C236 0.950 . S
H213 C237 0.951 . S
H214 C239 0.951 . S
H215 C241 0.950 . S
H216 C242 0.950 . S
H217 C244 0.950 . S
H218 C247 0.950 . S
H219 C248 0.950 . S
H220 C250 0.950 . S
H221 C251 0.950 . S
C222 H204 0.951 . S
C222 C223 1.366 . S
C222 C224 1.388 . S
C223 C222 1.366 . S
C223 C227 1.385 . S
C224 H205 0.951 . S
C224 C222 1.388 . S
C224 C225 1.366 . S
C225 C224 1.366 . S
C225 C226 1.414 . S
C225 C228 1.499 . S
C226 H206 0.950 . S
C226 C225 1.414 . S
C226 C227 1.374 . S
C227 H207 0.950 . S
C227 C223 1.385 . S
C227 C226 1.374 . S
C228 C225 1.499 . S
C228 C229 1.373 . S
C228 C230 1.389 . S
C229 H208 0.950 . S
C229 C228 1.373 . S
C229 C245 1.377 . S
C230 C228 1.389 . S
C230 C231 1.524 . S
C230 C244 1.377 . S
C231 C230 1.524 . S
C231 C232 1.397 . S
C231 C236 1.363 . S
C232 H209 0.950 . S
C232 C231 1.397 . S
C232 C233 1.334 . S
C233 H210 0.950 . S
C233 C232 1.334 . S
C233 C234 1.287 . S
C234 C233 1.287 . S
C234 C235 1.524 . S
C234 H253 0.913 . S
C235 H211 0.950 . S
C235 C234 1.524 . S
C235 C236 1.415 . S
C236 H212 0.950 . S
C236 C231 1.363 . S
C236 C235 1.415 . S
C237 H213 0.951 . S
C237 C238 1.366 . S
C237 C239 1.388 . S
C238 C237 1.366 . S
C238 C242 1.385 . S
C239 H214 0.951 . S
C239 C237 1.388 . S
C239 C240 1.366 . S
C240 C239 1.366 . S
C240 C241 1.414 . S
C240 C243 1.499 . S
C241 H215 0.950 . S
C241 C240 1.414 . S
C241 C242 1.374 . S
C242 H216 0.950 . S
C242 C238 1.385 . S
C242 C241 1.374 . S
C243 C240 1.499 . S
C243 C244 1.373 . S
C243 C245 1.389 . S
C244 H217 0.950 . S
C244 C230 1.377 . S
C244 C243 1.373 . S
C245 C229 1.377 . S
C245 C243 1.389 . S
C245 C246 1.524 . S
C246 C245 1.524 . S
C246 C247 1.397 . S
C246 C251 1.363 . S
C247 H218 0.950 . S
C247 C246 1.397 . S
C247 C248 1.334 . S
C248 H219 0.950 . S
C248 C247 1.334 . S
C248 C249 1.287 . S
C249 C248 1.287 . S
C249 C250 1.524 . S
C249 H252 0.999 . S
C250 H220 0.950 . S
C250 C249 1.524 . S
C250 C251 1.415 . S
C251 H221 0.950 . S
C251 C246 1.363 . S
C251 C250 1.415 . S
H252 C249 0.999 . S
H253 C234 0.913 . S
H254 C272 0.951 . S
H255 C274 0.951 . S
H256 C276 0.950 . S
H257 C277 0.950 . S
H258 C279 0.952 1_556 S
H259 C282 0.950 . S
H260 C283 0.950 . S
H261 C285 0.950 . S
H262 C286 0.950 . S
H263 C287 0.951 . S
H264 C289 0.951 . S
H265 C291 0.950 . S
H266 C292 0.950 . S
H267 C294 0.950 . S
H268 C297 0.950 . S
H269 C298 0.950 . S
H270 C300 0.950 . S
H271 C301 0.950 . S
C272 H254 0.951 . S
C272 C273 1.366 . S
C272 C274 1.388 . S
C273 C272 1.366 . S
C273 C277 1.385 . S
C274 H255 0.951 . S
C274 C272 1.388 . S
C274 C275 1.366 . S
C275 C274 1.366 . S
C275 C276 1.414 . S
C275 C278 1.499 . S
C276 H256 0.950 . S
C276 C275 1.414 . S
C276 C277 1.374 . S
C277 H257 0.950 . S
C277 C273 1.385 . S
C277 C276 1.374 . S
C278 C275 1.499 . S
C278 C279 1.371 . S
C278 C280 1.389 . S
C279 H258 0.952 1_554 S
C279 C278 1.371 . S
C279 C295 1.377 1_554 S
C280 C278 1.389 . S
C280 C281 1.524 . S
C280 C294 1.377 . S
C281 C280 1.524 . S
C281 C282 1.397 . S
C281 C286 1.363 . S
C282 H259 0.950 . S
C282 C281 1.397 . S
C282 C283 1.334 . S
C283 H260 0.950 . S
C283 C282 1.334 . S
C283 C284 1.287 . S
C284 C283 1.287 . S
C284 C285 1.524 . S
C284 H303 0.913 . S
C285 H261 0.950 . S
C285 C284 1.524 . S
C285 C286 1.415 . S
C286 H262 0.950 . S
C286 C281 1.363 . S
C286 C285 1.415 . S
C287 H263 0.951 . S
C287 C288 1.366 . S
C287 C289 1.388 . S
C288 C287 1.366 . S
C288 C292 1.385 . S
C289 H264 0.951 . S
C289 C287 1.388 . S
C289 C290 1.366 . S
C290 C289 1.366 . S
C290 C291 1.414 . S
C290 C293 1.499 . S
C291 H265 0.950 . S
C291 C290 1.414 . S
C291 C292 1.374 . S
C292 H266 0.950 . S
C292 C288 1.385 . S
C292 C291 1.374 . S
C293 C290 1.499 . S
C293 C294 1.373 . S
C293 C295 1.389 1_554 S
C294 H267 0.950 . S
C294 C280 1.377 . S
C294 C293 1.373 . S
C295 C279 1.377 1_556 S
C295 C293 1.389 1_556 S
C295 C296 1.524 . S
C296 C295 1.524 . S
C296 C297 1.397 . S
C296 C301 1.363 . S
C297 H268 0.950 . S
C297 C296 1.397 . S
C297 C298 1.334 . S
C298 H269 0.950 . S
C298 C297 1.334 . S
C298 C299 1.287 . S
C299 C298 1.287 . S
C299 C300 1.524 . S
C299 H302 0.999 . S
C300 H270 0.950 . S
C300 C299 1.524 . S
C300 C301 1.415 . S
C301 H271 0.950 . S
C301 C296 1.363 . S
C301 C300 1.415 . S
H302 C299 0.999 . S
H303 C284 0.913 . S
H304 C322 0.951 . S
H305 C324 0.951 . S
H306 C326 0.950 . S
H307 C327 0.950 . S
H308 C329 0.950 . S
H309 C332 0.950 . S
H310 C333 0.950 . S
H311 C335 0.950 . S
H312 C336 0.950 . S
H313 C337 0.951 . S
H314 C339 0.951 . S
H315 C341 0.950 . S
H316 C342 0.950 . S
H317 C344 0.950 . S
H318 C347 0.950 . S
H319 C348 0.950 . S
H320 C350 0.950 . S
H321 C351 0.950 . S
C322 H304 0.951 . S
C322 C323 1.366 . S
C322 C324 1.388 . S
C323 C322 1.366 . S
C323 C327 1.385 . S
C324 H305 0.951 . S
C324 C322 1.388 . S
C324 C325 1.366 . S
C325 C324 1.366 . S
C325 C326 1.414 . S
C325 C328 1.499 . S
C326 H306 0.950 . S
C326 C325 1.414 . S
C326 C327 1.374 . S
C327 H307 0.950 . S
C327 C323 1.385 . S
C327 C326 1.374 . S
C328 C325 1.499 . S
C328 C329 1.373 . S
C328 C330 1.389 . S
C329 H308 0.950 . S
C329 C328 1.373 . S
C329 C345 1.377 . S
C330 C328 1.389 . S
C330 C331 1.524 . S
C330 C344 1.377 . S
C331 C330 1.524 . S
C331 C332 1.397 . S
C331 C336 1.363 . S
C332 H309 0.950 . S
C332 C331 1.397 . S
C332 C333 1.334 . S
C333 H310 0.950 . S
C333 C332 1.334 . S
C333 C334 1.287 . S
C334 C333 1.287 . S
C334 C335 1.524 . S
C334 H353 0.913 . S
C335 H311 0.950 . S
C335 C334 1.524 . S
C335 C336 1.415 . S
C336 H312 0.950 . S
C336 C331 1.363 . S
C336 C335 1.415 . S
C337 H313 0.951 . S
C337 C338 1.366 . S
C337 C339 1.388 . S
C338 C337 1.366 . S
C338 C342 1.385 . S
C339 H314 0.951 . S
C339 C337 1.388 . S
C339 C340 1.366 . S
C340 C339 1.366 . S
C340 C341 1.414 . S
C340 C343 1.499 . S
C341 H315 0.950 . S
C341 C340 1.414 . S
C341 C342 1.374 . S
C342 H316 0.950 . S
C342 C338 1.385 . S
C342 C341 1.374 . S
C343 C340 1.499 . S
C343 C344 1.373 . S
C343 C345 1.389 . S
C344 H317 0.950 . S
C344 C330 1.377 . S
C344 C343 1.373 . S
C345 C329 1.377 . S
C345 C343 1.389 . S
C345 C346 1.524 . S
C346 C345 1.524 . S
C346 C347 1.397 . S
C346 C351 1.363 . S
C347 H318 0.950 . S
C347 C346 1.397 . S
C347 C348 1.334 . S
C348 H319 0.950 . S
C348 C347 1.334 . S
C348 C349 1.287 . S
C349 C348 1.287 . S
C349 C350 1.524 . S
C349 H352 0.999 1_565 S
C350 H320 0.950 . S
C350 C349 1.524 . S
C350 C351 1.415 . S
C351 H321 0.950 . S
C351 C346 1.363 . S
C351 C350 1.415 . S
H352 C349 0.999 1_545 S
H353 C334 0.913 . S
H354 C372 0.951 1_556 S
H355 C374 0.951 1_556 S
H356 C376 0.950 . S
H357 C377 0.950 . S
H358 C379 0.950 . S
H359 C382 0.950 . S
H360 C383 0.950 . S
H361 C385 0.950 . S
H362 C386 0.950 . S
H363 C387 0.951 . S
H364 C389 0.951 . S
H365 C391 0.950 1_556 S
H366 C392 0.950 1_556 S
H367 C394 0.950 . S
H368 C397 0.950 . S
H369 C398 0.950 . S
H370 C400 0.950 . S
H371 C401 0.950 . S
C372 H354 0.951 1_554 S
C372 C373 1.366 . S
C372 C374 1.388 . S
C373 C372 1.366 . S
C373 C377 1.385 . S
C374 H355 0.951 1_554 S
C374 C372 1.388 . S
C374 C375 1.366 . S
C375 C374 1.366 . S
C375 C376 1.414 . S
C375 C378 1.499 . S
C376 H356 0.950 . S
C376 C375 1.414 . S
C376 C377 1.374 . S
C377 H357 0.950 . S
C377 C373 1.385 . S
C377 C376 1.374 . S
C378 C375 1.499 . S
C378 C379 1.373 . S
C378 C380 1.389 . S
C379 H358 0.950 . S
C379 C378 1.373 . S
C379 C395 1.377 . S
C380 C378 1.389 . S
C380 C381 1.524 . S
C380 C394 1.377 . S
C381 C380 1.524 . S
C381 C382 1.397 . S
C381 C386 1.363 . S
C382 H359 0.950 . S
C382 C381 1.397 . S
C382 C383 1.334 . S
C383 H360 0.950 . S
C383 C382 1.334 . S
C383 C384 1.287 . S
C384 C383 1.287 . S
C384 C385 1.524 . S
C384 H403 0.913 . S
C385 H361 0.950 . S
C385 C384 1.524 . S
C385 C386 1.415 . S
C386 H362 0.950 . S
C386 C381 1.363 . S
C386 C385 1.415 . S
C387 H363 0.951 . S
C387 C388 1.366 . S
C387 C389 1.388 . S
C388 C387 1.366 . S
C388 C392 1.385 . S
C389 H364 0.951 . S
C389 C387 1.388 . S
C389 C390 1.366 . S
C390 C389 1.366 . S
C390 C391 1.414 . S
C390 C393 1.499 . S
C391 H365 0.950 1_554 S
C391 C390 1.414 . S
C391 C392 1.374 . S
C392 H366 0.950 1_554 S
C392 C388 1.385 . S
C392 C391 1.374 . S
C393 C390 1.499 . S
C393 C394 1.373 . S
C393 C395 1.389 . S
C394 H367 0.950 . S
C394 C380 1.377 . S
C394 C393 1.373 . S
C395 C379 1.377 . S
C395 C393 1.389 . S
C395 C396 1.524 . S
C396 C395 1.524 . S
C396 C397 1.397 1_554 S
C396 C401 1.363 . S
C397 H368 0.950 . S
C397 C396 1.397 1_556 S
C397 C398 1.334 . S
C398 H369 0.950 . S
C398 C397 1.334 . S
C398 C399 1.287 . S
C399 C398 1.287 . S
C399 C400 1.524 1_556 S
C399 H402 0.999 . S
C400 H370 0.950 . S
C400 C399 1.524 1_554 S
C400 C401 1.415 . S
C401 H371 0.950 . S
C401 C396 1.363 . S
C401 C400 1.415 . S
H402 C399 0.999 . S
H403 C384 0.913 . S
H404 C422 0.951 . S
H405 C424 0.951 . S
H406 C426 0.950 . S
H407 C427 0.950 . S
H408 C429 0.950 . S
H409 C432 0.950 . S
H410 C433 0.950 . S
H411 C435 0.950 . S
H412 C436 0.950 1_545 S
H413 C437 0.951 . S
H414 C439 0.951 . S
H415 C441 0.950 . S
H416 C442 0.950 1_545 S
H417 C444 0.950 . S
H418 C447 0.950 . S
H419 C448 0.950 . S
H420 C450 0.950 . S
H421 C451 0.950 . S
C422 H404 0.951 . S
C422 C423 1.366 . S
C422 C424 1.388 . S
C423 C422 1.366 . S
C423 C427 1.385 . S
C424 H405 0.951 . S
C424 C422 1.388 . S
C424 C425 1.366 . S
C425 C424 1.366 . S
C425 C426 1.414 . S
C425 C428 1.499 . S
C426 H406 0.950 . S
C426 C425 1.414 . S
C426 C427 1.374 . S
C427 H407 0.950 . S
C427 C423 1.385 . S
C427 C426 1.374 . S
C428 C425 1.499 . S
C428 C429 1.373 . S
C428 C430 1.389 . S
C429 H408 0.950 . S
C429 C428 1.373 . S
C429 C445 1.377 . S
C430 C428 1.389 . S
C430 C431 1.524 . S
C430 C444 1.377 . S
C431 C430 1.524 . S
C431 C432 1.397 . S
C431 C436 1.363 . S
C432 H409 0.950 . S
C432 C431 1.397 . S
C432 C433 1.334 . S
C433 H410 0.950 . S
C433 C432 1.334 . S
C433 C434 1.287 . S
C434 C433 1.287 . S
C434 C435 1.524 1_565 S
C434 H453 0.913 . S
C435 H411 0.950 . S
C435 C434 1.524 1_545 S
C435 C436 1.415 1_545 S
C436 H412 0.950 1_565 S
C436 C431 1.363 . S
C436 C435 1.415 1_565 S
C437 H413 0.951 . S
C437 C438 1.366 . S
C437 C439 1.388 . S
C438 C437 1.366 . S
C438 C442 1.385 . S
C439 H414 0.951 . S
C439 C437 1.388 . S
C439 C440 1.366 . S
C440 C439 1.366 . S
C440 C441 1.414 . S
C440 C443 1.499 . S
C441 H415 0.950 . S
C441 C440 1.414 . S
C441 C442 1.374 . S
C442 H416 0.950 1_565 S
C442 C438 1.385 . S
C442 C441 1.374 . S
C443 C440 1.499 . S
C443 C444 1.373 . S
C443 C445 1.389 . S
C444 H417 0.950 . S
C444 C430 1.377 . S
C444 C443 1.373 . S
C445 C429 1.377 . S
C445 C443 1.389 . S
C445 C446 1.524 . S
C446 C445 1.524 . S
C446 C447 1.397 . S
C446 C451 1.363 . S
C447 H418 0.950 . S
C447 C446 1.397 . S
C447 C448 1.334 . S
C448 H419 0.950 . S
C448 C447 1.334 . S
C448 C449 1.287 . S
C449 C448 1.287 . S
C449 C450 1.524 . S
C449 H452 0.999 . S
C450 H420 0.950 . S
C450 C449 1.524 . S
C450 C451 1.415 . S
C451 H421 0.950 . S
C451 C446 1.363 . S
C451 C450 1.415 . S
H452 C449 0.999 . S
H453 C434 0.913 . S
H454 C472 0.951 . S
H455 C474 0.951 . S
H456 C476 0.950 . S
H457 C477 0.950 . S
H458 C479 0.950 . S
H459 C482 0.950 . S
H460 C483 0.950 . S
H461 C485 0.950 . S
H462 C486 0.950 . S
H463 C487 0.951 . S
H464 C489 0.951 . S
H465 C491 0.950 . S
H466 C492 0.950 . S
H467 C494 0.950 . S
H468 C497 0.950 . S
H469 C498 0.950 . S
H470 C500 0.950 . S
H471 C501 0.950 . S
C472 H454 0.951 . S
C472 C473 1.366 . S
C472 C474 1.388 . S
C473 C472 1.366 . S
C473 C477 1.385 . S
C474 H455 0.951 . S
C474 C472 1.388 . S
C474 C475 1.366 . S
C475 C474 1.366 . S
C475 C476 1.414 . S
C475 C478 1.499 . S
C476 H456 0.950 . S
C476 C475 1.414 . S
C476 C477 1.374 . S
C477 H457 0.950 . S
C477 C473 1.385 . S
C477 C476 1.374 . S
C478 C475 1.499 . S
C478 C479 1.373 . S
C478 C480 1.389 . S
C479 H458 0.950 . S
C479 C478 1.373 . S
C479 C495 1.377 . S
C480 C478 1.389 . S
C480 C481 1.524 . S
C480 C494 1.377 . S
C481 C480 1.524 . S
C481 C482 1.397 . S
C481 C486 1.363 . S
C482 H459 0.950 . S
C482 C481 1.397 . S
C482 C483 1.334 . S
C483 H460 0.950 . S
C483 C482 1.334 . S
C483 C484 1.287 . S
C484 C483 1.287 . S
C484 C485 1.524 . S
C484 H503 0.913 . S
C485 H461 0.950 . S
C485 C484 1.524 . S
C485 C486 1.415 . S
C486 H462 0.950 . S
C486 C481 1.363 . S
C486 C485 1.415 . S
C487 H463 0.951 . S
C487 C488 1.366 . S
C487 C489 1.388 . S
C488 C487 1.366 . S
C488 C492 1.385 . S
C489 H464 0.951 . S
C489 C487 1.388 . S
C489 C490 1.366 . S
C490 C489 1.366 . S
C490 C491 1.414 . S
C490 C493 1.499 . S
C491 H465 0.950 . S
C491 C490 1.414 . S
C491 C492 1.374 . S
C492 H466 0.950 . S
C492 C488 1.385 . S
C492 C491 1.374 . S
C493 C490 1.499 . S
C493 C494 1.373 . S
C493 C495 1.389 . S
C494 H467 0.950 . S
C494 C480 1.377 . S
C494 C493 1.373 . S
C495 C479 1.377 . S
C495 C493 1.389 . S
C495 C496 1.524 . S
C496 C495 1.524 . S
C496 C497 1.397 . S
C496 C501 1.363 . S
C497 H468 0.950 . S
C497 C496 1.397 . S
C497 C498 1.334 . S
C498 H469 0.950 . S
C498 C497 1.334 . S
C498 C499 1.287 . S
C499 C498 1.287 . S
C499 C500 1.524 . S
C499 H502 0.999 . S
C500 H470 0.950 . S
C500 C499 1.524 . S
C500 C501 1.415 . S
C501 H471 0.950 . S
C501 C496 1.363 . S
C501 C500 1.415 . S
H502 C499 0.999 . S
H503 C484 0.913 . S
H504 C522 0.951 . S
H505 C524 0.951 . S
H506 C526 0.950 . S
H507 C527 0.950 . S
H508 C529 0.950 . S
H509 C532 0.950 . S
H510 C533 0.950 . S
H511 C535 0.950 . S
H512 C536 0.950 . S
H513 C537 0.951 . S
H514 C539 0.951 . S
H515 C541 0.950 . S
H516 C542 0.950 1_565 S
H517 C544 0.950 . S
H518 C547 0.950 . S
H519 C548 0.950 1_455 S
H520 C550 0.950 . S
H521 C551 0.950 . S
C522 H504 0.951 . S
C522 C523 1.366 . S
C522 C524 1.388 . S
C523 C522 1.366 . S
C523 C527 1.385 . S
C524 H505 0.951 . S
C524 C522 1.388 . S
C524 C525 1.366 . S
C525 C524 1.366 . S
C525 C526 1.414 . S
C525 C528 1.499 . S
C526 H506 0.950 . S
C526 C525 1.414 . S
C526 C527 1.374 . S
C527 H507 0.950 . S
C527 C523 1.385 . S
C527 C526 1.374 . S
C528 C525 1.499 . S
C528 C529 1.373 . S
C528 C530 1.389 . S
C529 H508 0.950 . S
C529 C528 1.373 . S
C529 C545 1.377 . S
C530 C528 1.389 . S
C530 C531 1.524 . S
C530 C544 1.377 . S
C531 C530 1.524 . S
C531 C532 1.397 . S
C531 C536 1.363 1_545 S
C532 H509 0.950 . S
C532 C531 1.397 . S
C532 C533 1.334 . S
C533 H510 0.950 . S
C533 C532 1.334 . S
C533 C534 1.287 1_545 S
C534 C533 1.287 1_565 S
C534 C535 1.524 . S
C534 H553 0.913 . S
C535 H511 0.950 . S
C535 C534 1.524 . S
C535 C536 1.415 . S
C536 H512 0.950 . S
C536 C531 1.363 1_565 S
C536 C535 1.415 . S
C537 H513 0.951 . S
C537 C538 1.366 . S
C537 C539 1.388 . S
C538 C537 1.366 . S
C538 C542 1.385 . S
C539 H514 0.951 . S
C539 C537 1.388 . S
C539 C540 1.366 . S
C540 C539 1.366 . S
C540 C541 1.414 . S
C540 C543 1.499 . S
C541 H515 0.950 . S
C541 C540 1.414 . S
C541 C542 1.374 . S
C542 H516 0.950 1_545 S
C542 C538 1.385 . S
C542 C541 1.374 . S
C543 C540 1.499 . S
C543 C544 1.373 . S
C543 C545 1.389 . S
C544 H517 0.950 . S
C544 C530 1.377 . S
C544 C543 1.373 . S
C545 C529 1.377 . S
C545 C543 1.389 . S
C545 C546 1.524 . S
C546 C545 1.524 . S
C546 C547 1.397 . S
C546 C551 1.363 . S
C547 H518 0.950 . S
C547 C546 1.397 . S
C547 C548 1.334 . S
C548 H519 0.950 1_655 S
C548 C547 1.334 . S
C548 C549 1.287 . S
C549 C548 1.287 . S
C549 C550 1.524 . S
C549 H552 0.975 1_655 S
C550 H520 0.950 . S
C550 C549 1.524 . S
C550 C551 1.415 . S
C551 H521 0.950 . S
C551 C546 1.363 . S
C551 C550 1.415 . S
H552 C549 0.975 1_455 S
H553 C534 0.913 . S
H554 C572 0.951 . S
H555 C574 0.951 . S
H556 C576 0.950 . S
H557 C577 0.950 . S
H558 C579 0.950 . S
H559 C582 0.950 . S
H560 C583 0.950 . S
H561 C585 0.950 . S
H562 C586 0.950 . S
H563 C587 0.951 . S
H564 C589 0.951 . S
H565 C591 0.950 . S
H566 C592 0.950 . S
H567 C594 0.950 . S
H568 C597 0.950 . S
H569 C598 0.950 . S
H570 C600 0.950 . S
H571 C601 0.950 . S
C572 H554 0.951 . S
C572 C573 1.366 . S
C572 C574 1.388 . S
C573 C572 1.366 . S
C573 C577 1.385 . S
C574 H555 0.951 . S
C574 C572 1.388 . S
C574 C575 1.366 . S
C575 C574 1.366 . S
C575 C576 1.414 . S
C575 C578 1.499 . S
C576 H556 0.950 . S
C576 C575 1.414 . S
C576 C577 1.374 . S
C577 H557 0.950 . S
C577 C573 1.385 . S
C577 C576 1.374 . S
C578 C575 1.499 . S
C578 C579 1.373 . S
C578 C580 1.389 . S
C579 H558 0.950 . S
C579 C578 1.373 . S
C579 C595 1.377 . S
C580 C578 1.389 . S
C580 C581 1.524 . S
C580 C594 1.377 . S
C581 C580 1.524 . S
C581 C582 1.397 . S
C581 C586 1.363 . S
C582 H559 0.950 . S
C582 C581 1.397 . S
C582 C583 1.334 . S
C583 H560 0.950 . S
C583 C582 1.334 . S
C583 C584 1.287 . S
C584 C583 1.287 . S
C584 C585 1.524 . S
C584 H603 0.913 . S
C585 H561 0.950 . S
C585 C584 1.524 . S
C585 C586 1.415 . S
C586 H562 0.950 . S
C586 C581 1.363 . S
C586 C585 1.415 . S
C587 H563 0.951 . S
C587 C588 1.366 . S
C587 C589 1.388 . S
C588 C587 1.366 . S
C588 C592 1.385 . S
C589 H564 0.951 . S
C589 C587 1.388 . S
C589 C590 1.366 . S
C590 C589 1.366 . S
C590 C591 1.414 . S
C590 C593 1.499 . S
C591 H565 0.950 . S
C591 C590 1.414 . S
C591 C592 1.374 . S
C592 H566 0.950 . S
C592 C588 1.385 . S
C592 C591 1.374 . S
C593 C590 1.499 . S
C593 C594 1.373 . S
C593 C595 1.389 . S
C594 H567 0.950 . S
C594 C580 1.377 . S
C594 C593 1.373 . S
C595 C579 1.377 . S
C595 C593 1.389 . S
C595 C596 1.524 . S
C596 C595 1.524 . S
C596 C597 1.397 . S
C596 C601 1.363 . S
C597 H568 0.950 . S
C597 C596 1.397 . S
C597 C598 1.334 . S
C598 H569 0.950 . S
C598 C597 1.334 . S
C598 C599 1.287 . S
C599 C598 1.287 . S
C599 C600 1.524 . S
C599 H602 0.999 . S
C600 H570 0.950 . S
C600 C599 1.524 . S
C600 C601 1.415 . S
C601 H571 0.950 . S
C601 C596 1.363 . S
C601 C600 1.415 . S
H602 C599 0.999 . S
H603 C584 0.913 . S
H604 C622 0.951 . S
H605 C624 0.951 . S
H606 C626 0.950 . S
H607 C627 0.950 . S
H608 C629 0.950 . S
H609 C632 0.950 . S
H610 C633 0.950 . S
H611 C635 0.950 . S
H612 C636 0.950 . S
H613 C637 0.951 . S
H614 C639 0.951 . S
H615 C641 0.950 . S
H616 C642 0.950 . S
H617 C644 0.950 . S
H618 C647 0.950 . S
H619 C648 0.950 . S
H620 C650 0.950 . S
H621 C651 0.950 . S
C622 H604 0.951 . S
C622 C623 1.366 . S
C622 C624 1.388 . S
C623 C622 1.366 . S
C623 C627 1.385 . S
C624 H605 0.951 . S
C624 C622 1.388 . S
C624 C625 1.366 . S
C625 C624 1.366 . S
C625 C626 1.414 . S
C625 C628 1.499 . S
C626 H606 0.950 . S
C626 C625 1.414 . S
C626 C627 1.374 . S
C627 H607 0.950 . S
C627 C623 1.385 . S
C627 C626 1.374 . S
C628 C625 1.499 . S
C628 C629 1.373 . S
C628 C630 1.389 . S
C629 H608 0.950 . S
C629 C628 1.373 . S
C629 C645 1.377 . S
C630 C628 1.389 . S
C630 C631 1.524 . S
C630 C644 1.377 . S
C631 C630 1.524 . S
C631 C632 1.397 . S
C631 C636 1.363 . S
C632 H609 0.950 . S
C632 C631 1.397 . S
C632 C633 1.334 . S
C633 H610 0.950 . S
C633 C632 1.334 . S
C633 C634 1.287 . S
C634 C633 1.287 . S
C634 C635 1.524 . S
C634 H653 0.913 . S
C635 H611 0.950 . S
C635 C634 1.524 . S
C635 C636 1.415 . S
C636 H612 0.950 . S
C636 C631 1.363 . S
C636 C635 1.415 . S
C637 H613 0.951 . S
C637 C638 1.366 . S
C637 C639 1.388 . S
C638 C637 1.366 . S
C638 C642 1.385 . S
C639 H614 0.951 . S
C639 C637 1.388 . S
C639 C640 1.366 . S
C640 C639 1.366 . S
C640 C641 1.414 . S
C640 C643 1.499 . S
C641 H615 0.950 . S
C641 C640 1.414 . S
C641 C642 1.374 . S
C642 H616 0.950 . S
C642 C638 1.385 . S
C642 C641 1.374 . S
C643 C640 1.499 . S
C643 C644 1.373 . S
C643 C645 1.389 . S
C644 H617 0.950 . S
C644 C630 1.377 . S
C644 C643 1.373 . S
C645 C629 1.377 . S
C645 C643 1.389 . S
C645 C646 1.524 . S
C646 C645 1.524 . S
C646 C647 1.397 . S
C646 C651 1.363 . S
C647 H618 0.950 . S
C647 C646 1.397 . S
C647 C648 1.334 . S
C648 H619 0.950 . S
C648 C647 1.334 . S
C648 C649 1.287 . S
C649 C648 1.287 . S
C649 C650 1.524 . S
C649 H652 0.999 . S
C650 H620 0.950 . S
C650 C649 1.524 . S
C650 C651 1.415 . S
C651 H621 0.950 . S
C651 C646 1.363 . S
C651 C650 1.415 . S
H652 C649 0.999 . S
H653 C634 0.913 . S
H654 C672 0.951 . S
H655 C674 0.951 . S
H656 C676 0.950 . S
H657 C677 0.950 1_554 S
H658 C679 0.950 . S
H659 C682 0.950 . S
H660 C683 0.959 . S
H661 C685 0.950 . S
H662 C686 0.950 . S
H663 C687 0.951 . S
H664 C689 0.951 . S
H665 C691 0.950 . S
H666 C692 0.950 . S
H667 C694 0.950 . S
H668 C697 0.950 . S
H669 C698 0.950 . S
H670 C700 0.950 . S
H671 C701 0.950 . S
C672 H654 0.951 . S
C672 C673 1.366 . S
C672 C674 1.388 . S
C673 C672 1.366 . S
C673 C677 1.385 . S
C674 H655 0.951 . S
C674 C672 1.388 . S
C674 C675 1.366 . S
C675 C674 1.366 . S
C675 C676 1.414 . S
C675 C678 1.499 . S
C676 H656 0.950 . S
C676 C675 1.414 . S
C676 C677 1.374 . S
C677 H657 0.950 1_556 S
C677 C673 1.385 . S
C677 C676 1.374 . S
C678 C675 1.499 . S
C678 C679 1.373 . S
C678 C680 1.389 . S
C679 H658 0.950 . S
C679 C678 1.373 . S
C679 C695 1.377 . S
C680 C678 1.389 . S
C680 C681 1.524 . S
C680 C694 1.377 . S
C681 C680 1.524 . S
C681 C682 1.397 . S
C681 C686 1.363 . S
C682 H659 0.950 . S
C682 C681 1.397 . S
C682 C683 1.334 . S
C683 H660 0.959 . S
C683 C682 1.334 . S
C683 C684 1.287 . S
C684 C683 1.287 . S
C684 C685 1.524 . S
C684 H703 0.913 . S
C685 H661 0.950 . S
C685 C684 1.524 . S
C685 C686 1.415 . S
C686 H662 0.950 . S
C686 C681 1.363 . S
C686 C685 1.415 . S
C687 H663 0.951 . S
C687 C688 1.366 . S
C687 C689 1.388 . S
C688 C687 1.366 . S
C688 C692 1.385 . S
C689 H664 0.951 . S
C689 C687 1.388 . S
C689 C690 1.366 . S
C690 C689 1.366 . S
C690 C691 1.414 . S
C690 C693 1.499 . S
C691 H665 0.950 . S
C691 C690 1.414 . S
C691 C692 1.374 . S
C692 H666 0.950 . S
C692 C688 1.385 . S
C692 C691 1.374 . S
C693 C690 1.499 . S
C693 C694 1.373 . S
C693 C695 1.389 . S
C694 H667 0.950 . S
C694 C680 1.377 . S
C694 C693 1.373 . S
C695 C679 1.377 . S
C695 C693 1.389 . S
C695 C696 1.524 . S
C696 C695 1.524 . S
C696 C697 1.397 . S
C696 C701 1.363 . S
C697 H668 0.950 . S
C697 C696 1.397 . S
C697 C698 1.334 . S
C698 H669 0.950 . S
C698 C697 1.334 . S
C698 C699 1.287 . S
C699 C698 1.287 . S
C699 C700 1.524 . S
C699 H702 0.999 . S
C700 H670 0.950 . S
C700 C699 1.524 . S
C700 C701 1.415 . S
C701 H671 0.950 . S
C701 C696 1.363 . S
C701 C700 1.415 . S
H702 C699 0.999 . S
H703 C684 0.913 . S
H704 C722 0.951 . S
H705 C724 0.951 . S
H706 C726 0.950 . S
H707 C727 0.950 . S
H708 C729 0.950 . S
H709 C732 0.950 . S
H710 C733 0.950 . S
H711 C735 0.950 . S
H712 C736 0.950 . S
H713 C737 0.951 . S
H714 C739 0.951 . S
H715 C741 0.950 . S
H716 C742 0.950 . S
H717 C744 0.950 . S
H718 C747 0.950 . S
H719 C748 0.950 . S
H720 C750 0.950 . S
H721 C751 0.950 . S
C722 H704 0.951 . S
C722 C723 1.366 . S
C722 C724 1.388 . S
C723 C722 1.366 . S
C723 C727 1.385 . S
C724 H705 0.951 . S
C724 C722 1.388 . S
C724 C725 1.366 . S
C725 C724 1.366 . S
C725 C726 1.414 . S
C725 C728 1.499 . S
C726 H706 0.950 . S
C726 C725 1.414 . S
C726 C727 1.374 . S
C727 H707 0.950 . S
C727 C723 1.385 . S
C727 C726 1.374 . S
C728 C725 1.499 . S
C728 C729 1.373 . S
C728 C730 1.389 . S
C729 H708 0.950 . S
C729 C728 1.373 . S
C729 C745 1.377 . S
C730 C728 1.389 . S
C730 C731 1.524 . S
C730 C744 1.377 . S
C731 C730 1.524 . S
C731 C732 1.397 . S
C731 C736 1.363 . S
C732 H709 0.950 . S
C732 C731 1.397 . S
C732 C733 1.334 . S
C733 H710 0.950 . S
C733 C732 1.334 . S
C733 C734 1.287 . S
C734 C733 1.287 . S
C734 C735 1.524 . S
C734 H753 0.913 . S
C735 H711 0.950 . S
C735 C734 1.524 . S
C735 C736 1.415 . S
C736 H712 0.950 . S
C736 C731 1.363 . S
C736 C735 1.415 . S
C737 H713 0.951 . S
C737 C738 1.366 . S
C737 C739 1.388 . S
C738 C737 1.366 . S
C738 C742 1.385 . S
C739 H714 0.951 . S
C739 C737 1.388 . S
C739 C740 1.366 . S
C740 C739 1.366 . S
C740 C741 1.414 . S
C740 C743 1.499 . S
C741 H715 0.950 . S
C741 C740 1.414 . S
C741 C742 1.374 . S
C742 H716 0.950 . S
C742 C738 1.385 . S
C742 C741 1.374 . S
C743 C740 1.499 . S
C743 C744 1.373 . S
C743 C745 1.389 . S
C744 H717 0.950 . S
C744 C730 1.377 . S
C744 C743 1.373 . S
C745 C729 1.377 . S
C745 C743 1.389 . S
C745 C746 1.524 . S
C746 C745 1.524 . S
C746 C747 1.397 . S
C746 C751 1.363 . S
C747 H718 0.950 . S
C747 C746 1.397 . S
C747 C748 1.334 . S
C748 H719 0.950 . S
C748 C747 1.334 . S
C748 C749 1.287 . S
C749 C748 1.287 . S
C749 C750 1.524 . S
C749 H752 0.999 . S
C750 H720 0.950 . S
C750 C749 1.524 . S
C750 C751 1.415 . S
C751 H721 0.950 . S
C751 C746 1.363 . S
C751 C750 1.415 . S
H752 C749 0.999 . S
H753 C734 0.913 . S
H754 C772 0.951 . S
H755 C774 0.951 . S
H756 C776 0.950 . S
H757 C777 0.950 . S
H758 C779 0.950 . S
H759 C782 0.950 . S
H760 C783 0.950 . S
H761 C785 0.950 . S
H762 C786 0.950 . S
H763 C787 0.951 . S
H764 C789 0.951 . S
H765 C791 0.950 . S
H766 C792 0.950 . S
H767 C794 0.950 . S
H768 C797 0.950 . S
H769 C798 0.950 . S
H770 C800 0.950 . S
H771 C801 0.950 . S
C772 H754 0.951 . S
C772 C773 1.366 . S
C772 C774 1.388 . S
C773 C772 1.366 . S
C773 C777 1.385 . S
C774 H755 0.951 . S
C774 C772 1.388 . S
C774 C775 1.366 . S
C775 C774 1.366 . S
C775 C776 1.414 . S
C775 C778 1.499 . S
C776 H756 0.950 . S
C776 C775 1.414 . S
C776 C777 1.374 . S
C777 H757 0.950 . S
C777 C773 1.385 . S
C777 C776 1.374 . S
C778 C775 1.499 . S
C778 C779 1.373 . S
C778 C780 1.389 . S
C779 H758 0.950 . S
C779 C778 1.373 . S
C779 C795 1.377 . S
C780 C778 1.389 . S
C780 C781 1.524 . S
C780 C794 1.377 . S
C781 C780 1.524 . S
C781 C782 1.397 . S
C781 C786 1.363 . S
C782 H759 0.950 . S
C782 C781 1.397 . S
C782 C783 1.334 . S
C783 H760 0.950 . S
C783 C782 1.334 . S
C783 C784 1.287 . S
C784 C783 1.287 . S
C784 C785 1.524 . S
C784 H803 0.913 . S
C785 H761 0.950 . S
C785 C784 1.524 . S
C785 C786 1.415 . S
C786 H762 0.950 . S
C786 C781 1.363 . S
C786 C785 1.415 . S
C787 H763 0.951 . S
C787 C788 1.366 . S
C787 C789 1.388 . S
C788 C787 1.366 . S
C788 C792 1.385 . S
C789 H764 0.951 . S
C789 C787 1.388 . S
C789 C790 1.366 . S
C790 C789 1.366 . S
C790 C791 1.414 . S
C790 C793 1.499 . S
C791 H765 0.950 . S
C791 C790 1.414 . S
C791 C792 1.374 . S
C792 H766 0.950 . S
C792 C788 1.385 . S
C792 C791 1.374 . S
C793 C790 1.499 . S
C793 C794 1.373 . S
C793 C795 1.389 . S
C794 H767 0.950 . S
C794 C780 1.377 . S
C794 C793 1.373 . S
C795 C779 1.377 . S
C795 C793 1.389 . S
C795 C796 1.524 1_565 S
C796 C795 1.524 1_545 S
C796 C797 1.397 . S
C796 C801 1.363 . S
C797 H768 0.950 . S
C797 C796 1.397 . S
C797 C798 1.334 . S
C798 H769 0.950 . S
C798 C797 1.334 . S
C798 C799 1.287 . S
C799 C798 1.287 . S
C799 C800 1.524 . S
C799 H802 0.999 . S
C800 H770 0.950 . S
C800 C799 1.524 . S
C800 C801 1.415 . S
C801 H771 0.950 . S
C801 C796 1.363 . S
C801 C800 1.415 . S
H802 C799 0.999 . S
H803 C784 0.913 . S
C238 C99 1.548 . S
C223 C34 1.570 . S
C273 C7 1.553 . S
C288 C194 1.536 . S
C323 C16 1.568 . S
C338 C110 1.549 . S
C373 C25 1.551 . S
C388 C183 1.535 . S
C438 C94 1.373 . S
C423 C5 1.532 . S
C488 C187 1.567 . S
C473 C13 1.564 . S
C523 C23 1.541 . S
C538 C103 1.547 . S
C573 C32 1.525 . S
C588 C178 1.373 . S
C638 C189 1.372 . S
C623 C14 1.521 . S
C688 C105 1.372 . S
C673 C22 1.529 1_556 S
C738 C176 1.565 . S
C723 C31 1.562 . S
C773 C4 1.537 . S
C788 C92 1.544 . S
