# Generated by pormake.
# Topology rtl, (3,6)-cn, num edge types: 1
# Building blocks:
#     Node 0, Type 0, BuildingBlock: ESEHIV_clean_linker_0, # of connection points: 3
#     Node 1, Type 0, BuildingBlock: ESEHIV_clean_linker_0, # of connection points: 3
#     Node 2, Type 0, BuildingBlock: ESEHIV_clean_linker_0, # of connection points: 3
#     Node 3, Type 0, BuildingBlock: ESEHIV_clean_linker_0, # of connection points: 3
#     Node 4, Type 1, BuildingBlock: LEVNOQ01_clean_sbu_1, # of connection points: 6
#     Node 5, Type 1, BuildingBlock: LEVNOQ01_clean_sbu_1, # of connection points: 6
#     Edge 6, Type (0, 1), BuildingBlock: CIFDUS_clean_linker_0, # of connection points: 2
#     Edge 7, Type (0, 1), BuildingBlock: CIFDUS_clean_linker_0, # of connection points: 2
#     Edge 8, Type (0, 1), BuildingBlock: CIFDUS_clean_linker_0, # of connection points: 2
#     Edge 9, Type (0, 1), BuildingBlock: CIFDUS_clean_linker_0, # of connection points: 2
#     Edge 10, Type (0, 1), BuildingBlock: CIFDUS_clean_linker_0, # of connection points: 2
#     Edge 11, Type (0, 1), BuildingBlock: CIFDUS_clean_linker_0, # of connection points: 2
#     Edge 12, Type (0, 1), BuildingBlock: CIFDUS_clean_linker_0, # of connection points: 2
#     Edge 13, Type (0, 1), BuildingBlock: CIFDUS_clean_linker_0, # of connection points: 2
#     Edge 14, Type (0, 1), BuildingBlock: CIFDUS_clean_linker_0, # of connection points: 2
#     Edge 15, Type (0, 1), BuildingBlock: CIFDUS_clean_linker_0, # of connection points: 2
#     Edge 16, Type (0, 1), BuildingBlock: CIFDUS_clean_linker_0, # of connection points: 2
#     Edge 17, Type (0, 1), BuildingBlock: CIFDUS_clean_linker_0, # of connection points: 2
# Relax obj value: 0.026
# Max RMSD: 0.059
# Mean RMSD: 0.045
data_MOF--net-rtl--node1-LEVNOQ01_clean_sbu_1--node2-ESEHIV_clean_linker_0--edge1-CIFDUS_clean_linker_0
_symmetry_space_group_name_H-M    P1
_symmetry_Int_Tables_number       1
_symmetry_cell_setting            triclinic
loop_
_symmetry_equiv_pos_as_xyz
'x, y, z'
_cell_length_a     25.222962
_cell_length_b     28.553699
_cell_length_c     19.997339
_cell_angle_alpha  89.939767
_cell_angle_beta   98.651044
_cell_angle_gamma 90.776741
loop_
_atom_site_label
_atom_site_type_symbol
_atom_site_fract_x
_atom_site_fract_y
_atom_site_fract_z
_atom_type_partial_charge
H0 H 0.19743 0.94226 0.13098 0.0
H1 H 0.31223 0.83716 0.20318 0.0
H2 H 0.25637 0.84887 0.99097 0.0
C3 C 0.22336 0.91424 0.12052 0.0
C4 C 0.2247 0.90044 0.053 0.0
C5 C 0.25308 0.89038 0.17521 0.0
C6 C 0.28778 0.85473 0.16167 0.0
C7 C 0.28945 0.83995 0.09531 0.0
C8 C 0.25748 0.86259 0.04157 0.0
H9 H 0.55958 0.67635 0.51234 0.0
H10 H 0.66759 0.78093 0.45349 0.0
H11 H 0.66018 0.75704 0.66442 0.0
C12 C 0.58881 0.70425 0.52572 0.0
C13 C 0.60577 0.71473 0.59436 0.0
C14 C 0.61088 0.72769 0.47441 0.0
C15 C 0.65007 0.76261 0.49256 0.0
C16 C 0.66807 0.77319 0.56094 0.0
C17 C 0.64629 0.74882 0.61174 0.0
H18 H 0.80988 0.07039 0.97241 0.0
H19 H 0.74738 0.16189 0.11117 0.0
H20 H 0.71935 0.1921 0.8995 0.0
C21 C 0.78548 0.1 0.98122 0.0
C22 C 0.7639 0.12873 0.92651 0.0
C23 C 0.77961 0.11149 0.04823 0.0
C24 C 0.75193 0.15229 0.05995 0.0
C25 C 0.7323 0.18242 0.00682 0.0
C26 C 0.73568 0.16908 0.94024 0.0
H27 H 0.41679 0.36713 0.5359 0.0
H28 H 0.33541 0.25162 0.61565 0.0
H29 H 0.31911 0.27189 0.40074 0.0
C30 C 0.39212 0.33573 0.52756 0.0
C31 C 0.37128 0.32197 0.46095 0.0
C32 C 0.3797 0.31057 0.58378 0.0
C33 C 0.34568 0.27118 0.57279 0.0
C34 C 0.32321 0.25762 0.50703 0.0
C35 C 0.33602 0.28304 0.45132 0.0
O36 O 0.93397 0.09905 0.61531 0.0
Mg37 Mg 0.01585 0.08614 0.63022 0.0
O38 O 0.93254 0.02282 0.60858 0.0
Mg39 Mg 0.00437 0.00329 0.54882 0.0
O40 O 0.04873 0.07588 0.54444 0.0
O41 O 0.05901 0.14216 0.60576 0.0
O42 O 0.07547 0.98316 0.49048 0.0
O43 O 0.95192 0.02351 0.4473 0.0
Mg44 Mg 0.98713 0.91674 0.46165 0.0
O45 O 0.9612 0.93062 0.55122 0.0
O46 O 0.06975 0.90805 0.46704 0.0
O47 O 0.94558 0.95963 0.38344 0.0
O48 O 0.94727 0.86192 0.49707 0.0
C49 C 0.06821 0.00378 0.70642 0.0
C50 C 0.90995 0.06076 0.62172 0.0
C51 C 0.06842 0.11808 0.55441 0.0
C52 C 0.09582 0.9462 0.46987 0.0
C53 C 0.93558 0.00265 0.39125 0.0
C54 C 0.93995 0.88877 0.54661 0.0
O55 O 0.05162 0.04492 0.71418 0.0
O56 O 0.0582 0.98315 0.64922 0.0
O57 O 0.6247 0.57206 0.10699 0.0
Mg58 Mg 0.59316 0.50326 0.11122 0.0
O59 O 0.54017 0.57192 0.1163 0.0
Mg60 Mg 0.50582 0.51185 0.03832 0.0
O61 O 0.57705 0.45794 0.03196 0.0
O62 O 0.65251 0.45759 0.10737 0.0
O63 O 0.46879 0.45348 0.95903 0.0
O64 O 0.53584 0.55447 0.95223 0.0
Mg65 Mg 0.4155 0.52982 0.95355 0.0
O66 O 0.43487 0.56467 0.0431 0.0
O67 O 0.38241 0.46184 0.94995 0.0
O68 O 0.46144 0.55356 0.87856 0.0
O69 O 0.36057 0.57767 0.96823 0.0
C70 C 0.5061 0.46725 0.1853 0.0
C71 C 0.58599 0.59209 0.1276 0.0
C72 C 0.62296 0.43933 0.05553 0.0
C73 C 0.42154 0.43773 0.93879 0.0
C74 C 0.5108 0.56429 0.89376 0.0
C75 C 0.39074 0.58742 0.02451 0.0
O76 O 0.55355 0.48395 0.19427 0.0
O77 O 0.47786 0.46953 0.12679 0.0
H78 H 0.22004 0.26203 0.44732 0.0
H79 H 0.33677 0.16756 0.55004 0.0
H80 H 0.26625 0.10907 0.55864 0.0
H81 H 0.1702 0.09177 0.55655 0.0
H82 H 0.05329 0.19087 0.46738 0.0
H83 H 0.12432 0.23999 0.4318 0.0
C84 C 0.23001 0.22801 0.46959 0.0
C85 C 0.28319 0.21892 0.49821 0.0
C86 C 0.18893 0.19554 0.47702 0.0
C87 C 0.29589 0.17513 0.52793 0.0
C88 C 0.2556 0.14184 0.53302 0.0
C89 C 0.16042 0.12313 0.52677 0.0
C90 C 0.10696 0.13763 0.51352 0.0
C91 C 0.20175 0.15251 0.51046 0.0
C92 C 0.09433 0.17892 0.47691 0.0
C93 C 0.13497 0.20722 0.45742 0.0
H94 H 0.29789 0.75726 0.16467 0.0
H95 H 0.35093 0.82863 0.99557 0.0
H96 H 0.3924 0.75692 0.96376 0.0
H97 H 0.40519 0.67243 0.9769 0.0
H98 H 0.35237 0.59991 0.14433 0.0
H99 H 0.32032 0.67404 0.18552 0.0
C100 C 0.31963 0.75744 0.12183 0.0
C101 C 0.32074 0.79814 0.08199 0.0
C102 C 0.34324 0.71596 0.10366 0.0
C103 C 0.34862 0.79758 0.02624 0.0
C104 C 0.3725 0.75668 0.00818 0.0
C105 C 0.38763 0.67325 0.02324 0.0
C106 C 0.38085 0.6314 0.05784 0.0
C107 C 0.36876 0.71547 0.04541 0.0
C108 C 0.35807 0.63213 0.1175 0.0
C109 C 0.3395 0.67433 0.14053 0.0
H110 H 0.76686 0.75806 0.63018 0.0
H111 H 0.66765 0.86531 0.52694 0.0
H112 H 0.74548 0.91808 0.53232 0.0
H113 H 0.84344 0.92671 0.54445 0.0
H114 H 0.94335 0.81472 0.63183 0.0
H115 H 0.86438 0.77153 0.65744 0.0
C116 C 0.76227 0.79354 0.6109 0.0
C117 C 0.71201 0.80795 0.57798 0.0
C118 C 0.80765 0.82275 0.61136 0.0
C119 C 0.70623 0.85365 0.55222 0.0
C120 C 0.7507 0.88369 0.55517 0.0
C121 C 0.84785 0.89392 0.57211 0.0
C122 C 0.89882 0.87401 0.58715 0.0
C123 C 0.80197 0.86781 0.5817 0.0
C124 C 0.90437 0.83088 0.62097 0.0
C125 C 0.85915 0.80589 0.63451 0.0
H126 H 0.64764 0.23441 0.94433 0.0
H127 H 0.78516 0.24047 0.10169 0.0
H128 H 0.76579 0.3212 0.12571 0.0
H129 H 0.71006 0.38932 0.10452 0.0
H130 H 0.57016 0.38556 0.9509 0.0
H131 H 0.59127 0.30524 0.92144 0.0
C132 C 0.67322 0.2535 0.98384 0.0
C133 C 0.71722 0.23101 0.02198 0.0
C134 C 0.66199 0.30048 0.99744 0.0
C135 C 0.75016 0.25632 0.07284 0.0
C136 C 0.73955 0.30275 0.08614 0.0
C137 C 0.68426 0.37135 0.064 0.0
C138 C 0.63861 0.3936 0.02996 0.0
C139 C 0.69561 0.32507 0.04899 0.0
C140 C 0.60575 0.3694 0.97776 0.0
C141 C 0.61759 0.32333 0.96128 0.0
H142 H 0.23205 0.97253 0.23817 0.0
H143 H 0.24659 0.82321 0.27072 0.0
H144 H 0.21114 0.83031 0.37601 0.0
H145 H 0.15969 0.87517 0.44634 0.0
H146 H 0.1361 0.02287 0.41041 0.0
H147 H 0.1919 0.02028 0.32036 0.0
C148 C 0.228 0.94164 0.26865 0.0
C149 C 0.24151 0.89735 0.2455 0.0
C150 C 0.20536 0.94553 0.32856 0.0
C151 C 0.23722 0.85792 0.28686 0.0
C152 C 0.2163 0.86177 0.34713 0.0
C153 C 0.16796 0.90709 0.42004 0.0
C154 C 0.14282 0.94882 0.43382 0.0
C155 C 0.19798 0.90491 0.36671 0.0
C156 C 0.15469 0.99014 0.40039 0.0
C157 C 0.18607 0.98854 0.34829 0.0
H158 H 0.65512 0.67616 0.71273 0.0
H159 H 0.49971 0.69653 0.59354 0.0
H160 H 0.45742 0.65067 0.67421 0.0
H161 H 0.46411 0.60433 0.77729 0.0
H162 H 0.61824 0.58473 0.89989 0.0
H163 H 0.66145 0.63079 0.81927 0.0
C164 C 0.61196 0.67097 0.70495 0.0
C165 C 0.58068 0.68947 0.64688 0.0
C166 C 0.5877 0.64446 0.75182 0.0
C167 C 0.52482 0.6821 0.63722 0.0
C168 C 0.50054 0.65597 0.68341 0.0
C169 C 0.50724 0.60983 0.78643 0.0
C170 C 0.53788 0.59078 0.8444 0.0
C171 C 0.53159 0.63669 0.7405 0.0
C172 C 0.59366 0.59883 0.85557 0.0
C173 C 0.61838 0.62526 0.80955 0.0
H174 H 0.83091 0.14445 0.16926 0.0
H175 H 0.78984 0.01588 0.05894 0.0
H176 H 0.83442 0.97094 0.15501 0.0
H177 H 0.88457 0.96827 0.27068 0.0
H178 H 0.92147 0.09725 0.3817 0.0
H179 H 0.8774 0.14174 0.28542 0.0
C180 C 0.83064 0.10654 0.16635 0.0
C181 C 0.80645 0.08369 0.10677 0.0
C182 C 0.85539 0.08092 0.22212 0.0
C183 C 0.80837 0.03454 0.10373 0.0
C184 C 0.83359 0.00877 0.15887 0.0
C185 C 0.88287 0.00611 0.27398 0.0
C186 C 0.90648 0.02929 0.33356 0.0
C187 C 0.8572 0.03161 0.21836 0.0
C188 C 0.9036 0.07837 0.33678 0.0
C189 C 0.87853 0.10391 0.28159 0.0
H190 H 0.32436 0.31533 0.69049 0.0
H191 H 0.48028 0.34356 0.63434 0.0
H192 H 0.51022 0.37894 0.74508 0.0
H193 H 0.48864 0.40974 0.85252 0.0
H194 H 0.33137 0.38411 0.90598 0.0
H195 H 0.30618 0.33821 0.80285 0.0
C196 C 0.3653 0.32821 0.70292 0.0
C197 C 0.39981 0.32719 0.65376 0.0
C198 C 0.38209 0.34888 0.76646 0.0
C199 C 0.45254 0.34468 0.6707 0.0
C200 C 0.4698 0.36469 0.73418 0.0
C201 C 0.44942 0.39294 0.8426 0.0
C202 C 0.41184 0.40048 0.88676 0.0
C203 C 0.43447 0.36808 0.78183 0.0
C204 C 0.36095 0.37892 0.87272 0.0
C205 C 0.34638 0.35298 0.81347 0.0
H206 H 0.67649 0.71424 0.3798 0.0
H207 H 0.51026 0.70748 0.40791 0.0
H208 H 0.48644 0.67087 0.29693 0.0
H209 H 0.51461 0.63177 0.19917 0.0
H210 H 0.68131 0.63682 0.17253 0.0
H211 H 0.70272 0.68454 0.2744 0.0
C212 C 0.63485 0.70589 0.36098 0.0
C213 C 0.59536 0.71294 0.40264 0.0
C214 C 0.62149 0.68434 0.29738 0.0
C215 C 0.54163 0.70154 0.37749 0.0
C216 C 0.52793 0.68073 0.31393 0.0
C217 C 0.55546 0.64413 0.21474 0.0
C218 C 0.59641 0.62999 0.17877 0.0
C219 C 0.5678 0.67053 0.27446 0.0
C220 C 0.64902 0.64674 0.19951 0.0
C221 C 0.6614 0.67384 0.25809 0.0
H222 H 0.77979 0.04493 0.8633 0.0
H223 H 0.78104 0.19505 0.83226 0.0
H224 H 0.81213 0.18445 0.72541 0.0
H225 H 0.85334 0.13545 0.65006 0.0
H226 H 0.8678 0.987 0.68709 0.0
H227 H 0.81585 -0.00596 0.7808 0.0
C228 C 0.78675 0.07539 0.83329 0.0
C229 C 0.77747 0.12076 0.85699 0.0
C230 C 0.808 0.06943 0.77257 0.0
C231 C 0.78595 0.1595 0.81589 0.0
C232 C 0.80462 0.15364 0.75451 0.0
C233 C 0.84429 0.10433 0.67765 0.0
C234 C 0.86544 0.06099 0.66247 0.0
C235 C 0.81756 0.10909 0.73364 0.0
C236 C 0.85235 0.02093 0.69794 0.0
C237 C 0.8232 0.02507 0.75213 0.0
H238 H 0.46861 0.36064 0.45015 0.0
H239 H 0.3093 0.34262 0.33868 0.0
H240 H 0.33633 0.38567 0.24322 0.0
H241 H 0.40589 0.42915 0.19142 0.0
H242 H 0.56285 0.44987 0.30889 0.0
H243 H 0.53525 0.40645 0.40222 0.0
C244 C 0.43926 0.36671 0.40563 0.0
C245 C 0.3869 0.34835 0.40217 0.0
C246 C 0.45457 0.3924 0.35173 0.0
C247 C 0.35017 0.35567 0.3428 0.0
C248 C 0.36545 0.38068 0.28823 0.0
C249 C 0.43387 0.42435 0.23756 0.0
C250 C 0.48644 0.44281 0.24263 0.0
C251 C 0.41766 0.39928 0.2921 0.0
C252 C 0.52212 0.43624 0.30309 0.0
C253 C 0.50649 0.41121 0.35676 0.0
H254 H 0.24219 0.90921 0.92075 0.0
H255 H 0.12615 0.94263 0.05189 0.0
H256 H 0.06994 0.97937 0.95795 0.0
H257 H 0.05176 0.00075 0.83719 0.0
H258 H 0.16007 0.95599 0.7033 0.0
H259 H 0.21987 0.92303 0.79917 0.0
C260 C 0.20418 0.92343 0.92925 0.0
C261 C 0.18957 0.92312 0.99478 0.0
C262 C 0.17 0.94211 0.87391 0.0
C263 C 0.14027 0.94329 0.00346 0.0
C264 C 0.10729 0.96386 0.9492 0.0
C265 C 0.08837 0.98351 0.82921 0.0
C266 C 0.1018 0.98087 0.76362 0.0
C267 C 0.12164 0.96337 0.8842 0.0
C268 C 0.14892 0.95812 0.75345 0.0
C269 C 0.18318 0.93955 0.80824 0.0
loop_
_geom_bond_atom_site_label_1
_geom_bond_atom_site_label_2
_geom_bond_distance
_geom_bond_site_symmetry_2
_ccdc_geom_bond_type
H0 C3 0.931 . S
H1 C6 0.928 . S
H2 C8 0.930 1_556 S
C3 H0 0.931 . S
C3 C4 1.413 . S
C3 C5 1.360 . S
C4 C3 1.413 . S
C4 C8 1.429 . S
C5 C3 1.360 . S
C5 C6 1.372 . S
C6 H1 0.928 . S
C6 C5 1.372 . S
C6 C7 1.404 . S
C7 C6 1.404 . S
C7 C8 1.391 . S
C8 H2 0.930 1_554 S
C8 C4 1.429 . S
C8 C7 1.391 . S
H9 C12 0.931 . S
H10 C15 0.928 . S
H11 C17 0.930 . S
C12 H9 0.931 . S
C12 C13 1.413 . S
C12 C14 1.360 . S
C13 C12 1.413 . S
C13 C17 1.429 . S
C14 C12 1.360 . S
C14 C15 1.372 . S
C15 H10 0.928 . S
C15 C14 1.372 . S
C15 C16 1.404 . S
C16 C15 1.404 . S
C16 C17 1.391 . S
C17 H11 0.930 . S
C17 C13 1.429 . S
C17 C16 1.391 . S
H18 C21 0.931 . S
H19 C24 0.928 . S
H20 C26 0.930 . S
C21 H18 0.931 . S
C21 C22 1.413 1_554 S
C21 C23 1.360 . S
C22 C21 1.413 1_556 S
C22 C26 1.429 . S
C23 C21 1.360 . S
C23 C24 1.372 . S
C24 H19 0.928 . S
C24 C23 1.372 . S
C24 C25 1.404 . S
C25 C24 1.404 . S
C25 C26 1.391 1_554 S
C26 H20 0.930 . S
C26 C22 1.429 . S
C26 C25 1.391 1_556 S
H27 C30 0.931 . S
H28 C33 0.928 . S
H29 C35 0.930 . S
C30 H27 0.931 . S
C30 C31 1.413 . S
C30 C32 1.360 . S
C31 C30 1.413 . S
C31 C35 1.429 . S
C32 C30 1.360 . S
C32 C33 1.372 . S
C33 H28 0.928 . S
C33 C32 1.372 . S
C33 C34 1.404 . S
C34 C33 1.404 . S
C34 C35 1.391 . S
C35 H29 0.930 . S
C35 C31 1.429 . S
C35 C34 1.391 . S
O36 Mg37 1.990 1_655 S
O36 C50 1.253 . S
Mg37 O36 1.990 1_455 S
Mg37 O40 2.180 . S
Mg37 O41 2.117 . S
Mg37 O55 2.030 . S
O38 Mg39 2.072 1_655 S
O38 C50 1.260 . S
Mg39 O38 2.072 1_455 S
Mg39 O40 2.099 . S
Mg39 O42 2.079 1_545 S
Mg39 O43 2.072 1_455 S
Mg39 O45 2.099 1_445 S
Mg39 O56 2.079 1_545 S
O40 Mg37 2.180 . S
O40 Mg39 2.099 . S
O40 C51 1.279 . S
O41 Mg37 2.117 . S
O41 C51 1.250 . S
O42 Mg39 2.079 1_565 S
O42 C52 1.264 . S
O43 Mg39 2.072 1_655 S
O43 C53 1.260 . S
Mg44 O45 2.180 . S
Mg44 O46 2.030 1_655 S
Mg44 O47 1.990 . S
Mg44 O48 2.117 . S
O45 Mg39 2.099 1_665 S
O45 Mg44 2.180 . S
O45 C54 1.279 . S
O46 Mg44 2.030 1_455 S
O46 C52 1.248 . S
O47 Mg44 1.990 . S
O47 C53 1.253 1_565 S
O48 Mg44 2.117 . S
O48 C54 1.250 . S
C49 O55 1.248 1_565 S
C49 O56 1.264 . S
C50 O36 1.253 . S
C50 O38 1.260 . S
C51 O40 1.279 . S
C51 O41 1.250 . S
C52 O42 1.264 . S
C52 O46 1.248 . S
C53 O43 1.260 . S
C53 O47 1.253 1_545 S
C54 O45 1.279 . S
C54 O48 1.250 . S
O55 Mg37 2.030 . S
O55 C49 1.248 1_545 S
O56 Mg39 2.079 1_565 S
O56 C49 1.264 . S
O57 Mg58 1.990 . S
O57 C71 1.253 . S
Mg58 O57 1.990 . S
Mg58 O61 2.180 . S
Mg58 O62 2.117 . S
Mg58 O76 2.030 . S
O59 Mg60 2.072 . S
O59 C71 1.260 . S
Mg60 O59 2.072 . S
Mg60 O61 2.099 . S
Mg60 O63 2.079 1_554 S
Mg60 O64 2.072 1_554 S
Mg60 O66 2.099 . S
Mg60 O77 2.079 . S
O61 Mg58 2.180 . S
O61 Mg60 2.099 . S
O61 C72 1.279 . S
O62 Mg58 2.117 . S
O62 C72 1.250 . S
O63 Mg60 2.079 1_556 S
O63 C73 1.264 . S
O64 Mg60 2.072 1_556 S
O64 C74 1.260 . S
Mg65 O66 2.180 1_556 S
Mg65 O67 2.030 . S
Mg65 O68 1.990 . S
Mg65 O69 2.117 . S
O66 Mg60 2.099 . S
O66 Mg65 2.180 1_554 S
O66 C75 1.279 . S
O67 Mg65 2.030 . S
O67 C73 1.248 . S
O68 Mg65 1.990 . S
O68 C74 1.253 . S
O69 Mg65 2.117 . S
O69 C75 1.250 1_556 S
C70 O76 1.248 . S
C70 O77 1.264 . S
C71 O57 1.253 . S
C71 O59 1.260 . S
C72 O61 1.279 . S
C72 O62 1.250 . S
C73 O63 1.264 . S
C73 O67 1.248 . S
C74 O64 1.260 . S
C74 O68 1.253 . S
C75 O66 1.279 . S
C75 O69 1.250 1_554 S
O76 Mg58 2.030 . S
O76 C70 1.248 . S
O77 Mg60 2.079 . S
O77 C70 1.264 . S
H78 C84 0.930 . S
H79 C87 0.930 . S
H80 C88 0.930 . S
H81 C89 0.930 . S
H82 C92 0.930 . S
H83 C93 0.930 . S
C84 H78 0.930 . S
C84 C85 1.355 . S
C84 C86 1.415 . S
C85 C84 1.355 . S
C85 C87 1.419 . S
C86 C84 1.415 . S
C86 C91 1.425 . S
C86 C93 1.409 . S
C87 H79 0.930 . S
C87 C85 1.419 . S
C87 C88 1.362 . S
C88 H80 0.930 . S
C88 C87 1.362 . S
C88 C91 1.409 . S
C89 H81 0.930 . S
C89 C90 1.355 . S
C89 C91 1.415 . S
C90 C89 1.355 . S
C90 C92 1.419 . S
C91 C86 1.425 . S
C91 C88 1.409 . S
C91 C89 1.415 . S
C92 H82 0.930 . S
C92 C90 1.419 . S
C92 C93 1.362 . S
C93 H83 0.930 . S
C93 C86 1.409 . S
C93 C92 1.362 . S
H94 C100 0.930 . S
H95 C103 0.930 . S
H96 C104 0.930 . S
H97 C105 0.930 . S
H98 C108 0.935 . S
H99 C109 0.930 1_556 S
C100 H94 0.930 . S
C100 C101 1.355 . S
C100 C102 1.415 . S
C101 C100 1.355 . S
C101 C103 1.419 . S
C102 C100 1.415 . S
C102 C107 1.425 . S
C102 C109 1.409 . S
C103 H95 0.930 . S
C103 C101 1.419 . S
C103 C104 1.362 . S
C104 H96 0.930 . S
C104 C103 1.362 . S
C104 C107 1.409 . S
C105 H97 0.930 . S
C105 C106 1.355 . S
C105 C107 1.415 . S
C106 C105 1.355 . S
C106 C108 1.419 . S
C107 C102 1.425 . S
C107 C104 1.409 . S
C107 C105 1.415 . S
C108 H98 0.935 . S
C108 C106 1.419 . S
C108 C109 1.362 . S
C109 H99 0.930 1_554 S
C109 C102 1.409 . S
C109 C108 1.362 . S
H110 C116 0.930 . S
H111 C119 0.930 . S
H112 C120 0.930 . S
H113 C121 0.930 . S
H114 C124 0.924 1_455 S
H115 C125 0.930 . S
C116 H110 0.930 . S
C116 C117 1.355 . S
C116 C118 1.415 . S
C117 C116 1.355 . S
C117 C119 1.419 . S
C118 C116 1.415 . S
C118 C123 1.425 . S
C118 C125 1.409 . S
C119 H111 0.930 . S
C119 C117 1.419 . S
C119 C120 1.362 . S
C120 H112 0.930 . S
C120 C119 1.362 . S
C120 C123 1.409 . S
C121 H113 0.930 . S
C121 C122 1.355 . S
C121 C123 1.415 . S
C122 C121 1.355 . S
C122 C124 1.419 . S
C123 C118 1.425 . S
C123 C120 1.409 . S
C123 C121 1.415 . S
C124 H114 0.924 1_655 S
C124 C122 1.419 . S
C124 C125 1.362 . S
C125 H115 0.930 . S
C125 C118 1.409 . S
C125 C124 1.362 . S
H126 C132 0.930 . S
H127 C135 0.930 . S
H128 C136 0.930 . S
H129 C137 0.930 . S
H130 C140 0.930 . S
H131 C141 0.930 . S
C132 H126 0.930 . S
C132 C133 1.355 1_556 S
C132 C134 1.415 . S
C133 C132 1.355 1_554 S
C133 C135 1.419 . S
C134 C132 1.415 . S
C134 C139 1.425 1_556 S
C134 C141 1.409 . S
C135 H127 0.930 . S
C135 C133 1.419 . S
C135 C136 1.362 . S
C136 H128 0.930 . S
C136 C135 1.362 . S
C136 C139 1.409 . S
C137 H129 0.930 . S
C137 C138 1.355 . S
C137 C139 1.415 . S
C138 C137 1.355 . S
C138 C140 1.419 1_554 S
C139 C134 1.425 1_554 S
C139 C136 1.409 . S
C139 C137 1.415 . S
C140 H130 0.930 . S
C140 C138 1.419 1_556 S
C140 C141 1.362 . S
C141 H131 0.930 . S
C141 C134 1.409 . S
C141 C140 1.362 . S
H142 C148 0.930 . S
H143 C151 0.930 . S
H144 C152 0.930 . S
H145 C153 0.930 . S
H146 C156 0.930 . S
H147 C157 0.930 . S
C148 H142 0.930 . S
C148 C149 1.355 . S
C148 C150 1.415 . S
C149 C148 1.355 . S
C149 C151 1.419 . S
C150 C148 1.415 . S
C150 C155 1.425 . S
C150 C157 1.409 1_565 S
C151 H143 0.930 . S
C151 C149 1.419 . S
C151 C152 1.362 . S
C152 H144 0.930 . S
C152 C151 1.362 . S
C152 C155 1.409 . S
C153 H145 0.930 . S
C153 C154 1.355 . S
C153 C155 1.415 . S
C154 C153 1.355 . S
C154 C156 1.419 1_565 S
C155 C150 1.425 . S
C155 C152 1.409 . S
C155 C153 1.415 . S
C156 H146 0.930 . S
C156 C154 1.419 1_545 S
C156 C157 1.362 . S
C157 H147 0.930 . S
C157 C150 1.409 1_545 S
C157 C156 1.362 . S
H158 C164 0.930 . S
H159 C167 0.930 . S
H160 C168 0.930 . S
H161 C169 0.930 . S
H162 C172 0.930 . S
H163 C173 0.930 . S
C164 H158 0.930 . S
C164 C165 1.355 . S
C164 C166 1.415 . S
C165 C164 1.355 . S
C165 C167 1.419 . S
C166 C164 1.415 . S
C166 C171 1.425 . S
C166 C173 1.409 . S
C167 H159 0.930 . S
C167 C165 1.419 . S
C167 C168 1.362 . S
C168 H160 0.930 . S
C168 C167 1.362 . S
C168 C171 1.409 . S
C169 H161 0.930 . S
C169 C170 1.355 . S
C169 C171 1.415 . S
C170 C169 1.355 . S
C170 C172 1.419 . S
C171 C166 1.425 . S
C171 C168 1.409 . S
C171 C169 1.415 . S
C172 H162 0.930 . S
C172 C170 1.419 . S
C172 C173 1.362 . S
C173 H163 0.930 . S
C173 C166 1.409 . S
C173 C172 1.362 . S
H174 C180 0.930 . S
H175 C183 0.930 . S
H176 C184 0.930 . S
H177 C185 0.930 . S
H178 C188 0.930 . S
H179 C189 0.930 . S
C180 H174 0.930 . S
C180 C181 1.355 . S
C180 C182 1.415 . S
C181 C180 1.355 . S
C181 C183 1.419 . S
C182 C180 1.415 . S
C182 C187 1.425 . S
C182 C189 1.409 . S
C183 H175 0.930 . S
C183 C181 1.419 . S
C183 C184 1.362 . S
C184 H176 0.930 . S
C184 C183 1.362 . S
C184 C187 1.409 . S
C185 H177 0.930 . S
C185 C186 1.355 . S
C185 C187 1.415 . S
C186 C185 1.355 . S
C186 C188 1.419 . S
C187 C182 1.425 . S
C187 C184 1.409 . S
C187 C185 1.415 . S
C188 H178 0.930 . S
C188 C186 1.419 . S
C188 C189 1.362 . S
C189 H179 0.930 . S
C189 C182 1.409 . S
C189 C188 1.362 . S
H190 C196 0.930 . S
H191 C199 0.930 . S
H192 C200 0.930 . S
H193 C201 0.930 . S
H194 C204 0.930 . S
H195 C205 0.930 . S
C196 H190 0.930 . S
C196 C197 1.355 . S
C196 C198 1.415 . S
C197 C196 1.355 . S
C197 C199 1.419 . S
C198 C196 1.415 . S
C198 C203 1.425 . S
C198 C205 1.409 . S
C199 H191 0.930 . S
C199 C197 1.419 . S
C199 C200 1.362 . S
C200 H192 0.930 . S
C200 C199 1.362 . S
C200 C203 1.409 . S
C201 H193 0.930 . S
C201 C202 1.355 . S
C201 C203 1.415 . S
C202 C201 1.355 . S
C202 C204 1.419 . S
C203 C198 1.425 . S
C203 C200 1.409 . S
C203 C201 1.415 . S
C204 H194 0.930 . S
C204 C202 1.419 . S
C204 C205 1.362 . S
C205 H195 0.930 . S
C205 C198 1.409 . S
C205 C204 1.362 . S
H206 C212 0.930 . S
H207 C215 0.930 . S
H208 C216 0.930 . S
H209 C217 0.930 . S
H210 C220 0.930 . S
H211 C221 0.930 . S
C212 H206 0.930 . S
C212 C213 1.355 . S
C212 C214 1.415 . S
C213 C212 1.355 . S
C213 C215 1.419 . S
C214 C212 1.415 . S
C214 C219 1.425 . S
C214 C221 1.409 . S
C215 H207 0.930 . S
C215 C213 1.419 . S
C215 C216 1.362 . S
C216 H208 0.930 . S
C216 C215 1.362 . S
C216 C219 1.409 . S
C217 H209 0.930 . S
C217 C218 1.355 . S
C217 C219 1.415 . S
C218 C217 1.355 . S
C218 C220 1.419 . S
C219 C214 1.425 . S
C219 C216 1.409 . S
C219 C217 1.415 . S
C220 H210 0.930 . S
C220 C218 1.419 . S
C220 C221 1.362 . S
C221 H211 0.930 . S
C221 C214 1.409 . S
C221 C220 1.362 . S
H222 C228 0.930 . S
H223 C231 0.930 . S
H224 C232 0.930 . S
H225 C233 0.930 . S
H226 C236 0.930 1_565 S
H227 C237 0.920 1_565 S
C228 H222 0.930 . S
C228 C229 1.355 . S
C228 C230 1.415 . S
C229 C228 1.355 . S
C229 C231 1.419 . S
C230 C228 1.415 . S
C230 C235 1.425 . S
C230 C237 1.409 . S
C231 H223 0.930 . S
C231 C229 1.419 . S
C231 C232 1.362 . S
C232 H224 0.930 . S
C232 C231 1.362 . S
C232 C235 1.409 . S
C233 H225 0.930 . S
C233 C234 1.355 . S
C233 C235 1.415 . S
C234 C233 1.355 . S
C234 C236 1.419 . S
C235 C230 1.425 . S
C235 C232 1.409 . S
C235 C233 1.415 . S
C236 H226 0.930 1_545 S
C236 C234 1.419 . S
C236 C237 1.362 . S
C237 H227 0.920 1_545 S
C237 C230 1.409 . S
C237 C236 1.362 . S
H238 C244 0.930 . S
H239 C247 0.930 . S
H240 C248 0.930 . S
H241 C249 0.930 . S
H242 C252 0.930 . S
H243 C253 0.930 . S
C244 H238 0.930 . S
C244 C245 1.355 . S
C244 C246 1.415 . S
C245 C244 1.355 . S
C245 C247 1.419 . S
C246 C244 1.415 . S
C246 C251 1.425 . S
C246 C253 1.409 . S
C247 H239 0.930 . S
C247 C245 1.419 . S
C247 C248 1.362 . S
C248 H240 0.930 . S
C248 C247 1.362 . S
C248 C251 1.409 . S
C249 H241 0.930 . S
C249 C250 1.355 . S
C249 C251 1.415 . S
C250 C249 1.355 . S
C250 C252 1.419 . S
C251 C246 1.425 . S
C251 C248 1.409 . S
C251 C249 1.415 . S
C252 H242 0.930 . S
C252 C250 1.419 . S
C252 C253 1.362 . S
C253 H243 0.930 . S
C253 C246 1.409 . S
C253 C252 1.362 . S
H254 C260 0.930 . S
H255 C263 0.930 1_554 S
H256 C264 0.930 . S
H257 C265 0.930 . S
H258 C268 0.930 . S
H259 C269 0.930 . S
C260 H254 0.930 . S
C260 C261 1.355 . S
C260 C262 1.415 . S
C261 C260 1.355 . S
C261 C263 1.419 . S
C262 C260 1.415 . S
C262 C267 1.425 . S
C262 C269 1.409 . S
C263 H255 0.930 1_556 S
C263 C261 1.419 . S
C263 C264 1.362 . S
C264 H256 0.930 . S
C264 C263 1.362 . S
C264 C267 1.409 . S
C265 H257 0.930 . S
C265 C266 1.355 . S
C265 C267 1.415 . S
C266 C265 1.355 . S
C266 C268 1.419 . S
C267 C262 1.425 . S
C267 C264 1.409 . S
C267 C265 1.415 . S
C268 H258 0.930 . S
C268 C266 1.419 . S
C268 C269 1.362 . S
C269 H259 0.930 . S
C269 C262 1.409 . S
C269 C268 1.362 . S
C90 C51 1.221 . S
C85 C34 1.437 . S
C101 C7 1.470 . S
C106 C75 1.217 . S
C117 C16 1.557 . S
C122 C54 1.344 . S
C133 C25 1.555 . S
C138 C72 1.415 . S
C154 C52 1.474 . S
C149 C5 1.497 . S
C170 C74 1.525 . S
C165 C13 1.533 . S
C181 C23 1.544 . S
C186 C53 1.507 . S
C197 C32 1.498 . S
C202 C73 1.474 . S
C218 C71 1.432 . S
C213 C14 1.526 . S
C234 C50 1.523 . S
C229 C22 1.531 . S
C250 C70 1.442 . S
C245 C31 1.511 . S
C261 C4 1.490 1_556 S
C266 C49 1.457 . S
