# Generated by pormake.
# Topology tbo, (3,4)-cn, num edge types: 1
# Building blocks:
#     Node 0, Type 0, BuildingBlock: OLANEW_clean_sbu_2, # of connection points: 3
#     Node 1, Type 0, BuildingBlock: OLANEW_clean_sbu_2, # of connection points: 3
#     Node 2, Type 0, BuildingBlock: OLANEW_clean_sbu_2, # of connection points: 3
#     Node 3, Type 0, BuildingBlock: OLANEW_clean_sbu_2, # of connection points: 3
#     Node 4, Type 0, BuildingBlock: OLANEW_clean_sbu_2, # of connection points: 3
#     Node 5, Type 0, BuildingBlock: OLANEW_clean_sbu_2, # of connection points: 3
#     Node 6, Type 0, BuildingBlock: OLANEW_clean_sbu_2, # of connection points: 3
#     Node 7, Type 0, BuildingBlock: OLANEW_clean_sbu_2, # of connection points: 3
#     Node 8, Type 0, BuildingBlock: OLANEW_clean_sbu_2, # of connection points: 3
#     Node 9, Type 0, BuildingBlock: OLANEW_clean_sbu_2, # of connection points: 3
#     Node 10, Type 0, BuildingBlock: OLANEW_clean_sbu_2, # of connection points: 3
#     Node 11, Type 0, BuildingBlock: OLANEW_clean_sbu_2, # of connection points: 3
#     Node 12, Type 0, BuildingBlock: OLANEW_clean_sbu_2, # of connection points: 3
#     Node 13, Type 0, BuildingBlock: OLANEW_clean_sbu_2, # of connection points: 3
#     Node 14, Type 0, BuildingBlock: OLANEW_clean_sbu_2, # of connection points: 3
#     Node 15, Type 0, BuildingBlock: OLANEW_clean_sbu_2, # of connection points: 3
#     Node 16, Type 0, BuildingBlock: OLANEW_clean_sbu_2, # of connection points: 3
#     Node 17, Type 0, BuildingBlock: OLANEW_clean_sbu_2, # of connection points: 3
#     Node 18, Type 0, BuildingBlock: OLANEW_clean_sbu_2, # of connection points: 3
#     Node 19, Type 0, BuildingBlock: OLANEW_clean_sbu_2, # of connection points: 3
#     Node 20, Type 0, BuildingBlock: OLANEW_clean_sbu_2, # of connection points: 3
#     Node 21, Type 0, BuildingBlock: OLANEW_clean_sbu_2, # of connection points: 3
#     Node 22, Type 0, BuildingBlock: OLANEW_clean_sbu_2, # of connection points: 3
#     Node 23, Type 0, BuildingBlock: OLANEW_clean_sbu_2, # of connection points: 3
#     Node 24, Type 0, BuildingBlock: OLANEW_clean_sbu_2, # of connection points: 3
#     Node 25, Type 0, BuildingBlock: OLANEW_clean_sbu_2, # of connection points: 3
#     Node 26, Type 0, BuildingBlock: OLANEW_clean_sbu_2, # of connection points: 3
#     Node 27, Type 0, BuildingBlock: OLANEW_clean_sbu_2, # of connection points: 3
#     Node 28, Type 0, BuildingBlock: OLANEW_clean_sbu_2, # of connection points: 3
#     Node 29, Type 0, BuildingBlock: OLANEW_clean_sbu_2, # of connection points: 3
#     Node 30, Type 0, BuildingBlock: OLANEW_clean_sbu_2, # of connection points: 3
#     Node 31, Type 0, BuildingBlock: OLANEW_clean_sbu_2, # of connection points: 3
#     Node 32, Type 1, BuildingBlock: GIZVER_clean_linker_0, # of connection points: 4
#     Node 33, Type 1, BuildingBlock: GIZVER_clean_linker_0, # of connection points: 4
#     Node 34, Type 1, BuildingBlock: GIZVER_clean_linker_0, # of connection points: 4
#     Node 35, Type 1, BuildingBlock: GIZVER_clean_linker_0, # of connection points: 4
#     Node 36, Type 1, BuildingBlock: GIZVER_clean_linker_0, # of connection points: 4
#     Node 37, Type 1, BuildingBlock: GIZVER_clean_linker_0, # of connection points: 4
#     Node 38, Type 1, BuildingBlock: GIZVER_clean_linker_0, # of connection points: 4
#     Node 39, Type 1, BuildingBlock: GIZVER_clean_linker_0, # of connection points: 4
#     Node 40, Type 1, BuildingBlock: GIZVER_clean_linker_0, # of connection points: 4
#     Node 41, Type 1, BuildingBlock: GIZVER_clean_linker_0, # of connection points: 4
#     Node 42, Type 1, BuildingBlock: GIZVER_clean_linker_0, # of connection points: 4
#     Node 43, Type 1, BuildingBlock: GIZVER_clean_linker_0, # of connection points: 4
#     Node 44, Type 1, BuildingBlock: GIZVER_clean_linker_0, # of connection points: 4
#     Node 45, Type 1, BuildingBlock: GIZVER_clean_linker_0, # of connection points: 4
#     Node 46, Type 1, BuildingBlock: GIZVER_clean_linker_0, # of connection points: 4
#     Node 47, Type 1, BuildingBlock: GIZVER_clean_linker_0, # of connection points: 4
#     Node 48, Type 1, BuildingBlock: GIZVER_clean_linker_0, # of connection points: 4
#     Node 49, Type 1, BuildingBlock: GIZVER_clean_linker_0, # of connection points: 4
#     Node 50, Type 1, BuildingBlock: GIZVER_clean_linker_0, # of connection points: 4
#     Node 51, Type 1, BuildingBlock: GIZVER_clean_linker_0, # of connection points: 4
#     Node 52, Type 1, BuildingBlock: GIZVER_clean_linker_0, # of connection points: 4
#     Node 53, Type 1, BuildingBlock: GIZVER_clean_linker_0, # of connection points: 4
#     Node 54, Type 1, BuildingBlock: GIZVER_clean_linker_0, # of connection points: 4
#     Node 55, Type 1, BuildingBlock: GIZVER_clean_linker_0, # of connection points: 4
#     Edge 56, Type (0, 1), BuildingBlock: CIFDUS_clean_linker_0, # of connection points: 2
#     Edge 57, Type (0, 1), BuildingBlock: CIFDUS_clean_linker_0, # of connection points: 2
#     Edge 58, Type (0, 1), BuildingBlock: CIFDUS_clean_linker_0, # of connection points: 2
#     Edge 59, Type (0, 1), BuildingBlock: CIFDUS_clean_linker_0, # of connection points: 2
#     Edge 60, Type (0, 1), BuildingBlock: CIFDUS_clean_linker_0, # of connection points: 2
#     Edge 61, Type (0, 1), BuildingBlock: CIFDUS_clean_linker_0, # of connection points: 2
#     Edge 62, Type (0, 1), BuildingBlock: CIFDUS_clean_linker_0, # of connection points: 2
#     Edge 63, Type (0, 1), BuildingBlock: CIFDUS_clean_linker_0, # of connection points: 2
#     Edge 64, Type (0, 1), BuildingBlock: CIFDUS_clean_linker_0, # of connection points: 2
#     Edge 65, Type (0, 1), BuildingBlock: CIFDUS_clean_linker_0, # of connection points: 2
#     Edge 66, Type (0, 1), BuildingBlock: CIFDUS_clean_linker_0, # of connection points: 2
#     Edge 67, Type (0, 1), BuildingBlock: CIFDUS_clean_linker_0, # of connection points: 2
#     Edge 68, Type (0, 1), BuildingBlock: CIFDUS_clean_linker_0, # of connection points: 2
#     Edge 69, Type (0, 1), BuildingBlock: CIFDUS_clean_linker_0, # of connection points: 2
#     Edge 70, Type (0, 1), BuildingBlock: CIFDUS_clean_linker_0, # of connection points: 2
#     Edge 71, Type (0, 1), BuildingBlock: CIFDUS_clean_linker_0, # of connection points: 2
#     Edge 72, Type (0, 1), BuildingBlock: CIFDUS_clean_linker_0, # of connection points: 2
#     Edge 73, Type (0, 1), BuildingBlock: CIFDUS_clean_linker_0, # of connection points: 2
#     Edge 74, Type (0, 1), BuildingBlock: CIFDUS_clean_linker_0, # of connection points: 2
#     Edge 75, Type (0, 1), BuildingBlock: CIFDUS_clean_linker_0, # of connection points: 2
#     Edge 76, Type (0, 1), BuildingBlock: CIFDUS_clean_linker_0, # of connection points: 2
#     Edge 77, Type (0, 1), BuildingBlock: CIFDUS_clean_linker_0, # of connection points: 2
#     Edge 78, Type (0, 1), BuildingBlock: CIFDUS_clean_linker_0, # of connection points: 2
#     Edge 79, Type (0, 1), BuildingBlock: CIFDUS_clean_linker_0, # of connection points: 2
#     Edge 80, Type (0, 1), BuildingBlock: CIFDUS_clean_linker_0, # of connection points: 2
#     Edge 81, Type (0, 1), BuildingBlock: CIFDUS_clean_linker_0, # of connection points: 2
#     Edge 82, Type (0, 1), BuildingBlock: CIFDUS_clean_linker_0, # of connection points: 2
#     Edge 83, Type (0, 1), BuildingBlock: CIFDUS_clean_linker_0, # of connection points: 2
#     Edge 84, Type (0, 1), BuildingBlock: CIFDUS_clean_linker_0, # of connection points: 2
#     Edge 85, Type (0, 1), BuildingBlock: CIFDUS_clean_linker_0, # of connection points: 2
#     Edge 86, Type (0, 1), BuildingBlock: CIFDUS_clean_linker_0, # of connection points: 2
#     Edge 87, Type (0, 1), BuildingBlock: CIFDUS_clean_linker_0, # of connection points: 2
#     Edge 88, Type (0, 1), BuildingBlock: CIFDUS_clean_linker_0, # of connection points: 2
#     Edge 89, Type (0, 1), BuildingBlock: CIFDUS_clean_linker_0, # of connection points: 2
#     Edge 90, Type (0, 1), BuildingBlock: CIFDUS_clean_linker_0, # of connection points: 2
#     Edge 91, Type (0, 1), BuildingBlock: CIFDUS_clean_linker_0, # of connection points: 2
#     Edge 92, Type (0, 1), BuildingBlock: CIFDUS_clean_linker_0, # of connection points: 2
#     Edge 93, Type (0, 1), BuildingBlock: CIFDUS_clean_linker_0, # of connection points: 2
#     Edge 94, Type (0, 1), BuildingBlock: CIFDUS_clean_linker_0, # of connection points: 2
#     Edge 95, Type (0, 1), BuildingBlock: CIFDUS_clean_linker_0, # of connection points: 2
#     Edge 96, Type (0, 1), BuildingBlock: CIFDUS_clean_linker_0, # of connection points: 2
#     Edge 97, Type (0, 1), BuildingBlock: CIFDUS_clean_linker_0, # of connection points: 2
#     Edge 98, Type (0, 1), BuildingBlock: CIFDUS_clean_linker_0, # of connection points: 2
#     Edge 99, Type (0, 1), BuildingBlock: CIFDUS_clean_linker_0, # of connection points: 2
#     Edge 100, Type (0, 1), BuildingBlock: CIFDUS_clean_linker_0, # of connection points: 2
#     Edge 101, Type (0, 1), BuildingBlock: CIFDUS_clean_linker_0, # of connection points: 2
#     Edge 102, Type (0, 1), BuildingBlock: CIFDUS_clean_linker_0, # of connection points: 2
#     Edge 103, Type (0, 1), BuildingBlock: CIFDUS_clean_linker_0, # of connection points: 2
#     Edge 104, Type (0, 1), BuildingBlock: CIFDUS_clean_linker_0, # of connection points: 2
#     Edge 105, Type (0, 1), BuildingBlock: CIFDUS_clean_linker_0, # of connection points: 2
#     Edge 106, Type (0, 1), BuildingBlock: CIFDUS_clean_linker_0, # of connection points: 2
#     Edge 107, Type (0, 1), BuildingBlock: CIFDUS_clean_linker_0, # of connection points: 2
#     Edge 108, Type (0, 1), BuildingBlock: CIFDUS_clean_linker_0, # of connection points: 2
#     Edge 109, Type (0, 1), BuildingBlock: CIFDUS_clean_linker_0, # of connection points: 2
#     Edge 110, Type (0, 1), BuildingBlock: CIFDUS_clean_linker_0, # of connection points: 2
#     Edge 111, Type (0, 1), BuildingBlock: CIFDUS_clean_linker_0, # of connection points: 2
#     Edge 112, Type (0, 1), BuildingBlock: CIFDUS_clean_linker_0, # of connection points: 2
#     Edge 113, Type (0, 1), BuildingBlock: CIFDUS_clean_linker_0, # of connection points: 2
#     Edge 114, Type (0, 1), BuildingBlock: CIFDUS_clean_linker_0, # of connection points: 2
#     Edge 115, Type (0, 1), BuildingBlock: CIFDUS_clean_linker_0, # of connection points: 2
#     Edge 116, Type (0, 1), BuildingBlock: CIFDUS_clean_linker_0, # of connection points: 2
#     Edge 117, Type (0, 1), BuildingBlock: CIFDUS_clean_linker_0, # of connection points: 2
#     Edge 118, Type (0, 1), BuildingBlock: CIFDUS_clean_linker_0, # of connection points: 2
#     Edge 119, Type (0, 1), BuildingBlock: CIFDUS_clean_linker_0, # of connection points: 2
#     Edge 120, Type (0, 1), BuildingBlock: CIFDUS_clean_linker_0, # of connection points: 2
#     Edge 121, Type (0, 1), BuildingBlock: CIFDUS_clean_linker_0, # of connection points: 2
#     Edge 122, Type (0, 1), BuildingBlock: CIFDUS_clean_linker_0, # of connection points: 2
#     Edge 123, Type (0, 1), BuildingBlock: CIFDUS_clean_linker_0, # of connection points: 2
#     Edge 124, Type (0, 1), BuildingBlock: CIFDUS_clean_linker_0, # of connection points: 2
#     Edge 125, Type (0, 1), BuildingBlock: CIFDUS_clean_linker_0, # of connection points: 2
#     Edge 126, Type (0, 1), BuildingBlock: CIFDUS_clean_linker_0, # of connection points: 2
#     Edge 127, Type (0, 1), BuildingBlock: CIFDUS_clean_linker_0, # of connection points: 2
#     Edge 128, Type (0, 1), BuildingBlock: CIFDUS_clean_linker_0, # of connection points: 2
#     Edge 129, Type (0, 1), BuildingBlock: CIFDUS_clean_linker_0, # of connection points: 2
#     Edge 130, Type (0, 1), BuildingBlock: CIFDUS_clean_linker_0, # of connection points: 2
#     Edge 131, Type (0, 1), BuildingBlock: CIFDUS_clean_linker_0, # of connection points: 2
#     Edge 132, Type (0, 1), BuildingBlock: CIFDUS_clean_linker_0, # of connection points: 2
#     Edge 133, Type (0, 1), BuildingBlock: CIFDUS_clean_linker_0, # of connection points: 2
#     Edge 134, Type (0, 1), BuildingBlock: CIFDUS_clean_linker_0, # of connection points: 2
#     Edge 135, Type (0, 1), BuildingBlock: CIFDUS_clean_linker_0, # of connection points: 2
#     Edge 136, Type (0, 1), BuildingBlock: CIFDUS_clean_linker_0, # of connection points: 2
#     Edge 137, Type (0, 1), BuildingBlock: CIFDUS_clean_linker_0, # of connection points: 2
#     Edge 138, Type (0, 1), BuildingBlock: CIFDUS_clean_linker_0, # of connection points: 2
#     Edge 139, Type (0, 1), BuildingBlock: CIFDUS_clean_linker_0, # of connection points: 2
#     Edge 140, Type (0, 1), BuildingBlock: CIFDUS_clean_linker_0, # of connection points: 2
#     Edge 141, Type (0, 1), BuildingBlock: CIFDUS_clean_linker_0, # of connection points: 2
#     Edge 142, Type (0, 1), BuildingBlock: CIFDUS_clean_linker_0, # of connection points: 2
#     Edge 143, Type (0, 1), BuildingBlock: CIFDUS_clean_linker_0, # of connection points: 2
#     Edge 144, Type (0, 1), BuildingBlock: CIFDUS_clean_linker_0, # of connection points: 2
#     Edge 145, Type (0, 1), BuildingBlock: CIFDUS_clean_linker_0, # of connection points: 2
#     Edge 146, Type (0, 1), BuildingBlock: CIFDUS_clean_linker_0, # of connection points: 2
#     Edge 147, Type (0, 1), BuildingBlock: CIFDUS_clean_linker_0, # of connection points: 2
#     Edge 148, Type (0, 1), BuildingBlock: CIFDUS_clean_linker_0, # of connection points: 2
#     Edge 149, Type (0, 1), BuildingBlock: CIFDUS_clean_linker_0, # of connection points: 2
#     Edge 150, Type (0, 1), BuildingBlock: CIFDUS_clean_linker_0, # of connection points: 2
#     Edge 151, Type (0, 1), BuildingBlock: CIFDUS_clean_linker_0, # of connection points: 2
# Relax obj value: 0.018
# Max RMSD: 0.134
# Mean RMSD: 0.095
data_MOF--net-tbo--node1-OLANEW_clean_sbu_2--node2-GIZVER_clean_linker_0--edge1-CIFDUS_clean_linker_0
_symmetry_space_group_name_H-M    P1
_symmetry_Int_Tables_number       1
_symmetry_cell_setting            triclinic
loop_
_symmetry_equiv_pos_as_xyz
'x, y, z'
_cell_length_a     68.025926
_cell_length_b     70.243691
_cell_length_c     67.347363
_cell_angle_alpha  97.625456
_cell_angle_beta   87.436339
_cell_angle_gamma 98.98055
loop_
_atom_site_label
_atom_site_type_symbol
_atom_site_fract_x
_atom_site_fract_y
_atom_site_fract_z
_atom_type_partial_charge
O0 O 0.21731 0.18072 0.16779 0.0
Cd1 Cd 0.1993 0.16615 0.19602 0.0
O2 O 0.19214 0.19382 0.1588 0.0
Cd3 Cd 0.16922 0.18563 0.18128 0.0
O4 O 0.1428 0.19605 0.19618 0.0
C5 C 0.13793 0.21047 0.18898 0.0
O6 O 0.14851 0.21696 0.1738 0.0
C7 C 0.2101 0.19077 0.1563 0.0
C8 C 0.2201 0.14252 0.21535 0.0
O9 O 0.20649 0.13492 0.20289 0.0
O10 O 0.22409 0.16109 0.21841 0.0
O11 O 0.87346 0.16861 0.18171 0.0
Cd12 Cd 0.8525 0.14181 0.16201 0.0
O13 O 0.89932 0.15343 0.18251 0.0
Cd14 Cd 0.88055 0.12538 0.1744 0.0
O15 O 0.85883 0.10365 0.18739 0.0
C16 C 0.84764 0.11121 0.2008 0.0
O17 O 0.84961 0.13027 0.20432 0.0
C18 C 0.89148 0.16886 0.18622 0.0
C19 C 0.82922 0.15615 0.13587 0.0
O20 O 0.82289 0.15328 0.1536 0.0
O21 O 0.84652 0.15205 0.13038 0.0
O22 O 0.87083 0.82814 0.15151 0.0
Cd23 Cd 0.88966 0.84635 0.17994 0.0
O24 O 0.8698 0.85211 0.13366 0.0
Cd25 Cd 0.87843 0.87485 0.15855 0.0
O26 O 0.8687 0.89768 0.18054 0.0
C27 C 0.86133 0.89315 0.19726 0.0
O28 O 0.86113 0.87531 0.20126 0.0
C29 C 0.86629 0.8341 0.13553 0.0
C30 C 0.9105 0.8216 0.19737 0.0
O31 O 0.8923 0.82295 0.20225 0.0
O32 O 0.91905 0.83216 0.1844 0.0
O33 O 0.20377 0.90954 0.16704 0.0
Cd34 Cd 0.18071 0.88381 0.14844 0.0
O35 O 0.21123 0.89021 0.18795 0.0
Cd36 Cd 0.18561 0.86777 0.18118 0.0
O37 O 0.16011 0.84515 0.18426 0.0
C38 C 0.15134 0.84551 0.20134 0.0
O39 O 0.15775 0.85948 0.21558 0.0
C40 C 0.21437 0.90639 0.18099 0.0
C41 C 0.20089 0.85539 0.12732 0.0
O42 O 0.19775 0.87004 0.11909 0.0
O43 O 0.19439 0.85417 0.14529 0.0
O44 O 0.21541 0.88877 0.8681 0.0
Cd45 Cd 0.19031 0.86259 0.87837 0.0
O46 O 0.1934 0.90654 0.86084 0.0
Cd47 Cd 0.16771 0.884 0.86353 0.0
O48 O 0.14281 0.86299 0.85084 0.0
C49 C 0.14109 0.86213 0.832 0.0
O50 O 0.15392 0.87363 0.82213 0.0
C51 C 0.21143 0.90436 0.86254 0.0
C52 C 0.206 0.83425 0.89574 0.0
O53 O 0.20322 0.83241 0.87684 0.0
O54 O 0.20165 0.84961 0.9064 0.0
O55 O 0.19084 0.17562 0.91463 0.0
Cd56 Cd 0.17317 0.15644 0.88593 0.0
O57 O 0.16743 0.19388 0.92284 0.0
Cd58 Cd 0.14952 0.18508 0.89608 0.0
O59 O 0.13473 0.19749 0.87368 0.0
C60 C 0.14573 0.20995 0.86438 0.0
O61 O 0.16491 0.21334 0.86779 0.0
C62 C 0.18397 0.18886 0.92641 0.0
C63 C 0.19612 0.13026 0.86483 0.0
O64 O 0.19729 0.14772 0.86074 0.0
O65 O 0.18401 0.12506 0.87893 0.0
O66 O 0.92541 0.18533 0.93887 0.0
Cd67 Cd 0.95492 0.17161 0.92582 0.0
O68 O 0.91244 0.16557 0.91343 0.0
Cd69 Cd 0.88876 0.14983 0.89413 0.0
O70 O 0.86712 0.13124 0.87445 0.0
C71 C 0.85046 0.13652 0.87202 0.0
O72 O 0.84665 0.15318 0.88151 0.0
C73 C 0.91044 0.1786 0.92808 0.0
C74 C 0.97199 0.19231 0.89531 0.0
O75 O 0.95654 0.17944 0.89221 0.0
O76 O 0.97968 0.19515 0.91267 0.0
O77 O 0.89237 0.85884 0.83056 0.0
Cd78 Cd 0.87086 0.88211 0.84685 0.0
O79 O 0.89291 0.84537 0.8583 0.0
Cd80 Cd 0.86846 0.85651 0.87601 0.0
O81 O 0.84399 0.84733 0.89669 0.0
C82 C 0.84798 0.84037 0.9123 0.0
O83 O 0.86671 0.84022 0.9162 0.0
C84 C 0.89919 0.84714 0.84044 0.0
C85 C 0.85144 0.90355 0.82342 0.0
O86 O 0.87025 0.90758 0.82603 0.0
O87 O 0.84186 0.88902 0.83118 0.0
O88 O 0.20375 0.65759 0.6461 0.0
Cd89 Cd 0.18889 0.63612 0.67054 0.0
O90 O 0.18363 0.67979 0.65159 0.0
Cd91 Cd 0.16146 0.67017 0.67431 0.0
O92 O 0.13693 0.68149 0.69234 0.0
C93 C 0.13427 0.69821 0.68865 0.0
O94 O 0.14579 0.70633 0.67494 0.0
C95 C 0.19854 0.67341 0.64243 0.0
C96 C 0.21501 0.61212 0.68156 0.0
O97 O 0.20284 0.60611 0.66727 0.0
O98 O 0.21495 0.62941 0.69046 0.0
O99 O 0.87354 0.67498 0.6756 0.0
Cd100 Cd 0.85391 0.65198 0.65082 0.0
O101 O 0.89819 0.65797 0.67467 0.0
Cd102 Cd 0.8785 0.63145 0.66324 0.0
O103 O 0.85743 0.6069 0.6721 0.0
C104 C 0.86362 0.59711 0.68447 0.0
O105 O 0.88228 0.6014 0.68985 0.0
C106 C 0.89112 0.67359 0.68032 0.0
C107 C 0.83749 0.67298 0.62499 0.0
O108 O 0.82734 0.66666 0.6399 0.0
O109 O 0.85522 0.66901 0.62201 0.0
O110 O 0.90929 0.32678 0.65041 0.0
Cd111 Cd 0.93386 0.34758 0.67233 0.0
O112 O 0.88819 0.34605 0.66244 0.0
Cd113 Cd 0.86146 0.35992 0.66874 0.0
O114 O 0.84356 0.37824 0.68853 0.0
C115 C 0.84225 0.37484 0.70665 0.0
O116 O 0.85073 0.36058 0.7115 0.0
C117 C 0.89181 0.33113 0.65076 0.0
C118 C 0.95247 0.32803 0.69789 0.0
O119 O 0.93569 0.3337 0.70277 0.0
O120 O 0.96028 0.33128 0.68075 0.0
O121 O 0.20031 0.38915 0.65552 0.0
Cd122 Cd 0.17725 0.36377 0.6364 0.0
O123 O 0.21053 0.36625 0.66996 0.0
Cd124 Cd 0.18243 0.34655 0.6665 0.0
O125 O 0.15664 0.3328 0.68239 0.0
C126 C 0.15326 0.31466 0.6835 0.0
O127 O 0.1648 0.3033 0.67332 0.0
C128 C 0.21293 0.38369 0.66605 0.0
C129 C 0.20102 0.34064 0.61206 0.0
O130 O 0.19558 0.33707 0.6298 0.0
O131 O 0.19449 0.35466 0.60536 0.0
O132 O 0.22892 0.40158 0.37919 0.0
Cd133 Cd 0.21835 0.37339 0.39731 0.0
O134 O 0.19976 0.39308 0.36574 0.0
Cd135 Cd 0.17365 0.39156 0.34725 0.0
O136 O 0.14604 0.37781 0.33244 0.0
C137 C 0.14433 0.3764 0.31357 0.0
O138 O 0.15919 0.38432 0.30276 0.0
C139 C 0.21642 0.4043 0.36675 0.0
C140 C 0.24786 0.35861 0.41556 0.0
O141 O 0.24522 0.35477 0.39664 0.0
O142 O 0.23697 0.36988 0.4258 0.0
O143 O 0.17353 0.66382 0.40589 0.0
Cd144 Cd 0.15701 0.64518 0.37633 0.0
O145 O 0.16071 0.69048 0.40413 0.0
Cd146 Cd 0.14149 0.68049 0.37836 0.0
O147 O 0.12342 0.68799 0.35513 0.0
C148 C 0.11947 0.70526 0.35816 0.0
O149 O 0.12596 0.71639 0.37453 0.0
C150 C 0.17212 0.68139 0.41253 0.0
C151 C 0.18564 0.6282 0.35206 0.0
O152 O 0.18281 0.64566 0.35111 0.0
O153 O 0.17452 0.61839 0.36416 0.0
O154 O 0.91704 0.69158 0.42023 0.0
Cd155 Cd 0.93703 0.67069 0.39885 0.0
O156 O 0.89098 0.67421 0.40583 0.0
Cd157 Cd 0.8613 0.6618 0.39485 0.0
O158 O 0.84482 0.6408 0.37236 0.0
C159 C 0.82605 0.63602 0.3713 0.0
O160 O 0.81441 0.64423 0.38481 0.0
C161 C 0.89826 0.68849 0.41836 0.0
C162 C 0.95344 0.68863 0.36606 0.0
O163 O 0.93587 0.67886 0.36555 0.0
O164 O 0.96332 0.68985 0.38206 0.0
O165 O 0.89166 0.36649 0.33148 0.0
Cd166 Cd 0.87556 0.39209 0.35146 0.0
O167 O 0.87758 0.34095 0.34596 0.0
Cd168 Cd 0.8598 0.35171 0.3718 0.0
O169 O 0.84396 0.34045 0.39812 0.0
C170 C 0.85327 0.33076 0.40822 0.0
O171 O 0.87189 0.3292 0.40317 0.0
C172 C 0.88908 0.3483 0.3326 0.0
C173 C 0.86268 0.41844 0.32858 0.0
O174 O 0.88075 0.42065 0.33419 0.0
O175 O 0.85076 0.40375 0.33358 0.0
O176 O 0.71489 0.15972 0.65104 0.0
Cd177 Cd 0.6912 0.13863 0.67039 0.0
O178 O 0.69974 0.18553 0.65814 0.0
Cd179 Cd 0.67387 0.175 0.67642 0.0
O180 O 0.64768 0.18565 0.69164 0.0
C181 C 0.64464 0.20178 0.68667 0.0
O182 O 0.65664 0.20966 0.67315 0.0
C183 C 0.71387 0.17742 0.64949 0.0
C184 C 0.70852 0.1142 0.69206 0.0
O185 O 0.70366 0.10881 0.67378 0.0
O186 O 0.7055 0.13117 0.69995 0.0
O187 O 0.38312 0.17929 0.66796 0.0
Cd188 Cd 0.36367 0.15749 0.64214 0.0
O189 O 0.40742 0.16186 0.66719 0.0
Cd190 Cd 0.38671 0.13577 0.65662 0.0
O191 O 0.36421 0.11717 0.67259 0.0
C192 C 0.35349 0.12685 0.68471 0.0
O193 O 0.35598 0.14581 0.685 0.0
C194 C 0.40052 0.17756 0.67291 0.0
C195 C 0.3468 0.1803 0.61854 0.0
O196 O 0.33656 0.17233 0.63251 0.0
O197 O 0.36478 0.1771 0.6154 0.0
O198 O 0.37648 0.83128 0.65869 0.0
Cd199 Cd 0.38689 0.85031 0.69072 0.0
O200 O 0.35211 0.84796 0.65579 0.0
Cd201 Cd 0.35886 0.86952 0.68213 0.0
O202 O 0.35527 0.89144 0.70782 0.0
C203 C 0.35185 0.90822 0.70519 0.0
O204 O 0.35141 0.91248 0.68682 0.0
C205 C 0.36156 0.83404 0.64928 0.0
C206 C 0.41383 0.83421 0.71129 0.0
O207 O 0.39524 0.82737 0.71125 0.0
O208 O 0.41983 0.84851 0.70142 0.0
O209 O 0.69944 0.89128 0.65891 0.0
Cd210 Cd 0.68107 0.86213 0.64033 0.0
O211 O 0.6719 0.90245 0.66953 0.0
Cd212 Cd 0.6525 0.87573 0.65845 0.0
O213 O 0.63313 0.85113 0.66907 0.0
C214 C 0.62313 0.85602 0.6848 0.0
O215 O 0.62465 0.87456 0.69179 0.0
C216 C 0.69082 0.90454 0.66865 0.0
C217 C 0.70651 0.84057 0.61681 0.0
O218 O 0.69778 0.85279 0.60932 0.0
O219 O 0.70308 0.83852 0.63533 0.0
O220 O 0.71195 0.87397 0.39007 0.0
Cd221 Cd 0.69253 0.85211 0.41168 0.0
O222 O 0.68557 0.87465 0.37294 0.0
Cd223 Cd 0.66611 0.87775 0.34884 0.0
O224 O 0.63746 0.86453 0.33555 0.0
C225 C 0.63418 0.86131 0.31687 0.0
O226 O 0.6484 0.86707 0.30417 0.0
C227 C 0.70417 0.87965 0.3755 0.0
C228 C 0.7167 0.83291 0.43223 0.0
O229 O 0.71226 0.82699 0.41393 0.0
O230 O 0.70975 0.84791 0.4409 0.0
O231 O 0.6952 0.15777 0.40766 0.0
Cd232 Cd 0.67459 0.13747 0.38158 0.0
O233 O 0.68244 0.18421 0.40477 0.0
Cd234 Cd 0.66135 0.17251 0.38102 0.0
O235 O 0.64198 0.17959 0.35883 0.0
C236 C 0.63376 0.19457 0.36425 0.0
O237 O 0.63669 0.20361 0.38249 0.0
C238 C 0.69452 0.17574 0.413 0.0
C239 C 0.6971 0.11364 0.35643 0.0
O240 O 0.69633 0.13113 0.35339 0.0
O241 O 0.68705 0.1072 0.37133 0.0
O242 O 0.42039 0.20977 0.43847 0.0
Cd243 Cd 0.44245 0.18826 0.42143 0.0
O244 O 0.39737 0.1848 0.43087 0.0
Cd245 Cd 0.36719 0.16976 0.42575 0.0
O246 O 0.34547 0.15 0.40716 0.0
C247 C 0.33095 0.15587 0.39983 0.0
O248 O 0.3283 0.17406 0.40455 0.0
C249 C 0.40213 0.20238 0.43843 0.0
C250 C 0.4614 0.20479 0.38903 0.0
O251 O 0.44338 0.19617 0.38792 0.0
O252 O 0.47062 0.20536 0.40533 0.0
O253 O 0.38455 0.86266 0.33639 0.0
Cd254 Cd 0.36444 0.88515 0.35645 0.0
O255 O 0.38933 0.84839 0.36271 0.0
Cd256 Cd 0.36673 0.85803 0.38424 0.0
O257 O 0.3468 0.84342 0.40599 0.0
C258 C 0.35017 0.84537 0.42465 0.0
O259 O 0.36531 0.858 0.4318 0.0
C260 C 0.39311 0.85081 0.34445 0.0
C261 C 0.34665 0.9107 0.33656 0.0
O262 O 0.36544 0.91352 0.3394 0.0
O263 O 0.33628 0.89558 0.34253 0.0
O264 O 0.69624 0.65486 0.14146 0.0
Cd265 Cd 0.68365 0.63819 0.17048 0.0
O266 O 0.67042 0.67025 0.14018 0.0
Cd267 Cd 0.6523 0.66306 0.16665 0.0
O268 O 0.63214 0.67536 0.18959 0.0
C269 C 0.61514 0.67854 0.18486 0.0
O270 O 0.60921 0.67297 0.16641 0.0
C271 C 0.68719 0.66618 0.13317 0.0
C272 C 0.71224 0.62157 0.18858 0.0
O273 O 0.70087 0.61142 0.17516 0.0
O274 O 0.71028 0.63949 0.19318 0.0
O275 O 0.40943 0.7054 0.12474 0.0
Cd276 Cd 0.39143 0.69105 0.09424 0.0
O277 O 0.39468 0.68258 0.14193 0.0
Cd278 Cd 0.38824 0.66531 0.16697 0.0
O279 O 0.37501 0.64224 0.18471 0.0
C280 C 0.36582 0.64652 0.20114 0.0
O281 O 0.36507 0.6649 0.20754 0.0
C282 C 0.40718 0.69796 0.14106 0.0
C283 C 0.36098 0.71053 0.08454 0.0
O284 O 0.35712 0.69563 0.09399 0.0
O285 O 0.37922 0.71642 0.08003 0.0
O286 O 0.40079 0.34199 0.15171 0.0
Cd287 Cd 0.42048 0.35917 0.18 0.0
O288 O 0.38179 0.36361 0.16271 0.0
Cd289 Cd 0.35761 0.38121 0.1659 0.0
O290 O 0.34686 0.4071 0.18179 0.0
C291 C 0.32873 0.40954 0.18413 0.0
O292 O 0.31482 0.39599 0.17603 0.0
C293 C 0.38479 0.34892 0.15037 0.0
C294 C 0.44593 0.33906 0.19755 0.0
O295 O 0.42708 0.33579 0.20081 0.0
O296 O 0.45271 0.35129 0.18545 0.0
O297 O 0.7209 0.3748 0.15618 0.0
Cd298 Cd 0.69901 0.34427 0.14581 0.0
O299 O 0.7364 0.35945 0.17572 0.0
Cd300 Cd 0.71358 0.33414 0.17671 0.0
O301 O 0.69367 0.31352 0.19248 0.0
C302 C 0.67532 0.3086 0.18872 0.0
O303 O 0.66794 0.31531 0.17381 0.0
C304 C 0.73522 0.37457 0.16762 0.0
C305 C 0.7196 0.31811 0.12143 0.0
O306 O 0.72127 0.32079 0.14046 0.0
O307 O 0.70807 0.3277 0.11363 0.0
O308 O 0.73304 0.37834 0.90032 0.0
Cd309 Cd 0.71832 0.35565 0.92369 0.0
O310 O 0.70383 0.37008 0.88687 0.0
Cd311 Cd 0.67966 0.36955 0.86632 0.0
O312 O 0.65343 0.35822 0.84842 0.0
C313 C 0.65346 0.35863 0.82961 0.0
O314 O 0.6695 0.36697 0.82072 0.0
C315 C 0.7212 0.3799 0.88673 0.0
C316 C 0.74168 0.33064 0.93705 0.0
O317 O 0.73349 0.32657 0.91991 0.0
O318 O 0.73951 0.34686 0.94747 0.0
O319 O 0.69752 0.66968 0.87339 0.0
Cd320 Cd 0.6822 0.65256 0.84254 0.0
O321 O 0.67613 0.68998 0.88288 0.0
Cd322 Cd 0.65729 0.68425 0.8565 0.0
O323 O 0.63872 0.69602 0.83664 0.0
C324 C 0.6467 0.71125 0.8293 0.0
O325 O 0.66546 0.71805 0.83307 0.0
C326 C 0.69172 0.68297 0.88596 0.0
C327 C 0.70667 0.6262 0.82451 0.0
O328 O 0.70924 0.64391 0.82095 0.0
O329 O 0.69222 0.62073 0.83634 0.0
O330 O 0.35466 0.67687 0.90244 0.0
Cd331 Cd 0.37802 0.65616 0.88627 0.0
O332 O 0.33754 0.65418 0.91854 0.0
Cd333 Cd 0.35356 0.6317 0.9033 0.0
O334 O 0.35441 0.60968 0.87742 0.0
C335 C 0.33756 0.59994 0.8727 0.0
O336 O 0.322 0.60298 0.88429 0.0
C337 C 0.34061 0.67161 0.91456 0.0
C338 C 0.40324 0.67687 0.8603 0.0
O339 O 0.38739 0.66581 0.85392 0.0
O340 O 0.40733 0.67776 0.87882 0.0
O341 O 0.40214 0.36382 0.82783 0.0
Cd342 Cd 0.38026 0.38666 0.84354 0.0
O343 O 0.38748 0.33916 0.84321 0.0
Cd344 Cd 0.36911 0.35211 0.86733 0.0
O345 O 0.35427 0.34338 0.8952 0.0
C346 C 0.35837 0.32737 0.89956 0.0
O347 O 0.3708 0.31837 0.88767 0.0
C348 C 0.3999 0.34592 0.83023 0.0
C349 C 0.36449 0.40589 0.81523 0.0
O350 O 0.37932 0.41444 0.82576 0.0
O351 O 0.35719 0.38849 0.81808 0.0
H352 H 0.29386 0.30874 0.01528 0.0
H353 H 0.2492 0.25898 0.02085 0.0
H354 H 0.28342 0.26309 0.96601 0.0
H355 H 0.26902 0.31024 0.04164 0.0
H356 H 0.24773 0.29196 0.04095 0.0
H357 H 0.296 0.30999 0.06375 0.0
H358 H 0.28409 0.27286 0.10994 0.0
H359 H 0.24769 0.26224 0.05775 0.0
C360 C 0.28636 0.29454 0.00917 0.0
C361 C 0.29096 0.2868 0.98946 0.0
C362 C 0.27146 0.28445 0.0207 0.0
C363 C 0.26122 0.26642 0.01235 0.0
C364 C 0.26561 0.2585 0.99268 0.0
C365 C 0.28071 0.26864 0.98153 0.0
C366 C 0.26429 0.29423 0.04045 0.0
C367 C 0.27141 0.28659 0.0584 0.0
C368 C 0.28769 0.29716 0.06917 0.0
C369 C 0.2922 0.29222 0.08777 0.0
C370 C 0.28092 0.27612 0.09523 0.0
C371 C 0.26496 0.26495 0.08444 0.0
C372 C 0.26036 0.27028 0.06593 0.0
H373 H 0.78411 0.18677 0.02605 0.0
H374 H 0.75097 0.23315 0.02142 0.0
H375 H 0.77209 0.22531 0.07871 0.0
H376 H 0.7654 0.18651 -0.00379 0.0
H377 H 0.74844 0.20347 0.99571 0.0
H378 H 0.80159 0.19638 0.98884 0.0
H379 H 0.81552 0.24163 0.95085 0.0
H380 H 0.75891 0.23411 0.98232 0.0
C381 C 0.77774 0.19927 0.03309 0.0
C382 C 0.77968 0.20508 0.05378 0.0
C383 C 0.76709 0.20919 0.0215 0.0
C384 C 0.75877 0.22535 0.03059 0.0
C385 C 0.76046 0.23139 0.05127 0.0
C386 C 0.77086 0.22102 0.06272 0.0
C387 C 0.76387 0.20216 -0.00041 0.0
C388 C 0.77857 0.21381 0.98676 0.0
C389 C 0.7975 0.20857 0.98248 0.0
C390 C 0.8109 0.2185 0.96953 0.0
C391 C 0.80526 0.23394 0.96091 0.0
C392 C 0.78666 0.23989 0.9658 0.0
C393 C 0.77343 0.22982 0.97882 0.0
H394 H 0.73765 0.734 0.04289 0.0
H395 H 0.78367 0.78297 0.05446 0.0
H396 H 0.7827 0.73286 0.08523 0.0
H397 H 0.73389 0.7668 0.0352 0.0
H398 H 0.75415 0.78624 0.03792 0.0
H399 H 0.73113 0.74281 0.00529 0.0
H400 H 0.76627 0.75861 0.95369 0.0
H401 H 0.78108 0.78891 0.01214 0.0
C402 C 0.75136 0.7406 0.05024 0.0
C403 C 0.75909 0.73117 0.06463 0.0
C404 C 0.76051 0.75909 0.04619 0.0
C405 C 0.77758 0.7682 0.05667 0.0
C406 C 0.78567 0.75901 0.07107 0.0
C407 C 0.77672 0.74013 0.07419 0.0
C408 C 0.75032 0.77034 0.03316 0.0
C409 C 0.75583 0.76598 0.01123 0.0
C410 C 0.74378 0.75151 -0.00117 0.0
C411 C 0.74757 0.74869 0.97806 0.0
C412 C 0.7636 0.76043 0.96977 0.0
C413 C 0.77572 0.77503 0.98188 0.0
C414 C 0.77203 0.77745 0.0027 0.0
H415 H 0.2542 0.72321 0.02667 0.0
H416 H 0.221 0.77097 0.03206 0.0
H417 H 0.26931 0.77234 0.07163 0.0
H418 H 0.22042 0.71995 0.01159 0.0
H419 H 0.20832 0.74087 0.01202 0.0
H420 H 0.24894 0.71548 0.98903 0.0
H421 H 0.25884 0.74912 0.93959 0.0
H422 H 0.21896 0.76471 0.98859 0.0
C423 C 0.25169 0.73738 0.03393 0.0
C424 C 0.26384 0.74686 0.04972 0.0
C425 C 0.23636 0.74614 0.02739 0.0
C426 C 0.23314 0.76443 0.03681 0.0
C427 C 0.24483 0.7739 0.05289 0.0
C428 C 0.26031 0.76513 0.05913 0.0
C429 C 0.22311 0.73586 0.01069 0.0
C430 C 0.23278 0.73957 0.99073 0.0
C431 C 0.24592 0.72744 0.98158 0.0
C432 C 0.25529 0.73066 0.96309 0.0
C433 C 0.2516 0.74655 0.95385 0.0
C434 C 0.23851 0.75903 0.96292 0.0
C435 C 0.22925 0.75542 0.98146 0.0
H436 H 0.02942 0.24017 0.25828 0.0
H437 H 0.02997 0.29516 0.29525 0.0
H438 H 0.08159 0.28345 0.25926 0.0
H439 H 0.0057 0.24389 0.2867 0.0
H440 H 0.00618 0.26656 0.30218 0.0
H441 H 0.98809 0.23732 0.25517 0.0
H442 H 0.94294 0.27283 0.24905 0.0
H443 H 0.98737 0.29097 0.29377 0.0
C444 C 0.0369 0.25467 0.26335 0.0
C445 C 0.05643 0.26065 0.25653 0.0
C446 C 0.02722 0.26714 0.27722 0.0
C447 C 0.03724 0.28573 0.28422 0.0
C448 C 0.05687 0.29183 0.27771 0.0
C449 C 0.06616 0.27926 0.26367 0.0
C450 C 0.00723 0.25985 0.28632 0.0
C451 C 0.9902 0.2642 0.27486 0.0
C452 C 0.98175 0.25056 0.25918 0.0
C453 C 0.96445 0.25326 0.24983 0.0
C454 C 0.95609 0.27026 0.25615 0.0
C455 C 0.964 0.28375 0.27217 0.0
C456 C 0.98141 0.2809 0.28109 0.0
H457 H 0.80693 0.01662 0.27041 0.0
H458 H 0.76283 0.0179 0.31797 0.0
H459 H 0.76197 0.05345 0.27084 0.0
H460 H 0.81149 0.00443 0.30205 0.0
H461 H 0.79261 0.00396 0.32118 0.0
H462 H 0.81258 0.97704 0.27665 0.0
H463 H 0.77443 0.92385 0.28571 0.0
H464 H 0.76319 0.97779 0.31891 0.0
C465 C 0.79341 0.02157 0.27676 0.0
C466 C 0.78567 0.03618 0.26857 0.0
C467 C 0.7848 0.01448 0.29425 0.0
C468 C 0.76844 0.0223 0.30371 0.0
C469 C 0.76049 0.0369 0.29572 0.0
C470 C 0.76849 0.04276 0.27752 0.0
C471 C 0.79511 0.00116 0.30467 0.0
C472 C 0.78804 0.97992 0.29775 0.0
C473 C 0.79942 0.96947 0.28348 0.0
C474 C 0.79483 0.94915 0.27928 0.0
C475 C 0.77817 0.93951 0.28889 0.0
C476 C 0.76676 0.94962 0.30328 0.0
C477 C 0.77148 0.96993 0.30732 0.0
H478 H 0.00746 0.71784 0.2613 0.0
H479 H 0.00529 0.75484 0.21582 0.0
H480 H 0.96145 0.7536 0.26413 0.0
H481 H 0.0248 0.71259 0.22684 0.0
H482 H 0.02844 0.73209 0.21185 0.0
H483 H 0.04302 0.71484 0.25816 0.0
H484 H 0.09295 0.76042 0.26832 0.0
H485 H 0.0517 0.76199 0.22227 0.0
C486 C 0.00063 0.72873 0.2553 0.0
C487 C 0.9835 0.73486 0.26472 0.0
C488 C 0.00869 0.73606 0.23782 0.0
C489 C -0.00067 0.74963 0.22963 0.0
C490 C 0.98203 0.75595 0.2388 0.0
C491 C 0.9744 0.74856 0.2565 0.0
C492 C 0.02674 0.72869 0.22756 0.0
C493 C 0.04535 0.73741 0.2389 0.0
C494 C 0.05154 0.72833 0.25446 0.0
C495 C 0.06856 0.73669 0.26537 0.0
C496 C 0.07944 0.75419 0.26043 0.0
C497 C 0.07359 0.76331 0.24483 0.0
C498 C 0.05644 0.75491 0.23419 0.0
H499 H 0.24906 0.01038 0.26776 0.0
H500 H 0.27709 0.00282 0.32138 0.0
H501 H 0.2794 0.96103 0.26938 0.0
H502 H 0.23539 0.0207 0.30271 0.0
H503 H 0.25131 0.02294 0.32333 0.0
H504 H 0.24232 0.0433 0.27668 0.0
H505 H 0.27354 0.09964 0.29955 0.0
H506 H 0.27761 0.05 0.32912 0.0
C507 C 0.258 0.00226 0.27534 0.0
C508 C 0.2635 0.98478 0.26562 0.0
C509 C 0.26236 0.00863 0.29551 0.0
C510 C 0.27402 -0.00169 0.30566 0.0
C511 C 0.2809 0.98157 0.29584 0.0
C512 C 0.27547 0.97487 0.27599 0.0
C513 C 0.25131 0.02388 0.30696 0.0
C514 C 0.25944 0.04437 0.30304 0.0
C515 C 0.25231 0.05252 0.28724 0.0
C516 C 0.25738 0.07254 0.28559 0.0
C517 C 0.26997 0.08414 0.3 0.0
C518 C 0.27753 0.07613 0.31555 0.0
C519 C 0.27245 0.05618 0.31674 0.0
H520 H 0.98939 0.78034 0.79932 0.0
H521 H 0.987 0.72885 0.75685 0.0
H522 H 0.94747 0.77013 0.75173 0.0
H523 H 0.00371 0.75205 0.80666 0.0
H524 H 0.00252 0.73071 0.78895 0.0
H525 H 0.0304 0.77946 0.80463 0.0
H526 H 0.08262 0.76765 0.76977 0.0
H527 H 0.02778 0.72809 0.76149 0.0
C528 C 0.98328 0.77169 0.78583 0.0
C529 C 0.96757 0.77744 0.77629 0.0
C530 C 0.99058 0.75433 0.7786 0.0
C531 C 0.98207 0.74271 0.76164 0.0
C532 C 0.96635 0.74814 0.75186 0.0
C533 C 0.95966 0.76584 0.75901 0.0
C534 C 0.00548 0.74686 0.79042 0.0
C535 C 0.02667 0.75323 0.78361 0.0
C536 C 0.03756 0.77046 0.79305 0.0
C537 C 0.05774 0.77582 0.78806 0.0
C538 C 0.06685 0.76397 0.77314 0.0
C539 C 0.05624 0.74676 0.7634 0.0
C540 C 0.03607 0.74147 0.76869 0.0
H541 H 0.2797 0.014 0.82803 0.0
H542 H 0.32354 0.01479 0.77983 0.0
H543 H 0.28945 0.96067 0.79246 0.0
H544 H 0.30558 0.04217 0.82659 0.0
H545 H 0.32471 0.04209 0.80764 0.0
H546 H 0.2773 0.05751 0.82279 0.0
H547 H 0.27338 0.08503 0.77012 0.0
H548 H 0.3181 0.04851 0.77313 0.0
C549 C 0.28726 0.00639 0.81565 0.0
C550 C 0.28296 0.98605 0.81167 0.0
C551 C 0.30198 0.01686 0.80426 0.0
C552 C 0.31197 0.00683 0.78842 0.0
C553 C 0.30768 0.9865 0.7842 0.0
C554 C 0.29313 0.97631 0.79588 0.0
C555 C 0.30837 0.03836 0.81024 0.0
C556 C 0.29783 0.05053 0.79856 0.0
C557 C 0.28208 0.05967 0.80758 0.0
C558 C 0.27365 0.07273 0.79767 0.0
C559 C 0.28038 0.07558 0.77811 0.0
C560 C 0.29678 0.06747 0.76923 0.0
C561 C 0.30513 0.05454 0.77943 0.0
H562 H 0.02073 0.31056 0.78626 0.0
H563 H 0.02439 0.27809 0.83503 0.0
H564 H 0.97496 0.26258 0.79507 0.0
H565 H 0.0453 0.32205 0.81212 0.0
H566 H 0.04563 0.30938 0.83345 0.0
H567 H 0.06368 0.31279 0.7816 0.0
H568 H 0.10525 0.27268 0.78306 0.0
H569 H 0.06218 0.27999 0.83118 0.0
C570 C 0.01466 0.29858 0.79442 0.0
C571 C 0.99638 0.28719 0.78895 0.0
C572 C 0.02484 0.29507 0.81087 0.0
C573 C 0.01671 0.28005 0.82188 0.0
C574 C -0.00121 0.26797 0.81634 0.0
C575 C 0.98872 0.27172 0.79975 0.0
C576 C 0.04435 0.30734 0.81686 0.0
C577 C 0.0613 0.29755 0.80744 0.0
C578 C 0.06964 0.3022 0.78897 0.0
C579 C 0.08569 0.2935 0.78014 0.0
C580 C 0.09283 0.27942 0.78972 0.0
C581 C 0.08438 0.27426 0.80809 0.0
C582 C 0.06858 0.28345 0.81682 0.0
H583 H 0.74713 -0.00544 0.75027 0.0
H584 H 0.7782 0.9899 0.80312 0.0
H585 H 0.78034 0.94722 0.75155 0.0
H586 H 0.73564 0.0073 0.78479 0.0
H587 H 0.75178 0.0095 0.80529 0.0
H588 H 0.73882 0.03226 0.7627 0.0
H589 H 0.77882 0.08491 0.78038 0.0
H590 H 0.78295 0.03339 0.80696 0.0
C591 C 0.757 0.98726 0.75776 0.0
C592 C 0.76313 0.97002 0.74821 0.0
C593 C 0.76217 -0.00557 0.77757 0.0
C594 C 0.77463 0.98482 0.7876 0.0
C595 C 0.78172 0.9681 0.77799 0.0
C596 C 0.776 0.96087 0.75831 0.0
C597 C 0.7516 0.01011 0.78887 0.0
C598 C 0.76053 0.0303 0.78462 0.0
C599 C 0.75152 0.03989 0.77114 0.0
C600 C 0.75788 0.05973 0.76978 0.0
C601 C 0.77379 0.06964 0.78143 0.0
C602 C 0.78288 0.06034 0.79491 0.0
C603 C 0.77647 0.04054 0.79611 0.0
H604 H 0.26786 0.71187 0.50303 0.0
H605 H 0.31446 0.7598 0.49663 0.0
H606 H 0.2631 0.75035 0.45952 0.0
H607 H 0.30288 0.71263 0.51455 0.0
H608 H 0.32017 0.7346 0.51561 0.0
H609 H 0.27557 0.70857 0.53962 0.0
H610 H 0.28034 0.74896 0.59374 0.0
H611 H 0.31745 0.76161 0.54242 0.0
C612 C 0.27367 0.72474 0.49611 0.0
C613 C 0.26311 0.73 0.48074 0.0
C614 C 0.29202 0.73567 0.50218 0.0
C615 C 0.2999 0.75193 0.49258 0.0
C616 C 0.28968 0.75724 0.47695 0.0
C617 C 0.27106 0.74646 0.4716 0.0
C618 C 0.3041 0.72874 0.51733 0.0
C619 C 0.29703 0.7346 0.53851 0.0
C620 C 0.28214 0.72225 0.54781 0.0
C621 C 0.27593 0.72736 0.56774 0.0
C622 C 0.2846 0.74511 0.57819 0.0
C623 C 0.29962 0.75741 0.56922 0.0
C624 C 0.30575 0.75217 0.54935 0.0
H625 H 0.79557 0.80071 0.54565 0.0
H626 H 0.83271 0.7561 0.53769 0.0
H627 H 0.78982 0.75806 0.58663 0.0
H628 H 0.8244 0.80411 0.52392 0.0
H629 H 0.84204 0.7877 0.52319 0.0
H630 H 0.79749 0.79806 0.50029 0.0
H631 H 0.80078 0.75364 0.44987 0.0
H632 H 0.83813 0.75727 0.50038 0.0
C633 C 0.79968 0.78768 0.55024 0.0
C634 C 0.79048 0.78016 0.56723 0.0
C635 C 0.81493 0.77909 0.53962 0.0
C636 C 0.82088 0.76262 0.54593 0.0
C637 C 0.81197 0.75487 0.56297 0.0
C638 C 0.79664 0.76369 0.57335 0.0
C639 C 0.82585 0.78842 0.52255 0.0
C640 C 0.81815 0.77836 0.5026 0.0
C641 C 0.80329 0.78532 0.49304 0.0
C642 C 0.79681 0.77662 0.47388 0.0
C643 C 0.80539 0.76053 0.46461 0.0
C644 C 0.82062 0.75376 0.47384 0.0
C645 C 0.82652 0.76248 0.49304 0.0
H646 H 0.83975 0.2546 0.54622 0.0
H647 H 0.7914 0.20747 0.54734 0.0
H648 H 0.80803 0.24506 0.60165 0.0
H649 H 0.83769 0.22633 0.52058 0.0
H650 H 0.81778 0.2067 0.52099 0.0
H651 H 0.83352 0.2557 0.50574 0.0
H652 H 0.78811 0.24654 0.46148 0.0
H653 H 0.78615 0.20747 0.50577 0.0
C654 C 0.82782 0.24671 0.55445 0.0
C655 C 0.82517 0.25213 0.57516 0.0
C656 C 0.81584 0.23053 0.54439 0.0
C657 C 0.80051 0.22009 0.55505 0.0
C658 C 0.79735 0.22545 0.57569 0.0
C659 C 0.80971 0.24153 0.58557 0.0
C660 C 0.82132 0.22284 0.52319 0.0
C661 C 0.81076 0.23094 0.50767 0.0
C662 C 0.81974 0.24774 0.49956 0.0
C663 C 0.81161 0.25365 0.48291 0.0
C664 C 0.79392 0.2428 0.47494 0.0
C665 C 0.7846 0.22614 0.48305 0.0
C666 C 0.79299 0.22049 0.49962 0.0
H667 H 0.30007 0.31395 0.55231 0.0
H668 H 0.34312 0.27496 0.54504 0.0
H669 H 0.29263 0.26485 0.58531 0.0
H670 H 0.33303 0.32407 0.5384 0.0
H671 H 0.35136 0.30823 0.53594 0.0
H672 H 0.31013 0.32322 0.51173 0.0
H673 H 0.32045 0.28868 0.45529 0.0
H674 H 0.35013 0.28126 0.50799 0.0
C675 C 0.30483 0.30075 0.55572 0.0
C676 C 0.29374 0.28964 0.56941 0.0
C677 C 0.32268 0.29558 0.5471 0.0
C678 C 0.32939 0.2789 0.55195 0.0
C679 C 0.31881 0.26768 0.56593 0.0
C680 C 0.30086 0.27313 0.57437 0.0
C681 C 0.3353 0.30872 0.53395 0.0
C682 C 0.33037 0.3027 0.51221 0.0
C683 C 0.317 0.31186 0.50293 0.0
C684 C 0.31313 0.307 0.48233 0.0
C685 C 0.32305 0.29274 0.47114 0.0
C686 C 0.33628 0.28341 0.48041 0.0
C687 C 0.33963 0.28823 0.50093 0.0
H688 H 0.8172 0.51463 0.7709 0.0
H689 H 0.76858 0.52569 0.81144 0.0
H690 H 0.78158 0.55781 0.7611 0.0
H691 H 0.81609 0.50617 0.80501 0.0
H692 H 0.79589 0.5108 0.82173 0.0
H693 H 0.80723 0.47948 0.77358 0.0
H694 H 0.77489 0.42793 0.79424 0.0
H695 H 0.77409 0.48346 0.82951 0.0
C696 C 0.80452 0.5221 0.7749 0.0
C697 C 0.80069 0.5366 0.7637 0.0
C698 C 0.79286 0.51795 0.792 0.0
C699 C 0.7769 0.5282 0.79768 0.0
C700 C 0.77275 0.54275 0.78668 0.0
C701 C 0.78446 0.54643 0.76946 0.0
C702 C 0.7996 0.5052 0.80599 0.0
C703 C 0.7907 0.48402 0.80145 0.0
C704 C 0.79696 0.47266 0.78422 0.0
C705 C 0.79137 0.45236 0.78154 0.0
C706 C 0.77893 0.44359 0.79606 0.0
C707 C 0.77278 0.45459 0.81352 0.0
C708 C 0.77848 0.47486 0.81594 0.0
H709 H 0.29793 0.54055 0.70673 0.0
H710 H 0.32317 0.52907 0.7607 0.0
H711 H 0.28406 0.57176 0.76374 0.0
H712 H 0.32156 0.51826 0.70418 0.0
H713 H 0.33892 0.52235 0.72399 0.0
H714 H 0.29213 0.4923 0.70472 0.0
H715 H 0.29615 0.44622 0.73964 0.0
H716 H 0.33893 0.49859 0.74695 0.0
C717 C 0.29919 0.54311 0.72288 0.0
C718 C 0.28956 0.55755 0.73405 0.0
C719 C 0.31127 0.53264 0.73247 0.0
C720 C 0.31353 0.53668 0.7533 0.0
C721 C 0.30355 0.55058 0.76462 0.0
C722 C 0.29148 0.56077 0.75496 0.0
C723 C 0.32286 0.51811 0.72057 0.0
C724 C 0.31587 0.49781 0.72576 0.0
C725 C 0.29933 0.4865 0.71612 0.0
C726 C 0.29258 0.4676 0.72058 0.0
C727 C 0.30212 0.46038 0.73545 0.0
C728 C 0.3191 0.47115 0.74494 0.0
C729 C 0.32579 0.49002 0.74003 0.0
H730 H 0.31885 0.55824 0.27005 0.0
H731 H 0.26788 0.54611 0.30899 0.0
H732 H 0.2732 0.59445 0.27489 0.0
H733 H 0.31795 0.53307 0.29008 0.0
H734 H 0.30359 0.5362 0.31265 0.0
H735 H 0.30288 0.50992 0.26038 0.0
H736 H 0.26601 0.45942 0.27844 0.0
H737 H 0.27638 0.51199 0.3197 0.0
C738 C 0.30438 0.5613 0.27578 0.0
C739 C 0.29744 0.578 0.27125 0.0
C740 C 0.29342 0.54938 0.28894 0.0
C741 C 0.27548 0.55448 0.29776 0.0
C742 C 0.2682 0.57104 0.29317 0.0
C743 C 0.27889 0.58204 0.27913 0.0
C744 C 0.30246 0.53321 0.29607 0.0
C745 C 0.29046 0.51334 0.29046 0.0
C746 C 0.29312 0.50305 0.27139 0.0
C747 C 0.28402 0.48364 0.26686 0.0
C748 C 0.272 0.47472 0.28153 0.0
C749 C 0.26917 0.48468 0.3007 0.0
C750 C 0.27821 0.50416 0.30491 0.0
H751 H 0.78689 0.53777 0.21747 0.0
H752 H 0.82028 0.54193 0.27088 0.0
H753 H 0.77914 0.58183 0.26688 0.0
H754 H 0.81721 0.52308 0.21691 0.0
H755 H 0.83223 0.52664 0.23845 0.0
H756 H 0.79147 0.49518 0.21099 0.0
H757 H 0.79217 0.44852 0.24602 0.0
H758 H 0.82482 0.50493 0.2654 0.0
C759 C 0.79003 0.54441 0.23268 0.0
C760 C 0.7808 0.56039 0.241 0.0
C761 C 0.80431 0.53774 0.24344 0.0
C762 C 0.80906 0.5469 0.26278 0.0
C763 C 0.80025 0.56299 0.27127 0.0
C764 C 0.78587 0.56935 0.26044 0.0
C765 C 0.81658 0.52282 0.23342 0.0
C766 C 0.80859 0.50252 0.23797 0.0
C767 C 0.79599 0.48998 0.22428 0.0
C768 C 0.7904 0.47042 0.22696 0.0
C769 C 0.7965 0.46369 0.24402 0.0
C770 C 0.80874 0.47596 0.25809 0.0
C771 C 0.81491 0.49543 0.25493 0.0
H772 H 0.5366 0.23169 0.75642 0.0
H773 H 0.53827 0.28391 0.79811 0.0
H774 H 0.59074 0.27232 0.76349 0.0
H775 H 0.51152 0.23425 0.78381 0.0
H776 H 0.51266 0.25565 0.80144 0.0
H777 H 0.49593 0.23221 0.75156 0.0
H778 H 0.45475 0.27229 0.74754 0.0
H779 H 0.49658 0.28289 0.79505 0.0
C780 C 0.54461 0.24544 0.76313 0.0
C781 C 0.56465 0.251 0.75764 0.0
C782 C 0.535 0.25734 0.77768 0.0
C783 C 0.54559 0.27493 0.78667 0.0
C784 C 0.56573 0.28053 0.7816 0.0
C785 C 0.57499 0.26858 0.76688 0.0
C786 C 0.51424 0.2504 0.78519 0.0
C787 C 0.49864 0.25732 0.77383 0.0
C788 C 0.49045 0.24574 0.75667 0.0
C789 C 0.47435 0.25076 0.74712 0.0
C790 C 0.46701 0.268 0.75473 0.0
C791 C 0.47468 0.27949 0.77214 0.0
C792 C 0.49087 0.27436 0.78133 0.0
H793 H 0.50035 0.79726 0.77483 0.0
H794 H 0.50176 0.76013 0.82019 0.0
H795 H 0.4479 0.75768 0.78843 0.0
H796 H 0.52279 0.80671 0.80512 0.0
H797 H 0.52581 0.78872 0.82052 0.0
H798 H 0.53873 0.80706 0.77242 0.0
H799 H 0.58842 0.77568 0.76139 0.0
H800 H 0.54515 0.76242 0.80823 0.0
C801 C 0.49282 0.78589 0.78306 0.0
C802 C 0.4729 0.77775 0.77902 0.0
C803 C 0.50308 0.77984 0.79819 0.0
C804 C 0.49369 0.76489 0.80872 0.0
C805 C 0.47381 0.75665 0.80514 0.0
C806 C 0.46355 0.76324 0.79037 0.0
C807 C 0.523 0.79086 0.80487 0.0
C808 C 0.53988 0.78498 0.79135 0.0
C809 C 0.54672 0.79566 0.77563 0.0
C810 C 0.56439 0.79266 0.76493 0.0
C811 C 0.57463 0.77789 0.7694 0.0
C812 C 0.56776 0.76669 0.78491 0.0
C813 C 0.55019 0.77025 0.79566 0.0
H814 H 0.51711 0.7334 0.24691 0.0
H815 H 0.52516 0.79098 0.27962 0.0
H816 H 0.57301 0.77089 0.24285 0.0
H817 H 0.49546 0.74131 0.27543 0.0
H818 H 0.50027 0.76417 0.29062 0.0
H819 H 0.47883 0.73965 0.24146 0.0
H820 H 0.43143 0.77404 0.2469 0.0
H821 H 0.47996 0.78826 0.2878 0.0
C822 C 0.52614 0.7475 0.25046 0.0
C823 C 0.54586 0.7506 0.24303 0.0
C824 C 0.51857 0.76201 0.26375 0.0
C825 C 0.53076 0.77996 0.26902 0.0
C826 C 0.55039 0.78337 0.26135 0.0
C827 C 0.55769 0.76863 0.24832 0.0
C828 C 0.49892 0.75724 0.27479 0.0
C829 C 0.48163 0.76357 0.26537 0.0
C830 C 0.47246 0.75214 0.24858 0.0
C831 C 0.45433 0.75587 0.24193 0.0
C832 C 0.44568 0.77154 0.25177 0.0
C833 C 0.45483 0.78349 0.26826 0.0
C834 C 0.47294 0.77946 0.27484 0.0
H835 H 0.52887 0.30092 0.26382 0.0
H836 H 0.5268 0.2757 0.31836 0.0
H837 H 0.47454 0.26697 0.28275 0.0
H838 H 0.55486 0.31165 0.28774 0.0
H839 H 0.55231 0.3038 0.31199 0.0
H840 H 0.57291 0.29491 0.26129 0.0
H841 H 0.60651 0.25184 0.276 0.0
H842 H 0.56186 0.27202 0.31733 0.0
C843 C 0.52044 0.29226 0.27436 0.0
C844 C 0.50014 0.28495 0.27131 0.0
C845 C 0.52998 0.28895 0.29133 0.0
C846 C 0.51948 0.27749 0.30493 0.0
C847 C 0.49964 0.2689 0.30167 0.0
C848 C 0.49004 0.27292 0.28492 0.0
C849 C 0.55099 0.2986 0.29569 0.0
C850 C 0.56557 0.28461 0.28972 0.0
C851 C 0.5758 0.28477 0.27122 0.0
C852 C 0.59069 0.27306 0.26614 0.0
C853 C 0.59475 0.26058 0.27964 0.0
C854 C 0.58456 0.26015 0.29826 0.0
C855 C 0.56977 0.27206 0.30302 0.0
H856 H 0.19873 0.2114 0.12851 0.0
H857 H 0.25049 0.19261 0.14997 0.0
H858 H 0.27196 0.21259 0.12814 0.0
H859 H 0.2762 0.23763 0.1052 0.0
H860 H 0.22429 0.25716 0.08502 0.0
H861 H 0.20277 0.23438 0.10378 0.0
C862 C 0.21469 0.21146 0.1283 0.0
C863 C 0.22295 0.20063 0.14109 0.0
C864 C 0.22697 0.22318 0.11593 0.0
C865 C 0.24368 0.20082 0.14038 0.0
C866 C 0.25599 0.21232 0.12794 0.0
C867 C 0.26017 0.23682 0.10482 0.0
C868 C 0.25194 0.24922 0.09375 0.0
C869 C 0.24783 0.22393 0.11602 0.0
C870 C 0.2311 0.24771 0.09317 0.0
C871 C 0.21875 0.23479 0.10408 0.0
H872 H 0.83868 0.16419 0.09776 0.0
H873 H 0.79237 0.16659 0.14361 0.0
H874 H 0.77276 0.18125 0.12203 0.0
H875 H 0.76902 0.1941 0.09052 0.0
H876 H 0.81546 0.19236 0.04482 0.0
H877 H 0.83456 0.17643 0.06582 0.0
C878 C 0.82427 0.16785 0.10301 0.0
C879 C 0.81707 0.16435 0.12233 0.0
C880 C 0.81305 0.17636 0.09053 0.0
C881 C 0.79833 0.16915 0.12885 0.0
C882 C 0.78708 0.17756 0.11652 0.0
C883 C 0.78338 0.19034 0.08519 0.0
C884 C 0.79084 0.19454 0.06617 0.0
C885 C 0.79436 0.18137 0.09741 0.0
C886 C 0.80928 0.18918 0.05933 0.0
C887 C 0.82028 0.18017 0.07138 0.0
H888 H 0.84152 0.80131 0.14126 0.0
H889 H 0.86495 0.83651 0.09532 0.0
H890 H 0.84343 0.81518 0.07067 0.0
H891 H 0.81659 0.78755 0.0628 0.0
H892 H 0.79032 0.75589 0.11079 0.0
H893 H 0.8147 0.77435 0.13363 0.0
C894 C 0.84215 0.80416 0.12577 0.0
C895 C 0.85488 0.82036 0.12008 0.0
C896 C 0.82922 0.79236 0.11197 0.0
C897 C 0.85526 0.82408 0.10005 0.0
C898 C 0.84294 0.81191 0.08598 0.0
C899 C 0.81606 0.78469 0.07825 0.0
C900 C 0.8016 0.76993 0.08469 0.0
C901 C 0.82956 0.7962 0.09187 0.0
C902 C 0.80152 0.7665 0.10488 0.0
C903 C 0.81536 0.77732 0.1182 0.0
H904 H 0.2119 0.85087 0.08778 0.0
H905 H 0.2133 0.82541 0.14254 0.0
H906 H 0.2288 0.79892 0.12456 0.0
H907 H 0.2398 0.78176 0.09298 0.0
H908 H 0.23735 0.80628 0.03792 0.0
H909 H 0.22453 0.83443 0.05631 0.0
C910 C 0.21574 0.83961 0.09579 0.0
C911 C 0.21132 0.84005 0.11643 0.0
C912 C 0.22443 0.82423 0.0853 0.0
C913 C 0.2164 0.82535 0.12661 0.0
C914 C 0.22529 0.81019 0.11636 0.0
C915 C 0.23684 0.79347 0.08509 0.0
C916 C 0.23953 0.79202 0.06418 0.0
C917 C 0.2291 0.80934 0.09567 0.0
C918 C 0.23529 0.8071 0.05404 0.0
C919 C 0.22795 0.82315 0.06453 0.0
H920 H 0.21532 0.83489 0.93479 0.0
H921 H 0.21332 0.79878 0.87761 0.0
H922 H 0.22386 0.77266 0.89314 0.0
H923 H 0.23219 0.75949 0.92323 0.0
H924 H 0.23477 0.79584 0.98028 0.0
H925 H 0.22531 0.82232 0.96455 0.0
C926 C 0.21727 0.82135 0.92569 0.0
C927 C 0.21343 0.81881 0.90507 0.0
C928 C 0.22332 0.80634 0.93472 0.0
C929 C 0.21614 0.80116 0.89352 0.0
C930 C 0.22214 0.78618 0.9024 0.0
C931 C 0.23099 0.77329 0.93218 0.0
C932 C 0.23407 0.77556 0.95296 0.0
C933 C 0.22561 0.78854 0.92302 0.0
C934 C 0.23217 0.79352 0.96433 0.0
C935 C 0.22685 0.80873 0.95533 0.0
H936 H 0.22328 0.1891 0.93317 0.0
H937 H 0.17165 0.21388 0.95723 0.0
H938 H 0.1922 0.23603 0.98171 0.0
H939 H 0.22526 0.25109 0.99343 0.0
H940 H 0.27719 0.22738 0.96871 0.0
H941 H 0.2561 0.20205 0.94744 0.0
C942 C 0.21646 0.19909 0.94401 0.0
C943 C 0.19597 0.19994 0.94319 0.0
C944 C 0.22846 0.21214 0.95781 0.0
C945 C 0.1874 0.21302 0.95736 0.0
C946 C 0.19915 0.22573 0.97137 0.0
C947 C 0.23193 0.24006 0.98381 0.0
C948 C 0.25277 0.24116 0.98259 0.0
C949 C 0.21977 0.22582 0.97134 0.0
C950 C 0.26119 0.22694 0.96977 0.0
C951 C 0.24914 0.21247 0.9576 0.0
H952 H 0.89501 0.1906 0.96455 0.0
H953 H 0.88325 0.18348 0.90141 0.0
H954 H 0.85167 0.19577 0.90856 0.0
H955 H 0.8272 0.20844 0.9329 0.0
H956 H 0.83844 0.21453 -0.00393 0.0
H957 H 0.87048 0.20301 0.98886 0.0
C958 C 0.88549 0.19174 0.95239 0.0
C959 C 0.89124 0.1858 0.93252 0.0
C960 C 0.86734 0.19878 0.95664 0.0
C961 C 0.87885 0.18739 0.91687 0.0
C962 C 0.8609 0.19463 0.92094 0.0
C963 C 0.8368 0.20738 0.94502 0.0
C964 C 0.83063 0.2124 0.96495 0.0
C965 C 0.85497 0.20034 0.94077 0.0
C966 C 0.84297 0.21072 0.98061 0.0
C967 C 0.86124 0.20413 0.97649 0.0
H968 H 0.85152 0.82519 0.94699 0.0
H969 H 0.80807 0.8334 0.90531 0.0
H970 H 0.7819 0.81455 0.92366 0.0
H971 H 0.7716 0.79427 0.9504 0.0
H972 H 0.81468 0.78602 0.99228 0.0
H973 H 0.84074 0.80651 0.97511 0.0
C974 C 0.8363 0.82299 0.94199 0.0
C975 C 0.83184 0.8306 0.92466 0.0
C976 C 0.82128 0.81205 0.9526 0.0
C977 C 0.81199 0.82771 0.91854 0.0
C978 C 0.797 0.81686 0.92899 0.0
C979 C 0.78672 0.79695 0.95574 0.0
C980 C 0.79131 0.78844 0.9724 0.0
C981 C 0.80153 0.80871 0.94582 0.0
C982 C 0.81083 0.79239 0.97947 0.0
C983 C 0.82571 0.80403 0.96961 0.0
H984 H 0.11057 0.19955 0.21811 0.0
H985 H 0.12861 0.24464 0.18033 0.0
H986 H 0.10371 0.26322 0.19662 0.0
H987 H 0.07847 0.26793 0.22314 0.0
H988 H 0.0601 0.22327 0.26114 0.0
H989 H 0.08306 0.20312 0.24297 0.0
C990 C 0.10895 0.21338 0.21336 0.0
C991 C 0.12164 0.22076 0.19816 0.0
C992 C 0.09447 0.22407 0.22279 0.0
C993 C 0.11917 0.23861 0.19205 0.0
C994 C 0.10491 0.2493 0.20136 0.0
C995 C 0.07935 0.25368 0.22727 0.0
C996 C 0.06772 0.24714 0.2435 0.0
C997 C 0.09273 0.24233 0.21696 0.0
C998 C 0.0688 0.22857 0.24859 0.0
C999 C 0.08207 0.21712 0.23833 0.0
H1000 H 0.84101 0.07142 0.19967 0.0
H1001 H 0.82318 0.12411 0.23078 0.0
H1002 H 0.80229 0.10547 0.25377 0.0
H1003 H 0.79067 0.07491 0.26642 0.0
H1004 H 0.80686 0.02149 0.23553 0.0
H1005 H 0.82713 0.03982 0.21134 0.0
C1006 C 0.83241 0.07878 0.21138 0.0
C1007 C 0.83382 0.0992 0.21351 0.0
C1008 C 0.8203 0.06791 0.22472 0.0
C1009 C 0.82252 0.10847 0.22876 0.0
C1010 C 0.81055 0.09782 0.24199 0.0
C1011 C 0.79813 0.06706 0.25412 0.0
C1012 C 0.79698 0.04674 0.25276 0.0
C1013 C 0.80951 0.07761 0.24025 0.0
C1014 C 0.8075 0.03711 0.23706 0.0
C1015 C 0.81904 0.04759 0.22317 0.0
H1016 H 0.95054 0.82092 0.19706 0.0
H1017 H 0.89425 0.79156 0.21751 0.0
H1018 H 0.9113 0.76853 0.23158 0.0
H1019 H 0.94199 0.75642 0.23768 0.0
H1020 H -0.00136 0.787 0.21947 0.0
H1021 H 0.9816 0.8095 0.20453 0.0
C1022 C 0.94201 0.80948 0.2046 0.0
C1023 C 0.92113 0.80796 0.20619 0.0
C1024 C 0.95196 0.79639 0.21293 0.0
C1025 C 0.91033 0.79313 0.21613 0.0
C1026 C 0.92007 0.7799 0.22414 0.0
C1027 C 0.95072 0.76817 0.23076 0.0
C1028 C 0.97166 0.76989 0.22979 0.0
C1029 C 0.94087 0.7814 0.22265 0.0
C1030 C 0.98253 0.78502 0.22023 0.0
C1031 C 0.97279 0.79804 0.2118 0.0
H1032 H 0.20617 0.94107 0.19778 0.0
H1033 H 0.2534 0.90636 0.18809 0.0
H1034 H 0.2747 0.9303 0.21078 0.0
H1035 H 0.27806 0.95876 0.23637 0.0
H1036 H 0.22731 0.98888 0.25082 0.0
H1037 H 0.2099 0.96998 0.2227 0.0
C1038 C 0.22133 0.93909 0.20028 0.0
C1039 C 0.2284 0.92224 0.19126 0.0
C1040 C 0.2329 0.95219 0.21429 0.0
C1041 C 0.24782 0.9194 0.19488 0.0
C1042 C 0.2599 0.93301 0.20789 0.0
C1043 C 0.26314 0.9612 0.23362 0.0
C1044 C 0.25424 0.97534 0.24625 0.0
C1045 C 0.2523 0.94908 0.21828 0.0
C1046 C 0.2351 0.97857 0.24152 0.0
C1047 C 0.2248 0.96745 0.22547 0.0
H1048 H 0.11043 0.83818 0.8477 0.0
H1049 H 0.1367 0.85438 0.79162 0.0
H1050 H 0.11234 0.83014 0.77318 0.0
H1051 H 0.08466 0.80322 0.7728 0.0
H1052 H 0.05844 0.78653 0.8286 0.0
H1053 H 0.08135 0.81232 0.84727 0.0
C1054 C 0.11077 0.83646 0.83145 0.0
C1055 C 0.12551 0.84799 0.82109 0.0
C1056 C 0.09665 0.82245 0.82086 0.0
C1057 C 0.12561 0.84567 0.80002 0.0
C1058 C 0.11167 0.83179 0.78942 0.0
C1059 C 0.08392 0.8053 0.78905 0.0
C1060 C 0.06995 0.79292 0.79929 0.0
C1061 C 0.0973 0.81994 0.79967 0.0
C1062 C 0.06894 0.79597 0.82035 0.0
C1063 C 0.08216 0.8106 0.83104 0.0
H1064 H 0.2253 0.13844 0.83716 0.0
H1065 H 0.19495 0.09145 0.86747 0.0
H1066 H 0.21581 0.06925 0.84913 0.0
H1067 H 0.24297 0.06328 0.82444 0.0
H1068 H 0.27387 0.11125 0.79571 0.0
H1069 H 0.25231 0.13273 0.8132 0.0
C1070 C 0.22317 0.12333 0.83975 0.0
C1071 C 0.20856 0.11665 0.85366 0.0
C1072 C 0.23527 0.11072 0.82929 0.0
C1073 C 0.20611 0.09702 0.85686 0.0
C1074 C 0.21803 0.08429 0.84636 0.0
C1075 C 0.24501 0.07843 0.82205 0.0
C1076 C 0.25986 0.08543 0.80843 0.0
C1077 C 0.23272 0.091 0.83255 0.0
C1078 C 0.26223 0.10518 0.80558 0.0
C1079 C 0.25002 0.11762 0.81576 0.0
H1080 H 0.95123 0.20779 0.86998 0.0
H1081 H 0.01094 0.20386 0.88607 0.0
H1082 H 0.0245 0.2252 0.86118 0.0
H1083 H 0.01926 0.24585 0.83607 0.0
H1084 H 0.9594 0.254 0.82408 0.0
H1085 H 0.94602 0.22953 0.84551 0.0
C1086 C 0.9672 0.21149 0.86783 0.0
C1087 C 0.98013 0.20425 0.87963 0.0
C1088 C 0.97483 0.22443 0.85418 0.0
C1089 C 0.00078 0.20934 0.87709 0.0
C1090 C 0.0085 0.2215 0.86289 0.0
C1091 C 0.00327 0.24262 0.83831 0.0
C1092 C 0.99047 0.25205 0.82841 0.0
C1093 C 0.99564 0.22937 0.8516 0.0
C1094 C 0.96975 0.24691 0.8311 0.0
C1095 C 0.96203 0.23303 0.8436 0.0
H1096 H 0.81459 0.91322 0.83157 0.0
H1097 H 0.86518 0.92188 0.79115 0.0
H1098 H 0.84815 0.9426 0.77336 0.0
H1099 H 0.81859 0.95821 0.76924 0.0
H1100 H 0.76941 0.95182 0.81162 0.0
H1101 H 0.78611 0.93046 0.82883 0.0
C1102 C 0.82181 0.91957 0.81879 0.0
C1103 C 0.84099 0.91582 0.81249 0.0
C1104 C 0.81221 0.93202 0.80912 0.0
C1105 C 0.85038 0.92448 0.7962 0.0
C1106 C 0.84065 0.93634 0.78605 0.0
C1107 C 0.81168 0.95222 0.78234 0.0
C1108 C 0.79285 0.95657 0.78922 0.0
C1109 C 0.82157 0.94024 0.79239 0.0
C1110 C 0.78399 0.9488 0.80621 0.0
C1111 C 0.79348 0.9365 0.81596 0.0
H1112 H 0.20559 0.10723 0.22704 0.0
H1113 H 0.25796 0.15075 0.22877 0.0
H1114 H 0.27484 0.13182 0.24872 0.0
H1115 H 0.27422 0.10379 0.26683 0.0
H1116 H 0.22019 0.06247 0.26899 0.0
H1117 H 0.20486 0.07919 0.24579 0.0
C1118 C 0.22077 0.11244 0.23163 0.0
C1119 C 0.23055 0.13033 0.22639 0.0
C1120 C 0.23015 0.10181 0.24373 0.0
C1121 C 0.25011 0.13705 0.23266 0.0
C1122 C 0.25976 0.12623 0.24405 0.0
C1123 C 0.259 0.09846 0.26252 0.0
C1124 C 0.2485 0.0818 0.26997 0.0
C1125 C 0.24982 0.10874 0.24995 0.0
C1126 C 0.22896 0.07497 0.26343 0.0
C1127 C 0.22 0.0847 0.25028 0.0
H1128 H 0.20833 0.94016 0.85257 0.0
H1129 H 0.25119 0.90208 0.85867 0.0
H1130 H 0.27738 0.92483 0.84485 0.0
H1131 H 0.28758 0.95418 0.82855 0.0
H1132 H 0.24497 0.99227 0.82216 0.0
H1133 H 0.21925 0.97101 0.83886 0.0
C1134 C 0.22344 0.93691 0.85107 0.0
C1135 C 0.2277 0.91929 0.85646 0.0
C1136 C 0.23845 0.95002 0.843 0.0
C1137 C 0.24742 0.91545 0.85458 0.0
C1138 C 0.26242 0.92843 0.84662 0.0
C1139 C 0.27267 0.95786 0.83094 0.0
C1140 C 0.26806 0.97461 0.82394 0.0
C1141 C 0.25801 0.94553 0.84037 0.0
C1142 C 0.24884 0.97945 0.82744 0.0
C1143 C 0.23413 0.96724 0.83687 0.0
H1144 H 0.10637 0.21073 0.85833 0.0
H1145 H 0.16569 0.23623 0.8415 0.0
H1146 H 0.15195 0.25792 0.82235 0.0
H1147 H 0.12333 0.27087 0.81177 0.0
H1148 H 0.06386 0.24546 0.82809 0.0
H1149 H 0.07746 0.22278 0.84629 0.0
C1150 C 0.11629 0.22091 0.85032 0.0
C1151 C 0.13705 0.22186 0.85144 0.0
C1152 C 0.10828 0.23353 0.83942 0.0
C1153 C 0.14966 0.23519 0.84099 0.0
C1154 C 0.14183 0.24765 0.83004 0.0
C1155 C 0.11329 0.26017 0.81901 0.0
C1156 C 0.09259 0.25992 0.81853 0.0
C1157 C 0.12119 0.24711 0.82934 0.0
C1158 C 0.07987 0.24618 0.8284 0.0
C1159 C 0.08763 0.23311 0.83873 0.0
H1160 H 0.85319 0.10084 0.85144 0.0
H1161 H 0.81445 0.14454 0.86219 0.0
H1162 H 0.79023 0.12469 0.83947 0.0
H1163 H 0.78009 0.09517 0.81647 0.0
H1164 H 0.81848 0.0513 0.80539 0.0
H1165 H 0.84275 0.0709 0.82857 0.0
C1166 C 0.83945 0.10603 0.84882 0.0
C1167 C 0.83569 0.12421 0.85847 0.0
C1168 C 0.82553 0.09452 0.83573 0.0
C1169 C 0.81776 0.13065 0.85497 0.0
C1170 C 0.80389 0.11931 0.84196 0.0
C1171 C 0.79388 0.08998 0.81896 0.0
C1172 C 0.79763 0.07194 0.80904 0.0
C1173 C 0.80767 0.10129 0.83221 0.0
C1174 C 0.81528 0.06515 0.81285 0.0
C1175 C 0.82916 0.07638 0.82603 0.0
H1176 H 0.91423 0.84339 0.80167 0.0
H1177 H 0.91797 0.82322 0.85906 0.0
H1178 H 0.9407 0.80139 0.84471 0.0
H1179 H 0.95764 0.7861 0.81557 0.0
H1180 H 0.95422 0.80554 0.7579 0.0
H1181 H 0.93341 0.82948 0.77264 0.0
C1182 C 0.92014 0.83434 0.81106 0.0
C1183 C 0.91414 0.83492 0.83141 0.0
C1184 C 0.93328 0.82157 0.80266 0.0
C1185 C 0.92208 0.82306 0.84333 0.0
C1186 C 0.93517 0.81052 0.83514 0.0
C1187 C 0.95278 0.79588 0.80628 0.0
C1188 C 0.95752 0.79397 0.78565 0.0
C1189 C 0.94064 0.80943 0.81479 0.0
C1190 C 0.95068 0.80656 0.77381 0.0
C1191 C 0.93876 0.82026 0.78223 0.0
H1192 H 0.84627 0.8884 0.23454 0.0
H1193 H 0.85353 0.92907 0.19108 0.0
H1194 H 0.83417 0.95041 0.21281 0.0
H1195 H 0.81346 0.9566 0.24349 0.0
H1196 H 0.80711 0.9158 0.28684 0.0
H1197 H 0.82762 0.89546 0.26575 0.0
C1198 C 0.84375 0.90199 0.22983 0.0
C1199 C 0.85124 0.90702 0.21113 0.0
C1200 C 0.83253 0.91412 0.24231 0.0
C1201 C 0.84793 0.92479 0.20539 0.0
C1202 C 0.83678 0.93699 0.21779 0.0
C1203 C 0.81673 0.94335 0.24837 0.0
C1204 C 0.80835 0.93757 0.26654 0.0
C1205 C 0.82876 0.93167 0.23618 0.0
C1206 C 0.81283 0.92036 0.27267 0.0
C1207 C 0.82471 0.90875 0.26069 0.0
H1208 H 0.1326 0.8406 0.23712 0.0
H1209 H 0.13365 0.81506 0.17522 0.0
H1210 H 0.1084 0.78809 0.18294 0.0
H1211 H 0.08758 0.7707 0.20777 0.0
H1212 H 0.08765 0.79584 0.26976 0.0
H1213 H 0.11086 0.82409 0.26151 0.0
C1214 C 0.12723 0.82923 0.22526 0.0
C1215 C 0.1351 0.82982 0.20564 0.0
C1216 C 0.11294 0.81365 0.22985 0.0
C1217 C 0.12792 0.81493 0.19047 0.0
C1218 C 0.11348 0.79949 0.19487 0.0
C1219 C 0.09246 0.78254 0.21937 0.0
C1220 C 0.08598 0.78123 0.23934 0.0
C1221 C 0.10608 0.79856 0.21456 0.0
C1222 C 0.09257 0.79651 0.25431 0.0
C1223 C 0.10582 0.81264 0.2496 0.0
H1224 H 0.93182 0.17957 0.18851 0.0
H1225 H 0.87592 0.19791 0.20915 0.0
H1226 H 0.89352 0.22566 0.23022 0.0
H1227 H 0.92434 0.2433 0.24449 0.0
H1228 H 0.98076 0.22729 0.22187 0.0
H1229 H 0.9633 0.19979 0.20024 0.0
C1230 C 0.92354 0.18975 0.19751 0.0
C1231 C 0.90258 0.18658 0.19736 0.0
C1232 C 0.93379 0.20594 0.20943 0.0
C1233 C 0.89205 0.20001 0.20893 0.0
C1234 C 0.9021 0.21585 0.22107 0.0
C1235 C 0.93301 0.23426 0.23447 0.0
C1236 C 0.95398 0.23753 0.23506 0.0
C1237 C 0.92293 0.21882 0.22162 0.0
C1238 C 0.96464 0.22504 0.2222 0.0
C1239 C 0.95467 0.20934 0.20966 0.0
H1240 H 0.22755 0.66284 0.61546 0.0
H1241 H 0.19594 0.71063 0.63687 0.0
H1242 H 0.21615 0.73099 0.61479 0.0
H1243 H 0.24391 0.73597 0.59065 0.0
H1244 H 0.2756 0.68853 0.56877 0.0
H1245 H 0.25407 0.66726 0.58942 0.0
C1246 C 0.22503 0.67768 0.61523 0.0
C1247 C 0.21032 0.68517 0.62799 0.0
C1248 C 0.23669 0.6894 0.60234 0.0
C1249 C 0.20715 0.70441 0.6273 0.0
C1250 C 0.21873 0.71613 0.61466 0.0
C1251 C 0.24601 0.72093 0.59033 0.0
C1252 C 0.26138 0.71386 0.5783 0.0
C1253 C 0.23369 0.70887 0.60232 0.0
C1254 C 0.26377 0.69428 0.5778 0.0
C1255 C 0.25157 0.68217 0.58973 0.0
H1256 H 0.85805 0.69722 0.60048 0.0
H1257 H 0.79853 0.67661 0.62108 0.0
H1258 H 0.78519 0.69875 0.60197 0.0
H1259 H 0.79061 0.72514 0.58098 0.0
H1260 H 0.85059 0.74797 0.56326 0.0
H1261 H 0.86341 0.72336 0.57905 0.0
C1262 C 0.84214 0.69742 0.60061 0.0
C1263 C 0.82931 0.6853 0.6122 0.0
C1264 C 0.83462 0.71055 0.59002 0.0
C1265 C 0.80874 0.68585 0.61235 0.0
C1266 C 0.8011 0.6985 0.60142 0.0
C1267 C 0.80652 0.72487 0.58064 0.0
C1268 C 0.81954 0.73859 0.57095 0.0
C1269 C 0.81394 0.71116 0.5905 0.0
C1270 C 0.84007 0.73753 0.57028 0.0
C1271 C 0.84749 0.72355 0.57954 0.0
H1272 H 0.89808 0.30691 0.61727 0.0
H1273 H 0.85097 0.32711 0.65543 0.0
H1274 H 0.82616 0.30556 0.63456 0.0
H1275 H 0.81792 0.27977 0.60624 0.0
H1276 H 0.86555 0.25854 0.56949 0.0
H1277 H 0.88995 0.28183 0.58887 0.0
C1278 C 0.88238 0.30669 0.62101 0.0
C1279 C 0.87644 0.31883 0.63779 0.0
C1280 C 0.86823 0.29403 0.60915 0.0
C1281 C 0.85602 0.31834 0.64236 0.0
C1282 C 0.84179 0.30583 0.63052 0.0
C1283 C 0.83363 0.28023 0.60247 0.0
C1284 C 0.83979 0.26741 0.58631 0.0
C1285 C 0.84774 0.29346 0.61398 0.0
C1286 C 0.86025 0.26842 0.58154 0.0
C1287 C 0.87429 0.28163 0.59277 0.0
H1288 H 0.22502 0.31848 0.62613 0.0
H1289 H 0.21021 0.33911 0.57195 0.0
H1290 H 0.23669 0.32376 0.55355 0.0
H1291 H 0.26514 0.30601 0.55339 0.0
H1292 H 0.28159 0.2883 0.60864 0.0
H1293 H 0.25307 0.30055 0.6259 0.0
C1294 C 0.2274 0.31942 0.61023 0.0
C1295 C 0.21566 0.32989 0.60041 0.0
C1296 C 0.24295 0.31106 0.59992 0.0
C1297 C 0.21908 0.33115 0.57986 0.0
C1298 C 0.23423 0.32241 0.56935 0.0
C1299 C 0.26257 0.3049 0.56923 0.0
C1300 C 0.27558 0.29615 0.5796 0.0
C1301 C 0.24649 0.31262 0.57932 0.0
C1302 C 0.27171 0.29456 0.60007 0.0
C1303 C 0.25547 0.30176 0.61006 0.0
H1304 H 0.24666 0.35073 0.45397 0.0
H1305 H 0.28152 0.34588 0.39897 0.0
H1306 H 0.30507 0.32997 0.41485 0.0
H1307 H 0.31563 0.31739 0.44431 0.0
H1308 H 0.27875 0.31938 0.49828 0.0
H1309 H 0.25639 0.33674 0.48295 0.0
C1310 C 0.2595 0.34632 0.44552 0.0
C1311 C 0.26246 0.34962 0.42539 0.0
C1312 C 0.27265 0.33668 0.45457 0.0
C1313 C 0.27895 0.34352 0.4145 0.0
C1314 C 0.29241 0.33442 0.42357 0.0
C1315 C 0.30256 0.3213 0.45269 0.0
C1316 C 0.29911 0.31709 0.47256 0.0
C1317 C 0.28934 0.33081 0.44357 0.0
C1318 C 0.28218 0.32273 0.48315 0.0
C1319 C 0.26923 0.33256 0.47434 0.0
H1320 H 0.20078 0.66794 0.43168 0.0
H1321 H 0.17291 0.71888 0.42997 0.0
H1322 H 0.1973 0.73788 0.45301 0.0
H1323 H 0.22861 0.74098 0.47073 0.0
H1324 H 0.25725 0.69049 0.47155 0.0
H1325 H 0.23027 0.67034 0.45228 0.0
C1326 C 0.19984 0.68312 0.43656 0.0
C1327 C 0.18515 0.69198 0.42882 0.0
C1328 C 0.21411 0.69411 0.44967 0.0
C1329 C 0.18413 0.71167 0.43548 0.0
C1330 C 0.19811 0.7226 0.44867 0.0
C1331 C 0.22881 0.72551 0.46688 0.0
C1332 C 0.24501 0.7173 0.47241 0.0
C1333 C 0.2135 0.71411 0.45539 0.0
C1334 C 0.24491 0.69718 0.4676 0.0
C1335 C 0.22957 0.68568 0.4564 0.0
H1336 H 0.85726 0.68564 0.4213 0.0
H1337 H 0.91153 0.72168 0.44243 0.0
H1338 H 0.89235 0.74451 0.46155 0.0
H1339 H 0.86051 0.75493 0.47159 0.0
H1340 H 0.80589 0.71958 0.45079 0.0
H1341 H 0.82493 0.69599 0.43183 0.0
C1342 C 0.86494 0.69848 0.42991 0.0
C1343 C 0.8859 0.70186 0.43016 0.0
C1344 C 0.85377 0.71176 0.4409 0.0
C1345 C 0.89545 0.71858 0.44184 0.0
C1346 C 0.8845 0.73174 0.45281 0.0
C1347 C 0.85271 0.74191 0.46317 0.0
C1348 C 0.83181 0.73893 0.46276 0.0
C1349 C 0.86369 0.72851 0.45239 0.0
C1350 C 0.82199 0.72224 0.45131 0.0
C1351 C 0.83286 0.70873 0.44053 0.0
H1352 H 0.86925 0.30873 0.43164 0.0
H1353 H 0.81391 0.32765 0.42018 0.0
H1354 H 0.7964 0.30671 0.44364 0.0
H1355 H 0.79644 0.28129 0.46563 0.0
H1356 H 0.85177 0.26156 0.47565 0.0
H1357 H 0.86961 0.28486 0.45496 0.0
C1358 C 0.85338 0.30844 0.43437 0.0
C1359 C 0.84291 0.31967 0.42398 0.0
C1360 C 0.84336 0.29621 0.4477 0.0
C1361 C 0.82236 0.31914 0.42787 0.0
C1362 C 0.81231 0.30712 0.44128 0.0
C1363 C 0.81241 0.28212 0.46335 0.0
C1364 C 0.82266 0.26957 0.47224 0.0
C1365 C 0.8226 0.2953 0.45098 0.0
C1366 C 0.84344 0.27114 0.46933 0.0
C1367 C 0.85368 0.28436 0.45728 0.0
H1368 H 0.10522 0.68518 0.71551 0.0
H1369 H 0.12962 0.73568 0.68717 0.0
H1370 H 0.10662 0.75453 0.70652 0.0
H1371 H 0.08086 0.75745 0.73277 0.0
H1372 H 0.05604 0.7075 0.76152 0.0
H1373 H 0.07749 0.68763 0.74048 0.0
C1374 C 0.10543 0.70028 0.71352 0.0
C1375 C 0.11932 0.70899 0.69999 0.0
C1376 C 0.09199 0.71116 0.72471 0.0
C1377 C 0.11922 0.72855 0.69749 0.0
C1378 C 0.10604 0.7394 0.70857 0.0
C1379 C 0.08005 0.74217 0.73432 0.0
C1380 C 0.06698 0.734 0.74876 0.0
C1381 C 0.09256 0.73095 0.72239 0.0
C1382 C 0.06588 0.71411 0.75041 0.0
C1383 C 0.07828 0.70279 0.73851 0.0
H1384 H 0.87202 0.57638 0.71345 0.0
H1385 H 0.82356 0.58618 0.67874 0.0
H1386 H 0.79993 0.56619 0.69876 0.0
H1387 H 0.79275 0.54852 0.72812 0.0
H1388 H 0.84135 0.54094 0.76401 0.0
H1389 H 0.86512 0.5569 0.74117 0.0
C1390 C 0.85632 0.57399 0.71007 0.0
C1391 C 0.84958 0.58298 0.69474 0.0
C1392 C 0.84278 0.5628 0.72187 0.0
C1393 C 0.82917 0.57956 0.69052 0.0
C1394 C 0.81563 0.56815 0.702 0.0
C1395 C 0.80855 0.55027 0.7309 0.0
C1396 C 0.81513 0.54356 0.74791 0.0
C1397 C 0.82221 0.56013 0.71805 0.0
C1398 C 0.83573 0.54564 0.75098 0.0
C1399 C 0.8494 0.55501 0.73802 0.0
H1400 H 0.9377 0.31476 0.73255 0.0
H1401 H 0.99076 0.32049 0.69486 0.0
H1402 H 0.00879 0.30746 0.71923 0.0
H1403 H 0.00997 0.29594 0.75206 0.0
H1404 H 0.95687 0.2901 0.78962 0.0
H1405 H 0.93833 0.30137 0.76438 0.0
C1406 C 0.95318 0.31305 0.72961 0.0
C1407 C 0.96289 0.31874 0.71198 0.0
C1408 C 0.96346 0.3055 0.74366 0.0
C1409 C 0.98291 0.31626 0.70832 0.0
C1410 C 0.99326 0.30885 0.72227 0.0
C1411 C 0.99432 0.29708 0.75466 0.0
C1412 C 0.98483 0.29227 0.77271 0.0
C1413 C 0.98376 0.30367 0.74012 0.0
C1414 C 0.96448 0.29355 0.77577 0.0
C1415 C 0.9539 0.30013 0.76141 0.0
H1416 H 0.21603 0.42306 0.67489 0.0
H1417 H 0.24827 0.37499 0.67623 0.0
H1418 H 0.276 0.39691 0.69235 0.0
H1419 H 0.29062 0.4293 0.70703 0.0
H1420 H 0.25788 0.47736 0.70814 0.0
H1421 H 0.23098 0.45596 0.68977 0.0
C1422 C 0.22923 0.41747 0.67855 0.0
C1423 C 0.23011 0.39746 0.67441 0.0
C1424 C 0.24498 0.43012 0.68829 0.0
C1425 C 0.2472 0.39034 0.67938 0.0
C1426 C 0.26306 0.40285 0.68859 0.0
C1427 C 0.2775 0.4351 0.7035 0.0
C1428 C 0.2762 0.45488 0.70917 0.0
C1429 C 0.26198 0.42268 0.69337 0.0
C1430 C 0.25933 0.46222 0.70389 0.0
C1431 C 0.2439 0.44997 0.69347 0.0
H1432 H 0.11191 0.35701 0.33147 0.0
H1433 H 0.13753 0.36778 0.27344 0.0
H1434 H 0.11112 0.34415 0.25711 0.0
H1435 H 0.08274 0.31813 0.25936 0.0
H1436 H 0.05809 0.30638 0.31742 0.0
H1437 H 0.08173 0.33303 0.33359 0.0
C1438 C 0.11161 0.35438 0.31524 0.0
C1439 C 0.12688 0.36399 0.30373 0.0
C1440 C 0.0965 0.34058 0.30592 0.0
C1441 C 0.1261 0.3605 0.28271 0.0
C1442 C 0.11099 0.34696 0.27333 0.0
C1443 C 0.08243 0.32153 0.27555 0.0
C1444 C 0.06876 0.31014 0.28714 0.0
C1445 C 0.09644 0.33654 0.2848 0.0
C1446 C 0.06831 0.31497 0.30809 0.0
C1447 C 0.08199 0.3301 0.31738 0.0
H1448 H 0.18973 0.58995 0.34173 0.0
H1449 H 0.21836 0.64838 0.33603 0.0
H1450 H 0.24638 0.63579 0.31798 0.0
H1451 H 0.26319 0.60863 0.30487 0.0
H1452 H 0.23393 0.54977 0.30727 0.0
H1453 H 0.20599 0.56214 0.32615 0.0
C1454 C 0.20209 0.59988 0.33646 0.0
C1455 C 0.20198 0.62008 0.34026 0.0
C1456 C 0.2181 0.59251 0.3257 0.0
C1457 C 0.21801 0.63278 0.33323 0.0
C1458 C 0.2341 0.6256 0.32296 0.0
C1459 C 0.25054 0.59836 0.30896 0.0
C1460 C 0.25072 0.57821 0.30431 0.0
C1461 C 0.23431 0.60553 0.31917 0.0
C1462 C 0.23439 0.56533 0.31068 0.0
C1463 C 0.21831 0.57241 0.32138 0.0
H1464 H 0.93416 0.69439 0.3334 0.0
H1465 H 0.99214 0.70446 0.35974 0.0
H1466 H 0.00654 0.7198 0.33082 0.0
H1467 H 0.00271 0.73008 0.29784 0.0
H1468 H 0.94461 0.7206 0.2719 0.0
H1469 H 0.93017 0.70548 0.30095 0.0
C1470 C 0.94995 0.69992 0.33281 0.0
C1471 C 0.96207 0.69818 0.34866 0.0
C1472 C 0.95809 0.7089 0.31624 0.0
C1473 C 0.98247 0.7056 0.34775 0.0
C1474 C 0.99073 0.71437 0.33121 0.0
C1475 C 0.9869 0.72466 0.29857 0.0
C1476 C 0.97474 0.72641 0.28277 0.0
C1477 C 0.97869 0.71604 0.31534 0.0
C1478 C 0.95423 0.71956 0.28398 0.0
C1479 C 0.94599 0.71083 0.30052 0.0
H1480 H 0.82454 0.42254 0.32179 0.0
H1481 H 0.8855 0.44567 0.30836 0.0
H1482 H 0.87425 0.46721 0.28697 0.0
H1483 H 0.84696 0.47769 0.26998 0.0
H1484 H 0.78616 0.45451 0.28386 0.0
H1485 H 0.79744 0.43509 0.30735 0.0
C1486 C 0.83538 0.43235 0.31426 0.0
C1487 C 0.85584 0.43229 0.3165 0.0
C1488 C 0.82881 0.44478 0.30209 0.0
C1489 C 0.86966 0.44532 0.30683 0.0
C1490 C 0.86324 0.45766 0.29459 0.0
C1491 C 0.83621 0.46875 0.27853 0.0
C1492 C 0.81576 0.46747 0.27511 0.0
C1493 C 0.84284 0.45734 0.29186 0.0
C1494 C 0.80199 0.45564 0.28615 0.0
C1495 C 0.80843 0.44446 0.29952 0.0
H1496 H 0.2453 0.62235 0.70764 0.0
H1497 H 0.2149 0.57319 0.6698 0.0
H1498 H 0.23589 0.55198 0.68176 0.0
H1499 H 0.26197 0.54713 0.70442 0.0
H1500 H 0.29234 0.59682 0.74162 0.0
H1501 H 0.27237 0.61797 0.72846 0.0
C1502 C 0.24328 0.60701 0.70193 0.0
C1503 C 0.22843 0.59939 0.68795 0.0
C1504 C 0.2554 0.59492 0.70884 0.0
C1505 C 0.22618 0.57947 0.68061 0.0
C1506 C 0.23818 0.56731 0.68746 0.0
C1507 C 0.26435 0.56261 0.70943 0.0
C1508 C 0.27842 0.57029 0.72424 0.0
C1509 C 0.25273 0.57483 0.70176 0.0
C1510 C 0.28132 0.59043 0.73057 0.0
C1511 C 0.26995 0.60258 0.72299 0.0
H1512 H 0.24404 0.43669 0.37299 0.0
H1513 H 0.20152 0.40584 0.32991 0.0
H1514 H 0.21222 0.42959 0.30688 0.0
H1515 H 0.23563 0.45753 0.29771 0.0
H1516 H 0.27993 0.48694 0.33975 0.0
H1517 H 0.26632 0.46571 0.36448 0.0
C1518 C 0.23697 0.43527 0.35864 0.0
C1519 C 0.22175 0.4196 0.35338 0.0
C1520 C 0.24357 0.44877 0.34521 0.0
C1521 C 0.21279 0.41799 0.3347 0.0
C1522 C 0.21911 0.43149 0.32136 0.0
C1523 C 0.24225 0.45938 0.31232 0.0
C1524 C 0.25888 0.47379 0.31674 0.0
C1525 C 0.23473 0.44672 0.3263 0.0
C1526 C 0.26701 0.47617 0.33593 0.0
C1527 C 0.25936 0.46386 0.35005 0.0
H1528 H 0.10308 0.6865 0.32305 0.0
H1529 H 0.11168 0.74226 0.35982 0.0
H1530 H 0.09577 0.75648 0.33495 0.0
H1531 H 0.08071 0.75365 0.30219 0.0
H1532 H 0.07205 0.69829 0.26495 0.0
H1533 H 0.08631 0.68331 0.29067 0.0
C1534 C 0.10138 0.70173 0.32565 0.0
C1535 C 0.10873 0.71329 0.34326 0.0
C1536 C 0.09216 0.70992 0.31122 0.0
C1537 C 0.10627 0.73299 0.34642 0.0
C1538 C 0.09716 0.74118 0.33219 0.0
C1539 C 0.08193 0.73829 0.29971 0.0
C1540 C 0.07549 0.72714 0.28163 0.0
C1541 C 0.09028 0.72986 0.31444 0.0
C1542 C 0.07681 0.70718 0.27879 0.0
C1543 C 0.08509 0.69865 0.29344 0.0
H1544 H 0.84641 0.61538 0.34288 0.0
H1545 H 0.78675 0.62417 0.3621 0.0
H1546 H 0.77331 0.6014 0.33349 0.0
H1547 H 0.77872 0.57993 0.30223 0.0
H1548 H 0.83877 0.57251 0.28293 0.0
H1549 H 0.85173 0.59346 0.31261 0.0
C1550 C 0.83044 0.61232 0.3409 0.0
C1551 C 0.81763 0.62161 0.35456 0.0
C1552 C 0.82286 0.59933 0.32443 0.0
C1553 C 0.79697 0.61729 0.35179 0.0
C1554 C 0.78927 0.60427 0.33541 0.0
C1555 C 0.79464 0.5829 0.30453 0.0
C1556 C 0.8077 0.57454 0.29034 0.0
C1557 C 0.80211 0.59536 0.32151 0.0
C1558 C 0.82829 0.57838 0.29372 0.0
C1559 C 0.83577 0.59056 0.31061 0.0
H1560 H 0.92706 0.35557 0.31736 0.0
H1561 H 0.87538 0.31132 0.3172 0.0
H1562 H 0.89364 0.28801 0.29714 0.0
H1563 H 0.92479 0.27943 0.28184 0.0
H1564 H 0.97752 0.32247 0.28367 0.0
H1565 H 0.95849 0.347 0.30096 0.0
C1566 C 0.91978 0.34091 0.31263 0.0
C1567 C 0.89988 0.33517 0.31868 0.0
C1568 C 0.93062 0.32732 0.3016 0.0
C1569 C 0.89068 0.31604 0.31276 0.0
C1570 C 0.90112 0.3027 0.30132 0.0
C1571 C 0.93205 0.29427 0.28569 0.0
C1572 C 0.95248 0.29919 0.28131 0.0
C1573 C 0.92116 0.30807 0.29596 0.0
C1574 C 0.9618 0.31836 0.28687 0.0
C1575 C 0.95092 0.33236 0.29674 0.0
H1576 H 0.82682 0.40802 0.7031 0.0
H1577 H 0.8356 0.36943 0.74571 0.0
H1578 H 0.82077 0.38998 0.7723 0.0
H1579 H 0.8062 0.41912 0.7838 0.0
H1580 H 0.79669 0.45799 0.74188 0.0
H1581 H 0.81129 0.43732 0.71476 0.0
C1582 C 0.82537 0.40407 0.71818 0.0
C1583 C 0.83234 0.38717 0.72235 0.0
C1584 C 0.81687 0.41606 0.73356 0.0
C1585 C 0.83042 0.38232 0.74202 0.0
C1586 C 0.82195 0.39409 0.75728 0.0
C1587 C 0.80698 0.42296 0.76868 0.0
C1588 C 0.80011 0.43997 0.76485 0.0
C1589 C 0.81522 0.411 0.75325 0.0
C1590 C 0.80189 0.44499 0.74525 0.0
C1591 C 0.81015 0.43313 0.72973 0.0
H1592 H 0.13233 0.3355 0.71125 0.0
H1593 H 0.14122 0.27674 0.68955 0.0
H1594 H 0.11984 0.26477 0.71682 0.0
H1595 H 0.10048 0.27133 0.7481 0.0
H1596 H 0.09385 0.33055 0.77063 0.0
H1597 H 0.11217 0.3419 0.74154 0.0
C1598 C 0.12944 0.32003 0.71229 0.0
C1599 C 0.13847 0.30706 0.69843 0.0
C1600 C 0.11755 0.31332 0.72822 0.0
C1601 C 0.13452 0.28707 0.70007 0.0
C1602 C 0.12234 0.28022 0.71569 0.0
C1603 C 0.10309 0.28672 0.74668 0.0
C1604 C 0.09577 0.30003 0.76161 0.0
C1605 C 0.11413 0.29327 0.7301 0.0
C1606 C 0.099 0.3199 0.75929 0.0
C1607 C 0.10965 0.32646 0.74271 0.0
H1608 H 0.93142 0.68128 0.68435 0.0
H1609 H 0.87679 0.70194 0.70565 0.0
H1610 H 0.89528 0.72707 0.72914 0.0
H1611 H 0.92643 0.74171 0.74506 0.0
H1612 H 0.98169 0.72311 0.72231 0.0
H1613 H 0.96337 0.69838 0.6982 0.0
C1614 C 0.92361 0.69136 0.69406 0.0
C1615 C 0.90275 0.68964 0.69336 0.0
C1616 C 0.93438 0.70601 0.70739 0.0
C1617 C 0.89284 0.70295 0.70587 0.0
C1618 C 0.90339 0.71729 0.71937 0.0
C1619 C 0.93467 0.7327 0.73453 0.0
C1620 C 0.95552 0.73437 0.73569 0.0
C1621 C 0.92412 0.71881 0.7204 0.0
C1622 C 0.96564 0.72201 0.72211 0.0
C1623 C 0.95518 0.70791 0.7082 0.0
H1624 H 0.73996 0.16406 0.62075 0.0
H1625 H 0.72145 0.21677 0.65087 0.0
H1626 H 0.74525 0.2361 0.63062 0.0
H1627 H 0.77121 0.23824 0.60422 0.0
H1628 H 0.78962 0.18579 0.57357 0.0
H1629 H 0.76582 0.16624 0.59386 0.0
C1630 C 0.74121 0.17977 0.62294 0.0
C1631 C 0.72894 0.1889 0.63738 0.0
C1632 C 0.7548 0.19089 0.611 0.0
C1633 C 0.73065 0.2093 0.63986 0.0
C1634 C 0.74427 0.22042 0.62828 0.0
C1635 C 0.77005 0.22253 0.60202 0.0
C1636 C 0.78217 0.21352 0.58737 0.0
C1637 C 0.75638 0.21138 0.61377 0.0
C1638 C 0.78029 0.19311 0.58454 0.0
C1639 C 0.76679 0.18192 0.59626 0.0
H1640 H 0.36716 0.20971 0.60024 0.0
H1641 H 0.3077 0.18102 0.61163 0.0
H1642 H 0.29385 0.20441 0.59456 0.0
H1643 H 0.29864 0.23378 0.57775 0.0
H1644 H 0.35815 0.26466 0.57039 0.0
H1645 H 0.37189 0.23929 0.58382 0.0
C1646 C 0.35117 0.20846 0.59879 0.0
C1647 C 0.33847 0.19363 0.60711 0.0
C1648 C 0.34331 0.22232 0.58956 0.0
C1649 C 0.31778 0.19234 0.60537 0.0
C1650 C 0.30987 0.20571 0.59561 0.0
C1651 C 0.31461 0.23517 0.57923 0.0
C1652 C 0.3272 0.25131 0.57293 0.0
C1653 C 0.32249 0.22095 0.58793 0.0
C1654 C 0.34794 0.25234 0.57459 0.0
C1655 C 0.35589 0.2379 0.58255 0.0
H1656 H 0.3259 0.83075 0.63157 0.0
H1657 H 0.3804 0.80601 0.62752 0.0
H1658 H 0.36674 0.78133 0.60054 0.0
H1659 H 0.33816 0.76508 0.58008 0.0
H1660 H 0.28302 0.7885 0.58622 0.0
H1661 H 0.29809 0.81554 0.61023 0.0
C1662 C 0.33493 0.82013 0.62463 0.0
C1663 C 0.35414 0.82022 0.63163 0.0
C1664 C 0.3268 0.8057 0.60951 0.0
C1665 C 0.36554 0.80624 0.62251 0.0
C1666 C 0.35773 0.79211 0.60708 0.0
C1667 C 0.32966 0.77637 0.58642 0.0
C1668 C 0.30962 0.77503 0.58137 0.0
C1669 C 0.33824 0.79147 0.60073 0.0
C1670 C 0.29851 0.78942 0.58989 0.0
C1671 C 0.3071 0.80478 0.60365 0.0
H1672 H 0.73377 0.82129 0.63011 0.0
H1673 H 0.71052 0.83493 0.57599 0.0
H1674 H 0.73391 0.81679 0.55581 0.0
H1675 H 0.76112 0.79728 0.55364 0.0
H1676 H 0.7859 0.78597 0.6081 0.0
H1677 H 0.76144 0.80259 0.62797 0.0
C1678 C 0.73375 0.82022 0.61389 0.0
C1679 C 0.72041 0.82939 0.60456 0.0
C1680 C 0.74743 0.81008 0.60243 0.0
C1681 C 0.72069 0.82803 0.58354 0.0
C1682 C 0.73403 0.81764 0.572 0.0
C1683 C 0.76131 0.79858 0.56985 0.0
C1684 C 0.77529 0.79017 0.57926 0.0
C1685 C 0.74755 0.80869 0.58129 0.0
C1686 C 0.77507 0.79184 0.60034 0.0
C1687 C 0.76119 0.80153 0.61178 0.0
H1688 H 0.7447 0.81152 0.41607 0.0
H1689 H 0.71776 0.83181 0.47251 0.0
H1690 H 0.73917 0.81511 0.49028 0.0
H1691 H 0.76566 0.79496 0.48971 0.0
H1692 H 0.79525 0.77821 0.43336 0.0
H1693 H 0.77227 0.79272 0.41569 0.0
C1694 C 0.74347 0.81221 0.43225 0.0
C1695 C 0.72963 0.82279 0.44296 0.0
C1696 C 0.75618 0.80302 0.4424 0.0
C1697 C 0.72836 0.82379 0.46394 0.0
C1698 C 0.74056 0.8142 0.4741 0.0
C1699 C 0.76734 0.79464 0.4736 0.0
C1700 C 0.78224 0.78519 0.46304 0.0
C1701 C 0.75462 0.80386 0.46348 0.0
C1702 C 0.7837 0.78476 0.44204 0.0
C1703 C 0.77068 0.79332 0.43184 0.0
H1704 H 0.72327 0.16321 0.4329 0.0
H1705 H 0.69731 0.21439 0.42673 0.0
H1706 H 0.72197 0.23419 0.44893 0.0
H1707 H 0.75219 0.23748 0.46847 0.0
H1708 H 0.77866 0.18658 0.47415 0.0
H1709 H 0.75236 0.16622 0.45417 0.0
C1710 C 0.72289 0.17866 0.43654 0.0
C1711 C 0.70851 0.18726 0.42796 0.0
C1712 C 0.73723 0.19008 0.44929 0.0
C1713 C 0.70823 0.20732 0.43298 0.0
C1714 C 0.72236 0.21872 0.44569 0.0
C1715 C 0.75213 0.22191 0.4654 0.0
C1716 C 0.7674 0.2136 0.47276 0.0
C1717 C 0.73713 0.21032 0.45364 0.0
C1718 C 0.76698 0.19336 0.46888 0.0
C1719 C 0.75203 0.18171 0.45729 0.0
H1720 H 0.40073 0.2394 0.43265 0.0
H1721 H 0.36933 0.19194 0.46147 0.0
H1722 H 0.34525 0.21262 0.4764 0.0
H1723 H 0.33449 0.24499 0.48285 0.0
H1724 H 0.36464 0.29166 0.45213 0.0
H1725 H 0.38779 0.27052 0.43607 0.0
C1726 C 0.38853 0.23362 0.44212 0.0
C1727 C 0.38683 0.21433 0.4462 0.0
C1728 C 0.37456 0.24543 0.45021 0.0
C1729 C 0.37084 0.20679 0.45818 0.0
C1730 C 0.35714 0.21861 0.46673 0.0
C1731 C 0.34595 0.25032 0.47236 0.0
C1732 C 0.34801 0.26973 0.46858 0.0
C1733 C 0.35901 0.23803 0.46306 0.0
C1734 C 0.36282 0.27667 0.45504 0.0
C1735 C 0.37609 0.26465 0.44601 0.0
H1736 H 0.325 0.81225 0.41285 0.0
H1737 H 0.34993 0.84782 0.46563 0.0
H1738 H 0.33303 0.82407 0.48666 0.0
H1739 H 0.31191 0.79253 0.48988 0.0
H1740 H 0.28911 0.75648 0.43636 0.0
H1741 H 0.30422 0.78114 0.41597 0.0
C1742 C 0.3266 0.81495 0.42897 0.0
C1743 C 0.33869 0.83183 0.43762 0.0
C1744 C 0.31721 0.80108 0.44091 0.0
C1745 C 0.34072 0.83494 0.45855 0.0
C1746 C 0.33109 0.82134 0.47059 0.0
C1747 C 0.31031 0.79005 0.47376 0.0
C1748 C 0.29908 0.7727 0.46481 0.0
C1749 C 0.31947 0.80421 0.46191 0.0
C1750 C 0.29716 0.76983 0.44384 0.0
C1751 C 0.30597 0.78389 0.43207 0.0
H1752 H 0.61547 0.18931 0.71353 0.0
H1753 H 0.63849 0.2383 0.68231 0.0
H1754 H 0.61465 0.25716 0.70022 0.0
H1755 H 0.58881 0.26071 0.72635 0.0
H1756 H 0.56546 0.2122 0.75787 0.0
H1757 H 0.58748 0.19212 0.73801 0.0
C1758 C 0.61516 0.20406 0.71056 0.0
C1759 C 0.62894 0.2124 0.69672 0.0
C1760 C 0.60129 0.21494 0.72094 0.0
C1761 C 0.62818 0.23149 0.69293 0.0
C1762 C 0.61453 0.24234 0.70318 0.0
C1763 C 0.58842 0.24567 0.72871 0.0
C1764 C 0.57563 0.23798 0.74361 0.0
C1765 C 0.60126 0.23434 0.71744 0.0
C1766 C 0.57508 0.21841 0.74638 0.0
C1767 C 0.5878 0.20699 0.73515 0.0
H1768 H 0.34666 0.08843 0.69096 0.0
H1769 H 0.33044 0.14467 0.71293 0.0
H1770 H 0.31121 0.13105 0.74033 0.0
H1771 H 0.30107 0.10419 0.75946 0.0
H1772 H 0.31543 0.04724 0.73769 0.0
H1773 H 0.33371 0.06029 0.70907 0.0
C1774 C 0.33873 0.09764 0.70162 0.0
C1775 C 0.34017 0.11761 0.69992 0.0
C1776 C 0.32759 0.08969 0.71753 0.0
C1777 C 0.32974 0.1293 0.71386 0.0
C1778 C 0.31873 0.12154 0.72961 0.0
C1779 C 0.30764 0.09437 0.74823 0.0
C1780 C 0.30665 0.07466 0.75079 0.0
C1781 C 0.31782 0.10186 0.73176 0.0
C1782 C 0.31603 0.0625 0.73629 0.0
C1783 C 0.32642 0.06994 0.71984 0.0
H1784 H 0.41187 0.79699 0.71888 0.0
H1785 H 0.44708 0.85376 0.72995 0.0
H1786 H 0.46875 0.84135 0.75161 0.0
H1787 H 0.47632 0.81485 0.76892 0.0
H1788 H 0.44326 0.75718 0.75483 0.0
H1789 H 0.42198 0.76957 0.73311 0.0
C1790 C 0.42436 0.80659 0.72597 0.0
C1791 C 0.42778 0.82628 0.72303 0.0
C1792 C 0.43702 0.79925 0.73802 0.0
C1793 C 0.44417 0.83853 0.73201 0.0
C1794 C 0.45652 0.83145 0.74445 0.0
C1795 C 0.46482 0.80479 0.7608 0.0
C1796 C 0.46133 0.78508 0.76399 0.0
C1797 C 0.45295 0.81187 0.74773 0.0
C1798 C 0.44603 0.77253 0.75333 0.0
C1799 C 0.43389 0.77956 0.74071 0.0
H1800 H 0.73123 0.91254 0.67252 0.0
H1801 H 0.6766 0.93368 0.69318 0.0
H1802 H 0.69469 0.95717 0.71833 0.0
H1803 H 0.7248 0.96849 0.73726 0.0
H1804 H 0.77993 0.94837 0.71665 0.0
H1805 H 0.76269 0.9275 0.68879 0.0
C1806 C 0.72333 0.92252 0.68227 0.0
C1807 C 0.7025 0.92108 0.68112 0.0
C1808 C 0.73381 0.93594 0.69694 0.0
C1809 C 0.69257 0.93428 0.6938 0.0
C1810 C 0.7029 0.94771 0.70828 0.0
C1811 C 0.73333 0.9601 0.72638 0.0
C1812 C 0.75369 0.95996 0.72928 0.0
C1813 C 0.72338 0.94822 0.71039 0.0
C1814 C 0.76419 0.94853 0.71509 0.0
C1815 C 0.75435 0.93663 0.69909 0.0
H1816 H 0.62282 0.8505 0.27815 0.0
H1817 H 0.60318 0.84474 0.33921 0.0
H1818 H 0.57417 0.82173 0.32734 0.0
H1819 H 0.55625 0.80064 0.2997 0.0
H1820 H 0.57612 0.80601 0.23871 0.0
H1821 H 0.60301 0.83182 0.25046 0.0
C1822 C 0.61209 0.8444 0.28888 0.0
C1823 C 0.61537 0.84921 0.30955 0.0
C1824 C 0.59548 0.83099 0.28196 0.0
C1825 C 0.60117 0.84124 0.3232 0.0
C1826 C 0.58455 0.82802 0.31644 0.0
C1827 C 0.56615 0.80781 0.28897 0.0
C1828 C 0.56426 0.80132 0.26837 0.0
C1829 C 0.58179 0.82244 0.29586 0.0
C1830 C 0.5774 0.8106 0.25467 0.0
C1831 C 0.59279 0.82534 0.26137 0.0
H1832 H 0.69633 0.07427 0.35335 0.0
H1833 H 0.72628 0.12587 0.33012 0.0
H1834 H 0.74811 0.10663 0.30932 0.0
H1835 H 0.75958 0.07574 0.29877 0.0
H1836 H 0.72892 0.02337 0.31997 0.0
H1837 H 0.70673 0.04246 0.34085 0.0
C1838 C 0.70761 0.08127 0.34369 0.0
C1839 C 0.70971 0.10152 0.34337 0.0
C1840 C 0.72005 0.07004 0.33152 0.0
C1841 C 0.72429 0.11034 0.33066 0.0
C1842 C 0.73683 0.09935 0.31878 0.0
C1843 C 0.74775 0.06828 0.3075 0.0
C1844 C 0.7459 0.04801 0.30755 0.0
C1845 C 0.73489 0.07924 0.31915 0.0
C1846 C 0.73085 0.03892 0.31966 0.0
C1847 C 0.71808 0.04983 0.33156 0.0
H1848 H 0.44424 0.22403 0.36404 0.0
H1849 H 0.50025 0.20739 0.37686 0.0
H1850 H 0.51661 0.22435 0.34967 0.0
H1851 H 0.51505 0.24443 0.32299 0.0
H1852 H 0.46 0.26514 0.31356 0.0
H1853 H 0.44307 0.24549 0.33817 0.0
C1854 C 0.46 0.22403 0.36072 0.0
C1855 C 0.47106 0.21443 0.37224 0.0
C1856 C 0.46942 0.23442 0.34562 0.0
C1857 C 0.4915 0.21473 0.36813 0.0
C1858 C 0.50082 0.22439 0.3526 0.0
C1859 C 0.49942 0.24498 0.32646 0.0
C1860 C 0.48895 0.25639 0.31626 0.0
C1861 C 0.48995 0.23446 0.34141 0.0
C1862 C 0.4685 0.25628 0.32072 0.0
C1863 C 0.45879 0.24519 0.33502 0.0
H1864 H 0.31053 0.92186 0.34576 0.0
H1865 H 0.3619 0.93139 0.30648 0.0
H1866 H 0.34633 0.95449 0.29056 0.0
H1867 H 0.31762 0.97149 0.28734 0.0
H1868 H 0.26754 0.96401 0.32852 0.0
H1869 H 0.28308 0.94083 0.34436 0.0
C1870 C 0.31825 0.92898 0.33368 0.0
C1871 C 0.3372 0.92474 0.32708 0.0
C1872 C 0.30949 0.94273 0.32507 0.0
C1873 C 0.34726 0.93436 0.31172 0.0
C1874 C 0.33837 0.94757 0.30264 0.0
C1875 C 0.31029 0.96492 0.29994 0.0
C1876 C 0.29152 0.96943 0.30683 0.0
C1877 C 0.31946 0.95184 0.30915 0.0
C1878 C 0.28209 0.96088 0.32314 0.0
C1879 C 0.2909 0.94753 0.33208 0.0
H1880 H 0.71716 0.12057 0.73159 0.0
H1881 H 0.71918 0.07844 0.67903 0.0
H1882 H 0.73366 0.05726 0.69848 0.0
H1883 H 0.7468 0.05114 0.7305 0.0
H1884 H 0.74442 0.09368 0.78267 0.0
H1885 H 0.72898 0.11409 0.76338 0.0
C1886 C 0.72075 0.10676 0.72434 0.0
C1887 C 0.71717 0.1012 0.70383 0.0
C1888 C 0.72903 0.09465 0.7356 0.0
C1889 C 0.72182 0.08315 0.69478 0.0
C1890 C 0.7301 0.071 0.70591 0.0
C1891 C 0.74269 0.06479 0.73762 0.0
C1892 C 0.74697 0.07098 0.75792 0.0
C1893 C 0.73388 0.07663 0.72634 0.0
C1894 C 0.74159 0.08872 0.76698 0.0
C1895 C 0.73272 0.10041 0.75597 0.0
H1896 H 0.69586 0.90847 0.35467 0.0
H1897 H 0.74202 0.87543 0.36498 0.0
H1898 H 0.76504 0.89389 0.34335 0.0
H1899 H 0.7726 0.91984 0.3224 0.0
H1900 H 0.7279 0.95463 0.31276 0.0
H1901 H 0.70383 0.93533 0.33341 0.0
C1902 C 0.71089 0.90525 0.35196 0.0
C1903 C 0.71721 0.89054 0.36133 0.0
C1904 C 0.72436 0.91634 0.33981 0.0
C1905 C 0.73682 0.8867 0.35799 0.0
C1906 C 0.75002 0.89725 0.34563 0.0
C1907 C 0.75752 0.92309 0.32465 0.0
C1908 C 0.75192 0.93844 0.31588 0.0
C1909 C 0.74401 0.91216 0.33661 0.0
C1910 C 0.73251 0.94283 0.31935 0.0
C1911 C 0.71877 0.93176 0.33108 0.0
H1912 H 0.61686 0.22739 0.37118 0.0
H1913 H 0.62583 0.18054 0.32496 0.0
H1914 H 0.61003 0.19599 0.30073 0.0
H1915 H 0.5954 0.22379 0.29229 0.0
H1916 H 0.58833 0.27127 0.33852 0.0
H1917 H 0.60121 0.25433 0.36314 0.0
C1918 C 0.61524 0.22043 0.35585 0.0
C1919 C 0.62266 0.20289 0.34989 0.0
C1920 C 0.60641 0.2295 0.34196 0.0
C1921 C 0.62033 0.19409 0.32995 0.0
C1922 C 0.61132 0.20293 0.31607 0.0
C1923 C 0.59668 0.23044 0.30775 0.0
C1924 C 0.59084 0.24882 0.31345 0.0
C1925 C 0.60462 0.22082 0.32184 0.0
C1926 C 0.59234 0.25704 0.33366 0.0
C1927 C 0.59992 0.24744 0.34777 0.0
H1928 H 0.33666 0.11998 0.38218 0.0
H1929 H 0.29682 0.1624 0.38373 0.0
H1930 H 0.2768 0.14143 0.35785 0.0
H1931 H 0.27081 0.11125 0.33459 0.0
H1932 H 0.31121 0.06931 0.33231 0.0
H1933 H 0.33073 0.08987 0.35886 0.0
C1934 C 0.32353 0.12462 0.37696 0.0
C1935 C 0.31825 0.14274 0.38491 0.0
C1936 C 0.31222 0.11261 0.36192 0.0
C1937 C 0.30124 0.14854 0.37787 0.0
C1938 C 0.2898 0.13657 0.36305 0.0
C1939 C 0.28403 0.10671 0.33972 0.0
C1940 C 0.28962 0.08883 0.33139 0.0
C1941 C 0.29524 0.11865 0.35487 0.0
C1942 C 0.30653 0.08296 0.33855 0.0
C1943 C 0.31772 0.09473 0.35368 0.0
H1944 H 0.40105 0.84661 0.30379 0.0
H1945 H 0.41685 0.82836 0.35897 0.0
H1946 H 0.43811 0.80707 0.34048 0.0
H1947 H 0.45067 0.7919 0.30869 0.0
H1948 H 0.4352 0.80955 0.2532 0.0
H1949 H 0.41541 0.83262 0.27172 0.0
C1950 C 0.40928 0.83811 0.31177 0.0
C1951 C 0.40715 0.83907 0.33278 0.0
C1952 C 0.4215 0.82562 0.30098 0.0
C1953 C 0.41799 0.82788 0.34282 0.0
C1954 C 0.43022 0.81565 0.33226 0.0
C1955 C 0.44333 0.80106 0.30062 0.0
C1956 C 0.44445 0.79893 0.27956 0.0
C1957 C 0.43188 0.81419 0.31134 0.0
C1958 C 0.43445 0.81071 0.26941 0.0
C1959 C 0.42315 0.82395 0.27999 0.0
H1960 H 0.34235 0.94448 0.7046 0.0
H1961 H 0.34939 0.90303 0.74475 0.0
H1962 H 0.33773 0.92433 0.77289 0.0
H1963 H 0.32351 0.95363 0.78578 0.0
H1964 H 0.31569 -0.00509 0.74585 0.0
H1965 H 0.33005 0.97494 0.71801 0.0
C1966 C 0.3415 0.94016 0.71953 0.0
C1967 C 0.34657 0.92206 0.72248 0.0
C1968 C 0.33463 0.95244 0.73569 0.0
C1969 C 0.34549 0.9168 0.74198 0.0
C1970 C 0.3388 0.92897 0.75811 0.0
C1971 C 0.32498 0.95827 0.77098 0.0
C1972 C 0.31832 0.97559 0.76781 0.0
C1973 C 0.33298 0.94663 0.75506 0.0
C1974 C 0.32074 0.98165 0.74867 0.0
C1975 C 0.32882 0.97018 0.73274 0.0
H1976 H 0.6013 0.86269 0.71879 0.0
H1977 H 0.61889 0.81621 0.6766 0.0
H1978 H 0.60163 0.79228 0.69727 0.0
H1979 H 0.58264 0.78475 0.72823 0.0
H1980 H 0.56657 0.83197 0.77053 0.0
H1981 H 0.58197 0.85533 0.74879 0.0
C1982 C 0.60129 0.84733 0.71399 0.0
C1983 C 0.61145 0.84128 0.69622 0.0
C1984 C 0.59158 0.83374 0.726 0.0
C1985 C 0.6112 0.82128 0.69024 0.0
C1986 C 0.60138 0.80759 0.70208 0.0
C1987 C 0.58253 0.80015 0.73265 0.0
C1988 C 0.57327 0.80652 0.75093 0.0
C1989 C 0.59173 0.81367 0.72015 0.0
C1990 C 0.57317 0.82656 0.75638 0.0
C1991 C 0.58213 0.83999 0.74403 0.0
H1992 H 0.44079 0.1852 0.67762 0.0
H1993 H 0.38574 0.20499 0.69897 0.0
H1994 H 0.40374 0.22942 0.72344 0.0
H1995 H 0.43451 0.24375 0.74004 0.0
H1996 H 0.49032 0.22643 0.71723 0.0
H1997 H 0.47249 0.20213 0.69236 0.0
C1998 C 0.4328 0.19496 0.68757 0.0
C1999 C 0.41195 0.1932 0.68656 0.0
C2000 C 0.44329 0.20926 0.70147 0.0
C2001 C 0.40179 0.20606 0.69939 0.0
C2002 C 0.41205 0.22 0.71345 0.0
C2003 C 0.443 0.23514 0.72934 0.0
C2004 C 0.46385 0.23706 0.73068 0.0
C2005 C 0.43276 0.2216 0.71474 0.0
C2006 C 0.47426 0.22515 0.7169 0.0
C2007 C 0.46409 0.2113 0.70255 0.0
H2008 H 0.72431 0.66443 0.11587 0.0
H2009 H 0.67154 0.6909 0.11254 0.0
H2010 H 0.68842 0.71145 0.08874 0.0
H2011 H 0.71926 0.725 0.07248 0.0
H2012 H 0.77227 0.69891 0.0753 0.0
H2013 H 0.75414 0.6751 0.09551 0.0
C2014 C 0.7164 0.67446 0.1097 0.0
C2015 C 0.69676 0.67628 0.11635 0.0
C2016 C 0.72628 0.68648 0.09602 0.0
C2017 C 0.68672 0.68929 0.10798 0.0
C2018 C 0.69637 0.70111 0.09432 0.0
C2019 C 0.72675 0.71374 0.07691 0.0
C2020 C 0.7472 0.71395 0.07253 0.0
C2021 C 0.71632 0.70025 0.08872 0.0
C2022 C 0.75662 0.69932 0.07872 0.0
C2023 C 0.74626 0.6857 0.09031 0.0
H2024 H 0.32182 0.69564 0.08054 0.0
H2025 H 0.36405 0.74732 0.07469 0.0
H2026 H 0.33766 0.76332 0.0639 0.0
H2027 H 0.30258 0.76243 0.05556 0.0
H2028 H 0.2608 0.71014 0.05962 0.0
H2029 H 0.28696 0.69452 0.07155 0.0
C2030 C 0.32521 0.71045 0.07702 0.0
C2031 C 0.34484 0.72032 0.07853 0.0
C2032 C 0.31004 0.7194 0.07039 0.0
C2033 C 0.34906 0.73941 0.07365 0.0
C2034 C 0.33397 0.74856 0.06748 0.0
C2035 C 0.29925 0.74764 0.05915 0.0
C2036 C 0.27983 0.73744 0.05677 0.0
C2037 C 0.31443 0.73867 0.06571 0.0
C2038 C 0.27569 0.71822 0.06122 0.0
C2039 C 0.29061 0.70932 0.06811 0.0
H2040 H 0.34463 0.34597 0.15412 0.0
H2041 H 0.39177 0.33013 0.11334 0.0
H2042 H 0.36724 0.31218 0.08952 0.0
H2043 H 0.3322 0.2995 0.0811 0.0
H2044 H 0.28541 0.31342 0.12319 0.0
H2045 H 0.30983 0.33374 0.14562 0.0
C2046 C 0.3495 0.33892 0.13985 0.0
C2047 C 0.36994 0.33956 0.13536 0.0
C2048 C 0.33533 0.32815 0.12654 0.0
C2049 C 0.37608 0.32986 0.11707 0.0
C2050 C 0.36207 0.31959 0.10347 0.0
C2051 C 0.32746 0.30715 0.09512 0.0
C2052 C 0.30717 0.30507 0.10059 0.0
C2053 C 0.34165 0.3184 0.10816 0.0
C2054 C 0.30104 0.31484 0.11882 0.0
C2055 C 0.31497 0.32644 0.1316 0.0
H2056 H 0.70802 0.29559 0.08673 0.0
H2057 H 0.75559 0.30909 0.12891 0.0
H2058 H 0.77321 0.28452 0.10997 0.0
H2059 H 0.77449 0.2585 0.08229 0.0
H2060 H 0.72503 0.24218 0.04232 0.0
H2061 H 0.70909 0.26887 0.05913 0.0
C2062 C 0.72233 0.29324 0.0916 0.0
C2063 C 0.73056 0.3041 0.1091 0.0
C2064 C 0.73206 0.27861 0.08102 0.0
C2065 C 0.74897 0.30081 0.11549 0.0
C2066 C 0.75904 0.28679 0.10467 0.0
C2067 C 0.7601 0.26054 0.07735 0.0
C2068 C 0.75104 0.24817 0.06104 0.0
C2069 C 0.75058 0.27541 0.0876 0.0
C2070 C 0.73261 0.25156 0.0546 0.0
C2071 C 0.72334 0.26675 0.06434 0.0
H2072 H 0.75665 0.29972 0.91647 0.0
H2073 H 0.74972 0.32949 0.97608 0.0
H2074 H 0.76345 0.30428 0.99022 0.0
H2075 H 0.77568 0.27274 0.98583 0.0
H2076 H 0.78429 0.24371 0.92633 0.0
H2077 H 0.77176 0.26964 0.91191 0.0
C2078 C 0.75832 0.30077 0.93253 0.0
C2079 C 0.75202 0.3164 0.9452 0.0
C2080 C 0.76644 0.28629 0.94058 0.0
C2081 C 0.75446 0.31765 0.96598 0.0
C2082 C 0.76223 0.30318 0.9741 0.0
C2083 C 0.77492 0.27223 0.96971 0.0
C2084 C 0.78071 0.25636 0.95711 0.0
C2085 C 0.76798 0.2873 0.96158 0.0
C2086 C 0.7799 0.25586 0.93626 0.0
C2087 C 0.77269 0.27062 0.92804 0.0
H2088 H 0.68058 0.70495 0.9198 0.0
H2089 H 0.73058 0.68005 0.89158 0.0
H2090 H 0.75201 0.69705 0.9185 0.0
H2091 H 0.75721 0.72118 0.94856 0.0
H2092 H 0.70722 0.74567 0.97709 0.0
H2093 H 0.68508 0.72645 0.95176 0.0
C2094 C 0.69612 0.70309 0.91964 0.0
C2095 C 0.70399 0.69142 0.90355 0.0
C2096 C 0.70838 0.71287 0.93522 0.0
C2097 C 0.72411 0.68897 0.90373 0.0
C2098 C 0.73642 0.69875 0.91909 0.0
C2099 C 0.74141 0.72209 0.94932 0.0
C2100 C 0.73385 0.73487 0.96456 0.0
C2101 C 0.72881 0.71105 0.93467 0.0
C2102 C 0.71334 0.73582 0.96556 0.0
C2103 C 0.70072 0.72495 0.95099 0.0
H2104 H 0.30414 0.66299 0.93182 0.0
H2105 H 0.34674 0.71121 0.91601 0.0
H2106 H 0.32389 0.7338 0.92906 0.0
H2107 H 0.29181 0.73982 0.94534 0.0
H2108 H 0.24902 0.69116 0.95979 0.0
H2109 H 0.27194 0.6688 0.94687 0.0
C2110 C 0.30851 0.67845 0.93134 0.0
C2111 C 0.32717 0.68541 0.9231 0.0
C2112 C 0.29521 0.69128 0.93855 0.0
C2113 C 0.33246 0.70548 0.92233 0.0
C2114 C 0.31939 0.7184 0.92975 0.0
C2115 C 0.28744 0.7243 0.94541 0.0
C2116 C 0.26881 0.71719 0.95367 0.0
C2117 C 0.30069 0.71146 0.93786 0.0
C2118 C 0.2634 0.69704 0.95382 0.0
C2119 C 0.27648 0.68423 0.94639 0.0
H2120 H 0.334 0.34255 0.92913 0.0
H2121 H 0.36109 0.29147 0.90908 0.0
H2122 H 0.34402 0.27512 0.93605 0.0
H2123 H 0.31988 0.27439 0.96413 0.0
H2124 H 0.29238 0.32504 0.98443 0.0
H2125 H 0.31142 0.34256 0.95899 0.0
C2126 C 0.33625 0.32789 0.93074 0.0
C2127 C 0.34869 0.31824 0.91691 0.0
C2128 C 0.32637 0.31847 0.94643 0.0
C2129 C 0.35155 0.29928 0.91938 0.0
C2130 C 0.34178 0.28987 0.93484 0.0
C2131 C 0.31819 0.28932 0.96309 0.0
C2132 C 0.30468 0.29835 0.97611 0.0
C2133 C 0.32894 0.2992 0.94826 0.0
C2134 C 0.30283 0.31779 0.97473 0.0
C2135 C 0.31357 0.32777 0.96005 0.0
H2136 H 0.57781 0.68678 0.1801 0.0
H2137 H 0.62587 0.69729 0.22184 0.0
H2138 H 0.60815 0.71972 0.24383 0.0
H2139 H 0.58009 0.73797 0.25027 0.0
H2140 H 0.53175 0.72756 0.20907 0.0
H2141 H 0.54838 0.70332 0.18789 0.0
C2142 C 0.58434 0.69384 0.19409 0.0
C2143 C 0.60327 0.69045 0.19917 0.0
C2144 C 0.57406 0.70681 0.20672 0.0
C2145 C 0.61138 0.69962 0.21747 0.0
C2146 C 0.60128 0.71253 0.23006 0.0
C2147 C 0.57319 0.73034 0.23666 0.0
C2148 C 0.55488 0.7347 0.23104 0.0
C2149 C 0.58281 0.7165 0.22465 0.0
C2150 C 0.54587 0.72445 0.21364 0.0
C2151 C 0.55541 0.71068 0.20152 0.0
H2152 H 0.34514 0.6512 0.23636 0.0
H2153 H 0.3623 0.60695 0.19109 0.0
H2154 H 0.34315 0.58168 0.20888 0.0
H2155 H 0.3204 0.57218 0.23693 0.0
H2156 H 0.30386 0.61703 0.28191 0.0
H2157 H 0.32375 0.64189 0.26456 0.0
C2158 C 0.34479 0.63603 0.23037 0.0
C2159 C 0.3551 0.63104 0.21236 0.0
C2160 C 0.33368 0.62161 0.24059 0.0
C2161 C 0.35449 0.61126 0.20492 0.0
C2162 C 0.3435 0.59677 0.21508 0.0
C2163 C 0.32127 0.58739 0.24295 0.0
C2164 C 0.31033 0.59271 0.26051 0.0
C2165 C 0.33288 0.60177 0.23286 0.0
C2166 C 0.31168 0.61251 0.26815 0.0
C2167 C 0.32318 0.62678 0.25832 0.0
H2168 H 0.44004 0.30303 0.20945 0.0
H2169 H 0.48221 0.35583 0.21119 0.0
H2170 H 0.50303 0.34356 0.23371 0.0
H2171 H 0.50753 0.31928 0.25508 0.0
H2172 H 0.46781 0.26448 0.25017 0.0
H2173 H 0.44755 0.27634 0.22703 0.0
C2174 C 0.45393 0.3117 0.2146 0.0
C2175 C 0.45954 0.33035 0.20887 0.0
C2176 C 0.46607 0.30437 0.2272 0.0
C2177 C 0.47764 0.3414 0.21538 0.0
C2178 C 0.48948 0.33444 0.22834 0.0
C2179 C 0.49486 0.30952 0.24861 0.0
C2180 C 0.4892 0.29104 0.25494 0.0
C2181 C 0.48365 0.31609 0.23462 0.0
C2182 C 0.47233 0.27904 0.24636 0.0
C2183 C 0.46076 0.28572 0.23288 0.0
H2184 H 0.72859 0.41221 0.17311 0.0
H2185 H 0.77398 0.37609 0.17574 0.0
H2186 H 0.79622 0.40373 0.19216 0.0
H2187 H 0.80099 0.43667 0.20978 0.0
H2188 H 0.75529 0.47274 0.20956 0.0
H2189 H 0.735 0.4468 0.18792 0.0
C2190 C 0.74355 0.41059 0.17682 0.0
C2191 C 0.74965 0.39217 0.17337 0.0
C2192 C 0.75604 0.42645 0.18694 0.0
C2193 C 0.76896 0.39013 0.1784 0.0
C2194 C 0.78164 0.40589 0.18784 0.0
C2195 C 0.78665 0.43889 0.20481 0.0
C2196 C 0.7794 0.45633 0.21148 0.0
C2197 C 0.77503 0.42387 0.19287 0.0
C2198 C 0.76106 0.45932 0.20465 0.0
C2199 C 0.74946 0.44447 0.19239 0.0
H2200 H 0.61897 0.33909 0.84344 0.0
H2201 H 0.65 0.35365 0.78886 0.0
H2202 H 0.62415 0.33237 0.76906 0.0
H2203 H 0.5945 0.30727 0.76731 0.0
H2204 H 0.56462 0.29162 0.82204 0.0
H2205 H 0.58792 0.31606 0.84163 0.0
C2206 C 0.62 0.3378 0.82721 0.0
C2207 C 0.63657 0.34777 0.81767 0.0
C2208 C 0.60525 0.32533 0.81591 0.0
C2209 C 0.63751 0.34604 0.79662 0.0
C2210 C 0.62274 0.33384 0.78527 0.0
C2211 C 0.59301 0.30931 0.78352 0.0
C2212 C 0.5779 0.29749 0.79315 0.0
C2213 C 0.60683 0.32303 0.79477 0.0
C2214 C 0.57595 0.30059 0.81417 0.0
C2215 C 0.58942 0.31444 0.82543 0.0
H2216 H 0.70261 0.58684 0.82467 0.0
H2217 H 0.74186 0.6354 0.80461 0.0
H2218 H 0.7655 0.61393 0.79127 0.0
H2219 H 0.77562 0.58184 0.78632 0.0
H2220 H 0.73607 0.5326 0.80457 0.0
H2221 H 0.71217 0.55398 0.81799 0.0
C2222 C 0.7163 0.5927 0.81732 0.0
C2223 C 0.72045 0.61274 0.81571 0.0
C2224 C 0.72985 0.5802 0.8095 0.0
C2225 C 0.73823 0.62006 0.80604 0.0
C2226 C 0.75181 0.6078 0.79844 0.0
C2227 C 0.76161 0.5756 0.7928 0.0
C2228 C 0.75767 0.55551 0.79424 0.0
C2229 C 0.74782 0.58788 0.80016 0.0
C2230 C 0.73963 0.54798 0.80337 0.0
C2231 C 0.72589 0.5602 0.81096 0.0
H2232 H 0.43333 0.70611 0.87097 0.0
H2233 H 0.40158 0.67491 0.81957 0.0
H2234 H 0.42134 0.69621 0.79779 0.0
H2235 H 0.44683 0.72443 0.79356 0.0
H2236 H 0.47691 0.75669 0.84552 0.0
H2237 H 0.45888 0.73401 0.86673 0.0
C2238 C 0.43082 0.70385 0.85498 0.0
C2239 C 0.41599 0.68896 0.84692 0.0
C2240 C 0.44198 0.71634 0.84261 0.0
C2241 C 0.41288 0.68631 0.82617 0.0
C2242 C 0.42416 0.69849 0.8137 0.0
C2243 C 0.44938 0.72655 0.80954 0.0
C2244 C 0.4633 0.74225 0.81785 0.0
C2245 C 0.43858 0.7137 0.8218 0.0
C2246 C 0.4666 0.74458 0.83858 0.0
C2247 C 0.45615 0.7317 0.85079 0.0
H2248 H 0.36439 0.44479 0.81495 0.0
H2249 H 0.34559 0.38864 0.78142 0.0
H2250 H 0.33122 0.40398 0.75623 0.0
H2251 H 0.32375 0.43303 0.74387 0.0
H2252 H 0.33893 0.48914 0.77898 0.0
H2253 H 0.3555 0.4742 0.80299 0.0
C2254 C 0.35721 0.43597 0.80207 0.0
C2255 C 0.3561 0.4156 0.80003 0.0
C2256 C 0.34844 0.44487 0.78786 0.0
C2257 C 0.34657 0.40432 0.78339 0.0
C2258 C 0.33839 0.41309 0.76895 0.0
C2259 C 0.3303 0.44209 0.75693 0.0
C2260 C 0.3298 0.46228 0.75952 0.0
C2261 C 0.3391 0.43332 0.77111 0.0
C2262 C 0.33917 0.47364 0.7763 0.0
C2263 C 0.34853 0.46506 0.7902 0.0
H2264 H 0.71563 0.5831 0.18746 0.0
H2265 H 0.74198 0.64063 0.21281 0.0
H2266 H 0.76569 0.62682 0.23058 0.0
H2267 H 0.77878 0.59861 0.23927 0.0
H2268 H 0.75177 0.54083 0.21549 0.0
H2269 H 0.72881 0.55456 0.19646 0.0
C2270 C 0.72662 0.59262 0.1968 0.0
C2271 C 0.72698 0.61291 0.19877 0.0
C2272 C 0.74014 0.58454 0.20724 0.0
C2273 C 0.74128 0.62499 0.21103 0.0
C2274 C 0.75488 0.6171 0.22122 0.0
C2275 C 0.76771 0.58894 0.23017 0.0
C2276 C 0.76694 0.56865 0.22905 0.0
C2277 C 0.75436 0.59692 0.21955 0.0
C2278 C 0.75283 0.55648 0.21661 0.0
C2279 C 0.73961 0.56433 0.20579 0.0
H2280 H 0.74689 0.41377 0.89071 0.0
H2281 H 0.71034 0.37451 0.84761 0.0
H2282 H 0.72132 0.39531 0.82172 0.0
H2283 H 0.74274 0.42373 0.81081 0.0
H2284 H 0.78051 0.46226 0.85352 0.0
H2285 H 0.76734 0.44299 0.88007 0.0
C2286 C 0.74129 0.40984 0.87566 0.0
C2287 C 0.72758 0.39277 0.87118 0.0
C2288 C 0.74784 0.4218 0.86076 0.0
C2289 C 0.72043 0.38785 0.85163 0.0
C2290 C 0.72687 0.39965 0.83674 0.0
C2291 C 0.74802 0.42797 0.82595 0.0
C2292 C 0.76263 0.44443 0.8301 0.0
C2293 C 0.74071 0.41656 0.84109 0.0
C2294 C 0.76908 0.44985 0.84989 0.0
C2295 C 0.76173 0.43869 0.86507 0.0
H2296 H 0.60686 0.70334 0.8215 0.0
H2297 H 0.65985 0.74423 0.81245 0.0
H2298 H 0.64032 0.76426 0.79698 0.0
H2299 H 0.60806 0.77148 0.78815 0.0
H2300 H 0.55485 0.73079 0.79672 0.0
H2301 H 0.5746 0.70953 0.81038 0.0
C2302 C 0.61416 0.71653 0.81597 0.0
C2303 C 0.63481 0.72229 0.81829 0.0
C2304 C 0.60279 0.72815 0.80714 0.0
C2305 C 0.644 0.73944 0.81098 0.0
C2306 C 0.63283 0.75096 0.80213 0.0
C2307 C 0.60077 0.75777 0.79256 0.0
C2308 C 0.57995 0.7528 0.79138 0.0
C2309 C 0.61219 0.74563 0.8004 0.0
C2310 C 0.57081 0.73512 0.79765 0.0
C2311 C 0.58211 0.72291 0.80541 0.0
H2312 H 0.30278 0.58198 0.85629 0.0
H2313 H 0.36633 0.59038 0.84504 0.0
H2314 H 0.36139 0.57368 0.811 0.0
H2315 H 0.33881 0.55985 0.78341 0.0
H2316 H 0.27533 0.55321 0.79436 0.0
H2317 H 0.28043 0.56601 0.82963 0.0
C2318 C 0.3156 0.57995 0.84651 0.0
C2319 C 0.33488 0.58759 0.85314 0.0
C2320 C 0.31263 0.57078 0.82686 0.0
C2321 C 0.35131 0.58475 0.84027 0.0
C2322 C 0.3485 0.57524 0.82079 0.0
C2323 C 0.32614 0.56085 0.79365 0.0
C2324 C 0.30673 0.5557 0.78638 0.0
C2325 C 0.3292 0.56865 0.81377 0.0
C2326 C 0.29039 0.55725 0.79968 0.0
C2327 C 0.29331 0.56456 0.81979 0.0
H2328 H 0.43902 0.35202 0.81775 0.0
H2329 H 0.38611 0.30909 0.81492 0.0
H2330 H 0.40441 0.28523 0.79587 0.0
H2331 H 0.43555 0.27601 0.78132 0.0
H2332 H 0.48948 0.31745 0.78589 0.0
H2333 H 0.47086 0.34243 0.80309 0.0
C2334 C 0.43155 0.3375 0.81274 0.0
C2335 C 0.41124 0.33231 0.81762 0.0
C2336 C 0.44238 0.32357 0.80228 0.0
C2337 C 0.40174 0.31337 0.81136 0.0
C2338 C 0.41218 0.29973 0.80048 0.0
C2339 C 0.44319 0.29059 0.78587 0.0
C2340 C 0.46377 0.295 0.78214 0.0
C2341 C 0.43251 0.30459 0.79605 0.0
C2342 C 0.4736 0.31378 0.78857 0.0
C2343 C 0.46295 0.32803 0.79835 0.0
H2344 H 0.29159 0.41799 0.1949 0.0
H2345 H 0.354 0.43968 0.20347 0.0
H2346 H 0.34554 0.46601 0.22814 0.0
H2347 H 0.32058 0.48093 0.24978 0.0
H2348 H 0.25825 0.45886 0.24195 0.0
H2349 H 0.26651 0.4348 0.21442 0.0
C2350 C 0.30335 0.4286 0.20198 0.0
C2351 C 0.3234 0.42667 0.19746 0.0
C2352 C 0.2984 0.44363 0.21638 0.0
C2353 C 0.33843 0.44066 0.20674 0.0
C2354 C 0.33362 0.45575 0.22089 0.0
C2355 C 0.30879 0.47119 0.24169 0.0
C2356 C 0.28884 0.47163 0.24792 0.0
C2357 C 0.31367 0.45713 0.22616 0.0
C2358 C 0.27374 0.4587 0.2375 0.0
C2359 C 0.27845 0.44491 0.2218 0.0
H2360 H 0.63495 0.29842 0.1875 0.0
H2361 H 0.68598 0.2947 0.22194 0.0
H2362 H 0.66416 0.28148 0.24803 0.0
H2363 H 0.63084 0.27474 0.26283 0.0
H2364 H 0.57951 0.278 0.22871 0.0
H2365 H 0.60127 0.28775 0.20077 0.0
C2366 C 0.64131 0.29445 0.20057 0.0
C2367 C 0.66207 0.29786 0.20287 0.0
C2368 C 0.62865 0.287 0.2157 0.0
C2369 C 0.67005 0.29245 0.21984 0.0
C2370 C 0.65758 0.28491 0.23482 0.0
C2371 C 0.62431 0.277 0.2491 0.0
C2372 C 0.60355 0.27578 0.24797 0.0
C2373 C 0.63687 0.28265 0.23316 0.0
C2374 C 0.59547 0.27915 0.23011 0.0
C2375 C 0.60789 0.28469 0.21411 0.0
H2376 H 0.39575 0.70197 0.1805 0.0
H2377 H 0.44556 0.71542 0.14024 0.0
H2378 H 0.46521 0.73332 0.16814 0.0
H2379 H 0.46761 0.74684 0.20378 0.0
H2380 H 0.41696 0.73569 0.24356 0.0
H2381 H 0.39831 0.71517 0.21627 0.0
C2382 C 0.41102 0.70855 0.17795 0.0
C2383 C 0.41927 0.70726 0.15841 0.0
C2384 C 0.42202 0.71938 0.19399 0.0
C2385 C 0.43891 0.71624 0.15519 0.0
C2386 C 0.45014 0.72648 0.17112 0.0
C2387 C 0.45256 0.73974 0.20642 0.0
C2388 C 0.44362 0.74272 0.22554 0.0
C2389 C 0.44177 0.72842 0.19054 0.0
C2390 C 0.42405 0.73364 0.22886 0.0
C2391 C 0.41341 0.72191 0.2133 0.0
loop_
_geom_bond_atom_site_label_1
_geom_bond_atom_site_label_2
_geom_bond_distance
_geom_bond_site_symmetry_2
_ccdc_geom_bond_type
O0 Cd1 2.300 . S
O0 C7 1.275 . S
Cd1 O0 2.300 . S
Cd1 O9 2.381 . S
Cd1 O10 2.378 . S
O2 Cd3 2.385 . S
O2 C7 1.255 . S
Cd3 O2 2.385 . S
Cd3 O4 2.317 . S
O4 Cd3 2.317 . S
O4 C5 1.232 . S
C5 O4 1.232 . S
C5 O6 1.218 . S
O6 C5 1.218 . S
C7 O0 1.275 . S
C7 O2 1.255 . S
C8 O9 1.258 . S
C8 O10 1.256 . S
O9 Cd1 2.381 . S
O9 C8 1.258 . S
O10 Cd1 2.378 . S
O10 C8 1.256 . S
O11 Cd12 2.300 . S
O11 C18 1.275 . S
Cd12 O11 2.300 . S
Cd12 O20 2.381 . S
Cd12 O21 2.378 . S
O13 Cd14 2.385 . S
O13 C18 1.255 . S
Cd14 O13 2.385 . S
Cd14 O15 2.317 . S
O15 Cd14 2.317 . S
O15 C16 1.232 . S
C16 O15 1.232 . S
C16 O17 1.218 . S
O17 C16 1.218 . S
C18 O11 1.275 . S
C18 O13 1.255 . S
C19 O20 1.258 . S
C19 O21 1.256 . S
O20 Cd12 2.381 . S
O20 C19 1.258 . S
O21 Cd12 2.378 . S
O21 C19 1.256 . S
O22 Cd23 2.300 . S
O22 C29 1.275 . S
Cd23 O22 2.300 . S
Cd23 O31 2.381 . S
Cd23 O32 2.378 . S
O24 Cd25 2.385 . S
O24 C29 1.255 . S
Cd25 O24 2.385 . S
Cd25 O26 2.317 . S
O26 Cd25 2.317 . S
O26 C27 1.232 . S
C27 O26 1.232 . S
C27 O28 1.218 . S
O28 C27 1.218 . S
C29 O22 1.275 . S
C29 O24 1.255 . S
C30 O31 1.258 . S
C30 O32 1.256 . S
O31 Cd23 2.381 . S
O31 C30 1.258 . S
O32 Cd23 2.378 . S
O32 C30 1.256 . S
O33 Cd34 2.300 . S
O33 C40 1.275 . S
Cd34 O33 2.300 . S
Cd34 O42 2.381 . S
Cd34 O43 2.378 . S
O35 Cd36 2.385 . S
O35 C40 1.255 . S
Cd36 O35 2.385 . S
Cd36 O37 2.317 . S
O37 Cd36 2.317 . S
O37 C38 1.232 . S
C38 O37 1.232 . S
C38 O39 1.218 . S
O39 C38 1.218 . S
C40 O33 1.275 . S
C40 O35 1.255 . S
C41 O42 1.258 . S
C41 O43 1.256 . S
O42 Cd34 2.381 . S
O42 C41 1.258 . S
O43 Cd34 2.378 . S
O43 C41 1.256 . S
O44 Cd45 2.300 . S
O44 C51 1.275 . S
Cd45 O44 2.300 . S
Cd45 O53 2.381 . S
Cd45 O54 2.378 . S
O46 Cd47 2.385 . S
O46 C51 1.255 . S
Cd47 O46 2.385 . S
Cd47 O48 2.317 . S
O48 Cd47 2.317 . S
O48 C49 1.232 . S
C49 O48 1.232 . S
C49 O50 1.218 . S
O50 C49 1.218 . S
C51 O44 1.275 . S
C51 O46 1.255 . S
C52 O53 1.258 . S
C52 O54 1.256 . S
O53 Cd45 2.381 . S
O53 C52 1.258 . S
O54 Cd45 2.378 . S
O54 C52 1.256 . S
O55 Cd56 2.300 . S
O55 C62 1.275 . S
Cd56 O55 2.300 . S
Cd56 O64 2.381 . S
Cd56 O65 2.378 . S
O57 Cd58 2.385 . S
O57 C62 1.255 . S
Cd58 O57 2.385 . S
Cd58 O59 2.317 . S
O59 Cd58 2.317 . S
O59 C60 1.232 . S
C60 O59 1.232 . S
C60 O61 1.218 . S
O61 C60 1.218 . S
C62 O55 1.275 . S
C62 O57 1.255 . S
C63 O64 1.258 . S
C63 O65 1.256 . S
O64 Cd56 2.381 . S
O64 C63 1.258 . S
O65 Cd56 2.378 . S
O65 C63 1.256 . S
O66 Cd67 2.300 . S
O66 C73 1.275 . S
Cd67 O66 2.300 . S
Cd67 O75 2.381 . S
Cd67 O76 2.378 . S
O68 Cd69 2.385 . S
O68 C73 1.255 . S
Cd69 O68 2.385 . S
Cd69 O70 2.317 . S
O70 Cd69 2.317 . S
O70 C71 1.232 . S
C71 O70 1.232 . S
C71 O72 1.218 . S
O72 C71 1.218 . S
C73 O66 1.275 . S
C73 O68 1.255 . S
C74 O75 1.258 . S
C74 O76 1.256 . S
O75 Cd67 2.381 . S
O75 C74 1.258 . S
O76 Cd67 2.378 . S
O76 C74 1.256 . S
O77 Cd78 2.300 . S
O77 C84 1.275 . S
Cd78 O77 2.300 . S
Cd78 O86 2.381 . S
Cd78 O87 2.378 . S
O79 Cd80 2.385 . S
O79 C84 1.255 . S
Cd80 O79 2.385 . S
Cd80 O81 2.317 . S
O81 Cd80 2.317 . S
O81 C82 1.232 . S
C82 O81 1.232 . S
C82 O83 1.218 . S
O83 C82 1.218 . S
C84 O77 1.275 . S
C84 O79 1.255 . S
C85 O86 1.258 . S
C85 O87 1.256 . S
O86 Cd78 2.381 . S
O86 C85 1.258 . S
O87 Cd78 2.378 . S
O87 C85 1.256 . S
O88 Cd89 2.300 . S
O88 C95 1.275 . S
Cd89 O88 2.300 . S
Cd89 O97 2.381 . S
Cd89 O98 2.378 . S
O90 Cd91 2.385 . S
O90 C95 1.255 . S
Cd91 O90 2.385 . S
Cd91 O92 2.317 . S
O92 Cd91 2.317 . S
O92 C93 1.232 . S
C93 O92 1.232 . S
C93 O94 1.218 . S
O94 C93 1.218 . S
C95 O88 1.275 . S
C95 O90 1.255 . S
C96 O97 1.258 . S
C96 O98 1.256 . S
O97 Cd89 2.381 . S
O97 C96 1.258 . S
O98 Cd89 2.378 . S
O98 C96 1.256 . S
O99 Cd100 2.300 . S
O99 C106 1.275 . S
Cd100 O99 2.300 . S
Cd100 O108 2.381 . S
Cd100 O109 2.378 . S
O101 Cd102 2.385 . S
O101 C106 1.255 . S
Cd102 O101 2.385 . S
Cd102 O103 2.317 . S
O103 Cd102 2.317 . S
O103 C104 1.232 . S
C104 O103 1.232 . S
C104 O105 1.218 . S
O105 C104 1.218 . S
C106 O99 1.275 . S
C106 O101 1.255 . S
C107 O108 1.258 . S
C107 O109 1.256 . S
O108 Cd100 2.381 . S
O108 C107 1.258 . S
O109 Cd100 2.378 . S
O109 C107 1.256 . S
O110 Cd111 2.300 . S
O110 C117 1.275 . S
Cd111 O110 2.300 . S
Cd111 O119 2.381 . S
Cd111 O120 2.378 . S
O112 Cd113 2.385 . S
O112 C117 1.255 . S
Cd113 O112 2.385 . S
Cd113 O114 2.317 . S
O114 Cd113 2.317 . S
O114 C115 1.232 . S
C115 O114 1.232 . S
C115 O116 1.218 . S
O116 C115 1.218 . S
C117 O110 1.275 . S
C117 O112 1.255 . S
C118 O119 1.258 . S
C118 O120 1.256 . S
O119 Cd111 2.381 . S
O119 C118 1.258 . S
O120 Cd111 2.378 . S
O120 C118 1.256 . S
O121 Cd122 2.300 . S
O121 C128 1.275 . S
Cd122 O121 2.300 . S
Cd122 O130 2.381 . S
Cd122 O131 2.378 . S
O123 Cd124 2.385 . S
O123 C128 1.255 . S
Cd124 O123 2.385 . S
Cd124 O125 2.317 . S
O125 Cd124 2.317 . S
O125 C126 1.232 . S
C126 O125 1.232 . S
C126 O127 1.218 . S
O127 C126 1.218 . S
C128 O121 1.275 . S
C128 O123 1.255 . S
C129 O130 1.258 . S
C129 O131 1.256 . S
O130 Cd122 2.381 . S
O130 C129 1.258 . S
O131 Cd122 2.378 . S
O131 C129 1.256 . S
O132 Cd133 2.300 . S
O132 C139 1.275 . S
Cd133 O132 2.300 . S
Cd133 O141 2.381 . S
Cd133 O142 2.378 . S
O134 Cd135 2.385 . S
O134 C139 1.255 . S
Cd135 O134 2.385 . S
Cd135 O136 2.317 . S
O136 Cd135 2.317 . S
O136 C137 1.232 . S
C137 O136 1.232 . S
C137 O138 1.218 . S
O138 C137 1.218 . S
C139 O132 1.275 . S
C139 O134 1.255 . S
C140 O141 1.258 . S
C140 O142 1.256 . S
O141 Cd133 2.381 . S
O141 C140 1.258 . S
O142 Cd133 2.378 . S
O142 C140 1.256 . S
O143 Cd144 2.300 . S
O143 C150 1.275 . S
Cd144 O143 2.300 . S
Cd144 O152 2.381 . S
Cd144 O153 2.378 . S
O145 Cd146 2.385 . S
O145 C150 1.255 . S
Cd146 O145 2.385 . S
Cd146 O147 2.317 . S
O147 Cd146 2.317 . S
O147 C148 1.232 . S
C148 O147 1.232 . S
C148 O149 1.218 . S
O149 C148 1.218 . S
C150 O143 1.275 . S
C150 O145 1.255 . S
C151 O152 1.258 . S
C151 O153 1.256 . S
O152 Cd144 2.381 . S
O152 C151 1.258 . S
O153 Cd144 2.378 . S
O153 C151 1.256 . S
O154 Cd155 2.300 . S
O154 C161 1.275 . S
Cd155 O154 2.300 . S
Cd155 O163 2.381 . S
Cd155 O164 2.378 . S
O156 Cd157 2.385 . S
O156 C161 1.255 . S
Cd157 O156 2.385 . S
Cd157 O158 2.317 . S
O158 Cd157 2.317 . S
O158 C159 1.232 . S
C159 O158 1.232 . S
C159 O160 1.218 . S
O160 C159 1.218 . S
C161 O154 1.275 . S
C161 O156 1.255 . S
C162 O163 1.258 . S
C162 O164 1.256 . S
O163 Cd155 2.381 . S
O163 C162 1.258 . S
O164 Cd155 2.378 . S
O164 C162 1.256 . S
O165 Cd166 2.300 . S
O165 C172 1.275 . S
Cd166 O165 2.300 . S
Cd166 O174 2.381 . S
Cd166 O175 2.378 . S
O167 Cd168 2.385 . S
O167 C172 1.255 . S
Cd168 O167 2.385 . S
Cd168 O169 2.317 . S
O169 Cd168 2.317 . S
O169 C170 1.232 . S
C170 O169 1.232 . S
C170 O171 1.218 . S
O171 C170 1.218 . S
C172 O165 1.275 . S
C172 O167 1.255 . S
C173 O174 1.258 . S
C173 O175 1.256 . S
O174 Cd166 2.381 . S
O174 C173 1.258 . S
O175 Cd166 2.378 . S
O175 C173 1.256 . S
O176 Cd177 2.300 . S
O176 C183 1.275 . S
Cd177 O176 2.300 . S
Cd177 O185 2.381 . S
Cd177 O186 2.378 . S
O178 Cd179 2.385 . S
O178 C183 1.255 . S
Cd179 O178 2.385 . S
Cd179 O180 2.317 . S
O180 Cd179 2.317 . S
O180 C181 1.232 . S
C181 O180 1.232 . S
C181 O182 1.218 . S
O182 C181 1.218 . S
C183 O176 1.275 . S
C183 O178 1.255 . S
C184 O185 1.258 . S
C184 O186 1.256 . S
O185 Cd177 2.381 . S
O185 C184 1.258 . S
O186 Cd177 2.378 . S
O186 C184 1.256 . S
O187 Cd188 2.300 . S
O187 C194 1.275 . S
Cd188 O187 2.300 . S
Cd188 O196 2.381 . S
Cd188 O197 2.378 . S
O189 Cd190 2.385 . S
O189 C194 1.255 . S
Cd190 O189 2.385 . S
Cd190 O191 2.317 . S
O191 Cd190 2.317 . S
O191 C192 1.232 . S
C192 O191 1.232 . S
C192 O193 1.218 . S
O193 C192 1.218 . S
C194 O187 1.275 . S
C194 O189 1.255 . S
C195 O196 1.258 . S
C195 O197 1.256 . S
O196 Cd188 2.381 . S
O196 C195 1.258 . S
O197 Cd188 2.378 . S
O197 C195 1.256 . S
O198 Cd199 2.300 . S
O198 C205 1.275 . S
Cd199 O198 2.300 . S
Cd199 O207 2.381 . S
Cd199 O208 2.378 . S
O200 Cd201 2.385 . S
O200 C205 1.255 . S
Cd201 O200 2.385 . S
Cd201 O202 2.317 . S
O202 Cd201 2.317 . S
O202 C203 1.232 . S
C203 O202 1.232 . S
C203 O204 1.218 . S
O204 C203 1.218 . S
C205 O198 1.275 . S
C205 O200 1.255 . S
C206 O207 1.258 . S
C206 O208 1.256 . S
O207 Cd199 2.381 . S
O207 C206 1.258 . S
O208 Cd199 2.378 . S
O208 C206 1.256 . S
O209 Cd210 2.300 . S
O209 C216 1.275 . S
Cd210 O209 2.300 . S
Cd210 O218 2.381 . S
Cd210 O219 2.378 . S
O211 Cd212 2.385 . S
O211 C216 1.255 . S
Cd212 O211 2.385 . S
Cd212 O213 2.317 . S
O213 Cd212 2.317 . S
O213 C214 1.232 . S
C214 O213 1.232 . S
C214 O215 1.218 . S
O215 C214 1.218 . S
C216 O209 1.275 . S
C216 O211 1.255 . S
C217 O218 1.258 . S
C217 O219 1.256 . S
O218 Cd210 2.381 . S
O218 C217 1.258 . S
O219 Cd210 2.378 . S
O219 C217 1.256 . S
O220 Cd221 2.300 . S
O220 C227 1.275 . S
Cd221 O220 2.300 . S
Cd221 O229 2.381 . S
Cd221 O230 2.378 . S
O222 Cd223 2.385 . S
O222 C227 1.255 . S
Cd223 O222 2.385 . S
Cd223 O224 2.317 . S
O224 Cd223 2.317 . S
O224 C225 1.232 . S
C225 O224 1.232 . S
C225 O226 1.218 . S
O226 C225 1.218 . S
C227 O220 1.275 . S
C227 O222 1.255 . S
C228 O229 1.258 . S
C228 O230 1.256 . S
O229 Cd221 2.381 . S
O229 C228 1.258 . S
O230 Cd221 2.378 . S
O230 C228 1.256 . S
O231 Cd232 2.300 . S
O231 C238 1.275 . S
Cd232 O231 2.300 . S
Cd232 O240 2.381 . S
Cd232 O241 2.378 . S
O233 Cd234 2.385 . S
O233 C238 1.255 . S
Cd234 O233 2.385 . S
Cd234 O235 2.317 . S
O235 Cd234 2.317 . S
O235 C236 1.232 . S
C236 O235 1.232 . S
C236 O237 1.218 . S
O237 C236 1.218 . S
C238 O231 1.275 . S
C238 O233 1.255 . S
C239 O240 1.258 . S
C239 O241 1.256 . S
O240 Cd232 2.381 . S
O240 C239 1.258 . S
O241 Cd232 2.378 . S
O241 C239 1.256 . S
O242 Cd243 2.300 . S
O242 C249 1.275 . S
Cd243 O242 2.300 . S
Cd243 O251 2.381 . S
Cd243 O252 2.378 . S
O244 Cd245 2.385 . S
O244 C249 1.255 . S
Cd245 O244 2.385 . S
Cd245 O246 2.317 . S
O246 Cd245 2.317 . S
O246 C247 1.232 . S
C247 O246 1.232 . S
C247 O248 1.218 . S
O248 C247 1.218 . S
C249 O242 1.275 . S
C249 O244 1.255 . S
C250 O251 1.258 . S
C250 O252 1.256 . S
O251 Cd243 2.381 . S
O251 C250 1.258 . S
O252 Cd243 2.378 . S
O252 C250 1.256 . S
O253 Cd254 2.300 . S
O253 C260 1.275 . S
Cd254 O253 2.300 . S
Cd254 O262 2.381 . S
Cd254 O263 2.378 . S
O255 Cd256 2.385 . S
O255 C260 1.255 . S
Cd256 O255 2.385 . S
Cd256 O257 2.317 . S
O257 Cd256 2.317 . S
O257 C258 1.232 . S
C258 O257 1.232 . S
C258 O259 1.218 . S
O259 C258 1.218 . S
C260 O253 1.275 . S
C260 O255 1.255 . S
C261 O262 1.258 . S
C261 O263 1.256 . S
O262 Cd254 2.381 . S
O262 C261 1.258 . S
O263 Cd254 2.378 . S
O263 C261 1.256 . S
O264 Cd265 2.300 . S
O264 C271 1.275 . S
Cd265 O264 2.300 . S
Cd265 O273 2.381 . S
Cd265 O274 2.378 . S
O266 Cd267 2.385 . S
O266 C271 1.255 . S
Cd267 O266 2.385 . S
Cd267 O268 2.317 . S
O268 Cd267 2.317 . S
O268 C269 1.232 . S
C269 O268 1.232 . S
C269 O270 1.218 . S
O270 C269 1.218 . S
C271 O264 1.275 . S
C271 O266 1.255 . S
C272 O273 1.258 . S
C272 O274 1.256 . S
O273 Cd265 2.381 . S
O273 C272 1.258 . S
O274 Cd265 2.378 . S
O274 C272 1.256 . S
O275 Cd276 2.300 . S
O275 C282 1.275 . S
Cd276 O275 2.300 . S
Cd276 O284 2.381 . S
Cd276 O285 2.378 . S
O277 Cd278 2.385 . S
O277 C282 1.255 . S
Cd278 O277 2.385 . S
Cd278 O279 2.317 . S
O279 Cd278 2.317 . S
O279 C280 1.232 . S
C280 O279 1.232 . S
C280 O281 1.218 . S
O281 C280 1.218 . S
C282 O275 1.275 . S
C282 O277 1.255 . S
C283 O284 1.258 . S
C283 O285 1.256 . S
O284 Cd276 2.381 . S
O284 C283 1.258 . S
O285 Cd276 2.378 . S
O285 C283 1.256 . S
O286 Cd287 2.300 . S
O286 C293 1.275 . S
Cd287 O286 2.300 . S
Cd287 O295 2.381 . S
Cd287 O296 2.378 . S
O288 Cd289 2.385 . S
O288 C293 1.255 . S
Cd289 O288 2.385 . S
Cd289 O290 2.317 . S
O290 Cd289 2.317 . S
O290 C291 1.232 . S
C291 O290 1.232 . S
C291 O292 1.218 . S
O292 C291 1.218 . S
C293 O286 1.275 . S
C293 O288 1.255 . S
C294 O295 1.258 . S
C294 O296 1.256 . S
O295 Cd287 2.381 . S
O295 C294 1.258 . S
O296 Cd287 2.378 . S
O296 C294 1.256 . S
O297 Cd298 2.300 . S
O297 C304 1.275 . S
Cd298 O297 2.300 . S
Cd298 O306 2.381 . S
Cd298 O307 2.378 . S
O299 Cd300 2.385 . S
O299 C304 1.255 . S
Cd300 O299 2.385 . S
Cd300 O301 2.317 . S
O301 Cd300 2.317 . S
O301 C302 1.232 . S
C302 O301 1.232 . S
C302 O303 1.218 . S
O303 C302 1.218 . S
C304 O297 1.275 . S
C304 O299 1.255 . S
C305 O306 1.258 . S
C305 O307 1.256 . S
O306 Cd298 2.381 . S
O306 C305 1.258 . S
O307 Cd298 2.378 . S
O307 C305 1.256 . S
O308 Cd309 2.300 . S
O308 C315 1.275 . S
Cd309 O308 2.300 . S
Cd309 O317 2.381 . S
Cd309 O318 2.378 . S
O310 Cd311 2.385 . S
O310 C315 1.255 . S
Cd311 O310 2.385 . S
Cd311 O312 2.317 . S
O312 Cd311 2.317 . S
O312 C313 1.232 . S
C313 O312 1.232 . S
C313 O314 1.218 . S
O314 C313 1.218 . S
C315 O308 1.275 . S
C315 O310 1.255 . S
C316 O317 1.258 . S
C316 O318 1.256 . S
O317 Cd309 2.381 . S
O317 C316 1.258 . S
O318 Cd309 2.378 . S
O318 C316 1.256 . S
O319 Cd320 2.300 . S
O319 C326 1.275 . S
Cd320 O319 2.300 . S
Cd320 O328 2.381 . S
Cd320 O329 2.378 . S
O321 Cd322 2.385 . S
O321 C326 1.255 . S
Cd322 O321 2.385 . S
Cd322 O323 2.317 . S
O323 Cd322 2.317 . S
O323 C324 1.232 . S
C324 O323 1.232 . S
C324 O325 1.218 . S
O325 C324 1.218 . S
C326 O319 1.275 . S
C326 O321 1.255 . S
C327 O328 1.258 . S
C327 O329 1.256 . S
O328 Cd320 2.381 . S
O328 C327 1.258 . S
O329 Cd320 2.378 . S
O329 C327 1.256 . S
O330 Cd331 2.300 . S
O330 C337 1.275 . S
Cd331 O330 2.300 . S
Cd331 O339 2.381 . S
Cd331 O340 2.378 . S
O332 Cd333 2.385 . S
O332 C337 1.255 . S
Cd333 O332 2.385 . S
Cd333 O334 2.317 . S
O334 Cd333 2.317 . S
O334 C335 1.232 . S
C335 O334 1.232 . S
C335 O336 1.218 . S
O336 C335 1.218 . S
C337 O330 1.275 . S
C337 O332 1.255 . S
C338 O339 1.258 . S
C338 O340 1.256 . S
O339 Cd331 2.381 . S
O339 C338 1.258 . S
O340 Cd331 2.378 . S
O340 C338 1.256 . S
O341 Cd342 2.300 . S
O341 C348 1.275 . S
Cd342 O341 2.300 . S
Cd342 O350 2.381 . S
Cd342 O351 2.378 . S
O343 Cd344 2.385 . S
O343 C348 1.255 . S
Cd344 O343 2.385 . S
Cd344 O345 2.317 . S
O345 Cd344 2.317 . S
O345 C346 1.232 . S
C346 O345 1.232 . S
C346 O347 1.218 . S
O347 C346 1.218 . S
C348 O341 1.275 . S
C348 O343 1.255 . S
C349 O350 1.258 . S
C349 O351 1.256 . S
O350 Cd342 2.381 . S
O350 C349 1.258 . S
O351 Cd342 2.378 . S
O351 C349 1.256 . S
H352 C360 0.930 . S
H353 C363 0.930 . S
H354 C365 0.930 . S
H355 C366 0.970 . S
H356 C366 0.970 . S
H357 C368 0.930 . S
H358 C370 0.930 . S
H359 C372 0.930 . S
C360 H352 0.930 . S
C360 C361 1.394 . S
C360 C362 1.426 . S
C361 C360 1.394 . S
C361 C365 1.383 1_554 S
C362 C360 1.426 . S
C362 C363 1.375 . S
C362 C366 1.532 . S
C363 H353 0.930 . S
C363 C362 1.375 . S
C363 C364 1.416 1_554 S
C364 C363 1.416 1_556 S
C364 C365 1.371 . S
C365 H354 0.930 . S
C365 C361 1.383 1_556 S
C365 C364 1.371 . S
C366 H355 0.970 . S
C366 H356 0.970 . S
C366 C362 1.532 . S
C366 C367 1.499 . S
C367 C366 1.499 . S
C367 C368 1.370 . S
C367 C372 1.415 . S
C368 H357 0.930 . S
C368 C367 1.370 . S
C368 C369 1.407 . S
C369 C368 1.407 . S
C369 C370 1.365 . S
C370 H358 0.930 . S
C370 C369 1.365 . S
C370 C371 1.393 . S
C371 C370 1.393 . S
C371 C372 1.387 . S
C372 H359 0.930 . S
C372 C367 1.415 . S
C372 C371 1.387 . S
H373 C381 0.930 . S
H374 C384 0.930 . S
H375 C386 0.930 . S
H376 C387 0.970 . S
H377 C387 0.970 . S
H378 C389 0.930 . S
H379 C391 0.930 . S
H380 C393 0.930 . S
C381 H373 0.930 . S
C381 C382 1.382 . S
C381 C383 1.426 . S
C382 C381 1.382 . S
C382 C386 1.389 . S
C383 C381 1.426 . S
C383 C384 1.375 . S
C383 C387 1.532 1_554 S
C384 H374 0.930 . S
C384 C383 1.375 . S
C384 C385 1.416 . S
C385 C384 1.416 . S
C385 C386 1.371 . S
C386 H375 0.930 . S
C386 C382 1.389 . S
C386 C385 1.371 . S
C387 H376 0.970 . S
C387 H377 0.970 . S
C387 C383 1.532 1_556 S
C387 C388 1.499 . S
C388 C387 1.499 . S
C388 C389 1.370 . S
C388 C393 1.415 . S
C389 H378 0.930 . S
C389 C388 1.370 . S
C389 C390 1.407 . S
C390 C389 1.407 . S
C390 C391 1.365 . S
C391 H379 0.930 . S
C391 C390 1.365 . S
C391 C392 1.393 . S
C392 C391 1.393 . S
C392 C393 1.387 . S
C393 H380 0.930 . S
C393 C388 1.415 . S
C393 C392 1.387 . S
H394 C402 0.930 . S
H395 C405 0.930 . S
H396 C407 0.930 . S
H397 C408 0.970 . S
H398 C408 0.970 . S
H399 C410 0.930 . S
H400 C412 0.930 . S
H401 C414 0.930 . S
C402 H394 0.930 . S
C402 C403 1.382 . S
C402 C404 1.426 . S
C403 C402 1.382 . S
C403 C407 1.389 . S
C404 C402 1.426 . S
C404 C405 1.375 . S
C404 C408 1.532 . S
C405 H395 0.930 . S
C405 C404 1.375 . S
C405 C406 1.416 . S
C406 C405 1.416 . S
C406 C407 1.371 . S
C407 H396 0.930 . S
C407 C403 1.389 . S
C407 C406 1.371 . S
C408 H397 0.970 . S
C408 H398 0.970 . S
C408 C404 1.532 . S
C408 C409 1.499 . S
C409 C408 1.499 . S
C409 C410 1.370 . S
C409 C414 1.415 . S
C410 H399 0.930 . S
C410 C409 1.370 . S
C410 C411 1.407 1_554 S
C411 C410 1.407 1_556 S
C411 C412 1.365 . S
C412 H400 0.930 . S
C412 C411 1.365 . S
C412 C413 1.399 . S
C413 C412 1.399 . S
C413 C414 1.376 1_556 S
C414 H401 0.930 . S
C414 C409 1.415 . S
C414 C413 1.376 1_554 S
H415 C423 0.930 . S
H416 C426 0.930 . S
H417 C428 0.930 . S
H418 C429 0.970 . S
H419 C429 0.970 . S
H420 C431 0.930 . S
H421 C433 0.930 . S
H422 C435 0.930 . S
C423 H415 0.930 . S
C423 C424 1.382 . S
C423 C425 1.426 . S
C424 C423 1.382 . S
C424 C428 1.389 . S
C425 C423 1.426 . S
C425 C426 1.375 . S
C425 C429 1.532 1_554 S
C426 H416 0.930 . S
C426 C425 1.375 . S
C426 C427 1.416 . S
C427 C426 1.416 . S
C427 C428 1.371 . S
C428 H417 0.930 . S
C428 C424 1.389 . S
C428 C427 1.371 . S
C429 H418 0.970 . S
C429 H419 0.970 . S
C429 C425 1.532 1_556 S
C429 C430 1.499 . S
C430 C429 1.499 . S
C430 C431 1.370 . S
C430 C435 1.415 . S
C431 H420 0.930 . S
C431 C430 1.370 . S
C431 C432 1.407 . S
C432 C431 1.407 . S
C432 C433 1.365 . S
C433 H421 0.930 . S
C433 C432 1.365 . S
C433 C434 1.393 . S
C434 C433 1.393 . S
C434 C435 1.387 . S
C435 H422 0.930 . S
C435 C430 1.415 . S
C435 C434 1.387 . S
H436 C444 0.930 . S
H437 C447 0.930 . S
H438 C449 0.930 . S
H439 C450 0.970 1_655 S
H440 C450 0.970 . S
H441 C452 0.930 . S
H442 C454 0.930 . S
H443 C456 0.930 . S
C444 H436 0.930 . S
C444 C445 1.382 . S
C444 C446 1.426 . S
C445 C444 1.382 . S
C445 C449 1.389 . S
C446 C444 1.426 . S
C446 C447 1.375 . S
C446 C450 1.532 . S
C447 H437 0.930 . S
C447 C446 1.375 . S
C447 C448 1.416 . S
C448 C447 1.416 . S
C448 C449 1.371 . S
C449 H438 0.930 . S
C449 C445 1.389 . S
C449 C448 1.371 . S
C450 H439 0.970 1_455 S
C450 H440 0.970 . S
C450 C446 1.532 . S
C450 C451 1.499 1_455 S
C451 C450 1.499 1_655 S
C451 C452 1.370 . S
C451 C456 1.415 . S
C452 H441 0.930 . S
C452 C451 1.370 . S
C452 C453 1.407 . S
C453 C452 1.407 . S
C453 C454 1.365 . S
C454 H442 0.930 . S
C454 C453 1.365 . S
C454 C455 1.393 . S
C455 C454 1.393 . S
C455 C456 1.387 . S
C456 H443 0.930 . S
C456 C451 1.415 . S
C456 C455 1.387 . S
H457 C465 0.930 . S
H458 C468 0.930 . S
H459 C470 0.930 . S
H460 C471 0.970 . S
H461 C471 0.970 . S
H462 C473 0.930 . S
H463 C475 0.930 . S
H464 C477 0.930 . S
C465 H457 0.930 . S
C465 C466 1.382 . S
C465 C467 1.426 . S
C466 C465 1.382 . S
C466 C470 1.389 . S
C467 C465 1.426 . S
C467 C468 1.375 . S
C467 C471 1.532 . S
C468 H458 0.930 . S
C468 C467 1.375 . S
C468 C469 1.416 . S
C469 C468 1.416 . S
C469 C470 1.371 . S
C470 H459 0.930 . S
C470 C466 1.389 . S
C470 C469 1.371 . S
C471 H460 0.970 . S
C471 H461 0.970 . S
C471 C467 1.532 . S
C471 C472 1.499 1_545 S
C472 C471 1.499 1_565 S
C472 C473 1.370 . S
C472 C477 1.415 . S
C473 H462 0.930 . S
C473 C472 1.370 . S
C473 C474 1.407 . S
C474 C473 1.407 . S
C474 C475 1.365 . S
C475 H463 0.930 . S
C475 C474 1.365 . S
C475 C476 1.393 . S
C476 C475 1.393 . S
C476 C477 1.387 . S
C477 H464 0.930 . S
C477 C472 1.415 . S
C477 C476 1.387 . S
H478 C486 0.930 . S
H479 C489 0.930 . S
H480 C491 0.945 . S
H481 C492 0.970 . S
H482 C492 0.970 . S
H483 C494 0.930 . S
H484 C496 0.930 . S
H485 C498 0.930 . S
C486 H478 0.930 . S
C486 C487 1.382 . S
C486 C488 1.426 . S
C487 C486 1.382 . S
C487 C491 1.389 . S
C488 C486 1.426 . S
C488 C489 1.375 . S
C488 C492 1.532 . S
C489 H479 0.930 . S
C489 C488 1.375 . S
C489 C490 1.416 . S
C490 C489 1.416 . S
C490 C491 1.371 . S
C491 H480 0.945 . S
C491 C487 1.389 . S
C491 C490 1.371 . S
C492 H481 0.970 . S
C492 H482 0.970 . S
C492 C488 1.532 . S
C492 C493 1.499 . S
C493 C492 1.499 . S
C493 C494 1.370 . S
C493 C498 1.415 . S
C494 H483 0.930 . S
C494 C493 1.370 . S
C494 C495 1.407 . S
C495 C494 1.407 . S
C495 C496 1.365 . S
C496 H484 0.930 . S
C496 C495 1.365 . S
C496 C497 1.393 . S
C497 C496 1.393 . S
C497 C498 1.387 . S
C498 H485 0.930 . S
C498 C493 1.415 . S
C498 C497 1.387 . S
H499 C507 0.930 . S
H500 C510 0.930 1_545 S
H501 C512 0.930 . S
H502 C513 0.970 . S
H503 C513 0.970 . S
H504 C515 0.930 . S
H505 C517 0.930 . S
H506 C519 0.930 . S
C507 H499 0.930 . S
C507 C508 1.382 . S
C507 C509 1.456 . S
C508 C507 1.382 . S
C508 C512 1.389 . S
C509 C507 1.456 . S
C509 C510 1.397 . S
C509 C513 1.484 1_565 S
C510 H500 0.930 1_565 S
C510 C509 1.397 . S
C510 C511 1.416 . S
C511 C510 1.416 . S
C511 C512 1.371 . S
C512 H501 0.930 . S
C512 C508 1.389 . S
C512 C511 1.371 . S
C513 H502 0.970 . S
C513 H503 0.970 . S
C513 C509 1.484 1_545 S
C513 C514 1.499 . S
C514 C513 1.499 . S
C514 C515 1.370 . S
C514 C519 1.415 . S
C515 H504 0.930 . S
C515 C514 1.370 . S
C515 C516 1.407 . S
C516 C515 1.407 . S
C516 C517 1.365 . S
C517 H505 0.930 . S
C517 C516 1.365 . S
C517 C518 1.393 . S
C518 C517 1.393 . S
C518 C519 1.387 . S
C519 H506 0.930 . S
C519 C514 1.415 . S
C519 C518 1.387 . S
H520 C528 0.930 . S
H521 C531 0.930 . S
H522 C533 0.930 . S
H523 C534 0.970 . S
H524 C534 0.970 1_655 S
H525 C536 0.930 . S
H526 C538 0.930 . S
H527 C540 0.930 . S
C528 H520 0.930 . S
C528 C529 1.382 . S
C528 C530 1.426 . S
C529 C528 1.382 . S
C529 C533 1.389 . S
C530 C528 1.426 . S
C530 C531 1.375 . S
C530 C534 1.532 1_655 S
C531 H521 0.930 . S
C531 C530 1.375 . S
C531 C532 1.416 . S
C532 C531 1.416 . S
C532 C533 1.371 . S
C533 H522 0.930 . S
C533 C529 1.389 . S
C533 C532 1.371 . S
C534 H523 0.970 . S
C534 H524 0.970 1_455 S
C534 C530 1.532 1_455 S
C534 C535 1.499 . S
C535 C534 1.499 . S
C535 C536 1.370 . S
C535 C540 1.415 . S
C536 H525 0.930 . S
C536 C535 1.370 . S
C536 C537 1.407 . S
C537 C536 1.407 . S
C537 C538 1.365 . S
C538 H526 0.930 . S
C538 C537 1.365 . S
C538 C539 1.393 . S
C539 C538 1.393 . S
C539 C540 1.387 . S
C540 H527 0.930 . S
C540 C535 1.415 . S
C540 C539 1.387 . S
H541 C549 0.930 . S
H542 C552 0.930 . S
H543 C554 0.930 . S
H544 C555 0.970 . S
H545 C555 0.970 . S
H546 C557 0.930 . S
H547 C559 0.930 . S
H548 C561 0.930 . S
C549 H541 0.930 . S
C549 C550 1.382 . S
C549 C551 1.426 . S
C550 C549 1.382 . S
C550 C554 1.389 . S
C551 C549 1.426 . S
C551 C552 1.375 . S
C551 C555 1.532 1_565 S
C552 H542 0.930 . S
C552 C551 1.375 . S
C552 C553 1.416 . S
C553 C552 1.416 . S
C553 C554 1.371 . S
C554 H543 0.930 . S
C554 C550 1.389 . S
C554 C553 1.371 . S
C555 H544 0.970 . S
C555 H545 0.970 . S
C555 C551 1.532 1_545 S
C555 C556 1.499 . S
C556 C555 1.499 . S
C556 C557 1.370 . S
C556 C561 1.415 . S
C557 H546 0.930 . S
C557 C556 1.370 . S
C557 C558 1.407 . S
C558 C557 1.407 . S
C558 C559 1.365 . S
C559 H547 0.930 . S
C559 C558 1.365 . S
C559 C560 1.393 . S
C560 C559 1.393 . S
C560 C561 1.387 . S
C561 H548 0.930 . S
C561 C556 1.415 . S
C561 C560 1.387 . S
H562 C570 0.930 . S
H563 C573 0.930 . S
H564 C575 0.946 . S
H565 C576 0.970 . S
H566 C576 0.970 . S
H567 C578 0.930 . S
H568 C580 0.930 . S
H569 C582 0.930 . S
C570 H562 0.930 . S
C570 C571 1.382 . S
C570 C572 1.426 . S
C571 C570 1.382 . S
C571 C575 1.389 . S
C572 C570 1.426 . S
C572 C573 1.375 . S
C572 C576 1.532 . S
C573 H563 0.930 . S
C573 C572 1.375 . S
C573 C574 1.416 . S
C574 C573 1.416 . S
C574 C575 1.371 . S
C575 H564 0.946 . S
C575 C571 1.389 . S
C575 C574 1.371 . S
C576 H565 0.970 . S
C576 H566 0.970 . S
C576 C572 1.532 . S
C576 C577 1.499 . S
C577 C576 1.499 . S
C577 C578 1.370 . S
C577 C582 1.415 . S
C578 H567 0.930 . S
C578 C577 1.370 . S
C578 C579 1.407 . S
C579 C578 1.407 . S
C579 C580 1.365 . S
C580 H568 0.930 . S
C580 C579 1.365 . S
C580 C581 1.393 . S
C581 C580 1.393 . S
C581 C582 1.387 . S
C582 H569 0.930 . S
C582 C577 1.415 . S
C582 C581 1.387 . S
H583 C591 0.930 . S
H584 C594 0.930 1_545 S
H585 C596 0.930 . S
H586 C597 0.970 . S
H587 C597 0.970 . S
H588 C599 0.930 . S
H589 C601 0.930 . S
H590 C603 0.930 . S
C591 H583 0.930 . S
C591 C592 1.382 . S
C591 C593 1.403 1_565 S
C592 C591 1.382 . S
C592 C596 1.389 . S
C593 C591 1.403 1_545 S
C593 C594 1.360 1_545 S
C593 C597 1.571 . S
C594 H584 0.930 1_565 S
C594 C593 1.360 1_565 S
C594 C595 1.416 . S
C595 C594 1.416 . S
C595 C596 1.371 . S
C596 H585 0.930 . S
C596 C592 1.389 . S
C596 C595 1.371 . S
C597 H586 0.970 . S
C597 H587 0.970 . S
C597 C593 1.571 . S
C597 C598 1.499 . S
C598 C597 1.499 . S
C598 C599 1.370 . S
C598 C603 1.415 . S
C599 H588 0.930 . S
C599 C598 1.370 . S
C599 C600 1.407 . S
C600 C599 1.407 . S
C600 C601 1.365 . S
C601 H589 0.930 . S
C601 C600 1.365 . S
C601 C602 1.393 . S
C602 C601 1.393 . S
C602 C603 1.387 . S
C603 H590 0.930 . S
C603 C598 1.415 . S
C603 C602 1.387 . S
H604 C612 0.930 . S
H605 C615 0.930 . S
H606 C617 0.930 . S
H607 C618 0.970 . S
H608 C618 0.970 . S
H609 C620 0.930 . S
H610 C622 0.930 . S
H611 C624 0.930 . S
C612 H604 0.930 . S
C612 C613 1.382 . S
C612 C614 1.426 . S
C613 C612 1.382 . S
C613 C617 1.389 . S
C614 C612 1.426 . S
C614 C615 1.375 . S
C614 C618 1.532 . S
C615 H605 0.930 . S
C615 C614 1.375 . S
C615 C616 1.416 . S
C616 C615 1.416 . S
C616 C617 1.371 . S
C617 H606 0.930 . S
C617 C613 1.389 . S
C617 C616 1.371 . S
C618 H607 0.970 . S
C618 H608 0.970 . S
C618 C614 1.532 . S
C618 C619 1.499 . S
C619 C618 1.499 . S
C619 C620 1.370 . S
C619 C624 1.415 . S
C620 H609 0.930 . S
C620 C619 1.370 . S
C620 C621 1.407 . S
C621 C620 1.407 . S
C621 C622 1.365 . S
C622 H610 0.930 . S
C622 C621 1.365 . S
C622 C623 1.393 . S
C623 C622 1.393 . S
C623 C624 1.387 . S
C624 H611 0.930 . S
C624 C619 1.415 . S
C624 C623 1.387 . S
H625 C633 0.930 . S
H626 C636 0.930 . S
H627 C638 0.930 . S
H628 C639 0.970 . S
H629 C639 0.970 . S
H630 C641 0.930 . S
H631 C643 0.930 . S
H632 C645 0.930 . S
C633 H625 0.930 . S
C633 C634 1.382 . S
C633 C635 1.426 . S
C634 C633 1.382 . S
C634 C638 1.389 . S
C635 C633 1.426 . S
C635 C636 1.375 . S
C635 C639 1.532 . S
C636 H626 0.930 . S
C636 C635 1.375 . S
C636 C637 1.416 . S
C637 C636 1.416 . S
C637 C638 1.371 . S
C638 H627 0.930 . S
C638 C634 1.389 . S
C638 C637 1.371 . S
C639 H628 0.970 . S
C639 H629 0.970 . S
C639 C635 1.532 . S
C639 C640 1.499 . S
C640 C639 1.499 . S
C640 C641 1.370 . S
C640 C645 1.415 . S
C641 H630 0.930 . S
C641 C640 1.370 . S
C641 C642 1.407 . S
C642 C641 1.407 . S
C642 C643 1.365 . S
C643 H631 0.930 . S
C643 C642 1.365 . S
C643 C644 1.393 . S
C644 C643 1.393 . S
C644 C645 1.387 . S
C645 H632 0.930 . S
C645 C640 1.415 . S
C645 C644 1.387 . S
H646 C654 0.930 . S
H647 C657 0.930 . S
H648 C659 0.930 . S
H649 C660 0.970 . S
H650 C660 0.970 . S
H651 C662 0.930 . S
H652 C664 0.930 . S
H653 C666 0.930 . S
C654 H646 0.930 . S
C654 C655 1.382 . S
C654 C656 1.426 . S
C655 C654 1.382 . S
C655 C659 1.389 . S
C656 C654 1.426 . S
C656 C657 1.375 . S
C656 C660 1.532 . S
C657 H647 0.930 . S
C657 C656 1.375 . S
C657 C658 1.416 . S
C658 C657 1.416 . S
C658 C659 1.371 . S
C659 H648 0.930 . S
C659 C655 1.389 . S
C659 C658 1.371 . S
C660 H649 0.970 . S
C660 H650 0.970 . S
C660 C656 1.532 . S
C660 C661 1.499 . S
C661 C660 1.499 . S
C661 C662 1.370 . S
C661 C666 1.415 . S
C662 H651 0.930 . S
C662 C661 1.370 . S
C662 C663 1.407 . S
C663 C662 1.407 . S
C663 C664 1.365 . S
C664 H652 0.930 . S
C664 C663 1.365 . S
C664 C665 1.393 . S
C665 C664 1.393 . S
C665 C666 1.387 . S
C666 H653 0.930 . S
C666 C661 1.415 . S
C666 C665 1.387 . S
H667 C675 0.930 . S
H668 C678 0.930 . S
H669 C680 0.930 . S
H670 C681 0.970 . S
H671 C681 0.970 . S
H672 C683 0.930 . S
H673 C685 0.930 . S
H674 C687 0.930 . S
C675 H667 0.930 . S
C675 C676 1.382 . S
C675 C677 1.426 . S
C676 C675 1.382 . S
C676 C680 1.389 . S
C677 C675 1.426 . S
C677 C678 1.375 . S
C677 C681 1.532 . S
C678 H668 0.930 . S
C678 C677 1.375 . S
C678 C679 1.416 . S
C679 C678 1.416 . S
C679 C680 1.371 . S
C680 H669 0.930 . S
C680 C676 1.389 . S
C680 C679 1.371 . S
C681 H670 0.970 . S
C681 H671 0.970 . S
C681 C677 1.532 . S
C681 C682 1.499 . S
C682 C681 1.499 . S
C682 C683 1.370 . S
C682 C687 1.415 . S
C683 H672 0.930 . S
C683 C682 1.370 . S
C683 C684 1.407 . S
C684 C683 1.407 . S
C684 C685 1.365 . S
C685 H673 0.930 . S
C685 C684 1.365 . S
C685 C686 1.393 . S
C686 C685 1.393 . S
C686 C687 1.387 . S
C687 H674 0.930 . S
C687 C682 1.415 . S
C687 C686 1.387 . S
H688 C696 0.930 . S
H689 C699 0.930 . S
H690 C701 0.930 . S
H691 C702 0.970 . S
H692 C702 0.970 . S
H693 C704 0.930 . S
H694 C706 0.930 . S
H695 C708 0.930 . S
C696 H688 0.930 . S
C696 C697 1.382 . S
C696 C698 1.426 . S
C697 C696 1.382 . S
C697 C701 1.389 . S
C698 C696 1.426 . S
C698 C699 1.375 . S
C698 C702 1.532 . S
C699 H689 0.930 . S
C699 C698 1.375 . S
C699 C700 1.416 . S
C700 C699 1.416 . S
C700 C701 1.371 . S
C701 H690 0.930 . S
C701 C697 1.389 . S
C701 C700 1.371 . S
C702 H691 0.970 . S
C702 H692 0.970 . S
C702 C698 1.532 . S
C702 C703 1.499 . S
C703 C702 1.499 . S
C703 C704 1.370 . S
C703 C708 1.415 . S
C704 H693 0.930 . S
C704 C703 1.370 . S
C704 C705 1.407 . S
C705 C704 1.407 . S
C705 C706 1.365 . S
C706 H694 0.930 . S
C706 C705 1.365 . S
C706 C707 1.393 . S
C707 C706 1.393 . S
C707 C708 1.387 . S
C708 H695 0.930 . S
C708 C703 1.415 . S
C708 C707 1.387 . S
H709 C717 0.930 . S
H710 C720 0.930 . S
H711 C722 0.930 . S
H712 C723 0.970 . S
H713 C723 0.970 . S
H714 C725 0.930 . S
H715 C727 0.930 . S
H716 C729 0.930 . S
C717 H709 0.930 . S
C717 C718 1.382 . S
C717 C719 1.426 . S
C718 C717 1.382 . S
C718 C722 1.389 . S
C719 C717 1.426 . S
C719 C720 1.375 . S
C719 C723 1.532 . S
C720 H710 0.930 . S
C720 C719 1.375 . S
C720 C721 1.416 . S
C721 C720 1.416 . S
C721 C722 1.371 . S
C722 H711 0.930 . S
C722 C718 1.389 . S
C722 C721 1.371 . S
C723 H712 0.970 . S
C723 H713 0.970 . S
C723 C719 1.532 . S
C723 C724 1.499 . S
C724 C723 1.499 . S
C724 C725 1.370 . S
C724 C729 1.415 . S
C725 H714 0.930 . S
C725 C724 1.370 . S
C725 C726 1.407 . S
C726 C725 1.407 . S
C726 C727 1.365 . S
C727 H715 0.930 . S
C727 C726 1.365 . S
C727 C728 1.393 . S
C728 C727 1.393 . S
C728 C729 1.387 . S
C729 H716 0.930 . S
C729 C724 1.415 . S
C729 C728 1.387 . S
H730 C738 0.930 . S
H731 C741 0.930 . S
H732 C743 0.930 . S
H733 C744 0.970 . S
H734 C744 0.970 . S
H735 C746 0.930 . S
H736 C748 0.930 . S
H737 C750 0.930 . S
C738 H730 0.930 . S
C738 C739 1.382 . S
C738 C740 1.426 . S
C739 C738 1.382 . S
C739 C743 1.389 . S
C740 C738 1.426 . S
C740 C741 1.375 . S
C740 C744 1.532 . S
C741 H731 0.930 . S
C741 C740 1.375 . S
C741 C742 1.416 . S
C742 C741 1.416 . S
C742 C743 1.371 . S
C743 H732 0.930 . S
C743 C739 1.389 . S
C743 C742 1.371 . S
C744 H733 0.970 . S
C744 H734 0.970 . S
C744 C740 1.532 . S
C744 C745 1.499 . S
C745 C744 1.499 . S
C745 C746 1.370 . S
C745 C750 1.415 . S
C746 H735 0.930 . S
C746 C745 1.370 . S
C746 C747 1.407 . S
C747 C746 1.407 . S
C747 C748 1.365 . S
C748 H736 0.930 . S
C748 C747 1.365 . S
C748 C749 1.393 . S
C749 C748 1.393 . S
C749 C750 1.387 . S
C750 H737 0.930 . S
C750 C745 1.415 . S
C750 C749 1.387 . S
H751 C759 0.930 . S
H752 C762 0.930 . S
H753 C764 0.930 . S
H754 C765 0.970 . S
H755 C765 0.970 . S
H756 C767 0.930 . S
H757 C769 0.930 . S
H758 C771 0.930 . S
C759 H751 0.930 . S
C759 C760 1.382 . S
C759 C761 1.426 . S
C760 C759 1.382 . S
C760 C764 1.389 . S
C761 C759 1.426 . S
C761 C762 1.375 . S
C761 C765 1.532 . S
C762 H752 0.930 . S
C762 C761 1.375 . S
C762 C763 1.416 . S
C763 C762 1.416 . S
C763 C764 1.371 . S
C764 H753 0.930 . S
C764 C760 1.389 . S
C764 C763 1.371 . S
C765 H754 0.970 . S
C765 H755 0.970 . S
C765 C761 1.532 . S
C765 C766 1.499 . S
C766 C765 1.499 . S
C766 C767 1.370 . S
C766 C771 1.415 . S
C767 H756 0.930 . S
C767 C766 1.370 . S
C767 C768 1.407 . S
C768 C767 1.407 . S
C768 C769 1.365 . S
C769 H757 0.930 . S
C769 C768 1.365 . S
C769 C770 1.393 . S
C770 C769 1.393 . S
C770 C771 1.387 . S
C771 H758 0.930 . S
C771 C766 1.415 . S
C771 C770 1.387 . S
H772 C780 0.930 . S
H773 C783 0.930 . S
H774 C785 0.930 . S
H775 C786 0.970 . S
H776 C786 0.970 . S
H777 C788 0.930 . S
H778 C790 0.930 . S
H779 C792 0.930 . S
C780 H772 0.930 . S
C780 C781 1.382 . S
C780 C782 1.426 . S
C781 C780 1.382 . S
C781 C785 1.389 . S
C782 C780 1.426 . S
C782 C783 1.375 . S
C782 C786 1.532 . S
C783 H773 0.930 . S
C783 C782 1.375 . S
C783 C784 1.416 . S
C784 C783 1.416 . S
C784 C785 1.371 . S
C785 H774 0.930 . S
C785 C781 1.389 . S
C785 C784 1.371 . S
C786 H775 0.970 . S
C786 H776 0.970 . S
C786 C782 1.532 . S
C786 C787 1.499 . S
C787 C786 1.499 . S
C787 C788 1.370 . S
C787 C792 1.415 . S
C788 H777 0.930 . S
C788 C787 1.370 . S
C788 C789 1.407 . S
C789 C788 1.407 . S
C789 C790 1.365 . S
C790 H778 0.930 . S
C790 C789 1.365 . S
C790 C791 1.393 . S
C791 C790 1.393 . S
C791 C792 1.387 . S
C792 H779 0.930 . S
C792 C787 1.415 . S
C792 C791 1.387 . S
H793 C801 0.930 . S
H794 C804 0.930 . S
H795 C806 0.930 . S
H796 C807 0.970 . S
H797 C807 0.970 . S
H798 C809 0.930 . S
H799 C811 0.930 . S
H800 C813 0.930 . S
C801 H793 0.930 . S
C801 C802 1.382 . S
C801 C803 1.426 . S
C802 C801 1.382 . S
C802 C806 1.389 . S
C803 C801 1.426 . S
C803 C804 1.375 . S
C803 C807 1.532 . S
C804 H794 0.930 . S
C804 C803 1.375 . S
C804 C805 1.416 . S
C805 C804 1.416 . S
C805 C806 1.371 . S
C806 H795 0.930 . S
C806 C802 1.389 . S
C806 C805 1.371 . S
C807 H796 0.970 . S
C807 H797 0.970 . S
C807 C803 1.532 . S
C807 C808 1.499 . S
C808 C807 1.499 . S
C808 C809 1.370 . S
C808 C813 1.415 . S
C809 H798 0.930 . S
C809 C808 1.370 . S
C809 C810 1.407 . S
C810 C809 1.407 . S
C810 C811 1.365 . S
C811 H799 0.930 . S
C811 C810 1.365 . S
C811 C812 1.393 . S
C812 C811 1.393 . S
C812 C813 1.387 . S
C813 H800 0.930 . S
C813 C808 1.415 . S
C813 C812 1.387 . S
H814 C822 0.930 . S
H815 C825 0.930 . S
H816 C827 0.930 . S
H817 C828 0.970 . S
H818 C828 0.970 . S
H819 C830 0.930 . S
H820 C832 0.930 . S
H821 C834 0.930 . S
C822 H814 0.930 . S
C822 C823 1.382 . S
C822 C824 1.426 . S
C823 C822 1.382 . S
C823 C827 1.389 . S
C824 C822 1.426 . S
C824 C825 1.375 . S
C824 C828 1.532 . S
C825 H815 0.930 . S
C825 C824 1.375 . S
C825 C826 1.416 . S
C826 C825 1.416 . S
C826 C827 1.371 . S
C827 H816 0.930 . S
C827 C823 1.389 . S
C827 C826 1.371 . S
C828 H817 0.970 . S
C828 H818 0.970 . S
C828 C824 1.532 . S
C828 C829 1.499 . S
C829 C828 1.499 . S
C829 C830 1.370 . S
C829 C834 1.415 . S
C830 H819 0.930 . S
C830 C829 1.370 . S
C830 C831 1.407 . S
C831 C830 1.407 . S
C831 C832 1.365 . S
C832 H820 0.930 . S
C832 C831 1.365 . S
C832 C833 1.393 . S
C833 C832 1.393 . S
C833 C834 1.387 . S
C834 H821 0.930 . S
C834 C829 1.415 . S
C834 C833 1.387 . S
H835 C843 0.930 . S
H836 C846 0.930 . S
H837 C848 0.930 . S
H838 C849 0.970 . S
H839 C849 0.970 . S
H840 C851 0.930 . S
H841 C853 0.930 . S
H842 C855 0.930 . S
C843 H835 0.930 . S
C843 C844 1.382 . S
C843 C845 1.426 . S
C844 C843 1.382 . S
C844 C848 1.389 . S
C845 C843 1.426 . S
C845 C846 1.375 . S
C845 C849 1.532 . S
C846 H836 0.930 . S
C846 C845 1.375 . S
C846 C847 1.416 . S
C847 C846 1.416 . S
C847 C848 1.371 . S
C848 H837 0.930 . S
C848 C844 1.389 . S
C848 C847 1.371 . S
C849 H838 0.970 . S
C849 H839 0.970 . S
C849 C845 1.532 . S
C849 C850 1.499 . S
C850 C849 1.499 . S
C850 C851 1.370 . S
C850 C855 1.415 . S
C851 H840 0.930 . S
C851 C850 1.370 . S
C851 C852 1.407 . S
C852 C851 1.407 . S
C852 C853 1.365 . S
C853 H841 0.930 . S
C853 C852 1.365 . S
C853 C854 1.393 . S
C854 C853 1.393 . S
C854 C855 1.387 . S
C855 H842 0.930 . S
C855 C850 1.415 . S
C855 C854 1.387 . S
H856 C862 0.930 . S
H857 C865 0.930 . S
H858 C866 0.930 . S
H859 C867 0.930 . S
H860 C870 0.930 . S
H861 C871 0.930 . S
C862 H856 0.930 . S
C862 C863 1.355 . S
C862 C864 1.415 . S
C863 C862 1.355 . S
C863 C865 1.419 . S
C864 C862 1.415 . S
C864 C869 1.425 . S
C864 C871 1.409 . S
C865 H857 0.930 . S
C865 C863 1.419 . S
C865 C866 1.362 . S
C866 H858 0.930 . S
C866 C865 1.362 . S
C866 C869 1.409 . S
C867 H859 0.930 . S
C867 C868 1.355 . S
C867 C869 1.415 . S
C868 C867 1.355 . S
C868 C870 1.419 . S
C869 C864 1.425 . S
C869 C866 1.409 . S
C869 C867 1.415 . S
C870 H860 0.930 . S
C870 C868 1.419 . S
C870 C871 1.362 . S
C871 H861 0.930 . S
C871 C864 1.409 . S
C871 C870 1.362 . S
H872 C878 0.930 . S
H873 C881 0.930 . S
H874 C882 0.930 . S
H875 C883 0.930 . S
H876 C886 0.930 . S
H877 C887 0.930 . S
C878 H872 0.930 . S
C878 C879 1.355 . S
C878 C880 1.415 . S
C879 C878 1.355 . S
C879 C881 1.419 . S
C880 C878 1.415 . S
C880 C885 1.425 . S
C880 C887 1.409 . S
C881 H873 0.930 . S
C881 C879 1.419 . S
C881 C882 1.362 . S
C882 H874 0.930 . S
C882 C881 1.362 . S
C882 C885 1.409 . S
C883 H875 0.930 . S
C883 C884 1.355 . S
C883 C885 1.415 . S
C884 C883 1.355 . S
C884 C886 1.419 . S
C885 C880 1.425 . S
C885 C882 1.409 . S
C885 C883 1.415 . S
C886 H876 0.930 . S
C886 C884 1.419 . S
C886 C887 1.362 . S
C887 H877 0.930 . S
C887 C880 1.409 . S
C887 C886 1.362 . S
H888 C894 0.930 . S
H889 C897 0.930 . S
H890 C898 0.930 . S
H891 C899 0.930 . S
H892 C902 0.930 . S
H893 C903 0.930 . S
C894 H888 0.930 . S
C894 C895 1.355 . S
C894 C896 1.415 . S
C895 C894 1.355 . S
C895 C897 1.419 . S
C896 C894 1.415 . S
C896 C901 1.425 . S
C896 C903 1.409 . S
C897 H889 0.930 . S
C897 C895 1.419 . S
C897 C898 1.362 . S
C898 H890 0.930 . S
C898 C897 1.362 . S
C898 C901 1.409 . S
C899 H891 0.930 . S
C899 C900 1.355 . S
C899 C901 1.415 . S
C900 C899 1.355 . S
C900 C902 1.419 . S
C901 C896 1.425 . S
C901 C898 1.409 . S
C901 C899 1.415 . S
C902 H892 0.930 . S
C902 C900 1.419 . S
C902 C903 1.362 . S
C903 H893 0.930 . S
C903 C896 1.409 . S
C903 C902 1.362 . S
H904 C910 0.930 . S
H905 C913 0.930 . S
H906 C914 0.930 . S
H907 C915 0.930 . S
H908 C918 0.930 . S
H909 C919 0.930 . S
C910 H904 0.930 . S
C910 C911 1.355 . S
C910 C912 1.415 . S
C911 C910 1.355 . S
C911 C913 1.419 . S
C912 C910 1.415 . S
C912 C917 1.425 . S
C912 C919 1.409 . S
C913 H905 0.930 . S
C913 C911 1.419 . S
C913 C914 1.362 . S
C914 H906 0.930 . S
C914 C913 1.362 . S
C914 C917 1.409 . S
C915 H907 0.930 . S
C915 C916 1.355 . S
C915 C917 1.415 . S
C916 C915 1.355 . S
C916 C918 1.419 . S
C917 C912 1.425 . S
C917 C914 1.409 . S
C917 C915 1.415 . S
C918 H908 0.930 . S
C918 C916 1.419 . S
C918 C919 1.362 . S
C919 H909 0.930 . S
C919 C912 1.409 . S
C919 C918 1.362 . S
H920 C926 0.930 . S
H921 C929 0.930 . S
H922 C930 0.930 . S
H923 C931 0.930 . S
H924 C934 0.930 . S
H925 C935 0.930 . S
C926 H920 0.930 . S
C926 C927 1.355 . S
C926 C928 1.415 . S
C927 C926 1.355 . S
C927 C929 1.419 . S
C928 C926 1.415 . S
C928 C933 1.425 . S
C928 C935 1.409 . S
C929 H921 0.930 . S
C929 C927 1.419 . S
C929 C930 1.362 . S
C930 H922 0.930 . S
C930 C929 1.362 . S
C930 C933 1.409 . S
C931 H923 0.930 . S
C931 C932 1.355 . S
C931 C933 1.415 . S
C932 C931 1.355 . S
C932 C934 1.419 . S
C933 C928 1.425 . S
C933 C930 1.409 . S
C933 C931 1.415 . S
C934 H924 0.930 . S
C934 C932 1.419 . S
C934 C935 1.362 . S
C935 H925 0.930 . S
C935 C928 1.409 . S
C935 C934 1.362 . S
H936 C942 0.930 . S
H937 C945 0.930 . S
H938 C946 0.930 . S
H939 C947 0.930 . S
H940 C950 0.930 . S
H941 C951 0.930 . S
C942 H936 0.930 . S
C942 C943 1.355 . S
C942 C944 1.415 . S
C943 C942 1.355 . S
C943 C945 1.419 . S
C944 C942 1.415 . S
C944 C949 1.425 . S
C944 C951 1.409 . S
C945 H937 0.930 . S
C945 C943 1.419 . S
C945 C946 1.362 . S
C946 H938 0.930 . S
C946 C945 1.362 . S
C946 C949 1.409 . S
C947 H939 0.930 . S
C947 C948 1.355 . S
C947 C949 1.415 . S
C948 C947 1.355 . S
C948 C950 1.419 . S
C949 C944 1.425 . S
C949 C946 1.409 . S
C949 C947 1.415 . S
C950 H940 0.930 . S
C950 C948 1.419 . S
C950 C951 1.362 . S
C951 H941 0.930 . S
C951 C944 1.409 . S
C951 C950 1.362 . S
H952 C958 0.930 . S
H953 C961 0.930 . S
H954 C962 0.930 . S
H955 C963 0.930 . S
H956 C966 0.930 . S
H957 C967 0.930 . S
C958 H952 0.930 . S
C958 C959 1.355 . S
C958 C960 1.415 . S
C959 C958 1.355 . S
C959 C961 1.419 . S
C960 C958 1.415 . S
C960 C965 1.425 . S
C960 C967 1.409 . S
C961 H953 0.930 . S
C961 C959 1.419 . S
C961 C962 1.362 . S
C962 H954 0.930 . S
C962 C961 1.362 . S
C962 C965 1.409 . S
C963 H955 0.930 . S
C963 C964 1.355 . S
C963 C965 1.415 . S
C964 C963 1.355 . S
C964 C966 1.419 . S
C965 C960 1.425 . S
C965 C962 1.409 . S
C965 C963 1.415 . S
C966 H956 0.930 . S
C966 C964 1.419 . S
C966 C967 1.362 . S
C967 H957 0.930 . S
C967 C960 1.409 . S
C967 C966 1.362 . S
H968 C974 0.930 . S
H969 C977 0.930 . S
H970 C978 0.930 . S
H971 C979 0.930 . S
H972 C982 0.930 . S
H973 C983 0.930 . S
C974 H968 0.930 . S
C974 C975 1.355 . S
C974 C976 1.415 . S
C975 C974 1.355 . S
C975 C977 1.419 . S
C976 C974 1.415 . S
C976 C981 1.425 . S
C976 C983 1.409 . S
C977 H969 0.930 . S
C977 C975 1.419 . S
C977 C978 1.362 . S
C978 H970 0.930 . S
C978 C977 1.362 . S
C978 C981 1.409 . S
C979 H971 0.930 . S
C979 C980 1.355 . S
C979 C981 1.415 . S
C980 C979 1.355 . S
C980 C982 1.419 . S
C981 C976 1.425 . S
C981 C978 1.409 . S
C981 C979 1.415 . S
C982 H972 0.930 . S
C982 C980 1.419 . S
C982 C983 1.362 . S
C983 H973 0.930 . S
C983 C976 1.409 . S
C983 C982 1.362 . S
H984 C990 0.930 . S
H985 C993 0.930 . S
H986 C994 0.930 . S
H987 C995 0.930 . S
H988 C998 0.930 . S
H989 C999 0.930 . S
C990 H984 0.930 . S
C990 C991 1.355 . S
C990 C992 1.415 . S
C991 C990 1.355 . S
C991 C993 1.419 . S
C992 C990 1.415 . S
C992 C997 1.425 . S
C992 C999 1.409 . S
C993 H985 0.930 . S
C993 C991 1.419 . S
C993 C994 1.362 . S
C994 H986 0.930 . S
C994 C993 1.362 . S
C994 C997 1.409 . S
C995 H987 0.930 . S
C995 C996 1.355 . S
C995 C997 1.415 . S
C996 C995 1.355 . S
C996 C998 1.419 . S
C997 C992 1.425 . S
C997 C994 1.409 . S
C997 C995 1.415 . S
C998 H988 0.930 . S
C998 C996 1.419 . S
C998 C999 1.362 . S
C999 H989 0.930 . S
C999 C992 1.409 . S
C999 C998 1.362 . S
H1000 C1006 0.930 . S
H1001 C1009 0.930 . S
H1002 C1010 0.930 . S
H1003 C1011 0.930 . S
H1004 C1014 0.930 . S
H1005 C1015 0.930 . S
C1006 H1000 0.930 . S
C1006 C1007 1.355 . S
C1006 C1008 1.415 . S
C1007 C1006 1.355 . S
C1007 C1009 1.419 . S
C1008 C1006 1.415 . S
C1008 C1013 1.425 . S
C1008 C1015 1.409 . S
C1009 H1001 0.930 . S
C1009 C1007 1.419 . S
C1009 C1010 1.362 . S
C1010 H1002 0.930 . S
C1010 C1009 1.362 . S
C1010 C1013 1.409 . S
C1011 H1003 0.930 . S
C1011 C1012 1.355 . S
C1011 C1013 1.415 . S
C1012 C1011 1.355 . S
C1012 C1014 1.419 . S
C1013 C1008 1.425 . S
C1013 C1010 1.409 . S
C1013 C1011 1.415 . S
C1014 H1004 0.930 . S
C1014 C1012 1.419 . S
C1014 C1015 1.362 . S
C1015 H1005 0.930 . S
C1015 C1008 1.409 . S
C1015 C1014 1.362 . S
H1016 C1022 0.930 . S
H1017 C1025 0.930 . S
H1018 C1026 0.930 . S
H1019 C1027 0.930 . S
H1020 C1030 0.930 . S
H1021 C1031 0.930 1_455 S
C1022 H1016 0.930 . S
C1022 C1023 1.355 . S
C1022 C1024 1.415 . S
C1023 C1022 1.355 . S
C1023 C1025 1.419 . S
C1024 C1022 1.415 . S
C1024 C1029 1.425 . S
C1024 C1031 1.409 . S
C1025 H1017 0.930 . S
C1025 C1023 1.419 . S
C1025 C1026 1.362 . S
C1026 H1018 0.930 . S
C1026 C1025 1.362 . S
C1026 C1029 1.409 . S
C1027 H1019 0.930 . S
C1027 C1028 1.355 1_655 S
C1027 C1029 1.415 . S
C1028 C1027 1.355 1_455 S
C1028 C1030 1.419 . S
C1029 C1024 1.425 . S
C1029 C1026 1.409 . S
C1029 C1027 1.415 . S
C1030 H1020 0.930 . S
C1030 C1028 1.419 . S
C1030 C1031 1.362 1_455 S
C1031 H1021 0.930 1_655 S
C1031 C1024 1.409 . S
C1031 C1030 1.362 1_655 S
H1032 C1038 0.930 . S
H1033 C1041 0.930 . S
H1034 C1042 0.930 . S
H1035 C1043 0.930 . S
H1036 C1046 0.930 . S
H1037 C1047 0.930 . S
C1038 H1032 0.930 . S
C1038 C1039 1.355 . S
C1038 C1040 1.415 . S
C1039 C1038 1.355 . S
C1039 C1041 1.419 . S
C1040 C1038 1.415 . S
C1040 C1045 1.425 . S
C1040 C1047 1.409 . S
C1041 H1033 0.930 . S
C1041 C1039 1.419 . S
C1041 C1042 1.362 . S
C1042 H1034 0.930 . S
C1042 C1041 1.362 . S
C1042 C1045 1.409 . S
C1043 H1035 0.930 . S
C1043 C1044 1.355 . S
C1043 C1045 1.415 . S
C1044 C1043 1.355 . S
C1044 C1046 1.419 . S
C1045 C1040 1.425 . S
C1045 C1042 1.409 . S
C1045 C1043 1.415 . S
C1046 H1036 0.930 . S
C1046 C1044 1.419 . S
C1046 C1047 1.362 . S
C1047 H1037 0.930 . S
C1047 C1040 1.409 . S
C1047 C1046 1.362 . S
H1048 C1054 0.930 . S
H1049 C1057 0.930 . S
H1050 C1058 0.930 . S
H1051 C1059 0.930 . S
H1052 C1062 0.930 . S
H1053 C1063 0.930 . S
C1054 H1048 0.930 . S
C1054 C1055 1.355 . S
C1054 C1056 1.415 . S
C1055 C1054 1.355 . S
C1055 C1057 1.419 . S
C1056 C1054 1.415 . S
C1056 C1061 1.425 . S
C1056 C1063 1.409 . S
C1057 H1049 0.930 . S
C1057 C1055 1.419 . S
C1057 C1058 1.362 . S
C1058 H1050 0.930 . S
C1058 C1057 1.362 . S
C1058 C1061 1.409 . S
C1059 H1051 0.930 . S
C1059 C1060 1.355 . S
C1059 C1061 1.415 . S
C1060 C1059 1.355 . S
C1060 C1062 1.419 . S
C1061 C1056 1.425 . S
C1061 C1058 1.409 . S
C1061 C1059 1.415 . S
C1062 H1052 0.930 . S
C1062 C1060 1.419 . S
C1062 C1063 1.362 . S
C1063 H1053 0.930 . S
C1063 C1056 1.409 . S
C1063 C1062 1.362 . S
H1064 C1070 0.930 . S
H1065 C1073 0.930 . S
H1066 C1074 0.930 . S
H1067 C1075 0.930 . S
H1068 C1078 0.930 . S
H1069 C1079 0.930 . S
C1070 H1064 0.930 . S
C1070 C1071 1.355 . S
C1070 C1072 1.415 . S
C1071 C1070 1.355 . S
C1071 C1073 1.419 . S
C1072 C1070 1.415 . S
C1072 C1077 1.425 . S
C1072 C1079 1.409 . S
C1073 H1065 0.930 . S
C1073 C1071 1.419 . S
C1073 C1074 1.362 . S
C1074 H1066 0.930 . S
C1074 C1073 1.362 . S
C1074 C1077 1.409 . S
C1075 H1067 0.930 . S
C1075 C1076 1.355 . S
C1075 C1077 1.415 . S
C1076 C1075 1.355 . S
C1076 C1078 1.419 . S
C1077 C1072 1.425 . S
C1077 C1074 1.409 . S
C1077 C1075 1.415 . S
C1078 H1068 0.930 . S
C1078 C1076 1.419 . S
C1078 C1079 1.362 . S
C1079 H1069 0.930 . S
C1079 C1072 1.409 . S
C1079 C1078 1.362 . S
H1080 C1086 0.930 . S
H1081 C1089 0.930 . S
H1082 C1090 0.930 . S
H1083 C1091 0.907 1_455 S
H1084 C1094 0.930 . S
H1085 C1095 0.930 . S
C1086 H1080 0.930 . S
C1086 C1087 1.355 . S
C1086 C1088 1.415 . S
C1087 C1086 1.355 . S
C1087 C1089 1.419 . S
C1088 C1086 1.415 . S
C1088 C1093 1.425 . S
C1088 C1095 1.409 . S
C1089 H1081 0.930 . S
C1089 C1087 1.419 . S
C1089 C1090 1.362 . S
C1090 H1082 0.930 . S
C1090 C1089 1.362 . S
C1090 C1093 1.409 . S
C1091 H1083 0.907 1_655 S
C1091 C1092 1.355 1_655 S
C1091 C1093 1.415 . S
C1092 C1091 1.355 1_455 S
C1092 C1094 1.419 1_455 S
C1093 C1088 1.425 . S
C1093 C1090 1.409 . S
C1093 C1091 1.415 . S
C1094 H1084 0.930 . S
C1094 C1092 1.419 1_655 S
C1094 C1095 1.362 . S
C1095 H1085 0.930 . S
C1095 C1088 1.409 . S
C1095 C1094 1.362 . S
H1096 C1102 0.930 . S
H1097 C1105 0.930 . S
H1098 C1106 0.930 . S
H1099 C1107 0.930 . S
H1100 C1110 0.930 . S
H1101 C1111 0.930 . S
C1102 H1096 0.930 . S
C1102 C1103 1.355 . S
C1102 C1104 1.415 . S
C1103 C1102 1.355 . S
C1103 C1105 1.419 . S
C1104 C1102 1.415 . S
C1104 C1109 1.425 . S
C1104 C1111 1.409 . S
C1105 H1097 0.930 . S
C1105 C1103 1.419 . S
C1105 C1106 1.362 . S
C1106 H1098 0.930 . S
C1106 C1105 1.362 . S
C1106 C1109 1.409 . S
C1107 H1099 0.930 . S
C1107 C1108 1.355 . S
C1107 C1109 1.415 . S
C1108 C1107 1.355 . S
C1108 C1110 1.419 . S
C1109 C1104 1.425 . S
C1109 C1106 1.409 . S
C1109 C1107 1.415 . S
C1110 H1100 0.930 . S
C1110 C1108 1.419 . S
C1110 C1111 1.362 . S
C1111 H1101 0.930 . S
C1111 C1104 1.409 . S
C1111 C1110 1.362 . S
H1112 C1118 0.930 . S
H1113 C1121 0.930 . S
H1114 C1122 0.930 . S
H1115 C1123 0.930 . S
H1116 C1126 0.930 . S
H1117 C1127 0.930 . S
C1118 H1112 0.930 . S
C1118 C1119 1.355 . S
C1118 C1120 1.415 . S
C1119 C1118 1.355 . S
C1119 C1121 1.419 . S
C1120 C1118 1.415 . S
C1120 C1125 1.425 . S
C1120 C1127 1.409 . S
C1121 H1113 0.930 . S
C1121 C1119 1.419 . S
C1121 C1122 1.362 . S
C1122 H1114 0.930 . S
C1122 C1121 1.362 . S
C1122 C1125 1.409 . S
C1123 H1115 0.930 . S
C1123 C1124 1.355 . S
C1123 C1125 1.415 . S
C1124 C1123 1.355 . S
C1124 C1126 1.419 . S
C1125 C1120 1.425 . S
C1125 C1122 1.409 . S
C1125 C1123 1.415 . S
C1126 H1116 0.930 . S
C1126 C1124 1.419 . S
C1126 C1127 1.362 . S
C1127 H1117 0.930 . S
C1127 C1120 1.409 . S
C1127 C1126 1.362 . S
H1128 C1134 0.930 . S
H1129 C1137 0.930 . S
H1130 C1138 0.930 . S
H1131 C1139 0.930 . S
H1132 C1142 0.930 . S
H1133 C1143 0.930 . S
C1134 H1128 0.930 . S
C1134 C1135 1.355 . S
C1134 C1136 1.415 . S
C1135 C1134 1.355 . S
C1135 C1137 1.419 . S
C1136 C1134 1.415 . S
C1136 C1141 1.425 . S
C1136 C1143 1.409 . S
C1137 H1129 0.930 . S
C1137 C1135 1.419 . S
C1137 C1138 1.362 . S
C1138 H1130 0.930 . S
C1138 C1137 1.362 . S
C1138 C1141 1.409 . S
C1139 H1131 0.930 . S
C1139 C1140 1.355 . S
C1139 C1141 1.415 . S
C1140 C1139 1.355 . S
C1140 C1142 1.419 . S
C1141 C1136 1.425 . S
C1141 C1138 1.409 . S
C1141 C1139 1.415 . S
C1142 H1132 0.930 . S
C1142 C1140 1.419 . S
C1142 C1143 1.362 . S
C1143 H1133 0.930 . S
C1143 C1136 1.409 . S
C1143 C1142 1.362 . S
H1144 C1150 0.930 . S
H1145 C1153 0.930 . S
H1146 C1154 0.930 . S
H1147 C1155 0.930 . S
H1148 C1158 0.930 . S
H1149 C1159 0.930 . S
C1150 H1144 0.930 . S
C1150 C1151 1.355 . S
C1150 C1152 1.415 . S
C1151 C1150 1.355 . S
C1151 C1153 1.419 . S
C1152 C1150 1.415 . S
C1152 C1157 1.425 . S
C1152 C1159 1.409 . S
C1153 H1145 0.930 . S
C1153 C1151 1.419 . S
C1153 C1154 1.362 . S
C1154 H1146 0.930 . S
C1154 C1153 1.362 . S
C1154 C1157 1.409 . S
C1155 H1147 0.930 . S
C1155 C1156 1.355 . S
C1155 C1157 1.415 . S
C1156 C1155 1.355 . S
C1156 C1158 1.419 . S
C1157 C1152 1.425 . S
C1157 C1154 1.409 . S
C1157 C1155 1.415 . S
C1158 H1148 0.930 . S
C1158 C1156 1.419 . S
C1158 C1159 1.362 . S
C1159 H1149 0.930 . S
C1159 C1152 1.409 . S
C1159 C1158 1.362 . S
H1160 C1166 0.930 . S
H1161 C1169 0.930 . S
H1162 C1170 0.930 . S
H1163 C1171 0.930 . S
H1164 C1174 0.930 . S
H1165 C1175 0.930 . S
C1166 H1160 0.930 . S
C1166 C1167 1.355 . S
C1166 C1168 1.415 . S
C1167 C1166 1.355 . S
C1167 C1169 1.419 . S
C1168 C1166 1.415 . S
C1168 C1173 1.425 . S
C1168 C1175 1.409 . S
C1169 H1161 0.930 . S
C1169 C1167 1.419 . S
C1169 C1170 1.362 . S
C1170 H1162 0.930 . S
C1170 C1169 1.362 . S
C1170 C1173 1.409 . S
C1171 H1163 0.930 . S
C1171 C1172 1.355 . S
C1171 C1173 1.415 . S
C1172 C1171 1.355 . S
C1172 C1174 1.419 . S
C1173 C1168 1.425 . S
C1173 C1170 1.409 . S
C1173 C1171 1.415 . S
C1174 H1164 0.930 . S
C1174 C1172 1.419 . S
C1174 C1175 1.362 . S
C1175 H1165 0.930 . S
C1175 C1168 1.409 . S
C1175 C1174 1.362 . S
H1176 C1182 0.930 . S
H1177 C1185 0.930 . S
H1178 C1186 0.930 . S
H1179 C1187 0.930 . S
H1180 C1190 0.930 . S
H1181 C1191 0.930 . S
C1182 H1176 0.930 . S
C1182 C1183 1.355 . S
C1182 C1184 1.415 . S
C1183 C1182 1.355 . S
C1183 C1185 1.419 . S
C1184 C1182 1.415 . S
C1184 C1189 1.425 . S
C1184 C1191 1.409 . S
C1185 H1177 0.930 . S
C1185 C1183 1.419 . S
C1185 C1186 1.362 . S
C1186 H1178 0.930 . S
C1186 C1185 1.362 . S
C1186 C1189 1.409 . S
C1187 H1179 0.930 . S
C1187 C1188 1.355 . S
C1187 C1189 1.415 . S
C1188 C1187 1.355 . S
C1188 C1190 1.419 . S
C1189 C1184 1.425 . S
C1189 C1186 1.409 . S
C1189 C1187 1.415 . S
C1190 H1180 0.930 . S
C1190 C1188 1.419 . S
C1190 C1191 1.362 . S
C1191 H1181 0.930 . S
C1191 C1184 1.409 . S
C1191 C1190 1.362 . S
H1192 C1198 0.930 . S
H1193 C1201 0.930 . S
H1194 C1202 0.930 . S
H1195 C1203 0.930 . S
H1196 C1206 0.930 . S
H1197 C1207 0.930 . S
C1198 H1192 0.930 . S
C1198 C1199 1.355 . S
C1198 C1200 1.415 . S
C1199 C1198 1.355 . S
C1199 C1201 1.419 . S
C1200 C1198 1.415 . S
C1200 C1205 1.425 . S
C1200 C1207 1.409 . S
C1201 H1193 0.930 . S
C1201 C1199 1.419 . S
C1201 C1202 1.362 . S
C1202 H1194 0.930 . S
C1202 C1201 1.362 . S
C1202 C1205 1.409 . S
C1203 H1195 0.930 . S
C1203 C1204 1.355 . S
C1203 C1205 1.415 . S
C1204 C1203 1.355 . S
C1204 C1206 1.419 . S
C1205 C1200 1.425 . S
C1205 C1202 1.409 . S
C1205 C1203 1.415 . S
C1206 H1196 0.930 . S
C1206 C1204 1.419 . S
C1206 C1207 1.362 . S
C1207 H1197 0.930 . S
C1207 C1200 1.409 . S
C1207 C1206 1.362 . S
H1208 C1214 0.930 . S
H1209 C1217 0.930 . S
H1210 C1218 0.930 . S
H1211 C1219 0.930 . S
H1212 C1222 0.930 . S
H1213 C1223 0.930 . S
C1214 H1208 0.930 . S
C1214 C1215 1.355 . S
C1214 C1216 1.415 . S
C1215 C1214 1.355 . S
C1215 C1217 1.419 . S
C1216 C1214 1.415 . S
C1216 C1221 1.425 . S
C1216 C1223 1.409 . S
C1217 H1209 0.930 . S
C1217 C1215 1.419 . S
C1217 C1218 1.362 . S
C1218 H1210 0.930 . S
C1218 C1217 1.362 . S
C1218 C1221 1.409 . S
C1219 H1211 0.930 . S
C1219 C1220 1.355 . S
C1219 C1221 1.415 . S
C1220 C1219 1.355 . S
C1220 C1222 1.419 . S
C1221 C1216 1.425 . S
C1221 C1218 1.409 . S
C1221 C1219 1.415 . S
C1222 H1212 0.930 . S
C1222 C1220 1.419 . S
C1222 C1223 1.362 . S
C1223 H1213 0.930 . S
C1223 C1216 1.409 . S
C1223 C1222 1.362 . S
H1224 C1230 0.930 . S
H1225 C1233 0.930 . S
H1226 C1234 0.930 . S
H1227 C1235 0.930 . S
H1228 C1238 0.930 . S
H1229 C1239 0.930 . S
C1230 H1224 0.930 . S
C1230 C1231 1.355 . S
C1230 C1232 1.415 . S
C1231 C1230 1.355 . S
C1231 C1233 1.419 . S
C1232 C1230 1.415 . S
C1232 C1237 1.425 . S
C1232 C1239 1.409 . S
C1233 H1225 0.930 . S
C1233 C1231 1.419 . S
C1233 C1234 1.362 . S
C1234 H1226 0.930 . S
C1234 C1233 1.362 . S
C1234 C1237 1.409 . S
C1235 H1227 0.930 . S
C1235 C1236 1.355 . S
C1235 C1237 1.415 . S
C1236 C1235 1.355 . S
C1236 C1238 1.419 . S
C1237 C1232 1.425 . S
C1237 C1234 1.409 . S
C1237 C1235 1.415 . S
C1238 H1228 0.930 . S
C1238 C1236 1.419 . S
C1238 C1239 1.362 . S
C1239 H1229 0.930 . S
C1239 C1232 1.409 . S
C1239 C1238 1.362 . S
H1240 C1246 0.930 . S
H1241 C1249 0.930 . S
H1242 C1250 0.930 . S
H1243 C1251 0.930 . S
H1244 C1254 0.930 . S
H1245 C1255 0.930 . S
C1246 H1240 0.930 . S
C1246 C1247 1.355 . S
C1246 C1248 1.415 . S
C1247 C1246 1.355 . S
C1247 C1249 1.419 . S
C1248 C1246 1.415 . S
C1248 C1253 1.425 . S
C1248 C1255 1.409 . S
C1249 H1241 0.930 . S
C1249 C1247 1.419 . S
C1249 C1250 1.362 . S
C1250 H1242 0.930 . S
C1250 C1249 1.362 . S
C1250 C1253 1.409 . S
C1251 H1243 0.930 . S
C1251 C1252 1.355 . S
C1251 C1253 1.415 . S
C1252 C1251 1.355 . S
C1252 C1254 1.419 . S
C1253 C1248 1.425 . S
C1253 C1250 1.409 . S
C1253 C1251 1.415 . S
C1254 H1244 0.930 . S
C1254 C1252 1.419 . S
C1254 C1255 1.362 . S
C1255 H1245 0.930 . S
C1255 C1248 1.409 . S
C1255 C1254 1.362 . S
H1256 C1262 0.930 . S
H1257 C1265 0.930 . S
H1258 C1266 0.930 . S
H1259 C1267 0.930 . S
H1260 C1270 0.930 . S
H1261 C1271 0.930 . S
C1262 H1256 0.930 . S
C1262 C1263 1.355 . S
C1262 C1264 1.415 . S
C1263 C1262 1.355 . S
C1263 C1265 1.419 . S
C1264 C1262 1.415 . S
C1264 C1269 1.425 . S
C1264 C1271 1.409 . S
C1265 H1257 0.930 . S
C1265 C1263 1.419 . S
C1265 C1266 1.362 . S
C1266 H1258 0.930 . S
C1266 C1265 1.362 . S
C1266 C1269 1.409 . S
C1267 H1259 0.930 . S
C1267 C1268 1.355 . S
C1267 C1269 1.415 . S
C1268 C1267 1.355 . S
C1268 C1270 1.419 . S
C1269 C1264 1.425 . S
C1269 C1266 1.409 . S
C1269 C1267 1.415 . S
C1270 H1260 0.930 . S
C1270 C1268 1.419 . S
C1270 C1271 1.362 . S
C1271 H1261 0.930 . S
C1271 C1264 1.409 . S
C1271 C1270 1.362 . S
H1272 C1278 0.930 . S
H1273 C1281 0.930 . S
H1274 C1282 0.930 . S
H1275 C1283 0.930 . S
H1276 C1286 0.930 . S
H1277 C1287 0.930 . S
C1278 H1272 0.930 . S
C1278 C1279 1.355 . S
C1278 C1280 1.415 . S
C1279 C1278 1.355 . S
C1279 C1281 1.419 . S
C1280 C1278 1.415 . S
C1280 C1285 1.425 . S
C1280 C1287 1.409 . S
C1281 H1273 0.930 . S
C1281 C1279 1.419 . S
C1281 C1282 1.362 . S
C1282 H1274 0.930 . S
C1282 C1281 1.362 . S
C1282 C1285 1.409 . S
C1283 H1275 0.930 . S
C1283 C1284 1.355 . S
C1283 C1285 1.415 . S
C1284 C1283 1.355 . S
C1284 C1286 1.419 . S
C1285 C1280 1.425 . S
C1285 C1282 1.409 . S
C1285 C1283 1.415 . S
C1286 H1276 0.930 . S
C1286 C1284 1.419 . S
C1286 C1287 1.362 . S
C1287 H1277 0.930 . S
C1287 C1280 1.409 . S
C1287 C1286 1.362 . S
H1288 C1294 0.930 . S
H1289 C1297 0.930 . S
H1290 C1298 0.930 . S
H1291 C1299 0.930 . S
H1292 C1302 0.930 . S
H1293 C1303 0.930 . S
C1294 H1288 0.930 . S
C1294 C1295 1.355 . S
C1294 C1296 1.415 . S
C1295 C1294 1.355 . S
C1295 C1297 1.419 . S
C1296 C1294 1.415 . S
C1296 C1301 1.425 . S
C1296 C1303 1.409 . S
C1297 H1289 0.930 . S
C1297 C1295 1.419 . S
C1297 C1298 1.362 . S
C1298 H1290 0.930 . S
C1298 C1297 1.362 . S
C1298 C1301 1.409 . S
C1299 H1291 0.930 . S
C1299 C1300 1.355 . S
C1299 C1301 1.415 . S
C1300 C1299 1.355 . S
C1300 C1302 1.419 . S
C1301 C1296 1.425 . S
C1301 C1298 1.409 . S
C1301 C1299 1.415 . S
C1302 H1292 0.930 . S
C1302 C1300 1.419 . S
C1302 C1303 1.362 . S
C1303 H1293 0.930 . S
C1303 C1296 1.409 . S
C1303 C1302 1.362 . S
H1304 C1310 0.930 . S
H1305 C1313 0.930 . S
H1306 C1314 0.930 . S
H1307 C1315 0.930 . S
H1308 C1318 0.930 . S
H1309 C1319 0.930 . S
C1310 H1304 0.930 . S
C1310 C1311 1.355 . S
C1310 C1312 1.415 . S
C1311 C1310 1.355 . S
C1311 C1313 1.419 . S
C1312 C1310 1.415 . S
C1312 C1317 1.425 . S
C1312 C1319 1.409 . S
C1313 H1305 0.930 . S
C1313 C1311 1.419 . S
C1313 C1314 1.362 . S
C1314 H1306 0.930 . S
C1314 C1313 1.362 . S
C1314 C1317 1.409 . S
C1315 H1307 0.930 . S
C1315 C1316 1.355 . S
C1315 C1317 1.415 . S
C1316 C1315 1.355 . S
C1316 C1318 1.419 . S
C1317 C1312 1.425 . S
C1317 C1314 1.409 . S
C1317 C1315 1.415 . S
C1318 H1308 0.930 . S
C1318 C1316 1.419 . S
C1318 C1319 1.362 . S
C1319 H1309 0.930 . S
C1319 C1312 1.409 . S
C1319 C1318 1.362 . S
H1320 C1326 0.930 . S
H1321 C1329 0.930 . S
H1322 C1330 0.930 . S
H1323 C1331 0.930 . S
H1324 C1334 0.930 . S
H1325 C1335 0.930 . S
C1326 H1320 0.930 . S
C1326 C1327 1.355 . S
C1326 C1328 1.415 . S
C1327 C1326 1.355 . S
C1327 C1329 1.419 . S
C1328 C1326 1.415 . S
C1328 C1333 1.425 . S
C1328 C1335 1.409 . S
C1329 H1321 0.930 . S
C1329 C1327 1.419 . S
C1329 C1330 1.362 . S
C1330 H1322 0.930 . S
C1330 C1329 1.362 . S
C1330 C1333 1.409 . S
C1331 H1323 0.930 . S
C1331 C1332 1.355 . S
C1331 C1333 1.415 . S
C1332 C1331 1.355 . S
C1332 C1334 1.419 . S
C1333 C1328 1.425 . S
C1333 C1330 1.409 . S
C1333 C1331 1.415 . S
C1334 H1324 0.930 . S
C1334 C1332 1.419 . S
C1334 C1335 1.362 . S
C1335 H1325 0.930 . S
C1335 C1328 1.409 . S
C1335 C1334 1.362 . S
H1336 C1342 0.930 . S
H1337 C1345 0.930 . S
H1338 C1346 0.930 . S
H1339 C1347 0.930 . S
H1340 C1350 0.930 . S
H1341 C1351 0.930 . S
C1342 H1336 0.930 . S
C1342 C1343 1.355 . S
C1342 C1344 1.415 . S
C1343 C1342 1.355 . S
C1343 C1345 1.419 . S
C1344 C1342 1.415 . S
C1344 C1349 1.425 . S
C1344 C1351 1.409 . S
C1345 H1337 0.930 . S
C1345 C1343 1.419 . S
C1345 C1346 1.362 . S
C1346 H1338 0.930 . S
C1346 C1345 1.362 . S
C1346 C1349 1.409 . S
C1347 H1339 0.930 . S
C1347 C1348 1.355 . S
C1347 C1349 1.415 . S
C1348 C1347 1.355 . S
C1348 C1350 1.419 . S
C1349 C1344 1.425 . S
C1349 C1346 1.409 . S
C1349 C1347 1.415 . S
C1350 H1340 0.930 . S
C1350 C1348 1.419 . S
C1350 C1351 1.362 . S
C1351 H1341 0.930 . S
C1351 C1344 1.409 . S
C1351 C1350 1.362 . S
H1352 C1358 0.930 . S
H1353 C1361 0.930 . S
H1354 C1362 0.930 . S
H1355 C1363 0.930 . S
H1356 C1366 0.930 . S
H1357 C1367 0.930 . S
C1358 H1352 0.930 . S
C1358 C1359 1.355 . S
C1358 C1360 1.415 . S
C1359 C1358 1.355 . S
C1359 C1361 1.419 . S
C1360 C1358 1.415 . S
C1360 C1365 1.425 . S
C1360 C1367 1.409 . S
C1361 H1353 0.930 . S
C1361 C1359 1.419 . S
C1361 C1362 1.362 . S
C1362 H1354 0.930 . S
C1362 C1361 1.362 . S
C1362 C1365 1.409 . S
C1363 H1355 0.930 . S
C1363 C1364 1.355 . S
C1363 C1365 1.415 . S
C1364 C1363 1.355 . S
C1364 C1366 1.419 . S
C1365 C1360 1.425 . S
C1365 C1362 1.409 . S
C1365 C1363 1.415 . S
C1366 H1356 0.930 . S
C1366 C1364 1.419 . S
C1366 C1367 1.362 . S
C1367 H1357 0.930 . S
C1367 C1360 1.409 . S
C1367 C1366 1.362 . S
H1368 C1374 0.930 . S
H1369 C1377 0.930 . S
H1370 C1378 0.930 . S
H1371 C1379 0.930 . S
H1372 C1382 0.930 . S
H1373 C1383 0.930 . S
C1374 H1368 0.930 . S
C1374 C1375 1.355 . S
C1374 C1376 1.415 . S
C1375 C1374 1.355 . S
C1375 C1377 1.419 . S
C1376 C1374 1.415 . S
C1376 C1381 1.425 . S
C1376 C1383 1.409 . S
C1377 H1369 0.930 . S
C1377 C1375 1.419 . S
C1377 C1378 1.362 . S
C1378 H1370 0.930 . S
C1378 C1377 1.362 . S
C1378 C1381 1.409 . S
C1379 H1371 0.930 . S
C1379 C1380 1.355 . S
C1379 C1381 1.415 . S
C1380 C1379 1.355 . S
C1380 C1382 1.419 . S
C1381 C1376 1.425 . S
C1381 C1378 1.409 . S
C1381 C1379 1.415 . S
C1382 H1372 0.930 . S
C1382 C1380 1.419 . S
C1382 C1383 1.362 . S
C1383 H1373 0.930 . S
C1383 C1376 1.409 . S
C1383 C1382 1.362 . S
H1384 C1390 0.930 . S
H1385 C1393 0.930 . S
H1386 C1394 0.930 . S
H1387 C1395 0.930 . S
H1388 C1398 0.930 . S
H1389 C1399 0.930 . S
C1390 H1384 0.930 . S
C1390 C1391 1.355 . S
C1390 C1392 1.415 . S
C1391 C1390 1.355 . S
C1391 C1393 1.419 . S
C1392 C1390 1.415 . S
C1392 C1397 1.425 . S
C1392 C1399 1.409 . S
C1393 H1385 0.930 . S
C1393 C1391 1.419 . S
C1393 C1394 1.362 . S
C1394 H1386 0.930 . S
C1394 C1393 1.362 . S
C1394 C1397 1.409 . S
C1395 H1387 0.930 . S
C1395 C1396 1.355 . S
C1395 C1397 1.415 . S
C1396 C1395 1.355 . S
C1396 C1398 1.419 . S
C1397 C1392 1.425 . S
C1397 C1394 1.409 . S
C1397 C1395 1.415 . S
C1398 H1388 0.930 . S
C1398 C1396 1.419 . S
C1398 C1399 1.362 . S
C1399 H1389 0.930 . S
C1399 C1392 1.409 . S
C1399 C1398 1.362 . S
H1400 C1406 0.930 . S
H1401 C1409 0.930 . S
H1402 C1410 0.930 . S
H1403 C1411 0.930 . S
H1404 C1414 0.930 1_455 S
H1405 C1415 0.930 . S
C1406 H1400 0.930 . S
C1406 C1407 1.355 . S
C1406 C1408 1.415 . S
C1407 C1406 1.355 . S
C1407 C1409 1.419 . S
C1408 C1406 1.415 . S
C1408 C1413 1.425 . S
C1408 C1415 1.409 . S
C1409 H1401 0.930 . S
C1409 C1407 1.419 . S
C1409 C1410 1.362 . S
C1410 H1402 0.930 . S
C1410 C1409 1.362 . S
C1410 C1413 1.409 . S
C1411 H1403 0.930 . S
C1411 C1412 1.355 . S
C1411 C1413 1.415 1_455 S
C1412 C1411 1.355 . S
C1412 C1414 1.419 1_455 S
C1413 C1408 1.425 . S
C1413 C1410 1.409 . S
C1413 C1411 1.415 1_655 S
C1414 H1404 0.930 1_655 S
C1414 C1412 1.419 1_655 S
C1414 C1415 1.362 . S
C1415 H1405 0.930 . S
C1415 C1408 1.409 . S
C1415 C1414 1.362 . S
H1416 C1422 0.930 . S
H1417 C1425 0.930 . S
H1418 C1426 0.930 . S
H1419 C1427 0.930 . S
H1420 C1430 0.930 . S
H1421 C1431 0.930 . S
C1422 H1416 0.930 . S
C1422 C1423 1.355 . S
C1422 C1424 1.415 . S
C1423 C1422 1.355 . S
C1423 C1425 1.419 . S
C1424 C1422 1.415 . S
C1424 C1429 1.425 . S
C1424 C1431 1.409 . S
C1425 H1417 0.930 . S
C1425 C1423 1.419 . S
C1425 C1426 1.362 . S
C1426 H1418 0.930 . S
C1426 C1425 1.362 . S
C1426 C1429 1.409 . S
C1427 H1419 0.930 . S
C1427 C1428 1.355 . S
C1427 C1429 1.415 . S
C1428 C1427 1.355 . S
C1428 C1430 1.419 . S
C1429 C1424 1.425 . S
C1429 C1426 1.409 . S
C1429 C1427 1.415 . S
C1430 H1420 0.930 . S
C1430 C1428 1.419 . S
C1430 C1431 1.362 . S
C1431 H1421 0.930 . S
C1431 C1424 1.409 . S
C1431 C1430 1.362 . S
H1432 C1438 0.930 . S
H1433 C1441 0.930 . S
H1434 C1442 0.930 . S
H1435 C1443 0.930 . S
H1436 C1446 0.930 . S
H1437 C1447 0.930 . S
C1438 H1432 0.930 . S
C1438 C1439 1.355 . S
C1438 C1440 1.415 . S
C1439 C1438 1.355 . S
C1439 C1441 1.419 . S
C1440 C1438 1.415 . S
C1440 C1445 1.425 . S
C1440 C1447 1.409 . S
C1441 H1433 0.930 . S
C1441 C1439 1.419 . S
C1441 C1442 1.362 . S
C1442 H1434 0.930 . S
C1442 C1441 1.362 . S
C1442 C1445 1.409 . S
C1443 H1435 0.930 . S
C1443 C1444 1.355 . S
C1443 C1445 1.415 . S
C1444 C1443 1.355 . S
C1444 C1446 1.419 . S
C1445 C1440 1.425 . S
C1445 C1442 1.409 . S
C1445 C1443 1.415 . S
C1446 H1436 0.930 . S
C1446 C1444 1.419 . S
C1446 C1447 1.362 . S
C1447 H1437 0.930 . S
C1447 C1440 1.409 . S
C1447 C1446 1.362 . S
H1448 C1454 0.930 . S
H1449 C1457 0.930 . S
H1450 C1458 0.930 . S
H1451 C1459 0.930 . S
H1452 C1462 0.930 . S
H1453 C1463 0.930 . S
C1454 H1448 0.930 . S
C1454 C1455 1.355 . S
C1454 C1456 1.415 . S
C1455 C1454 1.355 . S
C1455 C1457 1.419 . S
C1456 C1454 1.415 . S
C1456 C1461 1.425 . S
C1456 C1463 1.409 . S
C1457 H1449 0.930 . S
C1457 C1455 1.419 . S
C1457 C1458 1.362 . S
C1458 H1450 0.930 . S
C1458 C1457 1.362 . S
C1458 C1461 1.409 . S
C1459 H1451 0.930 . S
C1459 C1460 1.355 . S
C1459 C1461 1.415 . S
C1460 C1459 1.355 . S
C1460 C1462 1.419 . S
C1461 C1456 1.425 . S
C1461 C1458 1.409 . S
C1461 C1459 1.415 . S
C1462 H1452 0.930 . S
C1462 C1460 1.419 . S
C1462 C1463 1.362 . S
C1463 H1453 0.930 . S
C1463 C1456 1.409 . S
C1463 C1462 1.362 . S
H1464 C1470 0.930 . S
H1465 C1473 0.930 . S
H1466 C1474 0.930 . S
H1467 C1475 0.930 . S
H1468 C1478 0.930 1_455 S
H1469 C1479 0.930 . S
C1470 H1464 0.930 . S
C1470 C1471 1.355 . S
C1470 C1472 1.415 . S
C1471 C1470 1.355 . S
C1471 C1473 1.419 . S
C1472 C1470 1.415 . S
C1472 C1477 1.425 . S
C1472 C1479 1.409 . S
C1473 H1465 0.930 . S
C1473 C1471 1.419 . S
C1473 C1474 1.362 . S
C1474 H1466 0.930 . S
C1474 C1473 1.362 . S
C1474 C1477 1.409 . S
C1475 H1467 0.930 . S
C1475 C1476 1.352 1_655 S
C1475 C1477 1.415 . S
C1476 C1475 1.352 1_455 S
C1476 C1478 1.418 1_455 S
C1477 C1472 1.425 . S
C1477 C1474 1.409 . S
C1477 C1475 1.415 . S
C1478 H1468 0.930 1_655 S
C1478 C1476 1.418 1_655 S
C1478 C1479 1.362 . S
C1479 H1469 0.930 . S
C1479 C1472 1.409 . S
C1479 C1478 1.362 . S
H1480 C1486 0.930 . S
H1481 C1489 0.930 . S
H1482 C1490 0.930 . S
H1483 C1491 0.930 . S
H1484 C1494 0.930 . S
H1485 C1495 0.930 . S
C1486 H1480 0.930 . S
C1486 C1487 1.355 . S
C1486 C1488 1.415 . S
C1487 C1486 1.355 . S
C1487 C1489 1.419 . S
C1488 C1486 1.415 . S
C1488 C1493 1.425 . S
C1488 C1495 1.409 . S
C1489 H1481 0.930 . S
C1489 C1487 1.419 . S
C1489 C1490 1.362 . S
C1490 H1482 0.930 . S
C1490 C1489 1.362 . S
C1490 C1493 1.409 . S
C1491 H1483 0.930 . S
C1491 C1492 1.355 . S
C1491 C1493 1.415 . S
C1492 C1491 1.355 . S
C1492 C1494 1.419 . S
C1493 C1488 1.425 . S
C1493 C1490 1.409 . S
C1493 C1491 1.415 . S
C1494 H1484 0.930 . S
C1494 C1492 1.419 . S
C1494 C1495 1.362 . S
C1495 H1485 0.930 . S
C1495 C1488 1.409 . S
C1495 C1494 1.362 . S
H1496 C1502 0.930 . S
H1497 C1505 0.930 . S
H1498 C1506 0.930 . S
H1499 C1507 0.930 . S
H1500 C1510 0.930 . S
H1501 C1511 0.930 . S
C1502 H1496 0.930 . S
C1502 C1503 1.355 . S
C1502 C1504 1.415 . S
C1503 C1502 1.355 . S
C1503 C1505 1.419 . S
C1504 C1502 1.415 . S
C1504 C1509 1.425 . S
C1504 C1511 1.409 . S
C1505 H1497 0.930 . S
C1505 C1503 1.419 . S
C1505 C1506 1.362 . S
C1506 H1498 0.930 . S
C1506 C1505 1.362 . S
C1506 C1509 1.409 . S
C1507 H1499 0.930 . S
C1507 C1508 1.355 . S
C1507 C1509 1.415 . S
C1508 C1507 1.355 . S
C1508 C1510 1.419 . S
C1509 C1504 1.425 . S
C1509 C1506 1.409 . S
C1509 C1507 1.415 . S
C1510 H1500 0.930 . S
C1510 C1508 1.419 . S
C1510 C1511 1.362 . S
C1511 H1501 0.930 . S
C1511 C1504 1.409 . S
C1511 C1510 1.362 . S
H1512 C1518 0.930 . S
H1513 C1521 0.930 . S
H1514 C1522 0.930 . S
H1515 C1523 0.930 . S
H1516 C1526 0.930 . S
H1517 C1527 0.930 . S
C1518 H1512 0.930 . S
C1518 C1519 1.355 . S
C1518 C1520 1.415 . S
C1519 C1518 1.355 . S
C1519 C1521 1.419 . S
C1520 C1518 1.415 . S
C1520 C1525 1.425 . S
C1520 C1527 1.409 . S
C1521 H1513 0.930 . S
C1521 C1519 1.419 . S
C1521 C1522 1.362 . S
C1522 H1514 0.930 . S
C1522 C1521 1.362 . S
C1522 C1525 1.409 . S
C1523 H1515 0.930 . S
C1523 C1524 1.355 . S
C1523 C1525 1.415 . S
C1524 C1523 1.355 . S
C1524 C1526 1.419 . S
C1525 C1520 1.425 . S
C1525 C1522 1.409 . S
C1525 C1523 1.415 . S
C1526 H1516 0.930 . S
C1526 C1524 1.419 . S
C1526 C1527 1.362 . S
C1527 H1517 0.930 . S
C1527 C1520 1.409 . S
C1527 C1526 1.362 . S
H1528 C1534 0.930 . S
H1529 C1537 0.930 . S
H1530 C1538 0.930 . S
H1531 C1539 0.930 . S
H1532 C1542 0.930 . S
H1533 C1543 0.930 . S
C1534 H1528 0.930 . S
C1534 C1535 1.355 . S
C1534 C1536 1.415 . S
C1535 C1534 1.355 . S
C1535 C1537 1.419 . S
C1536 C1534 1.415 . S
C1536 C1541 1.425 . S
C1536 C1543 1.409 . S
C1537 H1529 0.930 . S
C1537 C1535 1.419 . S
C1537 C1538 1.362 . S
C1538 H1530 0.930 . S
C1538 C1537 1.362 . S
C1538 C1541 1.409 . S
C1539 H1531 0.930 . S
C1539 C1540 1.355 . S
C1539 C1541 1.415 . S
C1540 C1539 1.355 . S
C1540 C1542 1.419 . S
C1541 C1536 1.425 . S
C1541 C1538 1.409 . S
C1541 C1539 1.415 . S
C1542 H1532 0.930 . S
C1542 C1540 1.419 . S
C1542 C1543 1.362 . S
C1543 H1533 0.930 . S
C1543 C1536 1.409 . S
C1543 C1542 1.362 . S
H1544 C1550 0.930 . S
H1545 C1553 0.930 . S
H1546 C1554 0.930 . S
H1547 C1555 0.930 . S
H1548 C1558 0.930 . S
H1549 C1559 0.930 . S
C1550 H1544 0.930 . S
C1550 C1551 1.355 . S
C1550 C1552 1.415 . S
C1551 C1550 1.355 . S
C1551 C1553 1.419 . S
C1552 C1550 1.415 . S
C1552 C1557 1.425 . S
C1552 C1559 1.409 . S
C1553 H1545 0.930 . S
C1553 C1551 1.419 . S
C1553 C1554 1.362 . S
C1554 H1546 0.930 . S
C1554 C1553 1.362 . S
C1554 C1557 1.409 . S
C1555 H1547 0.930 . S
C1555 C1556 1.355 . S
C1555 C1557 1.415 . S
C1556 C1555 1.355 . S
C1556 C1558 1.419 . S
C1557 C1552 1.425 . S
C1557 C1554 1.409 . S
C1557 C1555 1.415 . S
C1558 H1548 0.930 . S
C1558 C1556 1.419 . S
C1558 C1559 1.362 . S
C1559 H1549 0.930 . S
C1559 C1552 1.409 . S
C1559 C1558 1.362 . S
H1560 C1566 0.930 . S
H1561 C1569 0.930 . S
H1562 C1570 0.930 . S
H1563 C1571 0.930 . S
H1564 C1574 0.930 . S
H1565 C1575 0.930 . S
C1566 H1560 0.930 . S
C1566 C1567 1.355 . S
C1566 C1568 1.415 . S
C1567 C1566 1.355 . S
C1567 C1569 1.419 . S
C1568 C1566 1.415 . S
C1568 C1573 1.425 . S
C1568 C1575 1.409 . S
C1569 H1561 0.930 . S
C1569 C1567 1.419 . S
C1569 C1570 1.362 . S
C1570 H1562 0.930 . S
C1570 C1569 1.362 . S
C1570 C1573 1.409 . S
C1571 H1563 0.930 . S
C1571 C1572 1.355 . S
C1571 C1573 1.415 . S
C1572 C1571 1.355 . S
C1572 C1574 1.419 . S
C1573 C1568 1.425 . S
C1573 C1570 1.409 . S
C1573 C1571 1.415 . S
C1574 H1564 0.930 . S
C1574 C1572 1.419 . S
C1574 C1575 1.362 . S
C1575 H1565 0.930 . S
C1575 C1568 1.409 . S
C1575 C1574 1.362 . S
H1576 C1582 0.930 . S
H1577 C1585 0.930 . S
H1578 C1586 0.930 . S
H1579 C1587 0.930 . S
H1580 C1590 0.930 . S
H1581 C1591 0.930 . S
C1582 H1576 0.930 . S
C1582 C1583 1.355 . S
C1582 C1584 1.415 . S
C1583 C1582 1.355 . S
C1583 C1585 1.419 . S
C1584 C1582 1.415 . S
C1584 C1589 1.425 . S
C1584 C1591 1.409 . S
C1585 H1577 0.930 . S
C1585 C1583 1.419 . S
C1585 C1586 1.362 . S
C1586 H1578 0.930 . S
C1586 C1585 1.362 . S
C1586 C1589 1.409 . S
C1587 H1579 0.930 . S
C1587 C1588 1.355 . S
C1587 C1589 1.415 . S
C1588 C1587 1.355 . S
C1588 C1590 1.419 . S
C1589 C1584 1.425 . S
C1589 C1586 1.409 . S
C1589 C1587 1.415 . S
C1590 H1580 0.930 . S
C1590 C1588 1.419 . S
C1590 C1591 1.362 . S
C1591 H1581 0.930 . S
C1591 C1584 1.409 . S
C1591 C1590 1.362 . S
H1592 C1598 0.930 . S
H1593 C1601 0.930 . S
H1594 C1602 0.930 . S
H1595 C1603 0.930 . S
H1596 C1606 0.930 . S
H1597 C1607 0.930 . S
C1598 H1592 0.930 . S
C1598 C1599 1.355 . S
C1598 C1600 1.415 . S
C1599 C1598 1.355 . S
C1599 C1601 1.419 . S
C1600 C1598 1.415 . S
C1600 C1605 1.425 . S
C1600 C1607 1.409 . S
C1601 H1593 0.930 . S
C1601 C1599 1.419 . S
C1601 C1602 1.362 . S
C1602 H1594 0.930 . S
C1602 C1601 1.362 . S
C1602 C1605 1.409 . S
C1603 H1595 0.930 . S
C1603 C1604 1.355 . S
C1603 C1605 1.415 . S
C1604 C1603 1.355 . S
C1604 C1606 1.419 . S
C1605 C1600 1.425 . S
C1605 C1602 1.409 . S
C1605 C1603 1.415 . S
C1606 H1596 0.930 . S
C1606 C1604 1.419 . S
C1606 C1607 1.362 . S
C1607 H1597 0.930 . S
C1607 C1600 1.409 . S
C1607 C1606 1.362 . S
H1608 C1614 0.930 . S
H1609 C1617 0.930 . S
H1610 C1618 0.930 . S
H1611 C1619 0.930 . S
H1612 C1622 0.930 . S
H1613 C1623 0.930 . S
C1614 H1608 0.930 . S
C1614 C1615 1.355 . S
C1614 C1616 1.415 . S
C1615 C1614 1.355 . S
C1615 C1617 1.419 . S
C1616 C1614 1.415 . S
C1616 C1621 1.425 . S
C1616 C1623 1.409 . S
C1617 H1609 0.930 . S
C1617 C1615 1.419 . S
C1617 C1618 1.362 . S
C1618 H1610 0.930 . S
C1618 C1617 1.362 . S
C1618 C1621 1.409 . S
C1619 H1611 0.930 . S
C1619 C1620 1.355 . S
C1619 C1621 1.415 . S
C1620 C1619 1.355 . S
C1620 C1622 1.419 . S
C1621 C1616 1.425 . S
C1621 C1618 1.409 . S
C1621 C1619 1.415 . S
C1622 H1612 0.930 . S
C1622 C1620 1.419 . S
C1622 C1623 1.362 . S
C1623 H1613 0.930 . S
C1623 C1616 1.409 . S
C1623 C1622 1.362 . S
H1624 C1630 0.930 . S
H1625 C1633 0.930 . S
H1626 C1634 0.930 . S
H1627 C1635 0.930 . S
H1628 C1638 0.930 . S
H1629 C1639 0.930 . S
C1630 H1624 0.930 . S
C1630 C1631 1.355 . S
C1630 C1632 1.415 . S
C1631 C1630 1.355 . S
C1631 C1633 1.419 . S
C1632 C1630 1.415 . S
C1632 C1637 1.425 . S
C1632 C1639 1.409 . S
C1633 H1625 0.930 . S
C1633 C1631 1.419 . S
C1633 C1634 1.362 . S
C1634 H1626 0.930 . S
C1634 C1633 1.362 . S
C1634 C1637 1.409 . S
C1635 H1627 0.930 . S
C1635 C1636 1.355 . S
C1635 C1637 1.415 . S
C1636 C1635 1.355 . S
C1636 C1638 1.419 . S
C1637 C1632 1.425 . S
C1637 C1634 1.409 . S
C1637 C1635 1.415 . S
C1638 H1628 0.930 . S
C1638 C1636 1.419 . S
C1638 C1639 1.362 . S
C1639 H1629 0.930 . S
C1639 C1632 1.409 . S
C1639 C1638 1.362 . S
H1640 C1646 0.930 . S
H1641 C1649 0.930 . S
H1642 C1650 0.930 . S
H1643 C1651 0.930 . S
H1644 C1654 0.930 . S
H1645 C1655 0.930 . S
C1646 H1640 0.930 . S
C1646 C1647 1.355 . S
C1646 C1648 1.415 . S
C1647 C1646 1.355 . S
C1647 C1649 1.419 . S
C1648 C1646 1.415 . S
C1648 C1653 1.425 . S
C1648 C1655 1.409 . S
C1649 H1641 0.930 . S
C1649 C1647 1.419 . S
C1649 C1650 1.362 . S
C1650 H1642 0.930 . S
C1650 C1649 1.362 . S
C1650 C1653 1.409 . S
C1651 H1643 0.930 . S
C1651 C1652 1.355 . S
C1651 C1653 1.415 . S
C1652 C1651 1.355 . S
C1652 C1654 1.419 . S
C1653 C1648 1.425 . S
C1653 C1650 1.409 . S
C1653 C1651 1.415 . S
C1654 H1644 0.930 . S
C1654 C1652 1.419 . S
C1654 C1655 1.362 . S
C1655 H1645 0.930 . S
C1655 C1648 1.409 . S
C1655 C1654 1.362 . S
H1656 C1662 0.930 . S
H1657 C1665 0.930 . S
H1658 C1666 0.930 . S
H1659 C1667 0.930 . S
H1660 C1670 0.930 . S
H1661 C1671 0.930 . S
C1662 H1656 0.930 . S
C1662 C1663 1.355 . S
C1662 C1664 1.415 . S
C1663 C1662 1.355 . S
C1663 C1665 1.419 . S
C1664 C1662 1.415 . S
C1664 C1669 1.425 . S
C1664 C1671 1.409 . S
C1665 H1657 0.930 . S
C1665 C1663 1.419 . S
C1665 C1666 1.362 . S
C1666 H1658 0.930 . S
C1666 C1665 1.362 . S
C1666 C1669 1.409 . S
C1667 H1659 0.930 . S
C1667 C1668 1.355 . S
C1667 C1669 1.415 . S
C1668 C1667 1.355 . S
C1668 C1670 1.419 . S
C1669 C1664 1.425 . S
C1669 C1666 1.409 . S
C1669 C1667 1.415 . S
C1670 H1660 0.930 . S
C1670 C1668 1.419 . S
C1670 C1671 1.362 . S
C1671 H1661 0.930 . S
C1671 C1664 1.409 . S
C1671 C1670 1.362 . S
H1672 C1678 0.930 . S
H1673 C1681 0.930 . S
H1674 C1682 0.930 . S
H1675 C1683 0.930 . S
H1676 C1686 0.930 . S
H1677 C1687 0.930 . S
C1678 H1672 0.930 . S
C1678 C1679 1.355 . S
C1678 C1680 1.415 . S
C1679 C1678 1.355 . S
C1679 C1681 1.419 . S
C1680 C1678 1.415 . S
C1680 C1685 1.425 . S
C1680 C1687 1.409 . S
C1681 H1673 0.930 . S
C1681 C1679 1.419 . S
C1681 C1682 1.362 . S
C1682 H1674 0.930 . S
C1682 C1681 1.362 . S
C1682 C1685 1.409 . S
C1683 H1675 0.930 . S
C1683 C1684 1.355 . S
C1683 C1685 1.415 . S
C1684 C1683 1.355 . S
C1684 C1686 1.419 . S
C1685 C1680 1.425 . S
C1685 C1682 1.409 . S
C1685 C1683 1.415 . S
C1686 H1676 0.930 . S
C1686 C1684 1.419 . S
C1686 C1687 1.362 . S
C1687 H1677 0.930 . S
C1687 C1680 1.409 . S
C1687 C1686 1.362 . S
H1688 C1694 0.930 . S
H1689 C1697 0.930 . S
H1690 C1698 0.930 . S
H1691 C1699 0.930 . S
H1692 C1702 0.930 . S
H1693 C1703 0.930 . S
C1694 H1688 0.930 . S
C1694 C1695 1.355 . S
C1694 C1696 1.415 . S
C1695 C1694 1.355 . S
C1695 C1697 1.419 . S
C1696 C1694 1.415 . S
C1696 C1701 1.425 . S
C1696 C1703 1.409 . S
C1697 H1689 0.930 . S
C1697 C1695 1.419 . S
C1697 C1698 1.362 . S
C1698 H1690 0.930 . S
C1698 C1697 1.362 . S
C1698 C1701 1.409 . S
C1699 H1691 0.930 . S
C1699 C1700 1.355 . S
C1699 C1701 1.415 . S
C1700 C1699 1.355 . S
C1700 C1702 1.419 . S
C1701 C1696 1.425 . S
C1701 C1698 1.409 . S
C1701 C1699 1.415 . S
C1702 H1692 0.930 . S
C1702 C1700 1.419 . S
C1702 C1703 1.362 . S
C1703 H1693 0.930 . S
C1703 C1696 1.409 . S
C1703 C1702 1.362 . S
H1704 C1710 0.930 . S
H1705 C1713 0.930 . S
H1706 C1714 0.930 . S
H1707 C1715 0.930 . S
H1708 C1718 0.930 . S
H1709 C1719 0.930 . S
C1710 H1704 0.930 . S
C1710 C1711 1.355 . S
C1710 C1712 1.415 . S
C1711 C1710 1.355 . S
C1711 C1713 1.419 . S
C1712 C1710 1.415 . S
C1712 C1717 1.425 . S
C1712 C1719 1.409 . S
C1713 H1705 0.930 . S
C1713 C1711 1.419 . S
C1713 C1714 1.362 . S
C1714 H1706 0.930 . S
C1714 C1713 1.362 . S
C1714 C1717 1.409 . S
C1715 H1707 0.930 . S
C1715 C1716 1.355 . S
C1715 C1717 1.415 . S
C1716 C1715 1.355 . S
C1716 C1718 1.419 . S
C1717 C1712 1.425 . S
C1717 C1714 1.409 . S
C1717 C1715 1.415 . S
C1718 H1708 0.930 . S
C1718 C1716 1.419 . S
C1718 C1719 1.362 . S
C1719 H1709 0.930 . S
C1719 C1712 1.409 . S
C1719 C1718 1.362 . S
H1720 C1726 0.930 . S
H1721 C1729 0.930 . S
H1722 C1730 0.930 . S
H1723 C1731 0.930 . S
H1724 C1734 0.930 . S
H1725 C1735 0.930 . S
C1726 H1720 0.930 . S
C1726 C1727 1.355 . S
C1726 C1728 1.415 . S
C1727 C1726 1.355 . S
C1727 C1729 1.419 . S
C1728 C1726 1.415 . S
C1728 C1733 1.425 . S
C1728 C1735 1.409 . S
C1729 H1721 0.930 . S
C1729 C1727 1.419 . S
C1729 C1730 1.362 . S
C1730 H1722 0.930 . S
C1730 C1729 1.362 . S
C1730 C1733 1.409 . S
C1731 H1723 0.930 . S
C1731 C1732 1.355 . S
C1731 C1733 1.415 . S
C1732 C1731 1.355 . S
C1732 C1734 1.419 . S
C1733 C1728 1.425 . S
C1733 C1730 1.409 . S
C1733 C1731 1.415 . S
C1734 H1724 0.930 . S
C1734 C1732 1.419 . S
C1734 C1735 1.362 . S
C1735 H1725 0.930 . S
C1735 C1728 1.409 . S
C1735 C1734 1.362 . S
H1736 C1742 0.930 . S
H1737 C1745 0.930 . S
H1738 C1746 0.930 . S
H1739 C1747 0.930 . S
H1740 C1750 0.930 . S
H1741 C1751 0.930 . S
C1742 H1736 0.930 . S
C1742 C1743 1.355 . S
C1742 C1744 1.415 . S
C1743 C1742 1.355 . S
C1743 C1745 1.419 . S
C1744 C1742 1.415 . S
C1744 C1749 1.425 . S
C1744 C1751 1.409 . S
C1745 H1737 0.930 . S
C1745 C1743 1.419 . S
C1745 C1746 1.362 . S
C1746 H1738 0.930 . S
C1746 C1745 1.362 . S
C1746 C1749 1.409 . S
C1747 H1739 0.930 . S
C1747 C1748 1.355 . S
C1747 C1749 1.415 . S
C1748 C1747 1.355 . S
C1748 C1750 1.419 . S
C1749 C1744 1.425 . S
C1749 C1746 1.409 . S
C1749 C1747 1.415 . S
C1750 H1740 0.930 . S
C1750 C1748 1.419 . S
C1750 C1751 1.362 . S
C1751 H1741 0.930 . S
C1751 C1744 1.409 . S
C1751 C1750 1.362 . S
H1752 C1758 0.930 . S
H1753 C1761 0.930 . S
H1754 C1762 0.930 . S
H1755 C1763 0.930 . S
H1756 C1766 0.930 . S
H1757 C1767 0.930 . S
C1758 H1752 0.930 . S
C1758 C1759 1.355 . S
C1758 C1760 1.415 . S
C1759 C1758 1.355 . S
C1759 C1761 1.419 . S
C1760 C1758 1.415 . S
C1760 C1765 1.425 . S
C1760 C1767 1.409 . S
C1761 H1753 0.930 . S
C1761 C1759 1.419 . S
C1761 C1762 1.362 . S
C1762 H1754 0.930 . S
C1762 C1761 1.362 . S
C1762 C1765 1.409 . S
C1763 H1755 0.930 . S
C1763 C1764 1.355 . S
C1763 C1765 1.415 . S
C1764 C1763 1.355 . S
C1764 C1766 1.419 . S
C1765 C1760 1.425 . S
C1765 C1762 1.409 . S
C1765 C1763 1.415 . S
C1766 H1756 0.930 . S
C1766 C1764 1.419 . S
C1766 C1767 1.362 . S
C1767 H1757 0.930 . S
C1767 C1760 1.409 . S
C1767 C1766 1.362 . S
H1768 C1774 0.930 . S
H1769 C1777 0.930 . S
H1770 C1778 0.930 . S
H1771 C1779 0.930 . S
H1772 C1782 0.930 . S
H1773 C1783 0.930 . S
C1774 H1768 0.930 . S
C1774 C1775 1.355 . S
C1774 C1776 1.415 . S
C1775 C1774 1.355 . S
C1775 C1777 1.419 . S
C1776 C1774 1.415 . S
C1776 C1781 1.425 . S
C1776 C1783 1.409 . S
C1777 H1769 0.930 . S
C1777 C1775 1.419 . S
C1777 C1778 1.362 . S
C1778 H1770 0.930 . S
C1778 C1777 1.362 . S
C1778 C1781 1.409 . S
C1779 H1771 0.930 . S
C1779 C1780 1.355 . S
C1779 C1781 1.415 . S
C1780 C1779 1.355 . S
C1780 C1782 1.419 . S
C1781 C1776 1.425 . S
C1781 C1778 1.409 . S
C1781 C1779 1.415 . S
C1782 H1772 0.930 . S
C1782 C1780 1.419 . S
C1782 C1783 1.362 . S
C1783 H1773 0.930 . S
C1783 C1776 1.409 . S
C1783 C1782 1.362 . S
H1784 C1790 0.930 . S
H1785 C1793 0.930 . S
H1786 C1794 0.930 . S
H1787 C1795 0.930 . S
H1788 C1798 0.930 . S
H1789 C1799 0.930 . S
C1790 H1784 0.930 . S
C1790 C1791 1.355 . S
C1790 C1792 1.415 . S
C1791 C1790 1.355 . S
C1791 C1793 1.419 . S
C1792 C1790 1.415 . S
C1792 C1797 1.425 . S
C1792 C1799 1.409 . S
C1793 H1785 0.930 . S
C1793 C1791 1.419 . S
C1793 C1794 1.362 . S
C1794 H1786 0.930 . S
C1794 C1793 1.362 . S
C1794 C1797 1.409 . S
C1795 H1787 0.930 . S
C1795 C1796 1.355 . S
C1795 C1797 1.415 . S
C1796 C1795 1.355 . S
C1796 C1798 1.419 . S
C1797 C1792 1.425 . S
C1797 C1794 1.409 . S
C1797 C1795 1.415 . S
C1798 H1788 0.930 . S
C1798 C1796 1.419 . S
C1798 C1799 1.362 . S
C1799 H1789 0.930 . S
C1799 C1792 1.409 . S
C1799 C1798 1.362 . S
H1800 C1806 0.930 . S
H1801 C1809 0.930 . S
H1802 C1810 0.930 . S
H1803 C1811 0.930 . S
H1804 C1814 0.930 . S
H1805 C1815 0.930 . S
C1806 H1800 0.930 . S
C1806 C1807 1.355 . S
C1806 C1808 1.415 . S
C1807 C1806 1.355 . S
C1807 C1809 1.419 . S
C1808 C1806 1.415 . S
C1808 C1813 1.425 . S
C1808 C1815 1.409 . S
C1809 H1801 0.930 . S
C1809 C1807 1.419 . S
C1809 C1810 1.362 . S
C1810 H1802 0.930 . S
C1810 C1809 1.362 . S
C1810 C1813 1.409 . S
C1811 H1803 0.930 . S
C1811 C1812 1.355 . S
C1811 C1813 1.415 . S
C1812 C1811 1.355 . S
C1812 C1814 1.419 . S
C1813 C1808 1.425 . S
C1813 C1810 1.409 . S
C1813 C1811 1.415 . S
C1814 H1804 0.930 . S
C1814 C1812 1.419 . S
C1814 C1815 1.362 . S
C1815 H1805 0.930 . S
C1815 C1808 1.409 . S
C1815 C1814 1.362 . S
H1816 C1822 0.930 . S
H1817 C1825 0.930 . S
H1818 C1826 0.930 . S
H1819 C1827 0.930 . S
H1820 C1830 0.930 . S
H1821 C1831 0.930 . S
C1822 H1816 0.930 . S
C1822 C1823 1.355 . S
C1822 C1824 1.415 . S
C1823 C1822 1.355 . S
C1823 C1825 1.419 . S
C1824 C1822 1.415 . S
C1824 C1829 1.425 . S
C1824 C1831 1.409 . S
C1825 H1817 0.930 . S
C1825 C1823 1.419 . S
C1825 C1826 1.362 . S
C1826 H1818 0.930 . S
C1826 C1825 1.362 . S
C1826 C1829 1.409 . S
C1827 H1819 0.930 . S
C1827 C1828 1.355 . S
C1827 C1829 1.415 . S
C1828 C1827 1.355 . S
C1828 C1830 1.419 . S
C1829 C1824 1.425 . S
C1829 C1826 1.409 . S
C1829 C1827 1.415 . S
C1830 H1820 0.930 . S
C1830 C1828 1.419 . S
C1830 C1831 1.362 . S
C1831 H1821 0.930 . S
C1831 C1824 1.409 . S
C1831 C1830 1.362 . S
H1832 C1838 0.930 . S
H1833 C1841 0.930 . S
H1834 C1842 0.930 . S
H1835 C1843 0.930 . S
H1836 C1846 0.930 . S
H1837 C1847 0.930 . S
C1838 H1832 0.930 . S
C1838 C1839 1.355 . S
C1838 C1840 1.415 . S
C1839 C1838 1.355 . S
C1839 C1841 1.419 . S
C1840 C1838 1.415 . S
C1840 C1845 1.425 . S
C1840 C1847 1.409 . S
C1841 H1833 0.930 . S
C1841 C1839 1.419 . S
C1841 C1842 1.362 . S
C1842 H1834 0.930 . S
C1842 C1841 1.362 . S
C1842 C1845 1.409 . S
C1843 H1835 0.930 . S
C1843 C1844 1.355 . S
C1843 C1845 1.415 . S
C1844 C1843 1.355 . S
C1844 C1846 1.419 . S
C1845 C1840 1.425 . S
C1845 C1842 1.409 . S
C1845 C1843 1.415 . S
C1846 H1836 0.930 . S
C1846 C1844 1.419 . S
C1846 C1847 1.362 . S
C1847 H1837 0.930 . S
C1847 C1840 1.409 . S
C1847 C1846 1.362 . S
H1848 C1854 0.930 . S
H1849 C1857 0.930 . S
H1850 C1858 0.930 . S
H1851 C1859 0.930 . S
H1852 C1862 0.930 . S
H1853 C1863 0.930 . S
C1854 H1848 0.930 . S
C1854 C1855 1.355 . S
C1854 C1856 1.415 . S
C1855 C1854 1.355 . S
C1855 C1857 1.419 . S
C1856 C1854 1.415 . S
C1856 C1861 1.425 . S
C1856 C1863 1.409 . S
C1857 H1849 0.930 . S
C1857 C1855 1.419 . S
C1857 C1858 1.362 . S
C1858 H1850 0.930 . S
C1858 C1857 1.362 . S
C1858 C1861 1.409 . S
C1859 H1851 0.930 . S
C1859 C1860 1.355 . S
C1859 C1861 1.415 . S
C1860 C1859 1.355 . S
C1860 C1862 1.419 . S
C1861 C1856 1.425 . S
C1861 C1858 1.409 . S
C1861 C1859 1.415 . S
C1862 H1852 0.930 . S
C1862 C1860 1.419 . S
C1862 C1863 1.362 . S
C1863 H1853 0.930 . S
C1863 C1856 1.409 . S
C1863 C1862 1.362 . S
H1864 C1870 0.930 . S
H1865 C1873 0.930 . S
H1866 C1874 0.930 . S
H1867 C1875 0.930 . S
H1868 C1878 0.930 . S
H1869 C1879 0.930 . S
C1870 H1864 0.930 . S
C1870 C1871 1.355 . S
C1870 C1872 1.415 . S
C1871 C1870 1.355 . S
C1871 C1873 1.419 . S
C1872 C1870 1.415 . S
C1872 C1877 1.425 . S
C1872 C1879 1.409 . S
C1873 H1865 0.930 . S
C1873 C1871 1.419 . S
C1873 C1874 1.362 . S
C1874 H1866 0.930 . S
C1874 C1873 1.362 . S
C1874 C1877 1.409 . S
C1875 H1867 0.930 . S
C1875 C1876 1.355 . S
C1875 C1877 1.415 . S
C1876 C1875 1.355 . S
C1876 C1878 1.419 . S
C1877 C1872 1.425 . S
C1877 C1874 1.409 . S
C1877 C1875 1.415 . S
C1878 H1868 0.930 . S
C1878 C1876 1.419 . S
C1878 C1879 1.362 . S
C1879 H1869 0.930 . S
C1879 C1872 1.409 . S
C1879 C1878 1.362 . S
H1880 C1886 0.930 . S
H1881 C1889 0.930 . S
H1882 C1890 0.930 . S
H1883 C1891 0.930 . S
H1884 C1894 0.930 . S
H1885 C1895 0.930 . S
C1886 H1880 0.930 . S
C1886 C1887 1.355 . S
C1886 C1888 1.415 . S
C1887 C1886 1.355 . S
C1887 C1889 1.419 . S
C1888 C1886 1.415 . S
C1888 C1893 1.425 . S
C1888 C1895 1.409 . S
C1889 H1881 0.930 . S
C1889 C1887 1.419 . S
C1889 C1890 1.362 . S
C1890 H1882 0.930 . S
C1890 C1889 1.362 . S
C1890 C1893 1.409 . S
C1891 H1883 0.930 . S
C1891 C1892 1.355 . S
C1891 C1893 1.415 . S
C1892 C1891 1.355 . S
C1892 C1894 1.419 . S
C1893 C1888 1.425 . S
C1893 C1890 1.409 . S
C1893 C1891 1.415 . S
C1894 H1884 0.930 . S
C1894 C1892 1.419 . S
C1894 C1895 1.362 . S
C1895 H1885 0.930 . S
C1895 C1888 1.409 . S
C1895 C1894 1.362 . S
H1896 C1902 0.930 . S
H1897 C1905 0.930 . S
H1898 C1906 0.930 . S
H1899 C1907 0.930 . S
H1900 C1910 0.930 . S
H1901 C1911 0.930 . S
C1902 H1896 0.930 . S
C1902 C1903 1.355 . S
C1902 C1904 1.415 . S
C1903 C1902 1.355 . S
C1903 C1905 1.419 . S
C1904 C1902 1.415 . S
C1904 C1909 1.425 . S
C1904 C1911 1.409 . S
C1905 H1897 0.930 . S
C1905 C1903 1.419 . S
C1905 C1906 1.362 . S
C1906 H1898 0.930 . S
C1906 C1905 1.362 . S
C1906 C1909 1.409 . S
C1907 H1899 0.930 . S
C1907 C1908 1.355 . S
C1907 C1909 1.415 . S
C1908 C1907 1.355 . S
C1908 C1910 1.419 . S
C1909 C1904 1.425 . S
C1909 C1906 1.409 . S
C1909 C1907 1.415 . S
C1910 H1900 0.930 . S
C1910 C1908 1.419 . S
C1910 C1911 1.362 . S
C1911 H1901 0.930 . S
C1911 C1904 1.409 . S
C1911 C1910 1.362 . S
H1912 C1918 0.930 . S
H1913 C1921 0.930 . S
H1914 C1922 0.930 . S
H1915 C1923 0.930 . S
H1916 C1926 0.930 . S
H1917 C1927 0.930 . S
C1918 H1912 0.930 . S
C1918 C1919 1.355 . S
C1918 C1920 1.415 . S
C1919 C1918 1.355 . S
C1919 C1921 1.419 . S
C1920 C1918 1.415 . S
C1920 C1925 1.425 . S
C1920 C1927 1.409 . S
C1921 H1913 0.930 . S
C1921 C1919 1.419 . S
C1921 C1922 1.362 . S
C1922 H1914 0.930 . S
C1922 C1921 1.362 . S
C1922 C1925 1.409 . S
C1923 H1915 0.930 . S
C1923 C1924 1.355 . S
C1923 C1925 1.415 . S
C1924 C1923 1.355 . S
C1924 C1926 1.419 . S
C1925 C1920 1.425 . S
C1925 C1922 1.409 . S
C1925 C1923 1.415 . S
C1926 H1916 0.930 . S
C1926 C1924 1.419 . S
C1926 C1927 1.362 . S
C1927 H1917 0.930 . S
C1927 C1920 1.409 . S
C1927 C1926 1.362 . S
H1928 C1934 0.930 . S
H1929 C1937 0.930 . S
H1930 C1938 0.930 . S
H1931 C1939 0.930 . S
H1932 C1942 0.930 . S
H1933 C1943 0.930 . S
C1934 H1928 0.930 . S
C1934 C1935 1.355 . S
C1934 C1936 1.415 . S
C1935 C1934 1.355 . S
C1935 C1937 1.419 . S
C1936 C1934 1.415 . S
C1936 C1941 1.425 . S
C1936 C1943 1.409 . S
C1937 H1929 0.930 . S
C1937 C1935 1.419 . S
C1937 C1938 1.362 . S
C1938 H1930 0.930 . S
C1938 C1937 1.362 . S
C1938 C1941 1.409 . S
C1939 H1931 0.930 . S
C1939 C1940 1.355 . S
C1939 C1941 1.415 . S
C1940 C1939 1.355 . S
C1940 C1942 1.419 . S
C1941 C1936 1.425 . S
C1941 C1938 1.409 . S
C1941 C1939 1.415 . S
C1942 H1932 0.930 . S
C1942 C1940 1.419 . S
C1942 C1943 1.362 . S
C1943 H1933 0.930 . S
C1943 C1936 1.409 . S
C1943 C1942 1.362 . S
H1944 C1950 0.930 . S
H1945 C1953 0.930 . S
H1946 C1954 0.930 . S
H1947 C1955 0.930 . S
H1948 C1958 0.930 . S
H1949 C1959 0.930 . S
C1950 H1944 0.930 . S
C1950 C1951 1.355 . S
C1950 C1952 1.415 . S
C1951 C1950 1.355 . S
C1951 C1953 1.419 . S
C1952 C1950 1.415 . S
C1952 C1957 1.425 . S
C1952 C1959 1.409 . S
C1953 H1945 0.930 . S
C1953 C1951 1.419 . S
C1953 C1954 1.362 . S
C1954 H1946 0.930 . S
C1954 C1953 1.362 . S
C1954 C1957 1.409 . S
C1955 H1947 0.930 . S
C1955 C1956 1.355 . S
C1955 C1957 1.415 . S
C1956 C1955 1.355 . S
C1956 C1958 1.419 . S
C1957 C1952 1.425 . S
C1957 C1954 1.409 . S
C1957 C1955 1.415 . S
C1958 H1948 0.930 . S
C1958 C1956 1.419 . S
C1958 C1959 1.362 . S
C1959 H1949 0.930 . S
C1959 C1952 1.409 . S
C1959 C1958 1.362 . S
H1960 C1966 0.930 . S
H1961 C1969 0.930 . S
H1962 C1970 0.930 . S
H1963 C1971 0.930 . S
H1964 C1974 0.930 . S
H1965 C1975 0.930 . S
C1966 H1960 0.930 . S
C1966 C1967 1.355 . S
C1966 C1968 1.415 . S
C1967 C1966 1.355 . S
C1967 C1969 1.419 . S
C1968 C1966 1.415 . S
C1968 C1973 1.425 . S
C1968 C1975 1.409 . S
C1969 H1961 0.930 . S
C1969 C1967 1.419 . S
C1969 C1970 1.362 . S
C1970 H1962 0.930 . S
C1970 C1969 1.362 . S
C1970 C1973 1.409 . S
C1971 H1963 0.930 . S
C1971 C1972 1.355 . S
C1971 C1973 1.415 . S
C1972 C1971 1.355 . S
C1972 C1974 1.419 . S
C1973 C1968 1.425 . S
C1973 C1970 1.409 . S
C1973 C1971 1.415 . S
C1974 H1964 0.930 . S
C1974 C1972 1.419 . S
C1974 C1975 1.362 . S
C1975 H1965 0.930 . S
C1975 C1968 1.409 . S
C1975 C1974 1.362 . S
H1976 C1982 0.930 . S
H1977 C1985 0.930 . S
H1978 C1986 0.930 . S
H1979 C1987 0.930 . S
H1980 C1990 0.930 . S
H1981 C1991 0.930 . S
C1982 H1976 0.930 . S
C1982 C1983 1.355 . S
C1982 C1984 1.415 . S
C1983 C1982 1.355 . S
C1983 C1985 1.419 . S
C1984 C1982 1.415 . S
C1984 C1989 1.425 . S
C1984 C1991 1.409 . S
C1985 H1977 0.930 . S
C1985 C1983 1.419 . S
C1985 C1986 1.362 . S
C1986 H1978 0.930 . S
C1986 C1985 1.362 . S
C1986 C1989 1.409 . S
C1987 H1979 0.930 . S
C1987 C1988 1.355 . S
C1987 C1989 1.415 . S
C1988 C1987 1.355 . S
C1988 C1990 1.419 . S
C1989 C1984 1.425 . S
C1989 C1986 1.409 . S
C1989 C1987 1.415 . S
C1990 H1980 0.930 . S
C1990 C1988 1.419 . S
C1990 C1991 1.362 . S
C1991 H1981 0.930 . S
C1991 C1984 1.409 . S
C1991 C1990 1.362 . S
H1992 C1998 0.930 . S
H1993 C2001 0.930 . S
H1994 C2002 0.930 . S
H1995 C2003 0.930 . S
H1996 C2006 0.930 . S
H1997 C2007 0.930 . S
C1998 H1992 0.930 . S
C1998 C1999 1.355 . S
C1998 C2000 1.415 . S
C1999 C1998 1.355 . S
C1999 C2001 1.419 . S
C2000 C1998 1.415 . S
C2000 C2005 1.425 . S
C2000 C2007 1.409 . S
C2001 H1993 0.930 . S
C2001 C1999 1.419 . S
C2001 C2002 1.362 . S
C2002 H1994 0.930 . S
C2002 C2001 1.362 . S
C2002 C2005 1.409 . S
C2003 H1995 0.930 . S
C2003 C2004 1.355 . S
C2003 C2005 1.415 . S
C2004 C2003 1.355 . S
C2004 C2006 1.419 . S
C2005 C2000 1.425 . S
C2005 C2002 1.409 . S
C2005 C2003 1.415 . S
C2006 H1996 0.930 . S
C2006 C2004 1.419 . S
C2006 C2007 1.362 . S
C2007 H1997 0.930 . S
C2007 C2000 1.409 . S
C2007 C2006 1.362 . S
H2008 C2014 0.930 . S
H2009 C2017 0.930 . S
H2010 C2018 0.930 . S
H2011 C2019 0.930 . S
H2012 C2022 0.930 . S
H2013 C2023 0.930 . S
C2014 H2008 0.930 . S
C2014 C2015 1.355 . S
C2014 C2016 1.415 . S
C2015 C2014 1.355 . S
C2015 C2017 1.419 . S
C2016 C2014 1.415 . S
C2016 C2021 1.425 . S
C2016 C2023 1.409 . S
C2017 H2009 0.930 . S
C2017 C2015 1.419 . S
C2017 C2018 1.362 . S
C2018 H2010 0.930 . S
C2018 C2017 1.362 . S
C2018 C2021 1.409 . S
C2019 H2011 0.930 . S
C2019 C2020 1.355 . S
C2019 C2021 1.415 . S
C2020 C2019 1.355 . S
C2020 C2022 1.419 . S
C2021 C2016 1.425 . S
C2021 C2018 1.409 . S
C2021 C2019 1.415 . S
C2022 H2012 0.930 . S
C2022 C2020 1.419 . S
C2022 C2023 1.362 . S
C2023 H2013 0.930 . S
C2023 C2016 1.409 . S
C2023 C2022 1.362 . S
H2024 C2030 0.930 . S
H2025 C2033 0.930 . S
H2026 C2034 0.930 . S
H2027 C2035 0.930 . S
H2028 C2038 0.930 . S
H2029 C2039 0.930 . S
C2030 H2024 0.930 . S
C2030 C2031 1.355 . S
C2030 C2032 1.415 . S
C2031 C2030 1.355 . S
C2031 C2033 1.419 . S
C2032 C2030 1.415 . S
C2032 C2037 1.425 . S
C2032 C2039 1.409 . S
C2033 H2025 0.930 . S
C2033 C2031 1.419 . S
C2033 C2034 1.362 . S
C2034 H2026 0.930 . S
C2034 C2033 1.362 . S
C2034 C2037 1.409 . S
C2035 H2027 0.930 . S
C2035 C2036 1.355 . S
C2035 C2037 1.415 . S
C2036 C2035 1.355 . S
C2036 C2038 1.419 . S
C2037 C2032 1.425 . S
C2037 C2034 1.409 . S
C2037 C2035 1.415 . S
C2038 H2028 0.930 . S
C2038 C2036 1.419 . S
C2038 C2039 1.362 . S
C2039 H2029 0.930 . S
C2039 C2032 1.409 . S
C2039 C2038 1.362 . S
H2040 C2046 0.930 . S
H2041 C2049 0.930 . S
H2042 C2050 0.930 . S
H2043 C2051 0.930 . S
H2044 C2054 0.930 . S
H2045 C2055 0.930 . S
C2046 H2040 0.930 . S
C2046 C2047 1.355 . S
C2046 C2048 1.415 . S
C2047 C2046 1.355 . S
C2047 C2049 1.419 . S
C2048 C2046 1.415 . S
C2048 C2053 1.425 . S
C2048 C2055 1.409 . S
C2049 H2041 0.930 . S
C2049 C2047 1.419 . S
C2049 C2050 1.362 . S
C2050 H2042 0.930 . S
C2050 C2049 1.362 . S
C2050 C2053 1.409 . S
C2051 H2043 0.930 . S
C2051 C2052 1.355 . S
C2051 C2053 1.415 . S
C2052 C2051 1.355 . S
C2052 C2054 1.419 . S
C2053 C2048 1.425 . S
C2053 C2050 1.409 . S
C2053 C2051 1.415 . S
C2054 H2044 0.930 . S
C2054 C2052 1.419 . S
C2054 C2055 1.362 . S
C2055 H2045 0.930 . S
C2055 C2048 1.409 . S
C2055 C2054 1.362 . S
H2056 C2062 0.930 . S
H2057 C2065 0.930 . S
H2058 C2066 0.930 . S
H2059 C2067 0.930 . S
H2060 C2070 0.930 . S
H2061 C2071 0.930 . S
C2062 H2056 0.930 . S
C2062 C2063 1.355 . S
C2062 C2064 1.415 . S
C2063 C2062 1.355 . S
C2063 C2065 1.419 . S
C2064 C2062 1.415 . S
C2064 C2069 1.425 . S
C2064 C2071 1.409 . S
C2065 H2057 0.930 . S
C2065 C2063 1.419 . S
C2065 C2066 1.362 . S
C2066 H2058 0.930 . S
C2066 C2065 1.362 . S
C2066 C2069 1.409 . S
C2067 H2059 0.930 . S
C2067 C2068 1.355 . S
C2067 C2069 1.415 . S
C2068 C2067 1.355 . S
C2068 C2070 1.419 . S
C2069 C2064 1.425 . S
C2069 C2066 1.409 . S
C2069 C2067 1.415 . S
C2070 H2060 0.930 . S
C2070 C2068 1.419 . S
C2070 C2071 1.362 . S
C2071 H2061 0.930 . S
C2071 C2064 1.409 . S
C2071 C2070 1.362 . S
H2072 C2078 0.930 . S
H2073 C2081 0.930 . S
H2074 C2082 0.930 . S
H2075 C2083 0.930 . S
H2076 C2086 0.930 . S
H2077 C2087 0.930 . S
C2078 H2072 0.930 . S
C2078 C2079 1.355 . S
C2078 C2080 1.415 . S
C2079 C2078 1.355 . S
C2079 C2081 1.419 . S
C2080 C2078 1.415 . S
C2080 C2085 1.425 . S
C2080 C2087 1.409 . S
C2081 H2073 0.930 . S
C2081 C2079 1.419 . S
C2081 C2082 1.362 . S
C2082 H2074 0.930 . S
C2082 C2081 1.362 . S
C2082 C2085 1.409 . S
C2083 H2075 0.930 . S
C2083 C2084 1.355 . S
C2083 C2085 1.415 . S
C2084 C2083 1.355 . S
C2084 C2086 1.419 . S
C2085 C2080 1.425 . S
C2085 C2082 1.409 . S
C2085 C2083 1.415 . S
C2086 H2076 0.930 . S
C2086 C2084 1.419 . S
C2086 C2087 1.362 . S
C2087 H2077 0.930 . S
C2087 C2080 1.409 . S
C2087 C2086 1.362 . S
H2088 C2094 0.930 . S
H2089 C2097 0.930 . S
H2090 C2098 0.930 . S
H2091 C2099 0.930 . S
H2092 C2102 0.930 . S
H2093 C2103 0.930 . S
C2094 H2088 0.930 . S
C2094 C2095 1.355 . S
C2094 C2096 1.415 . S
C2095 C2094 1.355 . S
C2095 C2097 1.419 . S
C2096 C2094 1.415 . S
C2096 C2101 1.425 . S
C2096 C2103 1.409 . S
C2097 H2089 0.930 . S
C2097 C2095 1.419 . S
C2097 C2098 1.362 . S
C2098 H2090 0.930 . S
C2098 C2097 1.362 . S
C2098 C2101 1.409 . S
C2099 H2091 0.930 . S
C2099 C2100 1.355 . S
C2099 C2101 1.415 . S
C2100 C2099 1.355 . S
C2100 C2102 1.419 . S
C2101 C2096 1.425 . S
C2101 C2098 1.409 . S
C2101 C2099 1.415 . S
C2102 H2092 0.930 . S
C2102 C2100 1.419 . S
C2102 C2103 1.362 . S
C2103 H2093 0.930 . S
C2103 C2096 1.409 . S
C2103 C2102 1.362 . S
H2104 C2110 0.930 . S
H2105 C2113 0.930 . S
H2106 C2114 0.930 . S
H2107 C2115 0.930 . S
H2108 C2118 0.930 . S
H2109 C2119 0.930 . S
C2110 H2104 0.930 . S
C2110 C2111 1.355 . S
C2110 C2112 1.415 . S
C2111 C2110 1.355 . S
C2111 C2113 1.419 . S
C2112 C2110 1.415 . S
C2112 C2117 1.425 . S
C2112 C2119 1.409 . S
C2113 H2105 0.930 . S
C2113 C2111 1.419 . S
C2113 C2114 1.362 . S
C2114 H2106 0.930 . S
C2114 C2113 1.362 . S
C2114 C2117 1.409 . S
C2115 H2107 0.930 . S
C2115 C2116 1.355 . S
C2115 C2117 1.415 . S
C2116 C2115 1.355 . S
C2116 C2118 1.419 . S
C2117 C2112 1.425 . S
C2117 C2114 1.409 . S
C2117 C2115 1.415 . S
C2118 H2108 0.930 . S
C2118 C2116 1.419 . S
C2118 C2119 1.362 . S
C2119 H2109 0.930 . S
C2119 C2112 1.409 . S
C2119 C2118 1.362 . S
H2120 C2126 0.930 . S
H2121 C2129 0.930 . S
H2122 C2130 0.930 . S
H2123 C2131 0.930 . S
H2124 C2134 0.930 . S
H2125 C2135 0.930 . S
C2126 H2120 0.930 . S
C2126 C2127 1.355 . S
C2126 C2128 1.415 . S
C2127 C2126 1.355 . S
C2127 C2129 1.419 . S
C2128 C2126 1.415 . S
C2128 C2133 1.425 . S
C2128 C2135 1.409 . S
C2129 H2121 0.930 . S
C2129 C2127 1.419 . S
C2129 C2130 1.362 . S
C2130 H2122 0.930 . S
C2130 C2129 1.362 . S
C2130 C2133 1.409 . S
C2131 H2123 0.930 . S
C2131 C2132 1.355 . S
C2131 C2133 1.415 . S
C2132 C2131 1.355 . S
C2132 C2134 1.419 . S
C2133 C2128 1.425 . S
C2133 C2130 1.409 . S
C2133 C2131 1.415 . S
C2134 H2124 0.930 . S
C2134 C2132 1.419 . S
C2134 C2135 1.362 . S
C2135 H2125 0.930 . S
C2135 C2128 1.409 . S
C2135 C2134 1.362 . S
H2136 C2142 0.930 . S
H2137 C2145 0.930 . S
H2138 C2146 0.930 . S
H2139 C2147 0.930 . S
H2140 C2150 0.930 . S
H2141 C2151 0.930 . S
C2142 H2136 0.930 . S
C2142 C2143 1.355 . S
C2142 C2144 1.415 . S
C2143 C2142 1.355 . S
C2143 C2145 1.419 . S
C2144 C2142 1.415 . S
C2144 C2149 1.425 . S
C2144 C2151 1.409 . S
C2145 H2137 0.930 . S
C2145 C2143 1.419 . S
C2145 C2146 1.362 . S
C2146 H2138 0.930 . S
C2146 C2145 1.362 . S
C2146 C2149 1.409 . S
C2147 H2139 0.930 . S
C2147 C2148 1.355 . S
C2147 C2149 1.415 . S
C2148 C2147 1.355 . S
C2148 C2150 1.419 . S
C2149 C2144 1.425 . S
C2149 C2146 1.409 . S
C2149 C2147 1.415 . S
C2150 H2140 0.930 . S
C2150 C2148 1.419 . S
C2150 C2151 1.362 . S
C2151 H2141 0.930 . S
C2151 C2144 1.409 . S
C2151 C2150 1.362 . S
H2152 C2158 0.930 . S
H2153 C2161 0.930 . S
H2154 C2162 0.930 . S
H2155 C2163 0.930 . S
H2156 C2166 0.930 . S
H2157 C2167 0.930 . S
C2158 H2152 0.930 . S
C2158 C2159 1.355 . S
C2158 C2160 1.415 . S
C2159 C2158 1.355 . S
C2159 C2161 1.419 . S
C2160 C2158 1.415 . S
C2160 C2165 1.425 . S
C2160 C2167 1.409 . S
C2161 H2153 0.930 . S
C2161 C2159 1.419 . S
C2161 C2162 1.362 . S
C2162 H2154 0.930 . S
C2162 C2161 1.362 . S
C2162 C2165 1.409 . S
C2163 H2155 0.930 . S
C2163 C2164 1.355 . S
C2163 C2165 1.415 . S
C2164 C2163 1.355 . S
C2164 C2166 1.419 . S
C2165 C2160 1.425 . S
C2165 C2162 1.409 . S
C2165 C2163 1.415 . S
C2166 H2156 0.930 . S
C2166 C2164 1.419 . S
C2166 C2167 1.362 . S
C2167 H2157 0.930 . S
C2167 C2160 1.409 . S
C2167 C2166 1.362 . S
H2168 C2174 0.930 . S
H2169 C2177 0.930 . S
H2170 C2178 0.930 . S
H2171 C2179 0.930 . S
H2172 C2182 0.930 . S
H2173 C2183 0.930 . S
C2174 H2168 0.930 . S
C2174 C2175 1.355 . S
C2174 C2176 1.415 . S
C2175 C2174 1.355 . S
C2175 C2177 1.419 . S
C2176 C2174 1.415 . S
C2176 C2181 1.425 . S
C2176 C2183 1.409 . S
C2177 H2169 0.930 . S
C2177 C2175 1.419 . S
C2177 C2178 1.362 . S
C2178 H2170 0.930 . S
C2178 C2177 1.362 . S
C2178 C2181 1.409 . S
C2179 H2171 0.930 . S
C2179 C2180 1.355 . S
C2179 C2181 1.415 . S
C2180 C2179 1.355 . S
C2180 C2182 1.419 . S
C2181 C2176 1.425 . S
C2181 C2178 1.409 . S
C2181 C2179 1.415 . S
C2182 H2172 0.930 . S
C2182 C2180 1.419 . S
C2182 C2183 1.362 . S
C2183 H2173 0.930 . S
C2183 C2176 1.409 . S
C2183 C2182 1.362 . S
H2184 C2190 0.930 . S
H2185 C2193 0.930 . S
H2186 C2194 0.930 . S
H2187 C2195 0.930 . S
H2188 C2198 0.930 . S
H2189 C2199 0.930 . S
C2190 H2184 0.930 . S
C2190 C2191 1.355 . S
C2190 C2192 1.415 . S
C2191 C2190 1.355 . S
C2191 C2193 1.419 . S
C2192 C2190 1.415 . S
C2192 C2197 1.425 . S
C2192 C2199 1.409 . S
C2193 H2185 0.930 . S
C2193 C2191 1.419 . S
C2193 C2194 1.362 . S
C2194 H2186 0.930 . S
C2194 C2193 1.362 . S
C2194 C2197 1.409 . S
C2195 H2187 0.930 . S
C2195 C2196 1.355 . S
C2195 C2197 1.415 . S
C2196 C2195 1.355 . S
C2196 C2198 1.419 . S
C2197 C2192 1.425 . S
C2197 C2194 1.409 . S
C2197 C2195 1.415 . S
C2198 H2188 0.930 . S
C2198 C2196 1.419 . S
C2198 C2199 1.362 . S
C2199 H2189 0.930 . S
C2199 C2192 1.409 . S
C2199 C2198 1.362 . S
H2200 C2206 0.930 . S
H2201 C2209 0.930 . S
H2202 C2210 0.930 . S
H2203 C2211 0.930 . S
H2204 C2214 0.930 . S
H2205 C2215 0.930 . S
C2206 H2200 0.930 . S
C2206 C2207 1.355 . S
C2206 C2208 1.415 . S
C2207 C2206 1.355 . S
C2207 C2209 1.419 . S
C2208 C2206 1.415 . S
C2208 C2213 1.425 . S
C2208 C2215 1.409 . S
C2209 H2201 0.930 . S
C2209 C2207 1.419 . S
C2209 C2210 1.362 . S
C2210 H2202 0.930 . S
C2210 C2209 1.362 . S
C2210 C2213 1.409 . S
C2211 H2203 0.930 . S
C2211 C2212 1.355 . S
C2211 C2213 1.415 . S
C2212 C2211 1.355 . S
C2212 C2214 1.419 . S
C2213 C2208 1.425 . S
C2213 C2210 1.409 . S
C2213 C2211 1.415 . S
C2214 H2204 0.930 . S
C2214 C2212 1.419 . S
C2214 C2215 1.362 . S
C2215 H2205 0.930 . S
C2215 C2208 1.409 . S
C2215 C2214 1.362 . S
H2216 C2222 0.930 . S
H2217 C2225 0.930 . S
H2218 C2226 0.930 . S
H2219 C2227 0.930 . S
H2220 C2230 0.930 . S
H2221 C2231 0.930 . S
C2222 H2216 0.930 . S
C2222 C2223 1.355 . S
C2222 C2224 1.415 . S
C2223 C2222 1.355 . S
C2223 C2225 1.419 . S
C2224 C2222 1.415 . S
C2224 C2229 1.425 . S
C2224 C2231 1.409 . S
C2225 H2217 0.930 . S
C2225 C2223 1.419 . S
C2225 C2226 1.362 . S
C2226 H2218 0.930 . S
C2226 C2225 1.362 . S
C2226 C2229 1.409 . S
C2227 H2219 0.930 . S
C2227 C2228 1.355 . S
C2227 C2229 1.415 . S
C2228 C2227 1.355 . S
C2228 C2230 1.419 . S
C2229 C2224 1.425 . S
C2229 C2226 1.409 . S
C2229 C2227 1.415 . S
C2230 H2220 0.930 . S
C2230 C2228 1.419 . S
C2230 C2231 1.362 . S
C2231 H2221 0.930 . S
C2231 C2224 1.409 . S
C2231 C2230 1.362 . S
H2232 C2238 0.930 . S
H2233 C2241 0.930 . S
H2234 C2242 0.930 . S
H2235 C2243 0.930 . S
H2236 C2246 0.930 . S
H2237 C2247 0.930 . S
C2238 H2232 0.930 . S
C2238 C2239 1.355 . S
C2238 C2240 1.415 . S
C2239 C2238 1.355 . S
C2239 C2241 1.419 . S
C2240 C2238 1.415 . S
C2240 C2245 1.425 . S
C2240 C2247 1.409 . S
C2241 H2233 0.930 . S
C2241 C2239 1.419 . S
C2241 C2242 1.362 . S
C2242 H2234 0.930 . S
C2242 C2241 1.362 . S
C2242 C2245 1.409 . S
C2243 H2235 0.930 . S
C2243 C2244 1.355 . S
C2243 C2245 1.415 . S
C2244 C2243 1.355 . S
C2244 C2246 1.419 . S
C2245 C2240 1.425 . S
C2245 C2242 1.409 . S
C2245 C2243 1.415 . S
C2246 H2236 0.930 . S
C2246 C2244 1.419 . S
C2246 C2247 1.362 . S
C2247 H2237 0.930 . S
C2247 C2240 1.409 . S
C2247 C2246 1.362 . S
H2248 C2254 0.930 . S
H2249 C2257 0.930 . S
H2250 C2258 0.930 . S
H2251 C2259 0.930 . S
H2252 C2262 0.930 . S
H2253 C2263 0.930 . S
C2254 H2248 0.930 . S
C2254 C2255 1.355 . S
C2254 C2256 1.415 . S
C2255 C2254 1.355 . S
C2255 C2257 1.419 . S
C2256 C2254 1.415 . S
C2256 C2261 1.425 . S
C2256 C2263 1.409 . S
C2257 H2249 0.930 . S
C2257 C2255 1.419 . S
C2257 C2258 1.362 . S
C2258 H2250 0.930 . S
C2258 C2257 1.362 . S
C2258 C2261 1.409 . S
C2259 H2251 0.930 . S
C2259 C2260 1.355 . S
C2259 C2261 1.415 . S
C2260 C2259 1.355 . S
C2260 C2262 1.419 . S
C2261 C2256 1.425 . S
C2261 C2258 1.409 . S
C2261 C2259 1.415 . S
C2262 H2252 0.930 . S
C2262 C2260 1.419 . S
C2262 C2263 1.362 . S
C2263 H2253 0.930 . S
C2263 C2256 1.409 . S
C2263 C2262 1.362 . S
H2264 C2270 0.930 . S
H2265 C2273 0.930 . S
H2266 C2274 0.930 . S
H2267 C2275 0.930 . S
H2268 C2278 0.930 . S
H2269 C2279 0.930 . S
C2270 H2264 0.930 . S
C2270 C2271 1.355 . S
C2270 C2272 1.415 . S
C2271 C2270 1.355 . S
C2271 C2273 1.419 . S
C2272 C2270 1.415 . S
C2272 C2277 1.425 . S
C2272 C2279 1.409 . S
C2273 H2265 0.930 . S
C2273 C2271 1.419 . S
C2273 C2274 1.362 . S
C2274 H2266 0.930 . S
C2274 C2273 1.362 . S
C2274 C2277 1.409 . S
C2275 H2267 0.930 . S
C2275 C2276 1.355 . S
C2275 C2277 1.415 . S
C2276 C2275 1.355 . S
C2276 C2278 1.419 . S
C2277 C2272 1.425 . S
C2277 C2274 1.409 . S
C2277 C2275 1.415 . S
C2278 H2268 0.930 . S
C2278 C2276 1.419 . S
C2278 C2279 1.362 . S
C2279 H2269 0.930 . S
C2279 C2272 1.409 . S
C2279 C2278 1.362 . S
H2280 C2286 0.930 . S
H2281 C2289 0.930 . S
H2282 C2290 0.930 . S
H2283 C2291 0.930 . S
H2284 C2294 0.930 . S
H2285 C2295 0.930 . S
C2286 H2280 0.930 . S
C2286 C2287 1.355 . S
C2286 C2288 1.415 . S
C2287 C2286 1.355 . S
C2287 C2289 1.419 . S
C2288 C2286 1.415 . S
C2288 C2293 1.425 . S
C2288 C2295 1.409 . S
C2289 H2281 0.930 . S
C2289 C2287 1.419 . S
C2289 C2290 1.362 . S
C2290 H2282 0.930 . S
C2290 C2289 1.362 . S
C2290 C2293 1.409 . S
C2291 H2283 0.930 . S
C2291 C2292 1.355 . S
C2291 C2293 1.415 . S
C2292 C2291 1.355 . S
C2292 C2294 1.419 . S
C2293 C2288 1.425 . S
C2293 C2290 1.409 . S
C2293 C2291 1.415 . S
C2294 H2284 0.930 . S
C2294 C2292 1.419 . S
C2294 C2295 1.362 . S
C2295 H2285 0.930 . S
C2295 C2288 1.409 . S
C2295 C2294 1.362 . S
H2296 C2302 0.930 . S
H2297 C2305 0.930 . S
H2298 C2306 0.930 . S
H2299 C2307 0.930 . S
H2300 C2310 0.930 . S
H2301 C2311 0.930 . S
C2302 H2296 0.930 . S
C2302 C2303 1.355 . S
C2302 C2304 1.415 . S
C2303 C2302 1.355 . S
C2303 C2305 1.419 . S
C2304 C2302 1.415 . S
C2304 C2309 1.425 . S
C2304 C2311 1.409 . S
C2305 H2297 0.930 . S
C2305 C2303 1.419 . S
C2305 C2306 1.362 . S
C2306 H2298 0.930 . S
C2306 C2305 1.362 . S
C2306 C2309 1.409 . S
C2307 H2299 0.930 . S
C2307 C2308 1.355 . S
C2307 C2309 1.415 . S
C2308 C2307 1.355 . S
C2308 C2310 1.419 . S
C2309 C2304 1.425 . S
C2309 C2306 1.409 . S
C2309 C2307 1.415 . S
C2310 H2300 0.930 . S
C2310 C2308 1.419 . S
C2310 C2311 1.362 . S
C2311 H2301 0.930 . S
C2311 C2304 1.409 . S
C2311 C2310 1.362 . S
H2312 C2318 0.930 . S
H2313 C2321 0.930 . S
H2314 C2322 0.930 . S
H2315 C2323 0.930 . S
H2316 C2326 0.930 . S
H2317 C2327 0.930 . S
C2318 H2312 0.930 . S
C2318 C2319 1.355 . S
C2318 C2320 1.415 . S
C2319 C2318 1.355 . S
C2319 C2321 1.419 . S
C2320 C2318 1.415 . S
C2320 C2325 1.425 . S
C2320 C2327 1.409 . S
C2321 H2313 0.930 . S
C2321 C2319 1.419 . S
C2321 C2322 1.362 . S
C2322 H2314 0.930 . S
C2322 C2321 1.362 . S
C2322 C2325 1.409 . S
C2323 H2315 0.930 . S
C2323 C2324 1.355 . S
C2323 C2325 1.415 . S
C2324 C2323 1.355 . S
C2324 C2326 1.419 . S
C2325 C2320 1.425 . S
C2325 C2322 1.409 . S
C2325 C2323 1.415 . S
C2326 H2316 0.930 . S
C2326 C2324 1.419 . S
C2326 C2327 1.362 . S
C2327 H2317 0.930 . S
C2327 C2320 1.409 . S
C2327 C2326 1.362 . S
H2328 C2334 0.930 . S
H2329 C2337 0.930 . S
H2330 C2338 0.930 . S
H2331 C2339 0.930 . S
H2332 C2342 0.930 . S
H2333 C2343 0.930 . S
C2334 H2328 0.930 . S
C2334 C2335 1.355 . S
C2334 C2336 1.415 . S
C2335 C2334 1.355 . S
C2335 C2337 1.419 . S
C2336 C2334 1.415 . S
C2336 C2341 1.425 . S
C2336 C2343 1.409 . S
C2337 H2329 0.930 . S
C2337 C2335 1.419 . S
C2337 C2338 1.362 . S
C2338 H2330 0.930 . S
C2338 C2337 1.362 . S
C2338 C2341 1.409 . S
C2339 H2331 0.930 . S
C2339 C2340 1.355 . S
C2339 C2341 1.415 . S
C2340 C2339 1.355 . S
C2340 C2342 1.419 . S
C2341 C2336 1.425 . S
C2341 C2338 1.409 . S
C2341 C2339 1.415 . S
C2342 H2332 0.930 . S
C2342 C2340 1.419 . S
C2342 C2343 1.362 . S
C2343 H2333 0.930 . S
C2343 C2336 1.409 . S
C2343 C2342 1.362 . S
H2344 C2350 0.930 . S
H2345 C2353 0.930 . S
H2346 C2354 0.930 . S
H2347 C2355 0.930 . S
H2348 C2358 0.930 . S
H2349 C2359 0.930 . S
C2350 H2344 0.930 . S
C2350 C2351 1.355 . S
C2350 C2352 1.415 . S
C2351 C2350 1.355 . S
C2351 C2353 1.419 . S
C2352 C2350 1.415 . S
C2352 C2357 1.425 . S
C2352 C2359 1.409 . S
C2353 H2345 0.930 . S
C2353 C2351 1.419 . S
C2353 C2354 1.362 . S
C2354 H2346 0.930 . S
C2354 C2353 1.362 . S
C2354 C2357 1.409 . S
C2355 H2347 0.930 . S
C2355 C2356 1.355 . S
C2355 C2357 1.415 . S
C2356 C2355 1.355 . S
C2356 C2358 1.419 . S
C2357 C2352 1.425 . S
C2357 C2354 1.409 . S
C2357 C2355 1.415 . S
C2358 H2348 0.930 . S
C2358 C2356 1.419 . S
C2358 C2359 1.362 . S
C2359 H2349 0.930 . S
C2359 C2352 1.409 . S
C2359 C2358 1.362 . S
H2360 C2366 0.930 . S
H2361 C2369 0.930 . S
H2362 C2370 0.930 . S
H2363 C2371 0.930 . S
H2364 C2374 0.930 . S
H2365 C2375 0.930 . S
C2366 H2360 0.930 . S
C2366 C2367 1.355 . S
C2366 C2368 1.415 . S
C2367 C2366 1.355 . S
C2367 C2369 1.419 . S
C2368 C2366 1.415 . S
C2368 C2373 1.425 . S
C2368 C2375 1.409 . S
C2369 H2361 0.930 . S
C2369 C2367 1.419 . S
C2369 C2370 1.362 . S
C2370 H2362 0.930 . S
C2370 C2369 1.362 . S
C2370 C2373 1.409 . S
C2371 H2363 0.930 . S
C2371 C2372 1.355 . S
C2371 C2373 1.415 . S
C2372 C2371 1.355 . S
C2372 C2374 1.419 . S
C2373 C2368 1.425 . S
C2373 C2370 1.409 . S
C2373 C2371 1.415 . S
C2374 H2364 0.930 . S
C2374 C2372 1.419 . S
C2374 C2375 1.362 . S
C2375 H2365 0.930 . S
C2375 C2368 1.409 . S
C2375 C2374 1.362 . S
H2376 C2382 0.930 . S
H2377 C2385 0.930 . S
H2378 C2386 0.930 . S
H2379 C2387 0.930 . S
H2380 C2390 0.930 . S
H2381 C2391 0.930 . S
C2382 H2376 0.930 . S
C2382 C2383 1.355 . S
C2382 C2384 1.415 . S
C2383 C2382 1.355 . S
C2383 C2385 1.419 . S
C2384 C2382 1.415 . S
C2384 C2389 1.425 . S
C2384 C2391 1.409 . S
C2385 H2377 0.930 . S
C2385 C2383 1.419 . S
C2385 C2386 1.362 . S
C2386 H2378 0.930 . S
C2386 C2385 1.362 . S
C2386 C2389 1.409 . S
C2387 H2379 0.930 . S
C2387 C2388 1.355 . S
C2387 C2389 1.415 . S
C2388 C2387 1.355 . S
C2388 C2390 1.419 . S
C2389 C2384 1.425 . S
C2389 C2386 1.409 . S
C2389 C2387 1.415 . S
C2390 H2380 0.930 . S
C2390 C2388 1.419 . S
C2390 C2391 1.362 . S
C2391 H2381 0.930 . S
C2391 C2384 1.409 . S
C2391 C2390 1.362 . S
C868 C371 1.792 . S
C863 C7 1.801 . S
C884 C382 1.271 . S
C879 C19 1.368 . S
C895 C29 1.705 . S
C900 C406 1.652 . S
C916 C427 1.359 . S
C911 C41 1.428 . S
C927 C52 1.454 . S
C932 C434 1.404 . S
C943 C62 1.570 . S
C948 C364 1.528 . S
C959 C73 1.302 . S
C964 C390 1.308 . S
C980 C413 1.669 . S
C975 C82 1.511 . S
C996 C445 1.607 . S
C991 C5 1.558 . S
C1007 C16 1.397 . S
C1012 C466 1.526 . S
C1023 C30 1.740 . S
C1028 C490 1.545 . S
C1044 C508 1.264 . S
C1039 C40 1.423 . S
C1055 C49 1.220 . S
C1060 C537 1.308 . S
C1076 C558 1.310 . S
C1071 C63 1.487 . S
C1087 C74 1.361 . S
C1092 C574 1.308 . S
C1108 C595 1.411 . S
C1103 C85 1.560 . S
C1119 C8 1.578 . S
C1124 C516 1.486 . S
C1135 C51 1.560 . S
C1140 C550 1.530 . S
C1156 C581 1.747 . S
C1151 C60 1.582 . S
C1167 C71 1.214 . S
C1172 C602 1.475 . S
C1188 C529 1.864 . S
C1183 C84 1.870 . S
C1204 C474 1.338 . S
C1199 C27 1.225 . S
C1215 C38 1.387 . S
C1220 C497 1.366 . S
C1236 C453 1.581 . S
C1231 C18 1.579 . S
C1252 C621 1.803 . S
C1247 C95 1.845 . S
C1263 C107 1.336 . S
C1268 C637 1.195 . S
C1279 C117 1.709 . S
C1284 C655 1.638 . S
C1300 C676 1.208 . S
C1295 C129 1.409 . S
C1311 C140 1.410 . S
C1316 C684 1.335 . S
C1327 C150 1.573 . S
C1332 C613 1.506 . S
C1343 C161 1.179 . S
C1348 C644 1.245 . S
C1359 C170 1.539 . S
C1364 C663 1.581 . S
C1380 C539 1.627 . S
C1375 C93 1.548 . S
C1391 C104 1.362 . S
C1396 C697 1.480 . S
C1412 C571 1.603 . S
C1407 C118 1.712 . S
C1423 C128 1.420 . S
C1428 C726 1.292 . S
C1439 C137 1.273 . S
C1444 C448 1.350 . S
C1460 C742 1.392 . S
C1455 C151 1.534 . S
C1471 C162 1.252 . S
C1476 C487 1.108 . S
C1492 C770 1.497 . S
C1487 C173 1.553 . S
C1503 C96 1.602 . S
C1508 C718 1.456 . S
C1524 C749 1.489 . S
C1519 C139 1.535 . S
C1535 C148 1.506 . S
C1540 C495 1.610 . S
C1556 C763 1.373 . S
C1551 C159 1.215 . S
C1567 C172 1.820 . S
C1572 C455 1.862 . S
C1583 C115 1.355 . S
C1588 C705 1.426 . S
C1599 C126 1.411 . S
C1604 C579 1.333 . S
C1615 C106 1.591 . S
C1620 C532 1.573 . S
C1631 C183 1.814 . S
C1636 C658 1.843 . S
C1652 C679 1.261 . S
C1647 C195 1.379 . S
C1663 C205 1.696 . S
C1668 C623 1.697 . S
C1679 C217 1.422 . S
C1684 C634 1.262 . S
C1695 C228 1.407 . S
C1700 C642 1.315 . S
C1711 C238 1.544 . S
C1716 C665 1.489 . S
C1732 C686 1.240 . S
C1727 C249 1.179 . S
C1743 C258 1.590 . S
C1748 C616 1.553 . S
C1764 C781 1.597 . S
C1759 C181 1.584 . S
C1775 C192 1.395 . S
C1780 C560 1.534 . S
C1796 C802 1.589 . S
C1791 C206 1.684 . S
C1807 C216 1.436 . S
C1812 C592 1.357 . S
C1823 C225 1.137 . S
C1828 C826 1.280 . S
C1839 C239 1.525 . S
C1844 C469 1.376 . S
C1860 C847 1.279 . S
C1855 C250 1.342 . S
C1871 C261 1.572 . S
C1876 C511 1.387 . S
C1892 C600 1.450 . S
C1887 C184 1.594 . S
C1908 C476 1.548 . S
C1903 C227 1.564 . S
C1919 C236 1.501 . S
C1924 C854 1.700 . S
C1935 C247 1.215 . S
C1940 C518 1.476 . S
C1956 C833 1.855 . S
C1951 C260 1.881 . S
C1972 C553 1.362 . S
C1967 C203 1.244 . S
C1988 C810 1.420 . S
C1983 C214 1.340 . S
C2004 C789 1.570 . S
C1999 C194 1.582 . S
C2015 C271 1.828 . S
C2020 C403 1.837 . S
C2031 C283 1.340 . S
C2036 C424 1.200 . S
C2052 C369 1.655 . S
C2047 C293 1.700 . S
C2068 C385 1.245 . S
C2063 C305 1.414 . S
C2084 C392 1.354 . S
C2079 C316 1.407 . S
C2100 C411 1.453 . S
C2095 C326 1.500 . S
C2116 C432 1.282 . S
C2111 C337 1.259 . S
C2127 C346 1.574 . S
C2132 C361 1.553 1_556 S
C2143 C269 1.526 . S
C2148 C823 1.677 . S
C2164 C739 1.459 . S
C2159 C280 1.263 . S
C2180 C844 1.652 . S
C2175 C294 1.717 . S
C2196 C768 1.286 . S
C2191 C304 1.435 . S
C2207 C313 1.262 . S
C2212 C784 1.337 . S
C2228 C700 1.397 . S
C2223 C327 1.524 . S
C2244 C805 1.284 . S
C2239 C338 1.351 . S
C2255 C349 1.542 . S
C2260 C728 1.513 . S
C2276 C760 1.521 . S
C2271 C272 1.580 . S
C2292 C707 1.477 . S
C2287 C315 1.493 . S
C2308 C812 1.727 . S
C2303 C324 1.515 . S
C2319 C335 1.174 . S
C2324 C721 1.382 . S
C2335 C348 1.816 . S
C2340 C791 1.848 . S
C2351 C291 1.240 . S
C2356 C747 1.371 . S
C2367 C302 1.312 . S
C2372 C852 1.393 . S
C2388 C831 1.516 . S
C2383 C282 1.531 . S
