# Generated by pormake.
# Topology ctn, (3,4)-cn, num edge types: 1
# Building blocks:
#     Node 0, Type 0, BuildingBlock: BETDIP_clean_linker_0, # of connection points: 3
#     Node 1, Type 0, BuildingBlock: BETDIP_clean_linker_0, # of connection points: 3
#     Node 2, Type 0, BuildingBlock: BETDIP_clean_linker_0, # of connection points: 3
#     Node 3, Type 0, BuildingBlock: BETDIP_clean_linker_0, # of connection points: 3
#     Node 4, Type 0, BuildingBlock: BETDIP_clean_linker_0, # of connection points: 3
#     Node 5, Type 0, BuildingBlock: BETDIP_clean_linker_0, # of connection points: 3
#     Node 6, Type 0, BuildingBlock: BETDIP_clean_linker_0, # of connection points: 3
#     Node 7, Type 0, BuildingBlock: BETDIP_clean_linker_0, # of connection points: 3
#     Node 8, Type 0, BuildingBlock: BETDIP_clean_linker_0, # of connection points: 3
#     Node 9, Type 0, BuildingBlock: BETDIP_clean_linker_0, # of connection points: 3
#     Node 10, Type 0, BuildingBlock: BETDIP_clean_linker_0, # of connection points: 3
#     Node 11, Type 0, BuildingBlock: BETDIP_clean_linker_0, # of connection points: 3
#     Node 12, Type 0, BuildingBlock: BETDIP_clean_linker_0, # of connection points: 3
#     Node 13, Type 0, BuildingBlock: BETDIP_clean_linker_0, # of connection points: 3
#     Node 14, Type 0, BuildingBlock: BETDIP_clean_linker_0, # of connection points: 3
#     Node 15, Type 0, BuildingBlock: BETDIP_clean_linker_0, # of connection points: 3
#     Node 16, Type 1, BuildingBlock: TATPOV_clean_sbu_0, # of connection points: 4
#     Node 17, Type 1, BuildingBlock: TATPOV_clean_sbu_0, # of connection points: 4
#     Node 18, Type 1, BuildingBlock: TATPOV_clean_sbu_0, # of connection points: 4
#     Node 19, Type 1, BuildingBlock: TATPOV_clean_sbu_0, # of connection points: 4
#     Node 20, Type 1, BuildingBlock: TATPOV_clean_sbu_0, # of connection points: 4
#     Node 21, Type 1, BuildingBlock: TATPOV_clean_sbu_0, # of connection points: 4
#     Node 22, Type 1, BuildingBlock: TATPOV_clean_sbu_0, # of connection points: 4
#     Node 23, Type 1, BuildingBlock: TATPOV_clean_sbu_0, # of connection points: 4
#     Node 24, Type 1, BuildingBlock: TATPOV_clean_sbu_0, # of connection points: 4
#     Node 25, Type 1, BuildingBlock: TATPOV_clean_sbu_0, # of connection points: 4
#     Node 26, Type 1, BuildingBlock: TATPOV_clean_sbu_0, # of connection points: 4
#     Node 27, Type 1, BuildingBlock: TATPOV_clean_sbu_0, # of connection points: 4
#     Edge 28, Type (0, 1), BuildingBlock: KIFKEQ_clean_linker_1, # of connection points: 2
#     Edge 29, Type (0, 1), BuildingBlock: KIFKEQ_clean_linker_1, # of connection points: 2
#     Edge 30, Type (0, 1), BuildingBlock: KIFKEQ_clean_linker_1, # of connection points: 2
#     Edge 31, Type (0, 1), BuildingBlock: KIFKEQ_clean_linker_1, # of connection points: 2
#     Edge 32, Type (0, 1), BuildingBlock: KIFKEQ_clean_linker_1, # of connection points: 2
#     Edge 33, Type (0, 1), BuildingBlock: KIFKEQ_clean_linker_1, # of connection points: 2
#     Edge 34, Type (0, 1), BuildingBlock: KIFKEQ_clean_linker_1, # of connection points: 2
#     Edge 35, Type (0, 1), BuildingBlock: KIFKEQ_clean_linker_1, # of connection points: 2
#     Edge 36, Type (0, 1), BuildingBlock: KIFKEQ_clean_linker_1, # of connection points: 2
#     Edge 37, Type (0, 1), BuildingBlock: KIFKEQ_clean_linker_1, # of connection points: 2
#     Edge 38, Type (0, 1), BuildingBlock: KIFKEQ_clean_linker_1, # of connection points: 2
#     Edge 39, Type (0, 1), BuildingBlock: KIFKEQ_clean_linker_1, # of connection points: 2
#     Edge 40, Type (0, 1), BuildingBlock: KIFKEQ_clean_linker_1, # of connection points: 2
#     Edge 41, Type (0, 1), BuildingBlock: KIFKEQ_clean_linker_1, # of connection points: 2
#     Edge 42, Type (0, 1), BuildingBlock: KIFKEQ_clean_linker_1, # of connection points: 2
#     Edge 43, Type (0, 1), BuildingBlock: KIFKEQ_clean_linker_1, # of connection points: 2
#     Edge 44, Type (0, 1), BuildingBlock: KIFKEQ_clean_linker_1, # of connection points: 2
#     Edge 45, Type (0, 1), BuildingBlock: KIFKEQ_clean_linker_1, # of connection points: 2
#     Edge 46, Type (0, 1), BuildingBlock: KIFKEQ_clean_linker_1, # of connection points: 2
#     Edge 47, Type (0, 1), BuildingBlock: KIFKEQ_clean_linker_1, # of connection points: 2
#     Edge 48, Type (0, 1), BuildingBlock: KIFKEQ_clean_linker_1, # of connection points: 2
#     Edge 49, Type (0, 1), BuildingBlock: KIFKEQ_clean_linker_1, # of connection points: 2
#     Edge 50, Type (0, 1), BuildingBlock: KIFKEQ_clean_linker_1, # of connection points: 2
#     Edge 51, Type (0, 1), BuildingBlock: KIFKEQ_clean_linker_1, # of connection points: 2
#     Edge 52, Type (0, 1), BuildingBlock: KIFKEQ_clean_linker_1, # of connection points: 2
#     Edge 53, Type (0, 1), BuildingBlock: KIFKEQ_clean_linker_1, # of connection points: 2
#     Edge 54, Type (0, 1), BuildingBlock: KIFKEQ_clean_linker_1, # of connection points: 2
#     Edge 55, Type (0, 1), BuildingBlock: KIFKEQ_clean_linker_1, # of connection points: 2
#     Edge 56, Type (0, 1), BuildingBlock: KIFKEQ_clean_linker_1, # of connection points: 2
#     Edge 57, Type (0, 1), BuildingBlock: KIFKEQ_clean_linker_1, # of connection points: 2
#     Edge 58, Type (0, 1), BuildingBlock: KIFKEQ_clean_linker_1, # of connection points: 2
#     Edge 59, Type (0, 1), BuildingBlock: KIFKEQ_clean_linker_1, # of connection points: 2
#     Edge 60, Type (0, 1), BuildingBlock: KIFKEQ_clean_linker_1, # of connection points: 2
#     Edge 61, Type (0, 1), BuildingBlock: KIFKEQ_clean_linker_1, # of connection points: 2
#     Edge 62, Type (0, 1), BuildingBlock: KIFKEQ_clean_linker_1, # of connection points: 2
#     Edge 63, Type (0, 1), BuildingBlock: KIFKEQ_clean_linker_1, # of connection points: 2
#     Edge 64, Type (0, 1), BuildingBlock: KIFKEQ_clean_linker_1, # of connection points: 2
#     Edge 65, Type (0, 1), BuildingBlock: KIFKEQ_clean_linker_1, # of connection points: 2
#     Edge 66, Type (0, 1), BuildingBlock: KIFKEQ_clean_linker_1, # of connection points: 2
#     Edge 67, Type (0, 1), BuildingBlock: KIFKEQ_clean_linker_1, # of connection points: 2
#     Edge 68, Type (0, 1), BuildingBlock: KIFKEQ_clean_linker_1, # of connection points: 2
#     Edge 69, Type (0, 1), BuildingBlock: KIFKEQ_clean_linker_1, # of connection points: 2
#     Edge 70, Type (0, 1), BuildingBlock: KIFKEQ_clean_linker_1, # of connection points: 2
#     Edge 71, Type (0, 1), BuildingBlock: KIFKEQ_clean_linker_1, # of connection points: 2
#     Edge 72, Type (0, 1), BuildingBlock: KIFKEQ_clean_linker_1, # of connection points: 2
#     Edge 73, Type (0, 1), BuildingBlock: KIFKEQ_clean_linker_1, # of connection points: 2
#     Edge 74, Type (0, 1), BuildingBlock: KIFKEQ_clean_linker_1, # of connection points: 2
#     Edge 75, Type (0, 1), BuildingBlock: KIFKEQ_clean_linker_1, # of connection points: 2
# Relax obj value: 0.069
# Max RMSD: 0.195
# Mean RMSD: 0.113
data_MOF--net-ctn--node1-TATPOV_clean_sbu_0--node2-BETDIP_clean_linker_0--edge1-KIFKEQ_clean_linker_1
_symmetry_space_group_name_H-M    P1
_symmetry_Int_Tables_number       1
_symmetry_cell_setting            triclinic
loop_
_symmetry_equiv_pos_as_xyz
'x, y, z'
_cell_length_a     53.064226
_cell_length_b     53.300891
_cell_length_c     58.528031
_cell_angle_alpha  94.866186
_cell_angle_beta   94.853237
_cell_angle_gamma 94.326692
loop_
_atom_site_label
_atom_site_type_symbol
_atom_site_fract_x
_atom_site_fract_y
_atom_site_fract_z
_atom_type_partial_charge
H0 H 0.01645 0.05954 0.0484 0.0
H1 H 0.07186 0.0262 0.0089 0.0
H2 H 0.05555 0.99777 0.07314 0.0
H3 H 0.05454 0.04571 0.98043 0.0
C4 C 0.04631 0.06221 0.98783 0.0
C5 C 0.03026 0.0457 0.04647 0.0
C6 C 0.03419 0.0287 0.06331 0.0
C7 C 0.04348 0.04489 0.02675 0.0
C8 C 0.0613 0.02688 0.0239 0.0
C9 C 0.06572 0.00959 0.04046 0.0
C10 C 0.05191 0.01058 0.06005 0.0
N11 N 0.0387 0.06298 0.01062 0.0
H12 H 0.24289 0.68882 0.21095 0.0
H13 H 0.31944 0.72279 0.21873 0.0
H14 H 0.29727 0.66569 0.26231 0.0
H15 H 0.31086 0.72129 0.1791 0.0
C16 C 0.29244 0.72899 0.17822 0.0
C17 C 0.26189 0.69026 0.2196 0.0
C18 C 0.26766 0.67534 0.23777 0.0
C19 C 0.28062 0.70682 0.21218 0.0
C20 C 0.3052 0.70916 0.22365 0.0
C21 C 0.31134 0.69456 0.24192 0.0
C22 C 0.29245 0.67764 0.24878 0.0
N23 N 0.27434 0.72104 0.19327 0.0
H24 H 0.963 0.46321 0.02554 0.0
H25 H 0.01314 0.42436 0.06901 0.0
H26 H 0.98492 0.49389 0.09524 0.0
H27 H 0.99478 0.38959 0.04419 0.0
C28 C 0.99559 0.39807 0.028 0.0
C29 C 0.97321 0.46184 0.04219 0.0
C30 C 0.97235 0.48089 0.06008 0.0
C31 C 0.98749 0.44123 0.04539 0.0
C32 C 0.00119 0.43971 0.06678 0.0
C33 C 0.00048 0.45862 0.085 0.0
C34 C 0.98599 0.47925 0.0814 0.0
N35 N 0.98895 0.42322 0.02634 0.0
H36 H 0.73775 0.74466 0.18676 0.0
H37 H 0.74884 0.81799 0.22444 0.0
H38 H 0.79431 0.80012 0.16888 0.0
H39 H 0.70554 0.80986 0.22541 0.0
C40 C 0.70501 0.79074 0.2306 0.0
C41 C 0.74756 0.7634 0.18953 0.0
C42 C 0.76708 0.77023 0.17584 0.0
C43 C 0.74047 0.78068 0.20674 0.0
C44 C 0.75345 0.80489 0.21055 0.0
C45 C 0.77297 0.8121 0.19703 0.0
C46 C 0.7797 0.79458 0.17975 0.0
N47 N 0.72055 0.77323 0.22023 0.0
H48 H 0.05274 0.96162 0.42028 0.0
H49 H 0.12583 0.97846 0.45785 0.0
H50 H 0.1053 0.01926 0.39971 0.0
H51 H 0.11666 0.939 0.47062 0.0
C52 C 0.09651 0.93942 0.47251 0.0
C53 C 0.07104 0.97245 0.42246 0.0
C54 C 0.07676 0.99098 0.40753 0.0
C55 C 0.08855 0.96767 0.44045 0.0
C56 C 0.11244 0.98135 0.4435 0.0
C57 C 0.11861 0.99994 0.42876 0.0
C58 C 0.10071 0.00463 0.41082 0.0
N59 N 0.08053 0.95045 0.45613 0.0
H60 H 0.20875 0.75034 0.79548 0.0
H61 H 0.24563 0.70334 0.74808 0.0
H62 H 0.27789 0.71853 0.81821 0.0
H63 H 0.22247 0.72047 0.72122 0.0
C64 C 0.20567 0.72657 0.72868 0.0
C65 C 0.22465 0.73941 0.7921 0.0
C66 C 0.24365 0.73672 0.80979 0.0
C67 C 0.22549 0.72802 0.76983 0.0
C68 C 0.2451 0.71259 0.76516 0.0
C69 C 0.26391 0.7086 0.78263 0.0
C70 C 0.26327 0.72116 0.8048 0.0
N71 N 0.20571 0.732 0.7529 0.0
H72 H 0.96576 0.59435 0.46731 0.0
H73 H 0.92934 0.51941 0.45275 0.0
H74 H 0.9135 0.56581 0.51296 0.0
H75 H 0.99509 0.57962 0.44605 0.0
C76 C 0.98611 0.56434 0.43397 0.0
C77 C 0.95299 0.57914 0.47181 0.0
C78 C 0.93994 0.58281 0.49158 0.0
C79 C 0.94952 0.55603 0.45807 0.0
C80 C 0.9323 0.53694 0.4638 0.0
C81 C 0.91928 0.54007 0.48367 0.0
C82 C 0.92329 0.56313 0.49753 0.0
N83 N 0.96305 0.55108 0.43846 0.0
H84 H 0.83277 0.86014 0.80222 0.0
H85 H 0.87584 0.80783 0.83755 0.0
H86 H 0.8048 0.82719 0.86095 0.0
H87 H 0.89835 0.80682 0.80828 0.0
C88 C 0.89429 0.82169 0.79733 0.0
C89 C 0.83509 0.84833 0.81631 0.0
C90 C 0.81613 0.8458 0.83155 0.0
C91 C 0.85656 0.83471 0.8181 0.0
C92 C 0.85934 0.81841 0.83565 0.0
C93 C 0.84063 0.81554 0.85106 0.0
C94 C 0.81928 0.82954 0.84914 0.0
N95 N 0.87418 0.83725 0.80125 0.0
H96 H 0.33823 0.37229 0.30996 0.0
H97 H 0.37489 0.31363 0.34194 0.0
H98 H 0.30289 0.33429 0.3625 0.0
H99 H 0.40246 0.31702 0.31676 0.0
C100 C 0.39785 0.33109 0.3051 0.0
C101 C 0.33827 0.35836 0.32241 0.0
C102 C 0.31762 0.35485 0.33565 0.0
C103 C 0.35884 0.34357 0.32433 0.0
C104 C 0.35939 0.32555 0.34055 0.0
C105 C 0.33944 0.32232 0.35475 0.0
C106 C 0.3186 0.33705 0.35208 0.0
N107 N 0.37764 0.34663 0.30862 0.0
H108 H 0.45906 0.9549 0.5291 0.0
H109 H 0.50595 0.92241 0.5802 0.0
H110 H 0.48355 0.99733 0.59432 0.0
H111 H 0.51204 0.89394 0.5526 0.0
C112 C 0.4985 0.89461 0.53776 0.0
C113 C 0.46953 0.95667 0.54595 0.0
C114 C 0.46972 0.97901 0.56068 0.0
C115 C 0.48291 0.93639 0.55247 0.0
C116 C 0.49606 0.93805 0.57447 0.0
C117 C 0.49596 0.95987 0.58968 0.0
C118 C 0.48284 0.98027 0.58274 0.0
N119 N 0.48272 0.91494 0.53621 0.0
H120 H 0.23946 0.24069 0.6835 0.0
H121 H 0.25108 0.31094 0.726 0.0
H122 H 0.29451 0.29894 0.66785 0.0
H123 H 0.23922 0.2835 0.75373 0.0
C124 C 0.22301 0.27306 0.74371 0.0
C125 C 0.24955 0.2592 0.68745 0.0
C126 C 0.26805 0.26769 0.67338 0.0
C127 C 0.24374 0.27439 0.70667 0.0
C128 C 0.25593 0.29885 0.71149 0.0
C129 C 0.27414 0.30796 0.69739 0.0
C130 C 0.28029 0.29212 0.67858 0.0
N131 N 0.22463 0.26502 0.72012 0.0
H132 H 0.72693 0.18687 0.71959 0.0
H133 H 0.79901 0.23034 0.72908 0.0
H134 H 0.78495 0.16872 0.77026 0.0
H135 H 0.77314 0.26186 0.7195 0.0
C136 C 0.76194 0.25176 0.70467 0.0
C137 C 0.74568 0.19061 0.72865 0.0
C138 C 0.75394 0.17507 0.7456 0.0
C139 C 0.76147 0.21105 0.72315 0.0
C140 C 0.78622 0.21544 0.73414 0.0
C141 C 0.79497 0.20006 0.75099 0.0
C142 C 0.7786 0.18009 0.75674 0.0
N143 N 0.75247 0.22626 0.70584 0.0
H144 H 0.51759 0.54718 0.55214 0.0
H145 H 0.57398 0.51725 0.5116 0.0
H146 H 0.55752 0.48437 0.57367 0.0
H147 H 0.55458 0.53639 0.48365 0.0
C148 C 0.54714 0.553 0.49174 0.0
C149 C 0.53167 0.53374 0.54968 0.0
C150 C 0.53585 0.51583 0.56569 0.0
C151 C 0.54493 0.53424 0.52998 0.0
C152 C 0.5629 0.51657 0.52624 0.0
C153 C 0.56741 0.49833 0.54181 0.0
C154 C 0.55393 0.49824 0.56156 0.0
N155 N 0.54006 0.55316 0.5147 0.0
H156 H 0.55034 0.46728 0.92237 0.0
H157 H 0.62049 0.48766 0.96391 0.0
H158 H 0.60646 0.51957 0.89931 0.0
H159 H 0.61109 0.44873 0.97696 0.0
C160 C 0.59077 0.44876 0.97811 0.0
C161 C 0.5689 0.47762 0.92473 0.0
C162 C 0.57674 0.49321 0.90801 0.0
C163 C 0.58461 0.47528 0.94469 0.0
C164 C 0.60838 0.48917 0.94835 0.0
C165 C 0.61644 0.50538 0.93213 0.0
C166 C 0.60049 0.50717 0.91193 0.0
N167 N 0.57537 0.45964 0.96116 0.0
H168 H 0.72282 0.26549 0.29526 0.0
H169 H 0.75575 0.21773 0.24515 0.0
H170 H 0.78379 0.22113 0.31643 0.0
H171 H 0.71894 0.21839 0.22465 0.0
C172 C 0.71123 0.23614 0.22953 0.0
C173 C 0.73638 0.25191 0.29129 0.0
C174 C 0.75346 0.24486 0.30883 0.0
C175 C 0.73651 0.24171 0.26846 0.0
C176 C 0.7546 0.22477 0.26286 0.0
C177 C 0.7719 0.21732 0.28003 0.0
C178 C 0.77109 0.2274 0.30299 0.0
N179 N 0.71827 0.24914 0.25166 0.0
H180 H 0.48886 0.08637 0.99279 0.0
H181 H 0.4427 0.01801 0.96888 0.0
H182 H 0.41401 0.07368 0.01507 0.0
H183 H 0.47996 0.00286 0.96454 0.0
C184 C 0.49084 0.01828 0.95792 0.0
C185 C 0.47133 0.07451 0.9927 0.0
C186 C 0.4518 0.08276 0.0055 0.0
C187 C 0.46835 0.05112 0.9796 0.0
C188 C 0.44539 0.03599 0.97915 0.0
C189 C 0.42572 0.04381 0.99202 0.0
C190 C 0.42905 0.06735 0.00512 0.0
N191 N 0.48838 0.04365 0.96649 0.0
Zn192 Zn 0.28938 0.84453 0.00441 0.0
Zn193 Zn 0.24876 0.868 0.00916 0.0
O194 O 0.25233 0.84815 0.03862 0.0
O195 O 0.29048 0.83492 0.03663 0.0
O196 O 0.21877 0.88907 0.01415 0.0
O197 O 0.30958 0.87587 0.99762 0.0
O198 O 0.27723 0.89658 0.00731 0.0
C199 C 0.27103 0.83732 0.04742 0.0
C200 C 0.25095 0.82716 0.9689 0.0
O201 O 0.24006 0.84578 0.97774 0.0
O202 O 0.27166 0.82115 0.97839 0.0
C203 C 0.19517 0.88196 0.01155 0.0
O204 O 0.18789 0.85824 0.00456 0.0
C205 C 0.29985 0.89658 0.00147 0.0
Zn206 Zn 0.10204 0.43774 0.28814 0.0
Zn207 Zn 0.12853 0.48207 0.28123 0.0
O208 O 0.10552 0.49335 0.30608 0.0
O209 O 0.08417 0.4577 0.31187 0.0
O210 O 0.14889 0.51366 0.27425 0.0
O211 O 0.13532 0.42357 0.29788 0.0
O212 O 0.15607 0.45938 0.29169 0.0
C213 C 0.08889 0.48135 0.31643 0.0
C214 C 0.0936 0.45191 0.24193 0.0
O215 O 0.10905 0.47062 0.25002 0.0
O216 O 0.08749 0.43475 0.25464 0.0
C217 C 0.15064 0.53504 0.28596 0.0
O218 O 0.13855 0.53776 0.30457 0.0
C219 C 0.15605 0.437 0.29782 0.0
Zn220 Zn 0.83982 0.61985 0.95573 0.0
Zn221 Zn 0.8235 0.6445 0.99353 0.0
O222 O 0.85262 0.62406 0.00599 0.0
O223 O 0.86754 0.60598 0.97524 0.0
O224 O 0.81217 0.6636 0.02192 0.0
O225 O 0.84678 0.65309 0.94263 0.0
O226 O 0.83263 0.67298 0.97292 0.0
C227 C 0.86834 0.61019 0.9969 0.0
C228 C 0.78746 0.60539 0.96321 0.0
O229 O 0.7918 0.62192 0.98041 0.0
O230 O 0.80481 0.60081 0.9502 0.0
C231 C 0.81813 0.65846 0.04243 0.0
O232 O 0.83227 0.63971 0.0459 0.0
C233 C 0.84169 0.67341 0.95344 0.0
Zn234 Zn 0.88209 0.02335 0.27906 0.0
Zn235 Zn 0.9072 0.02667 0.24235 0.0
O236 O 0.88956 0.06092 0.24482 0.0
O237 O 0.87024 0.05746 0.27647 0.0
O238 O 0.92807 0.02708 0.21452 0.0
O239 O 0.91359 0.02085 0.29942 0.0
O240 O 0.9352 0.0237 0.26909 0.0
C241 C 0.87597 0.07007 0.26004 0.0
C242 C 0.86546 0.98316 0.24495 0.0
O243 O 0.8826 0.99409 0.2343 0.0
O244 O 0.86111 0.99233 0.26474 0.0
C245 C 0.9251 0.0406 0.19773 0.0
O246 O 0.90715 0.05629 0.19757 0.0
C247 C 0.93456 0.02173 0.29063 0.0
Zn248 Zn 0.33912 0.11976 0.45055 0.0
Zn249 Zn 0.32258 0.14302 0.48888 0.0
O250 O 0.35208 0.123 0.50113 0.0
O251 O 0.36743 0.10644 0.46997 0.0
O252 O 0.31143 0.16212 0.51725 0.0
O253 O 0.34492 0.15329 0.43744 0.0
O254 O 0.33081 0.17177 0.46839 0.0
C255 C 0.36815 0.10988 0.49169 0.0
C256 C 0.28714 0.10357 0.45866 0.0
O257 O 0.29122 0.1199 0.47604 0.0
O258 O 0.30444 0.09983 0.44537 0.0
C259 C 0.31635 0.15635 0.53771 0.0
O260 O 0.3291 0.13662 0.54117 0.0
C261 C 0.33939 0.17309 0.44879 0.0
Zn262 Zn 0.3817 0.51847 0.78075 0.0
Zn263 Zn 0.40536 0.52377 0.74359 0.0
O264 O 0.38757 0.55763 0.74834 0.0
O265 O 0.37238 0.5541 0.78193 0.0
O266 O 0.42507 0.5271 0.71503 0.0
O267 O 0.41316 0.51026 0.79858 0.0
O268 O 0.43426 0.51899 0.76903 0.0
C269 C 0.37616 0.56689 0.76512 0.0
C270 C 0.36232 0.48105 0.74535 0.0
O271 O 0.38017 0.4915 0.73519 0.0
O272 O 0.3579 0.49011 0.76515 0.0
C273 C 0.42692 0.50831 0.70043 0.0
O274 O 0.41532 0.48633 0.70337 0.0
C275 C 0.43396 0.51278 0.78961 0.0
Zn276 Zn 0.79487 0.33643 0.51503 0.0
Zn277 Zn 0.75259 0.35939 0.51361 0.0
O278 O 0.7528 0.34024 0.54357 0.0
O279 O 0.78904 0.32264 0.54479 0.0
O280 O 0.722 0.38017 0.51621 0.0
O281 O 0.81662 0.36877 0.51541 0.0
O282 O 0.78141 0.38809 0.51356 0.0
C283 C 0.76876 0.32708 0.55367 0.0
C284 C 0.76166 0.3206 0.47381 0.0
O285 O 0.7474 0.33671 0.48218 0.0
O286 O 0.78231 0.31682 0.48498 0.0
C287 C 0.69896 0.37448 0.50842 0.0
O288 O 0.69266 0.35261 0.49643 0.0
C289 C 0.80557 0.38891 0.51445 0.0
Zn290 Zn 0.59907 0.92839 0.78842 0.0
Zn291 Zn 0.62465 0.97392 0.78679 0.0
O292 O 0.60424 0.98154 0.81453 0.0
O293 O 0.58627 0.94347 0.81781 0.0
O294 O 0.64555 0.00607 0.78261 0.0
O295 O 0.63218 0.91173 0.79054 0.0
O296 O 0.65223 0.94967 0.793 0.0
C297 C 0.59043 0.96663 0.8251 0.0
C298 C 0.58593 0.95073 0.74677 0.0
O299 O 0.60306 0.96753 0.75576 0.0
O300 O 0.57985 0.93187 0.75753 0.0
C301 C 0.63996 0.02846 0.78792 0.0
O302 O 0.61907 0.03205 0.79786 0.0
C303 C 0.65269 0.92586 0.79348 0.0
Zn304 Zn 0.01639 0.28141 0.8324 0.0
Zn305 Zn 0.0227 0.24037 0.85407 0.0
O306 O 0.05436 0.24378 0.83514 0.0
O307 O 0.0484 0.27784 0.8172 0.0
O308 O 0.02824 0.2096 0.87165 0.0
O309 O 0.01586 0.30256 0.8624 0.0
O310 O 0.02153 0.26859 0.88048 0.0
C311 C 0.06152 0.25961 0.82128 0.0
C312 C 0.9751 0.2438 0.82047 0.0
O313 O 0.98768 0.2315 0.83471 0.0
O314 O 0.98373 0.26555 0.81631 0.0
C315 C 0.01304 0.20332 0.88628 0.0
O316 O 0.99343 0.21653 0.88917 0.0
C317 C 0.01839 0.29212 0.88099 0.0
Zn318 Zn 0.52198 0.7786 0.34406 0.0
Zn319 Zn 0.52818 0.73664 0.36348 0.0
O320 O 0.56093 0.74197 0.3461 0.0
O321 O 0.55698 0.77964 0.33398 0.0
O322 O 0.53347 0.70523 0.38027 0.0
O323 O 0.516 0.79767 0.37363 0.0
O324 O 0.5241 0.76358 0.39066 0.0
C325 C 0.56968 0.76071 0.33607 0.0
C326 C 0.48387 0.73931 0.32654 0.0
O327 O 0.49501 0.72725 0.34186 0.0
O328 O 0.49248 0.76144 0.32342 0.0
C329 C 0.51792 0.69859 0.39451 0.0
O330 O 0.49832 0.7118 0.39739 0.0
C331 C 0.51875 0.78658 0.39183 0.0
Zn332 Zn 0.96419 0.8048 0.59507 0.0
Zn333 Zn 0.00867 0.79125 0.61452 0.0
O334 O 0.02025 0.81876 0.59409 0.0
O335 O 0.98418 0.82993 0.57817 0.0
O336 O 0.04129 0.78236 0.63101 0.0
O337 O 0.95288 0.8144 0.62656 0.0
O338 O 0.98897 0.80268 0.64178 0.0
C339 C 0.00822 0.83215 0.58053 0.0
C340 C 0.97257 0.75244 0.58355 0.0
O341 O 0.9933 0.75822 0.5962 0.0
O342 O 0.95691 0.76892 0.58052 0.0
C343 C 0.05447 0.76463 0.62434 0.0
O344 O 0.04714 0.75074 0.60496 0.0
C345 C 0.96747 0.81123 0.64416 0.0
Zn346 Zn 0.46423 0.30776 0.10141 0.0
Zn347 Zn 0.51036 0.29859 0.12102 0.0
O348 O 0.51977 0.32648 0.10043 0.0
O349 O 0.48265 0.33311 0.08317 0.0
O350 O 0.54346 0.29179 0.1378 0.0
O351 O 0.45291 0.31816 0.13281 0.0
O352 O 0.48993 0.30878 0.14808 0.0
C353 C 0.50654 0.33787 0.08602 0.0
C354 C 0.47695 0.25644 0.09148 0.0
O355 O 0.49789 0.26465 0.10289 0.0
O356 O 0.45917 0.27084 0.08896 0.0
C357 C 0.56214 0.28352 0.12816 0.0
O358 O 0.56049 0.27924 0.10562 0.0
C359 C 0.46794 0.31615 0.15044 0.0
H360 H 0.22503 0.78264 0.82123 0.0
H361 H 0.25977 0.72136 0.85222 0.0
H362 H 0.22073 0.80294 0.85896 0.0
H363 H 0.2584 0.74328 0.88993 0.0
H364 H 0.24059 0.7768 0.95792 0.0
H365 H 0.23547 0.75457 0.9195 0.0
H366 H 0.24045 0.82649 0.89013 0.0
H367 H 0.24329 0.84827 0.92861 0.0
C368 C 0.23182 0.77337 0.83603 0.0
C369 C 0.24254 0.75 0.83332 0.0
C370 C 0.22979 0.78542 0.85789 0.0
C371 C 0.23916 0.77499 0.8779 0.0
C372 C 0.25032 0.75184 0.87519 0.0
C373 C 0.2517 0.73942 0.85331 0.0
C374 C 0.23962 0.7877 0.94311 0.0
C375 C 0.24191 0.81418 0.94613 0.0
C376 C 0.23724 0.77501 0.92101 0.0
C377 C 0.23812 0.78851 0.90135 0.0
C378 C 0.23931 0.81516 0.90455 0.0
C379 C 0.2409 0.82781 0.92667 0.0
H380 H 0.97006 0.52749 0.3992 0.0
H381 H 0.03447 0.57905 0.42607 0.0
H382 H 0.995 0.50916 0.37002 0.0
H383 H 0.0598 0.56026 0.39705 0.0
H384 H 0.09044 0.53247 0.32849 0.0
H385 H 0.06507 0.55429 0.35569 0.0
H386 H 0.02976 0.48239 0.37027 0.0
H387 H 0.05451 0.46074 0.34298 0.0
C388 C 0.98956 0.53494 0.39885 0.0
C389 C 0.00046 0.55451 0.41506 0.0
C390 C 0.00391 0.52435 0.38219 0.0
C391 C 0.0295 0.53301 0.38142 0.0
C392 C 0.04011 0.55325 0.39711 0.0
C393 C 0.02568 0.56393 0.41377 0.0
C394 C 0.07728 0.52136 0.33755 0.0
C395 C 0.07444 0.49487 0.33347 0.0
C396 C 0.06281 0.53385 0.35317 0.0
C397 C 0.04522 0.52009 0.36497 0.0
C398 C 0.04272 0.49361 0.3611 0.0
C399 C 0.05709 0.48117 0.34554 0.0
H400 H 0.83397 0.82107 0.89718 0.0
H401 H 0.85105 0.76673 0.84292 0.0
H402 H 0.8369 0.78893 0.92463 0.0
H403 H 0.85313 0.73455 0.86979 0.0
H404 H 0.87579 0.68516 0.92323 0.0
H405 H 0.87788 0.72153 0.90087 0.0
H406 H 0.81586 0.75109 0.93515 0.0
H407 H 0.81477 0.71511 0.95843 0.0
C408 C 0.83828 0.80222 0.89116 0.0
C409 C 0.84255 0.79643 0.868 0.0
C410 C 0.83988 0.78379 0.90682 0.0
C411 C 0.84552 0.75914 0.89955 0.0
C412 C 0.8495 0.75345 0.87627 0.0
C413 C 0.84819 0.77187 0.86077 0.0
C414 C 0.86287 0.69964 0.92623 0.0
C415 C 0.84496 0.69721 0.94239 0.0
C416 C 0.86389 0.72041 0.91327 0.0
C417 C 0.84663 0.73903 0.91575 0.0
C418 C 0.82953 0.73722 0.9328 0.0
C419 C 0.82883 0.71658 0.94612 0.0
H420 H 0.02586 0.99264 0.41062 0.0
H421 H 0.08331 0.00261 0.36329 0.0
H422 H 0.99357 0.00093 0.38119 0.0
H423 H 0.05087 0.01271 0.33403 0.0
H424 H 0.97881 0.00111 0.28069 0.0
H425 H 0.0147 0.99472 0.30829 0.0
H426 H 0.97887 0.03487 0.36237 0.0
H427 H 0.94292 0.04004 0.33525 0.0
C428 C 0.03165 0.99658 0.39389 0.0
C429 C 0.05724 0.99676 0.38934 0.0
C430 C 0.01311 0.00181 0.37706 0.0
C431 C 0.01959 0.00783 0.35525 0.0
C432 C 0.04518 0.00803 0.35059 0.0
C433 C 0.06381 0.00254 0.36746 0.0
C434 C 0.97887 0.00873 0.29845 0.0
C435 C 0.95795 0.02067 0.30595 0.0
C436 C 0.99942 0.00515 0.31426 0.0
C437 C 0.99945 0.0138 0.3377 0.0
C438 C 0.97916 0.02718 0.34467 0.0
C439 C 0.95859 0.03032 0.32908 0.0
H440 H 0.27271 0.21666 0.67058 0.0
H441 H 0.278 0.28106 0.63057 0.0
H442 H 0.28291 0.18947 0.63769 0.0
H443 H 0.28968 0.25413 0.59813 0.0
H444 H 0.28551 0.19524 0.53669 0.0
H445 H 0.27299 0.22154 0.56923 0.0
H446 H 0.31755 0.18011 0.61602 0.0
H447 H 0.32935 0.15331 0.58353 0.0
C448 C 0.27601 0.22504 0.65476 0.0
C449 C 0.2745 0.2511 0.65328 0.0
C450 C 0.28222 0.20947 0.63597 0.0
C451 C 0.28723 0.21956 0.61522 0.0
C452 C 0.28566 0.24561 0.61371 0.0
C453 C 0.27931 0.26115 0.63247 0.0
C454 C 0.29257 0.19169 0.55393 0.0
C455 C 0.30843 0.17216 0.55749 0.0
C456 C 0.28552 0.20689 0.57261 0.0
C457 C 0.29429 0.20304 0.59531 0.0
C458 C 0.31009 0.18341 0.59883 0.0
C459 C 0.317 0.1681 0.58016 0.0
H460 H 0.51777 0.47438 0.58634 0.0
H461 H 0.51972 0.55588 0.59204 0.0
H462 H 0.4929 0.47331 0.61922 0.0
H463 H 0.49313 0.55469 0.62381 0.0
H464 H 0.46336 0.54602 0.69417 0.0
H465 H 0.49058 0.54797 0.66262 0.0
H466 H 0.45224 0.47797 0.63 0.0
H467 H 0.42605 0.47556 0.66194 0.0
C468 C 0.513 0.49213 0.59458 0.0
C469 C 0.52088 0.51521 0.5863 0.0
C470 C 0.49825 0.4915 0.61331 0.0
C471 C 0.49058 0.5139 0.62422 0.0
C472 C 0.49872 0.53701 0.61612 0.0
C473 C 0.51373 0.53767 0.59755 0.0
C474 C 0.46075 0.53111 0.68021 0.0
C475 C 0.44259 0.51059 0.68067 0.0
C476 C 0.47631 0.53224 0.66201 0.0
C477 C 0.47389 0.51303 0.64364 0.0
C478 C 0.45526 0.49283 0.64399 0.0
C479 C 0.44 0.49154 0.66228 0.0
H480 H 0.78385 0.29712 0.6969 0.0
H481 H 0.73272 0.23514 0.66413 0.0
H482 H 0.78247 0.31721 0.66087 0.0
H483 H 0.73117 0.2555 0.62799 0.0
H484 H 0.72375 0.31628 0.57275 0.0
H485 H 0.71871 0.29908 0.61006 0.0
H486 H 0.8001 0.30011 0.6227 0.0
H487 H 0.80515 0.31662 0.58581 0.0
C488 C 0.77204 0.28798 0.68206 0.0
C489 C 0.75864 0.26449 0.68323 0.0
C490 C 0.77125 0.29947 0.66148 0.0
C491 C 0.75678 0.28785 0.64168 0.0
C492 C 0.74233 0.26492 0.64308 0.0
C493 C 0.74337 0.25321 0.66368 0.0
C494 C 0.74048 0.31289 0.58361 0.0
C495 C 0.76482 0.31771 0.57632 0.0
C496 C 0.7376 0.30298 0.60483 0.0
C497 C 0.75905 0.29841 0.61924 0.0
C498 C 0.78327 0.30366 0.61204 0.0
C499 C 0.78611 0.31299 0.59082 0.0
H500 H 0.5454 0.95176 0.60049 0.0
H501 H 0.47718 0.97052 0.63099 0.0
H502 H 0.56743 0.95124 0.63896 0.0
H503 H 0.4991 0.9696 0.66951 0.0
H504 H 0.54007 0.92798 0.72831 0.0
H505 H 0.51835 0.93242 0.69052 0.0
H506 H 0.58049 0.98363 0.67558 0.0
H507 H 0.60213 0.97961 0.71358 0.0
C508 C 0.53522 0.95588 0.61547 0.0
C509 C 0.50965 0.96115 0.61289 0.0
C510 C 0.5478 0.9557 0.6374 0.0
C511 C 0.53489 0.96031 0.65711 0.0
C512 C 0.50939 0.96586 0.65453 0.0
C513 C 0.49694 0.96653 0.63259 0.0
C514 C 0.5491 0.94022 0.71699 0.0
C515 C 0.57284 0.95341 0.72388 0.0
C516 C 0.53658 0.94287 0.69546 0.0
C517 C 0.54776 0.9584 0.68024 0.0
C518 C 0.57153 0.9715 0.68703 0.0
C519 C 0.58385 0.96924 0.70875 0.0
H520 H 0.82888 0.16536 0.76172 0.0
H521 H 0.82052 0.24559 0.76632 0.0
H522 H 0.87277 0.17369 0.77877 0.0
H523 H 0.8642 0.25383 0.7831 0.0
H524 H 0.94901 0.26176 0.78433 0.0
H525 H 0.90581 0.24957 0.76832 0.0
H526 H 0.89975 0.1915 0.81518 0.0
H527 H 0.94366 0.20366 0.83133 0.0
C528 C 0.83629 0.18474 0.7666 0.0
C529 C 0.82126 0.20484 0.76242 0.0
C530 C 0.86142 0.18948 0.77635 0.0
C531 C 0.87204 0.21441 0.78201 0.0
C532 C 0.85675 0.23442 0.77845 0.0
C533 C 0.83171 0.2297 0.7688 0.0
C534 C 0.93864 0.24627 0.79123 0.0
C535 C 0.94974 0.23388 0.80934 0.0
C536 C 0.91376 0.23938 0.78209 0.0
C537 C 0.89918 0.21993 0.79079 0.0
C538 C 0.91054 0.20662 0.80817 0.0
C539 C 0.93565 0.21357 0.8174 0.0
H540 H 0.4673 0.88885 0.49757 0.0
H541 H 0.53135 0.85823 0.53262 0.0
H542 H 0.47108 0.86053 0.46341 0.0
H543 H 0.53548 0.83003 0.49809 0.0
H544 H 0.52185 0.76975 0.43518 0.0
H545 H 0.51529 0.79372 0.47157 0.0
H546 H 0.50184 0.8592 0.435 0.0
H547 H 0.50794 0.83552 0.39903 0.0
C548 C 0.48216 0.876 0.49802 0.0
C549 C 0.49927 0.87596 0.51766 0.0
C550 C 0.48438 0.85981 0.4784 0.0
C551 C 0.50381 0.84327 0.47792 0.0
C552 C 0.52025 0.84246 0.49794 0.0
C553 C 0.51798 0.85867 0.51764 0.0
C554 C 0.51747 0.78926 0.43498 0.0
C555 C 0.51535 0.80066 0.41416 0.0
C556 C 0.51379 0.80298 0.4558 0.0
C557 C 0.50778 0.82828 0.45612 0.0
C558 C 0.50589 0.83961 0.43532 0.0
C559 C 0.5096 0.82601 0.41466 0.0
H560 H 0.17658 0.25239 0.72375 0.0
H561 H 0.21702 0.27954 0.78937 0.0
H562 H 0.13769 0.2451 0.74261 0.0
H563 H 0.17801 0.27207 0.80831 0.0
H564 H 0.10444 0.23691 0.83532 0.0
H565 H 0.14423 0.23662 0.81658 0.0
H566 H 0.11082 0.27658 0.76204 0.0
H567 H 0.0716 0.27715 0.78066 0.0
C568 C 0.17725 0.25651 0.74224 0.0
C569 C 0.1998 0.26668 0.75512 0.0
C570 C 0.15497 0.25236 0.75303 0.0
C571 C 0.15483 0.25805 0.77692 0.0
C572 C 0.17762 0.26729 0.78991 0.0
C573 C 0.19986 0.27172 0.77907 0.0
C574 C 0.1056 0.24535 0.81921 0.0
C575 C 0.08496 0.25715 0.80952 0.0
C576 C 0.12835 0.2453 0.80857 0.0
C577 C 0.13056 0.25653 0.78783 0.0
C578 C 0.10961 0.26756 0.77787 0.0
C579 C 0.08719 0.26802 0.78864 0.0
H580 H 0.52846 0.59842 0.50469 0.0
H581 H 0.55635 0.55622 0.44722 0.0
H582 H 0.52188 0.63344 0.48115 0.0
H583 H 0.54928 0.59099 0.42344 0.0
H584 H 0.55764 0.66837 0.39475 0.0
H585 H 0.56499 0.63364 0.41847 0.0
H586 H 0.49491 0.64471 0.44907 0.0
H587 H 0.48786 0.6797 0.42578 0.0
C588 C 0.53309 0.59657 0.48699 0.0
C589 C 0.5429 0.57454 0.47777 0.0
C590 C 0.52918 0.61661 0.47343 0.0
C591 C 0.53499 0.61509 0.45032 0.0
C592 C 0.54489 0.59301 0.44121 0.0
C593 C 0.5488 0.57301 0.45478 0.0
C594 C 0.54378 0.66337 0.40651 0.0
C595 C 0.52217 0.67688 0.40834 0.0
C596 C 0.54793 0.64335 0.42006 0.0
C597 C 0.53058 0.63634 0.43578 0.0
C598 C 0.5089 0.6498 0.43746 0.0
C599 C 0.50476 0.66978 0.42394 0.0
H600 H 0.89087 0.85661 0.76553 0.0
H601 H 0.92785 0.79 0.78162 0.0
H602 H 0.91085 0.85676 0.72956 0.0
H603 H 0.94741 0.78972 0.74531 0.0
H604 H 0.99348 0.80624 0.68581 0.0
H605 H 0.978 0.81145 0.72387 0.0
H606 H 0.90626 0.83159 0.6931 0.0
H607 H 0.92186 0.827 0.65524 0.0
C608 C 0.90333 0.84202 0.76141 0.0
C609 C 0.90769 0.82313 0.77627 0.0
C610 C 0.9147 0.84204 0.74073 0.0
C611 C 0.93058 0.82315 0.73444 0.0
C612 C 0.93551 0.80472 0.74971 0.0
C613 C 0.92421 0.80476 0.77043 0.0
C614 C 0.97449 0.81203 0.6872 0.0
C615 C 0.95888 0.81611 0.66745 0.0
C616 C 0.96558 0.81487 0.70901 0.0
C617 C 0.94086 0.82184 0.71155 0.0
C618 C 0.92552 0.82653 0.69183 0.0
C619 C 0.93443 0.82374 0.67007 0.0
H620 H 0.11652 0.90269 0.49627 0.0
H621 H 0.05071 0.94524 0.48921 0.0
H622 H 0.09607 0.87758 0.52373 0.0
H623 H 0.03081 0.92131 0.51731 0.0
H624 H 0.9888 0.8546 0.54369 0.0
H625 H 0.01115 0.88102 0.51904 0.0
H626 H 0.08143 0.876 0.56092 0.0
H627 H 0.05899 0.84835 0.58517 0.0
C628 C 0.09781 0.90683 0.50085 0.0
C629 C 0.085 0.92553 0.49035 0.0
C630 C 0.08614 0.89261 0.51668 0.0
C631 C 0.06158 0.89714 0.52257 0.0
C632 C 0.04938 0.91672 0.51274 0.0
C633 C 0.06084 0.93057 0.49668 0.0
C634 C 0.009 0.85921 0.54779 0.0
C635 C 0.02209 0.8494 0.56646 0.0
C636 C 0.02186 0.87456 0.53368 0.0
C637 C 0.04814 0.88092 0.53803 0.0
C638 C 0.06125 0.87129 0.55687 0.0
C639 C 0.04837 0.85559 0.57088 0.0
H640 H 0.20138 0.72255 0.68193 0.0
H641 H 0.1598 0.74164 0.74042 0.0
H642 H 0.16534 0.73187 0.65597 0.0
H643 H 0.12376 0.7504 0.71466 0.0
H644 H 0.07544 0.7909 0.66437 0.0
H645 H 0.11219 0.78155 0.68894 0.0
H646 H 0.12181 0.71648 0.64219 0.0
H647 H 0.08525 0.72617 0.61724 0.0
C648 C 0.18448 0.72861 0.68919 0.0
C649 C 0.18347 0.73151 0.71315 0.0
C650 C 0.16381 0.73382 0.67436 0.0
C651 C 0.1417 0.74203 0.68324 0.0
C652 C 0.14065 0.74457 0.70725 0.0
C653 C 0.16129 0.7394 0.72204 0.0
C654 C 0.08541 0.77463 0.65925 0.0
C655 C 0.07733 0.75924 0.63886 0.0
C656 C 0.10641 0.76917 0.67344 0.0
C657 C 0.11985 0.74815 0.66765 0.0
C658 C 0.11202 0.73295 0.64706 0.0
C659 C 0.09099 0.73844 0.63282 0.0
H660 H 0.93879 0.62993 0.47715 0.0
H661 H 0.95012 0.59074 0.53834 0.0
H662 H 0.94642 0.6704 0.50048 0.0
H663 H 0.95756 0.63138 0.56181 0.0
H664 H 0.93298 0.73598 0.55175 0.0
H665 H 0.92452 0.69452 0.53055 0.0
H666 H 0.9908 0.66912 0.56676 0.0
H667 H 0.9994 0.71079 0.58818 0.0
C668 C 0.94292 0.63002 0.49561 0.0
C669 C 0.94387 0.60725 0.50596 0.0
C670 C 0.9471 0.65314 0.50897 0.0
C671 C 0.95253 0.654 0.53295 0.0
C672 C 0.95355 0.63124 0.54334 0.0
C673 C 0.94909 0.60804 0.52997 0.0
C674 C 0.94573 0.72158 0.55534 0.0
C675 C 0.96696 0.72676 0.57161 0.0
C676 C 0.94092 0.69786 0.5431 0.0
C677 C 0.95708 0.67868 0.54692 0.0
C678 C 0.97795 0.68356 0.56358 0.0
C679 C 0.98293 0.70743 0.57574 0.0
H680 H 0.82391 0.82595 0.19743 0.0
H681 H 0.75187 0.85683 0.20534 0.0
H682 H 0.84561 0.8682 0.20609 0.0
H683 H 0.77352 0.89895 0.21401 0.0
H684 H 0.82354 0.96018 0.26047 0.0
H685 H 0.80117 0.91975 0.24648 0.0
H686 H 0.85172 0.91118 0.19277 0.0
H687 H 0.87459 0.95194 0.20706 0.0
C688 C 0.81267 0.84179 0.2007 0.0
C689 C 0.78618 0.83796 0.20097 0.0
C690 C 0.82511 0.86601 0.20561 0.0
C691 C 0.81132 0.88692 0.21091 0.0
C692 C 0.78475 0.88318 0.21041 0.0
C693 C 0.77235 0.85902 0.20551 0.0
C694 C 0.82988 0.94984 0.24557 0.0
C695 C 0.85096 0.95931 0.23494 0.0
C696 C 0.81689 0.92667 0.23744 0.0
C697 C 0.8246 0.91223 0.21847 0.0
C698 C 0.84544 0.92179 0.20754 0.0
C699 C 0.85843 0.94519 0.21562 0.0
H700 H 0.82189 0.21748 0.29659 0.0
H701 H 0.76384 0.17469 0.24971 0.0
H702 H 0.85119 0.18536 0.28858 0.0
H703 H 0.79321 0.14274 0.2416 0.0
H704 H 0.85608 0.09341 0.22306 0.0
H705 H 0.83361 0.13222 0.22511 0.0
H706 H 0.85231 0.14196 0.29879 0.0
H707 H 0.87441 0.10373 0.29666 0.0
C708 C 0.81538 0.20127 0.28455 0.0
C709 C 0.79039 0.19859 0.274 0.0
C710 C 0.83223 0.18293 0.27984 0.0
C711 C 0.82454 0.16144 0.26446 0.0
C712 C 0.79989 0.15923 0.25325 0.0
C713 C 0.78301 0.17754 0.25799 0.0
C714 C 0.85588 0.10432 0.23951 0.0
C715 C 0.86686 0.09558 0.2597 0.0
C716 C 0.84286 0.12635 0.24076 0.0
C717 C 0.84107 0.14013 0.26215 0.0
C718 C 0.85349 0.13205 0.28202 0.0
C719 C 0.86607 0.11003 0.28081 0.0
H720 H 0.40017 0.03285 0.02923 0.0
H721 H 0.39849 0.01579 0.95559 0.0
H722 H 0.36601 0.99964 0.03048 0.0
H723 H 0.36476 0.98239 0.95698 0.0
H724 H 0.34158 0.90245 0.97804 0.0
H725 H 0.36803 0.94099 0.97483 0.0
H726 H 0.31947 0.9836 0.0161 0.0
H727 H 0.29255 0.94468 0.01924 0.0
C728 C 0.39212 0.02244 0.01326 0.0
C729 C 0.40234 0.02666 0.99236 0.0
C730 C 0.37258 0.00342 0.01399 0.0
C731 C 0.36302 0.98824 0.99387 0.0
C732 C 0.3721 0.99355 0.9728 0.0
C733 C 0.39146 0.0126 0.97204 0.0
C734 C 0.33638 0.92001 0.98635 0.0
C735 C 0.31501 0.9205 0.99896 0.0
C736 C 0.35145 0.94214 0.98434 0.0
C737 C 0.34572 0.9653 0.9951 0.0
C738 C 0.32429 0.96595 0.00765 0.0
C739 C 0.30889 0.94374 0.00937 0.0
H740 H 0.29654 0.36744 0.2942 0.0
H741 H 0.28587 0.37335 0.3669 0.0
H742 H 0.25863 0.38939 0.2866 0.0
H743 H 0.24698 0.39417 0.35883 0.0
H744 H 0.16314 0.39745 0.32373 0.0
H745 H 0.20301 0.37935 0.33435 0.0
H746 H 0.24344 0.43445 0.29805 0.0
H747 H 0.20366 0.45293 0.28772 0.0
C748 C 0.2864 0.37368 0.30865 0.0
C749 C 0.29454 0.36871 0.33125 0.0
C750 C 0.26455 0.38613 0.30421 0.0
C751 C 0.24999 0.39348 0.32213 0.0
C752 C 0.25788 0.38853 0.3447 0.0
C753 C 0.28006 0.37647 0.34925 0.0
C754 C 0.18055 0.40579 0.31812 0.0
C755 C 0.18027 0.42655 0.30481 0.0
C756 C 0.20334 0.39554 0.32434 0.0
C757 C 0.2262 0.40554 0.31701 0.0
C758 C 0.226 0.42638 0.30384 0.0
C759 C 0.20328 0.43696 0.29799 0.0
H760 H 0.12728 0.05123 0.43061 0.0
H761 H 0.16565 0.98309 0.43615 0.0
H762 H 0.16805 0.0765 0.43772 0.0
H763 H 0.20644 0.00838 0.4434 0.0
H764 H 0.24315 0.11171 0.4784 0.0
H765 H 0.20231 0.08668 0.47094 0.0
H766 H 0.23409 0.03659 0.4212 0.0
H767 H 0.27489 0.06155 0.42853 0.0
C768 C 0.14446 0.04168 0.43322 0.0
C769 C 0.14336 0.01521 0.43275 0.0
C770 C 0.16773 0.05613 0.43749 0.0
C771 C 0.19037 0.04438 0.44111 0.0
C772 C 0.18928 0.0179 0.44049 0.0
C773 C 0.16598 0.00347 0.43649 0.0
C774 C 0.24143 0.09538 0.46586 0.0
C775 C 0.26228 0.08863 0.45406 0.0
C776 C 0.21802 0.08114 0.46152 0.0
C777 C 0.21508 0.0597 0.44552 0.0
C778 C 0.2359 0.0529 0.43377 0.0
C779 C 0.25921 0.06729 0.4379 0.0
H780 H 0.7027 0.17347 0.7498 0.0
H781 H 0.76666 0.12804 0.75539 0.0
H782 H 0.675 0.13821 0.75967 0.0
H783 H 0.73935 0.09343 0.76662 0.0
H784 H 0.67985 0.02721 0.76149 0.0
H785 H 0.70664 0.06258 0.75098 0.0
H786 H 0.66499 0.11433 0.79102 0.0
H787 H 0.6375 0.07881 0.80091 0.0
C788 C 0.71087 0.15597 0.75311 0.0
C789 C 0.73694 0.15363 0.75175 0.0
C790 C 0.69504 0.13586 0.75911 0.0
C791 C 0.7049 0.11293 0.76399 0.0
C792 C 0.73099 0.11065 0.76269 0.0
C793 C 0.74676 0.13067 0.75654 0.0
C794 C 0.6764 0.04612 0.76811 0.0
C795 C 0.65654 0.05017 0.78209 0.0
C796 C 0.69189 0.06644 0.76217 0.0
C797 C 0.68811 0.09137 0.77022 0.0
C798 C 0.66825 0.09543 0.78425 0.0
C799 C 0.65259 0.07505 0.79006 0.0
H800 H 0.44407 0.01346 0.5857 0.0
H801 H 0.46639 0.99494 0.51735 0.0
H802 H 0.42303 0.04916 0.57204 0.0
H803 H 0.44361 0.02888 0.50335 0.0
H804 H 0.41589 0.09976 0.48271 0.0
H805 H 0.44306 0.07176 0.502 0.0
H806 H 0.38698 0.0595 0.55033 0.0
H807 H 0.36074 0.089 0.53182 0.0
C808 C 0.44454 0.01695 0.56778 0.0
C809 C 0.45685 0.00106 0.55264 0.0
C810 C 0.43214 0.03729 0.55985 0.0
C811 C 0.4315 0.04211 0.53653 0.0
C812 C 0.444 0.02628 0.52152 0.0
C813 C 0.45669 0.0063 0.52949 0.0
C814 C 0.4097 0.09147 0.49778 0.0
C815 C 0.38619 0.09638 0.5057 0.0
C816 C 0.42511 0.07515 0.50872 0.0
C817 C 0.41702 0.06269 0.52743 0.0
C818 C 0.39403 0.06876 0.5361 0.0
C819 C 0.37889 0.08565 0.52547 0.0
H820 H 0.57373 0.47156 0.50094 0.0
H821 H 0.60363 0.48222 0.57234 0.0
H822 H 0.60521 0.44165 0.49302 0.0
H823 H 0.63479 0.4518 0.56453 0.0
H824 H 0.70497 0.41932 0.53568 0.0
H825 H 0.67299 0.44851 0.54394 0.0
H826 H 0.61646 0.39926 0.50091 0.0
H827 H 0.64852 0.3701 0.49244 0.0
C828 C 0.58703 0.46751 0.51496 0.0
C829 C 0.58619 0.4794 0.53727 0.0
C830 C 0.60493 0.45015 0.51047 0.0
C831 C 0.62259 0.44429 0.52812 0.0
C832 C 0.62165 0.45605 0.55047 0.0
C833 C 0.60362 0.4733 0.555 0.0
C834 C 0.68573 0.41467 0.52794 0.0
C835 C 0.67938 0.39231 0.51334 0.0
C836 C 0.66733 0.43137 0.53282 0.0
C837 C 0.64209 0.42626 0.52314 0.0
C838 C 0.63575 0.40393 0.50849 0.0
C839 C 0.65413 0.38714 0.50371 0.0
H840 H 0.71176 0.25511 0.33203 0.0
H841 H 0.79371 0.25939 0.34091 0.0
H842 H 0.71104 0.27281 0.37188 0.0
H843 H 0.79286 0.27653 0.38069 0.0
H844 H 0.78304 0.27944 0.4561 0.0
H845 H 0.77926 0.26095 0.41655 0.0
H846 H 0.72393 0.31288 0.39818 0.0
H847 H 0.72762 0.33161 0.4383 0.0
C848 C 0.72964 0.25997 0.34237 0.0
C849 C 0.75282 0.25565 0.33318 0.0
C850 C 0.72917 0.27008 0.36523 0.0
C851 C 0.75185 0.27589 0.37951 0.0
C852 C 0.775 0.27181 0.37028 0.0
C853 C 0.77548 0.26189 0.34745 0.0
C854 C 0.76984 0.28688 0.44377 0.0
C855 C 0.75585 0.30727 0.45038 0.0
C856 C 0.76781 0.27631 0.42101 0.0
C857 C 0.75171 0.28576 0.4041 0.0
C858 C 0.73656 0.30521 0.41083 0.0
C859 C 0.73863 0.31591 0.43379 0.0
H860 H 0.52759 0.04908 0.94095 0.0
H861 H 0.49044 0.9736 0.93286 0.0
H862 H 0.55403 0.03763 0.91004 0.0
H863 H 0.51566 0.96243 0.90137 0.0
H864 H 0.5779 0.93975 0.86032 0.0
H865 H 0.55634 0.95345 0.89353 0.0
H866 H 0.55396 0.02795 0.86971 0.0
H867 H 0.577 0.01438 0.83696 0.0
C868 C 0.525 0.03009 0.93246 0.0
C869 C 0.5071 0.01212 0.93931 0.0
C870 C 0.54003 0.02355 0.91465 0.0
C871 C 0.5372 0.99902 0.90323 0.0
C872 C 0.51896 0.98128 0.91008 0.0
C873 C 0.50431 0.98771 0.92803 0.0
C874 C 0.57293 0.95912 0.86227 0.0
C875 C 0.57887 0.97593 0.84595 0.0
C876 C 0.56037 0.96696 0.88125 0.0
C877 C 0.55286 0.9917 0.88415 0.0
C878 C 0.55956 0.00881 0.86816 0.0
C879 C 0.57265 0.00104 0.84933 0.0
H880 H 0.38052 0.30863 0.38131 0.0
H881 H 0.29952 0.29135 0.36634 0.0
H882 H 0.38179 0.27431 0.40637 0.0
H883 H 0.30084 0.25804 0.39238 0.0
H884 H 0.31268 0.21432 0.45721 0.0
H885 H 0.31321 0.25261 0.43671 0.0
H886 H 0.37161 0.22497 0.39659 0.0
H887 H 0.37076 0.18656 0.41662 0.0
C888 C 0.36297 0.29766 0.38337 0.0
C889 C 0.33994 0.30276 0.37156 0.0
C890 C 0.36373 0.27815 0.39788 0.0
C891 C 0.34142 0.26364 0.4013 0.0
C892 C 0.31827 0.2692 0.39024 0.0
C893 C 0.31755 0.28839 0.37538 0.0
C894 C 0.32586 0.2166 0.44423 0.0
C895 C 0.34162 0.19744 0.43844 0.0
C896 C 0.32605 0.2384 0.43246 0.0
C897 C 0.34244 0.24165 0.4151 0.0
C898 C 0.35893 0.22298 0.41001 0.0
C899 C 0.35835 0.20098 0.4214 0.0
H900 H 0.54848 0.45498 0.88127 0.0
H901 H 0.56646 0.53581 0.88676 0.0
H902 H 0.51667 0.45848 0.84937 0.0
H903 H 0.53477 0.53919 0.85453 0.0
H904 H 0.48309 0.53149 0.78555 0.0
H905 H 0.52098 0.52591 0.81132 0.0
H906 H 0.47522 0.47819 0.85056 0.0
H907 H 0.43782 0.48379 0.82528 0.0
C908 C 0.54576 0.47348 0.87557 0.0
C909 C 0.55969 0.49516 0.88683 0.0
C910 C 0.52765 0.47545 0.85723 0.0
C911 C 0.52311 0.49913 0.84962 0.0
C912 C 0.53803 0.52068 0.85993 0.0
C913 C 0.55613 0.51872 0.8784 0.0
C914 C 0.48131 0.5196 0.79954 0.0
C915 C 0.4575 0.50818 0.80348 0.0
C916 C 0.5029 0.51652 0.81431 0.0
C917 C 0.50103 0.50154 0.83287 0.0
C918 C 0.47734 0.48958 0.83625 0.0
C919 C 0.45586 0.49296 0.82184 0.0
H920 H 0.73529 0.74185 0.14265 0.0
H921 H 0.8145 0.75838 0.16654 0.0
H922 H 0.74695 0.71382 0.11057 0.0
H923 H 0.82616 0.73049 0.13447 0.0
H924 H 0.83442 0.65814 0.08793 0.0
H925 H 0.82144 0.68403 0.12062 0.0
H926 H 0.76989 0.71931 0.07467 0.0
H927 H 0.78289 0.69346 0.04188 0.0
C928 C 0.75516 0.73929 0.14114 0.0
C929 C 0.774 0.75228 0.15706 0.0
C930 C 0.76183 0.72345 0.1227 0.0
C931 C 0.78746 0.72002 0.12001 0.0
C932 C 0.80625 0.73263 0.1362 0.0
C933 C 0.7996 0.74871 0.15445 0.0
C934 C 0.82025 0.67135 0.08477 0.0
C935 C 0.80974 0.67378 0.06228 0.0
C936 C 0.81292 0.68625 0.1035 0.0
C937 C 0.79468 0.7037 0.10019 0.0
C938 C 0.78384 0.70586 0.07776 0.0
C939 C 0.7914 0.69117 0.05898 0.0
H940 H 0.02251 0.07107 0.08891 0.0
H941 H 0.01301 0.98958 0.08514 0.0
H942 H 0.99682 0.07366 0.12144 0.0
H943 H 0.9874 0.99221 0.11793 0.0
H944 H 0.96208 0.00802 0.19106 0.0
H945 H 0.98927 0.00495 0.15944 0.0
H946 H 0.95264 0.06533 0.12896 0.0
H947 H 0.92572 0.06861 0.16063 0.0
C948 C 0.01484 0.05367 0.09492 0.0
C949 C 0.0197 0.0301 0.08417 0.0
C950 C 1.00008 0.05517 0.11363 0.0
C951 C 0.98981 0.03316 0.12224 0.0
C952 C 0.99517 0.00956 0.1119 0.0
C953 C 0.0099 0.00805 0.09309 0.0
C954 C 0.95984 0.02068 0.17763 0.0
C955 C 0.94169 0.03861 0.17846 0.0
C956 C 0.97535 0.0188 0.15942 0.0
C957 C 0.97323 0.03492 0.14163 0.0
C958 C 0.95508 0.05284 0.1425 0.0
C959 C 0.9395 0.05462 0.16063 0.0
H960 H 0.32257 0.74224 0.14591 0.0
H961 H 0.24948 0.75455 0.17006 0.0
H962 H 0.31505 0.77078 0.11634 0.0
H963 H 0.24205 0.78398 0.14055 0.0
H964 H 0.23143 0.81129 0.06506 0.0
H965 H 0.23468 0.78623 0.09842 0.0
H966 H 0.31319 0.815 0.11363 0.0
H967 H 0.31013 0.83889 0.08011 0.0
C968 C 0.3049 0.75121 0.14492 0.0
C969 C 0.28669 0.74624 0.1603 0.0
C970 C 0.30064 0.76778 0.12809 0.0
C971 C 0.2781 0.78007 0.12627 0.0
C972 C 0.25959 0.77482 0.14146 0.0
C973 C 0.26387 0.75804 0.15839 0.0
C974 C 0.24915 0.81258 0.07591 0.0
C975 C 0.27063 0.82671 0.0699 0.0
C976 C 0.25105 0.79825 0.09498 0.0
C977 C 0.2744 0.79809 0.10836 0.0
C978 C 0.29515 0.81399 0.1033 0.0
C979 C 0.29336 0.82788 0.0842 0.0
H980 H 0.00753 0.41632 0.10758 0.0
H981 H 0.0266 0.49704 0.11365 0.0
H982 H 0.03191 0.41343 0.14422 0.0
H983 H 0.04946 0.4944 0.15101 0.0
H984 H 0.10801 0.48016 0.20769 0.0
H985 H 0.0868 0.48068 0.16921 0.0
H986 H 0.03022 0.42316 0.18418 0.0
H987 H 0.05204 0.42193 0.22228 0.0
C988 C 0.01693 0.43347 0.1167 0.0
C989 C 0.01508 0.45692 0.1076 0.0
C990 C 0.03065 0.43185 0.13791 0.0
C991 C 0.04266 0.45368 0.15067 0.0
C992 C 0.04079 0.47713 0.14155 0.0
C993 C 0.02729 0.47871 0.12025 0.0
C994 C 0.09116 0.46747 0.20268 0.0
C995 C 0.08168 0.45105 0.21806 0.0
C996 C 0.07887 0.4679 0.18066 0.0
C997 C 0.05663 0.45213 0.17359 0.0
C998 C 0.04747 0.43534 0.18887 0.0
C999 C 0.05993 0.43471 0.21079 0.0
H1000 H 0.35643 0.69877 0.22249 0.0
H1001 H 0.32543 0.69574 0.28822 0.0
H1002 H 0.39914 0.70557 0.24203 0.0
H1003 H 0.36823 0.70245 0.30775 0.0
H1004 H 0.45134 0.69912 0.33505 0.0
H1005 H 0.4102 0.6846 0.31389 0.0
H1006 H 0.42197 0.74108 0.26625 0.0
H1007 H 0.46273 0.75528 0.28702 0.0
C1008 C 0.35872 0.69957 0.24111 0.0
C1009 C 0.33747 0.69702 0.2538 0.0
C1010 C 0.38321 0.70337 0.2523 0.0
C1011 C 0.38707 0.70469 0.27645 0.0
C1012 C 0.36592 0.70122 0.28911 0.0
C1013 C 0.34139 0.69745 0.27791 0.0
C1014 C 0.44524 0.70813 0.31986 0.0
C1015 C 0.46024 0.72842 0.31279 0.0
C1016 C 0.42164 0.69995 0.30785 0.0
C1017 C 0.41282 0.71172 0.2884 0.0
C1018 C 0.42829 0.73139 0.28096 0.0
C1019 C 0.45163 0.73966 0.29301 0.0
H1020 H 0.00941 0.41405 0.98742 0.0
H1021 H 0.99363 0.34683 0.02171 0.0
H1022 H 0.01705 0.38825 0.95286 0.0
H1023 H 0.99993 0.32066 0.9866 0.0
H1024 H 0.03259 0.28056 0.92488 0.0
H1025 H 0.02896 0.30612 0.96099 0.0
H1026 H 0.99454 0.36262 0.92272 0.0
H1027 H 0.99934 0.33786 0.88698 0.0
C1028 C 0.00732 0.39368 0.98746 0.0
C1029 C 0.00065 0.38237 0.00712 0.0
C1030 C 0.01157 0.37882 0.96757 0.0
C1031 C 0.00878 0.35227 0.96671 0.0
C1032 C 0.00252 0.341 0.98663 0.0
C1033 C 0.99871 0.35595 0.00669 0.0
C1034 C 0.02442 0.29854 0.92428 0.0
C1035 C 0.01647 0.30728 0.90307 0.0
C1036 C 0.02217 0.31313 0.94497 0.0
C1037 C 0.01159 0.3366 0.94487 0.0
C1038 C 0.0034 0.34504 0.92358 0.0
C1039 C 0.006 0.3307 0.903 0.0
H1040 H 0.67154 0.82008 0.24887 0.0
H1041 H 0.69788 0.74553 0.25025 0.0
H1042 H 0.64177 0.81026 0.27676 0.0
H1043 H 0.66828 0.7357 0.27895 0.0
H1044 H 0.58765 0.72316 0.30841 0.0
H1045 H 0.62276 0.72843 0.28398 0.0
H1046 H 0.64164 0.80415 0.31651 0.0
H1047 H 0.60614 0.79916 0.33989 0.0
C1048 C 0.67102 0.80158 0.2553 0.0
C1049 C 0.68702 0.78363 0.24743 0.0
C1050 C 0.65412 0.79599 0.27149 0.0
C1051 C 0.65288 0.7723 0.28047 0.0
C1052 C 0.66873 0.75411 0.27239 0.0
C1053 C 0.68571 0.75974 0.25601 0.0
C1054 C 0.59982 0.74062 0.31067 0.0
C1055 C 0.59415 0.76085 0.32583 0.0
C1056 C 0.61987 0.74369 0.29667 0.0
C1057 C 0.63463 0.76697 0.29784 0.0
C1058 C 0.63019 0.78627 0.31459 0.0
C1059 C 0.61003 0.78334 0.32819 0.0
H1060 H 0.05568 0.06417 0.94315 0.0
H1061 H 0.02614 0.10723 0.99921 0.0
H1062 H 0.04751 0.09771 0.91819 0.0
H1063 H 0.01851 0.14102 0.97454 0.0
H1064 H 0.98334 0.18458 0.91789 0.0
H1065 H 0.99129 0.15052 0.94206 0.0
H1066 H 0.06177 0.14032 0.91187 0.0
H1067 H 0.05349 0.17407 0.88725 0.0
C1068 C 0.04754 0.08088 0.95014 0.0
C1069 C 0.04148 0.083 0.97308 0.0
C1070 C 0.04299 0.10019 0.9359 0.0
C1071 C 0.0323 0.12214 0.94428 0.0
C1072 C 0.02638 0.12426 0.96734 0.0
C1073 C 0.0309 0.10492 0.98157 0.0
C1074 C 0.00051 0.17504 0.91633 0.0
C1075 C 0.01777 0.1821 0.90059 0.0
C1076 C 0.00517 0.15559 0.93034 0.0
C1077 C 0.02724 0.14267 0.92906 0.0
C1078 C 0.04442 0.14961 0.91317 0.0
C1079 C 0.03974 0.16907 0.8991 0.0
H1080 H 0.39296 0.3642 0.27185 0.0
H1081 H 0.43182 0.29937 0.29004 0.0
H1082 H 0.4119 0.36288 0.23535 0.0
H1083 H 0.45041 0.29765 0.25318 0.0
H1084 H 0.49485 0.31311 0.19204 0.0
H1085 H 0.47998 0.3191 0.23029 0.0
H1086 H 0.40683 0.33581 0.19977 0.0
H1087 H 0.4218 0.33039 0.16167 0.0
C1088 C 0.40563 0.34969 0.26809 0.0
C1089 C 0.4108 0.33173 0.28372 0.0
C1090 C 0.41638 0.34886 0.2471 0.0
C1091 C 0.43249 0.33003 0.24123 0.0
C1092 C 0.43828 0.31256 0.25723 0.0
C1093 C 0.42756 0.31345 0.27828 0.0
C1094 C 0.47566 0.31828 0.19351 0.0
C1095 C 0.4595 0.32121 0.17376 0.0
C1096 C 0.4671 0.32156 0.21543 0.0
C1097 C 0.4422 0.32788 0.21811 0.0
C1098 C 0.42624 0.3313 0.19838 0.0
C1099 C 0.43478 0.32803 0.17649 0.0
H1100 H 0.54265 0.45036 0.99135 0.0
H1101 H 0.61224 0.41473 0.00396 0.0
H1102 H 0.52295 0.42557 0.0191 0.0
H1103 H 0.59223 0.38887 0.031 0.0
H1104 H 0.48586 0.35684 0.04757 0.0
H1105 H 0.50661 0.38427 0.0226 0.0
H1106 H 0.5762 0.38785 0.06734 0.0
H1107 H 0.55557 0.35929 0.09184 0.0
C1108 C 0.55368 0.43704 0.99997 0.0
C1109 C 0.5789 0.43425 0.99539 0.0
C1110 C 0.54234 0.4227 0.01581 0.0
C1111 C 0.55585 0.40494 0.0272 0.0
C1112 C 0.58129 0.40253 0.02283 0.0
C1113 C 0.59273 0.41719 0.00722 0.0
C1114 C 0.50556 0.36357 0.05218 0.0
C1115 C 0.51905 0.35585 0.07171 0.0
C1116 C 0.51747 0.37949 0.0379 0.0
C1117 C 0.54314 0.38845 0.04291 0.0
C1118 C 0.55654 0.38104 0.0627 0.0
C1119 C 0.54467 0.36481 0.07686 0.0
H1120 H 0.6904 0.21241 0.18882 0.0
H1121 H 0.68624 0.27926 0.23502 0.0
H1122 H 0.65528 0.22485 0.16365 0.0
H1123 H 0.65157 0.29202 0.20969 0.0
H1124 H 0.57053 0.28892 0.17505 0.0
H1125 H 0.60746 0.27852 0.19874 0.0
H1126 H 0.64312 0.25574 0.13748 0.0
H1127 H 0.60578 0.26564 0.11365 0.0
C1128 C 0.6821 0.22988 0.19345 0.0
C1129 C 0.69089 0.24474 0.21392 0.0
C1130 C 0.6621 0.2371 0.17899 0.0
C1131 C 0.65053 0.25939 0.1847 0.0
C1132 C 0.65978 0.27454 0.20497 0.0
C1133 C 0.67974 0.26728 0.21944 0.0
C1134 C 0.58626 0.28177 0.16658 0.0
C1135 C 0.58515 0.27805 0.14243 0.0
C1136 C 0.60754 0.27597 0.1802 0.0
C1137 C 0.6283 0.26634 0.17003 0.0
C1138 C 0.62733 0.26285 0.14586 0.0
C1139 C 0.60598 0.26865 0.13221 0.0
H1140 H 0.42108 0.12123 0.00352 0.0
H1141 H 0.49024 0.10007 0.03809 0.0
H1142 H 0.42742 0.16284 0.02484 0.0
H1143 H 0.49608 0.14113 0.06054 0.0
H1144 H 0.51349 0.22592 0.07892 0.0
H1145 H 0.50736 0.18382 0.05854 0.0
H1146 H 0.42612 0.18525 0.06032 0.0
H1147 H 0.43235 0.22785 0.07941 0.0
C1148 C 0.43745 0.12546 0.01599 0.0
C1149 C 0.4552 0.10759 0.01919 0.0
C1150 C 0.44106 0.14924 0.02837 0.0
C1151 C 0.46227 0.1555 0.04457 0.0
C1152 C 0.4798 0.1373 0.04794 0.0
C1153 C 0.47642 0.11369 0.03522 0.0
C1154 C 0.49435 0.21713 0.07499 0.0
C1155 C 0.4734 0.23022 0.0806 0.0
C1156 C 0.49079 0.1929 0.06341 0.0
C1157 C 0.46619 0.181 0.05759 0.0
C1158 C 0.44531 0.19393 0.06392 0.0
C1159 C 0.44886 0.21833 0.07506 0.0
H1160 H 0.25152 0.35124 0.70826 0.0
H1161 H 0.32441 0.32394 0.69687 0.0
H1162 H 0.27154 0.39406 0.71681 0.0
H1163 H 0.34456 0.36679 0.70564 0.0
H1164 H 0.37092 0.45046 0.7069 0.0
H1165 H 0.34874 0.40934 0.69293 0.0
H1166 H 0.29909 0.41677 0.74751 0.0
H1167 H 0.32065 0.45768 0.76102 0.0
C1168 C 0.27186 0.35437 0.70772 0.0
C1169 C 0.2864 0.33414 0.7021 0.0
C1170 C 0.28335 0.37893 0.71257 0.0
C1171 C 0.3097 0.38389 0.71202 0.0
C1172 C 0.32418 0.36373 0.70591 0.0
C1173 C 0.31265 0.33914 0.70098 0.0
C1174 C 0.35503 0.44344 0.71567 0.0
C1175 C 0.34765 0.45736 0.73512 0.0
C1176 C 0.34245 0.41979 0.70779 0.0
C1177 C 0.32217 0.40969 0.71914 0.0
C1178 C 0.31438 0.42404 0.73814 0.0
C1179 C 0.32691 0.44752 0.746 0.0
H1180 H 0.25784 0.66365 0.75535 0.0
H1181 H 0.31454 0.71229 0.79899 0.0
H1182 H 0.28906 0.63346 0.74836 0.0
H1183 H 0.34556 0.68137 0.79255 0.0
H1184 H 0.37298 0.60006 0.80219 0.0
H1185 H 0.34893 0.6372 0.80429 0.0
H1186 H 0.33063 0.62704 0.73063 0.0
H1187 H 0.35514 0.5897 0.72851 0.0
C1188 C 0.27705 0.66821 0.76316 0.0
C1189 C 0.28354 0.69058 0.77778 0.0
C1190 C 0.29498 0.65081 0.75911 0.0
C1191 C 0.31981 0.65506 0.7698 0.0
C1192 C 0.32652 0.67752 0.78414 0.0
C1193 C 0.30865 0.69514 0.78798 0.0
C1194 C 0.36433 0.60609 0.78635 0.0
C1195 C 0.36584 0.59194 0.76519 0.0
C1196 C 0.35063 0.62745 0.78756 0.0
C1197 C 0.33773 0.63497 0.76767 0.0
C1198 C 0.34025 0.62156 0.74628 0.0
C1199 C 0.35442 0.60035 0.74501 0.0
H1200 H 0.92696 0.48991 0.48105 0.0
H1201 H 0.87274 0.5424 0.50081 0.0
H1202 H 0.89859 0.45501 0.48999 0.0
H1203 H 0.8447 0.50733 0.51099 0.0
H1204 H 0.79027 0.43322 0.49929 0.0
H1205 H 0.81738 0.47092 0.49342 0.0
H1206 H 0.88277 0.43667 0.52209 0.0
H1207 H 0.85598 0.39896 0.52717 0.0
C1208 C 0.90896 0.49402 0.48734 0.0
C1209 C 0.90208 0.51897 0.49006 0.0
C1210 C 0.89281 0.474 0.49281 0.0
C1211 C 0.8694 0.47834 0.50139 0.0
C1212 C 0.86251 0.50331 0.50427 0.0
C1213 C 0.8787 0.52342 0.49869 0.0
C1214 C 0.8104 0.43393 0.50454 0.0
C1215 C 0.82105 0.413 0.51338 0.0
C1216 C 0.82593 0.45554 0.50125 0.0
C1217 C 0.85234 0.45667 0.50694 0.0
C1218 C 0.86264 0.4362 0.51693 0.0
C1219 C 0.84724 0.41461 0.51997 0.0
H1220 H 0.76734 0.82748 0.83643 0.0
H1221 H 0.81095 0.89339 0.81806 0.0
H1222 H 0.72841 0.84754 0.82822 0.0
H1223 H 0.7719 0.91266 0.80814 0.0
H1224 H 0.69794 0.95028 0.81184 0.0
H1225 H 0.73725 0.93166 0.82258 0.0
H1226 H 0.70203 0.85778 0.79664 0.0
H1227 H 0.66244 0.87631 0.7869 0.0
C1228 C 0.76869 0.84633 0.8308 0.0
C1229 C 0.79239 0.85876 0.82791 0.0
C1230 C 0.74626 0.85768 0.82566 0.0
C1231 C 0.74688 0.88164 0.81721 0.0
C1232 C 0.7706 0.89429 0.81477 0.0
C1233 C 0.79305 0.88307 0.82019 0.0
C1234 C 0.69864 0.93007 0.80836 0.0
C1235 C 0.67705 0.91476 0.79858 0.0
C1236 C 0.72124 0.91938 0.81445 0.0
C1237 C 0.72288 0.89315 0.81062 0.0
C1238 C 0.70137 0.87795 0.80037 0.0
C1239 C 0.67869 0.8886 0.79457 0.0
H1240 H 0.63832 0.52969 0.97294 0.0
H1241 H 0.65094 0.51575 0.90114 0.0
H1242 H 0.67952 0.5535 0.98033 0.0
H1243 H 0.69143 0.54101 0.90824 0.0
H1244 H 0.77425 0.56333 0.93338 0.0
H1245 H 0.73303 0.53951 0.92599 0.0
H1246 H 0.70195 0.59216 0.97418 0.0
H1247 H 0.74351 0.61543 0.98223 0.0
C1248 C 0.64987 0.5317 0.9587 0.0
C1249 C 0.64133 0.52062 0.93646 0.0
C1250 C 0.67337 0.54572 0.96289 0.0
C1251 C 0.68887 0.54925 0.94489 0.0
C1252 C 0.68019 0.53841 0.92259 0.0
C1253 C 0.65678 0.52419 0.91844 0.0
C1254 C 0.75862 0.56985 0.94239 0.0
C1255 C 0.76219 0.59126 0.95843 0.0
C1256 C 0.7349 0.55626 0.93804 0.0
C1257 C 0.71408 0.5639 0.94943 0.0
C1258 C 0.71763 0.58547 0.96535 0.0
C1259 C 0.74143 0.59892 0.96988 0.0
H1260 H 0.2331 0.64323 0.20991 0.0
H1261 H 0.25844 0.6649 0.28144 0.0
H1262 H 0.20308 0.61071 0.22131 0.0
H1263 H 0.22917 0.63172 0.2928 0.0
H1264 H 0.15828 0.5835 0.30644 0.0
H1265 H 0.18457 0.61872 0.29445 0.0
H1266 H 0.20521 0.57032 0.23718 0.0
H1267 H 0.1786 0.53534 0.24884 0.0
C1268 C 0.2321 0.64122 0.22808 0.0
C1269 C 0.24823 0.65661 0.24476 0.0
C1270 C 0.21511 0.62237 0.23461 0.0
C1271 C 0.21385 0.61847 0.25797 0.0
C1272 C 0.2295 0.63432 0.27468 0.0
C1273 C 0.24648 0.65316 0.26815 0.0
C1274 C 0.16836 0.5804 0.29125 0.0
C1275 C 0.16636 0.55658 0.27864 0.0
C1276 C 0.18352 0.60057 0.28443 0.0
C1277 C 0.19699 0.59736 0.26484 0.0
C1278 C 0.1948 0.57357 0.25215 0.0
C1279 C 0.17966 0.55344 0.25895 0.0
H1280 H 0.92152 0.48046 0.04933 0.0
H1281 H 0.99022 0.53021 0.06141 0.0
H1282 H 0.89757 0.51607 0.03895 0.0
H1283 H 0.96638 0.56578 0.05034 0.0
H1284 H 0.9154 0.59784 0.98771 0.0
H1285 H 0.9418 0.56955 0.00793 0.0
H1286 H 0.88703 0.56265 0.05796 0.0
H1287 H 0.86087 0.59168 0.0381 0.0
C1288 C 0.93134 0.49912 0.05003 0.0
C1289 C 0.95759 0.50276 0.05611 0.0
C1290 C 0.91769 0.51945 0.04425 0.0
C1291 C 0.93019 0.54359 0.04396 0.0
C1292 C 0.95637 0.54733 0.05055 0.0
C1293 C 0.96993 0.52709 0.05686 0.0
C1294 C 0.90933 0.5908 0.00336 0.0
C1295 C 0.88612 0.59687 0.01134 0.0
C1296 C 0.92445 0.57471 0.01494 0.0
C1297 C 0.91633 0.56394 0.0344 0.0
C1298 C 0.89363 0.57079 0.04297 0.0
C1299 C 0.87879 0.58744 0.0317 0.0
H1300 H 0.11258 0.01684 0.02438 0.0
H1301 H 0.0626 0.95961 0.04929 0.0
H1302 H 0.14315 0.98594 0.01745 0.0
H1303 H 0.09382 0.92885 0.04336 0.0
H1304 H 0.14318 0.87418 0.00578 0.0
H1305 H 0.11216 0.90471 0.01329 0.0
H1306 H 0.17307 0.96189 0.03664 0.0
H1307 H 0.20401 0.93161 0.02858 0.0
C1308 C 0.10808 0.99765 0.0284 0.0
C1309 C 0.08495 0.99076 0.03726 0.0
C1310 C 0.12583 0.97994 0.0247 0.0
C1311 C 0.12107 0.95479 0.02983 0.0
C1312 C 0.09806 0.94793 0.03892 0.0
C1313 C 0.08025 0.96567 0.04261 0.0
C1314 C 0.14996 0.89327 0.01251 0.0
C1315 C 0.17614 0.9004 0.01646 0.0
C1316 C 0.13214 0.91077 0.01698 0.0
C1317 C 0.14001 0.93588 0.02556 0.0
C1318 C 0.16623 0.9429 0.02969 0.0
C1319 C 0.18402 0.92544 0.02517 0.0
loop_
_geom_bond_atom_site_label_1
_geom_bond_atom_site_label_2
_geom_bond_distance
_geom_bond_site_symmetry_2
_ccdc_geom_bond_type
H0 C5 0.930 . S
H1 C8 0.930 . S
H2 C10 0.930 . S
H3 C4 1.004 1_556 S
C4 H3 1.004 1_554 S
C4 N11 1.286 . S
C5 H0 0.930 . S
C5 C6 1.397 . S
C5 C7 1.361 . S
C6 C5 1.397 . S
C6 C10 1.390 . S
C7 C5 1.361 . S
C7 C8 1.393 . S
C7 N11 1.413 . S
C8 H1 0.930 . S
C8 C7 1.393 . S
C8 C9 1.399 . S
C9 C8 1.399 . S
C9 C10 1.381 . S
C10 H2 0.930 . S
C10 C6 1.390 . S
C10 C9 1.381 . S
N11 C4 1.286 . S
N11 C7 1.413 . S
H12 C17 0.930 . S
H13 C20 0.930 . S
H14 C22 0.930 . S
H15 C16 1.016 . S
C16 H15 1.016 . S
C16 N23 1.286 . S
C17 H12 0.930 . S
C17 C18 1.397 . S
C17 C19 1.361 . S
C18 C17 1.397 . S
C18 C22 1.390 . S
C19 C17 1.361 . S
C19 C20 1.393 . S
C19 N23 1.413 . S
C20 H13 0.930 . S
C20 C19 1.393 . S
C20 C21 1.399 . S
C21 C20 1.399 . S
C21 C22 1.381 . S
C22 H14 0.930 . S
C22 C18 1.390 . S
C22 C21 1.381 . S
N23 C16 1.286 . S
N23 C19 1.413 . S
H24 C29 0.930 . S
H25 C32 0.930 . S
H26 C34 0.930 . S
H27 C28 1.016 . S
C28 H27 1.016 . S
C28 N35 1.286 . S
C29 H24 0.930 . S
C29 C30 1.397 . S
C29 C31 1.361 . S
C30 C29 1.397 . S
C30 C34 1.390 . S
C31 C29 1.361 . S
C31 C32 1.393 . S
C31 N35 1.413 . S
C32 H25 0.930 . S
C32 C31 1.393 . S
C32 C33 1.399 . S
C33 C32 1.399 . S
C33 C34 1.381 . S
C34 H26 0.930 . S
C34 C30 1.390 . S
C34 C33 1.381 . S
N35 C28 1.286 . S
N35 C31 1.413 . S
H36 C41 0.930 . S
H37 C44 0.930 . S
H38 C46 0.930 . S
H39 C40 1.016 . S
C40 H39 1.016 . S
C40 N47 1.286 . S
C41 H36 0.930 . S
C41 C42 1.397 . S
C41 C43 1.361 . S
C42 C41 1.397 . S
C42 C46 1.390 . S
C43 C41 1.361 . S
C43 C44 1.393 . S
C43 N47 1.413 . S
C44 H37 0.930 . S
C44 C43 1.393 . S
C44 C45 1.399 . S
C45 C44 1.399 . S
C45 C46 1.381 . S
C46 H38 0.930 . S
C46 C42 1.390 . S
C46 C45 1.381 . S
N47 C40 1.286 . S
N47 C43 1.413 . S
H48 C53 0.930 . S
H49 C56 0.930 . S
H50 C58 0.930 . S
H51 C52 1.016 . S
C52 H51 1.016 . S
C52 N59 1.286 . S
C53 H48 0.930 . S
C53 C54 1.397 . S
C53 C55 1.361 . S
C54 C53 1.397 . S
C54 C58 1.390 . S
C55 C53 1.361 . S
C55 C56 1.393 . S
C55 N59 1.413 . S
C56 H49 0.930 . S
C56 C55 1.393 . S
C56 C57 1.399 . S
C57 C56 1.399 . S
C57 C58 1.381 . S
C58 H50 0.930 . S
C58 C54 1.390 . S
C58 C57 1.381 . S
N59 C52 1.286 . S
N59 C55 1.413 . S
H60 C65 0.930 . S
H61 C68 0.930 . S
H62 C70 0.930 . S
H63 C64 1.016 . S
C64 H63 1.016 . S
C64 N71 1.286 . S
C65 H60 0.930 . S
C65 C66 1.397 . S
C65 C67 1.361 . S
C66 C65 1.397 . S
C66 C70 1.390 . S
C67 C65 1.361 . S
C67 C68 1.393 . S
C67 N71 1.413 . S
C68 H61 0.930 . S
C68 C67 1.393 . S
C68 C69 1.399 . S
C69 C68 1.399 . S
C69 C70 1.381 . S
C70 H62 0.930 . S
C70 C66 1.390 . S
C70 C69 1.381 . S
N71 C64 1.286 . S
N71 C67 1.413 . S
H72 C77 0.930 . S
H73 C80 0.930 . S
H74 C82 0.930 . S
H75 C76 1.028 . S
C76 H75 1.028 . S
C76 N83 1.301 . S
C77 H72 0.930 . S
C77 C78 1.397 . S
C77 C79 1.361 . S
C78 C77 1.397 . S
C78 C82 1.390 . S
C79 C77 1.361 . S
C79 C80 1.393 . S
C79 N83 1.413 . S
C80 H73 0.930 . S
C80 C79 1.393 . S
C80 C81 1.399 . S
C81 C80 1.399 . S
C81 C82 1.381 . S
C82 H74 0.930 . S
C82 C78 1.390 . S
C82 C81 1.381 . S
N83 C76 1.301 . S
N83 C79 1.413 . S
H84 C89 0.930 . S
H85 C92 0.930 . S
H86 C94 0.930 . S
H87 C88 1.016 . S
C88 H87 1.016 . S
C88 N95 1.286 . S
C89 H84 0.930 . S
C89 C90 1.397 . S
C89 C91 1.361 . S
C90 C89 1.397 . S
C90 C94 1.390 . S
C91 C89 1.361 . S
C91 C92 1.393 . S
C91 N95 1.413 . S
C92 H85 0.930 . S
C92 C91 1.393 . S
C92 C93 1.399 . S
C93 C92 1.399 . S
C93 C94 1.381 . S
C94 H86 0.930 . S
C94 C90 1.390 . S
C94 C93 1.381 . S
N95 C88 1.286 . S
N95 C91 1.413 . S
H96 C101 0.930 . S
H97 C104 0.930 . S
H98 C106 0.930 . S
H99 C100 1.016 . S
C100 H99 1.016 . S
C100 N107 1.286 . S
C101 H96 0.930 . S
C101 C102 1.397 . S
C101 C103 1.361 . S
C102 C101 1.397 . S
C102 C106 1.390 . S
C103 C101 1.361 . S
C103 C104 1.393 . S
C103 N107 1.413 . S
C104 H97 0.930 . S
C104 C103 1.393 . S
C104 C105 1.399 . S
C105 C104 1.399 . S
C105 C106 1.381 . S
C106 H98 0.930 . S
C106 C102 1.390 . S
C106 C105 1.381 . S
N107 C100 1.286 . S
N107 C103 1.413 . S
H108 C113 0.930 . S
H109 C116 0.930 . S
H110 C118 0.930 1_545 S
H111 C112 1.016 . S
C112 H111 1.016 . S
C112 N119 1.286 . S
C113 H108 0.930 . S
C113 C114 1.397 . S
C113 C115 1.361 . S
C114 C113 1.397 . S
C114 C118 1.390 . S
C115 C113 1.361 . S
C115 C116 1.393 . S
C115 N119 1.413 . S
C116 H109 0.930 . S
C116 C115 1.393 . S
C116 C117 1.399 . S
C117 C116 1.399 . S
C117 C118 1.381 . S
C118 H110 0.930 1_565 S
C118 C114 1.390 . S
C118 C117 1.381 . S
N119 C112 1.286 . S
N119 C115 1.413 . S
H120 C125 0.930 . S
H121 C128 0.930 . S
H122 C130 0.930 . S
H123 C124 1.016 . S
C124 H123 1.016 . S
C124 N131 1.286 . S
C125 H120 0.930 . S
C125 C126 1.397 . S
C125 C127 1.361 . S
C126 C125 1.397 . S
C126 C130 1.390 . S
C127 C125 1.361 . S
C127 C128 1.393 . S
C127 N131 1.413 . S
C128 H121 0.930 . S
C128 C127 1.393 . S
C128 C129 1.399 . S
C129 C128 1.399 . S
C129 C130 1.381 . S
C130 H122 0.930 . S
C130 C126 1.390 . S
C130 C129 1.381 . S
N131 C124 1.286 . S
N131 C127 1.413 . S
H132 C137 0.930 . S
H133 C140 0.930 . S
H134 C142 0.930 . S
H135 C136 1.016 . S
C136 H135 1.016 . S
C136 N143 1.286 . S
C137 H132 0.930 . S
C137 C138 1.397 . S
C137 C139 1.361 . S
C138 C137 1.397 . S
C138 C142 1.390 . S
C139 C137 1.361 . S
C139 C140 1.393 . S
C139 N143 1.413 . S
C140 H133 0.930 . S
C140 C139 1.393 . S
C140 C141 1.399 . S
C141 C140 1.399 . S
C141 C142 1.381 . S
C142 H134 0.930 . S
C142 C138 1.390 . S
C142 C141 1.381 . S
N143 C136 1.286 . S
N143 C139 1.413 . S
H144 C149 0.930 . S
H145 C152 0.930 . S
H146 C154 0.930 . S
H147 C148 1.016 . S
C148 H147 1.016 . S
C148 N155 1.286 . S
C149 H144 0.930 . S
C149 C150 1.397 . S
C149 C151 1.361 . S
C150 C149 1.397 . S
C150 C154 1.390 . S
C151 C149 1.361 . S
C151 C152 1.393 . S
C151 N155 1.413 . S
C152 H145 0.930 . S
C152 C151 1.393 . S
C152 C153 1.399 . S
C153 C152 1.399 . S
C153 C154 1.381 . S
C154 H146 0.930 . S
C154 C150 1.390 . S
C154 C153 1.381 . S
N155 C148 1.286 . S
N155 C151 1.413 . S
H156 C161 0.930 . S
H157 C164 0.930 . S
H158 C166 0.930 . S
H159 C160 1.016 1_554 S
C160 H159 1.016 1_556 S
C160 N167 1.286 . S
C161 H156 0.930 . S
C161 C162 1.397 . S
C161 C163 1.361 . S
C162 C161 1.397 . S
C162 C166 1.390 . S
C163 C161 1.361 . S
C163 C164 1.393 . S
C163 N167 1.413 . S
C164 H157 0.930 . S
C164 C163 1.393 . S
C164 C165 1.399 . S
C165 C164 1.399 . S
C165 C166 1.381 . S
C166 H158 0.930 . S
C166 C162 1.390 . S
C166 C165 1.381 . S
N167 C160 1.286 . S
N167 C163 1.413 . S
H168 C173 0.930 . S
H169 C176 0.930 . S
H170 C178 0.930 . S
H171 C172 1.016 . S
C172 H171 1.016 . S
C172 N179 1.286 . S
C173 H168 0.930 . S
C173 C174 1.397 . S
C173 C175 1.361 . S
C174 C173 1.397 . S
C174 C178 1.390 . S
C175 C173 1.361 . S
C175 C176 1.393 . S
C175 N179 1.413 . S
C176 H169 0.930 . S
C176 C175 1.393 . S
C176 C177 1.399 . S
C177 C176 1.399 . S
C177 C178 1.381 . S
C178 H170 0.930 . S
C178 C174 1.390 . S
C178 C177 1.381 . S
N179 C172 1.286 . S
N179 C175 1.413 . S
H180 C185 0.930 . S
H181 C188 0.930 . S
H182 C190 0.930 . S
H183 C184 1.016 . S
C184 H183 1.016 . S
C184 N191 1.286 . S
C185 H180 0.930 . S
C185 C186 1.397 . S
C185 C187 1.361 . S
C186 C185 1.397 . S
C186 C190 1.390 . S
C187 C185 1.361 . S
C187 C188 1.393 . S
C187 N191 1.413 . S
C188 H181 0.930 . S
C188 C187 1.393 . S
C188 C189 1.399 . S
C189 C188 1.399 . S
C189 C190 1.381 . S
C190 H182 0.930 . S
C190 C186 1.390 . S
C190 C189 1.381 . S
N191 C184 1.286 . S
N191 C187 1.413 . S
Zn192 O195 2.031 . S
Zn192 O197 2.068 . S
Zn192 O202 2.067 1_554 S
Zn193 O194 1.962 . S
Zn193 O196 1.986 . S
Zn193 O198 1.996 . S
Zn193 O201 1.943 1_554 S
O194 Zn193 1.962 . S
O194 C199 1.254 . S
O195 Zn192 2.031 . S
O195 C199 1.269 . S
O196 Zn193 1.986 . S
O196 C203 1.262 . S
O197 Zn192 2.068 . S
O197 C205 1.272 . S
O198 Zn193 1.996 . S
O198 C205 1.257 . S
C199 O194 1.254 . S
C199 O195 1.269 . S
C200 O201 1.249 . S
C200 O202 1.270 . S
O201 Zn193 1.943 1_556 S
O201 C200 1.249 . S
O202 Zn192 2.067 1_556 S
O202 C200 1.270 . S
C203 O196 1.262 . S
C203 O204 1.232 . S
O204 C203 1.232 . S
C205 O197 1.272 . S
C205 O198 1.257 . S
Zn206 O209 2.031 . S
Zn206 O211 2.049 . S
Zn206 O216 2.067 . S
Zn207 O208 1.962 . S
Zn207 O210 1.986 . S
Zn207 O212 1.996 . S
Zn207 O215 1.943 . S
O208 Zn207 1.962 . S
O208 C213 1.254 . S
O209 Zn206 2.031 . S
O209 C213 1.269 . S
O210 Zn207 1.986 . S
O210 C217 1.262 . S
O211 Zn206 2.049 . S
O211 C219 1.260 . S
O212 Zn207 1.996 . S
O212 C219 1.257 . S
C213 O208 1.254 . S
C213 O209 1.269 . S
C214 O215 1.249 . S
C214 O216 1.270 . S
O215 Zn207 1.943 . S
O215 C214 1.249 . S
O216 Zn206 2.067 . S
O216 C214 1.270 . S
C217 O210 1.262 . S
C217 O218 1.232 . S
O218 C217 1.232 . S
C219 O211 1.260 . S
C219 O212 1.257 . S
Zn220 O223 2.031 . S
Zn220 O225 2.049 . S
Zn220 O230 2.067 . S
Zn221 O222 1.962 . S
Zn221 O224 1.986 . S
Zn221 O226 1.996 1_554 S
Zn221 O229 1.943 . S
O222 Zn221 1.962 . S
O222 C227 1.254 . S
O223 Zn220 2.031 . S
O223 C227 1.269 1_556 S
O224 Zn221 1.986 . S
O224 C231 1.262 . S
O225 Zn220 2.049 . S
O225 C233 1.260 . S
O226 Zn221 1.996 1_556 S
O226 C233 1.257 . S
C227 O222 1.254 . S
C227 O223 1.269 1_554 S
C228 O229 1.249 1_556 S
C228 O230 1.270 . S
O229 Zn221 1.943 . S
O229 C228 1.249 1_554 S
O230 Zn220 2.067 . S
O230 C228 1.270 . S
C231 O224 1.262 . S
C231 O232 1.232 . S
O232 C231 1.232 . S
C233 O225 1.260 . S
C233 O226 1.257 . S
Zn234 O237 2.031 . S
Zn234 O239 2.049 . S
Zn234 O244 2.067 1_545 S
Zn235 O236 1.962 . S
Zn235 O238 1.986 . S
Zn235 O240 1.996 . S
Zn235 O243 1.943 1_545 S
O236 Zn235 1.962 . S
O236 C241 1.254 . S
O237 Zn234 2.031 . S
O237 C241 1.269 . S
O238 Zn235 1.986 . S
O238 C245 1.262 . S
O239 Zn234 2.049 . S
O239 C247 1.260 . S
O240 Zn235 1.996 . S
O240 C247 1.257 . S
C241 O236 1.254 . S
C241 O237 1.269 . S
C242 O243 1.249 . S
C242 O244 1.270 . S
O243 Zn235 1.943 1_565 S
O243 C242 1.249 . S
O244 Zn234 2.067 1_565 S
O244 C242 1.270 . S
C245 O238 1.262 . S
C245 O246 1.232 . S
O246 C245 1.232 . S
C247 O239 1.260 . S
C247 O240 1.257 . S
Zn248 O251 2.031 . S
Zn248 O253 2.049 . S
Zn248 O258 2.067 . S
Zn249 O250 1.962 . S
Zn249 O252 1.986 . S
Zn249 O254 1.996 . S
Zn249 O257 1.943 . S
O250 Zn249 1.962 . S
O250 C255 1.254 . S
O251 Zn248 2.031 . S
O251 C255 1.269 . S
O252 Zn249 1.986 . S
O252 C259 1.262 . S
O253 Zn248 2.049 . S
O253 C261 1.260 . S
O254 Zn249 1.996 . S
O254 C261 1.257 . S
C255 O250 1.254 . S
C255 O251 1.269 . S
C256 O257 1.249 . S
C256 O258 1.270 . S
O257 Zn249 1.943 . S
O257 C256 1.249 . S
O258 Zn248 2.067 . S
O258 C256 1.270 . S
C259 O252 1.262 . S
C259 O260 1.232 . S
O260 C259 1.232 . S
C261 O253 1.260 . S
C261 O254 1.257 . S
Zn262 O265 2.031 . S
Zn262 O267 2.049 . S
Zn262 O272 2.067 . S
Zn263 O264 1.962 . S
Zn263 O266 1.986 . S
Zn263 O268 1.996 . S
Zn263 O271 1.943 . S
O264 Zn263 1.962 . S
O264 C269 1.254 . S
O265 Zn262 2.031 . S
O265 C269 1.269 . S
O266 Zn263 1.986 . S
O266 C273 1.262 . S
O267 Zn262 2.049 . S
O267 C275 1.260 . S
O268 Zn263 1.996 . S
O268 C275 1.257 . S
C269 O264 1.254 . S
C269 O265 1.269 . S
C270 O271 1.249 . S
C270 O272 1.270 . S
O271 Zn263 1.943 . S
O271 C270 1.249 . S
O272 Zn262 2.067 . S
O272 C270 1.270 . S
C273 O266 1.262 . S
C273 O274 1.232 . S
O274 C273 1.232 . S
C275 O267 1.260 . S
C275 O268 1.257 . S
Zn276 O279 2.031 . S
Zn276 O281 2.049 . S
Zn276 O286 2.067 . S
Zn277 O278 1.962 . S
Zn277 O280 1.986 . S
Zn277 O282 1.996 . S
Zn277 O285 1.943 . S
O278 Zn277 1.962 . S
O278 C283 1.254 . S
O279 Zn276 2.031 . S
O279 C283 1.269 . S
O280 Zn277 1.986 . S
O280 C287 1.262 . S
O281 Zn276 2.049 . S
O281 C289 1.260 . S
O282 Zn277 1.996 . S
O282 C289 1.257 . S
C283 O278 1.254 . S
C283 O279 1.269 . S
C284 O285 1.249 . S
C284 O286 1.270 . S
O285 Zn277 1.943 . S
O285 C284 1.249 . S
O286 Zn276 2.067 . S
O286 C284 1.270 . S
C287 O280 1.262 . S
C287 O288 1.232 . S
O288 C287 1.232 . S
C289 O281 1.260 . S
C289 O282 1.257 . S
Zn290 O293 2.031 . S
Zn290 O295 2.049 . S
Zn290 O300 2.067 . S
Zn291 O292 1.962 . S
Zn291 O294 1.986 . S
Zn291 O296 1.996 1_545 S
Zn291 O299 1.943 . S
O292 Zn291 1.962 . S
O292 C297 1.254 . S
O293 Zn290 2.031 . S
O293 C297 1.269 1_565 S
O294 Zn291 1.986 . S
O294 C301 1.262 . S
O295 Zn290 2.049 . S
O295 C303 1.260 . S
O296 Zn291 1.996 1_565 S
O296 C303 1.257 . S
C297 O292 1.254 . S
C297 O293 1.269 1_545 S
C298 O299 1.249 1_565 S
C298 O300 1.270 . S
O299 Zn291 1.943 . S
O299 C298 1.249 1_545 S
O300 Zn290 2.067 . S
O300 C298 1.270 . S
C301 O294 1.262 . S
C301 O302 1.232 . S
O302 C301 1.232 . S
C303 O295 1.260 . S
C303 O296 1.257 . S
Zn304 O307 2.031 . S
Zn304 O309 2.049 1_455 S
Zn304 O314 2.067 1_455 S
Zn305 O306 1.962 . S
Zn305 O308 1.986 . S
Zn305 O310 1.996 . S
Zn305 O313 1.943 1_455 S
O306 Zn305 1.962 . S
O306 C311 1.254 . S
O307 Zn304 2.031 . S
O307 C311 1.269 . S
O308 Zn305 1.986 . S
O308 C315 1.262 . S
O309 Zn304 2.049 1_655 S
O309 C317 1.265 . S
O310 Zn305 1.996 . S
O310 C317 1.246 1_455 S
C311 O306 1.254 . S
C311 O307 1.269 . S
C312 O313 1.249 . S
C312 O314 1.270 . S
O313 Zn305 1.943 1_655 S
O313 C312 1.249 . S
O314 Zn304 2.067 1_655 S
O314 C312 1.270 . S
C315 O308 1.262 . S
C315 O316 1.232 . S
O316 C315 1.232 . S
C317 O309 1.265 . S
C317 O310 1.246 1_655 S
Zn318 O321 2.031 . S
Zn318 O323 2.049 . S
Zn318 O328 2.067 . S
Zn319 O320 1.962 . S
Zn319 O322 1.986 . S
Zn319 O324 1.996 . S
Zn319 O327 1.943 . S
O320 Zn319 1.962 . S
O320 C325 1.254 . S
O321 Zn318 2.031 . S
O321 C325 1.269 . S
O322 Zn319 1.986 . S
O322 C329 1.262 . S
O323 Zn318 2.049 . S
O323 C331 1.260 . S
O324 Zn319 1.996 . S
O324 C331 1.257 . S
C325 O320 1.254 . S
C325 O321 1.269 . S
C326 O327 1.249 . S
C326 O328 1.270 . S
O327 Zn319 1.943 . S
O327 C326 1.249 . S
O328 Zn318 2.067 . S
O328 C326 1.270 . S
C329 O322 1.262 . S
C329 O330 1.232 . S
O330 C329 1.232 . S
C331 O323 1.260 . S
C331 O324 1.257 . S
Zn332 O335 2.031 1_655 S
Zn332 O337 2.049 . S
Zn332 O342 2.067 . S
Zn333 O334 1.962 . S
Zn333 O336 1.986 . S
Zn333 O338 1.996 1_455 S
Zn333 O341 1.943 . S
O334 Zn333 1.962 . S
O334 C339 1.254 . S
O335 Zn332 2.031 1_455 S
O335 C339 1.269 . S
O336 Zn333 1.986 . S
O336 C343 1.262 . S
O337 Zn332 2.049 . S
O337 C345 1.260 . S
O338 Zn333 1.996 1_655 S
O338 C345 1.257 . S
C339 O334 1.254 . S
C339 O335 1.269 . S
C340 O341 1.249 . S
C340 O342 1.270 1_455 S
O341 Zn333 1.943 . S
O341 C340 1.249 . S
O342 Zn332 2.067 . S
O342 C340 1.270 1_655 S
C343 O336 1.262 . S
C343 O344 1.232 . S
O344 C343 1.232 . S
C345 O337 1.260 . S
C345 O338 1.257 . S
Zn346 O349 2.031 . S
Zn346 O351 2.049 . S
Zn346 O356 2.067 . S
Zn347 O348 1.962 . S
Zn347 O350 1.986 . S
Zn347 O352 1.996 . S
Zn347 O355 1.943 . S
O348 Zn347 1.962 . S
O348 C353 1.254 . S
O349 Zn346 2.031 . S
O349 C353 1.269 . S
O350 Zn347 1.986 . S
O350 C357 1.262 . S
O351 Zn346 2.049 . S
O351 C359 1.260 . S
O352 Zn347 1.996 . S
O352 C359 1.257 . S
C353 O348 1.254 . S
C353 O349 1.269 . S
C354 O355 1.249 . S
C354 O356 1.270 . S
O355 Zn347 1.943 . S
O355 C354 1.249 . S
O356 Zn346 2.067 . S
O356 C354 1.270 . S
C357 O350 1.262 . S
C357 O358 1.232 . S
O358 C357 1.232 . S
C359 O351 1.260 . S
C359 O352 1.257 . S
H360 C368 0.950 . S
H361 C373 0.950 . S
H362 C370 0.950 . S
H363 C372 0.950 . S
H364 C374 0.950 . S
H365 C376 0.950 . S
H366 C378 0.950 . S
H367 C379 0.950 . S
C368 H360 0.950 . S
C368 C369 1.386 . S
C368 C370 1.391 . S
C369 C368 1.386 . S
C369 C373 1.393 . S
C370 H362 0.950 . S
C370 C368 1.391 . S
C370 C371 1.400 . S
C371 C370 1.400 . S
C371 C372 1.398 . S
C371 C377 1.491 . S
C372 H363 0.950 . S
C372 C371 1.398 . S
C372 C373 1.391 . S
C373 H361 0.950 . S
C373 C369 1.393 . S
C373 C372 1.391 . S
C374 H364 0.950 . S
C374 C375 1.386 . S
C374 C376 1.391 . S
C375 C374 1.386 . S
C375 C379 1.393 . S
C376 H365 0.950 . S
C376 C374 1.391 . S
C376 C377 1.400 . S
C377 C371 1.491 . S
C377 C376 1.400 . S
C377 C378 1.398 . S
C378 H366 0.950 . S
C378 C377 1.398 . S
C378 C379 1.391 . S
C379 H367 0.950 . S
C379 C375 1.393 . S
C379 C378 1.391 . S
H380 C388 0.950 1_655 S
H381 C393 0.950 . S
H382 C390 0.950 . S
H383 C392 0.950 . S
H384 C394 0.950 . S
H385 C396 0.950 . S
H386 C398 0.950 . S
H387 C399 0.950 . S
C388 H380 0.950 1_455 S
C388 C389 1.386 . S
C388 C390 1.391 . S
C389 C388 1.386 . S
C389 C393 1.393 . S
C390 H382 0.950 . S
C390 C388 1.391 . S
C390 C391 1.400 . S
C391 C390 1.400 . S
C391 C392 1.398 . S
C391 C397 1.491 . S
C392 H383 0.950 . S
C392 C391 1.398 . S
C392 C393 1.391 . S
C393 H381 0.950 . S
C393 C389 1.393 . S
C393 C392 1.391 . S
C394 H384 0.950 . S
C394 C395 1.386 . S
C394 C396 1.391 . S
C395 C394 1.386 . S
C395 C399 1.393 . S
C396 H385 0.950 . S
C396 C394 1.391 . S
C396 C397 1.400 . S
C397 C391 1.491 . S
C397 C396 1.400 . S
C397 C398 1.398 . S
C398 H386 0.950 . S
C398 C397 1.398 . S
C398 C399 1.391 . S
C399 H387 0.950 . S
C399 C395 1.393 . S
C399 C398 1.391 . S
H400 C408 0.950 . S
H401 C413 0.950 . S
H402 C410 0.950 . S
H403 C412 0.950 . S
H404 C414 0.950 . S
H405 C416 0.950 . S
H406 C418 0.950 . S
H407 C419 0.950 . S
C408 H400 0.950 . S
C408 C409 1.386 . S
C408 C410 1.391 . S
C409 C408 1.386 . S
C409 C413 1.393 . S
C410 H402 0.950 . S
C410 C408 1.391 . S
C410 C411 1.400 . S
C411 C410 1.400 . S
C411 C412 1.398 . S
C411 C417 1.491 . S
C412 H403 0.950 . S
C412 C411 1.398 . S
C412 C413 1.391 . S
C413 H401 0.950 . S
C413 C409 1.393 . S
C413 C412 1.391 . S
C414 H404 0.950 . S
C414 C415 1.386 . S
C414 C416 1.391 . S
C415 C414 1.386 . S
C415 C419 1.393 . S
C416 H405 0.950 . S
C416 C414 1.391 . S
C416 C417 1.400 . S
C417 C411 1.491 . S
C417 C416 1.400 . S
C417 C418 1.398 . S
C418 H406 0.950 . S
C418 C417 1.398 . S
C418 C419 1.391 . S
C419 H407 0.950 . S
C419 C415 1.393 . S
C419 C418 1.391 . S
H420 C428 0.950 . S
H421 C433 0.950 . S
H422 C430 0.950 . S
H423 C432 0.950 . S
H424 C434 0.950 . S
H425 C436 0.950 . S
H426 C438 0.950 . S
H427 C439 0.950 . S
C428 H420 0.950 . S
C428 C429 1.386 . S
C428 C430 1.391 . S
C429 C428 1.386 . S
C429 C433 1.393 . S
C430 H422 0.950 . S
C430 C428 1.391 . S
C430 C431 1.400 . S
C431 C430 1.400 . S
C431 C432 1.398 . S
C431 C437 1.491 . S
C432 H423 0.950 . S
C432 C431 1.398 . S
C432 C433 1.391 . S
C433 H421 0.950 . S
C433 C429 1.393 . S
C433 C432 1.391 . S
C434 H424 0.950 . S
C434 C435 1.386 1_465 S
C434 C436 1.391 . S
C435 C434 1.386 1_645 S
C435 C439 1.393 . S
C436 H425 0.950 . S
C436 C434 1.391 . S
C436 C437 1.400 . S
C437 C431 1.491 . S
C437 C436 1.400 . S
C437 C438 1.398 1_465 S
C438 H426 0.950 . S
C438 C437 1.398 1_645 S
C438 C439 1.391 . S
C439 H427 0.950 . S
C439 C435 1.393 . S
C439 C438 1.391 . S
H440 C448 0.950 . S
H441 C453 0.950 . S
H442 C450 0.950 . S
H443 C452 0.950 . S
H444 C454 0.950 . S
H445 C456 0.950 . S
H446 C458 0.950 . S
H447 C459 0.950 . S
C448 H440 0.950 . S
C448 C449 1.386 . S
C448 C450 1.391 . S
C449 C448 1.386 . S
C449 C453 1.393 . S
C450 H442 0.950 . S
C450 C448 1.391 . S
C450 C451 1.400 . S
C451 C450 1.400 . S
C451 C452 1.398 . S
C451 C457 1.491 . S
C452 H443 0.950 . S
C452 C451 1.398 . S
C452 C453 1.391 . S
C453 H441 0.950 . S
C453 C449 1.393 . S
C453 C452 1.391 . S
C454 H444 0.950 . S
C454 C455 1.386 . S
C454 C456 1.391 . S
C455 C454 1.386 . S
C455 C459 1.393 . S
C456 H445 0.950 . S
C456 C454 1.391 . S
C456 C457 1.400 . S
C457 C451 1.491 . S
C457 C456 1.400 . S
C457 C458 1.398 . S
C458 H446 0.950 . S
C458 C457 1.398 . S
C458 C459 1.391 . S
C459 H447 0.950 . S
C459 C455 1.393 . S
C459 C458 1.391 . S
H460 C468 0.950 . S
H461 C473 0.950 . S
H462 C470 0.950 . S
H463 C472 0.950 . S
H464 C474 0.950 . S
H465 C476 0.950 . S
H466 C478 0.950 . S
H467 C479 0.950 . S
C468 H460 0.950 . S
C468 C469 1.386 . S
C468 C470 1.391 . S
C469 C468 1.386 . S
C469 C473 1.393 . S
C470 H462 0.950 . S
C470 C468 1.391 . S
C470 C471 1.400 . S
C471 C470 1.400 . S
C471 C472 1.398 . S
C471 C477 1.491 . S
C472 H463 0.950 . S
C472 C471 1.398 . S
C472 C473 1.391 . S
C473 H461 0.950 . S
C473 C469 1.393 . S
C473 C472 1.391 . S
C474 H464 0.950 . S
C474 C475 1.386 . S
C474 C476 1.391 . S
C475 C474 1.386 . S
C475 C479 1.393 . S
C476 H465 0.950 . S
C476 C474 1.391 . S
C476 C477 1.400 . S
C477 C471 1.491 . S
C477 C476 1.400 . S
C477 C478 1.398 . S
C478 H466 0.950 . S
C478 C477 1.398 . S
C478 C479 1.391 . S
C479 H467 0.950 . S
C479 C475 1.393 . S
C479 C478 1.391 . S
H480 C488 0.950 . S
H481 C493 0.950 . S
H482 C490 0.950 . S
H483 C492 0.950 . S
H484 C494 0.950 . S
H485 C496 0.950 . S
H486 C498 0.950 . S
H487 C499 0.950 . S
C488 H480 0.950 . S
C488 C489 1.386 . S
C488 C490 1.391 . S
C489 C488 1.386 . S
C489 C493 1.393 . S
C490 H482 0.950 . S
C490 C488 1.391 . S
C490 C491 1.400 . S
C491 C490 1.400 . S
C491 C492 1.398 . S
C491 C497 1.491 . S
C492 H483 0.950 . S
C492 C491 1.398 . S
C492 C493 1.391 . S
C493 H481 0.950 . S
C493 C489 1.393 . S
C493 C492 1.391 . S
C494 H484 0.950 . S
C494 C495 1.386 . S
C494 C496 1.391 . S
C495 C494 1.386 . S
C495 C499 1.393 . S
C496 H485 0.950 . S
C496 C494 1.391 . S
C496 C497 1.400 . S
C497 C491 1.491 . S
C497 C496 1.400 . S
C497 C498 1.398 . S
C498 H486 0.950 . S
C498 C497 1.398 . S
C498 C499 1.391 . S
C499 H487 0.950 . S
C499 C495 1.393 . S
C499 C498 1.391 . S
H500 C508 0.950 . S
H501 C513 0.950 . S
H502 C510 0.950 . S
H503 C512 0.950 . S
H504 C514 0.950 . S
H505 C516 0.950 . S
H506 C518 0.950 . S
H507 C519 0.950 . S
C508 H500 0.950 . S
C508 C509 1.386 . S
C508 C510 1.391 . S
C509 C508 1.386 . S
C509 C513 1.393 . S
C510 H502 0.950 . S
C510 C508 1.391 . S
C510 C511 1.400 . S
C511 C510 1.400 . S
C511 C512 1.398 . S
C511 C517 1.491 . S
C512 H503 0.950 . S
C512 C511 1.398 . S
C512 C513 1.391 . S
C513 H501 0.950 . S
C513 C509 1.393 . S
C513 C512 1.391 . S
C514 H504 0.950 . S
C514 C515 1.386 . S
C514 C516 1.391 . S
C515 C514 1.386 . S
C515 C519 1.393 . S
C516 H505 0.950 . S
C516 C514 1.391 . S
C516 C517 1.400 . S
C517 C511 1.491 . S
C517 C516 1.400 . S
C517 C518 1.398 . S
C518 H506 0.950 . S
C518 C517 1.398 . S
C518 C519 1.391 . S
C519 H507 0.950 . S
C519 C515 1.393 . S
C519 C518 1.391 . S
H520 C528 0.950 . S
H521 C533 0.950 . S
H522 C530 0.950 . S
H523 C532 0.950 . S
H524 C534 0.950 . S
H525 C536 0.950 . S
H526 C538 0.950 . S
H527 C539 0.950 . S
C528 H520 0.950 . S
C528 C529 1.386 . S
C528 C530 1.391 . S
C529 C528 1.386 . S
C529 C533 1.393 . S
C530 H522 0.950 . S
C530 C528 1.391 . S
C530 C531 1.400 . S
C531 C530 1.400 . S
C531 C532 1.398 . S
C531 C537 1.491 . S
C532 H523 0.950 . S
C532 C531 1.398 . S
C532 C533 1.391 . S
C533 H521 0.950 . S
C533 C529 1.393 . S
C533 C532 1.391 . S
C534 H524 0.950 . S
C534 C535 1.386 . S
C534 C536 1.391 . S
C535 C534 1.386 . S
C535 C539 1.393 . S
C536 H525 0.950 . S
C536 C534 1.391 . S
C536 C537 1.400 . S
C537 C531 1.491 . S
C537 C536 1.400 . S
C537 C538 1.398 . S
C538 H526 0.950 . S
C538 C537 1.398 . S
C538 C539 1.391 . S
C539 H527 0.950 . S
C539 C535 1.393 . S
C539 C538 1.391 . S
H540 C548 0.950 . S
H541 C553 0.950 . S
H542 C550 0.950 . S
H543 C552 0.950 . S
H544 C554 0.950 . S
H545 C556 0.950 . S
H546 C558 0.950 . S
H547 C559 0.950 . S
C548 H540 0.950 . S
C548 C549 1.386 . S
C548 C550 1.391 . S
C549 C548 1.386 . S
C549 C553 1.393 . S
C550 H542 0.950 . S
C550 C548 1.391 . S
C550 C551 1.400 . S
C551 C550 1.400 . S
C551 C552 1.398 . S
C551 C557 1.491 . S
C552 H543 0.950 . S
C552 C551 1.398 . S
C552 C553 1.391 . S
C553 H541 0.950 . S
C553 C549 1.393 . S
C553 C552 1.391 . S
C554 H544 0.950 . S
C554 C555 1.386 . S
C554 C556 1.391 . S
C555 C554 1.386 . S
C555 C559 1.393 . S
C556 H545 0.950 . S
C556 C554 1.391 . S
C556 C557 1.400 . S
C557 C551 1.491 . S
C557 C556 1.400 . S
C557 C558 1.398 . S
C558 H546 0.950 . S
C558 C557 1.398 . S
C558 C559 1.391 . S
C559 H547 0.950 . S
C559 C555 1.393 . S
C559 C558 1.391 . S
H560 C568 0.950 . S
H561 C573 0.950 . S
H562 C570 0.950 . S
H563 C572 0.950 . S
H564 C574 0.950 . S
H565 C576 0.950 . S
H566 C578 0.950 . S
H567 C579 0.950 . S
C568 H560 0.950 . S
C568 C569 1.386 . S
C568 C570 1.391 . S
C569 C568 1.386 . S
C569 C573 1.393 . S
C570 H562 0.950 . S
C570 C568 1.391 . S
C570 C571 1.400 . S
C571 C570 1.400 . S
C571 C572 1.398 . S
C571 C577 1.491 . S
C572 H563 0.950 . S
C572 C571 1.398 . S
C572 C573 1.391 . S
C573 H561 0.950 . S
C573 C569 1.393 . S
C573 C572 1.391 . S
C574 H564 0.950 . S
C574 C575 1.386 . S
C574 C576 1.391 . S
C575 C574 1.386 . S
C575 C579 1.393 . S
C576 H565 0.950 . S
C576 C574 1.391 . S
C576 C577 1.400 . S
C577 C571 1.491 . S
C577 C576 1.400 . S
C577 C578 1.398 . S
C578 H566 0.950 . S
C578 C577 1.398 . S
C578 C579 1.391 . S
C579 H567 0.950 . S
C579 C575 1.393 . S
C579 C578 1.391 . S
H580 C588 0.950 . S
H581 C593 0.950 . S
H582 C590 0.950 . S
H583 C592 0.950 . S
H584 C594 0.950 . S
H585 C596 0.950 . S
H586 C598 0.950 . S
H587 C599 0.950 . S
C588 H580 0.950 . S
C588 C589 1.386 . S
C588 C590 1.391 . S
C589 C588 1.386 . S
C589 C593 1.393 . S
C590 H582 0.950 . S
C590 C588 1.391 . S
C590 C591 1.400 . S
C591 C590 1.400 . S
C591 C592 1.398 . S
C591 C597 1.491 . S
C592 H583 0.950 . S
C592 C591 1.398 . S
C592 C593 1.391 . S
C593 H581 0.950 . S
C593 C589 1.393 . S
C593 C592 1.391 . S
C594 H584 0.950 . S
C594 C595 1.386 . S
C594 C596 1.391 . S
C595 C594 1.386 . S
C595 C599 1.393 . S
C596 H585 0.950 . S
C596 C594 1.391 . S
C596 C597 1.400 . S
C597 C591 1.491 . S
C597 C596 1.400 . S
C597 C598 1.398 . S
C598 H586 0.950 . S
C598 C597 1.398 . S
C598 C599 1.391 . S
C599 H587 0.950 . S
C599 C595 1.393 . S
C599 C598 1.391 . S
H600 C608 0.950 . S
H601 C613 0.950 . S
H602 C610 0.950 . S
H603 C612 0.950 . S
H604 C614 0.950 . S
H605 C616 0.950 . S
H606 C618 0.950 . S
H607 C619 0.950 . S
C608 H600 0.950 . S
C608 C609 1.386 . S
C608 C610 1.391 . S
C609 C608 1.386 . S
C609 C613 1.393 . S
C610 H602 0.950 . S
C610 C608 1.391 . S
C610 C611 1.400 . S
C611 C610 1.400 . S
C611 C612 1.398 . S
C611 C617 1.491 . S
C612 H603 0.950 . S
C612 C611 1.398 . S
C612 C613 1.391 . S
C613 H601 0.950 . S
C613 C609 1.393 . S
C613 C612 1.391 . S
C614 H604 0.950 . S
C614 C615 1.386 . S
C614 C616 1.391 . S
C615 C614 1.386 . S
C615 C619 1.393 . S
C616 H605 0.950 . S
C616 C614 1.391 . S
C616 C617 1.400 . S
C617 C611 1.491 . S
C617 C616 1.400 . S
C617 C618 1.398 . S
C618 H606 0.950 . S
C618 C617 1.398 . S
C618 C619 1.391 . S
C619 H607 0.950 . S
C619 C615 1.393 . S
C619 C618 1.391 . S
H620 C628 0.950 . S
H621 C633 0.950 . S
H622 C630 0.950 . S
H623 C632 0.950 . S
H624 C634 0.950 . S
H625 C636 0.950 . S
H626 C638 0.950 . S
H627 C639 0.950 . S
C628 H620 0.950 . S
C628 C629 1.386 . S
C628 C630 1.391 . S
C629 C628 1.386 . S
C629 C633 1.393 . S
C630 H622 0.950 . S
C630 C628 1.391 . S
C630 C631 1.400 . S
C631 C630 1.400 . S
C631 C632 1.398 . S
C631 C637 1.491 . S
C632 H623 0.950 . S
C632 C631 1.398 . S
C632 C633 1.391 . S
C633 H621 0.950 . S
C633 C629 1.393 . S
C633 C632 1.391 . S
C634 H624 0.950 . S
C634 C635 1.386 . S
C634 C636 1.391 . S
C635 C634 1.386 . S
C635 C639 1.393 . S
C636 H625 0.950 . S
C636 C634 1.391 . S
C636 C637 1.400 . S
C637 C631 1.491 . S
C637 C636 1.400 . S
C637 C638 1.398 . S
C638 H626 0.950 . S
C638 C637 1.398 . S
C638 C639 1.391 . S
C639 H627 0.950 . S
C639 C635 1.393 . S
C639 C638 1.391 . S
H640 C648 0.950 . S
H641 C653 0.950 . S
H642 C650 0.950 . S
H643 C652 0.950 . S
H644 C654 0.950 . S
H645 C656 0.950 . S
H646 C658 0.950 . S
H647 C659 0.950 . S
C648 H640 0.950 . S
C648 C649 1.386 . S
C648 C650 1.391 . S
C649 C648 1.386 . S
C649 C653 1.393 . S
C650 H642 0.950 . S
C650 C648 1.391 . S
C650 C651 1.400 . S
C651 C650 1.400 . S
C651 C652 1.398 . S
C651 C657 1.491 . S
C652 H643 0.950 . S
C652 C651 1.398 . S
C652 C653 1.391 . S
C653 H641 0.950 . S
C653 C649 1.393 . S
C653 C652 1.391 . S
C654 H644 0.950 . S
C654 C655 1.386 . S
C654 C656 1.391 . S
C655 C654 1.386 . S
C655 C659 1.393 . S
C656 H645 0.950 . S
C656 C654 1.391 . S
C656 C657 1.400 . S
C657 C651 1.491 . S
C657 C656 1.400 . S
C657 C658 1.398 . S
C658 H646 0.950 . S
C658 C657 1.398 . S
C658 C659 1.391 . S
C659 H647 0.950 . S
C659 C655 1.393 . S
C659 C658 1.391 . S
H660 C668 0.950 . S
H661 C673 0.950 . S
H662 C670 0.950 1_455 S
H663 C672 0.950 . S
H664 C674 0.950 . S
H665 C676 0.950 . S
H666 C678 0.950 . S
H667 C679 0.950 . S
C668 H660 0.950 . S
C668 C669 1.386 . S
C668 C670 1.391 . S
C669 C668 1.386 . S
C669 C673 1.393 . S
C670 H662 0.950 1_655 S
C670 C668 1.391 . S
C670 C671 1.400 . S
C671 C670 1.400 . S
C671 C672 1.398 . S
C671 C677 1.491 . S
C672 H663 0.950 . S
C672 C671 1.398 . S
C672 C673 1.391 . S
C673 H661 0.950 . S
C673 C669 1.393 . S
C673 C672 1.391 . S
C674 H664 0.950 . S
C674 C675 1.386 1_655 S
C674 C676 1.391 . S
C675 C674 1.386 1_455 S
C675 C679 1.393 . S
C676 H665 0.950 . S
C676 C674 1.391 . S
C676 C677 1.400 . S
C677 C671 1.491 . S
C677 C676 1.400 . S
C677 C678 1.398 1_655 S
C678 H666 0.950 . S
C678 C677 1.398 1_455 S
C678 C679 1.391 . S
C679 H667 0.950 . S
C679 C675 1.393 . S
C679 C678 1.391 . S
H680 C688 0.950 . S
H681 C693 0.950 . S
H682 C690 0.950 . S
H683 C692 0.950 . S
H684 C694 0.950 . S
H685 C696 0.950 . S
H686 C698 0.950 . S
H687 C699 0.950 . S
C688 H680 0.950 . S
C688 C689 1.386 . S
C688 C690 1.391 . S
C689 C688 1.386 . S
C689 C693 1.393 . S
C690 H682 0.950 . S
C690 C688 1.391 . S
C690 C691 1.400 . S
C691 C690 1.400 . S
C691 C692 1.398 . S
C691 C697 1.491 . S
C692 H683 0.950 . S
C692 C691 1.398 . S
C692 C693 1.391 . S
C693 H681 0.950 . S
C693 C689 1.393 . S
C693 C692 1.391 . S
C694 H684 0.950 . S
C694 C695 1.386 . S
C694 C696 1.391 . S
C695 C694 1.386 . S
C695 C699 1.393 . S
C696 H685 0.950 . S
C696 C694 1.391 . S
C696 C697 1.400 . S
C697 C691 1.491 . S
C697 C696 1.400 . S
C697 C698 1.398 . S
C698 H686 0.950 . S
C698 C697 1.398 . S
C698 C699 1.391 . S
C699 H687 0.950 . S
C699 C695 1.393 . S
C699 C698 1.391 . S
H700 C708 0.950 . S
H701 C713 0.950 . S
H702 C710 0.950 . S
H703 C712 0.950 . S
H704 C714 0.950 . S
H705 C716 0.950 . S
H706 C718 0.950 . S
H707 C719 0.950 . S
C708 H700 0.950 . S
C708 C709 1.386 . S
C708 C710 1.391 . S
C709 C708 1.386 . S
C709 C713 1.393 . S
C710 H702 0.950 . S
C710 C708 1.391 . S
C710 C711 1.400 . S
C711 C710 1.400 . S
C711 C712 1.398 . S
C711 C717 1.491 . S
C712 H703 0.950 . S
C712 C711 1.398 . S
C712 C713 1.391 . S
C713 H701 0.950 . S
C713 C709 1.393 . S
C713 C712 1.391 . S
C714 H704 0.950 . S
C714 C715 1.386 . S
C714 C716 1.391 . S
C715 C714 1.386 . S
C715 C719 1.393 . S
C716 H705 0.950 . S
C716 C714 1.391 . S
C716 C717 1.400 . S
C717 C711 1.491 . S
C717 C716 1.400 . S
C717 C718 1.398 . S
C718 H706 0.950 . S
C718 C717 1.398 . S
C718 C719 1.391 . S
C719 H707 0.950 . S
C719 C715 1.393 . S
C719 C718 1.391 . S
H720 C728 0.950 . S
H721 C733 0.951 . S
H722 C730 0.950 1_554 S
H723 C732 0.950 . S
H724 C734 0.950 . S
H725 C736 0.950 . S
H726 C738 0.950 . S
H727 C739 0.950 . S
C728 H720 0.950 . S
C728 C729 1.386 . S
C728 C730 1.391 . S
C729 C728 1.386 . S
C729 C733 1.393 . S
C730 H722 0.950 1_556 S
C730 C728 1.391 . S
C730 C731 1.400 1_545 S
C731 C730 1.400 1_565 S
C731 C732 1.398 . S
C731 C737 1.491 . S
C732 H723 0.950 . S
C732 C731 1.398 . S
C732 C733 1.391 1_565 S
C733 H721 0.951 . S
C733 C729 1.393 . S
C733 C732 1.391 1_545 S
C734 H724 0.950 . S
C734 C735 1.386 1_556 S
C734 C736 1.391 . S
C735 C734 1.386 1_554 S
C735 C739 1.393 . S
C736 H725 0.950 . S
C736 C734 1.391 . S
C736 C737 1.400 . S
C737 C731 1.491 . S
C737 C736 1.400 . S
C737 C738 1.398 1_556 S
C738 H726 0.950 . S
C738 C737 1.398 1_554 S
C738 C739 1.391 . S
C739 H727 0.950 . S
C739 C735 1.393 . S
C739 C738 1.391 . S
H740 C748 0.950 . S
H741 C753 0.950 . S
H742 C750 0.950 . S
H743 C752 0.950 . S
H744 C754 0.950 . S
H745 C756 0.950 . S
H746 C758 0.950 . S
H747 C759 0.950 . S
C748 H740 0.950 . S
C748 C749 1.386 . S
C748 C750 1.391 . S
C749 C748 1.386 . S
C749 C753 1.393 . S
C750 H742 0.950 . S
C750 C748 1.391 . S
C750 C751 1.400 . S
C751 C750 1.400 . S
C751 C752 1.398 . S
C751 C757 1.491 . S
C752 H743 0.950 . S
C752 C751 1.398 . S
C752 C753 1.391 . S
C753 H741 0.950 . S
C753 C749 1.393 . S
C753 C752 1.391 . S
C754 H744 0.950 . S
C754 C755 1.386 . S
C754 C756 1.391 . S
C755 C754 1.386 . S
C755 C759 1.393 . S
C756 H745 0.950 . S
C756 C754 1.391 . S
C756 C757 1.400 . S
C757 C751 1.491 . S
C757 C756 1.400 . S
C757 C758 1.398 . S
C758 H746 0.950 . S
C758 C757 1.398 . S
C758 C759 1.391 . S
C759 H747 0.950 . S
C759 C755 1.393 . S
C759 C758 1.391 . S
H760 C768 0.950 . S
H761 C773 0.950 1_565 S
H762 C770 0.950 . S
H763 C772 0.950 . S
H764 C774 0.950 . S
H765 C776 0.950 . S
H766 C778 0.950 . S
H767 C779 0.950 . S
C768 H760 0.950 . S
C768 C769 1.386 . S
C768 C770 1.391 . S
C769 C768 1.386 . S
C769 C773 1.393 . S
C770 H762 0.950 . S
C770 C768 1.391 . S
C770 C771 1.400 . S
C771 C770 1.400 . S
C771 C772 1.398 . S
C771 C777 1.491 . S
C772 H763 0.950 . S
C772 C771 1.398 . S
C772 C773 1.390 . S
C773 H761 0.950 1_545 S
C773 C769 1.393 . S
C773 C772 1.390 . S
C774 H764 0.950 . S
C774 C775 1.386 . S
C774 C776 1.391 . S
C775 C774 1.386 . S
C775 C779 1.393 . S
C776 H765 0.950 . S
C776 C774 1.391 . S
C776 C777 1.400 . S
C777 C771 1.491 . S
C777 C776 1.400 . S
C777 C778 1.398 . S
C778 H766 0.950 . S
C778 C777 1.398 . S
C778 C779 1.391 . S
C779 H767 0.950 . S
C779 C775 1.393 . S
C779 C778 1.391 . S
H780 C788 0.950 . S
H781 C793 0.950 . S
H782 C790 0.950 . S
H783 C792 0.950 . S
H784 C794 0.950 . S
H785 C796 0.950 . S
H786 C798 0.950 . S
H787 C799 0.950 . S
C788 H780 0.950 . S
C788 C789 1.386 . S
C788 C790 1.391 . S
C789 C788 1.386 . S
C789 C793 1.393 . S
C790 H782 0.950 . S
C790 C788 1.391 . S
C790 C791 1.400 . S
C791 C790 1.400 . S
C791 C792 1.398 . S
C791 C797 1.491 . S
C792 H783 0.950 . S
C792 C791 1.398 . S
C792 C793 1.391 . S
C793 H781 0.950 . S
C793 C789 1.393 . S
C793 C792 1.391 . S
C794 H784 0.950 . S
C794 C795 1.386 . S
C794 C796 1.391 . S
C795 C794 1.386 . S
C795 C799 1.393 . S
C796 H785 0.950 . S
C796 C794 1.391 . S
C796 C797 1.400 . S
C797 C791 1.491 . S
C797 C796 1.400 . S
C797 C798 1.398 . S
C798 H786 0.950 . S
C798 C797 1.398 . S
C798 C799 1.391 . S
C799 H787 0.950 . S
C799 C795 1.393 . S
C799 C798 1.391 . S
H800 C808 0.950 . S
H801 C813 0.950 . S
H802 C810 0.950 . S
H803 C812 0.950 . S
H804 C814 0.950 . S
H805 C816 0.950 . S
H806 C818 0.950 . S
H807 C819 0.950 . S
C808 H800 0.950 . S
C808 C809 1.386 . S
C808 C810 1.391 . S
C809 C808 1.386 . S
C809 C813 1.393 . S
C810 H802 0.950 . S
C810 C808 1.391 . S
C810 C811 1.400 . S
C811 C810 1.400 . S
C811 C812 1.398 . S
C811 C817 1.491 . S
C812 H803 0.950 . S
C812 C811 1.398 . S
C812 C813 1.391 . S
C813 H801 0.950 . S
C813 C809 1.393 . S
C813 C812 1.391 . S
C814 H804 0.950 . S
C814 C815 1.386 . S
C814 C816 1.391 . S
C815 C814 1.386 . S
C815 C819 1.393 . S
C816 H805 0.950 . S
C816 C814 1.391 . S
C816 C817 1.400 . S
C817 C811 1.491 . S
C817 C816 1.400 . S
C817 C818 1.398 . S
C818 H806 0.950 . S
C818 C817 1.398 . S
C818 C819 1.391 . S
C819 H807 0.950 . S
C819 C815 1.393 . S
C819 C818 1.391 . S
H820 C828 0.950 . S
H821 C833 0.950 . S
H822 C830 0.950 . S
H823 C832 0.950 . S
H824 C834 0.950 . S
H825 C836 0.950 . S
H826 C838 0.950 . S
H827 C839 0.950 . S
C828 H820 0.950 . S
C828 C829 1.386 . S
C828 C830 1.391 . S
C829 C828 1.386 . S
C829 C833 1.393 . S
C830 H822 0.950 . S
C830 C828 1.391 . S
C830 C831 1.400 . S
C831 C830 1.400 . S
C831 C832 1.398 . S
C831 C837 1.491 . S
C832 H823 0.950 . S
C832 C831 1.398 . S
C832 C833 1.391 . S
C833 H821 0.950 . S
C833 C829 1.393 . S
C833 C832 1.391 . S
C834 H824 0.950 . S
C834 C835 1.386 . S
C834 C836 1.391 . S
C835 C834 1.386 . S
C835 C839 1.393 . S
C836 H825 0.950 . S
C836 C834 1.391 . S
C836 C837 1.400 . S
C837 C831 1.491 . S
C837 C836 1.400 . S
C837 C838 1.398 . S
C838 H826 0.950 . S
C838 C837 1.398 . S
C838 C839 1.391 . S
C839 H827 0.950 . S
C839 C835 1.393 . S
C839 C838 1.391 . S
H840 C848 0.950 . S
H841 C853 0.950 . S
H842 C850 0.950 . S
H843 C852 0.950 . S
H844 C854 0.950 . S
H845 C856 0.950 . S
H846 C858 0.950 . S
H847 C859 0.950 . S
C848 H840 0.950 . S
C848 C849 1.386 . S
C848 C850 1.391 . S
C849 C848 1.386 . S
C849 C853 1.393 . S
C850 H842 0.950 . S
C850 C848 1.391 . S
C850 C851 1.400 . S
C851 C850 1.400 . S
C851 C852 1.398 . S
C851 C857 1.491 . S
C852 H843 0.950 . S
C852 C851 1.398 . S
C852 C853 1.391 . S
C853 H841 0.950 . S
C853 C849 1.393 . S
C853 C852 1.391 . S
C854 H844 0.950 . S
C854 C855 1.386 . S
C854 C856 1.391 . S
C855 C854 1.386 . S
C855 C859 1.393 . S
C856 H845 0.950 . S
C856 C854 1.391 . S
C856 C857 1.400 . S
C857 C851 1.491 . S
C857 C856 1.400 . S
C857 C858 1.398 . S
C858 H846 0.950 . S
C858 C857 1.398 . S
C858 C859 1.391 . S
C859 H847 0.950 . S
C859 C855 1.393 . S
C859 C858 1.391 . S
H860 C868 0.950 . S
H861 C873 0.950 . S
H862 C870 0.950 . S
H863 C872 0.950 . S
H864 C874 0.950 . S
H865 C876 0.950 . S
H866 C878 0.950 . S
H867 C879 0.950 . S
C868 H860 0.950 . S
C868 C869 1.386 . S
C868 C870 1.391 . S
C869 C868 1.386 . S
C869 C873 1.393 . S
C870 H862 0.950 . S
C870 C868 1.391 . S
C870 C871 1.400 . S
C871 C870 1.400 . S
C871 C872 1.398 . S
C871 C877 1.491 . S
C872 H863 0.950 . S
C872 C871 1.398 . S
C872 C873 1.391 . S
C873 H861 0.950 . S
C873 C869 1.393 . S
C873 C872 1.391 . S
C874 H864 0.950 . S
C874 C875 1.386 . S
C874 C876 1.391 . S
C875 C874 1.386 . S
C875 C879 1.393 . S
C876 H865 0.950 . S
C876 C874 1.391 . S
C876 C877 1.400 . S
C877 C871 1.491 . S
C877 C876 1.400 . S
C877 C878 1.398 . S
C878 H866 0.950 . S
C878 C877 1.398 . S
C878 C879 1.391 . S
C879 H867 0.950 . S
C879 C875 1.393 . S
C879 C878 1.391 . S
H880 C888 0.950 . S
H881 C893 0.950 . S
H882 C890 0.950 . S
H883 C892 0.950 . S
H884 C894 0.950 . S
H885 C896 0.950 . S
H886 C898 0.950 . S
H887 C899 0.950 . S
C888 H880 0.950 . S
C888 C889 1.386 . S
C888 C890 1.391 . S
C889 C888 1.386 . S
C889 C893 1.393 . S
C890 H882 0.950 . S
C890 C888 1.391 . S
C890 C891 1.400 . S
C891 C890 1.400 . S
C891 C892 1.398 . S
C891 C897 1.491 . S
C892 H883 0.950 . S
C892 C891 1.398 . S
C892 C893 1.391 . S
C893 H881 0.950 . S
C893 C889 1.393 . S
C893 C892 1.391 . S
C894 H884 0.950 . S
C894 C895 1.386 . S
C894 C896 1.391 . S
C895 C894 1.386 . S
C895 C899 1.393 . S
C896 H885 0.950 . S
C896 C894 1.391 . S
C896 C897 1.400 . S
C897 C891 1.491 . S
C897 C896 1.400 . S
C897 C898 1.398 . S
C898 H886 0.950 . S
C898 C897 1.398 . S
C898 C899 1.391 . S
C899 H887 0.950 . S
C899 C895 1.393 . S
C899 C898 1.391 . S
H900 C908 0.950 . S
H901 C913 0.950 . S
H902 C910 0.950 . S
H903 C912 0.950 . S
H904 C914 0.950 . S
H905 C916 0.950 . S
H906 C918 0.950 . S
H907 C919 0.950 . S
C908 H900 0.950 . S
C908 C909 1.386 . S
C908 C910 1.391 . S
C909 C908 1.386 . S
C909 C913 1.393 . S
C910 H902 0.950 . S
C910 C908 1.391 . S
C910 C911 1.400 . S
C911 C910 1.400 . S
C911 C912 1.398 . S
C911 C917 1.491 . S
C912 H903 0.950 . S
C912 C911 1.398 . S
C912 C913 1.391 . S
C913 H901 0.950 . S
C913 C909 1.393 . S
C913 C912 1.391 . S
C914 H904 0.950 . S
C914 C915 1.386 . S
C914 C916 1.391 . S
C915 C914 1.386 . S
C915 C919 1.393 . S
C916 H905 0.950 . S
C916 C914 1.391 . S
C916 C917 1.400 . S
C917 C911 1.491 . S
C917 C916 1.400 . S
C917 C918 1.398 . S
C918 H906 0.950 . S
C918 C917 1.398 . S
C918 C919 1.391 . S
C919 H907 0.950 . S
C919 C915 1.393 . S
C919 C918 1.391 . S
H920 C928 0.950 . S
H921 C933 0.950 . S
H922 C930 0.950 . S
H923 C932 0.950 . S
H924 C934 0.950 . S
H925 C936 0.950 . S
H926 C938 0.950 . S
H927 C939 0.950 . S
C928 H920 0.950 . S
C928 C929 1.386 . S
C928 C930 1.391 . S
C929 C928 1.386 . S
C929 C933 1.393 . S
C930 H922 0.950 . S
C930 C928 1.391 . S
C930 C931 1.400 . S
C931 C930 1.400 . S
C931 C932 1.398 . S
C931 C937 1.491 . S
C932 H923 0.950 . S
C932 C931 1.398 . S
C932 C933 1.391 . S
C933 H921 0.950 . S
C933 C929 1.393 . S
C933 C932 1.391 . S
C934 H924 0.950 . S
C934 C935 1.386 . S
C934 C936 1.391 . S
C935 C934 1.386 . S
C935 C939 1.393 . S
C936 H925 0.950 . S
C936 C934 1.391 . S
C936 C937 1.400 . S
C937 C931 1.491 . S
C937 C936 1.400 . S
C937 C938 1.398 . S
C938 H926 0.950 . S
C938 C937 1.398 . S
C938 C939 1.391 . S
C939 H927 0.950 . S
C939 C935 1.393 . S
C939 C938 1.391 . S
H940 C948 0.950 . S
H941 C953 0.950 1_565 S
H942 C950 0.950 . S
H943 C952 0.950 1_565 S
H944 C954 0.950 1_565 S
H945 C956 0.950 1_565 S
H946 C958 0.950 . S
H947 C959 0.950 . S
C948 H940 0.950 . S
C948 C949 1.386 . S
C948 C950 1.391 . S
C949 C948 1.386 . S
C949 C953 1.393 . S
C950 H942 0.950 . S
C950 C948 1.391 . S
C950 C951 1.400 . S
C951 C950 1.400 . S
C951 C952 1.398 . S
C951 C957 1.491 . S
C952 H943 0.950 1_545 S
C952 C951 1.398 . S
C952 C953 1.391 . S
C953 H941 0.950 1_545 S
C953 C949 1.393 . S
C953 C952 1.391 . S
C954 H944 0.950 1_545 S
C954 C955 1.386 . S
C954 C956 1.391 1_655 S
C955 C954 1.386 . S
C955 C959 1.393 . S
C956 H945 0.950 1_545 S
C956 C954 1.391 1_455 S
C956 C957 1.400 . S
C957 C951 1.491 . S
C957 C956 1.400 . S
C957 C958 1.398 1_455 S
C958 H946 0.950 . S
C958 C957 1.398 1_655 S
C958 C959 1.391 . S
C959 H947 0.950 . S
C959 C955 1.393 . S
C959 C958 1.391 . S
H960 C968 0.950 . S
H961 C973 0.950 . S
H962 C970 0.950 . S
H963 C972 0.950 . S
H964 C974 0.950 . S
H965 C976 0.950 . S
H966 C978 0.950 . S
H967 C979 0.950 . S
C968 H960 0.950 . S
C968 C969 1.386 . S
C968 C970 1.391 . S
C969 C968 1.386 . S
C969 C973 1.393 . S
C970 H962 0.950 . S
C970 C968 1.391 . S
C970 C971 1.400 . S
C971 C970 1.400 . S
C971 C972 1.398 . S
C971 C977 1.491 . S
C972 H963 0.950 . S
C972 C971 1.398 . S
C972 C973 1.391 . S
C973 H961 0.950 . S
C973 C969 1.393 . S
C973 C972 1.391 . S
C974 H964 0.950 . S
C974 C975 1.386 . S
C974 C976 1.391 . S
C975 C974 1.386 . S
C975 C979 1.393 . S
C976 H965 0.950 . S
C976 C974 1.391 . S
C976 C977 1.400 . S
C977 C971 1.491 . S
C977 C976 1.400 . S
C977 C978 1.398 . S
C978 H966 0.950 . S
C978 C977 1.398 . S
C978 C979 1.391 . S
C979 H967 0.950 . S
C979 C975 1.393 . S
C979 C978 1.391 . S
H980 C988 0.950 . S
H981 C993 0.950 . S
H982 C990 0.950 . S
H983 C992 0.950 . S
H984 C994 0.950 . S
H985 C996 0.950 . S
H986 C998 0.950 . S
H987 C999 0.950 . S
C988 H980 0.950 . S
C988 C989 1.386 . S
C988 C990 1.391 1_655 S
C989 C988 1.386 . S
C989 C993 1.393 1_655 S
C990 H982 0.950 . S
C990 C988 1.391 1_455 S
C990 C991 1.400 . S
C991 C990 1.400 . S
C991 C992 1.398 . S
C991 C997 1.491 . S
C992 H983 0.950 . S
C992 C991 1.398 . S
C992 C993 1.391 . S
C993 H981 0.950 . S
C993 C989 1.393 1_455 S
C993 C992 1.391 . S
C994 H984 0.950 . S
C994 C995 1.386 . S
C994 C996 1.391 . S
C995 C994 1.386 . S
C995 C999 1.393 . S
C996 H985 0.950 . S
C996 C994 1.391 . S
C996 C997 1.400 . S
C997 C991 1.491 . S
C997 C996 1.400 . S
C997 C998 1.398 . S
C998 H986 0.950 . S
C998 C997 1.398 . S
C998 C999 1.391 . S
C999 H987 0.950 . S
C999 C995 1.393 . S
C999 C998 1.391 . S
H1000 C1008 0.950 . S
H1001 C1013 0.950 . S
H1002 C1010 0.950 . S
H1003 C1012 0.950 . S
H1004 C1014 0.950 . S
H1005 C1016 0.950 . S
H1006 C1018 0.950 . S
H1007 C1019 0.950 . S
C1008 H1000 0.950 . S
C1008 C1009 1.386 . S
C1008 C1010 1.391 . S
C1009 C1008 1.386 . S
C1009 C1013 1.393 . S
C1010 H1002 0.950 . S
C1010 C1008 1.391 . S
C1010 C1011 1.400 . S
C1011 C1010 1.400 . S
C1011 C1012 1.398 . S
C1011 C1017 1.491 . S
C1012 H1003 0.950 . S
C1012 C1011 1.398 . S
C1012 C1013 1.391 . S
C1013 H1001 0.950 . S
C1013 C1009 1.393 . S
C1013 C1012 1.391 . S
C1014 H1004 0.950 . S
C1014 C1015 1.386 . S
C1014 C1016 1.391 . S
C1015 C1014 1.386 . S
C1015 C1019 1.393 . S
C1016 H1005 0.950 . S
C1016 C1014 1.391 . S
C1016 C1017 1.400 . S
C1017 C1011 1.491 . S
C1017 C1016 1.400 . S
C1017 C1018 1.398 . S
C1018 H1006 0.950 . S
C1018 C1017 1.398 . S
C1018 C1019 1.391 . S
C1019 H1007 0.950 . S
C1019 C1015 1.393 . S
C1019 C1018 1.391 . S
H1020 C1028 0.950 . S
H1021 C1033 0.950 . S
H1022 C1030 0.950 . S
H1023 C1032 0.950 . S
H1024 C1034 0.950 . S
H1025 C1036 0.950 . S
H1026 C1038 0.950 . S
H1027 C1039 0.950 . S
C1028 H1020 0.950 . S
C1028 C1029 1.386 1_556 S
C1028 C1030 1.391 . S
C1029 C1028 1.386 1_554 S
C1029 C1033 1.393 . S
C1030 H1022 0.950 . S
C1030 C1028 1.391 . S
C1030 C1031 1.400 . S
C1031 C1030 1.400 . S
C1031 C1032 1.398 . S
C1031 C1037 1.491 . S
C1032 H1023 0.950 . S
C1032 C1031 1.398 . S
C1032 C1033 1.391 1_556 S
C1033 H1021 0.950 . S
C1033 C1029 1.393 . S
C1033 C1032 1.391 1_554 S
C1034 H1024 0.950 . S
C1034 C1035 1.386 . S
C1034 C1036 1.391 . S
C1035 C1034 1.386 . S
C1035 C1039 1.393 . S
C1036 H1025 0.950 . S
C1036 C1034 1.391 . S
C1036 C1037 1.400 . S
C1037 C1031 1.491 . S
C1037 C1036 1.400 . S
C1037 C1038 1.398 . S
C1038 H1026 0.950 . S
C1038 C1037 1.398 . S
C1038 C1039 1.391 . S
C1039 H1027 0.950 . S
C1039 C1035 1.393 . S
C1039 C1038 1.391 . S
H1040 C1048 0.950 . S
H1041 C1053 0.950 . S
H1042 C1050 0.950 . S
H1043 C1052 0.950 . S
H1044 C1054 0.950 . S
H1045 C1056 0.950 . S
H1046 C1058 0.950 . S
H1047 C1059 0.950 . S
C1048 H1040 0.950 . S
C1048 C1049 1.386 . S
C1048 C1050 1.391 . S
C1049 C1048 1.386 . S
C1049 C1053 1.393 . S
C1050 H1042 0.950 . S
C1050 C1048 1.391 . S
C1050 C1051 1.400 . S
C1051 C1050 1.400 . S
C1051 C1052 1.398 . S
C1051 C1057 1.491 . S
C1052 H1043 0.950 . S
C1052 C1051 1.398 . S
C1052 C1053 1.391 . S
C1053 H1041 0.950 . S
C1053 C1049 1.393 . S
C1053 C1052 1.391 . S
C1054 H1044 0.950 . S
C1054 C1055 1.386 . S
C1054 C1056 1.391 . S
C1055 C1054 1.386 . S
C1055 C1059 1.393 . S
C1056 H1045 0.950 . S
C1056 C1054 1.391 . S
C1056 C1057 1.400 . S
C1057 C1051 1.491 . S
C1057 C1056 1.400 . S
C1057 C1058 1.398 . S
C1058 H1046 0.950 . S
C1058 C1057 1.398 . S
C1058 C1059 1.391 . S
C1059 H1047 0.950 . S
C1059 C1055 1.393 . S
C1059 C1058 1.391 . S
H1060 C1068 0.950 1_554 S
H1061 C1073 0.950 . S
H1062 C1070 0.950 . S
H1063 C1072 0.950 . S
H1064 C1074 0.950 . S
H1065 C1076 0.950 . S
H1066 C1078 0.950 . S
H1067 C1079 0.950 . S
C1068 H1060 0.950 1_556 S
C1068 C1069 1.386 . S
C1068 C1070 1.391 . S
C1069 C1068 1.386 . S
C1069 C1073 1.393 . S
C1070 H1062 0.950 . S
C1070 C1068 1.391 . S
C1070 C1071 1.400 . S
C1071 C1070 1.400 . S
C1071 C1072 1.398 . S
C1071 C1077 1.491 . S
C1072 H1063 0.950 . S
C1072 C1071 1.398 . S
C1072 C1073 1.391 . S
C1073 H1061 0.950 . S
C1073 C1069 1.393 . S
C1073 C1072 1.391 . S
C1074 H1064 0.950 . S
C1074 C1075 1.386 . S
C1074 C1076 1.391 . S
C1075 C1074 1.386 . S
C1075 C1079 1.393 . S
C1076 H1065 0.950 . S
C1076 C1074 1.391 . S
C1076 C1077 1.400 . S
C1077 C1071 1.491 . S
C1077 C1076 1.400 . S
C1077 C1078 1.398 . S
C1078 H1066 0.950 . S
C1078 C1077 1.398 . S
C1078 C1079 1.391 . S
C1079 H1067 0.950 . S
C1079 C1075 1.393 . S
C1079 C1078 1.391 . S
H1080 C1088 0.950 . S
H1081 C1093 0.950 . S
H1082 C1090 0.950 . S
H1083 C1092 0.950 . S
H1084 C1094 0.950 . S
H1085 C1096 0.950 . S
H1086 C1098 0.950 . S
H1087 C1099 0.950 . S
C1088 H1080 0.950 . S
C1088 C1089 1.386 . S
C1088 C1090 1.391 . S
C1089 C1088 1.386 . S
C1089 C1093 1.393 . S
C1090 H1082 0.950 . S
C1090 C1088 1.391 . S
C1090 C1091 1.400 . S
C1091 C1090 1.400 . S
C1091 C1092 1.398 . S
C1091 C1097 1.491 . S
C1092 H1083 0.950 . S
C1092 C1091 1.398 . S
C1092 C1093 1.391 . S
C1093 H1081 0.950 . S
C1093 C1089 1.393 . S
C1093 C1092 1.391 . S
C1094 H1084 0.950 . S
C1094 C1095 1.386 . S
C1094 C1096 1.391 . S
C1095 C1094 1.386 . S
C1095 C1099 1.393 . S
C1096 H1085 0.950 . S
C1096 C1094 1.391 . S
C1096 C1097 1.400 . S
C1097 C1091 1.491 . S
C1097 C1096 1.400 . S
C1097 C1098 1.398 . S
C1098 H1086 0.950 . S
C1098 C1097 1.398 . S
C1098 C1099 1.391 . S
C1099 H1087 0.950 . S
C1099 C1095 1.393 . S
C1099 C1098 1.391 . S
H1100 C1108 0.950 . S
H1101 C1113 0.950 1_556 S
H1102 C1110 0.950 . S
H1103 C1112 0.950 . S
H1104 C1114 0.950 . S
H1105 C1116 0.950 . S
H1106 C1118 0.950 . S
H1107 C1119 0.950 . S
C1108 H1100 0.950 . S
C1108 C1109 1.386 . S
C1108 C1110 1.391 . S
C1109 C1108 1.386 . S
C1109 C1113 1.393 . S
C1110 H1102 0.950 . S
C1110 C1108 1.391 . S
C1110 C1111 1.400 . S
C1111 C1110 1.400 . S
C1111 C1112 1.398 . S
C1111 C1117 1.491 . S
C1112 H1103 0.950 . S
C1112 C1111 1.398 . S
C1112 C1113 1.391 . S
C1113 H1101 0.950 1_554 S
C1113 C1109 1.393 . S
C1113 C1112 1.391 . S
C1114 H1104 0.950 . S
C1114 C1115 1.386 . S
C1114 C1116 1.391 . S
C1115 C1114 1.386 . S
C1115 C1119 1.393 . S
C1116 H1105 0.950 . S
C1116 C1114 1.391 . S
C1116 C1117 1.400 . S
C1117 C1111 1.491 . S
C1117 C1116 1.400 . S
C1117 C1118 1.398 . S
C1118 H1106 0.950 . S
C1118 C1117 1.398 . S
C1118 C1119 1.391 . S
C1119 H1107 0.950 . S
C1119 C1115 1.393 . S
C1119 C1118 1.391 . S
H1120 C1128 0.950 . S
H1121 C1133 0.950 . S
H1122 C1130 0.950 . S
H1123 C1132 0.950 . S
H1124 C1134 0.950 . S
H1125 C1136 0.950 . S
H1126 C1138 0.950 . S
H1127 C1139 0.950 . S
C1128 H1120 0.950 . S
C1128 C1129 1.386 . S
C1128 C1130 1.391 . S
C1129 C1128 1.386 . S
C1129 C1133 1.393 . S
C1130 H1122 0.950 . S
C1130 C1128 1.391 . S
C1130 C1131 1.400 . S
C1131 C1130 1.400 . S
C1131 C1132 1.398 . S
C1131 C1137 1.491 . S
C1132 H1123 0.950 . S
C1132 C1131 1.398 . S
C1132 C1133 1.391 . S
C1133 H1121 0.950 . S
C1133 C1129 1.393 . S
C1133 C1132 1.391 . S
C1134 H1124 0.950 . S
C1134 C1135 1.386 . S
C1134 C1136 1.391 . S
C1135 C1134 1.386 . S
C1135 C1139 1.393 . S
C1136 H1125 0.950 . S
C1136 C1134 1.391 . S
C1136 C1137 1.400 . S
C1137 C1131 1.491 . S
C1137 C1136 1.400 . S
C1137 C1138 1.398 . S
C1138 H1126 0.950 . S
C1138 C1137 1.398 . S
C1138 C1139 1.391 . S
C1139 H1127 0.950 . S
C1139 C1135 1.393 . S
C1139 C1138 1.391 . S
H1140 C1148 0.950 . S
H1141 C1153 0.950 . S
H1142 C1150 0.950 . S
H1143 C1152 0.950 . S
H1144 C1154 0.950 . S
H1145 C1156 0.950 . S
H1146 C1158 0.950 . S
H1147 C1159 0.950 . S
C1148 H1140 0.950 . S
C1148 C1149 1.386 . S
C1148 C1150 1.391 1_556 S
C1149 C1148 1.386 . S
C1149 C1153 1.393 . S
C1150 H1142 0.950 . S
C1150 C1148 1.391 1_554 S
C1150 C1151 1.400 . S
C1151 C1150 1.400 . S
C1151 C1152 1.398 . S
C1151 C1157 1.491 . S
C1152 H1143 0.950 . S
C1152 C1151 1.398 . S
C1152 C1153 1.391 1_554 S
C1153 H1141 0.950 . S
C1153 C1149 1.393 . S
C1153 C1152 1.391 1_556 S
C1154 H1144 0.950 . S
C1154 C1155 1.386 . S
C1154 C1156 1.391 . S
C1155 C1154 1.386 . S
C1155 C1159 1.393 . S
C1156 H1145 0.950 . S
C1156 C1154 1.391 . S
C1156 C1157 1.400 . S
C1157 C1151 1.491 . S
C1157 C1156 1.400 . S
C1157 C1158 1.398 . S
C1158 H1146 0.950 . S
C1158 C1157 1.398 . S
C1158 C1159 1.391 . S
C1159 H1147 0.950 . S
C1159 C1155 1.393 . S
C1159 C1158 1.391 . S
H1160 C1168 0.950 . S
H1161 C1173 0.950 . S
H1162 C1170 0.950 . S
H1163 C1172 0.950 . S
H1164 C1174 0.950 . S
H1165 C1176 0.950 . S
H1166 C1178 0.950 . S
H1167 C1179 0.950 . S
C1168 H1160 0.950 . S
C1168 C1169 1.386 . S
C1168 C1170 1.391 . S
C1169 C1168 1.386 . S
C1169 C1173 1.393 . S
C1170 H1162 0.950 . S
C1170 C1168 1.391 . S
C1170 C1171 1.400 . S
C1171 C1170 1.400 . S
C1171 C1172 1.398 . S
C1171 C1177 1.491 . S
C1172 H1163 0.950 . S
C1172 C1171 1.398 . S
C1172 C1173 1.391 . S
C1173 H1161 0.950 . S
C1173 C1169 1.393 . S
C1173 C1172 1.391 . S
C1174 H1164 0.950 . S
C1174 C1175 1.386 . S
C1174 C1176 1.391 . S
C1175 C1174 1.386 . S
C1175 C1179 1.393 . S
C1176 H1165 0.950 . S
C1176 C1174 1.391 . S
C1176 C1177 1.400 . S
C1177 C1171 1.491 . S
C1177 C1176 1.400 . S
C1177 C1178 1.398 . S
C1178 H1166 0.950 . S
C1178 C1177 1.398 . S
C1178 C1179 1.391 . S
C1179 H1167 0.950 . S
C1179 C1175 1.393 . S
C1179 C1178 1.391 . S
H1180 C1188 0.950 . S
H1181 C1193 0.950 . S
H1182 C1190 0.950 . S
H1183 C1192 0.950 . S
H1184 C1194 0.950 . S
H1185 C1196 0.950 . S
H1186 C1198 0.950 . S
H1187 C1199 0.950 . S
C1188 H1180 0.950 . S
C1188 C1189 1.386 . S
C1188 C1190 1.391 . S
C1189 C1188 1.386 . S
C1189 C1193 1.393 . S
C1190 H1182 0.950 . S
C1190 C1188 1.391 . S
C1190 C1191 1.400 . S
C1191 C1190 1.400 . S
C1191 C1192 1.398 . S
C1191 C1197 1.491 . S
C1192 H1183 0.950 . S
C1192 C1191 1.398 . S
C1192 C1193 1.391 . S
C1193 H1181 0.950 . S
C1193 C1189 1.393 . S
C1193 C1192 1.391 . S
C1194 H1184 0.950 . S
C1194 C1195 1.386 . S
C1194 C1196 1.391 . S
C1195 C1194 1.386 . S
C1195 C1199 1.393 . S
C1196 H1185 0.950 . S
C1196 C1194 1.391 . S
C1196 C1197 1.400 . S
C1197 C1191 1.491 . S
C1197 C1196 1.400 . S
C1197 C1198 1.398 . S
C1198 H1186 0.950 . S
C1198 C1197 1.398 . S
C1198 C1199 1.391 . S
C1199 H1187 0.950 . S
C1199 C1195 1.393 . S
C1199 C1198 1.391 . S
H1200 C1208 0.950 . S
H1201 C1213 0.950 . S
H1202 C1210 0.950 . S
H1203 C1212 0.950 . S
H1204 C1214 0.950 . S
H1205 C1216 0.950 . S
H1206 C1218 0.950 . S
H1207 C1219 0.950 . S
C1208 H1200 0.950 . S
C1208 C1209 1.386 . S
C1208 C1210 1.391 . S
C1209 C1208 1.386 . S
C1209 C1213 1.393 . S
C1210 H1202 0.950 . S
C1210 C1208 1.391 . S
C1210 C1211 1.400 . S
C1211 C1210 1.400 . S
C1211 C1212 1.398 . S
C1211 C1217 1.491 . S
C1212 H1203 0.950 . S
C1212 C1211 1.398 . S
C1212 C1213 1.391 . S
C1213 H1201 0.950 . S
C1213 C1209 1.393 . S
C1213 C1212 1.391 . S
C1214 H1204 0.950 . S
C1214 C1215 1.386 . S
C1214 C1216 1.391 . S
C1215 C1214 1.386 . S
C1215 C1219 1.393 . S
C1216 H1205 0.950 . S
C1216 C1214 1.391 . S
C1216 C1217 1.400 . S
C1217 C1211 1.491 . S
C1217 C1216 1.400 . S
C1217 C1218 1.398 . S
C1218 H1206 0.950 . S
C1218 C1217 1.398 . S
C1218 C1219 1.391 . S
C1219 H1207 0.950 . S
C1219 C1215 1.393 . S
C1219 C1218 1.391 . S
H1220 C1228 0.950 . S
H1221 C1233 0.950 . S
H1222 C1230 0.950 . S
H1223 C1232 0.950 . S
H1224 C1234 0.950 . S
H1225 C1236 0.950 . S
H1226 C1238 0.950 . S
H1227 C1239 0.950 . S
C1228 H1220 0.950 . S
C1228 C1229 1.386 . S
C1228 C1230 1.391 . S
C1229 C1228 1.386 . S
C1229 C1233 1.393 . S
C1230 H1222 0.950 . S
C1230 C1228 1.391 . S
C1230 C1231 1.400 . S
C1231 C1230 1.400 . S
C1231 C1232 1.398 . S
C1231 C1237 1.491 . S
C1232 H1223 0.950 . S
C1232 C1231 1.398 . S
C1232 C1233 1.391 . S
C1233 H1221 0.950 . S
C1233 C1229 1.393 . S
C1233 C1232 1.391 . S
C1234 H1224 0.950 . S
C1234 C1235 1.386 . S
C1234 C1236 1.391 . S
C1235 C1234 1.386 . S
C1235 C1239 1.393 . S
C1236 H1225 0.950 . S
C1236 C1234 1.391 . S
C1236 C1237 1.400 . S
C1237 C1231 1.491 . S
C1237 C1236 1.400 . S
C1237 C1238 1.398 . S
C1238 H1226 0.950 . S
C1238 C1237 1.398 . S
C1238 C1239 1.391 . S
C1239 H1227 0.950 . S
C1239 C1235 1.393 . S
C1239 C1238 1.391 . S
H1240 C1248 0.950 . S
H1241 C1253 0.950 . S
H1242 C1250 0.950 . S
H1243 C1252 0.950 . S
H1244 C1254 0.950 . S
H1245 C1256 0.950 . S
H1246 C1258 0.950 1_554 S
H1247 C1259 0.930 1_554 S
C1248 H1240 0.950 . S
C1248 C1249 1.386 . S
C1248 C1250 1.391 . S
C1249 C1248 1.386 . S
C1249 C1253 1.393 . S
C1250 H1242 0.950 . S
C1250 C1248 1.391 . S
C1250 C1251 1.400 . S
C1251 C1250 1.400 . S
C1251 C1252 1.398 . S
C1251 C1257 1.491 . S
C1252 H1243 0.950 . S
C1252 C1251 1.398 . S
C1252 C1253 1.391 . S
C1253 H1241 0.950 . S
C1253 C1249 1.393 . S
C1253 C1252 1.391 . S
C1254 H1244 0.950 . S
C1254 C1255 1.386 . S
C1254 C1256 1.391 . S
C1255 C1254 1.386 . S
C1255 C1259 1.412 . S
C1256 H1245 0.950 . S
C1256 C1254 1.391 . S
C1256 C1257 1.400 . S
C1257 C1251 1.491 . S
C1257 C1256 1.400 . S
C1257 C1258 1.398 . S
C1258 H1246 0.950 1_556 S
C1258 C1257 1.398 . S
C1258 C1259 1.393 . S
C1259 H1247 0.930 1_556 S
C1259 C1255 1.412 . S
C1259 C1258 1.393 . S
H1260 C1268 0.950 . S
H1261 C1273 0.950 . S
H1262 C1270 0.950 . S
H1263 C1272 0.950 . S
H1264 C1274 0.950 . S
H1265 C1276 0.950 . S
H1266 C1278 0.950 . S
H1267 C1279 0.950 . S
C1268 H1260 0.950 . S
C1268 C1269 1.386 . S
C1268 C1270 1.391 . S
C1269 C1268 1.386 . S
C1269 C1273 1.393 . S
C1270 H1262 0.950 . S
C1270 C1268 1.391 . S
C1270 C1271 1.400 . S
C1271 C1270 1.400 . S
C1271 C1272 1.398 . S
C1271 C1277 1.491 . S
C1272 H1263 0.950 . S
C1272 C1271 1.398 . S
C1272 C1273 1.391 . S
C1273 H1261 0.950 . S
C1273 C1269 1.393 . S
C1273 C1272 1.391 . S
C1274 H1264 0.950 . S
C1274 C1275 1.386 . S
C1274 C1276 1.391 . S
C1275 C1274 1.386 . S
C1275 C1279 1.393 . S
C1276 H1265 0.950 . S
C1276 C1274 1.391 . S
C1276 C1277 1.400 . S
C1277 C1271 1.491 . S
C1277 C1276 1.400 . S
C1277 C1278 1.398 . S
C1278 H1266 0.950 . S
C1278 C1277 1.398 . S
C1278 C1279 1.391 . S
C1279 H1267 0.950 . S
C1279 C1275 1.393 . S
C1279 C1278 1.391 . S
H1280 C1288 0.950 . S
H1281 C1293 0.950 . S
H1282 C1290 0.950 . S
H1283 C1292 0.950 . S
H1284 C1294 0.950 . S
H1285 C1296 0.950 . S
H1286 C1298 0.950 . S
H1287 C1299 0.950 . S
C1288 H1280 0.950 . S
C1288 C1289 1.386 . S
C1288 C1290 1.391 . S
C1289 C1288 1.386 . S
C1289 C1293 1.393 . S
C1290 H1282 0.950 . S
C1290 C1288 1.391 . S
C1290 C1291 1.400 . S
C1291 C1290 1.400 . S
C1291 C1292 1.398 . S
C1291 C1297 1.491 . S
C1292 H1283 0.950 . S
C1292 C1291 1.398 . S
C1292 C1293 1.391 . S
C1293 H1281 0.950 . S
C1293 C1289 1.393 . S
C1293 C1292 1.391 . S
C1294 H1284 0.950 . S
C1294 C1295 1.386 . S
C1294 C1296 1.391 . S
C1295 C1294 1.386 . S
C1295 C1299 1.393 . S
C1296 H1285 0.950 . S
C1296 C1294 1.391 . S
C1296 C1297 1.400 . S
C1297 C1291 1.491 . S
C1297 C1296 1.400 . S
C1297 C1298 1.398 . S
C1298 H1286 0.950 . S
C1298 C1297 1.398 . S
C1298 C1299 1.391 . S
C1299 H1287 0.950 . S
C1299 C1295 1.393 . S
C1299 C1298 1.391 . S
H1300 C1308 0.950 . S
H1301 C1313 0.950 . S
H1302 C1310 0.950 . S
H1303 C1312 0.950 . S
H1304 C1314 0.950 . S
H1305 C1316 0.950 . S
H1306 C1318 0.950 . S
H1307 C1319 0.950 . S
C1308 H1300 0.950 . S
C1308 C1309 1.386 . S
C1308 C1310 1.391 . S
C1309 C1308 1.386 . S
C1309 C1313 1.393 1_545 S
C1310 H1302 0.950 . S
C1310 C1308 1.391 . S
C1310 C1311 1.400 1_545 S
C1311 C1310 1.400 1_565 S
C1311 C1312 1.398 . S
C1311 C1317 1.491 . S
C1312 H1303 0.950 . S
C1312 C1311 1.398 . S
C1312 C1313 1.391 . S
C1313 H1301 0.950 . S
C1313 C1309 1.393 1_565 S
C1313 C1312 1.391 . S
C1314 H1304 0.950 . S
C1314 C1315 1.386 . S
C1314 C1316 1.391 . S
C1315 C1314 1.386 . S
C1315 C1319 1.393 . S
C1316 H1305 0.950 . S
C1316 C1314 1.391 . S
C1316 C1317 1.400 . S
C1317 C1311 1.491 . S
C1317 C1316 1.400 . S
C1317 C1318 1.398 . S
C1318 H1306 0.950 . S
C1318 C1317 1.398 . S
C1318 C1319 1.391 . S
C1319 H1307 0.950 . S
C1319 C1315 1.393 . S
C1319 C1318 1.391 . S
C375 C200 1.707 . S
C369 C66 1.767 . S
C395 C213 1.121 . S
C389 C76 1.112 1_455 S
C409 C93 1.958 . S
C415 C233 1.799 . S
C435 C247 1.299 . S
C429 C54 1.414 . S
C455 C259 1.525 . S
C449 C126 1.540 . S
C475 C273 1.738 . S
C469 C150 1.751 . S
C489 C136 1.121 . S
C495 C283 1.132 . S
C515 C298 1.788 . S
C509 C117 1.814 . S
C529 C141 1.276 . S
C535 C312 1.237 . S
C555 C331 1.245 . S
C549 C112 1.278 . S
C569 C124 1.541 . S
C575 C311 1.519 . S
C595 C329 1.237 . S
C589 C148 1.235 . S
C609 C88 1.443 . S
C615 C345 1.383 . S
C629 C52 1.598 . S
C635 C339 1.598 . S
C649 C64 1.285 . S
C655 C343 1.282 . S
C669 C78 1.230 . S
C675 C340 1.218 . S
C689 C45 1.728 . S
C695 C242 1.702 . S
C709 C177 1.823 . S
C715 C241 1.810 . S
C735 C205 1.256 . S
C729 C189 1.324 . S
C755 C219 1.642 . S
C749 C102 1.748 . S
C769 C57 1.737 1_545 S
C775 C256 1.710 . S
C795 C301 1.487 . S
C789 C138 1.489 . S
C815 C255 1.738 . S
C809 C114 1.758 1_545 S
C835 C287 1.645 . S
C829 C153 1.653 . S
C855 C284 1.711 . S
C849 C174 1.770 . S
C869 C184 1.137 . S
C875 C297 1.122 . S
C889 C105 1.952 . S
C895 C261 1.782 . S
C915 C275 1.326 . S
C909 C162 1.413 . S
C929 C42 1.539 . S
C935 C231 1.521 . S
C955 C245 1.745 . S
C949 C6 1.749 . S
C975 C199 1.130 . S
C969 C16 1.130 . S
C995 C214 1.800 . S
C989 C33 1.814 . S
C1009 C21 1.279 . S
C1015 C326 1.259 . S
C1029 C28 1.273 . S
C1035 C317 1.236 . S
C1049 C40 1.542 . S
C1055 C325 1.529 . S
C1069 C4 1.226 1_556 S
C1075 C315 1.240 . S
C1095 C359 1.378 . S
C1089 C100 1.441 . S
C1115 C353 1.600 . S
C1109 C160 1.601 1_554 S
C1135 C357 1.281 . S
C1129 C172 1.289 . S
C1149 C186 1.228 . S
C1155 C354 1.200 . S
C1169 C129 1.729 . S
C1175 C270 1.715 . S
C1195 C269 1.799 . S
C1189 C69 1.824 . S
C1215 C289 1.255 . S
C1209 C81 1.321 . S
C1235 C303 1.637 . S
C1229 C90 1.747 . S
C1249 C165 1.738 . S
C1255 C228 1.713 . S
C1275 C217 1.486 . S
C1269 C18 1.489 . S
C1289 C30 1.759 . S
C1295 C227 1.738 . S
C1315 C203 1.651 . S
C1309 C9 1.649 . S
