# Generated by pormake.
# Topology eea, (3,6)-cn, num edge types: 1
# Building blocks:
#     Node 0, Type 0, BuildingBlock: BETDIP_clean_linker_0, # of connection points: 3
#     Node 1, Type 0, BuildingBlock: BETDIP_clean_linker_0, # of connection points: 3
#     Node 2, Type 0, BuildingBlock: BETDIP_clean_linker_0, # of connection points: 3
#     Node 3, Type 0, BuildingBlock: BETDIP_clean_linker_0, # of connection points: 3
#     Node 4, Type 0, BuildingBlock: BETDIP_clean_linker_0, # of connection points: 3
#     Node 5, Type 0, BuildingBlock: BETDIP_clean_linker_0, # of connection points: 3
#     Node 6, Type 0, BuildingBlock: BETDIP_clean_linker_0, # of connection points: 3
#     Node 7, Type 0, BuildingBlock: BETDIP_clean_linker_0, # of connection points: 3
#     Node 8, Type 0, BuildingBlock: BETDIP_clean_linker_0, # of connection points: 3
#     Node 9, Type 0, BuildingBlock: BETDIP_clean_linker_0, # of connection points: 3
#     Node 10, Type 0, BuildingBlock: BETDIP_clean_linker_0, # of connection points: 3
#     Node 11, Type 0, BuildingBlock: BETDIP_clean_linker_0, # of connection points: 3
#     Node 12, Type 0, BuildingBlock: BETDIP_clean_linker_0, # of connection points: 3
#     Node 13, Type 0, BuildingBlock: BETDIP_clean_linker_0, # of connection points: 3
#     Node 14, Type 0, BuildingBlock: BETDIP_clean_linker_0, # of connection points: 3
#     Node 15, Type 0, BuildingBlock: BETDIP_clean_linker_0, # of connection points: 3
#     Node 16, Type 0, BuildingBlock: BETDIP_clean_linker_0, # of connection points: 3
#     Node 17, Type 0, BuildingBlock: BETDIP_clean_linker_0, # of connection points: 3
#     Node 18, Type 1, BuildingBlock: NUHQIS_clean_sbu_0, # of connection points: 6
#     Node 19, Type 1, BuildingBlock: NUHQIS_clean_sbu_0, # of connection points: 6
#     Node 20, Type 1, BuildingBlock: NUHQIS_clean_sbu_0, # of connection points: 6
#     Node 21, Type 1, BuildingBlock: NUHQIS_clean_sbu_0, # of connection points: 6
#     Node 22, Type 1, BuildingBlock: NUHQIS_clean_sbu_0, # of connection points: 6
#     Node 23, Type 1, BuildingBlock: NUHQIS_clean_sbu_0, # of connection points: 6
#     Node 24, Type 1, BuildingBlock: NUHQIS_clean_sbu_0, # of connection points: 6
#     Node 25, Type 1, BuildingBlock: NUHQIS_clean_sbu_0, # of connection points: 6
#     Node 26, Type 1, BuildingBlock: NUHQIS_clean_sbu_0, # of connection points: 6
#     Edge 27, Type (0, 1), BuildingBlock: AJUNOK_clean_linker_0, # of connection points: 2
#     Edge 28, Type (0, 1), BuildingBlock: AJUNOK_clean_linker_0, # of connection points: 2
#     Edge 29, Type (0, 1), BuildingBlock: AJUNOK_clean_linker_0, # of connection points: 2
#     Edge 30, Type (0, 1), BuildingBlock: AJUNOK_clean_linker_0, # of connection points: 2
#     Edge 31, Type (0, 1), BuildingBlock: AJUNOK_clean_linker_0, # of connection points: 2
#     Edge 32, Type (0, 1), BuildingBlock: AJUNOK_clean_linker_0, # of connection points: 2
#     Edge 33, Type (0, 1), BuildingBlock: AJUNOK_clean_linker_0, # of connection points: 2
#     Edge 34, Type (0, 1), BuildingBlock: AJUNOK_clean_linker_0, # of connection points: 2
#     Edge 35, Type (0, 1), BuildingBlock: AJUNOK_clean_linker_0, # of connection points: 2
#     Edge 36, Type (0, 1), BuildingBlock: AJUNOK_clean_linker_0, # of connection points: 2
#     Edge 37, Type (0, 1), BuildingBlock: AJUNOK_clean_linker_0, # of connection points: 2
#     Edge 38, Type (0, 1), BuildingBlock: AJUNOK_clean_linker_0, # of connection points: 2
#     Edge 39, Type (0, 1), BuildingBlock: AJUNOK_clean_linker_0, # of connection points: 2
#     Edge 40, Type (0, 1), BuildingBlock: AJUNOK_clean_linker_0, # of connection points: 2
#     Edge 41, Type (0, 1), BuildingBlock: AJUNOK_clean_linker_0, # of connection points: 2
#     Edge 42, Type (0, 1), BuildingBlock: AJUNOK_clean_linker_0, # of connection points: 2
#     Edge 43, Type (0, 1), BuildingBlock: AJUNOK_clean_linker_0, # of connection points: 2
#     Edge 44, Type (0, 1), BuildingBlock: AJUNOK_clean_linker_0, # of connection points: 2
#     Edge 45, Type (0, 1), BuildingBlock: AJUNOK_clean_linker_0, # of connection points: 2
#     Edge 46, Type (0, 1), BuildingBlock: AJUNOK_clean_linker_0, # of connection points: 2
#     Edge 47, Type (0, 1), BuildingBlock: AJUNOK_clean_linker_0, # of connection points: 2
#     Edge 48, Type (0, 1), BuildingBlock: AJUNOK_clean_linker_0, # of connection points: 2
#     Edge 49, Type (0, 1), BuildingBlock: AJUNOK_clean_linker_0, # of connection points: 2
#     Edge 50, Type (0, 1), BuildingBlock: AJUNOK_clean_linker_0, # of connection points: 2
#     Edge 51, Type (0, 1), BuildingBlock: AJUNOK_clean_linker_0, # of connection points: 2
#     Edge 52, Type (0, 1), BuildingBlock: AJUNOK_clean_linker_0, # of connection points: 2
#     Edge 53, Type (0, 1), BuildingBlock: AJUNOK_clean_linker_0, # of connection points: 2
#     Edge 54, Type (0, 1), BuildingBlock: AJUNOK_clean_linker_0, # of connection points: 2
#     Edge 55, Type (0, 1), BuildingBlock: AJUNOK_clean_linker_0, # of connection points: 2
#     Edge 56, Type (0, 1), BuildingBlock: AJUNOK_clean_linker_0, # of connection points: 2
#     Edge 57, Type (0, 1), BuildingBlock: AJUNOK_clean_linker_0, # of connection points: 2
#     Edge 58, Type (0, 1), BuildingBlock: AJUNOK_clean_linker_0, # of connection points: 2
#     Edge 59, Type (0, 1), BuildingBlock: AJUNOK_clean_linker_0, # of connection points: 2
#     Edge 60, Type (0, 1), BuildingBlock: AJUNOK_clean_linker_0, # of connection points: 2
#     Edge 61, Type (0, 1), BuildingBlock: AJUNOK_clean_linker_0, # of connection points: 2
#     Edge 62, Type (0, 1), BuildingBlock: AJUNOK_clean_linker_0, # of connection points: 2
#     Edge 63, Type (0, 1), BuildingBlock: AJUNOK_clean_linker_0, # of connection points: 2
#     Edge 64, Type (0, 1), BuildingBlock: AJUNOK_clean_linker_0, # of connection points: 2
#     Edge 65, Type (0, 1), BuildingBlock: AJUNOK_clean_linker_0, # of connection points: 2
#     Edge 66, Type (0, 1), BuildingBlock: AJUNOK_clean_linker_0, # of connection points: 2
#     Edge 67, Type (0, 1), BuildingBlock: AJUNOK_clean_linker_0, # of connection points: 2
#     Edge 68, Type (0, 1), BuildingBlock: AJUNOK_clean_linker_0, # of connection points: 2
#     Edge 69, Type (0, 1), BuildingBlock: AJUNOK_clean_linker_0, # of connection points: 2
#     Edge 70, Type (0, 1), BuildingBlock: AJUNOK_clean_linker_0, # of connection points: 2
#     Edge 71, Type (0, 1), BuildingBlock: AJUNOK_clean_linker_0, # of connection points: 2
#     Edge 72, Type (0, 1), BuildingBlock: AJUNOK_clean_linker_0, # of connection points: 2
#     Edge 73, Type (0, 1), BuildingBlock: AJUNOK_clean_linker_0, # of connection points: 2
#     Edge 74, Type (0, 1), BuildingBlock: AJUNOK_clean_linker_0, # of connection points: 2
#     Edge 75, Type (0, 1), BuildingBlock: AJUNOK_clean_linker_0, # of connection points: 2
#     Edge 76, Type (0, 1), BuildingBlock: AJUNOK_clean_linker_0, # of connection points: 2
#     Edge 77, Type (0, 1), BuildingBlock: AJUNOK_clean_linker_0, # of connection points: 2
#     Edge 78, Type (0, 1), BuildingBlock: AJUNOK_clean_linker_0, # of connection points: 2
#     Edge 79, Type (0, 1), BuildingBlock: AJUNOK_clean_linker_0, # of connection points: 2
#     Edge 80, Type (0, 1), BuildingBlock: AJUNOK_clean_linker_0, # of connection points: 2
# Relax obj value: 0.062
# Max RMSD: 0.227
# Mean RMSD: 0.162
data_MOF--net-eea--node1-NUHQIS_clean_sbu_0--node2-BETDIP_clean_linker_0--edge1-AJUNOK_clean_linker_0
_symmetry_space_group_name_H-M    P1
_symmetry_Int_Tables_number       1
_symmetry_cell_setting            triclinic
loop_
_symmetry_equiv_pos_as_xyz
'x, y, z'
_cell_length_a     39.499363
_cell_length_b     40.174437
_cell_length_c     54.648054
_cell_angle_alpha  92.558895
_cell_angle_beta   92.577054
_cell_angle_gamma 120.15591
loop_
_atom_site_label
_atom_site_type_symbol
_atom_site_fract_x
_atom_site_fract_y
_atom_site_fract_z
_atom_type_partial_charge
H0 H 0.23553 0.09983 0.3766 0.0
H1 H 0.28234 0.17687 0.44205 0.0
H2 H 0.27904 0.06836 0.4399 0.0
H3 H 0.23428 0.18913 0.4296 0.0
C4 C 0.23636 0.19049 0.40988 0.0
C5 C 0.24847 0.1062 0.39534 0.0
C6 C 0.25639 0.07987 0.40666 0.0
C7 C 0.25634 0.1405 0.40824 0.0
C8 C 0.27424 0.14952 0.43232 0.0
C9 C 0.28257 0.12362 0.44383 0.0
C10 C 0.27356 0.08889 0.43087 0.0
N11 N 0.24548 0.16511 0.39667 0.0
H12 H 0.93686 0.13906 0.38003 0.0
H13 H 0.8765 0.11241 0.44629 0.0
H14 H 0.97784 0.22376 0.44208 0.0
H15 H 0.82663 0.07003 0.42249 0.0
C16 C 0.83817 0.0592 0.40859 0.0
C17 C 0.93414 0.14758 0.39859 0.0
C18 C 0.96122 0.18489 0.40928 0.0
C19 C 0.90292 0.12136 0.41151 0.0
C20 C 0.89959 0.13238 0.43566 0.0
C21 C 0.92581 0.16951 0.44649 0.0
C22 C 0.9568 0.19552 0.43334 0.0
N23 N 0.8756 0.08412 0.39994 0.0
H24 H 0.88951 0.79453 0.38539 0.0
H25 H 0.92617 0.7515 0.4456 0.0
H26 H 0.81794 0.75216 0.44641 0.0
H27 H 0.98615 0.79084 0.43378 0.0
C28 C 0.98339 0.79186 0.41402 0.0
C29 C 0.88437 0.78233 0.40306 0.0
C30 C 0.8496 0.77329 0.41416 0.0
C31 C 0.91283 0.77591 0.41452 0.0
C32 C 0.90559 0.75859 0.43707 0.0
C33 C 0.87081 0.74896 0.44836 0.0
C34 C 0.84367 0.75752 0.4371 0.0
N35 N 0.94774 0.78638 0.40248 0.0
H36 H 0.0954 0.21071 0.64124 0.0
H37 H 0.17442 0.26087 0.58473 0.0
H38 H 0.07281 0.27321 0.58688 0.0
H39 H 0.19151 0.21728 0.59404 0.0
C40 C 0.19059 0.21647 0.61384 0.0
C41 C 0.1034 0.22718 0.62519 0.0
C42 C 0.07908 0.24026 0.61521 0.0
C43 C 0.13765 0.23422 0.61435 0.0
C44 C 0.14805 0.25513 0.59329 0.0
C45 C 0.12461 0.26904 0.58316 0.0
C46 C 0.0903 0.2616 0.59429 0.0
N47 N 0.16145 0.22087 0.62555 0.0
H48 H 0.80977 0.88331 0.65589 0.0
H49 H 0.75568 0.90638 0.59411 0.0
H50 H 0.7554 0.79974 0.59343 0.0
H51 H 0.74999 0.94528 0.62065 0.0
C52 C 0.77573 0.95699 0.63356 0.0
C53 C 0.79306 0.87382 0.6382 0.0
C54 C 0.78326 0.83795 0.62631 0.0
C55 C 0.78207 0.89815 0.6272 0.0
C56 C 0.76274 0.88727 0.60351 0.0
C57 C 0.75299 0.85182 0.59132 0.0
C58 C 0.76287 0.82711 0.60291 0.0
N59 N 0.79242 0.93407 0.63989 0.0
H60 H 0.1505 0.92 0.65227 0.0
H61 H 0.10709 0.84348 0.58618 0.0
H62 H 0.21566 0.95092 0.58805 0.0
H63 H 0.06733 0.80049 0.60977 0.0
C64 C 0.06357 0.81447 0.626 0.0
C65 C 0.15378 0.91332 0.63339 0.0
C66 C 0.18672 0.93953 0.62167 0.0
C67 C 0.1251 0.87825 0.6211 0.0
C68 C 0.12923 0.86973 0.59642 0.0
C69 C 0.16184 0.89603 0.58439 0.0
C70 C 0.19042 0.93063 0.59723 0.0
N71 N 0.09221 0.85321 0.63401 0.0
H72 H 0.90619 0.43503 0.70857 0.0
H73 H 0.94736 0.51072 0.77455 0.0
H74 H 0.94991 0.40492 0.77244 0.0
H75 H 0.88747 0.50935 0.76102 0.0
C76 C 0.89463 0.51645 0.74228 0.0
C77 C 0.9187 0.44153 0.72742 0.0
C78 C 0.92723 0.41575 0.73894 0.0
C79 C 0.92457 0.47499 0.74044 0.0
C80 C 0.9414 0.48405 0.76476 0.0
C81 C 0.95106 0.45908 0.77634 0.0
C82 C 0.94382 0.42497 0.7633 0.0
N83 N 0.91202 0.49843 0.72906 0.0
H84 H 0.60819 0.47581 0.71464 0.0
H85 H 0.54839 0.44886 0.78105 0.0
H86 H 0.64983 0.56032 0.77678 0.0
H87 H 0.49919 0.40429 0.75786 0.0
C88 C 0.51052 0.39494 0.743 0.0
C89 C 0.60572 0.48426 0.73329 0.0
C90 C 0.63277 0.52153 0.74393 0.0
C91 C 0.5748 0.45796 0.74627 0.0
C92 C 0.5715 0.46886 0.77045 0.0
C93 C 0.59785 0.50599 0.78131 0.0
C94 C 0.62871 0.53208 0.76808 0.0
N95 N 0.54777 0.42081 0.73457 0.0
H96 H 0.5627 0.13277 0.72033 0.0
H97 H 0.59817 0.09142 0.78197 0.0
H98 H 0.48981 0.09236 0.78089 0.0
H99 H 0.65807 0.12727 0.76899 0.0
C100 C 0.65504 0.12806 0.74923 0.0
C101 C 0.55739 0.12151 0.73828 0.0
C102 C 0.52326 0.11449 0.74946 0.0
C103 C 0.58506 0.11425 0.74998 0.0
C104 C 0.57768 0.09816 0.77292 0.0
C105 C 0.54339 0.09033 0.78429 0.0
C106 C 0.5164 0.09854 0.77236 0.0
N107 N 0.61954 0.12317 0.73785 0.0
H108 H 0.76509 0.5474 0.97763 0.0
H109 H 0.83508 0.58852 0.91615 0.0
H110 H 0.7292 0.59359 0.91876 0.0
H111 H 0.85629 0.54881 0.92737 0.0
C112 C 0.85678 0.54979 0.94727 0.0
C113 C 0.76928 0.55922 0.95985 0.0
C114 C 0.74208 0.56836 0.94932 0.0
C115 C 0.80226 0.56538 0.94781 0.0
C116 C 0.80911 0.58252 0.92531 0.0
C117 C 0.78297 0.59292 0.91466 0.0
C118 C 0.74939 0.58551 0.92675 0.0
N119 N 0.82849 0.55517 0.95933 0.0
H120 H 0.46657 0.21165 0.99366 0.0
H121 H 0.42344 0.24108 0.92918 0.0
H122 H 0.42704 0.13653 0.92687 0.0
H123 H 0.41023 0.27446 0.95656 0.0
C124 C 0.43634 0.28749 0.96923 0.0
C125 C 0.45445 0.20489 0.97472 0.0
C126 C 0.44725 0.17046 0.96188 0.0
C127 C 0.44529 0.23034 0.96334 0.0
C128 C 0.42956 0.22145 0.93875 0.0
C129 C 0.42262 0.18756 0.92584 0.0
C130 C 0.43186 0.16239 0.93725 0.0
N131 N 0.45337 0.26523 0.97656 0.0
H132 H 0.81479 0.25316 0.98266 0.0
H133 H 0.77949 0.17058 0.92002 0.0
H134 H 0.88504 0.28048 0.92069 0.0
H135 H 0.72092 0.14558 0.93387 0.0
C136 C 0.7234 0.15262 0.9535 0.0
C137 C 0.81987 0.24529 0.96453 0.0
C138 C 0.85388 0.27083 0.9534 0.0
C139 C 0.79215 0.20953 0.95253 0.0
C140 C 0.79935 0.19868 0.92924 0.0
C141 C 0.83344 0.22393 0.91799 0.0
C142 C 0.85979 0.26024 0.92989 0.0
N143 N 0.75801 0.1853 0.96473 0.0
H144 H 0.57286 0.76783 0.04229 0.0
H145 H 0.61682 0.84418 0.10849 0.0
H146 H 0.6164 0.73746 0.106 0.0
H147 H 0.62135 0.88769 0.08448 0.0
C148 C 0.59804 0.87348 0.06989 0.0
C149 C 0.58582 0.77461 0.06105 0.0
C150 C 0.59467 0.74889 0.07242 0.0
C151 C 0.59411 0.80942 0.07363 0.0
C152 C 0.6109 0.81806 0.09808 0.0
C153 C 0.62011 0.79272 0.10951 0.0
C154 C 0.61115 0.75795 0.09674 0.0
N155 N 0.58433 0.83447 0.06143 0.0
H156 H 0.27432 0.80503 0.04863 0.0
H157 H 0.21537 0.77917 0.11545 0.0
H158 H 0.31766 0.88967 0.11076 0.0
H159 H 0.16559 0.73556 0.09262 0.0
C160 C 0.17643 0.72533 0.07794 0.0
C161 C 0.27216 0.81361 0.06731 0.0
C162 C 0.29971 0.85078 0.07791 0.0
C163 C 0.24115 0.78763 0.08044 0.0
C164 C 0.23842 0.79884 0.10469 0.0
C165 C 0.2652 0.8359 0.11546 0.0
C166 C 0.29612 0.86153 0.10212 0.0
N167 N 0.2134 0.75053 0.06888 0.0
H168 H 0.22673 0.46563 0.0538 0.0
H169 H 0.26122 0.41889 0.11293 0.0
H170 H 0.15122 0.416 0.11232 0.0
H171 H 0.32122 0.45749 0.10099 0.0
C172 C 0.31852 0.45893 0.08127 0.0
C173 C 0.22049 0.45145 0.07079 0.0
C174 C 0.18576 0.44252 0.08186 0.0
C175 C 0.24815 0.44353 0.08183 0.0
C176 C 0.24057 0.42572 0.1042 0.0
C177 C 0.20602 0.41666 0.11557 0.0
C178 C 0.17854 0.42444 0.10402 0.0
N179 N 0.28308 0.45403 0.06984 0.0
H180 H 0.43023 0.88266 0.3114 0.0
H181 H 0.50157 0.9228 0.25036 0.0
H182 H 0.39666 0.9296 0.25181 0.0
H183 H 0.52068 0.88171 0.26151 0.0
C184 C 0.52119 0.88273 0.28141 0.0
C185 C 0.43521 0.89485 0.29373 0.0
C186 C 0.40912 0.90538 0.28317 0.0
C187 C 0.46801 0.90007 0.28184 0.0
C188 C 0.4756 0.91728 0.25935 0.0
C189 C 0.45008 0.92817 0.2484 0.0
C190 C 0.4166 0.9216 0.26027 0.0
N191 N 0.49341 0.88894 0.29346 0.0
H192 H 0.12975 0.54202 0.32666 0.0
H193 H 0.08726 0.57615 0.26447 0.0
H194 H 0.09482 0.47355 0.25737 0.0
H195 H 0.0743 0.60799 0.29291 0.0
C196 C 0.10004 0.61964 0.30583 0.0
C197 C 0.11846 0.53688 0.30759 0.0
C198 C 0.11253 0.50399 0.29346 0.0
C199 C 0.10914 0.56292 0.2974 0.0
C200 C 0.09444 0.55628 0.27269 0.0
C201 C 0.08912 0.52412 0.25818 0.0
C202 C 0.09822 0.49807 0.26867 0.0
N203 N 0.11644 0.5964 0.312 0.0
H204 H 0.4743 0.58733 0.31466 0.0
H205 H 0.44069 0.50431 0.25243 0.0
H206 H 0.54647 0.61408 0.25363 0.0
H207 H 0.40041 0.46324 0.27677 0.0
C208 C 0.39335 0.47809 0.29089 0.0
C209 C 0.47984 0.57936 0.29671 0.0
C210 C 0.51362 0.60529 0.28549 0.0
C211 C 0.45331 0.54274 0.28523 0.0
C212 C 0.46083 0.53203 0.262 0.0
C213 C 0.49504 0.55737 0.25089 0.0
C214 C 0.52082 0.594 0.2626 0.0
N215 N 0.41938 0.51806 0.29751 0.0
Tb216 Tb 0.49544 0.98901 0.98941 0.0
Eu217 Eu 0.5216 0.03442 0.04511 0.0
C218 C 0.52929 0.96123 0.03215 0.0
C219 C 0.43648 0.9602 0.02997 0.0
C220 C 0.48855 0.9806 0.92185 0.0
C221 C 0.48353 0.97686 0.87715 0.0
C222 C 0.47439 0.95868 0.8992 0.0
C223 C 0.51201 0.02092 0.92216 0.0
C224 C 0.52152 0.03904 0.9002 0.0
C225 C 0.50711 0.01731 0.87738 0.0
C226 C 0.48011 0.96158 0.9451 0.0
O227 O 0.47138 0.02753 0.99218 0.0
O228 O 0.51568 0.0749 0.02078 0.0
O229 O 0.57741 0.05706 0.02535 0.0
O230 O 0.54748 0.04452 0.98652 0.0
C231 C 0.48831 0.06295 1.00266 0.0
O232 O 0.51007 0.06271 0.07604 0.0
O233 O 0.55883 0.05246 0.07942 0.0
O234 O 0.51621 0.97674 0.04785 0.0
O235 O 0.52937 0.96726 1.00868 0.0
O236 O 0.45095 0.94922 1.01219 0.0
O237 O 0.45588 0.99532 0.04075 0.0
C238 C 0.57925 0.06121 1.00161 0.0
O239 O 0.51089 0.96767 0.95874 0.0
O240 O 0.45519 0.96526 0.95815 0.0
C241 C 0.52186 0.04277 0.11375 0.0
C242 C 0.49423 0.0056 0.15728 0.0
C243 C 0.51689 0.04615 0.15786 0.0
C244 C 0.53053 0.06456 0.13626 0.0
C245 C 0.49911 1.00232 0.11304 0.0
C246 C 0.48557 0.9839 0.1346 0.0
C247 C 0.53633 0.06194 0.09099 0.0
H248 H 0.47189 0.9593 0.85991 0.0
H249 H 0.45635 0.92752 0.89856 0.0
H250 H 0.5233 0.03841 0.93942 0.0
H251 H 0.54059 0.07008 0.90112 0.0
H252 H 0.52402 0.06365 0.17503 0.0
H253 H 0.54794 0.09578 0.13716 0.0
H254 H 0.49211 0.98496 0.0958 0.0
H255 H 0.46902 0.95265 0.13356 0.0
Tb256 Tb 0.04112 0.50469 0.99217 0.0
Eu257 Eu 0.99591 0.48709 0.0435 0.0
C258 C 0.07284 0.56718 0.03756 0.0
C259 C 0.07221 0.47818 0.03697 0.0
C260 C 0.0535 0.50732 0.92578 0.0
C261 C 0.06013 0.51661 0.88233 0.0
C262 C 0.07696 0.52458 0.90647 0.0
C263 C 1.01308 0.48165 0.92075 0.0
C264 C 0.99625 0.47363 0.89663 0.0
C265 C 0.01953 0.49142 0.87722 0.0
C266 C 0.0708 0.51777 0.95122 0.0
O267 O 1.00216 0.4423 0.99123 0.0
O268 O 0.95515 0.43921 0.01566 0.0
O269 O 0.97554 0.52024 0.02101 0.0
O270 O 0.98482 0.50066 0.98333 0.0
C271 C 0.96663 0.42358 0.99885 0.0
O272 O 0.96529 0.44852 0.07184 0.0
O273 O 0.97401 0.50634 0.07363 0.0
O274 O 0.05461 0.53992 0.05234 0.0
O275 O 0.06618 0.5603 0.01357 0.0
O276 O 0.08128 0.49904 0.01787 0.0
O277 O 0.03863 0.46557 0.04697 0.0
C278 C 0.9682 0.51515 0.99708 0.0
O279 O 0.06326 0.54138 0.96365 0.0
O280 O 0.06627 0.48931 0.96393 0.0
C281 C 0.98184 0.48266 0.11046 0.0
C282 C 0.01768 0.49688 0.15841 0.0
C283 C 0.97647 0.47703 0.1543 0.0
C284 C 0.95865 0.46997 0.13043 0.0
C285 C 0.02285 0.50227 0.11449 0.0
C286 C 0.0406 0.50916 0.13821 0.0
C287 C 0.96393 0.47544 0.0853 0.0
H288 H 0.07869 0.53071 0.86771 0.0
H289 H 0.10817 0.54464 0.91011 0.0
H290 H 0.99454 0.46812 0.93551 0.0
H291 H 0.96504 0.45347 0.89316 0.0
H292 H 0.95808 0.46733 0.16955 0.0
H293 H 0.92691 0.45473 0.12757 0.0
H294 H 0.04112 0.51219 0.09922 0.0
H295 H 0.07231 0.52382 0.14069 0.0
Tb296 Tb 0.54745 0.51786 0.04069 0.0
Eu297 Eu 0.5173 0.53144 0.98684 0.0
C298 C 0.50804 0.45086 0.99848 0.0
C299 C 0.60213 0.54076 0.99755 0.0
C300 C 0.5577 0.51561 0.10801 0.0
C301 C 0.55273 0.50253 0.15104 0.0
C302 C 0.56373 0.49768 0.12778 0.0
C303 C 0.54019 0.53822 0.11168 0.0
C304 C 0.52926 0.54316 0.13496 0.0
C305 C 0.53563 0.52555 0.15493 0.0
C306 C 0.56704 0.50824 0.08333 0.0
O307 O 0.57163 0.57989 0.03863 0.0
O308 O 0.52396 0.57921 1.01291 0.0
O309 O 0.46322 0.50205 1.00817 0.0
O310 O 0.49484 0.52037 0.04685 0.0
C311 C 0.55318 0.59692 0.02982 0.0
O312 O 0.525 0.57058 0.95844 0.0
O313 O 0.47986 0.5103 0.95253 0.0
O314 O 0.51831 0.4763 0.98205 0.0
O315 O 0.51059 0.46074 0.02198 0.0
O316 O 0.5889 0.51804 0.01561 0.0
O317 O 0.58289 0.5566 0.98825 0.0
C318 C 0.46257 0.50595 0.03217 0.0
O319 O 0.53724 0.48173 0.06937 0.0
O320 O 0.58866 0.53838 0.07143 0.0
C321 C 0.51594 0.54038 0.91845 0.0
C322 C 0.54857 0.53454 0.87454 0.0
C323 C 0.5653 0.56983 0.88885 0.0
C324 C 0.54907 0.57277 0.91052 0.0
C325 C 0.49885 0.50527 0.90384 0.0
C326 C 0.51506 0.50238 0.88219 0.0
C327 C 0.50059 0.54272 0.94238 0.0
H328 H 0.55718 0.48789 0.16594 0.0
H329 H 0.57651 0.47953 0.12515 0.0
H330 H 0.53476 0.55182 0.09651 0.0
H331 H 0.51617 0.56107 0.13742 0.0
H332 H 0.59139 0.59498 0.88357 0.0
H333 H 0.56296 0.6003 0.92128 0.0
H334 H 0.47321 0.47981 0.90928 0.0
H335 H 0.50129 0.4749 0.87137 0.0
Tb336 Tb 0.15963 0.32134 0.32216 0.0
Eu337 Eu 0.18537 0.36814 0.37761 0.0
C338 C 0.18984 0.29232 0.36604 0.0
C339 C 0.09991 0.29411 0.36252 0.0
C340 C 0.15229 0.30948 0.25402 0.0
C341 C 0.19303 0.33027 0.21928 0.0
C342 C 0.1839 0.31253 0.24143 0.0
C343 C 0.12913 0.3234 0.24343 0.0
C344 C 0.138 0.34076 0.22113 0.0
C345 C 0.17048 0.34502 0.20897 0.0
C346 C 0.14435 0.2925 0.27821 0.0
O347 O 0.13637 0.36044 0.32377 0.0
O348 O 0.18031 0.4081 0.35234 0.0
O349 O 0.24143 0.38913 0.35834 0.0
O350 O 0.21305 0.37562 0.3189 0.0
C351 C 0.15342 0.39602 0.3339 0.0
O352 O 0.17354 0.39657 0.40837 0.0
O353 O 0.22353 0.38821 0.41157 0.0
O354 O 0.17868 0.31011 0.38146 0.0
O355 O 0.19143 0.29856 0.34259 0.0
O356 O 0.11438 0.28267 0.34499 0.0
O357 O 0.11952 0.32932 0.37322 0.0
C358 C 0.24418 0.39197 0.33454 0.0
O359 O 0.17499 0.29869 0.29206 0.0
O360 O 0.11927 0.29632 0.29105 0.0
C361 C 0.18847 0.38007 0.44666 0.0
C362 C 0.16668 0.34628 0.49186 0.0
C363 C 0.18768 0.38671 0.49106 0.0
C364 C 0.19858 0.40342 0.46866 0.0
C365 C 0.16676 0.33974 0.44729 0.0
C366 C 0.15596 0.32301 0.46966 0.0
C367 C 0.20098 0.39758 0.42316 0.0
H368 H 0.21818 0.33296 0.21041 0.0
H369 H 0.20195 0.30158 0.24888 0.0
H370 H 0.1042 0.32108 0.25239 0.0
H371 H 0.11921 0.35064 0.21335 0.0
H372 H 0.19557 0.40544 0.50775 0.0
H373 H 0.21506 0.43459 0.46852 0.0
H374 H 0.1585 0.32118 0.43048 0.0
H375 H 0.13985 0.29183 0.46964 0.0
Tb376 Tb 0.70581 0.837 0.32541 0.0
Eu377 Eu 0.66123 0.81875 0.37655 0.0
C378 C 0.73692 0.89963 0.37033 0.0
C379 C 0.73482 0.80747 0.36882 0.0
C380 C 0.72079 0.84012 0.2593 0.0
C381 C 0.72973 0.85026 0.2161 0.0
C382 C 0.74534 0.85765 0.2405 0.0
C383 C 0.68041 0.81509 0.25352 0.0
C384 C 0.66479 0.80763 0.22913 0.0
C385 C 0.68932 0.82509 0.21018 0.0
C386 C 0.73697 0.84985 0.28496 0.0
O387 O 0.66408 0.7748 0.32345 0.0
O388 O 0.61831 0.77378 0.34814 0.0
O389 O 0.63894 0.85108 0.35469 0.0
O390 O 0.65099 0.8358 0.31641 0.0
C391 C 0.62819 0.75773 0.33067 0.0
O392 O 0.62944 0.77832 0.4037 0.0
O393 O 0.64225 0.83748 0.40853 0.0
O394 O 0.7198 0.87224 0.38523 0.0
O395 O 0.72959 0.89259 0.3464 0.0
O396 O 0.74574 0.83286 0.35222 0.0
O397 O 0.69955 0.79196 0.37674 0.0
C398 C 0.63312 0.84832 0.33065 0.0
O399 O 0.72965 0.87381 0.29715 0.0
O400 O 0.73117 0.82094 0.29765 0.0
C401 C 0.64658 0.80823 0.44365 0.0
C402 C 0.67986 0.81753 0.49178 0.0
C403 C 0.63987 0.80568 0.4875 0.0
C404 C 0.62332 0.80103 0.46354 0.0
C405 C 0.68639 0.81973 0.44782 0.0
C406 C 0.70293 0.82438 0.47171 0.0
C407 C 0.62987 0.80487 0.41859 0.0
H408 H 0.74916 0.86476 0.20193 0.0
H409 H 0.77648 0.87748 0.24474 0.0
H410 H 0.66098 0.80165 0.26791 0.0
H411 H 0.63356 0.78811 0.22506 0.0
H412 H 0.62167 0.80097 0.50269 0.0
H413 H 0.59259 0.79235 0.46056 0.0
H414 H 0.70474 0.82547 0.43258 0.0
H415 H 0.7338 0.8335 0.47453 0.0
Tb416 Tb 0.21424 0.85273 0.37424 0.0
Eu417 Eu 0.18224 0.86258 0.31985 0.0
C418 C 0.17525 0.78352 0.33376 0.0
C419 C 0.26866 0.87626 0.33123 0.0
C420 C 0.22475 0.85559 0.44142 0.0
C421 C 0.22652 0.85373 0.48577 0.0
C422 C 0.23868 0.84774 0.46315 0.0
C423 C 0.1985 0.8694 0.44252 0.0
C424 C 0.18594 0.87491 0.46504 0.0
C425 C 0.20005 0.86745 0.48696 0.0
C426 C 0.23572 0.84743 0.41749 0.0
O427 O 0.23597 0.91394 0.37081 0.0
O428 O 0.18659 0.91009 0.34522 0.0
O429 O 0.1282 0.83352 0.34116 0.0
O430 O 0.15982 0.85228 0.37993 0.0
C431 C 0.21552 0.92903 0.3622 0.0
O432 O 0.18831 0.90056 0.29101 0.0
O433 O 0.14657 0.8393 0.28495 0.0
O434 O 0.18412 0.80768 0.31658 0.0
O435 O 0.17809 0.79469 0.35703 0.0
O436 O 0.25605 0.85331 0.34921 0.0
O437 O 0.24806 0.89054 0.32175 0.0
C438 C 0.12754 0.83746 0.36517 0.0
O439 O 0.20725 0.81887 0.40384 0.0
O440 O 0.25569 0.87709 0.40486 0.0
C441 C 0.18375 0.87073 0.25221 0.0
C442 C 0.21861 0.86733 0.20898 0.0
C443 C 0.18603 0.87275 0.20797 0.0
C444 C 0.16878 0.87451 0.22946 0.0
C445 C 0.2164 0.86555 0.25332 0.0
C446 C 0.23364 0.86381 0.23189 0.0
C447 C 0.16562 0.87202 0.27488 0.0
H448 H 0.23804 0.8479 0.50237 0.0
H449 H 0.25879 0.83684 0.4626 0.0
H450 H 0.18737 0.87556 0.42593 0.0
H451 H 0.16482 0.88458 0.46522 0.0
H452 H 0.17326 0.87465 0.19051 0.0
H453 H 0.14354 0.8784 0.22828 0.0
H454 H 0.22838 0.8626 0.27078 0.0
H455 H 0.25866 0.85958 0.23322 0.0
Tb456 Tb 0.83011 0.65581 0.65525 0.0
Eu457 Eu 0.85392 0.70086 0.71151 0.0
C458 C 0.85423 0.62284 0.69945 0.0
C459 C 0.76816 0.63001 0.69455 0.0
C460 C 0.8232 0.64409 0.58755 0.0
C461 C 0.82236 0.63715 0.54307 0.0
C462 C 0.81463 0.62075 0.56571 0.0
C463 C 0.83991 0.68414 0.58651 0.0
C464 C 0.84758 0.70056 0.56388 0.0
C465 C 0.83865 0.67722 0.54186 0.0
C466 C 0.81584 0.6268 0.61138 0.0
O467 O 0.81123 0.69837 0.65504 0.0
O468 O 0.8497 0.74233 0.68746 0.0
O469 O 0.91071 0.72242 0.69301 0.0
O470 O 0.88425 0.70969 0.6531 0.0
C471 C 0.82654 0.73245 0.66724 0.0
O472 O 0.84217 0.72922 0.74231 0.0
O473 O 0.88991 0.71754 0.74624 0.0
O474 O 0.84348 0.64129 0.7146 0.0
O475 O 0.85918 0.6309 0.67637 0.0
O476 O 0.78266 0.61819 0.67723 0.0
O477 O 0.78814 0.66502 0.70539 0.0
C478 C 0.91456 0.72627 0.66935 0.0
O479 O 0.84715 0.63479 0.6252 0.0
O480 O 0.79027 0.63009 0.62401 0.0
C481 C 0.85234 0.70847 0.78017 0.0
C482 C 0.82476 0.67113 0.82366 0.0
C483 C 0.84836 0.71163 0.82437 0.0
C484 C 0.86203 0.73012 0.80282 0.0
C485 C 0.82834 0.66814 0.77927 0.0
C486 C 0.81488 0.64962 0.8008 0.0
C487 C 0.86766 0.72765 0.75754 0.0
H488 H 0.81601 0.61849 0.52652 0.0
H489 H 0.80218 0.58985 0.56618 0.0
H490 H 0.84706 0.70269 0.60322 0.0
H491 H 0.86011 0.73149 0.56357 0.0
H492 H 0.85638 0.72904 0.84166 0.0
H493 H 0.88042 0.76127 0.80386 0.0
H494 H 0.82046 0.65094 0.76191 0.0
H495 H 0.7976 0.61839 0.7996 0.0
Tb496 Tb 0.37584 0.17249 0.65885 0.0
Eu497 Eu 0.3322 0.1555 0.71043 0.0
C498 C 0.40714 0.23678 0.70294 0.0
C499 C 0.40841 0.14799 0.70335 0.0
C500 C 0.38786 0.17223 0.59252 0.0
C501 C 0.39392 0.18004 0.54889 0.0
C502 C 0.41111 0.1885 0.57296 0.0
C503 C 0.34732 0.14687 0.5878 0.0
C504 C 0.33012 0.13839 0.56376 0.0
C505 C 0.35317 0.15538 0.54412 0.0
C506 C 0.40539 0.18373 0.61788 0.0
O507 O 0.33728 0.11009 0.65888 0.0
O508 O 0.29039 0.10821 0.68276 0.0
O509 O 0.30845 0.18594 0.68786 0.0
O510 O 0.31979 0.16891 0.64989 0.0
C511 C 0.30159 0.09188 0.66628 0.0
O512 O 0.3038 0.11633 0.73896 0.0
O513 O 0.30992 0.17316 0.74109 0.0
O514 O 0.38954 0.21055 0.71852 0.0
O515 O 0.39966 0.22863 0.67907 0.0
O516 O 0.41763 0.17152 0.6857 0.0
O517 O 0.37337 0.13183 0.71169 0.0
C518 C 0.30196 0.18184 0.66384 0.0
O519 O 0.39792 0.20785 0.62972 0.0
O520 O 0.40094 0.15588 0.6312 0.0
C521 C 0.31847 0.1492 0.77806 0.0
C522 C 0.35306 0.15961 0.82604 0.0
C523 C 0.31637 0.1268 0.81878 0.0
C524 C 0.29923 0.12164 0.79494 0.0
C525 C 0.355 0.18212 0.78532 0.0
C526 C 0.37195 0.18744 0.80916 0.0
C527 C 0.30141 0.14244 0.75262 0.0
H528 H 0.4123 0.1935 0.53407 0.0
H529 H 0.44242 0.20832 0.57635 0.0
H530 H 0.32893 0.13412 0.60275 0.0
H531 H 0.29879 0.11866 0.56054 0.0
H532 H 0.30122 0.10491 0.83144 0.0
H533 H 0.27119 0.09591 0.78958 0.0
H534 H 0.37057 0.20368 0.77253 0.0
H535 H 0.39975 0.21348 0.81442 0.0
Tb536 Tb 0.8843 0.18772 0.70652 0.0
Eu537 Eu 0.85008 0.19753 0.65248 0.0
C538 C 0.84531 0.11921 0.66508 0.0
C539 C 0.93682 0.20952 0.66176 0.0
C540 C 0.89504 0.18565 0.77394 0.0
C541 C 0.88996 0.17106 0.81672 0.0
C542 C 0.9013 0.16728 0.79335 0.0
C543 C 0.87671 0.20743 0.77803 0.0
C544 C 0.8655 0.21135 0.80143 0.0
C545 C 0.87236 0.19351 0.82109 0.0
C546 C 0.90556 0.17999 0.74924 0.0
O547 O 0.90666 0.24915 0.70351 0.0
O548 O 0.85716 0.24581 0.67826 0.0
O549 O 0.79748 0.16771 0.67491 0.0
O550 O 0.83062 0.1882 0.71317 0.0
C551 C 0.88648 0.26458 0.695 0.0
O552 O 0.85471 0.23536 0.62385 0.0
O553 O 0.81106 0.17445 0.61885 0.0
O554 O 0.85299 0.14348 0.64812 0.0
O555 O 0.84849 0.12993 0.68849 0.0
O556 O 0.9271 0.19031 0.6816 0.0
O557 O 0.91514 0.22206 0.65142 0.0
C558 C 0.79776 0.17265 0.69892 0.0
O559 O 0.87721 0.15211 0.73513 0.0
O560 O 0.92509 0.2108 0.73747 0.0
C561 C 0.84499 0.20433 0.58404 0.0
C562 C 0.87662 0.19833 0.53973 0.0
C563 C 0.89326 0.2338 0.55383 0.0
C564 C 0.87756 0.23681 0.57571 0.0
C565 C 0.82791 0.16907 0.56962 0.0
C566 C 0.84363 0.16609 0.54778 0.0
C567 C 0.83032 0.2067 0.60824 0.0
H568 H 0.89475 0.1562 0.83134 0.0
H569 H 0.91469 0.14975 0.7904 0.0
H570 H 0.87106 0.22133 0.76314 0.0
H571 H 0.85198 0.22879 0.80425 0.0
H572 H 0.91901 0.25901 0.54826 0.0
H573 H 0.89147 0.26446 0.58633 0.0
H574 H 0.8027 0.14354 0.57538 0.0
H575 H 0.82994 0.13846 0.53713 0.0
C576 C 0.3551 0.86639 0.05109 0.0
C577 C 0.33237 0.8784 0.06381 0.0
C578 C 0.38781 0.89268 0.0392 0.0
C579 C 0.3991 0.93198 0.03974 0.0
H580 H 0.34838 0.83671 0.05102 0.0
H581 H 0.40527 0.88243 0.0304 0.0
S582 S 0.34621 0.977 0.06753 0.0
N583 N 0.32097 0.93137 0.07385 0.0
N584 N 0.38283 0.98087 0.05207 0.0
C585 C 0.37562 0.94399 0.05147 0.0
C586 C 0.34219 0.91721 0.06336 0.0
C587 C 0.14716 0.44594 0.04498 0.0
C588 C 0.15734 0.45265 0.07053 0.0
C589 C 0.12 0.45481 0.03411 0.0
C590 C 0.10156 0.47002 0.04844 0.0
H591 H 0.15983 0.43322 0.03333 0.0
H592 H 0.11274 0.44893 0.01445 0.0
S593 S 0.12108 0.49728 0.1154 0.0
N594 N 0.14947 0.47925 0.10932 0.0
N595 N 0.09719 0.49401 0.08899 0.0
C596 C 0.1119 0.47753 0.07381 0.0
C597 C 0.14007 0.46931 0.08482 0.0
C598 C 0.54854 0.68687 0.04764 0.0
C599 C 0.58597 0.71189 0.05945 0.0
C600 C 0.53847 0.65001 0.03764 0.0
C601 C 0.56539 0.63678 0.03922 0.0
H602 H 0.52643 0.69529 0.04688 0.0
H603 H 0.50895 0.63134 0.02927 0.0
S604 S 0.66884 0.69325 0.06549 0.0
N605 N 0.65131 0.72247 0.06995 0.0
N606 N 0.63218 0.65297 0.05165 0.0
C607 C 0.6034 0.66213 0.05014 0.0
C608 C 0.61374 0.69973 0.0601 0.0
C609 C 0.87069 0.33277 0.9771 0.0
C610 C 0.88312 0.30888 0.96603 0.0
C611 C 0.89791 0.36962 0.98796 0.0
C612 C 0.93859 0.38407 0.98798 0.0
H613 H 0.8397 0.3233 0.97689 0.0
H614 H 0.88694 0.38722 0.99591 0.0
S615 S 0.98624 0.3314 0.96356 0.0
N616 N 0.93876 0.30103 0.95752 0.0
N617 N 0.98992 0.37063 0.97732 0.0
C618 C 0.95142 0.36014 0.97745 0.0
C619 C 0.92369 0.32248 0.96664 0.0
C620 C 0.69507 0.58877 0.96365 0.0
C621 C 0.70652 0.56076 0.96216 0.0
C622 C 0.66162 0.58223 0.9754 0.0
C623 C 0.63851 0.54764 0.98648 0.0
H624 H 0.71222 0.61615 0.95579 0.0
H625 H 0.65391 0.60459 0.9759 0.0
S626 S 0.65401 0.46392 0.98651 0.0
N627 N 0.69049 0.49606 0.97172 0.0
N628 N 0.62854 0.48447 0.99452 0.0
C629 C 0.64958 0.51941 0.98525 0.0
C630 C 0.68331 0.52579 0.97294 0.0
C631 C 0.49276 0.15607 0.98668 0.0
C632 C 0.45603 0.1429 0.97388 0.0
C633 C 0.50266 0.13007 0.99644 0.0
C634 C 0.47627 0.08995 0.99362 0.0
H635 H 0.51446 0.18659 0.98854 0.0
H636 H 0.53165 0.14145 1.00562 0.0
S637 S 0.37451 0.04119 0.9644 0.0
N638 N 0.39177 0.08748 0.96106 0.0
N639 N 0.41059 0.03862 0.97892 0.0
C640 C 0.43894 0.07655 0.98163 0.0
C641 C 0.42876 0.10301 0.9719 0.0
C642 C 0.6538 0.10109 0.95388 0.0
C643 C 0.68813 0.12994 0.96719 0.0
C644 C 0.6192 0.07921 0.96535 0.0
C645 C 0.61728 0.08501 0.99076 0.0
H646 H 0.65351 0.09545 0.93427 0.0
H647 H 0.59375 0.05734 0.95405 0.0
S648 S 0.69936 0.15654 0.03429 0.0
N649 N 0.71849 0.16295 1.00743 0.0
N650 N 0.65316 0.12151 0.02906 0.0
C651 C 0.65158 0.1134 1.0045 0.0
C652 C 0.68703 0.13599 0.9927 0.0
C653 C 0.90814 0.53118 0.94755 0.0
C654 C 0.8848 0.5415 0.96094 0.0
C655 C 0.93491 0.5228 0.95939 0.0
C656 C 0.9397 0.52461 0.98521 0.0
H657 H 0.9056 0.52937 0.92764 0.0
H658 H 0.95202 0.51491 0.94809 0.0
S659 S 0.88585 0.5508 0.02894 0.0
N660 N 0.86839 0.55348 1.00155 0.0
N661 N 0.91865 0.53784 0.02386 0.0
C662 C 0.91664 0.53518 0.99889 0.0
C663 C 0.88922 0.54358 0.98677 0.0
C664 C 0.47953 0.34546 0.99835 0.0
C665 C 0.4556 0.32927 0.97633 0.0
C666 C 0.49661 0.38499 1.00539 0.0
C667 C 0.49116 0.40969 0.99031 0.0
H668 H 0.48438 0.32738 1.01046 0.0
H669 H 0.51432 0.39631 0.02271 0.0
S670 S 0.43207 0.38137 0.93042 0.0
N671 N 0.4276 0.34073 0.9394 0.0
N672 N 0.46066 0.41512 0.95219 0.0
C673 C 0.468 0.39389 0.96799 0.0
C674 C 0.44992 0.35361 0.96114 0.0
C675 C 0.15418 0.67271 0.04396 0.0
C676 C 0.1516 0.68471 0.06801 0.0
C677 C 0.1287 0.63455 0.03421 0.0
C678 C 0.10036 0.607 0.04836 0.0
H679 H 0.17531 0.69307 0.03239 0.0
H680 H 0.13125 0.62664 0.01546 0.0
S681 S 0.08357 0.62403 0.11297 0.0
N682 N 0.11954 0.66622 0.10599 0.0
N683 N 0.0723 0.59457 0.08807 0.0
C684 C 0.09835 0.61864 0.07271 0.0
C685 C 0.12379 0.6575 0.08241 0.0
C686 C 0.38958 0.48096 0.08098 0.0
C687 C 0.3541 0.47072 0.06759 0.0
C688 C 0.42421 0.49251 0.06932 0.0
C689 C 0.42498 0.49413 0.04361 0.0
H690 H 0.3907 0.48014 0.10078 0.0
H691 H 0.45056 0.49991 0.08071 0.0
S692 S 0.33965 0.47001 0.99988 0.0
N693 N 0.32157 0.46283 0.02706 0.0
N694 N 0.3867 0.48439 1.00506 0.0
C695 C 0.38957 0.48384 0.02988 0.0
C696 C 0.35417 0.47221 0.04187 0.0
C697 C 0.56118 0.88638 0.03633 0.0
C698 C 0.57982 0.89512 0.06022 0.0
C699 C 0.54511 0.90806 0.02711 0.0
C700 C 0.54628 0.93842 0.04174 0.0
H701 H 0.55962 0.86316 0.02455 0.0
H702 H 0.53133 0.90075 1.00856 0.0
S703 S 0.59134 0.97206 0.1057 0.0
N704 N 0.59859 0.93599 0.0982 0.0
N705 N 0.56766 0.97593 0.08135 0.0
C706 C 0.56449 0.94697 0.06576 0.0
C707 C 0.58146 0.92553 0.07486 0.0
C708 C 0.01746 0.20049 0.3832 0.0
C709 C 0.99446 0.21258 0.39554 0.0
C710 C 0.05065 0.22673 0.37165 0.0
C711 C 0.06225 0.26611 0.37217 0.0
H712 H 1.01054 0.17075 0.38315 0.0
H713 H 0.06818 0.21633 0.36312 0.0
S714 S 1.00913 0.31152 0.39906 0.0
N715 N 0.98334 0.26584 0.4052 0.0
N716 N 0.04615 0.31525 0.38411 0.0
C717 C 0.03863 0.27827 0.38355 0.0
C718 C 1.00468 0.25152 0.39508 0.0
C719 C 0.83158 0.8158 0.39117 0.0
C720 C 0.81975 0.78077 0.40196 0.0
C721 C 0.80399 0.8239 0.38014 0.0
C722 C 0.7634 0.79748 0.37967 0.0
H723 H 0.86242 0.83752 0.39164 0.0
H724 H 0.81457 0.85149 0.37242 0.0
S725 S 0.71706 0.70014 0.40328 0.0
N726 N 0.76459 0.71819 0.4097 0.0
N727 N 0.71282 0.73393 0.38974 0.0
C728 C 0.75115 0.76208 0.39 0.0
C729 C 0.77925 0.75362 0.40095 0.0
C730 C 0.27322 0.02964 0.39419 0.0
C731 C 0.24591 0.04234 0.39367 0.0
C732 C 0.26328 0.99321 0.3836 0.0
C733 C 0.2257 0.96815 0.37194 0.0
H734 H 0.30249 0.04793 0.40303 0.0
H735 H 0.28525 0.98462 0.38467 0.0
S736 S 0.14312 0.98727 0.36615 0.0
N737 N 0.17941 0.02674 0.38102 0.0
N738 N 0.16088 0.95847 0.36066 0.0
C739 C 0.19825 0.9807 0.37094 0.0
C740 C 0.20832 0.01775 0.38189 0.0
C741 C 0.58263 0.65746 0.29837 0.0
C742 C 0.54206 0.64405 0.2976 0.0
C743 C 0.61029 0.69436 0.30889 0.0
C744 C 0.59844 0.71914 0.31929 0.0
H745 H 0.59313 0.63917 0.29087 0.0
H746 H 0.64116 0.7033 0.30916 0.0
S747 S 0.49594 0.69898 0.32056 0.0
N748 N 0.49158 0.65931 0.307 0.0
N749 N 0.54346 0.72836 0.32731 0.0
C750 C 0.558 0.70621 0.31858 0.0
C751 C 0.52984 0.66875 0.30765 0.0
C752 C 0.35129 0.86452 0.30733 0.0
C753 C 0.37414 0.89922 0.29616 0.0
C754 C 0.31795 0.85776 0.31936 0.0
C755 C 0.30583 0.88521 0.32043 0.0
H756 H 0.35874 0.842 0.30635 0.0
H757 H 0.30088 0.83034 0.3272 0.0
S758 S 0.35725 0.98222 0.29643 0.0
N759 N 0.38385 0.96268 0.28898 0.0
N760 N 0.3205 0.94934 0.31067 0.0
C761 C 0.32875 0.92029 0.30982 0.0
C762 C 0.363 0.92744 0.29791 0.0
C763 C 0.15758 0.48912 0.31831 0.0
C764 C 0.12166 0.47599 0.30446 0.0
C765 C 0.16736 0.46309 0.32809 0.0
C766 C 0.14168 0.42294 0.32427 0.0
H767 H 0.17866 0.51975 0.32119 0.0
H768 H 0.19564 0.47456 0.33827 0.0
S769 S 0.04234 0.37393 0.29137 0.0
N770 N 0.05906 0.42037 0.28904 0.0
N771 N 0.07765 0.3714 0.30696 0.0
C772 C 0.10527 0.40947 0.31093 0.0
C773 C 0.09522 0.43598 0.30113 0.0
C774 C 0.34844 0.47049 0.32444 0.0
C775 C 0.35596 0.45587 0.3027 0.0
C776 C 0.31264 0.44929 0.33528 0.0
C777 C 0.28299 0.41327 0.32439 0.0
H778 H 0.37027 0.4984 0.33318 0.0
H779 H 0.30775 0.46159 0.35185 0.0
S780 S 0.28888 0.36166 0.26817 0.0
N781 N 0.33143 0.4025 0.27142 0.0
N782 N 0.26417 0.36329 0.29131 0.0
C783 C 0.29045 0.39827 0.30288 0.0
C784 C 0.32693 0.41942 0.29217 0.0
C785 C 0.57372 0.86586 0.28156 0.0
C786 C 0.54923 0.87445 0.29503 0.0
C787 C 0.6007 0.85767 0.29326 0.0
C788 C 0.60451 0.85784 0.31903 0.0
H789 H 0.57199 0.86535 0.26169 0.0
H790 H 0.61871 0.85118 0.28187 0.0
S791 S 0.54716 0.87877 0.36295 0.0
N792 N 0.53048 0.88282 0.33567 0.0
N793 N 0.58114 0.86746 0.35773 0.0
C794 C 0.58022 0.86657 0.33281 0.0
C795 C 0.5526 0.87485 0.32082 0.0
C796 C 0.11529 0.68599 0.29842 0.0
C797 C 0.12058 0.66128 0.31349 0.0
C798 C 0.13427 0.72577 0.30471 0.0
C799 C 0.15841 0.74207 0.32664 0.0
H800 H 0.09649 0.67448 0.2815 0.0
H801 H 0.12909 0.74369 0.29263 0.0
S802 S 0.18189 0.6898 0.37248 0.0
N803 N 0.15218 0.65585 0.3511 0.0
N804 N 0.18704 0.73064 0.36335 0.0
C805 C 0.16399 0.71768 0.34191 0.0
C806 C 0.14529 0.67724 0.33522 0.0
C807 C 0.81804 0.0051 0.37597 0.0
C808 C 0.81386 0.0182 0.3993 0.0
C809 C 0.79315 0.96657 0.36674 0.0
C810 C 0.7639 0.93972 0.38075 0.0
H811 H 0.83994 0.02488 0.36453 0.0
H812 H 0.79687 0.95778 0.3485 0.0
S813 S 0.74248 0.95967 0.44343 0.0
N814 N 0.77903 1.00149 0.43639 0.0
N815 N 0.733 0.92905 0.41942 0.0
C816 C 0.76024 0.95241 0.40437 0.0
C817 C 0.78502 0.99168 0.41352 0.0
C818 C 0.05414 0.81245 0.41377 0.0
C819 C 0.01894 0.80316 0.40035 0.0
C820 C 0.08875 0.82353 0.40216 0.0
C821 C 0.08984 0.82571 0.37651 0.0
H822 H 0.05504 0.81124 0.43354 0.0
H823 H 0.11481 0.83011 0.41357 0.0
S824 S 1.00536 0.80411 0.33273 0.0
N825 N 0.98703 0.79669 0.35984 0.0
N826 N 0.05215 0.81748 0.33797 0.0
C827 C 0.05471 0.81632 0.36275 0.0
C828 C 0.01931 0.8051 0.37468 0.0
C829 C 0.20984 0.23463 0.41157 0.0
C830 C 0.22457 0.21549 0.3974 0.0
C831 C 0.19834 0.25884 0.40111 0.0
C832 C 0.20123 0.26519 0.37594 0.0
H833 H 0.20714 0.23089 0.43104 0.0
H834 H 0.18728 0.27283 0.41307 0.0
S835 S 0.23835 0.22193 0.33065 0.0
N836 N 0.24166 0.20432 0.35681 0.0
N837 N 0.22013 0.25011 0.33702 0.0
C838 C 0.21587 0.24608 0.36142 0.0
C839 C 0.22754 0.22119 0.37218 0.0
C840 C 0.68792 0.537 0.717 0.0
C841 C 0.66541 0.54918 0.72984 0.0
C842 C 0.72005 0.56297 0.7046 0.0
C843 C 0.73103 0.60214 0.70471 0.0
H844 H 0.68141 0.50741 0.71716 0.0
H845 H 0.73734 0.55256 0.69575 0.0
S846 S 0.67913 0.64774 0.73311 0.0
N847 N 0.65423 0.60231 0.73988 0.0
N848 N 0.71515 0.65127 0.71714 0.0
C849 C 0.70799 0.61442 0.71672 0.0
C850 C 0.67509 0.58793 0.72916 0.0
C851 C 0.454 0.097 0.73648 0.0
C852 C 0.49461 0.12361 0.73725 0.0
C853 C 0.42641 0.10511 0.72549 0.0
C854 C 0.43828 0.13999 0.71455 0.0
H855 H 0.44338 0.06948 0.7443 0.0
H856 H 0.39552 0.08366 0.72536 0.0
S857 S 0.54081 0.22061 0.71305 0.0
N858 N 0.54507 0.18735 0.72729 0.0
N859 N 0.49334 0.20206 0.70602 0.0
C860 C 0.47873 0.16693 0.71521 0.0
C861 C 0.50683 0.15888 0.72668 0.0
C862 C 0.94424 0.36535 0.72698 0.0
C863 C 0.91697 0.37812 0.72619 0.0
C864 C 0.93429 0.32879 0.71657 0.0
C865 C 0.89675 0.30369 0.70486 0.0
H866 H 0.97346 0.38371 0.73586 0.0
H867 H 0.9562 0.32013 0.71778 0.0
S868 S 0.81412 0.32277 0.69879 0.0
N869 N 0.85043 0.36235 0.71351 0.0
N870 N 0.83191 0.29395 0.69349 0.0
C871 C 0.8693 0.31626 0.70373 0.0
C872 C 0.87936 0.35339 0.71449 0.0
C873 C 0.2049 1.00072 0.64658 0.0
C874 C 0.21666 0.97703 0.63447 0.0
C875 C 0.23263 0.03759 0.65709 0.0
C876 C 0.27317 0.05225 0.65576 0.0
H877 H 0.174 0.99113 0.64735 0.0
H878 H 0.22209 0.05504 0.66581 0.0
S879 S 0.3192 0.99999 0.62822 0.0
N880 N 0.27152 0.96947 0.62345 0.0
N881 N 0.3237 0.03909 0.64275 0.0
C882 C 0.28535 0.02843 0.64426 0.0
C883 C 0.25709 0.99075 0.63375 0.0
C884 C 0.04179 0.23471 0.65261 0.0
C885 C 0.04219 0.23169 0.62679 0.0
C886 C 1.0075 0.2268 0.66391 0.0
C887 C 0.97247 0.2163 0.64983 0.0
H888 H 0.06836 0.24377 0.66424 0.0
H889 H 1.00866 0.22981 0.68378 0.0
S890 S 0.95624 0.20028 0.58189 0.0
N891 N 1.00297 0.21388 0.5877 0.0
N892 N 0.93932 0.20088 0.60888 0.0
C893 C 0.97216 0.21261 0.62409 0.0
C894 C 1.00678 0.21989 0.6126 0.0
C895 C 0.81021 0.79339 0.62302 0.0
C896 C 0.79533 0.81215 0.63766 0.0
C897 C 0.82027 0.76764 0.63279 0.0
C898 C 0.81683 0.76047 0.6577 0.0
H899 H 0.81416 0.79859 0.6038 0.0
H900 H 0.83119 0.75351 0.62083 0.0
S901 S 0.77841 0.80062 0.70385 0.0
N902 N 0.77617 0.82013 0.6783 0.0
N903 N 0.79725 0.77318 0.69685 0.0
C904 C 0.80269 0.77927 0.67271 0.0
C905 C 0.79149 0.80483 0.66267 0.0
C906 C 0.9954 0.75966 0.62582 0.0
C907 C 0.02684 0.79272 0.63849 0.0
C908 C 0.95952 0.73851 0.63616 0.0
C909 C 0.95374 0.74909 0.65985 0.0
H910 H 0.9983 0.75033 0.60751 0.0
H911 H 0.93609 0.71348 0.62544 0.0
S912 S 0.02722 0.8326 0.70122 0.0
N913 N 0.05027 0.83486 0.67631 0.0
N914 N 0.98275 0.79441 0.69596 0.0
C915 C 0.98518 0.7816 0.67304 0.0
C916 C 0.02174 0.80365 0.6623 0.0
C917 C 0.24261 0.19876 0.61428 0.0
C918 C 0.21813 0.20761 0.62758 0.0
C919 C 0.2694 0.19045 0.62616 0.0
C920 C 0.27309 0.19085 0.65195 0.0
H921 H 0.24105 0.1982 0.5944 0.0
H922 H 0.28747 0.18384 0.61491 0.0
S923 S 0.21576 0.21254 0.69546 0.0
N924 N 0.19926 0.21643 0.66808 0.0
N925 N 0.24958 0.20093 0.69048 0.0
C926 C 0.24876 0.19977 0.66555 0.0
C927 C 0.2213 0.20809 0.65337 0.0
C928 C 0.78881 0.02307 0.62777 0.0
C929 C 0.79473 0.99816 0.64226 0.0
C930 C 0.80619 0.0624 0.63504 0.0
C931 C 0.82931 0.07805 0.6574 0.0
H932 H 0.77081 0.01209 0.61054 0.0
H933 H 0.80069 0.08048 0.62329 0.0
S934 S 0.85337 0.02487 0.7022 0.0
N935 N 0.82546 0.99174 0.67993 0.0
N936 N 0.85733 0.06569 0.69401 0.0
C937 C 0.83531 0.05341 0.67217 0.0
C938 C 0.81824 0.01342 0.66449 0.0
C939 C 0.45463 0.32852 0.74511 0.0
C940 C 0.48586 0.35475 0.73213 0.0
C941 C 0.42983 0.29027 0.7357 0.0
C942 C 0.43486 0.27696 0.71269 0.0
H943 H 0.4493 0.33764 0.76278 0.0
H944 H 0.40604 0.27123 0.74636 0.0
S945 S 0.51276 0.3338 0.67151 0.0
N946 N 0.52111 0.36454 0.69526 0.0
N947 N 0.47396 0.29266 0.67733 0.0
C948 C 0.4661 0.3028 0.6995 0.0
C949 C 0.49179 0.34171 0.70929 0.0
C950 C 0.72593 0.14905 0.74844 0.0
C951 C 0.69027 0.13897 0.73529 0.0
C952 C 0.76025 0.15998 0.73648 0.0
C953 C 0.76049 0.16111 0.71074 0.0
H954 H 0.72743 0.14864 0.76826 0.0
H955 H 0.78678 0.16736 0.74767 0.0
S956 S 0.67457 0.13723 0.6676 0.0
N957 N 0.65709 0.13072 0.69495 0.0
N958 N 0.72154 0.15112 0.67244 0.0
C959 C 0.72489 0.15093 0.69727 0.0
C960 C 0.68985 0.13994 0.70954 0.0
C961 C 0.89645 0.55703 0.70803 0.0
C962 C 0.88228 0.54143 0.73042 0.0
C963 C 0.88629 0.58247 0.69759 0.0
C964 C 0.86162 0.59307 0.70921 0.0
H965 H 0.91627 0.55037 0.6988 0.0
H966 H 0.89879 0.59477 0.68073 0.0
S967 S 0.8132 0.55626 0.76668 0.0
N968 N 0.84022 0.53598 0.76289 0.0
N969 N 0.82043 0.58293 0.74322 0.0
C970 C 0.84599 0.57621 0.73107 0.0
C971 C 0.85653 0.55064 0.74171 0.0
C972 C 0.49808 0.97862 0.2228 0.0
C973 C 0.45975 0.94791 0.22507 0.0
C974 C 0.50865 0.9973 0.20101 0.0
C975 C 0.48141 0.98604 0.18047 0.0
H976 H 0.52019 0.98842 0.23807 0.0
H977 H 0.5387 0.02035 0.20011 0.0
S978 S 0.3768 0.90801 0.17695 0.0
N979 N 0.39423 0.90731 0.20486 0.0
N980 N 0.41388 0.943 0.16407 0.0
C981 C 0.44277 0.95571 0.18254 0.0
C982 C 0.43198 0.93663 0.20479 0.0
C983 C 0.04101 0.48099 0.22358 0.0
C984 C 0.0729 0.51732 0.23224 0.0
C985 C 0.02327 0.47466 0.19973 0.0
C986 C 0.0368 0.50441 0.18365 0.0
H987 H 0.02912 0.45748 0.23551 0.0
H988 H 0.99888 0.44618 0.1938 0.0
S989 S 0.1202 0.60455 0.19723 0.0
N990 N 0.11844 0.58297 0.22254 0.0
N991 N 0.08403 0.57163 0.17814 0.0
C992 C 0.06894 0.54079 0.19202 0.0
C993 C 0.08722 0.54711 0.2162 0.0
C994 C 0.47747 0.53398 0.20623 0.0
C995 C 0.50444 0.54619 0.22697 0.0
C996 C 0.4876 0.52702 0.18301 0.0
C997 C 0.5249 0.53164 0.1798 0.0
H998 H 0.4488 0.53088 0.20782 0.0
H999 H 0.46616 0.51811 0.16743 0.0
S1000 S 0.60536 0.56166 0.2286 0.0
N1001 N 0.56931 0.56115 0.24306 0.0
N1002 N 0.58856 0.54869 0.19949 0.0
C1003 C 0.55172 0.54299 0.20055 0.0
C1004 C 0.54145 0.55013 0.2241 0.0
C1005 C 1.00181 0.46566 0.80835 0.0
C1006 C 0.96819 0.46808 0.80216 0.0
C1007 C 0.01833 0.47349 0.83262 0.0
C1008 C 1.00166 0.4837 0.85164 0.0
H1009 H 0.0156 0.45787 0.79427 0.0
H1010 H 0.0441 0.47106 0.83657 0.0
S1011 S 0.91359 0.49412 0.84514 0.0
N1012 N 0.91857 0.48112 0.81705 0.0
N1013 N 0.95009 0.49655 0.86262 0.0
C1014 C 0.9681 0.48634 0.84571 0.0
C1015 C 0.95132 0.47844 0.82098 0.0
C1016 C 0.58456 0.49289 0.82523 0.0
C1017 C 0.59137 0.51735 0.80612 0.0
C1018 C 0.57204 0.49947 0.84758 0.0
C1019 C 0.56584 0.53076 0.8517 0.0
H1020 H 0.58786 0.46781 0.8226 0.0
H1021 H 0.56639 0.47942 0.86158 0.0
S1022 S 0.58074 0.60401 0.80783 0.0
N1023 N 0.59225 0.57477 0.79302 0.0
N1024 N 0.56867 0.58717 0.83506 0.0
C1025 C 0.57412 0.55638 0.83313 0.0
C1026 C 0.58692 0.54967 0.81035 0.0
C1027 C 0.53829 0.04007 0.81221 0.0
C1028 C 0.53529 0.07298 0.80847 0.0
C1029 C 0.52907 0.02223 0.83444 0.0
C1030 C 0.51672 0.03671 0.85391 0.0
H1031 H 0.54719 0.02757 0.79767 0.0
H1032 H 0.5319 0.99701 0.83644 0.0
S1033 S 0.5049 0.12268 0.85369 0.0
N1034 N 0.52026 0.12004 0.82647 0.0
N1035 N 0.50183 0.08594 0.86783 0.0
C1036 C 0.5139 0.06978 0.85045 0.0
C1037 C 0.52338 0.08798 0.82787 0.0
C1038 C 0.10769 0.27944 0.54035 0.0
C1039 C 0.13554 0.29056 0.56057 0.0
C1040 C 0.11788 0.29775 0.51834 0.0
C1041 C 0.15624 0.32818 0.51572 0.0
H1042 H 0.07797 0.25579 0.54136 0.0
H1043 H 0.09551 0.28797 0.50324 0.0
S1044 S 0.23977 0.36908 0.56344 0.0
N1045 N 0.20279 0.33486 0.57681 0.0
N1046 N 0.22213 0.36869 0.53539 0.0
C1047 C 0.18419 0.33998 0.53594 0.0
C1048 C 0.17383 0.3213 0.55832 0.0
C1049 C 0.75021 0.86843 0.54811 0.0
C1050 C 0.73402 0.84167 0.56598 0.0
C1051 C 0.73268 0.86013 0.52413 0.0
C1052 C 0.6982 0.82482 0.51715 0.0
H1053 H 0.77675 0.89602 0.5527 0.0
H1054 H 0.74591 0.88179 0.51104 0.0
S1055 S 0.6446 0.74466 0.55687 0.0
N1056 N 0.68174 0.77835 0.57508 0.0
N1057 N 0.64904 0.76245 0.52975 0.0
C1058 C 0.68187 0.79763 0.53474 0.0
C1059 C 0.6998 0.80607 0.5592 0.0
C1060 C 0.16596 0.8527 0.55171 0.0
C1061 C 0.1672 0.88746 0.5586 0.0
C1062 C 0.17601 0.8462 0.52839 0.0
C1063 C 0.1875 0.87414 0.51107 0.0
H1064 H 0.15852 0.83094 0.56474 0.0
H1065 H 0.17516 0.81922 0.52399 0.0
S1066 S 0.19315 0.96906 0.51965 0.0
N1067 N 0.17835 0.94913 0.54576 0.0
N1068 N 0.19843 0.93752 0.50229 0.0
C1069 C 0.18765 0.90853 0.5175 0.0
C1070 C 0.17725 0.91504 0.54116 0.0
C1071 C 0.62289 0.81318 0.15393 0.0
C1072 C 0.63896 0.80219 0.13491 0.0
C1073 C 0.63933 0.8205 0.17822 0.0
C1074 C 0.67259 0.81739 0.18432 0.0
H1075 H 0.59703 0.81547 0.15007 0.0
H1076 H 0.62601 0.82884 0.19233 0.0
S1077 S 0.7261 0.7902 0.14116 0.0
N1078 N 0.69052 0.78948 0.12367 0.0
N1079 N 0.72088 0.80245 0.16938 0.0
C1080 C 0.68912 0.80676 0.16543 0.0
C1081 C 0.6724 0.7993 0.14074 0.0
C1082 C 0.25183 0.82325 0.15946 0.0
C1083 C 0.25915 0.84771 0.14029 0.0
C1084 C 0.24021 0.83068 0.18193 0.0
C1085 C 0.23522 0.86272 0.18605 0.0
H1086 H 0.25401 0.79752 0.1568 0.0
H1087 H 0.23353 0.81027 0.19582 0.0
S1088 S 0.25421 0.93758 0.14267 0.0
N1089 N 0.26298 0.90659 0.12745 0.0
N1090 N 0.24168 0.92087 0.16988 0.0
C1091 C 0.24425 0.88841 0.16748 0.0
C1092 C 0.25621 0.8809 0.1446 0.0
C1093 C 0.19923 0.36548 0.14314 0.0
C1094 C 0.19853 0.39962 0.13976 0.0
C1095 C 0.19033 0.34814 0.16555 0.0
C1096 C 0.18064 0.36443 0.18551 0.0
H1097 H 0.20584 0.3516 0.12816 0.0
H1098 H 0.19032 0.32135 0.16708 0.0
S1099 S 0.17915 0.4562 0.18679 0.0
N1100 N 0.19002 0.45055 0.15866 0.0
N1101 N 0.17413 0.41859 0.20084 0.0
C1102 C 0.18107 0.39928 0.18253 0.0
C1103 C 0.18983 0.41672 0.15968 0.0
C1104 C 0.83018 0.64367 0.88888 0.0
C1105 C 0.79199 0.61288 0.8914 0.0
C1106 C 0.84018 0.6625 0.86712 0.0
C1107 C 0.81246 0.65141 0.84686 0.0
H1108 H 0.85266 0.65341 0.90392 0.0
H1109 H 0.87018 0.68553 0.86603 0.0
S1110 S 0.70795 0.57324 0.84406 0.0
N1111 N 0.7261 0.57231 0.87169 0.0
N1112 N 0.7446 0.60844 0.83103 0.0
C1113 C 0.77394 0.62103 0.84919 0.0
C1114 C 0.76376 0.60172 0.8714 0.0
C1115 C 0.36549 0.16728 0.89567 0.0
C1116 C 0.40517 0.17853 0.90035 0.0
C1117 C 0.34866 0.16048 0.87154 0.0
C1118 C 0.37117 0.16519 0.85135 0.0
H1119 H 0.34748 0.16408 0.91077 0.0
H1120 H 0.31808 0.15241 0.86868 0.0
S1121 S 0.47667 0.19449 0.85431 0.0
N1122 N 0.46664 0.19413 0.88335 0.0
N1123 N 0.43518 0.18121 0.83783 0.0
C1124 C 0.41093 0.17617 0.85594 0.0
C1125 C 0.4279 0.18285 0.88051 0.0
C1126 C 0.81496 0.2008 0.87329 0.0
C1127 C 0.84232 0.21291 0.89382 0.0
C1128 C 0.82468 0.19419 0.84985 0.0
C1129 C 0.86195 0.19905 0.84618 0.0
H1130 H 0.7863 0.19757 0.87524 0.0
H1131 H 0.80295 0.1854 0.83445 0.0
S1132 S 0.94338 0.22885 0.89428 0.0
N1133 N 0.90753 0.22789 0.90921 0.0
N1134 N 0.92604 0.21621 0.86524 0.0
C1135 C 0.88916 0.21026 0.86672 0.0
C1136 C 0.8793 0.21701 0.8905 0.0
C1137 C 0.33323 0.12864 0.47536 0.0
C1138 C 0.30033 0.13243 0.46949 0.0
C1139 C 0.35027 0.13633 0.4995 0.0
C1140 C 0.3348 0.14771 0.51869 0.0
H1141 H 0.34605 0.1199 0.46114 0.0
H1142 H 0.37547 0.1329 0.50323 0.0
S1143 S 0.24903 0.16194 0.51302 0.0
N1144 N 0.25274 0.14806 0.48485 0.0
N1145 N 0.28517 0.16312 0.53017 0.0
C1146 C 0.30198 0.1517 0.51307 0.0
C1147 C 0.2847 0.14399 0.48849 0.0
C1148 C 0.91267 0.15668 0.49046 0.0
C1149 C 0.91912 0.18088 0.47124 0.0
C1150 C 0.9002 0.16333 0.5128 0.0
C1151 C 0.8936 0.19439 0.51679 0.0
H1152 H 0.91629 0.13177 0.48794 0.0
H1153 H 0.89495 0.14355 0.52693 0.0
S1154 S 0.90717 0.26674 0.47252 0.0
N1155 N 0.91908 0.23771 0.45785 0.0
N1156 N 0.89547 0.2502 0.49986 0.0
C1157 C 0.90138 0.21968 0.49807 0.0
C1158 C 0.91418 0.21293 0.4753 0.0
C1159 C 0.89096 0.7445 0.49193 0.0
C1160 C 0.86245 0.7297 0.47187 0.0
C1161 C 0.88305 0.72748 0.51447 0.0
C1162 C 0.84645 0.69474 0.51775 0.0
H1163 H 0.91941 0.76982 0.49033 0.0
H1164 H 0.90587 0.73991 0.5294 0.0
S1165 S 0.76204 0.64441 0.47082 0.0
N1166 N 0.79647 0.6798 0.45661 0.0
N1167 N 0.78138 0.64839 0.49897 0.0
C1168 C 0.81782 0.67951 0.49776 0.0
C1169 C 0.82585 0.69685 0.47487 0.0
loop_
_geom_bond_atom_site_label_1
_geom_bond_atom_site_label_2
_geom_bond_distance
_geom_bond_site_symmetry_2
_ccdc_geom_bond_type
H0 C5 0.930 . S
H1 C8 0.930 . S
H2 C10 0.930 . S
H3 C4 1.016 . S
C4 H3 1.016 . S
C4 N11 1.286 . S
C5 H0 0.930 . S
C5 C6 1.397 . S
C5 C7 1.361 . S
C6 C5 1.397 . S
C6 C10 1.390 . S
C7 C5 1.361 . S
C7 C8 1.393 . S
C7 N11 1.413 . S
C8 H1 0.930 . S
C8 C7 1.393 . S
C8 C9 1.399 . S
C9 C8 1.399 . S
C9 C10 1.381 . S
C10 H2 0.930 . S
C10 C6 1.390 . S
C10 C9 1.381 . S
N11 C4 1.286 . S
N11 C7 1.413 . S
H12 C17 0.930 . S
H13 C20 0.930 . S
H14 C22 0.930 . S
H15 C16 1.016 . S
C16 H15 1.016 . S
C16 N23 1.286 . S
C17 H12 0.930 . S
C17 C18 1.397 . S
C17 C19 1.361 . S
C18 C17 1.397 . S
C18 C22 1.390 . S
C19 C17 1.361 . S
C19 C20 1.393 . S
C19 N23 1.413 . S
C20 H13 0.930 . S
C20 C19 1.393 . S
C20 C21 1.399 . S
C21 C20 1.399 . S
C21 C22 1.381 . S
C22 H14 0.930 . S
C22 C18 1.390 . S
C22 C21 1.381 . S
N23 C16 1.286 . S
N23 C19 1.413 . S
H24 C29 0.930 . S
H25 C32 0.930 . S
H26 C34 0.930 . S
H27 C28 1.016 . S
C28 H27 1.016 . S
C28 N35 1.286 . S
C29 H24 0.930 . S
C29 C30 1.397 . S
C29 C31 1.361 . S
C30 C29 1.397 . S
C30 C34 1.390 . S
C31 C29 1.361 . S
C31 C32 1.393 . S
C31 N35 1.413 . S
C32 H25 0.930 . S
C32 C31 1.393 . S
C32 C33 1.399 . S
C33 C32 1.399 . S
C33 C34 1.381 . S
C34 H26 0.930 . S
C34 C30 1.390 . S
C34 C33 1.381 . S
N35 C28 1.286 . S
N35 C31 1.413 . S
H36 C41 0.930 . S
H37 C44 0.930 . S
H38 C46 0.930 . S
H39 C40 1.016 . S
C40 H39 1.016 . S
C40 N47 1.286 . S
C41 H36 0.930 . S
C41 C42 1.397 . S
C41 C43 1.361 . S
C42 C41 1.397 . S
C42 C46 1.390 . S
C43 C41 1.361 . S
C43 C44 1.393 . S
C43 N47 1.413 . S
C44 H37 0.930 . S
C44 C43 1.393 . S
C44 C45 1.399 . S
C45 C44 1.399 . S
C45 C46 1.381 . S
C46 H38 0.930 . S
C46 C42 1.390 . S
C46 C45 1.381 . S
N47 C40 1.286 . S
N47 C43 1.413 . S
H48 C53 0.930 . S
H49 C56 0.930 . S
H50 C58 0.930 . S
H51 C52 1.016 . S
C52 H51 1.016 . S
C52 N59 1.286 . S
C53 H48 0.930 . S
C53 C54 1.397 . S
C53 C55 1.361 . S
C54 C53 1.397 . S
C54 C58 1.390 . S
C55 C53 1.361 . S
C55 C56 1.393 . S
C55 N59 1.413 . S
C56 H49 0.930 . S
C56 C55 1.393 . S
C56 C57 1.399 . S
C57 C56 1.399 . S
C57 C58 1.381 . S
C58 H50 0.930 . S
C58 C54 1.390 . S
C58 C57 1.381 . S
N59 C52 1.286 . S
N59 C55 1.413 . S
H60 C65 0.930 . S
H61 C68 0.930 . S
H62 C70 0.930 . S
H63 C64 1.016 . S
C64 H63 1.016 . S
C64 N71 1.286 . S
C65 H60 0.930 . S
C65 C66 1.397 . S
C65 C67 1.361 . S
C66 C65 1.397 . S
C66 C70 1.390 . S
C67 C65 1.361 . S
C67 C68 1.393 . S
C67 N71 1.413 . S
C68 H61 0.930 . S
C68 C67 1.393 . S
C68 C69 1.399 . S
C69 C68 1.399 . S
C69 C70 1.381 . S
C70 H62 0.930 . S
C70 C66 1.390 . S
C70 C69 1.381 . S
N71 C64 1.286 . S
N71 C67 1.413 . S
H72 C77 0.930 . S
H73 C80 0.930 . S
H74 C82 0.930 . S
H75 C76 1.016 . S
C76 H75 1.016 . S
C76 N83 1.286 . S
C77 H72 0.930 . S
C77 C78 1.397 . S
C77 C79 1.361 . S
C78 C77 1.397 . S
C78 C82 1.390 . S
C79 C77 1.361 . S
C79 C80 1.393 . S
C79 N83 1.413 . S
C80 H73 0.930 . S
C80 C79 1.393 . S
C80 C81 1.399 . S
C81 C80 1.399 . S
C81 C82 1.381 . S
C82 H74 0.930 . S
C82 C78 1.390 . S
C82 C81 1.381 . S
N83 C76 1.286 . S
N83 C79 1.413 . S
H84 C89 0.930 . S
H85 C92 0.930 . S
H86 C94 0.930 . S
H87 C88 1.016 . S
C88 H87 1.016 . S
C88 N95 1.286 . S
C89 H84 0.930 . S
C89 C90 1.397 . S
C89 C91 1.361 . S
C90 C89 1.397 . S
C90 C94 1.390 . S
C91 C89 1.361 . S
C91 C92 1.393 . S
C91 N95 1.413 . S
C92 H85 0.930 . S
C92 C91 1.393 . S
C92 C93 1.399 . S
C93 C92 1.399 . S
C93 C94 1.381 . S
C94 H86 0.930 . S
C94 C90 1.390 . S
C94 C93 1.381 . S
N95 C88 1.286 . S
N95 C91 1.413 . S
H96 C101 0.930 . S
H97 C104 0.930 . S
H98 C106 0.930 . S
H99 C100 1.016 . S
C100 H99 1.016 . S
C100 N107 1.286 . S
C101 H96 0.930 . S
C101 C102 1.397 . S
C101 C103 1.361 . S
C102 C101 1.397 . S
C102 C106 1.390 . S
C103 C101 1.361 . S
C103 C104 1.393 . S
C103 N107 1.413 . S
C104 H97 0.930 . S
C104 C103 1.393 . S
C104 C105 1.399 . S
C105 C104 1.399 . S
C105 C106 1.381 . S
C106 H98 0.930 . S
C106 C102 1.390 . S
C106 C105 1.381 . S
N107 C100 1.286 . S
N107 C103 1.413 . S
H108 C113 0.930 . S
H109 C116 0.930 . S
H110 C118 0.930 . S
H111 C112 1.016 . S
C112 H111 1.016 . S
C112 N119 1.286 . S
C113 H108 0.930 . S
C113 C114 1.397 . S
C113 C115 1.361 . S
C114 C113 1.397 . S
C114 C118 1.390 . S
C115 C113 1.361 . S
C115 C116 1.393 . S
C115 N119 1.413 . S
C116 H109 0.930 . S
C116 C115 1.393 . S
C116 C117 1.399 . S
C117 C116 1.399 . S
C117 C118 1.381 . S
C118 H110 0.930 . S
C118 C114 1.390 . S
C118 C117 1.381 . S
N119 C112 1.286 . S
N119 C115 1.413 . S
H120 C125 0.930 1_554 S
H121 C128 0.930 . S
H122 C130 0.930 . S
H123 C124 1.016 . S
C124 H123 1.016 . S
C124 N131 1.286 . S
C125 H120 0.930 1_556 S
C125 C126 1.397 . S
C125 C127 1.361 . S
C126 C125 1.397 . S
C126 C130 1.390 . S
C127 C125 1.361 . S
C127 C128 1.393 . S
C127 N131 1.413 . S
C128 H121 0.930 . S
C128 C127 1.393 . S
C128 C129 1.399 . S
C129 C128 1.399 . S
C129 C130 1.381 . S
C130 H122 0.930 . S
C130 C126 1.390 . S
C130 C129 1.381 . S
N131 C124 1.286 . S
N131 C127 1.413 . S
H132 C137 0.930 . S
H133 C140 0.930 . S
H134 C142 0.930 . S
H135 C136 1.016 . S
C136 H135 1.016 . S
C136 N143 1.286 . S
C137 H132 0.930 . S
C137 C138 1.397 . S
C137 C139 1.361 . S
C138 C137 1.397 . S
C138 C142 1.390 . S
C139 C137 1.361 . S
C139 C140 1.393 . S
C139 N143 1.413 . S
C140 H133 0.930 . S
C140 C139 1.393 . S
C140 C141 1.399 . S
C141 C140 1.399 . S
C141 C142 1.381 . S
C142 H134 0.930 . S
C142 C138 1.390 . S
C142 C141 1.381 . S
N143 C136 1.286 . S
N143 C139 1.413 . S
H144 C149 0.930 . S
H145 C152 0.930 . S
H146 C154 0.930 . S
H147 C148 1.016 . S
C148 H147 1.016 . S
C148 N155 1.286 . S
C149 H144 0.930 . S
C149 C150 1.397 . S
C149 C151 1.361 . S
C150 C149 1.397 . S
C150 C154 1.390 . S
C151 C149 1.361 . S
C151 C152 1.393 . S
C151 N155 1.413 . S
C152 H145 0.930 . S
C152 C151 1.393 . S
C152 C153 1.399 . S
C153 C152 1.399 . S
C153 C154 1.381 . S
C154 H146 0.930 . S
C154 C150 1.390 . S
C154 C153 1.381 . S
N155 C148 1.286 . S
N155 C151 1.413 . S
H156 C161 0.930 . S
H157 C164 0.930 . S
H158 C166 0.930 . S
H159 C160 1.016 . S
C160 H159 1.016 . S
C160 N167 1.286 . S
C161 H156 0.930 . S
C161 C162 1.397 . S
C161 C163 1.361 . S
C162 C161 1.397 . S
C162 C166 1.390 . S
C163 C161 1.361 . S
C163 C164 1.393 . S
C163 N167 1.413 . S
C164 H157 0.930 . S
C164 C163 1.393 . S
C164 C165 1.399 . S
C165 C164 1.399 . S
C165 C166 1.381 . S
C166 H158 0.930 . S
C166 C162 1.390 . S
C166 C165 1.381 . S
N167 C160 1.286 . S
N167 C163 1.413 . S
H168 C173 0.930 . S
H169 C176 0.930 . S
H170 C178 0.930 . S
H171 C172 1.016 . S
C172 H171 1.016 . S
C172 N179 1.286 . S
C173 H168 0.930 . S
C173 C174 1.397 . S
C173 C175 1.361 . S
C174 C173 1.397 . S
C174 C178 1.390 . S
C175 C173 1.361 . S
C175 C176 1.393 . S
C175 N179 1.413 . S
C176 H169 0.930 . S
C176 C175 1.393 . S
C176 C177 1.399 . S
C177 C176 1.399 . S
C177 C178 1.381 . S
C178 H170 0.930 . S
C178 C174 1.390 . S
C178 C177 1.381 . S
N179 C172 1.286 . S
N179 C175 1.413 . S
H180 C185 0.930 . S
H181 C188 0.930 . S
H182 C190 0.930 . S
H183 C184 1.016 . S
C184 H183 1.016 . S
C184 N191 1.286 . S
C185 H180 0.930 . S
C185 C186 1.397 . S
C185 C187 1.361 . S
C186 C185 1.397 . S
C186 C190 1.390 . S
C187 C185 1.361 . S
C187 C188 1.393 . S
C187 N191 1.413 . S
C188 H181 0.930 . S
C188 C187 1.393 . S
C188 C189 1.399 . S
C189 C188 1.399 . S
C189 C190 1.381 . S
C190 H182 0.930 . S
C190 C186 1.390 . S
C190 C189 1.381 . S
N191 C184 1.286 . S
N191 C187 1.413 . S
H192 C197 0.930 . S
H193 C200 0.930 . S
H194 C202 0.930 . S
H195 C196 1.016 . S
C196 H195 1.016 . S
C196 N203 1.286 . S
C197 H192 0.930 . S
C197 C198 1.397 . S
C197 C199 1.361 . S
C198 C197 1.397 . S
C198 C202 1.390 . S
C199 C197 1.361 . S
C199 C200 1.393 . S
C199 N203 1.413 . S
C200 H193 0.930 . S
C200 C199 1.393 . S
C200 C201 1.399 . S
C201 C200 1.399 . S
C201 C202 1.381 . S
C202 H194 0.930 . S
C202 C198 1.390 . S
C202 C201 1.381 . S
N203 C196 1.286 . S
N203 C199 1.413 . S
H204 C209 0.930 . S
H205 C212 0.930 . S
H206 C214 0.930 . S
H207 C208 1.016 . S
C208 H207 1.016 . S
C208 N215 1.286 . S
C209 H204 0.930 . S
C209 C210 1.397 . S
C209 C211 1.361 . S
C210 C209 1.397 . S
C210 C214 1.390 . S
C211 C209 1.361 . S
C211 C212 1.393 . S
C211 N215 1.413 . S
C212 H205 0.930 . S
C212 C211 1.393 . S
C212 C213 1.399 . S
C213 C212 1.399 . S
C213 C214 1.381 . S
C214 H206 0.930 . S
C214 C210 1.390 . S
C214 C213 1.381 . S
N215 C208 1.286 . S
N215 C211 1.413 . S
Tb216 C226 2.825 1_565 S
Tb216 O227 2.347 1_565 S
Tb216 O230 2.366 1_565 S
Tb216 O235 2.418 . S
Tb216 O236 2.384 . S
Tb216 O239 2.479 . S
Tb216 O240 2.471 1_565 S
Eu217 O228 2.418 . S
Eu217 O229 2.384 . S
Eu217 O232 2.479 . S
Eu217 O233 2.471 1_545 S
Eu217 O234 2.347 1_545 S
Eu217 O237 2.366 1_545 S
Eu217 C247 2.825 . S
C218 O234 1.259 . S
C218 O235 1.265 1_554 S
C219 O236 1.255 1_554 S
C219 O237 1.265 . S
C220 C222 1.380 1_545 S
C220 C223 1.374 . S
C220 C226 1.507 . S
C221 C222 1.384 1_545 S
C221 C225 1.387 . S
C221 H248 0.930 1_545 S
C222 C220 1.380 1_565 S
C222 C221 1.384 1_565 S
C222 H249 0.931 . S
C223 C220 1.374 . S
C223 C224 1.390 . S
C223 H250 0.930 . S
C224 C223 1.390 . S
C224 C225 1.391 . S
C224 H251 0.930 . S
C225 C221 1.387 . S
C225 C224 1.391 . S
C226 Tb216 2.825 1_545 S
C226 C220 1.507 . S
C226 O239 1.238 1_545 S
C226 O240 1.247 . S
O227 Tb216 2.347 1_545 S
O227 C231 1.259 1_556 S
O228 Eu217 2.418 . S
O228 C231 1.265 . S
O229 Eu217 2.384 . S
O229 C238 1.255 1_554 S
O230 Tb216 2.366 1_545 S
O230 C238 1.265 . S
C231 O227 1.259 1_554 S
C231 O228 1.265 . S
O232 Eu217 2.479 . S
O232 C247 1.238 . S
O233 Eu217 2.471 1_565 S
O233 C247 1.247 1_565 S
O234 Eu217 2.347 1_565 S
O234 C218 1.259 . S
O235 Tb216 2.418 . S
O235 C218 1.265 1_556 S
O236 Tb216 2.384 . S
O236 C219 1.255 1_556 S
O237 Eu217 2.366 1_565 S
O237 C219 1.265 . S
C238 O229 1.255 1_556 S
C238 O230 1.265 . S
O239 Tb216 2.479 . S
O239 C226 1.238 1_565 S
O240 Tb216 2.471 1_545 S
O240 C226 1.247 . S
C241 C244 1.380 1_565 S
C241 C245 1.374 . S
C241 C247 1.507 1_565 S
C242 C243 1.387 1_565 S
C242 C246 1.391 . S
C243 C242 1.387 1_545 S
C243 C244 1.384 . S
C243 H252 0.930 . S
C244 C241 1.380 1_545 S
C244 C243 1.384 . S
C244 H253 0.931 . S
C245 C241 1.374 . S
C245 C246 1.390 . S
C245 H254 0.930 . S
C246 C242 1.391 . S
C246 C245 1.390 . S
C246 H255 0.930 . S
C247 Eu217 2.825 . S
C247 O232 1.238 . S
C247 O233 1.247 1_545 S
C247 C241 1.507 1_545 S
H248 C221 0.930 1_565 S
H249 C222 0.931 . S
H250 C223 0.930 . S
H251 C224 0.930 . S
H252 C243 0.930 . S
H253 C244 0.931 . S
H254 C245 0.930 . S
H255 C246 0.930 . S
Tb256 C266 2.833 . S
Tb256 O267 2.347 1_455 S
Tb256 O270 2.366 1_455 S
Tb256 O275 2.418 . S
Tb256 O276 2.384 1_556 S
Tb256 O279 2.479 . S
Tb256 O280 2.471 1_455 S
Eu257 O268 2.418 . S
Eu257 O269 2.384 . S
Eu257 O272 2.479 . S
Eu257 O273 2.471 1_655 S
Eu257 O274 2.347 1_655 S
Eu257 O277 2.366 1_655 S
Eu257 C287 2.825 1_655 S
C258 O274 1.259 . S
C258 O275 1.265 1_554 S
C259 O276 1.255 . S
C259 O277 1.265 . S
C260 C262 1.380 1_655 S
C260 C263 1.374 . S
C260 C266 1.498 1_655 S
C261 C262 1.384 1_655 S
C261 C265 1.387 . S
C261 H288 0.930 1_655 S
C262 C260 1.380 1_455 S
C262 C261 1.384 1_455 S
C262 H289 0.931 . S
C263 C260 1.374 . S
C263 C264 1.390 . S
C263 H290 0.930 . S
C264 C263 1.390 . S
C264 C265 1.391 . S
C264 H291 0.930 . S
C265 C261 1.387 . S
C265 C264 1.391 . S
C266 Tb256 2.833 . S
C266 C260 1.498 1_455 S
C266 O279 1.249 . S
C266 O280 1.245 1_455 S
O267 Tb256 2.347 1_655 S
O267 C271 1.259 . S
O268 Eu257 2.418 . S
O268 C271 1.265 1_554 S
O269 Eu257 2.384 . S
O269 C278 1.255 1_554 S
O270 Tb256 2.366 1_655 S
O270 C278 1.265 . S
C271 O267 1.259 . S
C271 O268 1.265 1_556 S
O272 Eu257 2.479 . S
O272 C287 1.238 1_655 S
O273 Eu257 2.471 1_455 S
O273 C287 1.247 . S
O274 Eu257 2.347 1_455 S
O274 C258 1.259 . S
O275 Tb256 2.418 . S
O275 C258 1.265 1_556 S
O276 Tb256 2.384 1_554 S
O276 C259 1.255 . S
O277 Eu257 2.366 1_455 S
O277 C259 1.265 . S
C278 O269 1.255 1_556 S
C278 O270 1.265 . S
O279 Tb256 2.479 . S
O279 C266 1.249 . S
O280 Tb256 2.471 1_655 S
O280 C266 1.245 1_655 S
C281 C284 1.380 1_455 S
C281 C285 1.374 . S
C281 C287 1.507 . S
C282 C283 1.387 . S
C282 C286 1.391 . S
C283 C282 1.387 . S
C283 C284 1.384 1_455 S
C283 H292 0.930 1_455 S
C284 C281 1.380 1_655 S
C284 C283 1.384 1_655 S
C284 H293 0.931 . S
C285 C281 1.374 . S
C285 C286 1.390 . S
C285 H294 0.930 . S
C286 C282 1.391 . S
C286 C285 1.390 . S
C286 H295 0.930 . S
C287 Eu257 2.825 1_455 S
C287 O272 1.238 1_455 S
C287 O273 1.247 . S
C287 C281 1.507 . S
H288 C261 0.930 1_455 S
H289 C262 0.931 . S
H290 C263 0.930 . S
H291 C264 0.930 . S
H292 C283 0.930 1_655 S
H293 C284 0.931 . S
H294 C285 0.930 . S
H295 C286 0.930 . S
Tb296 C306 2.825 . S
Tb296 O307 2.347 . S
Tb296 O310 2.366 . S
Tb296 O315 2.418 . S
Tb296 O316 2.384 . S
Tb296 O319 2.479 . S
Tb296 O320 2.471 . S
Eu297 O308 2.418 . S
Eu297 O309 2.384 1_556 S
Eu297 O312 2.479 . S
Eu297 O313 2.471 . S
Eu297 O314 2.347 . S
Eu297 O317 2.366 . S
Eu297 C327 2.825 . S
C298 O314 1.259 1_554 S
C298 O315 1.265 . S
C299 O316 1.255 1_556 S
C299 O317 1.265 . S
C300 C302 1.380 . S
C300 C303 1.374 . S
C300 C306 1.507 . S
C301 C302 1.384 . S
C301 C305 1.387 . S
C301 H328 0.930 . S
C302 C300 1.380 . S
C302 C301 1.384 . S
C302 H329 0.931 . S
C303 C300 1.374 . S
C303 C304 1.390 . S
C303 H330 0.930 . S
C304 C303 1.390 . S
C304 C305 1.391 . S
C304 H331 0.930 . S
C305 C301 1.387 . S
C305 C304 1.391 . S
C306 Tb296 2.825 . S
C306 C300 1.507 . S
C306 O319 1.238 . S
C306 O320 1.247 . S
O307 Tb296 2.347 . S
O307 C311 1.259 . S
O308 Eu297 2.418 . S
O308 C311 1.265 1_556 S
O309 Eu297 2.384 1_554 S
O309 C318 1.255 . S
O310 Tb296 2.366 . S
O310 C318 1.265 . S
C311 O307 1.259 . S
C311 O308 1.265 1_554 S
O312 Eu297 2.479 . S
O312 C327 1.238 . S
O313 Eu297 2.471 . S
O313 C327 1.247 . S
O314 Eu297 2.347 . S
O314 C298 1.259 1_556 S
O315 Tb296 2.418 . S
O315 C298 1.265 . S
O316 Tb296 2.384 . S
O316 C299 1.255 1_554 S
O317 Eu297 2.366 . S
O317 C299 1.265 . S
C318 O309 1.255 . S
C318 O310 1.265 . S
O319 Tb296 2.479 . S
O319 C306 1.238 . S
O320 Tb296 2.471 . S
O320 C306 1.247 . S
C321 C324 1.380 . S
C321 C325 1.374 . S
C321 C327 1.507 . S
C322 C323 1.387 . S
C322 C326 1.391 . S
C323 C322 1.387 . S
C323 C324 1.384 . S
C323 H332 0.930 . S
C324 C321 1.380 . S
C324 C323 1.384 . S
C324 H333 0.931 . S
C325 C321 1.374 . S
C325 C326 1.390 . S
C325 H334 0.930 . S
C326 C322 1.391 . S
C326 C325 1.390 . S
C326 H335 0.930 . S
C327 Eu297 2.825 . S
C327 O312 1.238 . S
C327 O313 1.247 . S
C327 C321 1.507 . S
H328 C301 0.930 . S
H329 C302 0.931 . S
H330 C303 0.930 . S
H331 C304 0.930 . S
H332 C323 0.930 . S
H333 C324 0.931 . S
H334 C325 0.930 . S
H335 C326 0.930 . S
Tb336 C346 2.825 . S
Tb336 O347 2.347 . S
Tb336 O350 2.366 . S
Tb336 O355 2.418 . S
Tb336 O356 2.384 . S
Tb336 O359 2.479 . S
Tb336 O360 2.471 . S
Eu337 O348 2.418 . S
Eu337 O349 2.384 . S
Eu337 O352 2.479 . S
Eu337 O353 2.471 . S
Eu337 O354 2.347 . S
Eu337 O357 2.366 . S
Eu337 C367 2.825 . S
C338 O354 1.259 . S
C338 O355 1.265 . S
C339 O356 1.255 . S
C339 O357 1.265 . S
C340 C342 1.380 . S
C340 C343 1.374 . S
C340 C346 1.507 . S
C341 C342 1.384 . S
C341 C345 1.387 . S
C341 H368 0.930 . S
C342 C340 1.380 . S
C342 C341 1.384 . S
C342 H369 0.931 . S
C343 C340 1.374 . S
C343 C344 1.390 . S
C343 H370 0.930 . S
C344 C343 1.390 . S
C344 C345 1.391 . S
C344 H371 0.930 . S
C345 C341 1.387 . S
C345 C344 1.391 . S
C346 Tb336 2.825 . S
C346 C340 1.507 . S
C346 O359 1.238 . S
C346 O360 1.247 . S
O347 Tb336 2.347 . S
O347 C351 1.259 . S
O348 Eu337 2.418 . S
O348 C351 1.265 . S
O349 Eu337 2.384 . S
O349 C358 1.255 . S
O350 Tb336 2.366 . S
O350 C358 1.265 . S
C351 O347 1.259 . S
C351 O348 1.265 . S
O352 Eu337 2.479 . S
O352 C367 1.238 . S
O353 Eu337 2.471 . S
O353 C367 1.247 . S
O354 Eu337 2.347 . S
O354 C338 1.259 . S
O355 Tb336 2.418 . S
O355 C338 1.265 . S
O356 Tb336 2.384 . S
O356 C339 1.255 . S
O357 Eu337 2.366 . S
O357 C339 1.265 . S
C358 O349 1.255 . S
C358 O350 1.265 . S
O359 Tb336 2.479 . S
O359 C346 1.238 . S
O360 Tb336 2.471 . S
O360 C346 1.247 . S
C361 C364 1.380 . S
C361 C365 1.374 . S
C361 C367 1.507 . S
C362 C363 1.387 . S
C362 C366 1.391 . S
C363 C362 1.387 . S
C363 C364 1.384 . S
C363 H372 0.930 . S
C364 C361 1.380 . S
C364 C363 1.384 . S
C364 H373 0.931 . S
C365 C361 1.374 . S
C365 C366 1.390 . S
C365 H374 0.930 . S
C366 C362 1.391 . S
C366 C365 1.390 . S
C366 H375 0.930 . S
C367 Eu337 2.825 . S
C367 O352 1.238 . S
C367 O353 1.247 . S
C367 C361 1.507 . S
H368 C341 0.930 . S
H369 C342 0.931 . S
H370 C343 0.930 . S
H371 C344 0.930 . S
H372 C363 0.930 . S
H373 C364 0.931 . S
H374 C365 0.930 . S
H375 C366 0.930 . S
Tb376 C386 2.825 . S
Tb376 O387 2.347 . S
Tb376 O390 2.366 . S
Tb376 O395 2.418 . S
Tb376 O396 2.384 . S
Tb376 O399 2.479 . S
Tb376 O400 2.471 . S
Eu377 O388 2.418 . S
Eu377 O389 2.384 . S
Eu377 O392 2.479 . S
Eu377 O393 2.471 . S
Eu377 O394 2.347 . S
Eu377 O397 2.366 . S
Eu377 C407 2.825 . S
C378 O394 1.259 . S
C378 O395 1.265 . S
C379 O396 1.255 . S
C379 O397 1.265 . S
C380 C382 1.380 . S
C380 C383 1.374 . S
C380 C386 1.507 . S
C381 C382 1.384 . S
C381 C385 1.387 . S
C381 H408 0.930 . S
C382 C380 1.380 . S
C382 C381 1.384 . S
C382 H409 0.931 . S
C383 C380 1.374 . S
C383 C384 1.390 . S
C383 H410 0.930 . S
C384 C383 1.390 . S
C384 C385 1.391 . S
C384 H411 0.930 . S
C385 C381 1.387 . S
C385 C384 1.391 . S
C386 Tb376 2.825 . S
C386 C380 1.507 . S
C386 O399 1.238 . S
C386 O400 1.247 . S
O387 Tb376 2.347 . S
O387 C391 1.259 . S
O388 Eu377 2.418 . S
O388 C391 1.265 . S
O389 Eu377 2.384 . S
O389 C398 1.255 . S
O390 Tb376 2.366 . S
O390 C398 1.265 . S
C391 O387 1.259 . S
C391 O388 1.265 . S
O392 Eu377 2.479 . S
O392 C407 1.238 . S
O393 Eu377 2.471 . S
O393 C407 1.247 . S
O394 Eu377 2.347 . S
O394 C378 1.259 . S
O395 Tb376 2.418 . S
O395 C378 1.265 . S
O396 Tb376 2.384 . S
O396 C379 1.255 . S
O397 Eu377 2.366 . S
O397 C379 1.265 . S
C398 O389 1.255 . S
C398 O390 1.265 . S
O399 Tb376 2.479 . S
O399 C386 1.238 . S
O400 Tb376 2.471 . S
O400 C386 1.247 . S
C401 C404 1.380 . S
C401 C405 1.374 . S
C401 C407 1.507 . S
C402 C403 1.387 . S
C402 C406 1.391 . S
C403 C402 1.387 . S
C403 C404 1.384 . S
C403 H412 0.930 . S
C404 C401 1.380 . S
C404 C403 1.384 . S
C404 H413 0.931 . S
C405 C401 1.374 . S
C405 C406 1.390 . S
C405 H414 0.930 . S
C406 C402 1.391 . S
C406 C405 1.390 . S
C406 H415 0.930 . S
C407 Eu377 2.825 . S
C407 O392 1.238 . S
C407 O393 1.247 . S
C407 C401 1.507 . S
H408 C381 0.930 . S
H409 C382 0.931 . S
H410 C383 0.930 . S
H411 C384 0.930 . S
H412 C403 0.930 . S
H413 C404 0.931 . S
H414 C405 0.930 . S
H415 C406 0.930 . S
Tb416 C426 2.825 . S
Tb416 O427 2.347 . S
Tb416 O430 2.366 . S
Tb416 O435 2.418 . S
Tb416 O436 2.384 . S
Tb416 O439 2.479 . S
Tb416 O440 2.471 . S
Eu417 O428 2.418 . S
Eu417 O429 2.384 . S
Eu417 O432 2.479 . S
Eu417 O433 2.471 . S
Eu417 O434 2.347 . S
Eu417 O437 2.366 . S
Eu417 C447 2.825 . S
C418 O434 1.259 . S
C418 O435 1.265 . S
C419 O436 1.255 . S
C419 O437 1.265 . S
C420 C422 1.380 . S
C420 C423 1.374 . S
C420 C426 1.507 . S
C421 C422 1.384 . S
C421 C425 1.387 . S
C421 H448 0.930 . S
C422 C420 1.380 . S
C422 C421 1.384 . S
C422 H449 0.931 . S
C423 C420 1.374 . S
C423 C424 1.390 . S
C423 H450 0.930 . S
C424 C423 1.390 . S
C424 C425 1.391 . S
C424 H451 0.930 . S
C425 C421 1.387 . S
C425 C424 1.391 . S
C426 Tb416 2.825 . S
C426 C420 1.507 . S
C426 O439 1.238 . S
C426 O440 1.247 . S
O427 Tb416 2.347 . S
O427 C431 1.259 . S
O428 Eu417 2.418 . S
O428 C431 1.265 . S
O429 Eu417 2.384 . S
O429 C438 1.255 . S
O430 Tb416 2.366 . S
O430 C438 1.265 . S
C431 O427 1.259 . S
C431 O428 1.265 . S
O432 Eu417 2.479 . S
O432 C447 1.238 . S
O433 Eu417 2.471 . S
O433 C447 1.247 . S
O434 Eu417 2.347 . S
O434 C418 1.259 . S
O435 Tb416 2.418 . S
O435 C418 1.265 . S
O436 Tb416 2.384 . S
O436 C419 1.255 . S
O437 Eu417 2.366 . S
O437 C419 1.265 . S
C438 O429 1.255 . S
C438 O430 1.265 . S
O439 Tb416 2.479 . S
O439 C426 1.238 . S
O440 Tb416 2.471 . S
O440 C426 1.247 . S
C441 C444 1.380 . S
C441 C445 1.374 . S
C441 C447 1.507 . S
C442 C443 1.387 . S
C442 C446 1.391 . S
C443 C442 1.387 . S
C443 C444 1.384 . S
C443 H452 0.930 . S
C444 C441 1.380 . S
C444 C443 1.384 . S
C444 H453 0.931 . S
C445 C441 1.374 . S
C445 C446 1.390 . S
C445 H454 0.930 . S
C446 C442 1.391 . S
C446 C445 1.390 . S
C446 H455 0.930 . S
C447 Eu417 2.825 . S
C447 O432 1.238 . S
C447 O433 1.247 . S
C447 C441 1.507 . S
H448 C421 0.930 . S
H449 C422 0.931 . S
H450 C423 0.930 . S
H451 C424 0.930 . S
H452 C443 0.930 . S
H453 C444 0.931 . S
H454 C445 0.930 . S
H455 C446 0.930 . S
Tb456 C466 2.825 . S
Tb456 O467 2.347 . S
Tb456 O470 2.366 . S
Tb456 O475 2.418 . S
Tb456 O476 2.384 . S
Tb456 O479 2.479 . S
Tb456 O480 2.471 . S
Eu457 O468 2.418 . S
Eu457 O469 2.384 . S
Eu457 O472 2.479 . S
Eu457 O473 2.471 . S
Eu457 O474 2.347 . S
Eu457 O477 2.366 . S
Eu457 C487 2.825 . S
C458 O474 1.259 . S
C458 O475 1.265 . S
C459 O476 1.255 . S
C459 O477 1.265 . S
C460 C462 1.380 . S
C460 C463 1.374 . S
C460 C466 1.507 . S
C461 C462 1.384 . S
C461 C465 1.387 . S
C461 H488 0.930 . S
C462 C460 1.380 . S
C462 C461 1.384 . S
C462 H489 0.931 . S
C463 C460 1.374 . S
C463 C464 1.390 . S
C463 H490 0.930 . S
C464 C463 1.390 . S
C464 C465 1.391 . S
C464 H491 0.930 . S
C465 C461 1.387 . S
C465 C464 1.391 . S
C466 Tb456 2.825 . S
C466 C460 1.507 . S
C466 O479 1.238 . S
C466 O480 1.247 . S
O467 Tb456 2.347 . S
O467 C471 1.259 . S
O468 Eu457 2.418 . S
O468 C471 1.265 . S
O469 Eu457 2.384 . S
O469 C478 1.255 . S
O470 Tb456 2.366 . S
O470 C478 1.265 . S
C471 O467 1.259 . S
C471 O468 1.265 . S
O472 Eu457 2.479 . S
O472 C487 1.238 . S
O473 Eu457 2.471 . S
O473 C487 1.247 . S
O474 Eu457 2.347 . S
O474 C458 1.259 . S
O475 Tb456 2.418 . S
O475 C458 1.265 . S
O476 Tb456 2.384 . S
O476 C459 1.255 . S
O477 Eu457 2.366 . S
O477 C459 1.265 . S
C478 O469 1.255 . S
C478 O470 1.265 . S
O479 Tb456 2.479 . S
O479 C466 1.238 . S
O480 Tb456 2.471 . S
O480 C466 1.247 . S
C481 C484 1.380 . S
C481 C485 1.374 . S
C481 C487 1.507 . S
C482 C483 1.387 . S
C482 C486 1.391 . S
C483 C482 1.387 . S
C483 C484 1.384 . S
C483 H492 0.930 . S
C484 C481 1.380 . S
C484 C483 1.384 . S
C484 H493 0.931 . S
C485 C481 1.374 . S
C485 C486 1.390 . S
C485 H494 0.930 . S
C486 C482 1.391 . S
C486 C485 1.390 . S
C486 H495 0.930 . S
C487 Eu457 2.825 . S
C487 O472 1.238 . S
C487 O473 1.247 . S
C487 C481 1.507 . S
H488 C461 0.930 . S
H489 C462 0.931 . S
H490 C463 0.930 . S
H491 C464 0.930 . S
H492 C483 0.930 . S
H493 C484 0.931 . S
H494 C485 0.930 . S
H495 C486 0.930 . S
Tb496 C506 2.825 . S
Tb496 O507 2.347 . S
Tb496 O510 2.366 . S
Tb496 O515 2.418 . S
Tb496 O516 2.384 . S
Tb496 O519 2.479 . S
Tb496 O520 2.471 . S
Eu497 O508 2.418 . S
Eu497 O509 2.384 . S
Eu497 O512 2.479 . S
Eu497 O513 2.471 . S
Eu497 O514 2.347 . S
Eu497 O517 2.366 . S
Eu497 C527 2.825 . S
C498 O514 1.259 . S
C498 O515 1.265 . S
C499 O516 1.255 . S
C499 O517 1.265 . S
C500 C502 1.380 . S
C500 C503 1.374 . S
C500 C506 1.507 . S
C501 C502 1.384 . S
C501 C505 1.387 . S
C501 H528 0.930 . S
C502 C500 1.380 . S
C502 C501 1.384 . S
C502 H529 0.931 . S
C503 C500 1.374 . S
C503 C504 1.390 . S
C503 H530 0.930 . S
C504 C503 1.390 . S
C504 C505 1.391 . S
C504 H531 0.930 . S
C505 C501 1.387 . S
C505 C504 1.391 . S
C506 Tb496 2.825 . S
C506 C500 1.507 . S
C506 O519 1.238 . S
C506 O520 1.247 . S
O507 Tb496 2.347 . S
O507 C511 1.259 . S
O508 Eu497 2.418 . S
O508 C511 1.265 . S
O509 Eu497 2.384 . S
O509 C518 1.255 . S
O510 Tb496 2.366 . S
O510 C518 1.265 . S
C511 O507 1.259 . S
C511 O508 1.265 . S
O512 Eu497 2.479 . S
O512 C527 1.238 . S
O513 Eu497 2.471 . S
O513 C527 1.247 . S
O514 Eu497 2.347 . S
O514 C498 1.259 . S
O515 Tb496 2.418 . S
O515 C498 1.265 . S
O516 Tb496 2.384 . S
O516 C499 1.255 . S
O517 Eu497 2.366 . S
O517 C499 1.265 . S
C518 O509 1.255 . S
C518 O510 1.265 . S
O519 Tb496 2.479 . S
O519 C506 1.238 . S
O520 Tb496 2.471 . S
O520 C506 1.247 . S
C521 C524 1.380 . S
C521 C525 1.374 . S
C521 C527 1.507 . S
C522 C523 1.387 . S
C522 C526 1.391 . S
C523 C522 1.387 . S
C523 C524 1.384 . S
C523 H532 0.930 . S
C524 C521 1.380 . S
C524 C523 1.384 . S
C524 H533 0.931 . S
C525 C521 1.374 . S
C525 C526 1.390 . S
C525 H534 0.930 . S
C526 C522 1.391 . S
C526 C525 1.390 . S
C526 H535 0.930 . S
C527 Eu497 2.825 . S
C527 O512 1.238 . S
C527 O513 1.247 . S
C527 C521 1.507 . S
H528 C501 0.930 . S
H529 C502 0.931 . S
H530 C503 0.930 . S
H531 C504 0.930 . S
H532 C523 0.930 . S
H533 C524 0.931 . S
H534 C525 0.930 . S
H535 C526 0.930 . S
Tb536 C546 2.825 . S
Tb536 O547 2.347 . S
Tb536 O550 2.366 . S
Tb536 O555 2.418 . S
Tb536 O556 2.384 . S
Tb536 O559 2.479 . S
Tb536 O560 2.471 . S
Eu537 O548 2.418 . S
Eu537 O549 2.384 . S
Eu537 O552 2.479 . S
Eu537 O553 2.471 . S
Eu537 O554 2.347 . S
Eu537 O557 2.366 . S
Eu537 C567 2.825 . S
C538 O554 1.259 . S
C538 O555 1.265 . S
C539 O556 1.255 . S
C539 O557 1.265 . S
C540 C542 1.380 . S
C540 C543 1.374 . S
C540 C546 1.507 . S
C541 C542 1.384 . S
C541 C545 1.387 . S
C541 H568 0.930 . S
C542 C540 1.380 . S
C542 C541 1.384 . S
C542 H569 0.931 . S
C543 C540 1.374 . S
C543 C544 1.390 . S
C543 H570 0.930 . S
C544 C543 1.390 . S
C544 C545 1.391 . S
C544 H571 0.930 . S
C545 C541 1.387 . S
C545 C544 1.391 . S
C546 Tb536 2.825 . S
C546 C540 1.507 . S
C546 O559 1.238 . S
C546 O560 1.247 . S
O547 Tb536 2.347 . S
O547 C551 1.259 . S
O548 Eu537 2.418 . S
O548 C551 1.265 . S
O549 Eu537 2.384 . S
O549 C558 1.255 . S
O550 Tb536 2.366 . S
O550 C558 1.265 . S
C551 O547 1.259 . S
C551 O548 1.265 . S
O552 Eu537 2.479 . S
O552 C567 1.238 . S
O553 Eu537 2.471 . S
O553 C567 1.247 . S
O554 Eu537 2.347 . S
O554 C538 1.259 . S
O555 Tb536 2.418 . S
O555 C538 1.265 . S
O556 Tb536 2.384 . S
O556 C539 1.255 . S
O557 Eu537 2.366 . S
O557 C539 1.265 . S
C558 O549 1.255 . S
C558 O550 1.265 . S
O559 Tb536 2.479 . S
O559 C546 1.238 . S
O560 Tb536 2.471 . S
O560 C546 1.247 . S
C561 C564 1.380 . S
C561 C565 1.374 . S
C561 C567 1.507 . S
C562 C563 1.387 . S
C562 C566 1.391 . S
C563 C562 1.387 . S
C563 C564 1.384 . S
C563 H572 0.930 . S
C564 C561 1.380 . S
C564 C563 1.384 . S
C564 H573 0.931 . S
C565 C561 1.374 . S
C565 C566 1.390 . S
C565 H574 0.930 . S
C566 C562 1.391 . S
C566 C565 1.390 . S
C566 H575 0.930 . S
C567 Eu537 2.825 . S
C567 O552 1.238 . S
C567 O553 1.247 . S
C567 C561 1.507 . S
H568 C541 0.930 . S
H569 C542 0.931 . S
H570 C543 0.930 . S
H571 C544 0.930 . S
H572 C563 0.930 . S
H573 C564 0.931 . S
H574 C565 0.930 . S
H575 C566 0.930 . S
C576 C577 1.369 . S
C576 C578 1.419 . S
C576 H580 0.930 . S
C577 C576 1.369 . S
C577 C586 1.429 . S
C578 C576 1.419 . S
C578 C579 1.363 . S
C578 H581 0.929 . S
C579 C578 1.363 . S
C579 C585 1.428 . S
H580 C576 0.930 . S
H581 C578 0.929 . S
S582 N583 1.613 . S
S582 N584 1.610 . S
N583 S582 1.613 . S
N583 C586 1.350 . S
N584 S582 1.610 . S
N584 C585 1.351 . S
C585 C579 1.428 . S
C585 N584 1.351 . S
C585 C586 1.434 . S
C586 C577 1.429 . S
C586 N583 1.350 . S
C586 C585 1.434 . S
C587 C588 1.369 . S
C587 C589 1.419 . S
C587 H591 0.930 . S
C588 C587 1.369 . S
C588 C597 1.429 . S
C589 C587 1.419 . S
C589 C590 1.363 . S
C589 H592 0.929 . S
C590 C589 1.363 . S
C590 C596 1.428 . S
H591 C587 0.930 . S
H592 C589 0.929 . S
S593 N594 1.613 . S
S593 N595 1.610 . S
N594 S593 1.613 . S
N594 C597 1.350 . S
N595 S593 1.610 . S
N595 C596 1.351 . S
C596 C590 1.428 . S
C596 N595 1.351 . S
C596 C597 1.434 . S
C597 C588 1.429 . S
C597 N594 1.350 . S
C597 C596 1.434 . S
C598 C599 1.369 . S
C598 C600 1.419 . S
C598 H602 0.930 . S
C599 C598 1.369 . S
C599 C608 1.429 . S
C600 C598 1.419 . S
C600 C601 1.363 . S
C600 H603 0.929 . S
C601 C600 1.363 . S
C601 C607 1.428 . S
H602 C598 0.930 . S
H603 C600 0.929 . S
S604 N605 1.613 1_556 S
S604 N606 1.606 1_556 S
N605 S604 1.613 1_554 S
N605 C608 1.350 . S
N606 S604 1.606 1_554 S
N606 C607 1.358 . S
C607 C601 1.428 . S
C607 N606 1.358 . S
C607 C608 1.434 . S
C608 C599 1.429 . S
C608 N605 1.350 . S
C608 C607 1.434 . S
C609 C610 1.369 . S
C609 C611 1.419 . S
C609 H613 0.930 . S
C610 C609 1.369 . S
C610 C619 1.429 . S
C611 C609 1.419 . S
C611 C612 1.363 . S
C611 H614 0.929 1_556 S
C612 C611 1.363 . S
C612 C618 1.428 . S
H613 C609 0.930 . S
H614 C611 0.929 1_554 S
S615 N616 1.613 . S
S615 N617 1.610 . S
N616 S615 1.613 . S
N616 C619 1.350 . S
N617 S615 1.610 . S
N617 C618 1.351 . S
C618 C612 1.428 . S
C618 N617 1.351 . S
C618 C619 1.434 . S
C619 C610 1.429 . S
C619 N616 1.350 . S
C619 C618 1.434 . S
C620 C621 1.369 . S
C620 C622 1.419 . S
C620 H624 0.930 . S
C621 C620 1.369 . S
C621 C630 1.429 . S
C622 C620 1.419 . S
C622 C623 1.363 . S
C622 H625 0.929 . S
C623 C622 1.363 . S
C623 C629 1.428 . S
H624 C620 0.930 . S
H625 C622 0.929 . S
S626 N627 1.613 . S
S626 N628 1.610 . S
N627 S626 1.613 . S
N627 C630 1.350 . S
N628 S626 1.610 . S
N628 C629 1.351 . S
C629 C623 1.428 . S
C629 N628 1.351 . S
C629 C630 1.434 . S
C630 C621 1.429 . S
C630 N627 1.350 . S
C630 C629 1.434 . S
C631 C632 1.345 1_554 S
C631 C633 1.427 . S
C631 H635 0.947 . S
C632 C631 1.345 1_556 S
C632 C641 1.429 . S
C633 C631 1.427 . S
C633 C634 1.363 1_554 S
C633 H636 0.929 . S
C634 C633 1.363 1_556 S
C634 C640 1.428 . S
H635 C631 0.947 . S
H636 C633 0.929 . S
S637 N638 1.613 . S
S637 N639 1.610 . S
N638 S637 1.613 . S
N638 C641 1.350 . S
N639 S637 1.610 . S
N639 C640 1.351 . S
C640 C634 1.428 . S
C640 N639 1.351 . S
C640 C641 1.434 . S
C641 C632 1.429 . S
C641 N638 1.350 . S
C641 C640 1.434 . S
C642 C643 1.369 . S
C642 C644 1.419 . S
C642 H646 0.930 . S
C643 C642 1.369 . S
C643 C652 1.429 . S
C644 C642 1.419 . S
C644 C645 1.363 . S
C644 H647 0.929 . S
C645 C644 1.363 . S
C645 C651 1.428 . S
H646 C642 0.930 . S
H647 C644 0.929 . S
S648 N649 1.613 . S
S648 N650 1.610 . S
N649 S648 1.613 . S
N649 C652 1.350 . S
N650 S648 1.610 . S
N650 C651 1.351 . S
C651 C645 1.428 . S
C651 N650 1.351 . S
C651 C652 1.434 . S
C652 C643 1.429 . S
C652 N649 1.350 . S
C652 C651 1.434 . S
C653 C654 1.369 . S
C653 C655 1.419 . S
C653 H657 0.930 . S
C654 C653 1.369 . S
C654 C663 1.429 . S
C655 C653 1.419 . S
C655 C656 1.363 . S
C655 H658 0.929 . S
C656 C655 1.363 . S
C656 C662 1.428 . S
H657 C653 0.930 . S
H658 C655 0.929 . S
S659 N660 1.613 . S
S659 N661 1.610 . S
N660 S659 1.613 . S
N660 C663 1.350 . S
N661 S659 1.610 . S
N661 C662 1.351 . S
C662 C656 1.428 . S
C662 N661 1.351 . S
C662 C663 1.434 . S
C663 C654 1.429 . S
C663 N660 1.350 . S
C663 C662 1.434 . S
C664 C665 1.369 1_554 S
C664 C666 1.419 . S
C664 H668 0.930 . S
C665 C664 1.369 1_556 S
C665 C674 1.429 . S
C666 C664 1.419 . S
C666 C667 1.363 1_554 S
C666 H669 0.929 . S
C667 C666 1.363 1_556 S
C667 C673 1.428 . S
H668 C664 0.930 . S
H669 C666 0.929 . S
S670 N671 1.613 . S
S670 N672 1.610 . S
N671 S670 1.613 . S
N671 C674 1.350 . S
N672 S670 1.610 . S
N672 C673 1.351 . S
C673 C667 1.428 . S
C673 N672 1.351 . S
C673 C674 1.434 . S
C674 C665 1.429 . S
C674 N671 1.350 . S
C674 C673 1.434 . S
C675 C676 1.369 . S
C675 C677 1.419 1_554 S
C675 H679 0.930 1_554 S
C676 C675 1.369 . S
C676 C685 1.429 . S
C677 C675 1.419 1_556 S
C677 C678 1.363 1_556 S
C677 H680 0.929 . S
C678 C677 1.363 1_554 S
C678 C684 1.428 . S
H679 C675 0.930 1_556 S
H680 C677 0.929 . S
S681 N682 1.613 . S
S681 N683 1.610 . S
N682 S681 1.613 . S
N682 C685 1.350 . S
N683 S681 1.610 . S
N683 C684 1.351 . S
C684 C678 1.428 . S
C684 N683 1.351 . S
C684 C685 1.434 . S
C685 C676 1.429 . S
C685 N682 1.350 . S
C685 C684 1.434 . S
C686 C687 1.369 . S
C686 C688 1.419 . S
C686 H690 0.930 . S
C687 C686 1.369 . S
C687 C696 1.429 . S
C688 C686 1.419 . S
C688 C689 1.363 . S
C688 H691 0.929 . S
C689 C688 1.363 . S
C689 C695 1.428 . S
H690 C686 0.930 . S
H691 C688 0.929 . S
S692 N693 1.613 . S
S692 N694 1.610 . S
N693 S692 1.613 . S
N693 C696 1.350 . S
N694 S692 1.610 . S
N694 C695 1.351 . S
C695 C689 1.428 . S
C695 N694 1.351 . S
C695 C696 1.434 . S
C696 C687 1.429 . S
C696 N693 1.350 . S
C696 C695 1.434 . S
C697 C698 1.369 1_556 S
C697 C699 1.419 . S
C697 H701 0.930 . S
C698 C697 1.369 1_554 S
C698 C707 1.429 . S
C699 C697 1.419 . S
C699 C700 1.363 1_556 S
C699 H702 0.929 . S
C700 C699 1.363 1_554 S
C700 C706 1.428 . S
H701 C697 0.930 . S
H702 C699 0.929 . S
S703 N704 1.613 . S
S703 N705 1.610 . S
N704 S703 1.613 . S
N704 C707 1.350 . S
N705 S703 1.610 . S
N705 C706 1.351 . S
C706 C700 1.428 . S
C706 N705 1.351 . S
C706 C707 1.434 . S
C707 C698 1.429 . S
C707 N704 1.350 . S
C707 C706 1.434 . S
C708 C709 1.369 . S
C708 C710 1.419 1_655 S
C708 H712 0.930 . S
C709 C708 1.369 . S
C709 C718 1.429 . S
C710 C708 1.419 1_455 S
C710 C711 1.363 . S
C710 H713 0.929 . S
C711 C710 1.363 . S
C711 C717 1.428 1_455 S
H712 C708 0.930 . S
H713 C710 0.929 . S
S714 N715 1.613 . S
S714 N716 1.610 . S
N715 S714 1.613 . S
N715 C718 1.350 . S
N716 S714 1.610 . S
N716 C717 1.351 . S
C717 C711 1.428 1_655 S
C717 N716 1.351 . S
C717 C718 1.434 . S
C718 C709 1.429 . S
C718 N715 1.350 . S
C718 C717 1.434 . S
C719 C720 1.369 . S
C719 C721 1.419 . S
C719 H723 0.930 . S
C720 C719 1.369 . S
C720 C729 1.429 . S
C721 C719 1.419 . S
C721 C722 1.363 . S
C721 H724 0.929 . S
C722 C721 1.363 . S
C722 C728 1.428 . S
H723 C719 0.930 . S
H724 C721 0.929 . S
S725 N726 1.613 . S
S725 N727 1.610 . S
N726 S725 1.613 . S
N726 C729 1.350 . S
N727 S725 1.610 . S
N727 C728 1.351 . S
C728 C722 1.428 . S
C728 N727 1.351 . S
C728 C729 1.434 . S
C729 C720 1.429 . S
C729 N726 1.350 . S
C729 C728 1.434 . S
C730 C731 1.369 . S
C730 C732 1.419 . S
C730 H734 0.930 . S
C731 C730 1.369 . S
C731 C740 1.429 . S
C732 C730 1.419 . S
C732 C733 1.363 1_545 S
C732 H735 0.929 . S
C733 C732 1.363 1_565 S
C733 C739 1.428 1_565 S
H734 C730 0.930 . S
H735 C732 0.929 . S
S736 N737 1.613 . S
S736 N738 1.610 1_545 S
N737 S736 1.613 . S
N737 C740 1.350 . S
N738 S736 1.610 1_565 S
N738 C739 1.351 1_565 S
C739 C733 1.428 1_545 S
C739 N738 1.351 1_545 S
C739 C740 1.434 . S
C740 C731 1.429 . S
C740 N737 1.350 . S
C740 C739 1.434 . S
C741 C742 1.369 . S
C741 C743 1.419 . S
C741 H745 0.930 . S
C742 C741 1.369 . S
C742 C751 1.429 . S
C743 C741 1.419 . S
C743 C744 1.363 . S
C743 H746 0.929 . S
C744 C743 1.363 . S
C744 C750 1.428 . S
H745 C741 0.930 . S
H746 C743 0.929 . S
S747 N748 1.613 . S
S747 N749 1.610 . S
N748 S747 1.613 . S
N748 C751 1.350 . S
N749 S747 1.610 . S
N749 C750 1.351 . S
C750 C744 1.428 . S
C750 N749 1.351 . S
C750 C751 1.434 . S
C751 C742 1.429 . S
C751 N748 1.350 . S
C751 C750 1.434 . S
C752 C753 1.369 . S
C752 C754 1.419 . S
C752 H756 0.930 . S
C753 C752 1.369 . S
C753 C762 1.429 . S
C754 C752 1.419 . S
C754 C755 1.363 . S
C754 H757 0.929 . S
C755 C754 1.363 . S
C755 C761 1.428 . S
H756 C752 0.930 . S
H757 C754 0.929 . S
S758 N759 1.613 . S
S758 N760 1.610 . S
N759 S758 1.613 . S
N759 C762 1.350 . S
N760 S758 1.610 . S
N760 C761 1.351 . S
C761 C755 1.428 . S
C761 N760 1.351 . S
C761 C762 1.434 . S
C762 C753 1.429 . S
C762 N759 1.350 . S
C762 C761 1.434 . S
C763 C764 1.369 . S
C763 C765 1.419 . S
C763 H767 0.930 . S
C764 C763 1.369 . S
C764 C773 1.429 . S
C765 C763 1.419 . S
C765 C766 1.363 . S
C765 H768 0.929 . S
C766 C765 1.363 . S
C766 C772 1.428 . S
H767 C763 0.930 . S
H768 C765 0.929 . S
S769 N770 1.613 1_655 S
S769 N771 1.610 1_655 S
N770 S769 1.613 1_455 S
N770 C773 1.350 . S
N771 S769 1.610 1_455 S
N771 C772 1.351 . S
C772 C766 1.428 . S
C772 N771 1.351 . S
C772 C773 1.434 . S
C773 C764 1.429 . S
C773 N770 1.350 . S
C773 C772 1.434 . S
C774 C775 1.369 . S
C774 C776 1.419 . S
C774 H778 0.930 . S
C775 C774 1.369 . S
C775 C784 1.429 . S
C776 C774 1.419 . S
C776 C777 1.363 . S
C776 H779 0.929 . S
C777 C776 1.363 . S
C777 C783 1.428 . S
H778 C774 0.930 . S
H779 C776 0.929 . S
S780 N781 1.613 . S
S780 N782 1.610 . S
N781 S780 1.613 . S
N781 C784 1.350 . S
N782 S780 1.610 . S
N782 C783 1.351 . S
C783 C777 1.428 . S
C783 N782 1.351 . S
C783 C784 1.434 . S
C784 C775 1.429 . S
C784 N781 1.350 . S
C784 C783 1.434 . S
C785 C786 1.369 . S
C785 C787 1.419 . S
C785 H789 0.930 . S
C786 C785 1.369 . S
C786 C795 1.429 . S
C787 C785 1.419 . S
C787 C788 1.363 . S
C787 H790 0.929 . S
C788 C787 1.363 . S
C788 C794 1.428 . S
H789 C785 0.930 . S
H790 C787 0.929 . S
S791 N792 1.613 . S
S791 N793 1.610 . S
N792 S791 1.613 . S
N792 C795 1.350 . S
N793 S791 1.610 . S
N793 C794 1.351 . S
C794 C788 1.428 . S
C794 N793 1.351 . S
C794 C795 1.434 . S
C795 C786 1.429 . S
C795 N792 1.350 . S
C795 C794 1.434 . S
C796 C797 1.369 . S
C796 C798 1.419 . S
C796 H800 0.930 . S
C797 C796 1.369 . S
C797 C806 1.429 . S
C798 C796 1.419 . S
C798 C799 1.363 . S
C798 H801 0.929 . S
C799 C798 1.363 . S
C799 C805 1.428 . S
H800 C796 0.930 . S
H801 C798 0.929 . S
S802 N803 1.613 . S
S802 N804 1.610 . S
N803 S802 1.613 . S
N803 C806 1.350 . S
N804 S802 1.610 . S
N804 C805 1.351 . S
C805 C799 1.428 . S
C805 N804 1.351 . S
C805 C806 1.434 . S
C806 C797 1.429 . S
C806 N803 1.350 . S
C806 C805 1.434 . S
C807 C808 1.369 1_565 S
C807 C809 1.419 . S
C807 H811 0.930 . S
C808 C807 1.369 1_545 S
C808 C817 1.429 1_545 S
C809 C807 1.419 . S
C809 C810 1.363 . S
C809 H812 0.929 . S
C810 C809 1.363 . S
C810 C816 1.428 . S
H811 C807 0.930 . S
H812 C809 0.929 . S
S813 N814 1.613 . S
S813 N815 1.610 . S
N814 S813 1.613 . S
N814 C817 1.350 . S
N815 S813 1.610 . S
N815 C816 1.351 . S
C816 C810 1.428 . S
C816 N815 1.351 . S
C816 C817 1.434 . S
C817 C808 1.429 1_565 S
C817 N814 1.350 . S
C817 C816 1.434 . S
C818 C819 1.369 . S
C818 C820 1.419 . S
C818 H822 0.930 . S
C819 C818 1.369 . S
C819 C828 1.429 . S
C820 C818 1.419 . S
C820 C821 1.363 . S
C820 H823 0.929 . S
C821 C820 1.363 . S
C821 C827 1.428 . S
H822 C818 0.930 . S
H823 C820 0.929 . S
S824 N825 1.613 . S
S824 N826 1.610 . S
N825 S824 1.613 . S
N825 C828 1.350 . S
N826 S824 1.610 . S
N826 C827 1.351 . S
C827 C821 1.428 . S
C827 N826 1.351 . S
C827 C828 1.434 . S
C828 C819 1.429 . S
C828 N825 1.350 . S
C828 C827 1.434 . S
C829 C830 1.369 . S
C829 C831 1.419 . S
C829 H833 0.930 . S
C830 C829 1.369 . S
C830 C839 1.429 . S
C831 C829 1.419 . S
C831 C832 1.363 . S
C831 H834 0.929 . S
C832 C831 1.363 . S
C832 C838 1.428 . S
H833 C829 0.930 . S
H834 C831 0.929 . S
S835 N836 1.613 . S
S835 N837 1.610 . S
N836 S835 1.613 . S
N836 C839 1.350 . S
N837 S835 1.610 . S
N837 C838 1.351 . S
C838 C832 1.428 . S
C838 N837 1.351 . S
C838 C839 1.434 . S
C839 C830 1.429 . S
C839 N836 1.350 . S
C839 C838 1.434 . S
C840 C841 1.369 . S
C840 C842 1.419 . S
C840 H844 0.930 . S
C841 C840 1.369 . S
C841 C850 1.429 . S
C842 C840 1.419 . S
C842 C843 1.363 . S
C842 H845 0.929 . S
C843 C842 1.363 . S
C843 C849 1.428 . S
H844 C840 0.930 . S
H845 C842 0.929 . S
S846 N847 1.613 . S
S846 N848 1.610 . S
N847 S846 1.613 . S
N847 C850 1.350 . S
N848 S846 1.610 . S
N848 C849 1.351 . S
C849 C843 1.428 . S
C849 N848 1.351 . S
C849 C850 1.434 . S
C850 C841 1.429 . S
C850 N847 1.350 . S
C850 C849 1.434 . S
C851 C852 1.369 . S
C851 C853 1.419 . S
C851 H855 0.930 . S
C852 C851 1.369 . S
C852 C861 1.429 . S
C853 C851 1.419 . S
C853 C854 1.363 . S
C853 H856 0.929 . S
C854 C853 1.363 . S
C854 C860 1.428 . S
H855 C851 0.930 . S
H856 C853 0.929 . S
S857 N858 1.613 . S
S857 N859 1.610 . S
N858 S857 1.613 . S
N858 C861 1.350 . S
N859 S857 1.610 . S
N859 C860 1.351 . S
C860 C854 1.428 . S
C860 N859 1.351 . S
C860 C861 1.434 . S
C861 C852 1.429 . S
C861 N858 1.350 . S
C861 C860 1.434 . S
C862 C863 1.369 . S
C862 C864 1.419 . S
C862 H866 0.930 . S
C863 C862 1.369 . S
C863 C872 1.429 . S
C864 C862 1.419 . S
C864 C865 1.363 . S
C864 H867 0.929 . S
C865 C864 1.363 . S
C865 C871 1.428 . S
H866 C862 0.930 . S
H867 C864 0.929 . S
S868 N869 1.613 . S
S868 N870 1.610 . S
N869 S868 1.613 . S
N869 C872 1.350 . S
N870 S868 1.610 . S
N870 C871 1.351 . S
C871 C865 1.428 . S
C871 N870 1.351 . S
C871 C872 1.434 . S
C872 C863 1.429 . S
C872 N869 1.350 . S
C872 C871 1.434 . S
C873 C874 1.369 . S
C873 C875 1.419 1_565 S
C873 H877 0.930 . S
C874 C873 1.369 . S
C874 C883 1.429 . S
C875 C873 1.419 1_545 S
C875 C876 1.363 . S
C875 H878 0.929 . S
C876 C875 1.363 . S
C876 C882 1.428 1_545 S
H877 C873 0.930 . S
H878 C875 0.929 . S
S879 N880 1.613 . S
S879 N881 1.610 . S
N880 S879 1.613 . S
N880 C883 1.350 . S
N881 S879 1.610 . S
N881 C882 1.351 . S
C882 C876 1.428 1_565 S
C882 N881 1.351 . S
C882 C883 1.434 . S
C883 C874 1.429 . S
C883 N880 1.350 . S
C883 C882 1.434 . S
C884 C885 1.369 . S
C884 C886 1.419 . S
C884 H888 0.930 . S
C885 C884 1.369 . S
C885 C894 1.429 . S
C886 C884 1.419 . S
C886 C887 1.363 1_455 S
C886 H889 0.929 . S
C887 C886 1.363 1_655 S
C887 C893 1.428 . S
H888 C884 0.930 . S
H889 C886 0.929 . S
S890 N891 1.613 . S
S890 N892 1.610 . S
N891 S890 1.613 . S
N891 C894 1.350 1_655 S
N892 S890 1.610 . S
N892 C893 1.351 . S
C893 C887 1.428 . S
C893 N892 1.351 . S
C893 C894 1.434 1_655 S
C894 C885 1.429 . S
C894 N891 1.350 1_455 S
C894 C893 1.434 1_455 S
C895 C896 1.369 . S
C895 C897 1.419 . S
C895 H899 0.930 . S
C896 C895 1.369 . S
C896 C905 1.429 . S
C897 C895 1.419 . S
C897 C898 1.363 . S
C897 H900 0.929 . S
C898 C897 1.363 . S
C898 C904 1.428 . S
H899 C895 0.930 . S
H900 C897 0.929 . S
S901 N902 1.613 . S
S901 N903 1.610 . S
N902 S901 1.613 . S
N902 C905 1.350 . S
N903 S901 1.610 . S
N903 C904 1.351 . S
C904 C898 1.428 . S
C904 N903 1.351 . S
C904 C905 1.434 . S
C905 C896 1.429 . S
C905 N902 1.350 . S
C905 C904 1.434 . S
C906 C907 1.375 . S
C906 C908 1.419 . S
C906 H910 0.930 . S
C907 C906 1.375 . S
C907 C916 1.456 . S
C908 C906 1.419 . S
C908 C909 1.363 . S
C908 H911 0.929 . S
C909 C908 1.363 . S
C909 C915 1.428 . S
H910 C906 0.930 . S
H911 C908 0.929 . S
S912 N913 1.613 1_655 S
S912 N914 1.610 . S
N913 S912 1.613 1_455 S
N913 C916 1.350 1_455 S
N914 S912 1.610 . S
N914 C915 1.351 . S
C915 C909 1.428 . S
C915 N914 1.351 . S
C915 C916 1.434 . S
C916 C907 1.456 . S
C916 N913 1.350 1_655 S
C916 C915 1.434 . S
C917 C918 1.369 . S
C917 C919 1.419 . S
C917 H921 0.930 . S
C918 C917 1.369 . S
C918 C927 1.429 . S
C919 C917 1.419 . S
C919 C920 1.363 . S
C919 H922 0.929 . S
C920 C919 1.363 . S
C920 C926 1.428 . S
H921 C917 0.930 . S
H922 C919 0.929 . S
S923 N924 1.613 . S
S923 N925 1.610 . S
N924 S923 1.613 . S
N924 C927 1.350 . S
N925 S923 1.610 . S
N925 C926 1.351 . S
C926 C920 1.428 . S
C926 N925 1.351 . S
C926 C927 1.434 . S
C927 C918 1.429 . S
C927 N924 1.350 . S
C927 C926 1.434 . S
C928 C929 1.369 . S
C928 C930 1.419 . S
C928 H932 0.930 . S
C929 C928 1.369 . S
C929 C938 1.429 . S
C930 C928 1.419 . S
C930 C931 1.363 . S
C930 H933 0.929 . S
C931 C930 1.363 . S
C931 C937 1.428 . S
H932 C928 0.930 . S
H933 C930 0.929 . S
S934 N935 1.613 . S
S934 N936 1.610 . S
N935 S934 1.613 . S
N935 C938 1.350 . S
N936 S934 1.610 . S
N936 C937 1.351 . S
C937 C931 1.428 . S
C937 N936 1.351 . S
C937 C938 1.434 . S
C938 C929 1.429 . S
C938 N935 1.350 . S
C938 C937 1.434 . S
C939 C940 1.369 . S
C939 C941 1.419 . S
C939 H943 0.930 . S
C940 C939 1.369 . S
C940 C949 1.429 . S
C941 C939 1.419 . S
C941 C942 1.363 . S
C941 H944 0.929 . S
C942 C941 1.363 . S
C942 C948 1.428 . S
H943 C939 0.930 . S
H944 C941 0.929 . S
S945 N946 1.613 . S
S945 N947 1.610 . S
N946 S945 1.613 . S
N946 C949 1.350 . S
N947 S945 1.610 . S
N947 C948 1.351 . S
C948 C942 1.428 . S
C948 N947 1.351 . S
C948 C949 1.434 . S
C949 C940 1.429 . S
C949 N946 1.350 . S
C949 C948 1.434 . S
C950 C951 1.369 . S
C950 C952 1.419 . S
C950 H954 0.930 . S
C951 C950 1.369 . S
C951 C960 1.429 . S
C952 C950 1.419 . S
C952 C953 1.363 . S
C952 H955 0.929 . S
C953 C952 1.363 . S
C953 C959 1.428 . S
H954 C950 0.930 . S
H955 C952 0.929 . S
S956 N957 1.613 . S
S956 N958 1.610 . S
N957 S956 1.613 . S
N957 C960 1.350 . S
N958 S956 1.610 . S
N958 C959 1.351 . S
C959 C953 1.428 . S
C959 N958 1.351 . S
C959 C960 1.434 . S
C960 C951 1.429 . S
C960 N957 1.350 . S
C960 C959 1.434 . S
C961 C962 1.369 . S
C961 C963 1.419 . S
C961 H965 0.930 . S
C962 C961 1.369 . S
C962 C971 1.429 . S
C963 C961 1.419 . S
C963 C964 1.363 . S
C963 H966 0.929 . S
C964 C963 1.363 . S
C964 C970 1.428 . S
H965 C961 0.930 . S
H966 C963 0.929 . S
S967 N968 1.613 . S
S967 N969 1.610 . S
N968 S967 1.613 . S
N968 C971 1.350 . S
N969 S967 1.610 . S
N969 C970 1.351 . S
C970 C964 1.428 . S
C970 N969 1.351 . S
C970 C971 1.434 . S
C971 C962 1.429 . S
C971 N968 1.350 . S
C971 C970 1.434 . S
C972 C973 1.369 . S
C972 C974 1.419 . S
C972 H976 0.930 . S
C973 C972 1.369 . S
C973 C982 1.429 . S
C974 C972 1.419 . S
C974 C975 1.363 . S
C974 H977 0.929 1_565 S
C975 C974 1.363 . S
C975 C981 1.428 . S
H976 C972 0.930 . S
H977 C974 0.929 1_545 S
S978 N979 1.613 . S
S978 N980 1.610 . S
N979 S978 1.613 . S
N979 C982 1.350 . S
N980 S978 1.610 . S
N980 C981 1.351 . S
C981 C975 1.428 . S
C981 N980 1.351 . S
C981 C982 1.434 . S
C982 C973 1.429 . S
C982 N979 1.350 . S
C982 C981 1.434 . S
C983 C984 1.369 . S
C983 C985 1.419 . S
C983 H987 0.930 . S
C984 C983 1.369 . S
C984 C993 1.429 . S
C985 C983 1.419 . S
C985 C986 1.363 . S
C985 H988 0.929 . S
C986 C985 1.363 . S
C986 C992 1.428 . S
H987 C983 0.930 . S
H988 C985 0.929 . S
S989 N990 1.613 . S
S989 N991 1.610 . S
N990 S989 1.613 . S
N990 C993 1.350 . S
N991 S989 1.610 . S
N991 C992 1.351 . S
C992 C986 1.428 . S
C992 N991 1.351 . S
C992 C993 1.434 . S
C993 C984 1.429 . S
C993 N990 1.350 . S
C993 C992 1.434 . S
C994 C995 1.369 . S
C994 C996 1.419 . S
C994 H998 0.930 . S
C995 C994 1.369 . S
C995 C1004 1.429 . S
C996 C994 1.419 . S
C996 C997 1.363 . S
C996 H999 0.929 . S
C997 C996 1.363 . S
C997 C1003 1.428 . S
H998 C994 0.930 . S
H999 C996 0.929 . S
S1000 N1001 1.613 . S
S1000 N1002 1.610 . S
N1001 S1000 1.613 . S
N1001 C1004 1.350 . S
N1002 S1000 1.610 . S
N1002 C1003 1.351 . S
C1003 C997 1.428 . S
C1003 N1002 1.351 . S
C1003 C1004 1.434 . S
C1004 C995 1.429 . S
C1004 N1001 1.350 . S
C1004 C1003 1.434 . S
C1005 C1006 1.369 . S
C1005 C1007 1.419 . S
C1005 H1009 0.930 . S
C1006 C1005 1.369 . S
C1006 C1015 1.429 . S
C1007 C1005 1.419 . S
C1007 C1008 1.363 . S
C1007 H1010 0.929 . S
C1008 C1007 1.363 . S
C1008 C1014 1.428 . S
H1009 C1005 0.930 . S
H1010 C1007 0.929 . S
S1011 N1012 1.613 . S
S1011 N1013 1.610 . S
N1012 S1011 1.613 . S
N1012 C1015 1.350 . S
N1013 S1011 1.610 . S
N1013 C1014 1.351 . S
C1014 C1008 1.428 . S
C1014 N1013 1.351 . S
C1014 C1015 1.434 . S
C1015 C1006 1.429 . S
C1015 N1012 1.350 . S
C1015 C1014 1.434 . S
C1016 C1017 1.369 . S
C1016 C1018 1.419 . S
C1016 H1020 0.930 . S
C1017 C1016 1.369 . S
C1017 C1026 1.429 . S
C1018 C1016 1.419 . S
C1018 C1019 1.363 . S
C1018 H1021 0.929 . S
C1019 C1018 1.363 . S
C1019 C1025 1.428 . S
H1020 C1016 0.930 . S
H1021 C1018 0.929 . S
S1022 N1023 1.613 . S
S1022 N1024 1.610 . S
N1023 S1022 1.613 . S
N1023 C1026 1.350 . S
N1024 S1022 1.610 . S
N1024 C1025 1.351 . S
C1025 C1019 1.428 . S
C1025 N1024 1.351 . S
C1025 C1026 1.434 . S
C1026 C1017 1.429 . S
C1026 N1023 1.350 . S
C1026 C1025 1.434 . S
C1027 C1028 1.369 . S
C1027 C1029 1.419 . S
C1027 H1031 0.930 . S
C1028 C1027 1.369 . S
C1028 C1037 1.429 . S
C1029 C1027 1.419 . S
C1029 C1030 1.363 . S
C1029 H1032 0.929 . S
C1030 C1029 1.363 . S
C1030 C1036 1.428 . S
H1031 C1027 0.930 . S
H1032 C1029 0.929 . S
S1033 N1034 1.613 . S
S1033 N1035 1.610 . S
N1034 S1033 1.613 . S
N1034 C1037 1.350 . S
N1035 S1033 1.610 . S
N1035 C1036 1.351 . S
C1036 C1030 1.428 . S
C1036 N1035 1.351 . S
C1036 C1037 1.434 . S
C1037 C1028 1.429 . S
C1037 N1034 1.350 . S
C1037 C1036 1.434 . S
C1038 C1039 1.369 . S
C1038 C1040 1.419 . S
C1038 H1042 0.930 . S
C1039 C1038 1.369 . S
C1039 C1048 1.429 . S
C1040 C1038 1.419 . S
C1040 C1041 1.363 . S
C1040 H1043 0.929 . S
C1041 C1040 1.363 . S
C1041 C1047 1.428 . S
H1042 C1038 0.930 . S
H1043 C1040 0.929 . S
S1044 N1045 1.613 . S
S1044 N1046 1.610 . S
N1045 S1044 1.613 . S
N1045 C1048 1.350 . S
N1046 S1044 1.610 . S
N1046 C1047 1.351 . S
C1047 C1041 1.428 . S
C1047 N1046 1.351 . S
C1047 C1048 1.434 . S
C1048 C1039 1.429 . S
C1048 N1045 1.350 . S
C1048 C1047 1.434 . S
C1049 C1050 1.369 . S
C1049 C1051 1.419 . S
C1049 H1053 0.930 . S
C1050 C1049 1.369 . S
C1050 C1059 1.429 . S
C1051 C1049 1.419 . S
C1051 C1052 1.363 . S
C1051 H1054 0.929 . S
C1052 C1051 1.363 . S
C1052 C1058 1.428 . S
H1053 C1049 0.930 . S
H1054 C1051 0.929 . S
S1055 N1056 1.613 . S
S1055 N1057 1.610 . S
N1056 S1055 1.613 . S
N1056 C1059 1.350 . S
N1057 S1055 1.610 . S
N1057 C1058 1.351 . S
C1058 C1052 1.428 . S
C1058 N1057 1.351 . S
C1058 C1059 1.434 . S
C1059 C1050 1.429 . S
C1059 N1056 1.350 . S
C1059 C1058 1.434 . S
C1060 C1061 1.369 . S
C1060 C1062 1.419 . S
C1060 H1064 0.930 . S
C1061 C1060 1.369 . S
C1061 C1070 1.429 . S
C1062 C1060 1.419 . S
C1062 C1063 1.363 . S
C1062 H1065 0.929 . S
C1063 C1062 1.363 . S
C1063 C1069 1.428 . S
H1064 C1060 0.930 . S
H1065 C1062 0.929 . S
S1066 N1067 1.613 . S
S1066 N1068 1.610 . S
N1067 S1066 1.613 . S
N1067 C1070 1.350 . S
N1068 S1066 1.610 . S
N1068 C1069 1.351 . S
C1069 C1063 1.428 . S
C1069 N1068 1.351 . S
C1069 C1070 1.434 . S
C1070 C1061 1.429 . S
C1070 N1067 1.350 . S
C1070 C1069 1.434 . S
C1071 C1072 1.369 . S
C1071 C1073 1.419 . S
C1071 H1075 0.930 . S
C1072 C1071 1.369 . S
C1072 C1081 1.429 . S
C1073 C1071 1.419 . S
C1073 C1074 1.363 . S
C1073 H1076 0.929 . S
C1074 C1073 1.363 . S
C1074 C1080 1.428 . S
H1075 C1071 0.930 . S
H1076 C1073 0.929 . S
S1077 N1078 1.613 . S
S1077 N1079 1.610 . S
N1078 S1077 1.613 . S
N1078 C1081 1.350 . S
N1079 S1077 1.610 . S
N1079 C1080 1.351 . S
C1080 C1074 1.428 . S
C1080 N1079 1.351 . S
C1080 C1081 1.434 . S
C1081 C1072 1.429 . S
C1081 N1078 1.350 . S
C1081 C1080 1.434 . S
C1082 C1083 1.369 . S
C1082 C1084 1.419 . S
C1082 H1086 0.930 . S
C1083 C1082 1.369 . S
C1083 C1092 1.429 . S
C1084 C1082 1.419 . S
C1084 C1085 1.363 . S
C1084 H1087 0.929 . S
C1085 C1084 1.363 . S
C1085 C1091 1.428 . S
H1086 C1082 0.930 . S
H1087 C1084 0.929 . S
S1088 N1089 1.613 . S
S1088 N1090 1.610 . S
N1089 S1088 1.613 . S
N1089 C1092 1.350 . S
N1090 S1088 1.610 . S
N1090 C1091 1.351 . S
C1091 C1085 1.428 . S
C1091 N1090 1.351 . S
C1091 C1092 1.434 . S
C1092 C1083 1.429 . S
C1092 N1089 1.350 . S
C1092 C1091 1.434 . S
C1093 C1094 1.369 . S
C1093 C1095 1.419 . S
C1093 H1097 0.930 . S
C1094 C1093 1.369 . S
C1094 C1103 1.429 . S
C1095 C1093 1.419 . S
C1095 C1096 1.363 . S
C1095 H1098 0.929 . S
C1096 C1095 1.363 . S
C1096 C1102 1.428 . S
H1097 C1093 0.930 . S
H1098 C1095 0.929 . S
S1099 N1100 1.613 . S
S1099 N1101 1.610 . S
N1100 S1099 1.613 . S
N1100 C1103 1.350 . S
N1101 S1099 1.610 . S
N1101 C1102 1.351 . S
C1102 C1096 1.428 . S
C1102 N1101 1.351 . S
C1102 C1103 1.434 . S
C1103 C1094 1.429 . S
C1103 N1100 1.350 . S
C1103 C1102 1.434 . S
C1104 C1105 1.369 . S
C1104 C1106 1.419 . S
C1104 H1108 0.930 . S
C1105 C1104 1.369 . S
C1105 C1114 1.429 . S
C1106 C1104 1.419 . S
C1106 C1107 1.363 . S
C1106 H1109 0.929 . S
C1107 C1106 1.363 . S
C1107 C1113 1.428 . S
H1108 C1104 0.930 . S
H1109 C1106 0.929 . S
S1110 N1111 1.613 . S
S1110 N1112 1.610 . S
N1111 S1110 1.613 . S
N1111 C1114 1.350 . S
N1112 S1110 1.610 . S
N1112 C1113 1.351 . S
C1113 C1107 1.428 . S
C1113 N1112 1.351 . S
C1113 C1114 1.434 . S
C1114 C1105 1.429 . S
C1114 N1111 1.350 . S
C1114 C1113 1.434 . S
C1115 C1116 1.369 . S
C1115 C1117 1.419 . S
C1115 H1119 0.930 . S
C1116 C1115 1.369 . S
C1116 C1125 1.429 . S
C1117 C1115 1.419 . S
C1117 C1118 1.363 . S
C1117 H1120 0.929 . S
C1118 C1117 1.363 . S
C1118 C1124 1.428 . S
H1119 C1115 0.930 . S
H1120 C1117 0.929 . S
S1121 N1122 1.613 . S
S1121 N1123 1.610 . S
N1122 S1121 1.613 . S
N1122 C1125 1.350 . S
N1123 S1121 1.610 . S
N1123 C1124 1.351 . S
C1124 C1118 1.428 . S
C1124 N1123 1.351 . S
C1124 C1125 1.434 . S
C1125 C1116 1.429 . S
C1125 N1122 1.350 . S
C1125 C1124 1.434 . S
C1126 C1127 1.369 . S
C1126 C1128 1.419 . S
C1126 H1130 0.930 . S
C1127 C1126 1.369 . S
C1127 C1136 1.429 . S
C1128 C1126 1.419 . S
C1128 C1129 1.363 . S
C1128 H1131 0.929 . S
C1129 C1128 1.363 . S
C1129 C1135 1.428 . S
H1130 C1126 0.930 . S
H1131 C1128 0.929 . S
S1132 N1133 1.613 . S
S1132 N1134 1.610 . S
N1133 S1132 1.613 . S
N1133 C1136 1.350 . S
N1134 S1132 1.610 . S
N1134 C1135 1.351 . S
C1135 C1129 1.428 . S
C1135 N1134 1.351 . S
C1135 C1136 1.434 . S
C1136 C1127 1.429 . S
C1136 N1133 1.350 . S
C1136 C1135 1.434 . S
C1137 C1138 1.369 . S
C1137 C1139 1.419 . S
C1137 H1141 0.930 . S
C1138 C1137 1.369 . S
C1138 C1147 1.429 . S
C1139 C1137 1.419 . S
C1139 C1140 1.363 . S
C1139 H1142 0.929 . S
C1140 C1139 1.363 . S
C1140 C1146 1.428 . S
H1141 C1137 0.930 . S
H1142 C1139 0.929 . S
S1143 N1144 1.613 . S
S1143 N1145 1.610 . S
N1144 S1143 1.613 . S
N1144 C1147 1.350 . S
N1145 S1143 1.610 . S
N1145 C1146 1.351 . S
C1146 C1140 1.428 . S
C1146 N1145 1.351 . S
C1146 C1147 1.434 . S
C1147 C1138 1.429 . S
C1147 N1144 1.350 . S
C1147 C1146 1.434 . S
C1148 C1149 1.369 . S
C1148 C1150 1.419 . S
C1148 H1152 0.930 . S
C1149 C1148 1.369 . S
C1149 C1158 1.429 . S
C1150 C1148 1.419 . S
C1150 C1151 1.363 . S
C1150 H1153 0.929 . S
C1151 C1150 1.363 . S
C1151 C1157 1.428 . S
H1152 C1148 0.930 . S
H1153 C1150 0.929 . S
S1154 N1155 1.613 . S
S1154 N1156 1.610 . S
N1155 S1154 1.613 . S
N1155 C1158 1.350 . S
N1156 S1154 1.610 . S
N1156 C1157 1.351 . S
C1157 C1151 1.428 . S
C1157 N1156 1.351 . S
C1157 C1158 1.434 . S
C1158 C1149 1.429 . S
C1158 N1155 1.350 . S
C1158 C1157 1.434 . S
C1159 C1160 1.369 . S
C1159 C1161 1.419 . S
C1159 H1163 0.930 . S
C1160 C1159 1.369 . S
C1160 C1169 1.429 . S
C1161 C1159 1.419 . S
C1161 C1162 1.363 . S
C1161 H1164 0.929 . S
C1162 C1161 1.363 . S
C1162 C1168 1.428 . S
H1163 C1159 0.930 . S
H1164 C1161 0.929 . S
S1165 N1166 1.613 . S
S1165 N1167 1.610 . S
N1166 S1165 1.613 . S
N1166 C1169 1.350 . S
N1167 S1165 1.610 . S
N1167 C1168 1.351 . S
C1168 C1162 1.428 . S
C1168 N1167 1.351 . S
C1168 C1169 1.434 . S
C1169 C1160 1.429 . S
C1169 N1166 1.350 . S
C1169 C1168 1.434 . S
C577 C162 1.659 . S
C579 C219 1.665 . S
C588 C174 1.755 . S
C590 C259 1.752 . S
C599 C150 1.595 . S
C601 C311 1.578 . S
C610 C138 1.495 . S
C612 C271 1.474 . S
C623 C299 1.519 . S
C621 C114 1.524 . S
C632 C126 1.403 . S
C634 C231 1.401 1_556 S
C645 C238 1.672 . S
C643 C136 1.643 . S
C656 C278 1.646 . S
C654 C112 1.629 . S
C665 C124 1.625 . S
C667 C298 1.678 1_556 S
C676 C160 1.503 . S
C678 C258 1.536 . S
C687 C172 1.478 . S
C689 C318 1.487 . S
C700 C218 1.530 . S
C698 C148 1.483 . S
C711 C339 1.665 . S
C709 C18 1.660 . S
C720 C30 1.756 . S
C722 C379 1.752 . S
C731 C6 1.593 . S
C733 C431 1.576 . S
C742 C210 1.496 . S
C744 C391 1.469 . S
C753 C186 1.524 . S
C755 C419 1.521 . S
C764 C198 1.406 . S
C766 C351 1.399 . S
C775 C208 1.644 . S
C777 C358 1.670 . S
C786 C184 1.631 . S
C788 C398 1.646 . S
C799 C418 1.675 . S
C797 C196 1.630 . S
C808 C16 1.503 . S
C810 C378 1.536 . S
C821 C438 1.484 . S
C819 C28 1.480 1_455 S
C830 C4 1.493 . S
C832 C338 1.525 . S
C843 C459 1.665 . S
C841 C90 1.660 . S
C852 C102 1.756 . S
C854 C499 1.750 . S
C865 C551 1.579 . S
C863 C78 1.590 . S
C876 C511 1.471 . S
C874 C66 1.497 . S
C887 C539 1.521 . S
C885 C42 1.524 . S
C896 C54 1.405 . S
C898 C471 1.397 . S
C907 C64 1.616 1_655 S
C909 C478 1.672 . S
C918 C40 1.630 . S
C920 C518 1.645 . S
C931 C538 1.672 . S
C929 C52 1.635 1_545 S
C940 C88 1.509 . S
C942 C498 1.532 . S
C951 C100 1.479 . S
C953 C558 1.486 . S
C962 C76 1.483 . S
C964 C458 1.530 . S
C973 C189 1.609 . S
C975 C242 1.568 . S
C986 C282 1.875 . S
C984 C201 1.934 . S
C995 C213 1.560 . S
C997 C305 1.579 . S
C1006 C81 1.741 . S
C1008 C265 1.730 . S
C1017 C93 1.691 . S
C1019 C322 1.662 . S
C1030 C225 1.374 . S
C1028 C105 1.366 . S
C1039 C45 1.610 . S
C1041 C362 1.565 . S
C1050 C57 1.930 . S
C1052 C402 1.879 . S
C1061 C69 1.561 . S
C1063 C425 1.579 . S
C1072 C153 1.738 . S
C1074 C385 1.729 . S
C1085 C442 1.665 . S
C1083 C165 1.689 . S
C1094 C177 1.366 . S
C1096 C345 1.374 . S
C1105 C117 1.606 . S
C1107 C482 1.571 . S
C1116 C129 1.931 . S
C1118 C522 1.879 . S
C1129 C545 1.578 . S
C1127 C141 1.560 . S
C1138 C9 1.740 . S
C1140 C505 1.730 . S
C1149 C21 1.691 . S
C1151 C562 1.663 . S
C1160 C33 1.364 . S
C1162 C465 1.373 . S
