# Generated by pormake.
# Topology rtl, (3,6)-cn, num edge types: 1
# Building blocks:
#     Node 0, Type 0, BuildingBlock: CUQRIR_clean_linker_1, # of connection points: 3
#     Node 1, Type 0, BuildingBlock: CUQRIR_clean_linker_1, # of connection points: 3
#     Node 2, Type 0, BuildingBlock: CUQRIR_clean_linker_1, # of connection points: 3
#     Node 3, Type 0, BuildingBlock: CUQRIR_clean_linker_1, # of connection points: 3
#     Node 4, Type 1, BuildingBlock: KUMBUR_clean_sbu_1, # of connection points: 6
#     Node 5, Type 1, BuildingBlock: KUMBUR_clean_sbu_1, # of connection points: 6
#     Edge 6, Type (0, 1), BuildingBlock: AJUNOK_clean_linker_0, # of connection points: 2
#     Edge 7, Type (0, 1), BuildingBlock: AJUNOK_clean_linker_0, # of connection points: 2
#     Edge 8, Type (0, 1), BuildingBlock: AJUNOK_clean_linker_0, # of connection points: 2
#     Edge 9, Type (0, 1), BuildingBlock: AJUNOK_clean_linker_0, # of connection points: 2
#     Edge 10, Type (0, 1), BuildingBlock: AJUNOK_clean_linker_0, # of connection points: 2
#     Edge 11, Type (0, 1), BuildingBlock: AJUNOK_clean_linker_0, # of connection points: 2
#     Edge 12, Type (0, 1), BuildingBlock: AJUNOK_clean_linker_0, # of connection points: 2
#     Edge 13, Type (0, 1), BuildingBlock: AJUNOK_clean_linker_0, # of connection points: 2
#     Edge 14, Type (0, 1), BuildingBlock: AJUNOK_clean_linker_0, # of connection points: 2
#     Edge 15, Type (0, 1), BuildingBlock: AJUNOK_clean_linker_0, # of connection points: 2
#     Edge 16, Type (0, 1), BuildingBlock: AJUNOK_clean_linker_0, # of connection points: 2
#     Edge 17, Type (0, 1), BuildingBlock: AJUNOK_clean_linker_0, # of connection points: 2
# Relax obj value: 0.067
# Max RMSD: 0.250
# Mean RMSD: 0.190
data_MOF--net-rtl--node1-KUMBUR_clean_sbu_1--node2-CUQRIR_clean_linker_1--edge1-AJUNOK_clean_linker_0
_symmetry_space_group_name_H-M    P1
_symmetry_Int_Tables_number       1
_symmetry_cell_setting            triclinic
loop_
_symmetry_equiv_pos_as_xyz
'x, y, z'
_cell_length_a     23.725571
_cell_length_b     24.12686
_cell_length_c     18.27736
_cell_angle_alpha  72.458706
_cell_angle_beta   97.172304
_cell_angle_gamma 91.144722
loop_
_atom_site_label
_atom_site_type_symbol
_atom_site_fract_x
_atom_site_fract_y
_atom_site_fract_z
_atom_type_partial_charge
C0 C 0.27008 0.82126 0.96998 0.0
N1 N 0.23171 0.85596 0.98467 0.0
N2 N 0.30066 0.78921 0.03633 0.0
C3 C 0.27391 0.81488 0.89139 0.0
C4 C 0.27843 0.80501 0.09224 0.0
N5 N 0.23644 0.84559 0.0608 0.0
C6 C 0.29823 0.7815 0.1773 0.0
H7 H 0.2889 0.77067 0.89553 0.0
H8 H 0.30417 0.84711 0.8621 0.0
H9 H 0.23223 0.82373 0.85518 0.0
H10 H 0.34289 0.7654 0.18757 0.0
H11 H 0.2709 0.74484 0.20344 0.0
H12 H 0.29455 0.81548 0.20611 0.0
C13 C 0.74298 0.73593 0.7692 0.0
N14 N 0.70916 0.69129 0.762 0.0
N15 N 0.77259 0.75548 0.70776 0.0
C16 C 0.74504 0.76215 0.83438 0.0
C17 C 0.75611 0.72057 0.66353 0.0
N18 N 0.71684 0.68243 0.69546 0.0
C19 C 0.78278 0.7193 0.59336 0.0
H20 H 0.75615 0.80876 0.81493 0.0
H21 H 0.77802 0.73878 0.88161 0.0
H22 H 0.70366 0.75775 0.85779 0.0
H23 H 0.82525 0.73942 0.59244 0.0
H24 H 0.75484 0.74333 0.54036 0.0
H25 H 0.78729 0.67386 0.59226 0.0
C26 C 0.80807 0.25208 0.20953 0.0
N27 N 0.84589 0.21473 0.19946 0.0
N28 N 0.77552 0.2789 0.14237 0.0
C29 C 0.80508 0.26448 0.28466 0.0
C30 C 0.79586 0.2571 0.09022 0.0
N31 N 0.83876 0.21809 0.12501 0.0
C32 C 0.77077 0.26954 1.00709 0.0
H33 H 0.77441 0.23471 0.31723 0.0
H34 H 0.79068 0.30994 0.27457 0.0
H35 H 0.84733 0.25709 0.31995 0.0
H36 H 0.7951 0.30455 0.9705 0.0
H37 H 0.72561 0.28378 0.99852 0.0
H38 H 0.77396 0.23035 0.9879 0.0
C39 C 0.28735 0.28585 0.42649 0.0
N40 N 0.3285 0.32355 0.43668 0.0
N41 N 0.27196 0.25317 0.49566 0.0
C42 C 0.2577 0.28704 0.34828 0.0
C43 C 0.30538 0.27338 0.54776 0.0
N44 N 0.33914 0.31641 0.51205 0.0
C45 C 0.30843 0.24853 0.63427 0.0
H46 H 0.25579 0.3321 0.30832 0.0
H47 H 0.21389 0.27043 0.35194 0.0
H48 H 0.28239 0.26015 0.32338 0.0
H49 H 0.29717 0.20192 0.65116 0.0
H50 H 0.27842 0.27286 0.65571 0.0
H51 H 0.35179 0.2531 0.66238 0.0
Tb52 Tb 0.05154 0.9541 0.55088 0.0
C53 C 0.89555 0.15987 0.54245 0.0
N54 N 0.95223 0.14863 0.56446 0.0
C55 C 0.97206 0.24678 0.49284 0.0
C56 C 0.87511 0.21521 0.49509 0.0
C57 C 0.99026 0.19174 0.54139 0.0
C58 C 0.91425 0.25863 0.46959 0.0
C59 C 0.79854 0.12642 0.54897 0.0
C60 C 0.8576 0.11612 0.5692 0.0
C61 C 0.77818 0.18137 0.50174 0.0
C62 C 0.81635 0.22583 0.47578 0.0
Tb63 Tb 0.97487 0.05756 0.6486 0.0
N64 N 0.87861 0.06369 0.61601 0.0
C65 C 0.76162 0.08157 0.57836 0.0
C66 C 0.8425 0.02143 0.64944 0.0
C67 C 0.78374 0.029 0.62941 0.0
H68 H 0.03451 0.18527 0.56142 0.0
H69 H 0.75549 0.99479 0.6549 0.0
H70 H 0.96524 0.84079 0.57245 0.0
H71 H 0.27511 0.96929 0.6503 0.0
H72 H 0.85837 0.98235 0.69343 0.0
H73 H 0.71602 0.08767 0.56386 0.0
H74 H 0.18181 1.00789 0.58503 0.0
H75 H 1.00268 0.28044 0.4747 0.0
H76 H 0.73297 0.19022 0.48598 0.0
H77 H 0.79993 0.26843 0.44086 0.0
H78 H 0.97017 0.73658 0.64336 0.0
H79 H 0.90025 0.30161 0.43289 0.0
H80 H 0.2891 0.86407 0.71635 0.0
N81 N 0.04997 0.85703 0.61459 0.0
C82 C 0.10075 0.83261 0.65223 0.0
C83 C 1.00704 0.7632 0.64722 0.0
C84 C 0.10613 0.77241 0.6908 0.0
C85 C 1.00407 0.82283 0.6085 0.0
C86 C 0.05816 0.73792 0.68916 0.0
N87 N 0.1408 0.92621 0.61452 0.0
C88 C 0.18596 0.96229 0.61409 0.0
C89 C 0.20106 0.84401 0.68941 0.0
C90 C 0.14766 0.86813 0.65167 0.0
C91 C 0.24732 0.88094 0.68842 0.0
C92 C 0.23958 0.94034 0.65116 0.0
H93 H 0.06053 0.69156 0.71833 0.0
H94 H 0.16424 0.70221 0.75808 0.0
H95 H 0.24749 0.76465 0.75569 0.0
O96 O 0.10585 0.93766 0.4766 0.0
O97 O 0.05787 0.93271 0.67716 0.0
O98 O 0.05959 0.02157 0.69938 0.0
O99 O 1.01648 0.921 0.46148 0.0
O100 O 0.08821 0.04139 0.52987 0.0
O101 O 0.06022 0.0871 0.61693 0.0
O102 O 0.95165 0.03035 0.76129 0.0
O103 O 0.9394 0.0489 0.53636 0.0
O104 O 1.0166 0.03874 0.47724 0.0
O105 O 0.96894 0.12007 0.70656 0.0
O106 O 0.95604 0.96426 0.68062 0.0
O107 O 0.96153 0.94178 0.56732 0.0
C108 C 0.07392 0.96631 0.72038 0.0
C109 C 0.06359 0.94747 0.34937 0.0
C110 C 0.09715 0.94634 0.22844 0.0
C111 C 0.06194 0.99497 0.18881 0.0
C112 C 0.02946 0.99657 0.30861 0.0
C113 C 0.0287 0.02009 0.22875 0.0
C114 C 0.09733 0.92244 0.30902 0.0
C115 C 0.09296 0.08258 0.5647 0.0
C116 C 0.06459 0.92186 0.43374 0.0
C117 C 0.15925 0.74839 0.72841 0.0
C118 C 0.20667 0.78397 0.727 0.0
C119 C 0.96574 0.06008 0.47473 0.0
C120 C 0.9827 0.08748 0.8428 0.0
C121 C 0.97628 0.11614 0.95859 0.0
C122 C 0.03425 0.10276 0.98197 0.0
C123 C 0.04043 0.07332 0.86734 0.0
C124 C 0.9507 0.10848 0.88887 0.0
C125 C 0.06598 0.08087 0.93684 0.0
C126 C 0.94039 0.93353 0.63312 0.0
C127 C 0.95497 0.08231 0.76872 0.0
H128 H 0.05984 0.01317 0.12676 0.0
H129 H 1.00316 0.0165 0.33834 0.0
H130 H 1.00218 0.05788 0.1977 0.0
H131 H 0.12419 0.88486 0.34044 0.0
H132 H 0.05491 0.10962 0.03475 0.0
H133 H 0.06569 0.05712 0.83251 0.0
H134 H 0.90609 0.1197 0.86996 0.0
H135 H 0.11062 0.07036 0.95527 0.0
Tb136 Tb 0.46654 0.48182 1.01976 0.0
C137 C 0.66541 0.61756 0.13936 0.0
N138 N 0.65312 0.56024 0.16316 0.0
C139 C 0.75042 0.53495 0.16396 0.0
C140 C 0.72048 0.63608 0.12363 0.0
C141 C 0.69492 0.51883 0.17835 0.0
C142 C 0.76315 0.59384 0.13558 0.0
C143 C 0.63342 0.71742 0.10903 0.0
C144 C 0.62246 0.65741 0.13194 0.0
C145 C 0.68762 0.7365 0.09001 0.0
C146 C 0.7311 0.69588 0.09738 0.0
Tb147 Tb 0.56137 0.5382 0.18268 0.0
N148 N 0.5709 0.63709 0.15155 0.0
C149 C 0.59018 0.75621 0.10841 0.0
C150 C 0.53033 0.67449 0.15735 0.0
C151 C 0.5388 0.73453 0.13417 0.0
H152 H 0.68542 0.47339 0.20113 0.0
H153 H 0.50588 0.764 0.13695 0.0
H154 H 0.36203 0.58345 0.94644 0.0
H155 H 0.45182 0.24999 0.14314 0.0
H156 H 0.4915 0.65839 0.18067 0.0
H157 H 0.59677 0.80269 0.09104 0.0
H158 H 0.49868 0.34215 0.08127 0.0
H159 H 0.78328 0.50198 0.17469 0.0
H160 H 0.69672 0.78248 0.07144 0.0
H161 H 0.77298 0.71113 0.08399 0.0
H162 H 0.26252 0.59461 0.96449 0.0
H163 H 0.80609 0.60622 0.12421 0.0
H164 H 0.35311 0.2522 0.17336 0.0
N165 N 0.37185 0.4972 1.02449 0.0
C166 C 0.34376 0.44997 0.06346 0.0
C167 C 0.28514 0.55391 0.99384 0.0
C168 C 0.28595 0.45364 0.07265 0.0
C169 C 0.34224 0.5477 0.98525 0.0
C170 C 0.25717 0.50703 0.03916 0.0
N171 N 0.42737 0.3951 0.0783 0.0
C172 C 0.45544 0.34306 0.09394 0.0
C173 C 0.34383 0.34576 0.12529 0.0
C174 C 0.37204 0.3968 0.08952 0.0
C175 C 0.3733 0.29247 0.14581 0.0
C176 C 0.42907 0.29105 0.1289 0.0
H177 H 0.21277 0.51176 0.04493 0.0
H178 H 0.21402 0.40556 0.12047 0.0
H179 H 0.26474 0.31096 0.16633 0.0
O180 O 0.49782 0.43771 0.94988 0.0
O181 O 0.47197 0.4363 0.14545 0.0
O182 O 0.47445 0.51076 0.19698 0.0
O183 O 0.41944 0.48605 0.91177 0.0
O184 O 0.55477 0.45126 0.05 0.0
O185 O 0.58018 0.45015 0.17779 0.0
O186 O 0.57448 0.5669 0.28149 0.0
O187 O 0.5941 0.55165 0.0701 0.0
O188 O 0.51568 0.56074 0.97757 0.0
O189 O 0.58457 0.47657 0.29127 0.0
O190 O 0.47489 0.57326 0.13896 0.0
O191 O 0.4557 0.57456 1.0113 0.0
C192 C 0.45748 0.45889 0.19751 0.0
C193 C 0.4707 0.47097 0.81515 0.0
C194 C 0.4584 0.45513 0.68791 0.0
C195 C 0.50209 0.49461 0.6656 0.0
C196 C 0.51486 0.50931 0.79239 0.0
C197 C 0.53007 0.52145 0.71767 0.0
C198 C 0.44277 0.44412 0.76285 0.0
C199 C 0.5865 0.43266 0.11728 0.0
C200 C 0.45597 0.45396 0.89484 0.0
C201 C 0.25824 0.40347 0.11206 0.0
C202 C 0.28707 0.34956 0.13805 0.0
C203 C 0.56926 0.57113 0.99795 0.0
C204 C 0.63562 0.51086 0.38971 0.0
C205 C 0.67446 0.53302 0.50847 0.0
C206 C 0.72476 0.50276 0.50906 0.0
C207 C 0.68596 0.48044 0.39228 0.0
C208 C 0.62994 0.5366 0.44824 0.0
C209 C 0.73014 0.47641 0.45181 0.0
C210 C 0.45218 0.59794 0.0673 0.0
C211 C 0.58776 0.51531 0.32813 0.0
H212 H 0.51445 0.50489 0.608 0.0
H213 H 0.53807 0.52887 0.83275 0.0
H214 H 0.56406 0.55132 0.70031 0.0
H215 H 0.40984 0.41309 0.78151 0.0
H216 H 0.76084 0.50096 0.55233 0.0
H217 H 0.69125 0.45989 0.3484 0.0
H218 H 0.59087 0.55977 0.44653 0.0
H219 H 0.76913 0.45344 0.45299 0.0
C220 C 0.18995 0.21127 0.5644 0.0
C221 C 0.22762 0.21031 0.51111 0.0
C222 C 0.14826 0.16901 0.58298 0.0
C223 C 0.13919 0.12608 0.54497 0.0
H224 H 0.19279 0.24492 0.59254 0.0
H225 H 0.12284 0.17055 0.62756 0.0
S226 S 0.22742 0.10395 0.40085 0.0
N227 N 0.25658 0.15943 0.42549 0.0
N228 N 0.17249 0.08608 0.44982 0.0
C229 C 0.17599 0.12549 0.48989 0.0
C230 C 0.22114 0.1662 0.47519 0.0
C231 C 0.32989 0.68593 0.09167 0.0
C232 C 0.34014 0.74227 0.04501 0.0
C233 C 0.36585 0.63909 0.09713 0.0
C234 C 0.41216 0.6467 0.05423 0.0
H235 H 0.29349 0.67801 0.12345 0.0
H236 H 0.35713 0.59645 0.13466 0.0
S237 S 0.45897 0.78551 0.92673 0.0
N238 N 0.40202 0.80349 0.95882 0.0
N239 N 0.46752 0.71442 0.96548 0.0
C240 C 0.42273 0.70247 1.007 0.0
C241 C 0.38722 0.75055 1.00332 0.0
C242 C 0.85954 0.80447 0.7449 0.0
C243 C 0.81197 0.8028 0.69136 0.0
C244 C 0.90053 0.84778 0.72643 0.0
C245 C 0.89593 0.88968 0.65313 0.0
H246 H 0.86567 0.77134 0.80053 0.0
H247 H 0.9369 0.84741 0.76877 0.0
S248 S 0.77665 0.90762 0.49608 0.0
N249 N 0.75977 0.85043 0.56561 0.0
N250 N 0.83867 0.92896 0.52895 0.0
C251 C 0.8481 0.88906 0.59995 0.0
C252 C 0.80561 0.84637 0.61961 0.0
C253 C 0.68496 0.30067 0.1827 0.0
C254 C 0.72712 0.31687 0.13264 0.0
C255 C 0.63985 0.3387 0.17857 0.0
C256 C 0.63447 0.39335 0.12247 0.0
H257 H 0.68716 0.25835 0.22571 0.0
H258 H 0.60857 0.32495 0.21853 0.0
S259 S 0.73331 0.45685 0.97861 0.0
N260 N 0.76155 0.39231 0.02772 0.0
N261 N 0.6742 0.46181 1.01551 0.0
C262 C 0.6754 0.40952 0.07096 0.0
C263 C 0.72234 0.37172 0.07698 0.0
C264 C 0.16613 0.83645 0.15277 0.0
C265 C 0.20134 0.87124 0.10144 0.0
C266 C 0.13285 0.86084 0.19419 0.0
C267 C 0.13355 0.92091 0.18538 0.0
H268 H 0.16428 0.79019 0.16053 0.0
H269 H 0.10584 0.83264 0.23261 0.0
S270 S 0.22289 0.02925 0.06283 0.0
N271 N 0.23786 0.96738 0.04761 0.0
N272 N 0.17515 0.01376 0.12422 0.0
C273 C 0.16928 0.95583 0.13469 0.0
C274 C 0.20319 0.93086 0.09301 0.0
C275 C 0.69778 0.628 0.89285 0.0
C276 C 0.67349 0.65846 0.81768 0.0
C277 C 0.66382 0.60042 0.95047 0.0
C278 C 0.60406 0.60242 0.93566 0.0
H279 H 0.74353 0.62587 0.90713 0.0
H280 H 0.68488 0.57687 1.00684 0.0
S281 S 0.52004 0.68028 0.74781 0.0
N282 N 0.58683 0.69089 0.73107 0.0
N283 N 0.52232 0.64041 0.83919 0.0
C284 C 0.57934 0.63361 0.86028 0.0
C285 C 0.61419 0.6611 0.80138 0.0
C286 C 0.93648 0.17168 0.27615 0.0
C287 C 0.87709 0.17027 0.26119 0.0
C288 C 0.96557 0.13418 0.34443 0.0
C289 C 0.93578 0.095 0.39966 0.0
H290 H 0.96 0.20345 0.23655 0.0
H291 H 1.01125 0.13756 0.3556 0.0
S292 S 0.78051 0.07072 0.38112 0.0
N293 N 0.79025 0.12343 0.30205 0.0
N294 N 0.84418 0.05383 0.4305 0.0
C295 C 0.87665 0.0917 0.38293 0.0
C296 C 0.8475 0.12912 0.31354 0.0
C297 C 0.34048 0.38677 0.58532 0.0
C298 C 0.36987 0.35579 0.54759 0.0
C299 C 0.36933 0.42044 0.62792 0.0
C300 C 0.42891 0.42456 0.63451 0.0
H301 H 0.29473 0.38378 0.5831 0.0
H302 H 0.34478 0.44263 0.65715 0.0
S303 S 0.52521 0.3539 0.54242 0.0
N304 N 0.46112 0.33293 0.51617 0.0
N305 N 0.5161 0.39636 0.59622 0.0
C306 C 0.45866 0.39562 0.59409 0.0
C307 C 0.42898 0.36114 0.55069 0.0
C308 C 0.66045 0.66061 0.58614 0.0
C309 C 0.68961 0.64059 0.66132 0.0
C310 C 0.65165 0.62419 0.53891 0.0
C311 C 0.6714 0.56602 0.56539 0.0
H312 H 0.6491 0.7063 0.5614 0.0
H313 H 0.63347 0.64325 0.47932 0.0
S314 S 0.7385 0.48947 0.76437 0.0
N315 N 0.73056 0.55738 0.76425 0.0
N316 N 0.7118 0.48753 0.67725 0.0
C317 C 0.6947 0.54386 0.64372 0.0
C318 C 0.70417 0.5814 0.6914 0.0
C319 C 0.90678 0.22592 0.03134 0.0
C320 C 0.87476 0.19102 0.08713 0.0
C321 C 0.94037 0.20121 0.9909 0.0
C322 C 0.94283 0.14076 1.00485 0.0
H323 H 0.90544 0.27273 1.01879 0.0
H324 H 0.96403 0.22955 0.94779 0.0
S325 S 0.86684 0.03048 0.14463 0.0
N326 N 0.84736 0.09316 0.15394 0.0
N327 N 0.91083 0.04648 0.07812 0.0
C328 C 0.91141 0.10531 0.06082 0.0
C329 C 0.8773 0.13051 0.10212 0.0
C330 C 0.39424 0.33134 0.34013 0.0
C331 C 0.36071 0.3585 0.37803 0.0
C332 C 0.42587 0.36403 0.28248 0.0
C333 C 0.42433 0.42516 0.2596 0.0
H334 H 0.39633 0.28434 0.35598 0.0
H335 H 0.45214 0.34119 0.25623 0.0
S336 S 0.34149 0.51675 0.34058 0.0
N337 N 0.32703 0.44937 0.38892 0.0
N338 N 0.38582 0.51143 0.28002 0.0
C339 C 0.39086 0.45275 0.29753 0.0
C340 C 0.35902 0.41927 0.35667 0.0
C341 C 0.19414 0.94456 0.88392 0.0
C342 C 0.18612 0.88735 0.92945 0.0
C343 C 0.15571 0.9713 0.81827 0.0
C344 C 0.10946 0.9406 0.79478 0.0
H345 H 0.23181 0.96757 0.89703 0.0
H346 H 0.16409 0.01491 0.78325 0.0
S347 S 0.07045 0.78973 0.89524 0.0
N348 N 0.1282 0.80163 0.94859 0.0
N349 N 0.05705 0.85054 0.82349 0.0
C350 C 0.10049 0.88377 0.84096 0.0
C351 C 0.13858 0.85746 0.90882 0.0
loop_
_geom_bond_atom_site_label_1
_geom_bond_atom_site_label_2
_geom_bond_distance
_geom_bond_site_symmetry_2
_ccdc_geom_bond_type
C0 N1 1.317 . S
C0 N2 1.348 1_556 S
C0 C3 1.485 . S
N1 C0 1.317 . S
N1 N5 1.370 1_556 S
N2 C0 1.348 1_554 S
N2 C4 1.346 . S
C3 C0 1.485 . S
C3 H7 0.960 . S
C3 H8 0.961 . S
C3 H9 0.960 . S
C4 N2 1.346 . S
C4 N5 1.307 . S
C4 C6 1.486 . S
N5 N1 1.370 1_554 S
N5 C4 1.307 . S
C6 C4 1.486 . S
C6 H10 0.960 . S
C6 H11 0.960 . S
C6 H12 0.959 . S
H7 C3 0.960 . S
H8 C3 0.961 . S
H9 C3 0.960 . S
H10 C6 0.960 . S
H11 C6 0.960 . S
H12 C6 0.959 . S
C13 N14 1.317 . S
C13 N15 1.348 . S
C13 C16 1.485 . S
N14 C13 1.317 . S
N14 N18 1.370 . S
N15 C13 1.348 . S
N15 C17 1.346 . S
C16 C13 1.485 . S
C16 H20 0.960 . S
C16 H21 0.961 . S
C16 H22 0.960 . S
C17 N15 1.346 . S
C17 N18 1.307 . S
C17 C19 1.486 . S
N18 N14 1.370 . S
N18 C17 1.307 . S
C19 C17 1.486 . S
C19 H23 0.960 . S
C19 H24 0.960 . S
C19 H25 0.959 . S
H20 C16 0.960 . S
H21 C16 0.961 . S
H22 C16 0.960 . S
H23 C19 0.960 . S
H24 C19 0.960 . S
H25 C19 0.959 . S
C26 N27 1.317 . S
C26 N28 1.348 . S
C26 C29 1.485 . S
N27 C26 1.317 . S
N27 N31 1.370 . S
N28 C26 1.348 . S
N28 C30 1.346 . S
C29 C26 1.485 . S
C29 H33 0.960 . S
C29 H34 0.961 . S
C29 H35 0.960 . S
C30 N28 1.346 . S
C30 N31 1.307 . S
C30 C32 1.486 1_554 S
N31 N27 1.370 . S
N31 C30 1.307 . S
C32 C30 1.486 1_556 S
C32 H36 0.960 . S
C32 H37 0.960 . S
C32 H38 0.959 . S
H33 C29 0.960 . S
H34 C29 0.961 . S
H35 C29 0.960 . S
H36 C32 0.960 . S
H37 C32 0.960 . S
H38 C32 0.959 . S
C39 N40 1.317 . S
C39 N41 1.348 . S
C39 C42 1.485 . S
N40 C39 1.317 . S
N40 N44 1.370 . S
N41 C39 1.348 . S
N41 C43 1.346 . S
C42 C39 1.485 . S
C42 H46 0.960 . S
C42 H47 0.961 . S
C42 H48 0.960 . S
C43 N41 1.346 . S
C43 N44 1.307 . S
C43 C45 1.486 . S
N44 N40 1.370 . S
N44 C43 1.307 . S
C45 C43 1.486 . S
C45 H49 0.960 . S
C45 H50 0.960 . S
C45 H51 0.959 . S
H46 C42 0.960 . S
H47 C42 0.961 . S
H48 C42 0.960 . S
H49 C45 0.960 . S
H50 C45 0.960 . S
H51 C45 0.959 . S
Tb52 N81 2.617 . S
Tb52 N87 2.572 . S
Tb52 O96 2.465 . S
Tb52 O97 2.387 . S
Tb52 O99 2.428 . S
Tb52 O100 2.308 1_565 S
Tb52 O104 2.349 1_465 S
Tb52 O107 2.393 1_455 S
Tb52 C116 2.802 . S
C53 N54 1.379 . S
C53 C56 1.416 . S
C53 C60 1.424 . S
N54 C53 1.379 . S
N54 C57 1.334 1_655 S
N54 Tb63 2.617 . S
C55 C57 1.390 . S
C55 C58 1.339 1_455 S
C55 H75 0.930 . S
C56 C53 1.416 . S
C56 C58 1.416 . S
C56 C62 1.448 . S
C57 N54 1.334 1_455 S
C57 C55 1.390 . S
C57 H68 0.930 . S
C58 C55 1.339 1_655 S
C58 C56 1.416 . S
C58 H79 0.930 . S
C59 C60 1.413 . S
C59 C61 1.427 . S
C59 C65 1.416 . S
C60 C53 1.424 . S
C60 C59 1.413 . S
C60 N64 1.361 . S
C61 C59 1.427 . S
C61 C62 1.328 . S
C61 H76 0.929 . S
C62 C56 1.448 . S
C62 C61 1.328 . S
C62 H77 0.930 . S
Tb63 N54 2.617 . S
Tb63 N64 2.572 . S
Tb63 O98 2.349 1_655 S
Tb63 O101 2.393 1_655 S
Tb63 O102 2.465 . S
Tb63 O103 2.387 . S
Tb63 O105 2.428 . S
Tb63 O106 2.308 1_545 S
Tb63 C127 2.802 . S
N64 C60 1.361 . S
N64 Tb63 2.572 . S
N64 C66 1.340 . S
C65 C59 1.416 . S
C65 C67 1.332 . S
C65 H73 0.931 . S
C66 N64 1.340 . S
C66 C67 1.407 . S
C66 H72 0.930 . S
C67 C65 1.332 . S
C67 C66 1.407 . S
C67 H69 0.929 . S
H68 C57 0.930 . S
H69 C67 0.929 . S
H70 C85 0.930 1_655 S
H71 C92 0.929 . S
H72 C66 0.930 . S
H73 C65 0.931 . S
H74 C88 0.930 . S
H75 C55 0.930 . S
H76 C61 0.929 . S
H77 C62 0.930 . S
H78 C83 0.930 1_655 S
H79 C58 0.930 . S
H80 C91 0.931 . S
N81 Tb52 2.617 . S
N81 C82 1.379 . S
N81 C85 1.334 . S
C82 N81 1.379 . S
C82 C84 1.416 . S
C82 C90 1.424 . S
C83 H78 0.930 1_455 S
C83 C85 1.390 . S
C83 C86 1.339 . S
C84 C82 1.416 . S
C84 C86 1.416 . S
C84 C117 1.448 . S
C85 H70 0.930 1_455 S
C85 N81 1.334 . S
C85 C83 1.390 . S
C86 C83 1.339 . S
C86 C84 1.416 . S
C86 H93 0.930 . S
N87 Tb52 2.572 . S
N87 C88 1.340 . S
N87 C90 1.361 . S
C88 H74 0.930 . S
C88 N87 1.340 . S
C88 C92 1.407 . S
C89 C90 1.413 . S
C89 C91 1.416 . S
C89 C118 1.427 . S
C90 C82 1.424 . S
C90 N87 1.361 . S
C90 C89 1.413 . S
C91 H80 0.931 . S
C91 C89 1.416 . S
C91 C92 1.332 . S
C92 H71 0.929 . S
C92 C88 1.407 . S
C92 C91 1.332 . S
H93 C86 0.930 . S
H94 C117 0.930 . S
H95 C118 0.929 . S
O96 Tb52 2.465 . S
O96 C116 1.264 . S
O97 Tb52 2.387 . S
O97 C108 1.264 . S
O98 Tb63 2.349 1_455 S
O98 C108 1.243 1_545 S
O99 Tb52 2.428 . S
O99 C116 1.256 . S
O100 Tb52 2.308 1_545 S
O100 C115 1.266 . S
O101 Tb63 2.393 1_455 S
O101 C115 1.248 . S
O102 Tb63 2.465 . S
O102 C127 1.264 . S
O103 Tb63 2.387 . S
O103 C119 1.264 . S
O104 Tb52 2.349 1_645 S
O104 C119 1.243 . S
O105 Tb63 2.428 . S
O105 C127 1.256 . S
O106 Tb63 2.308 1_565 S
O106 C126 1.266 . S
O107 Tb52 2.393 1_655 S
O107 C126 1.248 . S
C108 O97 1.264 . S
C108 O98 1.243 1_565 S
C109 C112 1.399 . S
C109 C114 1.383 . S
C109 C116 1.496 . S
C110 C111 1.399 . S
C110 C114 1.389 . S
C111 C110 1.399 . S
C111 C113 1.380 . S
C111 H128 0.929 . S
C112 C109 1.399 . S
C112 C113 1.392 . S
C112 H129 0.929 . S
C113 C111 1.380 . S
C113 C112 1.392 . S
C113 H130 0.929 . S
C114 C109 1.383 . S
C114 C110 1.389 . S
C114 H131 0.931 . S
C115 O100 1.266 . S
C115 O101 1.248 . S
C116 Tb52 2.802 . S
C116 O96 1.264 . S
C116 O99 1.256 . S
C116 C109 1.496 . S
C117 C84 1.448 . S
C117 H94 0.930 . S
C117 C118 1.328 . S
C118 C89 1.427 . S
C118 H95 0.929 . S
C118 C117 1.328 . S
C119 O103 1.264 . S
C119 O104 1.243 . S
C120 C123 1.399 . S
C120 C124 1.383 . S
C120 C127 1.496 . S
C121 C122 1.399 . S
C121 C124 1.389 . S
C122 C121 1.399 . S
C122 C125 1.380 . S
C122 H132 0.929 . S
C123 C120 1.399 . S
C123 C125 1.392 . S
C123 H133 0.929 . S
C124 C120 1.383 . S
C124 C121 1.389 . S
C124 H134 0.931 . S
C125 C122 1.380 . S
C125 C123 1.392 . S
C125 H135 0.929 . S
C126 O106 1.266 . S
C126 O107 1.248 . S
C127 Tb63 2.802 . S
C127 O102 1.264 . S
C127 O105 1.256 . S
C127 C120 1.496 . S
H128 C111 0.929 . S
H129 C112 0.929 . S
H130 C113 0.929 . S
H131 C114 0.931 . S
H132 C122 0.929 . S
H133 C123 0.929 . S
H134 C124 0.931 . S
H135 C125 0.929 . S
Tb136 N165 2.617 . S
Tb136 N171 2.572 . S
Tb136 O180 2.465 1_554 S
Tb136 O181 2.387 . S
Tb136 O183 2.428 1_554 S
Tb136 O184 2.308 . S
Tb136 O188 2.349 1_554 S
Tb136 O191 2.393 . S
Tb136 C200 2.802 1_554 S
C137 N138 1.379 . S
C137 C140 1.416 . S
C137 C144 1.424 . S
N138 C137 1.379 . S
N138 C141 1.334 . S
N138 Tb147 2.617 . S
C139 C141 1.390 . S
C139 C142 1.339 . S
C139 H159 0.930 . S
C140 C137 1.416 . S
C140 C142 1.416 . S
C140 C146 1.448 . S
C141 N138 1.334 . S
C141 C139 1.390 . S
C141 H152 0.930 . S
C142 C139 1.339 . S
C142 C140 1.416 . S
C142 H163 0.930 . S
C143 C144 1.413 . S
C143 C145 1.427 . S
C143 C149 1.416 . S
C144 C137 1.424 . S
C144 C143 1.413 . S
C144 N148 1.361 . S
C145 C143 1.427 . S
C145 C146 1.328 . S
C145 H160 0.929 . S
C146 C140 1.448 . S
C146 C145 1.328 . S
C146 H161 0.930 . S
Tb147 N138 2.617 . S
Tb147 N148 2.572 . S
Tb147 O182 2.349 . S
Tb147 O185 2.393 . S
Tb147 O186 2.465 . S
Tb147 O187 2.387 . S
Tb147 O189 2.428 . S
Tb147 O190 2.308 . S
Tb147 C211 2.802 . S
N148 C144 1.361 . S
N148 Tb147 2.572 . S
N148 C150 1.340 . S
C149 C143 1.416 . S
C149 C151 1.332 . S
C149 H157 0.931 . S
C150 N148 1.340 . S
C150 C151 1.407 . S
C150 H156 0.930 . S
C151 C149 1.332 . S
C151 C150 1.407 . S
C151 H153 0.929 . S
H152 C141 0.930 . S
H153 C151 0.929 . S
H154 C169 0.930 . S
H155 C176 0.929 . S
H156 C150 0.930 . S
H157 C149 0.931 . S
H158 C172 0.930 . S
H159 C139 0.930 . S
H160 C145 0.929 . S
H161 C146 0.930 . S
H162 C167 0.930 . S
H163 C142 0.930 . S
H164 C175 0.931 . S
N165 Tb136 2.617 . S
N165 C166 1.379 . S
N165 C169 1.334 1_554 S
C166 N165 1.379 . S
C166 C168 1.416 . S
C166 C174 1.424 . S
C167 H162 0.930 . S
C167 C169 1.390 . S
C167 C170 1.339 1_556 S
C168 C166 1.416 . S
C168 C170 1.416 . S
C168 C201 1.448 . S
C169 H154 0.930 . S
C169 N165 1.334 1_556 S
C169 C167 1.390 . S
C170 C167 1.339 1_554 S
C170 C168 1.416 . S
C170 H177 0.930 . S
N171 Tb136 2.572 . S
N171 C172 1.340 . S
N171 C174 1.361 . S
C172 H158 0.930 . S
C172 N171 1.340 . S
C172 C176 1.407 . S
C173 C174 1.413 . S
C173 C175 1.416 . S
C173 C202 1.427 . S
C174 C166 1.424 . S
C174 N171 1.361 . S
C174 C173 1.413 . S
C175 H164 0.931 . S
C175 C173 1.416 . S
C175 C176 1.332 . S
C176 H155 0.929 . S
C176 C172 1.407 . S
C176 C175 1.332 . S
H177 C170 0.930 . S
H178 C201 0.930 . S
H179 C202 0.929 . S
O180 Tb136 2.465 1_556 S
O180 C200 1.264 . S
O181 Tb136 2.387 . S
O181 C192 1.264 . S
O182 Tb147 2.349 . S
O182 C192 1.243 . S
O183 Tb136 2.428 1_556 S
O183 C200 1.256 . S
O184 Tb136 2.308 . S
O184 C199 1.266 . S
O185 Tb147 2.393 . S
O185 C199 1.248 . S
O186 Tb147 2.465 . S
O186 C211 1.264 . S
O187 Tb147 2.387 . S
O187 C203 1.264 1_554 S
O188 Tb136 2.349 1_556 S
O188 C203 1.243 . S
O189 Tb147 2.428 . S
O189 C211 1.256 . S
O190 Tb147 2.308 . S
O190 C210 1.266 . S
O191 Tb136 2.393 . S
O191 C210 1.248 . S
C192 O181 1.264 . S
C192 O182 1.243 . S
C193 C196 1.399 . S
C193 C198 1.383 . S
C193 C200 1.496 . S
C194 C195 1.399 . S
C194 C198 1.389 . S
C195 C194 1.399 . S
C195 C197 1.380 . S
C195 H212 0.929 . S
C196 C193 1.399 . S
C196 C197 1.392 . S
C196 H213 0.929 . S
C197 C195 1.380 . S
C197 C196 1.392 . S
C197 H214 0.929 . S
C198 C193 1.383 . S
C198 C194 1.389 . S
C198 H215 0.931 . S
C199 O184 1.266 . S
C199 O185 1.248 . S
C200 Tb136 2.802 1_556 S
C200 O180 1.264 . S
C200 O183 1.256 . S
C200 C193 1.496 . S
C201 C168 1.448 . S
C201 H178 0.930 . S
C201 C202 1.328 . S
C202 C173 1.427 . S
C202 H179 0.929 . S
C202 C201 1.328 . S
C203 O187 1.264 1_556 S
C203 O188 1.243 . S
C204 C207 1.399 . S
C204 C208 1.383 . S
C204 C211 1.496 . S
C205 C206 1.399 . S
C205 C208 1.389 . S
C206 C205 1.399 . S
C206 C209 1.380 . S
C206 H216 0.929 . S
C207 C204 1.399 . S
C207 C209 1.392 . S
C207 H217 0.929 . S
C208 C204 1.383 . S
C208 C205 1.389 . S
C208 H218 0.931 . S
C209 C206 1.380 . S
C209 C207 1.392 . S
C209 H219 0.929 . S
C210 O190 1.266 . S
C210 O191 1.248 . S
C211 Tb147 2.802 . S
C211 O186 1.264 . S
C211 O189 1.256 . S
C211 C204 1.496 . S
H212 C195 0.929 . S
H213 C196 0.929 . S
H214 C197 0.929 . S
H215 C198 0.931 . S
H216 C206 0.929 . S
H217 C207 0.929 . S
H218 C208 0.931 . S
H219 C209 0.929 . S
C220 C221 1.369 . S
C220 C222 1.419 . S
C220 H224 0.930 . S
C221 C220 1.369 . S
C221 C230 1.429 . S
C222 C220 1.419 . S
C222 C223 1.363 . S
C222 H225 0.929 . S
C223 C222 1.363 . S
C223 C229 1.428 . S
H224 C220 0.930 . S
H225 C222 0.929 . S
S226 N227 1.613 . S
S226 N228 1.610 . S
N227 S226 1.613 . S
N227 C230 1.350 . S
N228 S226 1.610 . S
N228 C229 1.351 . S
C229 C223 1.428 . S
C229 N228 1.351 . S
C229 C230 1.434 . S
C230 C221 1.429 . S
C230 N227 1.350 . S
C230 C229 1.434 . S
C231 C232 1.369 . S
C231 C233 1.419 . S
C231 H235 0.930 . S
C232 C231 1.369 . S
C232 C241 1.429 . S
C233 C231 1.419 . S
C233 C234 1.363 . S
C233 H236 0.929 . S
C234 C233 1.363 . S
C234 C240 1.428 . S
H235 C231 0.930 . S
H236 C233 0.929 . S
S237 N238 1.613 . S
S237 N239 1.610 . S
N238 S237 1.613 . S
N238 C241 1.350 1_556 S
N239 S237 1.610 . S
N239 C240 1.351 1_556 S
C240 C234 1.428 . S
C240 N239 1.351 1_554 S
C240 C241 1.434 . S
C241 C232 1.429 . S
C241 N238 1.350 1_554 S
C241 C240 1.434 . S
C242 C243 1.369 . S
C242 C244 1.419 . S
C242 H246 0.930 . S
C243 C242 1.369 . S
C243 C252 1.429 . S
C244 C242 1.419 . S
C244 C245 1.363 . S
C244 H247 0.929 . S
C245 C244 1.363 . S
C245 C251 1.428 . S
H246 C242 0.930 . S
H247 C244 0.929 . S
S248 N249 1.613 . S
S248 N250 1.610 . S
N249 S248 1.613 . S
N249 C252 1.350 . S
N250 S248 1.610 . S
N250 C251 1.351 . S
C251 C245 1.428 . S
C251 N250 1.351 . S
C251 C252 1.434 . S
C252 C243 1.429 . S
C252 N249 1.350 . S
C252 C251 1.434 . S
C253 C254 1.369 . S
C253 C255 1.419 . S
C253 H257 0.930 . S
C254 C253 1.369 . S
C254 C263 1.429 . S
C255 C253 1.419 . S
C255 C256 1.363 . S
C255 H258 0.929 . S
C256 C255 1.363 . S
C256 C262 1.428 . S
H257 C253 0.930 . S
H258 C255 0.929 . S
S259 N260 1.613 . S
S259 N261 1.610 . S
N260 S259 1.613 . S
N260 C263 1.350 1_556 S
N261 S259 1.610 . S
N261 C262 1.351 1_556 S
C262 C256 1.428 . S
C262 N261 1.351 1_554 S
C262 C263 1.434 . S
C263 C254 1.429 . S
C263 N260 1.350 1_554 S
C263 C262 1.434 . S
C264 C265 1.369 . S
C264 C266 1.419 . S
C264 H268 0.930 . S
C265 C264 1.369 . S
C265 C274 1.429 . S
C266 C264 1.419 . S
C266 C267 1.363 . S
C266 H269 0.929 . S
C267 C266 1.363 . S
C267 C273 1.428 . S
H268 C264 0.930 . S
H269 C266 0.929 . S
S270 N271 1.613 1_545 S
S270 N272 1.610 . S
N271 S270 1.613 1_565 S
N271 C274 1.350 . S
N272 S270 1.610 . S
N272 C273 1.351 1_545 S
C273 C267 1.428 . S
C273 N272 1.351 1_565 S
C273 C274 1.434 . S
C274 C265 1.429 . S
C274 N271 1.350 . S
C274 C273 1.434 . S
C275 C276 1.369 . S
C275 C277 1.419 . S
C275 H279 0.930 . S
C276 C275 1.369 . S
C276 C285 1.429 . S
C277 C275 1.419 . S
C277 C278 1.363 . S
C277 H280 0.929 . S
C278 C277 1.363 . S
C278 C284 1.428 . S
H279 C275 0.930 . S
H280 C277 0.929 . S
S281 N282 1.613 . S
S281 N283 1.610 . S
N282 S281 1.613 . S
N282 C285 1.350 . S
N283 S281 1.610 . S
N283 C284 1.351 . S
C284 C278 1.428 . S
C284 N283 1.351 . S
C284 C285 1.434 . S
C285 C276 1.429 . S
C285 N282 1.350 . S
C285 C284 1.434 . S
C286 C287 1.369 . S
C286 C288 1.419 . S
C286 H290 0.930 . S
C287 C286 1.369 . S
C287 C296 1.429 . S
C288 C286 1.419 . S
C288 C289 1.363 . S
C288 H291 0.929 . S
C289 C288 1.363 . S
C289 C295 1.428 . S
H290 C286 0.930 . S
H291 C288 0.929 . S
S292 N293 1.613 . S
S292 N294 1.610 . S
N293 S292 1.613 . S
N293 C296 1.350 . S
N294 S292 1.610 . S
N294 C295 1.351 . S
C295 C289 1.428 . S
C295 N294 1.351 . S
C295 C296 1.434 . S
C296 C287 1.429 . S
C296 N293 1.350 . S
C296 C295 1.434 . S
C297 C298 1.369 . S
C297 C299 1.419 . S
C297 H301 0.930 . S
C298 C297 1.369 . S
C298 C307 1.429 . S
C299 C297 1.419 . S
C299 C300 1.363 . S
C299 H302 0.929 . S
C300 C299 1.363 . S
C300 C306 1.428 . S
H301 C297 0.930 . S
H302 C299 0.929 . S
S303 N304 1.613 . S
S303 N305 1.610 . S
N304 S303 1.613 . S
N304 C307 1.350 . S
N305 S303 1.610 . S
N305 C306 1.351 . S
C306 C300 1.428 . S
C306 N305 1.351 . S
C306 C307 1.434 . S
C307 C298 1.429 . S
C307 N304 1.350 . S
C307 C306 1.434 . S
C308 C309 1.369 . S
C308 C310 1.419 . S
C308 H312 0.930 . S
C309 C308 1.369 . S
C309 C318 1.429 . S
C310 C308 1.419 . S
C310 C311 1.363 . S
C310 H313 0.929 . S
C311 C310 1.363 . S
C311 C317 1.428 . S
H312 C308 0.930 . S
H313 C310 0.929 . S
S314 N315 1.613 . S
S314 N316 1.610 . S
N315 S314 1.613 . S
N315 C318 1.350 . S
N316 S314 1.610 . S
N316 C317 1.351 . S
C317 C311 1.428 . S
C317 N316 1.351 . S
C317 C318 1.434 . S
C318 C309 1.429 . S
C318 N315 1.350 . S
C318 C317 1.434 . S
C319 C320 1.369 1_556 S
C319 C321 1.419 . S
C319 H323 0.930 . S
C320 C319 1.369 1_554 S
C320 C329 1.429 . S
C321 C319 1.419 . S
C321 C322 1.363 . S
C321 H324 0.929 . S
C322 C321 1.363 . S
C322 C328 1.428 1_556 S
H323 C319 0.930 . S
H324 C321 0.929 . S
S325 N326 1.613 1_565 S
S325 N327 1.610 1_565 S
N326 S325 1.613 1_545 S
N326 C329 1.350 . S
N327 S325 1.610 1_545 S
N327 C328 1.351 . S
C328 C322 1.428 1_554 S
C328 N327 1.351 . S
C328 C329 1.434 . S
C329 C320 1.429 . S
C329 N326 1.350 . S
C329 C328 1.434 . S
C330 C331 1.369 . S
C330 C332 1.419 . S
C330 H334 0.930 . S
C331 C330 1.369 . S
C331 C340 1.429 . S
C332 C330 1.419 . S
C332 C333 1.363 . S
C332 H335 0.929 . S
C333 C332 1.363 . S
C333 C339 1.428 . S
H334 C330 0.930 . S
H335 C332 0.929 . S
S336 N337 1.613 . S
S336 N338 1.610 . S
N337 S336 1.613 . S
N337 C340 1.350 . S
N338 S336 1.610 . S
N338 C339 1.351 . S
C339 C333 1.428 . S
C339 N338 1.351 . S
C339 C340 1.434 . S
C340 C331 1.429 . S
C340 N337 1.350 . S
C340 C339 1.434 . S
C341 C342 1.369 . S
C341 C343 1.419 . S
C341 H345 0.930 . S
C342 C341 1.369 . S
C342 C351 1.429 . S
C343 C341 1.419 . S
C343 C344 1.363 . S
C343 H346 0.929 1_565 S
C344 C343 1.363 . S
C344 C350 1.428 . S
H345 C341 0.930 . S
H346 C343 0.929 1_545 S
S347 N348 1.613 . S
S347 N349 1.610 . S
N348 S347 1.613 . S
N348 C351 1.350 . S
N349 S347 1.610 . S
N349 C350 1.351 . S
C350 C344 1.428 . S
C350 N349 1.351 . S
C350 C351 1.434 . S
C351 C342 1.429 . S
C351 N348 1.350 . S
C351 C350 1.434 . S
C223 C115 1.641 . S
C221 N41 1.671 . S
C232 N2 1.610 . S
C234 C210 1.602 . S
C243 N15 1.665 . S
C245 C126 1.638 . S
C254 N28 1.602 . S
C256 C199 1.604 . S
C267 C110 1.379 . S
C265 N5 1.590 . S
C278 C203 1.655 . S
C276 N14 1.648 . S
C287 N27 1.566 . S
C289 C119 1.610 . S
C298 N44 1.576 . S
C300 C194 1.413 . S
C311 C205 1.405 . S
C309 N18 1.577 . S
C322 C121 1.374 . S
C320 N31 1.591 . S
C333 C192 1.654 . S
C331 N40 1.657 . S
C342 N1 1.586 . S
C344 C108 1.610 . S
