# Generated by pormake.
# Topology rtl, (3,6)-cn, num edge types: 1
# Building blocks:
#     Node 0, Type 0, BuildingBlock: VETTIZ_charged_linker_0, # of connection points: 3
#     Node 1, Type 0, BuildingBlock: VETTIZ_charged_linker_0, # of connection points: 3
#     Node 2, Type 0, BuildingBlock: VETTIZ_charged_linker_0, # of connection points: 3
#     Node 3, Type 0, BuildingBlock: VETTIZ_charged_linker_0, # of connection points: 3
#     Node 4, Type 1, BuildingBlock: LEVNOQ01_clean_sbu_1, # of connection points: 6
#     Node 5, Type 1, BuildingBlock: LEVNOQ01_clean_sbu_1, # of connection points: 6
#     Edge 6, Type (0, 1), BuildingBlock: CIFDUS_clean_linker_0, # of connection points: 2
#     Edge 7, Type (0, 1), BuildingBlock: CIFDUS_clean_linker_0, # of connection points: 2
#     Edge 8, Type (0, 1), BuildingBlock: CIFDUS_clean_linker_0, # of connection points: 2
#     Edge 9, Type (0, 1), BuildingBlock: CIFDUS_clean_linker_0, # of connection points: 2
#     Edge 10, Type (0, 1), BuildingBlock: CIFDUS_clean_linker_0, # of connection points: 2
#     Edge 11, Type (0, 1), BuildingBlock: CIFDUS_clean_linker_0, # of connection points: 2
#     Edge 12, Type (0, 1), BuildingBlock: CIFDUS_clean_linker_0, # of connection points: 2
#     Edge 13, Type (0, 1), BuildingBlock: CIFDUS_clean_linker_0, # of connection points: 2
#     Edge 14, Type (0, 1), BuildingBlock: CIFDUS_clean_linker_0, # of connection points: 2
#     Edge 15, Type (0, 1), BuildingBlock: CIFDUS_clean_linker_0, # of connection points: 2
#     Edge 16, Type (0, 1), BuildingBlock: CIFDUS_clean_linker_0, # of connection points: 2
#     Edge 17, Type (0, 1), BuildingBlock: CIFDUS_clean_linker_0, # of connection points: 2
# Relax obj value: 0.027
# Max RMSD: 0.061
# Mean RMSD: 0.048
data_MOF--net-rtl--node1-LEVNOQ01_clean_sbu_1--node2-VETTIZ_charged_linker_0--edge1-CIFDUS_clean_linker_0
_symmetry_space_group_name_H-M    P1
_symmetry_Int_Tables_number       1
_symmetry_cell_setting            triclinic
loop_
_symmetry_equiv_pos_as_xyz
'x, y, z'
_cell_length_a     33.230775
_cell_length_b     37.809258
_cell_length_c     26.644323
_cell_angle_alpha  90.113599
_cell_angle_beta   98.163835
_cell_angle_gamma 89.842872
loop_
_atom_site_label
_atom_site_type_symbol
_atom_site_fract_x
_atom_site_fract_y
_atom_site_fract_z
_atom_type_partial_charge
C0 C 0.23407 0.91312 0.92236 0.0
C1 C 0.20879 0.94258 0.91037 0.0
C2 C 0.19667 0.96321 0.94961 0.0
C3 C 0.23503 0.92525 0.01221 0.0
C4 C 0.24713 0.90516 0.97351 0.0
C5 C 0.27602 0.87606 0.99338 0.0
H6 H 0.37767 0.78757 0.19404 0.0
C7 C 0.25457 0.91053 0.06099 0.0
C8 C 0.2789 0.88184 0.05027 0.0
H9 H 0.37928 0.76837 0.0346 0.0
H10 H 0.33339 0.81737 0.01291 0.0
H11 H 0.38547 0.87095 0.1879 0.0
H12 H 0.28086 0.80382 0.1845 0.0
H13 H 0.27369 0.84005 0.22358 0.0
H14 H 0.3165 0.81103 0.24078 0.0
H15 H 0.37207 0.85091 0.2442 0.0
H16 H 0.35155 0.89324 0.22185 0.0
C17 C 0.31724 0.88266 0.97409 0.0
C18 C 0.25585 0.84024 0.97663 0.0
C19 C 0.21823 0.9593 0.22681 0.0
C20 C 0.22922 0.949 0.27763 0.0
C21 C 0.25999 0.92337 0.28935 0.0
C22 C 0.27782 0.90677 0.25094 0.0
C23 C 0.26467 0.91573 0.20011 0.0
C24 C 0.2362 0.94229 0.18877 0.0
C25 C 0.226 0.94821 0.13254 0.0
C26 C 0.25198 0.91998 0.11208 0.0
C27 C 0.27439 0.90098 0.15187 0.0
C28 C 0.23978 0.98604 0.12056 0.0
C29 C 0.17997 0.94123 0.11708 0.0
C30 C 0.36792 0.79411 0.15462 0.0
C31 C 0.3817 0.77444 0.11582 0.0
C32 C 0.36879 0.78349 0.06486 0.0
C33 C 0.34223 0.81189 0.05241 0.0
C34 C 0.32857 0.83158 0.09143 0.0
C35 C 0.34156 0.82272 0.14152 0.0
C36 C 0.32425 0.84702 0.17773 0.0
C37 C 0.2989 0.87189 0.14118 0.0
C38 C 0.30129 0.86252 0.09068 0.0
C39 C 0.35996 0.86649 0.21005 0.0
C40 C 0.29758 0.82456 0.20872 0.0
H41 H 0.19927 0.9714 0.02863 0.0
H42 H 0.24435 0.89733 0.89264 0.0
H43 H 0.22269 0.84104 0.97899 0.0
H44 H 0.26772 0.81798 1.00114 0.0
H45 H 0.25954 0.83395 0.9368 0.0
H46 H 0.32309 0.91147 0.97079 0.0
H47 H 0.31768 0.87063 0.93611 0.0
H48 H 0.34351 0.87272 1.00041 0.0
H49 H 0.19451 0.97874 0.21651 0.0
H50 H 0.26942 0.91538 0.32828 0.0
H51 H 0.30034 0.88689 0.26229 0.0
H52 H 0.26654 0.99447 0.14787 0.0
H53 H 0.21514 0.00565 0.12274 0.0
H54 H 0.25012 0.98788 0.08299 0.0
H55 H 0.17022 0.91786 0.13759 0.0
H56 H 0.17175 0.9349 0.07651 0.0
H57 H 0.16158 0.96427 0.12641 0.0
H58 H 0.17743 0.98619 0.94077 0.0
C59 C 0.20951 0.95464 1.00046 0.0
C60 C 0.7292 0.60803 0.74827 0.0
C61 C 0.6986 0.58259 0.74949 0.0
C62 C 0.68423 0.56383 0.70477 0.0
C63 C 0.72621 0.59977 0.65754 0.0
C64 C 0.74217 0.61643 0.7021 0.0
C65 C 0.77082 0.64579 0.69362 0.0
H66 H 0.86308 0.74422 0.53223 0.0
C67 C 0.74237 0.61785 0.61544 0.0
C68 C 0.76853 0.64477 0.63644 0.0
H69 H 0.87548 0.75252 0.69537 0.0
H70 H 0.82746 0.70473 0.69787 0.0
H71 H 0.86055 0.65749 0.52402 0.0
H72 H 0.76697 0.73725 0.51683 0.0
H73 H 0.74886 0.70389 0.47364 0.0
H74 H 0.79364 0.72852 0.4641 0.0
H75 H 0.85114 0.68934 0.47375 0.0
H76 H 0.82307 0.64864 0.47176 0.0
C77 C 0.81367 0.63561 0.72058 0.0
C78 C 0.75372 0.68094 0.71226 0.0
C79 C 0.69449 0.58066 0.43391 0.0
C80 C 0.70186 0.59358 0.38669 0.0
C81 C 0.72728 0.62317 0.38503 0.0
C82 C 0.74599 0.63908 0.43006 0.0
C83 C 0.73876 0.62545 0.47712 0.0
C84 C 0.71292 0.597 0.47832 0.0
C85 C 0.70702 0.58699 0.53132 0.0
C86 C 0.73439 0.61356 0.56202 0.0
C87 C 0.75304 0.63598 0.53019 0.0
C88 C 0.72229 0.54854 0.54122 0.0
C89 C 0.6616 0.59283 0.53664 0.0
C90 C 0.85553 0.73544 0.56844 0.0
C91 C 0.87327 0.75157 0.61381 0.0
C92 C 0.86217 0.74024 0.66013 0.0
C93 C 0.83445 0.71246 0.66138 0.0
C94 C 0.81721 0.69628 0.61571 0.0
C95 C 0.82746 0.70813 0.5702 0.0
C96 C 0.80484 0.68886 0.52535 0.0
C97 C 0.78031 0.66265 0.55158 0.0
C98 C 0.78782 0.66709 0.60442 0.0
C99 C 0.83632 0.67015 0.49676 0.0
C100 C 0.77726 0.71584 0.49284 0.0
H101 H 0.68493 0.55786 0.62571 0.0
H102 H 0.74112 0.62266 0.78211 0.0
H103 H 0.71989 0.68074 0.70687 0.0
H104 H 0.76159 0.70422 0.69066 0.0
H105 H 0.76435 0.68536 0.75322 0.0
H106 H 0.81924 0.60673 0.71706 0.0
H107 H 0.81699 0.64208 0.76164 0.0
H108 H 0.83842 0.64841 0.70378 0.0
H109 H 0.67438 0.55839 0.43622 0.0
H110 H 0.73323 0.63353 0.34893 0.0
H111 H 0.76544 0.66126 0.42652 0.0
H112 H 0.74971 0.54337 0.52269 0.0
H113 H 0.69864 0.52915 0.52586 0.0
H114 H 0.73198 0.54296 0.58181 0.0
H115 H 0.64896 0.61605 0.51403 0.0
H116 H 0.65665 0.59898 0.5758 0.0
H117 H 0.64306 0.56942 0.52294 0.0
H118 H 0.66052 0.54422 0.70465 0.0
C119 C 0.698 0.57221 0.65881 0.0
C120 C 0.79757 0.12227 0.17235 0.0
C121 C 0.82709 0.09593 0.18462 0.0
C122 C 0.84287 0.07779 0.14555 0.0
C123 C 0.79919 0.1118 0.08256 0.0
C124 C 0.78441 0.13 0.12121 0.0
C125 C 0.75424 0.15811 0.10141 0.0
H126 H 0.64894 0.24537 0.90269 0.0
C127 C 0.77893 0.12608 0.03369 0.0
C128 C 0.75291 0.15347 0.04454 0.0
H129 H 0.64961 0.26408 0.0627 0.0
H130 H 0.69727 0.21627 0.08305 0.0
H131 H 0.74671 0.23268 0.91034 0.0
H132 H 0.64684 0.16006 0.90888 0.0
H133 H 0.68086 0.1419 0.8709 0.0
H134 H 0.65624 0.18353 0.85321 0.0
H135 H 0.71133 0.22411 0.85424 0.0
H136 H 0.75564 0.19675 0.87152 0.0
C137 C 0.77193 0.19454 0.12009 0.0
C138 C 0.71295 0.14897 0.11882 0.0
C139 C 0.81372 0.07637 0.86782 0.0
C140 C 0.8037 0.08691 0.81684 0.0
C141 C 0.77317 0.11279 0.80494 0.0
C142 C 0.75495 0.12935 0.84329 0.0
C143 C 0.76765 0.12032 0.89429 0.0
C144 C 0.79599 0.0937 0.90572 0.0
C145 C 0.80745 0.08868 0.96197 0.0
C146 C 0.78152 0.11686 0.98249 0.0
C147 C 0.75818 0.13529 0.9427 0.0
C148 C 0.85357 0.09625 0.97593 0.0
C149 C 0.79458 0.05097 0.97551 0.0
C150 C 0.6598 0.23911 0.94194 0.0
C151 C 0.64608 0.25837 0.98133 0.0
C152 C 0.66027 0.24955 0.03201 0.0
C153 C 0.68781 0.22175 0.04367 0.0
C154 C 0.7014 0.20251 0.00417 0.0
C155 C 0.68752 0.21127 0.95429 0.0
C156 C 0.7057 0.1878 0.9176 0.0
C157 C 0.7325 0.16356 0.9537 0.0
C158 C 0.72984 0.17244 0.00432 0.0
C159 C 0.73102 0.21133 0.88633 0.0
C160 C 0.67079 0.1673 0.88552 0.0
H161 H 0.8418 0.07047 0.06647 0.0
H162 H 0.78515 0.13657 0.20194 0.0
H163 H 0.70747 0.11995 0.11678 0.0
H164 H 0.6867 0.16077 0.09449 0.0
H165 H 0.7123 0.15742 0.15865 0.0
H166 H 0.80576 0.19427 0.12526 0.0
H167 H 0.76246 0.20191 0.15707 0.0
H168 H 0.76334 0.216 0.09251 0.0
H169 H 0.83643 0.05614 0.87851 0.0
H170 H 0.76482 0.12168 0.76625 0.0
H171 H 0.73272 0.14946 0.83186 0.0
H172 H 0.86411 0.11588 0.94962 0.0
H173 H 0.87188 0.0718 0.97391 0.0
H174 H 0.86128 0.1083 0.01389 0.0
H175 H 0.76403 0.04447 0.95474 0.0
H176 H 0.79178 0.04789 0.01603 0.0
H177 H 0.81639 0.0309 0.96496 0.0
H178 H 0.86552 0.05724 0.15462 0.0
C179 C 0.82893 0.08543 0.09455 0.0
C180 C 0.26336 0.43542 0.32917 0.0
C181 C 0.28874 0.46528 0.32895 0.0
C182 C 0.30012 0.48347 0.37527 0.0
C183 C 0.2654 0.44005 0.42028 0.0
C184 C 0.25154 0.42385 0.3747 0.0
C185 C 0.22387 0.39324 0.38083 0.0
H186 H 0.13247 0.28776 0.53515 0.0
C187 C 0.24958 0.42008 0.46087 0.0
C188 C 0.22432 0.39321 0.43781 0.0
H189 H 0.12396 0.28172 0.37222 0.0
H190 H 0.16848 0.33255 0.37232 0.0
H191 H 0.22868 0.29909 0.55114 0.0
H192 H 0.12868 0.37213 0.54751 0.0
H193 H 0.16641 0.38555 0.5969 0.0
H194 H 0.14315 0.34264 0.59972 0.0
H195 H 0.19849 0.30226 0.60172 0.0
H196 H 0.24218 0.33002 0.59959 0.0
C197 C 0.2433 0.35921 0.36219 0.0
C198 C 0.18117 0.40217 0.35216 0.0
C199 C 0.30851 0.44075 0.64497 0.0
C200 C 0.30084 0.42523 0.6905 0.0
C201 C 0.2685 0.40124 0.6898 0.0
C202 C 0.24534 0.39139 0.64379 0.0
C203 C 0.2546 0.40581 0.59815 0.0
C204 C 0.28485 0.43094 0.59938 0.0
C205 C 0.28868 0.44507 0.54748 0.0
C206 C 0.25778 0.4223 0.51457 0.0
C207 C 0.23822 0.39919 0.54446 0.0
C208 C 0.33255 0.43809 0.5367 0.0
C209 C 0.2764 0.48471 0.54552 0.0
C210 C 0.13981 0.29785 0.49951 0.0
C211 C 0.12436 0.28149 0.45349 0.0
C212 C 0.13537 0.29437 0.40791 0.0
C213 C 0.16112 0.32379 0.4082 0.0
C214 C 0.17649 0.33993 0.45469 0.0
C215 C 0.16602 0.32665 0.49932 0.0
C216 C 0.18742 0.34527 0.54539 0.0
C217 C 0.21125 0.373 0.52105 0.0
C218 C 0.20468 0.36979 0.468 0.0
C219 C 0.21554 0.31796 0.57656 0.0
C220 C 0.15496 0.36218 0.57438 0.0
H221 H 0.29938 0.48528 0.45481 0.0
H222 H 0.25376 0.42031 0.29511 0.0
H223 H 0.17439 0.43089 0.3551 0.0
H224 H 0.15639 0.38874 0.3681 0.0
H225 H 0.17909 0.39553 0.31125 0.0
H226 H 0.27702 0.36003 0.37144 0.0
H227 H 0.23569 0.35612 0.32046 0.0
H228 H 0.23425 0.33502 0.38081 0.0
H229 H 0.33255 0.46004 0.64498 0.0
H230 H 0.26194 0.38939 0.72472 0.0
H231 H 0.22155 0.37248 0.64544 0.0
H232 H 0.34124 0.41002 0.54484 0.0
H233 H 0.35459 0.45512 0.5609 0.0
H234 H 0.33642 0.44287 0.49689 0.0
H235 H 0.25738 0.4916 0.57532 0.0
H236 H 0.25736 0.49178 0.50934 0.0
H237 H 0.30356 0.5021 0.55122 0.0
H238 H 0.31812 0.50734 0.37678 0.0
C239 C 0.2889 0.47085 0.4208 0.0
O240 O 0.01217 0.0614 0.65763 0.0
Mg241 Mg 0.0578 0.0618 0.61067 0.0
O242 O 0.96882 0.03318 0.60147 0.0
Mg243 Mg 0.01579 0.01393 0.54815 0.0
O244 O 0.04298 0.07067 0.53529 0.0
O245 O 0.07192 0.11102 0.59154 0.0
O246 O 0.06487 0.99514 0.49827 0.0
O247 O 0.97143 0.03642 0.47751 0.0
Mg248 Mg 0.98187 0.96463 0.48034 0.0
O249 O 0.98608 0.95698 0.55767 0.0
O250 O 0.03365 0.95586 0.44566 0.0
O251 O 0.93373 0.99349 0.44153 0.0
O252 O 0.96164 0.91754 0.49727 0.0
C253 C 0.09649 0.00123 0.64148 0.0
C254 C 0.97701 0.04895 0.64413 0.0
C255 C 0.05919 0.10165 0.54547 0.0
C256 C 0.06521 0.97309 0.46214 0.0
C257 C 0.94211 0.02592 0.44475 0.0
C258 C 0.97004 0.92625 0.54434 0.0
O259 O 0.10936 0.03164 0.63312 0.0
O260 O 0.06139 0.99196 0.61934 0.0
O261 O 0.55098 0.48737 0.15698 0.0
Mg262 Mg 0.50825 0.45598 0.10985 0.0
O263 O 0.54517 0.5321 0.10302 0.0
Mg264 Mg 0.49524 0.51434 0.03769 0.0
O265 O 0.51885 0.45551 0.0361 0.0
O266 O 0.52833 0.40879 0.08863 0.0
O267 O 0.44428 0.49608 0.97249 0.0
O268 O 0.54225 0.52357 0.98062 0.0
Mg269 Mg 0.46593 0.57558 0.96087 0.0
O270 O 0.47368 0.57222 0.03772 0.0
O271 O 0.41804 0.54277 0.92905 0.0
O272 O 0.52214 0.57097 0.93464 0.0
O273 O 0.45285 0.62141 0.99549 0.0
C274 C 0.43214 0.4849 0.11997 0.0
C275 C 0.56111 0.51818 0.14476 0.0
C276 C 0.53005 0.42277 0.04486 0.0
C277 C 0.41802 0.50998 0.9385 0.0
C278 C 0.54774 0.54652 0.94709 0.0
C279 C 0.46154 0.60482 0.03792 0.0
O280 O 0.44797 0.45456 0.12413 0.0
O281 O 0.44798 0.50885 0.09554 0.0
H282 H 0.14128 0.21433 0.42765 0.0
H283 H 0.05037 0.27876 0.48408 0.0
H284 H 0.01525 0.22579 0.50726 0.0
H285 H 0.01931 0.16271 0.52796 0.0
H286 H 0.11249 0.09806 0.47739 0.0
H287 H 0.13766 0.14912 0.43452 0.0
C288 C 0.11301 0.21651 0.44341 0.0
C289 C 0.09834 0.25009 0.45461 0.0
C290 C 0.09385 0.18592 0.45824 0.0
C291 C 0.06205 0.25299 0.47549 0.0
C292 C 0.04216 0.22278 0.48891 0.0
C293 C 0.04399 0.15965 0.50561 0.0
C294 C 0.06404 0.12704 0.50535 0.0
C295 C 0.05897 0.18928 0.48285 0.0
C296 C 0.09637 0.12303 0.47723 0.0
C297 C 0.11104 0.1523 0.45338 0.0
H298 H 0.36265 0.7078 0.13995 0.0
H299 H 0.46251 0.77419 0.11335 0.0
H300 H 0.50432 0.72205 0.10341 0.0
H301 H 0.50437 0.65983 0.07849 0.0
H302 H 0.40222 0.59375 0.09615 0.0
H303 H 0.36993 0.64272 0.1357 0.0
C304 C 0.39415 0.71059 0.13417 0.0
C305 C 0.40971 0.7444 0.12692 0.0
C306 C 0.41734 0.68043 0.12647 0.0
C307 C 0.45024 0.7482 0.11892 0.0
C308 C 0.47397 0.71843 0.11297 0.0
C309 C 0.47616 0.65574 0.09381 0.0
C310 C 0.45533 0.62372 0.08417 0.0
C311 C 0.45686 0.68459 0.11334 0.0
C312 C 0.41875 0.61832 0.10355 0.0
C313 C 0.39994 0.64656 0.12517 0.0
H314 H 0.87019 0.81887 0.64971 0.0
H315 H 0.94312 0.74779 0.57326 0.0
H316 H 0.98725 0.79659 0.55644 0.0
H317 H 0.99689 0.86009 0.54955 0.0
H318 H 0.92088 0.93277 0.61808 0.0
H319 H 0.88692 0.88297 0.65371 0.0
C320 C 0.89638 0.81414 0.6305 0.0
C321 C 0.9033 0.78008 0.61204 0.0
C322 C 0.92089 0.84262 0.61959 0.0
C323 C 0.93709 0.77398 0.58708 0.0
C324 C 0.96229 0.80181 0.57756 0.0
C325 C 0.97395 0.86494 0.57401 0.0
C326 C 0.96123 0.89972 0.58137 0.0
C327 C 0.9534 0.83636 0.59171 0.0
C328 C 0.93139 0.90608 0.61261 0.0
C329 C 0.91157 0.87759 0.63215 0.0
H330 H 0.65879 0.32824 0.96727 0.0
H331 H 0.56513 0.25098 0.97634 0.0
H332 H 0.51596 0.29806 0.98497 0.0
H333 H 0.5045 0.35951 0.00861 0.0
H334 H 0.59813 0.4372 0.0029 0.0
H335 H 0.64226 0.39213 0.97272 0.0
C336 C 0.6272 0.32201 0.96918 0.0
C337 C 0.61526 0.28648 0.97126 0.0
C338 C 0.59936 0.34928 0.97523 0.0
C339 C 0.5746 0.2783 0.97442 0.0
C340 C 0.54665 0.30516 0.9797 0.0
C341 C 0.53387 0.36678 0.99845 0.0
C342 C 0.54829 0.40133 0.00792 0.0
C343 C 0.55927 0.34056 0.98273 0.0
C344 C 0.5864 0.41072 0.99527 0.0
C345 C 0.61182 0.38482 0.97881 0.0
H346 H 0.19979 0.90922 0.34788 0.0
H347 H 0.20378 0.01664 0.29485 0.0
H348 H 0.15689 0.03503 0.35327 0.0
H349 H 0.10924 0.01889 0.41332 0.0
H350 H 0.10254 0.91027 0.45999 0.0
H351 H 0.15685 0.89406 0.41137 0.0
C352 C 0.19127 0.93684 0.34998 0.0
C353 C 0.20529 0.96154 0.31721 0.0
C354 C 0.16372 0.94693 0.38259 0.0
C355 C 0.19315 0.99709 0.31954 0.0
C356 C 0.1664 0.0076 0.35295 0.0
C357 C 0.12055 0.99193 0.41361 0.0
C358 C 0.10245 0.96574 0.44022 0.0
C359 C 0.1507 0.98256 0.3838 0.0
C360 C 0.11642 0.93073 0.4398 0.0
C361 C 0.14724 0.92147 0.41186 0.0
H362 H 0.67418 0.5229 0.79566 0.0
H363 H 0.67396 0.63703 0.80356 0.0
H364 H 0.6318 0.6352 0.87073 0.0
H365 H 0.58887 0.60218 0.92018 0.0
H366 H 0.58627 0.48834 0.91368 0.0
H367 H 0.63622 0.48889 0.85379 0.0
C368 C 0.66523 0.54725 0.81264 0.0
C369 C 0.67728 0.58004 0.79462 0.0
C370 C 0.64043 0.54609 0.85132 0.0
C371 C 0.66571 0.61143 0.81714 0.0
C372 C 0.64129 0.61047 0.85535 0.0
C373 C 0.59978 0.57743 0.90628 0.0
C374 C 0.58371 0.54533 0.92055 0.0
C375 C 0.62771 0.57808 0.87176 0.0
C376 C 0.59836 0.51339 0.90307 0.0
C377 C 0.62657 0.51376 0.86854 0.0
H378 H 0.89855 0.1113 0.24296 0.0
H379 H 0.78439 0.05798 0.24451 0.0
H380 H 0.80822 0.03466 0.32931 0.0
H381 H 0.86435 0.02426 0.39839 0.0
H382 H 0.97783 0.07931 0.39892 0.0
H383 H 0.95141 0.1078 0.31846 0.0
C384 C 0.87888 0.095 0.26245 0.0
C385 C 0.84007 0.08589 0.23787 0.0
C386 C 0.89268 0.08208 0.31135 0.0
C387 C 0.81445 0.06504 0.26306 0.0
C388 C 0.82808 0.05173 0.31134 0.0
C389 C 0.88285 0.04321 0.38145 0.0
C390 C 0.92294 0.0496 0.40424 0.0
C391 C 0.86749 0.05936 0.33528 0.0
C392 C 0.94671 0.07424 0.38222 0.0
C393 C 0.93178 0.09022 0.33594 0.0
H394 H 0.2786 0.45359 0.776 0.0
H395 H 0.38221 0.4156 0.71109 0.0
H396 H 0.42756 0.43293 0.78767 0.0
H397 H 0.4383 0.46456 0.86908 0.0
H398 H 0.33581 0.50886 0.9296 0.0
H399 H 0.28916 0.48286 0.85973 0.0
C400 C 0.31106 0.44875 0.77919 0.0
C401 C 0.32729 0.43354 0.73832 0.0
C402 C 0.33698 0.4598 0.82265 0.0
C403 C 0.36932 0.42757 0.74222 0.0
C404 C 0.39515 0.43737 0.78593 0.0
C405 C 0.40565 0.46745 0.86758 0.0
C406 C 0.39015 0.48777 0.90453 0.0
C407 C 0.37943 0.45417 0.82592 0.0
C408 C 0.34804 0.49263 0.90176 0.0
C409 C 0.32152 0.47812 0.86164 0.0
H410 H 0.65727 0.62292 0.30309 0.0
H411 H 0.70447 0.52365 0.36597 0.0
H412 H 0.66758 0.49184 0.29405 0.0
H413 H 0.61768 0.49167 0.2176 0.0
H414 H 0.56875 0.59018 0.15396 0.0
H415 H 0.61075 0.62296 0.2215 0.0
C416 C 0.65989 0.5944 0.30041 0.0
C417 C 0.68315 0.57553 0.33984 0.0
C418 C 0.63808 0.57618 0.25915 0.0
C419 C 0.68627 0.53859 0.33629 0.0
C420 C 0.66524 0.52042 0.29524 0.0
C421 C 0.61647 0.52035 0.21821 0.0
C422 C 0.58997 0.53846 0.18116 0.0
C423 C 0.64033 0.53885 0.25716 0.0
C424 C 0.58907 0.57563 0.18203 0.0
C425 C 0.6129 0.59436 0.22079 0.0
H426 H 0.88472 0.07502 0.83006 0.0
H427 H 0.77934 0.07197 0.71514 0.0
H428 H 0.82293 0.05787 0.65079 0.0
H429 H 0.8926 0.0498 0.62674 0.0
H430 H 0.99576 0.05318 0.74529 0.0
H431 H 0.95123 0.06259 0.80844 0.0
C432 C 0.87083 0.07033 0.79129 0.0
C433 C 0.82866 0.07446 0.7778 0.0
C434 C 0.89589 0.06236 0.75478 0.0
C435 C 0.81178 0.06932 0.72674 0.0
C436 C 0.83671 0.06113 0.68988 0.0
C437 C 0.9051 0.05225 0.66644 0.0
C438 C 0.94758 0.05137 0.68098 0.0
C439 C 0.87905 0.05816 0.70331 0.0
C440 C 0.96332 0.05445 0.7327 0.0
C441 C 0.93787 0.05975 0.76909 0.0
H442 H 0.36109 0.4984 0.32108 0.0
H443 H 0.2545 0.45593 0.22874 0.0
H444 H 0.28819 0.46088 0.15387 0.0
H445 H 0.35162 0.4702 0.1165 0.0
H446 H 0.45415 0.51895 0.20743 0.0
H447 H 0.41744 0.52004 0.28065 0.0
C448 C 0.34424 0.49127 0.28468 0.0
C449 C 0.30559 0.47544 0.2817 0.0
C450 C 0.36312 0.49544 0.24117 0.0
C451 C 0.28502 0.46648 0.23333 0.0
C452 C 0.30408 0.4697 0.19005 0.0
C453 C 0.36515 0.48218 0.15192 0.0
C454 C 0.40527 0.49457 0.15694 0.0
C455 C 0.34371 0.48296 0.19382 0.0
C456 C 0.42299 0.5097 0.20289 0.0
C457 C 0.4022 0.50997 0.24482 0.0
H458 H 0.15422 0.91123 0.83821 0.0
H459 H 0.23652 0.99929 0.86521 0.0
H460 H 0.21264 0.0225 0.7806 0.0
H461 H 0.16448 0.02075 0.70317 0.0
H462 H 0.07723 0.93595 0.6772 0.0
H463 H 0.10748 0.90788 0.75664 0.0
C464 C 0.16718 0.93516 0.82491 0.0
C465 C 0.19702 0.95367 0.85733 0.0
C466 C 0.1524 0.94886 0.77667 0.0
C467 C 0.21354 0.9848 0.84051 0.0
C468 C 0.19987 0.99802 0.79231 0.0
C469 C 0.15229 0.99582 0.71426 0.0
C470 C 0.1184 0.98061 0.68428 0.0
C471 C 0.16874 0.9807 0.76059 0.0
C472 C 0.10323 0.94828 0.69953 0.0
C473 C 0.12037 0.93235 0.74512 0.0
loop_
_geom_bond_atom_site_label_1
_geom_bond_atom_site_label_2
_geom_bond_distance
_geom_bond_site_symmetry_2
_ccdc_geom_bond_type
C0 C1 1.391 . S
C0 C4 1.391 . S
C0 H42 0.948 . S
C1 C0 1.391 . S
C1 C2 1.391 . S
C2 C1 1.391 . S
C2 H58 0.947 . S
C2 C59 1.392 . S
C3 C4 1.394 . S
C3 C7 1.395 1_556 S
C3 C59 1.419 . S
C4 C0 1.391 . S
C4 C3 1.394 . S
C4 C5 1.399 . S
C5 C4 1.399 . S
C5 C8 1.396 1_556 S
C5 C17 1.453 . S
C5 C18 1.684 . S
H6 C30 0.948 . S
C7 C3 1.395 1_554 S
C7 C8 1.394 . S
C7 C26 1.723 . S
C8 C5 1.396 1_554 S
C8 C7 1.394 . S
C8 C38 1.723 . S
H9 C32 0.947 . S
H10 C33 0.948 1_556 S
H11 C39 0.982 . S
H12 C40 0.979 . S
H13 C40 0.980 . S
H14 C40 0.983 . S
H15 C39 0.979 . S
H16 C39 0.977 . S
C17 C5 1.453 . S
C17 H46 0.982 . S
C17 H47 0.979 . S
C17 H48 0.977 . S
C18 C5 1.684 . S
C18 H43 0.979 . S
C18 H44 0.980 . S
C18 H45 0.983 . S
C19 C20 1.391 . S
C19 C24 1.391 . S
C19 H49 0.948 . S
C20 C19 1.391 . S
C20 C21 1.391 . S
C21 C20 1.391 . S
C21 C22 1.392 . S
C21 H50 0.947 . S
C22 C21 1.392 . S
C22 C23 1.419 . S
C22 H51 0.948 . S
C23 C22 1.419 . S
C23 C24 1.391 . S
C23 C27 1.397 . S
C24 C19 1.391 . S
C24 C23 1.391 . S
C24 C25 1.399 . S
C25 C24 1.399 . S
C25 C26 1.396 . S
C25 C28 1.453 . S
C25 C29 1.684 . S
C26 C7 1.723 . S
C26 C25 1.396 . S
C26 C27 1.394 . S
C27 C23 1.397 . S
C27 C26 1.394 . S
C27 C37 1.723 . S
C28 C25 1.453 . S
C28 H52 0.982 . S
C28 H53 0.979 . S
C28 H54 0.977 . S
C29 C25 1.684 . S
C29 H55 0.979 . S
C29 H56 0.980 . S
C29 H57 0.983 . S
C30 H6 0.948 . S
C30 C31 1.391 . S
C30 C35 1.391 . S
C31 C30 1.391 . S
C31 C32 1.391 . S
C32 H9 0.947 . S
C32 C31 1.391 . S
C32 C33 1.392 . S
C33 H10 0.948 1_554 S
C33 C32 1.392 . S
C33 C34 1.419 . S
C34 C33 1.419 . S
C34 C35 1.391 . S
C34 C38 1.397 . S
C35 C30 1.391 . S
C35 C34 1.391 . S
C35 C36 1.399 . S
C36 C35 1.399 . S
C36 C37 1.396 . S
C36 C39 1.453 . S
C36 C40 1.684 . S
C37 C27 1.723 . S
C37 C36 1.396 . S
C37 C38 1.394 . S
C38 C8 1.723 . S
C38 C34 1.397 . S
C38 C37 1.394 . S
C39 H11 0.982 . S
C39 H15 0.979 . S
C39 H16 0.977 . S
C39 C36 1.453 . S
C40 H12 0.979 . S
C40 H13 0.980 . S
C40 H14 0.983 . S
C40 C36 1.684 . S
H41 C59 0.948 1_554 S
H42 C0 0.948 . S
H43 C18 0.979 . S
H44 C18 0.980 . S
H45 C18 0.983 . S
H46 C17 0.982 . S
H47 C17 0.979 . S
H48 C17 0.977 . S
H49 C19 0.948 . S
H50 C21 0.947 . S
H51 C22 0.948 . S
H52 C28 0.982 . S
H53 C28 0.979 . S
H54 C28 0.977 . S
H55 C29 0.979 . S
H56 C29 0.980 . S
H57 C29 0.983 . S
H58 C2 0.947 . S
C59 C2 1.392 . S
C59 C3 1.419 . S
C59 H41 0.948 1_556 S
C60 C61 1.391 . S
C60 C64 1.391 . S
C60 H102 0.948 . S
C61 C60 1.391 . S
C61 C62 1.391 . S
C62 C61 1.391 . S
C62 H118 0.947 . S
C62 C119 1.392 . S
C63 C64 1.391 . S
C63 C67 1.397 . S
C63 C119 1.419 . S
C64 C60 1.391 . S
C64 C63 1.391 . S
C64 C65 1.399 . S
C65 C64 1.399 . S
C65 C68 1.396 . S
C65 C77 1.453 . S
C65 C78 1.684 . S
H66 C90 0.948 . S
C67 C63 1.397 . S
C67 C68 1.394 . S
C67 C86 1.723 . S
C68 C65 1.396 . S
C68 C67 1.394 . S
C68 C98 1.723 . S
H69 C92 0.947 . S
H70 C93 0.948 . S
H71 C99 0.982 . S
H72 C100 0.979 . S
H73 C100 0.980 . S
H74 C100 0.983 . S
H75 C99 0.979 . S
H76 C99 0.977 . S
C77 C65 1.453 . S
C77 H106 0.982 . S
C77 H107 0.979 . S
C77 H108 0.977 . S
C78 C65 1.684 . S
C78 H103 0.979 . S
C78 H104 0.980 . S
C78 H105 0.983 . S
C79 C80 1.391 . S
C79 C84 1.391 . S
C79 H109 0.948 . S
C80 C79 1.391 . S
C80 C81 1.391 . S
C81 C80 1.391 . S
C81 C82 1.392 . S
C81 H110 0.947 . S
C82 C81 1.392 . S
C82 C83 1.419 . S
C82 H111 0.948 . S
C83 C82 1.419 . S
C83 C84 1.391 . S
C83 C87 1.397 . S
C84 C79 1.391 . S
C84 C83 1.391 . S
C84 C85 1.399 . S
C85 C84 1.399 . S
C85 C86 1.396 . S
C85 C88 1.453 . S
C85 C89 1.684 . S
C86 C67 1.723 . S
C86 C85 1.396 . S
C86 C87 1.394 . S
C87 C83 1.397 . S
C87 C86 1.394 . S
C87 C97 1.723 . S
C88 C85 1.453 . S
C88 H112 0.982 . S
C88 H113 0.979 . S
C88 H114 0.977 . S
C89 C85 1.684 . S
C89 H115 0.979 . S
C89 H116 0.980 . S
C89 H117 0.983 . S
C90 H66 0.948 . S
C90 C91 1.391 . S
C90 C95 1.391 . S
C91 C90 1.391 . S
C91 C92 1.391 . S
C92 H69 0.947 . S
C92 C91 1.391 . S
C92 C93 1.392 . S
C93 H70 0.948 . S
C93 C92 1.392 . S
C93 C94 1.419 . S
C94 C93 1.419 . S
C94 C95 1.391 . S
C94 C98 1.397 . S
C95 C90 1.391 . S
C95 C94 1.391 . S
C95 C96 1.399 . S
C96 C95 1.399 . S
C96 C97 1.396 . S
C96 C99 1.453 . S
C96 C100 1.684 . S
C97 C87 1.723 . S
C97 C96 1.396 . S
C97 C98 1.394 . S
C98 C68 1.723 . S
C98 C94 1.397 . S
C98 C97 1.394 . S
C99 H71 0.982 . S
C99 H75 0.979 . S
C99 H76 0.977 . S
C99 C96 1.453 . S
C100 H72 0.979 . S
C100 H73 0.980 . S
C100 H74 0.983 . S
C100 C96 1.684 . S
H101 C119 0.948 . S
H102 C60 0.948 . S
H103 C78 0.979 . S
H104 C78 0.980 . S
H105 C78 0.983 . S
H106 C77 0.982 . S
H107 C77 0.979 . S
H108 C77 0.977 . S
H109 C79 0.948 . S
H110 C81 0.947 . S
H111 C82 0.948 . S
H112 C88 0.982 . S
H113 C88 0.979 . S
H114 C88 0.977 . S
H115 C89 0.979 . S
H116 C89 0.980 . S
H117 C89 0.983 . S
H118 C62 0.947 . S
C119 C62 1.392 . S
C119 C63 1.419 . S
C119 H101 0.948 . S
C120 C121 1.391 . S
C120 C124 1.391 . S
C120 H162 0.948 . S
C121 C120 1.391 . S
C121 C122 1.391 . S
C122 C121 1.391 . S
C122 H178 0.947 . S
C122 C179 1.392 . S
C123 C124 1.391 . S
C123 C127 1.397 . S
C123 C179 1.419 . S
C124 C120 1.391 . S
C124 C123 1.391 . S
C124 C125 1.399 . S
C125 C124 1.399 . S
C125 C128 1.396 . S
C125 C137 1.453 . S
C125 C138 1.684 . S
H126 C150 0.948 . S
C127 C123 1.397 . S
C127 C128 1.394 . S
C127 C146 1.723 1_554 S
C128 C125 1.396 . S
C128 C127 1.394 . S
C128 C158 1.723 . S
H129 C152 0.947 . S
H130 C153 0.948 . S
H131 C159 0.982 . S
H132 C160 0.979 . S
H133 C160 0.980 . S
H134 C160 0.983 . S
H135 C159 0.979 . S
H136 C159 0.977 . S
C137 C125 1.453 . S
C137 H166 0.982 . S
C137 H167 0.979 . S
C137 H168 0.977 . S
C138 C125 1.684 . S
C138 H163 0.979 . S
C138 H164 0.980 . S
C138 H165 0.983 . S
C139 C140 1.391 . S
C139 C144 1.391 . S
C139 H169 0.948 . S
C140 C139 1.391 . S
C140 C141 1.391 . S
C141 C140 1.391 . S
C141 C142 1.392 . S
C141 H170 0.947 . S
C142 C141 1.392 . S
C142 C143 1.419 . S
C142 H171 0.948 . S
C143 C142 1.419 . S
C143 C144 1.391 . S
C143 C147 1.397 . S
C144 C139 1.391 . S
C144 C143 1.391 . S
C144 C145 1.399 . S
C145 C144 1.399 . S
C145 C146 1.396 . S
C145 C148 1.453 . S
C145 C149 1.684 . S
C146 C127 1.723 1_556 S
C146 C145 1.396 . S
C146 C147 1.394 . S
C147 C143 1.397 . S
C147 C146 1.394 . S
C147 C157 1.723 . S
C148 C145 1.453 . S
C148 H172 0.982 . S
C148 H173 0.979 . S
C148 H174 0.977 1_556 S
C149 C145 1.684 . S
C149 H175 0.979 . S
C149 H176 0.980 1_556 S
C149 H177 0.983 . S
C150 H126 0.948 . S
C150 C151 1.380 1_556 S
C150 C155 1.391 . S
C151 C150 1.380 1_554 S
C151 C152 1.402 . S
C152 H129 0.947 . S
C152 C151 1.402 . S
C152 C153 1.392 . S
C153 H130 0.948 . S
C153 C152 1.392 . S
C153 C154 1.419 . S
C154 C153 1.419 . S
C154 C155 1.391 1_554 S
C154 C158 1.397 . S
C155 C150 1.391 . S
C155 C154 1.391 1_556 S
C155 C156 1.399 . S
C156 C155 1.399 . S
C156 C157 1.396 . S
C156 C159 1.453 . S
C156 C160 1.684 . S
C157 C147 1.723 . S
C157 C156 1.396 . S
C157 C158 1.394 1_556 S
C158 C128 1.723 . S
C158 C154 1.397 . S
C158 C157 1.394 1_554 S
C159 H131 0.982 . S
C159 H135 0.979 . S
C159 H136 0.977 . S
C159 C156 1.453 . S
C160 H132 0.979 . S
C160 H133 0.980 . S
C160 H134 0.983 . S
C160 C156 1.684 . S
H161 C179 0.948 . S
H162 C120 0.948 . S
H163 C138 0.979 . S
H164 C138 0.980 . S
H165 C138 0.983 . S
H166 C137 0.982 . S
H167 C137 0.979 . S
H168 C137 0.977 . S
H169 C139 0.948 . S
H170 C141 0.947 . S
H171 C142 0.948 . S
H172 C148 0.982 . S
H173 C148 0.979 . S
H174 C148 0.977 1_554 S
H175 C149 0.979 . S
H176 C149 0.980 1_554 S
H177 C149 0.983 . S
H178 C122 0.947 . S
C179 C122 1.392 . S
C179 C123 1.419 . S
C179 H161 0.948 . S
C180 C181 1.391 . S
C180 C184 1.391 . S
C180 H222 0.948 . S
C181 C180 1.391 . S
C181 C182 1.391 . S
C182 C181 1.391 . S
C182 H238 0.947 . S
C182 C239 1.392 . S
C183 C184 1.391 . S
C183 C187 1.397 . S
C183 C239 1.419 . S
C184 C180 1.391 . S
C184 C183 1.391 . S
C184 C185 1.399 . S
C185 C184 1.399 . S
C185 C188 1.396 . S
C185 C197 1.453 . S
C185 C198 1.684 . S
H186 C210 0.948 . S
C187 C183 1.397 . S
C187 C188 1.394 . S
C187 C206 1.723 . S
C188 C185 1.396 . S
C188 C187 1.394 . S
C188 C218 1.723 . S
H189 C212 0.947 . S
H190 C213 0.948 . S
H191 C219 0.982 . S
H192 C220 0.979 . S
H193 C220 0.980 . S
H194 C220 0.983 . S
H195 C219 0.979 . S
H196 C219 0.977 . S
C197 C185 1.453 . S
C197 H226 0.982 . S
C197 H227 0.979 . S
C197 H228 0.977 . S
C198 C185 1.684 . S
C198 H223 0.979 . S
C198 H224 0.980 . S
C198 H225 0.983 . S
C199 C200 1.391 . S
C199 C204 1.391 . S
C199 H229 0.948 . S
C200 C199 1.391 . S
C200 C201 1.391 . S
C201 C200 1.391 . S
C201 C202 1.392 . S
C201 H230 0.947 . S
C202 C201 1.392 . S
C202 C203 1.419 . S
C202 H231 0.948 . S
C203 C202 1.419 . S
C203 C204 1.391 . S
C203 C207 1.397 . S
C204 C199 1.391 . S
C204 C203 1.391 . S
C204 C205 1.399 . S
C205 C204 1.399 . S
C205 C206 1.396 . S
C205 C208 1.453 . S
C205 C209 1.684 . S
C206 C187 1.723 . S
C206 C205 1.396 . S
C206 C207 1.394 . S
C207 C203 1.397 . S
C207 C206 1.394 . S
C207 C217 1.723 . S
C208 C205 1.453 . S
C208 H232 0.982 . S
C208 H233 0.979 . S
C208 H234 0.977 . S
C209 C205 1.684 . S
C209 H235 0.979 . S
C209 H236 0.980 . S
C209 H237 0.983 . S
C210 H186 0.948 . S
C210 C211 1.391 . S
C210 C215 1.391 . S
C211 C210 1.391 . S
C211 C212 1.391 . S
C212 H189 0.947 . S
C212 C211 1.391 . S
C212 C213 1.392 . S
C213 H190 0.948 . S
C213 C212 1.392 . S
C213 C214 1.419 . S
C214 C213 1.419 . S
C214 C215 1.391 . S
C214 C218 1.397 . S
C215 C210 1.391 . S
C215 C214 1.391 . S
C215 C216 1.399 . S
C216 C215 1.399 . S
C216 C217 1.396 . S
C216 C219 1.453 . S
C216 C220 1.684 . S
C217 C207 1.723 . S
C217 C216 1.396 . S
C217 C218 1.394 . S
C218 C188 1.723 . S
C218 C214 1.397 . S
C218 C217 1.394 . S
C219 H191 0.982 . S
C219 H195 0.979 . S
C219 H196 0.977 . S
C219 C216 1.453 . S
C220 H192 0.979 . S
C220 H193 0.980 . S
C220 H194 0.983 . S
C220 C216 1.684 . S
H221 C239 0.948 . S
H222 C180 0.948 . S
H223 C198 0.979 . S
H224 C198 0.980 . S
H225 C198 0.983 . S
H226 C197 0.982 . S
H227 C197 0.979 . S
H228 C197 0.977 . S
H229 C199 0.948 . S
H230 C201 0.947 . S
H231 C202 0.948 . S
H232 C208 0.982 . S
H233 C208 0.979 . S
H234 C208 0.977 . S
H235 C209 0.979 . S
H236 C209 0.980 . S
H237 C209 0.983 . S
H238 C182 0.947 . S
C239 C182 1.392 . S
C239 C183 1.419 . S
C239 H221 0.948 . S
O240 Mg241 1.990 1_655 S
O240 C254 1.253 . S
Mg241 O240 1.990 1_455 S
Mg241 O244 2.180 . S
Mg241 O245 2.117 . S
Mg241 O259 2.030 . S
O242 Mg243 2.072 1_655 S
O242 C254 1.260 . S
Mg243 O242 2.072 1_455 S
Mg243 O244 2.099 . S
Mg243 O246 2.079 1_545 S
Mg243 O247 2.072 1_455 S
Mg243 O249 2.099 1_445 S
Mg243 O260 2.079 1_545 S
O244 Mg241 2.180 . S
O244 Mg243 2.099 . S
O244 C255 1.279 . S
O245 Mg241 2.117 . S
O245 C255 1.250 . S
O246 Mg243 2.079 1_565 S
O246 C256 1.264 . S
O247 Mg243 2.072 1_655 S
O247 C257 1.260 . S
Mg248 O249 2.180 . S
Mg248 O250 2.030 1_655 S
Mg248 O251 1.968 1_565 S
Mg248 O252 2.117 . S
O249 Mg243 2.099 1_665 S
O249 Mg248 2.180 . S
O249 C258 1.279 . S
O250 Mg248 2.030 1_455 S
O250 C256 1.248 . S
O251 Mg248 1.968 1_545 S
O251 C257 1.275 . S
O252 Mg248 2.117 . S
O252 C258 1.250 . S
C253 O259 1.248 1_565 S
C253 O260 1.264 . S
C254 O240 1.253 . S
C254 O242 1.260 . S
C255 O244 1.279 . S
C255 O245 1.250 . S
C256 O246 1.264 . S
C256 O250 1.248 . S
C257 O247 1.260 . S
C257 O251 1.275 . S
C258 O249 1.279 . S
C258 O252 1.250 . S
O259 Mg241 2.030 . S
O259 C253 1.248 1_545 S
O260 Mg243 2.079 1_565 S
O260 C253 1.264 . S
O261 Mg262 1.990 . S
O261 C275 1.253 . S
Mg262 O261 1.990 . S
Mg262 O265 2.180 . S
Mg262 O266 2.117 . S
Mg262 O280 2.030 . S
O263 Mg264 2.072 . S
O263 C275 1.260 . S
Mg264 O263 2.072 . S
Mg264 O265 2.099 . S
Mg264 O267 2.079 1_554 S
Mg264 O268 2.072 1_554 S
Mg264 O270 2.099 . S
Mg264 O281 2.079 . S
O265 Mg262 2.180 . S
O265 Mg264 2.099 . S
O265 C276 1.279 . S
O266 Mg262 2.117 . S
O266 C276 1.250 . S
O267 Mg264 2.079 1_556 S
O267 C277 1.264 . S
O268 Mg264 2.072 1_556 S
O268 C278 1.260 . S
Mg269 O270 2.180 1_556 S
Mg269 O271 2.030 . S
Mg269 O272 1.990 . S
Mg269 O273 2.117 . S
O270 Mg264 2.099 . S
O270 Mg269 2.180 1_554 S
O270 C279 1.279 . S
O271 Mg269 2.030 . S
O271 C277 1.248 . S
O272 Mg269 1.990 . S
O272 C278 1.253 . S
O273 Mg269 2.117 . S
O273 C279 1.250 1_556 S
C274 O280 1.248 . S
C274 O281 1.264 . S
C275 O261 1.253 . S
C275 O263 1.260 . S
C276 O265 1.279 . S
C276 O266 1.250 . S
C277 O267 1.264 . S
C277 O271 1.248 . S
C278 O268 1.260 . S
C278 O272 1.253 . S
C279 O270 1.279 . S
C279 O273 1.250 1_554 S
O280 Mg262 2.030 . S
O280 C274 1.248 . S
O281 Mg264 2.079 . S
O281 C274 1.264 . S
H282 C288 0.930 . S
H283 C291 0.930 . S
H284 C292 0.930 . S
H285 C293 0.930 . S
H286 C296 0.930 . S
H287 C297 0.930 . S
C288 H282 0.930 . S
C288 C289 1.355 . S
C288 C290 1.415 . S
C289 C288 1.355 . S
C289 C291 1.419 . S
C290 C288 1.415 . S
C290 C295 1.425 . S
C290 C297 1.409 . S
C291 H283 0.930 . S
C291 C289 1.419 . S
C291 C292 1.362 . S
C292 H284 0.930 . S
C292 C291 1.362 . S
C292 C295 1.409 . S
C293 H285 0.930 . S
C293 C294 1.355 . S
C293 C295 1.415 . S
C294 C293 1.355 . S
C294 C296 1.419 . S
C295 C290 1.425 . S
C295 C292 1.409 . S
C295 C293 1.415 . S
C296 H286 0.930 . S
C296 C294 1.419 . S
C296 C297 1.362 . S
C297 H287 0.930 . S
C297 C290 1.409 . S
C297 C296 1.362 . S
H298 C304 0.930 . S
H299 C307 0.930 . S
H300 C308 0.930 . S
H301 C309 0.930 . S
H302 C312 0.930 . S
H303 C313 0.930 . S
C304 H298 0.930 . S
C304 C305 1.355 . S
C304 C306 1.415 . S
C305 C304 1.355 . S
C305 C307 1.419 . S
C306 C304 1.415 . S
C306 C311 1.425 . S
C306 C313 1.409 . S
C307 H299 0.930 . S
C307 C305 1.419 . S
C307 C308 1.362 . S
C308 H300 0.930 . S
C308 C307 1.362 . S
C308 C311 1.409 . S
C309 H301 0.930 . S
C309 C310 1.355 . S
C309 C311 1.415 . S
C310 C309 1.355 . S
C310 C312 1.419 . S
C311 C306 1.425 . S
C311 C308 1.409 . S
C311 C309 1.415 . S
C312 H302 0.930 . S
C312 C310 1.419 . S
C312 C313 1.362 . S
C313 H303 0.930 . S
C313 C306 1.409 . S
C313 C312 1.362 . S
H314 C320 0.930 . S
H315 C323 0.930 . S
H316 C324 0.930 . S
H317 C325 0.930 . S
H318 C328 0.930 . S
H319 C329 0.930 . S
C320 H314 0.930 . S
C320 C321 1.355 . S
C320 C322 1.415 . S
C321 C320 1.355 . S
C321 C323 1.419 . S
C322 C320 1.415 . S
C322 C327 1.425 . S
C322 C329 1.409 . S
C323 H315 0.930 . S
C323 C321 1.419 . S
C323 C324 1.362 . S
C324 H316 0.930 . S
C324 C323 1.362 . S
C324 C327 1.409 . S
C325 H317 0.930 . S
C325 C326 1.355 . S
C325 C327 1.415 . S
C326 C325 1.355 . S
C326 C328 1.419 . S
C327 C322 1.425 . S
C327 C324 1.409 . S
C327 C325 1.415 . S
C328 H318 0.930 . S
C328 C326 1.419 . S
C328 C329 1.362 . S
C329 H319 0.930 . S
C329 C322 1.409 . S
C329 C328 1.362 . S
H330 C336 0.930 . S
H331 C339 0.930 . S
H332 C340 0.930 . S
H333 C341 0.930 . S
H334 C344 0.930 . S
H335 C345 0.930 . S
C336 H330 0.930 . S
C336 C337 1.355 1_554 S
C336 C338 1.415 . S
C337 C336 1.355 1_556 S
C337 C339 1.419 . S
C338 C336 1.415 . S
C338 C343 1.425 . S
C338 C345 1.409 . S
C339 H331 0.930 . S
C339 C337 1.419 . S
C339 C340 1.362 1_556 S
C340 H332 0.930 . S
C340 C339 1.362 1_554 S
C340 C343 1.409 . S
C341 H333 0.930 . S
C341 C342 1.355 . S
C341 C343 1.415 . S
C342 C341 1.355 . S
C342 C344 1.419 . S
C343 C338 1.425 . S
C343 C340 1.409 . S
C343 C341 1.415 . S
C344 H334 0.930 . S
C344 C342 1.419 . S
C344 C345 1.362 . S
C345 H335 0.930 . S
C345 C338 1.409 . S
C345 C344 1.362 . S
H346 C352 0.930 . S
H347 C355 0.930 1_545 S
H348 C356 0.930 . S
H349 C357 0.930 1_545 S
H350 C360 0.930 . S
H351 C361 0.930 . S
C352 H346 0.930 . S
C352 C353 1.355 . S
C352 C354 1.415 . S
C353 C352 1.355 . S
C353 C355 1.419 . S
C354 C352 1.415 . S
C354 C359 1.425 . S
C354 C361 1.409 . S
C355 H347 0.930 1_565 S
C355 C353 1.419 . S
C355 C356 1.362 1_565 S
C356 H348 0.930 . S
C356 C355 1.362 1_545 S
C356 C359 1.409 1_545 S
C357 H349 0.930 1_565 S
C357 C358 1.355 . S
C357 C359 1.415 . S
C358 C357 1.355 . S
C358 C360 1.419 . S
C359 C354 1.425 . S
C359 C356 1.409 1_565 S
C359 C357 1.415 . S
C360 H350 0.930 . S
C360 C358 1.419 . S
C360 C361 1.362 . S
C361 H351 0.930 . S
C361 C354 1.409 . S
C361 C360 1.362 . S
H362 C368 0.930 . S
H363 C371 0.930 . S
H364 C372 0.930 . S
H365 C373 0.930 . S
H366 C376 0.930 . S
H367 C377 0.930 . S
C368 H362 0.930 . S
C368 C369 1.355 . S
C368 C370 1.415 . S
C369 C368 1.355 . S
C369 C371 1.419 . S
C370 C368 1.415 . S
C370 C375 1.425 . S
C370 C377 1.409 . S
C371 H363 0.930 . S
C371 C369 1.419 . S
C371 C372 1.362 . S
C372 H364 0.930 . S
C372 C371 1.362 . S
C372 C375 1.409 . S
C373 H365 0.930 . S
C373 C374 1.355 . S
C373 C375 1.415 . S
C374 C373 1.355 . S
C374 C376 1.419 . S
C375 C370 1.425 . S
C375 C372 1.409 . S
C375 C373 1.415 . S
C376 H366 0.930 . S
C376 C374 1.419 . S
C376 C377 1.362 . S
C377 H367 0.930 . S
C377 C370 1.409 . S
C377 C376 1.362 . S
H378 C384 0.930 . S
H379 C387 0.930 . S
H380 C388 0.930 . S
H381 C389 0.930 . S
H382 C392 0.930 . S
H383 C393 0.930 . S
C384 H378 0.930 . S
C384 C385 1.355 . S
C384 C386 1.415 . S
C385 C384 1.355 . S
C385 C387 1.419 . S
C386 C384 1.415 . S
C386 C391 1.425 . S
C386 C393 1.409 . S
C387 H379 0.930 . S
C387 C385 1.419 . S
C387 C388 1.362 . S
C388 H380 0.930 . S
C388 C387 1.362 . S
C388 C391 1.409 . S
C389 H381 0.930 . S
C389 C390 1.355 . S
C389 C391 1.415 . S
C390 C389 1.355 . S
C390 C392 1.419 . S
C391 C386 1.425 . S
C391 C388 1.409 . S
C391 C389 1.415 . S
C392 H382 0.930 . S
C392 C390 1.419 . S
C392 C393 1.362 . S
C393 H383 0.930 . S
C393 C386 1.409 . S
C393 C392 1.362 . S
H394 C400 0.930 . S
H395 C403 0.930 . S
H396 C404 0.930 . S
H397 C405 0.930 . S
H398 C408 0.930 . S
H399 C409 0.930 . S
C400 H394 0.930 . S
C400 C401 1.355 . S
C400 C402 1.415 . S
C401 C400 1.355 . S
C401 C403 1.419 . S
C402 C400 1.415 . S
C402 C407 1.425 . S
C402 C409 1.409 . S
C403 H395 0.930 . S
C403 C401 1.419 . S
C403 C404 1.362 . S
C404 H396 0.930 . S
C404 C403 1.362 . S
C404 C407 1.409 . S
C405 H397 0.930 . S
C405 C406 1.355 . S
C405 C407 1.415 . S
C406 C405 1.355 . S
C406 C408 1.419 . S
C407 C402 1.425 . S
C407 C404 1.409 . S
C407 C405 1.415 . S
C408 H398 0.930 . S
C408 C406 1.419 . S
C408 C409 1.362 . S
C409 H399 0.930 . S
C409 C402 1.409 . S
C409 C408 1.362 . S
H410 C416 0.930 . S
H411 C419 0.930 . S
H412 C420 0.930 . S
H413 C421 0.930 . S
H414 C424 0.930 . S
H415 C425 0.930 . S
C416 H410 0.930 . S
C416 C417 1.355 . S
C416 C418 1.415 . S
C417 C416 1.355 . S
C417 C419 1.419 . S
C418 C416 1.415 . S
C418 C423 1.425 . S
C418 C425 1.409 . S
C419 H411 0.930 . S
C419 C417 1.419 . S
C419 C420 1.362 . S
C420 H412 0.930 . S
C420 C419 1.362 . S
C420 C423 1.409 . S
C421 H413 0.930 . S
C421 C422 1.355 . S
C421 C423 1.415 . S
C422 C421 1.355 . S
C422 C424 1.419 . S
C423 C418 1.425 . S
C423 C420 1.409 . S
C423 C421 1.415 . S
C424 H414 0.930 . S
C424 C422 1.419 . S
C424 C425 1.362 . S
C425 H415 0.930 . S
C425 C418 1.409 . S
C425 C424 1.362 . S
H426 C432 0.930 . S
H427 C435 0.930 . S
H428 C436 0.930 . S
H429 C437 0.930 . S
H430 C440 0.930 . S
H431 C441 0.930 . S
C432 H426 0.930 . S
C432 C433 1.355 . S
C432 C434 1.415 . S
C433 C432 1.355 . S
C433 C435 1.419 . S
C434 C432 1.415 . S
C434 C439 1.425 . S
C434 C441 1.409 . S
C435 H427 0.930 . S
C435 C433 1.419 . S
C435 C436 1.362 . S
C436 H428 0.930 . S
C436 C435 1.362 . S
C436 C439 1.409 . S
C437 H429 0.930 . S
C437 C438 1.355 . S
C437 C439 1.415 . S
C438 C437 1.355 . S
C438 C440 1.419 . S
C439 C434 1.425 . S
C439 C436 1.409 . S
C439 C437 1.415 . S
C440 H430 0.930 . S
C440 C438 1.419 . S
C440 C441 1.362 . S
C441 H431 0.930 . S
C441 C434 1.409 . S
C441 C440 1.362 . S
H442 C448 0.930 . S
H443 C451 0.930 . S
H444 C452 0.930 . S
H445 C453 0.930 . S
H446 C456 0.930 . S
H447 C457 0.930 . S
C448 H442 0.930 . S
C448 C449 1.355 . S
C448 C450 1.415 . S
C449 C448 1.355 . S
C449 C451 1.419 . S
C450 C448 1.415 . S
C450 C455 1.425 . S
C450 C457 1.409 . S
C451 H443 0.930 . S
C451 C449 1.419 . S
C451 C452 1.362 . S
C452 H444 0.930 . S
C452 C451 1.362 . S
C452 C455 1.409 . S
C453 H445 0.930 . S
C453 C454 1.355 . S
C453 C455 1.415 . S
C454 C453 1.355 . S
C454 C456 1.419 . S
C455 C450 1.425 . S
C455 C452 1.409 . S
C455 C453 1.415 . S
C456 H446 0.930 . S
C456 C454 1.419 . S
C456 C457 1.362 . S
C457 H447 0.930 . S
C457 C450 1.409 . S
C457 C456 1.362 . S
H458 C464 0.930 . S
H459 C467 0.930 . S
H460 C468 0.930 . S
H461 C469 0.930 1_545 S
H462 C472 0.930 . S
H463 C473 0.930 . S
C464 H458 0.930 . S
C464 C465 1.355 . S
C464 C466 1.415 . S
C465 C464 1.355 . S
C465 C467 1.419 1_565 S
C466 C464 1.415 . S
C466 C471 1.425 . S
C466 C473 1.409 . S
C467 H459 0.930 . S
C467 C465 1.419 1_545 S
C467 C468 1.362 . S
C468 H460 0.930 . S
C468 C467 1.362 . S
C468 C471 1.409 1_545 S
C469 H461 0.930 1_565 S
C469 C470 1.355 . S
C469 C471 1.415 . S
C470 C469 1.355 . S
C470 C472 1.419 . S
C471 C466 1.425 . S
C471 C468 1.409 1_565 S
C471 C469 1.415 . S
C472 H462 0.930 . S
C472 C470 1.419 . S
C472 C473 1.362 . S
C473 H463 0.930 . S
C473 C466 1.409 . S
C473 C472 1.362 . S
C294 C255 1.378 . S
C289 C211 1.578 . S
C305 C31 1.511 . S
C310 C279 1.335 . S
C321 C91 1.657 . S
C326 C258 1.509 . S
C337 C151 1.643 1_556 S
C342 C276 1.503 . S
C358 C256 1.638 . S
C353 C20 1.602 . S
C374 C278 1.616 . S
C369 C61 1.495 . S
C385 C121 1.611 . S
C390 C257 1.519 . S
C401 C200 1.598 . S
C406 C277 1.505 . S
C422 C275 1.556 . S
C417 C80 1.579 . S
C438 C254 1.572 . S
C433 C140 1.637 . S
C454 C274 1.617 . S
C449 C181 1.621 . S
C465 C1 1.574 . S
C470 C253 1.570 . S
