# Generated by pormake.
# Topology rtl, (3,6)-cn, num edge types: 1
# Building blocks:
#     Node 0, Type 0, BuildingBlock: CUQRIR_clean_linker_1, # of connection points: 3
#     Node 1, Type 0, BuildingBlock: CUQRIR_clean_linker_1, # of connection points: 3
#     Node 2, Type 0, BuildingBlock: CUQRIR_clean_linker_1, # of connection points: 3
#     Node 3, Type 0, BuildingBlock: CUQRIR_clean_linker_1, # of connection points: 3
#     Node 4, Type 1, BuildingBlock: KUMBOL_clean_sbu_1, # of connection points: 6
#     Node 5, Type 1, BuildingBlock: KUMBOL_clean_sbu_1, # of connection points: 6
#     Edge 6, Type (0, 1), BuildingBlock: MIFKUJ_clean_linker_0, # of connection points: 2
#     Edge 7, Type (0, 1), BuildingBlock: MIFKUJ_clean_linker_0, # of connection points: 2
#     Edge 8, Type (0, 1), BuildingBlock: MIFKUJ_clean_linker_0, # of connection points: 2
#     Edge 9, Type (0, 1), BuildingBlock: MIFKUJ_clean_linker_0, # of connection points: 2
#     Edge 10, Type (0, 1), BuildingBlock: MIFKUJ_clean_linker_0, # of connection points: 2
#     Edge 11, Type (0, 1), BuildingBlock: MIFKUJ_clean_linker_0, # of connection points: 2
#     Edge 12, Type (0, 1), BuildingBlock: MIFKUJ_clean_linker_0, # of connection points: 2
#     Edge 13, Type (0, 1), BuildingBlock: MIFKUJ_clean_linker_0, # of connection points: 2
#     Edge 14, Type (0, 1), BuildingBlock: MIFKUJ_clean_linker_0, # of connection points: 2
#     Edge 15, Type (0, 1), BuildingBlock: MIFKUJ_clean_linker_0, # of connection points: 2
#     Edge 16, Type (0, 1), BuildingBlock: MIFKUJ_clean_linker_0, # of connection points: 2
#     Edge 17, Type (0, 1), BuildingBlock: MIFKUJ_clean_linker_0, # of connection points: 2
# Relax obj value: 0.063
# Max RMSD: 0.212
# Mean RMSD: 0.168
data_MOF--net-rtl--node1-KUMBOL_clean_sbu_1--node2-CUQRIR_clean_linker_1--edge1-MIFKUJ_clean_linker_0
_symmetry_space_group_name_H-M    P1
_symmetry_Int_Tables_number       1
_symmetry_cell_setting            triclinic
loop_
_symmetry_equiv_pos_as_xyz
'x, y, z'
_cell_length_a     43.197894
_cell_length_b     43.125683
_cell_length_c     32.110297
_cell_angle_alpha  79.776629
_cell_angle_beta   98.80576
_cell_angle_gamma 90.908006
loop_
_atom_site_label
_atom_site_type_symbol
_atom_site_fract_x
_atom_site_fract_y
_atom_site_fract_z
_atom_type_partial_charge
C0 C 0.23698 0.8166 0.99865 0.0
N1 N 0.21609 0.83627 1.00838 0.0
N2 N 0.24871 0.79554 0.03378 0.0
C3 C 0.24458 0.81683 0.95438 0.0
C4 C 0.23398 0.80276 0.06514 0.0
N5 N 0.21396 0.82737 0.04962 0.0
C6 C 0.2384 0.78525 0.11048 0.0
H7 H 0.22281 0.81986 0.93064 0.0
H8 H 0.25691 0.79496 0.95221 0.0
H9 H 0.25991 0.83712 0.94593 0.0
H10 H 0.23712 0.80178 0.13302 0.0
H11 H 0.26112 0.7723 0.11879 0.0
H12 H 0.21924 0.768 0.11408 0.0
C13 C 0.72315 0.71914 0.66759 0.0
N14 N 0.70268 0.69656 0.65673 0.0
N15 N 0.74017 0.7293 0.63576 0.0
C16 C 0.72871 0.72928 0.71057 0.0
C17 C 0.72951 0.71212 0.60527 0.0
N18 N 0.70702 0.69207 0.61809 0.0
C19 C 0.73977 0.71627 0.56188 0.0
H20 H 0.71245 0.74903 0.71018 0.0
H21 H 0.75304 0.73763 0.71778 0.0
H22 H 0.72439 0.70962 0.73635 0.0
H23 H 0.75928 0.69951 0.56328 0.0
H24 H 0.74813 0.74057 0.55221 0.0
H25 H 0.72032 0.71122 0.53723 0.0
C26 C 0.79536 0.20432 0.09016 0.0
N27 N 0.81685 0.18539 0.08031 0.0
N28 N 0.7846 0.22661 0.0559 0.0
C29 C 0.78593 0.20189 0.13385 0.0
C30 C 0.80044 0.22065 0.02481 0.0
N31 N 0.82043 0.1958 0.03982 0.0
C32 C 0.79703 0.23958 0.98015 0.0
H33 H 0.78289 0.17692 0.14825 0.0
H34 H 0.76378 0.21496 0.13251 0.0
H35 H 0.80481 0.21177 0.15502 0.0
H36 H 0.81597 0.25722 0.97857 0.0
H37 H 0.77436 0.25242 0.97095 0.0
H38 H 0.79922 0.22407 0.9566 0.0
C39 C 0.30953 0.29323 0.42831 0.0
N40 N 0.33013 0.31608 0.43732 0.0
N41 N 0.29413 0.28296 0.46195 0.0
C42 C 0.30416 0.28116 0.38662 0.0
C43 C 0.30618 0.3005 0.49158 0.0
N44 N 0.32788 0.32059 0.47657 0.0
C45 C 0.29593 0.29905 0.53461 0.0
H46 H 0.28518 0.29536 0.36464 0.0
H47 H 0.29694 0.25614 0.39168 0.0
H48 H 0.32537 0.28333 0.37089 0.0
H49 H 0.31091 0.28169 0.55859 0.0
H50 H 0.27116 0.29166 0.53375 0.0
H51 H 0.29862 0.32227 0.54502 0.0
C52 C 0.94307 0.08982 0.51367 0.0
C53 C 0.89096 0.06919 0.5179 0.0
C54 C 0.92373 0.06623 0.52977 0.0
C55 C 0.87816 0.09562 0.48852 0.0
C56 C 0.9303 0.11697 0.48541 0.0
C57 C 0.89778 0.1194 0.47216 0.0
N58 N 0.97439 0.08678 0.527 0.0
C59 C 0.99411 0.11094 0.51627 0.0
C60 C 0.95056 0.14121 0.47233 0.0
C61 C 0.98256 0.13836 0.48832 0.0
Gd62 Gd 0.03528 0.97986 0.51825 0.0
Gd63 Gd 0.99194 0.04042 0.57395 0.0
N64 N 0.93681 0.0415 0.55923 0.0
C65 C 0.87195 0.04614 0.5372 0.0
C66 C 0.91824 0.02034 0.58047 0.0
C67 C 0.88566 0.02186 0.56909 0.0
H68 H 0.92833 1.00255 0.60684 0.0
H69 H 0.87111 1.00463 0.58548 0.0
H70 H 0.10747 0.009 0.5295 0.0
H71 H 0.01879 0.10883 0.5289 0.0
H72 H 0.15922 0.99466 0.57338 0.0
H73 H 0.84668 0.04752 0.52886 0.0
H74 H 0.85305 0.09841 0.4794 0.0
H75 H 0.99261 0.91311 0.52832 0.0
H76 H 0.94167 0.16246 0.4507 0.0
H77 H 0.9983 0.15723 0.47915 0.0
H78 H 0.14266 0.89359 0.65733 0.0
H79 H 0.8875 0.13995 0.45022 0.0
H80 H 0.04325 0.84507 0.62735 0.0
H81 H 0.99568 0.8609 0.57446 0.0
N82 N 0.03631 0.92832 0.55787 0.0
C83 C 0.06353 0.91922 0.58443 0.0
C84 C 0.01271 0.90725 0.55277 0.0
C85 C 0.04158 0.86843 0.60797 0.0
C86 C 0.01468 0.8773 0.57829 0.0
C87 C 0.06671 0.8892 0.61069 0.0
H88 H 0.09787 0.85764 0.65845 0.0
N89 N 0.08531 0.96786 0.55739 0.0
C90 C 0.08893 0.93932 0.58362 0.0
C91 C 0.1433 0.9506 0.60592 0.0
C92 C 0.11792 0.93016 0.60925 0.0
C93 C 0.11031 0.98715 0.55218 0.0
C94 C 0.13957 0.97902 0.57682 0.0
O95 O 0.99127 0.04871 0.5022 0.0
O96 O 0.98782 0.99928 0.48556 0.0
O97 O 0.05257 0.99368 0.45745 0.0
O98 O 0.04495 0.94469 0.48116 0.0
O99 O 0.97658 0.98917 0.58568 0.0
O100 O 0.98451 0.96854 0.52602 0.0
O101 O 0.05441 0.99256 0.58299 0.0
O102 O 0.01097 0.99489 0.6142 0.0
O103 O 0.97182 0.06037 0.62242 0.0
O104 O 0.02202 0.06364 0.61877 0.0
O105 O 0.04956 0.03082 0.50318 0.0
O106 O 0.04165 0.05209 0.56236 0.0
C107 C 0.98012 0.0293 0.47657 0.0
C108 C 0.96988 0.96891 0.55922 0.0
C109 C 0.03686 0.96094 0.4066 0.0
C110 C 0.04058 0.94799 0.33618 0.0
C111 C 0.98962 0.95613 0.35688 0.0
C112 C 1.00415 0.9619 0.39656 0.0
C113 C 1.00756 0.94892 0.32709 0.0
C114 C 0.055 0.95444 0.37628 0.0
C115 C 0.05216 0.96516 0.44937 0.0
C116 C 0.1207 0.9009 0.63695 0.0
C117 C 0.09515 0.88047 0.63767 0.0
H118 H 0.16596 0.94442 0.62509 0.0
C119 C 0.04004 0.98596 0.61654 0.0
C120 C 0.05581 0.05151 0.52891 0.0
C121 C 1.00454 0.0875 0.67411 0.0
C122 C 0.98532 0.11156 0.72884 0.0
C123 C 0.04026 0.11549 0.72023 0.0
C124 C 0.03477 0.09829 0.68703 0.0
C125 C 0.01575 0.1222 0.74094 0.0
C126 C 0.97986 0.09397 0.69546 0.0
C127 C 0.9991 0.07029 0.63781 0.0
H128 H 0.96431 0.95662 0.34947 0.0
H129 H 0.98989 0.96657 0.41973 0.0
H130 H 0.99533 0.94333 0.29738 0.0
H131 H 0.08028 0.9543 0.38429 0.0
H132 H 0.06363 0.12364 0.72997 0.0
H133 H 0.05424 0.09359 0.67135 0.0
H134 H 0.02069 0.13535 0.76694 0.0
H135 H 0.95644 0.08581 0.68579 0.0
C136 C 0.59015 0.58413 0.05165 0.0
C137 C 0.56619 0.6354 0.04632 0.0
C138 C 0.56531 0.60225 0.05694 0.0
C139 C 0.59185 0.64985 0.02889 0.0
C140 C 0.61636 0.59854 0.03528 0.0
C141 C 0.61688 0.63147 0.02338 0.0
N142 N 0.58873 0.55234 0.06272 0.0
C143 C 0.6136 0.53365 0.06115 0.0
C144 C 0.64137 0.57941 0.03169 0.0
C145 C 0.64011 0.54684 0.04513 0.0
Gd146 Gd 0.48546 0.48676 1.00697 0.0
Gd147 Gd 0.54323 0.53212 0.08864 0.0
N148 N 0.54086 0.58755 0.07387 0.0
C149 C 0.54157 0.65305 0.05438 0.0
C150 C 0.51799 0.60477 0.08461 0.0
C151 C 0.5176 0.63766 0.07422 0.0
H152 H 0.50039 0.5933 0.10216 0.0
H153 H 0.49908 0.65113 0.08214 0.0
H154 H 0.51403 0.41351 0.03294 0.0
H155 H 0.61276 0.50853 0.0717 0.0
H156 H 0.49978 0.36169 0.07213 0.0
H157 H 0.54136 0.67856 0.04668 0.0
H158 H 0.5928 0.67527 0.02022 0.0
H159 H 0.4185 0.53069 0.98491 0.0
H160 H 0.66191 0.58958 0.01922 0.0
H161 H 0.65954 0.53189 0.04319 0.0
H162 H 0.40054 0.38137 0.11344 0.0
H163 H 0.63669 0.64297 1.01041 0.0
H164 H 0.35247 0.48274 0.05929 0.0
H165 H 0.36735 0.52943 1.0096 0.0
N166 N 0.43439 0.48711 0.02427 0.0
C167 C 0.42556 0.46011 0.04823 0.0
C168 C 0.41316 0.51103 1.00844 0.0
C169 C 0.3754 0.48362 0.04944 0.0
C170 C 0.38374 0.51004 0.02163 0.0
C171 C 0.39603 0.45782 0.06208 0.0
H172 H 0.36517 0.42752 0.0981 0.0
N173 N 0.47345 0.43679 0.04242 0.0
C174 C 0.44535 0.43398 0.05674 0.0
C175 C 0.45642 0.37894 0.08551 0.0
C176 C 0.43634 0.40509 0.07949 0.0
C177 C 0.49243 0.41112 0.04621 0.0
C178 C 0.48439 0.38189 0.06828 0.0
O179 O 0.55273 0.53581 0.02012 0.0
O180 O 0.50421 0.53376 0.97916 0.0
O181 O 0.49954 0.46851 0.95355 0.0
O182 O 0.45073 0.47653 0.955 0.0
O183 O 0.49129 0.54423 0.07581 0.0
O184 O 0.47343 0.53812 1.00622 0.0
O185 O 0.49988 0.46661 0.07766 0.0
O186 O 0.49881 0.51023 0.10768 0.0
O187 O 0.55624 0.55304 0.14555 0.0
O188 O 0.56859 0.50451 0.14676 0.0
O189 O 0.53674 0.4737 0.01601 0.0
O190 O 0.55916 0.48321 0.0833 0.0
C191 C 0.53371 0.5422 0.98346 0.0
C192 C 0.47258 0.55241 0.03911 0.0
C193 C 0.46701 0.48545 0.88769 0.0
C194 C 0.45538 0.48361 0.81119 0.0
C195 C 0.46164 0.53395 0.83578 0.0
C196 C 0.46725 0.51844 0.87815 0.0
C197 C 0.45566 0.51677 0.80251 0.0
C198 C 0.46119 0.46806 0.85423 0.0
C199 C 0.47124 0.4693 0.93255 0.0
C200 C 0.40766 0.40321 0.09524 0.0
C201 C 0.38757 0.42954 0.08664 0.0
H202 H 0.45035 0.35633 0.10284 0.0
C203 C 0.49287 0.48038 0.10827 0.0
C204 C 0.55837 0.46851 0.05034 0.0
C205 C 0.60135 0.53296 0.193 0.0
C206 C 0.63074 0.55082 0.25564 0.0
C207 C 0.65815 0.53145 0.20432 0.0
C208 C 0.6296 0.52601 0.17995 0.0
C209 C 0.6588 0.54379 0.24185 0.0
C210 C 0.60204 0.54523 0.23088 0.0
C211 C 0.57086 0.52794 0.16767 0.0
H212 H 0.46127 0.55941 0.82883 0.0
H213 H 0.47123 0.53223 0.9035 0.0
H214 H 0.45033 0.52946 0.76999 0.0
H215 H 0.46101 0.44256 0.86178 0.0
H216 H 0.67989 0.526 0.19414 0.0
H217 H 0.62963 0.51633 0.1511 0.0
H218 H 0.68127 0.54747 0.26036 0.0
H219 H 0.58018 0.55088 0.24069 0.0
H220 H 0.29411 0.23383 0.5269 0.0
H221 H 0.25334 0.19445 0.53629 0.0
H222 H 0.2016 0.23644 0.41381 0.0
H223 H 0.24123 0.27758 0.40649 0.0
H224 H 0.16219 0.22181 0.46368 0.0
H225 H 0.24591 0.16364 0.43294 0.0
H226 H 0.29982 0.14333 0.43967 0.0
H227 H 0.2953 0.09736 0.56863 0.0
H228 H 0.24149 0.11776 0.56289 0.0
H229 H 0.07469 0.07508 0.45218 0.0
H230 H 0.11549 0.11427 0.43857 0.0
H231 H 0.13433 0.1188 0.57307 0.0
H232 H 0.09298 0.08044 0.58683 0.0
H233 H 0.18911 0.10843 0.51275 0.0
H234 H 0.10386 0.17412 0.53941 0.0
H235 H 0.04853 0.19153 0.52454 0.0
H236 H 0.05581 0.22029 0.39137 0.0
H237 H 0.11106 0.20243 0.40539 0.0
C238 C 0.27386 0.23477 0.50226 0.0
C239 C 0.27082 0.2587 0.46598 0.0
C240 C 0.25074 0.21195 0.50726 0.0
C241 C 0.22453 0.21187 0.47535 0.0
C242 C 0.22158 0.23577 0.43888 0.0
C243 C 0.24439 0.25906 0.43439 0.0
C244 C 0.19989 0.18741 0.48066 0.0
C245 C 0.16827 0.19704 0.47393 0.0
C246 C 0.20741 0.15487 0.49402 0.0
C247 C 0.23975 0.14247 0.49759 0.0
C248 C 0.25649 0.14938 0.46284 0.0
C249 C 0.28702 0.13783 0.46646 0.0
C250 C 0.301 0.11913 0.50459 0.0
C251 C 0.28445 0.11188 0.53914 0.0
C252 C 0.25392 0.1234 0.5357 0.0
C253 C 0.08754 0.08444 0.47883 0.0
C254 C 0.08059 0.07482 0.52054 0.0
C255 C 0.11076 0.10678 0.471 0.0
C256 C 0.12777 0.11935 0.50484 0.0
C257 C 0.12133 0.10936 0.54659 0.0
C258 C 0.09765 0.08758 0.55432 0.0
C259 C 0.15212 0.14318 0.49659 0.0
C260 C 0.18345 0.1333 0.50251 0.0
C261 C 0.14436 0.17529 0.48156 0.0
C262 C 0.11141 0.1866 0.47336 0.0
C263 C 0.09356 0.18385 0.5069 0.0
C264 C 0.06224 0.19387 0.49865 0.0
C265 C 0.04864 0.20695 0.45702 0.0
C266 C 0.06636 0.21012 0.42358 0.0
C267 C 0.09767 0.20006 0.43167 0.0
H268 H 0.02439 0.21468 0.45068 0.0
H269 H 0.32464 0.11021 0.50733 0.0
H270 H 0.31045 0.79326 0.0626 0.0
H271 H 0.34709 0.75017 0.06228 0.0
H272 H 0.27031 0.69707 1.00847 0.0
H273 H 0.2339 0.7402 1.00936 0.0
H274 H 0.30885 0.65969 0.07008 0.0
H275 H 0.31889 0.7362 0.94558 0.0
H276 H 0.32761 0.78909 0.90554 0.0
H277 H 0.42024 0.78961 0.97659 0.0
H278 H 0.41188 0.7369 0.0176 0.0
H279 H 0.44069 0.58941 0.96764 0.0
H280 H 0.39943 0.62853 0.96464 0.0
H281 H 0.40758 0.60831 0.10243 0.0
H282 H 0.4475 0.56839 0.10539 0.0
H283 H 0.40047 0.6813 0.99352 0.0
H284 H 0.34404 0.61998 0.13692 0.0
H285 H 0.33119 0.56657 0.17169 0.0
H286 H 0.32436 0.53448 0.05156 0.0
H287 H 0.33808 0.58745 0.01632 0.0
C288 C 0.30165 0.77217 0.05114 0.0
C289 C 0.26969 0.76965 0.03604 0.0
C290 C 0.32243 0.74773 0.05071 0.0
C291 C 0.31148 0.72052 0.0349 0.0
C292 C 0.27928 0.7178 0.02079 0.0
C293 C 0.25855 0.74227 0.02123 0.0
C294 C 0.33362 0.69514 0.03238 0.0
C295 C 0.32888 0.66442 0.05334 0.0
C296 C 0.35942 0.70114 1.00982 0.0
C297 C 0.36464 0.73271 0.98493 0.0
C298 C 0.34104 0.74768 0.95289 0.0
C299 C 0.34592 0.77762 0.92999 0.0
C300 C 0.37444 0.79273 0.93857 0.0
C301 C 0.39815 0.77789 0.97001 0.0
C302 C 0.39336 0.74798 0.99308 0.0
C303 C 0.43338 0.59312 0.9972 0.0
C304 C 0.44745 0.57594 0.03673 0.0
C305 C 0.40991 0.61555 0.99549 0.0
C306 C 0.40006 0.62118 0.03327 0.0
C307 C 0.41419 0.60402 0.07273 0.0
C308 C 0.43737 0.58145 0.07442 0.0
C309 C 0.37597 0.64583 0.03176 0.0
C310 C 0.38039 0.6765 1.01015 0.0
C311 C 0.34953 0.63968 0.05302 0.0
C312 C 0.34227 0.60756 0.07413 0.0
C313 C 0.33998 0.60144 0.11801 0.0
C314 C 0.33273 0.57122 0.13783 0.0
C315 C 0.32729 0.54706 0.11391 0.0
C316 C 0.32913 0.55307 0.07015 0.0
C317 C 0.33681 0.58313 0.05029 0.0
H318 H 0.32149 0.52372 0.12922 0.0
H319 H 0.37818 0.8159 0.92081 0.0
H320 H 0.73424 0.79008 0.64354 0.0
H321 H 0.77365 0.83157 0.63396 0.0
H322 H 0.83895 0.7631 0.61356 0.0
H323 H 0.79959 0.72181 0.62346 0.0
H324 H 0.86748 0.80325 0.66416 0.0
H325 H 0.7985 0.80998 0.52999 0.0
H326 H 0.7473 0.81544 0.48319 0.0
H327 H 0.73313 0.90598 0.51579 0.0
H328 H 0.78407 0.90083 0.56336 0.0
H329 H 0.93588 0.93511 0.50382 0.0
H330 H 0.89764 0.89395 0.52004 0.0
H331 H 0.91081 0.9074 0.65155 0.0
H332 H 0.94996 0.94752 0.63594 0.0
H333 H 0.84297 0.89448 0.54587 0.0
H334 H 0.89947 0.84235 0.71671 0.0
H335 H 0.95166 0.8334 0.76087 0.0
H336 H 0.99271 0.8282 0.64877 0.0
H337 H 0.94092 0.83783 0.60377 0.0
C338 C 0.75721 0.78402 0.63763 0.0
C339 C 0.76405 0.75298 0.63405 0.0
C340 C 0.77959 0.80763 0.6319 0.0
C341 C 0.80917 0.80049 0.62261 0.0
C342 C 0.81632 0.76918 0.62065 0.0
C343 C 0.7939 0.74567 0.62612 0.0
C344 C 0.83232 0.8257 0.61334 0.0
C345 C 0.86206 0.82328 0.63843 0.0
C346 C 0.82545 0.85163 0.5794 0.0
C347 C 0.79494 0.85487 0.55057 0.0
C348 C 0.78436 0.83094 0.52744 0.0
C349 C 0.7554 0.834 0.50074 0.0
C350 C 0.73694 0.86101 0.4966 0.0
C351 C 0.74744 0.88505 0.51908 0.0
C352 C 0.77635 0.88208 0.54591 0.0
C353 C 0.9308 0.92911 0.53627 0.0
C354 C 0.94604 0.94455 0.5686 0.0
C355 C 0.90879 0.90569 0.54547 0.0
C356 C 0.90153 0.89721 0.58717 0.0
C357 C 0.91638 0.913 0.61932 0.0
C358 C 0.93853 0.93624 0.61022 0.0
C359 C 0.87821 0.87214 0.59681 0.0
C360 C 0.84836 0.87459 0.57181 0.0
C361 C 0.88509 0.846 0.63049 0.0
C362 C 0.91643 0.84105 0.65694 0.0
C363 C 0.9197 0.83946 0.70149 0.0
C364 C 0.94922 0.83442 0.7266 0.0
C365 C 0.97555 0.83056 0.70753 0.0
C366 C 0.9724 0.83173 0.66333 0.0
C367 C 0.943 0.83711 0.63799 0.0
H368 H 0.99836 0.82648 0.72703 0.0
H369 H 0.71453 0.86333 0.4759 0.0
H370 H 0.79278 0.27284 0.10268 0.0
H371 H 0.75549 0.31541 0.10253 0.0
H372 H 0.69119 0.28056 1.00526 0.0
H373 H 0.7282 0.23749 1.00647 0.0
H374 H 0.7005 0.34813 0.98983 0.0
H375 H 0.67679 0.2639 0.1011 0.0
H376 H 0.69041 0.22458 0.16702 0.0
H377 H 0.72055 0.2983 0.23746 0.0
H378 H 0.70762 0.33805 0.17173 0.0
H379 H 0.56158 0.42886 0.99335 0.0
H380 H 0.60121 0.38893 0.99577 0.0
H381 H 0.65103 0.41356 0.11221 0.0
H382 H 0.61045 0.45271 0.11125 0.0
H383 H 0.65189 0.35281 0.11901 0.0
H384 H 0.67547 0.43738 0.01202 0.0
H385 H 0.66467 0.4784 0.94741 0.0
H386 H 0.63896 0.40741 0.87052 0.0
H387 H 0.64914 0.36596 0.9348 0.0
C388 C 0.77066 0.27446 0.08133 0.0
C389 C 0.76327 0.25226 0.05434 0.0
C390 C 0.74946 0.29866 0.08121 0.0
C391 C 0.7206 0.3011 0.05387 0.0
C392 C 0.71341 0.27918 0.02639 0.0
C393 C 0.73446 0.25473 0.02697 0.0
C394 C 0.69758 0.32608 0.05465 0.0
C395 C 0.68957 0.34902 0.01785 0.0
C396 C 0.68421 0.32777 0.09175 0.0
C397 C 0.69155 0.30392 0.1314 0.0
C398 C 0.68657 0.27171 0.13056 0.0
C399 C 0.69413 0.24934 0.1679 0.0
C400 C 0.70642 0.25892 0.20638 0.0
C401 C 0.71108 0.29091 0.20761 0.0
C402 C 0.70363 0.31337 0.17033 0.0
C403 C 0.5809 0.42589 0.0196 0.0
C404 C 0.58285 0.44431 0.05194 0.0
C405 C 0.60374 0.40308 0.02075 0.0
C406 C 0.62958 0.39862 0.05365 0.0
C407 C 0.63143 0.41665 0.08634 0.0
C408 C 0.60825 0.43917 0.08561 0.0
C409 C 0.65439 0.37493 0.0539 0.0
C410 C 0.66284 0.35217 0.09093 0.0
C411 C 0.66859 0.37374 0.01719 0.0
C412 C 0.66284 0.39857 0.97831 0.0
C413 C 0.66734 0.43052 0.98137 0.0
C414 C 0.66134 0.45385 0.9448 0.0
C415 C 0.65108 0.44552 0.9049 0.0
C416 C 0.64689 0.41383 0.90146 0.0
C417 C 0.6528 0.3904 0.93795 0.0
H418 H 0.64642 0.46362 0.87662 0.0
H419 H 0.71225 0.24157 0.23526 0.0
H420 H 0.16343 0.80212 0.08135 0.0
H421 H 0.13181 0.82516 0.12579 0.0
H422 H 0.19116 0.90695 0.11856 0.0
H423 H 0.22135 0.88435 0.07204 0.0
H424 H 0.14376 0.83732 0.19954 0.0
H425 H 0.15404 0.97136 0.13308 0.0
H426 H 0.15818 1.00583 0.06414 0.0
H427 H 0.11359 0.9358 0.99633 0.0
H428 H 0.10863 0.90118 0.0648 0.0
H429 H 0.09747 0.91628 0.35217 0.0
H430 H 0.12685 0.89992 0.30095 0.0
H431 H 0.05523 0.94001 0.19731 0.0
H432 H 0.02736 0.95957 0.24783 0.0
H433 H 0.1058 0.94816 0.16908 0.0
H434 H 0.06162 0.85702 0.24439 0.0
H435 H 0.05003 0.81921 0.30712 0.0
H436 H 0.14813 0.79799 0.34544 0.0
H437 H 0.16034 0.83598 0.2832 0.0
C438 C 0.16915 0.82523 0.08889 0.0
C439 C 0.19439 0.84176 0.07335 0.0
C440 C 0.15133 0.83833 0.11441 0.0
C441 C 0.15881 0.86801 0.12545 0.0
C442 C 0.18429 0.88443 0.1098 0.0
C443 C 0.20163 0.87157 0.08345 0.0
C444 C 0.14073 0.88108 0.1546 0.0
C445 C 0.13542 0.86156 0.1927 0.0
C446 C 0.12912 0.91251 0.14554 0.0
C447 C 0.13126 0.93355 0.10415 0.0
C448 C 0.14493 0.9634 0.10347 0.0
C449 C 0.14744 0.98296 0.06446 0.0
C450 C 0.13623 0.97298 0.02589 0.0
C451 C 0.12233 0.94348 0.02623 0.0
C452 C 0.11967 0.92388 0.06513 0.0
C453 C 0.08819 0.92247 0.31848 0.0
C454 C 0.05957 0.93908 0.30461 0.0
C455 C 0.10487 0.91247 0.28909 0.0
C456 C 0.0929 0.91775 0.24514 0.0
C457 C 0.06495 0.93524 0.231 0.0
C458 C 0.04868 0.94602 0.26023 0.0
C459 C 0.10901 0.90441 0.21414 0.0
C460 C 0.11406 0.92391 0.17579 0.0
C461 C 0.11914 0.8725 0.22197 0.0
C462 C 0.1119 0.84955 0.25937 0.0
C463 C 0.08073 0.84442 0.26635 0.0
C464 C 0.07405 0.82295 0.30179 0.0
C465 C 0.09833 0.80627 0.33031 0.0
C466 C 0.12935 0.81096 0.32336 0.0
C467 C 0.13616 0.83244 0.28799 0.0
H468 H 0.09312 0.78965 0.35773 0.0
H469 H 0.13828 0.98812 0.99574 0.0
H470 H 0.66189 0.72123 0.69817 0.0
H471 H 0.63086 0.69233 0.75007 0.0
H472 H 0.66284 0.60434 0.72479 0.0
H473 H 0.69545 0.63324 0.67469 0.0
H474 H 0.58781 0.62091 0.73065 0.0
H475 H 0.69713 0.60839 0.80255 0.0
H476 H 0.74898 0.63055 0.82358 0.0
H477 H 0.70702 0.69409 0.88828 0.0
H478 H 0.65483 0.67266 0.8669 0.0
H479 H 0.53778 0.5196 0.91045 0.0
H480 H 0.56288 0.54467 0.84949 0.0
H481 H 0.58296 0.62617 0.90969 0.0
H482 H 0.55748 0.60123 0.96977 0.0
H483 H 0.63306 0.61078 0.88414 0.0
H484 H 0.5278 0.63001 0.81633 0.0
H485 H 0.47266 0.6215 0.78761 0.0
H486 H 0.50164 0.55649 0.71374 0.0
H487 H 0.55706 0.56479 0.74186 0.0
C488 C 0.66232 0.69573 0.70379 0.0
C489 C 0.68135 0.67947 0.68284 0.0
C490 C 0.64446 0.67929 0.73314 0.0
C491 C 0.64475 0.64625 0.74138 0.0
C492 C 0.66234 0.62986 0.71879 0.0
C493 C 0.68076 0.64636 0.69002 0.0
C494 C 0.62805 0.62916 0.77546 0.0
C495 C 0.59786 0.61793 0.76424 0.0
C496 C 0.64068 0.62675 0.81917 0.0
C497 C 0.67208 0.63919 0.8327 0.0
C498 C 0.69894 0.6273 0.82088 0.0
C499 C 0.72839 0.63969 0.83293 0.0
C500 C 0.73128 0.66379 0.85713 0.0
C501 C 0.70474 0.67547 0.86946 0.0
C502 C 0.67523 0.6632 0.85741 0.0
C503 C 0.54727 0.54302 0.91022 0.0
C504 C 0.54644 0.55826 0.94523 0.0
C505 C 0.56155 0.55739 0.87538 0.0
C506 C 0.57502 0.58738 0.87484 0.0
C507 C 0.5732 0.60289 0.9094 0.0
C508 C 0.55894 0.58852 0.94406 0.0
C509 C 0.59248 0.60195 0.83968 0.0
C510 C 0.62293 0.613 0.85066 0.0
C511 C 0.57968 0.6049 0.79574 0.0
C512 C 0.54651 0.59777 0.78152 0.0
C513 C 0.5224 0.61358 0.7944 0.0
C514 C 0.49113 0.60904 0.77792 0.0
C515 C 0.48369 0.58864 0.74866 0.0
C516 C 0.50748 0.57243 0.73622 0.0
C517 C 0.53881 0.57709 0.75235 0.0
H518 H 0.45946 0.58532 0.73576 0.0
H519 H 0.7541 0.67336 0.86642 0.0
H520 H 0.87676 0.1919 0.11435 0.0
H521 H 0.90488 0.1589 0.17891 0.0
H522 H 0.82717 0.09473 0.18054 0.0
H523 H 0.79918 0.12818 0.11625 0.0
H524 H 0.84111 0.11197 0.25573 0.0
H525 H 0.90112 0.07048 0.16359 0.0
H526 H 0.93552 0.06842 0.11006 0.0
H527 H 1.00531 0.12113 0.17748 0.0
H528 H 0.97113 0.12324 0.23186 0.0
H529 H 0.94241 0.99665 0.42328 0.0
H530 H 0.91287 0.0176 0.35262 0.0
H531 H 0.9441 0.11126 0.36579 0.0
H532 H 0.97544 0.09027 0.43472 0.0
H533 H 0.95132 0.07377 0.28378 0.0
H534 H 0.8548 0.13651 0.33512 0.0
H535 H 0.82163 0.13154 0.39211 0.0
H536 H 0.82493 0.03073 0.40561 0.0
H537 H 0.85759 0.0352 0.3482 0.0
C538 C 0.86638 0.17011 0.12782 0.0
C539 C 0.83609 0.16227 0.11062 0.0
C540 C 0.8823 0.15131 0.16471 0.0
C541 C 0.86813 0.12428 0.18478 0.0
C542 C 0.83855 0.11549 0.16583 0.0
C543 C 0.8227 0.13433 0.129 0.0
C544 C 0.88268 0.10708 0.22753 0.0
C545 C 0.8651 0.1033 0.26151 0.0
C546 C 0.91408 0.09605 0.23575 0.0
C547 C 0.93349 0.09725 0.20144 0.0
C548 C 0.92359 0.08206 0.1666 0.0
C549 C 0.94318 0.08076 0.1362 0.0
C550 C 0.97268 0.09473 0.14021 0.0
C551 C 0.98248 0.11033 0.17442 0.0
C552 C 0.96304 0.1115 0.20509 0.0
C553 C 0.94304 0.0217 0.41109 0.0
C554 C 0.96101 0.0419 0.43487 0.0
C555 C 0.92584 0.03364 0.37102 0.0
C556 C 0.92576 0.06603 0.35467 0.0
C557 C 0.9434 0.08627 0.3784 0.0
C558 C 0.96109 0.07427 0.41795 0.0
C559 C 0.90969 0.07862 0.31113 0.0
C560 C 0.9272 0.08213 0.27744 0.0
C561 C 0.87824 0.08909 0.30315 0.0
C562 C 0.85892 0.08619 0.33787 0.0
C563 C 0.84841 0.11332 0.35028 0.0
C564 C 0.82961 0.11059 0.38251 0.0
C565 C 0.82113 0.08084 0.40239 0.0
C566 C 0.83154 0.05375 0.39022 0.0
C567 C 0.85025 0.05637 0.35792 0.0
H568 H 0.80656 0.07877 0.42731 0.0
H569 H 0.98815 0.09326 0.11716 0.0
H570 H 0.31899 0.38235 0.47498 0.0
H571 H 0.34612 0.41388 0.52588 0.0
H572 H 0.4051 0.33361 0.58669 0.0
H573 H 0.37836 0.30272 0.53489 0.0
H574 H 0.34557 0.40407 0.60804 0.0
H575 H 0.47407 0.35706 0.63713 0.0
H576 H 0.51192 0.33917 0.59593 0.0
H577 H 0.46366 0.39409 0.48014 0.0
H578 H 0.42583 0.4127 0.5207 0.0
H579 H 0.41844 0.43139 0.80871 0.0
H580 H 0.4018 0.40519 0.74764 0.0
H581 H 0.45638 0.46998 0.67064 0.0
H582 H 0.47422 0.49547 0.7321 0.0
H583 H 0.46016 0.41271 0.65189 0.0
H584 H 0.37769 0.48156 0.6643 0.0
H585 H 0.33954 0.50399 0.70092 0.0
H586 H 0.29531 0.41402 0.72423 0.0
H587 H 0.33348 0.39093 0.68825 0.0
C588 C 0.33856 0.37206 0.49826 0.0
C589 C 0.34728 0.34057 0.50073 0.0
C590 C 0.35379 0.38983 0.52762 0.0
C591 C 0.37784 0.37623 0.56005 0.0
C592 C 0.38711 0.3449 0.56155 0.0
C593 C 0.37195 0.32726 0.53207 0.0
C594 C 0.39128 0.39373 0.59452 0.0
C595 C 0.37064 0.40604 0.61743 0.0
C596 C 0.42398 0.39674 0.60658 0.0
C597 C 0.44694 0.38605 0.58197 0.0
C598 C 0.47162 0.36545 0.60292 0.0
C599 C 0.49307 0.35516 0.57966 0.0
C600 C 0.49015 0.36542 0.53543 0.0
C601 C 0.46584 0.38608 0.51438 0.0
C602 C 0.44436 0.39647 0.53749 0.0
C603 C 0.42747 0.43968 0.7791 0.0
C604 C 0.44747 0.46576 0.7753 0.0
C605 C 0.41765 0.42487 0.74402 0.0
C606 C 0.42734 0.43599 0.70425 0.0
C607 C 0.4484 0.46109 0.70086 0.0
C608 C 0.45835 0.47583 0.73597 0.0
C609 C 0.41442 0.42236 0.66582 0.0
C610 C 0.43511 0.41078 0.64229 0.0
C611 C 0.38173 0.42062 0.65248 0.0
C612 C 0.35861 0.43446 0.67391 0.0
C613 C 0.35995 0.46651 0.67749 0.0
C614 C 0.33831 0.47934 0.6981 0.0
C615 C 0.31506 0.46042 0.71498 0.0
C616 C 0.31335 0.42864 0.71118 0.0
C617 C 0.33497 0.41567 0.69065 0.0
H618 H 0.29832 0.4704 0.73092 0.0
H619 H 0.50675 0.35739 0.51748 0.0
H620 H 0.64618 0.69633 0.58284 0.0
H621 H 0.62111 0.66787 0.52664 0.0
H622 H 0.7062 0.61367 0.53887 0.0
H623 H 0.7308 0.64208 0.59471 0.0
H624 H 0.64031 0.67075 0.45073 0.0
H625 H 0.69073 0.54294 0.51051 0.0
H626 H 0.70161 0.50525 0.57849 0.0
H627 H 0.6329 0.55156 0.63023 0.0
H628 H 0.62119 0.5892 0.56236 0.0
H629 H 0.66896 0.59679 0.28267 0.0
H630 H 0.67138 0.61766 0.34898 0.0
H631 H 0.59651 0.55632 0.38524 0.0
H632 H 0.59441 0.53478 0.31913 0.0
H633 H 0.64309 0.55563 0.45184 0.0
H634 H 0.58169 0.63372 0.35222 0.0
H635 H 0.5673 0.67164 0.28509 0.0
H636 H 0.65022 0.72464 0.31485 0.0
H637 H 0.66537 0.68678 0.38189 0.0
C638 C 0.6589 0.67754 0.57431 0.0
C639 C 0.69015 0.671 0.59296 0.0
C640 C 0.6448 0.66152 0.5421 0.0
C641 C 0.66172 0.63853 0.52859 0.0
C642 C 0.69245 0.6309 0.54911 0.0
C643 C 0.70652 0.64704 0.58096 0.0
C644 C 0.649 0.62491 0.49011 0.0
C645 C 0.64059 0.64556 0.45107 0.0
C646 C 0.64871 0.59201 0.4906 0.0
C647 C 0.65522 0.56904 0.53133 0.0
C648 C 0.67777 0.54497 0.53626 0.0
C649 C 0.68412 0.52362 0.57482 0.0
C650 C 0.668 0.52604 0.60868 0.0
C651 C 0.64543 0.54976 0.60402 0.0
C652 C 0.63896 0.57112 0.56551 0.0
C653 C 0.65309 0.58761 0.3048 0.0
C654 C 0.63152 0.56408 0.29558 0.0
C655 C 0.65429 0.59978 0.34255 0.0
C656 C 0.63389 0.58881 0.37193 0.0
C657 C 0.61238 0.56524 0.36297 0.0
C658 C 0.61106 0.55312 0.32504 0.0
C659 C 0.63581 0.60157 0.41237 0.0
C660 C 0.64226 0.58077 0.45166 0.0
C661 C 0.63379 0.63433 0.41224 0.0
C662 C 0.62475 0.65727 0.372 0.0
C663 C 0.59698 0.65334 0.34432 0.0
C664 C 0.58867 0.67484 0.3063 0.0
C665 C 0.60786 0.70051 0.29568 0.0
C666 C 0.63538 0.70475 0.32311 0.0
C667 C 0.64382 0.68329 0.36117 0.0
H668 H 0.60138 0.71713 0.26623 0.0
H669 H 0.67298 0.50952 0.63852 0.0
H670 H 0.82124 0.13544 0.02777 0.0
H671 H 0.84701 0.11539 0.97432 0.0
H672 H 0.88913 0.20614 0.94244 0.0
H673 H 0.86436 0.22561 0.99673 0.0
H674 H 0.8523 0.18556 0.87204 0.0
H675 H 0.93906 0.14933 0.98161 0.0
H676 H 0.97325 0.12011 0.04411 0.0
H677 H 0.93526 0.03256 0.01446 0.0
H678 H 0.90105 0.06142 0.95128 0.0
H679 H 0.97027 0.16811 0.74749 0.0
H680 H 0.93462 0.17788 0.79603 0.0
H681 H 0.9076 0.08025 0.81223 0.0
H682 H 0.94356 0.07032 0.76369 0.0
H683 H 0.92902 0.09853 0.88725 0.0
H684 H 0.85351 0.13693 0.76681 0.0
H685 H 0.8328 0.1678 0.69607 0.0
H686 H 0.85495 0.25379 0.74352 0.0
H687 H 0.87625 0.22346 0.81441 0.0
C688 C 0.83687 0.15063 1.01026 0.0
C689 C 0.84049 0.18216 0.01567 0.0
C690 C 0.85142 0.13928 0.97966 0.0
C691 C 0.86962 0.15944 0.95397 0.0
C692 C 0.87492 0.19029 0.96155 0.0
C693 C 0.86077 0.20142 0.99244 0.0
C694 C 0.88045 0.14973 0.9164 0.0
C695 C 0.86921 0.16661 0.87534 0.0
C696 C 0.90154 0.12431 0.92042 0.0
C697 C 0.91717 0.10752 0.96226 0.0
C698 C 0.93738 0.12392 0.98912 0.0
C699 C 0.95706 0.10737 0.02434 0.0
C700 C 0.95658 0.07444 0.0331 0.0
C701 C 0.93572 0.05804 1.00747 0.0
C702 C 0.91617 0.07447 0.97198 0.0
C703 C 0.95626 0.14887 0.76077 0.0
C704 C 0.95986 0.1184 0.75219 0.0
C705 C 0.93567 0.15454 0.78818 0.0
C706 C 0.91829 0.12984 0.80763 0.0
C707 C 0.92066 0.09969 0.79739 0.0
C708 C 0.94111 0.09406 0.7696 0.0
C709 C 0.90148 0.1347 0.84302 0.0
C710 C 0.91143 0.11691 0.88369 0.0
C711 C 0.87944 0.15943 0.83855 0.0
C712 C 0.86668 0.17786 0.79593 0.0
C713 C 0.85422 0.16242 0.7621 0.0
C714 C 0.84232 0.17983 0.72197 0.0
C715 C 0.84261 0.21273 0.71529 0.0
C716 C 0.85475 0.2283 0.74875 0.0
C717 C 0.86669 0.211 0.78894 0.0
H718 H 0.83338 0.22617 0.6842 0.0
H719 H 0.97236 0.06157 0.05976 0.0
H720 H 0.3235 0.377 0.40023 0.0
H721 H 0.35335 0.40549 0.34647 0.0
H722 H 0.40952 0.32195 0.35556 0.0
H723 H 0.38029 0.29409 0.41069 0.0
H724 H 0.44519 0.37216 0.34632 0.0
H725 H 0.34656 0.34255 0.27509 0.0
H726 H 0.289 0.33918 0.26045 0.0
H727 H 0.28171 0.44005 0.22825 0.0
H728 H 0.33923 0.44406 0.24343 0.0
H729 H 0.49993 0.4183 0.14525 0.0
H730 H 0.47306 0.38973 0.20235 0.0
H731 H 0.42278 0.47476 0.20527 0.0
H732 H 0.44937 0.50324 0.14807 0.0
H733 H 0.38457 0.42272 0.20753 0.0
H734 H 0.48415 0.4514 0.28017 0.0
H735 H 0.54183 0.45356 0.29347 0.0
H736 H 0.5472 0.35247 0.32085 0.0
H737 H 0.48952 0.34971 0.30708 0.0
C738 C 0.3427 0.36513 0.39128 0.0
C739 C 0.34971 0.33351 0.40917 0.0
C740 C 0.3595 0.38119 0.36028 0.0
C741 C 0.38328 0.36568 0.34616 0.0
C742 C 0.3912 0.3344 0.36564 0.0
C743 C 0.37455 0.31848 0.39695 0.0
C744 C 0.39904 0.38162 0.31008 0.0
C745 C 0.4319 0.38287 0.31584 0.0
C746 C 0.38179 0.39596 0.2703 0.0
C747 C 0.3472 0.39361 0.26082 0.0
C748 C 0.33267 0.36403 0.26519 0.0
C749 C 0.30005 0.362 0.25677 0.0
C750 C 0.28171 0.38939 0.24352 0.0
C751 C 0.29595 0.41886 0.23858 0.0
C752 C 0.32856 0.42102 0.24708 0.0
C753 C 0.48304 0.43077 0.15804 0.0
C754 C 0.47672 0.46292 0.14242 0.0
C755 C 0.46783 0.41452 0.19073 0.0
C756 C 0.44612 0.4302 0.20836 0.0
C757 C 0.43948 0.46222 0.19223 0.0
C758 C 0.45483 0.4785 0.15982 0.0
C759 C 0.43058 0.41345 0.24403 0.0
C760 C 0.39777 0.41199 0.23808 0.0
C761 C 0.44787 0.39872 0.28346 0.0
C762 C 0.48253 0.40035 0.29218 0.0
C763 C 0.49764 0.42963 0.28872 0.0
C764 C 0.53033 0.43096 0.29638 0.0
C765 C 0.54817 0.40317 0.30789 0.0
C766 C 0.53335 0.37398 0.31188 0.0
C767 C 0.50066 0.37252 0.30418 0.0
H768 H 0.57348 0.40424 0.31381 0.0
H769 H 0.25645 0.38777 0.23701 0.0
H770 H 0.15316 0.83524 0.99233 0.0
H771 H 0.11977 0.86584 0.93045 0.0
H772 H 0.20067 0.91671 0.89251 0.0
H773 H 0.23375 0.88666 0.95524 0.0
H774 H 0.1476 0.95442 0.87309 0.0
H775 H 0.17923 0.85174 0.8538 0.0
H776 H 0.18454 0.79388 0.87235 0.0
H777 H 0.08448 0.78544 0.85927 0.0
H778 H 0.07859 0.84332 0.84124 0.0
H779 H 0.10187 0.99225 0.64717 0.0
H780 H 0.12973 0.96949 0.7182 0.0
H781 H 0.04464 0.92486 0.75156 0.0
H782 H 0.01676 0.94747 0.68052 0.0
H783 H 0.0974 0.88503 0.77484 0.0
H784 H 0.06572 0.98797 0.78942 0.0
H785 H 0.06076 0.04571 0.76867 0.0
H786 H 0.16092 0.05384 0.78883 0.0
H787 H 0.1665 0.99603 0.80906 0.0
C788 C 0.16346 0.85379 0.9716 0.0
C789 C 0.19589 0.85861 0.97807 0.0
C790 C 0.14452 0.87104 0.93611 0.0
C791 C 0.15787 0.89309 0.90639 0.0
C792 C 0.1899 0.89972 0.91488 0.0
C793 C 0.20878 0.88253 0.95047 0.0
C794 C 0.13941 0.90644 0.86427 0.0
C795 C 0.13678 0.93928 0.85151 0.0
C796 C 0.12499 0.88666 0.83625 0.0
C797 C 0.12848 0.85186 0.84664 0.0
C798 C 0.15837 0.83755 0.85518 0.0
C799 C 0.16148 0.80476 0.86557 0.0
C800 C 0.13487 0.786 0.86712 0.0
C801 C 0.10508 0.8 0.85814 0.0
C802 C 0.10183 0.83279 0.84782 0.0
C803 C 0.08926 0.97735 0.66957 0.0
C804 C 0.05725 0.97154 0.65853 0.0
C805 C 0.10509 0.96457 0.71016 0.0
C806 C 0.08913 0.94577 0.74023 0.0
C807 C 0.05731 0.9394 0.72885 0.0
C808 C 0.04143 0.95241 0.68844 0.0
C809 C 0.10556 0.93295 0.78372 0.0
C810 C 0.10795 0.90018 0.7966 0.0
C811 C 0.11977 0.9528 0.81169 0.0
C812 C 0.11653 0.98763 0.80039 0.0
C813 C 0.0867 1.00204 0.78914 0.0
C814 C 0.08377 0.03479 0.7775 0.0
C815 C 0.11051 0.05343 0.77731 0.0
C816 C 0.14023 0.03936 0.78894 0.0
C817 C 0.14329 0.0066 0.80054 0.0
H818 H 0.1082 0.07878 0.76824 0.0
H819 H 0.13733 0.76062 0.87518 0.0
loop_
_geom_bond_atom_site_label_1
_geom_bond_atom_site_label_2
_geom_bond_distance
_geom_bond_site_symmetry_2
_ccdc_geom_bond_type
C0 N1 1.317 1_556 S
C0 N2 1.348 1_556 S
C0 C3 1.485 . S
N1 C0 1.317 1_554 S
N1 N5 1.370 . S
N2 C0 1.348 1_554 S
N2 C4 1.346 . S
C3 C0 1.485 . S
C3 H7 0.960 . S
C3 H8 0.961 . S
C3 H9 0.960 . S
C4 N2 1.346 . S
C4 N5 1.307 . S
C4 C6 1.486 . S
N5 N1 1.370 . S
N5 C4 1.307 . S
C6 C4 1.486 . S
C6 H10 0.960 . S
C6 H11 0.960 . S
C6 H12 0.959 . S
H7 C3 0.960 . S
H8 C3 0.961 . S
H9 C3 0.960 . S
H10 C6 0.960 . S
H11 C6 0.960 . S
H12 C6 0.959 . S
C13 N14 1.317 . S
C13 N15 1.348 . S
C13 C16 1.485 . S
N14 C13 1.317 . S
N14 N18 1.370 . S
N15 C13 1.348 . S
N15 C17 1.346 . S
C16 C13 1.485 . S
C16 H20 0.960 . S
C16 H21 0.961 . S
C16 H22 0.960 . S
C17 N15 1.346 . S
C17 N18 1.307 . S
C17 C19 1.486 . S
N18 N14 1.370 . S
N18 C17 1.307 . S
C19 C17 1.486 . S
C19 H23 0.960 . S
C19 H24 0.960 . S
C19 H25 0.959 . S
H20 C16 0.960 . S
H21 C16 0.961 . S
H22 C16 0.960 . S
H23 C19 0.960 . S
H24 C19 0.960 . S
H25 C19 0.959 . S
C26 N27 1.317 . S
C26 N28 1.348 . S
C26 C29 1.485 . S
N27 C26 1.317 . S
N27 N31 1.370 . S
N28 C26 1.348 . S
N28 C30 1.346 . S
C29 C26 1.485 . S
C29 H33 0.960 . S
C29 H34 0.961 . S
C29 H35 0.960 . S
C30 N28 1.346 . S
C30 N31 1.307 . S
C30 C32 1.486 1_554 S
N31 N27 1.370 . S
N31 C30 1.307 . S
C32 C30 1.486 1_556 S
C32 H36 0.960 . S
C32 H37 0.960 . S
C32 H38 0.959 . S
H33 C29 0.960 . S
H34 C29 0.961 . S
H35 C29 0.960 . S
H36 C32 0.960 . S
H37 C32 0.960 . S
H38 C32 0.959 . S
C39 N40 1.317 . S
C39 N41 1.348 . S
C39 C42 1.485 . S
N40 C39 1.317 . S
N40 N44 1.370 . S
N41 C39 1.348 . S
N41 C43 1.346 . S
C42 C39 1.485 . S
C42 H46 0.960 . S
C42 H47 0.961 . S
C42 H48 0.960 . S
C43 N41 1.346 . S
C43 N44 1.307 . S
C43 C45 1.486 . S
N44 N40 1.370 . S
N44 C43 1.307 . S
C45 C43 1.486 . S
C45 H49 0.960 . S
C45 H50 0.960 . S
C45 H51 0.959 . S
H46 C42 0.960 . S
H47 C42 0.961 . S
H48 C42 0.960 . S
H49 C45 0.960 . S
H50 C45 0.960 . S
H51 C45 0.959 . S
C52 C54 1.422 . S
C52 C56 1.415 . S
C52 N58 1.369 . S
C53 C54 1.421 . S
C53 C55 1.417 . S
C53 C65 1.422 . S
C54 C52 1.422 . S
C54 C53 1.421 . S
C54 N64 1.359 . S
C55 C53 1.417 . S
C55 C57 1.329 . S
C55 H74 0.930 . S
C56 C52 1.415 . S
C56 C57 1.437 . S
C56 C60 1.413 . S
C57 C55 1.329 . S
C57 C56 1.437 . S
C57 H79 0.929 . S
N58 C52 1.369 . S
N58 C59 1.338 1_655 S
N58 Gd63 2.622 . S
C59 N58 1.338 1_455 S
C59 C61 1.378 . S
C59 H71 0.929 . S
C60 C56 1.413 . S
C60 C61 1.348 1_655 S
C60 H76 0.931 . S
C61 C59 1.378 . S
C61 C60 1.348 1_455 S
C61 H77 0.930 . S
Gd62 N82 2.622 . S
Gd62 N89 2.570 . S
Gd62 O96 2.353 1_465 S
Gd62 O97 2.468 . S
Gd62 O98 2.427 . S
Gd62 O100 2.388 1_455 S
Gd62 O101 2.386 . S
Gd62 O105 2.307 1_565 S
Gd62 C115 2.805 . S
Gd63 N58 2.622 . S
Gd63 N64 2.570 . S
Gd63 O95 2.386 . S
Gd63 O99 2.307 1_545 S
Gd63 O102 2.353 1_655 S
Gd63 O103 2.468 . S
Gd63 O104 2.427 . S
Gd63 O106 2.388 1_655 S
Gd63 C127 2.805 . S
N64 C54 1.359 . S
N64 Gd63 2.570 . S
N64 C66 1.343 . S
C65 C53 1.422 . S
C65 C67 1.321 . S
C65 H73 0.931 . S
C66 N64 1.343 . S
C66 C67 1.390 . S
C66 H68 0.931 . S
C67 C65 1.321 . S
C67 C66 1.390 . S
C67 H69 0.930 . S
H68 C66 0.931 . S
H69 C67 0.930 . S
H70 C93 0.931 . S
H71 C59 0.929 . S
H72 C94 0.930 . S
H73 C65 0.931 . S
H74 C55 0.930 . S
H75 C84 0.929 1_655 S
H76 C60 0.931 . S
H77 C61 0.930 . S
H78 C116 0.930 . S
H79 C57 0.929 . S
H80 C85 0.931 . S
H81 C86 0.930 1_655 S
N82 Gd62 2.622 . S
N82 C83 1.369 . S
N82 C84 1.338 . S
C83 N82 1.369 . S
C83 C87 1.415 . S
C83 C90 1.422 . S
C84 H75 0.929 1_455 S
C84 N82 1.338 . S
C84 C86 1.378 . S
C85 H80 0.931 . S
C85 C86 1.348 . S
C85 C87 1.413 . S
C86 H81 0.930 1_455 S
C86 C84 1.378 . S
C86 C85 1.348 . S
C87 C83 1.415 . S
C87 C85 1.413 . S
C87 C117 1.437 . S
H88 C117 0.929 . S
N89 Gd62 2.570 . S
N89 C90 1.359 . S
N89 C93 1.343 . S
C90 C83 1.422 . S
C90 N89 1.359 . S
C90 C92 1.421 . S
C91 C92 1.422 . S
C91 C94 1.321 . S
C91 H118 0.931 . S
C92 C90 1.421 . S
C92 C91 1.422 . S
C92 C116 1.417 . S
C93 H70 0.931 . S
C93 N89 1.343 . S
C93 C94 1.390 . S
C94 H72 0.930 . S
C94 C91 1.321 . S
C94 C93 1.390 . S
O95 Gd63 2.386 . S
O95 C107 1.265 . S
O96 Gd62 2.353 1_645 S
O96 C107 1.242 . S
O97 Gd62 2.468 . S
O97 C115 1.263 . S
O98 Gd62 2.427 . S
O98 C115 1.252 . S
O99 Gd63 2.307 1_565 S
O99 C108 1.261 . S
O100 Gd62 2.388 1_655 S
O100 C108 1.252 . S
O101 Gd62 2.386 . S
O101 C119 1.265 . S
O102 Gd63 2.353 1_455 S
O102 C119 1.242 1_545 S
O103 Gd63 2.468 . S
O103 C127 1.263 . S
O104 Gd63 2.427 . S
O104 C127 1.252 . S
O105 Gd62 2.307 1_545 S
O105 C120 1.261 . S
O106 Gd63 2.388 1_455 S
O106 C120 1.252 . S
C107 O95 1.265 . S
C107 O96 1.242 . S
C108 O99 1.261 . S
C108 O100 1.252 . S
C109 C112 1.394 . S
C109 C114 1.370 . S
C109 C115 1.500 . S
C110 C113 1.383 . S
C110 C114 1.395 . S
C111 C112 1.396 . S
C111 C113 1.365 . S
C111 H128 0.929 . S
C112 C109 1.394 . S
C112 C111 1.396 . S
C112 H129 0.930 . S
C113 C110 1.383 . S
C113 C111 1.365 . S
C113 H130 0.931 . S
C114 C109 1.370 . S
C114 C110 1.395 . S
C114 H131 0.930 . S
C115 Gd62 2.805 . S
C115 O97 1.263 . S
C115 O98 1.252 . S
C115 C109 1.500 . S
C116 H78 0.930 . S
C116 C92 1.417 . S
C116 C117 1.329 . S
C117 C87 1.437 . S
C117 H88 0.929 . S
C117 C116 1.329 . S
H118 C91 0.931 . S
C119 O101 1.265 . S
C119 O102 1.242 1_565 S
C120 O105 1.261 . S
C120 O106 1.252 . S
C121 C124 1.394 . S
C121 C126 1.370 . S
C121 C127 1.500 . S
C122 C125 1.383 . S
C122 C126 1.395 . S
C123 C124 1.396 . S
C123 C125 1.365 . S
C123 H132 0.929 . S
C124 C121 1.394 . S
C124 C123 1.396 . S
C124 H133 0.930 . S
C125 C122 1.383 . S
C125 C123 1.365 . S
C125 H134 0.931 . S
C126 C121 1.370 . S
C126 C122 1.395 . S
C126 H135 0.930 . S
C127 Gd63 2.805 . S
C127 O103 1.263 . S
C127 O104 1.252 . S
C127 C121 1.500 . S
H128 C111 0.929 . S
H129 C112 0.930 . S
H130 C113 0.931 . S
H131 C114 0.930 . S
H132 C123 0.929 . S
H133 C124 0.930 . S
H134 C125 0.931 . S
H135 C126 0.930 . S
C136 C138 1.422 . S
C136 C140 1.415 . S
C136 N142 1.369 . S
C137 C138 1.421 . S
C137 C139 1.417 . S
C137 C149 1.422 . S
C138 C136 1.422 . S
C138 C137 1.421 . S
C138 N148 1.359 . S
C139 C137 1.417 . S
C139 C141 1.329 . S
C139 H158 0.930 . S
C140 C136 1.415 . S
C140 C141 1.437 . S
C140 C144 1.413 . S
C141 C139 1.329 . S
C141 C140 1.437 . S
C141 H163 0.929 . S
N142 C136 1.369 . S
N142 C143 1.338 . S
N142 Gd147 2.622 . S
C143 N142 1.338 . S
C143 C145 1.378 . S
C143 H155 0.929 . S
C144 C140 1.413 . S
C144 C145 1.348 . S
C144 H160 0.931 . S
C145 C143 1.378 . S
C145 C144 1.348 . S
C145 H161 0.930 . S
Gd146 N166 2.622 . S
Gd146 N173 2.570 1_556 S
Gd146 O180 2.353 . S
Gd146 O181 2.468 . S
Gd146 O182 2.427 . S
Gd146 O184 2.389 . S
Gd146 O185 2.386 1_556 S
Gd146 O189 2.307 1_556 S
Gd146 C199 2.805 . S
Gd147 N142 2.622 . S
Gd147 N148 2.570 . S
Gd147 O179 2.386 1_554 S
Gd147 O183 2.307 . S
Gd147 O186 2.353 . S
Gd147 O187 2.468 . S
Gd147 O188 2.427 . S
Gd147 O190 2.388 . S
Gd147 C211 2.805 . S
N148 C138 1.359 . S
N148 Gd147 2.570 . S
N148 C150 1.343 . S
C149 C137 1.422 . S
C149 C151 1.321 . S
C149 H157 0.931 . S
C150 N148 1.343 . S
C150 C151 1.390 . S
C150 H152 0.931 . S
C151 C149 1.321 . S
C151 C150 1.390 . S
C151 H153 0.930 . S
H152 C150 0.931 . S
H153 C151 0.930 . S
H154 C177 0.931 . S
H155 C143 0.929 . S
H156 C178 0.930 . S
H157 C149 0.931 . S
H158 C139 0.930 . S
H159 C168 0.929 . S
H160 C144 0.931 . S
H161 C145 0.930 . S
H162 C200 0.930 . S
H163 C141 0.929 . S
H164 C169 0.931 . S
H165 C170 0.930 . S
N166 Gd146 2.622 . S
N166 C167 1.369 1_556 S
N166 C168 1.338 . S
C167 N166 1.369 1_554 S
C167 C171 1.415 . S
C167 C174 1.422 . S
C168 H159 0.929 . S
C168 N166 1.338 . S
C168 C170 1.378 . S
C169 H164 0.931 . S
C169 C170 1.348 1_554 S
C169 C171 1.413 . S
C170 H165 0.930 . S
C170 C168 1.378 . S
C170 C169 1.348 1_556 S
C171 C167 1.415 . S
C171 C169 1.413 . S
C171 C201 1.437 . S
H172 C201 0.929 . S
N173 Gd146 2.570 1_554 S
N173 C174 1.359 . S
N173 C177 1.343 . S
C174 C167 1.422 . S
C174 N173 1.359 . S
C174 C176 1.421 . S
C175 C176 1.422 . S
C175 C178 1.321 . S
C175 H202 0.931 . S
C176 C174 1.421 . S
C176 C175 1.422 . S
C176 C200 1.417 . S
C177 H154 0.931 . S
C177 N173 1.343 . S
C177 C178 1.390 . S
C178 H156 0.930 . S
C178 C175 1.321 . S
C178 C177 1.390 . S
O179 Gd147 2.386 1_556 S
O179 C191 1.265 . S
O180 Gd146 2.353 . S
O180 C191 1.242 . S
O181 Gd146 2.468 . S
O181 C199 1.263 . S
O182 Gd146 2.427 . S
O182 C199 1.252 . S
O183 Gd147 2.307 . S
O183 C192 1.261 . S
O184 Gd146 2.389 . S
O184 C192 1.249 1_556 S
O185 Gd146 2.386 1_554 S
O185 C203 1.265 . S
O186 Gd147 2.353 . S
O186 C203 1.242 . S
O187 Gd147 2.468 . S
O187 C211 1.263 . S
O188 Gd147 2.427 . S
O188 C211 1.252 . S
O189 Gd146 2.307 1_554 S
O189 C204 1.261 . S
O190 Gd147 2.388 . S
O190 C204 1.252 . S
C191 O179 1.265 . S
C191 O180 1.242 . S
C192 O183 1.261 . S
C192 O184 1.249 1_554 S
C193 C196 1.394 . S
C193 C198 1.370 . S
C193 C199 1.500 . S
C194 C197 1.383 . S
C194 C198 1.395 . S
C195 C196 1.396 . S
C195 C197 1.365 . S
C195 H212 0.929 . S
C196 C193 1.394 . S
C196 C195 1.396 . S
C196 H213 0.930 . S
C197 C194 1.383 . S
C197 C195 1.365 . S
C197 H214 0.931 . S
C198 C193 1.370 . S
C198 C194 1.395 . S
C198 H215 0.930 . S
C199 Gd146 2.805 . S
C199 O181 1.263 . S
C199 O182 1.252 . S
C199 C193 1.500 . S
C200 H162 0.930 . S
C200 C176 1.417 . S
C200 C201 1.329 . S
C201 C171 1.437 . S
C201 H172 0.929 . S
C201 C200 1.329 . S
H202 C175 0.931 . S
C203 O185 1.265 . S
C203 O186 1.242 . S
C204 O189 1.261 . S
C204 O190 1.252 . S
C205 C208 1.394 . S
C205 C210 1.370 . S
C205 C211 1.500 . S
C206 C209 1.383 . S
C206 C210 1.395 . S
C207 C208 1.396 . S
C207 C209 1.365 . S
C207 H216 0.929 . S
C208 C205 1.394 . S
C208 C207 1.396 . S
C208 H217 0.930 . S
C209 C206 1.383 . S
C209 C207 1.365 . S
C209 H218 0.931 . S
C210 C205 1.370 . S
C210 C206 1.395 . S
C210 H219 0.930 . S
C211 Gd147 2.805 . S
C211 O187 1.263 . S
C211 O188 1.252 . S
C211 C205 1.500 . S
H212 C195 0.929 . S
H213 C196 0.930 . S
H214 C197 0.931 . S
H215 C198 0.930 . S
H216 C207 0.929 . S
H217 C208 0.930 . S
H218 C209 0.931 . S
H219 C210 0.930 . S
H220 C238 0.951 . S
H221 C240 0.951 . S
H222 C242 0.950 . S
H223 C243 0.950 . S
H224 C245 0.950 . S
H225 C248 0.950 . S
H226 C249 0.950 . S
H227 C251 0.950 . S
H228 C252 0.950 . S
H229 C253 0.951 . S
H230 C255 0.951 . S
H231 C257 0.950 . S
H232 C258 0.950 . S
H233 C260 0.950 . S
H234 C263 0.950 . S
H235 C264 0.950 . S
H236 C266 0.950 . S
H237 C267 0.950 . S
C238 H220 0.951 . S
C238 C239 1.366 . S
C238 C240 1.388 . S
C239 C238 1.366 . S
C239 C243 1.385 . S
C240 H221 0.951 . S
C240 C238 1.388 . S
C240 C241 1.366 . S
C241 C240 1.366 . S
C241 C242 1.414 . S
C241 C244 1.499 . S
C242 H222 0.950 . S
C242 C241 1.414 . S
C242 C243 1.374 . S
C243 H223 0.950 . S
C243 C239 1.385 . S
C243 C242 1.374 . S
C244 C241 1.499 . S
C244 C245 1.373 . S
C244 C246 1.389 . S
C245 H224 0.950 . S
C245 C244 1.373 . S
C245 C261 1.377 . S
C246 C244 1.389 . S
C246 C247 1.524 . S
C246 C260 1.377 . S
C247 C246 1.524 . S
C247 C248 1.397 . S
C247 C252 1.363 . S
C248 H225 0.950 . S
C248 C247 1.397 . S
C248 C249 1.334 . S
C249 H226 0.950 . S
C249 C248 1.334 . S
C249 C250 1.287 . S
C250 C249 1.287 . S
C250 C251 1.524 . S
C250 H269 0.913 . S
C251 H227 0.950 . S
C251 C250 1.524 . S
C251 C252 1.415 . S
C252 H228 0.950 . S
C252 C247 1.363 . S
C252 C251 1.415 . S
C253 H229 0.951 . S
C253 C254 1.366 . S
C253 C255 1.388 . S
C254 C253 1.366 . S
C254 C258 1.385 . S
C255 H230 0.951 . S
C255 C253 1.388 . S
C255 C256 1.366 . S
C256 C255 1.366 . S
C256 C257 1.414 . S
C256 C259 1.499 . S
C257 H231 0.950 . S
C257 C256 1.414 . S
C257 C258 1.374 . S
C258 H232 0.950 . S
C258 C254 1.385 . S
C258 C257 1.374 . S
C259 C256 1.499 . S
C259 C260 1.373 . S
C259 C261 1.389 . S
C260 H233 0.950 . S
C260 C246 1.377 . S
C260 C259 1.373 . S
C261 C245 1.377 . S
C261 C259 1.389 . S
C261 C262 1.524 . S
C262 C261 1.524 . S
C262 C263 1.397 . S
C262 C267 1.363 . S
C263 H234 0.950 . S
C263 C262 1.397 . S
C263 C264 1.334 . S
C264 H235 0.950 . S
C264 C263 1.334 . S
C264 C265 1.287 . S
C265 C264 1.287 . S
C265 C266 1.524 . S
C265 H268 0.999 . S
C266 H236 0.950 . S
C266 C265 1.524 . S
C266 C267 1.415 . S
C267 H237 0.950 . S
C267 C262 1.363 . S
C267 C266 1.415 . S
H268 C265 0.999 . S
H269 C250 0.913 . S
H270 C288 0.951 . S
H271 C290 0.951 . S
H272 C292 0.950 . S
H273 C293 0.950 . S
H274 C295 0.950 . S
H275 C298 0.950 . S
H276 C299 0.950 . S
H277 C301 0.950 . S
H278 C302 0.950 1_554 S
H279 C303 0.951 . S
H280 C305 0.951 . S
H281 C307 0.950 . S
H282 C308 0.950 . S
H283 C310 0.950 . S
H284 C313 0.950 . S
H285 C314 0.950 . S
H286 C316 0.950 . S
H287 C317 0.950 . S
C288 H270 0.951 . S
C288 C289 1.366 . S
C288 C290 1.388 . S
C289 C288 1.366 . S
C289 C293 1.385 . S
C290 H271 0.951 . S
C290 C288 1.388 . S
C290 C291 1.366 . S
C291 C290 1.366 . S
C291 C292 1.414 . S
C291 C294 1.499 . S
C292 H272 0.950 . S
C292 C291 1.414 . S
C292 C293 1.374 . S
C293 H273 0.950 . S
C293 C289 1.385 . S
C293 C292 1.374 . S
C294 C291 1.499 . S
C294 C295 1.373 . S
C294 C296 1.389 . S
C295 H274 0.950 . S
C295 C294 1.373 . S
C295 C311 1.377 . S
C296 C294 1.389 . S
C296 C297 1.524 1_554 S
C296 C310 1.377 . S
C297 C296 1.524 1_556 S
C297 C298 1.397 . S
C297 C302 1.363 . S
C298 H275 0.950 . S
C298 C297 1.397 . S
C298 C299 1.334 . S
C299 H276 0.950 . S
C299 C298 1.334 . S
C299 C300 1.287 . S
C300 C299 1.287 . S
C300 C301 1.524 . S
C300 H319 0.913 . S
C301 H277 0.950 . S
C301 C300 1.524 . S
C301 C302 1.415 . S
C302 H278 0.950 1_556 S
C302 C297 1.363 . S
C302 C301 1.415 . S
C303 H279 0.951 . S
C303 C304 1.366 . S
C303 C305 1.388 . S
C304 C303 1.366 . S
C304 C308 1.385 . S
C305 H280 0.951 . S
C305 C303 1.388 . S
C305 C306 1.366 . S
C306 C305 1.366 . S
C306 C307 1.414 . S
C306 C309 1.499 . S
C307 H281 0.950 . S
C307 C306 1.414 . S
C307 C308 1.374 . S
C308 H282 0.950 . S
C308 C304 1.385 . S
C308 C307 1.374 . S
C309 C306 1.499 . S
C309 C310 1.373 . S
C309 C311 1.389 . S
C310 H283 0.950 . S
C310 C296 1.377 . S
C310 C309 1.373 . S
C311 C295 1.377 . S
C311 C309 1.389 . S
C311 C312 1.524 . S
C312 C311 1.524 . S
C312 C313 1.397 . S
C312 C317 1.363 . S
C313 H284 0.950 . S
C313 C312 1.397 . S
C313 C314 1.334 . S
C314 H285 0.950 . S
C314 C313 1.334 . S
C314 C315 1.287 . S
C315 C314 1.287 . S
C315 C316 1.524 . S
C315 H318 0.999 . S
C316 H286 0.950 . S
C316 C315 1.524 . S
C316 C317 1.415 . S
C317 H287 0.950 . S
C317 C312 1.363 . S
C317 C316 1.415 . S
H318 C315 0.999 . S
H319 C300 0.913 . S
H320 C338 0.951 . S
H321 C340 0.951 . S
H322 C342 0.950 . S
H323 C343 0.950 . S
H324 C345 0.950 . S
H325 C348 0.950 . S
H326 C349 0.950 . S
H327 C351 0.950 . S
H328 C352 0.950 . S
H329 C353 0.951 . S
H330 C355 0.951 . S
H331 C357 0.950 . S
H332 C358 0.950 . S
H333 C360 0.950 . S
H334 C363 0.950 . S
H335 C364 0.950 . S
H336 C366 0.950 . S
H337 C367 0.950 . S
C338 H320 0.951 . S
C338 C339 1.366 . S
C338 C340 1.388 . S
C339 C338 1.366 . S
C339 C343 1.385 . S
C340 H321 0.951 . S
C340 C338 1.388 . S
C340 C341 1.366 . S
C341 C340 1.366 . S
C341 C342 1.414 . S
C341 C344 1.499 . S
C342 H322 0.950 . S
C342 C341 1.414 . S
C342 C343 1.374 . S
C343 H323 0.950 . S
C343 C339 1.385 . S
C343 C342 1.374 . S
C344 C341 1.499 . S
C344 C345 1.373 . S
C344 C346 1.389 . S
C345 H324 0.950 . S
C345 C344 1.373 . S
C345 C361 1.377 . S
C346 C344 1.389 . S
C346 C347 1.524 . S
C346 C360 1.377 . S
C347 C346 1.524 . S
C347 C348 1.397 . S
C347 C352 1.363 . S
C348 H325 0.950 . S
C348 C347 1.397 . S
C348 C349 1.334 . S
C349 H326 0.950 . S
C349 C348 1.334 . S
C349 C350 1.287 . S
C350 C349 1.287 . S
C350 C351 1.524 . S
C350 H369 0.913 . S
C351 H327 0.950 . S
C351 C350 1.524 . S
C351 C352 1.415 . S
C352 H328 0.950 . S
C352 C347 1.363 . S
C352 C351 1.415 . S
C353 H329 0.951 . S
C353 C354 1.366 . S
C353 C355 1.388 . S
C354 C353 1.366 . S
C354 C358 1.385 . S
C355 H330 0.951 . S
C355 C353 1.388 . S
C355 C356 1.366 . S
C356 C355 1.366 . S
C356 C357 1.414 . S
C356 C359 1.499 . S
C357 H331 0.950 . S
C357 C356 1.414 . S
C357 C358 1.374 . S
C358 H332 0.950 . S
C358 C354 1.385 . S
C358 C357 1.374 . S
C359 C356 1.499 . S
C359 C360 1.373 . S
C359 C361 1.389 . S
C360 H333 0.950 . S
C360 C346 1.377 . S
C360 C359 1.373 . S
C361 C345 1.377 . S
C361 C359 1.389 . S
C361 C362 1.524 . S
C362 C361 1.524 . S
C362 C363 1.397 . S
C362 C367 1.363 . S
C363 H334 0.950 . S
C363 C362 1.397 . S
C363 C364 1.334 . S
C364 H335 0.950 . S
C364 C363 1.334 . S
C364 C365 1.287 . S
C365 C364 1.287 . S
C365 C366 1.524 . S
C365 H368 0.999 . S
C366 H336 0.950 . S
C366 C365 1.524 . S
C366 C367 1.415 . S
C367 H337 0.950 . S
C367 C362 1.363 . S
C367 C366 1.415 . S
H368 C365 0.999 . S
H369 C350 0.913 . S
H370 C388 0.951 . S
H371 C390 0.951 . S
H372 C392 0.950 . S
H373 C393 0.950 . S
H374 C395 0.950 . S
H375 C398 0.950 . S
H376 C399 0.950 . S
H377 C401 0.950 . S
H378 C402 0.950 . S
H379 C403 0.951 . S
H380 C405 0.951 . S
H381 C407 0.950 . S
H382 C408 0.950 . S
H383 C410 0.950 . S
H384 C413 0.950 . S
H385 C414 0.950 . S
H386 C416 0.950 . S
H387 C417 0.950 . S
C388 H370 0.951 . S
C388 C389 1.366 . S
C388 C390 1.388 . S
C389 C388 1.366 . S
C389 C393 1.385 . S
C390 H371 0.951 . S
C390 C388 1.388 . S
C390 C391 1.366 . S
C391 C390 1.366 . S
C391 C392 1.414 . S
C391 C394 1.499 . S
C392 H372 0.950 . S
C392 C391 1.414 . S
C392 C393 1.374 . S
C393 H373 0.950 . S
C393 C389 1.385 . S
C393 C392 1.374 . S
C394 C391 1.499 . S
C394 C395 1.373 1_554 S
C394 C396 1.389 . S
C395 H374 0.950 . S
C395 C394 1.373 1_556 S
C395 C411 1.377 . S
C396 C394 1.389 . S
C396 C397 1.524 . S
C396 C410 1.377 . S
C397 C396 1.524 . S
C397 C398 1.397 . S
C397 C402 1.363 . S
C398 H375 0.950 . S
C398 C397 1.397 . S
C398 C399 1.334 . S
C399 H376 0.950 . S
C399 C398 1.334 . S
C399 C400 1.287 . S
C400 C399 1.287 . S
C400 C401 1.524 . S
C400 H419 0.913 . S
C401 H377 0.950 . S
C401 C400 1.524 . S
C401 C402 1.415 . S
C402 H378 0.950 . S
C402 C397 1.363 . S
C402 C401 1.415 . S
C403 H379 0.951 . S
C403 C404 1.366 . S
C403 C405 1.388 . S
C404 C403 1.366 . S
C404 C408 1.385 . S
C405 H380 0.951 . S
C405 C403 1.388 . S
C405 C406 1.366 . S
C406 C405 1.366 . S
C406 C407 1.414 . S
C406 C409 1.499 . S
C407 H381 0.950 . S
C407 C406 1.414 . S
C407 C408 1.374 . S
C408 H382 0.950 . S
C408 C404 1.385 . S
C408 C407 1.374 . S
C409 C406 1.499 . S
C409 C410 1.373 . S
C409 C411 1.389 1_554 S
C410 H383 0.950 . S
C410 C396 1.377 . S
C410 C409 1.373 . S
C411 C395 1.377 . S
C411 C409 1.389 1_556 S
C411 C412 1.524 . S
C412 C411 1.524 . S
C412 C413 1.397 . S
C412 C417 1.363 . S
C413 H384 0.950 . S
C413 C412 1.397 . S
C413 C414 1.334 . S
C414 H385 0.950 . S
C414 C413 1.334 . S
C414 C415 1.287 . S
C415 C414 1.287 . S
C415 C416 1.524 . S
C415 H418 0.999 . S
C416 H386 0.950 . S
C416 C415 1.524 . S
C416 C417 1.415 . S
C417 H387 0.950 . S
C417 C412 1.363 . S
C417 C416 1.415 . S
H418 C415 0.999 . S
H419 C400 0.913 . S
H420 C438 0.951 . S
H421 C440 0.951 . S
H422 C442 0.950 . S
H423 C443 0.950 . S
H424 C445 0.950 . S
H425 C448 0.950 . S
H426 C449 0.950 . S
H427 C451 0.950 . S
H428 C452 0.950 . S
H429 C453 0.951 . S
H430 C455 0.951 . S
H431 C457 0.950 . S
H432 C458 0.950 . S
H433 C460 0.950 . S
H434 C463 0.950 . S
H435 C464 0.950 . S
H436 C466 0.950 . S
H437 C467 0.950 . S
C438 H420 0.951 . S
C438 C439 1.366 . S
C438 C440 1.388 . S
C439 C438 1.366 . S
C439 C443 1.385 . S
C440 H421 0.951 . S
C440 C438 1.388 . S
C440 C441 1.366 . S
C441 C440 1.366 . S
C441 C442 1.414 . S
C441 C444 1.499 . S
C442 H422 0.950 . S
C442 C441 1.414 . S
C442 C443 1.374 . S
C443 H423 0.950 . S
C443 C439 1.385 . S
C443 C442 1.374 . S
C444 C441 1.499 . S
C444 C445 1.373 . S
C444 C446 1.389 . S
C445 H424 0.950 . S
C445 C444 1.373 . S
C445 C461 1.377 . S
C446 C444 1.389 . S
C446 C447 1.524 . S
C446 C460 1.377 . S
C447 C446 1.524 . S
C447 C448 1.397 . S
C447 C452 1.363 . S
C448 H425 0.950 . S
C448 C447 1.397 . S
C448 C449 1.334 . S
C449 H426 0.950 . S
C449 C448 1.334 . S
C449 C450 1.287 . S
C450 C449 1.287 . S
C450 C451 1.524 . S
C450 H469 0.913 1_565 S
C451 H427 0.950 . S
C451 C450 1.524 . S
C451 C452 1.415 . S
C452 H428 0.950 . S
C452 C447 1.363 . S
C452 C451 1.415 . S
C453 H429 0.951 . S
C453 C454 1.366 . S
C453 C455 1.388 . S
C454 C453 1.366 . S
C454 C458 1.385 . S
C455 H430 0.951 . S
C455 C453 1.388 . S
C455 C456 1.366 . S
C456 C455 1.366 . S
C456 C457 1.414 . S
C456 C459 1.499 . S
C457 H431 0.950 . S
C457 C456 1.414 . S
C457 C458 1.374 . S
C458 H432 0.950 . S
C458 C454 1.385 . S
C458 C457 1.374 . S
C459 C456 1.499 . S
C459 C460 1.373 . S
C459 C461 1.389 . S
C460 H433 0.950 . S
C460 C446 1.377 . S
C460 C459 1.373 . S
C461 C445 1.377 . S
C461 C459 1.389 . S
C461 C462 1.524 . S
C462 C461 1.524 . S
C462 C463 1.397 . S
C462 C467 1.363 . S
C463 H434 0.950 . S
C463 C462 1.397 . S
C463 C464 1.334 . S
C464 H435 0.950 . S
C464 C463 1.334 . S
C464 C465 1.287 . S
C465 C464 1.287 . S
C465 C466 1.524 . S
C465 H468 0.999 . S
C466 H436 0.950 . S
C466 C465 1.524 . S
C466 C467 1.415 . S
C467 H437 0.950 . S
C467 C462 1.363 . S
C467 C466 1.415 . S
H468 C465 0.999 . S
H469 C450 0.913 1_545 S
H470 C488 0.951 . S
H471 C490 0.951 . S
H472 C492 0.950 . S
H473 C493 0.950 . S
H474 C495 0.950 . S
H475 C498 0.950 . S
H476 C499 0.950 . S
H477 C501 0.950 . S
H478 C502 0.950 . S
H479 C503 0.951 . S
H480 C505 0.951 . S
H481 C507 0.950 . S
H482 C508 0.950 . S
H483 C510 0.950 . S
H484 C513 0.950 . S
H485 C514 0.950 . S
H486 C516 0.950 . S
H487 C517 0.950 . S
C488 H470 0.951 . S
C488 C489 1.366 . S
C488 C490 1.388 . S
C489 C488 1.366 . S
C489 C493 1.385 . S
C490 H471 0.951 . S
C490 C488 1.388 . S
C490 C491 1.366 . S
C491 C490 1.366 . S
C491 C492 1.414 . S
C491 C494 1.499 . S
C492 H472 0.950 . S
C492 C491 1.414 . S
C492 C493 1.374 . S
C493 H473 0.950 . S
C493 C489 1.385 . S
C493 C492 1.374 . S
C494 C491 1.499 . S
C494 C495 1.373 . S
C494 C496 1.389 . S
C495 H474 0.950 . S
C495 C494 1.373 . S
C495 C511 1.377 . S
C496 C494 1.389 . S
C496 C497 1.524 . S
C496 C510 1.377 . S
C497 C496 1.524 . S
C497 C498 1.397 . S
C497 C502 1.363 . S
C498 H475 0.950 . S
C498 C497 1.397 . S
C498 C499 1.334 . S
C499 H476 0.950 . S
C499 C498 1.334 . S
C499 C500 1.287 . S
C500 C499 1.287 . S
C500 C501 1.524 . S
C500 H519 0.913 . S
C501 H477 0.950 . S
C501 C500 1.524 . S
C501 C502 1.415 . S
C502 H478 0.950 . S
C502 C497 1.363 . S
C502 C501 1.415 . S
C503 H479 0.951 . S
C503 C504 1.366 . S
C503 C505 1.388 . S
C504 C503 1.366 . S
C504 C508 1.385 . S
C505 H480 0.951 . S
C505 C503 1.388 . S
C505 C506 1.366 . S
C506 C505 1.366 . S
C506 C507 1.414 . S
C506 C509 1.499 . S
C507 H481 0.950 . S
C507 C506 1.414 . S
C507 C508 1.374 . S
C508 H482 0.950 . S
C508 C504 1.385 . S
C508 C507 1.374 . S
C509 C506 1.499 . S
C509 C510 1.373 . S
C509 C511 1.389 . S
C510 H483 0.950 . S
C510 C496 1.377 . S
C510 C509 1.373 . S
C511 C495 1.377 . S
C511 C509 1.389 . S
C511 C512 1.524 . S
C512 C511 1.524 . S
C512 C513 1.397 . S
C512 C517 1.363 . S
C513 H484 0.950 . S
C513 C512 1.397 . S
C513 C514 1.334 . S
C514 H485 0.950 . S
C514 C513 1.334 . S
C514 C515 1.287 . S
C515 C514 1.287 . S
C515 C516 1.524 . S
C515 H518 0.999 . S
C516 H486 0.950 . S
C516 C515 1.524 . S
C516 C517 1.415 . S
C517 H487 0.950 . S
C517 C512 1.363 . S
C517 C516 1.415 . S
H518 C515 0.999 . S
H519 C500 0.913 . S
H520 C538 0.951 . S
H521 C540 0.951 . S
H522 C542 0.950 . S
H523 C543 0.950 . S
H524 C545 0.950 . S
H525 C548 0.950 . S
H526 C549 0.950 . S
H527 C551 0.950 . S
H528 C552 0.950 . S
H529 C553 0.951 . S
H530 C555 0.951 . S
H531 C557 0.950 . S
H532 C558 0.950 . S
H533 C560 0.950 . S
H534 C563 0.950 . S
H535 C564 0.950 . S
H536 C566 0.950 . S
H537 C567 0.950 . S
C538 H520 0.951 . S
C538 C539 1.366 . S
C538 C540 1.388 . S
C539 C538 1.366 . S
C539 C543 1.385 . S
C540 H521 0.951 . S
C540 C538 1.388 . S
C540 C541 1.366 . S
C541 C540 1.366 . S
C541 C542 1.414 . S
C541 C544 1.499 . S
C542 H522 0.950 . S
C542 C541 1.414 . S
C542 C543 1.374 . S
C543 H523 0.950 . S
C543 C539 1.385 . S
C543 C542 1.374 . S
C544 C541 1.499 . S
C544 C545 1.373 . S
C544 C546 1.389 . S
C545 H524 0.950 . S
C545 C544 1.373 . S
C545 C561 1.377 . S
C546 C544 1.389 . S
C546 C547 1.524 . S
C546 C560 1.377 . S
C547 C546 1.524 . S
C547 C548 1.397 . S
C547 C552 1.363 . S
C548 H525 0.950 . S
C548 C547 1.397 . S
C548 C549 1.334 . S
C549 H526 0.950 . S
C549 C548 1.334 . S
C549 C550 1.287 . S
C550 C549 1.287 . S
C550 C551 1.524 . S
C550 H569 0.913 . S
C551 H527 0.950 . S
C551 C550 1.524 . S
C551 C552 1.415 . S
C552 H528 0.950 . S
C552 C547 1.363 . S
C552 C551 1.415 . S
C553 H529 0.951 . S
C553 C554 1.366 . S
C553 C555 1.388 . S
C554 C553 1.366 . S
C554 C558 1.385 . S
C555 H530 0.951 . S
C555 C553 1.388 . S
C555 C556 1.366 . S
C556 C555 1.366 . S
C556 C557 1.414 . S
C556 C559 1.499 . S
C557 H531 0.950 . S
C557 C556 1.414 . S
C557 C558 1.374 . S
C558 H532 0.950 . S
C558 C554 1.385 . S
C558 C557 1.374 . S
C559 C556 1.499 . S
C559 C560 1.373 . S
C559 C561 1.389 . S
C560 H533 0.950 . S
C560 C546 1.377 . S
C560 C559 1.373 . S
C561 C545 1.377 . S
C561 C559 1.389 . S
C561 C562 1.524 . S
C562 C561 1.524 . S
C562 C563 1.397 . S
C562 C567 1.363 . S
C563 H534 0.950 . S
C563 C562 1.397 . S
C563 C564 1.334 . S
C564 H535 0.950 . S
C564 C563 1.334 . S
C564 C565 1.287 . S
C565 C564 1.287 . S
C565 C566 1.524 . S
C565 H568 0.999 . S
C566 H536 0.950 . S
C566 C565 1.524 . S
C566 C567 1.415 . S
C567 H537 0.950 . S
C567 C562 1.363 . S
C567 C566 1.415 . S
H568 C565 0.999 . S
H569 C550 0.913 . S
H570 C588 0.951 . S
H571 C590 0.951 . S
H572 C592 0.950 . S
H573 C593 0.950 . S
H574 C595 0.950 . S
H575 C598 0.950 . S
H576 C599 0.950 . S
H577 C601 0.950 . S
H578 C602 0.950 . S
H579 C603 0.951 . S
H580 C605 0.951 . S
H581 C607 0.950 . S
H582 C608 0.950 . S
H583 C610 0.950 . S
H584 C613 0.950 . S
H585 C614 0.950 . S
H586 C616 0.950 . S
H587 C617 0.950 . S
C588 H570 0.951 . S
C588 C589 1.366 . S
C588 C590 1.388 . S
C589 C588 1.366 . S
C589 C593 1.385 . S
C590 H571 0.951 . S
C590 C588 1.388 . S
C590 C591 1.366 . S
C591 C590 1.366 . S
C591 C592 1.414 . S
C591 C594 1.499 . S
C592 H572 0.950 . S
C592 C591 1.414 . S
C592 C593 1.374 . S
C593 H573 0.950 . S
C593 C589 1.385 . S
C593 C592 1.374 . S
C594 C591 1.499 . S
C594 C595 1.373 . S
C594 C596 1.389 . S
C595 H574 0.950 . S
C595 C594 1.373 . S
C595 C611 1.377 . S
C596 C594 1.389 . S
C596 C597 1.524 . S
C596 C610 1.377 . S
C597 C596 1.524 . S
C597 C598 1.397 . S
C597 C602 1.363 . S
C598 H575 0.950 . S
C598 C597 1.397 . S
C598 C599 1.334 . S
C599 H576 0.950 . S
C599 C598 1.334 . S
C599 C600 1.287 . S
C600 C599 1.287 . S
C600 C601 1.524 . S
C600 H619 0.913 . S
C601 H577 0.950 . S
C601 C600 1.524 . S
C601 C602 1.415 . S
C602 H578 0.950 . S
C602 C597 1.363 . S
C602 C601 1.415 . S
C603 H579 0.951 . S
C603 C604 1.366 . S
C603 C605 1.388 . S
C604 C603 1.366 . S
C604 C608 1.385 . S
C605 H580 0.951 . S
C605 C603 1.388 . S
C605 C606 1.366 . S
C606 C605 1.366 . S
C606 C607 1.414 . S
C606 C609 1.499 . S
C607 H581 0.950 . S
C607 C606 1.414 . S
C607 C608 1.374 . S
C608 H582 0.950 . S
C608 C604 1.385 . S
C608 C607 1.374 . S
C609 C606 1.499 . S
C609 C610 1.373 . S
C609 C611 1.389 . S
C610 H583 0.950 . S
C610 C596 1.377 . S
C610 C609 1.373 . S
C611 C595 1.377 . S
C611 C609 1.389 . S
C611 C612 1.524 . S
C612 C611 1.524 . S
C612 C613 1.397 . S
C612 C617 1.363 . S
C613 H584 0.950 . S
C613 C612 1.397 . S
C613 C614 1.334 . S
C614 H585 0.950 . S
C614 C613 1.334 . S
C614 C615 1.287 . S
C615 C614 1.287 . S
C615 C616 1.524 . S
C615 H618 0.999 . S
C616 H586 0.950 . S
C616 C615 1.524 . S
C616 C617 1.415 . S
C617 H587 0.950 . S
C617 C612 1.363 . S
C617 C616 1.415 . S
H618 C615 0.999 . S
H619 C600 0.913 . S
H620 C638 0.951 . S
H621 C640 0.951 . S
H622 C642 0.950 . S
H623 C643 0.950 . S
H624 C645 0.950 . S
H625 C648 0.950 . S
H626 C649 0.950 . S
H627 C651 0.950 . S
H628 C652 0.950 . S
H629 C653 0.951 . S
H630 C655 0.951 . S
H631 C657 0.950 . S
H632 C658 0.950 . S
H633 C660 0.950 . S
H634 C663 0.950 . S
H635 C664 0.950 . S
H636 C666 0.950 . S
H637 C667 0.950 . S
C638 H620 0.951 . S
C638 C639 1.366 . S
C638 C640 1.388 . S
C639 C638 1.366 . S
C639 C643 1.385 . S
C640 H621 0.951 . S
C640 C638 1.388 . S
C640 C641 1.366 . S
C641 C640 1.366 . S
C641 C642 1.414 . S
C641 C644 1.499 . S
C642 H622 0.950 . S
C642 C641 1.414 . S
C642 C643 1.374 . S
C643 H623 0.950 . S
C643 C639 1.385 . S
C643 C642 1.374 . S
C644 C641 1.499 . S
C644 C645 1.373 . S
C644 C646 1.389 . S
C645 H624 0.950 . S
C645 C644 1.373 . S
C645 C661 1.377 . S
C646 C644 1.389 . S
C646 C647 1.524 . S
C646 C660 1.377 . S
C647 C646 1.524 . S
C647 C648 1.397 . S
C647 C652 1.363 . S
C648 H625 0.950 . S
C648 C647 1.397 . S
C648 C649 1.334 . S
C649 H626 0.950 . S
C649 C648 1.334 . S
C649 C650 1.287 . S
C650 C649 1.287 . S
C650 C651 1.524 . S
C650 H669 0.913 . S
C651 H627 0.950 . S
C651 C650 1.524 . S
C651 C652 1.415 . S
C652 H628 0.950 . S
C652 C647 1.363 . S
C652 C651 1.415 . S
C653 H629 0.951 . S
C653 C654 1.366 . S
C653 C655 1.388 . S
C654 C653 1.366 . S
C654 C658 1.385 . S
C655 H630 0.951 . S
C655 C653 1.388 . S
C655 C656 1.366 . S
C656 C655 1.366 . S
C656 C657 1.414 . S
C656 C659 1.499 . S
C657 H631 0.950 . S
C657 C656 1.414 . S
C657 C658 1.374 . S
C658 H632 0.950 . S
C658 C654 1.385 . S
C658 C657 1.374 . S
C659 C656 1.499 . S
C659 C660 1.373 . S
C659 C661 1.389 . S
C660 H633 0.950 . S
C660 C646 1.377 . S
C660 C659 1.373 . S
C661 C645 1.377 . S
C661 C659 1.389 . S
C661 C662 1.524 . S
C662 C661 1.524 . S
C662 C663 1.397 . S
C662 C667 1.363 . S
C663 H634 0.950 . S
C663 C662 1.397 . S
C663 C664 1.334 . S
C664 H635 0.950 . S
C664 C663 1.334 . S
C664 C665 1.287 . S
C665 C664 1.287 . S
C665 C666 1.524 . S
C665 H668 0.999 . S
C666 H636 0.950 . S
C666 C665 1.524 . S
C666 C667 1.415 . S
C667 H637 0.950 . S
C667 C662 1.363 . S
C667 C666 1.415 . S
H668 C665 0.999 . S
H669 C650 0.913 . S
H670 C688 0.951 1_554 S
H671 C690 0.951 . S
H672 C692 0.950 . S
H673 C693 0.950 . S
H674 C695 0.950 . S
H675 C698 0.950 . S
H676 C699 0.950 . S
H677 C701 0.950 . S
H678 C702 0.950 . S
H679 C703 0.951 . S
H680 C705 0.951 . S
H681 C707 0.950 . S
H682 C708 0.950 . S
H683 C710 0.950 . S
H684 C713 0.950 . S
H685 C714 0.950 . S
H686 C716 0.950 . S
H687 C717 0.950 . S
C688 H670 0.951 1_556 S
C688 C689 1.366 . S
C688 C690 1.388 . S
C689 C688 1.366 . S
C689 C693 1.385 . S
C690 H671 0.951 . S
C690 C688 1.388 . S
C690 C691 1.366 . S
C691 C690 1.366 . S
C691 C692 1.414 . S
C691 C694 1.499 . S
C692 H672 0.950 . S
C692 C691 1.414 . S
C692 C693 1.374 . S
C693 H673 0.950 . S
C693 C689 1.385 . S
C693 C692 1.374 . S
C694 C691 1.499 . S
C694 C695 1.373 . S
C694 C696 1.389 . S
C695 H674 0.950 . S
C695 C694 1.373 . S
C695 C711 1.377 . S
C696 C694 1.389 . S
C696 C697 1.524 . S
C696 C710 1.377 . S
C697 C696 1.524 . S
C697 C698 1.397 . S
C697 C702 1.363 . S
C698 H675 0.950 . S
C698 C697 1.397 . S
C698 C699 1.334 1_556 S
C699 H676 0.950 . S
C699 C698 1.334 1_554 S
C699 C700 1.287 . S
C700 C699 1.287 . S
C700 C701 1.524 . S
C700 H719 0.913 . S
C701 H677 0.950 . S
C701 C700 1.524 . S
C701 C702 1.415 1_554 S
C702 H678 0.950 . S
C702 C697 1.363 . S
C702 C701 1.415 1_556 S
C703 H679 0.951 . S
C703 C704 1.366 . S
C703 C705 1.388 . S
C704 C703 1.366 . S
C704 C708 1.385 . S
C705 H680 0.951 . S
C705 C703 1.388 . S
C705 C706 1.366 . S
C706 C705 1.366 . S
C706 C707 1.414 . S
C706 C709 1.499 . S
C707 H681 0.950 . S
C707 C706 1.414 . S
C707 C708 1.374 . S
C708 H682 0.950 . S
C708 C704 1.385 . S
C708 C707 1.374 . S
C709 C706 1.499 . S
C709 C710 1.373 . S
C709 C711 1.389 . S
C710 H683 0.950 . S
C710 C696 1.377 . S
C710 C709 1.373 . S
C711 C695 1.377 . S
C711 C709 1.389 . S
C711 C712 1.524 . S
C712 C711 1.524 . S
C712 C713 1.397 . S
C712 C717 1.363 . S
C713 H684 0.950 . S
C713 C712 1.397 . S
C713 C714 1.334 . S
C714 H685 0.950 . S
C714 C713 1.334 . S
C714 C715 1.287 . S
C715 C714 1.287 . S
C715 C716 1.524 . S
C715 H718 0.999 . S
C716 H686 0.950 . S
C716 C715 1.524 . S
C716 C717 1.415 . S
C717 H687 0.950 . S
C717 C712 1.363 . S
C717 C716 1.415 . S
H718 C715 0.999 . S
H719 C700 0.913 . S
H720 C738 0.951 . S
H721 C740 0.951 . S
H722 C742 0.950 . S
H723 C743 0.950 . S
H724 C745 0.950 . S
H725 C748 0.950 . S
H726 C749 0.950 . S
H727 C751 0.950 . S
H728 C752 0.950 . S
H729 C753 0.951 . S
H730 C755 0.951 . S
H731 C757 0.950 . S
H732 C758 0.950 . S
H733 C760 0.950 . S
H734 C763 0.950 . S
H735 C764 0.950 . S
H736 C766 0.950 . S
H737 C767 0.950 . S
C738 H720 0.951 . S
C738 C739 1.366 . S
C738 C740 1.388 . S
C739 C738 1.366 . S
C739 C743 1.385 . S
C740 H721 0.951 . S
C740 C738 1.388 . S
C740 C741 1.366 . S
C741 C740 1.366 . S
C741 C742 1.414 . S
C741 C744 1.499 . S
C742 H722 0.950 . S
C742 C741 1.414 . S
C742 C743 1.374 . S
C743 H723 0.950 . S
C743 C739 1.385 . S
C743 C742 1.374 . S
C744 C741 1.499 . S
C744 C745 1.373 . S
C744 C746 1.389 . S
C745 H724 0.950 . S
C745 C744 1.373 . S
C745 C761 1.377 . S
C746 C744 1.389 . S
C746 C747 1.524 . S
C746 C760 1.377 . S
C747 C746 1.524 . S
C747 C748 1.397 . S
C747 C752 1.363 . S
C748 H725 0.950 . S
C748 C747 1.397 . S
C748 C749 1.334 . S
C749 H726 0.950 . S
C749 C748 1.334 . S
C749 C750 1.287 . S
C750 C749 1.287 . S
C750 C751 1.524 . S
C750 H769 0.913 . S
C751 H727 0.950 . S
C751 C750 1.524 . S
C751 C752 1.415 . S
C752 H728 0.950 . S
C752 C747 1.363 . S
C752 C751 1.415 . S
C753 H729 0.951 . S
C753 C754 1.366 . S
C753 C755 1.388 . S
C754 C753 1.366 . S
C754 C758 1.385 . S
C755 H730 0.951 . S
C755 C753 1.388 . S
C755 C756 1.366 . S
C756 C755 1.366 . S
C756 C757 1.414 . S
C756 C759 1.499 . S
C757 H731 0.950 . S
C757 C756 1.414 . S
C757 C758 1.374 . S
C758 H732 0.950 . S
C758 C754 1.385 . S
C758 C757 1.374 . S
C759 C756 1.499 . S
C759 C760 1.373 . S
C759 C761 1.389 . S
C760 H733 0.950 . S
C760 C746 1.377 . S
C760 C759 1.373 . S
C761 C745 1.377 . S
C761 C759 1.389 . S
C761 C762 1.524 . S
C762 C761 1.524 . S
C762 C763 1.397 . S
C762 C767 1.363 . S
C763 H734 0.950 . S
C763 C762 1.397 . S
C763 C764 1.334 . S
C764 H735 0.950 . S
C764 C763 1.334 . S
C764 C765 1.287 . S
C765 C764 1.287 . S
C765 C766 1.524 . S
C765 H768 0.999 . S
C766 H736 0.950 . S
C766 C765 1.524 . S
C766 C767 1.415 . S
C767 H737 0.950 . S
C767 C762 1.363 . S
C767 C766 1.415 . S
H768 C765 0.999 . S
H769 C750 0.913 . S
H770 C788 0.951 . S
H771 C790 0.951 . S
H772 C792 0.950 . S
H773 C793 0.950 . S
H774 C795 0.950 . S
H775 C798 0.950 . S
H776 C799 0.950 . S
H777 C801 0.950 . S
H778 C802 0.950 . S
H779 C803 0.951 . S
H780 C805 0.951 . S
H781 C807 0.950 . S
H782 C808 0.950 . S
H783 C810 0.950 . S
H784 C813 0.950 . S
H785 C814 0.950 . S
H786 C816 0.950 . S
H787 C817 0.950 . S
C788 H770 0.951 . S
C788 C789 1.366 . S
C788 C790 1.388 . S
C789 C788 1.366 . S
C789 C793 1.385 . S
C790 H771 0.951 . S
C790 C788 1.388 . S
C790 C791 1.366 . S
C791 C790 1.366 . S
C791 C792 1.414 . S
C791 C794 1.499 . S
C792 H772 0.950 . S
C792 C791 1.414 . S
C792 C793 1.374 . S
C793 H773 0.950 . S
C793 C789 1.385 . S
C793 C792 1.374 . S
C794 C791 1.499 . S
C794 C795 1.373 . S
C794 C796 1.389 . S
C795 H774 0.950 . S
C795 C794 1.373 . S
C795 C811 1.377 . S
C796 C794 1.389 . S
C796 C797 1.524 . S
C796 C810 1.377 . S
C797 C796 1.524 . S
C797 C798 1.397 . S
C797 C802 1.363 . S
C798 H775 0.950 . S
C798 C797 1.397 . S
C798 C799 1.334 . S
C799 H776 0.950 . S
C799 C798 1.334 . S
C799 C800 1.287 . S
C800 C799 1.287 . S
C800 C801 1.524 . S
C800 H819 0.913 . S
C801 H777 0.950 . S
C801 C800 1.524 . S
C801 C802 1.415 . S
C802 H778 0.950 . S
C802 C797 1.363 . S
C802 C801 1.415 . S
C803 H779 0.951 . S
C803 C804 1.366 . S
C803 C805 1.388 . S
C804 C803 1.366 . S
C804 C808 1.385 . S
C805 H780 0.951 . S
C805 C803 1.388 . S
C805 C806 1.366 . S
C806 C805 1.366 . S
C806 C807 1.414 . S
C806 C809 1.499 . S
C807 H781 0.950 . S
C807 C806 1.414 . S
C807 C808 1.374 . S
C808 H782 0.950 . S
C808 C804 1.385 . S
C808 C807 1.374 . S
C809 C806 1.499 . S
C809 C810 1.373 . S
C809 C811 1.389 . S
C810 H783 0.950 . S
C810 C796 1.377 . S
C810 C809 1.373 . S
C811 C795 1.377 . S
C811 C809 1.389 . S
C811 C812 1.524 . S
C812 C811 1.524 . S
C812 C813 1.397 . S
C812 C817 1.363 . S
C813 H784 0.950 . S
C813 C812 1.397 . S
C813 C814 1.334 1_565 S
C814 H785 0.950 . S
C814 C813 1.334 1_545 S
C814 C815 1.287 . S
C815 C814 1.287 . S
C815 C816 1.524 1_545 S
C815 H818 0.999 . S
C816 H786 0.950 . S
C816 C815 1.524 1_565 S
C816 C817 1.415 . S
C817 H787 0.950 . S
C817 C812 1.363 . S
C817 C816 1.415 . S
H818 C815 0.999 . S
H819 C800 0.913 . S
C254 C120 1.693 . S
C239 N41 1.723 . S
C289 N2 1.675 . S
C304 C192 1.657 . S
C339 N15 1.719 . S
C354 C108 1.693 . S
C389 N28 1.669 . S
C404 C204 1.657 . S
C454 C110 1.429 . S
C439 N5 1.615 . S
C504 C191 1.695 . S
C489 N14 1.683 . S
C539 N27 1.591 . S
C554 C107 1.623 . S
C589 N44 1.587 . S
C604 C194 1.431 . S
C654 C206 1.429 . S
C639 N18 1.586 . S
C704 C122 1.428 . S
C689 N31 1.615 1_556 S
C754 C203 1.695 . S
C739 N40 1.693 . S
C789 N1 1.604 1_556 S
C804 C119 1.623 . S
