# Generated by pormake.
# Topology zzz, (3,6)-cn, num edge types: 1
# Building blocks:
#     Node 0, Type 0, BuildingBlock: KAKCAD_clean_linker_0, # of connection points: 3
#     Node 1, Type 0, BuildingBlock: KAKCAD_clean_linker_0, # of connection points: 3
#     Node 2, Type 0, BuildingBlock: KAKCAD_clean_linker_0, # of connection points: 3
#     Node 3, Type 0, BuildingBlock: KAKCAD_clean_linker_0, # of connection points: 3
#     Node 4, Type 0, BuildingBlock: KAKCAD_clean_linker_0, # of connection points: 3
#     Node 5, Type 0, BuildingBlock: KAKCAD_clean_linker_0, # of connection points: 3
#     Node 6, Type 0, BuildingBlock: KAKCAD_clean_linker_0, # of connection points: 3
#     Node 7, Type 0, BuildingBlock: KAKCAD_clean_linker_0, # of connection points: 3
#     Node 8, Type 1, BuildingBlock: PAMTUU_clean_sbu_0, # of connection points: 6
#     Node 9, Type 1, BuildingBlock: PAMTUU_clean_sbu_0, # of connection points: 6
#     Node 10, Type 1, BuildingBlock: PAMTUU_clean_sbu_0, # of connection points: 6
#     Node 11, Type 1, BuildingBlock: PAMTUU_clean_sbu_0, # of connection points: 6
#     Edge 12, Type (0, 1), BuildingBlock: UVAHIK_clean_linker_0, # of connection points: 2
#     Edge 13, Type (0, 1), BuildingBlock: UVAHIK_clean_linker_0, # of connection points: 2
#     Edge 14, Type (0, 1), BuildingBlock: UVAHIK_clean_linker_0, # of connection points: 2
#     Edge 15, Type (0, 1), BuildingBlock: UVAHIK_clean_linker_0, # of connection points: 2
#     Edge 16, Type (0, 1), BuildingBlock: UVAHIK_clean_linker_0, # of connection points: 2
#     Edge 17, Type (0, 1), BuildingBlock: UVAHIK_clean_linker_0, # of connection points: 2
#     Edge 18, Type (0, 1), BuildingBlock: UVAHIK_clean_linker_0, # of connection points: 2
#     Edge 19, Type (0, 1), BuildingBlock: UVAHIK_clean_linker_0, # of connection points: 2
#     Edge 20, Type (0, 1), BuildingBlock: UVAHIK_clean_linker_0, # of connection points: 2
#     Edge 21, Type (0, 1), BuildingBlock: UVAHIK_clean_linker_0, # of connection points: 2
#     Edge 22, Type (0, 1), BuildingBlock: UVAHIK_clean_linker_0, # of connection points: 2
#     Edge 23, Type (0, 1), BuildingBlock: UVAHIK_clean_linker_0, # of connection points: 2
#     Edge 24, Type (0, 1), BuildingBlock: UVAHIK_clean_linker_0, # of connection points: 2
#     Edge 25, Type (0, 1), BuildingBlock: UVAHIK_clean_linker_0, # of connection points: 2
#     Edge 26, Type (0, 1), BuildingBlock: UVAHIK_clean_linker_0, # of connection points: 2
#     Edge 27, Type (0, 1), BuildingBlock: UVAHIK_clean_linker_0, # of connection points: 2
#     Edge 28, Type (0, 1), BuildingBlock: UVAHIK_clean_linker_0, # of connection points: 2
#     Edge 29, Type (0, 1), BuildingBlock: UVAHIK_clean_linker_0, # of connection points: 2
#     Edge 30, Type (0, 1), BuildingBlock: UVAHIK_clean_linker_0, # of connection points: 2
#     Edge 31, Type (0, 1), BuildingBlock: UVAHIK_clean_linker_0, # of connection points: 2
#     Edge 32, Type (0, 1), BuildingBlock: UVAHIK_clean_linker_0, # of connection points: 2
#     Edge 33, Type (0, 1), BuildingBlock: UVAHIK_clean_linker_0, # of connection points: 2
#     Edge 34, Type (0, 1), BuildingBlock: UVAHIK_clean_linker_0, # of connection points: 2
#     Edge 35, Type (0, 1), BuildingBlock: UVAHIK_clean_linker_0, # of connection points: 2
# Relax obj value: 0.356
# Max RMSD: 0.259
# Mean RMSD: 0.219
data_MOF--net-zzz--node1-PAMTUU_clean_sbu_0--node2-KAKCAD_clean_linker_0--edge1-UVAHIK_clean_linker_0
_symmetry_space_group_name_H-M    P1
_symmetry_Int_Tables_number       1
_symmetry_cell_setting            triclinic
loop_
_symmetry_equiv_pos_as_xyz
'x, y, z'
_cell_length_a     72.972011
_cell_length_b     75.622438
_cell_length_c     25.347098
_cell_angle_alpha  97.093562
_cell_angle_beta   90.142333
_cell_angle_gamma 90.518257
loop_
_atom_site_label
_atom_site_type_symbol
_atom_site_fract_x
_atom_site_fract_y
_atom_site_fract_z
_atom_type_partial_charge
C0 C 0.7806 0.44136 0.08709 0.0
C1 C 0.79109 0.4267 0.09769 0.0
C2 C 0.76992 0.45055 0.12684 0.0
C3 C 0.76942 0.44523 0.17803 0.0
C4 C 0.77889 0.42981 0.18753 0.0
C5 C 0.78963 0.42064 0.14775 0.0
C6 C 0.7604 0.45662 0.22223 0.0
C7 C 0.74385 0.46511 0.21394 0.0
C8 C 0.73617 0.47723 0.25399 0.0
C9 C 0.74515 0.48091 0.3035 0.0
C10 C 0.76171 0.47226 0.31257 0.0
C11 C 0.7691 0.46016 0.27182 0.0
C12 C 0.77243 0.47616 0.36257 0.0
C13 C 0.77998 0.4932 0.37751 0.0
C14 C 0.77815 0.46199 0.38942 0.0
C15 C 0.7921 0.46446 0.42754 0.0
C16 C 0.80081 0.48115 0.43947 0.0
C17 C 0.71884 0.48584 0.24156 0.0
C18 C 0.71877 0.49738 0.20223 0.0
C19 C 0.7021 0.47952 0.25924 0.0
C20 C 0.68561 0.48373 0.23536 0.0
C21 C 0.68561 0.49435 0.19341 0.0
C22 C 0.70233 0.50169 0.17862 0.0
C23 C 0.79407 0.49568 0.41566 0.0
H24 H 0.78128 0.4462 0.04866 0.0
H25 H 0.76288 0.46241 0.11817 0.0
H26 H 0.77852 0.4252 0.22631 0.0
H27 H 0.79761 0.40944 0.15727 0.0
H28 H 0.73687 0.46233 0.17595 0.0
H29 H 0.78223 0.45413 0.27807 0.0
H30 H 0.7394 0.49043 0.33436 0.0
H31 H 0.77598 0.50429 0.3569 0.0
H32 H 0.77253 0.44872 0.37862 0.0
H33 H 0.79663 0.45307 0.44596 0.0
H34 H 0.73158 0.50212 0.18731 0.0
H35 H 0.70187 0.47035 0.28887 0.0
H36 H 0.80049 0.50871 0.42378 0.0
H37 H 0.70291 0.50974 0.14617 0.0
H38 H 0.67294 0.47804 0.24812 0.0
C39 C 0.01172 0.76905 0.1647 0.0
C40 C 0.0253 0.78133 0.18498 0.0
C41 C 0.00481 0.75654 0.19592 0.0
C42 C 0.01143 0.75607 0.24786 0.0
C43 C 0.02597 0.7675 0.2665 0.0
C44 C 0.03279 0.78005 0.23544 0.0
C45 C 1.00185 0.74523 0.28444 0.0
C46 C 0.99545 0.72799 0.26695 0.0
C47 C 0.98475 0.71847 0.3002 0.0
C48 C 0.98052 0.7264 0.35202 0.0
C49 C 0.98707 0.74366 0.37 0.0
C50 C 0.99773 0.75284 0.33614 0.0
C51 C 0.98186 0.7535 0.42175 0.0
C52 C 0.964 0.76004 0.42899 0.0
C53 C 0.99573 0.76048 0.45697 0.0
C54 C 0.99226 0.77496 0.49532 0.0
C55 C 0.97484 0.78283 0.49898 0.0
C56 C 0.97809 0.70037 0.2791 0.0
C57 C 0.97024 0.69751 0.22809 0.0
C58 C 0.98151 0.68564 0.30626 0.0
C59 C 0.97832 0.66828 0.28121 0.0
C60 C 0.97155 0.66539 0.22869 0.0
C61 C 0.96705 0.68028 0.20317 0.0
C62 C 0.96051 0.77461 0.46732 0.0
H63 H 0.00561 0.76983 0.12607 0.0
H64 H 0.99351 0.74802 0.18057 0.0
H65 H 0.03159 0.76721 0.30597 0.0
H66 H 0.04348 0.78919 0.25164 0.0
H67 H 0.99884 0.72194 0.22719 0.0
H68 H 1.00201 0.76644 0.3494 0.0
H69 H 0.97197 0.71937 0.37765 0.0
H70 H 0.95314 0.75501 0.40182 0.0
H71 H 0.00967 0.75578 0.45159 0.0
H72 H 1.00367 0.78095 0.51864 0.0
H73 H 0.96733 0.70866 0.20641 0.0
H74 H 0.98759 0.68749 0.34562 0.0
H75 H 0.94686 0.78016 0.46973 0.0
H76 H 0.96202 0.67868 0.16262 0.0
H77 H 0.98169 0.65713 0.30232 0.0
C78 C 0.75679 0.05236 0.12709 0.0
C79 C 0.7433 0.06485 0.14471 0.0
C80 C 0.76513 0.04217 0.16248 0.0
C81 C 0.76054 0.04449 0.21677 0.0
C82 C 0.74814 0.058 0.23508 0.0
C83 C 0.7395 0.06795 0.19946 0.0
C84 C 0.76756 0.03198 0.25296 0.0
C85 C 0.78507 0.02466 0.2458 0.0
C86 C 0.79096 0.01121 0.27512 0.0
C87 C 0.77935 0.00532 0.31396 0.0
C88 C 0.76207 0.01331 0.32389 0.0
C89 C 0.75626 0.0263 0.29244 0.0
C90 C 0.74947 0.00845 0.36609 0.0
C91 C 0.74401 0.99071 0.36869 0.0
C92 C 0.74102 0.02206 0.40003 0.0
C93 C 0.72677 0.01823 0.43356 0.0
C94 C 0.72053 0.00061 0.43446 0.0
C95 C 0.80902 0.0032 0.26123 0.0
C96 C 0.8099 0.98675 0.229 0.0
C97 C 0.82483 0.01399 0.26778 0.0
C98 C 0.84081 0.00908 0.23952 0.0
C99 C 0.84127 0.99335 0.20358 0.0
C100 C 0.82588 0.98187 0.20038 0.0
C101 C 0.72964 0.98683 0.40243 0.0
H102 H 0.76041 0.0499 0.08543 0.0
H103 H 0.77451 0.03187 0.14653 0.0
H104 H 0.7446 0.06052 0.27678 0.0
H105 H 0.72914 0.07737 0.21468 0.0
H106 H 0.79412 0.02911 0.21613 0.0
H107 H 0.74252 0.03152 0.2977 0.0
H108 H 0.78385 0.99496 0.33682 0.0
H109 H 0.75021 0.97995 0.3428 0.0
H110 H 0.74498 0.03586 0.39908 0.0
H111 H 0.72006 0.02926 0.45689 0.0
H112 H 0.79778 0.97837 0.22256 0.0
H113 H 0.82435 0.0269 0.29162 0.0
H114 H 0.7254 0.97308 0.40257 0.0
H115 H 0.82584 0.96954 0.17362 0.0
H116 H 0.85229 0.01833 0.24274 0.0
C117 C 0.56229 0.74587 0.33956 0.0
C118 C 0.57363 0.73079 0.33722 0.0
C119 C 0.56125 0.7558 0.29643 0.0
C120 C 0.57151 0.75079 0.25032 0.0
C121 C 0.58389 0.73667 0.24975 0.0
C122 C 0.58491 0.72677 0.2925 0.0
C123 C 0.56734 0.75801 0.19993 0.0
C124 C 0.56731 0.7764 0.19593 0.0
C125 C 0.56371 0.78247 0.14659 0.0
C126 C 0.55952 0.77009 0.10201 0.0
C127 C 0.559 0.75179 0.10603 0.0
C128 C 0.563 0.74593 0.15503 0.0
C129 C 0.55379 0.73861 0.06001 0.0
C130 C 0.5386 0.74147 0.02802 0.0
C131 C 0.56319 0.72242 0.05038 0.0
C132 C 0.55702 0.70902 0.01155 0.0
C133 C 0.54136 0.71152 0.98096 0.0
C134 C 0.56406 0.80168 0.14048 0.0
C135 C 0.55257 0.81365 0.17115 0.0
C136 C 0.57447 0.80774 0.09967 0.0
C137 C 0.57276 0.82521 0.08792 0.0
C138 C 0.56042 0.83692 0.11634 0.0
C139 C 0.55065 0.83111 0.15891 0.0
C140 C 0.53243 0.72804 0.98888 0.0
H141 H 0.55365 0.74956 0.37375 0.0
H142 H 0.55158 0.76663 0.29776 0.0
H143 H 0.59202 0.73259 0.2147 0.0
H144 H 0.59367 0.71521 0.28868 0.0
H145 H 0.57054 0.78586 0.23047 0.0
H146 H 0.56223 0.7318 0.15878 0.0
H147 H 0.55654 0.77475 0.06415 0.0
H148 H 0.53103 0.75379 0.03467 0.0
H149 H 0.57509 0.71992 0.07388 0.0
H150 H 0.56413 0.69643 0.00713 0.0
H151 H 0.54435 0.80924 0.20265 0.0
H152 H 0.58346 0.79874 0.07557 0.0
H153 H 0.52047 0.73048 0.96554 0.0
H154 H 0.54112 0.8399 0.18165 0.0
H155 H 0.58034 0.82921 0.05461 0.0
C156 C 0.23831 0.58403 0.31801 0.0
C157 C 0.23666 0.57931 0.36977 0.0
C158 C 0.24873 0.57369 0.27989 0.0
C159 C 0.25787 0.55854 0.29293 0.0
C160 C 0.25731 0.55455 0.34552 0.0
C161 C 0.24676 0.56477 0.38351 0.0
C162 C 0.26644 0.54594 0.25101 0.0
C163 C 0.28365 0.53874 0.25898 0.0
C164 C 0.29107 0.52555 0.22141 0.0
C165 C 0.28088 0.51927 0.17533 0.0
C166 C 0.26373 0.52687 0.16623 0.0
C167 C 0.25673 0.54013 0.20432 0.0
C168 C 0.25235 0.52128 0.11831 0.0
C169 C 0.24564 0.5344 0.08881 0.0
C170 C 0.24527 0.50384 0.10803 0.0
C171 C 0.2307 0.5 0.07187 0.0
C172 C 0.223 0.51358 0.04578 0.0
C173 C 0.30951 0.51879 0.23246 0.0
C174 C 0.32421 0.53093 0.24086 0.0
C175 C 0.31179 0.50136 0.24478 0.0
C176 C 0.32812 0.49652 0.26843 0.0
C177 C 0.34246 0.50905 0.27994 0.0
C178 C 0.34049 0.52612 0.26414 0.0
C179 C 0.23115 0.53061 0.05305 0.0
H180 H 0.231 0.59534 0.30639 0.0
H181 H 0.24919 0.5772 0.23974 0.0
H182 H 0.2641 0.54286 0.35655 0.0
H183 H 0.24564 0.56055 0.42268 0.0
H184 H 0.29127 0.54329 0.29498 0.0
H185 H 0.24323 0.54548 0.19847 0.0
H186 H 0.28643 0.50899 0.14636 0.0
H187 H 0.25089 0.54794 0.0959 0.0
H188 H 0.25007 0.49354 0.13068 0.0
H189 H 0.2247 0.48674 0.06705 0.0
H190 H 0.32268 0.54452 0.2322 0.0
H191 H 0.30055 0.49184 0.23927 0.0
H192 H 0.22576 0.54126 0.0328 0.0
H193 H 0.35106 0.53621 0.2728 0.0
H194 H 0.32926 0.48319 0.27945 0.0
C195 C 0.05736 0.2312 0.36004 0.0
C196 C 0.06838 0.21602 0.35946 0.0
C197 C 0.06037 0.24332 0.32352 0.0
C198 C 0.07437 0.2404 0.28564 0.0
C199 C 0.0863 0.22606 0.28785 0.0
C200 C 0.0834 0.21403 0.32462 0.0
C201 C 0.07475 0.25063 0.23952 0.0
C202 C 0.07333 0.26919 0.24623 0.0
C203 C 0.07123 0.27858 0.20211 0.0
C204 C 0.07028 0.26913 0.15056 0.0
C205 C 0.07227 0.25047 0.14337 0.0
C206 C 0.07454 0.24145 0.18811 0.0
C207 C 0.07075 0.23962 0.09051 0.0
C208 C 0.05526 0.24079 0.05821 0.0
C209 C 0.08322 0.22577 0.0769 0.0
C210 C 0.07945 0.21242 0.03513 0.0
C211 C 0.06316 0.21264 0.00538 0.0
C212 C 0.06919 0.29817 0.21189 0.0
C213 C 0.053 0.30626 0.19753 0.0
C214 C 0.08225 0.30843 0.24321 0.0
C215 C 0.07874 0.32615 0.26262 0.0
C216 C 0.06197 0.33396 0.25159 0.0
C217 C 0.04937 0.324 0.21746 0.0
C218 C 0.05151 0.22743 0.01596 0.0
H219 H 0.0456 0.23308 0.38605 0.0
H220 H 0.05089 0.25421 0.32238 0.0
H221 H 0.09734 0.22367 0.25943 0.0
H222 H 0.09239 0.20269 0.32403 0.0
H223 H 0.07335 0.27632 0.28609 0.0
H224 H 0.07506 0.22701 0.18305 0.0
H225 H 0.06825 0.27625 0.11646 0.0
H226 H 0.0454 0.25131 0.06787 0.0
H227 H 0.09534 0.22461 0.10098 0.0
H228 H 0.08875 0.2013 0.02885 0.0
H229 H 0.04266 0.29856 0.17377 0.0
H230 H 0.09482 0.30243 0.2549 0.0
H231 H 0.03905 0.22829 0.99318 0.0
H232 H 0.0364 0.32972 0.20787 0.0
H233 H 0.08867 0.33336 0.28911 0.0
C234 C 0.27327 0.94242 0.33227 0.0
C235 C 0.29213 0.94492 0.34156 0.0
C236 C 0.2639 0.95323 0.30038 0.0
C237 C 0.27318 0.96691 0.27799 0.0
C238 C 0.29201 0.96952 0.28837 0.0
C239 C 0.30139 0.95857 0.31942 0.0
C240 C 0.26338 0.97856 0.24418 0.0
C241 C 0.24541 0.98408 0.25605 0.0
C242 C 0.23628 0.99552 0.22525 0.0
C243 C 0.24547 0.00182 0.18223 0.0
C244 C 0.26344 0.99613 0.16954 0.0
C245 C 0.27213 0.98448 0.20032 0.0
C246 C 0.2738 0.00171 0.12422 0.0
C247 C 0.27503 0.98998 0.07699 0.0
C248 C 0.28602 0.01623 0.13267 0.0
C249 C 0.29994 0.01839 0.09589 0.0
C250 C 0.30201 0.00593 0.05023 0.0
C251 C 0.21717 0.00052 0.23979 0.0
C252 C 0.20406 0.98701 0.24333 0.0
C253 C 0.21271 0.01819 0.25858 0.0
C254 C 0.19582 0.02209 0.2836 0.0
C255 C 0.18306 0.00839 0.2898 0.0
C256 C 0.18719 0.9909 0.2678 0.0
C257 C 0.28893 0.9921 0.04026 0.0
H258 H 0.26588 0.93195 0.34892 0.0
H259 H 0.24945 0.95069 0.29275 0.0
H260 H 0.29954 0.98019 0.27311 0.0
H261 H 0.31588 0.96097 0.32689 0.0
H262 H 0.23853 0.97983 0.29027 0.0
H263 H 0.28584 0.97997 0.18958 0.0
H264 H 0.23862 0.01074 0.1584 0.0
H265 H 0.26598 0.97848 0.0702 0.0
H266 H 0.28562 0.02516 0.16952 0.0
H267 H 0.30982 0.0291 0.10514 0.0
H268 H 0.20725 0.97326 0.22947 0.0
H269 H 0.22268 0.0288 0.2568 0.0
H270 H 0.28994 0.98243 0.00516 0.0
H271 H 0.17786 0.97997 0.27226 0.0
H272 H 0.19299 0.03573 0.29959 0.0
C273 C 0.45141 0.26651 0.15715 0.0
C274 C 0.46595 0.2668 0.1209 0.0
C275 C 0.45238 0.25597 0.19858 0.0
C276 C 0.46778 0.24541 0.20426 0.0
C277 C 0.48168 0.2446 0.166 0.0
C278 C 0.48075 0.25518 0.12452 0.0
C279 C 0.47115 0.23886 0.25576 0.0
C280 C 0.46819 0.221 0.26358 0.0
C281 C 0.47043 0.2158 0.31463 0.0
C282 C 0.47599 0.22845 0.35714 0.0
C283 C 0.47957 0.24613 0.34904 0.0
C284 C 0.47697 0.25124 0.29832 0.0
C285 C 0.48575 0.25949 0.39327 0.0
C286 C 0.47638 0.26153 0.44196 0.0
C287 C 0.50041 0.27104 0.3857 0.0
C288 C 0.50515 0.28486 0.42512 0.0
C289 C 0.49523 0.2875 0.47284 0.0
C290 C 0.46717 0.19725 0.32491 0.0
C291 C 0.45404 0.19366 0.36252 0.0
C292 C 0.47872 0.18357 0.30294 0.0
C293 C 0.47795 0.16681 0.32106 0.0
C294 C 0.46549 0.16347 0.36113 0.0
C295 C 0.45307 0.1769 0.38003 0.0
C296 C 0.48102 0.27549 0.48133 0.0
H297 H 0.43991 0.27541 0.15603 0.0
H298 H 0.44169 0.257 0.22836 0.0
H299 H 0.4938 0.23673 0.17028 0.0
H300 H 0.49206 0.25495 0.09685 0.0
H301 H 0.46374 0.21136 0.23071 0.0
H302 H 0.47921 0.26502 0.29198 0.0
H303 H 0.47795 0.22439 0.39633 0.0
H304 H 0.46499 0.25281 0.4487 0.0
H305 H 0.50797 0.26962 0.34869 0.0
H306 H 0.51603 0.29399 0.41716 0.0
H307 H 0.44496 0.20406 0.37978 0.0
H308 H 0.48906 0.18616 0.27421 0.0
H309 H 0.47322 0.27717 0.51787 0.0
H310 H 0.44297 0.17468 0.40981 0.0
H311 H 0.4878 0.15686 0.30583 0.0
Tb312 Tb 0.99401 0.00743 0.69813 0.0
Tb313 Tb 0.02552 0.99423 0.77614 0.0
C314 C 0.98372 0.99725 0.81021 0.0
C315 C 0.97534 0.03498 0.60436 0.0
C316 C 0.98516 0.06609 0.55971 0.0
C317 C 0.96937 0.06574 0.59131 0.0
C318 C 0.96449 0.05029 0.61338 0.0
C319 C 0.99063 0.03512 0.57077 0.0
C320 C 0.99547 0.05047 0.54873 0.0
C321 C 0.97226 0.01997 0.63552 0.0
O322 O 1.00163 0.03009 0.75582 0.0
O323 O 0.03103 0.0224 0.7733 0.0
O324 O 0.03716 0.99248 0.69668 0.0
O325 O 0.02021 0.01391 0.664 0.0
O326 O 0.03899 0.99659 0.85011 0.0
O327 O 0.04773 0.97745 0.78497 0.0
O328 O 0.00875 0.97076 0.75231 0.0
O329 O 0.99699 0.97887 0.67487 0.0
O330 O 0.97864 0.9966 0.7602 0.0
O331 O 1.00101 0.99957 0.82484 0.0
C332 C 0.01826 0.03447 0.77275 0.0
O333 O 0.98209 0.0058 0.62227 0.0
O334 O 0.97187 0.02423 0.68693 0.0
C335 C 0.03483 0.00391 0.66235 0.0
C336 C 0.04893 0.96838 0.86956 0.0
C337 C 0.04702 0.93786 0.92294 0.0
C338 C 0.06293 0.9417 0.89507 0.0
C339 C 0.06387 0.95685 0.86874 0.0
C340 C 0.03318 0.96487 0.8983 0.0
C341 C 0.03229 0.94983 0.9251 0.0
C342 C 0.04923 0.98279 0.83563 0.0
C343 C 1.00077 0.96666 0.7059 0.0
H344 H 0.96105 0.07752 0.60001 0.0
H345 H 0.95269 0.05053 0.63932 0.0
H346 H 0.99943 0.02362 0.56333 0.0
H347 H 0.00786 0.05034 0.52527 0.0
H348 H 0.07443 0.93268 0.89191 0.0
H349 H 0.07604 0.95924 0.84614 0.0
H350 H 0.02137 0.97348 0.89901 0.0
H351 H 0.01996 0.94747 0.94696 0.0
Tb352 Tb 0.50401 0.98293 0.69585 0.0
Tb353 Tb 0.51784 0.01666 0.78055 0.0
C354 C 0.51947 0.97798 0.80692 0.0
C355 C 0.47602 0.94519 0.63111 0.0
C356 C 0.44327 0.92523 0.61503 0.0
C357 C 0.4597 0.91881 0.59105 0.0
C358 C 0.47592 0.92877 0.59883 0.0
C359 C 0.46002 0.95106 0.65812 0.0
C360 C 0.44377 0.94121 0.65001 0.0
C361 C 0.49238 0.95668 0.63322 0.0
O362 O 0.47903 0.99415 0.73316 0.0
O363 O 0.49115 0.00931 0.80996 0.0
O364 O 0.49984 0.0262 0.72212 0.0
O365 O 0.50751 0.00578 0.65258 0.0
O366 O 0.526 0.02774 0.85746 0.0
O367 O 0.52359 0.04401 0.79363 0.0
O368 O 0.54029 0.01205 0.72405 0.0
O369 O 0.53371 0.98329 0.68715 0.0
O370 O 0.50559 0.9744 0.77437 0.0
O371 O 0.52927 0.99255 0.80577 0.0
C372 C 0.4771 0.00226 0.78189 0.0
O373 O 0.48939 0.97327 0.62706 0.0
O374 O 0.50392 0.95527 0.67177 0.0
C375 C 0.50141 0.02158 0.67083 0.0
C376 C 0.54723 0.05132 0.85558 0.0
C377 C 0.58195 0.06651 0.882 0.0
C378 C 0.56759 0.06822 0.9192 0.0
C379 C 0.55036 0.06069 0.90602 0.0
C380 C 0.56145 0.04971 0.81818 0.0
C381 C 0.57863 0.05728 0.83119 0.0
C382 C 0.52914 0.04333 0.84222 0.0
C383 C 0.54499 0.99705 0.69551 0.0
H384 H 0.45988 0.9064 0.56468 0.0
H385 H 0.48822 0.92397 0.57812 0.0
H386 H 0.45989 0.96367 0.68356 0.0
H387 H 0.4314 0.9467 0.66874 0.0
H388 H 0.56977 0.07499 0.95894 0.0
H389 H 0.53953 0.06204 0.93537 0.0
H390 H 0.55928 0.0426 0.77888 0.0
H391 H 0.58932 0.05588 0.80143 0.0
Tb392 Tb 0.49906 0.49572 0.78058 0.0
Tb393 Tb 0.52929 0.50708 0.69343 0.0
C394 C 0.48786 0.50276 0.66434 0.0
C395 C 0.47623 0.46638 0.8661 0.0
C396 C 0.47345 0.43227 0.90003 0.0
C397 C 0.45883 0.44435 0.90769 0.0
C398 C 0.46021 0.46125 0.89073 0.0
C399 C 0.49088 0.45447 0.85877 0.0
C400 C 0.4895 0.43758 0.87539 0.0
C401 C 0.47738 0.48378 0.84589 0.0
O402 O 0.51513 0.47227 0.75438 0.0
O403 O 0.52367 0.47886 0.67199 0.0
O404 O 0.54427 0.49727 0.75818 0.0
O405 O 0.52362 0.50581 0.82341 0.0
O406 O 0.53872 0.50743 0.61526 0.0
O407 O 0.55452 0.51963 0.68242 0.0
O408 O 0.52069 0.53161 0.73965 0.0
O409 O 0.49363 0.52381 0.77883 0.0
O410 O 0.48578 0.49267 0.70266 0.0
O411 O 0.50268 0.51251 0.66092 0.0
C412 C 0.52035 0.46725 0.70537 0.0
O413 O 0.49191 0.49335 0.85974 0.0
O414 O 0.4739 0.48351 0.79548 0.0
C415 C 0.54038 0.5016 0.8086 0.0
C416 C 0.55418 0.53474 0.60694 0.0
C417 C 0.55723 0.56839 0.57018 0.0
C418 C 0.57239 0.56086 0.59313 0.0
C419 C 0.57089 0.54415 0.6111 0.0
C420 C 0.53904 0.54218 0.58364 0.0
C421 C 0.5406 0.55879 0.56507 0.0
C422 C 0.55245 0.51798 0.63096 0.0
C423 C 0.50524 0.53573 0.76458 0.0
H424 H 0.44636 0.4408 0.92711 0.0
H425 H 0.44874 0.47027 0.89659 0.0
H426 H 0.50336 0.45818 0.83976 0.0
H427 H 0.50093 0.42857 0.86805 0.0
H428 H 0.58541 0.5679 0.59717 0.0
H429 H 0.58269 0.53872 0.62928 0.0
H430 H 0.52589 0.53536 0.58069 0.0
H431 H 0.52865 0.56436 0.54804 0.0
Tb432 Tb 0.01635 0.51424 0.71224 0.0
Tb433 Tb 0.00679 0.48032 0.77638 0.0
C434 C 1.00118 0.51901 0.82622 0.0
C435 C 0.04135 0.54973 0.65298 0.0
C436 C 0.07417 0.5669 0.62963 0.0
C437 C 0.05713 0.57398 0.61741 0.0
C438 C 0.04084 0.56546 0.62916 0.0
C439 C 0.05827 0.54257 0.66514 0.0
C440 C 0.07457 0.5511 0.65365 0.0
C441 C 0.02422 0.54124 0.66694 0.0
O442 O 0.04015 0.51185 0.76286 0.0
O443 O 0.03647 0.48304 0.78204 0.0
O444 O 0.00816 0.47081 0.69208 0.0
O445 O 0.02924 0.49095 0.66919 0.0
O446 O 0.99433 0.47048 0.84117 0.0
O447 O 0.00946 0.453 0.78339 0.0
O448 O 0.98029 0.48852 0.74743 0.0
O449 O 0.99001 0.50434 0.68042 0.0
O450 O 0.99811 0.52272 0.77793 0.0
O451 O 0.00929 0.50415 0.83363 0.0
C452 C 0.04648 0.49755 0.78123 0.0
O453 O 0.02067 0.52552 0.64148 0.0
O454 O 0.02128 0.54174 0.71776 0.0
C455 C 0.02088 0.47543 0.65984 0.0
C456 C 0.98353 0.44103 0.82223 0.0
C457 C 0.95366 0.41783 0.83244 0.0
C458 C 0.97161 0.41278 0.84406 0.0
C459 C 0.98641 0.42435 0.83927 0.0
C460 C 0.9659 0.44559 0.8068 0.0
C461 C 0.9511 0.43416 0.81213 0.0
C462 C 0.99865 0.45405 0.82448 0.0
C463 C 0.97704 0.49613 0.7043 0.0
H464 H 0.05641 0.58619 0.59924 0.0
H465 H 0.02784 0.57121 0.61992 0.0
H466 H 0.05886 0.53039 0.68353 0.0
H467 H 0.08747 0.54517 0.66276 0.0
H468 H 0.97416 0.40018 0.85878 0.0
H469 H 0.99999 0.42054 0.85075 0.0
H470 H 0.96343 0.45837 0.79306 0.0
H471 H 0.93752 0.43868 0.80336 0.0
C472 C 0.14972 0.00284 0.30896 0.0
C473 C 0.16633 0.01181 0.32321 0.0
C474 C 0.13478 0.00415 0.34379 0.0
C475 C 0.10242 0.01447 0.41741 0.0
H476 H 0.11435 0.01101 0.5649 0.0
C477 C 0.04732 0.01784 0.58427 0.0
C478 C 0.04928 0.00581 0.62203 0.0
C479 C 0.06115 0.01974 0.547 0.0
C480 C 0.11075 0.01191 0.52385 0.0
H481 H 0.17991 0.02973 0.38483 0.0
H482 H 0.1538 0.03228 0.44503 0.0
H483 H 0.1389 0.01271 0.50083 0.0
H484 H 0.06737 0.98624 0.64968 0.0
H485 H 0.09131 0.98948 0.58487 0.0
H486 H 0.07422 0.0132 0.44043 0.0
C487 C 0.1524 0.02402 0.40714 0.0
C488 C 0.12485 0.01312 0.48715 0.0
C489 C 0.16732 0.02275 0.37225 0.0
C490 C 0.06537 0.99568 0.6214 0.0
C491 C 0.07919 0.99763 0.58437 0.0
C492 C 0.08828 0.01333 0.45424 0.0
C493 C 0.13607 0.01443 0.39389 0.0
C494 C 0.1209 0.01426 0.43332 0.0
C495 C 0.07733 0.00973 0.5468 0.0
C496 C 0.09227 0.01182 0.50784 0.0
H497 H 0.1484 0.99444 0.27129 0.0
H498 H 0.12248 0.9965 0.33228 0.0
H499 H 0.09886 0.01548 0.37639 0.0
H500 H 0.03514 0.02589 0.58361 0.0
H501 H 0.05931 0.02928 0.51894 0.0
C502 C 0.46423 0.14746 0.44196 0.0
C503 C 0.4665 0.14678 0.38664 0.0
C504 C 0.46606 0.13216 0.46704 0.0
C505 C 0.48837 0.08877 0.45386 0.0
H506 H 0.45591 0.08053 0.56947 0.0
C507 C 0.49778 0.0299 0.57838 0.0
C508 C 0.49598 0.03427 0.63367 0.0
C509 C 0.49278 0.0421 0.54371 0.0
C510 C 0.46516 0.08269 0.53745 0.0
H511 H 0.47226 0.12925 0.31432 0.0
H512 H 0.47574 0.10246 0.35859 0.0
H513 H 0.44939 0.10448 0.51629 0.0
H514 H 0.48747 0.05488 0.69582 0.0
H515 H 0.47896 0.07609 0.63568 0.0
H516 H 0.50442 0.06725 0.47602 0.0
C517 C 0.47255 0.11496 0.38231 0.0
C518 C 0.46139 0.09639 0.50694 0.0
C519 C 0.47058 0.1303 0.35702 0.0
C520 C 0.48899 0.05103 0.65347 0.0
C521 C 0.48397 0.06317 0.61892 0.0
C522 C 0.49217 0.07506 0.48453 0.0
C523 C 0.47034 0.11576 0.43765 0.0
C524 C 0.47318 0.09985 0.46559 0.0
C525 C 0.4858 0.05888 0.56364 0.0
C526 C 0.48082 0.07214 0.52746 0.0
H527 H 0.46159 0.15994 0.46641 0.0
H528 H 0.46466 0.13332 0.50986 0.0
H529 H 0.49779 0.0912 0.42253 0.0
H530 H 0.5031 0.01709 0.56182 0.0
H531 H 0.49424 0.03835 0.5013 0.0
C532 C 0.35641 0.49592 0.35729 0.0
C533 C 0.35864 0.50513 0.31269 0.0
C534 C 0.37104 0.49432 0.3922 0.0
C535 C 0.41417 0.51702 0.43786 0.0
H536 H 0.42294 0.47439 0.50438 0.0
C537 C 0.47601 0.51169 0.57827 0.0
C538 C 0.47333 0.50271 0.62307 0.0
C539 C 0.46247 0.51136 0.53892 0.0
C540 C 0.42056 0.48649 0.48668 0.0
H541 H 0.37844 0.51891 0.26837 0.0
H542 H 0.40389 0.51616 0.32932 0.0
H543 H 0.39882 0.47432 0.4375 0.0
H544 H 0.45411 0.48644 0.66162 0.0
H545 H 0.4304 0.48617 0.59375 0.0
H546 H 0.43562 0.52933 0.48752 0.0
C547 C 0.39071 0.51047 0.33779 0.0
C548 C 0.40674 0.48641 0.44817 0.0
C549 C 0.37611 0.51201 0.30278 0.0
C550 C 0.45671 0.49345 0.6276 0.0
C551 C 0.44313 0.49319 0.58837 0.0
C552 C 0.42791 0.51713 0.47652 0.0
C553 C 0.38827 0.50192 0.38354 0.0
C554 C 0.40335 0.50169 0.42331 0.0
C555 C 0.44582 0.50211 0.5434 0.0
C556 C 0.43129 0.50188 0.5016 0.0
H557 H 0.34312 0.49067 0.36672 0.0
H558 H 0.36862 0.48778 0.42726 0.0
H559 H 0.41172 0.52913 0.42027 0.0
H560 H 0.48867 0.51887 0.57321 0.0
H561 H 0.46518 0.51817 0.50457 0.0
C562 C 0.06993 0.36552 0.28894 0.0
C563 C 0.05698 0.35157 0.28059 0.0
C564 C 0.066 0.38112 0.32257 0.0
C565 C 0.02785 0.40606 0.39551 0.0
H566 H 0.06659 0.42398 0.49336 0.0
C567 C 0.01384 0.44831 0.5958 0.0
C568 C 0.02529 0.46308 0.61155 0.0
C569 C 0.01783 0.43653 0.55053 0.0
C570 C 0.05571 0.41931 0.46584 0.0
H571 H 0.02956 0.34328 0.30009 0.0
H572 H 0.02275 0.37026 0.35889 0.0
H573 H 0.07313 0.40032 0.42173 0.0
H574 H 0.04995 0.47706 0.59188 0.0
H575 H 0.05708 0.45622 0.51287 0.0
H576 H 0.01029 0.42463 0.44112 0.0
C577 C 0.03584 0.3694 0.33877 0.0
C578 C 0.05945 0.40577 0.4246 0.0
C579 C 0.03974 0.35387 0.30493 0.0
C580 C 0.04085 0.46581 0.58082 0.0
C581 C 0.04497 0.45386 0.53572 0.0
C582 C 0.02409 0.41949 0.437 0.0
C583 C 0.04905 0.38309 0.34893 0.0
C584 C 0.04549 0.39874 0.3894 0.0
C585 C 0.03347 0.43911 0.52007 0.0
C586 C 0.0379 0.42605 0.47316 0.0
H587 H 0.08327 0.36421 0.2703 0.0
H588 H 0.07636 0.39151 0.32857 0.0
H589 H 0.01685 0.40127 0.36859 0.0
H590 H 1.00172 0.44581 0.61842 0.0
H591 H 0.00884 0.42516 0.53994 0.0
C592 C 0.85312 0.98471 0.11103 0.0
C593 C 0.85673 0.99021 0.16517 0.0
C594 C 0.86719 0.98399 0.07345 0.0
C595 C 0.91764 0.983 0.0562 0.0
H596 H 0.90667 0.0038 0.92751 0.0
C597 C 0.97404 0.99773 0.90573 0.0
C598 C 0.96953 0.99536 0.85129 0.0
C599 C 0.96055 0.99629 0.94431 0.0
C600 C 0.90995 0.99768 0.96275 0.0
H601 H 0.87825 0.99847 0.2223 0.0
H602 H 0.90283 0.99722 0.15658 0.0
H603 H 0.8829 0.00206 0.99379 0.0
H604 H 0.94728 0.98917 0.79492 0.0
H605 H 0.92396 0.98632 0.86179 0.0
H606 H 0.9447 0.97855 0.02498 0.0
C607 C 0.88907 0.99346 0.14329 0.0
C608 C 0.89628 0.9967 1.00089 0.0
C609 C 0.87495 0.99429 0.18093 0.0
C610 C 0.95126 0.99125 0.83644 0.0
C611 C 0.93782 0.98971 0.87494 0.0
C612 C 0.93132 0.98388 0.01782 0.0
C613 C 0.88529 0.98867 0.0889 0.0
C614 C 0.89992 0.98935 0.04812 0.0
C615 C 0.94222 0.99234 0.92948 0.0
C616 C 0.92767 0.99125 0.97051 0.0
H617 H 0.83925 0.98169 0.09723 0.0
H618 H 0.86382 0.98001 0.03201 0.0
H619 H 0.92086 0.97711 0.0919 0.0
H620 H 0.98796 0.00092 0.91873 0.0
H621 H 0.96447 0.99862 0.98583 0.0
C622 C 0.57066 0.8652 0.08196 0.0
C623 C 0.55643 0.85433 0.09758 0.0
C624 C 0.56672 0.88029 0.05719 0.0
C625 C 0.53209 0.89573 0.97114 0.0
H626 H 0.55482 0.94237 0.00301 0.0
C627 C 0.51027 0.95341 0.85884 0.0
C628 C 0.52374 0.96547 0.84562 0.0
C629 C 0.51424 0.94105 0.89369 0.0
C630 C 0.54853 0.92937 0.99311 0.0
H631 H 0.52693 0.85106 0.10102 0.0
H632 H 0.52007 0.87731 0.0576 0.0
H633 H 0.56195 0.91887 0.05793 0.0
H634 H 0.5519 0.97422 0.85913 0.0
H635 H 0.55912 0.95212 0.91858 0.0
H636 H 0.51922 0.90569 0.90538 0.0
C637 C 0.53426 0.87418 0.06461 0.0
C638 C 0.55255 0.91596 0.02479 0.0
C639 C 0.53819 0.85925 0.08991 0.0
C640 C 0.54123 0.9651 0.86872 0.0
C641 C 0.54531 0.95248 0.90304 0.0
C642 C 0.52828 0.90898 0.93912 0.0
C643 C 0.54847 0.88461 0.04693 0.0
C644 C 0.54425 0.89905 0.01429 0.0
C645 C 0.5319 0.94015 0.91554 0.0
C646 C 0.53631 0.92605 0.94981 0.0
H647 H 0.58485 0.86177 0.08761 0.0
H648 H 0.57794 0.88807 0.04382 0.0
H649 H 0.52579 0.8827 0.96143 0.0
H650 H 0.49657 0.95354 0.84234 0.0
H651 H 0.50338 0.93216 0.9034 0.0
C652 C 0.66467 0.51234 0.14166 0.0
C653 C 0.66874 0.49619 0.16118 0.0
C654 C 0.65003 0.51338 0.10633 0.0
C655 C 0.61277 0.51363 0.05019 0.0
H656 H 0.60753 0.47448 0.9368 0.0
C657 C 0.55124 0.50709 0.90346 0.0
C658 C 0.55498 0.50149 0.84958 0.0
C659 C 0.5649 0.50682 0.94224 0.0
C660 C 0.60886 0.48558 0.96799 0.0
H661 H 0.66029 0.46854 0.15937 0.0
H662 H 0.63466 0.47044 0.09859 0.0
H663 H 0.63132 0.47349 0.00404 0.0
H664 H 0.57615 0.49128 0.79438 0.0
H665 H 0.59995 0.49082 0.862 0.0
H666 H 0.59043 0.52581 0.01362 0.0
C667 C 0.64289 0.48228 0.11022 0.0
C668 C 0.62237 0.48491 0.00696 0.0
C669 C 0.65745 0.48126 0.14572 0.0
C670 C 0.57275 0.49566 0.83546 0.0
C671 C 0.58639 0.4953 0.8743 0.0
C672 C 0.59917 0.51425 0.01136 0.0
C673 C 0.63918 0.49826 0.08936 0.0
C674 C 0.62452 0.49893 0.04854 0.0
C675 C 0.58263 0.50086 0.92821 0.0
C676 C 0.59708 0.50024 0.96967 0.0
H677 H 0.67301 0.52413 0.15299 0.0
H678 H 0.64762 0.52589 0.09089 0.0
H679 H 0.61397 0.52461 0.08181 0.0
H680 H 0.53771 0.51165 0.91587 0.0
H681 H 0.56146 0.51101 0.98341 0.0
C682 C 0.95699 0.64263 0.16002 0.0
C683 C 0.97081 0.64721 0.19822 0.0
C684 C 0.95813 0.627 0.12455 0.0
C685 C 0.98011 0.58328 0.09642 0.0
H686 H 0.9776 0.59259 0.94958 0.0
C687 C 1.00432 0.53202 0.92179 0.0
C688 C 0.9957 0.53186 0.87213 0.0
C689 C 0.99987 0.54497 0.9641 0.0
C690 C 0.97797 0.58955 0.99019 0.0
H691 H 0.99608 0.63818 0.23107 0.0
H692 H 0.99774 0.61064 0.16999 0.0
H693 H 0.97143 0.61642 0.02038 0.0
H694 H 0.97503 0.54452 0.8285 0.0
H695 H 0.96666 0.5665 0.90249 0.0
H696 H 0.98639 0.55632 0.06633 0.0
C697 C 0.9861 0.61929 0.16743 0.0
C698 C 0.9745 0.60329 0.03085 0.0
C699 C 0.98508 0.63506 0.20259 0.0
C700 C 0.9821 0.54447 0.86612 0.0
C701 C 0.9774 0.55717 0.90859 0.0
C702 C 0.9833 0.56939 0.05562 0.0
C703 C 0.97298 0.61543 0.12692 0.0
C704 C 0.97564 0.60036 0.08435 0.0
C705 C 0.98646 0.55786 0.95794 0.0
C706 C 0.9824 0.57236 1.00185 0.0
H707 H 0.94557 0.65144 0.15627 0.0
H708 H 0.94766 0.62419 0.09423 0.0
H709 H 0.98102 0.58065 0.13739 0.0
H710 H 0.01493 0.5225 0.9275 0.0
H711 H 0.00736 0.54515 1.00108 0.0
C712 C 0.06332 0.18358 0.36473 0.0
C713 C 0.06277 0.20124 0.38959 0.0
C714 C 0.05605 0.16969 0.38965 0.0
C715 C 0.02166 0.16083 0.4885 0.0
H716 H 0.04335 0.11385 0.46952 0.0
C717 C 0.99191 0.09893 0.57608 0.0
C718 C 0.99185 0.08289 0.54142 0.0
C719 C 1.00045 0.11419 0.56132 0.0
C720 C 0.03709 0.12688 0.47487 0.0
H721 H 0.05475 0.21804 0.46122 0.0
H722 H 0.04202 0.19363 0.5051 0.0
H723 H 0.06001 0.13897 0.44059 0.0
H724 H 0.99966 0.07061 0.46292 0.0
H725 H 0.01465 0.09719 0.43742 0.0
H726 H 0.99867 0.14858 0.52268 0.0
C727 C 0.04793 0.19064 0.46589 0.0
C728 C 0.04663 0.14127 0.45839 0.0
C729 C 0.05524 0.2046 0.44085 0.0
C730 C 0.99978 0.08266 0.49088 0.0
C731 C 0.00838 0.09786 0.47632 0.0
C732 C 0.01214 0.14641 0.50535 0.0
C733 C 0.04801 0.17307 0.44015 0.0
C734 C 0.03886 0.15833 0.46388 0.0
C735 C 0.00916 0.11365 0.51182 0.0
C736 C 0.01961 0.12924 0.49756 0.0
H737 H 0.0686 0.18052 0.32477 0.0
H738 H 0.05603 0.15638 0.36822 0.0
H739 H 0.01521 0.17377 0.49281 0.0
H740 H 0.98612 0.09948 0.61554 0.0
H741 H 1.0009 0.1262 0.58947 0.0
C742 C 0.31895 0.92597 0.35645 0.0
C743 C 0.30236 0.93363 0.37485 0.0
C744 C 0.33008 0.91751 0.39017 0.0
C745 C 0.34218 0.92199 0.52901 0.0
H746 H 0.37532 0.88361 0.48065 0.0
C747 C 0.41071 0.91669 0.63439 0.0
C748 C 0.42536 0.91673 0.5984 0.0
C749 C 0.393 0.91202 0.61614 0.0
C750 C 0.36606 0.89424 0.49507 0.0
H751 H 0.28381 0.93763 0.44175 0.0
H752 H 0.30351 0.92294 0.50142 0.0
H753 H 0.3476 0.88777 0.42957 0.0
H754 H 0.43298 0.91071 0.5154 0.0
H755 H 0.40242 0.90255 0.48398 0.0
H756 H 0.36121 0.92933 0.59222 0.0
C757 C 0.30783 0.92346 0.46079 0.0
C758 C 0.3502 0.8966 0.46586 0.0
C759 C 0.29656 0.93178 0.4267 0.0
C760 C 0.42215 0.91063 0.54449 0.0
C761 C 0.40452 0.90591 0.52636 0.0
C762 C 0.35806 0.91967 0.55811 0.0
C763 C 0.32494 0.91665 0.44321 0.0
C764 C 0.33861 0.91106 0.48109 0.0
C765 C 0.38961 0.90722 0.56159 0.0
C766 C 0.37066 0.90635 0.53988 0.0
H767 H 0.32363 0.92713 0.31647 0.0
H768 H 0.34327 0.91263 0.37556 0.0
H769 H 0.33358 0.93332 0.54165 0.0
H770 H 0.41278 0.92098 0.67636 0.0
H771 H 0.38182 0.91293 0.64436 0.0
C772 C 0.51655 0.30979 0.52313 0.0
C773 C 0.49859 0.30375 0.51076 0.0
C774 C 0.51965 0.32654 0.55195 0.0
C775 C 0.4984 0.37 0.57084 0.0
H776 H 0.5348 0.38191 0.68166 0.0
C777 C 0.52203 0.44205 0.63183 0.0
C778 C 0.52125 0.44799 0.68652 0.0
C779 C 0.52058 0.42391 0.61355 0.0
C780 C 0.52457 0.37872 0.65081 0.0
H781 H 0.4698 0.31012 0.52102 0.0
H782 H 0.47523 0.33931 0.57148 0.0
H783 H 0.52883 0.35056 0.64771 0.0
H784 H 0.51943 0.43945 0.76507 0.0
H785 H 0.51701 0.40773 0.73292 0.0
H786 H 0.49421 0.39803 0.57333 0.0
C787 C 0.48689 0.33112 0.55866 0.0
C788 C 0.52121 0.36085 0.63134 0.0
C789 C 0.48379 0.31435 0.53024 0.0
C790 C 0.51993 0.43533 0.72265 0.0
C791 C 0.51865 0.41715 0.70433 0.0
C792 C 0.5019 0.3878 0.58977 0.0
C793 C 0.50484 0.33758 0.56845 0.0
C794 C 0.50806 0.35634 0.5912 0.0
C795 C 0.51851 0.41133 0.64957 0.0
C796 C 0.51506 0.39235 0.62977 0.0
H797 H 0.52821 0.30182 0.50899 0.0
H798 H 0.53363 0.33122 0.55884 0.0
H799 H 0.48836 0.36693 0.5394 0.0
H800 H 0.52307 0.45143 0.60294 0.0
H801 H 0.52075 0.41972 0.57111 0.0
C802 C 0.20527 0.59165 0.38777 0.0
C803 C 0.2227 0.58782 0.40703 0.0
C804 C 0.19092 0.59629 0.42283 0.0
C805 C 0.17584 0.5858 0.55107 0.0
H806 H 0.13456 0.61525 0.5232 0.0
C807 C 0.10645 0.57712 0.65113 0.0
C808 C 0.0915 0.57557 0.61572 0.0
C809 C 0.12326 0.58389 0.63606 0.0
C810 C 0.146 0.60699 0.53161 0.0
H811 H 0.23911 0.58758 0.47843 0.0
H812 H 0.21386 0.59542 0.5398 0.0
H813 H 0.16361 0.61871 0.47769 0.0
H814 H 0.08229 0.58037 0.53741 0.0
H815 H 0.11161 0.5919 0.51079 0.0
H816 H 0.15807 0.57333 0.60245 0.0
C817 C 0.21134 0.59462 0.49744 0.0
C818 C 0.16263 0.60902 0.50572 0.0
C819 C 0.22576 0.59007 0.46229 0.0
C820 C 0.0935 0.58157 0.56578 0.0
C821 C 0.11031 0.58826 0.55062 0.0
C822 C 0.15922 0.58372 0.57678 0.0
C823 C 0.19362 0.59713 0.47798 0.0
C824 C 0.17751 0.59798 0.51372 0.0
C825 C 0.1255 0.58917 0.58517 0.0
C826 C 0.14391 0.59383 0.56584 0.0
H827 H 0.2023 0.58983 0.34557 0.0
H828 H 0.1774 0.59791 0.40649 0.0
H829 H 0.18697 0.57692 0.55765 0.0
H830 H 0.10521 0.57288 0.69027 0.0
H831 H 0.13462 0.58465 0.66387 0.0
C832 C 0.03009 0.81395 0.18386 0.0
C833 C 0.03009 0.79664 0.15638 0.0
C834 C 0.03278 0.8287 0.15673 0.0
C835 C 0.05183 0.84389 0.03746 0.0
H836 H 0.01592 0.8815 0.06332 0.0
C837 C 0.06072 0.91437 0.97278 0.0
C838 C 0.0455 0.92113 0.94791 0.0
C839 C 0.05925 0.89852 0.99565 0.0
C840 C 0.02599 0.87107 0.05556 0.0
H841 H 0.03346 0.78112 0.0793 0.0
H842 H 0.03847 0.8071 0.03166 0.0
H843 H 0.01301 0.85487 0.10834 0.0
H844 H 0.01691 0.91619 0.9264 0.0
H845 H 0.01426 0.88888 0.96784 0.0
H846 H 0.06492 0.86028 0.98506 0.0
C847 C 0.03631 0.80914 0.07423 0.0
C848 C 0.0244 0.85593 0.08155 0.0
C849 C 0.03337 0.79434 0.10135 0.0
C850 C 0.0288 0.91163 0.94631 0.0
C851 C 0.02729 0.89592 0.96969 0.0
C852 C 0.05357 0.8592 0.01196 0.0
C853 C 0.03569 0.82645 0.10163 0.0
C854 C 0.03733 0.84224 0.07289 0.0
C855 C 0.04248 0.88924 0.99462 0.0
C856 C 0.04065 0.87291 0.02085 0.0
H857 H 0.02735 0.81615 0.22614 0.0
H858 H 0.03238 0.84191 0.17878 0.0
H859 H 0.06198 0.83352 0.0303 0.0
H860 H 0.07373 0.92144 0.97535 0.0
H861 H 0.07111 0.89374 0.0152 0.0
C862 C 0.7263 0.06262 0.05817 0.0
C863 C 0.73169 0.07292 0.10581 0.0
C864 C 0.7131 0.06881 0.02535 0.0
C865 C 0.67218 0.09507 0.03899 0.0
H866 H 0.6697 0.08203 0.88629 0.0
C867 C 0.603 0.08988 0.92919 0.0
C868 C 0.60057 0.07348 0.89707 0.0
C869 C 0.62047 0.09558 0.94706 0.0
C870 C 0.67021 0.08588 0.92888 0.0
H871 H 0.72838 0.09851 0.15384 0.0
H872 H 0.70478 0.10909 0.09695 0.0
H873 H 0.69925 0.08227 0.93184 0.0
H874 H 0.61467 0.05044 0.85748 0.0
H875 H 0.64497 0.06028 0.88855 0.0
H876 H 0.64306 0.09753 0.03673 0.0
C877 C 0.71087 0.09618 0.08537 0.0
C878 C 0.68711 0.08607 0.95488 0.0
C879 C 0.72429 0.09006 0.11806 0.0
C880 C 0.61606 0.06326 0.88149 0.0
C881 C 0.63348 0.06895 0.89922 0.0
C882 C 0.65527 0.09484 0.01302 0.0
C883 C 0.70478 0.08537 0.03949 0.0
C884 C 0.68813 0.08986 0.0105 0.0
C885 C 0.63586 0.08499 0.93306 0.0
C886 C 0.65401 0.08941 0.95804 0.0
H887 H 0.73135 0.04924 0.04766 0.0
H888 H 0.70849 0.06001 0.99078 0.0
H889 H 0.67249 0.09791 0.08194 0.0
H890 H 0.59136 0.09821 0.94113 0.0
H891 H 0.6219 0.10808 0.9727 0.0
C892 C 0.54567 0.68436 0.91479 0.0
C893 C 0.53382 0.69642 0.94385 0.0
C894 C 0.53885 0.66874 0.88617 0.0
C895 C 0.49893 0.63821 0.8836 0.0
H896 H 0.5251 0.61439 0.76283 0.0
C897 C 0.49707 0.562 0.82934 0.0
C898 C 0.50136 0.55478 0.77735 0.0
C899 C 0.49697 0.5805 0.84316 0.0
C900 C 0.51725 0.62087 0.79575 0.0
H901 H 0.5053 0.70197 0.96289 0.0
H902 H 0.49331 0.67511 0.91086 0.0
H903 H 0.53237 0.6451 0.79448 0.0
H904 H 0.50732 0.56081 0.69788 0.0
H905 H 0.50593 0.59298 0.72077 0.0
H906 H 0.48345 0.61408 0.88392 0.0
C907 C 0.50797 0.67747 0.91157 0.0
C908 C 0.52171 0.6385 0.81459 0.0
C909 C 0.51484 0.69303 0.94079 0.0
C910 C 0.50416 0.56618 0.73845 0.0
C911 C 0.50355 0.58461 0.75181 0.0
C912 C 0.49422 0.62065 0.86412 0.0
C913 C 0.51994 0.66488 0.88509 0.0
C914 C 0.51308 0.64721 0.8599 0.0
C915 C 0.50077 0.59206 0.80483 0.0
C916 C 0.50372 0.61153 0.82094 0.0
H917 H 0.56034 0.6867 0.91544 0.0
H918 H 0.54857 0.65936 0.86688 0.0
H919 H 0.49201 0.6444 0.91876 0.0
H920 H 0.49502 0.55339 0.85999 0.0
H921 H 0.49497 0.58562 0.8845 0.0
C922 C 0.80885 0.40095 0.05083 0.0
C923 C 0.8053 0.41935 0.05957 0.0
C924 C 0.82397 0.39458 0.02047 0.0
C925 C 0.86956 0.40657 1.00074 0.0
H926 H 0.8711 0.38228 0.85683 0.0
C927 C 0.9377 0.40028 0.89669 0.0
C928 C 0.9375 0.40756 0.84823 0.0
C929 C 0.92145 0.3946 0.91842 0.0
C930 C 0.87087 0.38887 0.89726 0.0
H931 H 0.81455 0.44538 0.04222 0.0
H932 H 0.84081 0.43423 0.98973 0.0
H933 H 0.84151 0.38686 0.90258 0.0
H934 H 0.92037 0.4123 0.78136 0.0
H935 H 0.89192 0.40319 0.82048 0.0
H936 H 0.89848 0.40966 0.9954 0.0
C937 C 0.83178 0.42479 0.00585 0.0
C938 C 0.85401 0.39138 0.92334 0.0
C939 C 0.81669 0.43112 0.03562 0.0
C940 C 0.92095 0.40725 0.81949 0.0
C941 C 0.90464 0.40176 0.84159 0.0
C942 C 0.88633 0.404 0.97505 0.0
C943 C 0.83574 0.40656 0.99905 0.0
C944 C 0.85328 0.40074 0.97461 0.0
C945 C 0.90461 0.3963 0.89262 0.0
C946 C 0.88717 0.3956 0.92241 0.0
H947 H 0.80024 0.39157 0.06863 0.0
H948 H 0.82692 0.38046 0.01575 0.0
H949 H 0.86922 0.4139 0.04027 0.0
H950 H 0.95011 0.40026 0.92014 0.0
H951 H 0.92192 0.39005 0.9573 0.0
C952 C 0.07072 0.18573 0.93998 0.0
C953 C 0.05755 0.19654 0.96835 0.0
C954 C 0.06586 0.16909 0.91285 0.0
C955 C 0.02935 0.13445 0.91297 0.0
H956 H 0.05519 0.11227 0.78897 0.0
C957 C 0.00834 0.06577 0.80236 0.0
C958 C 0.02255 0.05342 0.79155 0.0
C959 C 0.01227 0.08363 0.82047 0.0
C960 C 0.04793 0.11829 0.82375 0.0
H961 H 0.02857 0.19855 0.98722 0.0
H962 H 0.01997 0.17019 0.93757 0.0
H963 H 0.06204 0.14322 0.82357 0.0
H964 H 0.05206 0.05026 0.7903 0.0
H965 H 0.05891 0.08157 0.82137 0.0
H966 H 0.01507 0.10956 0.91248 0.0
C967 C 0.03424 0.17424 0.93795 0.0
C968 C 0.05187 0.13603 0.84375 0.0
C969 C 0.03915 0.19075 0.96571 0.0
C970 C 0.0408 0.05941 0.79853 0.0
C971 C 0.04473 0.07735 0.81595 0.0
C972 C 0.02525 0.11683 0.89254 0.0
C973 C 0.04761 0.16289 0.91261 0.0
C974 C 0.04273 0.14433 0.88897 0.0
C975 C 0.0305 0.08961 0.82748 0.0
C976 C 0.03459 0.10851 0.848 0.0
H977 H 0.08498 0.18984 0.94007 0.0
H978 H 0.0766 0.16081 0.89406 0.0
H979 H 0.02231 0.14013 0.94854 0.0
H980 H 0.99413 0.06163 0.79735 0.0
H981 H 1.00102 0.0928 0.82866 0.0
C982 C 0.32615 0.0224 0.00334 0.0
C983 C 0.31869 0.00627 0.01628 0.0
C984 C 0.34251 0.02259 0.97441 0.0
C985 C 0.37435 0.99292 0.88933 0.0
H986 H 0.40948 0.03099 0.92914 0.0
C987 C 0.44285 0.99776 0.77609 0.0
C988 C 0.45853 0.0034 0.80622 0.0
C989 C 0.42541 0.99876 0.79928 0.0
C990 C 0.39992 0.02017 0.91771 0.0
H991 H 0.32285 0.97771 0.0093 0.0
H992 H 0.35124 0.97804 0.95963 0.0
H993 H 0.37996 0.03133 0.97365 0.0
H994 H 0.46802 0.01444 0.88473 0.0
H995 H 0.43781 0.01581 0.92523 0.0
H996 H 0.39458 0.98137 0.83491 0.0
C997 C 0.34429 0.99055 0.9705 0.0
C998 C 0.38281 0.0205 0.94278 0.0
C999 C 0.32793 0.99035 0.9991 0.0
C1000 C 0.45628 0.01006 0.86011 0.0
C1001 C 0.43887 0.01097 0.88334 0.0
C1002 C 0.39149 0.99254 0.86445 0.0
C1003 C 0.35191 0.00667 0.95796 0.0
C1004 C 0.36981 0.00681 0.92928 0.0
C1005 C 0.42316 0.00533 0.85331 0.0
C1006 C 0.4046 0.00608 0.87853 0.0
H1007 H 0.31934 0.03489 0.01557 0.0
H1008 H 0.34776 0.03525 0.96487 0.0
H1009 H 0.36466 0.98226 0.87719 0.0
H1010 H 0.444 0.99264 0.73442 0.0
H1011 H 0.41366 0.99452 0.77457 0.0
C1012 C 0.483 0.29045 0.07945 0.0
C1013 C 0.46667 0.2808 0.08448 0.0
C1014 C 0.48324 0.30532 0.05178 0.0
C1015 C 0.45241 0.33977 0.01276 0.0
H1016 H 0.49474 0.35281 0.93332 0.0
C1017 C 0.45555 0.40431 0.91088 0.0
C1018 C 0.47201 0.41419 0.91732 0.0
C1019 C 0.45435 0.38722 0.92647 0.0
C1020 C 0.48286 0.3494 0.95565 0.0
H1021 H 0.438 0.27867 0.06177 0.0
H1022 H 0.43845 0.30458 0.01296 0.0
H1023 H 0.49363 0.32383 0.96612 0.0
H1024 H 0.5 0.41389 0.94633 0.0
H1025 H 0.49793 0.3841 0.97308 0.0
H1026 H 0.44175 0.36544 0.00273 0.0
C1027 C 0.451 0.30082 0.03136 0.0
C1028 C 0.48221 0.33278 0.97443 0.0
C1029 C 0.45075 0.28594 0.05915 0.0
C1030 C 0.48721 0.40656 0.93986 0.0
C1031 C 0.48603 0.38946 0.9552 0.0
C1032 C 0.45303 0.35637 0.9938 0.0
C1033 C 0.46717 0.31093 0.02833 0.0
C1034 C 0.46711 0.32786 0.00394 0.0
C1035 C 0.46961 0.37958 0.94864 0.0
C1036 C 0.46839 0.36149 0.96575 0.0
H1037 H 0.49544 0.2871 0.09926 0.0
H1038 H 0.49588 0.3129 0.05099 0.0
H1039 H 0.44069 0.33656 0.03603 0.0
H1040 H 0.44366 0.40964 0.89294 0.0
H1041 H 0.44156 0.37987 0.92042 0.0
C1042 C 0.19131 0.52316 0.02537 0.0
C1043 C 0.20547 0.51074 0.01547 0.0
C1044 C 0.17475 0.52092 0.99748 0.0
C1045 C 0.14614 0.48752 0.9125 0.0
H1046 H 0.12108 0.53007 0.88182 0.0
C1047 C 0.07097 0.48551 0.83666 0.0
C1048 C 0.06543 0.49798 0.80314 0.0
C1049 C 0.08855 0.48642 0.85926 0.0
C1050 C 0.12792 0.51797 0.88918 0.0
H1051 H 0.21325 0.48604 0.96885 0.0
H1052 H 0.18444 0.48232 0.91863 0.0
H1053 H 0.15077 0.53273 0.925 0.0
H1054 H 0.07435 0.52084 0.76573 0.0
H1055 H 0.10511 0.52203 0.80323 0.0
H1056 H 0.12353 0.47274 0.87469 0.0
C1057 C 0.18601 0.49369 0.94876 0.0
C1058 C 0.14493 0.51953 0.91499 0.0
C1059 C 0.20258 0.49583 0.97733 0.0
C1060 C 0.07807 0.51112 0.79176 0.0
C1061 C 0.09573 0.51187 0.8137 0.0
C1062 C 0.12918 0.48594 0.88603 0.0
C1063 C 0.17188 0.50629 0.95824 0.0
C1064 C 0.15419 0.50436 0.92782 0.0
C1065 C 0.10119 0.49968 0.84841 0.0
C1066 C 0.11971 0.50117 0.87446 0.0
H1067 H 0.19292 0.53457 0.05542 0.0
H1068 H 0.16411 0.53064 0.00732 0.0
H1069 H 0.15271 0.47551 0.92189 0.0
H1070 H 0.06156 0.47527 0.84658 0.0
H1071 H 0.09201 0.47696 0.88637 0.0
C1072 C 0.98171 0.80579 0.57772 0.0
C1073 C 0.9726 0.80091 0.52902 0.0
C1074 C 0.98228 0.8236 0.60077 0.0
C1075 C 0.98038 0.86854 0.56032 0.0
H1076 H 0.97815 0.88434 0.71155 0.0
C1077 C 0.98547 0.9431 0.64167 0.0
C1078 C 0.99585 0.94776 0.68818 0.0
C1079 C 0.98109 0.92526 0.62453 0.0
C1080 C 0.97899 0.88013 0.66922 0.0
H1081 H 0.95624 0.81096 0.46776 0.0
H1082 H 0.95691 0.84182 0.50847 0.0
H1083 H 0.97264 0.85296 0.67891 0.0
H1084 H 0.00966 0.93723 0.75337 0.0
H1085 H 1.00236 0.90615 0.72291 0.0
H1086 H 0.98715 0.89548 0.5504 0.0
C1087 C 0.96383 0.83191 0.52848 0.0
C1088 C 0.97578 0.86215 0.65055 0.0
C1089 C 0.96322 0.81413 0.50554 0.0
C1090 C 1.0016 0.93415 0.71741 0.0
C1091 C 0.9973 0.91629 0.70012 0.0
C1092 C 0.98368 0.88646 0.57894 0.0
C1093 C 0.97381 0.83695 0.57553 0.0
C1094 C 0.97646 0.85614 0.59585 0.0
C1095 C 0.98707 0.91159 0.65327 0.0
C1096 C 0.98308 0.89252 0.63365 0.0
H1097 H 0.98895 0.79592 0.59709 0.0
H1098 H 0.99011 0.82702 0.637 0.0
H1099 H 0.9814 0.86432 0.51802 0.0
H1100 H 0.98068 0.95323 0.61837 0.0
H1101 H 0.97293 0.92221 0.58879 0.0
C1102 C 0.69058 0.98441 0.44553 0.0
C1103 C 0.70387 0.99704 0.46606 0.0
C1104 C 0.67402 0.98256 0.47236 0.0
C1105 C 0.63573 0.98951 0.51669 0.0
H1106 H 0.63258 0.99777 0.67042 0.0
C1107 C 0.56766 0.98191 0.6305 0.0
C1108 C 0.56356 0.9957 0.67116 0.0
C1109 C 0.58498 0.98093 0.60657 0.0
C1110 C 0.63322 0.99553 0.62743 0.0
H1111 H 0.71036 0.01693 0.53289 0.0
H1112 H 0.68143 0.0142 0.57836 0.0
H1113 H 0.6625 0.99728 0.6277 0.0
H1114 H 0.57473 0.01908 0.71907 0.0
H1115 H 0.60492 0.01728 0.6777 0.0
H1116 H 0.60639 0.9876 0.51673 0.0
C1117 C 0.68379 0.00552 0.54181 0.0
C1118 C 0.6504 0.99529 0.6028 0.0
C1119 C 0.70038 0.00726 0.51523 0.0
C1120 C 0.57733 0.00832 0.68778 0.0
C1121 C 0.59471 0.00722 0.66429 0.0
C1122 C 0.61856 0.98957 0.54138 0.0
C1123 C 0.6702 0.99334 0.5204 0.0
C1124 C 0.65193 0.99248 0.54698 0.0
C1125 C 0.59873 0.99358 0.62313 0.0
C1126 C 0.61707 0.99277 0.59703 0.0
H1127 H 0.69265 0.97637 0.40765 0.0
H1128 H 0.66411 0.97278 0.45498 0.0
H1129 H 0.6362 0.98763 0.47368 0.0
H1130 H 0.55741 0.97195 0.6166 0.0
H1131 H 0.58766 0.97017 0.5753 0.0
C1132 C 0.5551 0.71373 0.39791 0.0
C1133 C 0.57226 0.71802 0.37747 0.0
C1134 C 0.55322 0.69947 0.42781 0.0
C1135 C 0.57963 0.66623 0.49494 0.0
H1136 H 0.53641 0.63694 0.45966 0.0
C1137 C 0.56673 0.60059 0.58557 0.0
C1138 C 0.55867 0.58634 0.55248 0.0
C1139 C 0.56787 0.61757 0.56918 0.0
C1140 C 0.54866 0.64485 0.46964 0.0
H1141 H 0.60117 0.71151 0.37658 0.0
H1142 H 0.59779 0.68626 0.42641 0.0
H1143 H 0.53968 0.66518 0.42448 0.0
H1144 H 0.54578 0.57857 0.476 0.0
H1145 H 0.54824 0.60797 0.44655 0.0
H1146 H 0.58907 0.64535 0.53758 0.0
C1147 C 0.58575 0.69398 0.41998 0.0
C1148 C 0.55039 0.66128 0.45021 0.0
C1149 C 0.58767 0.70838 0.39068 0.0
C1150 C 0.55187 0.58936 0.50256 0.0
C1151 C 0.55321 0.60627 0.48588 0.0
C1152 C 0.57799 0.64968 0.51391 0.0
C1153 C 0.56841 0.68898 0.43756 0.0
C1154 C 0.56598 0.67215 0.46212 0.0
C1155 C 0.56116 0.62064 0.51903 0.0
C1156 C 0.56257 0.63866 0.50102 0.0
H1157 H 0.54288 0.72074 0.38846 0.0
H1158 H 0.53971 0.69633 0.44182 0.0
H1159 H 0.59172 0.67429 0.50563 0.0
H1160 H 0.57187 0.59868 0.62458 0.0
H1161 H 0.5738 0.62832 0.59621 0.0
C1162 C 0.83135 0.46946 0.46405 0.0
C1163 C 0.81797 0.48281 0.47203 0.0
C1164 C 0.84794 0.47116 0.49188 0.0
C1165 C 0.87121 0.49416 0.61081 0.0
H1166 H 0.91522 0.48201 0.52929 0.0
C1167 C 0.94343 0.48792 0.70636 0.0
C1168 C 0.95828 0.49526 0.68085 0.0
C1169 C 0.92591 0.4869 0.68315 0.0
C1170 C 0.90309 0.48554 0.55266 0.0
H1171 H 0.81157 0.50834 0.51651 0.0
H1172 H 0.84072 0.51132 0.56538 0.0
H1173 H 0.88547 0.47955 0.48511 0.0
H1174 H 0.96614 0.50747 0.61098 0.0
H1175 H 0.9358 0.50564 0.57085 0.0
H1176 H 0.889 0.50021 0.67842 0.0
C1177 C 0.83822 0.49948 0.53755 0.0
C1178 C 0.886 0.48397 0.5274 0.0
C1179 C 0.82158 0.49784 0.50928 0.0
C1180 C 0.95511 0.50168 0.63186 0.0
C1181 C 0.93769 0.50055 0.60859 0.0
C1182 C 0.88836 0.49558 0.63628 0.0
C1183 C 0.85169 0.48624 0.52864 0.0
C1184 C 0.86983 0.48824 0.55608 0.0
C1185 C 0.92288 0.49306 0.6337 0.0
C1186 C 0.90452 0.49134 0.6074 0.0
H1187 H 0.82921 0.45783 0.43513 0.0
H1188 H 0.85791 0.46063 0.48443 0.0
H1189 H 0.85902 0.49744 0.6341 0.0
H1190 H 0.94534 0.48286 0.74414 0.0
H1191 H 0.91482 0.48094 0.70335 0.0
loop_
_geom_bond_atom_site_label_1
_geom_bond_atom_site_label_2
_geom_bond_distance
_geom_bond_site_symmetry_2
_ccdc_geom_bond_type
C0 C1 1.386 . S
C0 C2 1.397 . S
C0 H24 0.931 . S
C1 C0 1.386 . S
C1 C5 1.397 . S
C2 C0 1.397 . S
C2 C3 1.384 . S
C2 H25 0.930 . S
C3 C2 1.384 . S
C3 C4 1.377 . S
C3 C6 1.481 . S
C4 C3 1.377 . S
C4 C5 1.389 . S
C4 H26 0.929 . S
C5 C1 1.397 . S
C5 C4 1.389 . S
C5 H27 0.931 . S
C6 C3 1.481 . S
C6 C7 1.387 . S
C6 C11 1.390 . S
C7 C6 1.387 . S
C7 C8 1.401 . S
C7 H28 0.930 . S
C8 C7 1.401 . S
C8 C9 1.376 . S
C8 C17 1.511 . S
C9 C8 1.376 . S
C9 C10 1.392 . S
C9 H30 0.931 . S
C10 C9 1.392 . S
C10 C11 1.361 . S
C10 C12 1.500 . S
C11 C6 1.390 . S
C11 C10 1.361 . S
C11 H29 0.931 . S
C12 C10 1.500 . S
C12 C13 1.371 . S
C12 C14 1.365 . S
C13 C12 1.371 . S
C13 C23 1.386 . S
C13 H31 0.931 . S
C14 C12 1.365 . S
C14 C15 1.409 . S
C14 H32 0.929 . S
C15 C14 1.409 . S
C15 C16 1.380 . S
C15 H33 0.930 . S
C16 C15 1.380 . S
C16 C23 1.357 . S
C17 C8 1.511 . S
C17 C18 1.341 . S
C17 C19 1.371 . S
C18 C17 1.341 . S
C18 C22 1.394 . S
C18 H34 0.930 . S
C19 C17 1.371 . S
C19 C20 1.392 . S
C19 H35 0.931 . S
C20 C19 1.392 . S
C20 C21 1.331 . S
C20 H38 0.932 . S
C21 C20 1.331 . S
C21 C22 1.336 . S
C22 C18 1.394 . S
C22 C21 1.336 . S
C22 H37 0.929 . S
C23 C13 1.386 . S
C23 C16 1.357 . S
C23 H36 0.928 . S
H24 C0 0.931 . S
H25 C2 0.930 . S
H26 C4 0.929 . S
H27 C5 0.931 . S
H28 C7 0.930 . S
H29 C11 0.931 . S
H30 C9 0.931 . S
H31 C13 0.931 . S
H32 C14 0.929 . S
H33 C15 0.930 . S
H34 C18 0.930 . S
H35 C19 0.931 . S
H36 C23 0.928 . S
H37 C22 0.929 . S
H38 C20 0.932 . S
C39 C40 1.386 . S
C39 C41 1.397 . S
C39 H63 0.931 . S
C40 C39 1.386 . S
C40 C44 1.397 . S
C41 C39 1.397 . S
C41 C42 1.384 . S
C41 H64 0.930 . S
C42 C41 1.384 . S
C42 C43 1.377 . S
C42 C45 1.481 . S
C43 C42 1.377 . S
C43 C44 1.389 . S
C43 H65 0.929 . S
C44 C40 1.397 . S
C44 C43 1.389 . S
C44 H66 0.931 . S
C45 C42 1.481 . S
C45 C46 1.387 . S
C45 C50 1.390 . S
C46 C45 1.387 . S
C46 C47 1.401 . S
C46 H67 0.930 . S
C47 C46 1.401 . S
C47 C48 1.376 . S
C47 C56 1.511 . S
C48 C47 1.376 . S
C48 C49 1.392 . S
C48 H69 0.931 . S
C49 C48 1.392 . S
C49 C50 1.361 . S
C49 C51 1.500 . S
C50 C45 1.390 . S
C50 C49 1.361 . S
C50 H68 0.931 . S
C51 C49 1.500 . S
C51 C52 1.371 . S
C51 C53 1.365 . S
C52 C51 1.371 . S
C52 C62 1.386 . S
C52 H70 0.931 . S
C53 C51 1.365 . S
C53 C54 1.409 . S
C53 H71 0.929 . S
C54 C53 1.409 . S
C54 C55 1.380 . S
C54 H72 0.930 . S
C55 C54 1.380 . S
C55 C62 1.357 . S
C56 C47 1.511 . S
C56 C57 1.341 . S
C56 C58 1.371 . S
C57 C56 1.341 . S
C57 C61 1.394 . S
C57 H73 0.930 . S
C58 C56 1.371 . S
C58 C59 1.392 . S
C58 H74 0.931 . S
C59 C58 1.392 . S
C59 C60 1.331 . S
C59 H77 0.932 . S
C60 C59 1.331 . S
C60 C61 1.336 . S
C61 C57 1.394 . S
C61 C60 1.336 . S
C61 H76 0.929 . S
C62 C52 1.386 . S
C62 C55 1.357 . S
C62 H75 0.928 . S
H63 C39 0.931 . S
H64 C41 0.930 . S
H65 C43 0.929 . S
H66 C44 0.931 . S
H67 C46 0.930 . S
H68 C50 0.931 . S
H69 C48 0.931 . S
H70 C52 0.931 . S
H71 C53 0.929 . S
H72 C54 0.930 . S
H73 C57 0.930 . S
H74 C58 0.931 . S
H75 C62 0.928 . S
H76 C61 0.929 . S
H77 C59 0.932 . S
C78 C79 1.394 . S
C78 C80 1.397 . S
C78 H102 0.931 . S
C79 C78 1.394 . S
C79 C83 1.390 1_565 S
C80 C78 1.397 . S
C80 C81 1.388 . S
C80 H103 0.930 . S
C81 C80 1.388 . S
C81 C82 1.373 1_565 S
C81 C84 1.478 . S
C82 C81 1.373 1_545 S
C82 C83 1.389 . S
C82 H104 0.929 . S
C83 C79 1.390 1_545 S
C83 C82 1.389 . S
C83 H105 0.931 . S
C84 C81 1.478 . S
C84 C85 1.388 . S
C84 C89 1.393 . S
C85 C84 1.388 . S
C85 C86 1.399 . S
C85 H106 0.930 . S
C86 C85 1.399 . S
C86 C87 1.375 . S
C86 C95 1.512 . S
C87 C86 1.375 . S
C87 C88 1.392 . S
C87 H108 0.939 . S
C88 C87 1.392 . S
C88 C89 1.362 . S
C88 C90 1.502 1_565 S
C89 C84 1.393 . S
C89 C88 1.362 . S
C89 H107 0.931 . S
C90 C88 1.502 1_545 S
C90 C91 1.362 1_545 S
C90 C92 1.373 . S
C91 C90 1.362 1_565 S
C91 C101 1.386 . S
C91 H109 0.931 . S
C92 C90 1.373 . S
C92 C93 1.409 . S
C92 H110 0.929 . S
C93 C92 1.409 . S
C93 C94 1.377 . S
C93 H111 0.930 . S
C94 C93 1.377 . S
C94 C101 1.360 1_545 S
C95 C86 1.512 . S
C95 C96 1.341 . S
C95 C97 1.371 1_565 S
C96 C95 1.341 . S
C96 C100 1.394 . S
C96 H112 0.930 . S
C97 C95 1.371 1_545 S
C97 C98 1.392 . S
C97 H113 0.931 . S
C98 C97 1.392 . S
C98 C99 1.326 1_545 S
C98 H116 0.932 . S
C99 C98 1.326 1_565 S
C99 C100 1.343 . S
C100 C96 1.394 . S
C100 C99 1.343 . S
C100 H115 0.929 . S
C101 C91 1.386 . S
C101 C94 1.360 1_565 S
C101 H114 0.928 . S
H102 C78 0.931 . S
H103 C80 0.930 . S
H104 C82 0.929 . S
H105 C83 0.931 . S
H106 C85 0.930 . S
H107 C89 0.931 . S
H108 C87 0.939 . S
H109 C91 0.931 . S
H110 C92 0.929 . S
H111 C93 0.930 . S
H112 C96 0.930 . S
H113 C97 0.931 . S
H114 C101 0.928 . S
H115 C100 0.929 . S
H116 C98 0.932 . S
C117 C118 1.386 . S
C117 C119 1.397 . S
C117 H141 0.931 . S
C118 C117 1.386 . S
C118 C122 1.397 . S
C119 C117 1.397 . S
C119 C120 1.384 . S
C119 H142 0.930 . S
C120 C119 1.384 . S
C120 C121 1.377 . S
C120 C123 1.481 . S
C121 C120 1.377 . S
C121 C122 1.389 . S
C121 H143 0.929 . S
C122 C118 1.397 . S
C122 C121 1.389 . S
C122 H144 0.931 . S
C123 C120 1.481 . S
C123 C124 1.387 . S
C123 C128 1.390 . S
C124 C123 1.387 . S
C124 C125 1.401 1_554 S
C124 H145 0.930 . S
C125 C124 1.401 1_556 S
C125 C126 1.376 . S
C125 C134 1.511 . S
C126 C125 1.376 . S
C126 C127 1.392 . S
C126 H147 0.931 . S
C127 C126 1.392 . S
C127 C128 1.361 1_556 S
C127 C129 1.500 . S
C128 C123 1.390 . S
C128 C127 1.361 1_554 S
C128 H146 0.931 . S
C129 C127 1.500 . S
C129 C130 1.371 . S
C129 C131 1.365 . S
C130 C129 1.371 . S
C130 C140 1.386 . S
C130 H148 0.931 . S
C131 C129 1.365 . S
C131 C132 1.409 . S
C131 H149 0.929 . S
C132 C131 1.409 . S
C132 C133 1.380 . S
C132 H150 0.930 . S
C133 C132 1.380 . S
C133 C140 1.357 . S
C134 C125 1.511 . S
C134 C135 1.341 1_556 S
C134 C136 1.371 . S
C135 C134 1.341 1_554 S
C135 C139 1.394 . S
C135 H151 0.930 . S
C136 C134 1.371 . S
C136 C137 1.392 . S
C136 H152 0.931 . S
C137 C136 1.392 . S
C137 C138 1.331 . S
C137 H155 0.932 . S
C138 C137 1.331 . S
C138 C139 1.336 1_556 S
C139 C135 1.394 . S
C139 C138 1.336 1_554 S
C139 H154 0.929 . S
C140 C130 1.386 . S
C140 C133 1.357 . S
C140 H153 0.928 . S
H141 C117 0.931 . S
H142 C119 0.930 . S
H143 C121 0.929 . S
H144 C122 0.931 . S
H145 C124 0.930 . S
H146 C128 0.931 . S
H147 C126 0.931 . S
H148 C130 0.931 . S
H149 C131 0.929 . S
H150 C132 0.930 . S
H151 C135 0.930 . S
H152 C136 0.931 . S
H153 C140 0.928 . S
H154 C139 0.929 . S
H155 C137 0.932 . S
C156 C157 1.386 . S
C156 C158 1.397 . S
C156 H180 0.931 . S
C157 C156 1.386 . S
C157 C161 1.397 . S
C158 C156 1.397 . S
C158 C159 1.384 . S
C158 H181 0.930 . S
C159 C158 1.384 . S
C159 C160 1.377 . S
C159 C162 1.481 . S
C160 C159 1.377 . S
C160 C161 1.389 . S
C160 H182 0.929 . S
C161 C157 1.397 . S
C161 C160 1.389 . S
C161 H183 0.931 . S
C162 C159 1.481 . S
C162 C163 1.387 . S
C162 C167 1.390 . S
C163 C162 1.387 . S
C163 C164 1.401 . S
C163 H184 0.930 . S
C164 C163 1.401 . S
C164 C165 1.376 . S
C164 C173 1.511 . S
C165 C164 1.376 . S
C165 C166 1.392 . S
C165 H186 0.931 . S
C166 C165 1.392 . S
C166 C167 1.361 . S
C166 C168 1.500 . S
C167 C162 1.390 . S
C167 C166 1.361 . S
C167 H185 0.931 . S
C168 C166 1.500 . S
C168 C169 1.371 . S
C168 C170 1.365 . S
C169 C168 1.371 . S
C169 C179 1.386 1_554 S
C169 H187 0.931 . S
C170 C168 1.365 . S
C170 C171 1.409 1_554 S
C170 H188 0.929 . S
C171 C170 1.409 1_556 S
C171 C172 1.380 . S
C171 H189 0.930 . S
C172 C171 1.380 . S
C172 C179 1.357 . S
C173 C164 1.511 . S
C173 C174 1.341 . S
C173 C175 1.371 . S
C174 C173 1.341 . S
C174 C178 1.394 . S
C174 H190 0.930 . S
C175 C173 1.371 . S
C175 C176 1.392 . S
C175 H191 0.931 . S
C176 C175 1.392 . S
C176 C177 1.331 . S
C176 H194 0.932 . S
C177 C176 1.331 . S
C177 C178 1.336 . S
C178 C174 1.394 . S
C178 C177 1.336 . S
C178 H193 0.929 . S
C179 C169 1.386 1_556 S
C179 C172 1.357 . S
C179 H192 0.928 . S
H180 C156 0.931 . S
H181 C158 0.930 . S
H182 C160 0.929 . S
H183 C161 0.931 . S
H184 C163 0.930 . S
H185 C167 0.931 . S
H186 C165 0.931 . S
H187 C169 0.931 . S
H188 C170 0.929 . S
H189 C171 0.930 . S
H190 C174 0.930 . S
H191 C175 0.931 . S
H192 C179 0.928 . S
H193 C178 0.929 . S
H194 C176 0.932 . S
C195 C196 1.386 . S
C195 C197 1.397 . S
C195 H219 0.931 . S
C196 C195 1.386 . S
C196 C200 1.397 . S
C197 C195 1.397 . S
C197 C198 1.384 . S
C197 H220 0.930 . S
C198 C197 1.384 . S
C198 C199 1.377 . S
C198 C201 1.481 . S
C199 C198 1.377 . S
C199 C200 1.389 . S
C199 H221 0.929 . S
C200 C196 1.397 . S
C200 C199 1.389 . S
C200 H222 0.931 . S
C201 C198 1.481 . S
C201 C202 1.387 . S
C201 C206 1.390 . S
C202 C201 1.387 . S
C202 C203 1.401 . S
C202 H223 0.930 . S
C203 C202 1.401 . S
C203 C204 1.376 . S
C203 C212 1.511 . S
C204 C203 1.376 . S
C204 C205 1.392 . S
C204 H225 0.931 . S
C205 C204 1.392 . S
C205 C206 1.361 . S
C205 C207 1.500 . S
C206 C201 1.390 . S
C206 C205 1.361 . S
C206 H224 0.931 . S
C207 C205 1.500 . S
C207 C208 1.371 . S
C207 C209 1.365 . S
C208 C207 1.371 . S
C208 C218 1.386 . S
C208 H226 0.931 . S
C209 C207 1.365 . S
C209 C210 1.409 . S
C209 H227 0.929 . S
C210 C209 1.409 . S
C210 C211 1.373 1_554 S
C210 H228 0.930 . S
C211 C210 1.373 1_556 S
C211 C218 1.355 1_556 S
C212 C203 1.511 . S
C212 C213 1.341 . S
C212 C214 1.371 . S
C213 C212 1.341 . S
C213 C217 1.394 . S
C213 H229 0.930 . S
C214 C212 1.371 . S
C214 C215 1.392 . S
C214 H230 0.931 . S
C215 C214 1.392 . S
C215 C216 1.331 . S
C215 H233 0.932 . S
C216 C215 1.331 . S
C216 C217 1.336 . S
C217 C213 1.394 . S
C217 C216 1.336 . S
C217 H232 0.929 . S
C218 C208 1.386 . S
C218 C211 1.355 1_554 S
C218 H231 0.928 1_554 S
H219 C195 0.931 . S
H220 C197 0.930 . S
H221 C199 0.929 . S
H222 C200 0.931 . S
H223 C202 0.930 . S
H224 C206 0.931 . S
H225 C204 0.931 . S
H226 C208 0.931 . S
H227 C209 0.929 . S
H228 C210 0.930 . S
H229 C213 0.930 . S
H230 C214 0.931 . S
H231 C218 0.928 1_556 S
H232 C217 0.929 . S
H233 C215 0.932 . S
C234 C235 1.386 . S
C234 C236 1.397 . S
C234 H258 0.931 . S
C235 C234 1.386 . S
C235 C239 1.398 1_565 S
C236 C234 1.397 . S
C236 C237 1.389 1_565 S
C236 H259 0.930 . S
C237 C236 1.389 1_545 S
C237 C238 1.373 . S
C237 C240 1.482 1_545 S
C238 C237 1.373 . S
C238 C239 1.389 . S
C238 H260 0.929 . S
C239 C235 1.398 1_545 S
C239 C238 1.389 . S
C239 H261 0.931 . S
C240 C237 1.482 1_565 S
C240 C241 1.386 . S
C240 C245 1.388 . S
C241 C240 1.386 . S
C241 C242 1.396 . S
C241 H262 0.942 . S
C242 C241 1.396 . S
C242 C243 1.378 . S
C242 C251 1.512 . S
C243 C242 1.378 . S
C243 C244 1.391 1_565 S
C243 H264 0.930 . S
C244 C243 1.391 1_545 S
C244 C245 1.362 1_545 S
C244 C246 1.495 . S
C245 C240 1.388 . S
C245 C244 1.362 1_565 S
C245 H263 0.931 1_565 S
C246 C244 1.495 . S
C246 C247 1.360 1_545 S
C246 C248 1.381 . S
C247 C246 1.360 1_565 S
C247 C257 1.386 1_554 S
C247 H265 0.931 . S
C248 C246 1.381 . S
C248 C249 1.409 1_554 S
C248 H266 0.929 . S
C249 C248 1.409 1_556 S
C249 C250 1.384 . S
C249 H267 0.930 . S
C250 C249 1.384 . S
C250 C257 1.353 1_545 S
C251 C242 1.512 . S
C251 C252 1.341 . S
C251 C253 1.371 1_565 S
C252 C251 1.341 . S
C252 C256 1.394 . S
C252 H268 0.930 . S
C253 C251 1.371 1_545 S
C253 C254 1.392 . S
C253 H269 0.931 . S
C254 C253 1.392 . S
C254 C255 1.325 1_545 S
C254 H272 0.932 . S
C255 C254 1.325 1_565 S
C255 C256 1.342 . S
C256 C252 1.394 . S
C256 C255 1.342 . S
C256 H271 0.929 . S
C257 C247 1.386 1_556 S
C257 C250 1.353 1_565 S
C257 H270 0.928 . S
H258 C234 0.931 . S
H259 C236 0.930 . S
H260 C238 0.929 . S
H261 C239 0.931 . S
H262 C241 0.942 . S
H263 C245 0.931 1_545 S
H264 C243 0.930 . S
H265 C247 0.931 . S
H266 C248 0.929 . S
H267 C249 0.930 . S
H268 C252 0.930 . S
H269 C253 0.931 . S
H270 C257 0.928 . S
H271 C256 0.929 . S
H272 C254 0.932 . S
C273 C274 1.386 . S
C273 C275 1.397 . S
C273 H297 0.931 . S
C274 C273 1.386 . S
C274 C278 1.397 . S
C275 C273 1.397 . S
C275 C276 1.384 . S
C275 H298 0.930 . S
C276 C275 1.384 . S
C276 C277 1.377 . S
C276 C279 1.481 . S
C277 C276 1.377 . S
C277 C278 1.389 . S
C277 H299 0.929 . S
C278 C274 1.397 . S
C278 C277 1.389 . S
C278 H300 0.931 . S
C279 C276 1.481 . S
C279 C280 1.387 . S
C279 C284 1.390 . S
C280 C279 1.387 . S
C280 C281 1.401 . S
C280 H301 0.930 . S
C281 C280 1.401 . S
C281 C282 1.376 . S
C281 C290 1.511 . S
C282 C281 1.376 . S
C282 C283 1.392 . S
C282 H303 0.931 . S
C283 C282 1.392 . S
C283 C284 1.361 . S
C283 C285 1.500 . S
C284 C279 1.390 . S
C284 C283 1.361 . S
C284 H302 0.931 . S
C285 C283 1.500 . S
C285 C286 1.371 . S
C285 C287 1.365 . S
C286 C285 1.371 . S
C286 C296 1.386 . S
C286 H304 0.931 . S
C287 C285 1.365 . S
C287 C288 1.409 . S
C287 H305 0.929 . S
C288 C287 1.409 . S
C288 C289 1.380 . S
C288 H306 0.930 . S
C289 C288 1.380 . S
C289 C296 1.357 . S
C290 C281 1.511 . S
C290 C291 1.341 . S
C290 C292 1.371 . S
C291 C290 1.341 . S
C291 C295 1.394 . S
C291 H307 0.930 . S
C292 C290 1.371 . S
C292 C293 1.392 . S
C292 H308 0.931 . S
C293 C292 1.392 . S
C293 C294 1.331 . S
C293 H311 0.932 . S
C294 C293 1.331 . S
C294 C295 1.336 . S
C295 C291 1.394 . S
C295 C294 1.336 . S
C295 H310 0.929 . S
C296 C286 1.386 . S
C296 C289 1.357 . S
C296 H309 0.928 . S
H297 C273 0.931 . S
H298 C275 0.930 . S
H299 C277 0.929 . S
H300 C278 0.931 . S
H301 C280 0.930 . S
H302 C284 0.931 . S
H303 C282 0.931 . S
H304 C286 0.931 . S
H305 C287 0.929 . S
H306 C288 0.930 . S
H307 C291 0.930 . S
H308 C292 0.931 . S
H309 C296 0.928 . S
H310 C295 0.929 . S
H311 C293 0.932 . S
Tb312 C321 2.763 1_655 S
Tb312 O322 2.325 1_655 S
Tb312 O325 2.303 1_655 S
Tb312 O329 2.322 1_545 S
Tb312 O330 2.349 . S
Tb312 O333 2.415 1_655 S
Tb312 O334 2.399 . S
Tb313 O323 2.322 1_565 S
Tb313 O324 2.349 . S
Tb313 O326 2.415 . S
Tb313 O327 2.399 . S
Tb313 O328 2.325 . S
Tb313 O331 2.303 1_455 S
Tb313 C342 2.764 . S
C314 O330 1.261 . S
C314 O331 1.257 1_545 S
C315 C318 1.358 1_455 S
C315 C319 1.332 . S
C315 C321 1.505 . S
C316 C317 1.373 1_455 S
C316 C320 1.308 . S
C317 C316 1.373 1_655 S
C317 C318 1.429 . S
C317 H344 0.932 . S
C318 C315 1.358 1_655 S
C318 C317 1.429 . S
C318 H345 0.930 . S
C319 C315 1.332 . S
C319 C320 1.394 . S
C319 H346 0.932 . S
C320 C316 1.308 . S
C320 C319 1.394 . S
C320 H347 0.929 . S
C321 Tb312 2.763 1_455 S
C321 C315 1.505 . S
C321 O333 1.261 . S
C321 O334 1.240 1_455 S
O322 Tb312 2.325 1_455 S
O322 C332 1.236 . S
O323 Tb313 2.322 1_545 S
O323 C332 1.257 . S
O324 Tb313 2.349 . S
O324 C335 1.261 . S
O325 Tb312 2.303 1_455 S
O325 C335 1.257 1_545 S
O326 Tb313 2.415 . S
O326 C342 1.239 . S
O327 Tb313 2.399 . S
O327 C342 1.263 . S
O328 Tb313 2.325 . S
O328 C343 1.236 1_455 S
O329 Tb312 2.322 1_565 S
O329 C343 1.257 . S
O330 Tb312 2.349 . S
O330 C314 1.261 . S
O331 Tb313 2.303 1_655 S
O331 C314 1.257 1_565 S
C332 O322 1.236 . S
C332 O323 1.257 . S
O333 Tb312 2.415 1_455 S
O333 C321 1.261 . S
O334 Tb312 2.399 . S
O334 C321 1.240 1_655 S
C335 O324 1.261 . S
C335 O325 1.257 1_565 S
C336 C339 1.358 . S
C336 C340 1.332 . S
C336 C342 1.504 . S
C337 C338 1.373 . S
C337 C341 1.308 . S
C338 C337 1.373 . S
C338 C339 1.429 . S
C338 H348 0.932 . S
C339 C336 1.358 . S
C339 C338 1.429 . S
C339 H349 0.930 . S
C340 C336 1.332 . S
C340 C341 1.394 . S
C340 H350 0.932 1_455 S
C341 C337 1.308 . S
C341 C340 1.394 . S
C341 H351 0.929 1_455 S
C342 Tb313 2.764 . S
C342 O326 1.239 . S
C342 O327 1.263 . S
C342 C336 1.504 . S
C343 O328 1.236 1_655 S
C343 O329 1.257 . S
H344 C317 0.932 . S
H345 C318 0.930 . S
H346 C319 0.932 . S
H347 C320 0.929 . S
H348 C338 0.932 . S
H349 C339 0.930 . S
H350 C340 0.932 1_655 S
H351 C341 0.929 1_655 S
Tb352 C361 2.764 . S
Tb352 O362 2.325 . S
Tb352 O365 2.303 1_565 S
Tb352 O369 2.322 . S
Tb352 O370 2.349 . S
Tb352 O373 2.415 1_565 S
Tb352 O374 2.399 . S
Tb353 O363 2.322 . S
Tb353 O364 2.349 . S
Tb353 O366 2.415 1_545 S
Tb353 O367 2.399 . S
Tb353 O368 2.325 . S
Tb353 O371 2.303 1_545 S
Tb353 C382 2.764 . S
C354 O370 1.261 . S
C354 O371 1.257 . S
C355 C358 1.358 . S
C355 C359 1.332 . S
C355 C361 1.504 . S
C356 C357 1.373 . S
C356 C360 1.308 . S
C357 C356 1.373 . S
C357 C358 1.429 . S
C357 H384 0.932 . S
C358 C355 1.358 . S
C358 C357 1.429 . S
C358 H385 0.930 . S
C359 C355 1.332 . S
C359 C360 1.394 . S
C359 H386 0.932 1_565 S
C360 C356 1.308 . S
C360 C359 1.394 . S
C360 H387 0.929 1_565 S
C361 Tb352 2.764 . S
C361 C355 1.504 . S
C361 O373 1.239 1_565 S
C361 O374 1.263 . S
O362 Tb352 2.325 . S
O362 C372 1.236 1_565 S
O363 Tb353 2.322 . S
O363 C372 1.257 . S
O364 Tb353 2.349 . S
O364 C375 1.261 . S
O365 Tb352 2.303 1_545 S
O365 C375 1.257 . S
O366 Tb353 2.415 1_565 S
O366 C382 1.239 1_565 S
O367 Tb353 2.399 . S
O367 C382 1.263 . S
O368 Tb353 2.325 . S
O368 C383 1.236 1_545 S
O369 Tb352 2.322 . S
O369 C383 1.257 . S
O370 Tb352 2.349 . S
O370 C354 1.261 . S
O371 Tb353 2.303 1_565 S
O371 C354 1.257 . S
C372 O362 1.236 1_545 S
C372 O363 1.257 . S
O373 Tb352 2.415 1_545 S
O373 C361 1.239 1_545 S
O374 Tb352 2.399 . S
O374 C361 1.263 . S
C375 O364 1.261 . S
C375 O365 1.257 . S
C376 C379 1.358 . S
C376 C380 1.332 . S
C376 C382 1.504 . S
C377 C378 1.373 . S
C377 C381 1.308 . S
C378 C377 1.373 . S
C378 C379 1.429 . S
C378 H388 0.932 . S
C379 C376 1.358 . S
C379 C378 1.429 . S
C379 H389 0.930 . S
C380 C376 1.332 . S
C380 C381 1.394 . S
C380 H390 0.932 1_545 S
C381 C377 1.308 . S
C381 C380 1.394 . S
C381 H391 0.929 1_545 S
C382 Tb353 2.764 . S
C382 O366 1.239 1_545 S
C382 O367 1.263 . S
C382 C376 1.504 . S
C383 O368 1.236 1_565 S
C383 O369 1.257 . S
H384 C357 0.932 . S
H385 C358 0.930 . S
H386 C359 0.932 1_545 S
H387 C360 0.929 1_545 S
H388 C378 0.932 . S
H389 C379 0.930 . S
H390 C380 0.932 1_565 S
H391 C381 0.929 1_565 S
Tb392 C401 2.764 . S
Tb392 O402 2.325 . S
Tb392 O405 2.303 . S
Tb392 O409 2.322 . S
Tb392 O410 2.349 . S
Tb392 O413 2.415 . S
Tb392 O414 2.399 . S
Tb393 O403 2.322 . S
Tb393 O404 2.349 . S
Tb393 O406 2.415 . S
Tb393 O407 2.399 . S
Tb393 O408 2.325 . S
Tb393 O411 2.303 . S
Tb393 C422 2.764 . S
C394 O410 1.261 . S
C394 O411 1.257 . S
C395 C398 1.358 . S
C395 C399 1.332 . S
C395 C401 1.504 . S
C396 C397 1.373 . S
C396 C400 1.308 . S
C397 C396 1.373 . S
C397 C398 1.429 . S
C397 H424 0.932 . S
C398 C395 1.358 . S
C398 C397 1.429 . S
C398 H425 0.930 . S
C399 C395 1.332 . S
C399 C400 1.394 . S
C399 H426 0.932 . S
C400 C396 1.308 . S
C400 C399 1.394 . S
C400 H427 0.929 . S
C401 Tb392 2.764 . S
C401 C395 1.504 . S
C401 O413 1.239 . S
C401 O414 1.263 . S
O402 Tb392 2.325 . S
O402 C412 1.236 . S
O403 Tb393 2.322 . S
O403 C412 1.257 . S
O404 Tb393 2.349 . S
O404 C415 1.261 . S
O405 Tb392 2.303 . S
O405 C415 1.257 . S
O406 Tb393 2.415 . S
O406 C422 1.239 . S
O407 Tb393 2.399 . S
O407 C422 1.263 . S
O408 Tb393 2.325 . S
O408 C423 1.236 . S
O409 Tb392 2.322 . S
O409 C423 1.257 . S
O410 Tb392 2.349 . S
O410 C394 1.261 . S
O411 Tb393 2.303 . S
O411 C394 1.257 . S
C412 O402 1.236 . S
C412 O403 1.257 . S
O413 Tb392 2.415 . S
O413 C401 1.239 . S
O414 Tb392 2.399 . S
O414 C401 1.263 . S
C415 O404 1.261 . S
C415 O405 1.257 . S
C416 C419 1.358 . S
C416 C420 1.332 . S
C416 C422 1.504 . S
C417 C418 1.373 . S
C417 C421 1.308 . S
C418 C417 1.373 . S
C418 C419 1.429 . S
C418 H428 0.932 . S
C419 C416 1.358 . S
C419 C418 1.429 . S
C419 H429 0.930 . S
C420 C416 1.332 . S
C420 C421 1.394 . S
C420 H430 0.932 . S
C421 C417 1.308 . S
C421 C420 1.394 . S
C421 H431 0.929 . S
C422 Tb393 2.764 . S
C422 O406 1.239 . S
C422 O407 1.263 . S
C422 C416 1.504 . S
C423 O408 1.236 . S
C423 O409 1.257 . S
H424 C397 0.932 . S
H425 C398 0.930 . S
H426 C399 0.932 . S
H427 C400 0.929 . S
H428 C418 0.932 . S
H429 C419 0.930 . S
H430 C420 0.932 . S
H431 C421 0.929 . S
Tb432 C441 2.764 . S
Tb432 O442 2.325 . S
Tb432 O445 2.303 . S
Tb432 O449 2.322 1_455 S
Tb432 O450 2.349 . S
Tb432 O453 2.415 . S
Tb432 O454 2.399 . S
Tb433 O443 2.288 1_655 S
Tb433 O444 2.341 1_655 S
Tb433 O446 2.444 . S
Tb433 O447 2.425 . S
Tb433 O448 2.347 . S
Tb433 O451 2.299 1_655 S
Tb433 C462 2.795 . S
C434 O450 1.261 . S
C434 O451 1.257 . S
C435 C438 1.358 . S
C435 C439 1.332 . S
C435 C441 1.504 . S
C436 C437 1.373 . S
C436 C440 1.308 . S
C437 C436 1.373 . S
C437 C438 1.429 . S
C437 H464 0.932 . S
C438 C435 1.358 . S
C438 C437 1.429 . S
C438 H465 0.930 . S
C439 C435 1.332 . S
C439 C440 1.394 . S
C439 H466 0.932 . S
C440 C436 1.308 . S
C440 C439 1.394 . S
C440 H467 0.929 . S
C441 Tb432 2.764 . S
C441 C435 1.504 . S
C441 O453 1.239 . S
C441 O454 1.263 . S
O442 Tb432 2.325 . S
O442 C452 1.236 . S
O443 Tb433 2.288 1_455 S
O443 C452 1.257 . S
O444 Tb433 2.341 1_455 S
O444 C455 1.261 . S
O445 Tb432 2.303 . S
O445 C455 1.257 . S
O446 Tb433 2.444 . S
O446 C462 1.239 . S
O447 Tb433 2.425 . S
O447 C462 1.263 . S
O448 Tb433 2.347 . S
O448 C463 1.236 . S
O449 Tb432 2.322 1_655 S
O449 C463 1.257 . S
O450 Tb432 2.349 . S
O450 C434 1.261 . S
O451 Tb433 2.299 1_455 S
O451 C434 1.257 . S
C452 O442 1.236 . S
C452 O443 1.257 . S
O453 Tb432 2.415 . S
O453 C441 1.239 . S
O454 Tb432 2.399 . S
O454 C441 1.263 . S
C455 O444 1.261 . S
C455 O445 1.257 . S
C456 C459 1.358 . S
C456 C460 1.332 . S
C456 C462 1.504 . S
C457 C458 1.373 . S
C457 C461 1.308 . S
C458 C457 1.373 . S
C458 C459 1.429 . S
C458 H468 0.932 . S
C459 C456 1.358 . S
C459 C458 1.429 . S
C459 H469 0.930 . S
C460 C456 1.332 . S
C460 C461 1.394 . S
C460 H470 0.932 . S
C461 C457 1.308 . S
C461 C460 1.394 . S
C461 H471 0.929 . S
C462 Tb433 2.795 . S
C462 O446 1.239 . S
C462 O447 1.263 . S
C462 C456 1.504 . S
C463 O448 1.236 . S
C463 O449 1.257 . S
H464 C437 0.932 . S
H465 C438 0.930 . S
H466 C439 0.932 . S
H467 C440 0.929 . S
H468 C458 0.932 . S
H469 C459 0.930 . S
H470 C460 0.932 . S
H471 C461 0.929 . S
C472 C473 1.347 . S
C472 C474 1.327 . S
C472 H497 0.950 . S
C473 C472 1.347 . S
C473 C489 1.350 1_565 S
C474 C472 1.327 . S
C474 C493 1.444 . S
C474 H498 0.950 . S
C475 C492 1.574 . S
C475 C494 1.341 1_545 S
C475 H499 0.949 . S
H476 C480 0.949 . S
C477 C478 1.349 1_545 S
C477 C479 1.327 . S
C477 H500 0.950 . S
C478 C477 1.349 1_565 S
C478 C490 1.349 . S
C479 C477 1.327 . S
C479 C495 1.429 1_545 S
C479 H501 0.950 . S
C480 H476 0.949 . S
C480 C488 1.574 . S
C480 C496 1.415 . S
H481 C489 0.950 . S
H482 C487 0.950 . S
H483 C488 0.949 . S
H484 C490 0.950 . S
H485 C491 0.950 . S
H486 C492 0.949 . S
C487 H482 0.950 . S
C487 C489 1.327 . S
C487 C493 1.410 1_545 S
C488 C480 1.574 . S
C488 H483 0.949 . S
C488 C494 1.400 . S
C489 C473 1.350 1_545 S
C489 H481 0.950 . S
C489 C487 1.327 . S
C490 C478 1.349 . S
C490 H484 0.950 . S
C490 C491 1.327 . S
C491 H485 0.950 . S
C491 C490 1.327 . S
C491 C495 1.429 . S
C492 C475 1.574 . S
C492 H486 0.949 . S
C492 C496 1.318 1_545 S
C493 C474 1.444 . S
C493 C487 1.410 1_565 S
C493 C494 1.521 . S
C494 C475 1.341 1_565 S
C494 C488 1.400 . S
C494 C493 1.521 . S
C495 C479 1.429 1_565 S
C495 C491 1.429 . S
C495 C496 1.531 . S
C496 C480 1.415 . S
C496 C492 1.318 1_565 S
C496 C495 1.531 . S
H497 C472 0.950 . S
H498 C474 0.950 . S
H499 C475 0.949 . S
H500 C477 0.950 . S
H501 C479 0.950 . S
C502 C503 1.349 . S
C502 C504 1.327 . S
C502 H527 0.950 . S
C503 C502 1.349 . S
C503 C519 1.349 . S
C504 C502 1.327 . S
C504 C523 1.429 . S
C504 H528 0.950 . S
C505 C522 1.574 . S
C505 C524 1.368 . S
C505 H529 0.949 . S
H506 C510 0.949 . S
C507 C508 1.349 . S
C507 C509 1.327 . S
C507 H530 0.950 . S
C508 C507 1.349 . S
C508 C520 1.349 . S
C509 C507 1.327 . S
C509 C525 1.429 . S
C509 H531 0.950 . S
C510 H506 0.949 . S
C510 C518 1.574 . S
C510 C526 1.368 . S
H511 C519 0.950 . S
H512 C517 0.950 . S
H513 C518 0.949 . S
H514 C520 0.950 . S
H515 C521 0.950 . S
H516 C522 0.949 . S
C517 H512 0.950 . S
C517 C519 1.327 . S
C517 C523 1.429 . S
C518 C510 1.574 . S
C518 H513 0.949 . S
C518 C524 1.368 . S
C519 C503 1.349 . S
C519 H511 0.950 . S
C519 C517 1.327 . S
C520 C508 1.349 . S
C520 H514 0.950 . S
C520 C521 1.327 . S
C521 H515 0.950 . S
C521 C520 1.327 . S
C521 C525 1.429 . S
C522 C505 1.574 . S
C522 H516 0.949 . S
C522 C526 1.368 . S
C523 C504 1.429 . S
C523 C517 1.429 . S
C523 C524 1.523 . S
C524 C505 1.368 . S
C524 C518 1.368 . S
C524 C523 1.523 . S
C525 C509 1.429 . S
C525 C521 1.429 . S
C525 C526 1.523 . S
C526 C510 1.368 . S
C526 C522 1.368 . S
C526 C525 1.523 . S
H527 C502 0.950 . S
H528 C504 0.950 . S
H529 C505 0.949 . S
H530 C507 0.950 . S
H531 C509 0.950 . S
C532 C533 1.349 . S
C532 C534 1.327 . S
C532 H557 0.950 . S
C533 C532 1.349 . S
C533 C549 1.349 . S
C534 C532 1.327 . S
C534 C553 1.429 . S
C534 H558 0.950 . S
C535 C552 1.574 . S
C535 C554 1.368 . S
C535 H559 0.949 . S
H536 C540 0.949 . S
C537 C538 1.349 . S
C537 C539 1.327 . S
C537 H560 0.950 . S
C538 C537 1.349 . S
C538 C550 1.349 . S
C539 C537 1.327 . S
C539 C555 1.429 . S
C539 H561 0.950 . S
C540 H536 0.949 . S
C540 C548 1.574 . S
C540 C556 1.368 . S
H541 C549 0.950 . S
H542 C547 0.950 . S
H543 C548 0.949 . S
H544 C550 0.950 . S
H545 C551 0.950 . S
H546 C552 0.949 . S
C547 H542 0.950 . S
C547 C549 1.327 . S
C547 C553 1.429 . S
C548 C540 1.574 . S
C548 H543 0.949 . S
C548 C554 1.368 . S
C549 C533 1.349 . S
C549 H541 0.950 . S
C549 C547 1.327 . S
C550 C538 1.349 . S
C550 H544 0.950 . S
C550 C551 1.327 . S
C551 H545 0.950 . S
C551 C550 1.327 . S
C551 C555 1.429 . S
C552 C535 1.574 . S
C552 H546 0.949 . S
C552 C556 1.368 . S
C553 C534 1.429 . S
C553 C547 1.429 . S
C553 C554 1.523 . S
C554 C535 1.368 . S
C554 C548 1.368 . S
C554 C553 1.523 . S
C555 C539 1.429 . S
C555 C551 1.429 . S
C555 C556 1.523 . S
C556 C540 1.368 . S
C556 C552 1.368 . S
C556 C555 1.523 . S
H557 C532 0.950 . S
H558 C534 0.950 . S
H559 C535 0.949 . S
H560 C537 0.950 . S
H561 C539 0.950 . S
C562 C563 1.349 . S
C562 C564 1.327 . S
C562 H587 0.950 . S
C563 C562 1.349 . S
C563 C579 1.349 . S
C564 C562 1.327 . S
C564 C583 1.429 . S
C564 H588 0.950 . S
C565 C582 1.574 . S
C565 C584 1.368 . S
C565 H589 0.949 . S
H566 C570 0.949 . S
C567 C568 1.349 . S
C567 C569 1.327 . S
C567 H590 0.950 . S
C568 C567 1.349 . S
C568 C580 1.349 . S
C569 C567 1.327 . S
C569 C585 1.429 . S
C569 H591 0.950 . S
C570 H566 0.949 . S
C570 C578 1.574 . S
C570 C586 1.368 . S
H571 C579 0.950 . S
H572 C577 0.950 . S
H573 C578 0.949 . S
H574 C580 0.950 . S
H575 C581 0.950 . S
H576 C582 0.949 . S
C577 H572 0.950 . S
C577 C579 1.327 . S
C577 C583 1.429 . S
C578 C570 1.574 . S
C578 H573 0.949 . S
C578 C584 1.368 . S
C579 C563 1.349 . S
C579 H571 0.950 . S
C579 C577 1.327 . S
C580 C568 1.349 . S
C580 H574 0.950 . S
C580 C581 1.327 . S
C581 H575 0.950 . S
C581 C580 1.327 . S
C581 C585 1.429 . S
C582 C565 1.574 . S
C582 H576 0.949 . S
C582 C586 1.368 . S
C583 C564 1.429 . S
C583 C577 1.429 . S
C583 C584 1.523 . S
C584 C565 1.368 . S
C584 C578 1.368 . S
C584 C583 1.523 . S
C585 C569 1.429 . S
C585 C581 1.429 . S
C585 C586 1.523 . S
C586 C570 1.368 . S
C586 C582 1.368 . S
C586 C585 1.523 . S
H587 C562 0.950 . S
H588 C564 0.950 . S
H589 C565 0.949 . S
H590 C567 0.950 . S
H591 C569 0.950 . S
C592 C593 1.343 1_565 S
C592 C594 1.327 . S
C592 H617 0.950 . S
C593 C592 1.343 1_545 S
C593 C609 1.356 . S
C594 C592 1.327 . S
C594 C613 1.407 1_565 S
C594 H618 0.950 . S
C595 C612 1.574 . S
C595 C614 1.401 . S
C595 H619 0.949 . S
H596 C600 0.949 . S
C597 C598 1.349 . S
C597 C599 1.327 . S
C597 H620 0.950 . S
C598 C597 1.349 . S
C598 C610 1.349 1_545 S
C599 C597 1.327 . S
C599 C615 1.429 . S
C599 H621 0.950 . S
C600 H596 0.949 . S
C600 C608 1.574 1_556 S
C600 C616 1.368 1_565 S
H601 C609 0.950 . S
H602 C607 0.950 . S
H603 C608 0.949 . S
H604 C610 0.950 . S
H605 C611 0.950 . S
H606 C612 0.949 . S
C607 H602 0.950 . S
C607 C609 1.327 . S
C607 C613 1.446 . S
C608 C600 1.574 1_554 S
C608 H603 0.949 . S
C608 C614 1.342 1_565 S
C609 C593 1.356 . S
C609 H601 0.950 . S
C609 C607 1.327 . S
C610 C598 1.349 1_565 S
C610 H604 0.950 . S
C610 C611 1.327 . S
C611 H605 0.950 . S
C611 C610 1.327 . S
C611 C615 1.429 1_565 S
C612 C595 1.574 . S
C612 H606 0.949 . S
C612 C616 1.368 1_554 S
C613 C594 1.407 1_545 S
C613 C607 1.446 . S
C613 C614 1.521 . S
C614 C595 1.401 . S
C614 C608 1.342 1_545 S
C614 C613 1.521 . S
C615 C599 1.429 . S
C615 C611 1.429 1_545 S
C615 C616 1.523 . S
C616 C600 1.368 1_545 S
C616 C612 1.368 1_556 S
C616 C615 1.523 . S
H617 C592 0.950 . S
H618 C594 0.950 . S
H619 C595 0.949 . S
H620 C597 0.950 . S
H621 C599 0.950 . S
C622 C623 1.349 . S
C622 C624 1.327 . S
C622 H647 0.950 . S
C623 C622 1.349 . S
C623 C639 1.349 . S
C624 C622 1.327 . S
C624 C643 1.429 . S
C624 H648 0.950 . S
C625 C642 1.574 . S
C625 C644 1.368 . S
C625 H649 0.949 . S
H626 C630 0.949 . S
C627 C628 1.349 . S
C627 C629 1.327 . S
C627 H650 0.950 . S
C628 C627 1.349 . S
C628 C640 1.349 . S
C629 C627 1.327 . S
C629 C645 1.429 . S
C629 H651 0.950 . S
C630 H626 0.949 . S
C630 C638 1.574 . S
C630 C646 1.368 . S
H631 C639 0.950 . S
H632 C637 0.950 . S
H633 C638 0.949 . S
H634 C640 0.950 . S
H635 C641 0.950 . S
H636 C642 0.949 . S
C637 H632 0.950 . S
C637 C639 1.327 . S
C637 C643 1.429 . S
C638 C630 1.574 . S
C638 H633 0.949 . S
C638 C644 1.368 . S
C639 C623 1.349 . S
C639 H631 0.950 . S
C639 C637 1.327 . S
C640 C628 1.349 . S
C640 H634 0.950 . S
C640 C641 1.327 . S
C641 H635 0.950 . S
C641 C640 1.327 . S
C641 C645 1.429 . S
C642 C625 1.574 . S
C642 H636 0.949 . S
C642 C646 1.368 . S
C643 C624 1.429 . S
C643 C637 1.429 . S
C643 C644 1.523 . S
C644 C625 1.368 . S
C644 C638 1.368 . S
C644 C643 1.523 . S
C645 C629 1.429 . S
C645 C641 1.429 . S
C645 C646 1.523 . S
C646 C630 1.368 . S
C646 C642 1.368 . S
C646 C645 1.523 . S
H647 C622 0.950 . S
H648 C624 0.950 . S
H649 C625 0.949 . S
H650 C627 0.950 . S
H651 C629 0.950 . S
C652 C653 1.349 . S
C652 C654 1.327 . S
C652 H677 0.950 . S
C653 C652 1.349 . S
C653 C669 1.349 . S
C654 C652 1.327 . S
C654 C673 1.429 . S
C654 H678 0.950 . S
C655 C672 1.574 . S
C655 C674 1.368 . S
C655 H679 0.949 . S
H656 C660 0.949 . S
C657 C658 1.349 . S
C657 C659 1.327 . S
C657 H680 0.950 . S
C658 C657 1.349 . S
C658 C670 1.349 . S
C659 C657 1.327 . S
C659 C675 1.429 . S
C659 H681 0.950 . S
C660 H656 0.949 . S
C660 C668 1.574 1_556 S
C660 C676 1.368 . S
H661 C669 0.950 . S
H662 C667 0.950 . S
H663 C668 0.949 . S
H664 C670 0.950 . S
H665 C671 0.950 . S
H666 C672 0.949 1_556 S
C667 H662 0.950 . S
C667 C669 1.327 . S
C667 C673 1.429 . S
C668 C660 1.574 1_554 S
C668 H663 0.949 . S
C668 C674 1.368 . S
C669 C653 1.349 . S
C669 H661 0.950 . S
C669 C667 1.327 . S
C670 C658 1.349 . S
C670 H664 0.950 . S
C670 C671 1.327 . S
C671 H665 0.950 . S
C671 C670 1.327 . S
C671 C675 1.429 . S
C672 C655 1.574 . S
C672 H666 0.949 1_554 S
C672 C676 1.368 1_554 S
C673 C654 1.429 . S
C673 C667 1.429 . S
C673 C674 1.523 . S
C674 C655 1.368 . S
C674 C668 1.368 . S
C674 C673 1.523 . S
C675 C659 1.429 . S
C675 C671 1.429 . S
C675 C676 1.523 . S
C676 C660 1.368 . S
C676 C672 1.368 1_556 S
C676 C675 1.523 . S
H677 C652 0.950 . S
H678 C654 0.950 . S
H679 C655 0.949 . S
H680 C657 0.950 . S
H681 C659 0.950 . S
C682 C683 1.349 . S
C682 C684 1.327 . S
C682 H707 0.950 . S
C683 C682 1.349 . S
C683 C699 1.349 . S
C684 C682 1.327 . S
C684 C703 1.429 . S
C684 H708 0.950 . S
C685 C702 1.573 1_554 S
C685 C704 1.368 . S
C685 H709 0.949 . S
H686 C690 0.949 . S
C687 C688 1.349 1_455 S
C687 C689 1.327 . S
C687 H710 0.950 . S
C688 C687 1.349 1_655 S
C688 C700 1.349 . S
C689 C687 1.327 . S
C689 C705 1.429 1_455 S
C689 H711 0.950 . S
C690 H686 0.949 . S
C690 C698 1.574 . S
C690 C706 1.368 . S
H691 C699 0.950 . S
H692 C697 0.950 . S
H693 C698 0.949 . S
H694 C700 0.950 . S
H695 C701 0.950 . S
H696 C702 0.909 1_454 S
C697 H692 0.950 . S
C697 C699 1.327 . S
C697 C703 1.429 . S
C698 C690 1.574 . S
C698 H693 0.949 . S
C698 C704 1.368 1_556 S
C699 C683 1.349 . S
C699 H691 0.950 . S
C699 C697 1.327 . S
C700 C688 1.349 . S
C700 H694 0.950 . S
C700 C701 1.327 . S
C701 H695 0.950 . S
C701 C700 1.327 . S
C701 C705 1.429 . S
C702 C685 1.573 1_556 S
C702 H696 0.909 1_656 S
C702 C706 1.369 . S
C703 C684 1.429 . S
C703 C697 1.429 . S
C703 C704 1.523 . S
C704 C685 1.368 . S
C704 C698 1.368 1_554 S
C704 C703 1.523 . S
C705 C689 1.429 1_655 S
C705 C701 1.429 . S
C705 C706 1.523 . S
C706 C690 1.368 . S
C706 C702 1.369 . S
C706 C705 1.523 . S
H707 C682 0.950 . S
H708 C684 0.950 . S
H709 C685 0.949 . S
H710 C687 0.950 . S
H711 C689 0.950 . S
C712 C713 1.349 . S
C712 C714 1.327 . S
C712 H737 0.950 . S
C713 C712 1.349 . S
C713 C729 1.349 . S
C714 C712 1.327 . S
C714 C733 1.429 . S
C714 H738 0.950 . S
C715 C732 1.574 . S
C715 C734 1.368 . S
C715 H739 0.949 . S
H716 C720 0.949 . S
C717 C718 1.349 1_655 S
C717 C719 1.327 1_655 S
C717 H740 0.950 . S
C718 C717 1.349 1_455 S
C718 C730 1.349 . S
C719 C717 1.327 1_455 S
C719 C735 1.429 . S
C719 H741 0.948 . S
C720 H716 0.949 . S
C720 C728 1.574 . S
C720 C736 1.368 . S
H721 C729 0.950 . S
H722 C727 0.950 . S
H723 C728 0.949 . S
H724 C730 0.950 . S
H725 C731 0.950 . S
H726 C732 0.949 . S
C727 H722 0.950 . S
C727 C729 1.327 . S
C727 C733 1.429 . S
C728 C720 1.574 . S
C728 H723 0.949 . S
C728 C734 1.368 . S
C729 C713 1.349 . S
C729 H721 0.950 . S
C729 C727 1.327 . S
C730 C718 1.349 . S
C730 H724 0.950 . S
C730 C731 1.327 . S
C731 H725 0.950 . S
C731 C730 1.327 . S
C731 C735 1.429 . S
C732 C715 1.574 . S
C732 H726 0.949 . S
C732 C736 1.368 . S
C733 C714 1.429 . S
C733 C727 1.429 . S
C733 C734 1.523 . S
C734 C715 1.368 . S
C734 C728 1.368 . S
C734 C733 1.523 . S
C735 C719 1.429 . S
C735 C731 1.429 . S
C735 C736 1.523 . S
C736 C720 1.368 . S
C736 C732 1.368 . S
C736 C735 1.523 . S
H737 C712 0.950 . S
H738 C714 0.950 . S
H739 C715 0.949 . S
H740 C717 0.950 . S
H741 C719 0.948 . S
C742 C743 1.349 1_565 S
C742 C744 1.327 . S
C742 H767 0.950 . S
C743 C742 1.349 1_545 S
C743 C759 1.349 . S
C744 C742 1.327 . S
C744 C763 1.429 . S
C744 H768 0.950 . S
C745 C762 1.574 1_545 S
C745 C764 1.368 1_545 S
C745 H769 0.949 . S
H746 C750 0.949 . S
C747 C748 1.349 . S
C747 C749 1.327 . S
C747 H770 0.950 . S
C748 C747 1.349 . S
C748 C760 1.349 . S
C749 C747 1.327 . S
C749 C765 1.429 . S
C749 H771 0.975 . S
C750 H746 0.949 . S
C750 C758 1.574 . S
C750 C766 1.368 . S
H751 C759 0.950 . S
H752 C757 0.950 . S
H753 C758 0.949 . S
H754 C760 0.950 . S
H755 C761 0.950 . S
H756 C762 0.949 1_545 S
C757 H752 0.950 . S
C757 C759 1.327 . S
C757 C763 1.429 1_545 S
C758 C750 1.574 . S
C758 H753 0.949 . S
C758 C764 1.368 . S
C759 C743 1.349 . S
C759 H751 0.950 . S
C759 C757 1.327 . S
C760 C748 1.349 . S
C760 H754 0.950 . S
C760 C761 1.327 . S
C761 H755 0.950 . S
C761 C760 1.327 . S
C761 C765 1.429 . S
C762 C745 1.574 1_565 S
C762 H756 0.949 1_565 S
C762 C766 1.368 . S
C763 C744 1.429 . S
C763 C757 1.429 1_565 S
C763 C764 1.523 . S
C764 C745 1.368 1_565 S
C764 C758 1.368 . S
C764 C763 1.523 . S
C765 C749 1.429 . S
C765 C761 1.429 . S
C765 C766 1.523 . S
C766 C750 1.368 . S
C766 C762 1.368 . S
C766 C765 1.523 . S
H767 C742 0.950 . S
H768 C744 0.950 . S
H769 C745 0.949 . S
H770 C747 0.950 . S
H771 C749 0.975 . S
C772 C773 1.349 . S
C772 C774 1.327 . S
C772 H797 0.950 . S
C773 C772 1.349 . S
C773 C789 1.349 . S
C774 C772 1.327 . S
C774 C793 1.429 . S
C774 H798 0.950 . S
C775 C792 1.574 . S
C775 C794 1.368 . S
C775 H799 0.949 . S
H776 C780 0.949 . S
C777 C778 1.349 . S
C777 C779 1.327 . S
C777 H800 0.950 . S
C778 C777 1.349 . S
C778 C790 1.349 . S
C779 C777 1.327 . S
C779 C795 1.429 . S
C779 H801 0.950 . S
C780 H776 0.949 . S
C780 C788 1.574 . S
C780 C796 1.368 . S
H781 C789 0.950 . S
H782 C787 0.950 . S
H783 C788 0.949 . S
H784 C790 0.950 . S
H785 C791 0.950 . S
H786 C792 0.949 . S
C787 H782 0.950 . S
C787 C789 1.327 . S
C787 C793 1.429 . S
C788 C780 1.574 . S
C788 H783 0.949 . S
C788 C794 1.368 . S
C789 C773 1.349 . S
C789 H781 0.950 . S
C789 C787 1.327 . S
C790 C778 1.349 . S
C790 H784 0.950 . S
C790 C791 1.327 . S
C791 H785 0.950 . S
C791 C790 1.327 . S
C791 C795 1.429 . S
C792 C775 1.574 . S
C792 H786 0.949 . S
C792 C796 1.368 . S
C793 C774 1.429 . S
C793 C787 1.429 . S
C793 C794 1.523 . S
C794 C775 1.368 . S
C794 C788 1.368 . S
C794 C793 1.523 . S
C795 C779 1.429 . S
C795 C791 1.429 . S
C795 C796 1.523 . S
C796 C780 1.368 . S
C796 C792 1.368 . S
C796 C795 1.523 . S
H797 C772 0.950 . S
H798 C774 0.950 . S
H799 C775 0.949 . S
H800 C777 0.950 . S
H801 C779 0.950 . S
C802 C803 1.349 . S
C802 C804 1.327 . S
C802 H827 0.950 . S
C803 C802 1.349 . S
C803 C819 1.349 . S
C804 C802 1.327 . S
C804 C823 1.429 . S
C804 H828 0.950 . S
C805 C822 1.574 . S
C805 C824 1.368 . S
C805 H829 0.949 . S
H806 C810 0.949 . S
C807 C808 1.349 . S
C807 C809 1.327 . S
C807 H830 0.950 . S
C808 C807 1.349 . S
C808 C820 1.349 . S
C809 C807 1.327 . S
C809 C825 1.429 . S
C809 H831 0.950 . S
C810 H806 0.949 . S
C810 C818 1.574 . S
C810 C826 1.368 . S
H811 C819 0.950 . S
H812 C817 0.950 . S
H813 C818 0.949 . S
H814 C820 0.950 . S
H815 C821 0.950 . S
H816 C822 0.949 . S
C817 H812 0.950 . S
C817 C819 1.327 . S
C817 C823 1.429 . S
C818 C810 1.574 . S
C818 H813 0.949 . S
C818 C824 1.368 . S
C819 C803 1.349 . S
C819 H811 0.950 . S
C819 C817 1.327 . S
C820 C808 1.349 . S
C820 H814 0.950 . S
C820 C821 1.327 . S
C821 H815 0.950 . S
C821 C820 1.327 . S
C821 C825 1.429 . S
C822 C805 1.574 . S
C822 H816 0.949 . S
C822 C826 1.368 . S
C823 C804 1.429 . S
C823 C817 1.429 . S
C823 C824 1.523 . S
C824 C805 1.368 . S
C824 C818 1.368 . S
C824 C823 1.523 . S
C825 C809 1.429 . S
C825 C821 1.429 . S
C825 C826 1.523 . S
C826 C810 1.368 . S
C826 C822 1.368 . S
C826 C825 1.523 . S
H827 C802 0.950 . S
H828 C804 0.950 . S
H829 C805 0.949 . S
H830 C807 0.950 . S
H831 C809 0.950 . S
C832 C833 1.349 . S
C832 C834 1.327 . S
C832 H857 0.950 . S
C833 C832 1.349 . S
C833 C849 1.349 . S
C834 C832 1.327 . S
C834 C853 1.429 . S
C834 H858 0.950 . S
C835 C852 1.574 1_655 S
C835 C854 1.368 . S
C835 H859 0.956 . S
H836 C840 0.949 . S
C837 C838 1.349 . S
C837 C839 1.327 . S
C837 H860 0.950 . S
C838 C837 1.349 . S
C838 C850 1.349 . S
C839 C837 1.327 . S
C839 C855 1.429 . S
C839 H861 0.950 . S
C840 H836 0.949 . S
C840 C848 1.574 . S
C840 C856 1.368 . S
H841 C849 0.950 . S
H842 C847 0.950 . S
H843 C848 0.949 . S
H844 C850 0.950 1_655 S
H845 C851 0.950 . S
H846 C852 0.949 . S
C847 H842 0.950 . S
C847 C849 1.327 . S
C847 C853 1.429 . S
C848 C840 1.574 . S
C848 H843 0.949 . S
C848 C854 1.368 1_556 S
C849 C833 1.349 . S
C849 H841 0.950 . S
C849 C847 1.327 . S
C850 C838 1.349 . S
C850 H844 0.950 1_455 S
C850 C851 1.327 1_455 S
C851 H845 0.950 . S
C851 C850 1.327 1_655 S
C851 C855 1.429 1_655 S
C852 C835 1.574 1_455 S
C852 H846 0.949 . S
C852 C856 1.368 1_454 S
C853 C834 1.429 . S
C853 C847 1.429 . S
C853 C854 1.523 . S
C854 C835 1.368 . S
C854 C848 1.368 1_554 S
C854 C853 1.523 . S
C855 C839 1.429 . S
C855 C851 1.429 1_455 S
C855 C856 1.523 1_455 S
C856 C840 1.368 . S
C856 C852 1.368 1_656 S
C856 C855 1.523 1_655 S
H857 C832 0.950 . S
H858 C834 0.950 . S
H859 C835 0.956 . S
H860 C837 0.950 . S
H861 C839 0.950 . S
C862 C863 1.349 . S
C862 C864 1.327 . S
C862 H887 0.950 . S
C863 C862 1.349 . S
C863 C879 1.349 1_565 S
C864 C862 1.327 . S
C864 C883 1.429 1_565 S
C864 H888 0.950 . S
C865 C882 1.574 . S
C865 C884 1.368 . S
C865 H889 0.949 . S
H866 C870 0.949 . S
C867 C868 1.349 . S
C867 C869 1.327 . S
C867 H890 0.950 . S
C868 C867 1.349 . S
C868 C880 1.349 . S
C869 C867 1.327 . S
C869 C885 1.429 . S
C869 H891 0.950 . S
C870 H866 0.949 . S
C870 C878 1.574 . S
C870 C886 1.368 1_565 S
H871 C879 0.950 . S
H872 C877 0.950 . S
H873 C878 0.949 . S
H874 C880 0.950 1_565 S
H875 C881 0.950 1_565 S
H876 C882 0.949 1_556 S
C877 H872 0.950 . S
C877 C879 1.327 . S
C877 C883 1.429 . S
C878 C870 1.574 . S
C878 H873 0.949 . S
C878 C884 1.368 1_565 S
C879 C863 1.349 1_545 S
C879 H871 0.950 . S
C879 C877 1.327 . S
C880 C868 1.349 . S
C880 H874 0.950 1_545 S
C880 C881 1.327 . S
C881 H875 0.950 1_545 S
C881 C880 1.327 . S
C881 C885 1.429 . S
C882 C865 1.574 . S
C882 H876 0.949 1_554 S
C882 C886 1.368 . S
C883 C864 1.429 1_545 S
C883 C877 1.429 . S
C883 C884 1.523 . S
C884 C865 1.368 . S
C884 C878 1.368 1_545 S
C884 C883 1.523 . S
C885 C869 1.429 . S
C885 C881 1.429 . S
C885 C886 1.523 1_556 S
C886 C870 1.368 1_545 S
C886 C882 1.368 . S
C886 C885 1.523 1_554 S
H887 C862 0.950 . S
H888 C864 0.950 . S
H889 C865 0.949 . S
H890 C867 0.950 . S
H891 C869 0.950 . S
C892 C893 1.349 . S
C892 C894 1.327 . S
C892 H917 0.950 . S
C893 C892 1.349 . S
C893 C909 1.349 . S
C894 C892 1.327 . S
C894 C913 1.429 . S
C894 H918 0.950 . S
C895 C912 1.574 . S
C895 C914 1.368 . S
C895 H919 0.949 . S
H896 C900 0.949 . S
C897 C898 1.349 . S
C897 C899 1.327 . S
C897 H920 0.950 . S
C898 C897 1.349 . S
C898 C910 1.349 . S
C899 C897 1.327 . S
C899 C915 1.429 . S
C899 H921 0.950 . S
C900 H896 0.949 . S
C900 C908 1.574 . S
C900 C916 1.368 . S
H901 C909 0.950 . S
H902 C907 0.950 . S
H903 C908 0.949 . S
H904 C910 0.950 . S
H905 C911 0.950 . S
H906 C912 0.949 . S
C907 H902 0.950 . S
C907 C909 1.327 . S
C907 C913 1.429 . S
C908 C900 1.574 . S
C908 H903 0.949 . S
C908 C914 1.368 . S
C909 C893 1.349 . S
C909 H901 0.950 . S
C909 C907 1.327 . S
C910 C898 1.349 . S
C910 H904 0.950 . S
C910 C911 1.327 . S
C911 H905 0.950 . S
C911 C910 1.327 . S
C911 C915 1.429 . S
C912 C895 1.574 . S
C912 H906 0.949 . S
C912 C916 1.368 . S
C913 C894 1.429 . S
C913 C907 1.429 . S
C913 C914 1.523 . S
C914 C895 1.368 . S
C914 C908 1.368 . S
C914 C913 1.523 . S
C915 C899 1.429 . S
C915 C911 1.429 . S
C915 C916 1.523 . S
C916 C900 1.368 . S
C916 C912 1.368 . S
C916 C915 1.523 . S
H917 C892 0.950 . S
H918 C894 0.950 . S
H919 C895 0.949 . S
H920 C897 0.950 . S
H921 C899 0.950 . S
C922 C923 1.349 . S
C922 C924 1.327 . S
C922 H947 0.950 . S
C923 C922 1.349 . S
C923 C939 1.349 . S
C924 C922 1.327 . S
C924 C943 1.429 . S
C924 H948 0.950 . S
C925 C942 1.574 . S
C925 C944 1.368 . S
C925 H949 0.949 . S
H926 C930 0.949 . S
C927 C928 1.349 . S
C927 C929 1.327 . S
C927 H950 0.950 . S
C928 C927 1.349 . S
C928 C940 1.349 . S
C929 C927 1.327 . S
C929 C945 1.429 . S
C929 H951 0.950 1_556 S
C930 H926 0.949 . S
C930 C938 1.574 1_556 S
C930 C946 1.367 1_556 S
H931 C939 0.950 . S
H932 C937 0.950 . S
H933 C938 0.949 . S
H934 C940 0.950 . S
H935 C941 0.950 . S
H936 C942 0.949 . S
C937 H932 0.950 . S
C937 C939 1.327 . S
C937 C943 1.429 . S
C938 C930 1.574 1_554 S
C938 H933 0.949 . S
C938 C944 1.368 . S
C939 C923 1.349 . S
C939 H931 0.950 . S
C939 C937 1.327 . S
C940 C928 1.349 . S
C940 H934 0.950 . S
C940 C941 1.327 . S
C941 H935 0.950 . S
C941 C940 1.327 . S
C941 C945 1.429 . S
C942 C925 1.574 . S
C942 H936 0.949 . S
C942 C946 1.372 . S
C943 C924 1.429 . S
C943 C937 1.429 . S
C943 C944 1.523 . S
C944 C925 1.368 . S
C944 C938 1.368 . S
C944 C943 1.523 . S
C945 C929 1.429 . S
C945 C941 1.429 . S
C945 C946 1.520 1_556 S
C946 C930 1.367 1_554 S
C946 C942 1.372 . S
C946 C945 1.520 1_554 S
H947 C922 0.950 . S
H948 C924 0.950 . S
H949 C925 0.949 . S
H950 C927 0.950 . S
H951 C929 0.950 1_554 S
C952 C953 1.349 . S
C952 C954 1.327 . S
C952 H977 0.950 . S
C953 C952 1.349 . S
C953 C969 1.349 . S
C954 C952 1.327 . S
C954 C973 1.429 . S
C954 H978 0.950 . S
C955 C972 1.574 . S
C955 C974 1.368 . S
C955 H979 0.949 . S
H956 C960 0.949 . S
C957 C958 1.349 . S
C957 C959 1.327 . S
C957 H980 0.950 . S
C958 C957 1.349 . S
C958 C970 1.349 . S
C959 C957 1.327 . S
C959 C975 1.429 . S
C959 H981 0.950 . S
C960 H956 0.949 . S
C960 C968 1.574 . S
C960 C976 1.368 . S
H961 C969 0.950 1_554 S
H962 C967 0.950 . S
H963 C968 0.949 . S
H964 C970 0.950 . S
H965 C971 0.950 . S
H966 C972 0.949 . S
C967 H962 0.950 . S
C967 C969 1.327 . S
C967 C973 1.429 . S
C968 C960 1.574 . S
C968 H963 0.949 . S
C968 C974 1.368 . S
C969 C953 1.349 . S
C969 H961 0.950 1_556 S
C969 C967 1.327 . S
C970 C958 1.349 . S
C970 H964 0.950 . S
C970 C971 1.327 . S
C971 H965 0.950 . S
C971 C970 1.327 . S
C971 C975 1.429 . S
C972 C955 1.574 . S
C972 H966 0.949 . S
C972 C976 1.368 . S
C973 C954 1.429 . S
C973 C967 1.429 . S
C973 C974 1.523 . S
C974 C955 1.368 . S
C974 C968 1.368 . S
C974 C973 1.523 . S
C975 C959 1.429 . S
C975 C971 1.429 . S
C975 C976 1.523 . S
C976 C960 1.368 . S
C976 C972 1.368 . S
C976 C975 1.523 . S
H977 C952 0.950 . S
H978 C954 0.950 . S
H979 C955 0.949 . S
H980 C957 0.950 . S
H981 C959 0.950 . S
C982 C983 1.380 . S
C982 C984 1.327 . S
C982 H1007 0.950 . S
C983 C982 1.380 . S
C983 C999 1.320 1_545 S
C984 C982 1.327 . S
C984 C1003 1.429 . S
C984 H1008 0.950 . S
C985 C1002 1.574 . S
C985 C1004 1.368 1_565 S
C985 H1009 0.949 . S
H986 C990 0.949 . S
C987 C988 1.349 1_565 S
C987 C989 1.327 . S
C987 H1010 0.950 . S
C988 C987 1.349 1_545 S
C988 C1000 1.349 . S
C989 C987 1.327 . S
C989 C1005 1.429 1_565 S
C989 H1011 0.950 . S
C990 H986 0.949 . S
C990 C998 1.574 . S
C990 C1006 1.368 . S
H991 C999 0.950 . S
H992 C997 0.950 . S
H993 C998 0.949 . S
H994 C1000 0.950 . S
H995 C1001 0.950 . S
H996 C1002 0.949 . S
C997 H992 0.950 . S
C997 C999 1.327 . S
C997 C1003 1.429 1_565 S
C998 C990 1.574 . S
C998 H993 0.949 . S
C998 C1004 1.368 . S
C999 C983 1.320 1_565 S
C999 H991 0.950 . S
C999 C997 1.327 . S
C1000 C988 1.349 . S
C1000 H994 0.950 . S
C1000 C1001 1.327 . S
C1001 H995 0.950 . S
C1001 C1000 1.327 . S
C1001 C1005 1.429 . S
C1002 C985 1.574 . S
C1002 H996 0.949 . S
C1002 C1006 1.368 1_565 S
C1003 C984 1.429 . S
C1003 C997 1.429 1_545 S
C1003 C1004 1.523 . S
C1004 C985 1.368 1_545 S
C1004 C998 1.368 . S
C1004 C1003 1.523 . S
C1005 C989 1.429 1_545 S
C1005 C1001 1.429 . S
C1005 C1006 1.523 . S
C1006 C990 1.368 . S
C1006 C1002 1.368 1_545 S
C1006 C1005 1.523 . S
H1007 C982 0.950 . S
H1008 C984 0.950 . S
H1009 C985 0.949 . S
H1010 C987 0.950 . S
H1011 C989 0.950 . S
C1012 C1013 1.349 . S
C1012 C1014 1.327 . S
C1012 H1037 0.950 . S
C1013 C1012 1.349 . S
C1013 C1029 1.349 . S
C1014 C1012 1.327 . S
C1014 C1033 1.429 . S
C1014 H1038 0.950 . S
C1015 C1032 1.574 . S
C1015 C1034 1.368 . S
C1015 H1039 0.949 . S
H1016 C1020 0.949 . S
C1017 C1018 1.349 . S
C1017 C1019 1.327 1_556 S
C1017 H1040 0.950 . S
C1018 C1017 1.349 . S
C1018 C1030 1.349 1_556 S
C1019 C1017 1.327 1_554 S
C1019 C1035 1.429 . S
C1019 H1041 0.950 1_554 S
C1020 H1016 0.949 . S
C1020 C1028 1.574 . S
C1020 C1036 1.368 . S
H1021 C1029 0.950 . S
H1022 C1027 0.950 . S
H1023 C1028 0.949 . S
H1024 C1030 0.950 . S
H1025 C1031 0.950 . S
H1026 C1032 0.949 . S
C1027 H1022 0.950 . S
C1027 C1029 1.327 . S
C1027 C1033 1.429 . S
C1028 C1020 1.574 . S
C1028 H1023 0.949 . S
C1028 C1034 1.368 . S
C1029 C1013 1.349 . S
C1029 H1021 0.950 . S
C1029 C1027 1.327 . S
C1030 C1018 1.349 1_554 S
C1030 H1024 0.950 . S
C1030 C1031 1.327 . S
C1031 H1025 0.950 . S
C1031 C1030 1.327 . S
C1031 C1035 1.429 . S
C1032 C1015 1.574 . S
C1032 H1026 0.949 . S
C1032 C1036 1.368 . S
C1033 C1014 1.429 . S
C1033 C1027 1.429 . S
C1033 C1034 1.523 . S
C1034 C1015 1.368 . S
C1034 C1028 1.368 . S
C1034 C1033 1.523 . S
C1035 C1019 1.429 . S
C1035 C1031 1.429 . S
C1035 C1036 1.523 . S
C1036 C1020 1.368 . S
C1036 C1032 1.368 . S
C1036 C1035 1.523 . S
H1037 C1012 0.950 . S
H1038 C1014 0.950 . S
H1039 C1015 0.949 . S
H1040 C1017 0.950 . S
H1041 C1019 0.950 1_556 S
C1042 C1043 1.349 . S
C1042 C1044 1.327 . S
C1042 H1067 0.950 . S
C1043 C1042 1.349 . S
C1043 C1059 1.349 . S
C1044 C1042 1.327 . S
C1044 C1063 1.429 . S
C1044 H1068 0.950 . S
C1045 C1062 1.574 . S
C1045 C1064 1.368 . S
C1045 H1069 0.949 . S
H1046 C1050 0.949 . S
C1047 C1048 1.349 . S
C1047 C1049 1.327 . S
C1047 H1070 0.950 . S
C1048 C1047 1.349 . S
C1048 C1060 1.349 . S
C1049 C1047 1.327 . S
C1049 C1065 1.429 . S
C1049 H1071 0.950 . S
C1050 H1046 0.949 . S
C1050 C1058 1.574 . S
C1050 C1066 1.368 . S
H1051 C1059 0.950 . S
H1052 C1057 0.950 . S
H1053 C1058 0.949 . S
H1054 C1060 0.950 . S
H1055 C1061 0.950 . S
H1056 C1062 0.949 . S
C1057 H1052 0.950 . S
C1057 C1059 1.327 . S
C1057 C1063 1.429 . S
C1058 C1050 1.574 . S
C1058 H1053 0.949 . S
C1058 C1064 1.368 . S
C1059 C1043 1.349 . S
C1059 H1051 0.950 . S
C1059 C1057 1.327 . S
C1060 C1048 1.349 . S
C1060 H1054 0.950 . S
C1060 C1061 1.327 . S
C1061 H1055 0.950 . S
C1061 C1060 1.327 . S
C1061 C1065 1.429 . S
C1062 C1045 1.574 . S
C1062 H1056 0.949 . S
C1062 C1066 1.368 . S
C1063 C1044 1.429 . S
C1063 C1057 1.429 . S
C1063 C1064 1.523 . S
C1064 C1045 1.368 . S
C1064 C1058 1.368 . S
C1064 C1063 1.523 . S
C1065 C1049 1.429 . S
C1065 C1061 1.429 . S
C1065 C1066 1.523 . S
C1066 C1050 1.368 . S
C1066 C1062 1.368 . S
C1066 C1065 1.523 . S
H1067 C1042 0.950 . S
H1068 C1044 0.950 . S
H1069 C1045 0.949 . S
H1070 C1047 0.950 . S
H1071 C1049 0.950 . S
C1072 C1073 1.349 . S
C1072 C1074 1.327 . S
C1072 H1097 0.950 . S
C1073 C1072 1.349 . S
C1073 C1089 1.349 . S
C1074 C1072 1.327 . S
C1074 C1093 1.429 . S
C1074 H1098 0.950 . S
C1075 C1092 1.574 . S
C1075 C1094 1.368 . S
C1075 H1099 0.949 . S
H1076 C1080 0.949 . S
C1077 C1078 1.349 . S
C1077 C1079 1.327 . S
C1077 H1100 0.950 . S
C1078 C1077 1.349 . S
C1078 C1090 1.349 . S
C1079 C1077 1.327 . S
C1079 C1095 1.429 . S
C1079 H1101 0.950 . S
C1080 H1076 0.949 . S
C1080 C1088 1.574 . S
C1080 C1096 1.368 . S
H1081 C1089 0.950 . S
H1082 C1087 0.950 . S
H1083 C1088 0.949 . S
H1084 C1090 0.950 . S
H1085 C1091 0.950 . S
H1086 C1092 0.949 . S
C1087 H1082 0.950 . S
C1087 C1089 1.327 . S
C1087 C1093 1.429 . S
C1088 C1080 1.574 . S
C1088 H1083 0.949 . S
C1088 C1094 1.368 . S
C1089 C1073 1.349 . S
C1089 H1081 0.950 . S
C1089 C1087 1.327 . S
C1090 C1078 1.349 . S
C1090 H1084 0.950 . S
C1090 C1091 1.327 . S
C1091 H1085 0.950 . S
C1091 C1090 1.327 . S
C1091 C1095 1.429 . S
C1092 C1075 1.574 . S
C1092 H1086 0.949 . S
C1092 C1096 1.368 . S
C1093 C1074 1.429 . S
C1093 C1087 1.429 . S
C1093 C1094 1.523 . S
C1094 C1075 1.368 . S
C1094 C1088 1.368 . S
C1094 C1093 1.523 . S
C1095 C1079 1.429 . S
C1095 C1091 1.429 . S
C1095 C1096 1.523 . S
C1096 C1080 1.368 . S
C1096 C1092 1.368 . S
C1096 C1095 1.523 . S
H1097 C1072 0.950 . S
H1098 C1074 0.950 . S
H1099 C1075 0.949 . S
H1100 C1077 0.950 . S
H1101 C1079 0.950 . S
C1102 C1103 1.371 . S
C1102 C1104 1.327 . S
C1102 H1127 0.950 . S
C1103 C1102 1.371 . S
C1103 C1119 1.328 1_565 S
C1104 C1102 1.327 . S
C1104 C1123 1.429 . S
C1104 H1128 0.950 . S
C1105 C1122 1.574 . S
C1105 C1124 1.368 1_545 S
C1105 H1129 0.949 . S
H1106 C1110 0.949 . S
C1107 C1108 1.349 1_545 S
C1107 C1109 1.327 . S
C1107 H1130 0.950 . S
C1108 C1107 1.349 1_565 S
C1108 C1120 1.349 . S
C1109 C1107 1.327 . S
C1109 C1125 1.429 1_545 S
C1109 H1131 0.950 . S
C1110 H1106 0.949 . S
C1110 C1118 1.574 . S
C1110 C1126 1.368 . S
H1111 C1119 0.950 . S
H1112 C1117 0.950 . S
H1113 C1118 0.949 . S
H1114 C1120 0.950 . S
H1115 C1121 0.950 . S
H1116 C1122 0.949 . S
C1117 H1112 0.950 . S
C1117 C1119 1.327 . S
C1117 C1123 1.429 1_545 S
C1118 C1110 1.574 . S
C1118 H1113 0.949 . S
C1118 C1124 1.368 . S
C1119 C1103 1.328 1_545 S
C1119 H1111 0.950 . S
C1119 C1117 1.327 . S
C1120 C1108 1.349 . S
C1120 H1114 0.950 . S
C1120 C1121 1.327 . S
C1121 H1115 0.950 . S
C1121 C1120 1.327 . S
C1121 C1125 1.429 . S
C1122 C1105 1.574 . S
C1122 H1116 0.949 . S
C1122 C1126 1.368 1_545 S
C1123 C1104 1.429 . S
C1123 C1117 1.429 1_565 S
C1123 C1124 1.523 . S
C1124 C1105 1.368 1_565 S
C1124 C1118 1.368 . S
C1124 C1123 1.523 . S
C1125 C1109 1.429 1_565 S
C1125 C1121 1.429 . S
C1125 C1126 1.523 . S
C1126 C1110 1.368 . S
C1126 C1122 1.368 1_565 S
C1126 C1125 1.523 . S
H1127 C1102 0.950 . S
H1128 C1104 0.950 . S
H1129 C1105 0.949 . S
H1130 C1107 0.950 . S
H1131 C1109 0.950 . S
C1132 C1133 1.349 . S
C1132 C1134 1.327 . S
C1132 H1157 0.950 . S
C1133 C1132 1.349 . S
C1133 C1149 1.349 . S
C1134 C1132 1.327 . S
C1134 C1153 1.429 . S
C1134 H1158 0.950 . S
C1135 C1152 1.574 . S
C1135 C1154 1.368 . S
C1135 H1159 0.949 . S
H1136 C1140 0.949 . S
C1137 C1138 1.349 . S
C1137 C1139 1.327 . S
C1137 H1160 0.950 . S
C1138 C1137 1.349 . S
C1138 C1150 1.349 . S
C1139 C1137 1.327 . S
C1139 C1155 1.429 . S
C1139 H1161 0.950 . S
C1140 H1136 0.949 . S
C1140 C1148 1.574 . S
C1140 C1156 1.368 . S
H1141 C1149 0.950 . S
H1142 C1147 0.950 . S
H1143 C1148 0.949 . S
H1144 C1150 0.950 . S
H1145 C1151 0.950 . S
H1146 C1152 0.949 . S
C1147 H1142 0.950 . S
C1147 C1149 1.327 . S
C1147 C1153 1.429 . S
C1148 C1140 1.574 . S
C1148 H1143 0.949 . S
C1148 C1154 1.368 . S
C1149 C1133 1.349 . S
C1149 H1141 0.950 . S
C1149 C1147 1.327 . S
C1150 C1138 1.349 . S
C1150 H1144 0.950 . S
C1150 C1151 1.327 . S
C1151 H1145 0.950 . S
C1151 C1150 1.327 . S
C1151 C1155 1.429 . S
C1152 C1135 1.574 . S
C1152 H1146 0.949 . S
C1152 C1156 1.368 . S
C1153 C1134 1.429 . S
C1153 C1147 1.429 . S
C1153 C1154 1.523 . S
C1154 C1135 1.368 . S
C1154 C1148 1.368 . S
C1154 C1153 1.523 . S
C1155 C1139 1.429 . S
C1155 C1151 1.429 . S
C1155 C1156 1.523 . S
C1156 C1140 1.368 . S
C1156 C1152 1.368 . S
C1156 C1155 1.523 . S
H1157 C1132 0.950 . S
H1158 C1134 0.950 . S
H1159 C1135 0.949 . S
H1160 C1137 0.950 . S
H1161 C1139 0.950 . S
C1162 C1163 1.349 . S
C1162 C1164 1.327 . S
C1162 H1187 0.950 . S
C1163 C1162 1.349 . S
C1163 C1179 1.349 . S
C1164 C1162 1.327 . S
C1164 C1183 1.429 . S
C1164 H1188 0.950 . S
C1165 C1182 1.574 . S
C1165 C1184 1.368 . S
C1165 H1189 0.949 . S
H1166 C1170 0.949 . S
C1167 C1168 1.349 . S
C1167 C1169 1.327 . S
C1167 H1190 0.950 . S
C1168 C1167 1.349 . S
C1168 C1180 1.349 . S
C1169 C1167 1.327 . S
C1169 C1185 1.429 . S
C1169 H1191 0.950 . S
C1170 H1166 0.949 . S
C1170 C1178 1.574 . S
C1170 C1186 1.368 . S
H1171 C1179 0.950 . S
H1172 C1177 0.950 . S
H1173 C1178 0.949 . S
H1174 C1180 0.950 . S
H1175 C1181 0.950 . S
H1176 C1182 0.949 . S
C1177 H1172 0.950 . S
C1177 C1179 1.327 . S
C1177 C1183 1.429 . S
C1178 C1170 1.574 . S
C1178 H1173 0.949 . S
C1178 C1184 1.368 . S
C1179 C1163 1.349 . S
C1179 H1171 0.950 . S
C1179 C1177 1.327 . S
C1180 C1168 1.349 . S
C1180 H1174 0.950 . S
C1180 C1181 1.327 . S
C1181 H1175 0.950 . S
C1181 C1180 1.327 . S
C1181 C1185 1.429 . S
C1182 C1165 1.574 . S
C1182 H1176 0.949 . S
C1182 C1186 1.368 . S
C1183 C1164 1.429 . S
C1183 C1177 1.429 . S
C1183 C1184 1.523 . S
C1184 C1165 1.368 . S
C1184 C1178 1.368 . S
C1184 C1183 1.523 . S
C1185 C1169 1.429 . S
C1185 C1181 1.429 . S
C1185 C1186 1.523 . S
C1186 C1170 1.368 . S
C1186 C1182 1.368 . S
C1186 C1185 1.523 . S
H1187 C1162 0.950 . S
H1188 C1164 0.950 . S
H1189 C1165 0.949 . S
H1190 C1167 0.950 . S
H1191 C1169 0.950 . S
C473 C255 1.916 . S
C478 C335 2.021 . S
C508 C375 1.567 . S
C503 C294 1.534 . S
C538 C394 2.098 . S
C533 C177 1.985 . S
C568 C455 1.658 . S
C563 C216 1.566 . S
C598 C314 2.023 . S
C593 C99 1.914 1_545 S
C623 C138 1.530 . S
C628 C354 1.574 . S
C653 C21 1.978 . S
C658 C415 2.095 . S
C683 C60 1.575 . S
C688 C434 1.657 1_655 S
C718 C316 0.526 . S
C713 C196 0.510 . S
C748 C356 0.348 . S
C743 C235 0.312 1_545 S
C778 C412 0.548 . S
C773 C289 0.619 . S
C803 C157 0.217 . S
C808 C436 0.273 . S
C833 C40 0.506 . S
C838 C337 0.532 . S
C868 C377 0.349 . S
C863 C79 0.299 . S
C898 C423 0.549 . S
C893 C133 0.619 . S
C923 C1 0.214 . S
C928 C457 0.273 . S
C953 C211 2.177 . S
C958 C332 2.394 . S
C983 C250 2.631 . S
C988 C372 2.900 . S
C1018 C396 1.853 . S
C1013 C274 1.790 . S
C1048 C452 2.861 . S
C1043 C172 2.598 . S
C1073 C55 2.169 . S
C1078 C343 2.407 . S
C1108 C383 2.899 . S
C1103 C94 2.630 1_565 S
C1138 C417 1.854 . S
C1133 C118 1.788 . S
C1163 C16 2.599 . S
C1168 C463 2.860 . S
