# Generated by pormake.
# Topology pyr, (3,6)-cn, num edge types: 1
# Building blocks:
#     Node 0, Type 0, BuildingBlock: ESEHIV_clean_linker_0, # of connection points: 3
#     Node 1, Type 0, BuildingBlock: ESEHIV_clean_linker_0, # of connection points: 3
#     Node 2, Type 0, BuildingBlock: ESEHIV_clean_linker_0, # of connection points: 3
#     Node 3, Type 0, BuildingBlock: ESEHIV_clean_linker_0, # of connection points: 3
#     Node 4, Type 0, BuildingBlock: ESEHIV_clean_linker_0, # of connection points: 3
#     Node 5, Type 0, BuildingBlock: ESEHIV_clean_linker_0, # of connection points: 3
#     Node 6, Type 0, BuildingBlock: ESEHIV_clean_linker_0, # of connection points: 3
#     Node 7, Type 0, BuildingBlock: ESEHIV_clean_linker_0, # of connection points: 3
#     Node 8, Type 1, BuildingBlock: MIFKUJ_clean_sbu_0, # of connection points: 6
#     Node 9, Type 1, BuildingBlock: MIFKUJ_clean_sbu_0, # of connection points: 6
#     Node 10, Type 1, BuildingBlock: MIFKUJ_clean_sbu_0, # of connection points: 6
#     Node 11, Type 1, BuildingBlock: MIFKUJ_clean_sbu_0, # of connection points: 6
#     Edge 12, Type (0, 1), BuildingBlock: XUDNAN_clean_linker_2, # of connection points: 2
#     Edge 13, Type (0, 1), BuildingBlock: XUDNAN_clean_linker_2, # of connection points: 2
#     Edge 14, Type (0, 1), BuildingBlock: XUDNAN_clean_linker_2, # of connection points: 2
#     Edge 15, Type (0, 1), BuildingBlock: XUDNAN_clean_linker_2, # of connection points: 2
#     Edge 16, Type (0, 1), BuildingBlock: XUDNAN_clean_linker_2, # of connection points: 2
#     Edge 17, Type (0, 1), BuildingBlock: XUDNAN_clean_linker_2, # of connection points: 2
#     Edge 18, Type (0, 1), BuildingBlock: XUDNAN_clean_linker_2, # of connection points: 2
#     Edge 19, Type (0, 1), BuildingBlock: XUDNAN_clean_linker_2, # of connection points: 2
#     Edge 20, Type (0, 1), BuildingBlock: XUDNAN_clean_linker_2, # of connection points: 2
#     Edge 21, Type (0, 1), BuildingBlock: XUDNAN_clean_linker_2, # of connection points: 2
#     Edge 22, Type (0, 1), BuildingBlock: XUDNAN_clean_linker_2, # of connection points: 2
#     Edge 23, Type (0, 1), BuildingBlock: XUDNAN_clean_linker_2, # of connection points: 2
#     Edge 24, Type (0, 1), BuildingBlock: XUDNAN_clean_linker_2, # of connection points: 2
#     Edge 25, Type (0, 1), BuildingBlock: XUDNAN_clean_linker_2, # of connection points: 2
#     Edge 26, Type (0, 1), BuildingBlock: XUDNAN_clean_linker_2, # of connection points: 2
#     Edge 27, Type (0, 1), BuildingBlock: XUDNAN_clean_linker_2, # of connection points: 2
#     Edge 28, Type (0, 1), BuildingBlock: XUDNAN_clean_linker_2, # of connection points: 2
#     Edge 29, Type (0, 1), BuildingBlock: XUDNAN_clean_linker_2, # of connection points: 2
#     Edge 30, Type (0, 1), BuildingBlock: XUDNAN_clean_linker_2, # of connection points: 2
#     Edge 31, Type (0, 1), BuildingBlock: XUDNAN_clean_linker_2, # of connection points: 2
#     Edge 32, Type (0, 1), BuildingBlock: XUDNAN_clean_linker_2, # of connection points: 2
#     Edge 33, Type (0, 1), BuildingBlock: XUDNAN_clean_linker_2, # of connection points: 2
#     Edge 34, Type (0, 1), BuildingBlock: XUDNAN_clean_linker_2, # of connection points: 2
#     Edge 35, Type (0, 1), BuildingBlock: XUDNAN_clean_linker_2, # of connection points: 2
# Relax obj value: 0.030
# Max RMSD: 0.083
# Mean RMSD: 0.048
data_MOF--net-pyr--node1-MIFKUJ_clean_sbu_0--node2-ESEHIV_clean_linker_0--edge1-XUDNAN_clean_linker_2
_symmetry_space_group_name_H-M    P1
_symmetry_Int_Tables_number       1
_symmetry_cell_setting            triclinic
loop_
_symmetry_equiv_pos_as_xyz
'x, y, z'
_cell_length_a     37.560099
_cell_length_b     33.657992
_cell_length_c     35.962157
_cell_angle_alpha  85.622673
_cell_angle_beta   87.645324
_cell_angle_gamma 96.448118
loop_
_atom_site_label
_atom_site_type_symbol
_atom_site_fract_x
_atom_site_fract_y
_atom_site_fract_z
_atom_type_partial_charge
H0 H 0.15284 0.18865 0.24532 0.0
H1 H 0.24708 0.12894 0.25124 0.0
H2 H 0.23608 0.2134 0.1577 0.0
C3 C 0.17863 0.18389 0.23313 0.0
C4 C 0.19123 0.20415 0.19861 0.0
C5 C 0.19803 0.15591 0.25155 0.0
C6 C 0.23209 0.15066 0.23696 0.0
C7 C 0.24655 0.17213 0.2037 0.0
C8 C 0.22563 0.19824 0.18417 0.0
H9 H 0.30391 0.8852 0.72495 0.0
H10 H 0.4006 0.83184 0.6989 0.0
H11 H 0.30773 0.80938 0.63481 0.0
C12 C 0.31901 0.86697 0.70808 0.0
C13 C 0.30211 0.84832 0.67888 0.0
C14 C 0.35461 0.86107 0.71616 0.0
C15 C 0.37293 0.83606 0.69416 0.0
C16 C 0.35609 0.81751 0.66485 0.0
C17 C 0.32074 0.82364 0.65754 0.0
H18 H 0.68303 0.30544 0.86506 0.0
H19 H 0.69138 0.41147 0.79035 0.0
H20 H 0.61877 0.30692 0.76939 0.0
C21 C 0.67453 0.32147 0.84025 0.0
C22 C 0.6484 0.30258 0.8189 0.0
C23 C 0.69046 0.36034 0.82945 0.0
C24 C 0.67961 0.38082 0.79721 0.0
C25 C 0.65353 0.36236 0.77475 0.0
C26 C 0.63803 0.32277 0.78617 0.0
H27 H 0.82478 0.69654 0.34787 0.0
H28 H 0.903 0.69904 0.25767 0.0
H29 H 0.80411 0.62037 0.25784 0.0
C30 C 0.8325 0.68581 0.3214 0.0
C31 C 0.80938 0.65701 0.30492 0.0
C32 C 0.86589 0.70106 0.3044 0.0
C33 C 0.87707 0.68708 0.27072 0.0
C34 C 0.85512 0.65755 0.25393 0.0
C35 C 0.82134 0.64239 0.27126 0.0
H36 H 0.76554 0.86228 0.76081 0.0
H37 H 0.86039 0.80285 0.76541 0.0
H38 H 0.77861 0.7753 0.85271 0.0
C39 C 0.78007 0.83976 0.77449 0.0
C40 C 0.76657 0.81867 0.80845 0.0
C41 C 0.81382 0.83416 0.7592 0.0
C42 C 0.83352 0.80577 0.77633 0.0
C43 C 0.82033 0.78403 0.80954 0.0
C44 C 0.78704 0.79038 0.82557 0.0
H45 H 0.62295 0.17871 0.29667 0.0
H46 H 0.71722 0.11802 0.28452 0.0
H47 H 0.70789 0.19914 0.37052 0.0
C48 C 0.64945 0.17302 0.30481 0.0
C49 C 0.6645 0.19376 0.33369 0.0
C50 C 0.66812 0.14572 0.28643 0.0
C51 C 0.70177 0.13768 0.29923 0.0
C52 C 0.71616 0.15592 0.33026 0.0
C53 C 0.69716 0.18411 0.34716 0.0
H54 H 0.32206 0.69703 0.15051 0.0
H55 H 0.32168 0.60636 0.24117 0.0
H56 H 0.41143 0.69806 0.22177 0.0
C57 C 0.33428 0.6849 0.17504 0.0
C58 C 0.36819 0.70238 0.18423 0.0
C59 C 0.31746 0.65007 0.19503 0.0
C60 C 0.33415 0.63373 0.22585 0.0
C61 C 0.36783 0.65099 0.23592 0.0
C62 C 0.38465 0.68583 0.21537 0.0
H63 H 0.12364 0.30888 0.75963 0.0
H64 H 0.20306 0.32636 0.6687 0.0
H65 H 0.21295 0.40061 0.76094 0.0
C66 C 0.14824 0.32496 0.74676 0.0
C67 C 0.16674 0.35627 0.7646 0.0
C68 C 0.16191 0.31357 0.7127 0.0
C69 C 0.19365 0.33441 0.6957 0.0
C70 C 0.21209 0.36655 0.71239 0.0
C71 C 0.19875 0.37643 0.74733 0.0
Zn72 Zn 0.05348 0.00905 0.54577 0.0
Zn73 Zn 0.97402 0.00115 0.47513 0.0
C74 C 0.09072 0.07859 0.5756 0.0
O75 O 0.11663 0.05545 0.57711 0.0
C76 C 0.94592 0.93223 0.43858 0.0
O77 O 0.91562 0.94474 0.44959 0.0
O78 O 0.08827 0.97742 0.57291 0.0
O79 O 0.00386 0.98689 0.56443 0.0
O80 O 0.95744 0.98138 0.52772 0.0
C81 C 0.08339 0.93961 0.57994 0.0
O82 O 0.05385 0.91945 0.56982 0.0
O83 O 0.06156 0.0661 0.5612 0.0
C84 C 0.92597 0.03575 0.42208 0.0
O85 O 0.93919 0.01312 0.39806 0.0
O86 O 0.93681 0.03526 0.45512 0.0
O87 O 0.02092 0.03719 0.47042 0.0
O88 O 0.06531 0.00624 0.49136 0.0
O89 O 0.97553 0.95164 0.44594 0.0
C90 C 0.97087 0.97705 0.55943 0.0
C91 C 0.04964 0.02177 0.46433 0.0
Zn92 Zn 0.53197 0.97792 0.98723 0.0
Zn93 Zn 0.48295 0.03126 0.02213 0.0
C94 C 0.48869 0.93901 0.93376 0.0
O95 O 0.5057 0.90884 0.94571 0.0
C96 C 0.53208 0.06823 0.07037 0.0
O97 O 0.51739 0.0995 0.05674 0.0
O98 O 0.56978 0.94437 0.97094 0.0
O99 O 0.5547 0.03491 0.98245 0.0
O100 O 0.50407 0.06043 0.97323 0.0
C101 C 0.58568 0.95307 0.93902 0.0
O102 O 0.57846 0.98497 0.91864 0.0
O103 O 0.49429 0.97214 0.94859 0.0
C104 C 0.43849 0.05305 0.07934 0.0
O105 O 0.45398 0.02384 0.09589 0.0
O106 O 0.44534 0.06231 0.04462 0.0
O107 O 0.46017 0.9735 0.02373 0.0
O108 O 0.51175 0.95288 0.03724 0.0
O109 O 0.52263 0.03415 0.05863 0.0
C110 C 0.53784 0.06192 0.96705 0.0
C111 C 0.4778 0.94795 0.04025 0.0
Zn112 Zn 0.52941 0.47456 0.47981 0.0
Zn113 Zn 0.4874 0.53431 0.53088 0.0
C114 C 0.58624 0.51552 0.42932 0.0
O115 O 0.57433 0.48641 0.40917 0.0
C116 C 0.44036 0.48719 0.58417 0.0
O117 O 0.46493 0.50407 0.60477 0.0
O118 O 0.54048 0.42617 0.45469 0.0
O119 O 0.52989 0.45888 0.53529 0.0
O120 O 0.53366 0.5203 0.55328 0.0
C121 C 0.56267 0.40265 0.46591 0.0
O122 O 0.57768 0.40736 0.49788 0.0
O123 O 0.57075 0.51824 0.4612 0.0
C124 C 0.4485 0.59963 0.53995 0.0
O125 O 0.43235 0.58335 0.51218 0.0
O126 O 0.47454 0.5838 0.55408 0.0
O127 O 0.48702 0.54955 0.47513 0.0
O128 O 0.48349 0.48811 0.45793 0.0
O129 O 0.44502 0.49273 0.54882 0.0
C130 C 0.54041 0.48416 0.55805 0.0
C131 C 0.47783 0.52442 0.45174 0.0
Zn132 Zn 0.96885 0.51504 0.97163 0.0
Zn133 Zn 0.04441 0.4866 0.05058 0.0
C134 C 0.91394 0.47441 0.93222 0.0
O135 O 0.9375 0.48665 0.90454 0.0
C136 C 0.10047 0.54997 0.07156 0.0
O137 O 0.0756 0.57415 0.07481 0.0
O138 O 0.96619 0.56879 0.94529 0.0
O139 O 0.9754 0.52285 0.02607 0.0
O140 O 0.0055 0.51362 0.07639 0.0
C141 C 0.93708 0.58329 0.95184 0.0
O142 O 0.91227 0.56316 0.97488 0.0
O143 O 0.92172 0.48194 0.96523 0.0
C144 C 0.0759 0.4176 0.06673 0.0
O145 O 0.09877 0.43817 0.04189 0.0
O146 O 0.04694 0.43174 0.07538 0.0
O147 O 0.03931 0.47988 0.99549 0.0
O148 O 0.00779 0.48877 0.94612 0.0
O149 O 0.0925 0.51553 0.06001 0.0
C150 C 0.97959 0.52771 0.06037 0.0
C151 C 0.03499 0.47633 0.96096 0.0
H152 H 0.15563 0.17647 0.30971 0.0
H153 H 0.20071 0.07526 0.26564 0.0
H154 H 0.16715 0.02985 0.31517 0.0
H155 H 0.1527 0.14108 0.40772 0.0
H156 H 0.11043 0.15962 0.4177 0.0
H157 H 0.1406 0.18446 0.38073 0.0
H158 H 0.08989 0.17568 0.3343 0.0
H159 H 0.05971 0.15022 0.37095 0.0
H160 H 0.06791 0.12618 0.32881 0.0
H161 H 0.12827 0.9953 0.36873 0.0
H162 H 0.08669 0.97414 0.42372 0.0
H163 H 0.06257 0.09665 0.42865 0.0
C164 C 0.15856 0.14478 0.31047 0.0
C165 C 0.18101 0.12952 0.28385 0.0
C166 C 0.18434 0.08787 0.28617 0.0
C167 C 0.16507 0.06173 0.31395 0.0
C168 C 0.14241 0.07765 0.33898 0.0
C169 C 0.1391 0.11819 0.33759 0.0
C170 C 0.112 0.12744 0.36705 0.0
C171 C 0.13002 0.15475 0.39495 0.0
C172 C 0.08051 0.14596 0.34919 0.0
C173 C 0.10038 0.08564 0.38503 0.0
C174 C 0.11853 0.05741 0.36866 0.0
C175 C 0.11365 0.01701 0.38162 0.0
C176 C 0.09004 0.00525 0.41265 0.0
C177 C 0.07125 0.03371 0.42966 0.0
C178 C 0.07608 0.07425 0.4154 0.0
H179 H 0.4046 0.83231 0.76233 0.0
H180 H 0.34551 0.935 0.74129 0.0
H181 H 0.37248 0.96567 0.79504 0.0
H182 H 0.4009 0.82627 0.85989 0.0
H183 H 0.44641 0.81509 0.86459 0.0
H184 H 0.42257 0.80107 0.82432 0.0
H185 H 0.47313 0.84075 0.78069 0.0
H186 H 0.49733 0.85463 0.82087 0.0
H187 H 0.48643 0.8929 0.78679 0.0
H188 H 0.4052 0.9847 0.85236 0.0
H189 H 0.44286 0.99131 0.90695 0.0
H190 H 0.4823 0.87781 0.88787 0.0
C191 C 0.39763 0.86155 0.7684 0.0
C192 C 0.37238 0.88077 0.74752 0.0
C193 C 0.36392 0.91888 0.75723 0.0
C194 C 0.37941 0.93685 0.78757 0.0
C195 C 0.40386 0.91681 0.80762 0.0
C196 C 0.4133 0.88027 0.79809 0.0
C197 C 0.44083 0.86531 0.82363 0.0
C198 C 0.42681 0.82453 0.84434 0.0
C199 C 0.47654 0.86328 0.80169 0.0
C200 C 0.44429 0.89836 0.84996 0.0
C201 C 0.42307 0.92804 0.84007 0.0
C202 C 0.42203 0.9617 0.86027 0.0
C203 C 0.44344 0.96517 0.89125 0.0
C204 C 0.46535 0.935 0.9018 0.0
C205 C 0.46561 0.90123 0.88078 0.0
H206 H 0.5893 0.35178 0.73823 0.0
H207 H 0.69411 0.42276 0.72942 0.0
H208 H 0.67542 0.46261 0.67551 0.0
H209 H 0.58547 0.34747 0.63686 0.0
H210 H 0.5375 0.34792 0.63784 0.0
H211 H 0.55829 0.32603 0.6775 0.0
H212 H 0.52849 0.37284 0.72013 0.0
H213 H 0.50795 0.39521 0.68058 0.0
H214 H 0.53583 0.42637 0.70904 0.0
H215 H 0.64388 0.49864 0.62517 0.0
H216 H 0.60504 0.52076 0.5754 0.0
H217 H 0.52525 0.42004 0.60985 0.0
C218 C 0.60882 0.37513 0.72494 0.0
C219 C 0.64299 0.38445 0.73967 0.0
C220 C 0.66713 0.41573 0.72058 0.0
C221 C 0.65697 0.43846 0.68934 0.0
C222 C 0.623 0.42889 0.6763 0.0
C223 C 0.59968 0.39724 0.69278 0.0
C224 C 0.56551 0.39175 0.67171 0.0
C225 C 0.56147 0.35087 0.65498 0.0
C226 C 0.5325 0.39686 0.69687 0.0
C227 C 0.57299 0.42595 0.64143 0.0
C228 C 0.60613 0.44736 0.64496 0.0
C229 C 0.61815 0.48172 0.6217 0.0
C230 C 0.59592 0.4942 0.59373 0.0
C231 C 0.56252 0.47185 0.58881 0.0
C232 C 0.55097 0.43727 0.61288 0.0
H233 H 0.86461 0.58063 0.23824 0.0
H234 H 0.87645 0.70338 0.18944 0.0
H235 H 0.90429 0.68209 0.13179 0.0
H236 H 0.94784 0.55756 0.20626 0.0
H237 H 0.9332 0.5066 0.19684 0.0
H238 H 0.90927 0.53016 0.23178 0.0
H239 H 0.85021 0.51513 0.19799 0.0
H240 H 0.874 0.49134 0.16292 0.0
H241 H 0.84849 0.53188 0.14935 0.0
H242 H 0.93328 0.64769 0.08022 0.0
H243 H 0.96631 0.60435 0.04178 0.0
H244 H 0.94094 0.5054 0.12641 0.0
C245 C 0.87222 0.60272 0.21497 0.0
C246 C 0.86791 0.64355 0.21799 0.0
C247 C 0.87921 0.67191 0.18746 0.0
C248 C 0.89495 0.66005 0.1546 0.0
C249 C 0.89947 0.61969 0.15268 0.0
C250 C 0.88857 0.59145 0.18212 0.0
C251 C 0.89942 0.5507 0.17419 0.0
C252 C 0.9239 0.53538 0.20404 0.0
C253 C 0.86605 0.52047 0.17093 0.0
C254 C 0.91955 0.56081 0.1366 0.0
C255 C 0.91817 0.60044 0.12405 0.0
C256 C 0.93446 0.61661 0.08978 0.0
C257 C 0.95306 0.59182 0.06809 0.0
C258 C 0.95611 0.55171 0.08123 0.0
C259 C 0.93896 0.53603 0.11581 0.0
H260 H 0.26899 0.16415 0.13073 0.0
H261 H 0.30574 0.16263 0.24372 0.0
H262 H 0.36127 0.13714 0.22247 0.0
H263 H 0.29823 0.07813 0.10565 0.0
H264 H 0.31428 0.0953 0.05858 0.0
H265 H 0.27945 0.11889 0.08093 0.0
H266 H 0.31734 0.18821 0.06934 0.0
H267 H 0.35219 0.16503 0.04621 0.0
H268 H 0.36247 0.19463 0.08491 0.0
H269 H 0.4067 0.10114 0.19229 0.0
H270 H 0.44437 0.06442 0.15263 0.0
H271 H 0.38225 0.09399 0.05735 0.0
C272 C 0.28926 0.15988 0.15073 0.0
C273 C 0.28265 0.16476 0.18905 0.0
C274 C 0.30976 0.15823 0.21439 0.0
C275 C 0.34156 0.14405 0.20256 0.0
C276 C 0.34648 0.13773 0.16503 0.0
C277 C 0.32165 0.14645 0.13921 0.0
C278 C 0.33315 0.13526 0.10079 0.0
C279 C 0.30457 0.10509 0.08563 0.0
C280 C 0.34181 0.17303 0.0737 0.0
C281 C 0.36691 0.1163 0.10975 0.0
C282 C 0.37419 0.11851 0.14695 0.0
C283 C 0.40192 0.10012 0.16289 0.0
C284 C 0.42295 0.07902 0.14021 0.0
C285 C 0.41633 0.07665 0.10193 0.0
C286 C 0.38823 0.09599 0.08639 0.0
H287 H 0.27627 0.91957 0.66041 0.0
H288 H 0.24541 0.79115 0.67528 0.0
H289 H 0.18479 0.80079 0.65434 0.0
H290 H 0.18972 0.95124 0.68864 0.0
H291 H 0.19349 0.99265 0.65329 0.0
H292 H 0.23332 0.97586 0.67244 0.0
H293 H 0.25802 0.96625 0.6058 0.0
H294 H 0.21822 0.98278 0.58649 0.0
H295 H 0.23145 0.93471 0.57653 0.0
H296 H 0.12886 0.82403 0.62894 0.0
H297 H 0.08128 0.8592 0.60026 0.0
H298 H 0.14915 0.97252 0.60048 0.0
C299 C 0.25639 0.89368 0.66001 0.0
C300 C 0.26506 0.85468 0.66987 0.0
C301 C 0.23894 0.82125 0.66804 0.0
C302 C 0.20456 0.82646 0.65622 0.0
C303 C 0.19692 0.86526 0.64609 0.0
C304 C 0.22207 0.89832 0.6478 0.0
C305 C 0.20772 0.93647 0.63309 0.0
C306 C 0.20595 0.96578 0.6637 0.0
C307 C 0.23019 0.95619 0.59842 0.0
C308 C 0.17057 0.91968 0.62298 0.0
C309 C 0.16485 0.87858 0.63077 0.0
C310 C 0.13291 0.85626 0.62291 0.0
C311 C 0.10606 0.8765 0.60659 0.0
C312 C 0.11139 0.9186 0.59822 0.0
C313 C 0.14409 0.94034 0.60673 0.0
H314 H 0.75853 0.39004 0.80435 0.0
H315 H 0.68795 0.3702 0.90405 0.0
H316 H 0.73779 0.39641 0.94172 0.0
H317 H 0.83604 0.35892 0.84893 0.0
H318 H 0.86747 0.39517 0.82158 0.0
H319 H 0.826 0.3763 0.80229 0.0
H320 H 0.81009 0.44892 0.7893 0.0
H321 H 0.85168 0.46798 0.8082 0.0
H322 H 0.80979 0.48131 0.82698 0.0
H323 H 0.79543 0.42424 0.96833 0.0
H324 H 0.85652 0.45282 0.98202 0.0
H325 H 0.88978 0.45269 0.86494 0.0
C326 C 0.75356 0.39184 0.83403 0.0
C327 C 0.71948 0.37865 0.85141 0.0
C328 C 0.71396 0.38043 0.89038 0.0
C329 C 0.74205 0.39516 0.91191 0.0
C330 C 0.77552 0.40749 0.89403 0.0
C331 C 0.78143 0.40591 0.85599 0.0
C332 C 0.82018 0.41983 0.84384 0.0
C333 C 0.83849 0.38551 0.82824 0.0
C334 C 0.82309 0.45671 0.81541 0.0
C335 C 0.83493 0.43045 0.88082 0.0
C336 C 0.80884 0.42283 0.90947 0.0
C337 C 0.81611 0.4303 0.94614 0.0
C338 C 0.85091 0.44645 0.95364 0.0
C339 C 0.87794 0.45503 0.92458 0.0
C340 C 0.86975 0.44653 0.88779 0.0
H341 H 0.77005 0.58141 0.30848 0.0
H342 H 0.76509 0.70186 0.34258 0.0
H343 H 0.70895 0.67875 0.37913 0.0
H344 H 0.67276 0.56147 0.29753 0.0
H345 H 0.67119 0.50922 0.31357 0.0
H346 H 0.71138 0.53521 0.29002 0.0
H347 H 0.74794 0.51446 0.3464 0.0
H348 H 0.70782 0.48883 0.3703 0.0
H349 H 0.73472 0.52722 0.39236 0.0
H350 H 0.65527 0.64133 0.41653 0.0
H351 H 0.60386 0.59413 0.44429 0.0
H352 H 0.64015 0.50024 0.38114 0.0
C353 C 0.75698 0.60315 0.3231 0.0
C354 C 0.77299 0.64332 0.32329 0.0
C355 C 0.7545 0.67056 0.34294 0.0
C356 C 0.72226 0.65783 0.36366 0.0
C357 C 0.70795 0.61787 0.3639 0.0
C358 C 0.72423 0.59114 0.34343 0.0
C359 C 0.70256 0.55006 0.34769 0.0
C360 C 0.68865 0.53831 0.30996 0.0
C361 C 0.72459 0.51828 0.36523 0.0
C362 C 0.67207 0.5578 0.37422 0.0
C363 C 0.67583 0.59701 0.38357 0.0
C364 C 0.65176 0.61067 0.409 0.0
C365 C 0.62278 0.58366 0.42481 0.0
C366 C 0.61782 0.5437 0.41465 0.0
C367 C 0.64296 0.53079 0.38909 0.0
H368 H 0.21059 0.27101 0.14819 0.0
H369 H 0.11706 0.19558 0.1998 0.0
H370 H 0.07805 0.24203 0.17256 0.0
H371 H 0.1823 0.36522 0.15246 0.0
H372 H 0.19826 0.38447 0.10588 0.0
H373 H 0.21984 0.34578 0.13016 0.0
H374 H 0.20895 0.30063 0.07553 0.0
H375 H 0.18749 0.33936 0.05093 0.0
H376 H 0.16409 0.28961 0.06018 0.0
H377 H 0.04905 0.29969 0.14469 0.0
H378 H 0.03169 0.36029 0.11 0.0
H379 H 0.14227 0.39224 0.06871 0.0
C380 C 0.18197 0.26359 0.15343 0.0
C381 C 0.16753 0.23017 0.17791 0.0
C382 C 0.12956 0.22203 0.18326 0.0
C383 C 0.10681 0.24795 0.16733 0.0
C384 C 0.12205 0.28103 0.14445 0.0
C385 C 0.1586 0.28825 0.13642 0.0
C386 C 0.16768 0.32483 0.10906 0.0
C387 C 0.19353 0.35696 0.1254 0.0
C388 C 0.18296 0.3129 0.07171 0.0
C389 C 0.13075 0.33817 0.1049 0.0
C390 C 0.10479 0.31243 0.1255 0.0
C391 C 0.06897 0.31969 0.12774 0.0
C392 C 0.05938 0.35417 0.1081 0.0
C393 C 0.08551 0.38058 0.08634 0.0
C394 C 0.12156 0.37222 0.08462 0.0
H395 H 0.5815 0.27559 0.85006 0.0
H396 H 0.68367 0.23708 0.81749 0.0
H397 H 0.66435 0.16958 0.84852 0.0
H398 H 0.57462 0.2272 0.93931 0.0
H399 H 0.52686 0.21271 0.94113 0.0
H400 H 0.5461 0.25621 0.91185 0.0
H401 H 0.5174 0.22679 0.85415 0.0
H402 H 0.49753 0.1834 0.88336 0.0
H403 H 0.52545 0.17724 0.8427 0.0
H404 H 0.63806 0.11062 0.88954 0.0
H405 H 0.60413 0.06014 0.93428 0.0
H406 H 0.51722 0.13473 0.94018 0.0
C407 C 0.59908 0.25233 0.84837 0.0
C408 C 0.63371 0.26087 0.83084 0.0
C409 C 0.65681 0.23053 0.83025 0.0
C410 C 0.6461 0.1923 0.84789 0.0
C411 C 0.61221 0.185 0.86596 0.0
C412 C 0.58878 0.21388 0.86601 0.0
C413 C 0.55497 0.19888 0.88993 0.0
C414 C 0.55039 0.22533 0.92248 0.0
C415 C 0.52187 0.19642 0.86611 0.0
C416 C 0.56344 0.15744 0.90384 0.0
C417 C 0.59665 0.15025 0.88961 0.0
C418 C 0.6117 0.11549 0.90027 0.0
C419 C 0.59219 0.08703 0.92587 0.0
C420 C 0.55774 0.09314 0.94038 0.0
C421 C 0.54319 0.12888 0.92908 0.0
H422 H 0.86106 0.78117 0.29843 0.0
H423 H 0.91942 0.69063 0.35175 0.0
H424 H 0.95168 0.74217 0.38787 0.0
H425 H 0.93642 0.86535 0.2954 0.0
H426 H 0.90586 0.90158 0.30418 0.0
H427 H 0.89166 0.85885 0.27884 0.0
H428 H 0.83757 0.83948 0.32631 0.0
H429 H 0.85166 0.8819 0.35181 0.0
H430 H 0.84541 0.83218 0.37537 0.0
H431 H 0.97414 0.80315 0.42141 0.0
H432 H 0.98213 0.86704 0.45196 0.0
H433 H 0.90652 0.91628 0.37872 0.0
C434 C 0.88139 0.77264 0.31699 0.0
C435 C 0.88846 0.73239 0.32205 0.0
C436 C 0.91438 0.72165 0.34717 0.0
C437 C 0.93273 0.75068 0.36771 0.0
C438 C 0.92489 0.79024 0.36251 0.0
C439 C 0.89994 0.80125 0.33758 0.0
C440 C 0.89441 0.845 0.3391 0.0
C441 C 0.90789 0.86911 0.30219 0.0
C442 C 0.85492 0.84988 0.34875 0.0
C443 C 0.91835 0.85624 0.37042 0.0
C444 C 0.93667 0.82472 0.38273 0.0
C445 C 0.96016 0.82809 0.41174 0.0
C446 C 0.96462 0.8644 0.42887 0.0
C447 C 0.94493 0.89626 0.41755 0.0
C448 C 0.92183 0.8922 0.38779 0.0
H449 H 0.38704 0.74961 0.68569 0.0
H450 H 0.36641 0.82817 0.58968 0.0
H451 H 0.39098 0.78221 0.54763 0.0
H452 H 0.47066 0.71655 0.64768 0.0
H453 H 0.45958 0.66568 0.66771 0.0
H454 H 0.44338 0.70647 0.69053 0.0
H455 H 0.37831 0.67197 0.68901 0.0
H456 H 0.39426 0.63135 0.6658 0.0
H457 H 0.36082 0.65915 0.645 0.0
H458 H 0.41095 0.72542 0.51611 0.0
H459 H 0.43051 0.66236 0.49621 0.0
H460 H 0.44095 0.62057 0.61192 0.0
C461 C 0.38865 0.75746 0.65585 0.0
C462 C 0.37517 0.79241 0.6407 0.0
C463 C 0.37675 0.80148 0.60158 0.0
C464 C 0.39061 0.77562 0.57758 0.0
C465 C 0.4028 0.74084 0.59319 0.0
C466 C 0.40231 0.73174 0.63137 0.0
C467 C 0.41525 0.69115 0.64052 0.0
C468 C 0.44925 0.69523 0.66293 0.0
C469 C 0.38538 0.66168 0.66131 0.0
C470 C 0.42322 0.67913 0.6015 0.0
C471 C 0.41541 0.70813 0.57471 0.0
C472 C 0.41784 0.70279 0.53672 0.0
C473 C 0.4288 0.66691 0.52571 0.0
C474 C 0.43775 0.63723 0.55255 0.0
C475 C 0.43509 0.64342 0.59091 0.0
H476 H 0.8231 0.83018 0.6835 0.0
H477 H 0.84853 0.90433 0.77433 0.0
H478 H 0.88972 0.95103 0.73178 0.0
H479 H 0.90874 0.83873 0.64106 0.0
H480 H 0.89539 0.84205 0.59345 0.0
H481 H 0.86508 0.81621 0.62976 0.0
H482 H 0.81635 0.86185 0.61165 0.0
H483 H 0.84633 0.88752 0.57485 0.0
H484 H 0.82691 0.91559 0.60964 0.0
H485 H 0.93372 0.98328 0.68318 0.0
H486 H 0.97309 0.00627 0.62727 0.0
H487 H 0.91634 0.91532 0.56543 0.0
C488 C 0.83661 0.85697 0.69384 0.0
C489 C 0.83266 0.8644 0.73172 0.0
C490 C 0.85111 0.89894 0.74506 0.0
C491 C 0.87456 0.92538 0.72124 0.0
C492 C 0.87866 0.91697 0.68414 0.0
C493 C 0.8597 0.8842 0.67015 0.0
C494 C 0.8701 0.8818 0.62929 0.0
C495 C 0.88576 0.84236 0.62305 0.0
C496 C 0.83801 0.88701 0.60492 0.0
C497 C 0.89855 0.91761 0.62299 0.0
C498 C 0.90317 0.93717 0.65517 0.0
C499 C 0.92984 0.96897 0.65748 0.0
C500 C 0.95216 0.9816 0.62578 0.0
C501 C 0.94719 0.96284 0.59222 0.0
C502 C 0.91999 0.93058 0.59069 0.0
H503 H 0.62345 0.17723 0.23559 0.0
H504 H 0.67692 0.07108 0.26174 0.0
H505 H 0.65004 0.04049 0.20776 0.0
H506 H 0.54029 0.11897 0.21442 0.0
H507 H 0.52989 0.15679 0.17965 0.0
H508 H 0.55531 0.17108 0.21888 0.0
H509 H 0.60604 0.20775 0.17359 0.0
H510 H 0.58096 0.19338 0.13423 0.0
H511 H 0.62604 0.18058 0.13842 0.0
H512 H 0.61568 0.02098 0.15086 0.0
H513 H 0.5762 0.01414 0.09761 0.0
H514 H 0.54252 0.1311 0.11364 0.0
C515 C 0.62926 0.14722 0.23085 0.0
C516 C 0.65254 0.1268 0.25349 0.0
C517 C 0.65985 0.088 0.24472 0.0
C518 C 0.64438 0.07009 0.21425 0.0
C519 C 0.62108 0.09095 0.19321 0.0
C520 C 0.61323 0.12846 0.20153 0.0
C521 C 0.58581 0.14388 0.1762 0.0
C522 C 0.55076 0.14791 0.19862 0.0
C523 C 0.60064 0.18375 0.15431 0.0
C524 C 0.58071 0.11003 0.151 0.0
C525 C 0.60089 0.07949 0.1614 0.0
C526 C 0.59979 0.04473 0.1425 0.0
C527 C 0.57734 0.04112 0.11232 0.0
C528 C 0.55659 0.07224 0.10129 0.0
C529 C 0.55846 0.10704 0.12098 0.0
H530 H 0.39156 0.67325 0.30403 0.0
H531 H 0.38672 0.57672 0.2305 0.0
H532 H 0.41469 0.53459 0.27749 0.0
H533 H 0.4771 0.65637 0.34383 0.0
H534 H 0.46313 0.667 0.39024 0.0
H535 H 0.44407 0.69052 0.35024 0.0
H536 H 0.38034 0.66281 0.37716 0.0
H537 H 0.39926 0.639 0.41709 0.0
H538 H 0.36965 0.60964 0.38879 0.0
H539 H 0.44077 0.50202 0.33216 0.0
H540 H 0.46573 0.48085 0.39168 0.0
H541 H 0.45419 0.59764 0.43154 0.0
C542 C 0.39697 0.64346 0.29782 0.0
C543 C 0.38727 0.62813 0.26368 0.0
C544 C 0.39409 0.58884 0.25654 0.0
C545 C 0.4099 0.56474 0.28302 0.0
C546 C 0.41865 0.58028 0.31665 0.0
C547 C 0.41258 0.61869 0.32427 0.0
C548 C 0.42374 0.62722 0.36329 0.0
C549 C 0.45381 0.66236 0.3618 0.0
C550 C 0.39131 0.63513 0.38804 0.0
C551 C 0.43726 0.58776 0.37605 0.0
C552 C 0.43383 0.56116 0.34867 0.0
C553 C 0.44375 0.52258 0.35383 0.0
C554 C 0.45782 0.5108 0.38784 0.0
C555 C 0.46202 0.53751 0.41636 0.0
C556 C 0.45149 0.57654 0.41027 0.0
H557 H 0.09669 0.36516 0.78503 0.0
H558 H 0.2044 0.37765 0.82531 0.0
H559 H 0.182 0.40639 0.88164 0.0
H560 H 0.07082 0.45441 0.81284 0.0
H561 H 0.02532 0.43491 0.82751 0.0
H562 H 0.04896 0.41159 0.79217 0.0
H563 H 0.03726 0.34313 0.83131 0.0
H564 H 0.01323 0.36617 0.86671 0.0
H565 H 0.05049 0.33926 0.87895 0.0
H566 H 0.14846 0.4383 0.9318 0.0
H567 H 0.1063 0.47043 0.97135 0.0
H568 H 0.0207 0.43683 0.89851 0.0
C569 C 0.11545 0.37302 0.80609 0.0
C570 C 0.1524 0.36928 0.80051 0.0
C571 C 0.17607 0.38069 0.82859 0.0
C572 C 0.16356 0.39681 0.86087 0.0
C573 C 0.12716 0.40102 0.86502 0.0
C574 C 0.10338 0.38908 0.83857 0.0
C575 C 0.06585 0.39836 0.849 0.0
C576 C 0.05194 0.4265 0.81857 0.0
C577 C 0.04019 0.35941 0.85697 0.0
C578 C 0.07258 0.41906 0.88447 0.0
C579 C 0.10795 0.41958 0.8937 0.0
C580 C 0.1206 0.43766 0.92504 0.0
C581 C 0.09647 0.45572 0.94744 0.0
C582 C 0.06022 0.456 0.93817 0.0
C583 C 0.04829 0.43725 0.90628 0.0
H584 H 0.74144 0.89289 0.80661 0.0
H585 H 0.71755 0.77036 0.85648 0.0
H586 H 0.66896 0.79154 0.89572 0.0
H587 H 0.72579 0.94397 0.88352 0.0
H588 H 0.70357 0.98255 0.85969 0.0
H589 H 0.73586 0.95785 0.83447 0.0
H590 H 0.68877 0.93735 0.78669 0.0
H591 H 0.65644 0.96269 0.81133 0.0
H592 H 0.64606 0.91061 0.80309 0.0
H593 H 0.62679 0.82768 0.93367 0.0
H594 H 0.58872 0.87409 0.96153 0.0
H595 H 0.63631 0.97055 0.88166 0.0
C596 C 0.7255 0.86986 0.8247 0.0
C597 C 0.73397 0.82982 0.82842 0.0
C598 C 0.71249 0.80144 0.85357 0.0
C599 C 0.68455 0.81308 0.87583 0.0
C600 C 0.67768 0.85294 0.87191 0.0
C601 C 0.69693 0.88061 0.84626 0.0
C602 C 0.68394 0.92151 0.84707 0.0
C603 C 0.71409 0.95332 0.85678 0.0
C604 C 0.66784 0.93375 0.80984 0.0
C605 C 0.65525 0.91288 0.87824 0.0
C606 C 0.6521 0.87319 0.89231 0.0
C607 C 0.62858 0.85866 0.92248 0.0
C608 C 0.6073 0.88528 0.93828 0.0
C609 C 0.60951 0.9258 0.92359 0.0
C610 C 0.63383 0.93964 0.89322 0.0
H611 H 0.74409 0.08334 0.33154 0.0
H612 H 0.76806 0.20576 0.36194 0.0
H613 H 0.82298 0.18764 0.3904 0.0
H614 H 0.77769 0.03298 0.41044 0.0
H615 H 0.79727 0.99651 0.38436 0.0
H616 H 0.75878 0.01843 0.36755 0.0
H617 H 0.79346 0.0419 0.30449 0.0
H618 H 0.83196 0.01973 0.32096 0.0
H619 H 0.83632 0.07202 0.30429 0.0
H620 H 0.87358 0.15504 0.41922 0.0
H621 H 0.92044 0.11251 0.43853 0.0
H622 H 0.86783 0.01462 0.38198 0.0
C623 C 0.76102 0.10669 0.34356 0.0
C624 C 0.75097 0.14587 0.34496 0.0
C625 C 0.77413 0.17513 0.36148 0.0
C626 C 0.80571 0.16526 0.37751 0.0
C627 C 0.81436 0.12627 0.37607 0.0
C628 C 0.7931 0.09768 0.35884 0.0
C629 C 0.80924 0.05839 0.35975 0.0
C630 C 0.78425 0.02459 0.38185 0.0
C631 C 0.81829 0.04738 0.32001 0.0
C632 C 0.84287 0.06935 0.3803 0.0
C633 C 0.84498 0.10843 0.3901 0.0
C634 C 0.87256 0.12462 0.41116 0.0
C635 C 0.89891 0.10031 0.42209 0.0
C636 C 0.89785 0.06075 0.41113 0.0
C637 C 0.86952 0.04513 0.38999 0.0
H638 H 0.25812 0.68054 0.16646 0.0
H639 H 0.30522 0.56951 0.18844 0.0
H640 H 0.25557 0.53291 0.15794 0.0
H641 H 0.16514 0.6383 0.18068 0.0
H642 H 0.15006 0.66993 0.1432 0.0
H643 H 0.18882 0.68737 0.16784 0.0
H644 H 0.22636 0.70021 0.10515 0.0
H645 H 0.18781 0.68235 0.08035 0.0
H646 H 0.22887 0.65977 0.0754 0.0
H647 H 0.20362 0.50891 0.12225 0.0
H648 H 0.14788 0.49687 0.08939 0.0
H649 H 0.13276 0.62291 0.09083 0.0
C650 C 0.25781 0.64848 0.16508 0.0
C651 C 0.28542 0.62784 0.18019 0.0
C652 C 0.28404 0.58587 0.17784 0.0
C653 C 0.25617 0.56486 0.16016 0.0
C654 C 0.22987 0.58622 0.14493 0.0
C655 C 0.23012 0.62697 0.14751 0.0
C656 C 0.19843 0.64252 0.12867 0.0
C657 C 0.17417 0.66058 0.15679 0.0
C658 C 0.21114 0.67302 0.09542 0.0
C659 C 0.18012 0.60396 0.11557 0.0
C660 C 0.19916 0.57208 0.12477 0.0
C661 C 0.18831 0.53354 0.11507 0.0
C662 C 0.15664 0.52711 0.09619 0.0
C663 C 0.13582 0.55895 0.08762 0.0
C664 C 0.14801 0.59798 0.09713 0.0
H665 H 0.26536 0.34228 0.6656 0.0
H666 H 0.2312 0.44755 0.71343 0.0
H667 H 0.28459 0.48835 0.68436 0.0
H668 H 0.35866 0.36427 0.67293 0.0
H669 H 0.37128 0.34813 0.62807 0.0
H670 H 0.32994 0.3263 0.65225 0.0
H671 H 0.2946 0.34626 0.59486 0.0
H672 H 0.33585 0.36807 0.57034 0.0
H673 H 0.29928 0.39783 0.57594 0.0
H674 H 0.34253 0.5174 0.65448 0.0
H675 H 0.40163 0.53456 0.62138 0.0
H676 H 0.39785 0.41353 0.58682 0.0
C677 C 0.26876 0.37399 0.66963 0.0
C678 C 0.2441 0.3912 0.69285 0.0
C679 C 0.25002 0.43295 0.69718 0.0
C680 C 0.28015 0.45668 0.6803 0.0
C681 C 0.30397 0.43872 0.65823 0.0
C682 C 0.29851 0.39854 0.65225 0.0
C683 C 0.32848 0.38728 0.62668 0.0
C684 C 0.34826 0.35456 0.64617 0.0
C685 C 0.31367 0.37408 0.58976 0.0
C686 C 0.35224 0.42719 0.62057 0.0
C687 C 0.33722 0.45631 0.63903 0.0
C688 C 0.35438 0.49509 0.63946 0.0
C689 C 0.38795 0.50452 0.6207 0.0
C690 C 0.404 0.47551 0.60144 0.0
C691 C 0.3858 0.43637 0.60094 0.0
H692 H 0.81929 0.70264 0.8152 0.0
H693 H 0.87455 0.81215 0.8508 0.0
H694 H 0.91479 0.77264 0.88748 0.0
H695 H 0.81913 0.64345 0.89931 0.0
H696 H 0.82756 0.59808 0.87857 0.0
H697 H 0.80542 0.6352 0.85277 0.0
H698 H 0.85381 0.63866 0.79869 0.0
H699 H 0.87623 0.60163 0.82456 0.0
H700 H 0.9005 0.64944 0.80822 0.0
H701 H 0.94649 0.72113 0.92282 0.0
H702 H 0.96567 0.66055 0.95655 0.0
H703 H 0.88919 0.5851 0.89833 0.0
C704 C 0.84011 0.71803 0.83057 0.0
C705 C 0.84417 0.76007 0.83057 0.0
C706 C 0.87144 0.77976 0.85075 0.0
C707 C 0.89438 0.75766 0.87139 0.0
C708 C 0.88979 0.71606 0.87102 0.0
C709 C 0.86343 0.69641 0.85104 0.0
C710 C 0.86327 0.65141 0.85654 0.0
C711 C 0.82667 0.63085 0.87279 0.0
C712 C 0.8741 0.63428 0.81982 0.0
C713 C 0.89215 0.64882 0.88438 0.0
C714 C 0.90783 0.68641 0.89164 0.0
C715 C 0.93468 0.69152 0.91714 0.0
C716 C 0.94539 0.6572 0.93609 0.0
C717 C 0.92871 0.61881 0.9297 0.0
C718 C 0.90217 0.61448 0.90338 0.0
H719 H 0.40245 0.77622 0.19932 0.0
H720 H 0.37736 0.70046 0.10932 0.0
H721 H 0.40255 0.75522 0.06322 0.0
H722 H 0.38113 0.8669 0.15318 0.0
H723 H 0.41746 0.89878 0.17058 0.0
H724 H 0.39919 0.85313 0.1974 0.0
H725 H 0.4623 0.82902 0.19858 0.0
H726 H 0.48085 0.87486 0.17218 0.0
H727 H 0.48769 0.82711 0.15523 0.0
H728 H 0.42514 0.81889 0.02657 0.0
H729 H 0.45095 0.88696 1.00135 0.0
H730 H 0.4651 0.92161 0.11387 0.0
C731 C 0.40291 0.77111 0.16994 0.0
C732 C 0.38754 0.73435 0.15781 0.0
C733 C 0.38844 0.72868 0.11914 0.0
C734 C 0.40275 0.75953 0.09273 0.0
C735 C 0.41651 0.79585 0.10538 0.0
C736 C 0.41734 0.80175 0.143 0.0
C737 C 0.43349 0.84413 0.14867 0.0
C738 C 0.40618 0.86707 0.16864 0.0
C739 C 0.46815 0.84374 0.16992 0.0
C740 C 0.44121 0.86097 0.10841 0.0
C741 C 0.43086 0.83259 0.08397 0.0
C742 C 0.43376 0.84128 0.04536 0.0
C743 C 0.44822 0.87992 0.03129 0.0
C744 C 0.45984 0.909 0.05578 0.0
C745 C 0.45632 0.89956 0.09476 0.0
H746 H 0.18619 0.24271 0.69885 0.0
H747 H 0.09548 0.31022 0.6842 0.0
H748 H 0.06637 0.2571 0.64755 0.0
H749 H 0.19094 0.20661 0.61053 0.0
H750 H 0.20135 0.15733 0.62644 0.0
H751 H 0.21379 0.1993 0.65322 0.0
H752 H 0.17876 0.16208 0.71169 0.0
H753 H 0.1666 0.11972 0.68518 0.0
H754 H 0.13221 0.14315 0.70871 0.0
H755 H 0.04937 0.19797 0.60902 0.0
H756 H 0.0439 0.13597 0.57575 0.0
H757 H 0.14563 0.10732 0.61737 0.0
C758 C 0.16 0.24593 0.68823 0.0
C759 C 0.14293 0.2803 0.6941 0.0
C760 C 0.10871 0.2838 0.68002 0.0
C761 C 0.09212 0.25391 0.65915 0.0
C762 C 0.10995 0.22054 0.65326 0.0
C763 C 0.14287 0.21611 0.66798 0.0
C764 C 0.15643 0.17749 0.65781 0.0
C765 C 0.19277 0.1857 0.63567 0.0
C766 C 0.15862 0.14892 0.69293 0.0
C767 C 0.12683 0.16168 0.63369 0.0
C768 C 0.10005 0.18663 0.63164 0.0
C769 C 0.07009 0.1781 0.61068 0.0
C770 C 0.06728 0.1429 0.59177 0.0
C771 C 0.09437 0.11681 0.5938 0.0
C772 C 0.12452 0.12666 0.61498 0.0
H773 H 0.65468 0.21247 0.4066 0.0
H774 H 0.6357 0.25181 0.29199 0.0
H775 H 0.60675 0.30842 0.31384 0.0
H776 H 0.57202 0.23849 0.44756 0.0
H777 H 0.59206 0.25557 0.48905 0.0
H778 H 0.61084 0.21735 0.46467 0.0
H779 H 0.67274 0.26055 0.45862 0.0
H780 H 0.65419 0.29887 0.48304 0.0
H781 H 0.67621 0.31124 0.43747 0.0
H782 H 0.57926 0.3596 0.34726 0.0
H783 H 0.55689 0.40522 0.39068 0.0
H784 H 0.59589 0.33548 0.48392 0.0
C785 C 0.64455 0.2331 0.38615 0.0
C786 C 0.64703 0.22745 0.34764 0.0
C787 C 0.63336 0.25503 0.3217 0.0
C788 C 0.61708 0.28742 0.33378 0.0
C789 C 0.61483 0.29196 0.37187 0.0
C790 C 0.62828 0.2658 0.39772 0.0
C791 C 0.62256 0.27801 0.43702 0.0
C792 C 0.5979 0.24541 0.46098 0.0
C793 C 0.65857 0.28776 0.45509 0.0
C794 C 0.60411 0.31531 0.42906 0.0
C795 C 0.59965 0.32245 0.39128 0.0
C796 C 0.58263 0.35446 0.37692 0.0
C797 C 0.56989 0.38008 0.40185 0.0
C798 C 0.57466 0.37383 0.44065 0.0
C799 C 0.59203 0.34101 0.45438 0.0
loop_
_geom_bond_atom_site_label_1
_geom_bond_atom_site_label_2
_geom_bond_distance
_geom_bond_site_symmetry_2
_ccdc_geom_bond_type
H0 C3 0.931 . S
H1 C6 0.928 . S
H2 C8 0.930 . S
C3 H0 0.931 . S
C3 C4 1.413 . S
C3 C5 1.360 . S
C4 C3 1.413 . S
C4 C8 1.429 . S
C5 C3 1.360 . S
C5 C6 1.372 . S
C6 H1 0.928 . S
C6 C5 1.372 . S
C6 C7 1.404 . S
C7 C6 1.404 . S
C7 C8 1.391 . S
C8 H2 0.930 . S
C8 C4 1.429 . S
C8 C7 1.391 . S
H9 C12 0.931 . S
H10 C15 0.928 . S
H11 C17 0.930 . S
C12 H9 0.931 . S
C12 C13 1.413 . S
C12 C14 1.360 . S
C13 C12 1.413 . S
C13 C17 1.429 . S
C14 C12 1.360 . S
C14 C15 1.372 . S
C15 H10 0.928 . S
C15 C14 1.372 . S
C15 C16 1.404 . S
C16 C15 1.404 . S
C16 C17 1.391 . S
C17 H11 0.930 . S
C17 C13 1.429 . S
C17 C16 1.391 . S
H18 C21 0.931 . S
H19 C24 0.928 . S
H20 C26 0.930 . S
C21 H18 0.931 . S
C21 C22 1.413 . S
C21 C23 1.360 . S
C22 C21 1.413 . S
C22 C26 1.429 . S
C23 C21 1.360 . S
C23 C24 1.372 . S
C24 H19 0.928 . S
C24 C23 1.372 . S
C24 C25 1.404 . S
C25 C24 1.404 . S
C25 C26 1.391 . S
C26 H20 0.930 . S
C26 C22 1.429 . S
C26 C25 1.391 . S
H27 C30 0.931 . S
H28 C33 0.928 . S
H29 C35 0.930 . S
C30 H27 0.931 . S
C30 C31 1.413 . S
C30 C32 1.360 . S
C31 C30 1.413 . S
C31 C35 1.429 . S
C32 C30 1.360 . S
C32 C33 1.372 . S
C33 H28 0.928 . S
C33 C32 1.372 . S
C33 C34 1.404 . S
C34 C33 1.404 . S
C34 C35 1.391 . S
C35 H29 0.930 . S
C35 C31 1.429 . S
C35 C34 1.391 . S
H36 C39 0.931 . S
H37 C42 0.928 . S
H38 C44 0.930 . S
C39 H36 0.931 . S
C39 C40 1.413 . S
C39 C41 1.360 . S
C40 C39 1.413 . S
C40 C44 1.429 . S
C41 C39 1.360 . S
C41 C42 1.372 . S
C42 H37 0.928 . S
C42 C41 1.372 . S
C42 C43 1.404 . S
C43 C42 1.404 . S
C43 C44 1.391 . S
C44 H38 0.930 . S
C44 C40 1.429 . S
C44 C43 1.391 . S
H45 C48 0.931 . S
H46 C51 0.928 . S
H47 C53 0.930 . S
C48 H45 0.931 . S
C48 C49 1.413 . S
C48 C50 1.360 . S
C49 C48 1.413 . S
C49 C53 1.429 . S
C50 C48 1.360 . S
C50 C51 1.372 . S
C51 H46 0.928 . S
C51 C50 1.372 . S
C51 C52 1.404 . S
C52 C51 1.404 . S
C52 C53 1.391 . S
C53 H47 0.930 . S
C53 C49 1.429 . S
C53 C52 1.391 . S
H54 C57 0.931 . S
H55 C60 0.928 . S
H56 C62 0.930 . S
C57 H54 0.931 . S
C57 C58 1.413 . S
C57 C59 1.360 . S
C58 C57 1.413 . S
C58 C62 1.429 . S
C59 C57 1.360 . S
C59 C60 1.372 . S
C60 H55 0.928 . S
C60 C59 1.372 . S
C60 C61 1.404 . S
C61 C60 1.404 . S
C61 C62 1.391 . S
C62 H56 0.930 . S
C62 C58 1.429 . S
C62 C61 1.391 . S
H63 C66 0.931 . S
H64 C69 0.928 . S
H65 C71 0.930 . S
C66 H63 0.931 . S
C66 C67 1.413 . S
C66 C68 1.360 . S
C67 C66 1.413 . S
C67 C71 1.429 . S
C68 C66 1.360 . S
C68 C69 1.372 . S
C69 H64 0.928 . S
C69 C68 1.372 . S
C69 C70 1.404 . S
C70 C69 1.404 . S
C70 C71 1.391 . S
C71 H65 0.930 . S
C71 C67 1.429 . S
C71 C70 1.391 . S
Zn72 O78 1.969 1_545 S
Zn72 O79 1.965 1_545 S
Zn72 O83 2.024 . S
Zn72 O88 1.969 . S
Zn73 O80 1.969 . S
Zn73 O86 1.969 1_565 S
Zn73 O87 1.965 1_665 S
Zn73 O89 2.024 . S
C74 O75 1.229 . S
C74 O83 1.058 . S
O75 C74 1.229 . S
C76 O77 1.229 . S
C76 O89 1.058 . S
O77 C76 1.229 . S
O78 Zn72 1.969 1_565 S
O78 C81 1.267 . S
O79 Zn72 1.965 1_565 S
O79 C90 1.260 1_455 S
O80 Zn73 1.969 . S
O80 C90 1.258 . S
C81 O78 1.267 . S
C81 O82 1.228 . S
O82 C81 1.228 . S
O83 Zn72 2.024 . S
O83 C74 1.058 . S
C84 O85 1.228 . S
C84 O86 1.267 . S
O85 C84 1.228 . S
O86 Zn73 1.969 1_545 S
O86 C84 1.267 . S
O87 Zn73 1.965 1_445 S
O87 C91 1.260 . S
O88 Zn72 1.969 . S
O88 C91 1.258 . S
O89 Zn73 2.024 . S
O89 C76 1.058 . S
C90 O79 1.260 1_655 S
C90 O80 1.258 . S
C91 O87 1.260 . S
C91 O88 1.258 . S
Zn92 O98 1.969 . S
Zn92 O99 1.965 1_565 S
Zn92 O103 2.024 . S
Zn92 O108 1.969 1_556 S
Zn93 O100 1.969 . S
Zn93 O106 1.969 . S
Zn93 O107 1.965 1_545 S
Zn93 O109 2.024 . S
C94 O95 1.229 . S
C94 O103 1.058 . S
O95 C94 1.229 . S
C96 O97 1.229 . S
C96 O109 1.058 . S
O97 C96 1.229 . S
O98 Zn92 1.969 . S
O98 C101 1.267 . S
O99 Zn92 1.965 1_545 S
O99 C110 1.260 . S
O100 Zn93 1.969 . S
O100 C110 1.258 1_554 S
C101 O98 1.267 . S
C101 O102 1.228 . S
O102 C101 1.228 . S
O103 Zn92 2.024 . S
O103 C94 1.058 . S
C104 O105 1.228 . S
C104 O106 1.267 . S
O105 C104 1.228 . S
O106 Zn93 1.969 . S
O106 C104 1.267 . S
O107 Zn93 1.965 1_565 S
O107 C111 1.260 . S
O108 Zn92 1.969 1_554 S
O108 C111 1.258 . S
O109 Zn93 2.024 . S
O109 C96 1.058 . S
C110 O99 1.260 . S
C110 O100 1.258 1_556 S
C111 O107 1.260 . S
C111 O108 1.258 . S
Zn112 O118 1.969 . S
Zn112 O119 1.965 . S
Zn112 O123 2.024 . S
Zn112 O128 1.969 . S
Zn113 O120 1.969 . S
Zn113 O126 1.969 . S
Zn113 O127 1.965 . S
Zn113 O129 2.024 . S
C114 O115 1.229 . S
C114 O123 1.058 . S
O115 C114 1.229 . S
C116 O117 1.229 . S
C116 O129 1.058 . S
O117 C116 1.229 . S
O118 Zn112 1.969 . S
O118 C121 1.267 . S
O119 Zn112 1.965 . S
O119 C130 1.260 . S
O120 Zn113 1.969 . S
O120 C130 1.258 . S
C121 O118 1.267 . S
C121 O122 1.228 . S
O122 C121 1.228 . S
O123 Zn112 2.024 . S
O123 C114 1.058 . S
C124 O125 1.228 . S
C124 O126 1.267 . S
O125 C124 1.228 . S
O126 Zn113 1.969 . S
O126 C124 1.267 . S
O127 Zn113 1.965 . S
O127 C131 1.260 . S
O128 Zn112 1.969 . S
O128 C131 1.258 . S
O129 Zn113 2.024 . S
O129 C116 1.058 . S
C130 O119 1.260 . S
C130 O120 1.258 . S
C131 O127 1.260 . S
C131 O128 1.258 . S
Zn132 O138 1.969 . S
Zn132 O139 1.965 1_556 S
Zn132 O143 2.024 . S
Zn132 O148 1.969 1_655 S
Zn133 O140 1.969 . S
Zn133 O146 1.969 . S
Zn133 O147 1.965 1_554 S
Zn133 O149 2.024 . S
C134 O135 1.229 . S
C134 O143 1.058 . S
O135 C134 1.229 . S
C136 O137 1.229 . S
C136 O149 1.058 . S
O137 C136 1.229 . S
O138 Zn132 1.969 . S
O138 C141 1.267 . S
O139 Zn132 1.965 1_554 S
O139 C150 1.260 . S
O140 Zn133 1.969 . S
O140 C150 1.258 1_455 S
C141 O138 1.267 . S
C141 O142 1.228 . S
O142 C141 1.228 . S
O143 Zn132 2.024 . S
O143 C134 1.058 . S
C144 O145 1.228 . S
C144 O146 1.267 . S
O145 C144 1.228 . S
O146 Zn133 1.969 . S
O146 C144 1.267 . S
O147 Zn133 1.965 1_556 S
O147 C151 1.260 . S
O148 Zn132 1.969 1_455 S
O148 C151 1.258 . S
O149 Zn133 2.024 . S
O149 C136 1.058 . S
C150 O139 1.260 . S
C150 O140 1.258 1_655 S
C151 O147 1.260 . S
C151 O148 1.258 . S
H152 C164 0.930 . S
H153 C166 0.930 . S
H154 C167 0.930 . S
H155 C171 0.959 . S
H156 C171 0.959 . S
H157 C171 0.961 . S
H158 C172 0.960 . S
H159 C172 0.961 . S
H160 C172 0.959 . S
H161 C175 0.929 . S
H162 C176 0.931 1_565 S
H163 C178 0.930 . S
C164 H152 0.930 . S
C164 C165 1.399 . S
C164 C169 1.399 . S
C165 C164 1.399 . S
C165 C166 1.376 . S
C166 H153 0.930 . S
C166 C165 1.376 . S
C166 C167 1.388 . S
C167 H154 0.930 . S
C167 C166 1.388 . S
C167 C168 1.390 . S
C168 C167 1.390 . S
C168 C169 1.394 . S
C168 C174 1.465 . S
C169 C164 1.399 . S
C169 C168 1.394 . S
C169 C170 1.516 . S
C170 C169 1.516 . S
C170 C171 1.502 . S
C170 C172 1.561 . S
C170 C173 1.526 . S
C171 H155 0.959 . S
C171 H156 0.959 . S
C171 H157 0.961 . S
C171 C170 1.502 . S
C172 H158 0.960 . S
C172 H159 0.961 . S
C172 H160 0.959 . S
C172 C170 1.561 . S
C173 C170 1.526 . S
C173 C174 1.396 . S
C173 C178 1.390 . S
C174 C168 1.465 . S
C174 C173 1.396 . S
C174 C175 1.399 . S
C175 H161 0.929 . S
C175 C174 1.399 . S
C175 C176 1.385 . S
C176 H162 0.931 1_545 S
C176 C175 1.385 . S
C176 C177 1.389 . S
C177 C176 1.389 . S
C177 C178 1.387 . S
C178 H163 0.930 . S
C178 C173 1.390 . S
C178 C177 1.387 . S
H179 C191 0.930 . S
H180 C193 0.930 . S
H181 C194 0.930 . S
H182 C198 0.959 . S
H183 C198 0.959 . S
H184 C198 0.961 . S
H185 C199 0.960 . S
H186 C199 0.961 . S
H187 C199 0.959 . S
H188 C202 0.929 . S
H189 C203 0.931 . S
H190 C205 0.930 . S
C191 H179 0.930 . S
C191 C192 1.399 . S
C191 C196 1.399 . S
C192 C191 1.399 . S
C192 C193 1.376 . S
C193 H180 0.930 . S
C193 C192 1.376 . S
C193 C194 1.388 . S
C194 H181 0.930 . S
C194 C193 1.388 . S
C194 C195 1.390 . S
C195 C194 1.390 . S
C195 C196 1.394 . S
C195 C201 1.465 . S
C196 C191 1.399 . S
C196 C195 1.394 . S
C196 C197 1.516 . S
C197 C196 1.516 . S
C197 C198 1.502 . S
C197 C199 1.561 . S
C197 C200 1.526 . S
C198 H182 0.959 . S
C198 H183 0.959 . S
C198 H184 0.961 . S
C198 C197 1.502 . S
C199 H185 0.960 . S
C199 H186 0.961 . S
C199 H187 0.959 . S
C199 C197 1.561 . S
C200 C197 1.526 . S
C200 C201 1.396 . S
C200 C205 1.390 . S
C201 C195 1.465 . S
C201 C200 1.396 . S
C201 C202 1.399 . S
C202 H188 0.929 . S
C202 C201 1.399 . S
C202 C203 1.385 . S
C203 H189 0.931 . S
C203 C202 1.385 . S
C203 C204 1.389 . S
C204 C203 1.389 . S
C204 C205 1.387 . S
C205 H190 0.930 . S
C205 C200 1.390 . S
C205 C204 1.387 . S
H206 C218 0.930 . S
H207 C220 0.930 . S
H208 C221 0.930 . S
H209 C225 0.959 . S
H210 C225 0.959 . S
H211 C225 0.961 . S
H212 C226 0.960 . S
H213 C226 0.961 . S
H214 C226 0.959 . S
H215 C229 0.929 . S
H216 C230 0.931 . S
H217 C232 0.930 . S
C218 H206 0.930 . S
C218 C219 1.399 . S
C218 C223 1.399 . S
C219 C218 1.399 . S
C219 C220 1.376 . S
C220 H207 0.930 . S
C220 C219 1.376 . S
C220 C221 1.388 . S
C221 H208 0.930 . S
C221 C220 1.388 . S
C221 C222 1.390 . S
C222 C221 1.390 . S
C222 C223 1.394 . S
C222 C228 1.465 . S
C223 C218 1.399 . S
C223 C222 1.394 . S
C223 C224 1.516 . S
C224 C223 1.516 . S
C224 C225 1.502 . S
C224 C226 1.561 . S
C224 C227 1.526 . S
C225 H209 0.959 . S
C225 H210 0.959 . S
C225 H211 0.961 . S
C225 C224 1.502 . S
C226 H212 0.960 . S
C226 H213 0.961 . S
C226 H214 0.959 . S
C226 C224 1.561 . S
C227 C224 1.526 . S
C227 C228 1.396 . S
C227 C232 1.390 . S
C228 C222 1.465 . S
C228 C227 1.396 . S
C228 C229 1.399 . S
C229 H215 0.929 . S
C229 C228 1.399 . S
C229 C230 1.385 . S
C230 H216 0.931 . S
C230 C229 1.385 . S
C230 C231 1.389 . S
C231 C230 1.389 . S
C231 C232 1.387 . S
C232 H217 0.930 . S
C232 C227 1.390 . S
C232 C231 1.387 . S
H233 C245 0.930 . S
H234 C247 0.930 . S
H235 C248 0.930 . S
H236 C252 0.959 . S
H237 C252 0.959 . S
H238 C252 0.961 . S
H239 C253 0.960 . S
H240 C253 0.961 . S
H241 C253 0.959 . S
H242 C256 0.929 . S
H243 C257 0.931 . S
H244 C259 0.930 . S
C245 H233 0.930 . S
C245 C246 1.399 . S
C245 C250 1.399 . S
C246 C245 1.399 . S
C246 C247 1.376 . S
C247 H234 0.930 . S
C247 C246 1.376 . S
C247 C248 1.388 . S
C248 H235 0.930 . S
C248 C247 1.388 . S
C248 C249 1.390 . S
C249 C248 1.390 . S
C249 C250 1.394 . S
C249 C255 1.465 . S
C250 C245 1.399 . S
C250 C249 1.394 . S
C250 C251 1.516 . S
C251 C250 1.516 . S
C251 C252 1.502 . S
C251 C253 1.561 . S
C251 C254 1.526 . S
C252 H236 0.959 . S
C252 H237 0.959 . S
C252 H238 0.961 . S
C252 C251 1.502 . S
C253 H239 0.960 . S
C253 H240 0.961 . S
C253 H241 0.959 . S
C253 C251 1.561 . S
C254 C251 1.526 . S
C254 C255 1.396 . S
C254 C259 1.390 . S
C255 C249 1.465 . S
C255 C254 1.396 . S
C255 C256 1.399 . S
C256 H242 0.929 . S
C256 C255 1.399 . S
C256 C257 1.385 . S
C257 H243 0.931 . S
C257 C256 1.385 . S
C257 C258 1.389 . S
C258 C257 1.389 . S
C258 C259 1.387 . S
C259 H244 0.930 . S
C259 C254 1.390 . S
C259 C258 1.387 . S
H260 C272 0.930 . S
H261 C274 0.930 . S
H262 C275 0.930 . S
H263 C279 0.959 . S
H264 C279 0.959 . S
H265 C279 0.961 . S
H266 C280 0.960 . S
H267 C280 0.961 . S
H268 C280 0.959 . S
H269 C283 0.929 . S
H270 C284 0.931 . S
H271 C286 0.930 . S
C272 H260 0.930 . S
C272 C273 1.399 . S
C272 C277 1.399 . S
C273 C272 1.399 . S
C273 C274 1.376 . S
C274 H261 0.930 . S
C274 C273 1.376 . S
C274 C275 1.388 . S
C275 H262 0.930 . S
C275 C274 1.388 . S
C275 C276 1.390 . S
C276 C275 1.390 . S
C276 C277 1.394 . S
C276 C282 1.465 . S
C277 C272 1.399 . S
C277 C276 1.394 . S
C277 C278 1.516 . S
C278 C277 1.516 . S
C278 C279 1.502 . S
C278 C280 1.561 . S
C278 C281 1.526 . S
C279 H263 0.959 . S
C279 H264 0.959 . S
C279 H265 0.961 . S
C279 C278 1.502 . S
C280 H266 0.960 . S
C280 H267 0.961 . S
C280 H268 0.959 . S
C280 C278 1.561 . S
C281 C278 1.526 . S
C281 C282 1.396 . S
C281 C286 1.390 . S
C282 C276 1.465 . S
C282 C281 1.396 . S
C282 C283 1.399 . S
C283 H269 0.929 . S
C283 C282 1.399 . S
C283 C284 1.385 . S
C284 H270 0.931 . S
C284 C283 1.385 . S
C284 C285 1.389 . S
C285 C284 1.389 . S
C285 C286 1.387 . S
C286 H271 0.930 . S
C286 C281 1.390 . S
C286 C285 1.387 . S
H287 C299 0.930 . S
H288 C301 0.930 . S
H289 C302 0.930 . S
H290 C306 0.959 . S
H291 C306 0.959 1_545 S
H292 C306 0.961 . S
H293 C307 0.960 . S
H294 C307 0.961 . S
H295 C307 0.959 . S
H296 C310 0.929 . S
H297 C311 0.931 . S
H298 C313 0.930 . S
C299 H287 0.930 . S
C299 C300 1.399 . S
C299 C304 1.399 . S
C300 C299 1.399 . S
C300 C301 1.376 . S
C301 H288 0.930 . S
C301 C300 1.376 . S
C301 C302 1.388 . S
C302 H289 0.930 . S
C302 C301 1.388 . S
C302 C303 1.390 . S
C303 C302 1.390 . S
C303 C304 1.394 . S
C303 C309 1.465 . S
C304 C299 1.399 . S
C304 C303 1.394 . S
C304 C305 1.516 . S
C305 C304 1.516 . S
C305 C306 1.502 . S
C305 C307 1.561 . S
C305 C308 1.526 . S
C306 H290 0.959 . S
C306 H291 0.959 1_565 S
C306 H292 0.961 . S
C306 C305 1.502 . S
C307 H293 0.960 . S
C307 H294 0.961 . S
C307 H295 0.959 . S
C307 C305 1.561 . S
C308 C305 1.526 . S
C308 C309 1.396 . S
C308 C313 1.390 . S
C309 C303 1.465 . S
C309 C308 1.396 . S
C309 C310 1.399 . S
C310 H296 0.929 . S
C310 C309 1.399 . S
C310 C311 1.385 . S
C311 H297 0.931 . S
C311 C310 1.385 . S
C311 C312 1.389 . S
C312 C311 1.389 . S
C312 C313 1.387 . S
C313 H298 0.930 . S
C313 C308 1.390 . S
C313 C312 1.387 . S
H314 C326 0.930 . S
H315 C328 0.930 . S
H316 C329 0.930 . S
H317 C333 0.959 . S
H318 C333 0.959 . S
H319 C333 0.961 . S
H320 C334 0.960 . S
H321 C334 0.961 . S
H322 C334 0.959 . S
H323 C337 0.929 . S
H324 C338 0.931 . S
H325 C340 0.930 . S
C326 H314 0.930 . S
C326 C327 1.399 . S
C326 C331 1.399 . S
C327 C326 1.399 . S
C327 C328 1.376 . S
C328 H315 0.930 . S
C328 C327 1.376 . S
C328 C329 1.388 . S
C329 H316 0.930 . S
C329 C328 1.388 . S
C329 C330 1.390 . S
C330 C329 1.390 . S
C330 C331 1.394 . S
C330 C336 1.465 . S
C331 C326 1.399 . S
C331 C330 1.394 . S
C331 C332 1.516 . S
C332 C331 1.516 . S
C332 C333 1.502 . S
C332 C334 1.561 . S
C332 C335 1.526 . S
C333 H317 0.959 . S
C333 H318 0.959 . S
C333 H319 0.961 . S
C333 C332 1.502 . S
C334 H320 0.960 . S
C334 H321 0.961 . S
C334 H322 0.959 . S
C334 C332 1.561 . S
C335 C332 1.526 . S
C335 C336 1.396 . S
C335 C340 1.390 . S
C336 C330 1.465 . S
C336 C335 1.396 . S
C336 C337 1.399 . S
C337 H323 0.929 . S
C337 C336 1.399 . S
C337 C338 1.385 . S
C338 H324 0.931 . S
C338 C337 1.385 . S
C338 C339 1.389 . S
C339 C338 1.389 . S
C339 C340 1.387 . S
C340 H325 0.930 . S
C340 C335 1.390 . S
C340 C339 1.387 . S
H341 C353 0.930 . S
H342 C355 0.930 . S
H343 C356 0.930 . S
H344 C360 0.959 . S
H345 C360 0.959 . S
H346 C360 0.961 . S
H347 C361 0.960 . S
H348 C361 0.961 . S
H349 C361 0.959 . S
H350 C364 0.929 . S
H351 C365 0.931 . S
H352 C367 0.930 . S
C353 H341 0.930 . S
C353 C354 1.399 . S
C353 C358 1.399 . S
C354 C353 1.399 . S
C354 C355 1.376 . S
C355 H342 0.930 . S
C355 C354 1.376 . S
C355 C356 1.388 . S
C356 H343 0.930 . S
C356 C355 1.388 . S
C356 C357 1.390 . S
C357 C356 1.390 . S
C357 C358 1.394 . S
C357 C363 1.465 . S
C358 C353 1.399 . S
C358 C357 1.394 . S
C358 C359 1.516 . S
C359 C358 1.516 . S
C359 C360 1.502 . S
C359 C361 1.561 . S
C359 C362 1.526 . S
C360 H344 0.959 . S
C360 H345 0.959 . S
C360 H346 0.961 . S
C360 C359 1.502 . S
C361 H347 0.960 . S
C361 H348 0.961 . S
C361 H349 0.959 . S
C361 C359 1.561 . S
C362 C359 1.526 . S
C362 C363 1.396 . S
C362 C367 1.390 . S
C363 C357 1.465 . S
C363 C362 1.396 . S
C363 C364 1.399 . S
C364 H350 0.929 . S
C364 C363 1.399 . S
C364 C365 1.385 . S
C365 H351 0.931 . S
C365 C364 1.385 . S
C365 C366 1.389 . S
C366 C365 1.389 . S
C366 C367 1.387 . S
C367 H352 0.930 . S
C367 C362 1.390 . S
C367 C366 1.387 . S
H368 C380 0.930 . S
H369 C382 0.930 . S
H370 C383 0.930 . S
H371 C387 0.959 . S
H372 C387 0.959 . S
H373 C387 0.961 . S
H374 C388 0.960 . S
H375 C388 0.961 . S
H376 C388 0.959 . S
H377 C391 0.929 . S
H378 C392 0.931 . S
H379 C394 0.930 . S
C380 H368 0.930 . S
C380 C381 1.399 . S
C380 C385 1.399 . S
C381 C380 1.399 . S
C381 C382 1.376 . S
C382 H369 0.930 . S
C382 C381 1.376 . S
C382 C383 1.388 . S
C383 H370 0.930 . S
C383 C382 1.388 . S
C383 C384 1.390 . S
C384 C383 1.390 . S
C384 C385 1.394 . S
C384 C390 1.465 . S
C385 C380 1.399 . S
C385 C384 1.394 . S
C385 C386 1.516 . S
C386 C385 1.516 . S
C386 C387 1.502 . S
C386 C388 1.561 . S
C386 C389 1.526 . S
C387 H371 0.959 . S
C387 H372 0.959 . S
C387 H373 0.961 . S
C387 C386 1.502 . S
C388 H374 0.960 . S
C388 H375 0.961 . S
C388 H376 0.959 . S
C388 C386 1.561 . S
C389 C386 1.526 . S
C389 C390 1.396 . S
C389 C394 1.390 . S
C390 C384 1.465 . S
C390 C389 1.396 . S
C390 C391 1.399 . S
C391 H377 0.929 . S
C391 C390 1.399 . S
C391 C392 1.385 . S
C392 H378 0.931 . S
C392 C391 1.385 . S
C392 C393 1.389 . S
C393 C392 1.389 . S
C393 C394 1.387 . S
C394 H379 0.930 . S
C394 C389 1.390 . S
C394 C393 1.387 . S
H395 C407 0.930 . S
H396 C409 0.930 . S
H397 C410 0.930 . S
H398 C414 0.959 . S
H399 C414 0.959 . S
H400 C414 0.961 . S
H401 C415 0.960 . S
H402 C415 0.961 . S
H403 C415 0.959 . S
H404 C418 0.929 . S
H405 C419 0.931 . S
H406 C421 0.930 . S
C407 H395 0.930 . S
C407 C408 1.399 . S
C407 C412 1.399 . S
C408 C407 1.399 . S
C408 C409 1.376 . S
C409 H396 0.930 . S
C409 C408 1.376 . S
C409 C410 1.388 . S
C410 H397 0.930 . S
C410 C409 1.388 . S
C410 C411 1.390 . S
C411 C410 1.390 . S
C411 C412 1.394 . S
C411 C417 1.465 . S
C412 C407 1.399 . S
C412 C411 1.394 . S
C412 C413 1.516 . S
C413 C412 1.516 . S
C413 C414 1.502 . S
C413 C415 1.561 . S
C413 C416 1.526 . S
C414 H398 0.959 . S
C414 H399 0.959 . S
C414 H400 0.961 . S
C414 C413 1.502 . S
C415 H401 0.960 . S
C415 H402 0.961 . S
C415 H403 0.959 . S
C415 C413 1.561 . S
C416 C413 1.526 . S
C416 C417 1.396 . S
C416 C421 1.390 . S
C417 C411 1.465 . S
C417 C416 1.396 . S
C417 C418 1.399 . S
C418 H404 0.929 . S
C418 C417 1.399 . S
C418 C419 1.385 . S
C419 H405 0.931 . S
C419 C418 1.385 . S
C419 C420 1.389 . S
C420 C419 1.389 . S
C420 C421 1.387 . S
C421 H406 0.930 . S
C421 C416 1.390 . S
C421 C420 1.387 . S
H422 C434 0.930 . S
H423 C436 0.930 . S
H424 C437 0.930 . S
H425 C441 0.959 . S
H426 C441 0.959 . S
H427 C441 0.961 . S
H428 C442 0.960 . S
H429 C442 0.961 . S
H430 C442 0.959 . S
H431 C445 0.929 . S
H432 C446 0.931 . S
H433 C448 0.930 . S
C434 H422 0.930 . S
C434 C435 1.399 . S
C434 C439 1.399 . S
C435 C434 1.399 . S
C435 C436 1.376 . S
C436 H423 0.930 . S
C436 C435 1.376 . S
C436 C437 1.388 . S
C437 H424 0.930 . S
C437 C436 1.388 . S
C437 C438 1.390 . S
C438 C437 1.390 . S
C438 C439 1.394 . S
C438 C444 1.465 . S
C439 C434 1.399 . S
C439 C438 1.394 . S
C439 C440 1.516 . S
C440 C439 1.516 . S
C440 C441 1.502 . S
C440 C442 1.561 . S
C440 C443 1.526 . S
C441 H425 0.959 . S
C441 H426 0.959 . S
C441 H427 0.961 . S
C441 C440 1.502 . S
C442 H428 0.960 . S
C442 H429 0.961 . S
C442 H430 0.959 . S
C442 C440 1.561 . S
C443 C440 1.526 . S
C443 C444 1.396 . S
C443 C448 1.390 . S
C444 C438 1.465 . S
C444 C443 1.396 . S
C444 C445 1.399 . S
C445 H431 0.929 . S
C445 C444 1.399 . S
C445 C446 1.385 . S
C446 H432 0.931 . S
C446 C445 1.385 . S
C446 C447 1.389 . S
C447 C446 1.389 . S
C447 C448 1.387 . S
C448 H433 0.930 . S
C448 C443 1.390 . S
C448 C447 1.387 . S
H449 C461 0.930 . S
H450 C463 0.930 . S
H451 C464 0.930 . S
H452 C468 0.959 . S
H453 C468 0.959 . S
H454 C468 0.961 . S
H455 C469 0.960 . S
H456 C469 0.961 . S
H457 C469 0.959 . S
H458 C472 0.929 . S
H459 C473 0.931 . S
H460 C475 0.930 . S
C461 H449 0.930 . S
C461 C462 1.399 . S
C461 C466 1.399 . S
C462 C461 1.399 . S
C462 C463 1.376 . S
C463 H450 0.930 . S
C463 C462 1.376 . S
C463 C464 1.388 . S
C464 H451 0.930 . S
C464 C463 1.388 . S
C464 C465 1.390 . S
C465 C464 1.390 . S
C465 C466 1.394 . S
C465 C471 1.465 . S
C466 C461 1.399 . S
C466 C465 1.394 . S
C466 C467 1.516 . S
C467 C466 1.516 . S
C467 C468 1.502 . S
C467 C469 1.561 . S
C467 C470 1.526 . S
C468 H452 0.959 . S
C468 H453 0.959 . S
C468 H454 0.961 . S
C468 C467 1.502 . S
C469 H455 0.960 . S
C469 H456 0.961 . S
C469 H457 0.959 . S
C469 C467 1.561 . S
C470 C467 1.526 . S
C470 C471 1.396 . S
C470 C475 1.390 . S
C471 C465 1.465 . S
C471 C470 1.396 . S
C471 C472 1.399 . S
C472 H458 0.929 . S
C472 C471 1.399 . S
C472 C473 1.385 . S
C473 H459 0.931 . S
C473 C472 1.385 . S
C473 C474 1.389 . S
C474 C473 1.389 . S
C474 C475 1.387 . S
C475 H460 0.930 . S
C475 C470 1.390 . S
C475 C474 1.387 . S
H476 C488 0.930 . S
H477 C490 0.930 . S
H478 C491 0.930 . S
H479 C495 0.959 . S
H480 C495 0.959 . S
H481 C495 0.961 . S
H482 C496 0.960 . S
H483 C496 0.961 . S
H484 C496 0.959 . S
H485 C499 0.929 . S
H486 C500 0.931 . S
H487 C502 0.930 . S
C488 H476 0.930 . S
C488 C489 1.399 . S
C488 C493 1.399 . S
C489 C488 1.399 . S
C489 C490 1.376 . S
C490 H477 0.930 . S
C490 C489 1.376 . S
C490 C491 1.388 . S
C491 H478 0.930 . S
C491 C490 1.388 . S
C491 C492 1.390 . S
C492 C491 1.390 . S
C492 C493 1.394 . S
C492 C498 1.465 . S
C493 C488 1.399 . S
C493 C492 1.394 . S
C493 C494 1.516 . S
C494 C493 1.516 . S
C494 C495 1.502 . S
C494 C496 1.561 . S
C494 C497 1.526 . S
C495 H479 0.959 . S
C495 H480 0.959 . S
C495 H481 0.961 . S
C495 C494 1.502 . S
C496 H482 0.960 . S
C496 H483 0.961 . S
C496 H484 0.959 . S
C496 C494 1.561 . S
C497 C494 1.526 . S
C497 C498 1.396 . S
C497 C502 1.390 . S
C498 C492 1.465 . S
C498 C497 1.396 . S
C498 C499 1.399 . S
C499 H485 0.929 . S
C499 C498 1.399 . S
C499 C500 1.385 . S
C500 H486 0.931 . S
C500 C499 1.385 . S
C500 C501 1.389 . S
C501 C500 1.389 . S
C501 C502 1.387 . S
C502 H487 0.930 . S
C502 C497 1.390 . S
C502 C501 1.387 . S
H503 C515 0.930 . S
H504 C517 0.930 . S
H505 C518 0.930 . S
H506 C522 0.959 . S
H507 C522 0.959 . S
H508 C522 0.961 . S
H509 C523 0.960 . S
H510 C523 0.961 . S
H511 C523 0.959 . S
H512 C526 0.929 . S
H513 C527 0.931 . S
H514 C529 0.930 . S
C515 H503 0.930 . S
C515 C516 1.399 . S
C515 C520 1.399 . S
C516 C515 1.399 . S
C516 C517 1.376 . S
C517 H504 0.930 . S
C517 C516 1.376 . S
C517 C518 1.388 . S
C518 H505 0.930 . S
C518 C517 1.388 . S
C518 C519 1.390 . S
C519 C518 1.390 . S
C519 C520 1.394 . S
C519 C525 1.465 . S
C520 C515 1.399 . S
C520 C519 1.394 . S
C520 C521 1.516 . S
C521 C520 1.516 . S
C521 C522 1.502 . S
C521 C523 1.561 . S
C521 C524 1.526 . S
C522 H506 0.959 . S
C522 H507 0.959 . S
C522 H508 0.961 . S
C522 C521 1.502 . S
C523 H509 0.960 . S
C523 H510 0.961 . S
C523 H511 0.959 . S
C523 C521 1.561 . S
C524 C521 1.526 . S
C524 C525 1.396 . S
C524 C529 1.390 . S
C525 C519 1.465 . S
C525 C524 1.396 . S
C525 C526 1.399 . S
C526 H512 0.929 . S
C526 C525 1.399 . S
C526 C527 1.385 . S
C527 H513 0.931 . S
C527 C526 1.385 . S
C527 C528 1.389 . S
C528 C527 1.389 . S
C528 C529 1.387 . S
C529 H514 0.930 . S
C529 C524 1.390 . S
C529 C528 1.387 . S
H530 C542 0.930 . S
H531 C544 0.930 . S
H532 C545 0.930 . S
H533 C549 0.959 . S
H534 C549 0.959 . S
H535 C549 0.961 . S
H536 C550 0.960 . S
H537 C550 0.961 . S
H538 C550 0.959 . S
H539 C553 0.929 . S
H540 C554 0.931 . S
H541 C556 0.930 . S
C542 H530 0.930 . S
C542 C543 1.399 . S
C542 C547 1.399 . S
C543 C542 1.399 . S
C543 C544 1.376 . S
C544 H531 0.930 . S
C544 C543 1.376 . S
C544 C545 1.388 . S
C545 H532 0.930 . S
C545 C544 1.388 . S
C545 C546 1.390 . S
C546 C545 1.390 . S
C546 C547 1.394 . S
C546 C552 1.465 . S
C547 C542 1.399 . S
C547 C546 1.394 . S
C547 C548 1.516 . S
C548 C547 1.516 . S
C548 C549 1.502 . S
C548 C550 1.561 . S
C548 C551 1.526 . S
C549 H533 0.959 . S
C549 H534 0.959 . S
C549 H535 0.961 . S
C549 C548 1.502 . S
C550 H536 0.960 . S
C550 H537 0.961 . S
C550 H538 0.959 . S
C550 C548 1.561 . S
C551 C548 1.526 . S
C551 C552 1.396 . S
C551 C556 1.390 . S
C552 C546 1.465 . S
C552 C551 1.396 . S
C552 C553 1.399 . S
C553 H539 0.929 . S
C553 C552 1.399 . S
C553 C554 1.385 . S
C554 H540 0.931 . S
C554 C553 1.385 . S
C554 C555 1.389 . S
C555 C554 1.389 . S
C555 C556 1.387 . S
C556 H541 0.930 . S
C556 C551 1.390 . S
C556 C555 1.387 . S
H557 C569 0.930 . S
H558 C571 0.930 . S
H559 C572 0.930 . S
H560 C576 0.959 . S
H561 C576 0.959 . S
H562 C576 0.961 . S
H563 C577 0.960 . S
H564 C577 0.961 . S
H565 C577 0.959 . S
H566 C580 0.929 . S
H567 C581 0.931 . S
H568 C583 0.930 . S
C569 H557 0.930 . S
C569 C570 1.399 . S
C569 C574 1.399 . S
C570 C569 1.399 . S
C570 C571 1.376 . S
C571 H558 0.930 . S
C571 C570 1.376 . S
C571 C572 1.388 . S
C572 H559 0.930 . S
C572 C571 1.388 . S
C572 C573 1.390 . S
C573 C572 1.390 . S
C573 C574 1.394 . S
C573 C579 1.465 . S
C574 C569 1.399 . S
C574 C573 1.394 . S
C574 C575 1.516 . S
C575 C574 1.516 . S
C575 C576 1.502 . S
C575 C577 1.561 . S
C575 C578 1.526 . S
C576 H560 0.959 . S
C576 H561 0.959 . S
C576 H562 0.961 . S
C576 C575 1.502 . S
C577 H563 0.960 . S
C577 H564 0.961 . S
C577 H565 0.959 . S
C577 C575 1.561 . S
C578 C575 1.526 . S
C578 C579 1.396 . S
C578 C583 1.390 . S
C579 C573 1.465 . S
C579 C578 1.396 . S
C579 C580 1.399 . S
C580 H566 0.929 . S
C580 C579 1.399 . S
C580 C581 1.385 . S
C581 H567 0.931 . S
C581 C580 1.385 . S
C581 C582 1.389 . S
C582 C581 1.389 . S
C582 C583 1.387 . S
C583 H568 0.930 . S
C583 C578 1.390 . S
C583 C582 1.387 . S
H584 C596 0.930 . S
H585 C598 0.930 . S
H586 C599 0.930 . S
H587 C603 0.959 . S
H588 C603 0.959 . S
H589 C603 0.961 . S
H590 C604 0.960 . S
H591 C604 0.961 . S
H592 C604 0.959 . S
H593 C607 0.929 . S
H594 C608 0.931 . S
H595 C610 0.930 . S
C596 H584 0.930 . S
C596 C597 1.399 . S
C596 C601 1.399 . S
C597 C596 1.399 . S
C597 C598 1.376 . S
C598 H585 0.930 . S
C598 C597 1.376 . S
C598 C599 1.388 . S
C599 H586 0.930 . S
C599 C598 1.388 . S
C599 C600 1.390 . S
C600 C599 1.390 . S
C600 C601 1.394 . S
C600 C606 1.465 . S
C601 C596 1.399 . S
C601 C600 1.394 . S
C601 C602 1.516 . S
C602 C601 1.516 . S
C602 C603 1.502 . S
C602 C604 1.561 . S
C602 C605 1.526 . S
C603 H587 0.959 . S
C603 H588 0.959 . S
C603 H589 0.961 . S
C603 C602 1.502 . S
C604 H590 0.960 . S
C604 H591 0.961 . S
C604 H592 0.959 . S
C604 C602 1.561 . S
C605 C602 1.526 . S
C605 C606 1.396 . S
C605 C610 1.390 . S
C606 C600 1.465 . S
C606 C605 1.396 . S
C606 C607 1.399 . S
C607 H593 0.929 . S
C607 C606 1.399 . S
C607 C608 1.385 . S
C608 H594 0.931 . S
C608 C607 1.385 . S
C608 C609 1.389 . S
C609 C608 1.389 . S
C609 C610 1.387 . S
C610 H595 0.930 . S
C610 C605 1.390 . S
C610 C609 1.387 . S
H611 C623 0.930 . S
H612 C625 0.930 . S
H613 C626 0.930 . S
H614 C630 0.959 . S
H615 C630 0.970 . S
H616 C630 0.961 . S
H617 C631 0.960 . S
H618 C631 0.961 . S
H619 C631 0.959 . S
H620 C634 0.929 . S
H621 C635 0.931 . S
H622 C637 0.930 . S
C623 H611 0.930 . S
C623 C624 1.399 . S
C623 C628 1.399 . S
C624 C623 1.399 . S
C624 C625 1.376 . S
C625 H612 0.930 . S
C625 C624 1.376 . S
C625 C626 1.388 . S
C626 H613 0.930 . S
C626 C625 1.388 . S
C626 C627 1.390 . S
C627 C626 1.390 . S
C627 C628 1.394 . S
C627 C633 1.465 . S
C628 C623 1.399 . S
C628 C627 1.394 . S
C628 C629 1.516 . S
C629 C628 1.516 . S
C629 C630 1.502 . S
C629 C631 1.561 . S
C629 C632 1.526 . S
C630 H614 0.959 . S
C630 H615 0.970 . S
C630 H616 0.961 . S
C630 C629 1.502 . S
C631 H617 0.960 . S
C631 H618 0.961 . S
C631 H619 0.959 . S
C631 C629 1.561 . S
C632 C629 1.526 . S
C632 C633 1.396 . S
C632 C637 1.390 . S
C633 C627 1.465 . S
C633 C632 1.396 . S
C633 C634 1.399 . S
C634 H620 0.929 . S
C634 C633 1.399 . S
C634 C635 1.385 . S
C635 H621 0.931 . S
C635 C634 1.385 . S
C635 C636 1.389 . S
C636 C635 1.389 . S
C636 C637 1.387 . S
C637 H622 0.930 . S
C637 C632 1.390 . S
C637 C636 1.387 . S
H638 C650 0.930 . S
H639 C652 0.930 . S
H640 C653 0.930 . S
H641 C657 0.959 . S
H642 C657 0.959 . S
H643 C657 0.961 . S
H644 C658 0.960 . S
H645 C658 0.961 . S
H646 C658 0.959 . S
H647 C661 0.929 . S
H648 C662 0.931 . S
H649 C664 0.930 . S
C650 H638 0.930 . S
C650 C651 1.399 . S
C650 C655 1.399 . S
C651 C650 1.399 . S
C651 C652 1.376 . S
C652 H639 0.930 . S
C652 C651 1.376 . S
C652 C653 1.388 . S
C653 H640 0.930 . S
C653 C652 1.388 . S
C653 C654 1.390 . S
C654 C653 1.390 . S
C654 C655 1.394 . S
C654 C660 1.465 . S
C655 C650 1.399 . S
C655 C654 1.394 . S
C655 C656 1.516 . S
C656 C655 1.516 . S
C656 C657 1.502 . S
C656 C658 1.561 . S
C656 C659 1.526 . S
C657 H641 0.959 . S
C657 H642 0.959 . S
C657 H643 0.961 . S
C657 C656 1.502 . S
C658 H644 0.960 . S
C658 H645 0.961 . S
C658 H646 0.959 . S
C658 C656 1.561 . S
C659 C656 1.526 . S
C659 C660 1.396 . S
C659 C664 1.390 . S
C660 C654 1.465 . S
C660 C659 1.396 . S
C660 C661 1.399 . S
C661 H647 0.929 . S
C661 C660 1.399 . S
C661 C662 1.385 . S
C662 H648 0.931 . S
C662 C661 1.385 . S
C662 C663 1.389 . S
C663 C662 1.389 . S
C663 C664 1.387 . S
C664 H649 0.930 . S
C664 C659 1.390 . S
C664 C663 1.387 . S
H665 C677 0.930 . S
H666 C679 0.930 . S
H667 C680 0.930 . S
H668 C684 0.959 . S
H669 C684 0.959 . S
H670 C684 0.961 . S
H671 C685 0.960 . S
H672 C685 0.961 . S
H673 C685 0.959 . S
H674 C688 0.929 . S
H675 C689 0.931 . S
H676 C691 0.930 . S
C677 H665 0.930 . S
C677 C678 1.399 . S
C677 C682 1.399 . S
C678 C677 1.399 . S
C678 C679 1.376 . S
C679 H666 0.930 . S
C679 C678 1.376 . S
C679 C680 1.388 . S
C680 H667 0.930 . S
C680 C679 1.388 . S
C680 C681 1.390 . S
C681 C680 1.390 . S
C681 C682 1.394 . S
C681 C687 1.465 . S
C682 C677 1.399 . S
C682 C681 1.394 . S
C682 C683 1.516 . S
C683 C682 1.516 . S
C683 C684 1.502 . S
C683 C685 1.561 . S
C683 C686 1.526 . S
C684 H668 0.959 . S
C684 H669 0.959 . S
C684 H670 0.961 . S
C684 C683 1.502 . S
C685 H671 0.960 . S
C685 H672 0.961 . S
C685 H673 0.959 . S
C685 C683 1.561 . S
C686 C683 1.526 . S
C686 C687 1.396 . S
C686 C691 1.390 . S
C687 C681 1.465 . S
C687 C686 1.396 . S
C687 C688 1.399 . S
C688 H674 0.929 . S
C688 C687 1.399 . S
C688 C689 1.385 . S
C689 H675 0.931 . S
C689 C688 1.385 . S
C689 C690 1.389 . S
C690 C689 1.389 . S
C690 C691 1.387 . S
C691 H676 0.930 . S
C691 C686 1.390 . S
C691 C690 1.387 . S
H692 C704 0.930 . S
H693 C706 0.930 . S
H694 C707 0.930 . S
H695 C711 0.959 . S
H696 C711 0.959 . S
H697 C711 0.961 . S
H698 C712 0.960 . S
H699 C712 0.961 . S
H700 C712 0.959 . S
H701 C715 0.929 . S
H702 C716 0.931 . S
H703 C718 0.930 . S
C704 H692 0.930 . S
C704 C705 1.399 . S
C704 C709 1.399 . S
C705 C704 1.399 . S
C705 C706 1.376 . S
C706 H693 0.930 . S
C706 C705 1.376 . S
C706 C707 1.388 . S
C707 H694 0.930 . S
C707 C706 1.388 . S
C707 C708 1.390 . S
C708 C707 1.390 . S
C708 C709 1.394 . S
C708 C714 1.465 . S
C709 C704 1.399 . S
C709 C708 1.394 . S
C709 C710 1.516 . S
C710 C709 1.516 . S
C710 C711 1.502 . S
C710 C712 1.561 . S
C710 C713 1.526 . S
C711 H695 0.959 . S
C711 H696 0.959 . S
C711 H697 0.961 . S
C711 C710 1.502 . S
C712 H698 0.960 . S
C712 H699 0.961 . S
C712 H700 0.959 . S
C712 C710 1.561 . S
C713 C710 1.526 . S
C713 C714 1.396 . S
C713 C718 1.390 . S
C714 C708 1.465 . S
C714 C713 1.396 . S
C714 C715 1.399 . S
C715 H701 0.929 . S
C715 C714 1.399 . S
C715 C716 1.385 . S
C716 H702 0.931 . S
C716 C715 1.385 . S
C716 C717 1.389 . S
C717 C716 1.389 . S
C717 C718 1.387 . S
C718 H703 0.930 . S
C718 C713 1.390 . S
C718 C717 1.387 . S
H719 C731 0.930 . S
H720 C733 0.930 . S
H721 C734 0.930 . S
H722 C738 0.959 . S
H723 C738 0.959 . S
H724 C738 0.961 . S
H725 C739 0.960 . S
H726 C739 0.961 . S
H727 C739 0.959 . S
H728 C742 0.929 . S
H729 C743 0.931 . S
H730 C745 0.930 . S
C731 H719 0.930 . S
C731 C732 1.399 . S
C731 C736 1.399 . S
C732 C731 1.399 . S
C732 C733 1.376 . S
C733 H720 0.930 . S
C733 C732 1.376 . S
C733 C734 1.388 . S
C734 H721 0.930 . S
C734 C733 1.388 . S
C734 C735 1.390 . S
C735 C734 1.390 . S
C735 C736 1.394 . S
C735 C741 1.465 . S
C736 C731 1.399 . S
C736 C735 1.394 . S
C736 C737 1.516 . S
C737 C736 1.516 . S
C737 C738 1.502 . S
C737 C739 1.561 . S
C737 C740 1.526 . S
C738 H722 0.959 . S
C738 H723 0.959 . S
C738 H724 0.961 . S
C738 C737 1.502 . S
C739 H725 0.960 . S
C739 H726 0.961 . S
C739 H727 0.959 . S
C739 C737 1.561 . S
C740 C737 1.526 . S
C740 C741 1.396 . S
C740 C745 1.390 . S
C741 C735 1.465 . S
C741 C740 1.396 . S
C741 C742 1.399 . S
C742 H728 0.929 . S
C742 C741 1.399 . S
C742 C743 1.385 . S
C743 H729 0.931 . S
C743 C742 1.385 . S
C743 C744 1.389 . S
C744 C743 1.389 . S
C744 C745 1.387 . S
C745 H730 0.930 . S
C745 C740 1.390 . S
C745 C744 1.387 . S
H746 C758 0.930 . S
H747 C760 0.930 . S
H748 C761 0.930 . S
H749 C765 0.959 . S
H750 C765 0.959 . S
H751 C765 0.961 . S
H752 C766 0.960 . S
H753 C766 0.961 . S
H754 C766 0.959 . S
H755 C769 0.929 . S
H756 C770 0.931 . S
H757 C772 0.930 . S
C758 H746 0.930 . S
C758 C759 1.399 . S
C758 C763 1.399 . S
C759 C758 1.399 . S
C759 C760 1.376 . S
C760 H747 0.930 . S
C760 C759 1.376 . S
C760 C761 1.388 . S
C761 H748 0.930 . S
C761 C760 1.388 . S
C761 C762 1.390 . S
C762 C761 1.390 . S
C762 C763 1.394 . S
C762 C768 1.465 . S
C763 C758 1.399 . S
C763 C762 1.394 . S
C763 C764 1.516 . S
C764 C763 1.516 . S
C764 C765 1.502 . S
C764 C766 1.561 . S
C764 C767 1.526 . S
C765 H749 0.959 . S
C765 H750 0.959 . S
C765 H751 0.961 . S
C765 C764 1.502 . S
C766 H752 0.960 . S
C766 H753 0.961 . S
C766 H754 0.959 . S
C766 C764 1.561 . S
C767 C764 1.526 . S
C767 C768 1.396 . S
C767 C772 1.390 . S
C768 C762 1.465 . S
C768 C767 1.396 . S
C768 C769 1.399 . S
C769 H755 0.929 . S
C769 C768 1.399 . S
C769 C770 1.385 . S
C770 H756 0.931 . S
C770 C769 1.385 . S
C770 C771 1.389 . S
C771 C770 1.389 . S
C771 C772 1.387 . S
C772 H757 0.930 . S
C772 C767 1.390 . S
C772 C771 1.387 . S
H773 C785 0.930 . S
H774 C787 0.930 . S
H775 C788 0.930 . S
H776 C792 0.959 . S
H777 C792 0.959 . S
H778 C792 0.961 . S
H779 C793 0.960 . S
H780 C793 0.961 . S
H781 C793 0.959 . S
H782 C796 0.929 . S
H783 C797 0.931 . S
H784 C799 0.930 . S
C785 H773 0.930 . S
C785 C786 1.399 . S
C785 C790 1.399 . S
C786 C785 1.399 . S
C786 C787 1.376 . S
C787 H774 0.930 . S
C787 C786 1.376 . S
C787 C788 1.388 . S
C788 H775 0.930 . S
C788 C787 1.388 . S
C788 C789 1.390 . S
C789 C788 1.390 . S
C789 C790 1.394 . S
C789 C795 1.465 . S
C790 C785 1.399 . S
C790 C789 1.394 . S
C790 C791 1.516 . S
C791 C790 1.516 . S
C791 C792 1.502 . S
C791 C793 1.561 . S
C791 C794 1.526 . S
C792 H776 0.959 . S
C792 H777 0.959 . S
C792 H778 0.961 . S
C792 C791 1.502 . S
C793 H779 0.960 . S
C793 H780 0.961 . S
C793 H781 0.959 . S
C793 C791 1.561 . S
C794 C791 1.526 . S
C794 C795 1.396 . S
C794 C799 1.390 . S
C795 C789 1.465 . S
C795 C794 1.396 . S
C795 C796 1.399 . S
C796 H782 0.929 . S
C796 C795 1.399 . S
C796 C797 1.385 . S
C797 H783 0.931 . S
C797 C796 1.385 . S
C797 C798 1.389 . S
C798 C797 1.389 . S
C798 C799 1.387 . S
C799 H784 0.930 . S
C799 C794 1.390 . S
C799 C798 1.387 . S
C165 C5 1.439 . S
C177 C91 1.441 . S
C192 C14 1.269 . S
C204 C94 1.267 . S
C231 C130 1.773 . S
C219 C25 1.789 . S
C246 C34 1.671 . S
C258 C150 1.622 . S
C285 C104 1.584 . S
C273 C7 1.645 . S
C312 C81 1.498 . S
C300 C13 1.500 . S
C339 C134 1.568 . S
C327 C23 1.649 . S
C366 C114 1.397 . S
C354 C31 1.406 . S
C381 C4 1.328 . S
C393 C144 1.326 . S
C420 C110 1.630 . S
C408 C22 1.656 . S
C435 C32 1.609 . S
C447 C76 1.575 . S
C462 C16 1.323 . S
C474 C124 1.285 . S
C501 C90 1.441 . S
C489 C41 1.426 . S
C516 C50 1.281 . S
C528 C96 1.272 . S
C543 C61 1.787 . S
C555 C131 1.755 . S
C570 C67 1.679 . S
C582 C151 1.669 . S
C597 C40 1.655 . S
C609 C101 1.638 . S
C636 C84 1.479 . S
C624 C52 1.482 . S
C663 C136 1.520 . S
C651 C59 1.664 . S
C690 C116 1.295 . S
C678 C70 1.422 . S
C705 C43 1.318 . S
C717 C141 1.324 . S
C744 C111 1.612 . S
C732 C58 1.657 . S
C771 C74 1.582 . S
C759 C68 1.611 . S
C786 C49 1.332 . S
C798 C121 1.291 . S
