# Generated by pormake.
# Topology nom, (4,4)-cn, num edge types: 1
# Building blocks:
#     Node 0, Type 0, BuildingBlock: MUDLON_clean_linker_0, # of connection points: 4
#     Node 1, Type 0, BuildingBlock: MUDLON_clean_linker_0, # of connection points: 4
#     Node 2, Type 0, BuildingBlock: MUDLON_clean_linker_0, # of connection points: 4
#     Node 3, Type 0, BuildingBlock: MUDLON_clean_linker_0, # of connection points: 4
#     Node 4, Type 0, BuildingBlock: MUDLON_clean_linker_0, # of connection points: 4
#     Node 5, Type 0, BuildingBlock: MUDLON_clean_linker_0, # of connection points: 4
#     Node 6, Type 1, BuildingBlock: UXUYUI_clean_sbu_0, # of connection points: 4
#     Node 7, Type 1, BuildingBlock: UXUYUI_clean_sbu_0, # of connection points: 4
#     Node 8, Type 1, BuildingBlock: UXUYUI_clean_sbu_0, # of connection points: 4
#     Node 9, Type 1, BuildingBlock: UXUYUI_clean_sbu_0, # of connection points: 4
#     Node 10, Type 1, BuildingBlock: UXUYUI_clean_sbu_0, # of connection points: 4
#     Node 11, Type 1, BuildingBlock: UXUYUI_clean_sbu_0, # of connection points: 4
#     Edge 12, Type (0, 1), BuildingBlock: ZUJKAS_clean_linker_0, # of connection points: 2
#     Edge 13, Type (0, 1), BuildingBlock: ZUJKAS_clean_linker_0, # of connection points: 2
#     Edge 14, Type (0, 1), BuildingBlock: ZUJKAS_clean_linker_0, # of connection points: 2
#     Edge 15, Type (0, 1), BuildingBlock: ZUJKAS_clean_linker_0, # of connection points: 2
#     Edge 16, Type (0, 1), BuildingBlock: ZUJKAS_clean_linker_0, # of connection points: 2
#     Edge 17, Type (0, 1), BuildingBlock: ZUJKAS_clean_linker_0, # of connection points: 2
#     Edge 18, Type (0, 1), BuildingBlock: ZUJKAS_clean_linker_0, # of connection points: 2
#     Edge 19, Type (0, 1), BuildingBlock: ZUJKAS_clean_linker_0, # of connection points: 2
#     Edge 20, Type (0, 1), BuildingBlock: ZUJKAS_clean_linker_0, # of connection points: 2
#     Edge 21, Type (0, 1), BuildingBlock: ZUJKAS_clean_linker_0, # of connection points: 2
#     Edge 22, Type (0, 1), BuildingBlock: ZUJKAS_clean_linker_0, # of connection points: 2
#     Edge 23, Type (0, 1), BuildingBlock: ZUJKAS_clean_linker_0, # of connection points: 2
#     Edge 24, Type (0, 1), BuildingBlock: ZUJKAS_clean_linker_0, # of connection points: 2
#     Edge 25, Type (0, 1), BuildingBlock: ZUJKAS_clean_linker_0, # of connection points: 2
#     Edge 26, Type (0, 1), BuildingBlock: ZUJKAS_clean_linker_0, # of connection points: 2
#     Edge 27, Type (0, 1), BuildingBlock: ZUJKAS_clean_linker_0, # of connection points: 2
#     Edge 28, Type (0, 1), BuildingBlock: ZUJKAS_clean_linker_0, # of connection points: 2
#     Edge 29, Type (0, 1), BuildingBlock: ZUJKAS_clean_linker_0, # of connection points: 2
#     Edge 30, Type (0, 1), BuildingBlock: ZUJKAS_clean_linker_0, # of connection points: 2
#     Edge 31, Type (0, 1), BuildingBlock: ZUJKAS_clean_linker_0, # of connection points: 2
#     Edge 32, Type (0, 1), BuildingBlock: ZUJKAS_clean_linker_0, # of connection points: 2
#     Edge 33, Type (0, 1), BuildingBlock: ZUJKAS_clean_linker_0, # of connection points: 2
#     Edge 34, Type (0, 1), BuildingBlock: ZUJKAS_clean_linker_0, # of connection points: 2
#     Edge 35, Type (0, 1), BuildingBlock: ZUJKAS_clean_linker_0, # of connection points: 2
# Relax obj value: 0.038
# Max RMSD: 0.149
# Mean RMSD: 0.119
data_MOF--net-nom--node1-UXUYUI_clean_sbu_0--node2-MUDLON_clean_linker_0--edge1-ZUJKAS_clean_linker_0
_symmetry_space_group_name_H-M    P1
_symmetry_Int_Tables_number       1
_symmetry_cell_setting            triclinic
loop_
_symmetry_equiv_pos_as_xyz
'x, y, z'
_cell_length_a     83.954558
_cell_length_b     84.669329
_cell_length_c     84.679763
_cell_angle_alpha  90.286013
_cell_angle_beta   89.851069
_cell_angle_gamma 120.28323
loop_
_atom_site_label
_atom_site_type_symbol
_atom_site_fract_x
_atom_site_fract_y
_atom_site_fract_z
_atom_type_partial_charge
H0 H 0.10686 0.52715 0.32294 0.0
N1 N 0.08233 0.53149 0.33923 0.0
H2 H 0.13155 0.54962 0.30606 0.0
H3 H 0.08658 0.56437 0.32994 0.0
H4 H 0.11114 0.58688 0.31311 0.0
H5 H 0.08873 0.56084 0.35753 0.0
H6 H 0.10358 0.56861 0.38335 0.0
H7 H 0.08956 0.5104 0.35733 0.0
H8 H 0.10365 0.51756 0.38358 0.0
H9 H 0.06161 0.49789 0.32825 0.0
H10 H 0.05926 0.54527 0.34344 0.0
H11 H 0.02858 0.48173 0.32282 0.0
H12 H 0.02633 0.52967 0.33722 0.0
H13 H 0.92407 0.42894 0.30441 0.0
H14 H 0.90976 0.42345 0.27837 0.0
H15 H 0.93922 0.48171 0.26969 0.0
H16 H 0.95292 0.487 0.29605 0.0
H17 H 0.93633 0.48702 0.32019 0.0
H18 H 0.9108 0.48497 0.33576 0.0
H19 H 0.90242 0.43489 0.35677 0.0
H20 H 0.92746 0.43671 0.34056 0.0
H21 H 0.97356 0.46171 0.30102 0.0
H22 H 0.00657 0.4803 0.30521 0.0
H23 H 0.99699 0.50582 0.34559 0.0
N24 N 0.94629 0.46088 0.31816 0.0
H25 H 0.9641 0.48806 0.3409 0.0
C26 C 0.09496 0.54406 0.32774 0.0
C27 C 0.10754 0.54004 0.32056 0.0
C28 C 0.12158 0.55287 0.3109 0.0
C29 C 0.12335 0.57007 0.30831 0.0
C30 C 0.11026 0.57382 0.31503 0.0
C31 C 0.09614 0.56091 0.32462 0.0
C32 C 0.08827 0.5351 0.35543 0.0
C33 C 0.09176 0.55124 0.36318 0.0
C34 C 0.10017 0.55561 0.37805 0.0
C35 C 0.10508 0.54383 0.38551 0.0
C36 C 0.10049 0.52717 0.37806 0.0
C37 C 0.09227 0.52293 0.36314 0.0
C38 C 0.0629 0.52276 0.33604 0.0
C39 C 0.05393 0.50486 0.3302 0.0
C40 C 0.03507 0.49573 0.32698 0.0
C41 C 0.02472 0.50444 0.32935 0.0
C42 C 0.03379 0.52247 0.33531 0.0
C43 C 0.0527 0.53152 0.33872 0.0
C44 C 0.93956 0.45828 0.30213 0.0
C45 C 0.92755 0.44047 0.29678 0.0
C46 C 0.91948 0.43739 0.28185 0.0
C47 C 0.92335 0.45214 0.27186 0.0
C48 C 0.93573 0.47004 0.27713 0.0
C49 C 0.94369 0.4731 0.29215 0.0
C50 C 0.93359 0.46183 0.32911 0.0
C51 C 0.92908 0.47571 0.32825 0.0
C52 C 0.91456 0.47458 0.33727 0.0
C53 C 0.90436 0.45962 0.34738 0.0
C54 C 0.9097 0.44638 0.34886 0.0
C55 C 0.92411 0.44747 0.33976 0.0
C56 C 0.96594 0.47356 0.32024 0.0
C57 C 0.97849 0.47164 0.31054 0.0
C58 C 0.99746 0.48214 0.31312 0.0
C59 C 0.00455 0.49452 0.32584 0.0
C60 C 0.99211 0.49665 0.33552 0.0
C61 C 0.97307 0.48632 0.3328 0.0
H62 H 0.50473 0.92183 0.4895 0.0
N63 N 0.50272 0.949 0.47625 0.0
H64 H 0.48139 0.89709 0.50559 0.0
H65 H 0.47127 0.94709 0.48785 0.0
H66 H 0.448 0.92269 0.50433 0.0
H67 H 0.47237 0.94215 0.45896 0.0
H68 H 0.46443 0.92841 0.43266 0.0
H69 H 0.52375 0.9423 0.45716 0.0
H70 H 0.51593 0.92855 0.43072 0.0
H71 H 0.53458 0.96936 0.4908 0.0
H72 H 0.48951 0.97199 0.46933 0.0
H73 H 0.55023 0.0022 0.49627 0.0
H74 H 0.50489 0.00479 0.47495 0.0
H75 H 0.60442 0.10329 0.51131 0.0
H76 H 0.60977 0.11783 0.53735 0.0
H77 H 0.55106 0.0952 0.54303 0.0
H78 H 0.54587 0.08071 0.51701 0.0
H79 H 0.54258 0.08831 0.49091 0.0
H80 H 0.54272 0.11315 0.47615 0.0
H81 H 0.5996 0.13339 0.4632 0.0
H82 H 0.59922 0.10843 0.47788 0.0
H83 H 0.56646 0.05708 0.51663 0.0
H84 H 0.54786 0.02437 0.51257 0.0
H85 H 0.53247 0.03328 0.46631 0.0
N86 N 0.57248 0.08414 0.49621 0.0
H87 H 0.55071 0.06605 0.47036 0.0
C88 C 0.48981 0.93628 0.48752 0.0
C89 C 0.49251 0.92223 0.49297 0.0
C90 C 0.47916 0.90815 0.50221 0.0
C91 C 0.46274 0.90785 0.50626 0.0
C92 C 0.46035 0.92236 0.50126 0.0
C93 C 0.47374 0.93643 0.49194 0.0
C94 C 0.49875 0.94331 0.46 0.0
C95 C 0.48217 0.93966 0.45276 0.0
C96 C 0.47764 0.93179 0.43769 0.0
C97 C 0.48951 0.9273 0.42966 0.0
C98 C 0.50641 0.93166 0.43669 0.0
C99 C 0.51096 0.93962 0.45171 0.0
C100 C 0.51097 0.96822 0.47967 0.0
C101 C 0.52801 0.97704 0.4874 0.0
C102 C 0.53686 0.99577 0.49059 0.0
C103 C 0.52877 0.00612 0.4861 0.0
C104 C 0.51155 0.99723 0.47843 0.0
C105 C 0.50269 0.97843 0.47527 0.0
C106 C 0.57484 0.09104 0.5122 0.0
C107 C 0.59273 0.10131 0.51829 0.0
C108 C 0.59573 0.10953 0.53316 0.0
C109 C 0.58083 0.10771 0.54221 0.0
C110 C 0.56282 0.09705 0.53624 0.0
C111 C 0.55984 0.08875 0.52138 0.0
C112 C 0.57098 0.09658 0.48552 0.0
C113 C 0.55498 0.09795 0.48472 0.0
C114 C 0.5551 0.1122 0.47631 0.0
C115 C 0.57121 0.12535 0.46858 0.0
C116 C 0.58688 0.1234 0.46882 0.0
C117 C 0.58673 0.10917 0.47722 0.0
C118 C 0.55948 0.06462 0.49427 0.0
C119 C 0.55864 0.05222 0.50578 0.0
C120 C 0.54817 0.03336 0.50336 0.0
C121 C 0.53857 0.02618 0.48915 0.0
C122 C 0.53935 0.03835 0.47756 0.0
C123 C 0.54983 0.05728 0.47997 0.0
H124 H 0.50985 0.60313 0.66366 0.0
N125 N 0.50407 0.5719 0.67571 0.0
H126 H 0.48882 0.60804 0.64724 0.0
H127 H 0.47231 0.54495 0.66197 0.0
H128 H 0.45091 0.54971 0.64591 0.0
H129 H 0.47179 0.54782 0.69048 0.0
H130 H 0.46224 0.55126 0.71688 0.0
H131 H 0.52438 0.59689 0.69723 0.0
H132 H 0.51481 0.60067 0.72367 0.0
H133 H 0.53697 0.58341 0.66316 0.0
H134 H 0.48855 0.53482 0.67963 0.0
H135 H 0.55188 0.56555 0.65751 0.0
H136 H 0.50346 0.51689 0.67442 0.0
H137 H 0.59585 0.52071 0.6343 0.0
H138 H 0.60069 0.51224 0.6078 0.0
H139 H 0.54704 0.46325 0.60983 0.0
H140 H 0.54264 0.47156 0.6364 0.0
H141 H 0.5383 0.4695 0.66465 0.0
H142 H 0.53998 0.44653 0.68086 0.0
H143 H 0.59918 0.48142 0.68381 0.0
H144 H 0.59728 0.50429 0.6677 0.0
H145 H 0.58108 0.5338 0.66678 0.0
H146 H 0.56487 0.55046 0.67222 0.0
H147 H 0.51469 0.50514 0.65338 0.0
N148 N 0.56776 0.50118 0.65358 0.0
H149 H 0.53094 0.48847 0.64837 0.0
C150 C 0.49265 0.57377 0.66409 0.0
C151 C 0.49718 0.59141 0.65951 0.0
C152 C 0.48506 0.59418 0.65028 0.0
C153 C 0.46804 0.57928 0.64548 0.0
C154 C 0.46393 0.56147 0.64937 0.0
C155 C 0.47614 0.55872 0.65861 0.0
C156 C 0.49887 0.57217 0.69188 0.0
C157 C 0.48142 0.55919 0.69772 0.0
C158 C 0.47591 0.56126 0.7128 0.0
C159 C 0.4877 0.57633 0.72233 0.0
C160 C 0.50545 0.58882 0.71671 0.0
C161 C 0.51094 0.58673 0.70161 0.0
C162 C 0.51177 0.56054 0.67187 0.0
C163 C 0.52957 0.56886 0.66553 0.0
C164 C 0.53809 0.55865 0.66244 0.0
C165 C 0.52895 0.5398 0.66569 0.0
C166 C 0.51085 0.53135 0.6717 0.0
C167 C 0.50232 0.54162 0.67476 0.0
C168 C 0.56894 0.49687 0.63731 0.0
C169 C 0.58505 0.50832 0.62887 0.0
C170 C 0.58774 0.50346 0.61372 0.0
C171 C 0.57429 0.487 0.60671 0.0
C172 C 0.55779 0.47588 0.61497 0.0
C173 C 0.55516 0.48073 0.63015 0.0
C174 C 0.56775 0.48861 0.66496 0.0
C175 C 0.55158 0.47233 0.669 0.0
C176 C 0.55258 0.45916 0.67821 0.0
C177 C 0.56973 0.4621 0.68358 0.0
C178 C 0.58573 0.47879 0.68007 0.0
C179 C 0.58471 0.49186 0.67084 0.0
C180 C 0.55733 0.51 0.65713 0.0
C181 C 0.56656 0.52747 0.66393 0.0
C182 C 0.55729 0.53699 0.66689 0.0
C183 C 0.5385 0.52922 0.66307 0.0
C184 C 0.52912 0.51148 0.65655 0.0
C185 C 0.53845 0.50194 0.65361 0.0
H186 H 0.10514 0.59531 0.831 0.0
N187 N 0.08162 0.56762 0.81305 0.0
H188 H 0.13019 0.59709 0.84705 0.0
H189 H 0.08691 0.53901 0.81988 0.0
H190 H 0.11177 0.54056 0.83598 0.0
H191 H 0.08381 0.54356 0.7927 0.0
H192 H 0.09862 0.55087 0.76684 0.0
H193 H 0.09359 0.59846 0.79713 0.0
H194 H 0.10823 0.60589 0.77105 0.0
H195 H 0.0613 0.58095 0.82411 0.0
H196 H 0.05809 0.53071 0.8092 0.0
H197 H 0.0282 0.56442 0.82962 0.0
H198 H 0.0251 0.51393 0.81505 0.0
H199 H 0.92417 0.51478 0.84682 0.0
H200 H 0.90944 0.50667 0.87278 0.0
H201 H 0.93697 0.47626 0.88256 0.0
H202 H 0.95131 0.48417 0.85642 0.0
H203 H 0.93946 0.46862 0.83168 0.0
H204 H 0.91427 0.443 0.81745 0.0
H205 H 0.89717 0.47959 0.79885 0.0
H206 H 0.92249 0.50509 0.81304 0.0
H207 H 0.97297 0.52869 0.8518 0.0
H208 H 0.00597 0.5429 0.84762 0.0
H209 H 0.99621 0.51046 0.80542 0.0
N210 N 0.94546 0.50352 0.8336 0.0
H211 H 0.96328 0.49581 0.80972 0.0
C212 C 0.09421 0.56712 0.82424 0.0
C213 C 0.10631 0.58322 0.83235 0.0
C214 C 0.12057 0.58417 0.84153 0.0
C215 C 0.12304 0.56898 0.84272 0.0
C216 C 0.11037 0.55256 0.83513 0.0
C217 C 0.09606 0.55162 0.82598 0.0
C218 C 0.0876 0.57053 0.79685 0.0
C219 C 0.08873 0.55706 0.78797 0.0
C220 C 0.09721 0.56127 0.77313 0.0
C221 C 0.10475 0.57902 0.76694 0.0
C222 C 0.10281 0.59218 0.77558 0.0
C223 C 0.09432 0.58794 0.79039 0.0
C224 C 0.06218 0.55714 0.8163 0.0
C225 C 0.05343 0.56631 0.82215 0.0
C226 C 0.03455 0.5568 0.82539 0.0
C227 C 0.02397 0.53779 0.82289 0.0
C228 C 0.03279 0.52858 0.817 0.0
C229 C 0.05174 0.53816 0.81373 0.0
C230 C 0.93879 0.50012 0.84969 0.0
C231 C 0.92719 0.50658 0.85469 0.0
C232 C 0.91885 0.50197 0.86955 0.0
C233 C 0.92198 0.49076 0.87977 0.0
C234 C 0.93405 0.48469 0.8749 0.0
C235 C 0.94234 0.48927 0.85999 0.0
C236 C 0.93278 0.48878 0.82343 0.0
C237 C 0.93044 0.47114 0.82437 0.0
C238 C 0.916 0.45651 0.81627 0.0
C239 C 0.90362 0.45922 0.8071 0.0
C240 C 0.90656 0.47704 0.80563 0.0
C241 C 0.92098 0.49163 0.81374 0.0
C242 C 0.96513 0.51034 0.83164 0.0
C243 C 0.97779 0.52411 0.84188 0.0
C244 C 0.99677 0.53251 0.83934 0.0
C245 C 0.00379 0.5278 0.8262 0.0
C246 C 0.9913 0.51413 0.81586 0.0
C247 C 0.97226 0.50565 0.81842 0.0
H248 H 0.5264 0.1135 0.99232 0.0
N249 N 0.52679 0.08487 0.98014 0.0
H250 H 0.55051 0.13842 0.00778 0.0
H251 H 0.55744 0.08564 0.99231 0.0
H252 H 0.58142 0.11019 0.00832 0.0
H253 H 0.55796 0.09368 0.96317 0.0
H254 H 0.56546 0.10728 0.93695 0.0
H255 H 0.50441 0.08881 0.96053 0.0
H256 H 0.51157 0.10196 0.93397 0.0
H257 H 0.4967 0.06474 0.99706 0.0
H258 H 0.53919 0.06179 0.97087 0.0
H259 H 0.48149 0.03194 0.00231 0.0
H260 H 0.52378 0.02887 0.97554 0.0
H261 H 0.42815 0.9285 0.01157 0.0
H262 H 0.42043 0.91467 0.03777 0.0
H263 H 0.47818 0.94472 0.05046 0.0
H264 H 0.48574 0.958 0.02409 0.0
H265 H 0.48885 0.94145 0.00115 0.0
H266 H 0.48951 0.91668 0.98694 0.0
H267 H 0.43978 0.90501 0.9621 0.0
H268 H 0.43968 0.93031 0.97602 0.0
H269 H 0.44748 0.97096 0.99286 0.0
H270 H 0.46402 0.00391 0.98816 0.0
H271 H 0.51583 0.00559 0.99533 0.0
N272 N 0.46143 0.94995 0.99963 0.0
H273 H 0.49914 0.97256 0.99947 0.0
C274 C 0.54004 0.09772 0.99123 0.0
C275 C 0.53824 0.11257 0.99605 0.0
C276 C 0.55203 0.12677 0.00496 0.0
C277 C 0.56799 0.12639 0.00933 0.0
C278 C 0.56945 0.11108 0.00499 0.0
C279 C 0.55565 0.09691 0.99596 0.0
C280 C 0.53061 0.09034 0.96384 0.0
C281 C 0.54764 0.09516 0.9568 0.0
C282 C 0.55189 0.10289 0.94173 0.0
C283 C 0.53919 0.10589 0.93339 0.0
C284 C 0.5218 0.10016 0.94018 0.0
C285 C 0.5176 0.0925 0.95527 0.0
C286 C 0.51891 0.06568 0.98348 0.0
C287 C 0.50271 0.05696 0.99244 0.0
C288 C 0.49399 0.0382 0.9953 0.0
C289 C 0.50126 0.02767 0.98916 0.0
C290 C 0.51784 0.03655 0.98051 0.0
C291 C 0.52662 0.0554 0.97773 0.0
C292 C 0.45742 0.94428 0.01586 0.0
C293 C 0.43906 0.93232 0.02014 0.0
C294 C 0.4347 0.92449 0.03514 0.0
C295 C 0.4487 0.92852 0.04625 0.0
C296 C 0.46709 0.94111 0.04213 0.0
C297 C 0.47143 0.94887 0.02706 0.0
C298 C 0.46421 0.93781 0.98954 0.0
C299 C 0.47845 0.934 0.99228 0.0
C300 C 0.47866 0.91962 0.98427 0.0
C301 C 0.46458 0.90868 0.97349 0.0
C302 C 0.45097 0.91323 0.97017 0.0
C303 C 0.45084 0.92766 0.97812 0.0
C304 C 0.47197 0.96929 0.99655 0.0
C305 C 0.46241 0.97848 0.99334 0.0
C306 C 0.47191 0.99732 0.99079 0.0
C307 C 0.49129 0.00748 0.99152 0.0
C308 C 0.50092 0.99819 0.99456 0.0
C309 C 0.49135 0.97926 0.99704 0.0
H310 H 0.52401 0.43087 0.15673 0.0
N311 N 0.52658 0.45987 0.17118 0.0
H312 H 0.54747 0.42943 0.14061 0.0
H313 H 0.55877 0.48934 0.16074 0.0
H314 H 0.58236 0.48808 0.14463 0.0
H315 H 0.55751 0.48209 0.18856 0.0
H316 H 0.56474 0.47559 0.21466 0.0
H317 H 0.50401 0.43328 0.19047 0.0
H318 H 0.51076 0.427 0.21705 0.0
H319 H 0.49561 0.44928 0.1555 0.0
H320 H 0.53975 0.4958 0.17932 0.0
H321 H 0.48052 0.46693 0.15002 0.0
H322 H 0.52491 0.51373 0.17371 0.0
H323 H 0.42495 0.51158 0.13752 0.0
H324 H 0.4182 0.52025 0.11192 0.0
H325 H 0.47641 0.55765 0.10479 0.0
H326 H 0.483 0.54883 0.13035 0.0
H327 H 0.48759 0.55981 0.15649 0.0
H328 H 0.48766 0.58514 0.17062 0.0
H329 H 0.43111 0.54903 0.18465 0.0
H330 H 0.43118 0.52384 0.17045 0.0
H331 H 0.46519 0.50615 0.13051 0.0
H332 H 0.48396 0.49228 0.13444 0.0
H333 H 0.49681 0.5143 0.18175 0.0
N334 N 0.4575 0.52566 0.1518 0.0
H335 H 0.47838 0.52864 0.17787 0.0
C336 C 0.53963 0.46011 0.15998 0.0
C337 C 0.53657 0.44343 0.15384 0.0
C338 C 0.54996 0.44267 0.1446 0.0
C339 C 0.56681 0.45865 0.1414 0.0
C340 C 0.56959 0.47552 0.14704 0.0
C341 C 0.55608 0.47626 0.1562 0.0
C342 C 0.53023 0.45799 0.18747 0.0
C343 C 0.54714 0.47015 0.19472 0.0
C344 C 0.55122 0.46646 0.20977 0.0
C345 C 0.53842 0.45064 0.21795 0.0
C346 C 0.52111 0.43909 0.21098 0.0
C347 C 0.51713 0.44272 0.19587 0.0
C348 C 0.51869 0.47114 0.16781 0.0
C349 C 0.50209 0.46338 0.15941 0.0
C350 C 0.49359 0.47354 0.15622 0.0
C351 C 0.50156 0.4918 0.16136 0.0
C352 C 0.51835 0.49967 0.16969 0.0
C353 C 0.52689 0.48945 0.17285 0.0
C354 C 0.45437 0.52959 0.13588 0.0
C355 C 0.43623 0.52143 0.13029 0.0
C356 C 0.43244 0.52637 0.11567 0.0
C357 C 0.44678 0.53971 0.10638 0.0
C358 C 0.46505 0.54752 0.11178 0.0
C359 C 0.46884 0.54248 0.12638 0.0
C360 C 0.45926 0.53993 0.16235 0.0
C361 C 0.47531 0.5573 0.16278 0.0
C362 C 0.47532 0.57177 0.17084 0.0
C363 C 0.45934 0.56913 0.17864 0.0
C364 C 0.4437 0.5515 0.17891 0.0
C365 C 0.44368 0.53708 0.1708 0.0
C366 C 0.47087 0.51957 0.15349 0.0
C367 C 0.47251 0.50874 0.14159 0.0
C368 C 0.48309 0.50046 0.14391 0.0
C369 C 0.49197 0.50224 0.15838 0.0
C370 C 0.49049 0.513 0.17032 0.0
C371 C 0.47991 0.52133 0.16801 0.0
Li372 Li 0.63813 0.39512 0.42647 0.0
Li373 Li 0.63278 0.36662 0.41389 0.0
Li374 Li 0.66243 0.39622 0.40899 0.0
Li375 Li 0.63314 0.38984 0.39738 0.0
C376 C 0.6617 0.38483 0.44299 0.0
N377 N 0.68044 0.38929 0.47098 0.0
C378 C 0.65471 0.37089 0.45424 0.0
C379 C 0.67843 0.4009 0.44588 0.0
C380 C 0.66432 0.37344 0.46835 0.0
C381 C 0.68765 0.40293 0.46012 0.0
C382 C 0.59938 0.36176 0.4191 0.0
C383 C 0.57301 0.33231 0.41292 0.0
N384 N 0.56651 0.33134 0.42782 0.0
C385 C 0.59237 0.36053 0.43432 0.0
C386 C 0.58957 0.3476 0.40826 0.0
C387 C 0.57575 0.34502 0.43851 0.0
C388 C 0.62879 0.41883 0.44156 0.0
N389 N 0.63287 0.40547 0.44437 0.0
C390 C 0.62774 0.40659 0.47202 0.0
C391 C 0.63237 0.39923 0.45922 0.0
C392 C 0.62343 0.42042 0.46949 0.0
C393 C 0.62409 0.42659 0.454 0.0
H394 H 0.62901 0.42333 0.42958 0.0
H395 H 0.63523 0.38832 0.46114 0.0
C396 C 0.62528 0.33089 0.40614 0.0
N397 N 0.62276 0.34103 0.41729 0.0
C398 C 0.61895 0.31236 0.40875 0.0
C399 C 0.60741 0.31504 0.43419 0.0
C400 C 0.61394 0.33348 0.43109 0.0
C401 C 0.61006 0.30425 0.42302 0.0
H402 H 0.63253 0.33727 0.39535 0.0
H403 H 0.61217 0.34184 0.4398 0.0
C404 C 0.66388 0.43048 0.41135 0.0
N405 N 0.68867 0.46716 0.41662 0.0
C406 C 0.66812 0.4432 0.39926 0.0
C407 C 0.67202 0.4365 0.42619 0.0
C408 C 0.68076 0.46165 0.40214 0.0
C409 C 0.68457 0.45507 0.42861 0.0
C410 C 0.64571 0.37467 0.3778 0.0
C411 C 0.66083 0.38655 0.36855 0.0
C412 C 0.62954 0.36128 0.37052 0.0
C413 C 0.65944 0.38499 0.35212 0.0
C414 C 0.62868 0.36018 0.35405 0.0
N415 N 0.64352 0.37196 0.34527 0.0
C416 C 0.69557 0.39613 0.41059 0.0
C417 C 0.69865 0.42241 0.3979 0.0
C418 C 0.71415 0.40202 0.40792 0.0
N419 N 0.68822 0.40632 0.4056 0.0
C420 C 0.71732 0.42884 0.39499 0.0
C421 C 0.72528 0.41853 0.39992 0.0
H422 H 0.6869 0.38329 0.41654 0.0
H423 H 0.69241 0.43003 0.39365 0.0
C424 C 0.60402 0.38619 0.37781 0.0
N425 N 0.62265 0.39463 0.37939 0.0
C426 C 0.59624 0.39004 0.36489 0.0
C427 C 0.62697 0.41127 0.35551 0.0
C428 C 0.63414 0.40692 0.36855 0.0
C429 C 0.60778 0.40284 0.3536 0.0
H430 H 0.59519 0.37665 0.38669 0.0
H431 H 0.6489 0.41336 0.37006 0.0
O432 O 0.6525 0.38245 0.42904 0.0
O433 O 0.61573 0.37676 0.41483 0.0
O434 O 0.65149 0.41235 0.4087 0.0
O435 O 0.64668 0.37623 0.3939 0.0
H436 H 0.64194 0.35827 0.45217 0.0
H437 H 0.68442 0.41162 0.43717 0.0
H438 H 0.65897 0.36281 0.47719 0.0
H439 H 0.70058 0.41532 0.4625 0.0
H440 H 0.56535 0.3212 0.40469 0.0
H441 H 0.59971 0.37138 0.44283 0.0
H442 H 0.59478 0.34834 0.39644 0.0
H443 H 0.57021 0.34385 0.45027 0.0
H444 H 0.62755 0.40151 0.48377 0.0
H445 H 0.62058 0.43699 0.45145 0.0
H446 H 0.62152 0.30464 0.39989 0.0
H447 H 0.60043 0.30932 0.44527 0.0
H448 H 0.6618 0.43888 0.38776 0.0
H449 H 0.66851 0.42702 0.43582 0.0
H450 H 0.68426 0.47161 0.39285 0.0
H451 H 0.69098 0.45988 0.44004 0.0
H452 H 0.67345 0.39698 0.374 0.0
H453 H 0.61773 0.35194 0.37751 0.0
H454 H 0.671 0.39416 0.3448 0.0
H455 H 0.61621 0.34996 0.34826 0.0
H456 H 0.71973 0.39372 0.41207 0.0
H457 H 0.7253 0.44147 0.38853 0.0
H458 H 0.58137 0.38339 0.36394 0.0
H459 H 0.63635 0.42104 0.34698 0.0
Li460 Li 0.26706 0.64524 0.59035 0.0
Li461 Li 0.29107 0.64124 0.57886 0.0
Li462 Li 0.29007 0.66879 0.5737 0.0
Li463 Li 0.26731 0.6401 0.56227 0.0
C464 C 0.2979 0.67335 0.60553 0.0
N465 N 0.30587 0.69993 0.62817 0.0
C466 C 0.31279 0.67868 0.61578 0.0
C467 C 0.28706 0.68154 0.60678 0.0
C468 C 0.31659 0.69215 0.62716 0.0
C469 C 0.29132 0.69495 0.61831 0.0
C470 C 0.26048 0.60986 0.59057 0.0
C471 C 0.24245 0.57867 0.59947 0.0
N472 N 0.25276 0.58322 0.61287 0.0
C473 C 0.27091 0.61423 0.60443 0.0
C474 C 0.24614 0.59195 0.58806 0.0
C475 C 0.26679 0.60057 0.61556 0.0
C476 C 0.23306 0.63414 0.6049 0.0
N477 N 0.25103 0.63977 0.608 0.0
C478 C 0.24491 0.63601 0.63572 0.0
C479 C 0.25712 0.64075 0.62304 0.0
C480 C 0.22622 0.63006 0.63289 0.0
C481 C 0.22035 0.62917 0.61722 0.0
H482 H 0.22861 0.63337 0.5928 0.0
H483 H 0.27141 0.64499 0.6252 0.0
C484 C 0.32512 0.64548 0.58674 0.0
N485 N 0.30783 0.63263 0.58222 0.0
C486 C 0.33831 0.64053 0.58996 0.0
C487 C 0.31572 0.60919 0.5836 0.0
C488 C 0.30298 0.61478 0.58041 0.0
C489 C 0.33365 0.62213 0.58859 0.0
H490 H 0.32863 0.6596 0.5879 0.0
H491 H 0.28916 0.60484 0.57668 0.0
C492 C 0.25797 0.66708 0.5622 0.0
N493 N 0.24774 0.68425 0.54014 0.0
C494 C 0.26852 0.67447 0.54855 0.0
C495 C 0.24223 0.66842 0.56462 0.0
C496 C 0.26312 0.6831 0.53754 0.0
C497 C 0.23728 0.67716 0.55334 0.0
C498 C 0.29881 0.64488 0.54699 0.0
C499 C 0.31333 0.65504 0.53656 0.0
C500 C 0.28897 0.6258 0.54587 0.0
C501 C 0.3178 0.64592 0.52515 0.0
C502 C 0.29386 0.61719 0.53431 0.0
N503 N 0.30806 0.62734 0.52428 0.0
C504 C 0.32304 0.70015 0.56578 0.0
C505 C 0.29936 0.70643 0.57254 0.0
C506 C 0.33523 0.71862 0.56275 0.0
N507 N 0.30547 0.69443 0.57045 0.0
C508 C 0.31106 0.72503 0.56954 0.0
C509 C 0.32925 0.73133 0.56451 0.0
H510 H 0.32751 0.69028 0.56427 0.0
H511 H 0.28536 0.70155 0.57642 0.0
C512 C 0.23427 0.61486 0.54727 0.0
N513 N 0.2516 0.62898 0.54452 0.0
C514 C 0.22176 0.60693 0.53483 0.0
C515 C 0.24521 0.62821 0.51696 0.0
C516 C 0.25729 0.63563 0.52972 0.0
C517 C 0.22713 0.61374 0.51945 0.0
H518 H 0.23009 0.60997 0.5592 0.0
H519 H 0.27114 0.6469 0.52785 0.0
O520 O 0.29414 0.66024 0.59431 0.0
O521 O 0.26411 0.62297 0.57949 0.0
O522 O 0.26284 0.65843 0.57314 0.0
O523 O 0.29439 0.65371 0.55823 0.0
H524 H 0.32131 0.67247 0.61495 0.0
H525 H 0.27546 0.67759 0.599 0.0
H526 H 0.32807 0.6964 0.63517 0.0
H527 H 0.28304 0.7014 0.61941 0.0
H528 H 0.23138 0.56475 0.59768 0.0
H529 H 0.2821 0.62798 0.60659 0.0
H530 H 0.23794 0.58835 0.57739 0.0
H531 H 0.27475 0.60376 0.62633 0.0
H532 H 0.24996 0.63663 0.6476 0.0
H533 H 0.20611 0.6248 0.61452 0.0
H534 H 0.35204 0.65105 0.59344 0.0
H535 H 0.31144 0.59485 0.5825 0.0
H536 H 0.28075 0.67358 0.54645 0.0
H537 H 0.23391 0.66275 0.57513 0.0
H538 H 0.27116 0.68888 0.52693 0.0
H539 H 0.22512 0.67829 0.55506 0.0
H540 H 0.32107 0.66982 0.53727 0.0
H541 H 0.27766 0.61768 0.5538 0.0
H542 H 0.32901 0.65361 0.51699 0.0
H543 H 0.28637 0.60244 0.53332 0.0
H544 H 0.34907 0.72284 0.55873 0.0
H545 H 0.30597 0.7344 0.5712 0.0
H546 H 0.2079 0.59591 0.53728 0.0
H547 H 0.24996 0.63372 0.50526 0.0
Li548 Li 0.66131 0.2831 0.74215 0.0
Li549 Li 0.63183 0.25983 0.75273 0.0
Li550 Li 0.6373 0.25979 0.72414 0.0
Li551 Li 0.63227 0.28277 0.73642 0.0
C552 C 0.66284 0.25128 0.7359 0.0
N553 N 0.68687 0.24122 0.72337 0.0
C554 C 0.66298 0.23592 0.74167 0.0
C555 C 0.67489 0.2615 0.72372 0.0
C556 C 0.67525 0.23107 0.73519 0.0
C557 C 0.68693 0.2562 0.71755 0.0
C558 C 0.64346 0.28629 0.77287 0.0
C559 C 0.62635 0.28456 0.79635 0.0
N560 N 0.63956 0.28416 0.80531 0.0
C561 C 0.65693 0.28598 0.7823 0.0
C562 C 0.62809 0.28568 0.77992 0.0
C563 C 0.65468 0.28486 0.79869 0.0
C564 C 0.6945 0.31655 0.74379 0.0
N565 N 0.68693 0.29838 0.74661 0.0
C566 C 0.71553 0.30321 0.75699 0.0
C567 C 0.69697 0.29156 0.75318 0.0
C568 C 0.72377 0.32208 0.75416 0.0
C569 C 0.71299 0.32869 0.74742 0.0
H570 H 0.68604 0.32167 0.73905 0.0
H571 H 0.69053 0.27713 0.75572 0.0
C572 C 0.60338 0.23737 0.77454 0.0
N573 N 0.62134 0.24416 0.77048 0.0
C574 C 0.59589 0.22566 0.78743 0.0
C575 C 0.62549 0.22805 0.79168 0.0
C576 C 0.63241 0.23974 0.77872 0.0
C577 C 0.60698 0.22079 0.79616 0.0
H578 H 0.59481 0.24092 0.7677 0.0
H579 H 0.64665 0.24535 0.77521 0.0
C580 C 0.65119 0.29501 0.708 0.0
N581 N 0.64876 0.31201 0.68109 0.0
C582 C 0.63651 0.28558 0.69751 0.0
C583 C 0.66468 0.31308 0.70477 0.0
C584 C 0.6355 0.29441 0.68398 0.0
C585 C 0.6632 0.32144 0.69111 0.0
C586 C 0.5983 0.25443 0.7314 0.0
C587 C 0.59017 0.24744 0.7167 0.0
C588 C 0.58943 0.25994 0.74222 0.0
C589 C 0.57338 0.24625 0.71302 0.0
C590 C 0.57267 0.25854 0.7381 0.0
N591 N 0.56506 0.25179 0.7237 0.0
C592 C 0.61944 0.2266 0.70777 0.0
C593 C 0.64379 0.25041 0.69323 0.0
C594 C 0.61528 0.21445 0.69517 0.0
N595 N 0.63329 0.24424 0.70649 0.0
C596 C 0.64006 0.23875 0.6803 0.0
C597 C 0.62551 0.22052 0.68111 0.0
H598 H 0.61151 0.22203 0.71858 0.0
H599 H 0.65492 0.26446 0.69261 0.0
C600 C 0.62834 0.31319 0.74353 0.0
N601 N 0.62294 0.29911 0.73313 0.0
C602 C 0.62278 0.32608 0.7415 0.0
C603 C 0.60616 0.30976 0.71807 0.0
C604 C 0.61199 0.29719 0.72059 0.0
C605 C 0.61166 0.32454 0.72854 0.0
H606 H 0.63724 0.3146 0.7533 0.0
H607 H 0.60778 0.28594 0.71245 0.0
O608 O 0.65077 0.25606 0.74206 0.0
O609 O 0.64513 0.2868 0.75679 0.0
O610 O 0.65247 0.28658 0.7213 0.0
O611 O 0.61473 0.25568 0.7352 0.0
H612 H 0.6537 0.22783 0.75105 0.0
H613 H 0.67498 0.27343 0.71909 0.0
H614 H 0.67552 0.21922 0.73955 0.0
H615 H 0.69633 0.26399 0.70814 0.0
H616 H 0.61448 0.28398 0.80196 0.0
H617 H 0.66885 0.28634 0.77702 0.0
H618 H 0.61758 0.28598 0.77278 0.0
H619 H 0.66493 0.28448 0.80614 0.0
H620 H 0.7233 0.29748 0.76211 0.0
H621 H 0.71861 0.34316 0.74537 0.0
H622 H 0.58149 0.2202 0.79035 0.0
H623 H 0.6346 0.22486 0.79819 0.0
H624 H 0.62587 0.27166 0.69987 0.0
H625 H 0.67622 0.32057 0.71267 0.0
H626 H 0.62416 0.28728 0.67581 0.0
H627 H 0.67355 0.33542 0.68846 0.0
H628 H 0.59678 0.24306 0.70817 0.0
H629 H 0.59557 0.26552 0.75359 0.0
H630 H 0.56698 0.24093 0.70167 0.0
H631 H 0.56574 0.2629 0.74632 0.0
H632 H 0.6042 0.20044 0.69647 0.0
H633 H 0.64823 0.24409 0.66967 0.0
H634 H 0.62755 0.33738 0.74974 0.0
H635 H 0.5974 0.30791 0.70804 0.0
Li636 Li 0.38721 0.63664 0.9282 0.0
Li637 Li 0.39252 0.66436 0.91629 0.0
Li638 Li 0.36379 0.63622 0.9124 0.0
Li639 Li 0.39199 0.6395 0.90018 0.0
C640 C 0.37873 0.65888 0.94645 0.0
N641 N 0.38918 0.6777 0.97481 0.0
C642 C 0.39688 0.66646 0.95183 0.0
C643 C 0.36591 0.66089 0.95549 0.0
C644 C 0.40189 0.67592 0.96619 0.0
C645 C 0.37145 0.67044 0.9698 0.0
C646 C 0.42636 0.66623 0.91025 0.0
C647 C 0.44431 0.68791 0.88997 0.0
N648 N 0.45999 0.68991 0.89654 0.0
C649 C 0.44265 0.66847 0.91679 0.0
C650 C 0.42717 0.676 0.89671 0.0
C651 C 0.45951 0.68052 0.90969 0.0
C652 C 0.40658 0.62317 0.94477 0.0
N653 N 0.39227 0.62628 0.94609 0.0
C654 C 0.38569 0.61388 0.97215 0.0
C655 C 0.3818 0.62179 0.95939 0.0
C656 C 0.40043 0.6105 0.97116 0.0
C657 C 0.41091 0.61523 0.95719 0.0
H658 H 0.4145 0.62668 0.93395 0.0
H659 H 0.37036 0.62424 0.96006 0.0
C660 C 0.39199 0.69725 0.91655 0.0
N661 N 0.40304 0.69013 0.91931 0.0
C662 C 0.39837 0.71576 0.91943 0.0
C663 C 0.42732 0.71923 0.92824 0.0
C664 C 0.4204 0.70068 0.92515 0.0
C665 C 0.41624 0.727 0.92543 0.0
H666 H 0.37801 0.68842 0.91251 0.0
H667 H 0.42876 0.69466 0.92776 0.0
C668 C 0.36607 0.60261 0.91991 0.0
N669 N 0.35452 0.57152 0.93783 0.0
C670 C 0.37437 0.59199 0.91798 0.0
C671 C 0.35182 0.59737 0.93088 0.0
C672 C 0.36836 0.57633 0.92718 0.0
C673 C 0.34619 0.58161 0.93984 0.0
C674 C 0.3672 0.65077 0.88433 0.0
C675 C 0.35888 0.63402 0.87631 0.0
C676 C 0.36189 0.66359 0.88092 0.0
C677 C 0.34527 0.63032 0.86507 0.0
C678 C 0.34822 0.65938 0.86959 0.0
N679 N 0.34025 0.64296 0.86198 0.0
C680 C 0.33113 0.63786 0.91148 0.0
C681 C 0.32742 0.60932 0.90352 0.0
C682 C 0.31275 0.63192 0.90778 0.0
N683 N 0.33809 0.62662 0.90914 0.0
C684 C 0.30895 0.60278 0.89974 0.0
C685 C 0.30142 0.61421 0.90166 0.0
H686 H 0.34005 0.65165 0.91577 0.0
H687 H 0.33339 0.60075 0.90159 0.0
C688 C 0.41175 0.62469 0.88605 0.0
N689 N 0.40284 0.63398 0.88287 0.0
C690 C 0.4198 0.61995 0.87386 0.0
C691 C 0.40982 0.6349 0.8554 0.0
C692 C 0.40204 0.63943 0.86796 0.0
C693 C 0.41871 0.62488 0.85826 0.0
H694 H 0.41257 0.62096 0.89809 0.0
H695 H 0.39542 0.64733 0.86581 0.0
O696 O 0.37342 0.64969 0.93235 0.0
O697 O 0.40979 0.65433 0.91707 0.0
O698 O 0.3721 0.61829 0.91137 0.0
O699 O 0.38009 0.65434 0.89577 0.0
H700 H 0.40703 0.66509 0.94503 0.0
H701 H 0.35182 0.65514 0.95147 0.0
H702 H 0.41588 0.68186 0.97049 0.0
H703 H 0.36167 0.67209 0.97692 0.0
H704 H 0.44514 0.69557 0.8795 0.0
H705 H 0.44224 0.66097 0.92724 0.0
H706 H 0.41477 0.67449 0.89145 0.0
H707 H 0.47223 0.6824 0.91464 0.0
H708 H 0.37735 0.61065 0.98272 0.0
H709 H 0.42218 0.61259 0.95577 0.0
H710 H 0.3892 0.72106 0.91744 0.0
H711 H 0.44118 0.72739 0.93285 0.0
H712 H 0.3854 0.59583 0.90955 0.0
H713 H 0.34539 0.60557 0.93266 0.0
H714 H 0.37473 0.56803 0.92587 0.0
H715 H 0.33527 0.57746 0.94845 0.0
H716 H 0.36268 0.62385 0.87893 0.0
H717 H 0.36821 0.67665 0.88693 0.0
H718 H 0.33862 0.61735 0.85887 0.0
H719 H 0.34393 0.66915 0.86687 0.0
H720 H 0.30765 0.64132 0.90922 0.0
H721 H 0.30072 0.58896 0.89524 0.0
H722 H 0.42649 0.6122 0.87659 0.0
H723 H 0.40902 0.63931 0.8436 0.0
Li724 Li 0.74501 0.39602 0.07856 0.0
Li725 Li 0.7686 0.39075 0.09063 0.0
Li726 Li 0.76785 0.39559 0.06132 0.0
Li727 Li 0.74494 0.36664 0.07327 0.0
C728 C 0.77452 0.42934 0.08344 0.0
N729 N 0.77854 0.46259 0.0924 0.0
C730 C 0.77917 0.43552 0.09901 0.0
C731 C 0.77218 0.4402 0.07238 0.0
C732 C 0.78107 0.45234 0.10332 0.0
C733 C 0.77419 0.45693 0.07715 0.0
C734 C 0.73564 0.36763 0.10773 0.0
C735 C 0.73258 0.34427 0.12574 0.0
N736 N 0.72419 0.34981 0.13636 0.0
C737 C 0.72681 0.37296 0.11875 0.0
C738 C 0.73841 0.35307 0.11119 0.0
C739 C 0.72119 0.36383 0.13318 0.0
C740 C 0.71665 0.40392 0.0718 0.0
N741 N 0.72959 0.40613 0.08259 0.0
C742 C 0.71945 0.42134 0.10031 0.0
C743 C 0.73118 0.41464 0.09663 0.0
C744 C 0.70574 0.41904 0.08952 0.0
C745 C 0.70455 0.41033 0.07502 0.0
H746 H 0.71541 0.39679 0.06085 0.0
H747 H 0.74135 0.41593 0.10513 0.0
C748 C 0.8022 0.40032 0.10542 0.0
N749 N 0.7845 0.39592 0.10837 0.0
C750 C 0.81472 0.40483 0.11784 0.0
C751 C 0.79056 0.40016 0.1361 0.0
C752 C 0.77858 0.39593 0.12333 0.0
C753 C 0.8089 0.40473 0.13342 0.0
H754 H 0.8066 0.40041 0.09339 0.0
H755 H 0.76469 0.39305 0.12538 0.0
C756 C 0.73831 0.38404 0.0427 0.0
N757 N 0.73445 0.38791 0.01078 0.0
C758 C 0.73222 0.36904 0.03254 0.0
C759 C 0.74217 0.40095 0.03667 0.0
C760 C 0.73042 0.37128 0.01643 0.0
C761 C 0.74021 0.40265 0.02049 0.0
C762 C 0.77765 0.36486 0.07257 0.0
C763 C 0.78255 0.35991 0.05839 0.0
C764 C 0.7789 0.3571 0.08671 0.0
C765 C 0.7881 0.34689 0.05853 0.0
C766 C 0.78454 0.34416 0.08637 0.0
N767 N 0.78896 0.33933 0.0724 0.0
C768 C 0.79645 0.42401 0.04362 0.0
C769 C 0.7809 0.39541 0.03041 0.0
C770 C 0.80832 0.4319 0.03078 0.0
N771 N 0.78309 0.40607 0.04321 0.0
C772 C 0.79239 0.40275 0.01729 0.0
C773 C 0.80644 0.42122 0.01738 0.0
H774 H 0.79809 0.43212 0.05404 0.0
H775 H 0.7703 0.38114 0.03043 0.0
C776 C 0.71387 0.33153 0.07848 0.0
N777 N 0.7295 0.34092 0.06976 0.0
C778 C 0.70186 0.31291 0.07575 0.0
C779 C 0.72193 0.314 0.05478 0.0
C780 C 0.73366 0.33256 0.05804 0.0
C781 C 0.70571 0.30388 0.06366 0.0
H782 H 0.71054 0.33855 0.08742 0.0
H783 H 0.74576 0.34043 0.05085 0.0
O784 O 0.77243 0.41283 0.07904 0.0
O785 O 0.74135 0.37654 0.09359 0.0
O786 O 0.74038 0.38217 0.05848 0.0
O787 O 0.77228 0.37768 0.07264 0.0
H788 H 0.78113 0.42736 0.10771 0.0
H789 H 0.76886 0.43578 0.06024 0.0
H790 H 0.78454 0.45723 0.11535 0.0
H791 H 0.77232 0.46542 0.06872 0.0
H792 H 0.73466 0.33299 0.12857 0.0
H793 H 0.72437 0.38407 0.11623 0.0
H794 H 0.74472 0.34842 0.10265 0.0
H795 H 0.71444 0.36788 0.14185 0.0
H796 H 0.72105 0.42812 0.11155 0.0
H797 H 0.69401 0.40795 0.06645 0.0
H798 H 0.82874 0.40823 0.1153 0.0
H799 H 0.78564 0.40027 0.14791 0.0
H800 H 0.729 0.35582 0.03701 0.0
H801 H 0.74667 0.41263 0.04439 0.0
H802 H 0.72583 0.35981 0.00841 0.0
H803 H 0.74327 0.41568 0.01565 0.0
H804 H 0.78193 0.36595 0.04736 0.0
H805 H 0.77575 0.36116 0.09786 0.0
H806 H 0.79177 0.34282 0.04761 0.0
H807 H 0.7855 0.338 0.09723 0.0
H808 H 0.81911 0.44611 0.03151 0.0
H809 H 0.79025 0.39403 0.00716 0.0
H810 H 0.68964 0.30573 0.08302 0.0
H811 H 0.72529 0.30782 0.04507 0.0
Li812 Li 0.39233 0.76917 0.25122 0.0
Li813 Li 0.36345 0.74557 0.23916 0.0
Li814 Li 0.39313 0.74622 0.23338 0.0
Li815 Li 0.38611 0.7687 0.22211 0.0
C816 C 0.3841 0.73575 0.267 0.0
N817 N 0.3925 0.72244 0.29351 0.0
C818 C 0.37073 0.72653 0.27862 0.0
C819 C 0.40166 0.73795 0.26878 0.0
C820 C 0.37527 0.71998 0.29196 0.0
C821 C 0.40566 0.73119 0.28228 0.0
C822 C 0.35821 0.77343 0.24467 0.0
C823 C 0.32867 0.77027 0.23869 0.0
N824 N 0.32726 0.77463 0.25391 0.0
C825 C 0.35654 0.77801 0.26022 0.0
C826 C 0.34425 0.76967 0.23377 0.0
C827 C 0.34075 0.7785 0.26467 0.0
C828 C 0.41519 0.80277 0.26599 0.0
N829 N 0.40312 0.78484 0.26899 0.0
C830 C 0.4061 0.79054 0.29679 0.0
C831 C 0.39839 0.77858 0.284 0.0
C832 C 0.4186 0.80917 0.29407 0.0
C833 C 0.42314 0.81525 0.27842 0.0
H834 H 0.41856 0.80739 0.25391 0.0
H835 H 0.38839 0.76439 0.28609 0.0
C836 C 0.32666 0.71765 0.23237 0.0
N837 N 0.33792 0.72977 0.24347 0.0
C838 C 0.30816 0.70536 0.23588 0.0
C839 C 0.31317 0.71851 0.26207 0.0
C840 C 0.33156 0.73043 0.25808 0.0
C841 C 0.30122 0.70556 0.25097 0.0
H842 H 0.33214 0.71725 0.2209 0.0
H843 H 0.34086 0.74009 0.26673 0.0
C844 C 0.42771 0.78079 0.23347 0.0
N845 N 0.4656 0.79624 0.23443 0.0
C846 C 0.43825 0.78834 0.21984 0.0
C847 C 0.4365 0.78138 0.24764 0.0
C848 C 0.45737 0.79601 0.22055 0.0
C849 C 0.45565 0.78917 0.24787 0.0
C850 C 0.37016 0.73988 0.20282 0.0
C851 C 0.38094 0.73519 0.19351 0.0
C852 C 0.35692 0.74286 0.19569 0.0
C853 C 0.37844 0.7338 0.17715 0.0
C854 C 0.35486 0.74137 0.17929 0.0
N855 N 0.36558 0.73692 0.17044 0.0
C856 C 0.39289 0.71318 0.23378 0.0
C857 C 0.42029 0.73736 0.22277 0.0
C858 C 0.39904 0.70085 0.23101 0.0
N859 N 0.40351 0.73103 0.22965 0.0
C860 C 0.42702 0.72553 0.21983 0.0
C861 C 0.4163 0.70695 0.22388 0.0
H862 H 0.37951 0.70848 0.23908 0.0
H863 H 0.42838 0.7515 0.21934 0.0
C864 C 0.38451 0.79644 0.205 0.0
N865 N 0.39034 0.78411 0.20437 0.0
C866 C 0.38825 0.80859 0.19254 0.0
C867 C 0.40377 0.79498 0.17895 0.0
C868 C 0.39981 0.78319 0.1917 0.0
C869 C 0.39812 0.80804 0.17931 0.0
H870 H 0.37726 0.7971 0.21532 0.0
H871 H 0.4045 0.77342 0.19157 0.0
O872 O 0.37983 0.7422 0.25385 0.0
O873 O 0.37344 0.77264 0.24015 0.0
O874 O 0.40896 0.77333 0.23297 0.0
O875 O 0.37252 0.74146 0.21883 0.0
H876 H 0.35701 0.72451 0.27738 0.0
H877 H 0.41203 0.7446 0.25975 0.0
H878 H 0.36509 0.71292 0.30108 0.0
H879 H 0.41921 0.73283 0.2838 0.0
H880 H 0.31771 0.76727 0.2304 0.0
H881 H 0.36724 0.78101 0.2688 0.0
H882 H 0.34539 0.7662 0.22167 0.0
H883 H 0.33922 0.78192 0.27669 0.0
H884 H 0.40198 0.78536 0.30867 0.0
H885 H 0.4328 0.82947 0.27582 0.0
H886 H 0.29955 0.69546 0.22702 0.0
H887 H 0.30842 0.71937 0.27376 0.0
H888 H 0.43175 0.7882 0.20881 0.0
H889 H 0.42869 0.77607 0.2584 0.0
H890 H 0.46567 0.80178 0.21007 0.0
H891 H 0.46261 0.78967 0.25876 0.0
H892 H 0.39121 0.73278 0.19884 0.0
H893 H 0.34841 0.74641 0.20274 0.0
H894 H 0.38675 0.73028 0.16978 0.0
H895 H 0.34474 0.74376 0.17361 0.0
H896 H 0.39013 0.68662 0.23408 0.0
H897 H 0.44047 0.7309 0.21444 0.0
H898 H 0.38388 0.81859 0.19347 0.0
H899 H 0.41119 0.79387 0.16893 0.0
H900 H 0.13865 0.5666 0.28081 0.0
H901 H 0.16738 0.58966 0.26833 0.0
H902 H 0.17368 0.6289 0.30405 0.0
H903 H 0.14497 0.60602 0.31649 0.0
H904 H 0.18284 0.64406 0.2742 0.0
H905 H 0.2175 0.60444 0.28747 0.0
H906 H 0.19685 0.59232 0.27589 0.0
H907 H 0.1955 0.5988 0.29589 0.0
C908 C 0.14613 0.58018 0.28594 0.0
C909 C 0.13961 0.58445 0.2997 0.0
C910 C 0.16254 0.59332 0.27883 0.0
C911 C 0.17284 0.61088 0.28544 0.0
C912 C 0.16597 0.61541 0.29877 0.0
H913 H 0.28875 0.68766 0.27908 0.0
H914 H 0.25719 0.66523 0.2864 0.0
C915 C 0.14951 0.60233 0.30583 0.0
C916 C 0.19119 0.62434 0.279 0.0
H917 H 0.23471 0.63179 0.2732 0.0
C918 C 0.19418 0.64138 0.2739 0.0
C919 C 0.20601 0.62087 0.27883 0.0
C920 C 0.20393 0.6032 0.28494 0.0
C921 C 0.21164 0.6551 0.26873 0.0
C922 C 0.22639 0.65154 0.2684 0.0
C923 C 0.22334 0.63444 0.27336 0.0
C924 C 0.24539 0.66566 0.26383 0.0
C925 C 0.21428 0.67349 0.26419 0.0
C926 C 0.24929 0.67334 0.24867 0.0
C927 C 0.26736 0.68641 0.24449 0.0
C928 C 0.28189 0.69192 0.25537 0.0
C929 C 0.27789 0.68405 0.2705 0.0
C930 C 0.25986 0.67108 0.27467 0.0
H931 H 0.20291 0.6754 0.26866 0.0
H932 H 0.22756 0.68476 0.26882 0.0
H933 H 0.21454 0.67455 0.25112 0.0
H934 H 0.23839 0.6691 0.24001 0.0
H935 H 0.26992 0.69225 0.23277 0.0
H936 H 0.58793 0.14232 0.44082 0.0
H937 H 0.59275 0.17153 0.43087 0.0
H938 H 0.56188 0.17502 0.47015 0.0
H939 H 0.55715 0.14598 0.48027 0.0
H940 H 0.55393 0.18557 0.44043 0.0
H941 H 0.62908 0.22014 0.45328 0.0
H942 H 0.62021 0.20017 0.4409 0.0
H943 H 0.61282 0.19793 0.4611 0.0
C944 C 0.58211 0.14927 0.44731 0.0
C945 C 0.57227 0.14186 0.46141 0.0
C946 C 0.58486 0.16594 0.4416 0.0
C947 C 0.5779 0.17554 0.44991 0.0
C948 C 0.56737 0.16781 0.46357 0.0
H949 H 0.61361 0.29017 0.45088 0.0
H950 H 0.6048 0.25854 0.45661 0.0
C951 C 0.56461 0.15116 0.46929 0.0
C952 C 0.58238 0.19408 0.4449 0.0
H953 H 0.61814 0.23794 0.44131 0.0
C954 C 0.56796 0.19702 0.44053 0.0
C955 C 0.60069 0.20901 0.44526 0.0
C956 C 0.61661 0.20679 0.45051 0.0
C957 C 0.57139 0.21455 0.4365 0.0
C958 C 0.58973 0.22944 0.43673 0.0
C959 C 0.60412 0.22646 0.44106 0.0
C960 C 0.59427 0.24839 0.43319 0.0
C961 C 0.55536 0.21713 0.43246 0.0
C962 C 0.5913 0.25317 0.41809 0.0
C963 C 0.59625 0.27127 0.41479 0.0
C964 C 0.60428 0.28489 0.42653 0.0
C965 C 0.60718 0.27998 0.44164 0.0
C966 C 0.60227 0.26194 0.44491 0.0
H967 H 0.54195 0.20518 0.43603 0.0
H968 H 0.55686 0.22959 0.4383 0.0
H969 H 0.55504 0.21888 0.41951 0.0
H970 H 0.58539 0.24297 0.40881 0.0
H971 H 0.59374 0.27458 0.40306 0.0
H972 H 0.45911 0.60529 0.65263 0.0
H973 H 0.43616 0.61058 0.64003 0.0
H974 H 0.42236 0.5659 0.6078 0.0
H975 H 0.44547 0.56048 0.62041 0.0
H976 H 0.43404 0.61921 0.6088 0.0
H977 H 0.37207 0.55349 0.62593 0.0
H978 H 0.39438 0.56152 0.63485 0.0
H979 H 0.38967 0.55163 0.61541 0.0
C980 C 0.45136 0.59668 0.64276 0.0
C981 C 0.4542 0.58251 0.63747 0.0
C982 C 0.43816 0.59966 0.63562 0.0
C983 C 0.42742 0.58853 0.62309 0.0
C984 C 0.43027 0.57444 0.61765 0.0
H985 H 0.33953 0.5965 0.57377 0.0
H986 H 0.36227 0.58759 0.58066 0.0
C987 C 0.44349 0.57139 0.62484 0.0
C988 C 0.41344 0.592 0.61577 0.0
H989 H 0.36702 0.57407 0.61113 0.0
C990 C 0.4194 0.60929 0.6092 0.0
C991 C 0.39434 0.579 0.61626 0.0
C992 C 0.38713 0.56041 0.62358 0.0
C993 C 0.40676 0.61409 0.60344 0.0
C994 C 0.38767 0.60134 0.60443 0.0
C995 C 0.3817 0.5838 0.61043 0.0
C996 C 0.37373 0.60644 0.6003 0.0
C997 C 0.41393 0.63286 0.59649 0.0
C998 C 0.37246 0.61973 0.60926 0.0
C999 C 0.35942 0.62472 0.60549 0.0
C1000 C 0.34734 0.61652 0.59265 0.0
C1001 C 0.3485 0.60299 0.58381 0.0
C1002 C 0.36153 0.59794 0.58766 0.0
H1003 H 0.4286 0.63912 0.59284 0.0
H1004 H 0.40559 0.63225 0.5861 0.0
H1005 H 0.41296 0.6419 0.60549 0.0
H1006 H 0.38152 0.62618 0.61926 0.0
H1007 H 0.35866 0.63485 0.6128 0.0
H1008 H 0.88077 0.42611 0.82072 0.0
H1009 H 0.85161 0.40127 0.81045 0.0
H1010 H 0.85879 0.43203 0.76796 0.0
H1011 H 0.88827 0.45677 0.77796 0.0
H1012 H 0.82146 0.40535 0.80288 0.0
H1013 H 0.8436 0.38072 0.75106 0.0
H1014 H 0.85933 0.3945 0.76653 0.0
H1015 H 0.85259 0.40499 0.7516 0.0
C1016 C 0.87641 0.42741 0.80901 0.0
C1017 C 0.88689 0.44342 0.80014 0.0
C1018 C 0.85967 0.41325 0.80321 0.0
C1019 C 0.85312 0.41473 0.78839 0.0
C1020 C 0.86373 0.43047 0.77932 0.0
H1021 H 0.74989 0.35192 0.73789 0.0
H1022 H 0.78134 0.37404 0.74627 0.0
C1023 C 0.88048 0.44468 0.78512 0.0
C1024 C 0.83452 0.40048 0.78304 0.0
H1025 H 0.81142 0.36943 0.7537 0.0
C1026 C 0.81926 0.39739 0.79219 0.0
C1027 C 0.83172 0.39024 0.76903 0.0
C1028 C 0.84767 0.39262 0.75903 0.0
C1029 C 0.80121 0.38455 0.78758 0.0
C1030 C 0.79838 0.37424 0.77359 0.0
C1031 C 0.81365 0.37732 0.76443 0.0
C1032 C 0.77963 0.36035 0.76825 0.0
C1033 C 0.78531 0.38248 0.7975 0.0
C1034 C 0.76838 0.34514 0.77769 0.0
C1035 C 0.75036 0.33258 0.77301 0.0
C1036 C 0.74327 0.33491 0.75872 0.0
C1037 C 0.7548 0.34989 0.74908 0.0
C1038 C 0.77282 0.36246 0.75378 0.0
H1039 H 0.7895 0.39448 0.80538 0.0
H1040 H 0.77372 0.3807 0.78996 0.0
H1041 H 0.78024 0.37018 0.80504 0.0
H1042 H 0.77348 0.3431 0.78877 0.0
H1043 H 0.74184 0.3213 0.78079 0.0
H1044 H 0.47109 0.88406 0.98868 0.0
H1045 H 0.46552 0.85454 0.97897 0.0
H1046 H 0.44757 0.86422 0.93424 0.0
H1047 H 0.45386 0.8942 0.94363 0.0
H1048 H 0.43178 0.82646 0.97001 0.0
H1049 H 0.48142 0.84532 0.92044 0.0
H1050 H 0.48323 0.86166 0.93515 0.0
H1051 H 0.4669 0.8552 0.91927 0.0
C1052 C 0.46649 0.88021 0.9766 0.0
C1053 C 0.463 0.89159 0.96692 0.0
C1054 C 0.46315 0.86322 0.97112 0.0
C1055 C 0.45629 0.85723 0.95583 0.0
C1056 C 0.45319 0.86869 0.94598 0.0
H1057 H 0.41199 0.75199 0.90825 0.0
H1058 H 0.42191 0.78372 0.91544 0.0
C1059 C 0.45659 0.88575 0.95144 0.0
C1060 C 0.451 0.8384 0.95076 0.0
H1061 H 0.45876 0.81379 0.92282 0.0
C1062 C 0.43777 0.8237 0.95975 0.0
C1063 C 0.45873 0.83483 0.9373 0.0
C1064 C 0.47348 0.85007 0.92754 0.0
C1065 C 0.43194 0.80554 0.95558 0.0
C1066 C 0.43972 0.80197 0.94218 0.0
C1067 C 0.45285 0.81661 0.9331 0.0
C1068 C 0.43443 0.78305 0.93753 0.0
C1069 C 0.41727 0.79028 0.9654 0.0
C1070 C 0.43846 0.77231 0.94746 0.0
C1071 C 0.43277 0.75421 0.94343 0.0
C1072 C 0.42297 0.7465 0.92935 0.0
C1073 C 0.4193 0.75745 0.91927 0.0
C1074 C 0.42506 0.77559 0.9233 0.0
H1075 H 0.40971 0.7951 0.97295 0.0
H1076 H 0.40718 0.77895 0.95775 0.0
H1077 H 0.42385 0.78473 0.97323 0.0
H1078 H 0.44586 0.7779 0.95842 0.0
H1079 H 0.43568 0.74612 0.95152 0.0
H1080 H 0.5643 0.43838 0.1152 0.0
H1081 H 0.58838 0.43344 0.10401 0.0
H1082 H 0.62721 0.47075 0.13828 0.0
H1083 H 0.60327 0.47583 0.14946 0.0
H1084 H 0.64257 0.4747 0.10829 0.0
H1085 H 0.60505 0.40201 0.12713 0.0
H1086 H 0.59206 0.40834 0.1145 0.0
H1087 H 0.59871 0.41834 0.13386 0.0
C1088 C 0.57801 0.44562 0.12027 0.0
C1089 C 0.58184 0.45738 0.1333 0.0
C1090 C 0.59173 0.44276 0.11389 0.0
C1091 C 0.60947 0.45145 0.12052 0.0
C1092 C 0.61359 0.46387 0.13301 0.0
H1093 H 0.68939 0.41639 0.11814 0.0
H1094 H 0.66684 0.42541 0.12491 0.0
C1095 C 0.5999 0.46681 0.13935 0.0
C1096 C 0.6235 0.44692 0.11504 0.0
H1097 H 0.6324 0.41185 0.11251 0.0
C1098 C 0.64036 0.46096 0.10914 0.0
C1099 C 0.62065 0.42902 0.11641 0.0
C1100 C 0.60323 0.41357 0.12345 0.0
C1101 C 0.65447 0.45757 0.10456 0.0
C1102 C 0.65149 0.4396 0.1057 0.0
C1103 C 0.63461 0.42558 0.11156 0.0
C1104 C 0.66591 0.43508 0.10152 0.0
C1105 C 0.67262 0.47333 0.09901 0.0
C1106 C 0.67291 0.43752 0.0861 0.0
C1107 C 0.68602 0.43256 0.08221 0.0
C1108 C 0.69228 0.42495 0.09366 0.0
C1109 C 0.68519 0.42253 0.10909 0.0
C1110 C 0.67216 0.42754 0.11296 0.0
H1111 H 0.67427 0.48674 0.1025 0.0
H1112 H 0.68439 0.47237 0.10385 0.0
H1113 H 0.67326 0.47294 0.08593 0.0
H1114 H 0.66804 0.443 0.077 0.0
H1115 H 0.69127 0.43472 0.07024 0.0
H1116 H 0.46601 0.88819 0.53046 0.0
H1117 H 0.44177 0.85952 0.54173 0.0
H1118 H 0.40124 0.86278 0.51295 0.0
H1119 H 0.42547 0.89095 0.50104 0.0
H1120 H 0.40961 0.84974 0.55804 0.0
H1121 H 0.39437 0.81338 0.50039 0.0
H1122 H 0.41439 0.83567 0.50346 0.0
H1123 H 0.39215 0.83338 0.50023 0.0
C1124 C 0.45195 0.88279 0.52648 0.0
C1125 C 0.44776 0.89178 0.51467 0.0
C1126 C 0.43809 0.86647 0.53303 0.0
C1127 C 0.41977 0.85881 0.52793 0.0
C1128 C 0.41536 0.86824 0.5168 0.0
H1129 H 0.32126 0.75407 0.54787 0.0
H1130 H 0.3425 0.7858 0.54015 0.0
C1131 C 0.42922 0.8845 0.51016 0.0
C1132 C 0.40546 0.84063 0.53382 0.0
H1133 H 0.37515 0.79695 0.52182 0.0
C1134 C 0.40206 0.83819 0.55013 0.0
C1135 C 0.39567 0.82556 0.52347 0.0
C1136 C 0.39941 0.82702 0.50593 0.0
C1137 C 0.38903 0.82111 0.55635 0.0
C1138 C 0.37932 0.80609 0.546 0.0
C1139 C 0.38256 0.80855 0.5297 0.0
C1140 C 0.3662 0.78747 0.55181 0.0
C1141 C 0.38567 0.81927 0.57393 0.0
C1142 C 0.37251 0.77794 0.56093 0.0
C1143 C 0.36044 0.75983 0.56534 0.0
C1144 C 0.34182 0.75091 0.56069 0.0
C1145 C 0.33547 0.76063 0.5518 0.0
C1146 C 0.34759 0.77871 0.54732 0.0
H1147 H 0.39077 0.83278 0.57973 0.0
H1148 H 0.37074 0.81045 0.57655 0.0
H1149 H 0.39305 0.81279 0.57919 0.0
H1150 H 0.3869 0.78436 0.56431 0.0
H1151 H 0.36571 0.75275 0.57229 0.0
H1152 H 0.55183 0.42564 0.67627 0.0
H1153 H 0.55727 0.40217 0.6873 0.0
H1154 H 0.59696 0.44173 0.7198 0.0
H1155 H 0.59153 0.46532 0.70887 0.0
H1156 H 0.61062 0.42352 0.70271 0.0
H1157 H 0.54301 0.37398 0.72878 0.0
H1158 H 0.54136 0.37967 0.70869 0.0
H1159 H 0.5491 0.39707 0.72374 0.0
C1160 C 0.56134 0.42925 0.68606 0.0
C1161 C 0.57126 0.44737 0.69168 0.0
C1162 C 0.56443 0.4158 0.69236 0.0
C1163 C 0.57738 0.42015 0.70448 0.0
C1164 C 0.58687 0.43807 0.71047 0.0
H1165 H 0.60003 0.34081 0.75016 0.0
H1166 H 0.59199 0.36449 0.74531 0.0
C1167 C 0.5838 0.45154 0.70418 0.0
C1168 C 0.58229 0.40648 0.70981 0.0
H1169 H 0.56426 0.3633 0.72456 0.0
C1170 C 0.60052 0.41043 0.70765 0.0
C1171 C 0.56915 0.38947 0.71637 0.0
C1172 C 0.5496 0.38483 0.71969 0.0
C1173 C 0.60582 0.39761 0.71137 0.0
C1174 C 0.59248 0.38028 0.71721 0.0
C1175 C 0.5744 0.37654 0.71992 0.0
C1176 C 0.59699 0.36575 0.72015 0.0
C1177 C 0.62567 0.4027 0.70898 0.0
C1178 C 0.60221 0.35847 0.70758 0.0
C1179 C 0.60684 0.34502 0.7103 0.0
C1180 C 0.60629 0.33853 0.72567 0.0
C1181 C 0.60081 0.34569 0.73823 0.0
C1182 C 0.59611 0.35912 0.73547 0.0
H1183 H 0.63497 0.41776 0.70841 0.0
H1184 H 0.6304 0.39723 0.71866 0.0
H1185 H 0.62692 0.39672 0.69768 0.0
H1186 H 0.60275 0.36325 0.69564 0.0
H1187 H 0.61115 0.33994 0.7004 0.0
H1188 H 0.14538 0.55619 0.83259 0.0
H1189 H 0.17437 0.56179 0.84431 0.0
H1190 H 0.1678 0.59226 0.88218 0.0
H1191 H 0.13853 0.58637 0.87072 0.0
H1192 H 0.20497 0.59754 0.84926 0.0
H1193 H 0.18198 0.55796 0.90509 0.0
H1194 H 0.16655 0.55365 0.8887 0.0
H1195 H 0.17303 0.57294 0.90149 0.0
C1196 C 0.14984 0.56368 0.84363 0.0
C1197 C 0.13961 0.5708 0.85075 0.0
C1198 C 0.16647 0.56698 0.85024 0.0
C1199 C 0.17314 0.5773 0.86417 0.0
C1200 C 0.16276 0.58402 0.87155 0.0
H1201 H 0.276 0.62062 0.91635 0.0
H1202 H 0.2449 0.61169 0.90728 0.0
C1203 C 0.14613 0.58079 0.86492 0.0
C1204 C 0.19163 0.58223 0.87021 0.0
H1205 H 0.21421 0.57745 0.90167 0.0
C1206 C 0.207 0.59308 0.86068 0.0
C1207 C 0.1942 0.57652 0.88518 0.0
C1208 C 0.17809 0.5645 0.8957 0.0
C1209 C 0.22495 0.59856 0.86577 0.0
C1210 C 0.22755 0.59266 0.88065 0.0
C1211 C 0.21217 0.5819 0.89024 0.0
C1212 C 0.24615 0.59752 0.8864 0.0
C1213 C 0.24098 0.61097 0.85529 0.0
C1214 C 0.25704 0.59224 0.87783 0.0
C1215 C 0.27487 0.59749 0.88286 0.0
C1216 C 0.28213 0.60798 0.89671 0.0
C1217 C 0.27097 0.61281 0.90551 0.0
C1218 C 0.25314 0.6076 0.90042 0.0
H1219 H 0.23711 0.61827 0.84663 0.0
H1220 H 0.25284 0.62126 0.86238 0.0
H1221 H 0.24552 0.60265 0.84857 0.0
H1222 H 0.25179 0.58416 0.86714 0.0
H1223 H 0.2831 0.59367 0.8757 0.0
H1224 H 0.56595 0.14841 0.03222 0.0
H1225 H 0.59107 0.17715 0.04262 0.0
H1226 H 0.63033 0.16922 0.01595 0.0
H1227 H 0.60522 0.14104 0.00472 0.0
H1228 H 0.62169 0.18667 0.05972 0.0
H1229 H 0.64147 0.21861 0.00043 0.0
H1230 H 0.62065 0.19706 0.00374 0.0
H1231 H 0.64251 0.19805 0.00215 0.0
C1232 C 0.57991 0.15281 0.02847 0.0
C1233 C 0.58347 0.1425 0.0174 0.0
C1234 C 0.59428 0.16918 0.03454 0.0
C1235 C 0.61255 0.17558 0.02977 0.0
C1236 C 0.6163 0.16481 0.01948 0.0
H1237 H 0.71357 0.27746 0.054 0.0
H1238 H 0.69171 0.24577 0.04645 0.0
C1239 C 0.60191 0.14852 0.01325 0.0
C1240 C 0.62747 0.19382 0.03515 0.0
H1241 H 0.66016 0.236 0.02187 0.0
C1242 C 0.63012 0.19743 0.05144 0.0
C1243 C 0.63841 0.20792 0.02432 0.0
C1244 C 0.63554 0.20532 0.00669 0.0
C1245 C 0.64338 0.21474 0.05717 0.0
C1246 C 0.65424 0.22874 0.04635 0.0
C1247 C 0.65185 0.22511 0.0301 0.0
C1248 C 0.66745 0.24757 0.05162 0.0
C1249 C 0.64568 0.21809 0.07474 0.0
C1250 C 0.66097 0.25902 0.05691 0.0
C1251 C 0.67337 0.2772 0.06097 0.0
C1252 C 0.69254 0.28428 0.05989 0.0
C1253 C 0.69894 0.2726 0.05477 0.0
C1254 C 0.68649 0.25445 0.05057 0.0
H1255 H 0.63823 0.20518 0.08156 0.0
H1256 H 0.66052 0.22519 0.07797 0.0
H1257 H 0.64022 0.22712 0.07824 0.0
H1258 H 0.64629 0.25398 0.05757 0.0
H1259 H 0.66787 0.28581 0.06453 0.0
H1260 H 0.47198 0.60263 0.16525 0.0
H1261 H 0.46725 0.62736 0.17451 0.0
H1262 H 0.43892 0.59583 0.21568 0.0
H1263 H 0.44387 0.57109 0.20664 0.0
H1264 H 0.43106 0.62203 0.17991 0.0
H1265 H 0.47535 0.64781 0.2334 0.0
H1266 H 0.47875 0.63478 0.21816 0.0
H1267 H 0.46034 0.62343 0.23215 0.0
C1268 C 0.46517 0.60113 0.17649 0.0
C1269 C 0.45833 0.5849 0.18524 0.0
C1270 C 0.46237 0.61523 0.1817 0.0
C1271 C 0.45287 0.61347 0.19582 0.0
C1272 C 0.44652 0.59755 0.20485 0.0
H1273 H 0.41231 0.67825 0.24183 0.0
H1274 H 0.42132 0.65573 0.23498 0.0
C1275 C 0.44922 0.58338 0.19961 0.0
C1276 C 0.44826 0.62761 0.20038 0.0
H1277 H 0.45534 0.6594 0.22865 0.0
C1278 C 0.43644 0.63029 0.19051 0.0
C1279 C 0.45517 0.63819 0.2143 0.0
C1280 C 0.46822 0.63608 0.2251 0.0
C1281 C 0.43111 0.64312 0.19429 0.0
C1282 C 0.4382 0.6539 0.20811 0.0
C1283 C 0.44998 0.65118 0.21803 0.0
C1284 C 0.4334 0.66799 0.21249 0.0
C1285 C 0.41756 0.64464 0.18363 0.0
C1286 C 0.43753 0.68256 0.20227 0.0
C1287 C 0.43218 0.6953 0.20604 0.0
C1288 C 0.42278 0.69388 0.22023 0.0
C1289 C 0.41921 0.67958 0.23068 0.0
C1290 C 0.42449 0.66678 0.22685 0.0
H1291 H 0.40963 0.63216 0.17627 0.0
H1292 H 0.40767 0.64694 0.19058 0.0
H1293 H 0.4252 0.6564 0.17556 0.0
H1294 H 0.44473 0.68397 0.19127 0.0
H1295 H 0.43504 0.70602 0.19764 0.0
H1296 H 0.89844 0.48574 0.36122 0.0
H1297 H 0.8697 0.48136 0.37283 0.0
H1298 H 0.84328 0.42354 0.36313 0.0
H1299 H 0.87163 0.42776 0.35129 0.0
H1300 H 0.83498 0.46628 0.35734 0.0
H1301 H 0.83091 0.42566 0.40989 0.0
H1302 H 0.85202 0.4391 0.39894 0.0
H1303 H 0.83476 0.41695 0.39179 0.0
C1304 C 0.88652 0.47209 0.36159 0.0
C1305 C 0.88743 0.45708 0.35542 0.0
C1306 C 0.87015 0.46961 0.36829 0.0
C1307 C 0.85447 0.45209 0.36907 0.0
C1308 C 0.85535 0.43711 0.36301 0.0
H1309 H 0.73953 0.39749 0.38978 0.0
H1310 H 0.77158 0.40735 0.38334 0.0
C1311 C 0.87163 0.43956 0.35627 0.0
C1312 C 0.83679 0.44941 0.37535 0.0
H1313 H 0.80309 0.42495 0.40241 0.0
C1314 C 0.8281 0.45748 0.36735 0.0
C1315 C 0.82788 0.43791 0.38839 0.0
C1316 C 0.83693 0.42953 0.39786 0.0
C1317 C 0.8103 0.45363 0.37156 0.0
C1318 C 0.80114 0.44165 0.38429 0.0
C1319 C 0.81011 0.43408 0.39262 0.0
C1320 C 0.78184 0.43593 0.38858 0.0
C1321 C 0.80111 0.46173 0.36189 0.0
C1322 C 0.77701 0.4487 0.39384 0.0
C1323 C 0.75866 0.44309 0.39758 0.0
C1324 C 0.74485 0.42457 0.39624 0.0
C1325 C 0.74984 0.41181 0.39115 0.0
C1326 C 0.76814 0.41743 0.3874 0.0
H1327 H 0.80839 0.46742 0.35053 0.0
H1328 H 0.78655 0.45129 0.35931 0.0
H1329 H 0.80115 0.47299 0.36867 0.0
H1330 H 0.78743 0.46299 0.39514 0.0
H1331 H 0.75532 0.45321 0.40168 0.0
H1332 H 0.13336 0.53824 0.39368 0.0
H1333 H 0.15238 0.54858 0.41738 0.0
H1334 H 0.12188 0.57375 0.43428 0.0
H1335 H 0.10207 0.5626 0.41093 0.0
H1336 H 0.17495 0.58322 0.42655 0.0
H1337 H 0.12271 0.54661 0.47316 0.0
H1338 H 0.11805 0.54086 0.45249 0.0
H1339 H 0.11717 0.56012 0.46052 0.0
C1340 C 0.13032 0.54554 0.4026 0.0
C1341 C 0.11603 0.54943 0.4004 0.0
C1342 C 0.14136 0.55162 0.4161 0.0
C1343 C 0.13844 0.56176 0.42771 0.0
C1344 C 0.12416 0.56562 0.42564 0.0
H1345 H 0.22124 0.63242 0.49615 0.0
H1346 H 0.19959 0.61981 0.47408 0.0
C1347 C 0.11299 0.55944 0.41217 0.0
C1348 C 0.15105 0.5691 0.44149 0.0
H1349 H 0.15247 0.5697 0.48181 0.0
C1350 C 0.17004 0.58021 0.43863 0.0
C1351 C 0.14465 0.56499 0.45725 0.0
C1352 C 0.12456 0.55235 0.46108 0.0
C1353 C 0.18278 0.58745 0.45107 0.0
C1354 C 0.17633 0.58387 0.46684 0.0
C1355 C 0.15737 0.57258 0.46972 0.0
C1356 C 0.18909 0.59154 0.48048 0.0
C1357 C 0.20307 0.59855 0.44717 0.0
C1358 C 0.18997 0.57986 0.49171 0.0
C1359 C 0.20225 0.58704 0.50441 0.0
C1360 C 0.21388 0.60605 0.50611 0.0
C1361 C 0.21273 0.61771 0.49498 0.0
C1362 C 0.20038 0.61053 0.48236 0.0
H1363 H 0.20597 0.59568 0.43502 0.0
H1364 H 0.20761 0.61332 0.44791 0.0
H1365 H 0.21142 0.59573 0.45562 0.0
H1366 H 0.18134 0.56516 0.49051 0.0
H1367 H 0.20288 0.5777 0.51274 0.0
H1368 H 0.60454 0.111 0.56586 0.0
H1369 H 0.61148 0.12907 0.5902 0.0
H1370 H 0.57178 0.14485 0.57737 0.0
H1371 H 0.56498 0.12707 0.55291 0.0
H1372 H 0.60772 0.17439 0.58613 0.0
H1373 H 0.57856 0.11826 0.63023 0.0
H1374 H 0.59384 0.11732 0.61582 0.0
H1375 H 0.57214 0.11455 0.60962 0.0
C1376 C 0.59725 0.11828 0.56825 0.0
C1377 C 0.58419 0.11759 0.55748 0.0
C1378 C 0.60112 0.12846 0.58221 0.0
C1379 C 0.59201 0.13813 0.58562 0.0
C1380 C 0.57886 0.13736 0.57497 0.0
H1381 H 0.59113 0.19491 0.67058 0.0
H1382 H 0.58333 0.17473 0.64762 0.0
C1383 C 0.57491 0.12711 0.56107 0.0
C1384 C 0.59681 0.14979 0.59991 0.0
H1385 H 0.59564 0.14855 0.64021 0.0
C1386 C 0.60508 0.16877 0.59796 0.0
C1387 C 0.59321 0.14234 0.61528 0.0
C1388 C 0.58382 0.12199 0.61796 0.0
C1389 C 0.61004 0.18056 0.61104 0.0
C1390 C 0.60674 0.17315 0.62642 0.0
C1391 C 0.59828 0.15416 0.62837 0.0
C1392 C 0.61164 0.18495 0.64061 0.0
C1393 C 0.61852 0.20084 0.60833 0.0
C1394 C 0.63017 0.19716 0.64437 0.0
C1395 C 0.63471 0.2086 0.65758 0.0
C1396 C 0.62078 0.20802 0.66728 0.0
C1397 C 0.60222 0.19556 0.66353 0.0
C1398 C 0.59772 0.18408 0.65036 0.0
H1399 H 0.61687 0.20396 0.59592 0.0
H1400 H 0.61222 0.20664 0.61629 0.0
H1401 H 0.63349 0.20778 0.61102 0.0
H1402 H 0.64111 0.19783 0.63708 0.0
H1403 H 0.64913 0.21779 0.66026 0.0
H1404 H 0.45408 0.57264 0.72858 0.0
H1405 H 0.44371 0.58001 0.75304 0.0
H1406 H 0.49587 0.59528 0.77495 0.0
H1407 H 0.50639 0.58792 0.75045 0.0
H1408 H 0.44006 0.5663 0.78342 0.0
H1409 H 0.49134 0.64074 0.78156 0.0
H1410 H 0.48698 0.62581 0.76484 0.0
H1411 H 0.50096 0.626 0.78095 0.0
C1412 C 0.46328 0.57733 0.73866 0.0
C1413 C 0.48108 0.57972 0.73756 0.0
C1414 C 0.45736 0.58163 0.7526 0.0
C1415 C 0.46912 0.58847 0.76572 0.0
C1416 C 0.48672 0.59041 0.76484 0.0
H1417 H 0.45186 0.62593 0.85723 0.0
H1418 H 0.46441 0.61634 0.83544 0.0
C1419 C 0.49269 0.58616 0.75086 0.0
C1420 C 0.46287 0.59366 0.7802 0.0
H1421 H 0.47156 0.63007 0.8037 0.0
C1422 C 0.44697 0.58023 0.78789 0.0
C1423 C 0.47194 0.61185 0.786 0.0
C1424 C 0.48866 0.627 0.77787 0.0
C1425 C 0.43983 0.58451 0.80118 0.0
C1426 C 0.4487 0.60275 0.80679 0.0
C1427 C 0.46482 0.6161 0.79934 0.0
C1428 C 0.44105 0.60836 0.82001 0.0
C1429 C 0.42288 0.56949 0.80915 0.0
C1430 C 0.4239 0.60727 0.81843 0.0
C1431 C 0.4167 0.61272 0.83081 0.0
C1432 C 0.42656 0.6194 0.84502 0.0
C1433 C 0.44383 0.62062 0.84651 0.0
C1434 C 0.45106 0.61524 0.83407 0.0
H1435 H 0.42058 0.55573 0.80602 0.0
H1436 H 0.42399 0.57112 0.82219 0.0
H1437 H 0.41062 0.57017 0.8053 0.0
H1438 H 0.4161 0.60227 0.80757 0.0
H1439 H 0.4033 0.61148 0.82934 0.0
H1440 H 0.90659 0.45689 0.89338 0.0
H1441 H 0.88844 0.44652 0.91768 0.0
H1442 H 0.89604 0.50032 0.92494 0.0
H1443 H 0.91454 0.51097 0.90081 0.0
H1444 H 0.89821 0.46121 0.94976 0.0
H1445 H 0.83898 0.46494 0.92475 0.0
H1446 H 0.85655 0.46482 0.91249 0.0
H1447 H 0.86125 0.48524 0.92291 0.0
C1448 C 0.90469 0.46663 0.90026 0.0
C1449 C 0.91197 0.48476 0.89508 0.0
C1450 C 0.89421 0.46064 0.91409 0.0
C1451 C 0.8907 0.47259 0.92295 0.0
C1452 C 0.89834 0.49081 0.91809 0.0
H1453 H 0.8204 0.45535 0.00446 0.0
H1454 H 0.8418 0.46844 0.98227 0.0
C1455 C 0.90887 0.49685 0.90429 0.0
C1456 C 0.87877 0.46587 0.93711 0.0
H1457 H 0.83701 0.45681 0.95158 0.0
C1458 C 0.88483 0.46024 0.9502 0.0
C1459 C 0.86137 0.4647 0.93761 0.0
C1460 C 0.854 0.4701 0.92367 0.0
C1461 C 0.87397 0.45358 0.96387 0.0
C1462 C 0.85642 0.45213 0.96429 0.0
C1463 C 0.85046 0.45793 0.95123 0.0
C1464 C 0.84385 0.44431 0.97803 0.0
C1465 C 0.88156 0.44847 0.97784 0.0
C1466 C 0.83774 0.42633 0.98291 0.0
C1467 C 0.82566 0.41887 0.99568 0.0
C1468 C 0.81926 0.42917 0.00375 0.0
C1469 C 0.82526 0.44713 0.9987 0.0
C1470 C 0.8374 0.4546 0.98595 0.0
H1471 H 0.89685 0.45535 0.97741 0.0
H1472 H 0.87745 0.4521 0.98914 0.0
H1473 H 0.87603 0.43348 0.97768 0.0
H1474 H 0.84221 0.41799 0.97676 0.0
H1475 H 0.82149 0.40507 0.99932 0.0
H1476 H 0.4189 0.91924 0.06552 0.0
H1477 H 0.41013 0.9005 0.0894 0.0
H1478 H 0.45934 0.89677 0.08559 0.0
H1479 H 0.46803 0.9151 0.06157 0.0
H1480 H 0.4046 0.8641 0.09066 0.0
H1481 H 0.45886 0.91155 0.13234 0.0
H1482 H 0.45317 0.91929 0.11451 0.0
H1483 H 0.46723 0.90887 0.11354 0.0
C1484 C 0.42789 0.91449 0.06978 0.0
C1485 C 0.44418 0.9187 0.0616 0.0
C1486 C 0.4229 0.90386 0.08346 0.0
C1487 C 0.43419 0.89743 0.08933 0.0
C1488 C 0.45063 0.90191 0.08142 0.0
H1489 H 0.43039 0.82548 0.16253 0.0
H1490 H 0.43815 0.84697 0.14077 0.0
C1491 C 0.45559 0.91245 0.0677 0.0
C1492 C 0.42823 0.88503 0.10309 0.0
H1493 H 0.44068 0.88057 0.1404 0.0
C1494 C 0.41235 0.86772 0.10161 0.0
C1495 C 0.43847 0.88982 0.11728 0.0
C1496 C 0.45531 0.90845 0.11964 0.0
C1497 C 0.40674 0.85482 0.1138 0.0
C1498 C 0.41706 0.85954 0.12798 0.0
C1499 C 0.4328 0.87697 0.12953 0.0
C1500 C 0.41211 0.84641 0.14117 0.0
C1501 C 0.3902 0.83603 0.11115 0.0
C1502 C 0.39493 0.83907 0.14872 0.0
C1503 C 0.39033 0.82656 0.16104 0.0
C1504 C 0.4029 0.82128 0.16615 0.0
C1505 C 0.42022 0.82892 0.1587 0.0
C1506 C 0.42476 0.84135 0.14635 0.0
H1507 H 0.38684 0.83312 0.0984 0.0
H1508 H 0.39256 0.82526 0.1161 0.0
H1509 H 0.37804 0.83518 0.11716 0.0
H1510 H 0.38509 0.84305 0.14512 0.0
H1511 H 0.37684 0.82088 0.16643 0.0
H1512 H 0.52979 0.41651 0.22793 0.0
H1513 H 0.53973 0.40834 0.25202 0.0
H1514 H 0.56988 0.46512 0.26596 0.0
H1515 H 0.55917 0.47334 0.24228 0.0
H1516 H 0.57448 0.41875 0.26027 0.0
H1517 H 0.54337 0.44147 0.30642 0.0
H1518 H 0.53678 0.43934 0.28591 0.0
H1519 H 0.5575 0.45922 0.29275 0.0
C1520 C 0.53811 0.42725 0.2363 0.0
C1521 C 0.54357 0.4456 0.23316 0.0
C1522 C 0.54393 0.42255 0.25002 0.0
C1523 C 0.55537 0.43607 0.2609 0.0
C1524 C 0.56074 0.45439 0.25791 0.0
H1525 H 0.61859 0.43684 0.34196 0.0
H1526 H 0.60562 0.44464 0.31945 0.0
C1527 C 0.5548 0.4591 0.24423 0.0
C1528 C 0.56256 0.43107 0.27484 0.0
H1529 H 0.56565 0.43382 0.3151 0.0
C1530 C 0.57241 0.42192 0.27226 0.0
C1531 C 0.55989 0.43524 0.29049 0.0
C1532 C 0.54866 0.4442 0.2941 0.0
C1533 C 0.57989 0.41708 0.28487 0.0
C1534 C 0.57738 0.42144 0.30045 0.0
C1535 C 0.56756 0.43056 0.30309 0.0
C1536 C 0.58496 0.41665 0.31416 0.0
C1537 C 0.5907 0.40763 0.28146 0.0
C1538 C 0.5775 0.39833 0.31867 0.0
C1539 C 0.58485 0.39383 0.33151 0.0
C1540 C 0.59985 0.40758 0.34002 0.0
C1541 C 0.6072 0.42593 0.33551 0.0
C1542 C 0.59975 0.43043 0.32274 0.0
H1543 H 0.59406 0.40804 0.26871 0.0
H1544 H 0.60373 0.41406 0.28834 0.0
H1545 H 0.58245 0.3931 0.28509 0.0
H1546 H 0.56599 0.38753 0.31222 0.0
H1547 H 0.57897 0.37957 0.33465 0.0
H1548 H 0.49239 0.89769 0.42137 0.0
H1549 H 0.48107 0.87916 0.39733 0.0
H1550 H 0.46156 0.91421 0.38009 0.0
H1551 H 0.47302 0.933 0.40412 0.0
H1552 H 0.4416 0.86174 0.38681 0.0
H1553 H 0.49301 0.90894 0.343 0.0
H1554 H 0.49798 0.91057 0.36389 0.0
H1555 H 0.48305 0.91819 0.35639 0.0
C1556 C 0.486 0.90167 0.41234 0.0
C1557 C 0.48368 0.91686 0.41459 0.0
C1558 C 0.47944 0.89101 0.39868 0.0
C1559 C 0.47062 0.89543 0.38694 0.0
C1560 C 0.4685 0.91072 0.38898 0.0
H1561 H 0.4227 0.84324 0.29676 0.0
H1562 H 0.43499 0.86429 0.31928 0.0
C1563 C 0.47494 0.92134 0.40273 0.0
C1564 C 0.46282 0.88341 0.37297 0.0
H1565 H 0.46887 0.88084 0.33337 0.0
C1566 C 0.44752 0.86587 0.3751 0.0
C1567 C 0.47053 0.88899 0.35776 0.0
C1568 C 0.48712 0.90766 0.355 0.0
C1569 C 0.43966 0.85369 0.36237 0.0
C1570 C 0.44766 0.85905 0.34719 0.0
C1571 C 0.46282 0.87673 0.34503 0.0
C1572 C 0.44058 0.84643 0.33344 0.0
C1573 C 0.42265 0.83534 0.36528 0.0
C1574 C 0.43998 0.82956 0.33382 0.0
C1575 C 0.43291 0.8175 0.32102 0.0
C1576 C 0.42655 0.82219 0.30749 0.0
C1577 C 0.42761 0.8393 0.30698 0.0
C1578 C 0.43457 0.85131 0.31984 0.0
H1579 H 0.41521 0.83554 0.37609 0.0
H1580 H 0.413 0.83107 0.35511 0.0
H1581 H 0.42678 0.82491 0.36698 0.0
H1582 H 0.44502 0.82573 0.34402 0.0
H1583 H 0.43256 0.80455 0.32165 0.0
H1584 H 0.566 0.45247 0.59818 0.0
H1585 H 0.57365 0.44271 0.57353 0.0
H1586 H 0.59897 0.49782 0.55585 0.0
H1587 H 0.59111 0.50773 0.58043 0.0
H1588 H 0.56427 0.44591 0.54148 0.0
H1589 H 0.63995 0.48417 0.5525 0.0
H1590 H 0.62331 0.47972 0.56791 0.0
H1591 H 0.62852 0.49727 0.55362 0.0
C1592 C 0.57292 0.46249 0.58897 0.0
C1593 C 0.57797 0.48091 0.59131 0.0
C1594 C 0.57738 0.45689 0.57493 0.0
C1595 C 0.58708 0.46959 0.56299 0.0
C1596 C 0.59176 0.48788 0.56506 0.0
H1597 H 0.63314 0.45616 0.47475 0.0
H1598 H 0.62358 0.46854 0.49661 0.0
C1599 C 0.58727 0.49351 0.57911 0.0
C1600 C 0.5925 0.46362 0.54849 0.0
H1601 H 0.62982 0.4678 0.52854 0.0
C1602 C 0.57859 0.45072 0.5386 0.0
C1603 C 0.6112 0.46999 0.54479 0.0
C1604 C 0.62666 0.48345 0.55529 0.0
C1605 C 0.5829 0.44398 0.52506 0.0
C1606 C 0.60159 0.45002 0.52154 0.0
C1607 C 0.6155 0.46318 0.53128 0.0
C1608 C 0.60699 0.44244 0.5081 0.0
C1609 C 0.56739 0.43059 0.51456 0.0
C1610 C 0.60102 0.4237 0.50742 0.0
C1611 C 0.60634 0.41657 0.4949 0.0
C1612 C 0.6179 0.42807 0.48287 0.0
C1613 C 0.62402 0.44689 0.48369 0.0
C1614 C 0.61866 0.454 0.49622 0.0
H1615 H 0.55476 0.43154 0.51619 0.0
H1616 H 0.57144 0.43294 0.50192 0.0
H1617 H 0.5639 0.41647 0.51763 0.0
H1618 H 0.59232 0.41458 0.51664 0.0
H1619 H 0.60123 0.402 0.49458 0.0
H1620 H 0.13755 0.61014 0.76126 0.0
H1621 H 0.15664 0.6181 0.73754 0.0
H1622 H 0.11666 0.56731 0.71567 0.0
H1623 H 0.0972 0.55936 0.73931 0.0
H1624 H 0.17112 0.59647 0.72444 0.0
H1625 H 0.12695 0.60703 0.68193 0.0
H1626 H 0.12417 0.60747 0.70306 0.0
H1627 H 0.11591 0.58606 0.69294 0.0
C1628 C 0.13261 0.60081 0.7513 0.0
C1629 C 0.11578 0.58416 0.75214 0.0
C1630 C 0.14361 0.60532 0.7378 0.0
C1631 C 0.13798 0.59337 0.72482 0.0
C1632 C 0.12112 0.57682 0.7255 0.0
H1633 H 0.19124 0.60047 0.63447 0.0
H1634 H 0.16967 0.59111 0.65669 0.0
C1635 C 0.11011 0.57224 0.73905 0.0
C1636 C 0.15024 0.59795 0.71091 0.0
H1637 H 0.15418 0.60907 0.67184 0.0
C1638 C 0.16744 0.59923 0.71293 0.0
C1639 C 0.14531 0.6014 0.69592 0.0
C1640 C 0.12714 0.60057 0.69325 0.0
C1641 C 0.17987 0.60385 0.70032 0.0
C1642 C 0.17513 0.60772 0.68539 0.0
C1643 C 0.1578 0.60617 0.68331 0.0
C1644 C 0.18809 0.61362 0.67183 0.0
C1645 C 0.19782 0.60424 0.70307 0.0
C1646 C 0.20545 0.62956 0.67287 0.0
C1647 C 0.2178 0.63493 0.66022 0.0
C1648 C 0.21293 0.62457 0.6462 0.0
C1649 C 0.19535 0.60882 0.64506 0.0
C1650 C 0.18304 0.60342 0.65776 0.0
H1651 H 0.197 0.59594 0.71349 0.0
H1652 H 0.20177 0.59904 0.69259 0.0
H1653 H 0.2089 0.61854 0.70533 0.0
H1654 H 0.20945 0.6379 0.68347 0.0
H1655 H 0.2311 0.6473 0.66136 0.0
H1656 H 0.55922 0.10312 0.90892 0.0
H1657 H 0.57016 0.12201 0.88512 0.0
H1658 H 0.5419 0.15035 0.89962 0.0
H1659 H 0.53149 0.13207 0.92364 0.0
H1660 H 0.55068 0.12722 0.86053 0.0
H1661 H 0.5951 0.19182 0.89321 0.0
H1662 H 0.58554 0.16963 0.9023 0.0
H1663 H 0.57149 0.17988 0.89961 0.0
C1664 C 0.5554 0.11343 0.90707 0.0
C1665 C 0.54456 0.11614 0.91825 0.0
C1666 C 0.56157 0.12412 0.89343 0.0
C1667 C 0.5571 0.13778 0.89076 0.0
C1668 C 0.54578 0.1401 0.9016 0.0
H1669 H 0.58372 0.2202 0.81918 0.0
H1670 H 0.57103 0.1993 0.8416 0.0
C1671 C 0.53964 0.12946 0.91523 0.0
C1672 C 0.56447 0.14979 0.87677 0.0
H1673 H 0.59121 0.19445 0.8658 0.0
C1674 C 0.55961 0.14191 0.86165 0.0
C1675 C 0.57615 0.16895 0.8783 0.0
C1676 C 0.58254 0.17809 0.89422 0.0
C1677 C 0.56581 0.15274 0.848 0.0
C1678 C 0.57736 0.1719 0.84956 0.0
C1679 C 0.58228 0.17976 0.86467 0.0
C1680 C 0.58461 0.18409 0.83567 0.0
C1681 C 0.55962 0.14365 0.83205 0.0
C1682 C 0.59656 0.18255 0.82499 0.0
C1683 C 0.60379 0.19442 0.81215 0.0
C1684 C 0.59924 0.20812 0.80978 0.0
C1685 C 0.58729 0.20965 0.82055 0.0
C1686 C 0.58011 0.19779 0.8334 0.0
H1687 H 0.54735 0.12972 0.83299 0.0
H1688 H 0.55626 0.15194 0.82407 0.0
H1689 H 0.57095 0.14239 0.82658 0.0
H1690 H 0.60045 0.17227 0.82669 0.0
H1691 H 0.61282 0.19278 0.80401 0.0
H1692 H 0.46123 0.57494 0.09639 0.0
H1693 H 0.45296 0.58573 0.07275 0.0
H1694 H 0.41425 0.53003 0.05942 0.0
H1695 H 0.4226 0.51907 0.08299 0.0
H1696 H 0.43889 0.55445 0.03418 0.0
H1697 H 0.40146 0.58249 0.06762 0.0
H1698 H 0.42427 0.58929 0.07459 0.0
H1699 H 0.40637 0.56575 0.07585 0.0
C1700 C 0.45114 0.56497 0.08832 0.0
C1701 C 0.44254 0.54615 0.09156 0.0
C1702 C 0.44632 0.57116 0.07491 0.0
C1703 C 0.43286 0.55867 0.06448 0.0
C1704 C 0.4246 0.53987 0.06741 0.0
H1705 H 0.37642 0.58308 0.99084 0.0
H1706 H 0.38395 0.56978 0.01317 0.0
C1707 C 0.42932 0.53365 0.08088 0.0
C1708 C 0.42724 0.5653 0.05065 0.0
H1709 H 0.40606 0.58915 0.04028 0.0
C1710 C 0.43166 0.56199 0.03547 0.0
C1711 C 0.41763 0.57492 0.05243 0.0
C1712 C 0.41198 0.57825 0.06847 0.0
C1713 C 0.42709 0.56847 0.02199 0.0
C1714 C 0.41797 0.57857 0.0238 0.0
C1715 C 0.41316 0.58149 0.03896 0.0
C1716 C 0.41348 0.58643 0.01012 0.0
C1717 C 0.43194 0.56438 0.0059 0.0
C1718 C 0.42762 0.60034 0.00116 0.0
C1719 C 0.42339 0.60813 0.98852 0.0
C1720 C 0.40491 0.60215 0.98459 0.0
C1721 C 0.39079 0.58819 0.99365 0.0
C1722 C 0.39505 0.58048 0.00634 0.0
H1723 H 0.43503 0.55308 0.00631 0.0
H1724 H 0.42051 0.56066 0.99741 0.0
H1725 H 0.44435 0.57677 0.00139 0.0
H1726 H 0.44194 0.60537 0.0041 0.0
H1727 H 0.43461 0.61907 0.982 0.0
H1728 H 0.91017 0.47238 0.25768 0.0
H1729 H 0.89273 0.46561 0.2331 0.0
H1730 H 0.89652 0.41705 0.22671 0.0
H1731 H 0.91489 0.42425 0.25078 0.0
H1732 H 0.90125 0.43474 0.19915 0.0
H1733 H 0.83908 0.42664 0.22973 0.0
H1734 H 0.85914 0.44871 0.23272 0.0
H1735 H 0.85865 0.42864 0.24029 0.0
C1736 C 0.90762 0.46044 0.25092 0.0
C1737 C 0.91381 0.44876 0.25634 0.0
C1738 C 0.8974 0.45645 0.23697 0.0
C1739 C 0.89291 0.44057 0.22828 0.0
C1740 C 0.89965 0.42927 0.23331 0.0
H1741 H 0.80291 0.38705 0.16158 0.0
H1742 H 0.82399 0.39568 0.18405 0.0
C1743 C 0.91001 0.43333 0.24717 0.0
C1744 C 0.88088 0.43548 0.21413 0.0
H1745 H 0.8382 0.42582 0.20176 0.0
C1746 C 0.88745 0.43276 0.1997 0.0
C1747 C 0.86275 0.4326 0.21494 0.0
C1748 C 0.85439 0.43411 0.23028 0.0
C1749 C 0.87646 0.42737 0.18604 0.0
C1750 C 0.85857 0.42508 0.18675 0.0
C1751 C 0.85197 0.42772 0.2012 0.0
C1752 C 0.84621 0.41957 0.17278 0.0
C1753 C 0.88396 0.42371 0.17112 0.0
C1754 C 0.85166 0.43014 0.15897 0.0
C1755 C 0.83969 0.42513 0.14606 0.0
C1756 C 0.82192 0.40964 0.14684 0.0
C1757 C 0.81647 0.39913 0.16069 0.0
C1758 C 0.82851 0.40402 0.17351 0.0
H1759 H 0.89525 0.42088 0.17368 0.0
H1760 H 0.87296 0.41192 0.16448 0.0
H1761 H 0.88966 0.43595 0.16344 0.0
H1762 H 0.86505 0.44246 0.15826 0.0
H1763 H 0.84414 0.43365 0.13562 0.0
loop_
_geom_bond_atom_site_label_1
_geom_bond_atom_site_label_2
_geom_bond_distance
_geom_bond_site_symmetry_2
_ccdc_geom_bond_type
H0 C27 0.929 . S
N1 C26 1.433 . S
N1 C32 1.435 . S
N1 C38 1.423 . S
H2 C28 0.930 . S
H3 C31 0.931 . S
H4 C30 0.929 . S
H5 C33 0.930 . S
H6 C34 0.932 . S
H7 C37 0.929 . S
H8 C36 0.931 . S
H9 C39 0.929 . S
H10 C43 0.932 . S
H11 C40 0.931 . S
H12 C42 0.929 . S
H13 C45 0.929 . S
H14 C46 0.930 . S
H15 C48 0.929 . S
H16 C49 0.931 . S
H17 C51 0.930 . S
H18 C52 0.932 . S
H19 C54 0.931 . S
H20 C55 0.929 . S
H21 C57 0.929 . S
H22 C58 0.931 1_455 S
H23 C60 0.929 . S
N24 C44 1.433 . S
N24 C50 1.435 . S
N24 C56 1.423 . S
H25 C61 0.932 . S
C26 N1 1.433 . S
C26 C27 1.363 . S
C26 C31 1.370 . S
C27 H0 0.929 . S
C27 C26 1.363 . S
C27 C28 1.385 . S
C28 H2 0.930 . S
C28 C27 1.385 . S
C28 C29 1.357 . S
C29 C28 1.357 . S
C29 C30 1.406 . S
C30 H4 0.929 . S
C30 C29 1.406 . S
C30 C31 1.391 . S
C31 H3 0.931 . S
C31 C26 1.370 . S
C31 C30 1.391 . S
C32 N1 1.435 . S
C32 C33 1.358 . S
C32 C37 1.371 . S
C33 H5 0.930 . S
C33 C32 1.358 . S
C33 C34 1.405 . S
C34 H6 0.932 . S
C34 C33 1.405 . S
C34 C35 1.383 . S
C35 C34 1.383 . S
C35 C36 1.393 . S
C36 H8 0.931 . S
C36 C35 1.393 . S
C36 C37 1.382 . S
C37 H7 0.929 . S
C37 C32 1.371 . S
C37 C36 1.382 . S
C38 N1 1.423 . S
C38 C39 1.362 . S
C38 C43 1.388 . S
C39 H9 0.929 . S
C39 C38 1.362 . S
C39 C40 1.376 . S
C40 H11 0.931 . S
C40 C39 1.376 . S
C40 C41 1.396 . S
C41 C40 1.396 . S
C41 C42 1.348 . S
C41 C59 1.472 . S
C42 H12 0.929 . S
C42 C41 1.348 . S
C42 C43 1.443 . S
C43 H10 0.932 . S
C43 C38 1.388 . S
C43 C42 1.443 . S
C44 N24 1.433 . S
C44 C45 1.363 . S
C44 C49 1.370 . S
C45 H13 0.929 . S
C45 C44 1.363 . S
C45 C46 1.385 . S
C46 H14 0.930 . S
C46 C45 1.385 . S
C46 C47 1.357 . S
C47 C46 1.357 . S
C47 C48 1.406 . S
C48 H15 0.929 . S
C48 C47 1.406 . S
C48 C49 1.391 . S
C49 H16 0.931 . S
C49 C44 1.370 . S
C49 C48 1.391 . S
C50 N24 1.435 . S
C50 C51 1.358 . S
C50 C55 1.371 . S
C51 H17 0.930 . S
C51 C50 1.358 . S
C51 C52 1.405 . S
C52 H18 0.932 . S
C52 C51 1.405 . S
C52 C53 1.383 . S
C53 C52 1.383 . S
C53 C54 1.393 . S
C54 H19 0.931 . S
C54 C53 1.393 . S
C54 C55 1.382 . S
C55 H20 0.929 . S
C55 C50 1.371 . S
C55 C54 1.382 . S
C56 N24 1.423 . S
C56 C57 1.362 . S
C56 C61 1.388 . S
C57 H21 0.929 . S
C57 C56 1.362 . S
C57 C58 1.376 . S
C58 H22 0.931 1_655 S
C58 C57 1.376 . S
C58 C59 1.396 1_655 S
C59 C41 1.472 . S
C59 C58 1.396 1_455 S
C59 C60 1.348 1_455 S
C60 H23 0.929 . S
C60 C59 1.348 1_655 S
C60 C61 1.443 . S
C61 H25 0.932 . S
C61 C56 1.388 . S
C61 C60 1.443 . S
H62 C89 0.929 . S
N63 C88 1.433 . S
N63 C94 1.435 . S
N63 C100 1.423 . S
H64 C90 0.930 . S
H65 C93 0.931 . S
H66 C92 0.929 . S
H67 C95 0.930 . S
H68 C96 0.932 . S
H69 C99 0.929 . S
H70 C98 0.931 . S
H71 C101 0.929 . S
H72 C105 0.932 . S
H73 C102 0.931 1_545 S
H74 C104 0.929 . S
H75 C107 0.929 . S
H76 C108 0.930 . S
H77 C110 0.929 . S
H78 C111 0.931 . S
H79 C113 0.930 . S
H80 C114 0.932 . S
H81 C116 0.931 . S
H82 C117 0.929 . S
H83 C119 0.929 . S
H84 C120 0.931 . S
H85 C122 0.929 . S
N86 C106 1.433 . S
N86 C112 1.435 . S
N86 C118 1.423 . S
H87 C123 0.932 . S
C88 N63 1.433 . S
C88 C89 1.363 . S
C88 C93 1.370 . S
C89 H62 0.929 . S
C89 C88 1.363 . S
C89 C90 1.385 . S
C90 H64 0.930 . S
C90 C89 1.385 . S
C90 C91 1.357 . S
C91 C90 1.357 . S
C91 C92 1.406 . S
C92 H66 0.929 . S
C92 C91 1.406 . S
C92 C93 1.391 . S
C93 H65 0.931 . S
C93 C88 1.370 . S
C93 C92 1.391 . S
C94 N63 1.435 . S
C94 C95 1.358 . S
C94 C99 1.371 . S
C95 H67 0.930 . S
C95 C94 1.358 . S
C95 C96 1.405 . S
C96 H68 0.932 . S
C96 C95 1.405 . S
C96 C97 1.383 . S
C97 C96 1.383 . S
C97 C98 1.393 . S
C98 H70 0.931 . S
C98 C97 1.393 . S
C98 C99 1.382 . S
C99 H69 0.929 . S
C99 C94 1.371 . S
C99 C98 1.382 . S
C100 N63 1.423 . S
C100 C101 1.362 . S
C100 C105 1.388 . S
C101 H71 0.929 . S
C101 C100 1.362 . S
C101 C102 1.376 . S
C102 H73 0.931 1_565 S
C102 C101 1.376 . S
C102 C103 1.396 1_565 S
C103 C102 1.396 1_545 S
C103 C104 1.348 . S
C103 C121 1.472 . S
C104 H74 0.929 . S
C104 C103 1.348 . S
C104 C105 1.443 1_545 S
C105 H72 0.932 . S
C105 C100 1.388 . S
C105 C104 1.443 1_565 S
C106 N86 1.433 . S
C106 C107 1.363 . S
C106 C111 1.370 . S
C107 H75 0.929 . S
C107 C106 1.363 . S
C107 C108 1.385 . S
C108 H76 0.930 . S
C108 C107 1.385 . S
C108 C109 1.357 . S
C109 C108 1.357 . S
C109 C110 1.406 . S
C110 H77 0.929 . S
C110 C109 1.406 . S
C110 C111 1.391 . S
C111 H78 0.931 . S
C111 C106 1.370 . S
C111 C110 1.391 . S
C112 N86 1.435 . S
C112 C113 1.358 . S
C112 C117 1.371 . S
C113 H79 0.930 . S
C113 C112 1.358 . S
C113 C114 1.405 . S
C114 H80 0.932 . S
C114 C113 1.405 . S
C114 C115 1.383 . S
C115 C114 1.383 . S
C115 C116 1.393 . S
C116 H81 0.931 . S
C116 C115 1.393 . S
C116 C117 1.382 . S
C117 H82 0.929 . S
C117 C112 1.371 . S
C117 C116 1.382 . S
C118 N86 1.423 . S
C118 C119 1.362 . S
C118 C123 1.388 . S
C119 H83 0.929 . S
C119 C118 1.362 . S
C119 C120 1.376 . S
C120 H84 0.931 . S
C120 C119 1.376 . S
C120 C121 1.396 . S
C121 C103 1.472 . S
C121 C120 1.396 . S
C121 C122 1.348 . S
C122 H85 0.929 . S
C122 C121 1.348 . S
C122 C123 1.443 . S
C123 H87 0.932 . S
C123 C118 1.388 . S
C123 C122 1.443 . S
H124 C151 0.929 . S
N125 C150 1.433 . S
N125 C156 1.435 . S
N125 C162 1.423 . S
H126 C152 0.930 . S
H127 C155 0.931 . S
H128 C154 0.929 . S
H129 C157 0.930 . S
H130 C158 0.932 . S
H131 C161 0.929 . S
H132 C160 0.931 . S
H133 C163 0.929 . S
H134 C167 0.932 . S
H135 C164 0.931 . S
H136 C166 0.929 . S
H137 C169 0.929 . S
H138 C170 0.930 . S
H139 C172 0.929 . S
H140 C173 0.931 . S
H141 C175 0.930 . S
H142 C176 0.932 . S
H143 C178 0.931 . S
H144 C179 0.929 . S
H145 C181 0.929 . S
H146 C182 0.931 . S
H147 C184 0.929 . S
N148 C168 1.433 . S
N148 C174 1.435 . S
N148 C180 1.423 . S
H149 C185 0.932 . S
C150 N125 1.433 . S
C150 C151 1.363 . S
C150 C155 1.370 . S
C151 H124 0.929 . S
C151 C150 1.363 . S
C151 C152 1.385 . S
C152 H126 0.930 . S
C152 C151 1.385 . S
C152 C153 1.357 . S
C153 C152 1.357 . S
C153 C154 1.406 . S
C154 H128 0.929 . S
C154 C153 1.406 . S
C154 C155 1.391 . S
C155 H127 0.931 . S
C155 C150 1.370 . S
C155 C154 1.391 . S
C156 N125 1.435 . S
C156 C157 1.358 . S
C156 C161 1.371 . S
C157 H129 0.930 . S
C157 C156 1.358 . S
C157 C158 1.405 . S
C158 H130 0.932 . S
C158 C157 1.405 . S
C158 C159 1.383 . S
C159 C158 1.383 . S
C159 C160 1.393 . S
C160 H132 0.931 . S
C160 C159 1.393 . S
C160 C161 1.382 . S
C161 H131 0.929 . S
C161 C156 1.371 . S
C161 C160 1.382 . S
C162 N125 1.423 . S
C162 C163 1.362 . S
C162 C167 1.388 . S
C163 H133 0.929 . S
C163 C162 1.362 . S
C163 C164 1.376 . S
C164 H135 0.931 . S
C164 C163 1.376 . S
C164 C165 1.396 . S
C165 C164 1.396 . S
C165 C166 1.348 . S
C165 C183 1.472 . S
C166 H136 0.929 . S
C166 C165 1.348 . S
C166 C167 1.443 . S
C167 H134 0.932 . S
C167 C162 1.388 . S
C167 C166 1.443 . S
C168 N148 1.433 . S
C168 C169 1.363 . S
C168 C173 1.370 . S
C169 H137 0.929 . S
C169 C168 1.363 . S
C169 C170 1.385 . S
C170 H138 0.930 . S
C170 C169 1.385 . S
C170 C171 1.357 . S
C171 C170 1.357 . S
C171 C172 1.406 . S
C172 H139 0.929 . S
C172 C171 1.406 . S
C172 C173 1.391 . S
C173 H140 0.931 . S
C173 C168 1.370 . S
C173 C172 1.391 . S
C174 N148 1.435 . S
C174 C175 1.358 . S
C174 C179 1.371 . S
C175 H141 0.930 . S
C175 C174 1.358 . S
C175 C176 1.405 . S
C176 H142 0.932 . S
C176 C175 1.405 . S
C176 C177 1.383 . S
C177 C176 1.383 . S
C177 C178 1.393 . S
C178 H143 0.931 . S
C178 C177 1.393 . S
C178 C179 1.382 . S
C179 H144 0.929 . S
C179 C174 1.371 . S
C179 C178 1.382 . S
C180 N148 1.423 . S
C180 C181 1.362 . S
C180 C185 1.388 . S
C181 H145 0.929 . S
C181 C180 1.362 . S
C181 C182 1.376 . S
C182 H146 0.931 . S
C182 C181 1.376 . S
C182 C183 1.396 . S
C183 C165 1.472 . S
C183 C182 1.396 . S
C183 C184 1.348 . S
C184 H147 0.929 . S
C184 C183 1.348 . S
C184 C185 1.443 . S
C185 H149 0.932 . S
C185 C180 1.388 . S
C185 C184 1.443 . S
H186 C213 0.929 . S
N187 C212 1.433 . S
N187 C218 1.435 . S
N187 C224 1.423 . S
H188 C214 0.930 . S
H189 C217 0.931 . S
H190 C216 0.929 . S
H191 C219 0.930 . S
H192 C220 0.932 . S
H193 C223 0.929 . S
H194 C222 0.931 . S
H195 C225 0.929 . S
H196 C229 0.932 . S
H197 C226 0.931 . S
H198 C228 0.929 . S
H199 C231 0.929 . S
H200 C232 0.930 . S
H201 C234 0.929 . S
H202 C235 0.931 . S
H203 C237 0.930 . S
H204 C238 0.932 . S
H205 C240 0.931 . S
H206 C241 0.929 . S
H207 C243 0.929 . S
H208 C244 0.931 1_455 S
H209 C246 0.929 . S
N210 C230 1.433 . S
N210 C236 1.435 . S
N210 C242 1.423 . S
H211 C247 0.932 . S
C212 N187 1.433 . S
C212 C213 1.363 . S
C212 C217 1.370 . S
C213 H186 0.929 . S
C213 C212 1.363 . S
C213 C214 1.385 . S
C214 H188 0.930 . S
C214 C213 1.385 . S
C214 C215 1.357 . S
C215 C214 1.357 . S
C215 C216 1.406 . S
C216 H190 0.929 . S
C216 C215 1.406 . S
C216 C217 1.391 . S
C217 H189 0.931 . S
C217 C212 1.370 . S
C217 C216 1.391 . S
C218 N187 1.435 . S
C218 C219 1.358 . S
C218 C223 1.371 . S
C219 H191 0.930 . S
C219 C218 1.358 . S
C219 C220 1.405 . S
C220 H192 0.932 . S
C220 C219 1.405 . S
C220 C221 1.383 . S
C221 C220 1.383 . S
C221 C222 1.393 . S
C222 H194 0.931 . S
C222 C221 1.393 . S
C222 C223 1.382 . S
C223 H193 0.929 . S
C223 C218 1.371 . S
C223 C222 1.382 . S
C224 N187 1.423 . S
C224 C225 1.362 . S
C224 C229 1.388 . S
C225 H195 0.929 . S
C225 C224 1.362 . S
C225 C226 1.376 . S
C226 H197 0.931 . S
C226 C225 1.376 . S
C226 C227 1.396 . S
C227 C226 1.396 . S
C227 C228 1.348 . S
C227 C245 1.472 . S
C228 H198 0.929 . S
C228 C227 1.348 . S
C228 C229 1.443 . S
C229 H196 0.932 . S
C229 C224 1.388 . S
C229 C228 1.443 . S
C230 N210 1.433 . S
C230 C231 1.363 . S
C230 C235 1.370 . S
C231 H199 0.929 . S
C231 C230 1.363 . S
C231 C232 1.385 . S
C232 H200 0.930 . S
C232 C231 1.385 . S
C232 C233 1.357 . S
C233 C232 1.357 . S
C233 C234 1.406 . S
C234 H201 0.929 . S
C234 C233 1.406 . S
C234 C235 1.391 . S
C235 H202 0.931 . S
C235 C230 1.370 . S
C235 C234 1.391 . S
C236 N210 1.435 . S
C236 C237 1.358 . S
C236 C241 1.371 . S
C237 H203 0.930 . S
C237 C236 1.358 . S
C237 C238 1.405 . S
C238 H204 0.932 . S
C238 C237 1.405 . S
C238 C239 1.383 . S
C239 C238 1.383 . S
C239 C240 1.393 . S
C240 H205 0.931 . S
C240 C239 1.393 . S
C240 C241 1.382 . S
C241 H206 0.929 . S
C241 C236 1.371 . S
C241 C240 1.382 . S
C242 N210 1.423 . S
C242 C243 1.362 . S
C242 C247 1.388 . S
C243 H207 0.929 . S
C243 C242 1.362 . S
C243 C244 1.376 . S
C244 H208 0.931 1_655 S
C244 C243 1.376 . S
C244 C245 1.396 1_655 S
C245 C227 1.472 . S
C245 C244 1.396 1_455 S
C245 C246 1.348 1_455 S
C246 H209 0.929 . S
C246 C245 1.348 1_655 S
C246 C247 1.443 . S
C247 H211 0.932 . S
C247 C242 1.388 . S
C247 C246 1.443 . S
H248 C275 0.929 . S
N249 C274 1.433 . S
N249 C280 1.435 . S
N249 C286 1.423 . S
H250 C276 0.930 . S
H251 C279 0.931 . S
H252 C278 0.929 . S
H253 C281 0.930 . S
H254 C282 0.932 . S
H255 C285 0.929 . S
H256 C284 0.931 . S
H257 C287 0.929 . S
H258 C291 0.932 . S
H259 C288 0.931 . S
H260 C290 0.929 . S
H261 C293 0.929 . S
H262 C294 0.930 . S
H263 C296 0.929 . S
H264 C297 0.931 . S
H265 C299 0.930 . S
H266 C300 0.932 . S
H267 C302 0.931 . S
H268 C303 0.929 . S
H269 C305 0.929 . S
H270 C306 0.931 1_545 S
H271 C308 0.929 . S
N272 C292 1.433 . S
N272 C298 1.435 1_554 S
N272 C304 1.442 . S
H273 C309 0.932 . S
C274 N249 1.433 . S
C274 C275 1.363 . S
C274 C279 1.370 . S
C275 H248 0.929 . S
C275 C274 1.363 . S
C275 C276 1.385 . S
C276 H250 0.930 . S
C276 C275 1.385 . S
C276 C277 1.357 1_556 S
C277 C276 1.357 1_554 S
C277 C278 1.406 . S
C278 H252 0.929 . S
C278 C277 1.406 . S
C278 C279 1.391 1_554 S
C279 H251 0.931 . S
C279 C274 1.370 . S
C279 C278 1.391 1_556 S
C280 N249 1.435 . S
C280 C281 1.358 . S
C280 C285 1.371 . S
C281 H253 0.930 . S
C281 C280 1.358 . S
C281 C282 1.405 . S
C282 H254 0.932 . S
C282 C281 1.405 . S
C282 C283 1.383 . S
C283 C282 1.383 . S
C283 C284 1.393 . S
C284 H256 0.931 . S
C284 C283 1.393 . S
C284 C285 1.382 . S
C285 H255 0.929 . S
C285 C280 1.371 . S
C285 C284 1.382 . S
C286 N249 1.423 . S
C286 C287 1.362 . S
C286 C291 1.388 . S
C287 H257 0.929 . S
C287 C286 1.362 . S
C287 C288 1.376 . S
C288 H259 0.931 . S
C288 C287 1.376 . S
C288 C289 1.396 . S
C289 C288 1.396 . S
C289 C290 1.348 . S
C289 C307 1.472 . S
C290 H260 0.929 . S
C290 C289 1.348 . S
C290 C291 1.443 . S
C291 H258 0.932 . S
C291 C286 1.388 . S
C291 C290 1.443 . S
C292 N272 1.433 . S
C292 C293 1.363 . S
C292 C297 1.370 . S
C293 H261 0.929 . S
C293 C292 1.363 . S
C293 C294 1.385 . S
C294 H262 0.930 . S
C294 C293 1.385 . S
C294 C295 1.357 . S
C295 C294 1.357 . S
C295 C296 1.406 . S
C296 H263 0.929 . S
C296 C295 1.406 . S
C296 C297 1.391 . S
C297 H264 0.931 . S
C297 C292 1.370 . S
C297 C296 1.391 . S
C298 N272 1.435 1_556 S
C298 C299 1.358 1_556 S
C298 C303 1.371 . S
C299 H265 0.930 . S
C299 C298 1.358 1_554 S
C299 C300 1.405 1_554 S
C300 H266 0.932 . S
C300 C299 1.405 1_556 S
C300 C301 1.383 . S
C301 C300 1.383 . S
C301 C302 1.393 . S
C302 H267 0.931 . S
C302 C301 1.393 . S
C302 C303 1.382 . S
C303 H268 0.929 . S
C303 C298 1.371 . S
C303 C302 1.382 . S
C304 N272 1.442 . S
C304 C305 1.382 . S
C304 C309 1.352 1_554 S
C305 H269 0.929 . S
C305 C304 1.382 . S
C305 C306 1.376 . S
C306 H270 0.931 1_565 S
C306 C305 1.376 . S
C306 C307 1.396 1_564 S
C307 C289 1.472 . S
C307 C306 1.396 1_546 S
C307 C308 1.348 1_545 S
C308 H271 0.929 . S
C308 C307 1.348 1_565 S
C308 C309 1.443 . S
C309 H273 0.932 . S
C309 C304 1.352 1_556 S
C309 C308 1.443 . S
H310 C337 0.929 . S
N311 C336 1.433 . S
N311 C342 1.435 . S
N311 C348 1.423 . S
H312 C338 0.930 . S
H313 C341 0.931 . S
H314 C340 0.929 . S
H315 C343 0.930 . S
H316 C344 0.932 . S
H317 C347 0.929 . S
H318 C346 0.931 . S
H319 C349 0.929 . S
H320 C353 0.932 . S
H321 C350 0.931 . S
H322 C352 0.929 . S
H323 C355 0.929 . S
H324 C356 0.930 . S
H325 C358 0.929 . S
H326 C359 0.931 . S
H327 C361 0.930 . S
H328 C362 0.932 . S
H329 C364 0.931 . S
H330 C365 0.929 . S
H331 C367 0.929 . S
H332 C368 0.931 . S
H333 C370 0.929 . S
N334 C354 1.433 . S
N334 C360 1.435 . S
N334 C366 1.423 . S
H335 C371 0.932 . S
C336 N311 1.433 . S
C336 C337 1.363 . S
C336 C341 1.370 . S
C337 H310 0.929 . S
C337 C336 1.363 . S
C337 C338 1.385 . S
C338 H312 0.930 . S
C338 C337 1.385 . S
C338 C339 1.357 . S
C339 C338 1.357 . S
C339 C340 1.406 . S
C340 H314 0.929 . S
C340 C339 1.406 . S
C340 C341 1.391 . S
C341 H313 0.931 . S
C341 C336 1.370 . S
C341 C340 1.391 . S
C342 N311 1.435 . S
C342 C343 1.358 . S
C342 C347 1.371 . S
C343 H315 0.930 . S
C343 C342 1.358 . S
C343 C344 1.405 . S
C344 H316 0.932 . S
C344 C343 1.405 . S
C344 C345 1.383 . S
C345 C344 1.383 . S
C345 C346 1.393 . S
C346 H318 0.931 . S
C346 C345 1.393 . S
C346 C347 1.382 . S
C347 H317 0.929 . S
C347 C342 1.371 . S
C347 C346 1.382 . S
C348 N311 1.423 . S
C348 C349 1.362 . S
C348 C353 1.388 . S
C349 H319 0.929 . S
C349 C348 1.362 . S
C349 C350 1.376 . S
C350 H321 0.931 . S
C350 C349 1.376 . S
C350 C351 1.396 . S
C351 C350 1.396 . S
C351 C352 1.348 . S
C351 C369 1.472 . S
C352 H322 0.929 . S
C352 C351 1.348 . S
C352 C353 1.443 . S
C353 H320 0.932 . S
C353 C348 1.388 . S
C353 C352 1.443 . S
C354 N334 1.433 . S
C354 C355 1.363 . S
C354 C359 1.370 . S
C355 H323 0.929 . S
C355 C354 1.363 . S
C355 C356 1.385 . S
C356 H324 0.930 . S
C356 C355 1.385 . S
C356 C357 1.357 . S
C357 C356 1.357 . S
C357 C358 1.406 . S
C358 H325 0.929 . S
C358 C357 1.406 . S
C358 C359 1.391 . S
C359 H326 0.931 . S
C359 C354 1.370 . S
C359 C358 1.391 . S
C360 N334 1.435 . S
C360 C361 1.358 . S
C360 C365 1.371 . S
C361 H327 0.930 . S
C361 C360 1.358 . S
C361 C362 1.405 . S
C362 H328 0.932 . S
C362 C361 1.405 . S
C362 C363 1.383 . S
C363 C362 1.383 . S
C363 C364 1.393 . S
C364 H329 0.931 . S
C364 C363 1.393 . S
C364 C365 1.382 . S
C365 H330 0.929 . S
C365 C360 1.371 . S
C365 C364 1.382 . S
C366 N334 1.423 . S
C366 C367 1.362 . S
C366 C371 1.388 . S
C367 H331 0.929 . S
C367 C366 1.362 . S
C367 C368 1.376 . S
C368 H332 0.931 . S
C368 C367 1.376 . S
C368 C369 1.396 . S
C369 C351 1.472 . S
C369 C368 1.396 . S
C369 C370 1.348 . S
C370 H333 0.929 . S
C370 C369 1.348 . S
C370 C371 1.443 . S
C371 H335 0.932 . S
C371 C366 1.388 . S
C371 C370 1.443 . S
Li372 N389 1.990 . S
Li372 O432 1.956 . S
Li372 O433 1.970 . S
Li372 O434 1.961 . S
Li373 N397 1.990 . S
Li373 O432 1.970 . S
Li373 O433 1.956 . S
Li373 O435 1.961 . S
Li374 N419 1.990 . S
Li374 O432 1.961 . S
Li374 O434 1.956 . S
Li374 O435 1.970 . S
Li375 N425 1.990 . S
Li375 O433 1.961 . S
Li375 O434 1.970 . S
Li375 O435 1.956 . S
C376 C378 1.348 . S
C376 C379 1.356 . S
C376 O432 1.325 . S
N377 C380 1.314 . S
N377 C381 1.279 . S
C378 C376 1.348 . S
C378 C380 1.353 . S
C378 H436 0.929 . S
C379 C376 1.356 . S
C379 C381 1.358 . S
C379 H437 0.930 . S
C380 N377 1.314 . S
C380 C378 1.353 . S
C380 H438 0.930 . S
C381 N377 1.279 . S
C381 C379 1.358 . S
C381 H439 0.930 . S
C382 C385 1.348 . S
C382 C386 1.356 . S
C382 O433 1.325 . S
C383 N384 1.279 . S
C383 C386 1.358 . S
C383 H440 0.930 . S
N384 C383 1.279 . S
N384 C387 1.314 . S
C385 C382 1.348 . S
C385 C387 1.353 . S
C385 H441 0.929 . S
C386 C382 1.356 . S
C386 C383 1.358 . S
C386 H442 0.930 . S
C387 N384 1.314 . S
C387 C385 1.353 . S
C387 H443 0.930 . S
C388 N389 1.314 . S
C388 C393 1.353 . S
C388 H394 0.930 . S
N389 Li372 1.990 . S
N389 C388 1.314 . S
N389 C391 1.279 . S
C390 C391 1.358 . S
C390 C392 1.356 . S
C390 H444 0.930 . S
C391 N389 1.279 . S
C391 C390 1.358 . S
C391 H395 0.930 . S
C392 C390 1.356 . S
C392 C393 1.348 . S
C393 C388 1.353 . S
C393 C392 1.348 . S
C393 H445 0.929 . S
H394 C388 0.930 . S
H395 C391 0.930 . S
C396 N397 1.314 . S
C396 C398 1.353 . S
C396 H402 0.930 . S
N397 Li373 1.990 . S
N397 C396 1.314 . S
N397 C400 1.279 . S
C398 C396 1.353 . S
C398 C401 1.348 . S
C398 H446 0.929 . S
C399 C400 1.358 . S
C399 C401 1.356 . S
C399 H447 0.930 . S
C400 N397 1.279 . S
C400 C399 1.358 . S
C400 H403 0.930 . S
C401 C398 1.348 . S
C401 C399 1.356 . S
H402 C396 0.930 . S
H403 C400 0.930 . S
C404 C406 1.348 . S
C404 C407 1.356 . S
C404 O434 1.325 . S
N405 C408 1.314 . S
N405 C409 1.279 . S
C406 C404 1.348 . S
C406 C408 1.353 . S
C406 H448 0.929 . S
C407 C404 1.356 . S
C407 C409 1.358 . S
C407 H449 0.930 . S
C408 N405 1.314 . S
C408 C406 1.353 . S
C408 H450 0.930 . S
C409 N405 1.279 . S
C409 C407 1.358 . S
C409 H451 0.930 . S
C410 C411 1.348 . S
C410 C412 1.356 . S
C410 O435 1.325 . S
C411 C410 1.348 . S
C411 C413 1.353 . S
C411 H452 0.929 . S
C412 C410 1.356 . S
C412 C414 1.358 . S
C412 H453 0.930 . S
C413 C411 1.353 . S
C413 N415 1.314 . S
C413 H454 0.930 . S
C414 C412 1.358 . S
C414 N415 1.279 . S
C414 H455 0.930 . S
N415 C413 1.314 . S
N415 C414 1.279 . S
C416 C418 1.353 . S
C416 N419 1.314 . S
C416 H422 0.930 . S
C417 N419 1.279 . S
C417 C420 1.358 . S
C417 H423 0.930 . S
C418 C416 1.353 . S
C418 C421 1.348 . S
C418 H456 0.929 . S
N419 Li374 1.990 . S
N419 C416 1.314 . S
N419 C417 1.279 . S
C420 C417 1.358 . S
C420 C421 1.356 . S
C420 H457 0.930 . S
C421 C418 1.348 . S
C421 C420 1.356 . S
H422 C416 0.930 . S
H423 C417 0.930 . S
C424 N425 1.314 . S
C424 C426 1.353 . S
C424 H430 0.930 . S
N425 Li375 1.990 . S
N425 C424 1.314 . S
N425 C428 1.279 . S
C426 C424 1.353 . S
C426 C429 1.348 . S
C426 H458 0.929 . S
C427 C428 1.358 . S
C427 C429 1.356 . S
C427 H459 0.930 . S
C428 N425 1.279 . S
C428 C427 1.358 . S
C428 H431 0.930 . S
C429 C426 1.348 . S
C429 C427 1.356 . S
H430 C424 0.930 . S
H431 C428 0.930 . S
O432 Li372 1.956 . S
O432 Li373 1.970 . S
O432 Li374 1.961 . S
O432 C376 1.325 . S
O433 Li372 1.970 . S
O433 Li373 1.956 . S
O433 Li375 1.961 . S
O433 C382 1.325 . S
O434 Li372 1.961 . S
O434 Li374 1.956 . S
O434 Li375 1.970 . S
O434 C404 1.325 . S
O435 Li373 1.961 . S
O435 Li374 1.970 . S
O435 Li375 1.956 . S
O435 C410 1.325 . S
H436 C378 0.929 . S
H437 C379 0.930 . S
H438 C380 0.930 . S
H439 C381 0.930 . S
H440 C383 0.930 . S
H441 C385 0.929 . S
H442 C386 0.930 . S
H443 C387 0.930 . S
H444 C390 0.930 . S
H445 C393 0.929 . S
H446 C398 0.929 . S
H447 C399 0.930 . S
H448 C406 0.929 . S
H449 C407 0.930 . S
H450 C408 0.930 . S
H451 C409 0.930 . S
H452 C411 0.929 . S
H453 C412 0.930 . S
H454 C413 0.930 . S
H455 C414 0.930 . S
H456 C418 0.929 . S
H457 C420 0.930 . S
H458 C426 0.929 . S
H459 C427 0.930 . S
Li460 N477 1.990 . S
Li460 O520 1.956 . S
Li460 O521 1.970 . S
Li460 O522 1.961 . S
Li461 N485 1.990 . S
Li461 O520 1.970 . S
Li461 O521 1.956 . S
Li461 O523 1.961 . S
Li462 N507 1.990 . S
Li462 O520 1.961 . S
Li462 O522 1.956 . S
Li462 O523 1.970 . S
Li463 N513 1.990 . S
Li463 O521 1.961 . S
Li463 O522 1.970 . S
Li463 O523 1.956 . S
C464 C466 1.348 . S
C464 C467 1.356 . S
C464 O520 1.325 . S
N465 C468 1.314 . S
N465 C469 1.279 . S
C466 C464 1.348 . S
C466 C468 1.353 . S
C466 H524 0.929 . S
C467 C464 1.356 . S
C467 C469 1.358 . S
C467 H525 0.930 . S
C468 N465 1.314 . S
C468 C466 1.353 . S
C468 H526 0.930 . S
C469 N465 1.279 . S
C469 C467 1.358 . S
C469 H527 0.930 . S
C470 C473 1.348 . S
C470 C474 1.356 . S
C470 O521 1.325 . S
C471 N472 1.279 . S
C471 C474 1.358 . S
C471 H528 0.930 . S
N472 C471 1.279 . S
N472 C475 1.314 . S
C473 C470 1.348 . S
C473 C475 1.353 . S
C473 H529 0.929 . S
C474 C470 1.356 . S
C474 C471 1.358 . S
C474 H530 0.930 . S
C475 N472 1.314 . S
C475 C473 1.353 . S
C475 H531 0.930 . S
C476 N477 1.314 . S
C476 C481 1.353 . S
C476 H482 0.930 . S
N477 Li460 1.990 . S
N477 C476 1.314 . S
N477 C479 1.279 . S
C478 C479 1.358 . S
C478 C480 1.356 . S
C478 H532 0.930 . S
C479 N477 1.279 . S
C479 C478 1.358 . S
C479 H483 0.930 . S
C480 C478 1.356 . S
C480 C481 1.348 . S
C481 C476 1.353 . S
C481 C480 1.348 . S
C481 H533 0.929 . S
H482 C476 0.930 . S
H483 C479 0.930 . S
C484 N485 1.314 . S
C484 C486 1.353 . S
C484 H490 0.930 . S
N485 Li461 1.990 . S
N485 C484 1.314 . S
N485 C488 1.279 . S
C486 C484 1.353 . S
C486 C489 1.348 . S
C486 H534 0.929 . S
C487 C488 1.358 . S
C487 C489 1.356 . S
C487 H535 0.930 . S
C488 N485 1.279 . S
C488 C487 1.358 . S
C488 H491 0.930 . S
C489 C486 1.348 . S
C489 C487 1.356 . S
H490 C484 0.930 . S
H491 C488 0.930 . S
C492 C494 1.348 . S
C492 C495 1.356 . S
C492 O522 1.325 . S
N493 C496 1.314 . S
N493 C497 1.279 . S
C494 C492 1.348 . S
C494 C496 1.353 . S
C494 H536 0.929 . S
C495 C492 1.356 . S
C495 C497 1.358 . S
C495 H537 0.930 . S
C496 N493 1.314 . S
C496 C494 1.353 . S
C496 H538 0.930 . S
C497 N493 1.279 . S
C497 C495 1.358 . S
C497 H539 0.930 . S
C498 C499 1.348 . S
C498 C500 1.356 . S
C498 O523 1.325 . S
C499 C498 1.348 . S
C499 C501 1.353 . S
C499 H540 0.929 . S
C500 C498 1.356 . S
C500 C502 1.358 . S
C500 H541 0.930 . S
C501 C499 1.353 . S
C501 N503 1.314 . S
C501 H542 0.930 . S
C502 C500 1.358 . S
C502 N503 1.279 . S
C502 H543 0.930 . S
N503 C501 1.314 . S
N503 C502 1.279 . S
C504 C506 1.353 . S
C504 N507 1.314 . S
C504 H510 0.930 . S
C505 N507 1.279 . S
C505 C508 1.358 . S
C505 H511 0.930 . S
C506 C504 1.353 . S
C506 C509 1.348 . S
C506 H544 0.929 . S
N507 Li462 1.990 . S
N507 C504 1.314 . S
N507 C505 1.279 . S
C508 C505 1.358 . S
C508 C509 1.356 . S
C508 H545 0.930 . S
C509 C506 1.348 . S
C509 C508 1.356 . S
H510 C504 0.930 . S
H511 C505 0.930 . S
C512 N513 1.314 . S
C512 C514 1.353 . S
C512 H518 0.930 . S
N513 Li463 1.990 . S
N513 C512 1.314 . S
N513 C516 1.279 . S
C514 C512 1.353 . S
C514 C517 1.348 . S
C514 H546 0.929 . S
C515 C516 1.358 . S
C515 C517 1.356 . S
C515 H547 0.930 . S
C516 N513 1.279 . S
C516 C515 1.358 . S
C516 H519 0.930 . S
C517 C514 1.348 . S
C517 C515 1.356 . S
H518 C512 0.930 . S
H519 C516 0.930 . S
O520 Li460 1.956 . S
O520 Li461 1.970 . S
O520 Li462 1.961 . S
O520 C464 1.325 . S
O521 Li460 1.970 . S
O521 Li461 1.956 . S
O521 Li463 1.961 . S
O521 C470 1.325 . S
O522 Li460 1.961 . S
O522 Li462 1.956 . S
O522 Li463 1.970 . S
O522 C492 1.325 . S
O523 Li461 1.961 . S
O523 Li462 1.970 . S
O523 Li463 1.956 . S
O523 C498 1.325 . S
H524 C466 0.929 . S
H525 C467 0.930 . S
H526 C468 0.930 . S
H527 C469 0.930 . S
H528 C471 0.930 . S
H529 C473 0.929 . S
H530 C474 0.930 . S
H531 C475 0.930 . S
H532 C478 0.930 . S
H533 C481 0.929 . S
H534 C486 0.929 . S
H535 C487 0.930 . S
H536 C494 0.929 . S
H537 C495 0.930 . S
H538 C496 0.930 . S
H539 C497 0.930 . S
H540 C499 0.929 . S
H541 C500 0.930 . S
H542 C501 0.930 . S
H543 C502 0.930 . S
H544 C506 0.929 . S
H545 C508 0.930 . S
H546 C514 0.929 . S
H547 C515 0.930 . S
Li548 N565 1.990 . S
Li548 O608 1.956 . S
Li548 O609 1.970 . S
Li548 O610 1.961 . S
Li549 N573 1.990 . S
Li549 O608 1.970 . S
Li549 O609 1.956 . S
Li549 O611 1.961 . S
Li550 N595 1.990 . S
Li550 O608 1.961 . S
Li550 O610 1.956 . S
Li550 O611 1.970 . S
Li551 N601 1.990 . S
Li551 O609 1.961 . S
Li551 O610 1.970 . S
Li551 O611 1.956 . S
C552 C554 1.348 . S
C552 C555 1.356 . S
C552 O608 1.325 . S
N553 C556 1.314 . S
N553 C557 1.279 . S
C554 C552 1.348 . S
C554 C556 1.353 . S
C554 H612 0.929 . S
C555 C552 1.356 . S
C555 C557 1.358 . S
C555 H613 0.930 . S
C556 N553 1.314 . S
C556 C554 1.353 . S
C556 H614 0.930 . S
C557 N553 1.279 . S
C557 C555 1.358 . S
C557 H615 0.930 . S
C558 C561 1.348 . S
C558 C562 1.356 . S
C558 O609 1.325 . S
C559 N560 1.279 . S
C559 C562 1.358 . S
C559 H616 0.930 . S
N560 C559 1.279 . S
N560 C563 1.314 . S
C561 C558 1.348 . S
C561 C563 1.353 . S
C561 H617 0.929 . S
C562 C558 1.356 . S
C562 C559 1.358 . S
C562 H618 0.930 . S
C563 N560 1.314 . S
C563 C561 1.353 . S
C563 H619 0.930 . S
C564 N565 1.314 . S
C564 C569 1.353 . S
C564 H570 0.930 . S
N565 Li548 1.990 . S
N565 C564 1.314 . S
N565 C567 1.279 . S
C566 C567 1.358 . S
C566 C568 1.356 . S
C566 H620 0.930 . S
C567 N565 1.279 . S
C567 C566 1.358 . S
C567 H571 0.930 . S
C568 C566 1.356 . S
C568 C569 1.348 . S
C569 C564 1.353 . S
C569 C568 1.348 . S
C569 H621 0.929 . S
H570 C564 0.930 . S
H571 C567 0.930 . S
C572 N573 1.314 . S
C572 C574 1.353 . S
C572 H578 0.930 . S
N573 Li549 1.990 . S
N573 C572 1.314 . S
N573 C576 1.279 . S
C574 C572 1.353 . S
C574 C577 1.348 . S
C574 H622 0.929 . S
C575 C576 1.358 . S
C575 C577 1.356 . S
C575 H623 0.930 . S
C576 N573 1.279 . S
C576 C575 1.358 . S
C576 H579 0.930 . S
C577 C574 1.348 . S
C577 C575 1.356 . S
H578 C572 0.930 . S
H579 C576 0.930 . S
C580 C582 1.348 . S
C580 C583 1.356 . S
C580 O610 1.325 . S
N581 C584 1.314 . S
N581 C585 1.279 . S
C582 C580 1.348 . S
C582 C584 1.353 . S
C582 H624 0.929 . S
C583 C580 1.356 . S
C583 C585 1.358 . S
C583 H625 0.930 . S
C584 N581 1.314 . S
C584 C582 1.353 . S
C584 H626 0.930 . S
C585 N581 1.279 . S
C585 C583 1.358 . S
C585 H627 0.930 . S
C586 C587 1.348 . S
C586 C588 1.356 . S
C586 O611 1.325 . S
C587 C586 1.348 . S
C587 C589 1.353 . S
C587 H628 0.929 . S
C588 C586 1.356 . S
C588 C590 1.358 . S
C588 H629 0.930 . S
C589 C587 1.353 . S
C589 N591 1.314 . S
C589 H630 0.930 . S
C590 C588 1.358 . S
C590 N591 1.279 . S
C590 H631 0.930 . S
N591 C589 1.314 . S
N591 C590 1.279 . S
C592 C594 1.353 . S
C592 N595 1.314 . S
C592 H598 0.930 . S
C593 N595 1.279 . S
C593 C596 1.358 . S
C593 H599 0.930 . S
C594 C592 1.353 . S
C594 C597 1.348 . S
C594 H632 0.929 . S
N595 Li550 1.990 . S
N595 C592 1.314 . S
N595 C593 1.279 . S
C596 C593 1.358 . S
C596 C597 1.356 . S
C596 H633 0.930 . S
C597 C594 1.348 . S
C597 C596 1.356 . S
H598 C592 0.930 . S
H599 C593 0.930 . S
C600 N601 1.314 . S
C600 C602 1.353 . S
C600 H606 0.930 . S
N601 Li551 1.990 . S
N601 C600 1.314 . S
N601 C604 1.279 . S
C602 C600 1.353 . S
C602 C605 1.348 . S
C602 H634 0.929 . S
C603 C604 1.358 . S
C603 C605 1.356 . S
C603 H635 0.930 . S
C604 N601 1.279 . S
C604 C603 1.358 . S
C604 H607 0.930 . S
C605 C602 1.348 . S
C605 C603 1.356 . S
H606 C600 0.930 . S
H607 C604 0.930 . S
O608 Li548 1.956 . S
O608 Li549 1.970 . S
O608 Li550 1.961 . S
O608 C552 1.325 . S
O609 Li548 1.970 . S
O609 Li549 1.956 . S
O609 Li551 1.961 . S
O609 C558 1.325 . S
O610 Li548 1.961 . S
O610 Li550 1.956 . S
O610 Li551 1.970 . S
O610 C580 1.325 . S
O611 Li549 1.961 . S
O611 Li550 1.970 . S
O611 Li551 1.956 . S
O611 C586 1.325 . S
H612 C554 0.929 . S
H613 C555 0.930 . S
H614 C556 0.930 . S
H615 C557 0.930 . S
H616 C559 0.930 . S
H617 C561 0.929 . S
H618 C562 0.930 . S
H619 C563 0.930 . S
H620 C566 0.930 . S
H621 C569 0.929 . S
H622 C574 0.929 . S
H623 C575 0.930 . S
H624 C582 0.929 . S
H625 C583 0.930 . S
H626 C584 0.930 . S
H627 C585 0.930 . S
H628 C587 0.929 . S
H629 C588 0.930 . S
H630 C589 0.930 . S
H631 C590 0.930 . S
H632 C594 0.929 . S
H633 C596 0.930 . S
H634 C602 0.929 . S
H635 C603 0.930 . S
Li636 N653 1.990 . S
Li636 O696 1.956 . S
Li636 O697 1.970 . S
Li636 O698 1.961 . S
Li637 N661 1.990 . S
Li637 O696 1.970 . S
Li637 O697 1.956 . S
Li637 O699 1.961 . S
Li638 N683 1.990 . S
Li638 O696 1.961 . S
Li638 O698 1.956 . S
Li638 O699 1.970 . S
Li639 N689 1.990 . S
Li639 O697 1.961 . S
Li639 O698 1.970 . S
Li639 O699 1.956 . S
C640 C642 1.348 . S
C640 C643 1.356 . S
C640 O696 1.325 . S
N641 C644 1.314 . S
N641 C645 1.279 . S
C642 C640 1.348 . S
C642 C644 1.353 . S
C642 H700 0.929 . S
C643 C640 1.356 . S
C643 C645 1.358 . S
C643 H701 0.930 . S
C644 N641 1.314 . S
C644 C642 1.353 . S
C644 H702 0.930 . S
C645 N641 1.279 . S
C645 C643 1.358 . S
C645 H703 0.930 . S
C646 C649 1.348 . S
C646 C650 1.356 . S
C646 O697 1.325 . S
C647 N648 1.279 . S
C647 C650 1.358 . S
C647 H704 0.930 . S
N648 C647 1.279 . S
N648 C651 1.314 . S
C649 C646 1.348 . S
C649 C651 1.353 . S
C649 H705 0.929 . S
C650 C646 1.356 . S
C650 C647 1.358 . S
C650 H706 0.930 . S
C651 N648 1.314 . S
C651 C649 1.353 . S
C651 H707 0.930 . S
C652 N653 1.314 . S
C652 C657 1.353 . S
C652 H658 0.930 . S
N653 Li636 1.990 . S
N653 C652 1.314 . S
N653 C655 1.279 . S
C654 C655 1.358 . S
C654 C656 1.356 . S
C654 H708 0.930 . S
C655 N653 1.279 . S
C655 C654 1.358 . S
C655 H659 0.930 . S
C656 C654 1.356 . S
C656 C657 1.348 . S
C657 C652 1.353 . S
C657 C656 1.348 . S
C657 H709 0.929 . S
H658 C652 0.930 . S
H659 C655 0.930 . S
C660 N661 1.314 . S
C660 C662 1.353 . S
C660 H666 0.930 . S
N661 Li637 1.990 . S
N661 C660 1.314 . S
N661 C664 1.279 . S
C662 C660 1.353 . S
C662 C665 1.348 . S
C662 H710 0.929 . S
C663 C664 1.358 . S
C663 C665 1.356 . S
C663 H711 0.930 . S
C664 N661 1.279 . S
C664 C663 1.358 . S
C664 H667 0.930 . S
C665 C662 1.348 . S
C665 C663 1.356 . S
H666 C660 0.930 . S
H667 C664 0.930 . S
C668 C670 1.348 . S
C668 C671 1.356 . S
C668 O698 1.325 . S
N669 C672 1.314 . S
N669 C673 1.279 . S
C670 C668 1.348 . S
C670 C672 1.353 . S
C670 H712 0.929 . S
C671 C668 1.356 . S
C671 C673 1.358 . S
C671 H713 0.930 . S
C672 N669 1.314 . S
C672 C670 1.353 . S
C672 H714 0.930 . S
C673 N669 1.279 . S
C673 C671 1.358 . S
C673 H715 0.930 . S
C674 C675 1.348 . S
C674 C676 1.356 . S
C674 O699 1.325 . S
C675 C674 1.348 . S
C675 C677 1.353 . S
C675 H716 0.929 . S
C676 C674 1.356 . S
C676 C678 1.358 . S
C676 H717 0.930 . S
C677 C675 1.353 . S
C677 N679 1.314 . S
C677 H718 0.930 . S
C678 C676 1.358 . S
C678 N679 1.279 . S
C678 H719 0.930 . S
N679 C677 1.314 . S
N679 C678 1.279 . S
C680 C682 1.353 . S
C680 N683 1.314 . S
C680 H686 0.930 . S
C681 N683 1.279 . S
C681 C684 1.358 . S
C681 H687 0.930 . S
C682 C680 1.353 . S
C682 C685 1.348 . S
C682 H720 0.929 . S
N683 Li638 1.990 . S
N683 C680 1.314 . S
N683 C681 1.279 . S
C684 C681 1.358 . S
C684 C685 1.356 . S
C684 H721 0.930 . S
C685 C682 1.348 . S
C685 C684 1.356 . S
H686 C680 0.930 . S
H687 C681 0.930 . S
C688 N689 1.314 . S
C688 C690 1.353 . S
C688 H694 0.930 . S
N689 Li639 1.990 . S
N689 C688 1.314 . S
N689 C692 1.279 . S
C690 C688 1.353 . S
C690 C693 1.348 . S
C690 H722 0.929 . S
C691 C692 1.358 . S
C691 C693 1.356 . S
C691 H723 0.930 . S
C692 N689 1.279 . S
C692 C691 1.358 . S
C692 H695 0.930 . S
C693 C690 1.348 . S
C693 C691 1.356 . S
H694 C688 0.930 . S
H695 C692 0.930 . S
O696 Li636 1.956 . S
O696 Li637 1.970 . S
O696 Li638 1.961 . S
O696 C640 1.325 . S
O697 Li636 1.970 . S
O697 Li637 1.956 . S
O697 Li639 1.961 . S
O697 C646 1.325 . S
O698 Li636 1.961 . S
O698 Li638 1.956 . S
O698 Li639 1.970 . S
O698 C668 1.325 . S
O699 Li637 1.961 . S
O699 Li638 1.970 . S
O699 Li639 1.956 . S
O699 C674 1.325 . S
H700 C642 0.929 . S
H701 C643 0.930 . S
H702 C644 0.930 . S
H703 C645 0.930 . S
H704 C647 0.930 . S
H705 C649 0.929 . S
H706 C650 0.930 . S
H707 C651 0.930 . S
H708 C654 0.930 . S
H709 C657 0.929 . S
H710 C662 0.929 . S
H711 C663 0.930 . S
H712 C670 0.929 . S
H713 C671 0.930 . S
H714 C672 0.930 . S
H715 C673 0.930 . S
H716 C675 0.929 . S
H717 C676 0.930 . S
H718 C677 0.930 . S
H719 C678 0.930 . S
H720 C682 0.929 . S
H721 C684 0.930 . S
H722 C690 0.929 . S
H723 C691 0.930 . S
Li724 N741 1.990 . S
Li724 O784 1.956 . S
Li724 O785 1.970 . S
Li724 O786 1.961 . S
Li725 N749 1.990 . S
Li725 O784 1.970 . S
Li725 O785 1.956 . S
Li725 O787 1.961 . S
Li726 N771 1.990 . S
Li726 O784 1.961 . S
Li726 O786 1.956 . S
Li726 O787 1.970 . S
Li727 N777 1.990 . S
Li727 O785 1.961 . S
Li727 O786 1.970 . S
Li727 O787 1.956 . S
C728 C730 1.348 . S
C728 C731 1.356 . S
C728 O784 1.325 . S
N729 C732 1.314 . S
N729 C733 1.279 . S
C730 C728 1.348 . S
C730 C732 1.353 . S
C730 H788 0.929 . S
C731 C728 1.356 . S
C731 C733 1.358 . S
C731 H789 0.930 . S
C732 N729 1.314 . S
C732 C730 1.353 . S
C732 H790 0.930 . S
C733 N729 1.279 . S
C733 C731 1.358 . S
C733 H791 0.930 . S
C734 C737 1.348 . S
C734 C738 1.356 . S
C734 O785 1.325 . S
C735 N736 1.279 . S
C735 C738 1.358 . S
C735 H792 0.930 . S
N736 C735 1.279 . S
N736 C739 1.314 . S
C737 C734 1.348 . S
C737 C739 1.353 . S
C737 H793 0.929 . S
C738 C734 1.356 . S
C738 C735 1.358 . S
C738 H794 0.930 . S
C739 N736 1.314 . S
C739 C737 1.353 . S
C739 H795 0.930 . S
C740 N741 1.314 . S
C740 C745 1.353 . S
C740 H746 0.930 . S
N741 Li724 1.990 . S
N741 C740 1.314 . S
N741 C743 1.279 . S
C742 C743 1.358 . S
C742 C744 1.356 . S
C742 H796 0.930 . S
C743 N741 1.279 . S
C743 C742 1.358 . S
C743 H747 0.930 . S
C744 C742 1.356 . S
C744 C745 1.348 . S
C745 C740 1.353 . S
C745 C744 1.348 . S
C745 H797 0.929 . S
H746 C740 0.930 . S
H747 C743 0.930 . S
C748 N749 1.314 . S
C748 C750 1.353 . S
C748 H754 0.930 . S
N749 Li725 1.990 . S
N749 C748 1.314 . S
N749 C752 1.279 . S
C750 C748 1.353 . S
C750 C753 1.348 . S
C750 H798 0.929 . S
C751 C752 1.358 . S
C751 C753 1.356 . S
C751 H799 0.930 . S
C752 N749 1.279 . S
C752 C751 1.358 . S
C752 H755 0.930 . S
C753 C750 1.348 . S
C753 C751 1.356 . S
H754 C748 0.930 . S
H755 C752 0.930 . S
C756 C758 1.348 . S
C756 C759 1.356 . S
C756 O786 1.325 . S
N757 C760 1.314 . S
N757 C761 1.279 . S
C758 C756 1.348 . S
C758 C760 1.353 . S
C758 H800 0.929 . S
C759 C756 1.356 . S
C759 C761 1.358 . S
C759 H801 0.930 . S
C760 N757 1.314 . S
C760 C758 1.353 . S
C760 H802 0.930 . S
C761 N757 1.279 . S
C761 C759 1.358 . S
C761 H803 0.930 . S
C762 C763 1.348 . S
C762 C764 1.356 . S
C762 O787 1.325 . S
C763 C762 1.348 . S
C763 C765 1.353 . S
C763 H804 0.929 . S
C764 C762 1.356 . S
C764 C766 1.358 . S
C764 H805 0.930 . S
C765 C763 1.353 . S
C765 N767 1.314 . S
C765 H806 0.930 . S
C766 C764 1.358 . S
C766 N767 1.279 . S
C766 H807 0.930 . S
N767 C765 1.314 . S
N767 C766 1.279 . S
C768 C770 1.353 . S
C768 N771 1.314 . S
C768 H774 0.930 . S
C769 N771 1.279 . S
C769 C772 1.358 . S
C769 H775 0.930 . S
C770 C768 1.353 . S
C770 C773 1.348 . S
C770 H808 0.929 . S
N771 Li726 1.990 . S
N771 C768 1.314 . S
N771 C769 1.279 . S
C772 C769 1.358 . S
C772 C773 1.356 . S
C772 H809 0.930 . S
C773 C770 1.348 . S
C773 C772 1.356 . S
H774 C768 0.930 . S
H775 C769 0.930 . S
C776 N777 1.314 . S
C776 C778 1.353 . S
C776 H782 0.930 . S
N777 Li727 1.990 . S
N777 C776 1.314 . S
N777 C780 1.279 . S
C778 C776 1.353 . S
C778 C781 1.348 . S
C778 H810 0.929 . S
C779 C780 1.358 . S
C779 C781 1.356 . S
C779 H811 0.930 . S
C780 N777 1.279 . S
C780 C779 1.358 . S
C780 H783 0.930 . S
C781 C778 1.348 . S
C781 C779 1.356 . S
H782 C776 0.930 . S
H783 C780 0.930 . S
O784 Li724 1.956 . S
O784 Li725 1.970 . S
O784 Li726 1.961 . S
O784 C728 1.325 . S
O785 Li724 1.970 . S
O785 Li725 1.956 . S
O785 Li727 1.961 . S
O785 C734 1.325 . S
O786 Li724 1.961 . S
O786 Li726 1.956 . S
O786 Li727 1.970 . S
O786 C756 1.325 . S
O787 Li725 1.961 . S
O787 Li726 1.970 . S
O787 Li727 1.956 . S
O787 C762 1.325 . S
H788 C730 0.929 . S
H789 C731 0.930 . S
H790 C732 0.930 . S
H791 C733 0.930 . S
H792 C735 0.930 . S
H793 C737 0.929 . S
H794 C738 0.930 . S
H795 C739 0.930 . S
H796 C742 0.930 . S
H797 C745 0.929 . S
H798 C750 0.929 . S
H799 C751 0.930 . S
H800 C758 0.929 . S
H801 C759 0.930 . S
H802 C760 0.930 . S
H803 C761 0.930 . S
H804 C763 0.929 . S
H805 C764 0.930 . S
H806 C765 0.930 . S
H807 C766 0.930 . S
H808 C770 0.929 . S
H809 C772 0.930 . S
H810 C778 0.929 . S
H811 C779 0.930 . S
Li812 N829 1.990 . S
Li812 O872 1.956 . S
Li812 O873 1.970 . S
Li812 O874 1.961 . S
Li813 N837 1.990 . S
Li813 O872 1.970 . S
Li813 O873 1.956 . S
Li813 O875 1.961 . S
Li814 N859 1.990 . S
Li814 O872 1.961 . S
Li814 O874 1.956 . S
Li814 O875 1.970 . S
Li815 N865 1.990 . S
Li815 O873 1.961 . S
Li815 O874 1.970 . S
Li815 O875 1.956 . S
C816 C818 1.348 . S
C816 C819 1.356 . S
C816 O872 1.325 . S
N817 C820 1.314 . S
N817 C821 1.279 . S
C818 C816 1.348 . S
C818 C820 1.353 . S
C818 H876 0.929 . S
C819 C816 1.356 . S
C819 C821 1.358 . S
C819 H877 0.930 . S
C820 N817 1.314 . S
C820 C818 1.353 . S
C820 H878 0.930 . S
C821 N817 1.279 . S
C821 C819 1.358 . S
C821 H879 0.930 . S
C822 C825 1.348 . S
C822 C826 1.356 . S
C822 O873 1.325 . S
C823 N824 1.279 . S
C823 C826 1.358 . S
C823 H880 0.930 . S
N824 C823 1.279 . S
N824 C827 1.314 . S
C825 C822 1.348 . S
C825 C827 1.353 . S
C825 H881 0.929 . S
C826 C822 1.356 . S
C826 C823 1.358 . S
C826 H882 0.930 . S
C827 N824 1.314 . S
C827 C825 1.353 . S
C827 H883 0.930 . S
C828 N829 1.314 . S
C828 C833 1.353 . S
C828 H834 0.930 . S
N829 Li812 1.990 . S
N829 C828 1.314 . S
N829 C831 1.279 . S
C830 C831 1.358 . S
C830 C832 1.356 . S
C830 H884 0.930 . S
C831 N829 1.279 . S
C831 C830 1.358 . S
C831 H835 0.930 . S
C832 C830 1.356 . S
C832 C833 1.348 . S
C833 C828 1.353 . S
C833 C832 1.348 . S
C833 H885 0.929 . S
H834 C828 0.930 . S
H835 C831 0.930 . S
C836 N837 1.314 . S
C836 C838 1.353 . S
C836 H842 0.930 . S
N837 Li813 1.990 . S
N837 C836 1.314 . S
N837 C840 1.279 . S
C838 C836 1.353 . S
C838 C841 1.348 . S
C838 H886 0.929 . S
C839 C840 1.358 . S
C839 C841 1.356 . S
C839 H887 0.930 . S
C840 N837 1.279 . S
C840 C839 1.358 . S
C840 H843 0.930 . S
C841 C838 1.348 . S
C841 C839 1.356 . S
H842 C836 0.930 . S
H843 C840 0.930 . S
C844 C846 1.348 . S
C844 C847 1.356 . S
C844 O874 1.325 . S
N845 C848 1.314 . S
N845 C849 1.279 . S
C846 C844 1.348 . S
C846 C848 1.353 . S
C846 H888 0.929 . S
C847 C844 1.356 . S
C847 C849 1.358 . S
C847 H889 0.930 . S
C848 N845 1.314 . S
C848 C846 1.353 . S
C848 H890 0.930 . S
C849 N845 1.279 . S
C849 C847 1.358 . S
C849 H891 0.930 . S
C850 C851 1.348 . S
C850 C852 1.356 . S
C850 O875 1.325 . S
C851 C850 1.348 . S
C851 C853 1.353 . S
C851 H892 0.929 . S
C852 C850 1.356 . S
C852 C854 1.358 . S
C852 H893 0.930 . S
C853 C851 1.353 . S
C853 N855 1.314 . S
C853 H894 0.930 . S
C854 C852 1.358 . S
C854 N855 1.279 . S
C854 H895 0.930 . S
N855 C853 1.314 . S
N855 C854 1.279 . S
C856 C858 1.353 . S
C856 N859 1.314 . S
C856 H862 0.930 . S
C857 N859 1.279 . S
C857 C860 1.358 . S
C857 H863 0.930 . S
C858 C856 1.353 . S
C858 C861 1.348 . S
C858 H896 0.929 . S
N859 Li814 1.990 . S
N859 C856 1.314 . S
N859 C857 1.279 . S
C860 C857 1.358 . S
C860 C861 1.356 . S
C860 H897 0.930 . S
C861 C858 1.348 . S
C861 C860 1.356 . S
H862 C856 0.930 . S
H863 C857 0.930 . S
C864 N865 1.314 . S
C864 C866 1.353 . S
C864 H870 0.930 . S
N865 Li815 1.990 . S
N865 C864 1.314 . S
N865 C868 1.279 . S
C866 C864 1.353 . S
C866 C869 1.348 . S
C866 H898 0.929 . S
C867 C868 1.358 . S
C867 C869 1.356 . S
C867 H899 0.930 . S
C868 N865 1.279 . S
C868 C867 1.358 . S
C868 H871 0.930 . S
C869 C866 1.348 . S
C869 C867 1.356 . S
H870 C864 0.930 . S
H871 C868 0.930 . S
O872 Li812 1.956 . S
O872 Li813 1.970 . S
O872 Li814 1.961 . S
O872 C816 1.325 . S
O873 Li812 1.970 . S
O873 Li813 1.956 . S
O873 Li815 1.961 . S
O873 C822 1.325 . S
O874 Li812 1.961 . S
O874 Li814 1.956 . S
O874 Li815 1.970 . S
O874 C844 1.325 . S
O875 Li813 1.961 . S
O875 Li814 1.970 . S
O875 Li815 1.956 . S
O875 C850 1.325 . S
H876 C818 0.929 . S
H877 C819 0.930 . S
H878 C820 0.930 . S
H879 C821 0.930 . S
H880 C823 0.930 . S
H881 C825 0.929 . S
H882 C826 0.930 . S
H883 C827 0.930 . S
H884 C830 0.930 . S
H885 C833 0.929 . S
H886 C838 0.929 . S
H887 C839 0.930 . S
H888 C846 0.929 . S
H889 C847 0.930 . S
H890 C848 0.930 . S
H891 C849 0.930 . S
H892 C851 0.929 . S
H893 C852 0.930 . S
H894 C853 0.930 . S
H895 C854 0.930 . S
H896 C858 0.929 . S
H897 C860 0.930 . S
H898 C866 0.929 . S
H899 C867 0.930 . S
H900 C908 0.929 . S
H901 C910 0.930 . S
H902 C912 0.930 . S
H903 C915 0.929 . S
H904 C918 0.930 . S
H905 C920 0.960 . S
H906 C920 0.960 . S
H907 C920 0.960 . S
C908 H900 0.929 . S
C908 C909 1.377 . S
C908 C910 1.384 . S
C909 C908 1.377 . S
C909 C915 1.390 . S
C910 H901 0.930 . S
C910 C908 1.384 . S
C910 C911 1.372 . S
C911 C910 1.372 . S
C911 C912 1.400 . S
C911 C916 1.490 . S
C912 H902 0.930 . S
C912 C911 1.400 . S
C912 C915 1.386 . S
H913 C929 0.930 . S
H914 C930 0.931 . S
C915 H903 0.929 . S
C915 C909 1.390 . S
C915 C912 1.386 . S
C916 C911 1.490 . S
C916 C918 1.395 . S
C916 C919 1.403 . S
H917 C923 0.930 . S
C918 H904 0.930 . S
C918 C916 1.395 . S
C918 C921 1.403 . S
C919 C916 1.403 . S
C919 C920 1.524 . S
C919 C923 1.400 . S
C920 H905 0.960 . S
C920 H906 0.960 . S
C920 H907 0.960 . S
C920 C919 1.524 . S
C921 C918 1.403 . S
C921 C922 1.392 . S
C921 C925 1.495 . S
C922 C921 1.392 . S
C922 C923 1.385 . S
C922 C924 1.478 . S
C923 H917 0.930 . S
C923 C919 1.400 . S
C923 C922 1.385 . S
C924 C922 1.478 . S
C924 C926 1.381 . S
C924 C930 1.383 . S
C925 C921 1.495 . S
C925 H931 0.959 . S
C925 H932 0.961 . S
C925 H933 0.960 . S
C926 C924 1.381 . S
C926 C927 1.394 . S
C926 H934 0.930 . S
C927 C926 1.394 . S
C927 C928 1.383 . S
C927 H935 0.929 . S
C928 C927 1.383 . S
C928 C929 1.377 . S
C929 H913 0.930 . S
C929 C928 1.377 . S
C929 C930 1.379 . S
C930 H914 0.931 . S
C930 C924 1.383 . S
C930 C929 1.379 . S
H931 C925 0.959 . S
H932 C925 0.961 . S
H933 C925 0.960 . S
H934 C926 0.930 . S
H935 C927 0.929 . S
H936 C944 0.929 . S
H937 C946 0.930 . S
H938 C948 0.930 . S
H939 C951 0.929 . S
H940 C954 0.930 . S
H941 C956 0.960 . S
H942 C956 0.960 . S
H943 C956 0.960 . S
C944 H936 0.929 . S
C944 C945 1.377 . S
C944 C946 1.384 . S
C945 C944 1.377 . S
C945 C951 1.390 . S
C946 H937 0.930 . S
C946 C944 1.384 . S
C946 C947 1.372 . S
C947 C946 1.372 . S
C947 C948 1.400 . S
C947 C952 1.490 . S
C948 H938 0.930 . S
C948 C947 1.400 . S
C948 C951 1.386 . S
H949 C965 0.930 . S
H950 C966 0.931 . S
C951 H939 0.929 . S
C951 C945 1.390 . S
C951 C948 1.386 . S
C952 C947 1.490 . S
C952 C954 1.395 . S
C952 C955 1.403 . S
H953 C959 0.930 . S
C954 H940 0.930 . S
C954 C952 1.395 . S
C954 C957 1.403 . S
C955 C952 1.403 . S
C955 C956 1.524 . S
C955 C959 1.400 . S
C956 H941 0.960 . S
C956 H942 0.960 . S
C956 H943 0.960 . S
C956 C955 1.524 . S
C957 C954 1.403 . S
C957 C958 1.392 . S
C957 C961 1.495 . S
C958 C957 1.392 . S
C958 C959 1.385 . S
C958 C960 1.478 . S
C959 H953 0.930 . S
C959 C955 1.400 . S
C959 C958 1.385 . S
C960 C958 1.478 . S
C960 C962 1.381 . S
C960 C966 1.383 . S
C961 C957 1.495 . S
C961 H967 0.959 . S
C961 H968 0.961 . S
C961 H969 0.960 . S
C962 C960 1.381 . S
C962 C963 1.394 . S
C962 H970 0.930 . S
C963 C962 1.394 . S
C963 C964 1.383 . S
C963 H971 0.929 . S
C964 C963 1.383 . S
C964 C965 1.377 . S
C965 H949 0.930 . S
C965 C964 1.377 . S
C965 C966 1.379 . S
C966 H950 0.931 . S
C966 C960 1.383 . S
C966 C965 1.379 . S
H967 C961 0.959 . S
H968 C961 0.961 . S
H969 C961 0.960 . S
H970 C962 0.930 . S
H971 C963 0.929 . S
H972 C980 0.929 . S
H973 C982 0.930 . S
H974 C984 0.930 . S
H975 C987 0.929 . S
H976 C990 0.930 . S
H977 C992 0.960 . S
H978 C992 0.960 . S
H979 C992 0.960 . S
C980 H972 0.929 . S
C980 C981 1.377 . S
C980 C982 1.384 . S
C981 C980 1.377 . S
C981 C987 1.390 . S
C982 H973 0.930 . S
C982 C980 1.384 . S
C982 C983 1.372 . S
C983 C982 1.372 . S
C983 C984 1.400 . S
C983 C988 1.490 . S
C984 H974 0.930 . S
C984 C983 1.400 . S
C984 C987 1.386 . S
H985 C1001 0.930 . S
H986 C1002 0.931 . S
C987 H975 0.929 . S
C987 C981 1.390 . S
C987 C984 1.386 . S
C988 C983 1.490 . S
C988 C990 1.395 . S
C988 C991 1.403 . S
H989 C995 0.930 . S
C990 H976 0.930 . S
C990 C988 1.395 . S
C990 C993 1.403 . S
C991 C988 1.403 . S
C991 C992 1.524 . S
C991 C995 1.400 . S
C992 H977 0.960 . S
C992 H978 0.960 . S
C992 H979 0.960 . S
C992 C991 1.524 . S
C993 C990 1.403 . S
C993 C994 1.392 . S
C993 C997 1.495 . S
C994 C993 1.392 . S
C994 C995 1.385 . S
C994 C996 1.478 . S
C995 H989 0.930 . S
C995 C991 1.400 . S
C995 C994 1.385 . S
C996 C994 1.478 . S
C996 C998 1.381 . S
C996 C1002 1.383 . S
C997 C993 1.495 . S
C997 H1003 0.959 . S
C997 H1004 0.961 . S
C997 H1005 0.960 . S
C998 C996 1.381 . S
C998 C999 1.394 . S
C998 H1006 0.930 . S
C999 C998 1.394 . S
C999 C1000 1.383 . S
C999 H1007 0.929 . S
C1000 C999 1.383 . S
C1000 C1001 1.377 . S
C1001 H985 0.930 . S
C1001 C1000 1.377 . S
C1001 C1002 1.379 . S
C1002 H986 0.931 . S
C1002 C996 1.383 . S
C1002 C1001 1.379 . S
H1003 C997 0.959 . S
H1004 C997 0.961 . S
H1005 C997 0.960 . S
H1006 C998 0.930 . S
H1007 C999 0.929 . S
H1008 C1016 0.929 . S
H1009 C1018 0.930 . S
H1010 C1020 0.930 . S
H1011 C1023 0.929 . S
H1012 C1026 0.930 . S
H1013 C1028 0.960 . S
H1014 C1028 0.960 . S
H1015 C1028 0.960 . S
C1016 H1008 0.929 . S
C1016 C1017 1.377 . S
C1016 C1018 1.384 . S
C1017 C1016 1.377 . S
C1017 C1023 1.390 . S
C1018 H1009 0.930 . S
C1018 C1016 1.384 . S
C1018 C1019 1.372 . S
C1019 C1018 1.372 . S
C1019 C1020 1.400 . S
C1019 C1024 1.490 . S
C1020 H1010 0.930 . S
C1020 C1019 1.400 . S
C1020 C1023 1.386 . S
H1021 C1037 0.930 . S
H1022 C1038 0.931 . S
C1023 H1011 0.929 . S
C1023 C1017 1.390 . S
C1023 C1020 1.386 . S
C1024 C1019 1.490 . S
C1024 C1026 1.395 . S
C1024 C1027 1.403 . S
H1025 C1031 0.930 . S
C1026 H1012 0.930 . S
C1026 C1024 1.395 . S
C1026 C1029 1.403 . S
C1027 C1024 1.403 . S
C1027 C1028 1.524 . S
C1027 C1031 1.400 . S
C1028 H1013 0.960 . S
C1028 H1014 0.960 . S
C1028 H1015 0.960 . S
C1028 C1027 1.524 . S
C1029 C1026 1.403 . S
C1029 C1030 1.392 . S
C1029 C1033 1.495 . S
C1030 C1029 1.392 . S
C1030 C1031 1.385 . S
C1030 C1032 1.478 . S
C1031 H1025 0.930 . S
C1031 C1027 1.400 . S
C1031 C1030 1.385 . S
C1032 C1030 1.478 . S
C1032 C1034 1.381 . S
C1032 C1038 1.383 . S
C1033 C1029 1.495 . S
C1033 H1039 0.959 . S
C1033 H1040 0.961 . S
C1033 H1041 0.960 . S
C1034 C1032 1.381 . S
C1034 C1035 1.394 . S
C1034 H1042 0.930 . S
C1035 C1034 1.394 . S
C1035 C1036 1.383 . S
C1035 H1043 0.929 . S
C1036 C1035 1.383 . S
C1036 C1037 1.377 . S
C1037 H1021 0.930 . S
C1037 C1036 1.377 . S
C1037 C1038 1.379 . S
C1038 H1022 0.931 . S
C1038 C1032 1.383 . S
C1038 C1037 1.379 . S
H1039 C1033 0.959 . S
H1040 C1033 0.961 . S
H1041 C1033 0.960 . S
H1042 C1034 0.930 . S
H1043 C1035 0.929 . S
H1044 C1052 0.929 . S
H1045 C1054 0.930 . S
H1046 C1056 0.930 . S
H1047 C1059 0.929 . S
H1048 C1062 0.930 . S
H1049 C1064 0.960 . S
H1050 C1064 0.960 . S
H1051 C1064 0.960 . S
C1052 H1044 0.929 . S
C1052 C1053 1.377 . S
C1052 C1054 1.384 . S
C1053 C1052 1.377 . S
C1053 C1059 1.390 . S
C1054 H1045 0.930 . S
C1054 C1052 1.384 . S
C1054 C1055 1.372 . S
C1055 C1054 1.372 . S
C1055 C1056 1.400 . S
C1055 C1060 1.490 . S
C1056 H1046 0.930 . S
C1056 C1055 1.400 . S
C1056 C1059 1.386 . S
H1057 C1073 0.930 . S
H1058 C1074 0.931 . S
C1059 H1047 0.929 . S
C1059 C1053 1.390 . S
C1059 C1056 1.386 . S
C1060 C1055 1.490 . S
C1060 C1062 1.395 . S
C1060 C1063 1.403 . S
H1061 C1067 0.930 . S
C1062 H1048 0.930 . S
C1062 C1060 1.395 . S
C1062 C1065 1.403 . S
C1063 C1060 1.403 . S
C1063 C1064 1.524 . S
C1063 C1067 1.400 . S
C1064 H1049 0.960 . S
C1064 H1050 0.960 . S
C1064 H1051 0.960 . S
C1064 C1063 1.524 . S
C1065 C1062 1.403 . S
C1065 C1066 1.392 . S
C1065 C1069 1.495 . S
C1066 C1065 1.392 . S
C1066 C1067 1.385 . S
C1066 C1068 1.478 . S
C1067 H1061 0.930 . S
C1067 C1063 1.400 . S
C1067 C1066 1.385 . S
C1068 C1066 1.478 . S
C1068 C1070 1.381 . S
C1068 C1074 1.383 . S
C1069 C1065 1.495 . S
C1069 H1075 0.959 . S
C1069 H1076 0.961 . S
C1069 H1077 0.960 . S
C1070 C1068 1.381 . S
C1070 C1071 1.394 . S
C1070 H1078 0.930 . S
C1071 C1070 1.394 . S
C1071 C1072 1.383 . S
C1071 H1079 0.929 . S
C1072 C1071 1.383 . S
C1072 C1073 1.377 . S
C1073 H1057 0.930 . S
C1073 C1072 1.377 . S
C1073 C1074 1.379 . S
C1074 H1058 0.931 . S
C1074 C1068 1.383 . S
C1074 C1073 1.379 . S
H1075 C1069 0.959 . S
H1076 C1069 0.961 . S
H1077 C1069 0.960 . S
H1078 C1070 0.930 . S
H1079 C1071 0.929 . S
H1080 C1088 0.929 . S
H1081 C1090 0.930 . S
H1082 C1092 0.930 . S
H1083 C1095 0.929 . S
H1084 C1098 0.930 . S
H1085 C1100 0.960 . S
H1086 C1100 0.960 . S
H1087 C1100 0.960 . S
C1088 H1080 0.929 . S
C1088 C1089 1.377 . S
C1088 C1090 1.384 . S
C1089 C1088 1.377 . S
C1089 C1095 1.390 . S
C1090 H1081 0.930 . S
C1090 C1088 1.384 . S
C1090 C1091 1.372 . S
C1091 C1090 1.372 . S
C1091 C1092 1.400 . S
C1091 C1096 1.490 . S
C1092 H1082 0.930 . S
C1092 C1091 1.400 . S
C1092 C1095 1.386 . S
H1093 C1109 0.930 . S
H1094 C1110 0.931 . S
C1095 H1083 0.929 . S
C1095 C1089 1.390 . S
C1095 C1092 1.386 . S
C1096 C1091 1.490 . S
C1096 C1098 1.395 . S
C1096 C1099 1.403 . S
H1097 C1103 0.930 . S
C1098 H1084 0.930 . S
C1098 C1096 1.395 . S
C1098 C1101 1.403 . S
C1099 C1096 1.403 . S
C1099 C1100 1.524 . S
C1099 C1103 1.400 . S
C1100 H1085 0.960 . S
C1100 H1086 0.960 . S
C1100 H1087 0.960 . S
C1100 C1099 1.524 . S
C1101 C1098 1.403 . S
C1101 C1102 1.392 . S
C1101 C1105 1.495 . S
C1102 C1101 1.392 . S
C1102 C1103 1.385 . S
C1102 C1104 1.478 . S
C1103 H1097 0.930 . S
C1103 C1099 1.400 . S
C1103 C1102 1.385 . S
C1104 C1102 1.478 . S
C1104 C1106 1.381 . S
C1104 C1110 1.383 . S
C1105 C1101 1.495 . S
C1105 H1111 0.959 . S
C1105 H1112 0.961 . S
C1105 H1113 0.960 . S
C1106 C1104 1.381 . S
C1106 C1107 1.394 . S
C1106 H1114 0.930 . S
C1107 C1106 1.394 . S
C1107 C1108 1.383 . S
C1107 H1115 0.929 . S
C1108 C1107 1.383 . S
C1108 C1109 1.377 . S
C1109 H1093 0.930 . S
C1109 C1108 1.377 . S
C1109 C1110 1.379 . S
C1110 H1094 0.931 . S
C1110 C1104 1.383 . S
C1110 C1109 1.379 . S
H1111 C1105 0.959 . S
H1112 C1105 0.961 . S
H1113 C1105 0.960 . S
H1114 C1106 0.930 . S
H1115 C1107 0.929 . S
H1116 C1124 0.929 . S
H1117 C1126 0.930 . S
H1118 C1128 0.930 . S
H1119 C1131 0.929 . S
H1120 C1134 0.930 . S
H1121 C1136 0.960 . S
H1122 C1136 0.960 . S
H1123 C1136 0.960 . S
C1124 H1116 0.929 . S
C1124 C1125 1.377 . S
C1124 C1126 1.384 . S
C1125 C1124 1.377 . S
C1125 C1131 1.390 . S
C1126 H1117 0.930 . S
C1126 C1124 1.384 . S
C1126 C1127 1.372 . S
C1127 C1126 1.372 . S
C1127 C1128 1.400 . S
C1127 C1132 1.490 . S
C1128 H1118 0.930 . S
C1128 C1127 1.400 . S
C1128 C1131 1.386 . S
H1129 C1145 0.930 . S
H1130 C1146 0.931 . S
C1131 H1119 0.929 . S
C1131 C1125 1.390 . S
C1131 C1128 1.386 . S
C1132 C1127 1.490 . S
C1132 C1134 1.395 . S
C1132 C1135 1.403 . S
H1133 C1139 0.930 . S
C1134 H1120 0.930 . S
C1134 C1132 1.395 . S
C1134 C1137 1.403 . S
C1135 C1132 1.403 . S
C1135 C1136 1.524 . S
C1135 C1139 1.400 . S
C1136 H1121 0.960 . S
C1136 H1122 0.960 . S
C1136 H1123 0.960 . S
C1136 C1135 1.524 . S
C1137 C1134 1.403 . S
C1137 C1138 1.392 . S
C1137 C1141 1.495 . S
C1138 C1137 1.392 . S
C1138 C1139 1.385 . S
C1138 C1140 1.478 . S
C1139 H1133 0.930 . S
C1139 C1135 1.400 . S
C1139 C1138 1.385 . S
C1140 C1138 1.478 . S
C1140 C1142 1.381 . S
C1140 C1146 1.383 . S
C1141 C1137 1.495 . S
C1141 H1147 0.959 . S
C1141 H1148 0.961 . S
C1141 H1149 0.960 . S
C1142 C1140 1.381 . S
C1142 C1143 1.394 . S
C1142 H1150 0.930 . S
C1143 C1142 1.394 . S
C1143 C1144 1.383 . S
C1143 H1151 0.929 . S
C1144 C1143 1.383 . S
C1144 C1145 1.377 . S
C1145 H1129 0.930 . S
C1145 C1144 1.377 . S
C1145 C1146 1.379 . S
C1146 H1130 0.931 . S
C1146 C1140 1.383 . S
C1146 C1145 1.379 . S
H1147 C1141 0.959 . S
H1148 C1141 0.961 . S
H1149 C1141 0.960 . S
H1150 C1142 0.930 . S
H1151 C1143 0.929 . S
H1152 C1160 0.929 . S
H1153 C1162 0.930 . S
H1154 C1164 0.930 . S
H1155 C1167 0.929 . S
H1156 C1170 0.930 . S
H1157 C1172 0.960 . S
H1158 C1172 0.960 . S
H1159 C1172 0.960 . S
C1160 H1152 0.929 . S
C1160 C1161 1.377 . S
C1160 C1162 1.384 . S
C1161 C1160 1.377 . S
C1161 C1167 1.390 . S
C1162 H1153 0.930 . S
C1162 C1160 1.384 . S
C1162 C1163 1.372 . S
C1163 C1162 1.372 . S
C1163 C1164 1.400 . S
C1163 C1168 1.490 . S
C1164 H1154 0.930 . S
C1164 C1163 1.400 . S
C1164 C1167 1.386 . S
H1165 C1181 0.930 . S
H1166 C1182 0.931 . S
C1167 H1155 0.929 . S
C1167 C1161 1.390 . S
C1167 C1164 1.386 . S
C1168 C1163 1.490 . S
C1168 C1170 1.395 . S
C1168 C1171 1.403 . S
H1169 C1175 0.930 . S
C1170 H1156 0.930 . S
C1170 C1168 1.395 . S
C1170 C1173 1.403 . S
C1171 C1168 1.403 . S
C1171 C1172 1.524 . S
C1171 C1175 1.400 . S
C1172 H1157 0.960 . S
C1172 H1158 0.960 . S
C1172 H1159 0.960 . S
C1172 C1171 1.524 . S
C1173 C1170 1.403 . S
C1173 C1174 1.392 . S
C1173 C1177 1.495 . S
C1174 C1173 1.392 . S
C1174 C1175 1.385 . S
C1174 C1176 1.478 . S
C1175 H1169 0.930 . S
C1175 C1171 1.400 . S
C1175 C1174 1.385 . S
C1176 C1174 1.478 . S
C1176 C1178 1.381 . S
C1176 C1182 1.383 . S
C1177 C1173 1.495 . S
C1177 H1183 0.959 . S
C1177 H1184 0.961 . S
C1177 H1185 0.960 . S
C1178 C1176 1.381 . S
C1178 C1179 1.394 . S
C1178 H1186 0.930 . S
C1179 C1178 1.394 . S
C1179 C1180 1.383 . S
C1179 H1187 0.929 . S
C1180 C1179 1.383 . S
C1180 C1181 1.377 . S
C1181 H1165 0.930 . S
C1181 C1180 1.377 . S
C1181 C1182 1.379 . S
C1182 H1166 0.931 . S
C1182 C1176 1.383 . S
C1182 C1181 1.379 . S
H1183 C1177 0.959 . S
H1184 C1177 0.961 . S
H1185 C1177 0.960 . S
H1186 C1178 0.930 . S
H1187 C1179 0.929 . S
H1188 C1196 0.929 . S
H1189 C1198 0.930 . S
H1190 C1200 0.930 . S
H1191 C1203 0.929 . S
H1192 C1206 0.930 . S
H1193 C1208 0.960 . S
H1194 C1208 0.960 . S
H1195 C1208 0.960 . S
C1196 H1188 0.929 . S
C1196 C1197 1.377 . S
C1196 C1198 1.384 . S
C1197 C1196 1.377 . S
C1197 C1203 1.390 . S
C1198 H1189 0.930 . S
C1198 C1196 1.384 . S
C1198 C1199 1.372 . S
C1199 C1198 1.372 . S
C1199 C1200 1.400 . S
C1199 C1204 1.490 . S
C1200 H1190 0.930 . S
C1200 C1199 1.400 . S
C1200 C1203 1.386 . S
H1201 C1217 0.930 . S
H1202 C1218 0.931 . S
C1203 H1191 0.929 . S
C1203 C1197 1.390 . S
C1203 C1200 1.386 . S
C1204 C1199 1.490 . S
C1204 C1206 1.395 . S
C1204 C1207 1.403 . S
H1205 C1211 0.930 . S
C1206 H1192 0.930 . S
C1206 C1204 1.395 . S
C1206 C1209 1.403 . S
C1207 C1204 1.403 . S
C1207 C1208 1.524 . S
C1207 C1211 1.400 . S
C1208 H1193 0.960 . S
C1208 H1194 0.960 . S
C1208 H1195 0.960 . S
C1208 C1207 1.524 . S
C1209 C1206 1.403 . S
C1209 C1210 1.392 . S
C1209 C1213 1.495 . S
C1210 C1209 1.392 . S
C1210 C1211 1.385 . S
C1210 C1212 1.478 . S
C1211 H1205 0.930 . S
C1211 C1207 1.400 . S
C1211 C1210 1.385 . S
C1212 C1210 1.478 . S
C1212 C1214 1.381 . S
C1212 C1218 1.383 . S
C1213 C1209 1.495 . S
C1213 H1219 0.959 . S
C1213 H1220 0.961 . S
C1213 H1221 0.960 . S
C1214 C1212 1.381 . S
C1214 C1215 1.394 . S
C1214 H1222 0.930 . S
C1215 C1214 1.394 . S
C1215 C1216 1.383 . S
C1215 H1223 0.929 . S
C1216 C1215 1.383 . S
C1216 C1217 1.377 . S
C1217 H1201 0.930 . S
C1217 C1216 1.377 . S
C1217 C1218 1.379 . S
C1218 H1202 0.931 . S
C1218 C1212 1.383 . S
C1218 C1217 1.379 . S
H1219 C1213 0.959 . S
H1220 C1213 0.961 . S
H1221 C1213 0.960 . S
H1222 C1214 0.930 . S
H1223 C1215 0.929 . S
H1224 C1232 0.929 . S
H1225 C1234 0.930 . S
H1226 C1236 0.930 . S
H1227 C1239 0.929 . S
H1228 C1242 0.930 . S
H1229 C1244 0.960 . S
H1230 C1244 0.960 . S
H1231 C1244 0.960 . S
C1232 H1224 0.929 . S
C1232 C1233 1.377 . S
C1232 C1234 1.384 . S
C1233 C1232 1.377 . S
C1233 C1239 1.390 . S
C1234 H1225 0.930 . S
C1234 C1232 1.384 . S
C1234 C1235 1.372 . S
C1235 C1234 1.372 . S
C1235 C1236 1.400 . S
C1235 C1240 1.490 . S
C1236 H1226 0.930 . S
C1236 C1235 1.400 . S
C1236 C1239 1.386 . S
H1237 C1253 0.930 . S
H1238 C1254 0.931 . S
C1239 H1227 0.929 . S
C1239 C1233 1.390 . S
C1239 C1236 1.386 . S
C1240 C1235 1.490 . S
C1240 C1242 1.395 . S
C1240 C1243 1.403 . S
H1241 C1247 0.930 . S
C1242 H1228 0.930 . S
C1242 C1240 1.395 . S
C1242 C1245 1.403 . S
C1243 C1240 1.403 . S
C1243 C1244 1.524 . S
C1243 C1247 1.400 . S
C1244 H1229 0.960 . S
C1244 H1230 0.960 . S
C1244 H1231 0.960 . S
C1244 C1243 1.524 . S
C1245 C1242 1.403 . S
C1245 C1246 1.392 . S
C1245 C1249 1.495 . S
C1246 C1245 1.392 . S
C1246 C1247 1.385 . S
C1246 C1248 1.478 . S
C1247 H1241 0.930 . S
C1247 C1243 1.400 . S
C1247 C1246 1.385 . S
C1248 C1246 1.478 . S
C1248 C1250 1.381 . S
C1248 C1254 1.383 . S
C1249 C1245 1.495 . S
C1249 H1255 0.959 . S
C1249 H1256 0.961 . S
C1249 H1257 0.960 . S
C1250 C1248 1.381 . S
C1250 C1251 1.394 . S
C1250 H1258 0.930 . S
C1251 C1250 1.394 . S
C1251 C1252 1.383 . S
C1251 H1259 0.929 . S
C1252 C1251 1.383 . S
C1252 C1253 1.377 . S
C1253 H1237 0.930 . S
C1253 C1252 1.377 . S
C1253 C1254 1.379 . S
C1254 H1238 0.931 . S
C1254 C1248 1.383 . S
C1254 C1253 1.379 . S
H1255 C1249 0.959 . S
H1256 C1249 0.961 . S
H1257 C1249 0.960 . S
H1258 C1250 0.930 . S
H1259 C1251 0.929 . S
H1260 C1268 0.929 . S
H1261 C1270 0.930 . S
H1262 C1272 0.930 . S
H1263 C1275 0.929 . S
H1264 C1278 0.930 . S
H1265 C1280 0.960 . S
H1266 C1280 0.960 . S
H1267 C1280 0.960 . S
C1268 H1260 0.929 . S
C1268 C1269 1.377 . S
C1268 C1270 1.384 . S
C1269 C1268 1.377 . S
C1269 C1275 1.390 . S
C1270 H1261 0.930 . S
C1270 C1268 1.384 . S
C1270 C1271 1.372 . S
C1271 C1270 1.372 . S
C1271 C1272 1.400 . S
C1271 C1276 1.490 . S
C1272 H1262 0.930 . S
C1272 C1271 1.400 . S
C1272 C1275 1.386 . S
H1273 C1289 0.930 . S
H1274 C1290 0.931 . S
C1275 H1263 0.929 . S
C1275 C1269 1.390 . S
C1275 C1272 1.386 . S
C1276 C1271 1.490 . S
C1276 C1278 1.395 . S
C1276 C1279 1.403 . S
H1277 C1283 0.930 . S
C1278 H1264 0.930 . S
C1278 C1276 1.395 . S
C1278 C1281 1.403 . S
C1279 C1276 1.403 . S
C1279 C1280 1.524 . S
C1279 C1283 1.400 . S
C1280 H1265 0.960 . S
C1280 H1266 0.960 . S
C1280 H1267 0.960 . S
C1280 C1279 1.524 . S
C1281 C1278 1.403 . S
C1281 C1282 1.392 . S
C1281 C1285 1.495 . S
C1282 C1281 1.392 . S
C1282 C1283 1.385 . S
C1282 C1284 1.478 . S
C1283 H1277 0.930 . S
C1283 C1279 1.400 . S
C1283 C1282 1.385 . S
C1284 C1282 1.478 . S
C1284 C1286 1.381 . S
C1284 C1290 1.383 . S
C1285 C1281 1.495 . S
C1285 H1291 0.959 . S
C1285 H1292 0.961 . S
C1285 H1293 0.960 . S
C1286 C1284 1.381 . S
C1286 C1287 1.394 . S
C1286 H1294 0.930 . S
C1287 C1286 1.394 . S
C1287 C1288 1.383 . S
C1287 H1295 0.929 . S
C1288 C1287 1.383 . S
C1288 C1289 1.377 . S
C1289 H1273 0.930 . S
C1289 C1288 1.377 . S
C1289 C1290 1.379 . S
C1290 H1274 0.931 . S
C1290 C1284 1.383 . S
C1290 C1289 1.379 . S
H1291 C1285 0.959 . S
H1292 C1285 0.961 . S
H1293 C1285 0.960 . S
H1294 C1286 0.930 . S
H1295 C1287 0.929 . S
H1296 C1304 0.929 . S
H1297 C1306 0.930 . S
H1298 C1308 0.930 . S
H1299 C1311 0.929 . S
H1300 C1314 0.930 . S
H1301 C1316 0.960 . S
H1302 C1316 0.960 . S
H1303 C1316 0.960 . S
C1304 H1296 0.929 . S
C1304 C1305 1.377 . S
C1304 C1306 1.384 . S
C1305 C1304 1.377 . S
C1305 C1311 1.390 . S
C1306 H1297 0.930 . S
C1306 C1304 1.384 . S
C1306 C1307 1.372 . S
C1307 C1306 1.372 . S
C1307 C1308 1.400 . S
C1307 C1312 1.490 . S
C1308 H1298 0.930 . S
C1308 C1307 1.400 . S
C1308 C1311 1.386 . S
H1309 C1325 0.930 . S
H1310 C1326 0.931 . S
C1311 H1299 0.929 . S
C1311 C1305 1.390 . S
C1311 C1308 1.386 . S
C1312 C1307 1.490 . S
C1312 C1314 1.395 . S
C1312 C1315 1.403 . S
H1313 C1319 0.930 . S
C1314 H1300 0.930 . S
C1314 C1312 1.395 . S
C1314 C1317 1.403 . S
C1315 C1312 1.403 . S
C1315 C1316 1.524 . S
C1315 C1319 1.400 . S
C1316 H1301 0.960 . S
C1316 H1302 0.960 . S
C1316 H1303 0.960 . S
C1316 C1315 1.524 . S
C1317 C1314 1.403 . S
C1317 C1318 1.392 . S
C1317 C1321 1.495 . S
C1318 C1317 1.392 . S
C1318 C1319 1.385 . S
C1318 C1320 1.478 . S
C1319 H1313 0.930 . S
C1319 C1315 1.400 . S
C1319 C1318 1.385 . S
C1320 C1318 1.478 . S
C1320 C1322 1.381 . S
C1320 C1326 1.383 . S
C1321 C1317 1.495 . S
C1321 H1327 0.959 . S
C1321 H1328 0.961 . S
C1321 H1329 0.960 . S
C1322 C1320 1.381 . S
C1322 C1323 1.394 . S
C1322 H1330 0.930 . S
C1323 C1322 1.394 . S
C1323 C1324 1.383 . S
C1323 H1331 0.929 . S
C1324 C1323 1.383 . S
C1324 C1325 1.377 . S
C1325 H1309 0.930 . S
C1325 C1324 1.377 . S
C1325 C1326 1.379 . S
C1326 H1310 0.931 . S
C1326 C1320 1.383 . S
C1326 C1325 1.379 . S
H1327 C1321 0.959 . S
H1328 C1321 0.961 . S
H1329 C1321 0.960 . S
H1330 C1322 0.930 . S
H1331 C1323 0.929 . S
H1332 C1340 0.929 . S
H1333 C1342 0.930 . S
H1334 C1344 0.930 . S
H1335 C1347 0.929 . S
H1336 C1350 0.930 . S
H1337 C1352 0.960 . S
H1338 C1352 0.960 . S
H1339 C1352 0.960 . S
C1340 H1332 0.929 . S
C1340 C1341 1.377 . S
C1340 C1342 1.384 . S
C1341 C1340 1.377 . S
C1341 C1347 1.390 . S
C1342 H1333 0.930 . S
C1342 C1340 1.384 . S
C1342 C1343 1.372 . S
C1343 C1342 1.372 . S
C1343 C1344 1.400 . S
C1343 C1348 1.490 . S
C1344 H1334 0.930 . S
C1344 C1343 1.400 . S
C1344 C1347 1.386 . S
H1345 C1361 0.930 . S
H1346 C1362 0.931 . S
C1347 H1335 0.929 . S
C1347 C1341 1.390 . S
C1347 C1344 1.386 . S
C1348 C1343 1.490 . S
C1348 C1350 1.395 . S
C1348 C1351 1.403 . S
H1349 C1355 0.930 . S
C1350 H1336 0.930 . S
C1350 C1348 1.395 . S
C1350 C1353 1.403 . S
C1351 C1348 1.403 . S
C1351 C1352 1.524 . S
C1351 C1355 1.400 . S
C1352 H1337 0.960 . S
C1352 H1338 0.960 . S
C1352 H1339 0.960 . S
C1352 C1351 1.524 . S
C1353 C1350 1.403 . S
C1353 C1354 1.392 . S
C1353 C1357 1.495 . S
C1354 C1353 1.392 . S
C1354 C1355 1.385 . S
C1354 C1356 1.478 . S
C1355 H1349 0.930 . S
C1355 C1351 1.400 . S
C1355 C1354 1.385 . S
C1356 C1354 1.478 . S
C1356 C1358 1.381 . S
C1356 C1362 1.383 . S
C1357 C1353 1.495 . S
C1357 H1363 0.959 . S
C1357 H1364 0.961 . S
C1357 H1365 0.960 . S
C1358 C1356 1.381 . S
C1358 C1359 1.394 . S
C1358 H1366 0.930 . S
C1359 C1358 1.394 . S
C1359 C1360 1.383 . S
C1359 H1367 0.929 . S
C1360 C1359 1.383 . S
C1360 C1361 1.377 . S
C1361 H1345 0.930 . S
C1361 C1360 1.377 . S
C1361 C1362 1.379 . S
C1362 H1346 0.931 . S
C1362 C1356 1.383 . S
C1362 C1361 1.379 . S
H1363 C1357 0.959 . S
H1364 C1357 0.961 . S
H1365 C1357 0.960 . S
H1366 C1358 0.930 . S
H1367 C1359 0.929 . S
H1368 C1376 0.929 . S
H1369 C1378 0.930 . S
H1370 C1380 0.930 . S
H1371 C1383 0.929 . S
H1372 C1386 0.930 . S
H1373 C1388 0.960 . S
H1374 C1388 0.960 . S
H1375 C1388 0.960 . S
C1376 H1368 0.929 . S
C1376 C1377 1.377 . S
C1376 C1378 1.384 . S
C1377 C1376 1.377 . S
C1377 C1383 1.390 . S
C1378 H1369 0.930 . S
C1378 C1376 1.384 . S
C1378 C1379 1.372 . S
C1379 C1378 1.372 . S
C1379 C1380 1.400 . S
C1379 C1384 1.490 . S
C1380 H1370 0.930 . S
C1380 C1379 1.400 . S
C1380 C1383 1.386 . S
H1381 C1397 0.930 . S
H1382 C1398 0.931 . S
C1383 H1371 0.929 . S
C1383 C1377 1.390 . S
C1383 C1380 1.386 . S
C1384 C1379 1.490 . S
C1384 C1386 1.395 . S
C1384 C1387 1.403 . S
H1385 C1391 0.930 . S
C1386 H1372 0.930 . S
C1386 C1384 1.395 . S
C1386 C1389 1.403 . S
C1387 C1384 1.403 . S
C1387 C1388 1.524 . S
C1387 C1391 1.400 . S
C1388 H1373 0.960 . S
C1388 H1374 0.960 . S
C1388 H1375 0.960 . S
C1388 C1387 1.524 . S
C1389 C1386 1.403 . S
C1389 C1390 1.392 . S
C1389 C1393 1.495 . S
C1390 C1389 1.392 . S
C1390 C1391 1.385 . S
C1390 C1392 1.478 . S
C1391 H1385 0.930 . S
C1391 C1387 1.400 . S
C1391 C1390 1.385 . S
C1392 C1390 1.478 . S
C1392 C1394 1.381 . S
C1392 C1398 1.383 . S
C1393 C1389 1.495 . S
C1393 H1399 0.959 . S
C1393 H1400 0.961 . S
C1393 H1401 0.960 . S
C1394 C1392 1.381 . S
C1394 C1395 1.394 . S
C1394 H1402 0.930 . S
C1395 C1394 1.394 . S
C1395 C1396 1.383 . S
C1395 H1403 0.929 . S
C1396 C1395 1.383 . S
C1396 C1397 1.377 . S
C1397 H1381 0.930 . S
C1397 C1396 1.377 . S
C1397 C1398 1.379 . S
C1398 H1382 0.931 . S
C1398 C1392 1.383 . S
C1398 C1397 1.379 . S
H1399 C1393 0.959 . S
H1400 C1393 0.961 . S
H1401 C1393 0.960 . S
H1402 C1394 0.930 . S
H1403 C1395 0.929 . S
H1404 C1412 0.929 . S
H1405 C1414 0.930 . S
H1406 C1416 0.930 . S
H1407 C1419 0.929 . S
H1408 C1422 0.930 . S
H1409 C1424 0.960 . S
H1410 C1424 0.960 . S
H1411 C1424 0.960 . S
C1412 H1404 0.929 . S
C1412 C1413 1.377 . S
C1412 C1414 1.384 . S
C1413 C1412 1.377 . S
C1413 C1419 1.390 . S
C1414 H1405 0.930 . S
C1414 C1412 1.384 . S
C1414 C1415 1.372 . S
C1415 C1414 1.372 . S
C1415 C1416 1.400 . S
C1415 C1420 1.490 . S
C1416 H1406 0.930 . S
C1416 C1415 1.400 . S
C1416 C1419 1.386 . S
H1417 C1433 0.930 . S
H1418 C1434 0.931 . S
C1419 H1407 0.929 . S
C1419 C1413 1.390 . S
C1419 C1416 1.386 . S
C1420 C1415 1.490 . S
C1420 C1422 1.395 . S
C1420 C1423 1.403 . S
H1421 C1427 0.930 . S
C1422 H1408 0.930 . S
C1422 C1420 1.395 . S
C1422 C1425 1.403 . S
C1423 C1420 1.403 . S
C1423 C1424 1.524 . S
C1423 C1427 1.400 . S
C1424 H1409 0.960 . S
C1424 H1410 0.960 . S
C1424 H1411 0.960 . S
C1424 C1423 1.524 . S
C1425 C1422 1.403 . S
C1425 C1426 1.392 . S
C1425 C1429 1.495 . S
C1426 C1425 1.392 . S
C1426 C1427 1.385 . S
C1426 C1428 1.478 . S
C1427 H1421 0.930 . S
C1427 C1423 1.400 . S
C1427 C1426 1.385 . S
C1428 C1426 1.478 . S
C1428 C1430 1.381 . S
C1428 C1434 1.383 . S
C1429 C1425 1.495 . S
C1429 H1435 0.959 . S
C1429 H1436 0.961 . S
C1429 H1437 0.960 . S
C1430 C1428 1.381 . S
C1430 C1431 1.394 . S
C1430 H1438 0.930 . S
C1431 C1430 1.394 . S
C1431 C1432 1.383 . S
C1431 H1439 0.929 . S
C1432 C1431 1.383 . S
C1432 C1433 1.377 . S
C1433 H1417 0.930 . S
C1433 C1432 1.377 . S
C1433 C1434 1.379 . S
C1434 H1418 0.931 . S
C1434 C1428 1.383 . S
C1434 C1433 1.379 . S
H1435 C1429 0.959 . S
H1436 C1429 0.961 . S
H1437 C1429 0.960 . S
H1438 C1430 0.930 . S
H1439 C1431 0.929 . S
H1440 C1448 0.929 . S
H1441 C1450 0.930 . S
H1442 C1452 0.930 . S
H1443 C1455 0.929 . S
H1444 C1458 0.930 . S
H1445 C1460 0.960 . S
H1446 C1460 0.960 . S
H1447 C1460 0.960 . S
C1448 H1440 0.929 . S
C1448 C1449 1.377 . S
C1448 C1450 1.384 . S
C1449 C1448 1.377 . S
C1449 C1455 1.390 . S
C1450 H1441 0.930 . S
C1450 C1448 1.384 . S
C1450 C1451 1.372 . S
C1451 C1450 1.372 . S
C1451 C1452 1.400 . S
C1451 C1456 1.490 . S
C1452 H1442 0.930 . S
C1452 C1451 1.400 . S
C1452 C1455 1.386 . S
H1453 C1469 0.930 . S
H1454 C1470 0.931 . S
C1455 H1443 0.929 . S
C1455 C1449 1.390 . S
C1455 C1452 1.386 . S
C1456 C1451 1.490 . S
C1456 C1458 1.395 . S
C1456 C1459 1.403 . S
H1457 C1463 0.930 . S
C1458 H1444 0.930 . S
C1458 C1456 1.395 . S
C1458 C1461 1.403 . S
C1459 C1456 1.403 . S
C1459 C1460 1.524 . S
C1459 C1463 1.400 . S
C1460 H1445 0.960 . S
C1460 H1446 0.960 . S
C1460 H1447 0.960 . S
C1460 C1459 1.524 . S
C1461 C1458 1.403 . S
C1461 C1462 1.392 . S
C1461 C1465 1.495 . S
C1462 C1461 1.392 . S
C1462 C1463 1.385 . S
C1462 C1464 1.478 . S
C1463 H1457 0.930 . S
C1463 C1459 1.400 . S
C1463 C1462 1.385 . S
C1464 C1462 1.478 . S
C1464 C1466 1.381 . S
C1464 C1470 1.383 . S
C1465 C1461 1.495 . S
C1465 H1471 0.959 . S
C1465 H1472 0.961 . S
C1465 H1473 0.960 . S
C1466 C1464 1.381 . S
C1466 C1467 1.394 . S
C1466 H1474 0.930 . S
C1467 C1466 1.394 . S
C1467 C1468 1.373 1_556 S
C1467 H1475 0.929 1_556 S
C1468 C1467 1.373 1_554 S
C1468 C1469 1.356 1_554 S
C1469 H1453 0.930 . S
C1469 C1468 1.356 1_556 S
C1469 C1470 1.379 . S
C1470 H1454 0.931 . S
C1470 C1464 1.383 . S
C1470 C1469 1.379 . S
H1471 C1465 0.959 . S
H1472 C1465 0.961 . S
H1473 C1465 0.960 . S
H1474 C1466 0.930 . S
H1475 C1467 0.929 1_554 S
H1476 C1484 0.929 . S
H1477 C1486 0.930 . S
H1478 C1488 0.930 . S
H1479 C1491 0.929 . S
H1480 C1494 0.930 . S
H1481 C1496 0.960 . S
H1482 C1496 0.960 . S
H1483 C1496 0.960 . S
C1484 H1476 0.929 . S
C1484 C1485 1.377 . S
C1484 C1486 1.384 . S
C1485 C1484 1.377 . S
C1485 C1491 1.390 . S
C1486 H1477 0.930 . S
C1486 C1484 1.384 . S
C1486 C1487 1.372 . S
C1487 C1486 1.372 . S
C1487 C1488 1.400 . S
C1487 C1492 1.490 . S
C1488 H1478 0.930 . S
C1488 C1487 1.400 . S
C1488 C1491 1.386 . S
H1489 C1505 0.930 . S
H1490 C1506 0.931 . S
C1491 H1479 0.929 . S
C1491 C1485 1.390 . S
C1491 C1488 1.386 . S
C1492 C1487 1.490 . S
C1492 C1494 1.395 . S
C1492 C1495 1.403 . S
H1493 C1499 0.930 . S
C1494 H1480 0.930 . S
C1494 C1492 1.395 . S
C1494 C1497 1.403 . S
C1495 C1492 1.403 . S
C1495 C1496 1.524 . S
C1495 C1499 1.400 . S
C1496 H1481 0.960 . S
C1496 H1482 0.960 . S
C1496 H1483 0.960 . S
C1496 C1495 1.524 . S
C1497 C1494 1.403 . S
C1497 C1498 1.392 . S
C1497 C1501 1.495 . S
C1498 C1497 1.392 . S
C1498 C1499 1.385 . S
C1498 C1500 1.478 . S
C1499 H1493 0.930 . S
C1499 C1495 1.400 . S
C1499 C1498 1.385 . S
C1500 C1498 1.478 . S
C1500 C1502 1.381 . S
C1500 C1506 1.383 . S
C1501 C1497 1.495 . S
C1501 H1507 0.959 . S
C1501 H1508 0.961 . S
C1501 H1509 0.960 . S
C1502 C1500 1.381 . S
C1502 C1503 1.394 . S
C1502 H1510 0.930 . S
C1503 C1502 1.394 . S
C1503 C1504 1.383 . S
C1503 H1511 0.929 . S
C1504 C1503 1.383 . S
C1504 C1505 1.377 . S
C1505 H1489 0.930 . S
C1505 C1504 1.377 . S
C1505 C1506 1.379 . S
C1506 H1490 0.931 . S
C1506 C1500 1.383 . S
C1506 C1505 1.379 . S
H1507 C1501 0.959 . S
H1508 C1501 0.961 . S
H1509 C1501 0.960 . S
H1510 C1502 0.930 . S
H1511 C1503 0.929 . S
H1512 C1520 0.929 . S
H1513 C1522 0.930 . S
H1514 C1524 0.930 . S
H1515 C1527 0.929 . S
H1516 C1530 0.930 . S
H1517 C1532 0.960 . S
H1518 C1532 0.960 . S
H1519 C1532 0.960 . S
C1520 H1512 0.929 . S
C1520 C1521 1.377 . S
C1520 C1522 1.384 . S
C1521 C1520 1.377 . S
C1521 C1527 1.390 . S
C1522 H1513 0.930 . S
C1522 C1520 1.384 . S
C1522 C1523 1.372 . S
C1523 C1522 1.372 . S
C1523 C1524 1.400 . S
C1523 C1528 1.490 . S
C1524 H1514 0.930 . S
C1524 C1523 1.400 . S
C1524 C1527 1.386 . S
H1525 C1541 0.930 . S
H1526 C1542 0.931 . S
C1527 H1515 0.929 . S
C1527 C1521 1.390 . S
C1527 C1524 1.386 . S
C1528 C1523 1.490 . S
C1528 C1530 1.395 . S
C1528 C1531 1.403 . S
H1529 C1535 0.930 . S
C1530 H1516 0.930 . S
C1530 C1528 1.395 . S
C1530 C1533 1.403 . S
C1531 C1528 1.403 . S
C1531 C1532 1.524 . S
C1531 C1535 1.400 . S
C1532 H1517 0.960 . S
C1532 H1518 0.960 . S
C1532 H1519 0.960 . S
C1532 C1531 1.524 . S
C1533 C1530 1.403 . S
C1533 C1534 1.392 . S
C1533 C1537 1.495 . S
C1534 C1533 1.392 . S
C1534 C1535 1.385 . S
C1534 C1536 1.478 . S
C1535 H1529 0.930 . S
C1535 C1531 1.400 . S
C1535 C1534 1.385 . S
C1536 C1534 1.478 . S
C1536 C1538 1.381 . S
C1536 C1542 1.383 . S
C1537 C1533 1.495 . S
C1537 H1543 0.959 . S
C1537 H1544 0.961 . S
C1537 H1545 0.960 . S
C1538 C1536 1.381 . S
C1538 C1539 1.394 . S
C1538 H1546 0.930 . S
C1539 C1538 1.394 . S
C1539 C1540 1.383 . S
C1539 H1547 0.929 . S
C1540 C1539 1.383 . S
C1540 C1541 1.377 . S
C1541 H1525 0.930 . S
C1541 C1540 1.377 . S
C1541 C1542 1.379 . S
C1542 H1526 0.931 . S
C1542 C1536 1.383 . S
C1542 C1541 1.379 . S
H1543 C1537 0.959 . S
H1544 C1537 0.961 . S
H1545 C1537 0.960 . S
H1546 C1538 0.930 . S
H1547 C1539 0.929 . S
H1548 C1556 0.929 . S
H1549 C1558 0.930 . S
H1550 C1560 0.930 . S
H1551 C1563 0.929 . S
H1552 C1566 0.930 . S
H1553 C1568 0.960 . S
H1554 C1568 0.960 . S
H1555 C1568 0.960 . S
C1556 H1548 0.929 . S
C1556 C1557 1.377 . S
C1556 C1558 1.384 . S
C1557 C1556 1.377 . S
C1557 C1563 1.390 . S
C1558 H1549 0.930 . S
C1558 C1556 1.384 . S
C1558 C1559 1.372 . S
C1559 C1558 1.372 . S
C1559 C1560 1.400 . S
C1559 C1564 1.490 . S
C1560 H1550 0.930 . S
C1560 C1559 1.400 . S
C1560 C1563 1.386 . S
H1561 C1577 0.930 . S
H1562 C1578 0.931 . S
C1563 H1551 0.929 . S
C1563 C1557 1.390 . S
C1563 C1560 1.386 . S
C1564 C1559 1.490 . S
C1564 C1566 1.395 . S
C1564 C1567 1.403 . S
H1565 C1571 0.930 . S
C1566 H1552 0.930 . S
C1566 C1564 1.395 . S
C1566 C1569 1.403 . S
C1567 C1564 1.403 . S
C1567 C1568 1.524 . S
C1567 C1571 1.400 . S
C1568 H1553 0.960 . S
C1568 H1554 0.960 . S
C1568 H1555 0.960 . S
C1568 C1567 1.524 . S
C1569 C1566 1.403 . S
C1569 C1570 1.392 . S
C1569 C1573 1.495 . S
C1570 C1569 1.392 . S
C1570 C1571 1.385 . S
C1570 C1572 1.478 . S
C1571 H1565 0.930 . S
C1571 C1567 1.400 . S
C1571 C1570 1.385 . S
C1572 C1570 1.478 . S
C1572 C1574 1.381 . S
C1572 C1578 1.383 . S
C1573 C1569 1.495 . S
C1573 H1579 0.959 . S
C1573 H1580 0.961 . S
C1573 H1581 0.960 . S
C1574 C1572 1.381 . S
C1574 C1575 1.394 . S
C1574 H1582 0.930 . S
C1575 C1574 1.394 . S
C1575 C1576 1.383 . S
C1575 H1583 0.929 . S
C1576 C1575 1.383 . S
C1576 C1577 1.377 . S
C1577 H1561 0.930 . S
C1577 C1576 1.377 . S
C1577 C1578 1.379 . S
C1578 H1562 0.931 . S
C1578 C1572 1.383 . S
C1578 C1577 1.379 . S
H1579 C1573 0.959 . S
H1580 C1573 0.961 . S
H1581 C1573 0.960 . S
H1582 C1574 0.930 . S
H1583 C1575 0.929 . S
H1584 C1592 0.929 . S
H1585 C1594 0.930 . S
H1586 C1596 0.930 . S
H1587 C1599 0.929 . S
H1588 C1602 0.930 . S
H1589 C1604 0.960 . S
H1590 C1604 0.960 . S
H1591 C1604 0.960 . S
C1592 H1584 0.929 . S
C1592 C1593 1.377 . S
C1592 C1594 1.384 . S
C1593 C1592 1.377 . S
C1593 C1599 1.390 . S
C1594 H1585 0.930 . S
C1594 C1592 1.384 . S
C1594 C1595 1.372 . S
C1595 C1594 1.372 . S
C1595 C1596 1.400 . S
C1595 C1600 1.490 . S
C1596 H1586 0.930 . S
C1596 C1595 1.400 . S
C1596 C1599 1.386 . S
H1597 C1613 0.930 . S
H1598 C1614 0.931 . S
C1599 H1587 0.929 . S
C1599 C1593 1.390 . S
C1599 C1596 1.386 . S
C1600 C1595 1.490 . S
C1600 C1602 1.395 . S
C1600 C1603 1.403 . S
H1601 C1607 0.930 . S
C1602 H1588 0.930 . S
C1602 C1600 1.395 . S
C1602 C1605 1.403 . S
C1603 C1600 1.403 . S
C1603 C1604 1.524 . S
C1603 C1607 1.400 . S
C1604 H1589 0.960 . S
C1604 H1590 0.960 . S
C1604 H1591 0.960 . S
C1604 C1603 1.524 . S
C1605 C1602 1.403 . S
C1605 C1606 1.392 . S
C1605 C1609 1.495 . S
C1606 C1605 1.392 . S
C1606 C1607 1.385 . S
C1606 C1608 1.478 . S
C1607 H1601 0.930 . S
C1607 C1603 1.400 . S
C1607 C1606 1.385 . S
C1608 C1606 1.478 . S
C1608 C1610 1.381 . S
C1608 C1614 1.383 . S
C1609 C1605 1.495 . S
C1609 H1615 0.959 . S
C1609 H1616 0.961 . S
C1609 H1617 0.960 . S
C1610 C1608 1.381 . S
C1610 C1611 1.394 . S
C1610 H1618 0.930 . S
C1611 C1610 1.394 . S
C1611 C1612 1.383 . S
C1611 H1619 0.929 . S
C1612 C1611 1.383 . S
C1612 C1613 1.377 . S
C1613 H1597 0.930 . S
C1613 C1612 1.377 . S
C1613 C1614 1.379 . S
C1614 H1598 0.931 . S
C1614 C1608 1.383 . S
C1614 C1613 1.379 . S
H1615 C1609 0.959 . S
H1616 C1609 0.961 . S
H1617 C1609 0.960 . S
H1618 C1610 0.930 . S
H1619 C1611 0.929 . S
H1620 C1628 0.929 . S
H1621 C1630 0.930 . S
H1622 C1632 0.930 . S
H1623 C1635 0.929 . S
H1624 C1638 0.930 . S
H1625 C1640 0.960 . S
H1626 C1640 0.960 . S
H1627 C1640 0.960 . S
C1628 H1620 0.929 . S
C1628 C1629 1.377 . S
C1628 C1630 1.384 . S
C1629 C1628 1.377 . S
C1629 C1635 1.390 . S
C1630 H1621 0.930 . S
C1630 C1628 1.384 . S
C1630 C1631 1.372 . S
C1631 C1630 1.372 . S
C1631 C1632 1.400 . S
C1631 C1636 1.490 . S
C1632 H1622 0.930 . S
C1632 C1631 1.400 . S
C1632 C1635 1.386 . S
H1633 C1649 0.930 . S
H1634 C1650 0.931 . S
C1635 H1623 0.929 . S
C1635 C1629 1.390 . S
C1635 C1632 1.386 . S
C1636 C1631 1.490 . S
C1636 C1638 1.395 . S
C1636 C1639 1.403 . S
H1637 C1643 0.930 . S
C1638 H1624 0.930 . S
C1638 C1636 1.395 . S
C1638 C1641 1.403 . S
C1639 C1636 1.403 . S
C1639 C1640 1.524 . S
C1639 C1643 1.400 . S
C1640 H1625 0.960 . S
C1640 H1626 0.960 . S
C1640 H1627 0.960 . S
C1640 C1639 1.524 . S
C1641 C1638 1.403 . S
C1641 C1642 1.392 . S
C1641 C1645 1.495 . S
C1642 C1641 1.392 . S
C1642 C1643 1.385 . S
C1642 C1644 1.478 . S
C1643 H1637 0.930 . S
C1643 C1639 1.400 . S
C1643 C1642 1.385 . S
C1644 C1642 1.478 . S
C1644 C1646 1.381 . S
C1644 C1650 1.383 . S
C1645 C1641 1.495 . S
C1645 H1651 0.959 . S
C1645 H1652 0.961 . S
C1645 H1653 0.960 . S
C1646 C1644 1.381 . S
C1646 C1647 1.394 . S
C1646 H1654 0.930 . S
C1647 C1646 1.394 . S
C1647 C1648 1.383 . S
C1647 H1655 0.929 . S
C1648 C1647 1.383 . S
C1648 C1649 1.377 . S
C1649 H1633 0.930 . S
C1649 C1648 1.377 . S
C1649 C1650 1.379 . S
C1650 H1634 0.931 . S
C1650 C1644 1.383 . S
C1650 C1649 1.379 . S
H1651 C1645 0.959 . S
H1652 C1645 0.961 . S
H1653 C1645 0.960 . S
H1654 C1646 0.930 . S
H1655 C1647 0.929 . S
H1656 C1664 0.929 . S
H1657 C1666 0.930 . S
H1658 C1668 0.930 . S
H1659 C1671 0.929 . S
H1660 C1674 0.930 . S
H1661 C1676 0.960 . S
H1662 C1676 0.960 . S
H1663 C1676 0.960 . S
C1664 H1656 0.929 . S
C1664 C1665 1.377 . S
C1664 C1666 1.384 . S
C1665 C1664 1.377 . S
C1665 C1671 1.390 . S
C1666 H1657 0.930 . S
C1666 C1664 1.384 . S
C1666 C1667 1.372 . S
C1667 C1666 1.372 . S
C1667 C1668 1.400 . S
C1667 C1672 1.490 . S
C1668 H1658 0.930 . S
C1668 C1667 1.400 . S
C1668 C1671 1.386 . S
H1669 C1685 0.930 . S
H1670 C1686 0.931 . S
C1671 H1659 0.929 . S
C1671 C1665 1.390 . S
C1671 C1668 1.386 . S
C1672 C1667 1.490 . S
C1672 C1674 1.395 . S
C1672 C1675 1.403 . S
H1673 C1679 0.930 . S
C1674 H1660 0.930 . S
C1674 C1672 1.395 . S
C1674 C1677 1.403 . S
C1675 C1672 1.403 . S
C1675 C1676 1.524 . S
C1675 C1679 1.400 . S
C1676 H1661 0.960 . S
C1676 H1662 0.960 . S
C1676 H1663 0.960 . S
C1676 C1675 1.524 . S
C1677 C1674 1.403 . S
C1677 C1678 1.392 . S
C1677 C1681 1.495 . S
C1678 C1677 1.392 . S
C1678 C1679 1.385 . S
C1678 C1680 1.478 . S
C1679 H1673 0.930 . S
C1679 C1675 1.400 . S
C1679 C1678 1.385 . S
C1680 C1678 1.478 . S
C1680 C1682 1.381 . S
C1680 C1686 1.383 . S
C1681 C1677 1.495 . S
C1681 H1687 0.959 . S
C1681 H1688 0.961 . S
C1681 H1689 0.960 . S
C1682 C1680 1.381 . S
C1682 C1683 1.394 . S
C1682 H1690 0.930 . S
C1683 C1682 1.394 . S
C1683 C1684 1.383 . S
C1683 H1691 0.929 . S
C1684 C1683 1.383 . S
C1684 C1685 1.377 . S
C1685 H1669 0.930 . S
C1685 C1684 1.377 . S
C1685 C1686 1.379 . S
C1686 H1670 0.931 . S
C1686 C1680 1.383 . S
C1686 C1685 1.379 . S
H1687 C1681 0.959 . S
H1688 C1681 0.961 . S
H1689 C1681 0.960 . S
H1690 C1682 0.930 . S
H1691 C1683 0.929 . S
H1692 C1700 0.929 . S
H1693 C1702 0.930 . S
H1694 C1704 0.930 . S
H1695 C1707 0.929 . S
H1696 C1710 0.930 . S
H1697 C1712 0.960 . S
H1698 C1712 0.960 . S
H1699 C1712 0.960 . S
C1700 H1692 0.929 . S
C1700 C1701 1.377 . S
C1700 C1702 1.384 . S
C1701 C1700 1.377 . S
C1701 C1707 1.390 . S
C1702 H1693 0.930 . S
C1702 C1700 1.384 . S
C1702 C1703 1.372 . S
C1703 C1702 1.372 . S
C1703 C1704 1.400 . S
C1703 C1708 1.490 . S
C1704 H1694 0.930 . S
C1704 C1703 1.400 . S
C1704 C1707 1.386 . S
H1705 C1721 0.934 . S
H1706 C1722 0.931 . S
C1707 H1695 0.929 . S
C1707 C1701 1.390 . S
C1707 C1704 1.386 . S
C1708 C1703 1.490 . S
C1708 C1710 1.395 . S
C1708 C1711 1.403 . S
H1709 C1715 0.930 . S
C1710 H1696 0.930 . S
C1710 C1708 1.395 . S
C1710 C1713 1.403 . S
C1711 C1708 1.403 . S
C1711 C1712 1.524 . S
C1711 C1715 1.400 . S
C1712 H1697 0.960 . S
C1712 H1698 0.960 . S
C1712 H1699 0.960 . S
C1712 C1711 1.524 . S
C1713 C1710 1.403 . S
C1713 C1714 1.392 . S
C1713 C1717 1.495 . S
C1714 C1713 1.392 . S
C1714 C1715 1.385 . S
C1714 C1716 1.478 . S
C1715 H1709 0.930 . S
C1715 C1711 1.400 . S
C1715 C1714 1.385 . S
C1716 C1714 1.478 . S
C1716 C1718 1.381 . S
C1716 C1722 1.383 . S
C1717 C1713 1.495 . S
C1717 H1723 0.963 . S
C1717 H1724 0.961 1_554 S
C1717 H1725 0.960 1_554 S
C1718 C1716 1.381 . S
C1718 C1719 1.394 1_554 S
C1718 H1726 0.930 . S
C1719 C1718 1.394 1_556 S
C1719 C1720 1.383 . S
C1719 H1727 0.929 . S
C1720 C1719 1.383 . S
C1720 C1721 1.411 . S
C1721 H1705 0.934 . S
C1721 C1720 1.411 . S
C1721 C1722 1.344 1_556 S
C1722 H1706 0.931 . S
C1722 C1716 1.383 . S
C1722 C1721 1.344 1_554 S
H1723 C1717 0.963 . S
H1724 C1717 0.961 1_556 S
H1725 C1717 0.960 1_556 S
H1726 C1718 0.930 . S
H1727 C1719 0.929 . S
H1728 C1736 0.929 . S
H1729 C1738 0.930 . S
H1730 C1740 0.930 . S
H1731 C1743 0.929 . S
H1732 C1746 0.930 . S
H1733 C1748 0.960 . S
H1734 C1748 0.960 . S
H1735 C1748 0.960 . S
C1736 H1728 0.929 . S
C1736 C1737 1.377 . S
C1736 C1738 1.384 . S
C1737 C1736 1.377 . S
C1737 C1743 1.390 . S
C1738 H1729 0.930 . S
C1738 C1736 1.384 . S
C1738 C1739 1.372 . S
C1739 C1738 1.372 . S
C1739 C1740 1.400 . S
C1739 C1744 1.490 . S
C1740 H1730 0.930 . S
C1740 C1739 1.400 . S
C1740 C1743 1.386 . S
H1741 C1757 0.930 . S
H1742 C1758 0.931 . S
C1743 H1731 0.929 . S
C1743 C1737 1.390 . S
C1743 C1740 1.386 . S
C1744 C1739 1.490 . S
C1744 C1746 1.395 . S
C1744 C1747 1.403 . S
H1745 C1751 0.930 . S
C1746 H1732 0.930 . S
C1746 C1744 1.395 . S
C1746 C1749 1.403 . S
C1747 C1744 1.403 . S
C1747 C1748 1.524 . S
C1747 C1751 1.400 . S
C1748 H1733 0.960 . S
C1748 H1734 0.960 . S
C1748 H1735 0.960 . S
C1748 C1747 1.524 . S
C1749 C1746 1.403 . S
C1749 C1750 1.392 . S
C1749 C1753 1.495 . S
C1750 C1749 1.392 . S
C1750 C1751 1.385 . S
C1750 C1752 1.478 . S
C1751 H1745 0.930 . S
C1751 C1747 1.400 . S
C1751 C1750 1.385 . S
C1752 C1750 1.478 . S
C1752 C1754 1.381 . S
C1752 C1758 1.383 . S
C1753 C1749 1.495 . S
C1753 H1759 0.959 . S
C1753 H1760 0.961 . S
C1753 H1761 0.960 . S
C1754 C1752 1.381 . S
C1754 C1755 1.394 . S
C1754 H1762 0.930 . S
C1755 C1754 1.394 . S
C1755 C1756 1.383 . S
C1755 H1763 0.929 . S
C1756 C1755 1.383 . S
C1756 C1757 1.377 . S
C1757 H1741 0.930 . S
C1757 C1756 1.377 . S
C1757 C1758 1.379 . S
C1758 H1742 0.931 . S
C1758 C1752 1.383 . S
C1758 C1757 1.379 . S
H1759 C1753 0.959 . S
H1760 C1753 0.961 . S
H1761 C1753 0.960 . S
H1762 C1754 0.930 . S
H1763 C1755 0.929 . S
C928 C841 1.687 . S
C909 C29 1.612 . S
C945 C115 1.549 . S
C964 C401 1.569 . S
C981 C153 1.589 . S
C1000 C489 1.661 . S
C1017 C239 1.565 . S
C1036 C568 1.563 . S
C1072 C665 1.589 . S
C1053 C301 1.579 . S
C1089 C339 1.882 . S
C1108 C744 1.974 . S
C1125 C91 1.594 . S
C1144 C509 1.676 . S
C1161 C177 1.542 . S
C1180 C605 1.542 . S
C1197 C215 1.609 . S
C1216 C685 1.665 . S
C1252 C781 1.971 . S
C1233 C277 1.878 . S
C1288 C861 1.590 . S
C1269 C363 1.579 . S
C1324 C421 1.570 . S
C1305 C53 1.569 . S
C1341 C35 1.525 . S
C1360 C517 1.558 . S
C1377 C109 1.385 . S
C1396 C597 1.500 . S
C1432 C693 1.402 . S
C1413 C159 1.382 . S
C1449 C233 1.604 . S
C1468 C773 1.756 . S
C1504 C869 1.541 . S
C1485 C295 1.414 . S
C1540 C429 1.332 . S
C1521 C345 1.308 . S
C1576 C832 1.410 . S
C1557 C97 1.386 . S
C1593 C171 1.375 . S
C1612 C392 1.485 . S
C1648 C480 1.550 . S
C1629 C221 1.520 . S
C1665 C283 1.302 . S
C1684 C577 1.317 . S
C1701 C357 1.404 . S
C1720 C656 1.522 . S
C1737 C47 1.607 . S
C1756 C753 1.723 . S
