# Generated by pormake.
# Topology eea, (3,6)-cn, num edge types: 1
# Building blocks:
#     Node 0, Type 0, BuildingBlock: MIDCAF_clean_linker_0, # of connection points: 3
#     Node 1, Type 0, BuildingBlock: MIDCAF_clean_linker_0, # of connection points: 3
#     Node 2, Type 0, BuildingBlock: MIDCAF_clean_linker_0, # of connection points: 3
#     Node 3, Type 0, BuildingBlock: MIDCAF_clean_linker_0, # of connection points: 3
#     Node 4, Type 0, BuildingBlock: MIDCAF_clean_linker_0, # of connection points: 3
#     Node 5, Type 0, BuildingBlock: MIDCAF_clean_linker_0, # of connection points: 3
#     Node 6, Type 0, BuildingBlock: MIDCAF_clean_linker_0, # of connection points: 3
#     Node 7, Type 0, BuildingBlock: MIDCAF_clean_linker_0, # of connection points: 3
#     Node 8, Type 0, BuildingBlock: MIDCAF_clean_linker_0, # of connection points: 3
#     Node 9, Type 0, BuildingBlock: MIDCAF_clean_linker_0, # of connection points: 3
#     Node 10, Type 0, BuildingBlock: MIDCAF_clean_linker_0, # of connection points: 3
#     Node 11, Type 0, BuildingBlock: MIDCAF_clean_linker_0, # of connection points: 3
#     Node 12, Type 0, BuildingBlock: MIDCAF_clean_linker_0, # of connection points: 3
#     Node 13, Type 0, BuildingBlock: MIDCAF_clean_linker_0, # of connection points: 3
#     Node 14, Type 0, BuildingBlock: MIDCAF_clean_linker_0, # of connection points: 3
#     Node 15, Type 0, BuildingBlock: MIDCAF_clean_linker_0, # of connection points: 3
#     Node 16, Type 0, BuildingBlock: MIDCAF_clean_linker_0, # of connection points: 3
#     Node 17, Type 0, BuildingBlock: MIDCAF_clean_linker_0, # of connection points: 3
#     Node 18, Type 1, BuildingBlock: KUMJIN_clean_sbu_0, # of connection points: 6
#     Node 19, Type 1, BuildingBlock: KUMJIN_clean_sbu_0, # of connection points: 6
#     Node 20, Type 1, BuildingBlock: KUMJIN_clean_sbu_0, # of connection points: 6
#     Node 21, Type 1, BuildingBlock: KUMJIN_clean_sbu_0, # of connection points: 6
#     Node 22, Type 1, BuildingBlock: KUMJIN_clean_sbu_0, # of connection points: 6
#     Node 23, Type 1, BuildingBlock: KUMJIN_clean_sbu_0, # of connection points: 6
#     Node 24, Type 1, BuildingBlock: KUMJIN_clean_sbu_0, # of connection points: 6
#     Node 25, Type 1, BuildingBlock: KUMJIN_clean_sbu_0, # of connection points: 6
#     Node 26, Type 1, BuildingBlock: KUMJIN_clean_sbu_0, # of connection points: 6
#     Edge 27, Type (0, 1), BuildingBlock: AJUNOK_clean_linker_0, # of connection points: 2
#     Edge 28, Type (0, 1), BuildingBlock: AJUNOK_clean_linker_0, # of connection points: 2
#     Edge 29, Type (0, 1), BuildingBlock: AJUNOK_clean_linker_0, # of connection points: 2
#     Edge 30, Type (0, 1), BuildingBlock: AJUNOK_clean_linker_0, # of connection points: 2
#     Edge 31, Type (0, 1), BuildingBlock: AJUNOK_clean_linker_0, # of connection points: 2
#     Edge 32, Type (0, 1), BuildingBlock: AJUNOK_clean_linker_0, # of connection points: 2
#     Edge 33, Type (0, 1), BuildingBlock: AJUNOK_clean_linker_0, # of connection points: 2
#     Edge 34, Type (0, 1), BuildingBlock: AJUNOK_clean_linker_0, # of connection points: 2
#     Edge 35, Type (0, 1), BuildingBlock: AJUNOK_clean_linker_0, # of connection points: 2
#     Edge 36, Type (0, 1), BuildingBlock: AJUNOK_clean_linker_0, # of connection points: 2
#     Edge 37, Type (0, 1), BuildingBlock: AJUNOK_clean_linker_0, # of connection points: 2
#     Edge 38, Type (0, 1), BuildingBlock: AJUNOK_clean_linker_0, # of connection points: 2
#     Edge 39, Type (0, 1), BuildingBlock: AJUNOK_clean_linker_0, # of connection points: 2
#     Edge 40, Type (0, 1), BuildingBlock: AJUNOK_clean_linker_0, # of connection points: 2
#     Edge 41, Type (0, 1), BuildingBlock: AJUNOK_clean_linker_0, # of connection points: 2
#     Edge 42, Type (0, 1), BuildingBlock: AJUNOK_clean_linker_0, # of connection points: 2
#     Edge 43, Type (0, 1), BuildingBlock: AJUNOK_clean_linker_0, # of connection points: 2
#     Edge 44, Type (0, 1), BuildingBlock: AJUNOK_clean_linker_0, # of connection points: 2
#     Edge 45, Type (0, 1), BuildingBlock: AJUNOK_clean_linker_0, # of connection points: 2
#     Edge 46, Type (0, 1), BuildingBlock: AJUNOK_clean_linker_0, # of connection points: 2
#     Edge 47, Type (0, 1), BuildingBlock: AJUNOK_clean_linker_0, # of connection points: 2
#     Edge 48, Type (0, 1), BuildingBlock: AJUNOK_clean_linker_0, # of connection points: 2
#     Edge 49, Type (0, 1), BuildingBlock: AJUNOK_clean_linker_0, # of connection points: 2
#     Edge 50, Type (0, 1), BuildingBlock: AJUNOK_clean_linker_0, # of connection points: 2
#     Edge 51, Type (0, 1), BuildingBlock: AJUNOK_clean_linker_0, # of connection points: 2
#     Edge 52, Type (0, 1), BuildingBlock: AJUNOK_clean_linker_0, # of connection points: 2
#     Edge 53, Type (0, 1), BuildingBlock: AJUNOK_clean_linker_0, # of connection points: 2
#     Edge 54, Type (0, 1), BuildingBlock: AJUNOK_clean_linker_0, # of connection points: 2
#     Edge 55, Type (0, 1), BuildingBlock: AJUNOK_clean_linker_0, # of connection points: 2
#     Edge 56, Type (0, 1), BuildingBlock: AJUNOK_clean_linker_0, # of connection points: 2
#     Edge 57, Type (0, 1), BuildingBlock: AJUNOK_clean_linker_0, # of connection points: 2
#     Edge 58, Type (0, 1), BuildingBlock: AJUNOK_clean_linker_0, # of connection points: 2
#     Edge 59, Type (0, 1), BuildingBlock: AJUNOK_clean_linker_0, # of connection points: 2
#     Edge 60, Type (0, 1), BuildingBlock: AJUNOK_clean_linker_0, # of connection points: 2
#     Edge 61, Type (0, 1), BuildingBlock: AJUNOK_clean_linker_0, # of connection points: 2
#     Edge 62, Type (0, 1), BuildingBlock: AJUNOK_clean_linker_0, # of connection points: 2
#     Edge 63, Type (0, 1), BuildingBlock: AJUNOK_clean_linker_0, # of connection points: 2
#     Edge 64, Type (0, 1), BuildingBlock: AJUNOK_clean_linker_0, # of connection points: 2
#     Edge 65, Type (0, 1), BuildingBlock: AJUNOK_clean_linker_0, # of connection points: 2
#     Edge 66, Type (0, 1), BuildingBlock: AJUNOK_clean_linker_0, # of connection points: 2
#     Edge 67, Type (0, 1), BuildingBlock: AJUNOK_clean_linker_0, # of connection points: 2
#     Edge 68, Type (0, 1), BuildingBlock: AJUNOK_clean_linker_0, # of connection points: 2
#     Edge 69, Type (0, 1), BuildingBlock: AJUNOK_clean_linker_0, # of connection points: 2
#     Edge 70, Type (0, 1), BuildingBlock: AJUNOK_clean_linker_0, # of connection points: 2
#     Edge 71, Type (0, 1), BuildingBlock: AJUNOK_clean_linker_0, # of connection points: 2
#     Edge 72, Type (0, 1), BuildingBlock: AJUNOK_clean_linker_0, # of connection points: 2
#     Edge 73, Type (0, 1), BuildingBlock: AJUNOK_clean_linker_0, # of connection points: 2
#     Edge 74, Type (0, 1), BuildingBlock: AJUNOK_clean_linker_0, # of connection points: 2
#     Edge 75, Type (0, 1), BuildingBlock: AJUNOK_clean_linker_0, # of connection points: 2
#     Edge 76, Type (0, 1), BuildingBlock: AJUNOK_clean_linker_0, # of connection points: 2
#     Edge 77, Type (0, 1), BuildingBlock: AJUNOK_clean_linker_0, # of connection points: 2
#     Edge 78, Type (0, 1), BuildingBlock: AJUNOK_clean_linker_0, # of connection points: 2
#     Edge 79, Type (0, 1), BuildingBlock: AJUNOK_clean_linker_0, # of connection points: 2
#     Edge 80, Type (0, 1), BuildingBlock: AJUNOK_clean_linker_0, # of connection points: 2
# Relax obj value: 0.008
# Max RMSD: 0.090
# Mean RMSD: 0.072
data_MOF--net-eea--node1-KUMJIN_clean_sbu_0--node2-MIDCAF_clean_linker_0--edge1-AJUNOK_clean_linker_0
_symmetry_space_group_name_H-M    P1
_symmetry_Int_Tables_number       1
_symmetry_cell_setting            triclinic
loop_
_symmetry_equiv_pos_as_xyz
'x, y, z'
_cell_length_a     48.166647
_cell_length_b     49.600134
_cell_length_c     71.585747
_cell_angle_alpha  89.963185
_cell_angle_beta   89.973286
_cell_angle_gamma 119.95112
loop_
_atom_site_label
_atom_site_type_symbol
_atom_site_fract_x
_atom_site_fract_y
_atom_site_fract_z
_atom_type_partial_charge
C0 C 0.21656 0.00696 0.41608 0.0
C1 C 0.20843 0.00288 0.39706 0.0
C2 C 0.20391 0.02532 0.38776 0.0
C3 C 0.2084 0.05187 0.39719 0.0
H4 H 0.20305 0.13065 0.39062 0.0
H5 H 0.19368 0.16886 0.37478 0.0
H6 H 0.21689 0.22295 0.42547 0.0
H7 H 0.22712 0.18524 0.44131 0.0
H8 H 0.2677 0.17219 0.47282 0.0
H9 H 0.29701 0.18433 0.50234 0.0
H10 H 0.29142 0.09475 0.50144 0.0
H11 H 0.26182 0.08223 0.47225 0.0
H12 H 0.22784 0.03604 0.44011 0.0
H13 H 0.21933 0.98958 0.42371 0.0
H14 H 0.19755 0.02265 0.37309 0.0
H15 H 0.20531 0.06903 0.38954 0.0
N16 N 0.21682 0.10572 0.41779 0.0
N17 N 0.23805 0.13913 0.44357 0.0
N18 N 0.23839 0.09206 0.44291 0.0
C19 C 0.22358 0.13262 0.42654 0.0
C20 C 0.24554 0.11889 0.45184 0.0
C21 C 0.22404 0.08527 0.42592 0.0
C22 C 0.21622 0.15502 0.41722 0.0
C23 C 0.20612 0.15062 0.39846 0.0
C24 C 0.20062 0.17243 0.38936 0.0
C25 C 0.20504 0.19906 0.39881 0.0
C26 C 0.21408 0.20299 0.41772 0.0
C27 C 0.21979 0.18129 0.4268 0.0
C28 C 0.26243 0.12626 0.47006 0.0
C29 C 0.27262 0.15502 0.47892 0.0
C30 C 0.28962 0.16211 0.49575 0.0
C31 C 0.29676 0.14059 0.50403 0.0
C32 C 0.28617 0.11173 0.49536 0.0
C33 C 0.26927 0.10465 0.47858 0.0
C34 C 0.21753 0.05644 0.41611 0.0
C35 C 0.22123 0.03351 0.42548 0.0
C36 C 0.99336 0.23216 0.40235 0.0
C37 C 1.00366 0.22506 0.38565 0.0
C38 C 0.98557 0.19509 0.37809 0.0
C39 C 0.95734 0.17282 0.38691 0.0
H40 H 0.87509 0.08767 0.37801 0.0
H41 H 0.83854 0.0383 0.36291 0.0
H42 H 0.77591 0.01115 0.41085 0.0
H43 H 0.81189 0.06048 0.42589 0.0
H44 H 0.82883 0.10252 0.45986 0.0
H45 H 0.81489 0.11148 0.49096 0.0
H46 H 0.90269 0.19984 0.49341 0.0
H47 H 0.91669 0.1913 0.46196 0.0
H48 H 0.95822 0.21631 0.42408 0.0
H49 H 0.0072 0.25493 0.40868 0.0
H50 H 0.9931 0.18902 0.36527 0.0
H51 H 0.94385 0.14997 0.38065 0.0
N52 N 0.89652 0.12931 0.40429 0.0
N53 N 0.86212 0.11364 0.43016 0.0
N54 N 0.90955 0.16188 0.43051 0.0
C55 C 0.86899 0.1078 0.41275 0.0
C56 C 0.88216 0.14052 0.43918 0.0
C57 C 0.91694 0.15645 0.41305 0.0
C58 C 0.84664 0.07811 0.40325 0.0
C59 C 0.85353 0.07126 0.38535 0.0
C60 C 0.83268 0.04292 0.37671 0.0
C61 C 0.80456 0.0208 0.38579 0.0
C62 C 0.79735 0.02783 0.4035 0.0
C63 C 0.81814 0.0561 0.41214 0.0
C64 C 0.87401 0.14614 0.45831 0.0
C65 C 0.84537 0.12387 0.46695 0.0
C66 C 0.83742 0.12884 0.4849 0.0
C67 C 0.85793 0.15612 0.49475 0.0
C68 C 0.88645 0.17855 0.48614 0.0
C69 C 0.89446 0.17359 0.46814 0.0
C70 C 0.94689 0.17996 0.40362 0.0
C71 C 0.96537 0.20991 0.41124 0.0
C72 C 0.79461 0.77789 0.40587 0.0
C73 C 0.80215 0.79543 0.38935 0.0
C74 C 0.83243 0.80603 0.38118 0.0
C75 C 0.85458 0.79894 0.38933 0.0
H76 H 0.9458 0.80503 0.3821 0.0
H77 H 0.99476 0.81291 0.36651 0.0
H78 H 0.00838 0.76053 0.41005 0.0
H79 H 0.95996 0.75256 0.42559 0.0
H80 H 0.91956 0.73587 0.46282 0.0
H81 H 0.90615 0.7116 0.49368 0.0
H82 H 0.8184 0.71503 0.49358 0.0
H83 H 0.83185 0.73975 0.46293 0.0
H84 H 0.80985 0.75754 0.42685 0.0
H85 H 0.77175 0.76996 0.41272 0.0
H86 H 0.83892 0.81972 0.36847 0.0
H87 H 0.87768 0.80745 0.38269 0.0
N88 N 0.89798 0.77992 0.40634 0.0
N89 N 0.91174 0.75969 0.43219 0.0
N90 N 0.864 0.76129 0.43247 0.0
C91 C 0.91879 0.77263 0.41479 0.0
C92 C 0.88447 0.75403 0.44118 0.0
C93 C 0.87041 0.7742 0.41511 0.0
C94 C 0.94866 0.77801 0.40513 0.0
C95 C 0.95918 0.79511 0.38834 0.0
C96 C 0.98725 0.79974 0.37941 0.0
C97 C 1.00513 0.78696 0.38692 0.0
C98 C 0.99478 0.77015 0.40373 0.0
C99 C 0.96704 0.76578 0.41271 0.0
C100 C 0.87675 0.73969 0.4602 0.0
C101 C 0.8974 0.73152 0.46933 0.0
C102 C 0.88964 0.71742 0.48701 0.0
C103 C 0.861 0.71102 0.49601 0.0
C104 C 0.84068 0.7197 0.48706 0.0
C105 C 0.84838 0.73377 0.4694 0.0
C106 C 0.84705 0.78146 0.40596 0.0
C107 C 0.81669 0.77103 0.41406 0.0
C108 C 0.02105 0.2294 0.61895 0.0
C109 C 0.00963 0.21118 0.6352 0.0
C110 C 0.02747 0.19839 0.64278 0.0
C111 C 0.05614 0.20379 0.63427 0.0
H112 H 0.13959 0.19466 0.64164 0.0
H113 H 0.17955 0.18524 0.65703 0.0
H114 H 0.24696 0.23519 0.61292 0.0
H115 H 0.20764 0.24467 0.5976 0.0
H116 H 0.18464 0.25932 0.56043 0.0
H117 H 0.19813 0.28336 0.5296 0.0
H118 H 0.11159 0.28897 0.52956 0.0
H119 H 0.09811 0.26528 0.56059 0.0
H120 H 0.05719 0.24862 0.59781 0.0
H121 H 0.00778 0.23943 0.61271 0.0
H122 H 0.01943 0.18449 0.6554 0.0
H123 H 0.06931 0.19365 0.64049 0.0
N124 N 0.11863 0.22082 0.61725 0.0
N125 N 0.15302 0.23945 0.59128 0.0
N126 N 0.10488 0.24034 0.59104 0.0
C127 C 0.14649 0.22681 0.60873 0.0
C128 C 0.13242 0.24623 0.58227 0.0
C129 C 0.09769 0.22762 0.6085 0.0
C130 C 0.17021 0.22044 0.61831 0.0
C131 C 0.16291 0.2036 0.6352 0.0
C132 C 0.18571 0.19804 0.64398 0.0
C133 C 0.21638 0.20944 0.63616 0.0
C134 C 0.22363 0.22626 0.61936 0.0
C135 C 0.2009 0.23156 0.61053 0.0
C136 C 0.1402 0.26024 0.56315 0.0
C137 C 0.16829 0.26547 0.55389 0.0
C138 C 0.17595 0.27904 0.53608 0.0
C139 C 0.15574 0.28773 0.52698 0.0
C140 C 0.12766 0.28253 0.53618 0.0
C141 C 0.11993 0.26887 0.55399 0.0
C142 C 0.06743 0.22184 0.61786 0.0
C143 C 0.04939 0.23451 0.61035 0.0
C144 C 0.78366 0.78997 0.60791 0.0
C145 C 0.79631 0.79707 0.6261 0.0
C146 C 0.80051 0.8243 0.63467 0.0
C147 C 0.79263 0.84421 0.62519 0.0
H148 H 0.80746 0.93156 0.62778 0.0
H149 H 0.82001 0.98006 0.64316 0.0
H150 H 0.76538 0.99666 0.60157 0.0
H151 H 0.7534 0.94844 0.58576 0.0
H152 H 0.74301 0.90903 0.54585 0.0
H153 H 0.7161 0.89502 0.51562 0.0
H154 H 0.69214 0.79961 0.52418 0.0
H155 H 0.72002 0.81373 0.55405 0.0
H156 H 0.76611 0.80372 0.58439 0.0
H157 H 0.7802 0.76914 0.60094 0.0
H158 H 0.80946 0.83003 0.64883 0.0
H159 H 0.79619 0.86496 0.63231 0.0
N160 N 0.77892 0.8862 0.60492 0.0
N161 N 0.7572 0.89849 0.57922 0.0
N162 N 0.7573 0.85117 0.57999 0.0
C163 C 0.77171 0.90624 0.59622 0.0
C164 C 0.74992 0.87098 0.57098 0.0
C165 C 0.77188 0.85868 0.59698 0.0
C166 C 0.77947 0.93604 0.60543 0.0
C167 C 0.79815 0.94552 0.6218 0.0
C168 C 0.80529 0.9733 0.63071 0.0
C169 C 0.79393 0.99232 0.62351 0.0
C170 C 0.77509 0.98284 0.60723 0.0
C171 C 0.76807 0.95509 0.59823 0.0
C172 C 0.73383 0.86255 0.55243 0.0
C173 C 0.73221 0.88508 0.54126 0.0
C174 C 0.71673 0.87706 0.52391 0.0
C175 C 0.7023 0.84627 0.51732 0.0
C176 C 0.7038 0.82373 0.52853 0.0
C177 C 0.71958 0.8318 0.54578 0.0
C178 C 0.7801 0.83727 0.60693 0.0
C179 C 0.77565 0.80984 0.59842 0.0
C180 C 0.21326 0.9807 0.61908 0.0
C181 C 0.20524 0.98827 0.63641 0.0
C182 C 0.17542 0.96744 0.64444 0.0
C183 C 0.15429 0.93952 0.63544 0.0
H184 H 0.06617 0.85828 0.64129 0.0
H185 H 0.01793 0.81819 0.65703 0.0
H186 H 1.00413 0.75343 0.61294 0.0
H187 H 0.05208 0.79305 0.59721 0.0
H188 H 0.09356 0.81763 0.55996 0.0
H189 H 0.10809 0.8077 0.52909 0.0
H190 H 0.19522 0.89671 0.53049 0.0
H191 H 0.18065 0.90708 0.56115 0.0
H192 H 0.19935 0.9479 0.59676 0.0
H193 H 0.23611 0.99618 0.61256 0.0
H194 H 0.16822 0.9729 0.65759 0.0
H195 H 0.13153 0.92406 0.64205 0.0
N196 N 0.11282 0.88039 0.61702 0.0
N197 N 0.10039 0.84759 0.59097 0.0
N198 N 0.14728 0.89631 0.59113 0.0
C199 C 0.09278 0.853 0.60838 0.0
C200 C 0.12756 0.86917 0.5822 0.0
C201 C 0.14017 0.90217 0.6085 0.0
C202 C 0.06324 0.82896 0.61796 0.0
C203 C 0.05294 0.83548 0.63494 0.0
C204 C 0.02528 0.81259 0.64397 0.0
C205 C 0.0076 0.7826 0.63635 0.0
C206 C 0.01768 0.77617 0.61934 0.0
C207 C 0.04509 0.79902 0.61026 0.0
C208 C 0.13597 0.86311 0.56321 0.0
C209 C 0.11583 0.83515 0.55373 0.0
C210 C 0.12422 0.82934 0.53605 0.0
C211 C 0.15301 0.85126 0.52743 0.0
C212 C 0.17285 0.8794 0.53673 0.0
C213 C 0.16449 0.88524 0.55438 0.0
C214 C 0.16238 0.93187 0.61811 0.0
C215 C 0.19214 0.95291 0.61005 0.0
C216 C 0.89893 0.34502 0.7433 0.0
C217 C 0.8846 0.33765 0.72557 0.0
C218 C 0.87939 0.35964 0.7162 0.0
C219 C 0.88786 0.38821 0.72453 0.0
H220 H 0.88006 0.4658 0.71772 0.0
H221 H 0.86609 0.50136 0.70252 0.0
H222 H 0.91036 0.56706 0.74752 0.0
H223 H 0.92396 0.53137 0.76303 0.0
H224 H 0.95355 0.51377 0.7975 0.0
H225 H 0.98018 0.52594 0.82786 0.0
H226 H 0.97792 0.43787 0.82766 0.0
H227 H 0.95093 0.4253 0.79755 0.0
H228 H 0.91824 0.37835 0.76539 0.0
H229 H 0.90315 0.32846 0.75085 0.0
H230 H 0.86901 0.35485 0.70234 0.0
H231 H 0.88343 0.40455 0.71691 0.0
N232 N 0.90359 0.44611 0.74289 0.0
N233 N 0.92642 0.48092 0.76789 0.0
N234 N 0.92567 0.43328 0.76816 0.0
C235 C 0.91135 0.47374 0.75104 0.0
C236 C 0.93367 0.46079 0.77655 0.0
C237 C 0.91066 0.42574 0.75134 0.0
C238 C 0.90324 0.49565 0.74164 0.0
C239 C 0.88697 0.48784 0.72442 0.0
C240 C 0.87911 0.5083 0.7156 0.0
C241 C 0.88743 0.53712 0.72373 0.0
C242 C 0.90357 0.54495 0.74095 0.0
C243 C 0.91144 0.52449 0.7498 0.0
C244 C 0.95008 0.46855 0.79497 0.0
C245 C 0.95875 0.49698 0.80387 0.0
C246 C 0.9742 0.50408 0.82122 0.0
C247 C 0.98139 0.48297 0.83002 0.0
C248 C 0.97259 0.45454 0.82122 0.0
C249 C 0.9572 0.44742 0.8039 0.0
C250 C 0.90192 0.39552 0.74239 0.0
C251 C 0.90747 0.3736 0.75164 0.0
C252 C 0.65961 0.55807 0.73928 0.0
C253 C 0.66889 0.55059 0.72233 0.0
C254 C 0.6497 0.52078 0.71477 0.0
C255 C 0.62177 0.4989 0.72398 0.0
H256 H 0.53477 0.41771 0.71448 0.0
H257 H 0.49771 0.36848 0.69948 0.0
H258 H 0.44724 0.33388 0.75167 0.0
H259 H 0.48355 0.38324 0.76661 0.0
H260 H 0.49622 0.42943 0.79849 0.0
H261 H 0.48293 0.43842 0.82972 0.0
H262 H 0.57123 0.52635 0.83199 0.0
H263 H 0.58459 0.51778 0.80035 0.0
H264 H 0.62557 0.54279 0.76163 0.0
H265 H 0.67408 0.58086 0.74547 0.0
H266 H 0.65611 0.51452 0.70162 0.0
H267 H 0.60753 0.47615 0.71772 0.0
N268 N 0.56208 0.45579 0.7423 0.0
N269 N 0.52885 0.44017 0.76868 0.0
N270 N 0.57623 0.48853 0.76852 0.0
C271 C 0.53498 0.43426 0.75111 0.0
C272 C 0.5492 0.46715 0.77752 0.0
C273 C 0.58287 0.48299 0.75088 0.0
C274 C 0.51236 0.40448 0.74181 0.0
C275 C 0.5158 0.39965 0.72279 0.0
C276 C 0.49465 0.37137 0.71419 0.0
C277 C 0.46981 0.34715 0.72446 0.0
C278 C 0.46605 0.35214 0.74337 0.0
C279 C 0.48702 0.38045 0.75194 0.0
C280 C 0.54161 0.47284 0.7968 0.0
C281 C 0.51304 0.45069 0.80557 0.0
C282 C 0.50546 0.45568 0.8236 0.0
C283 C 0.52629 0.48283 0.83346 0.0
C284 C 0.55477 0.50514 0.82474 0.0
C285 C 0.56241 0.50017 0.80662 0.0
C286 C 0.61251 0.50628 0.74105 0.0
C287 C 0.63187 0.53617 0.74858 0.0
C288 C 0.45302 0.09702 0.73942 0.0
C289 C 0.45923 0.11404 0.72276 0.0
C290 C 0.48929 0.12531 0.71413 0.0
C291 C 0.51271 0.1199 0.72214 0.0
H292 H 0.60654 0.13104 0.71445 0.0
H293 H 0.65532 0.13965 0.69823 0.0
H294 H 0.67145 0.08823 0.74129 0.0
H295 H 0.62332 0.07966 0.75749 0.0
H296 H 0.58597 0.06563 0.79588 0.0
H297 H 0.57501 0.04313 0.82721 0.0
H298 H 0.48513 0.0425 0.82799 0.0
H299 H 0.49613 0.06546 0.79685 0.0
H300 H 0.47058 0.07879 0.76042 0.0
H301 H 0.43019 0.08819 0.74646 0.0
H302 H 0.49464 0.13824 0.70116 0.0
H303 H 0.53565 0.12901 0.71519 0.0
N304 N 0.55892 0.10426 0.73896 0.0
N305 N 0.57526 0.08671 0.76499 0.0
N306 N 0.52637 0.08607 0.7657 0.0
C307 C 0.58098 0.09861 0.74733 0.0
C308 C 0.5481 0.08048 0.77433 0.0
C309 C 0.53142 0.0979 0.74808 0.0
C310 C 0.61074 0.10451 0.7373 0.0
C311 C 0.62045 0.12153 0.72045 0.0
C312 C 0.64842 0.12657 0.71117 0.0
C313 C 0.66693 0.11426 0.71837 0.0
C314 C 0.65738 0.09756 0.73524 0.0
C315 C 0.6298 0.09282 0.74458 0.0
C316 C 0.54188 0.06727 0.79364 0.0
C317 C 0.56386 0.06077 0.80268 0.0
C318 C 0.55751 0.04768 0.82064 0.0
C319 C 0.529 0.04065 0.83003 0.0
C320 C 0.50735 0.0477 0.82118 0.0
C321 C 0.51365 0.06075 0.80323 0.0
C322 C 0.50665 0.10329 0.73904 0.0
C323 C 0.47638 0.09182 0.74748 0.0
C324 C 0.68678 0.56341 0.95336 0.0
C325 C 0.67696 0.54635 0.9701 0.0
C326 C 0.69582 0.53455 0.9775 0.0
C327 C 0.72383 0.53968 0.9683 0.0
H328 H 0.80513 0.52729 0.97304 0.0
H329 H 0.84545 0.51769 0.98778 0.0
H330 H 0.91242 0.56962 0.94389 0.0
H331 H 0.87268 0.5792 0.92916 0.0
H332 H 0.84479 0.58736 0.89094 0.0
H333 H 0.85741 0.61071 0.85995 0.0
H334 H 0.778 0.62769 0.86367 0.0
H335 H 0.76469 0.60353 0.89456 0.0
H336 H 0.72111 0.58146 0.93119 0.0
H337 H 0.67267 0.57264 0.94725 0.0
H338 H 0.68904 0.52159 0.99048 0.0
H339 H 0.73776 0.53026 0.97441 0.0
N340 N 0.7843 0.55501 0.94972 0.0
N341 N 0.81734 0.57282 0.92319 0.0
N342 N 0.76956 0.57441 0.92386 0.0
C343 C 0.81158 0.5605 0.9407 0.0
C344 C 0.79654 0.57977 0.9146 0.0
C345 C 0.76315 0.56197 0.94141 0.0
C346 C 0.8355 0.55403 0.94985 0.0
C347 C 0.82843 0.53662 0.96651 0.0
C348 C 0.85142 0.53096 0.97491 0.0
C349 C 0.88205 0.54288 0.96695 0.0
C350 C 0.88909 0.56028 0.95039 0.0
C351 C 0.86615 0.56563 0.94191 0.0
C352 C 0.80365 0.59347 0.8954 0.0
C353 C 0.82979 0.59586 0.88518 0.0
C354 C 0.83713 0.60933 0.86736 0.0
C355 C 0.81862 0.62089 0.85918 0.0
C356 C 0.79236 0.6184 0.86931 0.0
C357 C 0.78489 0.60474 0.88714 0.0
C358 C 0.73352 0.55653 0.9514 0.0
C359 C 0.71454 0.5683 0.94409 0.0
C360 C 0.41909 0.10985 0.95679 0.0
C361 C 0.43418 0.11717 0.97434 0.0
C362 C 0.43727 0.14306 0.98406 0.0
C363 C 0.42699 0.16223 0.97597 0.0
H364 H 0.42684 0.24309 0.98489 0.0
H365 H 0.44424 0.2933 0.99966 0.0
H366 H 0.42455 0.32733 0.94874 0.0
H367 H 0.40644 0.27703 0.93398 0.0
H368 H 0.38803 0.23699 0.89817 0.0
H369 H 0.36846 0.22922 0.86622 0.0
H370 H 0.34179 0.13231 0.86953 0.0
H371 H 0.36236 0.14021 0.90143 0.0
H372 H 0.39808 0.1231 0.93491 0.0
H373 H 0.41581 0.0896 0.94918 0.0
H374 H 0.44876 0.14916 0.99763 0.0
H375 H 0.43065 0.18254 0.98365 0.0
N376 N 0.41191 0.20475 0.95742 0.0
N377 N 0.39539 0.22086 0.93102 0.0
N378 N 0.39382 0.17282 0.93088 0.0
C379 C 0.40687 0.22626 0.94875 0.0
C380 C 0.38867 0.1942 0.92199 0.0
C381 C 0.40547 0.17797 0.94864 0.0
C382 C 0.41551 0.25605 0.95816 0.0
C383 C 0.42604 0.26118 0.97683 0.0
C384 C 0.43619 0.28998 0.98529 0.0
C385 C 0.43623 0.31431 0.97523 0.0
C386 C 0.42474 0.30893 0.95681 0.0
C387 C 0.41447 0.28012 0.94835 0.0
C388 C 0.37679 0.18921 0.90244 0.0
C389 C 0.37812 0.214 0.89213 0.0
C390 C 0.36686 0.20957 0.87379 0.0
C391 C 0.35381 0.18024 0.86527 0.0
C392 C 0.35241 0.15539 0.87553 0.0
C393 C 0.36397 0.15987 0.89388 0.0
C394 C 0.4133 0.15583 0.95797 0.0
C395 C 0.40881 0.12899 0.94867 0.0
C396 C 0.881 0.31324 0.94612 0.0
C397 C 0.87366 0.32153 0.96343 0.0
C398 C 0.8441 0.30125 0.97188 0.0
C399 C 0.82261 0.27299 0.96341 0.0
H400 H 0.72096 0.12298 0.93138 0.0
H401 H 0.67334 0.08565 0.94864 0.0
H402 H 0.68528 0.15799 0.98674 0.0
H403 H 0.73304 0.19554 0.96961 0.0
H404 H 0.75908 0.14571 0.8913 0.0
H405 H 0.77228 0.13383 0.86056 0.0
H406 H 0.85961 0.22273 0.85984 0.0
H407 H 0.84637 0.23502 0.8903 0.0
H408 H 0.86615 0.27931 0.92437 0.0
H409 H 0.90363 0.32839 0.93929 0.0
H410 H 0.83744 0.30733 0.98501 0.0
H411 H 0.80012 0.25791 0.9704 0.0
N412 N 0.78051 0.21317 0.94646 0.0
N413 N 0.76706 0.17805 0.92156 0.0
N414 N 0.81408 0.2267 0.92029 0.0
C415 C 0.76013 0.1851 0.93871 0.0
C416 C 0.79398 0.19882 0.91221 0.0
C417 C 0.80758 0.2341 0.93739 0.0
C418 C 0.7309 0.16235 0.94904 0.0
C419 C 0.71349 0.13105 0.9434 0.0
C420 C 0.68632 0.1096 0.95333 0.0
C421 C 0.67568 0.119 0.96898 0.0
C422 C 0.69288 0.15023 0.97464 0.0
C423 C 0.7203 0.17165 0.96484 0.0
C424 C 0.80168 0.19131 0.89343 0.0
C425 C 0.78112 0.16277 0.88463 0.0
C426 C 0.78876 0.15584 0.86704 0.0
C427 C 0.81717 0.17721 0.85785 0.0
C428 C 0.83749 0.20583 0.86652 0.0
C429 C 0.8299 0.21278 0.88407 0.0
C430 C 0.83009 0.26443 0.9462 0.0
C431 C 0.8595 0.28503 0.93761 0.0
C432 C 0.57795 0.68636 0.07577 0.0
C433 C 0.5638 0.67917 0.058 0.0
C434 C 0.55863 0.70112 0.04861 0.0
C435 C 0.5674 0.72978 0.05688 0.0
H436 H 0.55098 0.80279 0.0534 0.0
H437 H 0.53411 0.83695 0.03921 0.0
H438 H 0.59195 0.90901 0.07878 0.0
H439 H 0.6082 0.87466 0.09341 0.0
H440 H 0.62743 0.85188 0.13188 0.0
H441 H 0.65093 0.86176 0.16316 0.0
H442 H 0.65709 0.77806 0.15967 0.0
H443 H 0.63331 0.76775 0.12872 0.0
H444 H 0.59762 0.71973 0.09777 0.0
H445 H 0.58228 0.66981 0.08325 0.0
H446 H 0.5473 0.69592 0.035 0.0
H447 H 0.56289 0.74611 0.0493 0.0
N448 N 0.58265 0.78724 0.07545 0.0
N449 N 0.60496 0.82173 0.10066 0.0
N450 N 0.60513 0.77455 0.10054 0.0
C451 C 0.58996 0.81459 0.08378 0.0
C452 C 0.61265 0.80176 0.10912 0.0
C453 C 0.5902 0.76712 0.08371 0.0
C454 C 0.58075 0.83585 0.0747 0.0
C455 C 0.56016 0.82591 0.05912 0.0
C456 C 0.55053 0.84548 0.05092 0.0
C457 C 0.5613 0.87542 0.05806 0.0
C458 C 0.58257 0.88571 0.07328 0.0
C459 C 0.59203 0.86608 0.0816 0.0
C460 C 0.62815 0.80885 0.12778 0.0
C461 C 0.63378 0.83556 0.13776 0.0
C462 C 0.64727 0.84128 0.15566 0.0
C463 C 0.65526 0.82037 0.16394 0.0
C464 C 0.65038 0.79414 0.15382 0.0
C465 C 0.63692 0.78839 0.13599 0.0
C466 C 0.58153 0.73704 0.07472 0.0
C467 C 0.58683 0.71502 0.08402 0.0
C468 C 0.32819 0.88492 0.0709 0.0
C469 C 0.33704 0.87622 0.05422 0.0
C470 C 0.31663 0.84657 0.0468 0.0
C471 C 0.28821 0.82584 0.05604 0.0
H472 H 0.2121 0.73627 0.05331 0.0
H473 H 0.17525 0.68601 0.03931 0.0
H474 H 0.10393 0.6714 0.08077 0.0
H475 H 0.14093 0.72103 0.09517 0.0
H476 H 0.16796 0.75901 0.13325 0.0
H477 H 0.15505 0.77047 0.16401 0.0
H478 H 0.23285 0.86515 0.15945 0.0
H479 H 0.24651 0.85359 0.12875 0.0
H480 H 0.29408 0.8716 0.09312 0.0
H481 H 0.3436 0.90759 0.077 0.0
H482 H 0.32268 0.8394 0.03385 0.0
H483 H 0.2732 0.80308 0.04996 0.0
N484 N 0.22927 0.7839 0.07519 0.0
N485 N 0.19563 0.77041 0.10133 0.0
N486 N 0.24294 0.81883 0.10024 0.0
C487 C 0.20207 0.76309 0.0842 0.0
C488 C 0.21588 0.79813 0.10951 0.0
C489 C 0.24982 0.81185 0.08304 0.0
C490 C 0.17962 0.73269 0.07547 0.0
C491 C 0.1886 0.72233 0.05951 0.0
C492 C 0.16747 0.69355 0.05143 0.0
C493 C 0.13684 0.67452 0.05908 0.0
C494 C 0.12767 0.68509 0.07485 0.0
C495 C 0.14886 0.71371 0.08302 0.0
C496 C 0.20835 0.80536 0.12841 0.0
C497 C 0.18251 0.7823 0.13875 0.0
C498 C 0.175 0.78885 0.15643 0.0
C499 C 0.19304 0.81864 0.16428 0.0
C500 C 0.2189 0.84176 0.154 0.0
C501 C 0.22656 0.83517 0.13631 0.0
C502 C 0.27959 0.83426 0.07296 0.0
C503 C 0.29988 0.86418 0.08019 0.0
C504 C 0.12134 0.43692 0.07152 0.0
C505 C 0.12867 0.45468 0.0551 0.0
C506 C 0.15976 0.46753 0.04763 0.0
C507 C 0.18296 0.46258 0.05643 0.0
H508 H 0.27643 0.47133 0.05019 0.0
H509 H 0.32638 0.48 0.03543 0.0
H510 H 0.34138 0.43182 0.08099 0.0
H511 H 0.29214 0.42312 0.0957 0.0
H512 H 0.24663 0.3981 0.12974 0.0
H513 H 0.23303 0.37357 0.16045 0.0
H514 H 0.15145 0.38735 0.16325 0.0
H515 H 0.16439 0.41106 0.13229 0.0
H516 H 0.13766 0.41843 0.09305 0.0
H517 H 0.09767 0.42686 0.07768 0.0
H518 H 0.166 0.4811 0.03488 0.0
H519 H 0.20664 0.47271 0.05031 0.0
N520 N 0.22801 0.44615 0.07434 0.0
N521 N 0.24217 0.42738 0.10072 0.0
N522 N 0.19335 0.42687 0.1002 0.0
C523 C 0.24936 0.44009 0.08328 0.0
C524 C 0.21434 0.4208 0.10934 0.0
C525 C 0.19981 0.43946 0.08274 0.0
C526 C 0.27994 0.44633 0.07414 0.0
C527 C 0.29037 0.46258 0.05707 0.0
C528 C 0.31902 0.46768 0.04863 0.0
C529 C 0.33753 0.45624 0.05695 0.0
C530 C 0.32735 0.44047 0.07409 0.0
C531 C 0.29908 0.43562 0.08256 0.0
C532 C 0.20666 0.40666 0.12841 0.0
C533 C 0.22588 0.39611 0.1369 0.0
C534 C 0.21824 0.38225 0.15464 0.0
C535 C 0.19138 0.37884 0.16449 0.0
C536 C 0.17226 0.38951 0.15605 0.0
C537 C 0.17976 0.40319 0.13827 0.0
C538 C 0.17562 0.44494 0.07301 0.0
C539 C 0.14445 0.43224 0.08039 0.0
C540 C 0.35765 0.90107 0.28676 0.0
C541 C 0.34729 0.88335 0.30324 0.0
C542 C 0.36633 0.87191 0.31085 0.0
C543 C 0.39528 0.8784 0.30222 0.0
H544 H 0.47551 0.86085 0.30303 0.0
H545 H 0.51488 0.84977 0.31769 0.0
H546 H 0.59044 0.92402 0.28595 0.0
H547 H 0.55135 0.93475 0.27095 0.0
H548 H 0.52428 0.94177 0.22802 0.0
H549 H 0.53564 0.96667 0.19732 0.0
H550 H 0.44906 0.97196 0.20076 0.0
H551 H 0.43718 0.94649 0.23112 0.0
H552 H 0.39327 0.92116 0.26544 0.0
H553 H 0.34342 0.91004 0.28048 0.0
H554 H 0.35911 0.85843 0.32364 0.0
H555 H 0.40949 0.86946 0.30853 0.0
N556 N 0.4579 0.89721 0.28478 0.0
N557 N 0.49342 0.91976 0.25948 0.0
N558 N 0.44407 0.91835 0.2595 0.0
C559 C 0.48647 0.90522 0.27642 0.0
C560 C 0.47227 0.92627 0.25085 0.0
C561 C 0.43658 0.90388 0.27643 0.0
C562 C 0.51019 0.89866 0.28575 0.0
C563 C 0.50052 0.87488 0.2992 0.0
C564 C 0.52298 0.86846 0.30757 0.0
C565 C 0.55566 0.88618 0.30302 0.0
C566 C 0.56541 0.91019 0.28981 0.0
C567 C 0.54295 0.91618 0.28116 0.0
C568 C 0.47968 0.94185 0.23215 0.0
C569 C 0.50754 0.94809 0.22224 0.0
C570 C 0.51413 0.96245 0.20461 0.0
C571 C 0.49303 0.97091 0.19638 0.0
C572 C 0.4654 0.965 0.20638 0.0
C573 C 0.45875 0.95058 0.22394 0.0
C574 C 0.40568 0.89627 0.28571 0.0
C575 C 0.38628 0.90733 0.27809 0.0
C576 C 0.10992 0.45531 0.28017 0.0
C577 C 0.13021 0.46524 0.29584 0.0
C578 C 0.14076 0.49511 0.30302 0.0
C579 C 0.13145 0.51477 0.29465 0.0
H580 H 0.13047 0.59402 0.30474 0.0
H581 H 0.14446 0.64279 0.32033 0.0
H582 H 0.10194 0.66745 0.27521 0.0
H583 H 0.08822 0.61887 0.25932 0.0
H584 H 0.05857 0.57419 0.22574 0.0
H585 H 0.03232 0.56304 0.19545 0.0
H586 H 0.03299 0.47647 0.19286 0.0
H587 H 0.059 0.48722 0.22342 0.0
H588 H 0.08504 0.46668 0.25966 0.0
H589 H 0.10081 0.43211 0.27459 0.0
H590 H 0.15651 0.50342 0.31503 0.0
H591 H 0.14025 0.53772 0.30055 0.0
N592 N 0.10856 0.55312 0.27878 0.0
N593 N 0.08476 0.56576 0.25441 0.0
N594 N 0.08608 0.51911 0.25341 0.0
C595 C 0.1002 0.57302 0.27108 0.0
C596 C 0.07758 0.53888 0.24545 0.0
C597 C 0.10164 0.52616 0.27011 0.0
C598 C 0.10816 0.60243 0.28074 0.0
C599 C 0.12395 0.60971 0.2981 0.0
C600 C 0.13181 0.63755 0.30714 0.0
C601 C 0.124 0.65868 0.29904 0.0
C602 C 0.10828 0.65153 0.28171 0.0
C603 C 0.10036 0.62366 0.27267 0.0
C604 C 0.06113 0.53169 0.22707 0.0
C605 C 0.05323 0.55274 0.2188 0.0
C606 C 0.03835 0.54651 0.20135 0.0
C607 C 0.03108 0.51914 0.1917 0.0
C608 C 0.03842 0.49779 0.20002 0.0
C609 C 0.05339 0.50403 0.2175 0.0
C610 C 0.11137 0.50504 0.27885 0.0
C611 C 0.10072 0.47506 0.27169 0.0
C612 C 0.55678 0.64154 0.29216 0.0
C613 C 0.54547 0.65384 0.30598 0.0
C614 C 0.51283 0.63701 0.3109 0.0
C615 C 0.49209 0.60865 0.30218 0.0
H616 H 0.40563 0.52482 0.30945 0.0
H617 H 0.35637 0.48537 0.32458 0.0
H618 H 0.34294 0.42033 0.28075 0.0
H619 H 0.39203 0.45936 0.26561 0.0
H620 H 0.44132 0.48085 0.23108 0.0
H621 H 0.45772 0.47191 0.20041 0.0
H622 H 0.53431 0.56746 0.19883 0.0
H623 H 0.51874 0.57626 0.22952 0.0
H624 H 0.5456 0.60498 0.27258 0.0
H625 H 0.58182 0.65366 0.28816 0.0
H626 H 0.50307 0.64611 0.32111 0.0
H627 H 0.46703 0.59643 0.30615 0.0
N628 N 0.45326 0.54608 0.28616 0.0
N629 N 0.4418 0.51348 0.26007 0.0
N630 N 0.48936 0.56163 0.26108 0.0
C631 C 0.43336 0.51894 0.27724 0.0
C632 C 0.46971 0.53483 0.25183 0.0
C633 C 0.48138 0.56746 0.27821 0.0
C634 C 0.40303 0.49531 0.2863 0.0
C635 C 0.39226 0.5021 0.30301 0.0
C636 C 0.364 0.4796 0.31169 0.0
C637 C 0.34613 0.44972 0.30397 0.0
C638 C 0.35661 0.44302 0.28719 0.0
C639 C 0.38466 0.46551 0.27846 0.0
C640 C 0.47887 0.52921 0.23295 0.0
C641 C 0.46171 0.49995 0.22423 0.0
C642 C 0.47103 0.49483 0.20662 0.0
C643 C 0.49767 0.51881 0.19731 0.0
C644 C 0.51427 0.54821 0.20583 0.0
C645 C 0.50515 0.55329 0.22344 0.0
C646 C 0.50338 0.59681 0.28808 0.0
C647 C 0.536 0.61356 0.28324 0.0
Eu648 Eu 0.49449 0.98174 0.99098 0.0
C649 C 0.57262 0.09573 0.03296 0.0
C650 C 0.62508 0.10028 0.0328 0.0
C651 C 0.62042 0.14632 0.02827 0.0
C652 C 0.59135 0.08188 0.03407 0.0
C653 C 0.58715 0.12833 0.03076 0.0
C654 C 0.63936 0.13231 0.02926 0.0
C655 C 0.53556 0.12372 0.0361 0.0
N656 N 0.5405 0.07777 0.03538 0.0
C657 C 0.52238 0.09164 0.03835 0.0
C658 C 0.56797 0.14208 0.03181 0.0
Eu659 Eu 0.51948 0.02274 0.03634 0.0
N660 N 0.57685 0.05077 0.03737 0.0
C661 C 0.59516 0.03754 0.04167 0.0
C662 C 0.64359 0.08615 0.03564 0.0
C663 C 0.62857 0.05482 0.04054 0.0
H664 H 0.49746 0.07806 0.04232 0.0
H665 H 0.64274 0.04393 0.04354 0.0
H666 H 0.66513 0.14661 0.02787 0.0
H667 H 0.52074 0.13426 0.03784 0.0
H668 H 0.58464 0.01375 0.04621 0.0
H669 H 0.37146 0.95931 0.99337 0.0
H670 H 0.66949 0.09946 0.03475 0.0
H671 H 0.52045 0.93365 0.97725 0.0
H672 H 0.43035 0.99136 0.99261 0.0
H673 H 0.49895 0.87717 0.97245 0.0
H674 H 0.63186 0.17126 0.0262 0.0
H675 H 0.34548 0.90189 0.99218 0.0
H676 H 0.35119 0.85438 0.98903 0.0
H677 H 0.5782 0.16699 0.03018 0.0
H678 H 0.38598 0.83194 0.98356 0.0
N679 N 0.43782 0.95266 0.9912 0.0
C680 C 0.41939 0.96643 0.99202 0.0
C681 C 0.37138 0.9159 0.99175 0.0
C682 C 0.3904 0.90202 0.99006 0.0
C683 C 0.38595 0.94829 0.9924 0.0
C684 C 0.42399 0.92133 0.98959 0.0
H685 H 0.44109 0.84028 0.97706 0.0
N686 N 0.47553 0.92826 0.98538 0.0
C687 C 0.48311 0.88568 0.97663 0.0
C688 C 0.4435 0.9087 0.98672 0.0
C689 C 0.49519 0.91754 0.97935 0.0
C690 C 0.45046 0.86494 0.97928 0.0
C691 C 0.43007 0.87642 0.98397 0.0
O692 O 0.51881 0.98657 0.96426 0.0
O693 O 0.53307 0.02275 1.00632 0.0
O694 O 0.48673 0.03674 0.02138 0.0
O695 O 0.4919 0.02594 0.99048 0.0
O696 O 0.5469 0.99643 0.99033 0.0
O697 O 0.47806 0.99329 0.96528 0.0
O698 O 0.49692 0.03194 0.06023 0.0
O699 O 0.47769 0.98785 0.01901 0.0
O700 O 0.50587 0.95188 1.01006 0.0
O701 O 0.53385 0.98574 0.03471 0.0
O702 O 0.4812 0.97566 0.04628 0.0
O703 O 0.53003 0.01496 0.06483 0.0
C704 C 0.55702 0.02122 1.00036 0.0
C705 C 0.48831 0.97622 0.93661 0.0
C706 C 0.49026 0.97754 0.90239 0.0
C707 C 0.50046 0.99279 0.91977 0.0
C708 C 0.46735 0.94562 0.90218 0.0
C709 C 0.46559 0.94441 0.93601 0.0
C710 C 0.45519 0.92925 0.91887 0.0
C711 C 0.48539 0.04113 1.00324 0.0
C712 C 0.49948 0.99237 0.95465 0.0
C713 C 0.39673 0.85686 0.98536 0.0
C714 C 0.37692 0.86964 0.98843 0.0
C715 C 0.46464 0.96665 0.03124 0.0
C716 C 0.52105 0.03982 0.09047 0.0
C717 C 0.51372 0.02244 0.10716 0.0
C718 C 0.52276 0.03738 0.12468 0.0
C719 C 0.53979 0.07012 0.12511 0.0
C720 C 0.53803 0.07237 0.09126 0.0
C721 C 0.54735 0.08739 0.10854 0.0
C722 C 0.52345 0.95937 0.02543 0.0
C723 C 0.51085 0.02316 0.07253 0.0
H724 H 0.51803 0.0174 0.9202 0.0
H725 H 0.45849 0.93338 0.88908 0.0
H726 H 0.4558 0.93136 0.94876 0.0
H727 H 0.43752 0.90472 0.91851 0.0
H728 H 0.50128 0.99726 0.10642 0.0
H729 H 0.54699 0.08243 0.13829 0.0
H730 H 0.5441 0.08609 0.07858 0.0
H731 H 0.56042 0.11256 0.1091 0.0
Eu732 Eu 0.03066 0.50768 0.98976 0.0
C733 C 0.90264 0.45887 0.03383 0.0
C734 C 0.89048 0.50023 0.02941 0.0
C735 C 0.84716 0.44688 0.03289 0.0
C736 C 0.91291 0.48993 0.03088 0.0
C737 C 0.86968 0.43711 0.03552 0.0
C738 C 0.85755 0.47843 0.02981 0.0
C739 C 0.88395 0.39871 0.04472 0.0
N740 N 0.92502 0.45037 0.03655 0.0
C741 C 0.91632 0.42129 0.04303 0.0
C742 C 0.86047 0.40649 0.04057 0.0
Eu743 Eu 0.97937 0.48893 0.03208 0.0
N744 N 0.94488 0.51032 0.03064 0.0
C745 C 0.95598 0.54163 0.03075 0.0
C746 C 0.90182 0.53221 0.0282 0.0
C747 C 0.9347 0.55301 0.02929 0.0
H748 H 0.93452 0.41541 0.04642 0.0
H749 H 0.94371 0.57783 0.02883 0.0
H750 H 0.83997 0.48584 0.0284 0.0
H751 H 0.87714 0.37541 0.04927 0.0
H752 H 0.9813 0.55808 0.03136 0.0
H753 H 0.06737 0.41957 0.99279 0.0
H754 H 0.8854 0.54108 0.02699 0.0
H755 H 0.07505 0.58207 0.97666 0.0
H756 H 0.02937 0.43885 0.99041 0.0
H757 H 0.1323 0.62226 0.97369 0.0
H758 H 0.82171 0.43044 0.03386 0.0
H759 H 0.1256 0.4567 0.99448 0.0
H760 H 0.17068 0.51209 0.99305 0.0
H761 H 0.8354 0.38906 0.04202 0.0
H762 H 0.18845 0.56745 0.98784 0.0
N763 N 0.06549 0.48671 0.99103 0.0
C764 C 0.05465 0.45546 0.99094 0.0
C765 C 0.109 0.46537 0.99332 0.0
C766 C 0.12006 0.49729 0.99214 0.0
C767 C 0.07617 0.44435 0.99232 0.0
C768 C 0.09741 0.50733 0.99074 0.0
H769 H 0.17432 0.60869 0.98022 0.0
N770 N 0.08486 0.54674 0.98542 0.0
C771 C 0.12566 0.59881 0.97783 0.0
C772 C 0.10743 0.53839 0.98792 0.0
C773 C 0.09334 0.57605 0.97946 0.0
C774 C 0.1493 0.59107 0.98158 0.0
C775 C 0.14032 0.56039 0.9863 0.0
O776 O 0.02766 0.52562 0.9624 0.0
O777 O 0.98581 0.50308 1.00203 0.0
O778 O 0.95218 0.44873 0.01229 0.0
O779 O 0.99124 0.4566 0.98995 0.0
O780 O 0.01271 0.54159 0.98533 0.0
O781 O 0.02067 0.47916 0.96473 0.0
O782 O 0.98247 0.47127 0.05951 0.0
O783 O 0.02403 0.49334 0.01975 0.0
O784 O 0.05839 0.54705 1.00998 0.0
O785 O 0.01904 0.53991 0.03185 0.0
O786 O 0.99768 0.45527 0.0368 0.0
O787 O 0.98927 0.51764 0.05698 0.0
C788 C 0.98654 0.52668 0.99479 0.0
C789 C 0.04199 0.5061 0.93643 0.0
C790 C 0.04482 0.5071 0.90238 0.0
C791 C 0.02718 0.50191 0.91897 0.0
C792 C 0.07754 0.51636 0.90354 0.0
C793 C 0.07464 0.51538 0.93734 0.0
C794 C 0.0923 0.5205 0.92094 0.0
C795 C 0.96277 0.43969 0.99791 0.0
C796 C 0.02301 0.50086 0.95347 0.0
C797 C 0.16305 0.55083 0.98877 0.0
C798 C 0.15293 0.51931 0.99171 0.0
C799 C 0.02364 0.46998 0.02712 0.0
C800 C 0.96859 0.49126 0.08547 0.0
C801 C 0.98429 0.49752 0.10274 0.0
C802 C 0.96725 0.49319 0.11947 0.0
C803 C 0.93409 0.48197 0.11868 0.0
C804 C 0.93558 0.48045 0.08487 0.0
C805 C 0.91842 0.47572 0.10144 0.0
C806 C 0.04795 0.55628 0.02434 0.0
C807 C 0.98718 0.49615 0.06833 0.0
H808 H 1.00195 0.49484 0.91829 0.0
H809 H 0.09156 0.51992 0.891 0.0
H810 H 0.08639 0.51856 0.95068 0.0
H811 H 0.11746 0.52754 0.9217 0.0
H812 H 0.00975 0.50552 0.10314 0.0
H813 H 0.92042 0.47844 0.13136 0.0
H814 H 0.92315 0.47568 0.07166 0.0
H815 H 0.89293 0.46731 0.10094 0.0
Eu816 Eu 0.52327 0.49136 0.03678 0.0
C817 C 0.45178 0.54369 0.98847 0.0
C818 C 0.39553 0.50672 0.99305 0.0
C819 C 0.41273 0.56109 0.98711 0.0
C820 C 0.42775 0.5138 0.99229 0.0
C821 C 0.44451 0.56755 0.98529 0.0
C822 C 0.38825 0.53069 0.991 0.0
C823 C 0.49985 0.60128 0.97658 0.0
N824 N 0.48204 0.54892 0.9865 0.0
C825 C 0.50571 0.57673 0.97972 0.0
C826 C 0.46921 0.59683 0.97968 0.0
Eu827 Eu 0.49115 0.50726 0.99355 0.0
N828 N 0.43566 0.49123 0.99393 0.0
C829 C 0.4122 0.46068 0.99462 0.0
C830 C 0.37153 0.47562 0.99512 0.0
C831 C 0.37989 0.45244 0.99554 0.0
H832 H 0.52933 0.58018 0.9771 0.0
H833 H 0.3615 0.42823 0.99671 0.0
H834 H 0.36369 0.52578 0.99179 0.0
H835 H 0.51891 0.62354 0.9717 0.0
H836 H 0.41824 0.44253 0.99515 0.0
H837 H 0.65143 0.57592 0.03268 0.0
H838 H 0.3465 0.4692 0.99584 0.0
H839 H 0.48815 0.41752 0.05123 0.0
H840 H 0.59392 0.5586 0.03471 0.0
H841 H 0.5024 0.37675 0.05723 0.0
H842 H 0.4067 0.57918 0.98495 0.0
H843 H 0.66961 0.53727 0.0332 0.0
H844 H 0.65578 0.48158 0.03716 0.0
H845 H 0.46464 0.6158 0.9771 0.0
H846 H 0.61521 0.4273 0.04414 0.0
N847 N 0.57927 0.5104 0.03577 0.0
C848 C 0.60137 0.54141 0.03503 0.0
C849 C 0.64425 0.52949 0.0341 0.0
C850 C 0.62164 0.49794 0.03623 0.0
C851 C 0.63409 0.55137 0.03386 0.0
C852 C 0.58891 0.48904 0.03719 0.0
H853 H 0.55815 0.38825 0.05233 0.0
N854 N 0.53516 0.45127 0.04269 0.0
C855 C 0.52052 0.39959 0.05252 0.0
C856 C 0.56613 0.45849 0.04083 0.0
C857 C 0.51254 0.42267 0.04913 0.0
C858 C 0.552 0.40616 0.04969 0.0
C859 C 0.57536 0.43601 0.044 0.0
O860 O 0.50132 0.47685 0.06439 0.0
O861 O 0.48306 0.49501 0.02385 0.0
O862 O 0.50288 0.54716 0.01311 0.0
O863 O 0.53747 0.54254 0.0343 0.0
O864 O 0.47048 0.45835 0.04215 0.0
O865 O 0.54441 0.52137 0.06119 0.0
O866 O 0.51429 0.51896 0.96614 0.0
O867 O 0.53165 0.50375 1.00645 0.0
O868 O 0.51048 0.45134 0.01695 0.0
O869 O 0.47386 0.45553 0.99752 0.0
O870 O 0.54386 0.54102 0.98879 0.0
O871 O 0.46923 0.47636 0.96962 0.0
C872 C 0.45958 0.47218 0.03174 0.0
C873 C 0.53582 0.49573 0.09035 0.0
C874 C 0.53732 0.4957 0.12454 0.0
C875 C 0.52638 0.50194 0.10769 0.0
C876 C 0.55724 0.48249 0.12368 0.0
C877 C 0.55627 0.48324 0.08989 0.0
C878 C 0.56677 0.47654 0.10648 0.0
C879 C 0.52447 0.55795 0.02662 0.0
C880 C 0.52341 0.50143 0.07288 0.0
C881 C 0.6077 0.44435 0.04206 0.0
C882 C 0.6308 0.47526 0.0381 0.0
C883 C 0.5551 0.52715 0.99888 0.0
C884 C 0.48047 0.5007 0.93995 0.0
C885 C 0.49301 0.49646 0.92319 0.0
C886 C 0.48351 0.50264 0.90584 0.0
C887 C 0.46158 0.51354 0.90559 0.0
C888 C 0.4585 0.51142 0.93939 0.0
C889 C 0.44917 0.51784 0.92227 0.0
C890 C 0.48727 0.43986 1.00435 0.0
C891 C 0.49131 0.49476 0.95788 0.0
H892 H 0.51076 0.51183 0.10806 0.0
H893 H 0.56525 0.47648 0.13633 0.0
H894 H 0.56392 0.47846 0.07674 0.0
H895 H 0.58223 0.46652 0.10601 0.0
H896 H 0.51046 0.48874 0.92369 0.0
H897 H 0.45372 0.51837 0.89247 0.0
H898 H 0.44867 0.5149 0.95216 0.0
H899 H 0.43222 0.52613 0.92191 0.0
Eu900 Eu 0.16016 0.31246 0.32444 0.0
C901 C 0.23507 0.43494 0.37285 0.0
C902 C 0.29063 0.44873 0.36975 0.0
C903 C 0.27699 0.4892 0.37475 0.0
C904 C 0.25774 0.42621 0.36989 0.0
C905 C 0.2444 0.46645 0.37576 0.0
C906 C 0.30009 0.48034 0.37172 0.0
C907 C 0.18898 0.45028 0.38211 0.0
N908 N 0.20392 0.41232 0.37394 0.0
C909 C 0.181 0.41935 0.3792 0.0
C910 C 0.22078 0.47401 0.38014 0.0
Eu911 Eu 0.19156 0.36059 0.36765 0.0
N912 N 0.24772 0.39547 0.36824 0.0
C913 C 0.26948 0.3855 0.36797 0.0
C914 C 0.31301 0.4387 0.36822 0.0
C915 C 0.30237 0.40688 0.36765 0.0
H916 H 0.15635 0.40115 0.3807 0.0
H917 H 0.31945 0.39879 0.3668 0.0
H918 H 0.32521 0.49802 0.37145 0.0
H919 H 0.1706 0.45579 0.38585 0.0
H920 H 0.26161 0.36108 0.36717 0.0
H921 H 0.03401 0.28062 0.32153 0.0
H922 H 0.33849 0.45524 0.36797 0.0
H923 H 0.193 0.26798 0.31619 0.0
H924 H 0.09237 0.31629 0.32184 0.0
H925 H 0.176 0.21213 0.31331 0.0
H926 H 0.28463 0.51357 0.37676 0.0
H927 H 0.01228 0.22368 0.32202 0.0
H928 H 0.02273 0.17883 0.32121 0.0
H929 H 0.22694 0.49794 0.38248 0.0
H930 H 0.06134 0.16017 0.31885 0.0
N931 N 0.10379 0.28004 0.32296 0.0
C932 C 0.08331 0.29154 0.32195 0.0
C933 C 0.03798 0.23925 0.32211 0.0
C934 C 0.05914 0.22763 0.32201 0.0
C935 C 0.05015 0.27136 0.32178 0.0
C936 C 0.09237 0.24892 0.32226 0.0
H937 H 0.11852 0.17242 0.31563 0.0
N938 N 0.1457 0.25971 0.32046 0.0
C939 C 0.15832 0.2192 0.31554 0.0
C940 C 0.11401 0.23842 0.32098 0.0
C941 C 0.16786 0.25076 0.3171 0.0
C942 C 0.12586 0.19685 0.3169 0.0
C943 C 0.10318 0.20635 0.31938 0.0
O944 O 0.18397 0.31641 0.29774 0.0
O945 O 0.20111 0.35354 0.33798 0.0
O946 O 0.18411 0.39036 0.34651 0.0
O947 O 0.14972 0.35255 0.32502 0.0
O948 O 0.21236 0.32612 0.32147 0.0
O949 O 0.14414 0.32494 0.29896 0.0
O950 O 0.16748 0.35227 0.39475 0.0
O951 O 0.15055 0.32042 0.35368 0.0
O952 O 0.16427 0.28293 0.3472 0.0
O953 O 0.20411 0.32194 0.36542 0.0
O954 O 0.13921 0.34663 0.37102 0.0
O955 O 0.20918 0.34709 0.39206 0.0
C956 C 0.22409 0.35114 0.33138 0.0
C957 C 0.15397 0.30802 0.27005 0.0
C958 C 0.15388 0.31175 0.2359 0.0
C959 C 0.16366 0.326 0.25359 0.0
C960 C 0.13388 0.27923 0.2351 0.0
C961 C 0.13407 0.2757 0.26888 0.0
C962 C 0.12407 0.26143 0.25146 0.0
C963 C 0.16425 0.38111 0.33206 0.0
C964 C 0.16522 0.32333 0.28829 0.0
C965 C 0.07014 0.18493 0.31988 0.0
C966 C 0.04816 0.19556 0.32122 0.0
C967 C 0.12749 0.32259 0.36029 0.0
C968 C 0.19859 0.36052 0.42189 0.0
C969 C 0.18678 0.34215 0.43815 0.0
C970 C 0.1969 0.35557 0.45602 0.0
C971 C 0.21889 0.38766 0.45726 0.0
C972 C 0.22057 0.39239 0.42351 0.0
C973 C 0.23062 0.40584 0.44113 0.0
C974 C 0.18666 0.29242 0.36026 0.0
C975 C 0.18753 0.34621 0.40337 0.0
H976 H 0.17856 0.35105 0.2546 0.0
H977 H 0.1261 0.26745 0.22178 0.0
H978 H 0.12638 0.26155 0.2814 0.0
H979 H 0.10878 0.23644 0.25062 0.0
H980 H 0.16942 0.31759 0.43688 0.0
H981 H 0.22729 0.39867 0.47074 0.0
H982 H 0.22989 0.40684 0.41118 0.0
H983 H 0.24762 0.43048 0.4423 0.0
Eu984 Eu 0.69924 0.84274 0.32479 0.0
C985 C 0.60897 0.86351 0.37211 0.0
C986 C 0.6352 0.90647 0.39378 0.0
C987 C 0.58517 0.89559 0.3791 0.0
C988 C 0.63436 0.8816 0.38377 0.0
C989 C 0.58358 0.86974 0.37005 0.0
C990 C 0.61095 0.91393 0.39096 0.0
C991 C 0.55554 0.8227 0.35184 0.0
N992 N 0.60814 0.83865 0.36367 0.0
C993 C 0.58141 0.81762 0.35419 0.0
C994 C 0.5569 0.84921 0.35947 0.0
Eu995 Eu 0.65313 0.83195 0.36789 0.0
N996 N 0.65723 0.87362 0.38625 0.0
C997 C 0.67969 0.88734 0.40004 0.0
C998 C 0.6597 0.9223 0.40684 0.0
C999 C 0.68169 0.91229 0.41023 0.0
H1000 H 0.58015 0.7972 0.34804 0.0
H1001 H 0.70016 0.92378 0.42068 0.0
H1002 H 0.61138 0.93321 0.39833 0.0
H1003 H 0.53473 0.80632 0.34394 0.0
H1004 H 0.69675 0.87968 0.40268 0.0
H1005 H 0.74489 0.76228 0.33246 0.0
H1006 H 0.6612 0.94154 0.41481 0.0
H1007 H 0.73841 0.91643 0.30952 0.0
H1008 H 0.70377 0.7777 0.32961 0.0
H1009 H 0.79412 0.95857 0.30412 0.0
H1010 H 0.56613 0.90101 0.37747 0.0
H1011 H 0.80236 0.80226 0.33152 0.0
H1012 H 0.84444 0.85832 0.32694 0.0
H1013 H 0.53692 0.85319 0.35751 0.0
H1014 H 0.85789 0.91186 0.31913 0.0
N1015 N 0.73745 0.8261 0.32742 0.0
C1016 C 0.7287 0.79543 0.32909 0.0
C1017 C 0.78438 0.80919 0.33021 0.0
C1018 C 0.79317 0.84038 0.32746 0.0
C1019 C 0.75198 0.78655 0.33069 0.0
C1020 C 0.76879 0.84815 0.32594 0.0
H1021 H 0.83925 0.94929 0.31015 0.0
N1022 N 0.75206 0.88423 0.3193 0.0
C1023 C 0.78949 0.93614 0.30919 0.0
C1024 C 0.77636 0.8782 0.32172 0.0
C1025 C 0.758 0.91227 0.31227 0.0
C1026 C 0.81489 0.93082 0.31264 0.0
C1027 C 0.8085 0.90141 0.31867 0.0
O1028 O 0.68875 0.85319 0.29681 0.0
O1029 O 0.65424 0.83868 0.33701 0.0
O1030 O 0.62549 0.78867 0.34985 0.0
O1031 O 0.66215 0.79167 0.32752 0.0
O1032 O 0.68098 0.87596 0.31913 0.0
O1033 O 0.69488 0.81349 0.30089 0.0
O1034 O 0.61122 0.79524 0.38239 0.0
O1035 O 0.68895 0.82256 0.35349 0.0
O1036 O 0.7277 0.88393 0.34418 0.0
O1037 O 0.68809 0.88362 0.36328 0.0
O1038 O 0.7002 0.84127 0.3803 0.0
O1039 O 0.65817 0.8112 0.39373 0.0
C1040 C 0.65544 0.86217 0.32917 0.0
C1041 C 0.7103 0.83898 0.27174 0.0
C1042 C 0.71342 0.84204 0.23772 0.0
C1043 C 0.69537 0.83459 0.25431 0.0
C1044 C 0.74679 0.85469 0.23886 0.0
C1045 C 0.74356 0.85128 0.27261 0.0
C1046 C 0.7617 0.85924 0.25623 0.0
C1047 C 0.63429 0.77652 0.33621 0.0
C1048 C 0.69079 0.83077 0.2888 0.0
C1049 C 0.83302 0.89424 0.32114 0.0
C1050 C 0.82537 0.86376 0.32557 0.0
C1051 C 0.7097 0.83149 0.36641 0.0
C1052 C 0.61581 0.79642 0.41557 0.0
C1053 C 0.63675 0.80736 0.43106 0.0
C1054 C 0.6252 0.80802 0.44908 0.0
C1055 C 0.59245 0.79799 0.45132 0.0
C1056 C 0.58317 0.78632 0.41833 0.0
C1057 C 0.5717 0.7873 0.43606 0.0
C1058 C 0.71747 0.89745 0.35618 0.0
C1059 C 0.62755 0.79462 0.39669 0.0
H1060 H 0.66972 0.82548 0.25368 0.0
H1061 H 0.76124 0.86056 0.22631 0.0
H1062 H 0.75547 0.85464 0.28589 0.0
H1063 H 0.78737 0.86875 0.25698 0.0
H1064 H 0.66203 0.81554 0.42909 0.0
H1065 H 0.58275 0.79797 0.46498 0.0
H1066 H 0.56643 0.77755 0.40678 0.0
H1067 H 0.54651 0.77946 0.43802 0.0
Eu1068 Eu 0.19156 0.82639 0.36807 0.0
C1069 C 0.11727 0.87563 0.32109 0.0
C1070 C 0.06177 0.83461 0.32266 0.0
C1071 C 0.07478 0.88854 0.32002 0.0
C1072 C 0.09476 0.8444 0.32272 0.0
C1073 C 0.10754 0.89802 0.3193 0.0
C1074 C 0.05194 0.85689 0.32172 0.0
C1075 C 0.16313 0.9371 0.31476 0.0
N1076 N 0.14868 0.884 0.32037 0.0
C1077 C 0.17156 0.91402 0.31654 0.0
C1078 C 0.13101 0.92914 0.31638 0.0
Eu1079 Eu 0.16125 0.84401 0.32465 0.0
N1080 N 0.10507 0.82348 0.32353 0.0
C1081 C 0.08363 0.79229 0.32289 0.0
C1082 C 0.03967 0.80269 0.32311 0.0
C1083 C 0.05067 0.78145 0.32293 0.0
H1084 H 0.19644 0.92025 0.31543 0.0
H1085 H 0.03378 0.7567 0.32296 0.0
H1086 H 0.02671 0.84983 0.32186 0.0
H1087 H 0.18139 0.961 0.31219 0.0
H1088 H 0.09172 0.77557 0.32291 0.0
H1089 H 0.32029 0.90915 0.36504 0.0
H1090 H 0.01413 0.79422 0.32317 0.0
H1091 H 0.1558 0.75347 0.38421 0.0
H1092 H 0.26291 0.89262 0.36646 0.0
H1093 H 0.16835 0.71142 0.38955 0.0
H1094 H 0.06684 0.90542 0.31885 0.0
H1095 H 0.33753 0.86979 0.36582 0.0
H1096 H 0.32253 0.81368 0.36967 0.0
H1097 H 0.12452 0.94704 0.31495 0.0
H1098 H 0.28099 0.75958 0.37633 0.0
N1099 N 0.24747 0.84437 0.36776 0.0
C1100 C 0.27 0.87522 0.36709 0.0
C1101 C 0.31226 0.86242 0.36656 0.0
C1102 C 0.28919 0.83099 0.36859 0.0
C1103 C 0.30263 0.8847 0.36619 0.0
C1104 C 0.25661 0.82269 0.36938 0.0
H1105 H 0.22342 0.72128 0.38414 0.0
N1106 N 0.20276 0.78605 0.375 0.0
C1107 C 0.18685 0.73403 0.38475 0.0
C1108 C 0.23341 0.79243 0.37306 0.0
C1109 C 0.17979 0.75782 0.38168 0.0
C1110 C 0.21794 0.73966 0.38164 0.0
C1111 C 0.24187 0.76938 0.37612 0.0
O1112 O 0.16807 0.81313 0.39539 0.0
O1113 O 0.15126 0.82857 0.35427 0.0
O1114 O 0.1665 0.8785 0.34684 0.0
O1115 O 0.20601 0.87769 0.36506 0.0
O1116 O 0.13868 0.79176 0.37222 0.0
O1117 O 0.21154 0.85725 0.39219 0.0
O1118 O 0.18485 0.86271 0.29788 0.0
O1119 O 0.20135 0.84046 0.33794 0.0
O1120 O 0.17922 0.7862 0.34856 0.0
O1121 O 0.14833 0.79315 0.32564 0.0
O1122 O 0.21407 0.87911 0.32142 0.0
O1123 O 0.14395 0.81608 0.2992 0.0
C1124 C 0.12763 0.80491 0.36134 0.0
C1125 C 0.20134 0.83293 0.42181 0.0
C1126 C 0.19843 0.83103 0.45594 0.0
C1127 C 0.18831 0.83653 0.43859 0.0
C1128 C 0.22213 0.82236 0.4562 0.0
C1129 C 0.22475 0.82402 0.42239 0.0
C1130 C 0.23511 0.81885 0.43953 0.0
C1131 C 0.18922 0.89086 0.35965 0.0
C1132 C 0.18987 0.83794 0.40381 0.0
C1133 C 0.27404 0.77705 0.37427 0.0
C1134 C 0.29768 0.80784 0.37049 0.0
C1135 C 0.22498 0.86441 0.33102 0.0
C1136 C 0.15329 0.84365 0.27072 0.0
C1137 C 0.16394 0.83781 0.25371 0.0
C1138 C 0.15383 0.84393 0.23654 0.0
C1139 C 0.1326 0.85569 0.23674 0.0
C1140 C 0.13217 0.85537 0.27059 0.0
C1141 C 0.12188 0.86131 0.25365 0.0
C1142 C 0.15972 0.77681 0.33397 0.0
C1143 C 0.16502 0.83806 0.28845 0.0
H1144 H 0.17005 0.84321 0.43814 0.0
H1145 H 0.23092 0.81864 0.46932 0.0
H1146 H 0.23503 0.82114 0.40963 0.0
H1147 H 0.25332 0.81215 0.43991 0.0
H1148 H 0.17981 0.82821 0.25389 0.0
H1149 H 0.12449 0.86079 0.2238 0.0
H1150 H 0.12373 0.85998 0.28353 0.0
H1151 H 0.10562 0.87043 0.25363 0.0
Eu1152 Eu 0.8221 0.64286 0.65535 0.0
C1153 C 0.89819 0.76292 0.70399 0.0
C1154 C 0.95329 0.77461 0.70209 0.0
C1155 C 0.94151 0.81659 0.70586 0.0
C1156 C 0.92015 0.75296 0.70189 0.0
C1157 C 0.9086 0.79477 0.70644 0.0
C1158 C 0.96382 0.80652 0.70365 0.0
C1159 C 0.8533 0.78089 0.71108 0.0
N1160 N 0.86662 0.74128 0.70448 0.0
C1161 C 0.84419 0.74957 0.70862 0.0
C1162 C 0.88563 0.80364 0.70979 0.0
Eu1163 Eu 0.8528 0.68899 0.69918 0.0
N1164 N 0.90916 0.72196 0.7005 0.0
C1165 C 0.93006 0.7109 0.70073 0.0
C1166 C 0.97484 0.76349 0.70116 0.0
C1167 C 0.96315 0.73146 0.70078 0.0
H1168 H 0.81915 0.73202 0.70948 0.0
H1169 H 0.97959 0.72257 0.7004 0.0
H1170 H 0.98917 0.82353 0.70362 0.0
H1171 H 0.83541 0.78745 0.71394 0.0
H1172 H 0.92145 0.68625 0.70028 0.0
H1173 H 0.69438 0.60572 0.65854 0.0
H1174 H 1.00047 0.77936 0.70118 0.0
H1175 H 0.85488 0.60225 0.63883 0.0
H1176 H 0.75215 0.64318 0.65662 0.0
H1177 H 0.83998 0.54734 0.63346 0.0
H1178 H 0.94998 0.8412 0.7075 0.0
H1179 H 0.67492 0.54917 0.65809 0.0
H1180 H 0.68754 0.50598 0.65425 0.0
H1181 H 0.89264 0.82789 0.71172 0.0
H1182 H 0.72733 0.48996 0.64736 0.0
N1183 N 0.76574 0.60843 0.65561 0.0
C1184 C 0.74417 0.61866 0.65627 0.0
C1185 C 0.70039 0.56556 0.6572 0.0
C1186 C 0.72245 0.55525 0.6551 0.0
C1187 C 0.71127 0.59745 0.6574 0.0
C1188 C 0.75534 0.57759 0.65411 0.0
H1189 H 0.78425 0.50529 0.63918 0.0
N1190 N 0.80855 0.59107 0.64828 0.0
C1191 C 0.82221 0.55295 0.63838 0.0
C1192 C 0.77756 0.56859 0.65035 0.0
C1193 C 0.83059 0.58396 0.64145 0.0
C1194 C 0.79076 0.52928 0.64166 0.0
C1195 C 0.76778 0.53701 0.64733 0.0
O1196 O 0.84606 0.6519 0.62818 0.0
O1197 O 0.86258 0.68336 0.66951 0.0
O1198 O 0.84747 0.71932 0.6774 0.0
O1199 O 0.80876 0.68085 0.65838 0.0
O1200 O 0.8747 0.6583 0.65159 0.0
O1201 O 0.80398 0.65625 0.63111 0.0
O1202 O 0.82869 0.68379 0.72593 0.0
O1203 O 0.81248 0.64748 0.68547 0.0
O1204 O 0.83404 0.61382 0.67459 0.0
O1205 O 0.86466 0.64985 0.69795 0.0
O1206 O 0.80036 0.67421 0.70204 0.0
O1207 O 0.86875 0.67565 0.7244 0.0
C1208 C 0.88596 0.68208 0.66254 0.0
C1209 C 0.81408 0.64214 0.60136 0.0
C1210 C 0.81701 0.64479 0.56718 0.0
C1211 C 0.8271 0.65924 0.58478 0.0
C1212 C 0.7933 0.61316 0.56649 0.0
C1213 C 0.79068 0.61059 0.60029 0.0
C1214 C 0.78032 0.59624 0.58292 0.0
C1215 C 0.82542 0.7101 0.66414 0.0
C1216 C 0.8255 0.65728 0.61965 0.0
C1217 C 0.7353 0.51441 0.64937 0.0
C1218 C 0.71265 0.52353 0.65328 0.0
C1219 C 0.78911 0.64905 0.6923 0.0
C1220 C 0.85864 0.69179 0.75356 0.0
C1221 C 0.84805 0.67376 0.77001 0.0
C1222 C 0.85781 0.68787 0.78775 0.0
C1223 C 0.87852 0.72028 0.78862 0.0
C1224 C 0.87926 0.72399 0.75484 0.0
C1225 C 0.88913 0.73811 0.7723 0.0
C1226 C 0.85315 0.62263 0.68937 0.0
C1227 C 0.84752 0.67679 0.73521 0.0
H1228 H 0.84535 0.68361 0.58558 0.0
H1229 H 0.78453 0.60155 0.5532 0.0
H1230 H 0.78041 0.59709 0.61287 0.0
H1231 H 0.76211 0.57191 0.58219 0.0
H1232 H 0.83255 0.64879 0.76895 0.0
H1233 H 0.8863 0.73195 0.80197 0.0
H1234 H 0.88763 0.73819 0.74237 0.0
H1235 H 0.90499 0.76301 0.77321 0.0
Eu1236 Eu 0.36319 0.17221 0.66068 0.0
C1237 C 0.23776 0.12688 0.70639 0.0
C1238 C 0.22376 0.16663 0.70041 0.0
C1239 C 0.18178 0.11327 0.70595 0.0
C1240 C 0.24697 0.15737 0.70225 0.0
C1241 C 0.20514 0.10467 0.70893 0.0
C1242 C 0.19109 0.14423 0.70167 0.0
C1243 C 0.22146 0.06842 0.71956 0.0
N1244 N 0.26097 0.11957 0.70947 0.0
C1245 C 0.25348 0.0914 0.71697 0.0
C1246 C 0.19712 0.07489 0.71517 0.0
Eu1247 Eu 0.31459 0.15865 0.70346 0.0
N1248 N 0.27873 0.17837 0.70131 0.0
C1249 C 0.28895 0.20946 0.70029 0.0
C1250 C 0.23414 0.19825 0.69804 0.0
C1251 C 0.26688 0.21982 0.69838 0.0
H1252 H 0.27232 0.08645 0.72043 0.0
H1253 H 0.27518 0.24442 0.69701 0.0
H1254 H 0.1729 0.15081 0.7 0.0
H1255 H 0.21558 0.0458 0.72497 0.0
H1256 H 0.31414 0.22641 0.70031 0.0
H1257 H 0.4038 0.08723 0.66499 0.0
H1258 H 0.2171 0.20632 0.6965 0.0
H1259 H 0.40354 0.24549 0.64523 0.0
H1260 H 0.36433 0.10492 0.66377 0.0
H1261 H 0.45917 0.28536 0.63735 0.0
H1262 H 0.15655 0.09644 0.70756 0.0
H1263 H 0.4617 0.12541 0.66265 0.0
H1264 H 0.50505 0.18061 0.65696 0.0
H1265 H 0.17233 0.05714 0.71731 0.0
H1266 H 0.52012 0.2345 0.64898 0.0
N1267 N 0.39942 0.15293 0.6615 0.0
C1268 C 0.38946 0.12193 0.66271 0.0
C1269 C 0.44445 0.13336 0.66215 0.0
C1270 C 0.45435 0.16483 0.65946 0.0
C1271 C 0.4118 0.11174 0.66341 0.0
C1272 C 0.43092 0.17396 0.65904 0.0
H1273 H 0.50302 0.27342 0.6409 0.0
N1274 N 0.416 0.21171 0.65349 0.0
C1275 C 0.454 0.26271 0.64233 0.0
C1276 C 0.43946 0.20429 0.65478 0.0
C1277 C 0.42256 0.24012 0.64681 0.0
C1278 C 0.47868 0.25589 0.64439 0.0
C1279 C 0.47156 0.22631 0.65052 0.0
O1280 O 0.35581 0.18561 0.63287 0.0
O1281 O 0.31938 0.16982 0.67302 0.0
O1282 O 0.28545 0.11736 0.68459 0.0
O1283 O 0.3244 0.12113 0.6634 0.0
O1284 O 0.34596 0.20645 0.65506 0.0
O1285 O 0.35182 0.14056 0.63709 0.0
O1286 O 0.32098 0.1454 0.73158 0.0
O1287 O 0.35814 0.16057 0.69108 0.0
O1288 O 0.3933 0.21209 0.6802 0.0
O1289 O 0.35366 0.20981 0.70003 0.0
O1290 O 0.33192 0.12459 0.70956 0.0
O1291 O 0.32482 0.19019 0.72707 0.0
C1292 C 0.3202 0.19291 0.66497 0.0
C1293 C 0.36876 0.16405 0.60742 0.0
C1294 C 0.36821 0.16425 0.57338 0.0
C1295 C 0.35246 0.16019 0.59056 0.0
C1296 C 0.40061 0.17219 0.57331 0.0
C1297 C 0.40107 0.17199 0.60716 0.0
C1298 C 0.4169 0.17606 0.59014 0.0
C1299 C 0.29549 0.1061 0.67106 0.0
C1300 C 0.35161 0.16017 0.62503 0.0
C1301 C 0.49525 0.21779 0.65192 0.0
C1302 C 0.48667 0.18711 0.65645 0.0
C1303 C 0.3572 0.13747 0.69921 0.0
C1304 C 0.30475 0.16569 0.75621 0.0
C1305 C 0.31866 0.16932 0.77394 0.0
C1306 C 0.30008 0.16356 0.79024 0.0
C1307 C 0.26745 0.15441 0.78845 0.0
C1308 C 0.27224 0.15672 0.75476 0.0
C1309 C 0.25372 0.1511 0.77082 0.0
C1310 C 0.38323 0.22436 0.6931 0.0
C1311 C 0.32416 0.17048 0.73937 0.0
H1312 H 0.32751 0.15423 0.59081 0.0
H1313 H 0.41316 0.17489 0.56027 0.0
H1314 H 0.41398 0.17495 0.62004 0.0
H1315 H 0.44181 0.18207 0.58999 0.0
H1316 H 0.34396 0.17693 0.77499 0.0
H1317 H 0.25249 0.14961 0.8007 0.0
H1318 H 0.26118 0.15405 0.74127 0.0
H1319 H 0.2286 0.14406 0.7696 0.0
Eu1320 Eu 0.8522 0.15291 0.69801 0.0
C1321 C 0.78072 0.20692 0.65231 0.0
C1322 C 0.72491 0.16655 0.65341 0.0
C1323 C 0.73896 0.22083 0.65125 0.0
C1324 C 0.75775 0.17577 0.65361 0.0
C1325 C 0.77159 0.22976 0.65068 0.0
C1326 C 0.71566 0.18928 0.65265 0.0
C1327 C 0.82754 0.26832 0.64685 0.0
N1328 N 0.81201 0.21478 0.65179 0.0
C1329 C 0.83538 0.24481 0.64845 0.0
C1330 C 0.79553 0.26082 0.64815 0.0
Eu1331 Eu 0.82347 0.17393 0.65539 0.0
N1332 N 0.76749 0.1544 0.6542 0.0
C1333 C 0.74564 0.12337 0.65314 0.0
C1334 C 0.70236 0.13474 0.6535 0.0
C1335 C 0.71279 0.11306 0.65307 0.0
H1336 H 0.86017 0.25067 0.64756 0.0
H1337 H 0.69556 0.08841 0.6528 0.0
H1338 H 0.69055 0.18265 0.65268 0.0
H1339 H 0.84617 0.29219 0.64464 0.0
H1340 H 0.75334 0.10635 0.65294 0.0
H1341 H 0.98045 0.23816 0.69816 0.0
H1342 H 0.6769 0.12669 0.65345 0.0
H1343 H 0.81672 0.07777 0.70993 0.0
H1344 H 0.9228 0.22038 0.69909 0.0
H1345 H 0.83057 0.03627 0.71358 0.0
H1346 H 0.73148 0.23807 0.65024 0.0
H1347 H 0.99896 0.19976 0.69746 0.0
H1348 H 0.98521 0.14379 0.69912 0.0
H1349 H 0.78951 0.27907 0.64688 0.0
H1350 H 0.94434 0.08869 0.70342 0.0
N1351 N 0.90835 0.17222 0.69847 0.0
C1352 C 0.93035 0.20327 0.69892 0.0
C1353 C 0.97353 0.19179 0.69793 0.0
C1354 C 0.95095 0.16004 0.69877 0.0
C1355 C 0.96318 0.21351 0.69837 0.0
C1356 C 0.91814 0.15092 0.69924 0.0
H1357 H 0.88664 0.04842 0.70921 0.0
N1358 N 0.86424 0.11263 0.70306 0.0
C1359 C 0.849 0.05971 0.7101 0.0
C1360 C 0.89529 0.12007 0.70159 0.0
C1361 C 0.84126 0.08324 0.70808 0.0
C1362 C 0.88065 0.06665 0.70757 0.0
C1363 C 0.90439 0.09726 0.7036 0.0
O1364 O 0.82837 0.13565 0.72495 0.0
O1365 O 0.81232 0.15645 0.68462 0.0
O1366 O 0.82857 0.20738 0.67822 0.0
O1367 O 0.8667 0.20453 0.69675 0.0
O1368 O 0.79924 0.11776 0.701 0.0
O1369 O 0.86969 0.18171 0.7231 0.0
O1370 O 0.84735 0.19366 0.62881 0.0
O1371 O 0.86299 0.1692 0.66839 0.0
O1372 O 0.84168 0.11509 0.67685 0.0
O1373 O 0.81017 0.12285 0.65487 0.0
O1374 O 0.87665 0.20872 0.65266 0.0
O1375 O 0.80578 0.14733 0.62958 0.0
C1376 C 0.78849 0.13208 0.69091 0.0
C1377 C 0.86042 0.15517 0.75188 0.0
C1378 C 0.85888 0.15379 0.78603 0.0
C1379 C 0.84819 0.15917 0.76886 0.0
C1380 C 0.8823 0.14474 0.78592 0.0
C1381 C 0.88357 0.14593 0.75208 0.0
C1382 C 0.89445 0.14079 0.76905 0.0
C1383 C 0.85064 0.21852 0.69143 0.0
C1384 C 0.84854 0.16042 0.73411 0.0
C1385 C 0.93688 0.10592 0.70215 0.0
C1386 C 0.96014 0.13728 0.69971 0.0
C1387 C 0.88704 0.19332 0.662 0.0
C1388 C 0.81586 0.17586 0.60152 0.0
C1389 C 0.82729 0.17111 0.5845 0.0
C1390 C 0.81679 0.17691 0.5674 0.0
C1391 C 0.795 0.18798 0.56764 0.0
C1392 C 0.79397 0.18668 0.60149 0.0
C1393 C 0.78368 0.19277 0.58459 0.0
C1394 C 0.82258 0.10655 0.66208 0.0
C1395 C 0.82721 0.16952 0.6191 0.0
H1396 H 0.83016 0.16617 0.76868 0.0
H1397 H 0.89156 0.14114 0.79889 0.0
H1398 H 0.89326 0.14278 0.73916 0.0
H1399 H 0.91248 0.13384 0.76914 0.0
H1400 H 0.8446 0.1632 0.58462 0.0
H1401 H 0.78641 0.19254 0.55471 0.0
H1402 H 0.7849 0.19041 0.61447 0.0
H1403 H 0.76679 0.20113 0.58462 0.0
C1404 C 0.37675 0.92914 0.04205 0.0
C1405 C 0.36815 0.89788 0.04514 0.0
C1406 C 0.40759 0.95105 0.03589 0.0
C1407 C 0.43077 0.94238 0.03242 0.0
H1408 H 0.35984 0.93695 0.04504 0.0
H1409 H 0.41384 0.97522 0.0347 0.0
S1410 S 0.42075 0.86387 0.03831 0.0
N1411 N 0.38544 0.85944 0.04394 0.0
N1412 N 0.44351 0.9009 0.03268 0.0
C1413 C 0.4224 0.91122 0.03507 0.0
C1414 C 0.39095 0.88882 0.04118 0.0
C1415 C 0.07294 0.43368 0.04263 0.0
C1416 C 0.10352 0.45943 0.04605 0.0
C1417 C 0.04774 0.43751 0.03591 0.0
C1418 C 0.05208 0.46721 0.03214 0.0
H1419 H 0.0683 0.41033 0.04547 0.0
H1420 H 0.02449 0.417 0.03382 0.0
S1421 S 0.12686 0.54236 0.03992 0.0
N1422 N 0.13644 0.51577 0.04566 0.0
N1423 N 0.08894 0.52295 0.03341 0.0
C1424 C 0.0825 0.49319 0.03553 0.0
C1425 C 0.10828 0.48929 0.04227 0.0
C1426 C 0.53503 0.62114 0.05991 0.0
C1427 C 0.55382 0.64846 0.04952 0.0
C1428 C 0.52551 0.5918 0.0523 0.0
C1429 C 0.53436 0.5889 0.03407 0.0
H1430 H 0.52747 0.62247 0.07397 0.0
H1431 H 0.51101 0.57123 0.06067 0.0
S1432 S 0.58571 0.65291 1.00176 0.0
N1433 N 0.58237 0.67063 0.02044 0.0
N1434 N 0.56456 0.61527 1.00629 0.0
C1435 C 0.55348 0.61583 0.02364 0.0
C1436 C 0.56316 0.64573 0.03133 0.0
C1437 C 0.9112 0.37923 0.96211 0.0
C1438 C 0.89677 0.3514 0.97252 0.0
C1439 C 0.93293 0.4077 0.97042 0.0
C1440 C 0.94081 0.40933 0.98943 0.0
H1441 H 0.90531 0.37909 0.94749 0.0
H1442 H 0.94319 0.42867 0.962 0.0
S1443 S 0.91281 0.34311 0.02228 0.0
N1444 N 0.894 0.32717 1.00255 0.0
N1445 N 0.93486 0.38076 0.01803 0.0
C1446 C 0.92726 0.38176 0.99988 0.0
C1447 C 0.9052 0.35276 0.99146 0.0
C1448 C 0.64149 0.56588 0.98266 0.0
C1449 C 0.64688 0.54085 0.97953 0.0
C1450 C 0.61217 0.56104 0.98977 0.0
C1451 C 0.58698 0.53102 0.99416 0.0
H1452 H 0.65993 0.58939 0.97926 0.0
H1453 H 0.60894 0.581 0.99152 0.0
S1454 S 0.58842 0.45755 0.98774 0.0
N1455 N 0.62445 0.4849 0.98116 0.0
N1456 N 0.5691 0.47575 0.99412 0.0
C1457 C 0.59211 0.50579 0.99125 0.0
C1458 C 0.62214 0.51075 0.98413 0.0
C1459 C 0.44146 0.087 1.0003 0.0
C1460 C 0.44832 0.09886 0.98196 0.0
C1461 C 0.45413 0.06894 1.00738 0.0
C1462 C 0.47416 0.06227 0.99637 0.0
H1463 H 0.42562 0.09113 1.00907 0.0
H1464 H 0.44747 0.05948 0.02136 0.0
S1465 S 0.50252 0.09129 0.94826 0.0
N1466 N 0.47862 0.10507 0.9536 0.0
N1467 N 0.50227 0.07121 0.96669 0.0
C1468 C 0.48208 0.07504 0.97825 0.0
C1469 C 0.46921 0.09331 0.9711 0.0
C1470 C 0.64361 0.06798 0.98543 0.0
C1471 C 0.64639 0.0961 0.97914 0.0
C1472 C 0.61502 0.04461 0.99335 0.0
C1473 C 0.58821 0.04851 0.99536 0.0
H1474 H 0.66348 0.06376 0.98382 0.0
H1475 H 0.61355 0.0229 0.99746 0.0
S1476 S 0.58278 0.1174 0.98048 0.0
N1477 N 0.61992 0.12654 0.97537 0.0
N1478 N 0.56591 0.08229 0.98983 0.0
C1479 C 0.59076 0.07667 0.98933 0.0
C1480 C 0.61999 0.1006 0.98141 0.0
C1481 C 0.93786 0.56346 0.97904 0.0
C1482 C 0.90715 0.53786 0.97578 0.0
C1483 C 0.96292 0.55943 0.98574 0.0
C1484 C 0.9583 0.52966 0.98962 0.0
H1485 H 0.94268 0.58686 0.97614 0.0
H1486 H 0.98627 0.57984 0.98777 0.0
S1487 S 0.88304 0.4548 0.98225 0.0
N1488 N 0.87374 0.48156 0.97641 0.0
N1489 N 0.92106 0.47397 0.98861 0.0
C1490 C 0.92776 0.5038 0.98634 0.0
C1491 C 0.9021 0.50792 0.97963 0.0
C1492 C 0.43163 0.36128 0.98238 0.0
C1493 C 0.44909 0.34561 0.98365 0.0
C1494 C 0.44405 0.39151 0.98933 0.0
C1495 C 0.47446 0.40734 0.99785 0.0
H1496 H 0.40816 0.3501 0.97592 0.0
H1497 H 0.42959 0.40248 0.98793 0.0
S1498 S 0.53024 0.37668 1.00386 0.0
N1499 N 0.49858 0.34819 0.99353 0.0
N1500 N 0.52188 0.40487 1.00679 0.0
C1501 C 0.49204 0.39173 0.99932 0.0
C1502 C 0.47938 0.36093 0.99218 0.0
C1503 C 0.10992 0.64144 0.03093 0.0
C1504 C 0.11435 0.64393 0.05045 0.0
C1505 C 0.08844 0.61298 0.02251 0.0
C1506 C 0.0705 0.58607 0.0333 0.0
H1507 H 0.12276 0.66176 0.02212 0.0
H1508 H 0.08536 0.61223 1.00752 0.0
S1509 S 0.07529 0.57916 0.08461 0.0
N1510 N 0.10049 0.61623 0.08013 0.0
N1511 N 0.05983 0.56301 0.06426 0.0
C1512 C 0.07499 0.58803 0.05273 0.0
C1513 C 0.09699 0.61688 0.06132 0.0
C1514 C 0.39308 0.48987 0.04362 0.0
C1515 C 0.36729 0.46011 0.04799 0.0
C1516 C 0.42277 0.49387 0.0375 0.0
C1517 C 0.4274 0.46817 0.0353 0.0
H1518 H 0.39074 0.51027 0.04571 0.0
H1519 H 0.44246 0.51722 0.0351 0.0
S1520 S 0.36643 0.38531 0.04265 0.0
N1521 N 0.3477 0.4045 0.04807 0.0
N1522 N 0.40315 0.412 0.03666 0.0
C1523 C 0.40141 0.43834 0.03887 0.0
C1524 C 0.3714 0.43429 0.04509 0.0
C1525 C 0.55053 0.89983 0.03028 0.0
C1526 C 0.55011 0.89577 0.04979 0.0
C1527 C 0.54108 0.91986 0.0223 0.0
C1528 C 0.53111 0.93659 0.0336 0.0
H1529 H 0.55894 0.888 0.02114 0.0
H1530 H 0.5426 0.92303 1.0073 0.0
S1531 S 0.52161 0.93114 0.08513 0.0
N1532 N 0.53579 0.90785 0.07997 0.0
N1533 N 0.51868 0.94585 0.06504 0.0
C1534 C 0.52953 0.93194 0.05303 0.0
C1535 C 0.53888 0.91145 0.06111 0.0
C1536 C 0.05859 0.24257 0.37274 0.0
C1537 C 0.03371 0.24889 0.37654 0.0
C1538 C 0.0887 0.26615 0.36648 0.0
C1539 C 0.09464 0.29663 0.3635 0.0
H1540 H 0.05527 0.21967 0.37549 0.0
H1541 H 0.10772 0.26075 0.36473 0.0
S1542 S 0.03636 0.32412 0.36906 0.0
N1543 N 0.0162 0.28708 0.37521 0.0
N1544 N 0.07266 0.33125 0.36344 0.0
C1545 C 0.06952 0.30278 0.36638 0.0
C1546 C 0.03903 0.27892 0.3728 0.0
C1547 C 0.78827 0.83514 0.37785 0.0
C1548 C 0.77885 0.80376 0.38131 0.0
C1549 C 0.76588 0.84388 0.37231 0.0
C1550 C 0.73356 0.82154 0.36938 0.0
H1551 H 0.81285 0.85319 0.3802 0.0
H1552 H 0.77378 0.86833 0.37061 0.0
S1553 S 0.69667 0.73641 0.37587 0.0
N1554 N 0.73489 0.75025 0.38094 0.0
N1555 N 0.69306 0.76688 0.37045 0.0
C1556 C 0.72387 0.79014 0.37252 0.0
C1557 C 0.7465 0.7812 0.37835 0.0
C1558 C 0.17736 0.95717 0.37605 0.0
C1559 C 0.20476 0.97525 0.38695 0.0
C1560 C 0.17285 0.93022 0.36703 0.0
C1561 C 0.19561 0.92038 0.36854 0.0
H1562 H 0.15891 0.96348 0.37484 0.0
H1563 H 0.15096 0.91669 0.35916 0.0
S1564 S 0.27303 0.96157 0.394 0.0
N1565 N 0.25606 0.98292 0.39768 0.0
N1566 N 0.24756 0.93219 0.38092 0.0
C1567 C 0.22354 0.93882 0.37901 0.0
C1568 C 0.22813 0.96626 0.38816 0.0
C1569 C 0.58931 0.70931 0.30278 0.0
C1570 C 0.56759 0.68488 0.31437 0.0
C1571 C 0.61081 0.73865 0.31007 0.0
C1572 C 0.61122 0.74505 0.32923 0.0
H1573 H 0.58957 0.70589 0.28785 0.0
H1574 H 0.62691 0.75664 0.30051 0.0
S1575 S 0.56051 0.68919 0.36583 0.0
N1576 N 0.54892 0.6689 0.34626 0.0
N1577 N 0.58867 0.72458 0.3598 0.0
C1578 C 0.58962 0.72108 0.34103 0.0
C1579 C 0.56796 0.69091 0.33365 0.0
C1580 C 0.31168 0.90278 0.31547 0.0
C1581 C 0.31692 0.87765 0.31236 0.0
C1582 C 0.28223 0.89809 0.3222 0.0
C1583 C 0.25675 0.8681 0.32624 0.0
H1584 H 0.33038 0.92632 0.31235 0.0
H1585 H 0.27919 0.91816 0.324 0.0
S1586 S 0.25761 0.79425 0.32005 0.0
N1587 N 0.29399 0.82153 0.31381 0.0
N1588 N 0.23841 0.81271 0.3261 0.0
C1589 C 0.26168 0.84272 0.3234 0.0
C1590 C 0.29185 0.84752 0.31665 0.0
C1591 C 0.13805 0.44063 0.32447 0.0
C1592 C 0.1401 0.44444 0.30491 0.0
C1593 C 0.14666 0.42064 0.33332 0.0
C1594 C 0.15752 0.40377 0.3229 0.0
H1595 H 0.12905 0.45268 0.33297 0.0
H1596 H 0.14376 0.4176 0.3483 0.0
S1597 S 0.17034 0.40762 0.2717 0.0
N1598 N 0.1561 0.43126 0.27563 0.0
N1599 N 0.17189 0.39346 0.2923 0.0
C1600 C 0.1604 0.40784 0.30346 0.0
C1601 C 0.15179 0.42824 0.29444 0.0
C1602 C 0.29138 0.43137 0.31754 0.0
C1603 C 0.31638 0.42548 0.31317 0.0
C1604 C 0.26178 0.40758 0.32431 0.0
C1605 C 0.25645 0.37728 0.32716 0.0
H1606 H 0.29425 0.45415 0.31498 0.0
H1607 H 0.24265 0.41267 0.32667 0.0
S1608 S 0.31544 0.35096 0.32024 0.0
N1609 N 0.33475 0.38791 0.31388 0.0
N1610 N 0.27925 0.34334 0.32655 0.0
C1611 C 0.28171 0.37154 0.32366 0.0
C1612 C 0.31169 0.39562 0.31676 0.0
C1613 C 0.57799 0.85051 0.30799 0.0
C1614 C 0.57962 0.8792 0.31149 0.0
C1615 C 0.60202 0.84455 0.31445 0.0
C1616 C 0.62802 0.86676 0.32504 0.0
H1617 H 0.55857 0.83297 0.29969 0.0
H1618 H 0.60059 0.82267 0.31085 0.0
S1619 S 0.64286 0.9449 0.33854 0.0
N1620 N 0.60908 0.92969 0.32653 0.0
N1621 N 0.65398 0.91833 0.33871 0.0
C1622 C 0.62972 0.8953 0.32877 0.0
C1623 C 0.60547 0.90148 0.3221 0.0
C1624 C 0.14916 0.71657 0.2983 0.0
C1625 C 0.13295 0.68854 0.3084 0.0
C1626 C 0.15787 0.74512 0.30679 0.0
C1627 C 0.15084 0.74656 0.32567 0.0
H1628 H 0.15539 0.71644 0.28377 0.0
H1629 H 0.1704 0.76625 0.29859 0.0
S1630 S 0.10605 0.67997 0.35771 0.0
N1631 N 0.10845 0.66397 0.33798 0.0
N1632 N 0.12485 0.71785 0.35385 0.0
C1633 C 0.13428 0.71886 0.33586 0.0
C1634 C 0.12533 0.68974 0.32724 0.0
C1635 C 0.74976 0.97843 0.37648 0.0
C1636 C 0.78302 0.99005 0.37715 0.0
C1637 C 0.72883 0.94875 0.3693 0.0
C1638 C 0.74033 0.92947 0.36259 0.0
H1639 H 0.7398 0.99238 0.3816 0.0
H1640 H 0.70341 0.94083 0.36912 0.0
S1641 S 0.8253 0.94839 0.36226 0.0
N1642 N 0.82643 0.97967 0.37106 0.0
N1643 N 0.78723 0.92399 0.3576 0.0
C1644 C 0.7736 0.94093 0.3631 0.0
C1645 C 0.79489 0.97116 0.37038 0.0
C1646 C 0.06039 0.82121 0.37352 0.0
C1647 C 0.0348 0.79121 0.37761 0.0
C1648 C 0.09016 0.82571 0.36724 0.0
C1649 C 0.09513 0.80031 0.36456 0.0
H1650 H 0.0579 0.84143 0.37604 0.0
H1651 H 0.10971 0.84925 0.36525 0.0
S1652 S 0.03477 0.71702 0.37093 0.0
N1653 N 0.01569 0.73568 0.37682 0.0
N1654 N 0.07139 0.74417 0.36509 0.0
C1655 C 0.0693 0.77024 0.36774 0.0
C1656 C 0.03917 0.76566 0.37415 0.0
C1657 C 0.17365 0.2146 0.37786 0.0
C1658 C 0.20106 0.2231 0.38879 0.0
C1659 C 0.16943 0.23711 0.36844 0.0
C1660 C 0.19249 0.26897 0.36959 0.0
H1661 H 0.15507 0.19042 0.37682 0.0
H1662 H 0.14762 0.22944 0.3605 0.0
S1663 S 0.27 0.3028 0.39504 0.0
N1664 N 0.2526 0.2651 0.3992 0.0
N1665 N 0.2447 0.30742 0.38177 0.0
C1666 C 0.22036 0.27759 0.38018 0.0
C1667 C 0.22463 0.25468 0.3897 0.0
C1668 C 0.70355 0.60421 0.70951 0.0
C1669 C 0.69856 0.57412 0.71269 0.0
C1670 C 0.73246 0.62775 0.70204 0.0
C1671 C 0.75754 0.62219 0.6974 0.0
H1672 H 0.68512 0.60974 0.71314 0.0
H1673 H 0.7355 0.65077 0.70024 0.0
S1674 S 0.75688 0.54757 0.70343 0.0
N1675 N 0.72107 0.53994 0.71058 0.0
N1676 N 0.77572 0.58445 0.69696 0.0
C1677 C 0.75275 0.59209 0.70026 0.0
C1678 C 0.72313 0.56798 0.70773 0.0
C1679 C 0.40256 0.09616 0.71289 0.0
C1680 C 0.43441 0.12047 0.71491 0.0
C1681 C 0.37815 0.10203 0.70722 0.0
C1682 C 0.38455 0.13239 0.70319 0.0
H1683 H 0.39636 0.07242 0.71596 0.0
H1684 H 0.35391 0.08261 0.70614 0.0
S1685 S 0.46345 0.20435 0.70782 0.0
N1686 N 0.47078 0.17615 0.71317 0.0
N1687 N 0.42487 0.18725 0.70283 0.0
C1688 C 0.41625 0.15693 0.70524 0.0
C1689 C 0.44118 0.15092 0.71093 0.0
C1690 C 0.89714 0.29611 0.71641 0.0
C1691 C 0.87529 0.30712 0.71685 0.0
C1692 C 0.88892 0.26738 0.70826 0.0
C1693 C 0.85857 0.24859 0.70018 0.0
H1694 H 0.92093 0.30999 0.72222 0.0
H1695 H 0.90669 0.26009 0.70808 0.0
S1696 S 0.79166 0.2655 0.69935 0.0
N1697 N 0.82134 0.29613 0.70961 0.0
N1698 N 0.80588 0.24224 0.69425 0.0
C1699 C 0.83631 0.25911 0.70083 0.0
C1700 C 0.84468 0.28834 0.70915 0.0
C1701 C 0.24278 0.04599 0.63544 0.0
C1702 C 0.22788 0.0181 0.6458 0.0
C1703 C 0.26474 0.0743 0.64379 0.0
C1704 C 0.27242 0.07585 0.66283 0.0
H1705 H 0.23728 0.04598 0.62077 0.0
H1706 H 0.27555 0.09524 0.63533 0.0
S1707 S 0.24257 0.00961 0.69579 0.0
N1708 N 0.22402 0.99381 0.67598 0.0
N1709 N 0.26525 0.0472 0.69155 0.0
C1710 C 0.25811 0.04832 0.67333 0.0
C1711 C 0.23581 0.01939 0.66485 0.0
C1712 C 0.9744 0.23115 0.6475 0.0
C1713 C 0.9791 0.20578 0.64396 0.0
C1714 C 0.94488 0.2267 0.65401 0.0
C1715 C 0.91879 0.19672 0.65736 0.0
H1716 H 0.9936 0.25468 0.64492 0.0
H1717 H 0.94229 0.24695 0.6562 0.0
S1718 S 0.918 0.12239 0.64939 0.0
N1719 N 0.95491 0.14951 0.644 0.0
N1720 N 0.89932 0.14117 0.65579 0.0
C1721 C 0.92317 0.17113 0.65395 0.0
C1722 C 0.95337 0.17567 0.64746 0.0
C1723 C 0.78224 0.74354 0.63655 0.0
C1724 C 0.8043 0.77565 0.63626 0.0
C1725 C 0.78914 0.72272 0.64585 0.0
C1726 C 0.81839 0.73311 0.6553 0.0
H1727 H 0.7593 0.7344 0.62961 0.0
H1728 H 0.77128 0.69823 0.64559 0.0
S1729 S 0.88511 0.81482 0.6579 0.0
N1730 N 0.85712 0.81683 0.64569 0.0
N1731 N 0.87007 0.77773 0.66324 0.0
C1732 C 0.84071 0.76521 0.65514 0.0
C1733 C 0.83368 0.78644 0.64562 0.0
C1734 C 0.95297 0.76337 0.65037 0.0
C1735 C 0.97825 0.75802 0.64575 0.0
C1736 C 0.92342 0.73907 0.65686 0.0
C1737 C 0.9184 0.70879 0.65921 0.0
H1738 H 0.9555 0.78608 0.64809 0.0
H1739 H 0.90405 0.74375 0.65924 0.0
S1740 S 0.97817 0.68366 0.65154 0.0
N1741 N 0.99721 0.72088 0.64577 0.0
N1742 N 0.9418 0.6754 0.6579 0.0
C1743 C 0.94398 0.7036 0.65555 0.0
C1744 C 0.97391 0.72818 0.64892 0.0
C1745 C 0.27233 0.2299 0.64808 0.0
C1746 C 0.2413 0.20446 0.64534 0.0
C1747 C 0.29722 0.22579 0.65502 0.0
C1748 C 0.29214 0.19611 0.65968 0.0
H1749 H 0.27755 0.25322 0.64456 0.0
H1750 H 0.32081 0.24606 0.65659 0.0
S1751 S 0.21585 0.12156 0.65408 0.0
N1752 N 0.20708 0.14834 0.64742 0.0
N1753 N 0.25404 0.1406 0.66009 0.0
C1754 C 0.26126 0.17041 0.657 0.0
C1755 C 0.23578 0.17461 0.65003 0.0
C1756 C 0.79824 0.02233 0.65269 0.0
C1757 C 0.8016 0.02183 0.63314 0.0
C1758 C 0.80531 0.04987 0.66208 0.0
C1759 C 0.81577 0.07779 0.65224 0.0
H1760 H 0.78964 0.00116 0.66078 0.0
H1761 H 0.80185 0.04912 0.67705 0.0
S1762 S 0.83169 0.08991 0.60138 0.0
N1763 N 0.81843 0.05244 0.60455 0.0
N1764 N 0.83125 0.10395 0.6222 0.0
C1765 C 0.81979 0.07781 0.63281 0.0
C1766 C 0.8128 0.04989 0.62325 0.0
C1767 C 0.41486 0.30185 0.71837 0.0
C1768 C 0.44819 0.31646 0.71568 0.0
C1769 C 0.39417 0.27236 0.71084 0.0
C1770 C 0.40589 0.25619 0.70026 0.0
H1771 H 0.40463 0.31332 0.72637 0.0
H1772 H 0.36874 0.26223 0.71343 0.0
S1773 S 0.49171 0.28397 0.69002 0.0
N1774 N 0.49222 0.31226 0.70236 0.0
N1775 N 0.45356 0.25726 0.68793 0.0
C1776 C 0.43929 0.27073 0.69743 0.0
C1777 C 0.46034 0.30071 0.70519 0.0
C1778 C 0.72193 0.14865 0.70466 0.0
C1779 C 0.69628 0.11863 0.70861 0.0
C1780 C 0.75147 0.1531 0.69797 0.0
C1781 C 0.75615 0.12763 0.69471 0.0
H1782 H 0.71969 0.1689 0.70761 0.0
H1783 H 0.77109 0.17659 0.69608 0.0
S1784 S 0.69535 0.04433 0.70051 0.0
N1785 N 0.67671 0.06308 0.70711 0.0
N1786 N 0.73192 0.07143 0.69453 0.0
C1787 C 0.73018 0.09756 0.69772 0.0
C1788 C 0.70031 0.09305 0.70458 0.0
C1789 C 0.86385 0.57213 0.72488 0.0
C1790 C 0.87876 0.55876 0.71451 0.0
C1791 C 0.85555 0.59271 0.71655 0.0
C1792 C 0.86161 0.60045 0.69753 0.0
H1793 H 0.85834 0.56645 0.73953 0.0
H1794 H 0.84404 0.60246 0.725 0.0
S1795 S 0.90298 0.57456 0.66469 0.0
N1796 N 0.9011 0.55648 0.68445 0.0
N1797 N 0.8854 0.59523 0.6689 0.0
C1798 C 0.87686 0.58772 0.68705 0.0
C1799 C 0.88543 0.56682 0.69551 0.0
C1800 C 0.53107 0.01167 0.17377 0.0
C1801 C 0.50025 0.98659 0.17768 0.0
C1802 C 0.53813 0.02765 0.15662 0.0
C1803 C 0.51477 0.01917 0.14254 0.0
H1804 H 0.54979 0.01947 0.1842 0.0
H1805 H 0.56219 0.04685 0.15438 0.0
S1806 S 0.43059 0.95442 0.14544 0.0
N1807 N 0.44646 0.95327 0.16566 0.0
N1808 N 0.45946 0.9837 0.13373 0.0
C1809 C 0.48397 0.99383 0.14616 0.0
C1810 C 0.47678 0.97754 0.16363 0.0
C1811 C 0.98763 0.48423 0.16956 0.0
C1812 C 0.01558 0.51279 0.17307 0.0
C1813 C 0.97203 0.47814 0.15224 0.0
C1814 C 0.98403 0.50025 0.13773 0.0
H1815 H 0.97748 0.46664 0.18038 0.0
H1816 H 0.95056 0.45584 0.15012 0.0
S1817 S 0.05676 0.57843 0.13972 0.0
N1818 N 0.05497 0.56316 0.1605 0.0
N1819 N 0.02544 0.55188 0.12806 0.0
C1820 C 0.01208 0.52882 0.14102 0.0
C1821 C 0.02787 0.53506 0.15866 0.0
C1822 C 0.48588 0.4981 0.1644 0.0
C1823 C 0.50825 0.51322 0.17882 0.0
C1824 C 0.49547 0.49297 0.14682 0.0
C1825 C 0.52778 0.50251 0.14302 0.0
H1826 H 0.46077 0.49041 0.16665 0.0
H1827 H 0.47735 0.48098 0.13623 0.0
S1828 S 0.59581 0.54307 0.17599 0.0
N1829 N 0.56415 0.53726 0.18813 0.0
N1830 N 0.58223 0.52845 0.15507 0.0
C1831 C 0.55038 0.51778 0.1573 0.0
C1832 C 0.54063 0.52295 0.17517 0.0
C1833 C 0.985 0.46813 0.86301 0.0
C1834 C 0.99766 0.49016 0.84848 0.0
C1835 C 1.0002 0.47398 0.88043 0.0
C1836 C 0.02881 0.50196 0.88394 0.0
H1837 H 0.96308 0.4462 0.86091 0.0
H1838 H 0.98974 0.45622 0.89115 0.0
S1839 S 0.07162 0.56738 0.85067 0.0
N1840 N 0.04045 0.5411 0.83877 0.0
N1841 N 0.06882 0.55223 0.87161 0.0
C1842 C 0.04162 0.52428 0.86959 0.0
C1843 C 0.02605 0.51838 0.85186 0.0
C1844 C 0.51851 0.51636 0.85672 0.0
C1845 C 0.51755 0.4882 0.85251 0.0
C1846 C 0.50791 0.52099 0.87407 0.0
C1847 C 0.49621 0.49775 0.88796 0.0
H1848 H 0.52666 0.53465 0.84633 0.0
H1849 H 0.50871 0.5429 0.87659 0.0
S1850 S 0.49023 0.4204 0.88427 0.0
N1851 N 0.50535 0.43729 0.864 0.0
N1852 N 0.48496 0.44577 0.89643 0.0
C1853 C 0.49589 0.46979 0.8841 0.0
C1854 C 0.5066 0.46505 0.86643 0.0
C1855 C 0.51044 0.03697 0.86336 0.0
C1856 C 0.52132 0.02542 0.84881 0.0
C1857 C 0.50152 0.02205 0.88085 0.0
C1858 C 0.50271 0.99473 0.88441 0.0
H1859 H 0.50864 0.05766 0.86118 0.0
H1860 H 0.49271 0.03145 0.89148 0.0
S1861 S 0.53035 0.95543 0.85133 0.0
N1862 N 0.53332 0.98525 0.83939 0.0
N1863 N 0.51691 0.9575 0.87219 0.0
C1864 C 0.51417 0.98331 0.87013 0.0
C1865 C 0.52341 0.99857 0.85239 0.0
C1866 C 0.16385 0.33117 0.50543 0.0
C1867 C 0.16463 0.30348 0.50833 0.0
C1868 C 0.17378 0.34746 0.48842 0.0
C1869 C 0.18465 0.33664 0.47349 0.0
H1870 H 0.15624 0.3408 0.51656 0.0
H1871 H 0.17309 0.36886 0.487 0.0
S1872 S 0.19002 0.26455 0.47353 0.0
N1873 N 0.17602 0.26527 0.49448 0.0
N1874 N 0.19498 0.29603 0.46265 0.0
C1875 C 0.18487 0.3086 0.47603 0.0
C1876 C 0.1749 0.29207 0.4934 0.0
C1877 C 0.66306 0.84826 0.49505 0.0
C1878 C 0.68445 0.83753 0.49923 0.0
C1879 C 0.64467 0.83917 0.47866 0.0
C1880 C 0.64682 0.81894 0.46569 0.0
H1881 H 0.65988 0.86326 0.50475 0.0
H1882 H 0.62839 0.84792 0.47619 0.0
S1883 S 0.70031 0.78532 0.46953 0.0
N1884 N 0.70796 0.8068 0.4885 0.0
N1885 N 0.67259 0.78887 0.45803 0.0
C1886 C 0.6686 0.80853 0.46948 0.0
C1887 C 0.68748 0.81792 0.48617 0.0
C1888 C 0.17359 0.86743 0.49465 0.0
C1889 C 0.16277 0.84485 0.50893 0.0
C1890 C 0.18424 0.86246 0.47739 0.0
C1891 C 0.18485 0.83487 0.47381 0.0
H1892 H 0.17392 0.88919 0.49686 0.0
H1893 H 0.19283 0.88071 0.46695 0.0
S1894 S 0.15829 0.76804 0.50625 0.0
N1895 N 0.15294 0.79362 0.51813 0.0
N1896 N 0.17253 0.78417 0.48569 0.0
C1897 C 0.17359 0.81189 0.48782 0.0
C1898 C 0.16262 0.81688 0.50535 0.0
C1899 C 0.69544 0.85478 0.1878 0.0
C1900 C 0.66886 0.82586 0.18308 0.0
C1901 C 0.70963 0.85989 0.20552 0.0
C1902 C 0.69754 0.83636 0.21921 0.0
H1903 H 0.70575 0.87339 0.17759 0.0
H1904 H 0.73019 0.88245 0.20853 0.0
S1905 S 0.62775 0.7568 0.21401 0.0
N1906 N 0.63035 0.77373 0.1937 0.0
N1907 N 0.65734 0.78312 0.22685 0.0
C1908 C 0.67069 0.80749 0.21475 0.0
C1909 C 0.65631 0.80228 0.19672 0.0
C1910 C 0.15167 0.81583 0.18677 0.0
C1911 C 0.18398 0.82551 0.18289 0.0
C1912 C 0.14226 0.82181 0.2041 0.0
C1913 C 0.16471 0.83764 0.21836 0.0
H1914 H 0.13346 0.80376 0.17623 0.0
H1915 H 0.11707 0.81374 0.20639 0.0
S1916 S 0.25231 0.86781 0.21543 0.0
N1917 N 0.23845 0.85132 0.19492 0.0
N1918 N 0.22087 0.86324 0.22733 0.0
C1919 C 0.19711 0.84744 0.21471 0.0
C1920 C 0.20672 0.84132 0.19702 0.0
C1921 C 0.15048 0.34021 0.18683 0.0
C1922 C 0.18246 0.3631 0.18315 0.0
C1923 C 0.14151 0.3242 0.20394 0.0
C1924 C 0.16406 0.33036 0.21821 0.0
H1925 H 0.13224 0.33414 0.17625 0.0
H1926 H 0.1166 0.30674 0.20599 0.0
S1927 S 0.25078 0.38888 0.21597 0.0
N1928 N 0.23658 0.392 0.19559 0.0
N1929 N 0.21991 0.36132 0.22748 0.0
C1930 C 0.19606 0.35353 0.21484 0.0
C1931 C 0.20521 0.36992 0.1974 0.0
C1932 C 0.86002 0.65884 0.83682 0.0
C1933 C 0.82778 0.63674 0.84055 0.0
C1934 C 0.86942 0.67475 0.81969 0.0
C1935 C 0.84704 0.66928 0.80544 0.0
H1936 H 0.87819 0.66435 0.84737 0.0
H1937 H 0.89453 0.69158 0.81762 0.0
S1938 S 0.7597 0.61308 0.8078 0.0
N1939 N 0.77353 0.60944 0.8282 0.0
N1940 N 0.79105 0.63987 0.79622 0.0
C1941 C 0.81475 0.64694 0.80885 0.0
C1942 C 0.80516 0.63068 0.82634 0.0
C1943 C 0.32076 0.1877 0.84101 0.0
C1944 C 0.34071 0.17563 0.84596 0.0
C1945 C 0.30796 0.18378 0.823 0.0
C1946 C 0.31454 0.16763 0.80914 0.0
H1947 H 0.31469 0.20004 0.85122 0.0
H1948 H 0.2929 0.19369 0.81988 0.0
S1949 S 0.36561 0.13167 0.81483 0.0
N1950 N 0.36704 0.1474 0.83538 0.0
N1951 N 0.34211 0.13915 0.80167 0.0
C1952 C 0.33449 0.15545 0.81386 0.0
C1953 C 0.34767 0.15956 0.83223 0.0
C1954 C 0.83614 0.19188 0.82473 0.0
C1955 C 0.82597 0.1699 0.83932 0.0
C1956 C 0.84597 0.18618 0.80742 0.0
C1957 C 0.84634 0.15841 0.80407 0.0
H1958 H 0.83662 0.21376 0.82672 0.0
H1959 H 0.8541 0.20401 0.79673 0.0
S1960 S 0.82117 0.09292 0.83741 0.0
N1961 N 0.81645 0.11903 0.84912 0.0
N1962 N 0.83446 0.10816 0.81655 0.0
C1963 C 0.83571 0.13601 0.81842 0.0
C1964 C 0.82558 0.14176 0.83601 0.0
C1965 C 0.30341 0.12626 0.53654 0.0
C1966 C 0.31505 0.14784 0.52175 0.0
C1967 C 0.32066 0.13191 0.5532 0.0
C1968 C 0.35036 0.15923 0.55565 0.0
H1969 H 0.28071 0.10482 0.53522 0.0
H1970 H 0.31089 0.11451 0.56415 0.0
S1971 S 0.39125 0.22328 0.5213 0.0
N1972 N 0.35807 0.19762 0.51063 0.0
N1973 N 0.39037 0.20843 0.5421 0.0
C1974 C 0.36221 0.18111 0.54104 0.0
C1975 C 0.34455 0.17541 0.52408 0.0
C1976 C 0.84978 0.1896 0.51784 0.0
C1977 C 0.84899 0.16148 0.51373 0.0
C1978 C 0.83958 0.19447 0.53524 0.0
C1979 C 0.82845 0.17152 0.54929 0.0
H1980 H 0.85765 0.20773 0.50736 0.0
H1981 H 0.84039 0.21639 0.53772 0.0
S1982 S 0.82272 0.09424 0.54583 0.0
N1983 N 0.83728 0.11082 0.52541 0.0
N1984 N 0.81756 0.11972 0.55795 0.0
C1985 C 0.82807 0.14351 0.54548 0.0
C1986 C 0.8384 0.13854 0.52775 0.0
C1987 C 0.84105 0.70638 0.52908 0.0
C1988 C 0.85183 0.69482 0.51449 0.0
C1989 C 0.83082 0.69067 0.54628 0.0
C1990 C 0.83057 0.66255 0.54949 0.0
H1991 H 0.84036 0.72771 0.52716 0.0
H1992 H 0.82219 0.70016 0.55695 0.0
S1993 S 0.85729 0.6228 0.51615 0.0
N1994 N 0.86211 0.65371 0.50463 0.0
N1995 N 0.84328 0.62448 0.53691 0.0
C1996 C 0.84187 0.65106 0.53517 0.0
C1997 C 0.85243 0.66712 0.51772 0.0
loop_
_geom_bond_atom_site_label_1
_geom_bond_atom_site_label_2
_geom_bond_distance
_geom_bond_site_symmetry_2
_ccdc_geom_bond_type
C0 C1 1.384 . S
C0 H13 0.947 . S
C0 C35 1.382 . S
C1 C0 1.384 . S
C1 C2 1.378 . S
C2 C1 1.378 . S
C2 C3 1.378 . S
C2 H14 0.952 . S
C3 C2 1.378 . S
C3 H15 0.950 . S
C3 C34 1.383 . S
H4 C23 0.947 . S
H5 C24 0.946 . S
H6 C26 0.953 . S
H7 C27 0.945 . S
H8 C29 0.952 . S
H9 C30 0.949 . S
H10 C32 0.950 . S
H11 C33 0.948 . S
H12 C35 0.951 . S
H13 C0 0.947 . S
H14 C2 0.952 . S
H15 C3 0.950 . S
N16 C19 1.382 . S
N16 C21 1.363 . S
N17 C19 1.371 . S
N17 C20 1.372 . S
N18 C20 1.361 . S
N18 C21 1.377 . S
C19 N16 1.382 . S
C19 N17 1.371 . S
C19 C22 1.480 . S
C20 N17 1.372 . S
C20 N18 1.361 . S
C20 C28 1.457 . S
C21 N16 1.363 . S
C21 N18 1.377 . S
C21 C34 1.479 . S
C22 C19 1.480 . S
C22 C23 1.383 . S
C22 C27 1.385 . S
C23 H4 0.947 . S
C23 C22 1.383 . S
C23 C24 1.388 . S
C24 H5 0.946 . S
C24 C23 1.388 . S
C24 C25 1.384 . S
C25 C24 1.384 . S
C25 C26 1.377 . S
C26 H6 0.953 . S
C26 C25 1.377 . S
C26 C27 1.369 . S
C27 H7 0.945 . S
C27 C22 1.385 . S
C27 C26 1.369 . S
C28 C20 1.457 . S
C28 C29 1.372 . S
C28 C33 1.364 . S
C29 H8 0.952 . S
C29 C28 1.372 . S
C29 C30 1.389 . S
C30 H9 0.949 . S
C30 C29 1.389 . S
C30 C31 1.387 . S
C31 C30 1.387 . S
C31 C32 1.372 . S
C32 H10 0.950 . S
C32 C31 1.372 . S
C32 C33 1.379 . S
C33 H11 0.948 . S
C33 C28 1.364 . S
C33 C32 1.379 . S
C34 C3 1.383 . S
C34 C21 1.479 . S
C34 C35 1.398 . S
C35 C0 1.382 . S
C35 H12 0.951 . S
C35 C34 1.398 . S
C36 C37 1.384 . S
C36 H49 0.942 1_655 S
C36 C71 1.382 . S
C37 C36 1.384 . S
C37 C38 1.378 . S
C38 C37 1.378 . S
C38 C39 1.378 . S
C38 H50 0.952 . S
C39 C38 1.378 . S
C39 H51 0.950 . S
C39 C70 1.383 . S
H40 C59 0.947 . S
H41 C60 0.946 . S
H42 C62 0.953 . S
H43 C63 0.945 . S
H44 C65 0.952 . S
H45 C66 0.949 . S
H46 C68 0.950 . S
H47 C69 0.948 . S
H48 C71 0.951 . S
H49 C36 0.942 1_455 S
H50 C38 0.952 . S
H51 C39 0.950 . S
N52 C55 1.382 . S
N52 C57 1.363 . S
N53 C55 1.371 . S
N53 C56 1.372 . S
N54 C56 1.361 . S
N54 C57 1.377 . S
C55 N52 1.382 . S
C55 N53 1.371 . S
C55 C58 1.480 . S
C56 N53 1.372 . S
C56 N54 1.361 . S
C56 C64 1.457 . S
C57 N52 1.363 . S
C57 N54 1.377 . S
C57 C70 1.479 . S
C58 C55 1.480 . S
C58 C59 1.383 . S
C58 C63 1.385 . S
C59 H40 0.947 . S
C59 C58 1.383 . S
C59 C60 1.388 . S
C60 H41 0.946 . S
C60 C59 1.388 . S
C60 C61 1.384 . S
C61 C60 1.384 . S
C61 C62 1.377 . S
C62 H42 0.953 . S
C62 C61 1.377 . S
C62 C63 1.369 . S
C63 H43 0.945 . S
C63 C58 1.385 . S
C63 C62 1.369 . S
C64 C56 1.457 . S
C64 C65 1.372 . S
C64 C69 1.364 . S
C65 H44 0.952 . S
C65 C64 1.372 . S
C65 C66 1.389 . S
C66 H45 0.949 . S
C66 C65 1.389 . S
C66 C67 1.387 . S
C67 C66 1.387 . S
C67 C68 1.372 . S
C68 H46 0.950 . S
C68 C67 1.372 . S
C68 C69 1.379 . S
C69 H47 0.948 . S
C69 C64 1.364 . S
C69 C68 1.379 . S
C70 C39 1.383 . S
C70 C57 1.479 . S
C70 C71 1.398 . S
C71 C36 1.382 . S
C71 H48 0.951 . S
C71 C70 1.398 . S
C72 C73 1.384 . S
C72 H85 0.947 . S
C72 C107 1.382 . S
C73 C72 1.384 . S
C73 C74 1.378 . S
C74 C73 1.378 . S
C74 C75 1.378 . S
C74 H86 0.952 . S
C75 C74 1.378 . S
C75 H87 0.950 . S
C75 C106 1.383 . S
H76 C95 0.947 . S
H77 C96 0.946 . S
H78 C98 0.953 1_455 S
H79 C99 0.945 . S
H80 C101 0.952 . S
H81 C102 0.949 . S
H82 C104 0.950 . S
H83 C105 0.948 . S
H84 C107 0.951 . S
H85 C72 0.947 . S
H86 C74 0.952 . S
H87 C75 0.950 . S
N88 C91 1.382 . S
N88 C93 1.363 . S
N89 C91 1.371 . S
N89 C92 1.372 . S
N90 C92 1.361 . S
N90 C93 1.377 . S
C91 N88 1.382 . S
C91 N89 1.371 . S
C91 C94 1.480 . S
C92 N89 1.372 . S
C92 N90 1.361 . S
C92 C100 1.457 . S
C93 N88 1.363 . S
C93 N90 1.377 . S
C93 C106 1.479 . S
C94 C91 1.480 . S
C94 C95 1.383 . S
C94 C99 1.385 . S
C95 H76 0.947 . S
C95 C94 1.383 . S
C95 C96 1.388 . S
C96 H77 0.946 . S
C96 C95 1.388 . S
C96 C97 1.384 . S
C97 C96 1.384 . S
C97 C98 1.377 . S
C98 H78 0.953 1_655 S
C98 C97 1.377 . S
C98 C99 1.369 . S
C99 H79 0.945 . S
C99 C94 1.385 . S
C99 C98 1.369 . S
C100 C92 1.457 . S
C100 C101 1.372 . S
C100 C105 1.364 . S
C101 H80 0.952 . S
C101 C100 1.372 . S
C101 C102 1.389 . S
C102 H81 0.949 . S
C102 C101 1.389 . S
C102 C103 1.387 . S
C103 C102 1.387 . S
C103 C104 1.372 . S
C104 H82 0.950 . S
C104 C103 1.372 . S
C104 C105 1.379 . S
C105 H83 0.948 . S
C105 C100 1.364 . S
C105 C104 1.379 . S
C106 C75 1.383 . S
C106 C93 1.479 . S
C106 C107 1.398 . S
C107 C72 1.382 . S
C107 H84 0.951 . S
C107 C106 1.398 . S
C108 C109 1.384 . S
C108 H121 0.947 1_455 S
C108 C143 1.382 . S
C109 C108 1.384 . S
C109 C110 1.378 . S
C110 C109 1.378 . S
C110 C111 1.378 . S
C110 H122 0.952 . S
C111 C110 1.378 . S
C111 H123 0.950 . S
C111 C142 1.383 . S
H112 C131 0.947 . S
H113 C132 0.946 . S
H114 C134 0.953 . S
H115 C135 0.945 . S
H116 C137 0.952 . S
H117 C138 0.949 . S
H118 C140 0.950 . S
H119 C141 0.948 . S
H120 C143 0.951 . S
H121 C108 0.947 1_655 S
H122 C110 0.952 . S
H123 C111 0.950 . S
N124 C127 1.382 . S
N124 C129 1.363 . S
N125 C127 1.371 . S
N125 C128 1.372 . S
N126 C128 1.361 . S
N126 C129 1.377 . S
C127 N124 1.382 . S
C127 N125 1.371 . S
C127 C130 1.480 . S
C128 N125 1.372 . S
C128 N126 1.361 . S
C128 C136 1.457 . S
C129 N124 1.363 . S
C129 N126 1.377 . S
C129 C142 1.479 . S
C130 C127 1.480 . S
C130 C131 1.383 . S
C130 C135 1.385 . S
C131 H112 0.947 . S
C131 C130 1.383 . S
C131 C132 1.388 . S
C132 H113 0.946 . S
C132 C131 1.388 . S
C132 C133 1.384 . S
C133 C132 1.384 . S
C133 C134 1.377 . S
C134 H114 0.953 . S
C134 C133 1.377 . S
C134 C135 1.369 . S
C135 H115 0.945 . S
C135 C130 1.385 . S
C135 C134 1.369 . S
C136 C128 1.457 . S
C136 C137 1.372 . S
C136 C141 1.364 . S
C137 H116 0.952 . S
C137 C136 1.372 . S
C137 C138 1.389 . S
C138 H117 0.949 . S
C138 C137 1.389 . S
C138 C139 1.387 . S
C139 C138 1.387 . S
C139 C140 1.372 . S
C140 H118 0.950 . S
C140 C139 1.372 . S
C140 C141 1.379 . S
C141 H119 0.948 . S
C141 C136 1.364 . S
C141 C140 1.379 . S
C142 C111 1.383 . S
C142 C129 1.479 . S
C142 C143 1.398 . S
C143 C108 1.382 . S
C143 H120 0.951 . S
C143 C142 1.398 . S
C144 C145 1.384 . S
C144 H157 0.947 . S
C144 C179 1.382 . S
C145 C144 1.384 . S
C145 C146 1.378 . S
C146 C145 1.378 . S
C146 C147 1.378 . S
C146 H158 0.952 . S
C147 C146 1.378 . S
C147 H159 0.950 . S
C147 C178 1.383 . S
H148 C167 0.947 . S
H149 C168 0.946 . S
H150 C170 0.953 . S
H151 C171 0.945 . S
H152 C173 0.952 . S
H153 C174 0.949 . S
H154 C176 0.950 . S
H155 C177 0.948 . S
H156 C179 0.951 . S
H157 C144 0.947 . S
H158 C146 0.952 . S
H159 C147 0.950 . S
N160 C163 1.382 . S
N160 C165 1.363 . S
N161 C163 1.371 . S
N161 C164 1.372 . S
N162 C164 1.361 . S
N162 C165 1.377 . S
C163 N160 1.382 . S
C163 N161 1.371 . S
C163 C166 1.480 . S
C164 N161 1.372 . S
C164 N162 1.361 . S
C164 C172 1.457 . S
C165 N160 1.363 . S
C165 N162 1.377 . S
C165 C178 1.479 . S
C166 C163 1.480 . S
C166 C167 1.383 . S
C166 C171 1.385 . S
C167 H148 0.947 . S
C167 C166 1.383 . S
C167 C168 1.388 . S
C168 H149 0.946 . S
C168 C167 1.388 . S
C168 C169 1.384 . S
C169 C168 1.384 . S
C169 C170 1.377 . S
C170 H150 0.953 . S
C170 C169 1.377 . S
C170 C171 1.369 . S
C171 H151 0.945 . S
C171 C166 1.385 . S
C171 C170 1.369 . S
C172 C164 1.457 . S
C172 C173 1.372 . S
C172 C177 1.364 . S
C173 H152 0.952 . S
C173 C172 1.372 . S
C173 C174 1.389 . S
C174 H153 0.949 . S
C174 C173 1.389 . S
C174 C175 1.387 . S
C175 C174 1.387 . S
C175 C176 1.372 . S
C176 H154 0.950 . S
C176 C175 1.372 . S
C176 C177 1.379 . S
C177 H155 0.948 . S
C177 C172 1.364 . S
C177 C176 1.379 . S
C178 C147 1.383 . S
C178 C165 1.479 . S
C178 C179 1.398 . S
C179 C144 1.382 . S
C179 H156 0.951 . S
C179 C178 1.398 . S
C180 C181 1.384 . S
C180 H193 0.947 . S
C180 C215 1.382 . S
C181 C180 1.384 . S
C181 C182 1.378 . S
C182 C181 1.378 . S
C182 C183 1.378 . S
C182 H194 0.952 . S
C183 C182 1.378 . S
C183 H195 0.950 . S
C183 C214 1.383 . S
H184 C203 0.947 . S
H185 C204 0.946 . S
H186 C206 0.953 . S
H187 C207 0.945 . S
H188 C209 0.952 . S
H189 C210 0.949 . S
H190 C212 0.950 . S
H191 C213 0.948 . S
H192 C215 0.951 . S
H193 C180 0.947 . S
H194 C182 0.952 . S
H195 C183 0.950 . S
N196 C199 1.382 . S
N196 C201 1.363 . S
N197 C199 1.371 . S
N197 C200 1.372 . S
N198 C200 1.361 . S
N198 C201 1.377 . S
C199 N196 1.382 . S
C199 N197 1.371 . S
C199 C202 1.480 . S
C200 N197 1.372 . S
C200 N198 1.361 . S
C200 C208 1.457 . S
C201 N196 1.363 . S
C201 N198 1.377 . S
C201 C214 1.479 . S
C202 C199 1.480 . S
C202 C203 1.383 . S
C202 C207 1.385 . S
C203 H184 0.947 . S
C203 C202 1.383 . S
C203 C204 1.388 . S
C204 H185 0.946 . S
C204 C203 1.388 . S
C204 C205 1.384 . S
C205 C204 1.384 . S
C205 C206 1.377 . S
C206 H186 0.953 . S
C206 C205 1.377 . S
C206 C207 1.369 . S
C207 H187 0.945 . S
C207 C202 1.385 . S
C207 C206 1.369 . S
C208 C200 1.457 . S
C208 C209 1.372 . S
C208 C213 1.364 . S
C209 H188 0.952 . S
C209 C208 1.372 . S
C209 C210 1.389 . S
C210 H189 0.949 . S
C210 C209 1.389 . S
C210 C211 1.387 . S
C211 C210 1.387 . S
C211 C212 1.372 . S
C212 H190 0.950 . S
C212 C211 1.372 . S
C212 C213 1.379 . S
C213 H191 0.948 . S
C213 C208 1.364 . S
C213 C212 1.379 . S
C214 C183 1.383 . S
C214 C201 1.479 . S
C214 C215 1.398 . S
C215 C180 1.382 . S
C215 H192 0.951 . S
C215 C214 1.398 . S
C216 C217 1.384 . S
C216 H229 0.947 . S
C216 C251 1.382 . S
C217 C216 1.384 . S
C217 C218 1.378 . S
C218 C217 1.378 . S
C218 C219 1.378 . S
C218 H230 0.952 . S
C219 C218 1.378 . S
C219 H231 0.950 . S
C219 C250 1.383 . S
H220 C239 0.947 . S
H221 C240 0.946 . S
H222 C242 0.953 . S
H223 C243 0.945 . S
H224 C245 0.952 . S
H225 C246 0.949 . S
H226 C248 0.950 . S
H227 C249 0.948 . S
H228 C251 0.951 . S
H229 C216 0.947 . S
H230 C218 0.952 . S
H231 C219 0.950 . S
N232 C235 1.382 . S
N232 C237 1.363 . S
N233 C235 1.371 . S
N233 C236 1.372 . S
N234 C236 1.361 . S
N234 C237 1.377 . S
C235 N232 1.382 . S
C235 N233 1.371 . S
C235 C238 1.480 . S
C236 N233 1.372 . S
C236 N234 1.361 . S
C236 C244 1.457 . S
C237 N232 1.363 . S
C237 N234 1.377 . S
C237 C250 1.479 . S
C238 C235 1.480 . S
C238 C239 1.383 . S
C238 C243 1.385 . S
C239 H220 0.947 . S
C239 C238 1.383 . S
C239 C240 1.388 . S
C240 H221 0.946 . S
C240 C239 1.388 . S
C240 C241 1.384 . S
C241 C240 1.384 . S
C241 C242 1.377 . S
C242 H222 0.953 . S
C242 C241 1.377 . S
C242 C243 1.369 . S
C243 H223 0.945 . S
C243 C238 1.385 . S
C243 C242 1.369 . S
C244 C236 1.457 . S
C244 C245 1.372 . S
C244 C249 1.364 . S
C245 H224 0.952 . S
C245 C244 1.372 . S
C245 C246 1.389 . S
C246 H225 0.949 . S
C246 C245 1.389 . S
C246 C247 1.387 . S
C247 C246 1.387 . S
C247 C248 1.372 . S
C248 H226 0.950 . S
C248 C247 1.372 . S
C248 C249 1.379 . S
C249 H227 0.948 . S
C249 C244 1.364 . S
C249 C248 1.379 . S
C250 C219 1.383 . S
C250 C237 1.479 . S
C250 C251 1.398 . S
C251 C216 1.382 . S
C251 H228 0.951 . S
C251 C250 1.398 . S
C252 C253 1.384 . S
C252 H265 0.947 . S
C252 C287 1.382 . S
C253 C252 1.384 . S
C253 C254 1.378 . S
C254 C253 1.378 . S
C254 C255 1.378 . S
C254 H266 0.952 . S
C255 C254 1.378 . S
C255 H267 0.950 . S
C255 C286 1.383 . S
H256 C275 0.947 . S
H257 C276 0.946 . S
H258 C278 0.953 . S
H259 C279 0.945 . S
H260 C281 0.952 . S
H261 C282 0.949 . S
H262 C284 0.950 . S
H263 C285 0.948 . S
H264 C287 0.951 . S
H265 C252 0.947 . S
H266 C254 0.952 . S
H267 C255 0.950 . S
N268 C271 1.382 . S
N268 C273 1.363 . S
N269 C271 1.371 . S
N269 C272 1.372 . S
N270 C272 1.361 . S
N270 C273 1.377 . S
C271 N268 1.382 . S
C271 N269 1.371 . S
C271 C274 1.480 . S
C272 N269 1.372 . S
C272 N270 1.361 . S
C272 C280 1.457 . S
C273 N268 1.363 . S
C273 N270 1.377 . S
C273 C286 1.479 . S
C274 C271 1.480 . S
C274 C275 1.383 . S
C274 C279 1.385 . S
C275 H256 0.947 . S
C275 C274 1.383 . S
C275 C276 1.388 . S
C276 H257 0.946 . S
C276 C275 1.388 . S
C276 C277 1.384 . S
C277 C276 1.384 . S
C277 C278 1.377 . S
C278 H258 0.953 . S
C278 C277 1.377 . S
C278 C279 1.369 . S
C279 H259 0.945 . S
C279 C274 1.385 . S
C279 C278 1.369 . S
C280 C272 1.457 . S
C280 C281 1.372 . S
C280 C285 1.364 . S
C281 H260 0.952 . S
C281 C280 1.372 . S
C281 C282 1.389 . S
C282 H261 0.949 . S
C282 C281 1.389 . S
C282 C283 1.387 . S
C283 C282 1.387 . S
C283 C284 1.372 . S
C284 H262 0.950 . S
C284 C283 1.372 . S
C284 C285 1.379 . S
C285 H263 0.948 . S
C285 C280 1.364 . S
C285 C284 1.379 . S
C286 C255 1.383 . S
C286 C273 1.479 . S
C286 C287 1.398 . S
C287 C252 1.382 . S
C287 H264 0.951 . S
C287 C286 1.398 . S
C288 C289 1.384 . S
C288 H301 0.947 . S
C288 C323 1.382 . S
C289 C288 1.384 . S
C289 C290 1.378 . S
C290 C289 1.378 . S
C290 C291 1.378 . S
C290 H302 0.952 . S
C291 C290 1.378 . S
C291 H303 0.950 . S
C291 C322 1.383 . S
H292 C311 0.947 . S
H293 C312 0.946 . S
H294 C314 0.953 . S
H295 C315 0.945 . S
H296 C317 0.952 . S
H297 C318 0.949 . S
H298 C320 0.950 . S
H299 C321 0.948 . S
H300 C323 0.951 . S
H301 C288 0.947 . S
H302 C290 0.952 . S
H303 C291 0.950 . S
N304 C307 1.382 . S
N304 C309 1.363 . S
N305 C307 1.371 . S
N305 C308 1.372 . S
N306 C308 1.361 . S
N306 C309 1.377 . S
C307 N304 1.382 . S
C307 N305 1.371 . S
C307 C310 1.480 . S
C308 N305 1.372 . S
C308 N306 1.361 . S
C308 C316 1.457 . S
C309 N304 1.363 . S
C309 N306 1.377 . S
C309 C322 1.479 . S
C310 C307 1.480 . S
C310 C311 1.383 . S
C310 C315 1.385 . S
C311 H292 0.947 . S
C311 C310 1.383 . S
C311 C312 1.388 . S
C312 H293 0.946 . S
C312 C311 1.388 . S
C312 C313 1.384 . S
C313 C312 1.384 . S
C313 C314 1.377 . S
C314 H294 0.953 . S
C314 C313 1.377 . S
C314 C315 1.369 . S
C315 H295 0.945 . S
C315 C310 1.385 . S
C315 C314 1.369 . S
C316 C308 1.457 . S
C316 C317 1.372 . S
C316 C321 1.364 . S
C317 H296 0.952 . S
C317 C316 1.372 . S
C317 C318 1.389 . S
C318 H297 0.949 . S
C318 C317 1.389 . S
C318 C319 1.387 . S
C319 C318 1.387 . S
C319 C320 1.372 . S
C320 H298 0.950 . S
C320 C319 1.372 . S
C320 C321 1.379 . S
C321 H299 0.948 . S
C321 C316 1.364 . S
C321 C320 1.379 . S
C322 C291 1.383 . S
C322 C309 1.479 . S
C322 C323 1.398 . S
C323 C288 1.382 . S
C323 H300 0.951 . S
C323 C322 1.398 . S
C324 C325 1.384 . S
C324 H337 0.947 . S
C324 C359 1.382 . S
C325 C324 1.384 . S
C325 C326 1.378 . S
C326 C325 1.378 . S
C326 C327 1.378 . S
C326 H338 0.952 . S
C327 C326 1.378 . S
C327 H339 0.950 . S
C327 C358 1.383 . S
H328 C347 0.947 . S
H329 C348 0.946 . S
H330 C350 0.953 . S
H331 C351 0.945 . S
H332 C353 0.952 . S
H333 C354 0.949 . S
H334 C356 0.950 . S
H335 C357 0.948 . S
H336 C359 0.951 . S
H337 C324 0.947 . S
H338 C326 0.952 . S
H339 C327 0.950 . S
N340 C343 1.382 . S
N340 C345 1.363 . S
N341 C343 1.371 . S
N341 C344 1.372 . S
N342 C344 1.361 . S
N342 C345 1.377 . S
C343 N340 1.382 . S
C343 N341 1.371 . S
C343 C346 1.480 . S
C344 N341 1.372 . S
C344 N342 1.361 . S
C344 C352 1.457 . S
C345 N340 1.363 . S
C345 N342 1.377 . S
C345 C358 1.479 . S
C346 C343 1.480 . S
C346 C347 1.383 . S
C346 C351 1.385 . S
C347 H328 0.947 . S
C347 C346 1.383 . S
C347 C348 1.388 . S
C348 H329 0.946 . S
C348 C347 1.388 . S
C348 C349 1.384 . S
C349 C348 1.384 . S
C349 C350 1.377 . S
C350 H330 0.953 . S
C350 C349 1.377 . S
C350 C351 1.369 . S
C351 H331 0.945 . S
C351 C346 1.385 . S
C351 C350 1.369 . S
C352 C344 1.457 . S
C352 C353 1.372 . S
C352 C357 1.364 . S
C353 H332 0.952 . S
C353 C352 1.372 . S
C353 C354 1.389 . S
C354 H333 0.949 . S
C354 C353 1.389 . S
C354 C355 1.387 . S
C355 C354 1.387 . S
C355 C356 1.372 . S
C356 H334 0.950 . S
C356 C355 1.372 . S
C356 C357 1.379 . S
C357 H335 0.948 . S
C357 C352 1.364 . S
C357 C356 1.379 . S
C358 C327 1.383 . S
C358 C345 1.479 . S
C358 C359 1.398 . S
C359 C324 1.382 . S
C359 H336 0.951 . S
C359 C358 1.398 . S
C360 C361 1.384 . S
C360 H373 0.947 . S
C360 C395 1.382 . S
C361 C360 1.384 . S
C361 C362 1.378 . S
C362 C361 1.378 . S
C362 C363 1.378 . S
C362 H374 0.952 . S
C363 C362 1.378 . S
C363 H375 0.950 . S
C363 C394 1.383 . S
H364 C383 0.947 . S
H365 C384 0.946 . S
H366 C386 0.953 . S
H367 C387 0.945 . S
H368 C389 0.952 . S
H369 C390 0.949 . S
H370 C392 0.950 . S
H371 C393 0.948 . S
H372 C395 0.951 . S
H373 C360 0.947 . S
H374 C362 0.952 . S
H375 C363 0.950 . S
N376 C379 1.382 . S
N376 C381 1.363 . S
N377 C379 1.371 . S
N377 C380 1.372 . S
N378 C380 1.361 . S
N378 C381 1.377 . S
C379 N376 1.382 . S
C379 N377 1.371 . S
C379 C382 1.480 . S
C380 N377 1.372 . S
C380 N378 1.361 . S
C380 C388 1.457 . S
C381 N376 1.363 . S
C381 N378 1.377 . S
C381 C394 1.479 . S
C382 C379 1.480 . S
C382 C383 1.383 . S
C382 C387 1.385 . S
C383 H364 0.947 . S
C383 C382 1.383 . S
C383 C384 1.388 . S
C384 H365 0.946 . S
C384 C383 1.388 . S
C384 C385 1.384 . S
C385 C384 1.384 . S
C385 C386 1.377 . S
C386 H366 0.953 . S
C386 C385 1.377 . S
C386 C387 1.369 . S
C387 H367 0.945 . S
C387 C382 1.385 . S
C387 C386 1.369 . S
C388 C380 1.457 . S
C388 C389 1.372 . S
C388 C393 1.364 . S
C389 H368 0.952 . S
C389 C388 1.372 . S
C389 C390 1.389 . S
C390 H369 0.949 . S
C390 C389 1.389 . S
C390 C391 1.387 . S
C391 C390 1.387 . S
C391 C392 1.372 . S
C392 H370 0.950 . S
C392 C391 1.372 . S
C392 C393 1.379 . S
C393 H371 0.948 . S
C393 C388 1.364 . S
C393 C392 1.379 . S
C394 C363 1.383 . S
C394 C381 1.479 . S
C394 C395 1.398 . S
C395 C360 1.382 . S
C395 H372 0.951 . S
C395 C394 1.398 . S
C396 C397 1.384 . S
C396 H409 0.947 . S
C396 C431 1.382 . S
C397 C396 1.384 . S
C397 C398 1.378 . S
C398 C397 1.378 . S
C398 C399 1.378 . S
C398 H410 0.952 . S
C399 C398 1.378 . S
C399 H411 0.950 . S
C399 C430 1.383 . S
H400 C419 0.947 . S
H401 C420 0.946 . S
H402 C422 0.953 . S
H403 C423 0.945 . S
H404 C425 0.952 . S
H405 C426 0.949 . S
H406 C428 0.950 . S
H407 C429 0.948 . S
H408 C431 0.951 . S
H409 C396 0.947 . S
H410 C398 0.952 . S
H411 C399 0.950 . S
N412 C415 1.382 . S
N412 C417 1.363 . S
N413 C415 1.371 . S
N413 C416 1.372 . S
N414 C416 1.361 . S
N414 C417 1.377 . S
C415 N412 1.382 . S
C415 N413 1.371 . S
C415 C418 1.480 . S
C416 N413 1.372 . S
C416 N414 1.361 . S
C416 C424 1.457 . S
C417 N412 1.363 . S
C417 N414 1.377 . S
C417 C430 1.479 . S
C418 C415 1.480 . S
C418 C419 1.383 . S
C418 C423 1.385 . S
C419 H400 0.947 . S
C419 C418 1.383 . S
C419 C420 1.388 . S
C420 H401 0.946 . S
C420 C419 1.388 . S
C420 C421 1.384 . S
C421 C420 1.384 . S
C421 C422 1.377 . S
C422 H402 0.953 . S
C422 C421 1.377 . S
C422 C423 1.369 . S
C423 H403 0.945 . S
C423 C418 1.385 . S
C423 C422 1.369 . S
C424 C416 1.457 . S
C424 C425 1.372 . S
C424 C429 1.364 . S
C425 H404 0.952 . S
C425 C424 1.372 . S
C425 C426 1.389 . S
C426 H405 0.949 . S
C426 C425 1.389 . S
C426 C427 1.387 . S
C427 C426 1.387 . S
C427 C428 1.372 . S
C428 H406 0.950 . S
C428 C427 1.372 . S
C428 C429 1.379 . S
C429 H407 0.948 . S
C429 C424 1.364 . S
C429 C428 1.379 . S
C430 C399 1.383 . S
C430 C417 1.479 . S
C430 C431 1.398 . S
C431 C396 1.382 . S
C431 H408 0.951 . S
C431 C430 1.398 . S
C432 C433 1.384 . S
C432 H445 0.947 . S
C432 C467 1.382 . S
C433 C432 1.384 . S
C433 C434 1.378 . S
C434 C433 1.378 . S
C434 C435 1.378 . S
C434 H446 0.952 . S
C435 C434 1.378 . S
C435 H447 0.950 . S
C435 C466 1.383 . S
H436 C455 0.947 . S
H437 C456 0.946 . S
H438 C458 0.953 . S
H439 C459 0.945 . S
H440 C461 0.952 . S
H441 C462 0.949 . S
H442 C464 0.950 . S
H443 C465 0.948 . S
H444 C467 0.951 . S
H445 C432 0.947 . S
H446 C434 0.952 . S
H447 C435 0.950 . S
N448 C451 1.382 . S
N448 C453 1.363 . S
N449 C451 1.371 . S
N449 C452 1.372 . S
N450 C452 1.361 . S
N450 C453 1.377 . S
C451 N448 1.382 . S
C451 N449 1.371 . S
C451 C454 1.480 . S
C452 N449 1.372 . S
C452 N450 1.361 . S
C452 C460 1.457 . S
C453 N448 1.363 . S
C453 N450 1.377 . S
C453 C466 1.479 . S
C454 C451 1.480 . S
C454 C455 1.383 . S
C454 C459 1.385 . S
C455 H436 0.947 . S
C455 C454 1.383 . S
C455 C456 1.388 . S
C456 H437 0.946 . S
C456 C455 1.388 . S
C456 C457 1.384 . S
C457 C456 1.384 . S
C457 C458 1.377 . S
C458 H438 0.953 . S
C458 C457 1.377 . S
C458 C459 1.369 . S
C459 H439 0.945 . S
C459 C454 1.385 . S
C459 C458 1.369 . S
C460 C452 1.457 . S
C460 C461 1.372 . S
C460 C465 1.364 . S
C461 H440 0.952 . S
C461 C460 1.372 . S
C461 C462 1.389 . S
C462 H441 0.949 . S
C462 C461 1.389 . S
C462 C463 1.387 . S
C463 C462 1.387 . S
C463 C464 1.372 . S
C464 H442 0.950 . S
C464 C463 1.372 . S
C464 C465 1.379 . S
C465 H443 0.948 . S
C465 C460 1.364 . S
C465 C464 1.379 . S
C466 C435 1.383 . S
C466 C453 1.479 . S
C466 C467 1.398 . S
C467 C432 1.382 . S
C467 H444 0.951 . S
C467 C466 1.398 . S
C468 C469 1.384 . S
C468 H481 0.947 . S
C468 C503 1.382 . S
C469 C468 1.384 . S
C469 C470 1.378 . S
C470 C469 1.378 . S
C470 C471 1.378 . S
C470 H482 0.952 . S
C471 C470 1.378 . S
C471 H483 0.950 . S
C471 C502 1.383 . S
H472 C491 0.947 . S
H473 C492 0.946 . S
H474 C494 0.953 . S
H475 C495 0.945 . S
H476 C497 0.952 . S
H477 C498 0.949 . S
H478 C500 0.950 . S
H479 C501 0.948 . S
H480 C503 0.951 . S
H481 C468 0.947 . S
H482 C470 0.952 . S
H483 C471 0.950 . S
N484 C487 1.382 . S
N484 C489 1.363 . S
N485 C487 1.371 . S
N485 C488 1.372 . S
N486 C488 1.361 . S
N486 C489 1.377 . S
C487 N484 1.382 . S
C487 N485 1.371 . S
C487 C490 1.480 . S
C488 N485 1.372 . S
C488 N486 1.361 . S
C488 C496 1.457 . S
C489 N484 1.363 . S
C489 N486 1.377 . S
C489 C502 1.479 . S
C490 C487 1.480 . S
C490 C491 1.383 . S
C490 C495 1.385 . S
C491 H472 0.947 . S
C491 C490 1.383 . S
C491 C492 1.388 . S
C492 H473 0.946 . S
C492 C491 1.388 . S
C492 C493 1.384 . S
C493 C492 1.384 . S
C493 C494 1.377 . S
C494 H474 0.953 . S
C494 C493 1.377 . S
C494 C495 1.369 . S
C495 H475 0.945 . S
C495 C490 1.385 . S
C495 C494 1.369 . S
C496 C488 1.457 . S
C496 C497 1.372 . S
C496 C501 1.364 . S
C497 H476 0.952 . S
C497 C496 1.372 . S
C497 C498 1.389 . S
C498 H477 0.949 . S
C498 C497 1.389 . S
C498 C499 1.387 . S
C499 C498 1.387 . S
C499 C500 1.372 . S
C500 H478 0.950 . S
C500 C499 1.372 . S
C500 C501 1.379 . S
C501 H479 0.948 . S
C501 C496 1.364 . S
C501 C500 1.379 . S
C502 C471 1.383 . S
C502 C489 1.479 . S
C502 C503 1.398 . S
C503 C468 1.382 . S
C503 H480 0.951 . S
C503 C502 1.398 . S
C504 C505 1.384 . S
C504 H517 0.947 . S
C504 C539 1.382 . S
C505 C504 1.384 . S
C505 C506 1.378 . S
C506 C505 1.378 . S
C506 C507 1.378 . S
C506 H518 0.952 . S
C507 C506 1.378 . S
C507 H519 0.950 . S
C507 C538 1.383 . S
H508 C527 0.947 . S
H509 C528 0.946 . S
H510 C530 0.953 . S
H511 C531 0.945 . S
H512 C533 0.952 . S
H513 C534 0.949 . S
H514 C536 0.950 . S
H515 C537 0.948 . S
H516 C539 0.951 . S
H517 C504 0.947 . S
H518 C506 0.952 . S
H519 C507 0.950 . S
N520 C523 1.382 . S
N520 C525 1.363 . S
N521 C523 1.371 . S
N521 C524 1.372 . S
N522 C524 1.361 . S
N522 C525 1.377 . S
C523 N520 1.382 . S
C523 N521 1.371 . S
C523 C526 1.480 . S
C524 N521 1.372 . S
C524 N522 1.361 . S
C524 C532 1.457 . S
C525 N520 1.363 . S
C525 N522 1.377 . S
C525 C538 1.479 . S
C526 C523 1.480 . S
C526 C527 1.383 . S
C526 C531 1.385 . S
C527 H508 0.947 . S
C527 C526 1.383 . S
C527 C528 1.388 . S
C528 H509 0.946 . S
C528 C527 1.388 . S
C528 C529 1.384 . S
C529 C528 1.384 . S
C529 C530 1.377 . S
C530 H510 0.953 . S
C530 C529 1.377 . S
C530 C531 1.369 . S
C531 H511 0.945 . S
C531 C526 1.385 . S
C531 C530 1.369 . S
C532 C524 1.457 . S
C532 C533 1.372 . S
C532 C537 1.364 . S
C533 H512 0.952 . S
C533 C532 1.372 . S
C533 C534 1.389 . S
C534 H513 0.949 . S
C534 C533 1.389 . S
C534 C535 1.387 . S
C535 C534 1.387 . S
C535 C536 1.372 . S
C536 H514 0.950 . S
C536 C535 1.372 . S
C536 C537 1.379 . S
C537 H515 0.948 . S
C537 C532 1.364 . S
C537 C536 1.379 . S
C538 C507 1.383 . S
C538 C525 1.479 . S
C538 C539 1.398 . S
C539 C504 1.382 . S
C539 H516 0.951 . S
C539 C538 1.398 . S
C540 C541 1.384 . S
C540 H553 0.947 . S
C540 C575 1.382 . S
C541 C540 1.384 . S
C541 C542 1.378 . S
C542 C541 1.378 . S
C542 C543 1.378 . S
C542 H554 0.952 . S
C543 C542 1.378 . S
C543 H555 0.950 . S
C543 C574 1.383 . S
H544 C563 0.947 . S
H545 C564 0.946 . S
H546 C566 0.953 . S
H547 C567 0.945 . S
H548 C569 0.952 . S
H549 C570 0.949 . S
H550 C572 0.950 . S
H551 C573 0.948 . S
H552 C575 0.951 . S
H553 C540 0.947 . S
H554 C542 0.952 . S
H555 C543 0.950 . S
N556 C559 1.382 . S
N556 C561 1.363 . S
N557 C559 1.371 . S
N557 C560 1.372 . S
N558 C560 1.361 . S
N558 C561 1.377 . S
C559 N556 1.382 . S
C559 N557 1.371 . S
C559 C562 1.480 . S
C560 N557 1.372 . S
C560 N558 1.361 . S
C560 C568 1.457 . S
C561 N556 1.363 . S
C561 N558 1.377 . S
C561 C574 1.479 . S
C562 C559 1.480 . S
C562 C563 1.383 . S
C562 C567 1.385 . S
C563 H544 0.947 . S
C563 C562 1.383 . S
C563 C564 1.388 . S
C564 H545 0.946 . S
C564 C563 1.388 . S
C564 C565 1.384 . S
C565 C564 1.384 . S
C565 C566 1.377 . S
C566 H546 0.953 . S
C566 C565 1.377 . S
C566 C567 1.369 . S
C567 H547 0.945 . S
C567 C562 1.385 . S
C567 C566 1.369 . S
C568 C560 1.457 . S
C568 C569 1.372 . S
C568 C573 1.364 . S
C569 H548 0.952 . S
C569 C568 1.372 . S
C569 C570 1.389 . S
C570 H549 0.949 . S
C570 C569 1.389 . S
C570 C571 1.387 . S
C571 C570 1.387 . S
C571 C572 1.372 . S
C572 H550 0.950 . S
C572 C571 1.372 . S
C572 C573 1.379 . S
C573 H551 0.948 . S
C573 C568 1.364 . S
C573 C572 1.379 . S
C574 C543 1.383 . S
C574 C561 1.479 . S
C574 C575 1.398 . S
C575 C540 1.382 . S
C575 H552 0.951 . S
C575 C574 1.398 . S
C576 C577 1.384 . S
C576 H589 0.947 . S
C576 C611 1.382 . S
C577 C576 1.384 . S
C577 C578 1.378 . S
C578 C577 1.378 . S
C578 C579 1.378 . S
C578 H590 0.952 . S
C579 C578 1.378 . S
C579 H591 0.950 . S
C579 C610 1.383 . S
H580 C599 0.947 . S
H581 C600 0.946 . S
H582 C602 0.953 . S
H583 C603 0.945 . S
H584 C605 0.952 . S
H585 C606 0.949 . S
H586 C608 0.950 . S
H587 C609 0.948 . S
H588 C611 0.951 . S
H589 C576 0.947 . S
H590 C578 0.952 . S
H591 C579 0.950 . S
N592 C595 1.382 . S
N592 C597 1.363 . S
N593 C595 1.371 . S
N593 C596 1.372 . S
N594 C596 1.361 . S
N594 C597 1.377 . S
C595 N592 1.382 . S
C595 N593 1.371 . S
C595 C598 1.480 . S
C596 N593 1.372 . S
C596 N594 1.361 . S
C596 C604 1.457 . S
C597 N592 1.363 . S
C597 N594 1.377 . S
C597 C610 1.479 . S
C598 C595 1.480 . S
C598 C599 1.383 . S
C598 C603 1.385 . S
C599 H580 0.947 . S
C599 C598 1.383 . S
C599 C600 1.388 . S
C600 H581 0.946 . S
C600 C599 1.388 . S
C600 C601 1.384 . S
C601 C600 1.384 . S
C601 C602 1.377 . S
C602 H582 0.953 . S
C602 C601 1.377 . S
C602 C603 1.369 . S
C603 H583 0.945 . S
C603 C598 1.385 . S
C603 C602 1.369 . S
C604 C596 1.457 . S
C604 C605 1.372 . S
C604 C609 1.364 . S
C605 H584 0.952 . S
C605 C604 1.372 . S
C605 C606 1.389 . S
C606 H585 0.949 . S
C606 C605 1.389 . S
C606 C607 1.387 . S
C607 C606 1.387 . S
C607 C608 1.372 . S
C608 H586 0.950 . S
C608 C607 1.372 . S
C608 C609 1.379 . S
C609 H587 0.948 . S
C609 C604 1.364 . S
C609 C608 1.379 . S
C610 C579 1.383 . S
C610 C597 1.479 . S
C610 C611 1.398 . S
C611 C576 1.382 . S
C611 H588 0.951 . S
C611 C610 1.398 . S
C612 C613 1.384 . S
C612 H625 0.947 . S
C612 C647 1.382 . S
C613 C612 1.384 . S
C613 C614 1.378 . S
C614 C613 1.378 . S
C614 C615 1.378 . S
C614 H626 0.952 . S
C615 C614 1.378 . S
C615 H627 0.950 . S
C615 C646 1.383 . S
H616 C635 0.947 . S
H617 C636 0.946 . S
H618 C638 0.953 . S
H619 C639 0.945 . S
H620 C641 0.952 . S
H621 C642 0.949 . S
H622 C644 0.950 . S
H623 C645 0.948 . S
H624 C647 0.951 . S
H625 C612 0.947 . S
H626 C614 0.952 . S
H627 C615 0.950 . S
N628 C631 1.382 . S
N628 C633 1.363 . S
N629 C631 1.371 . S
N629 C632 1.372 . S
N630 C632 1.361 . S
N630 C633 1.377 . S
C631 N628 1.382 . S
C631 N629 1.371 . S
C631 C634 1.480 . S
C632 N629 1.372 . S
C632 N630 1.361 . S
C632 C640 1.457 . S
C633 N628 1.363 . S
C633 N630 1.377 . S
C633 C646 1.479 . S
C634 C631 1.480 . S
C634 C635 1.383 . S
C634 C639 1.385 . S
C635 H616 0.947 . S
C635 C634 1.383 . S
C635 C636 1.388 . S
C636 H617 0.946 . S
C636 C635 1.388 . S
C636 C637 1.384 . S
C637 C636 1.384 . S
C637 C638 1.377 . S
C638 H618 0.953 . S
C638 C637 1.377 . S
C638 C639 1.369 . S
C639 H619 0.945 . S
C639 C634 1.385 . S
C639 C638 1.369 . S
C640 C632 1.457 . S
C640 C641 1.372 . S
C640 C645 1.364 . S
C641 H620 0.952 . S
C641 C640 1.372 . S
C641 C642 1.389 . S
C642 H621 0.949 . S
C642 C641 1.389 . S
C642 C643 1.387 . S
C643 C642 1.387 . S
C643 C644 1.372 . S
C644 H622 0.950 . S
C644 C643 1.372 . S
C644 C645 1.379 . S
C645 H623 0.948 . S
C645 C640 1.364 . S
C645 C644 1.379 . S
C646 C615 1.383 . S
C646 C633 1.479 . S
C646 C647 1.398 . S
C647 C612 1.382 . S
C647 H624 0.951 . S
C647 C646 1.398 . S
Eu648 N679 2.657 . S
Eu648 N686 2.609 . S
Eu648 O692 2.558 . S
Eu648 O693 2.612 1_565 S
Eu648 O695 2.339 1_565 S
Eu648 O696 2.563 1_565 S
Eu648 O697 2.419 . S
Eu648 O699 2.380 1_556 S
Eu648 O700 2.432 . S
Eu648 C712 2.848 . S
C649 C652 1.429 . S
C649 C653 1.411 . S
C649 N656 1.377 . S
C650 C652 1.420 . S
C650 C654 1.423 . S
C650 C662 1.392 . S
C651 C653 1.420 . S
C651 C654 1.351 . S
C651 H674 0.931 . S
C652 C649 1.429 . S
C652 C650 1.420 . S
C652 N660 1.362 . S
C653 C649 1.411 . S
C653 C651 1.420 . S
C653 C658 1.395 . S
C654 C650 1.423 . S
C654 C651 1.351 . S
C654 H666 0.930 . S
C655 C657 1.400 . S
C655 C658 1.386 . S
C655 H667 0.930 . S
N656 C649 1.377 . S
N656 C657 1.321 . S
N656 Eu659 2.609 . S
C657 C655 1.400 . S
C657 N656 1.321 . S
C657 H664 0.930 . S
C658 C653 1.395 . S
C658 C655 1.386 . S
C658 H677 0.930 . S
Eu659 N656 2.609 . S
Eu659 N660 2.657 . S
Eu659 O693 2.380 1_554 S
Eu659 O694 2.432 . S
Eu659 O698 2.558 . S
Eu659 O699 2.612 1_545 S
Eu659 O701 2.339 1_545 S
Eu659 O702 2.563 1_545 S
Eu659 O703 2.419 . S
Eu659 C723 2.848 . S
N660 C652 1.362 . S
N660 Eu659 2.657 . S
N660 C661 1.334 . S
C661 N660 1.334 . S
C661 C663 1.413 . S
C661 H668 0.929 . S
C662 C650 1.392 . S
C662 C663 1.367 . S
C662 H670 0.930 . S
C663 C661 1.413 . S
C663 C662 1.367 . S
C663 H665 0.930 . S
H664 C657 0.930 . S
H665 C663 0.930 . S
H666 C654 0.930 . S
H667 C655 0.930 . S
H668 C661 0.929 . S
H669 C683 0.930 . S
H670 C662 0.930 . S
H671 C689 0.930 . S
H672 C680 0.929 . S
H673 C687 0.930 . S
H674 C651 0.931 . S
H675 C681 0.930 . S
H676 C714 0.930 . S
H677 C658 0.930 . S
H678 C713 0.931 . S
N679 Eu648 2.657 . S
N679 C680 1.334 . S
N679 C684 1.362 . S
C680 H672 0.929 . S
C680 N679 1.334 . S
C680 C683 1.413 . S
C681 H675 0.930 . S
C681 C682 1.392 . S
C681 C683 1.367 . S
C682 C681 1.392 . S
C682 C684 1.420 . S
C682 C714 1.423 . S
C683 H669 0.930 . S
C683 C680 1.413 . S
C683 C681 1.367 . S
C684 N679 1.362 . S
C684 C682 1.420 . S
C684 C688 1.429 . S
H685 C690 0.930 . S
N686 Eu648 2.609 . S
N686 C688 1.377 . S
N686 C689 1.321 . S
C687 H673 0.930 . S
C687 C689 1.400 . S
C687 C690 1.386 . S
C688 C684 1.429 . S
C688 N686 1.377 . S
C688 C691 1.411 . S
C689 H671 0.930 . S
C689 N686 1.321 . S
C689 C687 1.400 . S
C690 H685 0.930 . S
C690 C687 1.386 . S
C690 C691 1.395 . S
C691 C688 1.411 . S
C691 C690 1.395 . S
C691 C713 1.420 . S
O692 Eu648 2.558 . S
O692 C712 1.257 . S
O693 Eu648 2.612 1_545 S
O693 Eu659 2.380 1_556 S
O693 C704 1.276 . S
O694 Eu659 2.432 . S
O694 C711 1.264 1_554 S
O695 Eu648 2.339 1_545 S
O695 C711 1.254 . S
O696 Eu648 2.563 1_545 S
O696 C704 1.235 . S
O697 Eu648 2.419 . S
O697 C712 1.249 . S
O698 Eu659 2.558 . S
O698 C723 1.257 . S
O699 Eu648 2.380 1_554 S
O699 Eu659 2.612 1_565 S
O699 C715 1.276 . S
O700 Eu648 2.432 . S
O700 C722 1.264 1_556 S
O701 Eu659 2.339 1_565 S
O701 C722 1.254 . S
O702 Eu659 2.563 1_565 S
O702 C715 1.235 . S
O703 Eu659 2.419 . S
O703 C723 1.249 . S
C704 O693 1.276 . S
C704 O696 1.235 . S
C705 C707 1.393 1_565 S
C705 C709 1.395 . S
C705 C712 1.492 . S
C706 C707 1.392 . S
C706 C708 1.386 1_545 S
C707 C705 1.393 1_545 S
C707 C706 1.392 . S
C707 H724 0.930 . S
C708 C706 1.386 1_565 S
C708 C710 1.395 . S
C708 H725 0.930 . S
C709 C705 1.395 . S
C709 C710 1.379 . S
C709 H726 0.930 . S
C710 C708 1.395 . S
C710 C709 1.379 . S
C710 H727 0.930 . S
C711 O694 1.264 1_556 S
C711 O695 1.254 . S
C712 Eu648 2.848 . S
C712 O692 1.257 . S
C712 O697 1.249 . S
C712 C705 1.492 . S
C713 H678 0.931 . S
C713 C691 1.420 . S
C713 C714 1.351 . S
C714 H676 0.930 . S
C714 C682 1.423 . S
C714 C713 1.351 . S
C715 O699 1.276 . S
C715 O702 1.235 . S
C716 C717 1.393 1_545 S
C716 C720 1.395 . S
C716 C723 1.492 . S
C717 C716 1.393 1_565 S
C717 C718 1.392 . S
C717 H728 0.930 . S
C718 C717 1.392 . S
C718 C719 1.386 1_565 S
C719 C718 1.386 1_545 S
C719 C721 1.395 . S
C719 H729 0.930 . S
C720 C716 1.395 . S
C720 C721 1.379 . S
C720 H730 0.930 . S
C721 C719 1.395 . S
C721 C720 1.379 . S
C721 H731 0.930 . S
C722 O700 1.264 1_554 S
C722 O701 1.254 . S
C723 Eu659 2.848 . S
C723 O698 1.257 . S
C723 O703 1.249 . S
C723 C716 1.492 . S
H724 C707 0.930 . S
H725 C708 0.930 . S
H726 C709 0.930 . S
H727 C710 0.930 . S
H728 C717 0.930 . S
H729 C719 0.930 . S
H730 C720 0.930 . S
H731 C721 0.930 . S
Eu732 N763 2.657 . S
Eu732 N770 2.609 . S
Eu732 O776 2.558 . S
Eu732 O777 2.612 1_455 S
Eu732 O779 2.339 1_455 S
Eu732 O780 2.563 1_455 S
Eu732 O781 2.419 . S
Eu732 O783 2.380 1_556 S
Eu732 O784 2.432 . S
Eu732 C796 2.848 . S
C733 C736 1.429 . S
C733 C737 1.411 . S
C733 N740 1.377 . S
C734 C736 1.420 . S
C734 C738 1.423 . S
C734 C746 1.392 . S
C735 C737 1.420 . S
C735 C738 1.351 . S
C735 H758 0.931 . S
C736 C733 1.429 . S
C736 C734 1.420 . S
C736 N744 1.362 . S
C737 C733 1.411 . S
C737 C735 1.420 . S
C737 C742 1.395 . S
C738 C734 1.423 . S
C738 C735 1.351 . S
C738 H750 0.930 . S
C739 C741 1.400 . S
C739 C742 1.386 . S
C739 H751 0.930 . S
N740 C733 1.377 . S
N740 C741 1.321 . S
N740 Eu743 2.609 . S
C741 C739 1.400 . S
C741 N740 1.321 . S
C741 H748 0.930 . S
C742 C737 1.395 . S
C742 C739 1.386 . S
C742 H761 0.930 . S
Eu743 N740 2.609 . S
Eu743 N744 2.657 . S
Eu743 O777 2.380 1_554 S
Eu743 O778 2.432 . S
Eu743 O782 2.558 . S
Eu743 O783 2.612 1_655 S
Eu743 O785 2.339 1_655 S
Eu743 O786 2.563 1_655 S
Eu743 O787 2.419 . S
Eu743 C807 2.848 . S
N744 C736 1.362 . S
N744 Eu743 2.657 . S
N744 C745 1.334 . S
C745 N744 1.334 . S
C745 C747 1.413 . S
C745 H752 0.929 . S
C746 C734 1.392 . S
C746 C747 1.367 . S
C746 H754 0.930 . S
C747 C745 1.413 . S
C747 C746 1.367 . S
C747 H749 0.930 . S
H748 C741 0.930 . S
H749 C747 0.930 . S
H750 C738 0.930 . S
H751 C739 0.930 . S
H752 C745 0.929 . S
H753 C767 0.930 . S
H754 C746 0.930 . S
H755 C773 0.930 . S
H756 C764 0.929 . S
H757 C771 0.930 . S
H758 C735 0.931 . S
H759 C765 0.930 . S
H760 C798 0.930 . S
H761 C742 0.930 . S
H762 C797 0.931 . S
N763 Eu732 2.657 . S
N763 C764 1.334 . S
N763 C768 1.362 . S
C764 H756 0.929 . S
C764 N763 1.334 . S
C764 C767 1.413 . S
C765 H759 0.930 . S
C765 C766 1.392 . S
C765 C767 1.367 . S
C766 C765 1.392 . S
C766 C768 1.420 . S
C766 C798 1.423 . S
C767 H753 0.930 . S
C767 C764 1.413 . S
C767 C765 1.367 . S
C768 N763 1.362 . S
C768 C766 1.420 . S
C768 C772 1.429 . S
H769 C774 0.930 . S
N770 Eu732 2.609 . S
N770 C772 1.377 . S
N770 C773 1.321 . S
C771 H757 0.930 . S
C771 C773 1.400 . S
C771 C774 1.386 . S
C772 C768 1.429 . S
C772 N770 1.377 . S
C772 C775 1.411 . S
C773 H755 0.930 . S
C773 N770 1.321 . S
C773 C771 1.400 . S
C774 H769 0.930 . S
C774 C771 1.386 . S
C774 C775 1.395 . S
C775 C772 1.411 . S
C775 C774 1.395 . S
C775 C797 1.420 . S
O776 Eu732 2.558 . S
O776 C796 1.257 . S
O777 Eu732 2.612 1_655 S
O777 Eu743 2.380 1_556 S
O777 C788 1.276 . S
O778 Eu743 2.432 . S
O778 C795 1.264 1_554 S
O779 Eu732 2.339 1_655 S
O779 C795 1.254 . S
O780 Eu732 2.563 1_655 S
O780 C788 1.235 . S
O781 Eu732 2.419 . S
O781 C796 1.249 . S
O782 Eu743 2.558 . S
O782 C807 1.257 . S
O783 Eu732 2.380 1_554 S
O783 Eu743 2.612 1_455 S
O783 C799 1.276 . S
O784 Eu732 2.432 . S
O784 C806 1.264 1_556 S
O785 Eu743 2.339 1_455 S
O785 C806 1.254 . S
O786 Eu743 2.563 1_455 S
O786 C799 1.235 . S
O787 Eu743 2.419 . S
O787 C807 1.249 . S
C788 O777 1.276 . S
C788 O780 1.235 . S
C789 C791 1.393 1_455 S
C789 C793 1.395 . S
C789 C796 1.492 . S
C790 C791 1.392 . S
C790 C792 1.386 1_655 S
C791 C789 1.393 1_655 S
C791 C790 1.392 . S
C791 H808 0.930 . S
C792 C790 1.386 1_455 S
C792 C794 1.395 . S
C792 H809 0.930 . S
C793 C789 1.395 . S
C793 C794 1.379 . S
C793 H810 0.930 . S
C794 C792 1.395 . S
C794 C793 1.379 . S
C794 H811 0.930 . S
C795 O778 1.264 1_556 S
C795 O779 1.254 . S
C796 Eu732 2.848 . S
C796 O776 1.257 . S
C796 O781 1.249 . S
C796 C789 1.492 . S
C797 H762 0.931 . S
C797 C775 1.420 . S
C797 C798 1.351 . S
C798 H760 0.930 . S
C798 C766 1.423 . S
C798 C797 1.351 . S
C799 O783 1.276 . S
C799 O786 1.235 . S
C800 C801 1.393 1_655 S
C800 C804 1.395 . S
C800 C807 1.492 . S
C801 C800 1.393 1_455 S
C801 C802 1.392 . S
C801 H812 0.930 . S
C802 C801 1.392 . S
C802 C803 1.386 1_455 S
C803 C802 1.386 1_655 S
C803 C805 1.395 . S
C803 H813 0.930 . S
C804 C800 1.395 . S
C804 C805 1.379 . S
C804 H814 0.930 . S
C805 C803 1.395 . S
C805 C804 1.379 . S
C805 H815 0.930 . S
C806 O784 1.264 1_554 S
C806 O785 1.254 . S
C807 Eu743 2.848 . S
C807 O782 1.257 . S
C807 O787 1.249 . S
C807 C800 1.492 . S
H808 C791 0.930 . S
H809 C792 0.930 . S
H810 C793 0.930 . S
H811 C794 0.930 . S
H812 C801 0.930 . S
H813 C803 0.930 . S
H814 C804 0.930 . S
H815 C805 0.930 . S
Eu816 N847 2.657 . S
Eu816 N854 2.609 . S
Eu816 O860 2.558 . S
Eu816 O861 2.612 . S
Eu816 O863 2.339 . S
Eu816 O864 2.563 . S
Eu816 O865 2.419 . S
Eu816 O867 2.380 1_554 S
Eu816 O868 2.432 . S
Eu816 C880 2.848 . S
C817 C820 1.429 . S
C817 C821 1.411 . S
C817 N824 1.377 . S
C818 C820 1.420 . S
C818 C822 1.423 . S
C818 C830 1.392 . S
C819 C821 1.420 . S
C819 C822 1.351 . S
C819 H842 0.931 . S
C820 C817 1.429 . S
C820 C818 1.420 . S
C820 N828 1.362 . S
C821 C817 1.411 . S
C821 C819 1.420 . S
C821 C826 1.395 . S
C822 C818 1.423 . S
C822 C819 1.351 . S
C822 H834 0.930 . S
C823 C825 1.400 . S
C823 C826 1.386 . S
C823 H835 0.930 . S
N824 C817 1.377 . S
N824 C825 1.321 . S
N824 Eu827 2.609 . S
C825 C823 1.400 . S
C825 N824 1.321 . S
C825 H832 0.930 . S
C826 C821 1.395 . S
C826 C823 1.386 . S
C826 H845 0.930 . S
Eu827 N824 2.609 . S
Eu827 N828 2.657 . S
Eu827 O861 2.380 1_556 S
Eu827 O862 2.432 . S
Eu827 O866 2.558 . S
Eu827 O867 2.612 . S
Eu827 O869 2.339 . S
Eu827 O870 2.563 . S
Eu827 O871 2.419 . S
Eu827 C891 2.848 . S
N828 C820 1.362 . S
N828 Eu827 2.657 . S
N828 C829 1.334 . S
C829 N828 1.334 . S
C829 C831 1.413 . S
C829 H836 0.929 . S
C830 C818 1.392 . S
C830 C831 1.367 . S
C830 H838 0.930 . S
C831 C829 1.413 . S
C831 C830 1.367 . S
C831 H833 0.930 . S
H832 C825 0.930 . S
H833 C831 0.930 . S
H834 C822 0.930 . S
H835 C823 0.930 . S
H836 C829 0.929 . S
H837 C851 0.930 . S
H838 C830 0.930 . S
H839 C857 0.930 . S
H840 C848 0.929 . S
H841 C855 0.930 . S
H842 C819 0.931 . S
H843 C849 0.930 . S
H844 C882 0.930 . S
H845 C826 0.930 . S
H846 C881 0.931 . S
N847 Eu816 2.657 . S
N847 C848 1.334 . S
N847 C852 1.362 . S
C848 H840 0.929 . S
C848 N847 1.334 . S
C848 C851 1.413 . S
C849 H843 0.930 . S
C849 C850 1.392 . S
C849 C851 1.367 . S
C850 C849 1.392 . S
C850 C852 1.420 . S
C850 C882 1.423 . S
C851 H837 0.930 . S
C851 C848 1.413 . S
C851 C849 1.367 . S
C852 N847 1.362 . S
C852 C850 1.420 . S
C852 C856 1.429 . S
H853 C858 0.930 . S
N854 Eu816 2.609 . S
N854 C856 1.377 . S
N854 C857 1.321 . S
C855 H841 0.930 . S
C855 C857 1.400 . S
C855 C858 1.386 . S
C856 C852 1.429 . S
C856 N854 1.377 . S
C856 C859 1.411 . S
C857 H839 0.930 . S
C857 N854 1.321 . S
C857 C855 1.400 . S
C858 H853 0.930 . S
C858 C855 1.386 . S
C858 C859 1.395 . S
C859 C856 1.411 . S
C859 C858 1.395 . S
C859 C881 1.420 . S
O860 Eu816 2.558 . S
O860 C880 1.257 . S
O861 Eu816 2.612 . S
O861 Eu827 2.380 1_554 S
O861 C872 1.276 . S
O862 Eu827 2.432 . S
O862 C879 1.264 1_556 S
O863 Eu816 2.339 . S
O863 C879 1.254 . S
O864 Eu816 2.563 . S
O864 C872 1.235 . S
O865 Eu816 2.419 . S
O865 C880 1.249 . S
O866 Eu827 2.558 . S
O866 C891 1.257 . S
O867 Eu816 2.380 1_556 S
O867 Eu827 2.612 . S
O867 C883 1.276 . S
O868 Eu816 2.432 . S
O868 C890 1.264 1_554 S
O869 Eu827 2.339 . S
O869 C890 1.254 . S
O870 Eu827 2.563 . S
O870 C883 1.235 . S
O871 Eu827 2.419 . S
O871 C891 1.249 . S
C872 O861 1.276 . S
C872 O864 1.235 . S
C873 C875 1.393 . S
C873 C877 1.395 . S
C873 C880 1.492 . S
C874 C875 1.392 . S
C874 C876 1.386 . S
C875 C873 1.393 . S
C875 C874 1.392 . S
C875 H892 0.930 . S
C876 C874 1.386 . S
C876 C878 1.395 . S
C876 H893 0.930 . S
C877 C873 1.395 . S
C877 C878 1.379 . S
C877 H894 0.930 . S
C878 C876 1.395 . S
C878 C877 1.379 . S
C878 H895 0.930 . S
C879 O862 1.264 1_554 S
C879 O863 1.254 . S
C880 Eu816 2.848 . S
C880 O860 1.257 . S
C880 O865 1.249 . S
C880 C873 1.492 . S
C881 H846 0.931 . S
C881 C859 1.420 . S
C881 C882 1.351 . S
C882 H844 0.930 . S
C882 C850 1.423 . S
C882 C881 1.351 . S
C883 O867 1.276 . S
C883 O870 1.235 . S
C884 C885 1.393 . S
C884 C888 1.395 . S
C884 C891 1.492 . S
C885 C884 1.393 . S
C885 C886 1.392 . S
C885 H896 0.930 . S
C886 C885 1.392 . S
C886 C887 1.386 . S
C887 C886 1.386 . S
C887 C889 1.395 . S
C887 H897 0.930 . S
C888 C884 1.395 . S
C888 C889 1.379 . S
C888 H898 0.930 . S
C889 C887 1.395 . S
C889 C888 1.379 . S
C889 H899 0.930 . S
C890 O868 1.264 1_556 S
C890 O869 1.254 . S
C891 Eu827 2.848 . S
C891 O866 1.257 . S
C891 O871 1.249 . S
C891 C884 1.492 . S
H892 C875 0.930 . S
H893 C876 0.930 . S
H894 C877 0.930 . S
H895 C878 0.930 . S
H896 C885 0.930 . S
H897 C887 0.930 . S
H898 C888 0.930 . S
H899 C889 0.930 . S
Eu900 N931 2.657 . S
Eu900 N938 2.609 . S
Eu900 O944 2.558 . S
Eu900 O945 2.612 . S
Eu900 O947 2.339 . S
Eu900 O948 2.563 . S
Eu900 O949 2.419 . S
Eu900 O951 2.380 . S
Eu900 O952 2.432 . S
Eu900 C964 2.848 . S
C901 C904 1.429 . S
C901 C905 1.411 . S
C901 N908 1.377 . S
C902 C904 1.420 . S
C902 C906 1.423 . S
C902 C914 1.392 . S
C903 C905 1.420 . S
C903 C906 1.351 . S
C903 H926 0.931 . S
C904 C901 1.429 . S
C904 C902 1.420 . S
C904 N912 1.362 . S
C905 C901 1.411 . S
C905 C903 1.420 . S
C905 C910 1.395 . S
C906 C902 1.423 . S
C906 C903 1.351 . S
C906 H918 0.930 . S
C907 C909 1.400 . S
C907 C910 1.386 . S
C907 H919 0.930 . S
N908 C901 1.377 . S
N908 C909 1.321 . S
N908 Eu911 2.609 . S
C909 C907 1.400 . S
C909 N908 1.321 . S
C909 H916 0.930 . S
C910 C905 1.395 . S
C910 C907 1.386 . S
C910 H929 0.930 . S
Eu911 N908 2.609 . S
Eu911 N912 2.657 . S
Eu911 O945 2.380 . S
Eu911 O946 2.432 . S
Eu911 O950 2.558 . S
Eu911 O951 2.612 . S
Eu911 O953 2.339 . S
Eu911 O954 2.563 . S
Eu911 O955 2.419 . S
Eu911 C975 2.848 . S
N912 C904 1.362 . S
N912 Eu911 2.657 . S
N912 C913 1.334 . S
C913 N912 1.334 . S
C913 C915 1.413 . S
C913 H920 0.929 . S
C914 C902 1.392 . S
C914 C915 1.367 . S
C914 H922 0.930 . S
C915 C913 1.413 . S
C915 C914 1.367 . S
C915 H917 0.930 . S
H916 C909 0.930 . S
H917 C915 0.930 . S
H918 C906 0.930 . S
H919 C907 0.930 . S
H920 C913 0.929 . S
H921 C935 0.930 . S
H922 C914 0.930 . S
H923 C941 0.930 . S
H924 C932 0.929 . S
H925 C939 0.930 . S
H926 C903 0.931 . S
H927 C933 0.930 . S
H928 C966 0.930 . S
H929 C910 0.930 . S
H930 C965 0.931 . S
N931 Eu900 2.657 . S
N931 C932 1.334 . S
N931 C936 1.362 . S
C932 H924 0.929 . S
C932 N931 1.334 . S
C932 C935 1.413 . S
C933 H927 0.930 . S
C933 C934 1.392 . S
C933 C935 1.367 . S
C934 C933 1.392 . S
C934 C936 1.420 . S
C934 C966 1.423 . S
C935 H921 0.930 . S
C935 C932 1.413 . S
C935 C933 1.367 . S
C936 N931 1.362 . S
C936 C934 1.420 . S
C936 C940 1.429 . S
H937 C942 0.930 . S
N938 Eu900 2.609 . S
N938 C940 1.377 . S
N938 C941 1.321 . S
C939 H925 0.930 . S
C939 C941 1.400 . S
C939 C942 1.386 . S
C940 C936 1.429 . S
C940 N938 1.377 . S
C940 C943 1.411 . S
C941 H923 0.930 . S
C941 N938 1.321 . S
C941 C939 1.400 . S
C942 H937 0.930 . S
C942 C939 1.386 . S
C942 C943 1.395 . S
C943 C940 1.411 . S
C943 C942 1.395 . S
C943 C965 1.420 . S
O944 Eu900 2.558 . S
O944 C964 1.257 . S
O945 Eu900 2.612 . S
O945 Eu911 2.380 . S
O945 C956 1.276 . S
O946 Eu911 2.432 . S
O946 C963 1.264 . S
O947 Eu900 2.339 . S
O947 C963 1.254 . S
O948 Eu900 2.563 . S
O948 C956 1.235 . S
O949 Eu900 2.419 . S
O949 C964 1.249 . S
O950 Eu911 2.558 . S
O950 C975 1.257 . S
O951 Eu900 2.380 . S
O951 Eu911 2.612 . S
O951 C967 1.276 . S
O952 Eu900 2.432 . S
O952 C974 1.264 . S
O953 Eu911 2.339 . S
O953 C974 1.254 . S
O954 Eu911 2.563 . S
O954 C967 1.235 . S
O955 Eu911 2.419 . S
O955 C975 1.249 . S
C956 O945 1.276 . S
C956 O948 1.235 . S
C957 C959 1.393 . S
C957 C961 1.395 . S
C957 C964 1.492 . S
C958 C959 1.392 . S
C958 C960 1.386 . S
C959 C957 1.393 . S
C959 C958 1.392 . S
C959 H976 0.930 . S
C960 C958 1.386 . S
C960 C962 1.395 . S
C960 H977 0.930 . S
C961 C957 1.395 . S
C961 C962 1.379 . S
C961 H978 0.930 . S
C962 C960 1.395 . S
C962 C961 1.379 . S
C962 H979 0.930 . S
C963 O946 1.264 . S
C963 O947 1.254 . S
C964 Eu900 2.848 . S
C964 O944 1.257 . S
C964 O949 1.249 . S
C964 C957 1.492 . S
C965 H930 0.931 . S
C965 C943 1.420 . S
C965 C966 1.351 . S
C966 H928 0.930 . S
C966 C934 1.423 . S
C966 C965 1.351 . S
C967 O951 1.276 . S
C967 O954 1.235 . S
C968 C969 1.393 . S
C968 C972 1.395 . S
C968 C975 1.492 . S
C969 C968 1.393 . S
C969 C970 1.392 . S
C969 H980 0.930 . S
C970 C969 1.392 . S
C970 C971 1.386 . S
C971 C970 1.386 . S
C971 C973 1.395 . S
C971 H981 0.930 . S
C972 C968 1.395 . S
C972 C973 1.379 . S
C972 H982 0.930 . S
C973 C971 1.395 . S
C973 C972 1.379 . S
C973 H983 0.930 . S
C974 O952 1.264 . S
C974 O953 1.254 . S
C975 Eu911 2.848 . S
C975 O950 1.257 . S
C975 O955 1.249 . S
C975 C968 1.492 . S
H976 C959 0.930 . S
H977 C960 0.930 . S
H978 C961 0.930 . S
H979 C962 0.930 . S
H980 C969 0.930 . S
H981 C971 0.930 . S
H982 C972 0.930 . S
H983 C973 0.930 . S
Eu984 N1015 2.657 . S
Eu984 N1022 2.609 . S
Eu984 O1028 2.558 . S
Eu984 O1029 2.612 . S
Eu984 O1031 2.339 . S
Eu984 O1032 2.563 . S
Eu984 O1033 2.419 . S
Eu984 O1035 2.380 . S
Eu984 O1036 2.432 . S
Eu984 C1048 2.848 . S
C985 C988 1.429 . S
C985 C989 1.411 . S
C985 N992 1.377 . S
C986 C988 1.420 . S
C986 C990 1.423 . S
C986 C998 1.392 . S
C987 C989 1.420 . S
C987 C990 1.351 . S
C987 H1010 0.931 . S
C988 C985 1.429 . S
C988 C986 1.420 . S
C988 N996 1.362 . S
C989 C985 1.411 . S
C989 C987 1.420 . S
C989 C994 1.395 . S
C990 C986 1.423 . S
C990 C987 1.351 . S
C990 H1002 0.930 . S
C991 C993 1.400 . S
C991 C994 1.386 . S
C991 H1003 0.930 . S
N992 C985 1.377 . S
N992 C993 1.321 . S
N992 Eu995 2.609 . S
C993 C991 1.400 . S
C993 N992 1.321 . S
C993 H1000 0.930 . S
C994 C989 1.395 . S
C994 C991 1.386 . S
C994 H1013 0.930 . S
Eu995 N992 2.609 . S
Eu995 N996 2.657 . S
Eu995 O1029 2.380 . S
Eu995 O1030 2.432 . S
Eu995 O1034 2.558 . S
Eu995 O1035 2.612 . S
Eu995 O1037 2.339 . S
Eu995 O1038 2.563 . S
Eu995 O1039 2.419 . S
Eu995 C1059 2.848 . S
N996 C988 1.362 . S
N996 Eu995 2.657 . S
N996 C997 1.334 . S
C997 N996 1.334 . S
C997 C999 1.413 . S
C997 H1004 0.929 . S
C998 C986 1.392 . S
C998 C999 1.367 . S
C998 H1006 0.930 . S
C999 C997 1.413 . S
C999 C998 1.367 . S
C999 H1001 0.930 . S
H1000 C993 0.930 . S
H1001 C999 0.930 . S
H1002 C990 0.930 . S
H1003 C991 0.930 . S
H1004 C997 0.929 . S
H1005 C1019 0.930 . S
H1006 C998 0.930 . S
H1007 C1025 0.930 . S
H1008 C1016 0.929 . S
H1009 C1023 0.930 . S
H1010 C987 0.931 . S
H1011 C1017 0.930 . S
H1012 C1050 0.930 . S
H1013 C994 0.930 . S
H1014 C1049 0.931 . S
N1015 Eu984 2.657 . S
N1015 C1016 1.334 . S
N1015 C1020 1.362 . S
C1016 H1008 0.929 . S
C1016 N1015 1.334 . S
C1016 C1019 1.413 . S
C1017 H1011 0.930 . S
C1017 C1018 1.392 . S
C1017 C1019 1.367 . S
C1018 C1017 1.392 . S
C1018 C1020 1.420 . S
C1018 C1050 1.423 . S
C1019 H1005 0.930 . S
C1019 C1016 1.413 . S
C1019 C1017 1.367 . S
C1020 N1015 1.362 . S
C1020 C1018 1.420 . S
C1020 C1024 1.429 . S
H1021 C1026 0.930 . S
N1022 Eu984 2.609 . S
N1022 C1024 1.377 . S
N1022 C1025 1.321 . S
C1023 H1009 0.930 . S
C1023 C1025 1.400 . S
C1023 C1026 1.386 . S
C1024 C1020 1.429 . S
C1024 N1022 1.377 . S
C1024 C1027 1.411 . S
C1025 H1007 0.930 . S
C1025 N1022 1.321 . S
C1025 C1023 1.400 . S
C1026 H1021 0.930 . S
C1026 C1023 1.386 . S
C1026 C1027 1.395 . S
C1027 C1024 1.411 . S
C1027 C1026 1.395 . S
C1027 C1049 1.420 . S
O1028 Eu984 2.558 . S
O1028 C1048 1.257 . S
O1029 Eu984 2.612 . S
O1029 Eu995 2.380 . S
O1029 C1040 1.276 . S
O1030 Eu995 2.432 . S
O1030 C1047 1.264 . S
O1031 Eu984 2.339 . S
O1031 C1047 1.254 . S
O1032 Eu984 2.563 . S
O1032 C1040 1.235 . S
O1033 Eu984 2.419 . S
O1033 C1048 1.249 . S
O1034 Eu995 2.558 . S
O1034 C1059 1.257 . S
O1035 Eu984 2.380 . S
O1035 Eu995 2.612 . S
O1035 C1051 1.276 . S
O1036 Eu984 2.432 . S
O1036 C1058 1.264 . S
O1037 Eu995 2.339 . S
O1037 C1058 1.254 . S
O1038 Eu995 2.563 . S
O1038 C1051 1.235 . S
O1039 Eu995 2.419 . S
O1039 C1059 1.249 . S
C1040 O1029 1.276 . S
C1040 O1032 1.235 . S
C1041 C1043 1.393 . S
C1041 C1045 1.395 . S
C1041 C1048 1.492 . S
C1042 C1043 1.392 . S
C1042 C1044 1.386 . S
C1043 C1041 1.393 . S
C1043 C1042 1.392 . S
C1043 H1060 0.930 . S
C1044 C1042 1.386 . S
C1044 C1046 1.395 . S
C1044 H1061 0.930 . S
C1045 C1041 1.395 . S
C1045 C1046 1.379 . S
C1045 H1062 0.930 . S
C1046 C1044 1.395 . S
C1046 C1045 1.379 . S
C1046 H1063 0.930 . S
C1047 O1030 1.264 . S
C1047 O1031 1.254 . S
C1048 Eu984 2.848 . S
C1048 O1028 1.257 . S
C1048 O1033 1.249 . S
C1048 C1041 1.492 . S
C1049 H1014 0.931 . S
C1049 C1027 1.420 . S
C1049 C1050 1.351 . S
C1050 H1012 0.930 . S
C1050 C1018 1.423 . S
C1050 C1049 1.351 . S
C1051 O1035 1.276 . S
C1051 O1038 1.235 . S
C1052 C1053 1.393 . S
C1052 C1056 1.395 . S
C1052 C1059 1.492 . S
C1053 C1052 1.393 . S
C1053 C1054 1.392 . S
C1053 H1064 0.930 . S
C1054 C1053 1.392 . S
C1054 C1055 1.386 . S
C1055 C1054 1.386 . S
C1055 C1057 1.395 . S
C1055 H1065 0.930 . S
C1056 C1052 1.395 . S
C1056 C1057 1.379 . S
C1056 H1066 0.930 . S
C1057 C1055 1.395 . S
C1057 C1056 1.379 . S
C1057 H1067 0.930 . S
C1058 O1036 1.264 . S
C1058 O1037 1.254 . S
C1059 Eu995 2.848 . S
C1059 O1034 1.257 . S
C1059 O1039 1.249 . S
C1059 C1052 1.492 . S
H1060 C1043 0.930 . S
H1061 C1044 0.930 . S
H1062 C1045 0.930 . S
H1063 C1046 0.930 . S
H1064 C1053 0.930 . S
H1065 C1055 0.930 . S
H1066 C1056 0.930 . S
H1067 C1057 0.930 . S
Eu1068 N1099 2.657 . S
Eu1068 N1106 2.609 . S
Eu1068 O1112 2.558 . S
Eu1068 O1113 2.612 . S
Eu1068 O1115 2.339 . S
Eu1068 O1116 2.563 . S
Eu1068 O1117 2.419 . S
Eu1068 O1119 2.380 . S
Eu1068 O1120 2.432 . S
Eu1068 C1132 2.848 . S
C1069 C1072 1.429 . S
C1069 C1073 1.411 . S
C1069 N1076 1.377 . S
C1070 C1072 1.420 . S
C1070 C1074 1.423 . S
C1070 C1082 1.392 . S
C1071 C1073 1.420 . S
C1071 C1074 1.351 . S
C1071 H1094 0.931 . S
C1072 C1069 1.429 . S
C1072 C1070 1.420 . S
C1072 N1080 1.362 . S
C1073 C1069 1.411 . S
C1073 C1071 1.420 . S
C1073 C1078 1.395 . S
C1074 C1070 1.423 . S
C1074 C1071 1.351 . S
C1074 H1086 0.930 . S
C1075 C1077 1.400 . S
C1075 C1078 1.386 . S
C1075 H1087 0.930 . S
N1076 C1069 1.377 . S
N1076 C1077 1.321 . S
N1076 Eu1079 2.609 . S
C1077 C1075 1.400 . S
C1077 N1076 1.321 . S
C1077 H1084 0.930 . S
C1078 C1073 1.395 . S
C1078 C1075 1.386 . S
C1078 H1097 0.930 . S
Eu1079 N1076 2.609 . S
Eu1079 N1080 2.657 . S
Eu1079 O1113 2.380 . S
Eu1079 O1114 2.432 . S
Eu1079 O1118 2.558 . S
Eu1079 O1119 2.612 . S
Eu1079 O1121 2.339 . S
Eu1079 O1122 2.563 . S
Eu1079 O1123 2.419 . S
Eu1079 C1143 2.848 . S
N1080 C1072 1.362 . S
N1080 Eu1079 2.657 . S
N1080 C1081 1.334 . S
C1081 N1080 1.334 . S
C1081 C1083 1.413 . S
C1081 H1088 0.929 . S
C1082 C1070 1.392 . S
C1082 C1083 1.367 . S
C1082 H1090 0.930 . S
C1083 C1081 1.413 . S
C1083 C1082 1.367 . S
C1083 H1085 0.930 . S
H1084 C1077 0.930 . S
H1085 C1083 0.930 . S
H1086 C1074 0.930 . S
H1087 C1075 0.930 . S
H1088 C1081 0.929 . S
H1089 C1103 0.930 . S
H1090 C1082 0.930 . S
H1091 C1109 0.930 . S
H1092 C1100 0.929 . S
H1093 C1107 0.930 . S
H1094 C1071 0.931 . S
H1095 C1101 0.930 . S
H1096 C1134 0.930 . S
H1097 C1078 0.930 . S
H1098 C1133 0.931 . S
N1099 Eu1068 2.657 . S
N1099 C1100 1.334 . S
N1099 C1104 1.362 . S
C1100 H1092 0.929 . S
C1100 N1099 1.334 . S
C1100 C1103 1.413 . S
C1101 H1095 0.930 . S
C1101 C1102 1.392 . S
C1101 C1103 1.367 . S
C1102 C1101 1.392 . S
C1102 C1104 1.420 . S
C1102 C1134 1.423 . S
C1103 H1089 0.930 . S
C1103 C1100 1.413 . S
C1103 C1101 1.367 . S
C1104 N1099 1.362 . S
C1104 C1102 1.420 . S
C1104 C1108 1.429 . S
H1105 C1110 0.930 . S
N1106 Eu1068 2.609 . S
N1106 C1108 1.377 . S
N1106 C1109 1.321 . S
C1107 H1093 0.930 . S
C1107 C1109 1.400 . S
C1107 C1110 1.386 . S
C1108 C1104 1.429 . S
C1108 N1106 1.377 . S
C1108 C1111 1.411 . S
C1109 H1091 0.930 . S
C1109 N1106 1.321 . S
C1109 C1107 1.400 . S
C1110 H1105 0.930 . S
C1110 C1107 1.386 . S
C1110 C1111 1.395 . S
C1111 C1108 1.411 . S
C1111 C1110 1.395 . S
C1111 C1133 1.420 . S
O1112 Eu1068 2.558 . S
O1112 C1132 1.257 . S
O1113 Eu1068 2.612 . S
O1113 Eu1079 2.380 . S
O1113 C1124 1.276 . S
O1114 Eu1079 2.432 . S
O1114 C1131 1.264 . S
O1115 Eu1068 2.339 . S
O1115 C1131 1.254 . S
O1116 Eu1068 2.563 . S
O1116 C1124 1.235 . S
O1117 Eu1068 2.419 . S
O1117 C1132 1.249 . S
O1118 Eu1079 2.558 . S
O1118 C1143 1.257 . S
O1119 Eu1068 2.380 . S
O1119 Eu1079 2.612 . S
O1119 C1135 1.276 . S
O1120 Eu1068 2.432 . S
O1120 C1142 1.264 . S
O1121 Eu1079 2.339 . S
O1121 C1142 1.254 . S
O1122 Eu1079 2.563 . S
O1122 C1135 1.235 . S
O1123 Eu1079 2.419 . S
O1123 C1143 1.249 . S
C1124 O1113 1.276 . S
C1124 O1116 1.235 . S
C1125 C1127 1.393 . S
C1125 C1129 1.395 . S
C1125 C1132 1.492 . S
C1126 C1127 1.392 . S
C1126 C1128 1.386 . S
C1127 C1125 1.393 . S
C1127 C1126 1.392 . S
C1127 H1144 0.930 . S
C1128 C1126 1.386 . S
C1128 C1130 1.395 . S
C1128 H1145 0.930 . S
C1129 C1125 1.395 . S
C1129 C1130 1.379 . S
C1129 H1146 0.930 . S
C1130 C1128 1.395 . S
C1130 C1129 1.379 . S
C1130 H1147 0.930 . S
C1131 O1114 1.264 . S
C1131 O1115 1.254 . S
C1132 Eu1068 2.848 . S
C1132 O1112 1.257 . S
C1132 O1117 1.249 . S
C1132 C1125 1.492 . S
C1133 H1098 0.931 . S
C1133 C1111 1.420 . S
C1133 C1134 1.351 . S
C1134 H1096 0.930 . S
C1134 C1102 1.423 . S
C1134 C1133 1.351 . S
C1135 O1119 1.276 . S
C1135 O1122 1.235 . S
C1136 C1137 1.393 . S
C1136 C1140 1.395 . S
C1136 C1143 1.492 . S
C1137 C1136 1.393 . S
C1137 C1138 1.392 . S
C1137 H1148 0.930 . S
C1138 C1137 1.392 . S
C1138 C1139 1.386 . S
C1139 C1138 1.386 . S
C1139 C1141 1.395 . S
C1139 H1149 0.930 . S
C1140 C1136 1.395 . S
C1140 C1141 1.379 . S
C1140 H1150 0.930 . S
C1141 C1139 1.395 . S
C1141 C1140 1.379 . S
C1141 H1151 0.930 . S
C1142 O1120 1.264 . S
C1142 O1121 1.254 . S
C1143 Eu1079 2.848 . S
C1143 O1118 1.257 . S
C1143 O1123 1.249 . S
C1143 C1136 1.492 . S
H1144 C1127 0.930 . S
H1145 C1128 0.930 . S
H1146 C1129 0.930 . S
H1147 C1130 0.930 . S
H1148 C1137 0.930 . S
H1149 C1139 0.930 . S
H1150 C1140 0.930 . S
H1151 C1141 0.930 . S
Eu1152 N1183 2.657 . S
Eu1152 N1190 2.609 . S
Eu1152 O1196 2.558 . S
Eu1152 O1197 2.612 . S
Eu1152 O1199 2.339 . S
Eu1152 O1200 2.563 . S
Eu1152 O1201 2.419 . S
Eu1152 O1203 2.380 . S
Eu1152 O1204 2.432 . S
Eu1152 C1216 2.848 . S
C1153 C1156 1.429 . S
C1153 C1157 1.411 . S
C1153 N1160 1.377 . S
C1154 C1156 1.420 . S
C1154 C1158 1.423 . S
C1154 C1166 1.392 . S
C1155 C1157 1.420 . S
C1155 C1158 1.351 . S
C1155 H1178 0.931 . S
C1156 C1153 1.429 . S
C1156 C1154 1.420 . S
C1156 N1164 1.362 . S
C1157 C1153 1.411 . S
C1157 C1155 1.420 . S
C1157 C1162 1.395 . S
C1158 C1154 1.423 . S
C1158 C1155 1.351 . S
C1158 H1170 0.930 . S
C1159 C1161 1.400 . S
C1159 C1162 1.386 . S
C1159 H1171 0.930 . S
N1160 C1153 1.377 . S
N1160 C1161 1.321 . S
N1160 Eu1163 2.609 . S
C1161 C1159 1.400 . S
C1161 N1160 1.321 . S
C1161 H1168 0.930 . S
C1162 C1157 1.395 . S
C1162 C1159 1.386 . S
C1162 H1181 0.930 . S
Eu1163 N1160 2.609 . S
Eu1163 N1164 2.657 . S
Eu1163 O1197 2.380 . S
Eu1163 O1198 2.432 . S
Eu1163 O1202 2.558 . S
Eu1163 O1203 2.612 . S
Eu1163 O1205 2.339 . S
Eu1163 O1206 2.563 . S
Eu1163 O1207 2.419 . S
Eu1163 C1227 2.848 . S
N1164 C1156 1.362 . S
N1164 Eu1163 2.657 . S
N1164 C1165 1.334 . S
C1165 N1164 1.334 . S
C1165 C1167 1.413 . S
C1165 H1172 0.929 . S
C1166 C1154 1.392 . S
C1166 C1167 1.367 . S
C1166 H1174 0.930 . S
C1167 C1165 1.413 . S
C1167 C1166 1.367 . S
C1167 H1169 0.930 . S
H1168 C1161 0.930 . S
H1169 C1167 0.930 . S
H1170 C1158 0.930 . S
H1171 C1159 0.930 . S
H1172 C1165 0.929 . S
H1173 C1187 0.930 . S
H1174 C1166 0.930 . S
H1175 C1193 0.930 . S
H1176 C1184 0.929 . S
H1177 C1191 0.930 . S
H1178 C1155 0.931 . S
H1179 C1185 0.930 . S
H1180 C1218 0.930 . S
H1181 C1162 0.930 . S
H1182 C1217 0.931 . S
N1183 Eu1152 2.657 . S
N1183 C1184 1.334 . S
N1183 C1188 1.362 . S
C1184 H1176 0.929 . S
C1184 N1183 1.334 . S
C1184 C1187 1.413 . S
C1185 H1179 0.930 . S
C1185 C1186 1.392 . S
C1185 C1187 1.367 . S
C1186 C1185 1.392 . S
C1186 C1188 1.420 . S
C1186 C1218 1.423 . S
C1187 H1173 0.930 . S
C1187 C1184 1.413 . S
C1187 C1185 1.367 . S
C1188 N1183 1.362 . S
C1188 C1186 1.420 . S
C1188 C1192 1.429 . S
H1189 C1194 0.930 . S
N1190 Eu1152 2.609 . S
N1190 C1192 1.377 . S
N1190 C1193 1.321 . S
C1191 H1177 0.930 . S
C1191 C1193 1.400 . S
C1191 C1194 1.386 . S
C1192 C1188 1.429 . S
C1192 N1190 1.377 . S
C1192 C1195 1.411 . S
C1193 H1175 0.930 . S
C1193 N1190 1.321 . S
C1193 C1191 1.400 . S
C1194 H1189 0.930 . S
C1194 C1191 1.386 . S
C1194 C1195 1.395 . S
C1195 C1192 1.411 . S
C1195 C1194 1.395 . S
C1195 C1217 1.420 . S
O1196 Eu1152 2.558 . S
O1196 C1216 1.257 . S
O1197 Eu1152 2.612 . S
O1197 Eu1163 2.380 . S
O1197 C1208 1.276 . S
O1198 Eu1163 2.432 . S
O1198 C1215 1.264 . S
O1199 Eu1152 2.339 . S
O1199 C1215 1.254 . S
O1200 Eu1152 2.563 . S
O1200 C1208 1.235 . S
O1201 Eu1152 2.419 . S
O1201 C1216 1.249 . S
O1202 Eu1163 2.558 . S
O1202 C1227 1.257 . S
O1203 Eu1152 2.380 . S
O1203 Eu1163 2.612 . S
O1203 C1219 1.276 . S
O1204 Eu1152 2.432 . S
O1204 C1226 1.264 . S
O1205 Eu1163 2.339 . S
O1205 C1226 1.254 . S
O1206 Eu1163 2.563 . S
O1206 C1219 1.235 . S
O1207 Eu1163 2.419 . S
O1207 C1227 1.249 . S
C1208 O1197 1.276 . S
C1208 O1200 1.235 . S
C1209 C1211 1.393 . S
C1209 C1213 1.395 . S
C1209 C1216 1.492 . S
C1210 C1211 1.392 . S
C1210 C1212 1.386 . S
C1211 C1209 1.393 . S
C1211 C1210 1.392 . S
C1211 H1228 0.930 . S
C1212 C1210 1.386 . S
C1212 C1214 1.395 . S
C1212 H1229 0.930 . S
C1213 C1209 1.395 . S
C1213 C1214 1.379 . S
C1213 H1230 0.930 . S
C1214 C1212 1.395 . S
C1214 C1213 1.379 . S
C1214 H1231 0.930 . S
C1215 O1198 1.264 . S
C1215 O1199 1.254 . S
C1216 Eu1152 2.848 . S
C1216 O1196 1.257 . S
C1216 O1201 1.249 . S
C1216 C1209 1.492 . S
C1217 H1182 0.931 . S
C1217 C1195 1.420 . S
C1217 C1218 1.351 . S
C1218 H1180 0.930 . S
C1218 C1186 1.423 . S
C1218 C1217 1.351 . S
C1219 O1203 1.276 . S
C1219 O1206 1.235 . S
C1220 C1221 1.393 . S
C1220 C1224 1.395 . S
C1220 C1227 1.492 . S
C1221 C1220 1.393 . S
C1221 C1222 1.392 . S
C1221 H1232 0.930 . S
C1222 C1221 1.392 . S
C1222 C1223 1.386 . S
C1223 C1222 1.386 . S
C1223 C1225 1.395 . S
C1223 H1233 0.930 . S
C1224 C1220 1.395 . S
C1224 C1225 1.379 . S
C1224 H1234 0.930 . S
C1225 C1223 1.395 . S
C1225 C1224 1.379 . S
C1225 H1235 0.930 . S
C1226 O1204 1.264 . S
C1226 O1205 1.254 . S
C1227 Eu1163 2.848 . S
C1227 O1202 1.257 . S
C1227 O1207 1.249 . S
C1227 C1220 1.492 . S
H1228 C1211 0.930 . S
H1229 C1212 0.930 . S
H1230 C1213 0.930 . S
H1231 C1214 0.930 . S
H1232 C1221 0.930 . S
H1233 C1223 0.930 . S
H1234 C1224 0.930 . S
H1235 C1225 0.930 . S
Eu1236 N1267 2.657 . S
Eu1236 N1274 2.609 . S
Eu1236 O1280 2.558 . S
Eu1236 O1281 2.612 . S
Eu1236 O1283 2.339 . S
Eu1236 O1284 2.563 . S
Eu1236 O1285 2.419 . S
Eu1236 O1287 2.380 . S
Eu1236 O1288 2.432 . S
Eu1236 C1300 2.848 . S
C1237 C1240 1.429 . S
C1237 C1241 1.411 . S
C1237 N1244 1.377 . S
C1238 C1240 1.420 . S
C1238 C1242 1.423 . S
C1238 C1250 1.392 . S
C1239 C1241 1.420 . S
C1239 C1242 1.351 . S
C1239 H1262 0.931 . S
C1240 C1237 1.429 . S
C1240 C1238 1.420 . S
C1240 N1248 1.362 . S
C1241 C1237 1.411 . S
C1241 C1239 1.420 . S
C1241 C1246 1.395 . S
C1242 C1238 1.423 . S
C1242 C1239 1.351 . S
C1242 H1254 0.930 . S
C1243 C1245 1.400 . S
C1243 C1246 1.386 . S
C1243 H1255 0.930 . S
N1244 C1237 1.377 . S
N1244 C1245 1.321 . S
N1244 Eu1247 2.609 . S
C1245 C1243 1.400 . S
C1245 N1244 1.321 . S
C1245 H1252 0.930 . S
C1246 C1241 1.395 . S
C1246 C1243 1.386 . S
C1246 H1265 0.930 . S
Eu1247 N1244 2.609 . S
Eu1247 N1248 2.657 . S
Eu1247 O1281 2.380 . S
Eu1247 O1282 2.432 . S
Eu1247 O1286 2.558 . S
Eu1247 O1287 2.612 . S
Eu1247 O1289 2.339 . S
Eu1247 O1290 2.563 . S
Eu1247 O1291 2.419 . S
Eu1247 C1311 2.848 . S
N1248 C1240 1.362 . S
N1248 Eu1247 2.657 . S
N1248 C1249 1.334 . S
C1249 N1248 1.334 . S
C1249 C1251 1.413 . S
C1249 H1256 0.929 . S
C1250 C1238 1.392 . S
C1250 C1251 1.367 . S
C1250 H1258 0.930 . S
C1251 C1249 1.413 . S
C1251 C1250 1.367 . S
C1251 H1253 0.930 . S
H1252 C1245 0.930 . S
H1253 C1251 0.930 . S
H1254 C1242 0.930 . S
H1255 C1243 0.930 . S
H1256 C1249 0.929 . S
H1257 C1271 0.930 . S
H1258 C1250 0.930 . S
H1259 C1277 0.930 . S
H1260 C1268 0.929 . S
H1261 C1275 0.930 . S
H1262 C1239 0.931 . S
H1263 C1269 0.930 . S
H1264 C1302 0.930 . S
H1265 C1246 0.930 . S
H1266 C1301 0.931 . S
N1267 Eu1236 2.657 . S
N1267 C1268 1.334 . S
N1267 C1272 1.362 . S
C1268 H1260 0.929 . S
C1268 N1267 1.334 . S
C1268 C1271 1.413 . S
C1269 H1263 0.930 . S
C1269 C1270 1.392 . S
C1269 C1271 1.367 . S
C1270 C1269 1.392 . S
C1270 C1272 1.420 . S
C1270 C1302 1.423 . S
C1271 H1257 0.930 . S
C1271 C1268 1.413 . S
C1271 C1269 1.367 . S
C1272 N1267 1.362 . S
C1272 C1270 1.420 . S
C1272 C1276 1.429 . S
H1273 C1278 0.930 . S
N1274 Eu1236 2.609 . S
N1274 C1276 1.377 . S
N1274 C1277 1.321 . S
C1275 H1261 0.930 . S
C1275 C1277 1.400 . S
C1275 C1278 1.386 . S
C1276 C1272 1.429 . S
C1276 N1274 1.377 . S
C1276 C1279 1.411 . S
C1277 H1259 0.930 . S
C1277 N1274 1.321 . S
C1277 C1275 1.400 . S
C1278 H1273 0.930 . S
C1278 C1275 1.386 . S
C1278 C1279 1.395 . S
C1279 C1276 1.411 . S
C1279 C1278 1.395 . S
C1279 C1301 1.420 . S
O1280 Eu1236 2.558 . S
O1280 C1300 1.257 . S
O1281 Eu1236 2.612 . S
O1281 Eu1247 2.380 . S
O1281 C1292 1.276 . S
O1282 Eu1247 2.432 . S
O1282 C1299 1.264 . S
O1283 Eu1236 2.339 . S
O1283 C1299 1.254 . S
O1284 Eu1236 2.563 . S
O1284 C1292 1.235 . S
O1285 Eu1236 2.419 . S
O1285 C1300 1.249 . S
O1286 Eu1247 2.558 . S
O1286 C1311 1.257 . S
O1287 Eu1236 2.380 . S
O1287 Eu1247 2.612 . S
O1287 C1303 1.276 . S
O1288 Eu1236 2.432 . S
O1288 C1310 1.264 . S
O1289 Eu1247 2.339 . S
O1289 C1310 1.254 . S
O1290 Eu1247 2.563 . S
O1290 C1303 1.235 . S
O1291 Eu1247 2.419 . S
O1291 C1311 1.249 . S
C1292 O1281 1.276 . S
C1292 O1284 1.235 . S
C1293 C1295 1.393 . S
C1293 C1297 1.395 . S
C1293 C1300 1.492 . S
C1294 C1295 1.392 . S
C1294 C1296 1.386 . S
C1295 C1293 1.393 . S
C1295 C1294 1.392 . S
C1295 H1312 0.930 . S
C1296 C1294 1.386 . S
C1296 C1298 1.395 . S
C1296 H1313 0.930 . S
C1297 C1293 1.395 . S
C1297 C1298 1.379 . S
C1297 H1314 0.930 . S
C1298 C1296 1.395 . S
C1298 C1297 1.379 . S
C1298 H1315 0.930 . S
C1299 O1282 1.264 . S
C1299 O1283 1.254 . S
C1300 Eu1236 2.848 . S
C1300 O1280 1.257 . S
C1300 O1285 1.249 . S
C1300 C1293 1.492 . S
C1301 H1266 0.931 . S
C1301 C1279 1.420 . S
C1301 C1302 1.351 . S
C1302 H1264 0.930 . S
C1302 C1270 1.423 . S
C1302 C1301 1.351 . S
C1303 O1287 1.276 . S
C1303 O1290 1.235 . S
C1304 C1305 1.393 . S
C1304 C1308 1.395 . S
C1304 C1311 1.492 . S
C1305 C1304 1.393 . S
C1305 C1306 1.392 . S
C1305 H1316 0.930 . S
C1306 C1305 1.392 . S
C1306 C1307 1.386 . S
C1307 C1306 1.386 . S
C1307 C1309 1.395 . S
C1307 H1317 0.930 . S
C1308 C1304 1.395 . S
C1308 C1309 1.379 . S
C1308 H1318 0.930 . S
C1309 C1307 1.395 . S
C1309 C1308 1.379 . S
C1309 H1319 0.930 . S
C1310 O1288 1.264 . S
C1310 O1289 1.254 . S
C1311 Eu1247 2.848 . S
C1311 O1286 1.257 . S
C1311 O1291 1.249 . S
C1311 C1304 1.492 . S
H1312 C1295 0.930 . S
H1313 C1296 0.930 . S
H1314 C1297 0.930 . S
H1315 C1298 0.930 . S
H1316 C1305 0.930 . S
H1317 C1307 0.930 . S
H1318 C1308 0.930 . S
H1319 C1309 0.930 . S
Eu1320 N1351 2.657 . S
Eu1320 N1358 2.609 . S
Eu1320 O1364 2.558 . S
Eu1320 O1365 2.612 . S
Eu1320 O1367 2.339 . S
Eu1320 O1368 2.563 . S
Eu1320 O1369 2.419 . S
Eu1320 O1371 2.380 . S
Eu1320 O1372 2.432 . S
Eu1320 C1384 2.848 . S
C1321 C1324 1.429 . S
C1321 C1325 1.411 . S
C1321 N1328 1.377 . S
C1322 C1324 1.420 . S
C1322 C1326 1.423 . S
C1322 C1334 1.392 . S
C1323 C1325 1.420 . S
C1323 C1326 1.351 . S
C1323 H1346 0.931 . S
C1324 C1321 1.429 . S
C1324 C1322 1.420 . S
C1324 N1332 1.362 . S
C1325 C1321 1.411 . S
C1325 C1323 1.420 . S
C1325 C1330 1.395 . S
C1326 C1322 1.423 . S
C1326 C1323 1.351 . S
C1326 H1338 0.930 . S
C1327 C1329 1.400 . S
C1327 C1330 1.386 . S
C1327 H1339 0.930 . S
N1328 C1321 1.377 . S
N1328 C1329 1.321 . S
N1328 Eu1331 2.609 . S
C1329 C1327 1.400 . S
C1329 N1328 1.321 . S
C1329 H1336 0.930 . S
C1330 C1325 1.395 . S
C1330 C1327 1.386 . S
C1330 H1349 0.930 . S
Eu1331 N1328 2.609 . S
Eu1331 N1332 2.657 . S
Eu1331 O1365 2.380 . S
Eu1331 O1366 2.432 . S
Eu1331 O1370 2.558 . S
Eu1331 O1371 2.612 . S
Eu1331 O1373 2.339 . S
Eu1331 O1374 2.563 . S
Eu1331 O1375 2.419 . S
Eu1331 C1395 2.848 . S
N1332 C1324 1.362 . S
N1332 Eu1331 2.657 . S
N1332 C1333 1.334 . S
C1333 N1332 1.334 . S
C1333 C1335 1.413 . S
C1333 H1340 0.929 . S
C1334 C1322 1.392 . S
C1334 C1335 1.367 . S
C1334 H1342 0.930 . S
C1335 C1333 1.413 . S
C1335 C1334 1.367 . S
C1335 H1337 0.930 . S
H1336 C1329 0.930 . S
H1337 C1335 0.930 . S
H1338 C1326 0.930 . S
H1339 C1327 0.930 . S
H1340 C1333 0.929 . S
H1341 C1355 0.930 . S
H1342 C1334 0.930 . S
H1343 C1361 0.930 . S
H1344 C1352 0.929 . S
H1345 C1359 0.930 . S
H1346 C1323 0.931 . S
H1347 C1353 0.930 . S
H1348 C1386 0.930 . S
H1349 C1330 0.930 . S
H1350 C1385 0.931 . S
N1351 Eu1320 2.657 . S
N1351 C1352 1.334 . S
N1351 C1356 1.362 . S
C1352 H1344 0.929 . S
C1352 N1351 1.334 . S
C1352 C1355 1.413 . S
C1353 H1347 0.930 . S
C1353 C1354 1.392 . S
C1353 C1355 1.367 . S
C1354 C1353 1.392 . S
C1354 C1356 1.420 . S
C1354 C1386 1.423 . S
C1355 H1341 0.930 . S
C1355 C1352 1.413 . S
C1355 C1353 1.367 . S
C1356 N1351 1.362 . S
C1356 C1354 1.420 . S
C1356 C1360 1.429 . S
H1357 C1362 0.930 . S
N1358 Eu1320 2.609 . S
N1358 C1360 1.377 . S
N1358 C1361 1.321 . S
C1359 H1345 0.930 . S
C1359 C1361 1.400 . S
C1359 C1362 1.386 . S
C1360 C1356 1.429 . S
C1360 N1358 1.377 . S
C1360 C1363 1.411 . S
C1361 H1343 0.930 . S
C1361 N1358 1.321 . S
C1361 C1359 1.400 . S
C1362 H1357 0.930 . S
C1362 C1359 1.386 . S
C1362 C1363 1.395 . S
C1363 C1360 1.411 . S
C1363 C1362 1.395 . S
C1363 C1385 1.420 . S
O1364 Eu1320 2.558 . S
O1364 C1384 1.257 . S
O1365 Eu1320 2.612 . S
O1365 Eu1331 2.380 . S
O1365 C1376 1.276 . S
O1366 Eu1331 2.432 . S
O1366 C1383 1.264 . S
O1367 Eu1320 2.339 . S
O1367 C1383 1.254 . S
O1368 Eu1320 2.563 . S
O1368 C1376 1.235 . S
O1369 Eu1320 2.419 . S
O1369 C1384 1.249 . S
O1370 Eu1331 2.558 . S
O1370 C1395 1.257 . S
O1371 Eu1320 2.380 . S
O1371 Eu1331 2.612 . S
O1371 C1387 1.276 . S
O1372 Eu1320 2.432 . S
O1372 C1394 1.264 . S
O1373 Eu1331 2.339 . S
O1373 C1394 1.254 . S
O1374 Eu1331 2.563 . S
O1374 C1387 1.235 . S
O1375 Eu1331 2.419 . S
O1375 C1395 1.249 . S
C1376 O1365 1.276 . S
C1376 O1368 1.235 . S
C1377 C1379 1.393 . S
C1377 C1381 1.395 . S
C1377 C1384 1.492 . S
C1378 C1379 1.392 . S
C1378 C1380 1.386 . S
C1379 C1377 1.393 . S
C1379 C1378 1.392 . S
C1379 H1396 0.930 . S
C1380 C1378 1.386 . S
C1380 C1382 1.395 . S
C1380 H1397 0.930 . S
C1381 C1377 1.395 . S
C1381 C1382 1.379 . S
C1381 H1398 0.930 . S
C1382 C1380 1.395 . S
C1382 C1381 1.379 . S
C1382 H1399 0.930 . S
C1383 O1366 1.264 . S
C1383 O1367 1.254 . S
C1384 Eu1320 2.848 . S
C1384 O1364 1.257 . S
C1384 O1369 1.249 . S
C1384 C1377 1.492 . S
C1385 H1350 0.931 . S
C1385 C1363 1.420 . S
C1385 C1386 1.351 . S
C1386 H1348 0.930 . S
C1386 C1354 1.423 . S
C1386 C1385 1.351 . S
C1387 O1371 1.276 . S
C1387 O1374 1.235 . S
C1388 C1389 1.393 . S
C1388 C1392 1.395 . S
C1388 C1395 1.492 . S
C1389 C1388 1.393 . S
C1389 C1390 1.392 . S
C1389 H1400 0.930 . S
C1390 C1389 1.392 . S
C1390 C1391 1.386 . S
C1391 C1390 1.386 . S
C1391 C1393 1.395 . S
C1391 H1401 0.930 . S
C1392 C1388 1.395 . S
C1392 C1393 1.379 . S
C1392 H1402 0.930 . S
C1393 C1391 1.395 . S
C1393 C1392 1.379 . S
C1393 H1403 0.930 . S
C1394 O1372 1.264 . S
C1394 O1373 1.254 . S
C1395 Eu1331 2.848 . S
C1395 O1370 1.257 . S
C1395 O1375 1.249 . S
C1395 C1388 1.492 . S
H1396 C1379 0.930 . S
H1397 C1380 0.930 . S
H1398 C1381 0.930 . S
H1399 C1382 0.930 . S
H1400 C1389 0.930 . S
H1401 C1391 0.930 . S
H1402 C1392 0.930 . S
H1403 C1393 0.930 . S
C1404 C1405 1.369 . S
C1404 C1406 1.419 . S
C1404 H1408 0.930 . S
C1405 C1404 1.369 . S
C1405 C1414 1.429 . S
C1406 C1404 1.419 . S
C1406 C1407 1.363 . S
C1406 H1409 0.929 . S
C1407 C1406 1.363 . S
C1407 C1413 1.428 . S
H1408 C1404 0.930 . S
H1409 C1406 0.929 . S
S1410 N1411 1.613 . S
S1410 N1412 1.610 . S
N1411 S1410 1.613 . S
N1411 C1414 1.350 . S
N1412 S1410 1.610 . S
N1412 C1413 1.351 . S
C1413 C1407 1.428 . S
C1413 N1412 1.351 . S
C1413 C1414 1.434 . S
C1414 C1405 1.429 . S
C1414 N1411 1.350 . S
C1414 C1413 1.434 . S
C1415 C1416 1.369 . S
C1415 C1417 1.419 . S
C1415 H1419 0.930 . S
C1416 C1415 1.369 . S
C1416 C1425 1.429 . S
C1417 C1415 1.419 . S
C1417 C1418 1.363 . S
C1417 H1420 0.929 . S
C1418 C1417 1.363 . S
C1418 C1424 1.428 . S
H1419 C1415 0.930 . S
H1420 C1417 0.929 . S
S1421 N1422 1.613 . S
S1421 N1423 1.610 . S
N1422 S1421 1.613 . S
N1422 C1425 1.350 . S
N1423 S1421 1.610 . S
N1423 C1424 1.351 . S
C1424 C1418 1.428 . S
C1424 N1423 1.351 . S
C1424 C1425 1.434 . S
C1425 C1416 1.429 . S
C1425 N1422 1.350 . S
C1425 C1424 1.434 . S
C1426 C1427 1.369 . S
C1426 C1428 1.419 . S
C1426 H1430 0.930 . S
C1427 C1426 1.369 . S
C1427 C1436 1.429 . S
C1428 C1426 1.419 . S
C1428 C1429 1.363 . S
C1428 H1431 0.929 . S
C1429 C1428 1.363 . S
C1429 C1435 1.428 . S
H1430 C1426 0.930 . S
H1431 C1428 0.929 . S
S1432 N1433 1.613 1_556 S
S1432 N1434 1.610 . S
N1433 S1432 1.613 1_554 S
N1433 C1436 1.350 . S
N1434 S1432 1.610 . S
N1434 C1435 1.351 1_556 S
C1435 C1429 1.428 . S
C1435 N1434 1.351 1_554 S
C1435 C1436 1.434 . S
C1436 C1427 1.429 . S
C1436 N1433 1.350 . S
C1436 C1435 1.434 . S
C1437 C1438 1.369 . S
C1437 C1439 1.419 . S
C1437 H1441 0.930 . S
C1438 C1437 1.369 . S
C1438 C1447 1.429 . S
C1439 C1437 1.419 . S
C1439 C1440 1.363 . S
C1439 H1442 0.929 . S
C1440 C1439 1.363 . S
C1440 C1446 1.428 . S
H1441 C1437 0.930 . S
H1442 C1439 0.929 . S
S1443 N1444 1.613 1_554 S
S1443 N1445 1.610 1_554 S
N1444 S1443 1.613 1_556 S
N1444 C1447 1.350 . S
N1445 S1443 1.610 1_556 S
N1445 C1446 1.351 . S
C1446 C1440 1.428 . S
C1446 N1445 1.351 . S
C1446 C1447 1.434 . S
C1447 C1438 1.429 . S
C1447 N1444 1.350 . S
C1447 C1446 1.434 . S
C1448 C1449 1.369 . S
C1448 C1450 1.419 . S
C1448 H1452 0.930 . S
C1449 C1448 1.369 . S
C1449 C1458 1.429 . S
C1450 C1448 1.419 . S
C1450 C1451 1.363 . S
C1450 H1453 0.929 . S
C1451 C1450 1.363 . S
C1451 C1457 1.428 . S
H1452 C1448 0.930 . S
H1453 C1450 0.929 . S
S1454 N1455 1.613 1_554 S
S1454 N1456 1.610 . S
N1455 S1454 1.613 1_556 S
N1455 C1458 1.350 . S
N1456 S1454 1.610 . S
N1456 C1457 1.351 1_554 S
C1457 C1451 1.428 . S
C1457 N1456 1.351 1_556 S
C1457 C1458 1.434 . S
C1458 C1449 1.429 . S
C1458 N1455 1.350 . S
C1458 C1457 1.434 . S
C1459 C1460 1.369 . S
C1459 C1461 1.419 . S
C1459 H1463 0.930 . S
C1460 C1459 1.369 . S
C1460 C1469 1.429 . S
C1461 C1459 1.419 . S
C1461 C1462 1.363 . S
C1461 H1464 0.929 . S
C1462 C1461 1.363 . S
C1462 C1468 1.428 . S
H1463 C1459 0.930 . S
H1464 C1461 0.929 . S
S1465 N1466 1.613 . S
S1465 N1467 1.610 . S
N1466 S1465 1.613 . S
N1466 C1469 1.350 . S
N1467 S1465 1.610 . S
N1467 C1468 1.351 . S
C1468 C1462 1.428 . S
C1468 N1467 1.351 . S
C1468 C1469 1.434 . S
C1469 C1460 1.429 . S
C1469 N1466 1.350 . S
C1469 C1468 1.434 . S
C1470 C1471 1.369 . S
C1470 C1472 1.419 . S
C1470 H1474 0.930 . S
C1471 C1470 1.369 . S
C1471 C1480 1.429 . S
C1472 C1470 1.419 . S
C1472 C1473 1.363 . S
C1472 H1475 0.929 . S
C1473 C1472 1.363 . S
C1473 C1479 1.428 . S
H1474 C1470 0.930 . S
H1475 C1472 0.929 . S
S1476 N1477 1.630 . S
S1476 N1478 1.610 . S
N1477 S1476 1.630 . S
N1477 C1480 1.335 1_554 S
N1478 S1476 1.610 . S
N1478 C1479 1.351 1_554 S
C1479 C1473 1.428 . S
C1479 N1478 1.351 1_556 S
C1479 C1480 1.434 . S
C1480 C1471 1.429 . S
C1480 N1477 1.335 1_556 S
C1480 C1479 1.434 . S
C1481 C1482 1.369 . S
C1481 C1483 1.419 . S
C1481 H1485 0.930 . S
C1482 C1481 1.369 . S
C1482 C1491 1.429 . S
C1483 C1481 1.419 . S
C1483 C1484 1.363 . S
C1483 H1486 0.929 1_556 S
C1484 C1483 1.363 . S
C1484 C1490 1.428 . S
H1485 C1481 0.930 . S
H1486 C1483 0.929 1_554 S
S1487 N1488 1.613 . S
S1487 N1489 1.610 . S
N1488 S1487 1.613 . S
N1488 C1491 1.350 . S
N1489 S1487 1.610 . S
N1489 C1490 1.351 . S
C1490 C1484 1.428 . S
C1490 N1489 1.351 . S
C1490 C1491 1.434 . S
C1491 C1482 1.429 . S
C1491 N1488 1.350 . S
C1491 C1490 1.434 . S
C1492 C1493 1.369 . S
C1492 C1494 1.419 . S
C1492 H1496 0.930 . S
C1493 C1492 1.369 . S
C1493 C1502 1.429 . S
C1494 C1492 1.419 . S
C1494 C1495 1.363 . S
C1494 H1497 0.929 . S
C1495 C1494 1.363 . S
C1495 C1501 1.428 . S
H1496 C1492 0.930 . S
H1497 C1494 0.929 . S
S1498 N1499 1.613 . S
S1498 N1500 1.610 . S
N1499 S1498 1.613 . S
N1499 C1502 1.350 . S
N1500 S1498 1.610 . S
N1500 C1501 1.351 . S
C1501 C1495 1.428 . S
C1501 N1500 1.351 . S
C1501 C1502 1.434 . S
C1502 C1493 1.429 . S
C1502 N1499 1.350 . S
C1502 C1501 1.434 . S
C1503 C1504 1.369 . S
C1503 C1505 1.419 . S
C1503 H1507 0.930 . S
C1504 C1503 1.369 . S
C1504 C1513 1.429 . S
C1505 C1503 1.419 . S
C1505 C1506 1.363 . S
C1505 H1508 0.929 1_554 S
C1506 C1505 1.363 . S
C1506 C1512 1.428 . S
H1507 C1503 0.930 . S
H1508 C1505 0.929 1_556 S
S1509 N1510 1.613 . S
S1509 N1511 1.610 . S
N1510 S1509 1.613 . S
N1510 C1513 1.350 . S
N1511 S1509 1.610 . S
N1511 C1512 1.351 . S
C1512 C1506 1.428 . S
C1512 N1511 1.351 . S
C1512 C1513 1.434 . S
C1513 C1504 1.429 . S
C1513 N1510 1.350 . S
C1513 C1512 1.434 . S
C1514 C1515 1.369 . S
C1514 C1516 1.419 . S
C1514 H1518 0.930 . S
C1515 C1514 1.369 . S
C1515 C1524 1.429 . S
C1516 C1514 1.419 . S
C1516 C1517 1.363 . S
C1516 H1519 0.929 . S
C1517 C1516 1.363 . S
C1517 C1523 1.428 . S
H1518 C1514 0.930 . S
H1519 C1516 0.929 . S
S1520 N1521 1.613 . S
S1520 N1522 1.610 . S
N1521 S1520 1.613 . S
N1521 C1524 1.350 . S
N1522 S1520 1.610 . S
N1522 C1523 1.351 . S
C1523 C1517 1.428 . S
C1523 N1522 1.351 . S
C1523 C1524 1.434 . S
C1524 C1515 1.429 . S
C1524 N1521 1.350 . S
C1524 C1523 1.434 . S
C1525 C1526 1.369 . S
C1525 C1527 1.419 . S
C1525 H1529 0.930 . S
C1526 C1525 1.369 . S
C1526 C1535 1.429 . S
C1527 C1525 1.419 . S
C1527 C1528 1.363 . S
C1527 H1530 0.929 . S
C1528 C1527 1.363 . S
C1528 C1534 1.428 . S
H1529 C1525 0.930 . S
H1530 C1527 0.929 . S
S1531 N1532 1.613 . S
S1531 N1533 1.610 . S
N1532 S1531 1.613 . S
N1532 C1535 1.350 . S
N1533 S1531 1.610 . S
N1533 C1534 1.351 . S
C1534 C1528 1.428 . S
C1534 N1533 1.351 . S
C1534 C1535 1.434 . S
C1535 C1526 1.429 . S
C1535 N1532 1.350 . S
C1535 C1534 1.434 . S
C1536 C1537 1.369 . S
C1536 C1538 1.419 . S
C1536 H1540 0.930 . S
C1537 C1536 1.369 . S
C1537 C1546 1.429 . S
C1538 C1536 1.419 . S
C1538 C1539 1.363 . S
C1538 H1541 0.929 . S
C1539 C1538 1.363 . S
C1539 C1545 1.428 . S
H1540 C1536 0.930 . S
H1541 C1538 0.929 . S
S1542 N1543 1.613 . S
S1542 N1544 1.610 . S
N1543 S1542 1.613 . S
N1543 C1546 1.350 . S
N1544 S1542 1.610 . S
N1544 C1545 1.351 . S
C1545 C1539 1.428 . S
C1545 N1544 1.351 . S
C1545 C1546 1.434 . S
C1546 C1537 1.429 . S
C1546 N1543 1.350 . S
C1546 C1545 1.434 . S
C1547 C1548 1.369 . S
C1547 C1549 1.419 . S
C1547 H1551 0.930 . S
C1548 C1547 1.369 . S
C1548 C1557 1.429 . S
C1549 C1547 1.419 . S
C1549 C1550 1.363 . S
C1549 H1552 0.929 . S
C1550 C1549 1.363 . S
C1550 C1556 1.428 . S
H1551 C1547 0.930 . S
H1552 C1549 0.929 . S
S1553 N1554 1.613 . S
S1553 N1555 1.610 . S
N1554 S1553 1.613 . S
N1554 C1557 1.350 . S
N1555 S1553 1.610 . S
N1555 C1556 1.351 . S
C1556 C1550 1.428 . S
C1556 N1555 1.351 . S
C1556 C1557 1.434 . S
C1557 C1548 1.429 . S
C1557 N1554 1.350 . S
C1557 C1556 1.434 . S
C1558 C1559 1.369 . S
C1558 C1560 1.419 . S
C1558 H1562 0.930 . S
C1559 C1558 1.369 . S
C1559 C1568 1.429 . S
C1560 C1558 1.419 . S
C1560 C1561 1.363 . S
C1560 H1563 0.929 . S
C1561 C1560 1.363 . S
C1561 C1567 1.428 . S
H1562 C1558 0.930 . S
H1563 C1560 0.929 . S
S1564 N1565 1.613 . S
S1564 N1566 1.610 . S
N1565 S1564 1.613 . S
N1565 C1568 1.350 . S
N1566 S1564 1.610 . S
N1566 C1567 1.351 . S
C1567 C1561 1.428 . S
C1567 N1566 1.351 . S
C1567 C1568 1.434 . S
C1568 C1559 1.429 . S
C1568 N1565 1.350 . S
C1568 C1567 1.434 . S
C1569 C1570 1.369 . S
C1569 C1571 1.419 . S
C1569 H1573 0.930 . S
C1570 C1569 1.369 . S
C1570 C1579 1.429 . S
C1571 C1569 1.419 . S
C1571 C1572 1.363 . S
C1571 H1574 0.929 . S
C1572 C1571 1.363 . S
C1572 C1578 1.428 . S
H1573 C1569 0.930 . S
H1574 C1571 0.929 . S
S1575 N1576 1.613 . S
S1575 N1577 1.610 . S
N1576 S1575 1.613 . S
N1576 C1579 1.350 . S
N1577 S1575 1.610 . S
N1577 C1578 1.351 . S
C1578 C1572 1.428 . S
C1578 N1577 1.351 . S
C1578 C1579 1.434 . S
C1579 C1570 1.429 . S
C1579 N1576 1.350 . S
C1579 C1578 1.434 . S
C1580 C1581 1.369 . S
C1580 C1582 1.419 . S
C1580 H1584 0.930 . S
C1581 C1580 1.369 . S
C1581 C1590 1.429 . S
C1582 C1580 1.419 . S
C1582 C1583 1.363 . S
C1582 H1585 0.929 . S
C1583 C1582 1.363 . S
C1583 C1589 1.428 . S
H1584 C1580 0.930 . S
H1585 C1582 0.929 . S
S1586 N1587 1.613 . S
S1586 N1588 1.610 . S
N1587 S1586 1.613 . S
N1587 C1590 1.350 . S
N1588 S1586 1.610 . S
N1588 C1589 1.351 . S
C1589 C1583 1.428 . S
C1589 N1588 1.351 . S
C1589 C1590 1.434 . S
C1590 C1581 1.429 . S
C1590 N1587 1.350 . S
C1590 C1589 1.434 . S
C1591 C1592 1.369 . S
C1591 C1593 1.419 . S
C1591 H1595 0.930 . S
C1592 C1591 1.369 . S
C1592 C1601 1.429 . S
C1593 C1591 1.419 . S
C1593 C1594 1.363 . S
C1593 H1596 0.929 . S
C1594 C1593 1.363 . S
C1594 C1600 1.428 . S
H1595 C1591 0.930 . S
H1596 C1593 0.929 . S
S1597 N1598 1.613 . S
S1597 N1599 1.610 . S
N1598 S1597 1.613 . S
N1598 C1601 1.350 . S
N1599 S1597 1.610 . S
N1599 C1600 1.351 . S
C1600 C1594 1.428 . S
C1600 N1599 1.351 . S
C1600 C1601 1.434 . S
C1601 C1592 1.429 . S
C1601 N1598 1.350 . S
C1601 C1600 1.434 . S
C1602 C1603 1.369 . S
C1602 C1604 1.419 . S
C1602 H1606 0.930 . S
C1603 C1602 1.369 . S
C1603 C1612 1.429 . S
C1604 C1602 1.419 . S
C1604 C1605 1.363 . S
C1604 H1607 0.929 . S
C1605 C1604 1.363 . S
C1605 C1611 1.428 . S
H1606 C1602 0.930 . S
H1607 C1604 0.929 . S
S1608 N1609 1.613 . S
S1608 N1610 1.610 . S
N1609 S1608 1.613 . S
N1609 C1612 1.350 . S
N1610 S1608 1.610 . S
N1610 C1611 1.351 . S
C1611 C1605 1.428 . S
C1611 N1610 1.351 . S
C1611 C1612 1.434 . S
C1612 C1603 1.429 . S
C1612 N1609 1.350 . S
C1612 C1611 1.434 . S
C1613 C1614 1.369 . S
C1613 C1615 1.419 . S
C1613 H1617 0.930 . S
C1614 C1613 1.369 . S
C1614 C1623 1.429 . S
C1615 C1613 1.419 . S
C1615 C1616 1.363 . S
C1615 H1618 0.929 . S
C1616 C1615 1.363 . S
C1616 C1622 1.428 . S
H1617 C1613 0.930 . S
H1618 C1615 0.929 . S
S1619 N1620 1.613 . S
S1619 N1621 1.610 . S
N1620 S1619 1.613 . S
N1620 C1623 1.350 . S
N1621 S1619 1.610 . S
N1621 C1622 1.351 . S
C1622 C1616 1.428 . S
C1622 N1621 1.351 . S
C1622 C1623 1.434 . S
C1623 C1614 1.429 . S
C1623 N1620 1.350 . S
C1623 C1622 1.434 . S
C1624 C1625 1.369 . S
C1624 C1626 1.419 . S
C1624 H1628 0.930 . S
C1625 C1624 1.369 . S
C1625 C1634 1.429 . S
C1626 C1624 1.419 . S
C1626 C1627 1.363 . S
C1626 H1629 0.929 . S
C1627 C1626 1.363 . S
C1627 C1633 1.428 . S
H1628 C1624 0.930 . S
H1629 C1626 0.929 . S
S1630 N1631 1.613 . S
S1630 N1632 1.610 . S
N1631 S1630 1.613 . S
N1631 C1634 1.350 . S
N1632 S1630 1.610 . S
N1632 C1633 1.351 . S
C1633 C1627 1.428 . S
C1633 N1632 1.351 . S
C1633 C1634 1.434 . S
C1634 C1625 1.429 . S
C1634 N1631 1.350 . S
C1634 C1633 1.434 . S
C1635 C1636 1.369 . S
C1635 C1637 1.419 . S
C1635 H1639 0.930 . S
C1636 C1635 1.369 . S
C1636 C1645 1.429 . S
C1637 C1635 1.419 . S
C1637 C1638 1.363 . S
C1637 H1640 0.929 . S
C1638 C1637 1.363 . S
C1638 C1644 1.428 . S
H1639 C1635 0.930 . S
H1640 C1637 0.929 . S
S1641 N1642 1.613 . S
S1641 N1643 1.610 . S
N1642 S1641 1.613 . S
N1642 C1645 1.350 . S
N1643 S1641 1.610 . S
N1643 C1644 1.351 . S
C1644 C1638 1.428 . S
C1644 N1643 1.351 . S
C1644 C1645 1.434 . S
C1645 C1636 1.429 . S
C1645 N1642 1.350 . S
C1645 C1644 1.434 . S
C1646 C1647 1.369 . S
C1646 C1648 1.419 . S
C1646 H1650 0.930 . S
C1647 C1646 1.369 . S
C1647 C1656 1.429 . S
C1648 C1646 1.419 . S
C1648 C1649 1.363 . S
C1648 H1651 0.929 . S
C1649 C1648 1.363 . S
C1649 C1655 1.428 . S
H1650 C1646 0.930 . S
H1651 C1648 0.929 . S
S1652 N1653 1.613 . S
S1652 N1654 1.610 . S
N1653 S1652 1.613 . S
N1653 C1656 1.350 . S
N1654 S1652 1.610 . S
N1654 C1655 1.351 . S
C1655 C1649 1.428 . S
C1655 N1654 1.351 . S
C1655 C1656 1.434 . S
C1656 C1647 1.429 . S
C1656 N1653 1.350 . S
C1656 C1655 1.434 . S
C1657 C1658 1.369 . S
C1657 C1659 1.419 . S
C1657 H1661 0.930 . S
C1658 C1657 1.369 . S
C1658 C1667 1.429 . S
C1659 C1657 1.419 . S
C1659 C1660 1.363 . S
C1659 H1662 0.929 . S
C1660 C1659 1.363 . S
C1660 C1666 1.428 . S
H1661 C1657 0.930 . S
H1662 C1659 0.929 . S
S1663 N1664 1.613 . S
S1663 N1665 1.610 . S
N1664 S1663 1.613 . S
N1664 C1667 1.350 . S
N1665 S1663 1.610 . S
N1665 C1666 1.351 . S
C1666 C1660 1.428 . S
C1666 N1665 1.351 . S
C1666 C1667 1.434 . S
C1667 C1658 1.429 . S
C1667 N1664 1.350 . S
C1667 C1666 1.434 . S
C1668 C1669 1.369 . S
C1668 C1670 1.419 . S
C1668 H1672 0.930 . S
C1669 C1668 1.369 . S
C1669 C1678 1.429 . S
C1670 C1668 1.419 . S
C1670 C1671 1.363 . S
C1670 H1673 0.929 . S
C1671 C1670 1.363 . S
C1671 C1677 1.428 . S
H1672 C1668 0.930 . S
H1673 C1670 0.929 . S
S1674 N1675 1.613 . S
S1674 N1676 1.610 . S
N1675 S1674 1.613 . S
N1675 C1678 1.350 . S
N1676 S1674 1.610 . S
N1676 C1677 1.351 . S
C1677 C1671 1.428 . S
C1677 N1676 1.351 . S
C1677 C1678 1.434 . S
C1678 C1669 1.429 . S
C1678 N1675 1.350 . S
C1678 C1677 1.434 . S
C1679 C1680 1.369 . S
C1679 C1681 1.419 . S
C1679 H1683 0.930 . S
C1680 C1679 1.369 . S
C1680 C1689 1.429 . S
C1681 C1679 1.419 . S
C1681 C1682 1.363 . S
C1681 H1684 0.929 . S
C1682 C1681 1.363 . S
C1682 C1688 1.428 . S
H1683 C1679 0.930 . S
H1684 C1681 0.929 . S
S1685 N1686 1.613 . S
S1685 N1687 1.610 . S
N1686 S1685 1.613 . S
N1686 C1689 1.350 . S
N1687 S1685 1.610 . S
N1687 C1688 1.351 . S
C1688 C1682 1.428 . S
C1688 N1687 1.351 . S
C1688 C1689 1.434 . S
C1689 C1680 1.429 . S
C1689 N1686 1.350 . S
C1689 C1688 1.434 . S
C1690 C1691 1.369 . S
C1690 C1692 1.419 . S
C1690 H1694 0.930 . S
C1691 C1690 1.369 . S
C1691 C1700 1.429 . S
C1692 C1690 1.419 . S
C1692 C1693 1.363 . S
C1692 H1695 0.929 . S
C1693 C1692 1.363 . S
C1693 C1699 1.428 . S
H1694 C1690 0.930 . S
H1695 C1692 0.929 . S
S1696 N1697 1.613 . S
S1696 N1698 1.610 . S
N1697 S1696 1.613 . S
N1697 C1700 1.350 . S
N1698 S1696 1.610 . S
N1698 C1699 1.351 . S
C1699 C1693 1.428 . S
C1699 N1698 1.351 . S
C1699 C1700 1.434 . S
C1700 C1691 1.429 . S
C1700 N1697 1.350 . S
C1700 C1699 1.434 . S
C1701 C1702 1.369 . S
C1701 C1703 1.419 . S
C1701 H1705 0.930 . S
C1702 C1701 1.369 . S
C1702 C1711 1.429 . S
C1703 C1701 1.419 . S
C1703 C1704 1.363 . S
C1703 H1706 0.929 . S
C1704 C1703 1.363 . S
C1704 C1710 1.428 . S
H1705 C1701 0.930 . S
H1706 C1703 0.929 . S
S1707 N1708 1.613 . S
S1707 N1709 1.610 . S
N1708 S1707 1.613 . S
N1708 C1711 1.350 . S
N1709 S1707 1.610 . S
N1709 C1710 1.351 . S
C1710 C1704 1.428 . S
C1710 N1709 1.351 . S
C1710 C1711 1.434 . S
C1711 C1702 1.429 . S
C1711 N1708 1.350 . S
C1711 C1710 1.434 . S
C1712 C1713 1.369 . S
C1712 C1714 1.419 . S
C1712 H1716 0.930 . S
C1713 C1712 1.369 . S
C1713 C1722 1.429 . S
C1714 C1712 1.419 . S
C1714 C1715 1.363 . S
C1714 H1717 0.929 . S
C1715 C1714 1.363 . S
C1715 C1721 1.428 . S
H1716 C1712 0.930 . S
H1717 C1714 0.929 . S
S1718 N1719 1.613 . S
S1718 N1720 1.610 . S
N1719 S1718 1.613 . S
N1719 C1722 1.350 . S
N1720 S1718 1.610 . S
N1720 C1721 1.351 . S
C1721 C1715 1.428 . S
C1721 N1720 1.351 . S
C1721 C1722 1.434 . S
C1722 C1713 1.429 . S
C1722 N1719 1.350 . S
C1722 C1721 1.434 . S
C1723 C1724 1.369 . S
C1723 C1725 1.419 . S
C1723 H1727 0.930 . S
C1724 C1723 1.369 . S
C1724 C1733 1.429 . S
C1725 C1723 1.419 . S
C1725 C1726 1.363 . S
C1725 H1728 0.929 . S
C1726 C1725 1.363 . S
C1726 C1732 1.428 . S
H1727 C1723 0.930 . S
H1728 C1725 0.929 . S
S1729 N1730 1.613 . S
S1729 N1731 1.610 . S
N1730 S1729 1.613 . S
N1730 C1733 1.350 . S
N1731 S1729 1.610 . S
N1731 C1732 1.351 . S
C1732 C1726 1.428 . S
C1732 N1731 1.351 . S
C1732 C1733 1.434 . S
C1733 C1724 1.429 . S
C1733 N1730 1.350 . S
C1733 C1732 1.434 . S
C1734 C1735 1.369 . S
C1734 C1736 1.419 . S
C1734 H1738 0.930 . S
C1735 C1734 1.369 . S
C1735 C1744 1.429 . S
C1736 C1734 1.419 . S
C1736 C1737 1.363 . S
C1736 H1739 0.929 . S
C1737 C1736 1.363 . S
C1737 C1743 1.428 . S
H1738 C1734 0.930 . S
H1739 C1736 0.929 . S
S1740 N1741 1.613 . S
S1740 N1742 1.610 . S
N1741 S1740 1.613 . S
N1741 C1744 1.350 . S
N1742 S1740 1.610 . S
N1742 C1743 1.351 . S
C1743 C1737 1.428 . S
C1743 N1742 1.351 . S
C1743 C1744 1.434 . S
C1744 C1735 1.429 . S
C1744 N1741 1.350 . S
C1744 C1743 1.434 . S
C1745 C1746 1.369 . S
C1745 C1747 1.419 . S
C1745 H1749 0.930 . S
C1746 C1745 1.369 . S
C1746 C1755 1.429 . S
C1747 C1745 1.419 . S
C1747 C1748 1.363 . S
C1747 H1750 0.929 . S
C1748 C1747 1.363 . S
C1748 C1754 1.428 . S
H1749 C1745 0.930 . S
H1750 C1747 0.929 . S
S1751 N1752 1.613 . S
S1751 N1753 1.610 . S
N1752 S1751 1.613 . S
N1752 C1755 1.350 . S
N1753 S1751 1.610 . S
N1753 C1754 1.351 . S
C1754 C1748 1.428 . S
C1754 N1753 1.351 . S
C1754 C1755 1.434 . S
C1755 C1746 1.429 . S
C1755 N1752 1.350 . S
C1755 C1754 1.434 . S
C1756 C1757 1.369 . S
C1756 C1758 1.419 . S
C1756 H1760 0.930 . S
C1757 C1756 1.369 . S
C1757 C1766 1.429 . S
C1758 C1756 1.419 . S
C1758 C1759 1.363 . S
C1758 H1761 0.929 . S
C1759 C1758 1.363 . S
C1759 C1765 1.428 . S
H1760 C1756 0.930 . S
H1761 C1758 0.929 . S
S1762 N1763 1.613 . S
S1762 N1764 1.610 . S
N1763 S1762 1.613 . S
N1763 C1766 1.350 . S
N1764 S1762 1.610 . S
N1764 C1765 1.351 . S
C1765 C1759 1.428 . S
C1765 N1764 1.351 . S
C1765 C1766 1.434 . S
C1766 C1757 1.429 . S
C1766 N1763 1.350 . S
C1766 C1765 1.434 . S
C1767 C1768 1.369 . S
C1767 C1769 1.419 . S
C1767 H1771 0.930 . S
C1768 C1767 1.369 . S
C1768 C1777 1.429 . S
C1769 C1767 1.419 . S
C1769 C1770 1.363 . S
C1769 H1772 0.929 . S
C1770 C1769 1.363 . S
C1770 C1776 1.428 . S
H1771 C1767 0.930 . S
H1772 C1769 0.929 . S
S1773 N1774 1.613 . S
S1773 N1775 1.610 . S
N1774 S1773 1.613 . S
N1774 C1777 1.350 . S
N1775 S1773 1.610 . S
N1775 C1776 1.351 . S
C1776 C1770 1.428 . S
C1776 N1775 1.351 . S
C1776 C1777 1.434 . S
C1777 C1768 1.429 . S
C1777 N1774 1.350 . S
C1777 C1776 1.434 . S
C1778 C1779 1.369 . S
C1778 C1780 1.419 . S
C1778 H1782 0.930 . S
C1779 C1778 1.369 . S
C1779 C1788 1.429 . S
C1780 C1778 1.419 . S
C1780 C1781 1.363 . S
C1780 H1783 0.929 . S
C1781 C1780 1.363 . S
C1781 C1787 1.428 . S
H1782 C1778 0.930 . S
H1783 C1780 0.929 . S
S1784 N1785 1.613 . S
S1784 N1786 1.610 . S
N1785 S1784 1.613 . S
N1785 C1788 1.350 . S
N1786 S1784 1.610 . S
N1786 C1787 1.351 . S
C1787 C1781 1.428 . S
C1787 N1786 1.351 . S
C1787 C1788 1.434 . S
C1788 C1779 1.429 . S
C1788 N1785 1.350 . S
C1788 C1787 1.434 . S
C1789 C1790 1.369 . S
C1789 C1791 1.419 . S
C1789 H1793 0.930 . S
C1790 C1789 1.369 . S
C1790 C1799 1.429 . S
C1791 C1789 1.419 . S
C1791 C1792 1.363 . S
C1791 H1794 0.929 . S
C1792 C1791 1.363 . S
C1792 C1798 1.428 . S
H1793 C1789 0.930 . S
H1794 C1791 0.929 . S
S1795 N1796 1.613 . S
S1795 N1797 1.610 . S
N1796 S1795 1.613 . S
N1796 C1799 1.350 . S
N1797 S1795 1.610 . S
N1797 C1798 1.351 . S
C1798 C1792 1.428 . S
C1798 N1797 1.351 . S
C1798 C1799 1.434 . S
C1799 C1790 1.429 . S
C1799 N1796 1.350 . S
C1799 C1798 1.434 . S
C1800 C1801 1.369 . S
C1800 C1802 1.419 . S
C1800 H1804 0.930 . S
C1801 C1800 1.369 . S
C1801 C1810 1.429 . S
C1802 C1800 1.419 . S
C1802 C1803 1.363 . S
C1802 H1805 0.929 . S
C1803 C1802 1.363 . S
C1803 C1809 1.428 . S
H1804 C1800 0.930 . S
H1805 C1802 0.929 . S
S1806 N1807 1.613 . S
S1806 N1808 1.610 . S
N1807 S1806 1.613 . S
N1807 C1810 1.350 . S
N1808 S1806 1.610 . S
N1808 C1809 1.351 . S
C1809 C1803 1.428 . S
C1809 N1808 1.351 . S
C1809 C1810 1.434 . S
C1810 C1801 1.429 . S
C1810 N1807 1.350 . S
C1810 C1809 1.434 . S
C1811 C1812 1.369 . S
C1811 C1813 1.419 . S
C1811 H1815 0.930 . S
C1812 C1811 1.369 . S
C1812 C1821 1.429 . S
C1813 C1811 1.419 . S
C1813 C1814 1.363 . S
C1813 H1816 0.929 . S
C1814 C1813 1.363 . S
C1814 C1820 1.428 . S
H1815 C1811 0.930 . S
H1816 C1813 0.929 . S
S1817 N1818 1.613 . S
S1817 N1819 1.610 . S
N1818 S1817 1.613 . S
N1818 C1821 1.350 . S
N1819 S1817 1.610 . S
N1819 C1820 1.351 . S
C1820 C1814 1.428 . S
C1820 N1819 1.351 . S
C1820 C1821 1.434 . S
C1821 C1812 1.429 . S
C1821 N1818 1.350 . S
C1821 C1820 1.434 . S
C1822 C1823 1.369 . S
C1822 C1824 1.419 . S
C1822 H1826 0.930 . S
C1823 C1822 1.369 . S
C1823 C1832 1.429 . S
C1824 C1822 1.419 . S
C1824 C1825 1.363 . S
C1824 H1827 0.929 . S
C1825 C1824 1.363 . S
C1825 C1831 1.428 . S
H1826 C1822 0.930 . S
H1827 C1824 0.929 . S
S1828 N1829 1.613 . S
S1828 N1830 1.610 . S
N1829 S1828 1.613 . S
N1829 C1832 1.350 . S
N1830 S1828 1.610 . S
N1830 C1831 1.351 . S
C1831 C1825 1.428 . S
C1831 N1830 1.351 . S
C1831 C1832 1.434 . S
C1832 C1823 1.429 . S
C1832 N1829 1.350 . S
C1832 C1831 1.434 . S
C1833 C1834 1.369 . S
C1833 C1835 1.419 . S
C1833 H1837 0.930 . S
C1834 C1833 1.369 . S
C1834 C1843 1.429 . S
C1835 C1833 1.419 . S
C1835 C1836 1.363 . S
C1835 H1838 0.929 . S
C1836 C1835 1.363 . S
C1836 C1842 1.428 . S
H1837 C1833 0.930 . S
H1838 C1835 0.929 . S
S1839 N1840 1.613 . S
S1839 N1841 1.610 . S
N1840 S1839 1.613 . S
N1840 C1843 1.350 . S
N1841 S1839 1.610 . S
N1841 C1842 1.351 . S
C1842 C1836 1.428 . S
C1842 N1841 1.351 . S
C1842 C1843 1.434 . S
C1843 C1834 1.429 . S
C1843 N1840 1.350 . S
C1843 C1842 1.434 . S
C1844 C1845 1.369 . S
C1844 C1846 1.419 . S
C1844 H1848 0.930 . S
C1845 C1844 1.369 . S
C1845 C1854 1.429 . S
C1846 C1844 1.419 . S
C1846 C1847 1.363 . S
C1846 H1849 0.929 . S
C1847 C1846 1.363 . S
C1847 C1853 1.428 . S
H1848 C1844 0.930 . S
H1849 C1846 0.929 . S
S1850 N1851 1.613 . S
S1850 N1852 1.610 . S
N1851 S1850 1.613 . S
N1851 C1854 1.350 . S
N1852 S1850 1.610 . S
N1852 C1853 1.351 . S
C1853 C1847 1.428 . S
C1853 N1852 1.351 . S
C1853 C1854 1.434 . S
C1854 C1845 1.429 . S
C1854 N1851 1.350 . S
C1854 C1853 1.434 . S
C1855 C1856 1.369 . S
C1855 C1857 1.419 . S
C1855 H1859 0.930 . S
C1856 C1855 1.369 . S
C1856 C1865 1.429 . S
C1857 C1855 1.419 . S
C1857 C1858 1.363 . S
C1857 H1860 0.929 . S
C1858 C1857 1.363 . S
C1858 C1864 1.428 . S
H1859 C1855 0.930 . S
H1860 C1857 0.929 . S
S1861 N1862 1.613 1_565 S
S1861 N1863 1.610 . S
N1862 S1861 1.613 1_545 S
N1862 C1865 1.350 . S
N1863 S1861 1.610 . S
N1863 C1864 1.351 1_565 S
C1864 C1858 1.428 . S
C1864 N1863 1.351 1_545 S
C1864 C1865 1.434 . S
C1865 C1856 1.429 . S
C1865 N1862 1.350 . S
C1865 C1864 1.434 . S
C1866 C1867 1.369 . S
C1866 C1868 1.419 . S
C1866 H1870 0.930 . S
C1867 C1866 1.369 . S
C1867 C1876 1.429 . S
C1868 C1866 1.419 . S
C1868 C1869 1.363 . S
C1868 H1871 0.929 . S
C1869 C1868 1.363 . S
C1869 C1875 1.428 . S
H1870 C1866 0.930 . S
H1871 C1868 0.929 . S
S1872 N1873 1.613 . S
S1872 N1874 1.610 . S
N1873 S1872 1.613 . S
N1873 C1876 1.350 . S
N1874 S1872 1.610 . S
N1874 C1875 1.351 . S
C1875 C1869 1.428 . S
C1875 N1874 1.351 . S
C1875 C1876 1.434 . S
C1876 C1867 1.429 . S
C1876 N1873 1.350 . S
C1876 C1875 1.434 . S
C1877 C1878 1.369 . S
C1877 C1879 1.419 . S
C1877 H1881 0.930 . S
C1878 C1877 1.369 . S
C1878 C1887 1.429 . S
C1879 C1877 1.419 . S
C1879 C1880 1.363 . S
C1879 H1882 0.929 . S
C1880 C1879 1.363 . S
C1880 C1886 1.428 . S
H1881 C1877 0.930 . S
H1882 C1879 0.929 . S
S1883 N1884 1.613 . S
S1883 N1885 1.610 . S
N1884 S1883 1.613 . S
N1884 C1887 1.350 . S
N1885 S1883 1.610 . S
N1885 C1886 1.351 . S
C1886 C1880 1.428 . S
C1886 N1885 1.351 . S
C1886 C1887 1.434 . S
C1887 C1878 1.429 . S
C1887 N1884 1.350 . S
C1887 C1886 1.434 . S
C1888 C1889 1.369 . S
C1888 C1890 1.419 . S
C1888 H1892 0.930 . S
C1889 C1888 1.369 . S
C1889 C1898 1.429 . S
C1890 C1888 1.419 . S
C1890 C1891 1.363 . S
C1890 H1893 0.929 . S
C1891 C1890 1.363 . S
C1891 C1897 1.428 . S
H1892 C1888 0.930 . S
H1893 C1890 0.929 . S
S1894 N1895 1.613 . S
S1894 N1896 1.610 . S
N1895 S1894 1.613 . S
N1895 C1898 1.350 . S
N1896 S1894 1.610 . S
N1896 C1897 1.351 . S
C1897 C1891 1.428 . S
C1897 N1896 1.351 . S
C1897 C1898 1.434 . S
C1898 C1889 1.429 . S
C1898 N1895 1.350 . S
C1898 C1897 1.434 . S
C1899 C1900 1.369 . S
C1899 C1901 1.419 . S
C1899 H1903 0.930 . S
C1900 C1899 1.369 . S
C1900 C1909 1.429 . S
C1901 C1899 1.419 . S
C1901 C1902 1.363 . S
C1901 H1904 0.929 . S
C1902 C1901 1.363 . S
C1902 C1908 1.428 . S
H1903 C1899 0.930 . S
H1904 C1901 0.929 . S
S1905 N1906 1.613 . S
S1905 N1907 1.610 . S
N1906 S1905 1.613 . S
N1906 C1909 1.350 . S
N1907 S1905 1.610 . S
N1907 C1908 1.351 . S
C1908 C1902 1.428 . S
C1908 N1907 1.351 . S
C1908 C1909 1.434 . S
C1909 C1900 1.429 . S
C1909 N1906 1.350 . S
C1909 C1908 1.434 . S
C1910 C1911 1.369 . S
C1910 C1912 1.419 . S
C1910 H1914 0.930 . S
C1911 C1910 1.369 . S
C1911 C1920 1.429 . S
C1912 C1910 1.419 . S
C1912 C1913 1.363 . S
C1912 H1915 0.929 . S
C1913 C1912 1.363 . S
C1913 C1919 1.428 . S
H1914 C1910 0.930 . S
H1915 C1912 0.929 . S
S1916 N1917 1.613 . S
S1916 N1918 1.610 . S
N1917 S1916 1.613 . S
N1917 C1920 1.350 . S
N1918 S1916 1.610 . S
N1918 C1919 1.351 . S
C1919 C1913 1.428 . S
C1919 N1918 1.351 . S
C1919 C1920 1.434 . S
C1920 C1911 1.429 . S
C1920 N1917 1.350 . S
C1920 C1919 1.434 . S
C1921 C1922 1.369 . S
C1921 C1923 1.419 . S
C1921 H1925 0.930 . S
C1922 C1921 1.369 . S
C1922 C1931 1.429 . S
C1923 C1921 1.419 . S
C1923 C1924 1.363 . S
C1923 H1926 0.929 . S
C1924 C1923 1.363 . S
C1924 C1930 1.428 . S
H1925 C1921 0.930 . S
H1926 C1923 0.929 . S
S1927 N1928 1.613 . S
S1927 N1929 1.610 . S
N1928 S1927 1.613 . S
N1928 C1931 1.350 . S
N1929 S1927 1.610 . S
N1929 C1930 1.351 . S
C1930 C1924 1.428 . S
C1930 N1929 1.351 . S
C1930 C1931 1.434 . S
C1931 C1922 1.429 . S
C1931 N1928 1.350 . S
C1931 C1930 1.434 . S
C1932 C1933 1.369 . S
C1932 C1934 1.419 . S
C1932 H1936 0.930 . S
C1933 C1932 1.369 . S
C1933 C1942 1.429 . S
C1934 C1932 1.419 . S
C1934 C1935 1.363 . S
C1934 H1937 0.929 . S
C1935 C1934 1.363 . S
C1935 C1941 1.428 . S
H1936 C1932 0.930 . S
H1937 C1934 0.929 . S
S1938 N1939 1.613 . S
S1938 N1940 1.610 . S
N1939 S1938 1.613 . S
N1939 C1942 1.350 . S
N1940 S1938 1.610 . S
N1940 C1941 1.351 . S
C1941 C1935 1.428 . S
C1941 N1940 1.351 . S
C1941 C1942 1.434 . S
C1942 C1933 1.429 . S
C1942 N1939 1.350 . S
C1942 C1941 1.434 . S
C1943 C1944 1.369 . S
C1943 C1945 1.419 . S
C1943 H1947 0.930 . S
C1944 C1943 1.369 . S
C1944 C1953 1.429 . S
C1945 C1943 1.419 . S
C1945 C1946 1.363 . S
C1945 H1948 0.929 . S
C1946 C1945 1.363 . S
C1946 C1952 1.428 . S
H1947 C1943 0.930 . S
H1948 C1945 0.929 . S
S1949 N1950 1.613 . S
S1949 N1951 1.610 . S
N1950 S1949 1.613 . S
N1950 C1953 1.350 . S
N1951 S1949 1.610 . S
N1951 C1952 1.351 . S
C1952 C1946 1.428 . S
C1952 N1951 1.351 . S
C1952 C1953 1.434 . S
C1953 C1944 1.429 . S
C1953 N1950 1.350 . S
C1953 C1952 1.434 . S
C1954 C1955 1.369 . S
C1954 C1956 1.419 . S
C1954 H1958 0.930 . S
C1955 C1954 1.369 . S
C1955 C1964 1.429 . S
C1956 C1954 1.419 . S
C1956 C1957 1.363 . S
C1956 H1959 0.929 . S
C1957 C1956 1.363 . S
C1957 C1963 1.428 . S
H1958 C1954 0.930 . S
H1959 C1956 0.929 . S
S1960 N1961 1.613 . S
S1960 N1962 1.610 . S
N1961 S1960 1.613 . S
N1961 C1964 1.350 . S
N1962 S1960 1.610 . S
N1962 C1963 1.351 . S
C1963 C1957 1.428 . S
C1963 N1962 1.351 . S
C1963 C1964 1.434 . S
C1964 C1955 1.429 . S
C1964 N1961 1.350 . S
C1964 C1963 1.434 . S
C1965 C1966 1.369 . S
C1965 C1967 1.419 . S
C1965 H1969 0.930 . S
C1966 C1965 1.369 . S
C1966 C1975 1.429 . S
C1967 C1965 1.419 . S
C1967 C1968 1.363 . S
C1967 H1970 0.929 . S
C1968 C1967 1.363 . S
C1968 C1974 1.428 . S
H1969 C1965 0.930 . S
H1970 C1967 0.929 . S
S1971 N1972 1.613 . S
S1971 N1973 1.610 . S
N1972 S1971 1.613 . S
N1972 C1975 1.350 . S
N1973 S1971 1.610 . S
N1973 C1974 1.351 . S
C1974 C1968 1.428 . S
C1974 N1973 1.351 . S
C1974 C1975 1.434 . S
C1975 C1966 1.429 . S
C1975 N1972 1.350 . S
C1975 C1974 1.434 . S
C1976 C1977 1.369 . S
C1976 C1978 1.419 . S
C1976 H1980 0.930 . S
C1977 C1976 1.369 . S
C1977 C1986 1.429 . S
C1978 C1976 1.419 . S
C1978 C1979 1.363 . S
C1978 H1981 0.929 . S
C1979 C1978 1.363 . S
C1979 C1985 1.428 . S
H1980 C1976 0.930 . S
H1981 C1978 0.929 . S
S1982 N1983 1.613 . S
S1982 N1984 1.610 . S
N1983 S1982 1.613 . S
N1983 C1986 1.350 . S
N1984 S1982 1.610 . S
N1984 C1985 1.351 . S
C1985 C1979 1.428 . S
C1985 N1984 1.351 . S
C1985 C1986 1.434 . S
C1986 C1977 1.429 . S
C1986 N1983 1.350 . S
C1986 C1985 1.434 . S
C1987 C1988 1.369 . S
C1987 C1989 1.419 . S
C1987 H1991 0.930 . S
C1988 C1987 1.369 . S
C1988 C1997 1.429 . S
C1989 C1987 1.419 . S
C1989 C1990 1.363 . S
C1989 H1992 0.929 . S
C1990 C1989 1.363 . S
C1990 C1996 1.428 . S
H1991 C1987 0.930 . S
H1992 C1989 0.929 . S
S1993 N1994 1.613 . S
S1993 N1995 1.610 . S
N1994 S1993 1.613 . S
N1994 C1997 1.350 . S
N1995 S1993 1.610 . S
N1995 C1996 1.351 . S
C1996 C1990 1.428 . S
C1996 N1995 1.351 . S
C1996 C1997 1.434 . S
C1997 C1988 1.429 . S
C1997 N1994 1.350 . S
C1997 C1996 1.434 . S
C1405 C469 1.485 . S
C1407 C715 1.408 . S
C1416 C505 1.495 . S
C1418 C799 1.420 . S
C1427 C433 1.526 . S
C1429 C879 1.454 . S
C1438 C397 1.477 . S
C1440 C795 1.414 . S
C1451 C883 1.367 . S
C1449 C325 1.441 . S
C1460 C361 1.471 . S
C1462 C711 1.410 . S
C1473 C704 1.407 . S
C1471 C421 1.489 . S
C1484 C788 1.422 . S
C1482 C349 1.493 . S
C1493 C385 1.524 . S
C1495 C890 1.461 . S
C1504 C493 1.473 . S
C1506 C806 1.421 . S
C1515 C529 1.442 . S
C1517 C872 1.358 . S
C1528 C722 1.411 . S
C1526 C457 1.472 . S
C1539 C967 1.407 . S
C1537 C37 1.487 1_455 S
C1548 C73 1.496 . S
C1550 C1051 1.418 . S
C1559 C1 1.526 1_565 S
C1561 C1131 1.453 . S
C1570 C613 1.476 . S
C1572 C1047 1.416 . S
C1581 C541 1.442 . S
C1583 C1135 1.358 . S
C1592 C577 1.471 . S
C1594 C963 1.410 . S
C1603 C637 1.489 . S
C1605 C956 1.404 . S
C1614 C565 1.494 . S
C1616 C1040 1.419 . S
C1627 C1142 1.456 . S
C1625 C601 1.525 . S
C1636 C61 1.475 1_565 S
C1638 C1058 1.421 . S
C1649 C1124 1.359 . S
C1647 C97 1.442 1_455 S
C1658 C25 1.473 . S
C1660 C974 1.405 . S
C1671 C1219 1.409 . S
C1669 C253 1.486 . S
C1680 C289 1.496 . S
C1682 C1303 1.426 . S
C1693 C1383 1.460 . S
C1691 C217 1.523 . S
C1704 C1299 1.413 . S
C1702 C181 1.477 1_545 S
C1715 C1387 1.364 . S
C1713 C109 1.440 1_655 S
C1724 C145 1.470 . S
C1726 C1215 1.410 . S
C1735 C205 1.489 1_655 S
C1737 C1208 1.405 . S
C1746 C133 1.496 . S
C1748 C1292 1.426 . S
C1759 C1394 1.462 . S
C1757 C169 1.522 1_545 S
C1768 C277 1.475 . S
C1770 C1310 1.421 . S
C1779 C313 1.442 . S
C1781 C1376 1.360 . S
C1790 C241 1.475 . S
C1792 C1226 1.405 . S
C1801 C571 1.475 . S
C1803 C718 1.380 . S
C1814 C802 1.373 . S
C1812 C607 1.519 . S
C1823 C643 1.491 . S
C1825 C874 1.366 . S
C1834 C247 1.520 . S
C1836 C790 1.367 . S
C1845 C283 1.492 . S
C1847 C886 1.369 . S
C1858 C706 1.372 . S
C1856 C319 1.472 . S
C1867 C139 1.475 . S
C1869 C970 1.381 . S
C1878 C175 1.520 . S
C1880 C1054 1.376 . S
C1889 C211 1.491 . S
C1891 C1126 1.359 . S
C1900 C463 1.519 . S
C1902 C1042 1.373 . S
C1913 C1138 1.370 . S
C1911 C499 1.493 . S
C1922 C535 1.476 . S
C1924 C958 1.380 . S
C1933 C355 1.475 . S
C1935 C1222 1.382 . S
C1944 C391 1.519 . S
C1946 C1306 1.376 . S
C1957 C1378 1.360 . S
C1955 C427 1.491 . S
C1966 C31 1.519 . S
C1968 C1294 1.365 . S
C1977 C67 1.492 . S
C1979 C1390 1.369 . S
C1988 C103 1.473 . S
C1990 C1210 1.373 . S
