# Generated by pormake.
# Topology dag, (6,3)-cn, num edge types: 1
# Building blocks:
#     Node 0, Type 0, BuildingBlock: IZENUY_clean_sbu_0, # of connection points: 6
#     Node 1, Type 0, BuildingBlock: IZENUY_clean_sbu_0, # of connection points: 6
#     Node 2, Type 0, BuildingBlock: IZENUY_clean_sbu_0, # of connection points: 6
#     Node 3, Type 0, BuildingBlock: IZENUY_clean_sbu_0, # of connection points: 6
#     Node 4, Type 1, BuildingBlock: VETTIZ_charged_linker_0, # of connection points: 3
#     Node 5, Type 1, BuildingBlock: VETTIZ_charged_linker_0, # of connection points: 3
#     Node 6, Type 1, BuildingBlock: VETTIZ_charged_linker_0, # of connection points: 3
#     Node 7, Type 1, BuildingBlock: VETTIZ_charged_linker_0, # of connection points: 3
#     Node 8, Type 1, BuildingBlock: VETTIZ_charged_linker_0, # of connection points: 3
#     Node 9, Type 1, BuildingBlock: VETTIZ_charged_linker_0, # of connection points: 3
#     Node 10, Type 1, BuildingBlock: VETTIZ_charged_linker_0, # of connection points: 3
#     Node 11, Type 1, BuildingBlock: VETTIZ_charged_linker_0, # of connection points: 3
#     Edge 12, Type (0, 1), BuildingBlock: AJUNOK_clean_linker_0, # of connection points: 2
#     Edge 13, Type (0, 1), BuildingBlock: AJUNOK_clean_linker_0, # of connection points: 2
#     Edge 14, Type (0, 1), BuildingBlock: AJUNOK_clean_linker_0, # of connection points: 2
#     Edge 15, Type (0, 1), BuildingBlock: AJUNOK_clean_linker_0, # of connection points: 2
#     Edge 16, Type (0, 1), BuildingBlock: AJUNOK_clean_linker_0, # of connection points: 2
#     Edge 17, Type (0, 1), BuildingBlock: AJUNOK_clean_linker_0, # of connection points: 2
#     Edge 18, Type (0, 1), BuildingBlock: AJUNOK_clean_linker_0, # of connection points: 2
#     Edge 19, Type (0, 1), BuildingBlock: AJUNOK_clean_linker_0, # of connection points: 2
#     Edge 20, Type (0, 1), BuildingBlock: AJUNOK_clean_linker_0, # of connection points: 2
#     Edge 21, Type (0, 1), BuildingBlock: AJUNOK_clean_linker_0, # of connection points: 2
#     Edge 22, Type (0, 1), BuildingBlock: AJUNOK_clean_linker_0, # of connection points: 2
#     Edge 23, Type (0, 1), BuildingBlock: AJUNOK_clean_linker_0, # of connection points: 2
#     Edge 24, Type (0, 1), BuildingBlock: AJUNOK_clean_linker_0, # of connection points: 2
#     Edge 25, Type (0, 1), BuildingBlock: AJUNOK_clean_linker_0, # of connection points: 2
#     Edge 26, Type (0, 1), BuildingBlock: AJUNOK_clean_linker_0, # of connection points: 2
#     Edge 27, Type (0, 1), BuildingBlock: AJUNOK_clean_linker_0, # of connection points: 2
#     Edge 28, Type (0, 1), BuildingBlock: AJUNOK_clean_linker_0, # of connection points: 2
#     Edge 29, Type (0, 1), BuildingBlock: AJUNOK_clean_linker_0, # of connection points: 2
#     Edge 30, Type (0, 1), BuildingBlock: AJUNOK_clean_linker_0, # of connection points: 2
#     Edge 31, Type (0, 1), BuildingBlock: AJUNOK_clean_linker_0, # of connection points: 2
#     Edge 32, Type (0, 1), BuildingBlock: AJUNOK_clean_linker_0, # of connection points: 2
#     Edge 33, Type (0, 1), BuildingBlock: AJUNOK_clean_linker_0, # of connection points: 2
#     Edge 34, Type (0, 1), BuildingBlock: AJUNOK_clean_linker_0, # of connection points: 2
#     Edge 35, Type (0, 1), BuildingBlock: AJUNOK_clean_linker_0, # of connection points: 2
# Relax obj value: 0.264
# Max RMSD: 0.202
# Mean RMSD: 0.161
data_MOF--net-dag--node1-IZENUY_clean_sbu_0--node2-VETTIZ_charged_linker_0--edge1-AJUNOK_clean_linker_0
_symmetry_space_group_name_H-M    P1
_symmetry_Int_Tables_number       1
_symmetry_cell_setting            triclinic
loop_
_symmetry_equiv_pos_as_xyz
'x, y, z'
_cell_length_a     37.407215
_cell_length_b     37.464957
_cell_length_c     32.374284
_cell_angle_alpha  92.978662
_cell_angle_beta   87.113017
_cell_angle_gamma 87.949582
loop_
_atom_site_label
_atom_site_type_symbol
_atom_site_fract_x
_atom_site_fract_y
_atom_site_fract_z
_atom_type_partial_charge
Fe0 Fe 0.23095 0.83091 0.0774 0.0
Fe1 Fe 0.15915 0.85186 0.04397 0.0
O2 O 0.18682 0.81946 0.06571 0.0
Fe3 Fe 0.1706 0.77648 0.07579 0.0
O4 O 0.18073 0.78088 0.13005 0.0
O5 O 0.23426 0.80227 0.12104 0.0
O6 O 0.21413 0.86679 0.11441 0.0
C7 C 0.1945 0.89246 0.10376 0.0
C8 C 0.24141 0.76343 0.04104 0.0
O9 O 0.17899 0.89026 0.07 0.0
C10 C 0.13897 0.78784 0.00259 0.0
O11 O 0.2366 0.86193 0.03546 0.0
O12 O 0.18984 0.85335 0.9988 0.0
O13 O 0.21393 0.7532 0.06119 0.0
O14 O 0.24949 0.79589 0.04149 0.0
C15 C 0.11311 0.82507 0.1024 0.0
O16 O 0.13345 0.82024 0.01429 0.0
O17 O 0.15838 0.7674 0.02249 0.0
C18 C 0.22139 0.86377 0.00151 0.0
O19 O 0.12745 0.85202 0.08781 0.0
O20 O 0.12491 0.7935 0.09199 0.0
C21 C 0.21053 0.78873 0.14366 0.0
Fe22 Fe 0.71699 0.66328 0.52292 0.0
Fe23 Fe 0.66484 0.72062 0.56752 0.0
O24 O 0.67382 0.67698 0.54464 0.0
Fe25 Fe 0.63914 0.64644 0.54338 0.0
O26 O 0.66833 0.60645 0.54407 0.0
O27 O 0.72101 0.6264 0.55736 0.0
O28 O 0.74168 0.69034 0.56057 0.0
C29 C 0.7314 0.70451 0.5958 0.0
C30 C 0.66905 0.63606 0.46531 0.0
O31 O 0.69922 0.71452 0.60378 0.0
C32 C 0.60221 0.7111 0.52982 0.0
O33 O 0.71586 0.69853 0.48723 0.0
O34 O 0.69529 0.74255 0.53079 0.0
O35 O 0.64117 0.64517 0.48748 0.0
O36 O 0.69951 0.6343 0.48101 0.0
C37 C 0.63043 0.67464 0.6225 0.0
O38 O 0.62908 0.73016 0.53288 0.0
O39 O 0.6026 0.68 0.54283 0.0
C40 C 0.70889 0.73133 0.49556 0.0
O41 O 0.63321 0.70559 0.60847 0.0
O42 O 0.63617 0.64683 0.59911 0.0
C43 C 0.69836 0.60237 0.5596 0.0
Fe44 Fe 0.83317 0.22245 0.00715 0.0
Fe45 Fe 0.84966 0.14874 0.03982 0.0
O46 O 0.81888 0.17979 0.02078 0.0
Fe47 Fe 0.77389 0.1678 0.01553 0.0
O48 O 0.7666 0.19475 0.9707 0.0
O49 O 0.81945 0.21522 0.95452 0.0
O50 O 0.87829 0.20609 0.9879 0.0
C51 C 0.88996 0.17477 0.97621 0.0
C52 C 0.76473 0.23669 0.04755 0.0
O53 O 0.87691 0.14769 0.992 0.0
C54 C 0.79175 0.13844 0.09135 0.0
O55 O 0.84812 0.23333 0.05894 0.0
O56 O 0.87736 0.18213 0.06412 0.0
O57 O 0.75792 0.20424 0.05133 0.0
O58 O 0.79046 0.24578 0.02386 0.0
C59 C 0.80835 0.1051 0.98878 0.0
O60 O 0.82373 0.14816 0.08865 0.0
O61 O 0.77272 0.13896 0.06 0.0
C62 C 0.87032 0.21414 0.07671 0.0
O63 O 0.82813 0.10917 0.019 0.0
O64 O 0.78741 0.13017 0.97918 0.0
C65 C 0.78808 0.20835 0.94502 0.0
Fe66 Fe 0.35702 0.36087 0.54525 0.0
Fe67 Fe 0.28068 0.33828 0.56359 0.0
O68 O 0.32483 0.32786 0.54254 0.0
Fe69 Fe 0.33713 0.28488 0.51947 0.0
O70 O 0.3726 0.27765 0.55545 0.0
O71 O 0.39536 0.32998 0.54783 0.0
O72 O 0.35346 0.36215 0.60092 0.0
C73 C 0.32489 0.36914 0.62238 0.0
C74 C 0.37207 0.3333 0.46706 0.0
O75 O 0.29488 0.36909 0.60575 0.0
C76 C 0.26999 0.29572 0.49049 0.0
O77 O 0.32507 0.39864 0.5428 0.0
O78 O 0.2743 0.37446 0.52875 0.0
O79 O 0.36872 0.30192 0.47969 0.0
O80 O 0.36219 0.36046 0.48987 0.0
C81 C 0.29333 0.27089 0.59056 0.0
O82 O 0.25889 0.30898 0.52583 0.0
O83 O 0.30291 0.28885 0.48219 0.0
C84 C 0.29527 0.39996 0.52619 0.0
O85 O 0.28435 0.30323 0.59936 0.0
O86 O 0.30761 0.2609 0.55521 0.0
C87 C 0.39718 0.29919 0.56156 0.0
C88 C 0.15692 0.04192 0.22574 0.0
C89 C 0.14262 0.02082 0.19399 0.0
C90 C 0.10945 0.0311 0.1787 0.0
C91 C 0.10697 0.08502 0.22334 0.0
C92 C 0.13865 0.07399 0.23987 0.0
C93 C 0.15091 0.10113 0.27151 0.0
H94 H 0.13374 0.26638 0.36688 0.0
C95 C 0.09649 0.12099 0.2418 0.0
C96 C 0.12182 0.1305 0.27037 0.0
H97 H 0.21318 0.18233 0.3825 0.0
H98 H 0.18355 0.14268 0.33563 0.0
H99 H 0.13016 0.25224 0.26652 0.0
H100 H 0.06359 0.21332 0.36637 0.0
H101 H 0.0364 0.22782 0.32714 0.0
H102 H 0.06277 0.25967 0.35462 0.0
H103 H 0.10083 0.28154 0.29959 0.0
H104 H 0.0847 0.25722 0.25534 0.0
C105 C 0.18802 0.1137 0.25588 0.0
C106 C 0.15064 0.08382 0.31402 0.0
C107 C 0.99189 0.18822 0.18513 0.0
C108 C 0.97662 0.22274 0.19255 0.0
C109 C 0.98978 0.24547 0.22382 0.0
C110 C 0.01879 0.23392 0.24666 0.0
C111 C 0.03452 0.19936 0.23796 0.0
C112 C 0.02051 0.17714 0.20794 0.0
C113 C 0.04007 0.1415 0.20211 0.0
C114 C 0.06853 0.14572 0.23338 0.0
C115 C 0.0655 0.17965 0.25433 0.0
C116 C 0.05632 0.13772 0.15693 0.0
C117 C 0.01359 0.11221 0.21366 0.0
C118 C 0.1443 0.23929 0.36022 0.0
C119 C 0.17573 0.22718 0.37803 0.0
C120 C 0.18903 0.19196 0.36885 0.0
C121 C 0.17183 0.16907 0.34158 0.0
C122 C 0.14114 0.18161 0.3228 0.0
C123 C 0.12743 0.21598 0.33253 0.0
C124 C 0.09451 0.22423 0.30908 0.0
C125 C 0.09097 0.18921 0.28383 0.0
C126 C 0.11867 0.16456 0.29192 0.0
C127 C 0.10263 0.25559 0.28123 0.0
C128 C 0.06249 0.23194 0.34074 0.0
H129 H 0.06675 0.06964 0.17967 0.0
H130 H 0.18243 0.03444 0.23789 0.0
H131 H 0.13027 0.06296 0.31608 0.0
H132 H 0.14303 0.10322 0.34019 0.0
H133 H 0.17707 0.07084 0.31927 0.0
H134 H 0.18891 0.1164 0.22177 0.0
H135 H 0.20972 0.09419 0.26266 0.0
H136 H 0.1944 0.14034 0.26897 0.0
H137 H 0.98198 0.17023 0.16138 0.0
H138 H 0.97809 0.27219 0.22998 0.0
H139 H 0.02813 0.25239 0.26981 0.0
H140 H 0.06482 0.16402 0.14621 0.0
H141 H 0.0365 0.12743 0.13529 0.0
H142 H 0.08086 0.12038 0.15332 0.0
H143 H 0.99345 0.12244 0.23832 0.0
H144 H 0.02693 0.08888 0.2268 0.0
H145 H 0.99874 0.10298 0.18648 0.0
H146 H 0.09798 0.01486 0.15443 0.0
C147 C 0.09148 0.06295 0.19331 0.0
C148 C 0.35845 0.47379 0.78797 0.0
C149 C 0.37567 0.45099 0.75682 0.0
C150 C 0.41214 0.45531 0.74591 0.0
C151 C 0.41234 0.50771 0.79271 0.0
C152 C 0.37746 0.50164 0.8059 0.0
C153 C 0.36315 0.52909 0.83863 0.0
H154 H 0.37958 0.68853 0.94083 0.0
C155 C 0.42291 0.54144 0.81341 0.0
C156 C 0.39456 0.5536 0.84119 0.0
H157 H 0.29234 0.61627 0.95063 0.0
H158 H 0.32572 0.57241 0.90553 0.0
H159 H 0.44656 0.62639 0.94059 0.0
H160 H 0.38989 0.68024 0.84823 0.0
H161 H 0.43359 0.67237 0.82701 0.0
H162 H 0.42603 0.70055 0.87379 0.0
H163 H 0.44978 0.67315 0.9319 0.0
H164 H 0.4782 0.63989 0.90284 0.0
C165 C 0.35597 0.51002 0.87947 0.0
C166 C 0.32968 0.54821 0.82226 0.0
C167 C 0.532 0.60328 0.75692 0.0
C168 C 0.5449 0.63765 0.7645 0.0
C169 C 0.52918 0.6597 0.79751 0.0
C170 C 0.50031 0.64796 0.82195 0.0
C171 C 0.48656 0.61416 0.81264 0.0
C172 C 0.50283 0.59219 0.78106 0.0
C173 C 0.48365 0.55793 0.77414 0.0
C174 C 0.4527 0.56324 0.80633 0.0
C175 C 0.45453 0.59625 0.82864 0.0
C176 C 0.50923 0.52622 0.78346 0.0
C177 C 0.4708 0.55668 0.72932 0.0
C178 C 0.36772 0.66322 0.93324 0.0
C179 C 0.33309 0.656 0.94869 0.0
C180 C 0.31895 0.62242 0.93901 0.0
C181 C 0.33827 0.59711 0.91259 0.0
C182 C 0.3719 0.60562 0.89529 0.0
C183 C 0.38643 0.63788 0.90637 0.0
C184 C 0.42191 0.64281 0.88389 0.0
C185 C 0.42647 0.60792 0.85788 0.0
C186 C 0.39692 0.58647 0.86444 0.0
C187 C 0.45081 0.64599 0.9163 0.0
C188 C 0.41803 0.67574 0.85697 0.0
H189 H 0.458 0.48615 0.75335 0.0
H190 H 0.33051 0.4707 0.79708 0.0
H191 H 0.33441 0.55398 0.78909 0.0
H192 H 0.32276 0.57435 0.83839 0.0
H193 H 0.30599 0.53125 0.82469 0.0
H194 H 0.37329 0.48534 0.88059 0.0
H195 H 0.3277 0.50209 0.88291 0.0
H196 H 0.36247 0.52667 0.90714 0.0
H197 H 0.5431 0.58608 0.73115 0.0
H198 H 0.53875 0.68629 0.80377 0.0
H199 H 0.48908 0.66612 0.84629 0.0
H200 H 0.52901 0.5345 0.8063 0.0
H201 H 0.52451 0.51542 0.75495 0.0
H202 H 0.4949 0.50432 0.79789 0.0
H203 H 0.45886 0.58312 0.72208 0.0
H204 H 0.44979 0.53742 0.72389 0.0
H205 H 0.49349 0.54999 0.70645 0.0
H206 H 0.42583 0.43804 0.72177 0.0
C207 C 0.43063 0.48347 0.76385 0.0
C208 C 0.76173 0.85318 0.35964 0.0
C209 C 0.77321 0.82014 0.37408 0.0
C210 C 0.80593 0.80394 0.35832 0.0
C211 C 0.81507 0.85271 0.31337 0.0
C212 C 0.78297 0.86886 0.32893 0.0
C213 C 0.77445 0.90304 0.30809 0.0
H214 H 0.8241 0.01899 0.16252 0.0
C215 C 0.83018 0.87472 0.28083 0.0
C216 C 0.80631 0.90418 0.27712 0.0
H217 H 0.7311 0.03061 0.24702 0.0
H218 H 0.74698 0.97347 0.27595 0.0
H219 H 0.87585 0.99851 0.22499 0.0
H220 H 0.81789 0.93558 0.13899 0.0
H221 H 0.86052 0.91443 0.13877 0.0
H222 H 0.85626 0.96019 0.12409 0.0
H223 H 0.89098 0.99116 0.17174 0.0
H224 H 0.90494 0.96184 0.2109 0.0
C225 C 0.77371 0.93442 0.34111 0.0
C226 C 0.73884 0.89895 0.28635 0.0
C227 C 0.95295 0.84136 0.21023 0.0
C228 C 0.97332 0.85809 0.17962 0.0
C229 C 0.95825 0.88732 0.16022 0.0
C230 C 0.92395 0.90091 0.17221 0.0
C231 C 0.90439 0.88532 0.20424 0.0
C232 C 0.91846 0.85562 0.22221 0.0
C233 C 0.893 0.84267 0.25535 0.0
C234 C 0.86221 0.87046 0.25517 0.0
C235 C 0.86936 0.89523 0.22528 0.0
C236 C 0.91187 0.84449 0.29685 0.0
C237 C 0.88152 0.80473 0.24133 0.0
C238 C 0.80703 0.00908 0.18714 0.0
C239 C 0.77663 0.02893 0.20285 0.0
C240 C 0.75483 0.01547 0.23474 0.0
C241 C 0.76419 0.98251 0.25141 0.0
C242 C 0.79556 0.96324 0.23581 0.0
C243 C 0.81605 0.97684 0.204 0.0
C244 C 0.84904 0.95445 0.19165 0.0
C245 C 0.84544 0.92479 0.22124 0.0
C246 C 0.81409 0.92961 0.24704 0.0
C247 C 0.88204 0.97746 0.19985 0.0
C248 C 0.84618 0.94051 0.14595 0.0
H249 H 0.85143 0.8062 0.31725 0.0
H250 H 0.73645 0.86589 0.37112 0.0
H251 H 0.73805 0.87204 0.27026 0.0
H252 H 0.73525 0.91826 0.26219 0.0
H253 H 0.71557 0.90202 0.30912 0.0
H254 H 0.79572 0.93086 0.36258 0.0
H255 H 0.74797 0.93603 0.3599 0.0
H256 H 0.778 0.96044 0.3276 0.0
H257 H 0.96397 0.81856 0.2252 0.0
H258 H 0.97339 0.90003 0.13601 0.0
H259 H 0.9144 0.92354 0.1565 0.0
H260 H 0.92622 0.86987 0.30055 0.0
H261 H 0.93187 0.82198 0.29808 0.0
H262 H 0.89309 0.84428 0.32421 0.0
H263 H 0.88344 0.80052 0.207 0.0
H264 H 0.85314 0.80023 0.25016 0.0
H265 H 0.89875 0.78364 0.25408 0.0
H266 H 0.81506 0.77846 0.36918 0.0
C267 C 0.82691 0.82003 0.32815 0.0
C268 C 0.70972 0.25599 0.7732 0.0
C269 C 0.7394 0.26821 0.79408 0.0
C270 C 0.75732 0.29796 0.77955 0.0
C271 C 0.71484 0.30406 0.726 0.0
C272 C 0.69786 0.27431 0.73952 0.0
C273 C 0.66545 0.2661 0.71553 0.0
H274 H 0.55095 0.31568 0.57215 0.0
C275 C 0.69536 0.31745 0.691 0.0
C276 C 0.66668 0.29493 0.68428 0.0
H277 H 0.53755 0.23367 0.6596 0.0
H278 H 0.59816 0.24177 0.68145 0.0
H279 H 0.58087 0.36968 0.63569 0.0
H280 H 0.63354 0.29802 0.54219 0.0
H281 H 0.66095 0.33505 0.54596 0.0
H282 H 0.61557 0.34098 0.53001 0.0
H283 H 0.57801 0.37435 0.58102 0.0
H284 H 0.61323 0.39375 0.609 0.0
C285 C 0.63185 0.27068 0.74576 0.0
C286 C 0.6711 0.22827 0.69423 0.0
C287 C 0.72467 0.43708 0.63177 0.0
C288 C 0.70979 0.45557 0.59964 0.0
C289 C 0.68671 0.43794 0.57309 0.0
C290 C 0.67615 0.40334 0.58027 0.0
C291 C 0.68832 0.38637 0.61482 0.0
C292 C 0.7138 0.40217 0.63849 0.0
C293 C 0.72531 0.37842 0.67205 0.0
C294 C 0.70042 0.34737 0.66637 0.0
C295 C 0.67825 0.35281 0.63343 0.0
C296 C 0.71784 0.39906 0.71445 0.0
C297 C 0.76515 0.36659 0.66262 0.0
C298 C 0.56162 0.2988 0.59516 0.0
C299 C 0.53987 0.27406 0.61425 0.0
C300 C 0.55411 0.25274 0.64441 0.0
C301 C 0.589 0.25794 0.65739 0.0
C302 C 0.60933 0.28517 0.6405 0.0
C303 C 0.59577 0.30444 0.60917 0.0
C304 C 0.61918 0.33438 0.59718 0.0
C305 C 0.649 0.33037 0.62688 0.0
C306 C 0.64319 0.30154 0.65216 0.0
C307 C 0.59692 0.37002 0.60583 0.0
C308 C 0.63295 0.32708 0.55143 0.0
H309 H 0.75963 0.33868 0.73647 0.0
H310 H 0.69572 0.23286 0.78314 0.0
H311 H 0.69884 0.22441 0.68024 0.0
H312 H 0.65324 0.22355 0.66853 0.0
H313 H 0.66698 0.20733 0.71689 0.0
H314 H 0.63611 0.29026 0.77193 0.0
H315 H 0.62513 0.24495 0.75926 0.0
H316 H 0.60815 0.2817 0.73104 0.0
H317 H 0.74269 0.45014 0.65234 0.0
H318 H 0.67521 0.45184 0.54807 0.0
H319 H 0.6574 0.39187 0.55993 0.0
H320 H 0.69068 0.41234 0.71612 0.0
H321 H 0.73764 0.42009 0.71924 0.0
H322 H 0.71829 0.38164 0.74084 0.0
H323 H 0.77279 0.36718 0.62901 0.0
H324 H 0.77086 0.33857 0.67028 0.0
H325 H 0.78326 0.38439 0.67949 0.0
H326 H 0.78016 0.30797 0.79519 0.0
C327 C 0.74527 0.31586 0.7456 0.0
C328 C 0.64196 0.53351 0.2949 0.0
C329 C 0.62261 0.55663 0.32425 0.0
C330 C 0.58548 0.55257 0.33104 0.0
C331 C 0.5887 0.49961 0.28501 0.0
C332 C 0.62436 0.50534 0.27534 0.0
C333 C 0.64094 0.47669 0.24523 0.0
H334 H 0.63199 0.31101 0.154 0.0
C335 C 0.57996 0.46468 0.2659 0.0
C336 C 0.61023 0.45127 0.24196 0.0
H337 H 0.71522 0.38688 0.13706 0.0
H338 H 0.68092 0.43095 0.18115 0.0
H339 H 0.62238 0.32333 0.24585 0.0
H340 H 0.56126 0.36865 0.15145 0.0
H341 H 0.53209 0.35216 0.19025 0.0
H342 H 0.5642 0.32205 0.16215 0.0
H343 H 0.58378 0.30192 0.22742 0.0
H344 H 0.58033 0.3349 0.27032 0.0
C345 C 0.67365 0.4592 0.26495 0.0
C346 C 0.65009 0.49378 0.20356 0.0
C347 C 0.46992 0.40509 0.32207 0.0
C348 C 0.46228 0.36874 0.32466 0.0
C349 C 0.48178 0.34327 0.29799 0.0
C350 C 0.50986 0.3537 0.27136 0.0
C351 C 0.51948 0.38968 0.2726 0.0
C352 C 0.49944 0.41472 0.29757 0.0
C353 C 0.5166 0.45041 0.30046 0.0
C354 C 0.55048 0.44257 0.27322 0.0
C355 C 0.55151 0.40731 0.25615 0.0
C356 C 0.5244 0.45962 0.34659 0.0
C357 C 0.49158 0.47813 0.28137 0.0
C358 C 0.6427 0.33721 0.15966 0.0
C359 C 0.67608 0.34568 0.14167 0.0
C360 C 0.68921 0.38 0.14984 0.0
C361 C 0.66942 0.40544 0.17568 0.0
C362 C 0.63644 0.3963 0.19407 0.0
C363 C 0.62337 0.36283 0.18556 0.0
C364 C 0.58816 0.35765 0.20852 0.0
C365 C 0.58137 0.39427 0.23033 0.0
C366 C 0.61014 0.41646 0.22252 0.0
C367 C 0.59365 0.32785 0.2395 0.0
C368 C 0.55976 0.34952 0.17658 0.0
H369 H 0.54041 0.5219 0.31876 0.0
H370 H 0.67042 0.5364 0.2888 0.0
H371 H 0.63392 0.51891 0.20039 0.0
H372 H 0.64375 0.47623 0.17651 0.0
H373 H 0.67876 0.50049 0.20069 0.0
H374 H 0.66663 0.45298 0.29754 0.0
H375 H 0.69642 0.47743 0.26518 0.0
H376 H 0.68313 0.43368 0.24896 0.0
H377 H 0.45538 0.42548 0.34185 0.0
H378 H 0.47707 0.31503 0.29951 0.0
H379 H 0.52426 0.33304 0.25252 0.0
H380 H 0.52181 0.43623 0.36617 0.0
H381 H 0.50569 0.48111 0.36063 0.0
H382 H 0.55224 0.46775 0.35041 0.0
H383 H 0.48109 0.46684 0.25211 0.0
H384 H 0.5055 0.50246 0.27293 0.0
H385 H 0.46827 0.48596 0.30297 0.0
H386 H 0.57 0.56983 0.35373 0.0
C387 C 0.5684 0.52438 0.31129 0.0
C388 C 0.20896 0.17792 0.7258 0.0
C389 C 0.24324 0.16933 0.70771 0.0
C390 C 0.26183 0.1382 0.71873 0.0
C391 C 0.21297 0.12629 0.76785 0.0
C392 C 0.19435 0.15615 0.75554 0.0
C393 C 0.15828 0.16197 0.77792 0.0
H394 H 0.0371 0.10977 0.92266 0.0
C395 C 0.19095 0.11075 0.80117 0.0
C396 C 0.15881 0.13162 0.80701 0.0
H397 H 0.02421 0.19572 0.84026 0.0
H398 H 0.08477 0.18349 0.81087 0.0
H399 H 0.07501 0.05341 0.85605 0.0
H400 H 0.11244 0.12754 0.94775 0.0
H401 H 0.14505 0.09255 0.94417 0.0
H402 H 0.09944 0.08374 0.96056 0.0
H403 H 0.07022 0.04818 0.91081 0.0
H404 H 0.10923 0.03074 0.88051 0.0
C405 C 0.1292 0.15766 0.74577 0.0
C406 C 0.15711 0.19898 0.8017 0.0
C407 C 0.23601 0.00112 0.87424 0.0
C408 C 0.22122 0.98373 0.90823 0.0
C409 C 0.18895 0.99708 0.92825 0.0
C410 C 0.17083 0.02679 0.91426 0.0
C411 C 0.18506 0.04357 0.87976 0.0
C412 C 0.21753 0.03147 0.86082 0.0
C413 C 0.22897 0.05469 0.82611 0.0
C414 C 0.19737 0.08164 0.82675 0.0
C415 C 0.17172 0.07441 0.85797 0.0
C416 C 0.23249 0.0312 0.7853 0.0
C417 C 0.26398 0.07258 0.83789 0.0
C418 C 0.04719 0.12567 0.8979 0.0
C419 C 0.02583 0.15312 0.88297 0.0
C420 C 0.04023 0.17411 0.8518 0.0
C421 C 0.07526 0.16687 0.83479 0.0
C422 C 0.09604 0.13854 0.84944 0.0
C423 C 0.08186 0.11882 0.88077 0.0
C424 C 0.10734 0.09001 0.89308 0.0
C425 C 0.13901 0.09478 0.86309 0.0
C426 C 0.13246 0.12324 0.83772 0.0
C427 C 0.08973 0.05357 0.88508 0.0
C428 C 0.11651 0.09854 0.93876 0.0
H429 H 0.2624 0.09347 0.75652 0.0
H430 H 0.19398 0.20148 0.71727 0.0
H431 H 0.18309 0.2038 0.81595 0.0
H432 H 0.13677 0.20131 0.82768 0.0
H433 H 0.15199 0.22084 0.7806 0.0
H434 H 0.13795 0.13735 0.72065 0.0
H435 H 0.12348 0.18326 0.73111 0.0
H436 H 0.10394 0.14774 0.75918 0.0
H437 H 0.261 0.99131 0.85863 0.0
H438 H 0.17728 0.98387 0.95444 0.0
H439 H 0.14611 0.03508 0.93061 0.0
H440 H 0.21027 0.01228 0.78381 0.0
H441 H 0.25814 0.01516 0.78289 0.0
H442 H 0.23062 0.0469 0.75753 0.0
H443 H 0.26316 0.08031 0.87159 0.0
H444 H 0.26834 0.09767 0.82234 0.0
H445 H 0.28759 0.05403 0.83084 0.0
H446 H 0.28826 0.13116 0.70484 0.0
C447 C 0.24688 0.11662 0.74887 0.0
C448 C 0.25594 0.71419 0.3174 0.0
C449 C 0.26837 0.74334 0.29579 0.0
C450 C 0.30046 0.75889 0.30742 0.0
C451 C 0.30665 0.71698 0.36136 0.0
C452 C 0.27553 0.70136 0.34968 0.0
C453 C 0.26747 0.66897 0.37363 0.0
H454 H 0.32034 0.55119 0.51175 0.0
C455 C 0.32094 0.69691 0.39543 0.0
C456 C 0.29798 0.66875 0.40282 0.0
H457 H 0.23295 0.54221 0.4304 0.0
H458 H 0.24272 0.60223 0.40799 0.0
H459 H 0.3736 0.58097 0.44738 0.0
H460 H 0.30459 0.63404 0.54322 0.0
H461 H 0.34224 0.66054 0.53893 0.0
H462 H 0.34751 0.61492 0.55399 0.0
H463 H 0.37995 0.57807 0.50173 0.0
H464 H 0.39869 0.61325 0.47303 0.0
C465 C 0.26949 0.63571 0.34281 0.0
C466 C 0.23073 0.67563 0.39741 0.0
C467 C 0.43841 0.73094 0.4582 0.0
C468 C 0.45698 0.71743 0.49116 0.0
C469 C 0.44152 0.69056 0.51432 0.0
C470 C 0.40873 0.67659 0.5043 0.0
C471 C 0.39114 0.68923 0.47039 0.0
C472 C 0.40527 0.71678 0.44878 0.0
C473 C 0.38145 0.72778 0.41505 0.0
C474 C 0.3515 0.7015 0.41934 0.0
C475 C 0.35788 0.67856 0.45126 0.0
C476 C 0.40301 0.72186 0.37298 0.0
C477 C 0.36786 0.76691 0.42543 0.0
C478 C 0.30281 0.56268 0.48988 0.0
C479 C 0.27588 0.54243 0.47275 0.0
C480 C 0.25369 0.55769 0.44406 0.0
C481 C 0.25978 0.59222 0.43078 0.0
C482 C 0.28864 0.61122 0.44602 0.0
C483 C 0.30897 0.59668 0.4759 0.0
C484 C 0.33962 0.61946 0.48718 0.0
C485 C 0.33525 0.64957 0.45807 0.0
C486 C 0.30536 0.64472 0.4341 0.0
C487 C 0.37495 0.59698 0.47716 0.0
C488 C 0.33354 0.63285 0.53324 0.0
H489 H 0.34366 0.75903 0.3473 0.0
H490 H 0.23171 0.70125 0.309 0.0
H491 H 0.22848 0.70321 0.41204 0.0
H492 H 0.22666 0.65757 0.42297 0.0
H493 H 0.20847 0.67265 0.37619 0.0
H494 H 0.28768 0.63975 0.31532 0.0
H495 H 0.24272 0.62984 0.33136 0.0
H496 H 0.28088 0.61157 0.35629 0.0
H497 H 0.44964 0.75164 0.43994 0.0
H498 H 0.45555 0.67924 0.53934 0.0
H499 H 0.3989 0.65569 0.52264 0.0
H500 H 0.42013 0.69691 0.37234 0.0
H501 H 0.42083 0.7444 0.36743 0.0
H502 H 0.38582 0.71825 0.34649 0.0
H503 H 0.36342 0.77222 0.45947 0.0
H504 H 0.34164 0.77312 0.41272 0.0
H505 H 0.38758 0.78612 0.41415 0.0
H506 H 0.31161 0.78036 0.29037 0.0
C507 C 0.31939 0.74615 0.34024 0.0
C508 C 0.83175 0.94514 0.88339 0.0
C509 C 0.84455 0.96502 0.9172 0.0
C510 C 0.87505 0.95212 0.93636 0.0
C511 C 0.87908 0.89967 0.88927 0.0
C512 C 0.8493 0.91239 0.87019 0.0
C513 C 0.8387 0.88677 0.83593 0.0
H514 H 0.86548 0.72836 0.72536 0.0
C515 C 0.89083 0.86481 0.86863 0.0
C516 C 0.86731 0.85694 0.83742 0.0
H517 H 0.7808 0.80879 0.71773 0.0
H518 H 0.80697 0.8462 0.76991 0.0
H519 H 0.93111 0.78634 0.73453 0.0
H520 H 0.86748 0.73338 0.82656 0.0
H521 H 0.91319 0.73006 0.83744 0.0
H522 H 0.89857 0.70927 0.7902 0.0
H523 H 0.93607 0.73908 0.7407 0.0
H524 H 0.95901 0.77088 0.77252 0.0
C525 C 0.84179 0.90605 0.79478 0.0
C526 C 0.80068 0.87394 0.84751 0.0
C527 C 0.00194 0.80158 0.91577 0.0
C528 C 0.02194 0.7707 0.90156 0.0
C529 C 0.00935 0.74878 0.86918 0.0
C530 C 0.97724 0.75824 0.85064 0.0
C531 C 0.95794 0.79003 0.86455 0.0
C532 C 0.9705 0.81085 0.89684 0.0
C533 C 0.9481 0.84441 0.90688 0.0
C534 C 0.91985 0.84074 0.87527 0.0
C535 C 0.92536 0.80881 0.85054 0.0
C536 C 0.97192 0.87681 0.89937 0.0
C537 C 0.93194 0.84289 0.95182 0.0
C538 C 0.85304 0.75423 0.73488 0.0
C539 C 0.82115 0.76591 0.71769 0.0
C540 C 0.80536 0.79949 0.73076 0.0
C541 C 0.82055 0.82107 0.76113 0.0
C542 C 0.85185 0.80893 0.77898 0.0
C543 C 0.86786 0.77616 0.76572 0.0
C544 C 0.90088 0.76788 0.789 0.0
C545 C 0.90135 0.8006 0.8189 0.0
C546 C 0.87256 0.82458 0.81255 0.0
C547 C 0.93364 0.76564 0.75775 0.0
C548 C 0.89506 0.73321 0.81195 0.0
H549 H 0.91532 0.91145 0.93875 0.0
H550 H 0.8083 0.95448 0.86821 0.0
H551 H 0.79567 0.87403 0.88169 0.0
H552 H 0.79683 0.84596 0.83659 0.0
H553 H 0.77963 0.89153 0.83526 0.0
H554 H 0.86575 0.92281 0.79381 0.0
H555 H 0.8179 0.9239 0.79133 0.0
H556 H 0.84551 0.88741 0.76722 0.0
H557 H 0.01144 0.81906 0.94027 0.0
H558 H 0.02478 0.72502 0.8576 0.0
H559 H 0.969 0.74087 0.82575 0.0
H560 H 0.99237 0.87045 0.87362 0.0
H561 H 0.98638 0.88452 0.9274 0.0
H562 H 0.95672 0.90045 0.88955 0.0
H563 H 0.92621 0.81493 0.9593 0.0
H564 H 0.90584 0.85763 0.95691 0.0
H565 H 0.95069 0.85328 0.9747 0.0
H566 H 0.88562 0.96735 0.96207 0.0
C567 C 0.89232 0.91967 0.92266 0.0
C568 C 0.18154 0.92651 0.17177 0.0
C569 C 0.19 0.92639 0.12891 0.0
C570 C 0.16816 0.95795 0.19384 0.0
C571 C 0.1631 0.98988 0.1735 0.0
H572 H 0.18272 0.90177 0.18762 0.0
H573 H 0.1597 0.95675 0.22622 0.0
S574 S 0.1867 0.00464 0.06336 0.0
N575 N 0.19644 0.96181 0.06832 0.0
N576 N 0.1715 0.02055 0.10972 0.0
C577 C 0.17412 0.9906 0.13154 0.0
C578 C 0.18757 0.95888 0.10923 0.0
C579 C 0.58491 0.69221 0.67986 0.0
C580 C 0.61413 0.67006 0.66423 0.0
C581 C 0.56396 0.68295 0.7146 0.0
C582 C 0.57181 0.65143 0.73483 0.0
H583 H 0.57667 0.71537 0.66353 0.0
H584 H 0.54009 0.69922 0.72388 0.0
S585 S 0.65016 0.58904 0.71132 0.0
N586 N 0.65326 0.61866 0.67539 0.0
N587 N 0.61399 0.60136 0.74071 0.0
C588 C 0.60293 0.63105 0.72179 0.0
C589 C 0.62411 0.64039 0.68648 0.0
C590 C 0.75348 0.09214 0.12228 0.0
C591 C 0.78011 0.11756 0.12706 0.0
C592 C 0.74868 0.06548 0.15073 0.0
C593 C 0.76986 0.06383 0.18518 0.0
H594 H 0.73844 0.0907 0.09455 0.0
H595 H 0.73082 0.04412 0.14359 0.0
S596 S 0.83803 0.12776 0.21633 0.0
N597 N 0.82397 0.14235 0.17247 0.0
N598 N 0.81465 0.09226 0.22578 0.0
C599 C 0.79355 0.09132 0.19279 0.0
C600 C 0.79876 0.11823 0.16376 0.0
C601 C 0.44864 0.25585 0.57241 0.0
C602 C 0.43022 0.28893 0.58197 0.0
C603 C 0.48379 0.24974 0.5851 0.0
C604 C 0.50099 0.27643 0.608 0.0
H605 H 0.43684 0.23562 0.55282 0.0
H606 H 0.49822 0.22497 0.57506 0.0
S607 S 0.46246 0.36537 0.64568 0.0
N608 N 0.43072 0.34708 0.61904 0.0
N609 N 0.49583 0.33519 0.64344 0.0
C610 C 0.48174 0.30832 0.62032 0.0
C611 C 0.44655 0.31468 0.60715 0.0
C612 C 0.68036 0.58695 0.41068 0.0
C613 C 0.66416 0.6204 0.4234 0.0
C614 C 0.66895 0.56758 0.3758 0.0
C615 C 0.6412 0.58123 0.35256 0.0
H616 H 0.69982 0.57445 0.42958 0.0
H617 H 0.6799 0.54063 0.36902 0.0
S618 S 0.59643 0.67111 0.36788 0.0
N619 N 0.62353 0.66883 0.40648 0.0
N620 N 0.60239 0.63265 0.34064 0.0
C621 C 0.62761 0.61619 0.36259 0.0
C622 C 0.63903 0.63573 0.39814 0.0
C623 C 0.9455 0.19845 0.9426 0.0
C624 C 0.9224 0.16994 0.94795 0.0
C625 C 0.97824 0.19339 0.91956 0.0
C626 C 0.98891 0.1597 0.90105 0.0
H627 H 0.939 0.22452 0.9577 0.0
H628 H 0.99604 0.21552 0.91786 0.0
S629 S 0.93592 0.07789 0.90007 0.0
N630 N 0.9109 0.10785 0.92871 0.0
N631 N 0.97236 0.09852 0.88552 0.0
C632 C 0.96518 0.1316 0.904 0.0
C633 C 0.93194 0.13667 0.92742 0.0
C634 C 0.25511 0.45439 0.52013 0.0
C635 C 0.28536 0.43294 0.50594 0.0
C636 C 0.2505 0.48958 0.50731 0.0
C637 C 0.27589 0.50383 0.47983 0.0
H638 H 0.23631 0.44482 0.54319 0.0
H639 H 0.22819 0.5063 0.52064 0.0
S640 S 0.35693 0.45687 0.43001 0.0
N641 N 0.33899 0.42739 0.4602 0.0
N642 N 0.33011 0.49294 0.43597 0.0
C643 C 0.30473 0.48173 0.46343 0.0
C644 C 0.30953 0.44637 0.47656 0.0
C645 C 0.09094 0.74847 0.97819 0.0
C646 C 0.11686 0.77374 0.9694 0.0
C647 C 0.06146 0.74431 0.95315 0.0
C648 C 0.05757 0.76486 0.91839 0.0
H649 H 0.09149 0.73455 0.00667 0.0
H650 H 0.04019 0.72729 0.963 0.0
S651 S 0.12027 0.83105 0.87957 0.0
N652 N 0.13832 0.81692 0.92159 0.0
N653 N 0.08361 0.80838 0.87425 0.0
C654 C 0.08503 0.78755 0.9073 0.0
C655 C 0.11455 0.79217 0.93291 0.0
C656 C 0.81567 0.06337 0.92575 0.0
C657 C 0.80781 0.06898 0.96858 0.0
C658 C 0.82505 0.02887 0.90833 0.0
C659 C 0.8268 0.99926 0.93334 0.0
H660 H 0.81723 0.08596 0.90626 0.0
H661 H 0.83336 0.02576 0.87576 0.0
S662 S 0.803 0.99946 0.04592 0.0
N663 N 0.7982 0.04176 0.03452 0.0
N664 N 0.81554 0.97723 0.00187 0.0
C665 C 0.81612 0.00431 0.9755 0.0
C666 C 0.80669 0.03915 0.9931 0.0
C667 C 0.41956 0.36705 0.43299 0.0
C668 C 0.39515 0.33955 0.4301 0.0
C669 C 0.44109 0.37563 0.3989 0.0
C670 C 0.43862 0.35779 0.35983 0.0
H671 H 0.42235 0.38202 0.46214 0.0
H672 H 0.46011 0.39641 0.40355 0.0
S673 S 0.37915 0.28296 0.33616 0.0
N674 N 0.37049 0.29325 0.38602 0.0
N675 N 0.40982 0.31067 0.32055 0.0
C676 C 0.41459 0.32973 0.35654 0.0
C677 C 0.3931 0.32036 0.39196 0.0
C678 C 0.24927 0.92126 0.98664 0.0
C679 C 0.23431 0.88948 0.97155 0.0
C680 C 0.25013 0.95143 0.96289 0.0
C681 C 0.23686 0.95045 0.92306 0.0
H682 H 0.25666 0.92423 0.01854 0.0
H683 H 0.25751 0.97664 0.97742 0.0
S684 S 0.20498 0.87104 0.86525 0.0
N685 N 0.21303 0.85675 0.91145 0.0
N686 N 0.21533 0.91357 0.8665 0.0
C687 C 0.22684 0.91753 0.90554 0.0
C688 C 0.22535 0.88694 0.92993 0.0
C689 C 0.5575 0.72173 0.47735 0.0
C690 C 0.56749 0.72621 0.51847 0.0
C691 C 0.52124 0.72271 0.46788 0.0
C692 C 0.49396 0.72789 0.49943 0.0
H693 H 0.5776 0.71446 0.4529 0.0
H694 H 0.51453 0.71613 0.43628 0.0
S695 S 0.5068 0.74685 0.61114 0.0
N696 N 0.54784 0.74041 0.59011 0.0
N697 N 0.47973 0.74271 0.57254 0.0
C698 C 0.50392 0.73594 0.54008 0.0
C699 C 0.54072 0.73493 0.54958 0.0
C700 C 0.31438 0.4197 0.67484 0.0
C701 C 0.32858 0.38506 0.66426 0.0
C702 C 0.32747 0.44002 0.70802 0.0
C703 C 0.35505 0.42615 0.73131 0.0
H704 H 0.29563 0.43233 0.65516 0.0
H705 H 0.31822 0.46771 0.71313 0.0
S706 S 0.39452 0.33386 0.72176 0.0
N707 N 0.36663 0.33551 0.68386 0.0
N708 N 0.39145 0.37384 0.74606 0.0
C709 C 0.3665 0.39027 0.72372 0.0
C710 C 0.35312 0.36963 0.69017 0.0
C711 C 0.05279 0.80543 0.12766 0.0
C712 C 0.07957 0.83094 0.12836 0.0
C713 C 0.01875 0.81326 0.14703 0.0
C714 C 0.01074 0.84666 0.1678 0.0
H715 H 0.05745 0.78014 0.11011 0.0
H716 H 0.99804 0.79399 0.14368 0.0
S717 S 0.07319 0.92 0.18471 0.0
N718 N 0.097 0.88903 0.15615 0.0
N719 N 0.03316 0.90354 0.19233 0.0
C720 C 0.03804 0.87118 0.17138 0.0
C721 C 0.07247 0.86336 0.1517 0.0
C722 C 0.67904 0.55186 0.60019 0.0
C723 C 0.70655 0.56759 0.57711 0.0
C724 C 0.68198 0.51617 0.61038 0.0
C725 C 0.71233 0.49464 0.59738 0.0
H726 H 0.65417 0.56678 0.60866 0.0
H727 H 0.65935 0.50465 0.62635 0.0
S728 S 0.79281 0.52324 0.53853 0.0
N729 N 0.76622 0.55959 0.54385 0.0
N730 N 0.77135 0.4917 0.56234 0.0
C731 C 0.74095 0.51033 0.57629 0.0
C732 C 0.73817 0.5471 0.56632 0.0
C733 C 0.9298 0.23458 0.09443 0.0
C734 C 0.89389 0.2299 0.1071 0.0
C735 C 0.95635 0.23668 0.12336 0.0
C736 C 0.94784 0.234 0.16586 0.0
H737 H 0.93786 0.23342 0.06174 0.0
H738 H 0.98411 0.23715 0.11213 0.0
S739 S 0.85719 0.22592 0.21501 0.0
N740 N 0.85058 0.22623 0.16492 0.0
N741 N 0.90068 0.23006 0.21953 0.0
C742 C 0.91166 0.23252 0.17919 0.0
C743 C 0.88456 0.23042 0.14966 0.0
C744 C 0.22224 0.7418 0.19351 0.0
C745 C 0.2201 0.7781 0.18486 0.0
C746 C 0.23688 0.73086 0.23008 0.0
C747 C 0.24945 0.75592 0.25947 0.0
H748 H 0.21422 0.72166 0.17095 0.0
H749 H 0.23973 0.70245 0.23444 0.0
S750 S 0.24456 0.8547 0.25319 0.0
N751 N 0.22884 0.83926 0.20925 0.0
N752 N 0.25458 0.81914 0.27907 0.0
C753 C 0.24534 0.79252 0.25198 0.0
C754 C 0.23112 0.8035 0.21439 0.0
C755 C 0.79183 0.72483 0.61599 0.0
C756 C 0.75744 0.71335 0.62742 0.0
C757 C 0.81389 0.73967 0.64588 0.0
C758 C 0.80228 0.74305 0.68795 0.0
H759 H 0.8008 0.72443 0.58362 0.0
H760 H 0.83919 0.7504 0.6358 0.0
S761 S 0.71727 0.71187 0.7345 0.0
N762 N 0.7149 0.7025 0.68433 0.0
N763 N 0.75627 0.73039 0.74003 0.0
C764 C 0.76922 0.7293 0.69998 0.0
C765 C 0.74683 0.71439 0.66981 0.0
C766 C 0.7239 0.2573 0.10789 0.0
C767 C 0.74137 0.26461 0.06997 0.0
C768 C 0.70267 0.28363 0.13066 0.0
C769 C 0.69787 0.31815 0.11619 0.0
H770 H 0.72729 0.23126 0.12057 0.0
H771 H 0.69045 0.27708 0.16024 0.0
S772 S 0.73479 0.34974 0.01665 0.0
N773 N 0.75078 0.30816 0.01767 0.0
N774 N 0.71021 0.35749 0.06022 0.0
C775 C 0.7144 0.32555 0.07779 0.0
C776 C 0.73629 0.29881 0.05473 0.0
C777 C 0.28017 0.208 0.60883 0.0
C778 C 0.28397 0.24422 0.62129 0.0
C779 C 0.26826 0.1833 0.63725 0.0
C780 C 0.25979 0.1941 0.67893 0.0
H781 H 0.28528 0.19889 0.5767 0.0
H782 H 0.26444 0.15595 0.62631 0.0
S783 S 0.27009 0.28418 0.72868 0.0
N784 N 0.28195 0.28841 0.67943 0.0
N785 N 0.25923 0.24209 0.73223 0.0
C786 C 0.26515 0.22963 0.69218 0.0
C787 C 0.27735 0.25467 0.66352 0.0
C788 C 0.73212 0.79068 0.47572 0.0
C789 C 0.71988 0.75667 0.46407 0.0
C790 C 0.74756 0.81245 0.44602 0.0
C791 C 0.75093 0.80088 0.40393 0.0
H792 H 0.73148 0.79971 0.50808 0.0
H793 H 0.75852 0.83759 0.45624 0.0
S794 S 0.71787 0.71698 0.35671 0.0
N795 N 0.7083 0.71464 0.40682 0.0
N796 N 0.73748 0.75541 0.35153 0.0
C797 C 0.73668 0.76814 0.39167 0.0
C798 C 0.72106 0.74607 0.42163 0.0
C799 C 0.79917 0.22815 0.87284 0.0
C800 C 0.77479 0.22117 0.90574 0.0
C801 C 0.78749 0.24271 0.83656 0.0
C802 C 0.75099 0.25099 0.83181 0.0
H803 H 0.82759 0.22257 0.87522 0.0
H804 H 0.80724 0.24767 0.8121 0.0
S805 S 0.67638 0.23963 0.90942 0.0
N806 N 0.71235 0.22439 0.93135 0.0
N807 N 0.69065 0.25229 0.86359 0.0
C808 C 0.7263 0.24405 0.86434 0.0
C809 C 0.73812 0.22902 0.90116 0.0
C810 C 0.20923 0.27422 0.47395 0.0
C811 C 0.24389 0.28355 0.46025 0.0
C812 C 0.18596 0.25798 0.44653 0.0
C813 C 0.19651 0.25097 0.40458 0.0
H814 H 0.20069 0.27777 0.50642 0.0
H815 H 0.16036 0.24925 0.45857 0.0
S816 S 0.28166 0.27491 0.3518 0.0
N817 N 0.28565 0.28808 0.40078 0.0
N818 N 0.24185 0.25747 0.34966 0.0
C819 C 0.22994 0.26217 0.39 0.0
C820 C 0.25365 0.27853 0.41773 0.0
C821 C 0.26896 0.70167 0.03117 0.0
C822 C 0.26545 0.73666 0.01777 0.0
C823 C 0.29139 0.67584 0.00907 0.0
C824 C 0.31079 0.68406 0.97266 0.0
H825 H 0.25451 0.69426 0.05909 0.0
H826 H 0.2936 0.64925 0.02059 0.0
S827 S 0.3082 0.77099 0.92262 0.0
N828 N 0.28184 0.77781 0.96494 0.0
N829 N 0.32325 0.72904 0.92283 0.0
C830 C 0.30707 0.71884 0.95865 0.0
C831 C 0.28456 0.7452 0.98135 0.0
loop_
_geom_bond_atom_site_label_1
_geom_bond_atom_site_label_2
_geom_bond_distance
_geom_bond_site_symmetry_2
_ccdc_geom_bond_type
Fe0 O2 1.918 . S
Fe0 O5 1.997 . S
Fe0 O6 2.002 . S
Fe0 O11 1.976 . S
Fe0 O14 1.996 . S
Fe1 O2 1.918 . S
Fe1 O9 1.997 . S
Fe1 O12 1.996 . S
Fe1 O16 1.976 . S
Fe1 O19 2.002 . S
O2 Fe0 1.918 . S
O2 Fe1 1.918 . S
O2 Fe3 1.918 . S
Fe3 O2 1.918 . S
Fe3 O4 2.002 . S
Fe3 O13 1.976 . S
Fe3 O17 1.996 . S
Fe3 O20 1.997 . S
O4 Fe3 2.002 . S
O4 C21 1.295 . S
O5 Fe0 1.997 . S
O5 C21 1.235 . S
O6 Fe0 2.002 . S
O6 C7 1.295 . S
C7 O6 1.295 . S
C7 O9 1.235 . S
C8 O13 1.287 . S
C8 O14 1.255 . S
O9 Fe1 1.997 . S
O9 C7 1.235 . S
C10 O16 1.287 . S
C10 O17 1.255 . S
O11 Fe0 1.976 . S
O11 C18 1.287 . S
O12 Fe1 1.996 . S
O12 C18 1.255 . S
O13 Fe3 1.976 . S
O13 C8 1.287 . S
O14 Fe0 1.996 . S
O14 C8 1.255 . S
C15 O19 1.295 . S
C15 O20 1.235 . S
O16 Fe1 1.976 . S
O16 C10 1.287 . S
O17 Fe3 1.996 . S
O17 C10 1.255 . S
C18 O11 1.287 . S
C18 O12 1.255 . S
O19 Fe1 2.002 . S
O19 C15 1.295 . S
O20 Fe3 1.997 . S
O20 C15 1.235 . S
C21 O4 1.295 . S
C21 O5 1.235 . S
Fe22 O24 1.918 . S
Fe22 O27 1.997 . S
Fe22 O28 2.002 . S
Fe22 O33 1.976 . S
Fe22 O36 1.996 . S
Fe23 O24 1.918 . S
Fe23 O31 1.997 . S
Fe23 O34 1.996 . S
Fe23 O38 1.976 . S
Fe23 O41 2.002 . S
O24 Fe22 1.918 . S
O24 Fe23 1.918 . S
O24 Fe25 1.918 . S
Fe25 O24 1.918 . S
Fe25 O26 2.002 . S
Fe25 O35 1.976 . S
Fe25 O39 1.996 . S
Fe25 O42 1.997 . S
O26 Fe25 2.002 . S
O26 C43 1.295 . S
O27 Fe22 1.997 . S
O27 C43 1.235 . S
O28 Fe22 2.002 . S
O28 C29 1.295 . S
C29 O28 1.295 . S
C29 O31 1.235 . S
C30 O35 1.287 . S
C30 O36 1.255 . S
O31 Fe23 1.997 . S
O31 C29 1.235 . S
C32 O38 1.287 . S
C32 O39 1.255 . S
O33 Fe22 1.976 . S
O33 C40 1.287 . S
O34 Fe23 1.996 . S
O34 C40 1.255 . S
O35 Fe25 1.976 . S
O35 C30 1.287 . S
O36 Fe22 1.996 . S
O36 C30 1.255 . S
C37 O41 1.295 . S
C37 O42 1.235 . S
O38 Fe23 1.976 . S
O38 C32 1.287 . S
O39 Fe25 1.996 . S
O39 C32 1.255 . S
C40 O33 1.287 . S
C40 O34 1.255 . S
O41 Fe23 2.002 . S
O41 C37 1.295 . S
O42 Fe25 1.997 . S
O42 C37 1.235 . S
C43 O26 1.295 . S
C43 O27 1.235 . S
Fe44 O46 1.919 1_556 S
Fe44 O49 1.995 . S
Fe44 O50 2.001 . S
Fe44 O55 1.978 1_556 S
Fe44 O58 1.997 1_556 S
Fe45 O46 1.918 . S
Fe45 O53 1.997 1_554 S
Fe45 O56 1.996 . S
Fe45 O60 1.976 . S
Fe45 O63 2.002 1_554 S
O46 Fe44 1.919 1_554 S
O46 Fe45 1.918 . S
O46 Fe47 1.918 . S
Fe47 O46 1.918 . S
Fe47 O48 2.001 1_554 S
Fe47 O57 1.977 . S
Fe47 O61 1.997 . S
Fe47 O64 1.996 1_554 S
O48 Fe47 2.001 1_556 S
O48 C65 1.295 . S
O49 Fe44 1.995 . S
O49 C65 1.235 . S
O50 Fe44 2.001 . S
O50 C51 1.295 . S
C51 O50 1.295 . S
C51 O53 1.235 . S
C52 O57 1.287 . S
C52 O58 1.255 . S
O53 Fe45 1.997 1_556 S
O53 C51 1.235 . S
C54 O60 1.287 . S
C54 O61 1.255 . S
O55 Fe44 1.978 1_554 S
O55 C62 1.287 . S
O56 Fe45 1.996 . S
O56 C62 1.255 . S
O57 Fe47 1.977 . S
O57 C52 1.287 . S
O58 Fe44 1.997 1_554 S
O58 C52 1.255 . S
C59 O63 1.295 . S
C59 O64 1.235 . S
O60 Fe45 1.976 . S
O60 C54 1.287 . S
O61 Fe47 1.997 . S
O61 C54 1.255 . S
C62 O55 1.287 . S
C62 O56 1.255 . S
O63 Fe45 2.002 1_556 S
O63 C59 1.295 . S
O64 Fe47 1.996 1_556 S
O64 C59 1.235 . S
C65 O48 1.295 . S
C65 O49 1.235 . S
Fe66 O68 1.918 . S
Fe66 O71 1.997 . S
Fe66 O72 2.002 . S
Fe66 O77 1.976 . S
Fe66 O80 1.996 . S
Fe67 O68 1.918 . S
Fe67 O75 1.997 . S
Fe67 O78 1.996 . S
Fe67 O82 1.976 . S
Fe67 O85 2.002 . S
O68 Fe66 1.918 . S
O68 Fe67 1.918 . S
O68 Fe69 1.918 . S
Fe69 O68 1.918 . S
Fe69 O70 2.002 . S
Fe69 O79 1.976 . S
Fe69 O83 1.996 . S
Fe69 O86 1.997 . S
O70 Fe69 2.002 . S
O70 C87 1.295 . S
O71 Fe66 1.997 . S
O71 C87 1.235 . S
O72 Fe66 2.002 . S
O72 C73 1.295 . S
C73 O72 1.295 . S
C73 O75 1.235 . S
C74 O79 1.287 . S
C74 O80 1.255 . S
O75 Fe67 1.997 . S
O75 C73 1.235 . S
C76 O82 1.287 . S
C76 O83 1.255 . S
O77 Fe66 1.976 . S
O77 C84 1.287 . S
O78 Fe67 1.996 . S
O78 C84 1.255 . S
O79 Fe69 1.976 . S
O79 C74 1.287 . S
O80 Fe66 1.996 . S
O80 C74 1.255 . S
C81 O85 1.295 . S
C81 O86 1.235 . S
O82 Fe67 1.976 . S
O82 C76 1.287 . S
O83 Fe69 1.996 . S
O83 C76 1.255 . S
C84 O77 1.287 . S
C84 O78 1.255 . S
O85 Fe67 2.002 . S
O85 C81 1.295 . S
O86 Fe69 1.997 . S
O86 C81 1.235 . S
C87 O70 1.295 . S
C87 O71 1.235 . S
C88 C89 1.391 . S
C88 C92 1.391 . S
C88 H130 0.948 . S
C89 C88 1.391 . S
C89 C90 1.391 . S
C90 C89 1.391 . S
C90 H146 0.947 . S
C90 C147 1.392 . S
C91 C92 1.391 . S
C91 C95 1.397 . S
C91 C147 1.419 . S
C92 C88 1.391 . S
C92 C91 1.391 . S
C92 C93 1.399 . S
C93 C92 1.399 . S
C93 C96 1.396 . S
C93 C105 1.453 . S
C93 C106 1.684 . S
H94 C118 0.948 . S
C95 C91 1.397 . S
C95 C96 1.394 . S
C95 C114 1.723 . S
C96 C93 1.396 . S
C96 C95 1.394 . S
C96 C126 1.723 . S
H97 C120 0.947 . S
H98 C121 0.948 . S
H99 C127 0.982 . S
H100 C128 0.979 . S
H101 C128 0.980 . S
H102 C128 0.983 . S
H103 C127 0.979 . S
H104 C127 0.977 . S
C105 C93 1.453 . S
C105 H134 0.982 . S
C105 H135 0.979 . S
C105 H136 0.977 . S
C106 C93 1.684 . S
C106 H131 0.979 . S
C106 H132 0.980 . S
C106 H133 0.983 . S
C107 C108 1.391 1_455 S
C107 C112 1.391 . S
C107 H137 0.948 1_455 S
C108 C107 1.391 1_655 S
C108 C109 1.391 1_655 S
C109 C108 1.391 1_455 S
C109 C110 1.392 . S
C109 H138 0.947 1_455 S
C110 C109 1.392 . S
C110 C111 1.419 . S
C110 H139 0.948 . S
C111 C110 1.419 . S
C111 C112 1.391 . S
C111 C115 1.397 . S
C112 C107 1.391 . S
C112 C111 1.391 . S
C112 C113 1.399 . S
C113 C112 1.399 . S
C113 C114 1.396 . S
C113 C116 1.453 . S
C113 C117 1.684 . S
C114 C95 1.723 . S
C114 C113 1.396 . S
C114 C115 1.394 . S
C115 C111 1.397 . S
C115 C114 1.394 . S
C115 C125 1.723 . S
C116 C113 1.453 . S
C116 H140 0.982 . S
C116 H141 0.979 . S
C116 H142 0.977 . S
C117 C113 1.684 . S
C117 H143 0.979 . S
C117 H144 0.980 . S
C117 H145 0.983 . S
C118 H94 0.948 . S
C118 C119 1.391 . S
C118 C123 1.391 . S
C119 C118 1.391 . S
C119 C120 1.391 . S
C120 H97 0.947 . S
C120 C119 1.391 . S
C120 C121 1.392 . S
C121 H98 0.948 . S
C121 C120 1.392 . S
C121 C122 1.419 . S
C122 C121 1.419 . S
C122 C123 1.391 . S
C122 C126 1.397 . S
C123 C118 1.391 . S
C123 C122 1.391 . S
C123 C124 1.399 . S
C124 C123 1.399 . S
C124 C125 1.396 . S
C124 C127 1.453 . S
C124 C128 1.684 . S
C125 C115 1.723 . S
C125 C124 1.396 . S
C125 C126 1.394 . S
C126 C96 1.723 . S
C126 C122 1.397 . S
C126 C125 1.394 . S
C127 H99 0.982 . S
C127 H103 0.979 . S
C127 H104 0.977 . S
C127 C124 1.453 . S
C128 H100 0.979 . S
C128 H101 0.980 . S
C128 H102 0.983 . S
C128 C124 1.684 . S
H129 C147 0.948 . S
H130 C88 0.948 . S
H131 C106 0.979 . S
H132 C106 0.980 . S
H133 C106 0.983 . S
H134 C105 0.982 . S
H135 C105 0.979 . S
H136 C105 0.977 . S
H137 C107 0.948 1_655 S
H138 C109 0.947 1_655 S
H139 C110 0.948 . S
H140 C116 0.982 . S
H141 C116 0.979 . S
H142 C116 0.977 . S
H143 C117 0.979 . S
H144 C117 0.980 . S
H145 C117 0.983 . S
H146 C90 0.947 . S
C147 C90 1.392 . S
C147 C91 1.419 . S
C147 H129 0.948 . S
C148 C149 1.391 . S
C148 C152 1.391 . S
C148 H190 0.948 . S
C149 C148 1.391 . S
C149 C150 1.391 . S
C150 C149 1.391 . S
C150 H206 0.947 . S
C150 C207 1.392 . S
C151 C152 1.391 . S
C151 C155 1.397 . S
C151 C207 1.419 . S
C152 C148 1.391 . S
C152 C151 1.391 . S
C152 C153 1.399 . S
C153 C152 1.399 . S
C153 C156 1.396 . S
C153 C165 1.453 . S
C153 C166 1.684 . S
H154 C178 0.948 . S
C155 C151 1.397 . S
C155 C156 1.394 . S
C155 C174 1.723 . S
C156 C153 1.396 . S
C156 C155 1.394 . S
C156 C186 1.723 . S
H157 C180 0.947 . S
H158 C181 0.948 . S
H159 C187 0.982 . S
H160 C188 0.979 . S
H161 C188 0.980 . S
H162 C188 0.983 . S
H163 C187 0.979 . S
H164 C187 0.977 . S
C165 C153 1.453 . S
C165 H194 0.982 . S
C165 H195 0.979 . S
C165 H196 0.977 . S
C166 C153 1.684 . S
C166 H191 0.979 . S
C166 H192 0.980 . S
C166 H193 0.983 . S
C167 C168 1.391 . S
C167 C172 1.391 . S
C167 H197 0.948 . S
C168 C167 1.391 . S
C168 C169 1.391 . S
C169 C168 1.391 . S
C169 C170 1.392 . S
C169 H198 0.947 . S
C170 C169 1.392 . S
C170 C171 1.419 . S
C170 H199 0.948 . S
C171 C170 1.419 . S
C171 C172 1.391 . S
C171 C175 1.397 . S
C172 C167 1.391 . S
C172 C171 1.391 . S
C172 C173 1.399 . S
C173 C172 1.399 . S
C173 C174 1.396 . S
C173 C176 1.453 . S
C173 C177 1.684 . S
C174 C155 1.723 . S
C174 C173 1.396 . S
C174 C175 1.394 . S
C175 C171 1.397 . S
C175 C174 1.394 . S
C175 C185 1.723 . S
C176 C173 1.453 . S
C176 H200 0.982 . S
C176 H201 0.979 . S
C176 H202 0.977 . S
C177 C173 1.684 . S
C177 H203 0.979 . S
C177 H204 0.980 . S
C177 H205 0.983 . S
C178 H154 0.948 . S
C178 C179 1.391 . S
C178 C183 1.391 . S
C179 C178 1.391 . S
C179 C180 1.391 . S
C180 H157 0.947 . S
C180 C179 1.391 . S
C180 C181 1.392 . S
C181 H158 0.948 . S
C181 C180 1.392 . S
C181 C182 1.419 . S
C182 C181 1.419 . S
C182 C183 1.391 . S
C182 C186 1.397 . S
C183 C178 1.391 . S
C183 C182 1.391 . S
C183 C184 1.399 . S
C184 C183 1.399 . S
C184 C185 1.396 . S
C184 C187 1.453 . S
C184 C188 1.684 . S
C185 C175 1.723 . S
C185 C184 1.396 . S
C185 C186 1.394 . S
C186 C156 1.723 . S
C186 C182 1.397 . S
C186 C185 1.394 . S
C187 H159 0.982 . S
C187 H163 0.979 . S
C187 H164 0.977 . S
C187 C184 1.453 . S
C188 H160 0.979 . S
C188 H161 0.980 . S
C188 H162 0.983 . S
C188 C184 1.684 . S
H189 C207 0.948 . S
H190 C148 0.948 . S
H191 C166 0.979 . S
H192 C166 0.980 . S
H193 C166 0.983 . S
H194 C165 0.982 . S
H195 C165 0.979 . S
H196 C165 0.977 . S
H197 C167 0.948 . S
H198 C169 0.947 . S
H199 C170 0.948 . S
H200 C176 0.982 . S
H201 C176 0.979 . S
H202 C176 0.977 . S
H203 C177 0.979 . S
H204 C177 0.980 . S
H205 C177 0.983 . S
H206 C150 0.947 . S
C207 C150 1.392 . S
C207 C151 1.419 . S
C207 H189 0.948 . S
C208 C209 1.391 . S
C208 C212 1.391 . S
C208 H250 0.948 . S
C209 C208 1.391 . S
C209 C210 1.391 . S
C210 C209 1.391 . S
C210 H266 0.947 . S
C210 C267 1.392 . S
C211 C212 1.391 . S
C211 C215 1.397 . S
C211 C267 1.419 . S
C212 C208 1.391 . S
C212 C211 1.391 . S
C212 C213 1.399 . S
C213 C212 1.399 . S
C213 C216 1.396 . S
C213 C225 1.453 . S
C213 C226 1.684 . S
H214 C238 0.948 1_545 S
C215 C211 1.397 . S
C215 C216 1.394 . S
C215 C234 1.723 . S
C216 C213 1.396 . S
C216 C215 1.394 . S
C216 C246 1.723 . S
H217 C240 0.947 1_545 S
H218 C241 0.948 . S
H219 C247 0.982 . S
H220 C248 0.979 . S
H221 C248 0.980 . S
H222 C248 0.983 . S
H223 C247 0.979 . S
H224 C247 0.977 . S
C225 C213 1.453 . S
C225 H254 0.982 . S
C225 H255 0.979 . S
C225 H256 0.977 . S
C226 C213 1.684 . S
C226 H251 0.979 . S
C226 H252 0.980 . S
C226 H253 0.983 . S
C227 C228 1.391 . S
C227 C232 1.391 . S
C227 H257 0.948 . S
C228 C227 1.391 . S
C228 C229 1.391 . S
C229 C228 1.391 . S
C229 C230 1.392 . S
C229 H258 0.947 . S
C230 C229 1.392 . S
C230 C231 1.419 . S
C230 H259 0.948 . S
C231 C230 1.419 . S
C231 C232 1.391 . S
C231 C235 1.397 . S
C232 C227 1.391 . S
C232 C231 1.391 . S
C232 C233 1.399 . S
C233 C232 1.399 . S
C233 C234 1.396 . S
C233 C236 1.453 . S
C233 C237 1.684 . S
C234 C215 1.723 . S
C234 C233 1.396 . S
C234 C235 1.394 . S
C235 C231 1.397 . S
C235 C234 1.394 . S
C235 C245 1.723 . S
C236 C233 1.453 . S
C236 H260 0.982 . S
C236 H261 0.979 . S
C236 H262 0.977 . S
C237 C233 1.684 . S
C237 H263 0.979 . S
C237 H264 0.980 . S
C237 H265 0.983 . S
C238 H214 0.948 1_565 S
C238 C239 1.391 1_565 S
C238 C243 1.391 . S
C239 C238 1.391 1_545 S
C239 C240 1.391 1_545 S
C240 H217 0.947 1_565 S
C240 C239 1.391 1_565 S
C240 C241 1.392 . S
C241 H218 0.948 . S
C241 C240 1.392 . S
C241 C242 1.419 . S
C242 C241 1.419 . S
C242 C243 1.391 . S
C242 C246 1.397 . S
C243 C238 1.391 . S
C243 C242 1.391 . S
C243 C244 1.399 . S
C244 C243 1.399 . S
C244 C245 1.396 . S
C244 C247 1.453 . S
C244 C248 1.684 . S
C245 C235 1.723 . S
C245 C244 1.396 . S
C245 C246 1.394 . S
C246 C216 1.723 . S
C246 C242 1.397 . S
C246 C245 1.394 . S
C247 H219 0.982 . S
C247 H223 0.979 . S
C247 H224 0.977 . S
C247 C244 1.453 . S
C248 H220 0.979 . S
C248 H221 0.980 . S
C248 H222 0.983 . S
C248 C244 1.684 . S
H249 C267 0.948 . S
H250 C208 0.948 . S
H251 C226 0.979 . S
H252 C226 0.980 . S
H253 C226 0.983 . S
H254 C225 0.982 . S
H255 C225 0.979 . S
H256 C225 0.977 . S
H257 C227 0.948 . S
H258 C229 0.947 . S
H259 C230 0.948 . S
H260 C236 0.982 . S
H261 C236 0.979 . S
H262 C236 0.977 . S
H263 C237 0.979 . S
H264 C237 0.980 . S
H265 C237 0.983 . S
H266 C210 0.947 . S
C267 C210 1.392 . S
C267 C211 1.419 . S
C267 H249 0.948 . S
C268 C269 1.391 . S
C268 C272 1.391 . S
C268 H310 0.948 . S
C269 C268 1.391 . S
C269 C270 1.391 . S
C270 C269 1.391 . S
C270 H326 0.947 . S
C270 C327 1.392 . S
C271 C272 1.391 . S
C271 C275 1.397 . S
C271 C327 1.419 . S
C272 C268 1.391 . S
C272 C271 1.391 . S
C272 C273 1.399 . S
C273 C272 1.399 . S
C273 C276 1.396 . S
C273 C285 1.453 . S
C273 C286 1.684 . S
H274 C298 0.948 . S
C275 C271 1.397 . S
C275 C276 1.394 . S
C275 C294 1.723 . S
C276 C273 1.396 . S
C276 C275 1.394 . S
C276 C306 1.723 . S
H277 C300 0.947 . S
H278 C301 0.948 . S
H279 C307 0.982 . S
H280 C308 0.979 . S
H281 C308 0.980 . S
H282 C308 0.983 . S
H283 C307 0.979 . S
H284 C307 0.977 . S
C285 C273 1.453 . S
C285 H314 0.982 . S
C285 H315 0.979 . S
C285 H316 0.977 . S
C286 C273 1.684 . S
C286 H311 0.979 . S
C286 H312 0.980 . S
C286 H313 0.983 . S
C287 C288 1.391 . S
C287 C292 1.391 . S
C287 H317 0.948 . S
C288 C287 1.391 . S
C288 C289 1.391 . S
C289 C288 1.391 . S
C289 C290 1.392 . S
C289 H318 0.947 . S
C290 C289 1.392 . S
C290 C291 1.419 . S
C290 H319 0.948 . S
C291 C290 1.419 . S
C291 C292 1.391 . S
C291 C295 1.397 . S
C292 C287 1.391 . S
C292 C291 1.391 . S
C292 C293 1.399 . S
C293 C292 1.399 . S
C293 C294 1.396 . S
C293 C296 1.453 . S
C293 C297 1.684 . S
C294 C275 1.723 . S
C294 C293 1.396 . S
C294 C295 1.394 . S
C295 C291 1.397 . S
C295 C294 1.394 . S
C295 C305 1.723 . S
C296 C293 1.453 . S
C296 H320 0.982 . S
C296 H321 0.979 . S
C296 H322 0.977 . S
C297 C293 1.684 . S
C297 H323 0.979 . S
C297 H324 0.980 . S
C297 H325 0.983 . S
C298 H274 0.948 . S
C298 C299 1.391 . S
C298 C303 1.391 . S
C299 C298 1.391 . S
C299 C300 1.391 . S
C300 H277 0.947 . S
C300 C299 1.391 . S
C300 C301 1.392 . S
C301 H278 0.948 . S
C301 C300 1.392 . S
C301 C302 1.419 . S
C302 C301 1.419 . S
C302 C303 1.391 . S
C302 C306 1.397 . S
C303 C298 1.391 . S
C303 C302 1.391 . S
C303 C304 1.399 . S
C304 C303 1.399 . S
C304 C305 1.396 . S
C304 C307 1.453 . S
C304 C308 1.684 . S
C305 C295 1.723 . S
C305 C304 1.396 . S
C305 C306 1.394 . S
C306 C276 1.723 . S
C306 C302 1.397 . S
C306 C305 1.394 . S
C307 H279 0.982 . S
C307 H283 0.979 . S
C307 H284 0.977 . S
C307 C304 1.453 . S
C308 H280 0.979 . S
C308 H281 0.980 . S
C308 H282 0.983 . S
C308 C304 1.684 . S
H309 C327 0.948 . S
H310 C268 0.948 . S
H311 C286 0.979 . S
H312 C286 0.980 . S
H313 C286 0.983 . S
H314 C285 0.982 . S
H315 C285 0.979 . S
H316 C285 0.977 . S
H317 C287 0.948 . S
H318 C289 0.947 . S
H319 C290 0.948 . S
H320 C296 0.982 . S
H321 C296 0.979 . S
H322 C296 0.977 . S
H323 C297 0.979 . S
H324 C297 0.980 . S
H325 C297 0.983 . S
H326 C270 0.947 . S
C327 C270 1.392 . S
C327 C271 1.419 . S
C327 H309 0.948 . S
C328 C329 1.391 . S
C328 C332 1.391 . S
C328 H370 0.948 . S
C329 C328 1.391 . S
C329 C330 1.391 . S
C330 C329 1.391 . S
C330 H386 0.947 . S
C330 C387 1.392 . S
C331 C332 1.391 . S
C331 C335 1.397 . S
C331 C387 1.419 . S
C332 C328 1.391 . S
C332 C331 1.391 . S
C332 C333 1.399 . S
C333 C332 1.399 . S
C333 C336 1.396 . S
C333 C345 1.453 . S
C333 C346 1.684 . S
H334 C358 0.948 . S
C335 C331 1.397 . S
C335 C336 1.394 . S
C335 C354 1.723 . S
C336 C333 1.396 . S
C336 C335 1.394 . S
C336 C366 1.723 . S
H337 C360 0.947 . S
H338 C361 0.948 . S
H339 C367 0.982 . S
H340 C368 0.979 . S
H341 C368 0.980 . S
H342 C368 0.983 . S
H343 C367 0.979 . S
H344 C367 0.977 . S
C345 C333 1.453 . S
C345 H374 0.982 . S
C345 H375 0.979 . S
C345 H376 0.977 . S
C346 C333 1.684 . S
C346 H371 0.979 . S
C346 H372 0.980 . S
C346 H373 0.983 . S
C347 C348 1.391 . S
C347 C352 1.391 . S
C347 H377 0.948 . S
C348 C347 1.391 . S
C348 C349 1.391 . S
C349 C348 1.391 . S
C349 C350 1.392 . S
C349 H378 0.947 . S
C350 C349 1.392 . S
C350 C351 1.419 . S
C350 H379 0.948 . S
C351 C350 1.419 . S
C351 C352 1.391 . S
C351 C355 1.397 . S
C352 C347 1.391 . S
C352 C351 1.391 . S
C352 C353 1.399 . S
C353 C352 1.399 . S
C353 C354 1.396 . S
C353 C356 1.453 . S
C353 C357 1.684 . S
C354 C335 1.723 . S
C354 C353 1.396 . S
C354 C355 1.394 . S
C355 C351 1.397 . S
C355 C354 1.394 . S
C355 C365 1.723 . S
C356 C353 1.453 . S
C356 H380 0.982 . S
C356 H381 0.979 . S
C356 H382 0.977 . S
C357 C353 1.684 . S
C357 H383 0.979 . S
C357 H384 0.980 . S
C357 H385 0.983 . S
C358 H334 0.948 . S
C358 C359 1.391 . S
C358 C363 1.391 . S
C359 C358 1.391 . S
C359 C360 1.391 . S
C360 H337 0.947 . S
C360 C359 1.391 . S
C360 C361 1.392 . S
C361 H338 0.948 . S
C361 C360 1.392 . S
C361 C362 1.419 . S
C362 C361 1.419 . S
C362 C363 1.391 . S
C362 C366 1.397 . S
C363 C358 1.391 . S
C363 C362 1.391 . S
C363 C364 1.399 . S
C364 C363 1.399 . S
C364 C365 1.396 . S
C364 C367 1.453 . S
C364 C368 1.684 . S
C365 C355 1.723 . S
C365 C364 1.396 . S
C365 C366 1.394 . S
C366 C336 1.723 . S
C366 C362 1.397 . S
C366 C365 1.394 . S
C367 H339 0.982 . S
C367 H343 0.979 . S
C367 H344 0.977 . S
C367 C364 1.453 . S
C368 H340 0.979 . S
C368 H341 0.980 . S
C368 H342 0.983 . S
C368 C364 1.684 . S
H369 C387 0.948 . S
H370 C328 0.948 . S
H371 C346 0.979 . S
H372 C346 0.980 . S
H373 C346 0.983 . S
H374 C345 0.982 . S
H375 C345 0.979 . S
H376 C345 0.977 . S
H377 C347 0.948 . S
H378 C349 0.947 . S
H379 C350 0.948 . S
H380 C356 0.982 . S
H381 C356 0.979 . S
H382 C356 0.977 . S
H383 C357 0.979 . S
H384 C357 0.980 . S
H385 C357 0.983 . S
H386 C330 0.947 . S
C387 C330 1.392 . S
C387 C331 1.419 . S
C387 H369 0.948 . S
C388 C389 1.391 . S
C388 C392 1.391 . S
C388 H430 0.948 . S
C389 C388 1.391 . S
C389 C390 1.391 . S
C390 C389 1.391 . S
C390 H446 0.947 . S
C390 C447 1.392 . S
C391 C392 1.391 . S
C391 C395 1.397 . S
C391 C447 1.419 . S
C392 C388 1.391 . S
C392 C391 1.391 . S
C392 C393 1.399 . S
C393 C392 1.399 . S
C393 C396 1.396 . S
C393 C405 1.453 . S
C393 C406 1.684 . S
H394 C418 0.948 . S
C395 C391 1.397 . S
C395 C396 1.394 . S
C395 C414 1.723 . S
C396 C393 1.396 . S
C396 C395 1.394 . S
C396 C426 1.723 . S
H397 C420 0.947 . S
H398 C421 0.948 . S
H399 C427 0.982 . S
H400 C428 0.979 . S
H401 C428 0.980 . S
H402 C428 0.983 . S
H403 C427 0.979 . S
H404 C427 0.977 . S
C405 C393 1.453 . S
C405 H434 0.982 . S
C405 H435 0.979 . S
C405 H436 0.977 . S
C406 C393 1.684 . S
C406 H431 0.979 . S
C406 H432 0.980 . S
C406 H433 0.983 . S
C407 C408 1.391 1_545 S
C407 C412 1.391 . S
C407 H437 0.948 . S
C408 C407 1.391 1_565 S
C408 C409 1.391 1_565 S
C409 C408 1.391 1_545 S
C409 C410 1.392 . S
C409 H438 0.947 1_545 S
C410 C409 1.392 . S
C410 C411 1.419 . S
C410 H439 0.948 . S
C411 C410 1.419 . S
C411 C412 1.391 . S
C411 C415 1.397 . S
C412 C407 1.391 . S
C412 C411 1.391 . S
C412 C413 1.399 . S
C413 C412 1.399 . S
C413 C414 1.396 . S
C413 C416 1.453 . S
C413 C417 1.684 . S
C414 C395 1.723 . S
C414 C413 1.396 . S
C414 C415 1.394 . S
C415 C411 1.397 . S
C415 C414 1.394 . S
C415 C425 1.723 . S
C416 C413 1.453 . S
C416 H440 0.982 . S
C416 H441 0.979 . S
C416 H442 0.977 . S
C417 C413 1.684 . S
C417 H443 0.979 . S
C417 H444 0.980 . S
C417 H445 0.983 . S
C418 H394 0.948 . S
C418 C419 1.391 . S
C418 C423 1.391 . S
C419 C418 1.391 . S
C419 C420 1.391 . S
C420 H397 0.947 . S
C420 C419 1.391 . S
C420 C421 1.392 . S
C421 H398 0.948 . S
C421 C420 1.392 . S
C421 C422 1.419 . S
C422 C421 1.419 . S
C422 C423 1.391 . S
C422 C426 1.397 . S
C423 C418 1.391 . S
C423 C422 1.391 . S
C423 C424 1.399 . S
C424 C423 1.399 . S
C424 C425 1.396 . S
C424 C427 1.453 . S
C424 C428 1.684 . S
C425 C415 1.723 . S
C425 C424 1.396 . S
C425 C426 1.394 . S
C426 C396 1.723 . S
C426 C422 1.397 . S
C426 C425 1.394 . S
C427 H399 0.982 . S
C427 H403 0.979 . S
C427 H404 0.977 . S
C427 C424 1.453 . S
C428 H400 0.979 . S
C428 H401 0.980 . S
C428 H402 0.983 . S
C428 C424 1.684 . S
H429 C447 0.948 . S
H430 C388 0.948 . S
H431 C406 0.979 . S
H432 C406 0.980 . S
H433 C406 0.983 . S
H434 C405 0.982 . S
H435 C405 0.979 . S
H436 C405 0.977 . S
H437 C407 0.948 . S
H438 C409 0.947 1_565 S
H439 C410 0.948 . S
H440 C416 0.982 . S
H441 C416 0.979 . S
H442 C416 0.977 . S
H443 C417 0.979 . S
H444 C417 0.980 . S
H445 C417 0.983 . S
H446 C390 0.947 . S
C447 C390 1.392 . S
C447 C391 1.419 . S
C447 H429 0.948 . S
C448 C449 1.391 . S
C448 C452 1.391 . S
C448 H490 0.948 . S
C449 C448 1.391 . S
C449 C450 1.391 . S
C450 C449 1.391 . S
C450 H506 0.947 . S
C450 C507 1.392 . S
C451 C452 1.391 . S
C451 C455 1.397 . S
C451 C507 1.419 . S
C452 C448 1.391 . S
C452 C451 1.391 . S
C452 C453 1.399 . S
C453 C452 1.399 . S
C453 C456 1.396 . S
C453 C465 1.453 . S
C453 C466 1.684 . S
H454 C478 0.948 . S
C455 C451 1.397 . S
C455 C456 1.394 . S
C455 C474 1.723 . S
C456 C453 1.396 . S
C456 C455 1.394 . S
C456 C486 1.723 . S
H457 C480 0.947 . S
H458 C481 0.948 . S
H459 C487 0.982 . S
H460 C488 0.979 . S
H461 C488 0.980 . S
H462 C488 0.983 . S
H463 C487 0.979 . S
H464 C487 0.977 . S
C465 C453 1.453 . S
C465 H494 0.982 . S
C465 H495 0.979 . S
C465 H496 0.977 . S
C466 C453 1.684 . S
C466 H491 0.979 . S
C466 H492 0.980 . S
C466 H493 0.983 . S
C467 C468 1.391 . S
C467 C472 1.391 . S
C467 H497 0.948 . S
C468 C467 1.391 . S
C468 C469 1.391 . S
C469 C468 1.391 . S
C469 C470 1.392 . S
C469 H498 0.947 . S
C470 C469 1.392 . S
C470 C471 1.419 . S
C470 H499 0.948 . S
C471 C470 1.419 . S
C471 C472 1.391 . S
C471 C475 1.397 . S
C472 C467 1.391 . S
C472 C471 1.391 . S
C472 C473 1.399 . S
C473 C472 1.399 . S
C473 C474 1.396 . S
C473 C476 1.453 . S
C473 C477 1.684 . S
C474 C455 1.723 . S
C474 C473 1.396 . S
C474 C475 1.394 . S
C475 C471 1.397 . S
C475 C474 1.394 . S
C475 C485 1.723 . S
C476 C473 1.453 . S
C476 H500 0.982 . S
C476 H501 0.979 . S
C476 H502 0.977 . S
C477 C473 1.684 . S
C477 H503 0.979 . S
C477 H504 0.980 . S
C477 H505 0.983 . S
C478 H454 0.948 . S
C478 C479 1.391 . S
C478 C483 1.391 . S
C479 C478 1.391 . S
C479 C480 1.391 . S
C480 H457 0.947 . S
C480 C479 1.391 . S
C480 C481 1.392 . S
C481 H458 0.948 . S
C481 C480 1.392 . S
C481 C482 1.419 . S
C482 C481 1.419 . S
C482 C483 1.391 . S
C482 C486 1.397 . S
C483 C478 1.391 . S
C483 C482 1.391 . S
C483 C484 1.399 . S
C484 C483 1.399 . S
C484 C485 1.396 . S
C484 C487 1.453 . S
C484 C488 1.684 . S
C485 C475 1.723 . S
C485 C484 1.396 . S
C485 C486 1.394 . S
C486 C456 1.723 . S
C486 C482 1.397 . S
C486 C485 1.394 . S
C487 H459 0.982 . S
C487 H463 0.979 . S
C487 H464 0.977 . S
C487 C484 1.453 . S
C488 H460 0.979 . S
C488 H461 0.980 . S
C488 H462 0.983 . S
C488 C484 1.684 . S
H489 C507 0.948 . S
H490 C448 0.948 . S
H491 C466 0.979 . S
H492 C466 0.980 . S
H493 C466 0.983 . S
H494 C465 0.982 . S
H495 C465 0.979 . S
H496 C465 0.977 . S
H497 C467 0.948 . S
H498 C469 0.947 . S
H499 C470 0.948 . S
H500 C476 0.982 . S
H501 C476 0.979 . S
H502 C476 0.977 . S
H503 C477 0.979 . S
H504 C477 0.980 . S
H505 C477 0.983 . S
H506 C450 0.947 . S
C507 C450 1.392 . S
C507 C451 1.419 . S
C507 H489 0.948 . S
C508 C509 1.391 . S
C508 C512 1.391 . S
C508 H550 0.948 . S
C509 C508 1.391 . S
C509 C510 1.391 . S
C510 C509 1.391 . S
C510 H566 0.947 . S
C510 C567 1.392 . S
C511 C512 1.391 . S
C511 C515 1.397 . S
C511 C567 1.419 . S
C512 C508 1.391 . S
C512 C511 1.391 . S
C512 C513 1.399 . S
C513 C512 1.399 . S
C513 C516 1.396 . S
C513 C525 1.453 . S
C513 C526 1.684 . S
H514 C538 0.948 . S
C515 C511 1.397 . S
C515 C516 1.394 . S
C515 C534 1.723 . S
C516 C513 1.396 . S
C516 C515 1.394 . S
C516 C546 1.723 . S
H517 C540 0.947 . S
H518 C541 0.948 . S
H519 C547 0.982 . S
H520 C548 0.979 . S
H521 C548 0.980 . S
H522 C548 0.983 . S
H523 C547 0.979 . S
H524 C547 0.977 . S
C525 C513 1.453 . S
C525 H554 0.982 . S
C525 H555 0.979 . S
C525 H556 0.977 . S
C526 C513 1.684 . S
C526 H551 0.979 . S
C526 H552 0.980 . S
C526 H553 0.983 . S
C527 C528 1.391 1_655 S
C527 C532 1.391 . S
C527 H557 0.948 1_655 S
C528 C527 1.391 1_455 S
C528 C529 1.391 1_455 S
C529 C528 1.391 1_655 S
C529 C530 1.392 . S
C529 H558 0.938 1_655 S
C530 C529 1.392 . S
C530 C531 1.419 . S
C530 H559 0.948 . S
C531 C530 1.419 . S
C531 C532 1.391 . S
C531 C535 1.397 . S
C532 C527 1.391 . S
C532 C531 1.391 . S
C532 C533 1.399 . S
C533 C532 1.399 . S
C533 C534 1.396 . S
C533 C536 1.453 . S
C533 C537 1.684 . S
C534 C515 1.723 . S
C534 C533 1.396 . S
C534 C535 1.394 . S
C535 C531 1.397 . S
C535 C534 1.394 . S
C535 C545 1.723 . S
C536 C533 1.453 . S
C536 H560 0.982 . S
C536 H561 0.979 . S
C536 H562 0.977 . S
C537 C533 1.684 . S
C537 H563 0.979 . S
C537 H564 0.980 . S
C537 H565 0.983 . S
C538 H514 0.948 . S
C538 C539 1.391 . S
C538 C543 1.391 . S
C539 C538 1.391 . S
C539 C540 1.391 . S
C540 H517 0.947 . S
C540 C539 1.391 . S
C540 C541 1.392 . S
C541 H518 0.948 . S
C541 C540 1.392 . S
C541 C542 1.419 . S
C542 C541 1.419 . S
C542 C543 1.391 . S
C542 C546 1.397 . S
C543 C538 1.391 . S
C543 C542 1.391 . S
C543 C544 1.399 . S
C544 C543 1.399 . S
C544 C545 1.396 . S
C544 C547 1.453 . S
C544 C548 1.684 . S
C545 C535 1.723 . S
C545 C544 1.396 . S
C545 C546 1.394 . S
C546 C516 1.723 . S
C546 C542 1.397 . S
C546 C545 1.394 . S
C547 H519 0.982 . S
C547 H523 0.979 . S
C547 H524 0.977 . S
C547 C544 1.453 . S
C548 H520 0.979 . S
C548 H521 0.980 . S
C548 H522 0.983 . S
C548 C544 1.684 . S
H549 C567 0.948 . S
H550 C508 0.948 . S
H551 C526 0.979 . S
H552 C526 0.980 . S
H553 C526 0.983 . S
H554 C525 0.982 . S
H555 C525 0.979 . S
H556 C525 0.977 . S
H557 C527 0.948 1_455 S
H558 C529 0.938 1_455 S
H559 C530 0.948 . S
H560 C536 0.982 . S
H561 C536 0.979 . S
H562 C536 0.977 . S
H563 C537 0.979 . S
H564 C537 0.980 . S
H565 C537 0.983 . S
H566 C510 0.947 . S
C567 C510 1.392 . S
C567 C511 1.419 . S
C567 H549 0.948 . S
C568 C569 1.369 . S
C568 C570 1.419 . S
C568 H572 0.930 . S
C569 C568 1.369 . S
C569 C578 1.429 . S
C570 C568 1.419 . S
C570 C571 1.363 1_565 S
C570 H573 0.929 . S
C571 C570 1.363 1_545 S
C571 C577 1.428 . S
H572 C568 0.930 . S
H573 C570 0.929 . S
S574 N575 1.613 1_545 S
S574 N576 1.610 . S
N575 S574 1.613 1_565 S
N575 C578 1.350 . S
N576 S574 1.610 . S
N576 C577 1.351 . S
C577 C571 1.428 . S
C577 N576 1.351 . S
C577 C578 1.434 1_545 S
C578 C569 1.429 . S
C578 N575 1.350 . S
C578 C577 1.434 1_565 S
C579 C580 1.369 . S
C579 C581 1.419 . S
C579 H583 0.930 . S
C580 C579 1.369 . S
C580 C589 1.429 . S
C581 C579 1.419 . S
C581 C582 1.363 . S
C581 H584 0.929 . S
C582 C581 1.363 . S
C582 C588 1.428 . S
H583 C579 0.930 . S
H584 C581 0.929 . S
S585 N586 1.613 . S
S585 N587 1.610 . S
N586 S585 1.613 . S
N586 C589 1.350 . S
N587 S585 1.610 . S
N587 C588 1.351 . S
C588 C582 1.428 . S
C588 N587 1.351 . S
C588 C589 1.434 . S
C589 C580 1.429 . S
C589 N586 1.350 . S
C589 C588 1.434 . S
C590 C591 1.369 . S
C590 C592 1.419 . S
C590 H594 0.930 . S
C591 C590 1.369 . S
C591 C600 1.429 . S
C592 C590 1.419 . S
C592 C593 1.363 . S
C592 H595 0.929 . S
C593 C592 1.363 . S
C593 C599 1.428 . S
H594 C590 0.930 . S
H595 C592 0.929 . S
S596 N597 1.613 . S
S596 N598 1.610 . S
N597 S596 1.613 . S
N597 C600 1.350 . S
N598 S596 1.610 . S
N598 C599 1.351 . S
C599 C593 1.428 . S
C599 N598 1.351 . S
C599 C600 1.434 . S
C600 C591 1.429 . S
C600 N597 1.350 . S
C600 C599 1.434 . S
C601 C602 1.369 . S
C601 C603 1.419 . S
C601 H605 0.930 . S
C602 C601 1.369 . S
C602 C611 1.429 . S
C603 C601 1.419 . S
C603 C604 1.363 . S
C603 H606 0.929 . S
C604 C603 1.363 . S
C604 C610 1.428 . S
H605 C601 0.930 . S
H606 C603 0.929 . S
S607 N608 1.613 . S
S607 N609 1.610 . S
N608 S607 1.613 . S
N608 C611 1.350 . S
N609 S607 1.610 . S
N609 C610 1.351 . S
C610 C604 1.428 . S
C610 N609 1.351 . S
C610 C611 1.434 . S
C611 C602 1.429 . S
C611 N608 1.350 . S
C611 C610 1.434 . S
C612 C613 1.369 . S
C612 C614 1.419 . S
C612 H616 0.930 . S
C613 C612 1.369 . S
C613 C622 1.429 . S
C614 C612 1.419 . S
C614 C615 1.363 . S
C614 H617 0.929 . S
C615 C614 1.363 . S
C615 C621 1.428 . S
H616 C612 0.930 . S
H617 C614 0.929 . S
S618 N619 1.613 . S
S618 N620 1.610 . S
N619 S618 1.613 . S
N619 C622 1.350 . S
N620 S618 1.610 . S
N620 C621 1.351 . S
C621 C615 1.428 . S
C621 N620 1.351 . S
C621 C622 1.434 . S
C622 C613 1.429 . S
C622 N619 1.350 . S
C622 C621 1.434 . S
C623 C624 1.369 . S
C623 C625 1.438 . S
C623 H627 0.930 . S
C624 C623 1.369 . S
C624 C633 1.429 . S
C625 C623 1.438 . S
C625 C626 1.354 1_655 S
C625 H628 0.919 1_655 S
C626 C625 1.354 1_455 S
C626 C632 1.416 1_455 S
H627 C623 0.930 . S
H628 C625 0.919 1_455 S
S629 N630 1.613 . S
S629 N631 1.610 1_655 S
N630 S629 1.613 . S
N630 C633 1.350 . S
N631 S629 1.610 1_455 S
N631 C632 1.343 1_455 S
C632 C626 1.416 1_655 S
C632 N631 1.343 1_655 S
C632 C633 1.456 . S
C633 C624 1.429 . S
C633 N630 1.350 . S
C633 C632 1.456 . S
C634 C635 1.369 . S
C634 C636 1.419 . S
C634 H638 0.930 . S
C635 C634 1.369 . S
C635 C644 1.429 . S
C636 C634 1.419 . S
C636 C637 1.363 . S
C636 H639 0.929 . S
C637 C636 1.363 . S
C637 C643 1.428 . S
H638 C634 0.930 . S
H639 C636 0.929 . S
S640 N641 1.613 . S
S640 N642 1.610 . S
N641 S640 1.613 . S
N641 C644 1.350 . S
N642 S640 1.610 . S
N642 C643 1.351 . S
C643 C637 1.428 . S
C643 N642 1.351 . S
C643 C644 1.434 . S
C644 C635 1.429 . S
C644 N641 1.350 . S
C644 C643 1.434 . S
C645 C646 1.369 . S
C645 C647 1.419 . S
C645 H649 0.930 . S
C646 C645 1.369 . S
C646 C655 1.429 . S
C647 C645 1.419 . S
C647 C648 1.363 . S
C647 H650 0.929 . S
C648 C647 1.363 . S
C648 C654 1.428 . S
H649 C645 0.930 . S
H650 C647 0.929 . S
S651 N652 1.613 . S
S651 N653 1.610 . S
N652 S651 1.613 . S
N652 C655 1.350 . S
N653 S651 1.610 . S
N653 C654 1.351 . S
C654 C648 1.428 . S
C654 N653 1.351 . S
C654 C655 1.434 . S
C655 C646 1.429 . S
C655 N652 1.350 . S
C655 C654 1.434 . S
C656 C657 1.369 . S
C656 C658 1.419 . S
C656 H660 0.930 . S
C657 C656 1.369 . S
C657 C666 1.429 . S
C658 C656 1.419 . S
C658 C659 1.363 1_545 S
C658 H661 0.929 . S
C659 C658 1.363 1_565 S
C659 C665 1.428 . S
H660 C656 0.930 . S
H661 C658 0.929 . S
S662 N663 1.613 1_565 S
S662 N664 1.610 . S
N663 S662 1.613 1_545 S
N663 C666 1.350 . S
N664 S662 1.610 . S
N664 C665 1.351 . S
C665 C659 1.428 . S
C665 N664 1.351 . S
C665 C666 1.434 1_565 S
C666 C657 1.429 . S
C666 N663 1.350 . S
C666 C665 1.434 1_545 S
C667 C668 1.369 . S
C667 C669 1.419 . S
C667 H671 0.930 . S
C668 C667 1.369 . S
C668 C677 1.429 . S
C669 C667 1.419 . S
C669 C670 1.363 . S
C669 H672 0.929 . S
C670 C669 1.363 . S
C670 C676 1.428 . S
H671 C667 0.930 . S
H672 C669 0.929 . S
S673 N674 1.613 . S
S673 N675 1.610 . S
N674 S673 1.613 . S
N674 C677 1.350 . S
N675 S673 1.610 . S
N675 C676 1.351 . S
C676 C670 1.428 . S
C676 N675 1.351 . S
C676 C677 1.434 . S
C677 C668 1.429 . S
C677 N674 1.350 . S
C677 C676 1.434 . S
C678 C679 1.369 . S
C678 C680 1.419 . S
C678 H682 0.930 1_556 S
C679 C678 1.369 . S
C679 C688 1.429 . S
C680 C678 1.419 . S
C680 C681 1.363 . S
C680 H683 0.929 . S
C681 C680 1.363 . S
C681 C687 1.428 . S
H682 C678 0.930 1_554 S
H683 C680 0.929 . S
S684 N685 1.613 . S
S684 N686 1.610 . S
N685 S684 1.613 . S
N685 C688 1.350 . S
N686 S684 1.610 . S
N686 C687 1.351 . S
C687 C681 1.428 . S
C687 N686 1.351 . S
C687 C688 1.434 . S
C688 C679 1.429 . S
C688 N685 1.350 . S
C688 C687 1.434 . S
C689 C690 1.369 . S
C689 C691 1.419 . S
C689 H693 0.930 . S
C690 C689 1.369 . S
C690 C699 1.429 . S
C691 C689 1.419 . S
C691 C692 1.363 . S
C691 H694 0.929 . S
C692 C691 1.363 . S
C692 C698 1.428 . S
H693 C689 0.930 . S
H694 C691 0.929 . S
S695 N696 1.613 . S
S695 N697 1.610 . S
N696 S695 1.613 . S
N696 C699 1.350 . S
N697 S695 1.610 . S
N697 C698 1.351 . S
C698 C692 1.428 . S
C698 N697 1.351 . S
C698 C699 1.434 . S
C699 C690 1.429 . S
C699 N696 1.350 . S
C699 C698 1.434 . S
C700 C701 1.369 . S
C700 C702 1.419 . S
C700 H704 0.930 . S
C701 C700 1.369 . S
C701 C710 1.429 . S
C702 C700 1.419 . S
C702 C703 1.363 . S
C702 H705 0.929 . S
C703 C702 1.363 . S
C703 C709 1.428 . S
H704 C700 0.930 . S
H705 C702 0.929 . S
S706 N707 1.613 . S
S706 N708 1.610 . S
N707 S706 1.613 . S
N707 C710 1.350 . S
N708 S706 1.610 . S
N708 C709 1.351 . S
C709 C703 1.428 . S
C709 N708 1.351 . S
C709 C710 1.434 . S
C710 C701 1.429 . S
C710 N707 1.350 . S
C710 C709 1.434 . S
C711 C712 1.369 . S
C711 C713 1.419 1_455 S
C711 H715 0.930 . S
C712 C711 1.369 . S
C712 C721 1.429 . S
C713 C711 1.419 1_655 S
C713 C714 1.363 . S
C713 H716 0.929 . S
C714 C713 1.363 . S
C714 C720 1.428 1_655 S
H715 C711 0.930 . S
H716 C713 0.929 . S
S717 N718 1.613 . S
S717 N719 1.610 . S
N718 S717 1.613 . S
N718 C721 1.350 . S
N719 S717 1.610 . S
N719 C720 1.351 . S
C720 C714 1.428 1_455 S
C720 N719 1.351 . S
C720 C721 1.434 . S
C721 C712 1.429 . S
C721 N718 1.350 . S
C721 C720 1.434 . S
C722 C723 1.369 . S
C722 C724 1.419 . S
C722 H726 0.930 . S
C723 C722 1.369 . S
C723 C732 1.429 . S
C724 C722 1.419 . S
C724 C725 1.363 . S
C724 H727 0.929 . S
C725 C724 1.363 . S
C725 C731 1.428 . S
H726 C722 0.930 . S
H727 C724 0.929 . S
S728 N729 1.613 . S
S728 N730 1.610 . S
N729 S728 1.613 . S
N729 C732 1.350 . S
N730 S728 1.610 . S
N730 C731 1.351 . S
C731 C725 1.428 . S
C731 N730 1.351 . S
C731 C732 1.434 . S
C732 C723 1.429 . S
C732 N729 1.350 . S
C732 C731 1.434 . S
C733 C734 1.369 . S
C733 C735 1.419 . S
C733 H737 0.930 . S
C734 C733 1.369 . S
C734 C743 1.429 . S
C735 C733 1.419 . S
C735 C736 1.363 . S
C735 H738 0.929 . S
C736 C735 1.363 . S
C736 C742 1.428 . S
H737 C733 0.930 . S
H738 C735 0.929 . S
S739 N740 1.613 . S
S739 N741 1.610 . S
N740 S739 1.613 . S
N740 C743 1.350 . S
N741 S739 1.610 . S
N741 C742 1.351 . S
C742 C736 1.428 . S
C742 N741 1.351 . S
C742 C743 1.434 . S
C743 C734 1.429 . S
C743 N740 1.350 . S
C743 C742 1.434 . S
C744 C745 1.369 . S
C744 C746 1.419 . S
C744 H748 0.930 . S
C745 C744 1.369 . S
C745 C754 1.429 . S
C746 C744 1.419 . S
C746 C747 1.363 . S
C746 H749 0.929 . S
C747 C746 1.363 . S
C747 C753 1.428 . S
H748 C744 0.930 . S
H749 C746 0.929 . S
S750 N751 1.613 . S
S750 N752 1.610 . S
N751 S750 1.613 . S
N751 C754 1.350 . S
N752 S750 1.610 . S
N752 C753 1.351 . S
C753 C747 1.428 . S
C753 N752 1.351 . S
C753 C754 1.434 . S
C754 C745 1.429 . S
C754 N751 1.350 . S
C754 C753 1.434 . S
C755 C756 1.369 . S
C755 C757 1.419 . S
C755 H759 0.930 . S
C756 C755 1.369 . S
C756 C765 1.429 . S
C757 C755 1.419 . S
C757 C758 1.363 . S
C757 H760 0.929 . S
C758 C757 1.363 . S
C758 C764 1.428 . S
H759 C755 0.930 . S
H760 C757 0.929 . S
S761 N762 1.613 . S
S761 N763 1.610 . S
N762 S761 1.613 . S
N762 C765 1.350 . S
N763 S761 1.610 . S
N763 C764 1.351 . S
C764 C758 1.428 . S
C764 N763 1.351 . S
C764 C765 1.434 . S
C765 C756 1.429 . S
C765 N762 1.350 . S
C765 C764 1.434 . S
C766 C767 1.369 . S
C766 C768 1.419 . S
C766 H770 0.930 . S
C767 C766 1.369 . S
C767 C776 1.429 . S
C768 C766 1.419 . S
C768 C769 1.363 . S
C768 H771 0.929 . S
C769 C768 1.363 . S
C769 C775 1.428 . S
H770 C766 0.930 . S
H771 C768 0.929 . S
S772 N773 1.613 . S
S772 N774 1.610 1_556 S
N773 S772 1.613 . S
N773 C776 1.350 1_556 S
N774 S772 1.610 1_554 S
N774 C775 1.351 . S
C775 C769 1.428 . S
C775 N774 1.351 . S
C775 C776 1.434 . S
C776 C767 1.429 . S
C776 N773 1.350 1_554 S
C776 C775 1.434 . S
C777 C778 1.369 . S
C777 C779 1.419 . S
C777 H781 0.930 . S
C778 C777 1.369 . S
C778 C787 1.429 . S
C779 C777 1.419 . S
C779 C780 1.363 . S
C779 H782 0.929 . S
C780 C779 1.363 . S
C780 C786 1.428 . S
H781 C777 0.930 . S
H782 C779 0.929 . S
S783 N784 1.613 . S
S783 N785 1.610 . S
N784 S783 1.613 . S
N784 C787 1.350 . S
N785 S783 1.610 . S
N785 C786 1.351 . S
C786 C780 1.428 . S
C786 N785 1.351 . S
C786 C787 1.434 . S
C787 C778 1.429 . S
C787 N784 1.350 . S
C787 C786 1.434 . S
C788 C789 1.369 . S
C788 C790 1.419 . S
C788 H792 0.930 . S
C789 C788 1.369 . S
C789 C798 1.429 . S
C790 C788 1.419 . S
C790 C791 1.363 . S
C790 H793 0.929 . S
C791 C790 1.363 . S
C791 C797 1.428 . S
H792 C788 0.930 . S
H793 C790 0.929 . S
S794 N795 1.613 . S
S794 N796 1.610 . S
N795 S794 1.613 . S
N795 C798 1.350 . S
N796 S794 1.610 . S
N796 C797 1.351 . S
C797 C791 1.428 . S
C797 N796 1.351 . S
C797 C798 1.434 . S
C798 C789 1.429 . S
C798 N795 1.350 . S
C798 C797 1.434 . S
C799 C800 1.369 . S
C799 C801 1.419 . S
C799 H803 0.930 . S
C800 C799 1.369 . S
C800 C809 1.429 . S
C801 C799 1.419 . S
C801 C802 1.363 . S
C801 H804 0.929 . S
C802 C801 1.363 . S
C802 C808 1.428 . S
H803 C799 0.930 . S
H804 C801 0.929 . S
S805 N806 1.613 . S
S805 N807 1.610 . S
N806 S805 1.613 . S
N806 C809 1.350 . S
N807 S805 1.610 . S
N807 C808 1.351 . S
C808 C802 1.428 . S
C808 N807 1.351 . S
C808 C809 1.434 . S
C809 C800 1.429 . S
C809 N806 1.350 . S
C809 C808 1.434 . S
C810 C811 1.369 . S
C810 C812 1.419 . S
C810 H814 0.930 . S
C811 C810 1.369 . S
C811 C820 1.429 . S
C812 C810 1.419 . S
C812 C813 1.363 . S
C812 H815 0.929 . S
C813 C812 1.363 . S
C813 C819 1.428 . S
H814 C810 0.930 . S
H815 C812 0.929 . S
S816 N817 1.613 . S
S816 N818 1.610 . S
N817 S816 1.613 . S
N817 C820 1.350 . S
N818 S816 1.610 . S
N818 C819 1.351 . S
C819 C813 1.428 . S
C819 N818 1.351 . S
C819 C820 1.434 . S
C820 C811 1.429 . S
C820 N817 1.350 . S
C820 C819 1.434 . S
C821 C822 1.369 . S
C821 C823 1.419 . S
C821 H825 0.930 . S
C822 C821 1.369 . S
C822 C831 1.429 1_554 S
C823 C821 1.419 . S
C823 C824 1.363 . S
C823 H826 0.929 . S
C824 C823 1.363 . S
C824 C830 1.428 1_554 S
H825 C821 0.930 . S
H826 C823 0.929 . S
S827 N828 1.613 . S
S827 N829 1.610 . S
N828 S827 1.613 . S
N828 C831 1.350 . S
N829 S827 1.610 . S
N829 C830 1.351 . S
C830 C824 1.428 1_556 S
C830 N829 1.351 . S
C830 C831 1.434 . S
C831 C822 1.429 1_556 S
C831 N828 1.350 . S
C831 C830 1.434 . S
C569 C7 1.426 . S
C571 C89 1.331 . S
C580 C37 1.790 . S
C582 C168 1.630 . S
C591 C54 1.660 . S
C593 C239 1.567 . S
C604 C299 1.838 . S
C602 C87 1.850 . S
C615 C329 1.551 . S
C613 C30 1.741 . S
C624 C51 1.447 . S
C626 C419 1.446 . S
C635 C84 1.857 . S
C637 C479 1.818 . S
C646 C10 1.686 1_556 S
C648 C528 1.595 . S
C657 C59 1.456 . S
C659 C509 1.354 . S
C670 C348 1.697 . S
C668 C74 1.749 . S
C681 C408 1.368 . S
C679 C18 1.695 1_556 S
C690 C32 1.870 . S
C692 C468 1.689 . S
C703 C149 1.490 . S
C701 C73 1.796 . S
C712 C15 1.440 . S
C714 C228 1.343 . S
C725 C288 1.707 . S
C723 C43 1.859 . S
C736 C108 1.580 . S
C734 C62 1.668 . S
C747 C449 1.774 . S
C745 C21 1.845 . S
C758 C539 1.190 . S
C756 C29 1.283 . S
C767 C52 1.470 . S
C769 C359 1.445 . S
C780 C389 1.273 . S
C778 C81 1.279 . S
C791 C209 1.168 . S
C789 C40 1.249 . S
C800 C65 1.810 . S
C802 C269 1.737 . S
C813 C119 1.159 . S
C811 C76 1.244 . S
C824 C179 1.386 1_554 S
C822 C8 1.515 . S
