# Generated by pormake.
# Topology rtl, (3,6)-cn, num edge types: 1
# Building blocks:
#     Node 0, Type 0, BuildingBlock: BELTOD_clean_linker_0, # of connection points: 3
#     Node 1, Type 0, BuildingBlock: BELTOD_clean_linker_0, # of connection points: 3
#     Node 2, Type 0, BuildingBlock: BELTOD_clean_linker_0, # of connection points: 3
#     Node 3, Type 0, BuildingBlock: BELTOD_clean_linker_0, # of connection points: 3
#     Node 4, Type 1, BuildingBlock: KUMBUR_clean_sbu_1, # of connection points: 6
#     Node 5, Type 1, BuildingBlock: KUMBUR_clean_sbu_1, # of connection points: 6
#     Edge 6, Type (0, 1), BuildingBlock: OJICUG_clean_linker_0, # of connection points: 2
#     Edge 7, Type (0, 1), BuildingBlock: OJICUG_clean_linker_0, # of connection points: 2
#     Edge 8, Type (0, 1), BuildingBlock: OJICUG_clean_linker_0, # of connection points: 2
#     Edge 9, Type (0, 1), BuildingBlock: OJICUG_clean_linker_0, # of connection points: 2
#     Edge 10, Type (0, 1), BuildingBlock: OJICUG_clean_linker_0, # of connection points: 2
#     Edge 11, Type (0, 1), BuildingBlock: OJICUG_clean_linker_0, # of connection points: 2
#     Edge 12, Type (0, 1), BuildingBlock: OJICUG_clean_linker_0, # of connection points: 2
#     Edge 13, Type (0, 1), BuildingBlock: OJICUG_clean_linker_0, # of connection points: 2
#     Edge 14, Type (0, 1), BuildingBlock: OJICUG_clean_linker_0, # of connection points: 2
#     Edge 15, Type (0, 1), BuildingBlock: OJICUG_clean_linker_0, # of connection points: 2
#     Edge 16, Type (0, 1), BuildingBlock: OJICUG_clean_linker_0, # of connection points: 2
#     Edge 17, Type (0, 1), BuildingBlock: OJICUG_clean_linker_0, # of connection points: 2
# Relax obj value: 0.020
# Max RMSD: 0.119
# Mean RMSD: 0.074
data_MOF--net-rtl--node1-KUMBUR_clean_sbu_1--node2-BELTOD_clean_linker_0--edge1-OJICUG_clean_linker_0
_symmetry_space_group_name_H-M    P1
_symmetry_Int_Tables_number       1
_symmetry_cell_setting            triclinic
loop_
_symmetry_equiv_pos_as_xyz
'x, y, z'
_cell_length_a     28.537438
_cell_length_b     29.299809
_cell_length_c     25.925925
_cell_angle_alpha  75.323991
_cell_angle_beta   99.854321
_cell_angle_gamma 90.880307
loop_
_atom_site_label
_atom_site_type_symbol
_atom_site_fract_x
_atom_site_fract_y
_atom_site_fract_z
_atom_type_partial_charge
P0 P 0.2567 0.87737 0.03088 0.0
H1 H 0.2818 0.8795 0.14384 0.0
H2 H 0.23407 0.88247 0.21298 0.0
H3 H 0.1063 0.86938 0.10175 0.0
H4 H 0.15416 0.86681 0.03287 0.0
H5 H 0.34171 0.85941 0.9914 0.0
H6 H 0.38542 0.78721 0.99566 0.0
H7 H 0.28863 0.70522 0.09132 0.0
H8 H 0.24516 0.77803 0.08723 0.0
H9 H 0.20829 0.96448 0.96475 0.0
H10 H 0.22313 0.82156 0.95229 0.0
O11 O 0.29464 0.92094 0.0336 0.0
H12 H 0.15978 0.98577 0.87435 0.0
H13 H 0.17614 0.84291 0.86124 0.0
C14 C 0.22148 0.87377 0.08304 0.0
C15 C 0.24353 0.8769 0.13458 0.0
C16 C 0.21622 0.87839 0.1741 0.0
C17 C 0.16632 0.87673 0.16264 0.0
C18 C 0.14457 0.87169 0.11148 0.0
C19 C 0.17195 0.87002 0.0721 0.0
C20 C 0.2909 0.82407 0.03992 0.0
C21 C 0.33033 0.82596 0.01398 0.0
C22 C 0.35494 0.78462 0.01594 0.0
C23 C 0.34033 0.7405 0.04364 0.0
C24 C 0.30098 0.73875 0.07015 0.0
C25 C 0.27619 0.78028 0.06792 0.0
C26 C 0.22009 0.8918 0.96477 0.0
C27 C 0.20139 0.9378 0.94235 0.0
C28 C 0.17391 0.94994 0.89056 0.0
C29 C 0.16463 0.91618 0.86023 0.0
C30 C 0.18245 0.86969 0.88355 0.0
C31 C 0.20974 0.85756 0.93552 0.0
P32 P 0.73802 0.65195 0.66841 0.0
H33 H 0.7827 0.61111 0.59664 0.0
H34 H 0.75108 0.58511 0.51553 0.0
H35 H 0.61014 0.63299 0.52191 0.0
H36 H 0.64213 0.65819 0.60382 0.0
H37 H 0.79959 0.70417 0.73348 0.0
H38 H 0.84262 0.77713 0.70887 0.0
H39 H 0.76664 0.80332 0.54458 0.0
H40 H 0.7241 0.73032 0.56933 0.0
H41 H 0.68635 0.56799 0.70408 0.0
H42 H 0.69636 0.70678 0.73274 0.0
O43 O 0.78544 0.6168 0.69913 0.0
H44 H 0.63402 0.54476 0.77079 0.0
H45 H 0.64394 0.68335 0.80065 0.0
C46 C 0.71453 0.63539 0.60692 0.0
C47 C 0.74499 0.61595 0.5806 0.0
C48 C 0.7269 0.60153 0.53389 0.0
C49 C 0.67798 0.60668 0.51238 0.0
C50 C 0.64783 0.62776 0.53797 0.0
C51 C 0.66604 0.64224 0.58471 0.0
C52 C 0.75897 0.71148 0.65327 0.0
C53 C 0.79134 0.72625 0.6925 0.0
C54 C 0.81592 0.76802 0.67832 0.0
C55 C 0.8086 0.79572 0.62449 0.0
C56 C 0.77379 0.78231 0.58612 0.0
C57 C 0.74913 0.74063 0.60041 0.0
C58 C 0.69508 0.6391 0.7133 0.0
C59 C 0.67677 0.59369 0.72435 0.0
C60 C 0.64706 0.58035 0.76271 0.0
C61 C 0.63513 0.61211 0.79122 0.0
C62 C 0.65228 0.65827 0.77896 0.0
C63 C 0.68235 0.67162 0.74038 0.0
P64 P 0.83387 0.22304 0.07395 0.0
H65 H 0.87052 0.2585 0.97376 0.0
H66 H 0.8852 0.22112 0.90415 0.0
H67 H 0.812 0.09762 0.97744 0.0
H68 H 0.7986 0.13521 0.04826 0.0
H69 H 0.81472 0.30622 0.10867 0.0
H70 H 0.74174 0.34801 0.10892 0.0
H71 H 0.65949 0.25163 0.03072 0.0
H72 H 0.73342 0.20948 0.03067 0.0
H73 H 0.89609 0.1384 0.11012 0.0
H74 H 0.79979 0.21018 0.17705 0.0
O75 O 0.87852 0.26036 0.07611 0.0
H76 H 0.92318 0.08576 0.20009 0.0
H77 H 0.82748 0.15843 0.26655 0.0
C78 C 0.83464 0.19906 0.01682 0.0
C79 C 0.85701 0.22365 0.97446 0.0
C80 C 0.86502 0.2023 0.9343 0.0
C81 C 0.85035 0.15603 0.93555 0.0
C82 C 0.82463 0.1329 0.97595 0.0
C83 C 0.81671 0.15438 0.01625 0.0
C84 C 0.77951 0.25535 0.06875 0.0
C85 C 0.78112 0.2943 0.09099 0.0
C86 C 0.73931 0.31781 0.09173 0.0
C87 C 0.69493 0.30277 0.07029 0.0
C88 C 0.69329 0.26397 0.04737 0.0
C89 C 0.7354 0.24004 0.04716 0.0
C90 C 0.84534 0.17783 0.13654 0.0
C91 C 0.87963 0.14189 0.14364 0.0
C92 C 0.8951 0.11182 0.19494 0.0
C93 C 0.87724 0.11817 0.23987 0.0
C94 C 0.84154 0.15284 0.23229 0.0
C95 C 0.82573 0.18243 0.18104 0.0
P96 P 0.36276 0.26843 0.48562 0.0
H97 H 0.36998 0.24684 0.60265 0.0
H98 H 0.38239 0.29535 0.66751 0.0
H99 H 0.38235 0.42007 0.5356 0.0
H100 H 0.36719 0.37164 0.47123 0.0
H101 H 0.32695 0.19026 0.4413 0.0
H102 H 0.25473 0.14452 0.44756 0.0
H103 H 0.20043 0.24111 0.52594 0.0
H104 H 0.27275 0.28647 0.51976 0.0
H105 H 0.44911 0.31275 0.4578 0.0
H106 H 0.30887 0.29562 0.37314 0.0
O107 O 0.40349 0.22472 0.51146 0.0
H108 H 0.47163 0.35766 0.37353 0.0
H109 H 0.33177 0.33899 0.28747 0.0
C110 C 0.36857 0.30543 0.53226 0.0
C111 C 0.37232 0.2847 0.58782 0.0
C112 C 0.37984 0.31252 0.62488 0.0
C113 C 0.38415 0.36174 0.60708 0.0
C114 C 0.37891 0.38244 0.55101 0.0
C115 C 0.37074 0.3546 0.51398 0.0
C116 C 0.30552 0.24136 0.48064 0.0
C117 C 0.29908 0.20205 0.45893 0.0
C118 C 0.2577 0.17601 0.46241 0.0
C119 C 0.22205 0.18883 0.48788 0.0
C120 C 0.2276 0.22982 0.50697 0.0
C121 C 0.26891 0.25595 0.50322 0.0
C122 C 0.37751 0.30065 0.42169 0.0
C123 C 0.42329 0.31829 0.42076 0.0
C124 C 0.43621 0.34371 0.37232 0.0
C125 C 0.40377 0.35157 0.32329 0.0
C126 C 0.35759 0.33394 0.32441 0.0
C127 C 0.34452 0.30879 0.37332 0.0
Tb128 Tb 0.04373 0.951 0.53235 0.0
C129 C 0.93472 0.14631 0.50227 0.0
N130 N 0.9739 0.12792 0.53911 0.0
C131 C 0.00887 0.20412 0.52439 0.0
C132 C 0.93136 0.19443 0.47428 0.0
C133 C 0.01059 0.15611 0.55103 0.0
C134 C 0.96918 0.22336 0.48568 0.0
C135 C 0.85738 0.13374 0.4531 0.0
C136 C 0.8983 0.11636 0.49173 0.0
C137 C 0.85379 0.18168 0.42506 0.0
C138 C 0.8907 0.21195 0.4356 0.0
Tb139 Tb 0.97368 0.04879 0.578 0.0
N140 N 0.90407 0.06972 0.51787 0.0
C141 C 0.82152 0.1023 0.44356 0.0
C142 C 0.86818 0.03943 0.51058 0.0
C143 C 0.82674 0.05507 0.47288 0.0
H144 H 0.04074 0.14181 0.58197 0.0
H145 H 0.79872 0.0307 0.46669 0.0
H146 H 0.99146 0.85275 0.58542 0.0
H147 H 0.22627 0.0062 0.56982 0.0
H148 H 0.87077 0.00335 0.53387 0.0
H149 H 0.78949 0.11422 0.41418 0.0
H150 H 0.14592 0.0086 0.51732 0.0
H151 H 0.03808 0.22629 0.5339 0.0
H152 H 0.82271 0.19566 0.39501 0.0
H153 H 0.88751 0.24881 0.41352 0.0
H154 H 0.01201 0.78135 0.66075 0.0
H155 H 0.968 0.26053 0.46501 0.0
H156 H 0.25061 0.94215 0.65281 0.0
N157 N 0.05902 0.88308 0.59976 0.0
C158 C 0.10382 0.87751 0.62905 0.0
C159 C 0.03807 0.80825 0.65243 0.0
C160 C 0.11707 0.83748 0.67249 0.0
C161 C 0.02638 0.84883 0.61006 0.0
C162 C 0.0835 0.80266 0.684 0.0
N163 N 0.12136 0.9515 0.57446 0.0
C164 C 0.15435 0.98274 0.55553 0.0
C165 C 0.18224 0.90906 0.64668 0.0
C166 C 0.13568 0.91326 0.61662 0.0
C167 C 0.21451 0.94405 0.63084 0.0
C168 C 0.20079 0.98046 0.5843 0.0
H169 H 0.0923 0.77138 0.71709 0.0
H170 H 0.17369 0.80363 0.73736 0.0
H171 H 0.2309 0.86607 0.71448 0.0
O172 O 0.07996 0.95158 0.46765 0.0
O173 O 0.03671 0.94433 0.61737 0.0
O174 O 0.04091 0.01928 0.62811 0.0
O175 O 0.04301 0.89061 0.50267 0.0
O176 O 0.06306 0.0258 0.50678 0.0
O177 O 0.04953 0.0588 0.57543 0.0
O178 O 0.93105 0.02743 0.6379 0.0
O179 O 0.97099 0.05784 0.49133 0.0
O180 O 0.98123 0.98502 0.47415 0.0
O181 O 0.96587 0.09382 0.62784 0.0
O182 O 0.94891 0.97571 0.59456 0.0
O183 O 0.96762 0.93989 0.52995 0.0
C184 C 0.05247 0.97423 0.64576 0.0
C185 C 0.04313 0.90662 0.40919 0.0
C186 C 0.05105 0.89835 0.31954 0.0
C187 C 1.0011 0.89906 0.30579 0.0
C188 C 0.99341 0.90703 0.3946 0.0
C189 C 0.97262 0.90345 0.34309 0.0
C190 C 0.07179 0.9023 0.3716 0.0
C191 C 0.07054 0.05858 0.53395 0.0
C192 C 0.06536 0.91022 0.46359 0.0
C193 C 0.16295 0.83391 0.70348 0.0
C194 C 0.19544 0.86961 0.69062 0.0
C195 C 0.96734 0.02979 0.45865 0.0
C196 C 0.95434 0.05523 0.71571 0.0
C197 C 0.93958 0.06572 0.80202 0.0
C198 C 0.98151 0.039 0.82806 0.0
C199 C 0.9958 0.02868 0.74247 0.0
C200 C 0.9262 0.07352 0.74553 0.0
C201 C 0.00929 0.02053 0.79837 0.0
C202 C 0.94215 0.94342 0.56672 0.0
C203 C 0.94016 0.0644 0.65675 0.0
H204 H 0.98396 0.89545 0.26646 0.0
H205 H 0.97065 0.90989 0.42311 0.0
H206 H 0.93425 0.90377 0.33214 0.0
H207 H 0.11016 0.90242 0.38284 0.0
H208 H 0.99346 0.03316 0.87123 0.0
H209 H 0.01774 0.01445 0.72018 0.0
H210 H 0.89388 0.09364 0.72468 0.0
H211 H 0.04159 1.00022 0.81865 0.0
Tb212 Tb 0.44522 0.48958 0.99778 0.0
C213 C 0.62953 0.58241 0.02797 0.0
N214 N 0.62165 0.5386 0.0579 0.0
C215 C 0.69297 0.5086 0.03932 0.0
C216 C 0.66885 0.59072 1.00092 0.0
C217 C 0.65311 0.50193 0.06489 0.0
C218 C 0.70071 0.5531 0.00689 0.0
C219 C 0.60362 0.66436 0.99208 0.0
C220 C 0.59675 0.61843 0.0229 0.0
C221 C 0.64221 0.67273 0.96406 0.0
C222 C 0.6747 0.63598 0.9684 0.0
Tb223 Tb 0.55442 0.53117 0.09564 0.0
N224 N 0.55914 0.60876 0.0496 0.0
C225 C 0.57229 0.70075 0.99163 0.0
C226 C 0.5322 0.64519 0.0543 0.0
C227 C 0.53718 0.6913 0.02402 0.0
H228 H 0.647 0.46746 0.08962 0.0
H229 H 0.51462 0.71969 0.02668 0.0
H230 H 0.37151 0.58174 0.93975 0.0
H231 H 0.4162 0.31136 0.10746 0.0
H232 H 0.50782 0.63947 0.0826 0.0
H233 H 0.57633 0.73656 0.96856 0.0
H234 H 0.46266 0.37557 0.06062 0.0
H235 H 0.7175 0.47936 0.04435 0.0
H236 H 0.64768 0.70767 0.93963 0.0
H237 H 0.70441 0.643 0.94679 0.0
H238 H 0.28808 0.60363 0.9394 0.0
H239 H 0.73134 0.55802 0.98668 0.0
H240 H 0.3323 0.32635 0.11293 0.0
N241 N 0.36809 0.51299 0.99098 0.0
C242 C 0.33998 0.47993 0.0163 0.0
C243 C 0.30236 0.56883 0.96156 0.0
C244 C 0.29195 0.49037 0.01619 0.0
C245 C 0.34976 0.55663 0.96249 0.0
C246 C 0.27341 0.53569 0.98889 0.0
N247 N 0.40612 0.42688 0.04141 0.0
C248 C 0.42622 0.38265 0.06296 0.0
C249 C 0.33148 0.39954 0.06776 0.0
C250 C 0.35936 0.43512 0.04156 0.0
C251 C 0.35249 0.35469 0.09227 0.0
C252 C 0.39991 0.34612 0.08938 0.0
H253 H 0.23666 0.54518 0.9879 0.0
H254 H 0.22705 0.46259 0.04344 0.0
H255 H 0.26171 0.3831 0.08869 0.0
O256 O 0.46634 0.45381 0.94417 0.0
O257 O 0.43877 0.47236 0.08394 0.0
O258 O 0.51224 0.47614 0.13858 0.0
O259 O 0.39837 0.49029 0.92564 0.0
O260 O 0.51038 0.44421 0.02341 0.0
O261 O 0.55566 0.45535 0.10341 0.0
O262 O 0.56553 0.56608 0.15843 0.0
O263 O 0.55854 0.52233 0.01482 0.0
O264 O 0.48679 0.54984 0.96447 0.0
O265 O 0.61416 0.51181 0.15726 0.0
O266 O 0.4822 0.55945 0.08972 0.0
O267 O 0.45092 0.56299 0.0013 0.0
C268 C 0.4678 0.46277 0.13082 0.0
C269 C 0.43459 0.48649 0.85205 0.0
C270 C 0.42897 0.47681 0.76046 0.0
C271 C 0.4425 0.52382 0.74317 0.0
C272 C 0.44781 0.53338 0.83408 0.0
C273 C 0.45214 0.55177 0.77994 0.0
C274 C 0.42554 0.45826 0.81529 0.0
C275 C 0.54429 0.43131 0.06651 0.0
C276 C 0.42796 0.467 0.90828 0.0
C277 C 0.26402 0.45522 0.04284 0.0
C278 C 0.28373 0.40991 0.06856 0.0
C279 C 0.53301 0.54557 0.96909 0.0
C280 C 0.59978 0.51641 0.24244 0.0
C281 C 0.60994 0.52048 0.33666 0.0
C282 C 0.59392 0.47403 0.35094 0.0
C283 C 0.5845 0.46992 0.2578 0.0
C284 C 0.61253 0.54155 0.28198 0.0
C285 C 0.5813 0.44903 0.31168 0.0
C286 C 0.45004 0.57568 0.04614 0.0
C287 C 0.60183 0.53904 0.18529 0.0
H288 H 0.44582 0.53884 0.70129 0.0
H289 H 0.45408 0.55588 0.86164 0.0
H290 H 0.4625 0.58794 0.76631 0.0
H291 H 0.41454 0.42226 0.82907 0.0
H292 H 0.59214 0.45658 0.39268 0.0
H293 H 0.57536 0.44968 0.22817 0.0
H294 H 0.62411 0.57753 0.27005 0.0
H295 H 0.56942 0.41318 0.32314 0.0
C296 C 0.16681 0.14721 0.54895 0.0
C297 C 0.18109 0.1577 0.49804 0.0
H298 H 0.12165 0.10715 0.60048 0.0
C299 C 0.15764 0.13627 0.45835 0.0
H300 H 0.18472 0.16233 0.58079 0.0
C301 C 0.1211 0.10476 0.46957 0.0
C302 C 0.10745 0.09377 0.52081 0.0
H303 H 0.16761 0.14381 0.41863 0.0
H304 H 0.10382 0.08866 0.43828 0.0
C305 C 0.13061 0.11552 0.56025 0.0
C306 C 0.37806 0.66074 0.09188 0.0
C307 C 0.36589 0.69668 0.0439 0.0
H308 H 0.41442 0.59406 0.13009 0.0
C309 C 0.37964 0.69124 0.9962 0.0
H310 H 0.36826 0.66412 0.12932 0.0
C311 C 0.40593 0.65133 0.99668 0.0
C312 C 0.41895 0.61592 0.04483 0.0
H313 H 0.37037 0.71808 0.95847 0.0
H314 H 0.41725 0.64891 0.95964 0.0
C315 C 0.40461 0.62083 0.09239 0.0
C316 C 0.85874 0.8421 0.55978 0.0
C317 C 0.83981 0.83607 0.60768 0.0
H318 H 0.90568 0.8805 0.50926 0.0
C319 C 0.85321 0.8671 0.64066 0.0
H320 H 0.8497 0.81845 0.53378 0.0
C321 C 0.8855 0.90266 0.62668 0.0
C322 C 0.90548 0.90778 0.57958 0.0
H323 H 0.83899 0.86369 0.67756 0.0
H324 H 0.89557 0.92542 0.65352 0.0
C325 C 0.89119 0.87747 0.54593 0.0
C326 C 0.61675 0.34414 0.0247 0.0
C327 C 0.65106 0.32853 0.07162 0.0
H328 H 0.55551 0.38897 0.98621 0.0
C329 C 0.64561 0.34155 0.11885 0.0
H330 H 0.62016 0.33463 0.98774 0.0
C331 C 0.60867 0.37239 0.11816 0.0
C332 C 0.57649 0.39112 0.07009 0.0
H333 H 0.67107 0.32924 0.1559 0.0
H334 H 0.60678 0.38332 0.15468 0.0
C335 C 0.57973 0.37524 0.02391 0.0
C336 C 0.09549 0.91093 0.18676 0.0
C337 C 0.13694 0.88198 0.20307 0.0
H338 H 0.03668 0.93967 0.21063 0.0
C339 C 0.15041 0.85894 0.25819 0.0
H340 H 0.08464 0.92994 0.14478 0.0
C341 C 0.12278 0.86442 0.29604 0.0
C342 C 0.08116 0.89321 0.27966 0.0
H343 H 0.18192 0.83606 0.27197 0.0
H344 H 0.1336 0.8454 0.33801 0.0
C345 C 0.068 0.91654 0.22456 0.0
C346 C 0.62031 0.55211 0.87385 0.0
C347 C 0.60763 0.59553 0.83593 0.0
H348 H 0.6062 0.50231 0.94506 0.0
C349 C 0.56891 0.62214 0.84122 0.0
H350 H 0.65033 0.53108 0.87135 0.0
C351 C 0.5433 0.60536 0.88356 0.0
C352 C 0.55658 0.56215 0.92158 0.0
H353 H 0.55829 0.65565 0.81246 0.0
H354 H 0.51396 0.62659 0.88737 0.0
C355 C 0.59516 0.5357 0.91618 0.0
C356 C 0.9202 0.12162 0.33003 0.0
C357 C 0.9005 0.09411 0.29525 0.0
H358 H 0.9585 0.1229 0.40746 0.0
C359 C 0.90427 0.04467 0.31346 0.0
H360 H 0.91855 0.15982 0.31649 0.0
C361 C 0.92624 0.02317 0.36666 0.0
C362 C 0.94551 0.05092 0.40168 0.0
H363 H 0.88942 0.02285 0.28699 0.0
H364 H 0.92727 0.98511 0.38056 0.0
C365 C 0.94292 0.10033 0.38228 0.0
C366 C 0.42562 0.37351 0.69657 0.0
C367 C 0.39511 0.39115 0.64675 0.0
H368 H 0.46025 0.38673 0.77133 0.0
C369 C 0.3759 0.43736 0.63489 0.0
H370 H 0.44193 0.33854 0.70681 0.0
C371 C 0.38723 0.46524 0.67156 0.0
C372 C 0.41752 0.44741 0.72127 0.0
H373 H 0.35161 0.45196 0.5975 0.0
H374 H 0.37162 0.50055 0.66142 0.0
C375 C 0.43642 0.4012 0.73351 0.0
C376 C 0.68331 0.59307 0.42155 0.0
C377 C 0.65845 0.58817 0.46495 0.0
H378 H 0.68765 0.57548 0.34721 0.0
C379 C 0.61594 0.56327 0.46406 0.0
H380 H 0.71586 0.61255 0.42067 0.0
C381 C 0.59952 0.54245 0.42169 0.0
C382 C 0.6252 0.54604 0.3792 0.0
H383 H 0.5961 0.55849 0.49701 0.0
H384 H 0.56696 0.52301 0.42258 0.0
C385 C 0.66686 0.57228 0.37914 0.0
C386 C 0.88352 0.08369 0.91815 0.0
C387 C 0.86641 0.13072 0.89842 0.0
H388 H 0.91908 0.02601 0.90292 0.0
C389 C 0.8696 0.15466 0.84484 0.0
H390 H 0.88208 0.06426 0.95934 0.0
C391 C 0.89188 0.13303 0.81286 0.0
C392 C 0.91118 0.08683 0.83362 0.0
H393 H 0.85617 0.19068 0.8281 0.0
H394 H 0.89575 0.15333 0.77273 0.0
C395 C 0.90548 0.06197 0.88606 0.0
C396 C 0.46543 0.37266 0.26329 0.0
C397 C 0.41863 0.3781 0.27174 0.0
H398 H 0.51709 0.39452 0.21189 0.0
C399 C 0.38713 0.41006 0.23143 0.0
H400 H 0.4903 0.34733 0.29237 0.0
C401 C 0.40267 0.43703 0.1849 0.0
C402 C 0.45008 0.43292 0.17814 0.0
H403 H 0.3509 0.41533 0.23651 0.0
H404 H 0.37802 0.46205 0.15501 0.0
C405 C 0.48094 0.39982 0.21721 0.0
C406 C 0.10301 0.89964 0.78569 0.0
C407 C 0.137 0.92977 0.80431 0.0
H408 H 0.04916 0.89035 0.72071 0.0
C409 C 0.14411 0.97353 0.76923 0.0
H410 H 0.09636 0.86588 0.81183 0.0
C411 C 0.11713 0.98737 0.71738 0.0
C412 C 0.0827 0.95765 0.69928 0.0
H413 H 0.17064 0.99715 0.78182 0.0
H414 H 0.12312 0.02147 0.69141 0.0
C415 C 0.07604 0.91354 0.73361 0.0
loop_
_geom_bond_atom_site_label_1
_geom_bond_atom_site_label_2
_geom_bond_distance
_geom_bond_site_symmetry_2
_ccdc_geom_bond_type
P0 O11 1.490 . S
P0 C14 1.812 . S
P0 C20 1.803 . S
P0 C26 1.819 1_554 S
H1 C15 0.941 . S
H2 C16 0.939 . S
H3 C18 0.940 . S
H4 C19 0.940 . S
H5 C21 0.939 1_556 S
H6 C22 0.942 . S
H7 C24 0.940 . S
H8 C25 0.939 . S
H9 C27 0.941 . S
H10 C31 0.939 . S
O11 P0 1.490 . S
H12 C28 0.939 1_545 S
H13 C30 0.940 . S
C14 P0 1.812 . S
C14 C15 1.389 . S
C14 C19 1.391 . S
C15 H1 0.941 . S
C15 C14 1.389 . S
C15 C16 1.397 . S
C16 H2 0.939 . S
C16 C15 1.397 . S
C16 C17 1.378 . S
C17 C16 1.378 . S
C17 C18 1.378 . S
C18 H3 0.940 . S
C18 C17 1.378 . S
C18 C19 1.396 . S
C19 H4 0.940 . S
C19 C14 1.391 . S
C19 C18 1.396 . S
C20 P0 1.803 . S
C20 C21 1.378 . S
C20 C25 1.400 . S
C21 H5 0.939 1_554 S
C21 C20 1.378 . S
C21 C22 1.361 . S
C22 H6 0.942 . S
C22 C21 1.361 . S
C22 C23 1.369 . S
C23 C22 1.369 . S
C23 C24 1.404 . S
C24 H7 0.940 . S
C24 C23 1.404 . S
C24 C25 1.389 . S
C25 H8 0.939 . S
C25 C20 1.400 . S
C25 C24 1.389 . S
C26 P0 1.819 1_556 S
C26 C27 1.391 . S
C26 C31 1.391 . S
C27 H9 0.941 . S
C27 C26 1.391 . S
C27 C28 1.396 . S
C28 H12 0.939 1_565 S
C28 C27 1.396 . S
C28 C29 1.397 . S
C29 C28 1.397 . S
C29 C30 1.385 . S
C30 H13 0.940 . S
C30 C29 1.385 . S
C30 C31 1.388 . S
C31 H10 0.939 . S
C31 C26 1.391 . S
C31 C30 1.388 . S
P32 O43 1.490 . S
P32 C46 1.812 . S
P32 C52 1.803 . S
P32 C58 1.819 . S
H33 C47 0.941 . S
H34 C48 0.939 . S
H35 C50 0.940 . S
H36 C51 0.940 . S
H37 C53 0.939 . S
H38 C54 0.942 . S
H39 C56 0.940 . S
H40 C57 0.939 . S
H41 C59 0.941 . S
H42 C63 0.939 . S
O43 P32 1.490 . S
H44 C60 0.939 . S
H45 C62 0.940 . S
C46 P32 1.812 . S
C46 C47 1.389 . S
C46 C51 1.391 . S
C47 H33 0.941 . S
C47 C46 1.389 . S
C47 C48 1.397 . S
C48 H34 0.939 . S
C48 C47 1.397 . S
C48 C49 1.378 . S
C49 C48 1.378 . S
C49 C50 1.378 . S
C50 H35 0.940 . S
C50 C49 1.378 . S
C50 C51 1.396 . S
C51 H36 0.940 . S
C51 C46 1.391 . S
C51 C50 1.396 . S
C52 P32 1.803 . S
C52 C53 1.378 . S
C52 C57 1.400 . S
C53 H37 0.939 . S
C53 C52 1.378 . S
C53 C54 1.361 . S
C54 H38 0.942 . S
C54 C53 1.361 . S
C54 C55 1.369 . S
C55 C54 1.369 . S
C55 C56 1.404 . S
C56 H39 0.940 . S
C56 C55 1.404 . S
C56 C57 1.389 . S
C57 H40 0.939 . S
C57 C52 1.400 . S
C57 C56 1.389 . S
C58 P32 1.819 . S
C58 C59 1.391 . S
C58 C63 1.391 . S
C59 H41 0.941 . S
C59 C58 1.391 . S
C59 C60 1.396 . S
C60 H44 0.939 . S
C60 C59 1.396 . S
C60 C61 1.397 . S
C61 C60 1.397 . S
C61 C62 1.385 . S
C62 H45 0.940 . S
C62 C61 1.385 . S
C62 C63 1.388 . S
C63 H42 0.939 . S
C63 C58 1.391 . S
C63 C62 1.388 . S
P64 O75 1.490 . S
P64 C78 1.812 . S
P64 C84 1.803 . S
P64 C90 1.819 . S
H65 C79 0.941 . S
H66 C80 0.939 . S
H67 C82 0.940 1_554 S
H68 C83 0.940 . S
H69 C85 0.939 . S
H70 C86 0.942 . S
H71 C88 0.940 . S
H72 C89 0.939 . S
H73 C91 0.941 . S
H74 C95 0.939 . S
O75 P64 1.490 . S
H76 C92 0.939 . S
H77 C94 0.940 . S
C78 P64 1.812 . S
C78 C79 1.389 1_554 S
C78 C83 1.391 . S
C79 H65 0.941 . S
C79 C78 1.389 1_556 S
C79 C80 1.397 . S
C80 H66 0.939 . S
C80 C79 1.397 . S
C80 C81 1.378 . S
C81 C80 1.378 . S
C81 C82 1.378 . S
C82 H67 0.940 1_556 S
C82 C81 1.378 . S
C82 C83 1.396 1_556 S
C83 H68 0.940 . S
C83 C78 1.391 . S
C83 C82 1.396 1_554 S
C84 P64 1.803 . S
C84 C85 1.378 . S
C84 C89 1.400 . S
C85 H69 0.939 . S
C85 C84 1.378 . S
C85 C86 1.361 . S
C86 H70 0.942 . S
C86 C85 1.361 . S
C86 C87 1.369 . S
C87 C86 1.369 . S
C87 C88 1.404 . S
C88 H71 0.940 . S
C88 C87 1.404 . S
C88 C89 1.389 . S
C89 H72 0.939 . S
C89 C84 1.400 . S
C89 C88 1.389 . S
C90 P64 1.819 . S
C90 C91 1.391 . S
C90 C95 1.391 . S
C91 H73 0.941 . S
C91 C90 1.391 . S
C91 C92 1.396 . S
C92 H76 0.939 . S
C92 C91 1.396 . S
C92 C93 1.397 . S
C93 C92 1.397 . S
C93 C94 1.385 . S
C94 H77 0.940 . S
C94 C93 1.385 . S
C94 C95 1.388 . S
C95 H74 0.939 . S
C95 C90 1.391 . S
C95 C94 1.388 . S
P96 O107 1.490 . S
P96 C110 1.812 . S
P96 C116 1.803 . S
P96 C122 1.819 . S
H97 C111 0.941 . S
H98 C112 0.939 . S
H99 C114 0.940 . S
H100 C115 0.940 . S
H101 C117 0.939 . S
H102 C118 0.942 . S
H103 C120 0.940 . S
H104 C121 0.939 . S
H105 C123 0.941 . S
H106 C127 0.939 . S
O107 P96 1.490 . S
H108 C124 0.939 . S
H109 C126 0.940 . S
C110 P96 1.812 . S
C110 C111 1.389 . S
C110 C115 1.391 . S
C111 H97 0.941 . S
C111 C110 1.389 . S
C111 C112 1.397 . S
C112 H98 0.939 . S
C112 C111 1.397 . S
C112 C113 1.378 . S
C113 C112 1.378 . S
C113 C114 1.378 . S
C114 H99 0.940 . S
C114 C113 1.378 . S
C114 C115 1.396 . S
C115 H100 0.940 . S
C115 C110 1.391 . S
C115 C114 1.396 . S
C116 P96 1.803 . S
C116 C117 1.378 . S
C116 C121 1.400 . S
C117 H101 0.939 . S
C117 C116 1.378 . S
C117 C118 1.361 . S
C118 H102 0.942 . S
C118 C117 1.361 . S
C118 C119 1.369 . S
C119 C118 1.369 . S
C119 C120 1.404 . S
C120 H103 0.940 . S
C120 C119 1.404 . S
C120 C121 1.389 . S
C121 H104 0.939 . S
C121 C116 1.400 . S
C121 C120 1.389 . S
C122 P96 1.819 . S
C122 C123 1.391 . S
C122 C127 1.391 . S
C123 H105 0.941 . S
C123 C122 1.391 . S
C123 C124 1.396 . S
C124 H108 0.939 . S
C124 C123 1.396 . S
C124 C125 1.397 . S
C125 C124 1.397 . S
C125 C126 1.385 . S
C126 H109 0.940 . S
C126 C125 1.385 . S
C126 C127 1.388 . S
C127 H106 0.939 . S
C127 C122 1.391 . S
C127 C126 1.388 . S
Tb128 N157 2.617 . S
Tb128 N163 2.572 . S
Tb128 O172 2.465 . S
Tb128 O173 2.387 . S
Tb128 O175 2.428 . S
Tb128 O176 2.308 1_565 S
Tb128 O180 2.349 1_465 S
Tb128 O183 2.393 1_455 S
Tb128 C192 2.802 . S
C129 N130 1.379 . S
C129 C132 1.416 . S
C129 C136 1.424 . S
N130 C129 1.379 . S
N130 C133 1.344 . S
N130 Tb139 2.617 . S
C131 C133 1.390 . S
C131 C134 1.339 . S
C131 H151 0.930 1_655 S
C132 C129 1.416 . S
C132 C134 1.416 . S
C132 C138 1.448 . S
C133 N130 1.344 . S
C133 C131 1.390 . S
C133 H144 0.920 1_655 S
C134 C131 1.339 . S
C134 C132 1.416 . S
C134 H155 0.930 . S
C135 C136 1.413 . S
C135 C137 1.427 . S
C135 C141 1.416 . S
C136 C129 1.424 . S
C136 C135 1.413 . S
C136 N140 1.361 . S
C137 C135 1.427 . S
C137 C138 1.328 . S
C137 H152 0.929 . S
C138 C132 1.448 . S
C138 C137 1.328 . S
C138 H153 0.930 . S
Tb139 N130 2.617 . S
Tb139 N140 2.572 . S
Tb139 O174 2.349 1_655 S
Tb139 O177 2.393 1_655 S
Tb139 O178 2.465 . S
Tb139 O179 2.387 . S
Tb139 O181 2.428 . S
Tb139 O182 2.308 1_545 S
Tb139 C203 2.802 . S
N140 C136 1.361 . S
N140 Tb139 2.572 . S
N140 C142 1.340 . S
C141 C135 1.416 . S
C141 C143 1.332 . S
C141 H149 0.931 . S
C142 N140 1.340 . S
C142 C143 1.407 . S
C142 H148 0.930 . S
C143 C141 1.332 . S
C143 C142 1.407 . S
C143 H145 0.929 . S
H144 C133 0.920 1_455 S
H145 C143 0.929 . S
H146 C161 0.930 1_655 S
H147 C168 0.929 . S
H148 C142 0.930 . S
H149 C141 0.931 . S
H150 C164 0.930 . S
H151 C131 0.930 1_455 S
H152 C137 0.929 . S
H153 C138 0.930 . S
H154 C159 0.930 1_655 S
H155 C134 0.930 . S
H156 C167 0.931 . S
N157 Tb128 2.617 . S
N157 C158 1.379 . S
N157 C161 1.334 . S
C158 N157 1.379 . S
C158 C160 1.416 . S
C158 C166 1.424 . S
C159 H154 0.930 1_455 S
C159 C161 1.390 . S
C159 C162 1.339 . S
C160 C158 1.416 . S
C160 C162 1.416 . S
C160 C193 1.448 . S
C161 H146 0.930 1_455 S
C161 N157 1.334 . S
C161 C159 1.390 . S
C162 C159 1.339 . S
C162 C160 1.416 . S
C162 H169 0.930 . S
N163 Tb128 2.572 . S
N163 C164 1.340 . S
N163 C166 1.361 . S
C164 H150 0.930 . S
C164 N163 1.340 . S
C164 C168 1.407 . S
C165 C166 1.413 . S
C165 C167 1.416 . S
C165 C194 1.427 . S
C166 C158 1.424 . S
C166 N163 1.361 . S
C166 C165 1.413 . S
C167 H156 0.931 . S
C167 C165 1.416 . S
C167 C168 1.332 . S
C168 H147 0.929 . S
C168 C164 1.407 . S
C168 C167 1.332 . S
H169 C162 0.930 . S
H170 C193 0.930 . S
H171 C194 0.929 . S
O172 Tb128 2.465 . S
O172 C192 1.264 . S
O173 Tb128 2.387 . S
O173 C184 1.264 . S
O174 Tb139 2.349 1_455 S
O174 C184 1.243 1_545 S
O175 Tb128 2.428 . S
O175 C192 1.256 . S
O176 Tb128 2.308 1_545 S
O176 C191 1.266 . S
O177 Tb139 2.393 1_455 S
O177 C191 1.248 . S
O178 Tb139 2.465 . S
O178 C203 1.264 . S
O179 Tb139 2.387 . S
O179 C195 1.264 . S
O180 Tb128 2.349 1_645 S
O180 C195 1.243 . S
O181 Tb139 2.428 . S
O181 C203 1.256 . S
O182 Tb139 2.308 1_565 S
O182 C202 1.266 . S
O183 Tb128 2.393 1_655 S
O183 C202 1.248 . S
C184 O173 1.264 . S
C184 O174 1.243 1_565 S
C185 C188 1.399 . S
C185 C190 1.383 . S
C185 C192 1.496 . S
C186 C187 1.399 . S
C186 C190 1.389 . S
C187 C186 1.399 . S
C187 C189 1.380 . S
C187 H204 0.929 . S
C188 C185 1.399 . S
C188 C189 1.392 . S
C188 H205 0.929 . S
C189 C187 1.380 . S
C189 C188 1.392 . S
C189 H206 0.929 . S
C190 C185 1.383 . S
C190 C186 1.389 . S
C190 H207 0.931 . S
C191 O176 1.266 . S
C191 O177 1.248 . S
C192 Tb128 2.802 . S
C192 O172 1.264 . S
C192 O175 1.256 . S
C192 C185 1.496 . S
C193 C160 1.448 . S
C193 H170 0.930 . S
C193 C194 1.328 . S
C194 C165 1.427 . S
C194 H171 0.929 . S
C194 C193 1.328 . S
C195 O179 1.264 . S
C195 O180 1.243 . S
C196 C199 1.399 . S
C196 C200 1.383 . S
C196 C203 1.496 . S
C197 C198 1.399 . S
C197 C200 1.389 . S
C198 C197 1.399 . S
C198 C201 1.380 . S
C198 H208 0.929 . S
C199 C196 1.399 . S
C199 C201 1.392 . S
C199 H209 0.929 . S
C200 C196 1.383 . S
C200 C197 1.389 . S
C200 H210 0.931 . S
C201 C198 1.380 . S
C201 C199 1.392 . S
C201 H211 0.929 . S
C202 O182 1.266 . S
C202 O183 1.248 . S
C203 Tb139 2.802 . S
C203 O178 1.264 . S
C203 O181 1.256 . S
C203 C196 1.496 . S
H204 C187 0.929 . S
H205 C188 0.929 . S
H206 C189 0.929 . S
H207 C190 0.931 . S
H208 C198 0.929 . S
H209 C199 0.929 . S
H210 C200 0.931 . S
H211 C201 0.929 . S
Tb212 N241 2.618 1_556 S
Tb212 N247 2.572 1_556 S
Tb212 O256 2.463 . S
Tb212 O257 2.388 1_556 S
Tb212 O259 2.426 . S
Tb212 O260 2.308 1_556 S
Tb212 O264 2.348 . S
Tb212 O267 2.393 1_556 S
Tb212 C276 2.800 . S
C213 N214 1.379 . S
C213 C216 1.416 . S
C213 C220 1.424 . S
N214 C213 1.379 . S
N214 C217 1.334 . S
N214 Tb223 2.617 . S
C215 C217 1.390 . S
C215 C218 1.339 . S
C215 H235 0.930 . S
C216 C213 1.416 . S
C216 C218 1.416 . S
C216 C222 1.448 . S
C217 N214 1.334 . S
C217 C215 1.390 . S
C217 H228 0.930 . S
C218 C215 1.339 . S
C218 C216 1.416 . S
C218 H239 0.930 . S
C219 C220 1.413 . S
C219 C221 1.427 . S
C219 C225 1.416 . S
C220 C213 1.424 . S
C220 C219 1.413 . S
C220 N224 1.361 . S
C221 C219 1.427 . S
C221 C222 1.328 . S
C221 H236 0.929 . S
C222 C216 1.448 . S
C222 C221 1.328 . S
C222 H237 0.930 . S
Tb223 N214 2.617 . S
Tb223 N224 2.572 . S
Tb223 O258 2.349 . S
Tb223 O261 2.393 . S
Tb223 O262 2.465 . S
Tb223 O263 2.387 . S
Tb223 O265 2.428 . S
Tb223 O266 2.308 . S
Tb223 C287 2.802 . S
N224 C220 1.361 . S
N224 Tb223 2.572 . S
N224 C226 1.340 . S
C225 C219 1.416 . S
C225 C227 1.332 . S
C225 H233 0.931 . S
C226 N224 1.340 . S
C226 C227 1.407 . S
C226 H232 0.930 . S
C227 C225 1.332 . S
C227 C226 1.407 . S
C227 H229 0.929 . S
H228 C217 0.930 . S
H229 C227 0.929 . S
H230 C245 0.930 . S
H231 C252 0.929 . S
H232 C226 0.930 . S
H233 C225 0.931 . S
H234 C248 0.930 . S
H235 C215 0.930 . S
H236 C221 0.929 . S
H237 C222 0.930 . S
H238 C243 0.930 . S
H239 C218 0.930 . S
H240 C251 0.931 . S
N241 Tb212 2.618 1_554 S
N241 C242 1.379 . S
N241 C245 1.334 1_554 S
C242 N241 1.379 . S
C242 C244 1.416 . S
C242 C250 1.424 . S
C243 H238 0.930 . S
C243 C245 1.390 . S
C243 C246 1.339 1_556 S
C244 C242 1.416 . S
C244 C246 1.416 . S
C244 C277 1.448 . S
C245 H230 0.930 . S
C245 N241 1.334 1_556 S
C245 C243 1.390 . S
C246 C243 1.339 1_554 S
C246 C244 1.416 . S
C246 H253 0.930 . S
N247 Tb212 2.572 1_554 S
N247 C248 1.340 . S
N247 C250 1.361 . S
C248 H234 0.930 . S
C248 N247 1.340 . S
C248 C252 1.407 . S
C249 C250 1.413 . S
C249 C251 1.416 . S
C249 C278 1.427 . S
C250 C242 1.424 . S
C250 N247 1.361 . S
C250 C249 1.413 . S
C251 H240 0.931 . S
C251 C249 1.416 . S
C251 C252 1.332 . S
C252 H231 0.929 . S
C252 C248 1.407 . S
C252 C251 1.332 . S
H253 C246 0.930 . S
H254 C277 0.930 . S
H255 C278 0.929 . S
O256 Tb212 2.463 . S
O256 C276 1.264 . S
O257 Tb212 2.388 1_554 S
O257 C268 1.264 . S
O258 Tb223 2.349 . S
O258 C268 1.243 . S
O259 Tb212 2.426 . S
O259 C276 1.256 . S
O260 Tb212 2.308 1_554 S
O260 C275 1.266 . S
O261 Tb223 2.393 . S
O261 C275 1.248 . S
O262 Tb223 2.465 . S
O262 C287 1.264 . S
O263 Tb223 2.387 . S
O263 C279 1.264 1_554 S
O264 Tb212 2.348 . S
O264 C279 1.243 . S
O265 Tb223 2.428 . S
O265 C287 1.256 . S
O266 Tb223 2.308 . S
O266 C286 1.266 . S
O267 Tb212 2.393 1_554 S
O267 C286 1.248 . S
C268 O257 1.264 . S
C268 O258 1.243 . S
C269 C272 1.399 . S
C269 C274 1.383 . S
C269 C276 1.496 . S
C270 C271 1.399 . S
C270 C274 1.389 . S
C271 C270 1.399 . S
C271 C273 1.380 . S
C271 H288 0.929 . S
C272 C269 1.399 . S
C272 C273 1.392 . S
C272 H289 0.929 . S
C273 C271 1.380 . S
C273 C272 1.392 . S
C273 H290 0.929 . S
C274 C269 1.383 . S
C274 C270 1.389 . S
C274 H291 0.931 . S
C275 O260 1.266 . S
C275 O261 1.248 . S
C276 Tb212 2.800 . S
C276 O256 1.264 . S
C276 O259 1.256 . S
C276 C269 1.496 . S
C277 C244 1.448 . S
C277 H254 0.930 . S
C277 C278 1.328 . S
C278 C249 1.427 . S
C278 H255 0.929 . S
C278 C277 1.328 . S
C279 O263 1.264 1_556 S
C279 O264 1.243 . S
C280 C283 1.399 . S
C280 C284 1.383 . S
C280 C287 1.496 . S
C281 C282 1.399 . S
C281 C284 1.389 . S
C282 C281 1.399 . S
C282 C285 1.380 . S
C282 H292 0.929 . S
C283 C280 1.399 . S
C283 C285 1.392 . S
C283 H293 0.929 . S
C284 C280 1.383 . S
C284 C281 1.389 . S
C284 H294 0.931 . S
C285 C282 1.380 . S
C285 C283 1.392 . S
C285 H295 0.929 . S
C286 O266 1.266 . S
C286 O267 1.248 . S
C287 Tb223 2.802 . S
C287 O262 1.264 . S
C287 O265 1.256 . S
C287 C280 1.496 . S
H288 C271 0.929 . S
H289 C272 0.929 . S
H290 C273 0.929 . S
H291 C274 0.931 . S
H292 C282 0.929 . S
H293 C283 0.929 . S
H294 C284 0.931 . S
H295 C285 0.929 . S
C296 C297 1.387 . S
C296 H300 0.950 . S
C296 C305 1.390 . S
C297 C296 1.387 . S
C297 C299 1.387 . S
H298 C305 0.950 . S
C299 C297 1.387 . S
C299 C301 1.390 . S
C299 H303 0.950 . S
H300 C296 0.950 . S
C301 C299 1.390 . S
C301 C302 1.387 . S
C301 H304 0.950 . S
C302 C301 1.387 . S
C302 C305 1.387 . S
H303 C299 0.950 . S
H304 C301 0.950 . S
C305 C296 1.390 . S
C305 H298 0.950 . S
C305 C302 1.387 . S
C306 C307 1.387 . S
C306 H310 0.950 . S
C306 C315 1.390 . S
C307 C306 1.387 . S
C307 C309 1.387 1_554 S
H308 C315 0.950 . S
C309 C307 1.387 1_556 S
C309 C311 1.390 . S
C309 H313 0.950 . S
H310 C306 0.950 . S
C311 C309 1.390 . S
C311 C312 1.387 1_556 S
C311 H314 0.950 . S
C312 C311 1.387 1_554 S
C312 C315 1.387 . S
H313 C309 0.950 . S
H314 C311 0.950 . S
C315 C306 1.390 . S
C315 H308 0.950 . S
C315 C312 1.387 . S
C316 C317 1.387 . S
C316 H320 0.950 . S
C316 C325 1.390 . S
C317 C316 1.387 . S
C317 C319 1.387 . S
H318 C325 0.950 . S
C319 C317 1.387 . S
C319 C321 1.390 . S
C319 H323 0.950 . S
H320 C316 0.950 . S
C321 C319 1.390 . S
C321 C322 1.387 . S
C321 H324 0.950 . S
C322 C321 1.387 . S
C322 C325 1.387 . S
H323 C319 0.950 . S
H324 C321 0.950 . S
C325 C316 1.390 . S
C325 H318 0.950 . S
C325 C322 1.387 . S
C326 C327 1.387 . S
C326 H330 0.950 1_554 S
C326 C335 1.390 . S
C327 C326 1.387 . S
C327 C329 1.387 . S
H328 C335 0.950 1_556 S
C329 C327 1.387 . S
C329 C331 1.390 . S
C329 H333 0.950 . S
H330 C326 0.950 1_556 S
C331 C329 1.390 . S
C331 C332 1.387 . S
C331 H334 0.950 . S
C332 C331 1.387 . S
C332 C335 1.387 . S
H333 C329 0.950 . S
H334 C331 0.950 . S
C335 C326 1.390 . S
C335 H328 0.950 1_554 S
C335 C332 1.387 . S
C336 C337 1.387 . S
C336 H340 0.950 . S
C336 C345 1.390 . S
C337 C336 1.387 . S
C337 C339 1.387 . S
H338 C345 0.950 . S
C339 C337 1.387 . S
C339 C341 1.390 . S
C339 H343 0.950 . S
H340 C336 0.950 . S
C341 C339 1.390 . S
C341 C342 1.387 . S
C341 H344 0.950 . S
C342 C341 1.387 . S
C342 C345 1.387 . S
H343 C339 0.950 . S
H344 C341 0.950 . S
C345 C336 1.390 . S
C345 H338 0.950 . S
C345 C342 1.387 . S
C346 C347 1.387 . S
C346 H350 0.950 . S
C346 C355 1.390 . S
C347 C346 1.387 . S
C347 C349 1.387 . S
H348 C355 0.950 . S
C349 C347 1.387 . S
C349 C351 1.390 . S
C349 H353 0.950 . S
H350 C346 0.950 . S
C351 C349 1.390 . S
C351 C352 1.387 . S
C351 H354 0.950 . S
C352 C351 1.387 . S
C352 C355 1.387 . S
H353 C349 0.950 . S
H354 C351 0.950 . S
C355 C346 1.390 . S
C355 H348 0.950 . S
C355 C352 1.387 . S
C356 C357 1.387 . S
C356 H360 0.950 . S
C356 C365 1.390 . S
C357 C356 1.387 . S
C357 C359 1.387 . S
H358 C365 0.950 . S
C359 C357 1.387 . S
C359 C361 1.390 . S
C359 H363 0.950 1_545 S
H360 C356 0.950 . S
C361 C359 1.390 . S
C361 C362 1.387 . S
C361 H364 0.950 1_545 S
C362 C361 1.387 . S
C362 C365 1.387 . S
H363 C359 0.950 1_565 S
H364 C361 0.950 1_565 S
C365 C356 1.390 . S
C365 H358 0.950 . S
C365 C362 1.387 . S
C366 C367 1.387 . S
C366 H370 0.950 . S
C366 C375 1.390 . S
C367 C366 1.387 . S
C367 C369 1.387 . S
H368 C375 0.950 . S
C369 C367 1.387 . S
C369 C371 1.390 . S
C369 H373 0.950 . S
H370 C366 0.950 . S
C371 C369 1.390 . S
C371 C372 1.387 . S
C371 H374 0.950 . S
C372 C371 1.387 . S
C372 C375 1.387 . S
H373 C369 0.950 . S
H374 C371 0.950 . S
C375 C366 1.390 . S
C375 H368 0.950 . S
C375 C372 1.387 . S
C376 C377 1.387 . S
C376 H380 0.950 . S
C376 C385 1.390 . S
C377 C376 1.387 . S
C377 C379 1.387 . S
H378 C385 0.950 . S
C379 C377 1.387 . S
C379 C381 1.390 . S
C379 H383 0.950 . S
H380 C376 0.950 . S
C381 C379 1.390 . S
C381 C382 1.387 . S
C381 H384 0.950 . S
C382 C381 1.387 . S
C382 C385 1.387 . S
H383 C379 0.950 . S
H384 C381 0.950 . S
C385 C376 1.390 . S
C385 H378 0.950 . S
C385 C382 1.387 . S
C386 C387 1.387 . S
C386 H390 0.950 . S
C386 C395 1.390 . S
C387 C386 1.387 . S
C387 C389 1.387 . S
H388 C395 0.950 1_565 S
C389 C387 1.387 . S
C389 C391 1.390 . S
C389 H393 0.950 . S
H390 C386 0.950 . S
C391 C389 1.390 . S
C391 C392 1.387 . S
C391 H394 0.950 . S
C392 C391 1.387 . S
C392 C395 1.387 . S
H393 C389 0.950 . S
H394 C391 0.950 . S
C395 C386 1.390 . S
C395 H388 0.950 1_545 S
C395 C392 1.387 . S
C396 C397 1.387 . S
C396 H400 0.950 . S
C396 C405 1.390 . S
C397 C396 1.387 . S
C397 C399 1.387 . S
H398 C405 0.950 . S
C399 C397 1.387 . S
C399 C401 1.390 . S
C399 H403 0.950 . S
H400 C396 0.950 . S
C401 C399 1.390 . S
C401 C402 1.387 . S
C401 H404 0.950 . S
C402 C401 1.387 . S
C402 C405 1.387 . S
H403 C399 0.950 . S
H404 C401 0.950 . S
C405 C396 1.390 . S
C405 H398 0.950 . S
C405 C402 1.387 . S
C406 C407 1.387 . S
C406 H410 0.950 . S
C406 C415 1.390 . S
C407 C406 1.387 . S
C407 C409 1.387 . S
H408 C415 0.950 . S
C409 C407 1.387 . S
C409 C411 1.392 1_565 S
C409 H413 0.950 1_565 S
H410 C406 0.950 . S
C411 C409 1.392 1_545 S
C411 C412 1.375 1_545 S
C411 H414 0.961 . S
C412 C411 1.375 1_565 S
C412 C415 1.387 . S
H413 C409 0.950 1_545 S
H414 C411 0.961 . S
C415 C406 1.390 . S
C415 H408 0.950 . S
C415 C412 1.387 . S
C302 C191 1.653 . S
C297 C119 1.633 . S
C307 C23 1.639 . S
C312 C286 1.621 . S
C317 C55 1.563 . S
C322 C202 1.652 . S
C327 C87 1.522 . S
C332 C275 1.620 . S
C342 C186 1.395 . S
C337 C17 1.538 . S
C352 C279 1.618 . S
C347 C61 1.535 . S
C357 C93 1.493 . S
C362 C195 1.634 . S
C367 C113 1.516 . S
C372 C270 1.399 . S
C382 C281 1.399 . S
C377 C49 1.487 . S
C392 C197 1.398 . S
C387 C81 1.489 . S
C402 C268 1.618 . S
C397 C125 1.609 . S
C407 C29 1.634 . S
C412 C184 1.634 . S
