# Generated by pormake.
# Topology pto, (3,4)-cn, num edge types: 1
# Building blocks:
#     Node 0, Type 0, BuildingBlock: OLANEW_clean_sbu_2, # of connection points: 3
#     Node 1, Type 0, BuildingBlock: OLANEW_clean_sbu_2, # of connection points: 3
#     Node 2, Type 0, BuildingBlock: OLANEW_clean_sbu_2, # of connection points: 3
#     Node 3, Type 0, BuildingBlock: OLANEW_clean_sbu_2, # of connection points: 3
#     Node 4, Type 0, BuildingBlock: OLANEW_clean_sbu_2, # of connection points: 3
#     Node 5, Type 0, BuildingBlock: OLANEW_clean_sbu_2, # of connection points: 3
#     Node 6, Type 0, BuildingBlock: OLANEW_clean_sbu_2, # of connection points: 3
#     Node 7, Type 0, BuildingBlock: OLANEW_clean_sbu_2, # of connection points: 3
#     Node 8, Type 1, BuildingBlock: MUDLON_clean_linker_0, # of connection points: 4
#     Node 9, Type 1, BuildingBlock: MUDLON_clean_linker_0, # of connection points: 4
#     Node 10, Type 1, BuildingBlock: MUDLON_clean_linker_0, # of connection points: 4
#     Node 11, Type 1, BuildingBlock: MUDLON_clean_linker_0, # of connection points: 4
#     Node 12, Type 1, BuildingBlock: MUDLON_clean_linker_0, # of connection points: 4
#     Node 13, Type 1, BuildingBlock: MUDLON_clean_linker_0, # of connection points: 4
#     Edge 14, Type (0, 1), None
#     Edge 15, Type (0, 1), None
#     Edge 16, Type (0, 1), None
#     Edge 17, Type (0, 1), None
#     Edge 18, Type (0, 1), None
#     Edge 19, Type (0, 1), None
#     Edge 20, Type (0, 1), None
#     Edge 21, Type (0, 1), None
#     Edge 22, Type (0, 1), None
#     Edge 23, Type (0, 1), None
#     Edge 24, Type (0, 1), None
#     Edge 25, Type (0, 1), None
#     Edge 26, Type (0, 1), None
#     Edge 27, Type (0, 1), None
#     Edge 28, Type (0, 1), None
#     Edge 29, Type (0, 1), None
#     Edge 30, Type (0, 1), None
#     Edge 31, Type (0, 1), None
#     Edge 32, Type (0, 1), None
#     Edge 33, Type (0, 1), None
#     Edge 34, Type (0, 1), None
#     Edge 35, Type (0, 1), None
#     Edge 36, Type (0, 1), None
#     Edge 37, Type (0, 1), None
# Relax obj value: 0.017
# Max RMSD: 0.123
# Mean RMSD: 0.063
data_MOF--net-pto--node1-OLANEW_clean_sbu_2--node2-MUDLON_clean_linker_0--edge1-none
_symmetry_space_group_name_H-M    P1
_symmetry_Int_Tables_number       1
_symmetry_cell_setting            triclinic
loop_
_symmetry_equiv_pos_as_xyz
'x, y, z'
_cell_length_a     23.587067
_cell_length_b     42.731602
_cell_length_c     32.940082
_cell_angle_alpha  92.966337
_cell_angle_beta   88.098013
_cell_angle_gamma 107.90147
loop_
_atom_site_label
_atom_site_type_symbol
_atom_site_fract_x
_atom_site_fract_y
_atom_site_fract_z
_atom_type_partial_charge
O0 O 0.3973 0.33943 0.31265 0.0
Cd1 Cd 0.33689 0.34353 0.37346 0.0
O2 O 0.44922 0.39186 0.31851 0.0
Cd3 Cd 0.38875 0.40227 0.3653 0.0
O4 O 0.30753 0.40886 0.39331 0.0
C5 C 0.26494 0.4051 0.36903 0.0
O6 O 0.27304 0.39767 0.3305 0.0
C7 C 0.44007 0.36366 0.30063 0.0
C8 C 0.3906 0.32973 0.44165 0.0
O9 O 0.34773 0.30757 0.4242 0.0
O10 O 0.40737 0.35852 0.42733 0.0
O11 O 0.4257 0.92524 0.79631 0.0
Cd12 Cd 0.39653 0.97272 0.77797 0.0
O13 O 0.35383 0.8893 0.76267 0.0
Cd14 Cd 0.30252 0.84091 0.73705 0.0
O15 O 0.24146 0.80144 0.70039 0.0
C16 C 0.21802 0.77249 0.71267 0.0
O17 O 0.23154 0.76539 0.74873 0.0
C18 C 0.39858 0.89552 0.78565 0.0
C19 C 0.4297 0.99364 0.6995 0.0
O20 O 0.46706 0.00195 0.72848 0.0
O21 O 0.377 0.97488 0.7074 0.0
O22 O 0.82638 0.79448 0.37612 0.0
Cd23 Cd 0.79734 0.7416 0.33822 0.0
O24 O 0.74191 0.80407 0.36533 0.0
Cd25 Cd 0.7092 0.76529 0.31867 0.0
O26 O 0.65287 0.76694 0.26846 0.0
C27 C 0.6731 0.79193 0.24692 0.0
O28 O 0.72722 0.81164 0.2537 0.0
C29 C 0.79211 0.81212 0.38245 0.0
C30 C 0.86982 0.70619 0.36398 0.0
O31 O 0.88229 0.72241 0.33149 0.0
O32 O 0.82185 0.70577 0.38367 0.0
O33 O 0.81192 0.31321 0.62541 0.0
Cd34 Cd 0.74069 0.26503 0.65502 0.0
O35 O 0.77891 0.34829 0.66287 0.0
Cd36 Cd 0.705 0.31145 0.69154 0.0
O37 O 0.63219 0.29594 0.73595 0.0
C38 C 0.63931 0.31395 0.76846 0.0
O39 O 0.68902 0.33838 0.77271 0.0
C40 C 0.81551 0.34269 0.63646 0.0
C41 C 0.72592 0.2093 0.60375 0.0
O42 O 0.68994 0.22647 0.60314 0.0
O43 O 0.76873 0.21829 0.62899 0.0
O44 O 0.73162 0.78379 0.62587 0.0
Cd45 Cd 0.71531 0.73234 0.66042 0.0
O46 O 0.79938 0.81369 0.6681 0.0
Cd47 Cd 0.76165 0.77764 0.71392 0.0
O48 O 0.68447 0.76594 0.75522 0.0
C49 C 0.68795 0.78478 0.78676 0.0
O50 O 0.73892 0.80747 0.79443 0.0
C51 C 0.77153 0.81071 0.63505 0.0
C52 C 0.8155 0.71085 0.64796 0.0
O53 O 0.77491 0.70467 0.62118 0.0
O54 O 0.8083 0.72664 0.68087 0.0
O55 O 0.85557 0.29808 0.34031 0.0
Cd56 Cd 0.80195 0.24895 0.29981 0.0
O57 O 0.83457 0.33533 0.305 0.0
Cd58 Cd 0.78521 0.29867 0.25975 0.0
O59 O 0.77245 0.2665 0.20481 0.0
C60 C 0.74387 0.2691 0.17375 0.0
O61 O 0.74518 0.25032 0.1411 0.0
C62 C 0.86014 0.32801 0.3349 0.0
C63 C 0.76993 0.19586 0.35059 0.0
O64 O 0.82239 0.20591 0.33477 0.0
O65 O 0.73206 0.2103 0.34158 0.0
O66 O 0.23064 0.32938 0.77741 0.0
Cd67 Cd 0.16056 0.32339 0.72206 0.0
O68 O 0.3113 0.34903 0.73979 0.0
Cd69 Cd 0.40763 0.35958 0.73041 0.0
O70 O 0.50255 0.36947 0.7424 0.0
C71 C 0.54495 0.36245 0.72292 0.0
O72 O 0.59842 0.37331 0.73845 0.0
C73 C 0.28708 0.33895 0.77375 0.0
C74 C 0.14546 0.37726 0.68446 0.0
O75 O 0.12064 0.36839 0.719 0.0
O76 O 0.18046 0.36193 0.66884 0.0
O77 O 0.37942 0.91244 0.29591 0.0
Cd78 Cd 0.32091 0.92206 0.35531 0.0
O79 O 0.34148 0.86146 0.31279 0.0
Cd80 Cd 0.32428 0.80832 0.31512 0.0
O81 O 0.27169 0.76161 0.33994 0.0
C82 C 0.25296 0.76293 0.37644 0.0
O83 O 0.26902 0.79135 0.39703 0.0
C84 C 0.37454 0.8822 0.28894 0.0
C85 C 0.38403 0.96836 0.41336 0.0
O86 O 0.38839 0.93916 0.41076 0.0
O87 O 0.3508 0.97595 0.38805 0.0
H88 H 0.98761 0.36344 0.44397 0.0
N89 N 0.04323 0.42473 0.42316 0.0
H90 H 0.90962 0.32152 0.40678 0.0
H91 H 0.98039 0.43508 0.35813 0.0
H92 H 0.90248 0.39382 0.32172 0.0
H93 H 0.07673 0.41154 0.34495 0.0
H94 H 0.17022 0.40316 0.32292 0.0
H95 H 0.13457 0.42539 0.46932 0.0
H96 H 0.22977 0.41733 0.44713 0.0
H97 H 0.00204 0.45605 0.48386 0.0
H98 H 0.09046 0.47122 0.36641 0.0
H99 H 0.00135 0.5135 0.48733 0.0
H100 H 0.09151 0.5281 0.37024 0.0
H101 H 0.9526 0.66662 0.46854 0.0
H102 H 0.87438 0.68579 0.44088 0.0
H103 H 0.96051 0.69124 0.3225 0.0
H104 H 0.03689 0.67149 0.34975 0.0
H105 H 0.12651 0.65579 0.36659 0.0
H106 H 0.2123 0.69997 0.34375 0.0
H107 H 0.18976 0.76127 0.44773 0.0
H108 H 0.10309 0.71693 0.47011 0.0
H109 H 0.06864 0.62829 0.4926 0.0
H110 H 0.06711 0.57058 0.4931 0.0
H111 H 0.02056 0.55791 0.36623 0.0
N112 N 0.05004 0.66055 0.43009 0.0
H113 H 0.02346 0.61514 0.36575 0.0
C114 C 0.99048 0.40249 0.40424 0.0
C115 C 0.96832 0.37035 0.41779 0.0
C116 C 0.92388 0.34643 0.3964 0.0
C117 C 0.90018 0.35428 0.36105 0.0
C118 C 0.91969 0.38694 0.34884 0.0
C119 C 0.9646 0.41074 0.36993 0.0
C120 C 0.09807 0.41882 0.40914 0.0
C121 C 0.10927 0.41251 0.36772 0.0
C122 C 0.16318 0.40782 0.35503 0.0
C123 C 0.20754 0.40955 0.38324 0.0
C124 C 0.19649 0.41584 0.42462 0.0
C125 C 0.1422 0.4204 0.43737 0.0
C126 C 0.04616 0.4591 0.42506 0.0
C127 C 0.02169 0.47178 0.45907 0.0
C128 C 0.02161 0.50458 0.46106 0.0
C129 C 0.04589 0.52527 0.42885 0.0
C130 C 0.07142 0.51268 0.3952 0.0
C131 C 0.07148 0.48006 0.39323 0.0
C132 C 0.00116 0.66799 0.41167 0.0
C133 C 0.95382 0.67138 0.43649 0.0
C134 C 0.90927 0.6823 0.42062 0.0
C135 C 0.91179 0.69037 0.3796 0.0
C136 C 0.95771 0.68554 0.35431 0.0
C137 C 0.00165 0.67424 0.37003 0.0
C138 C 0.10776 0.68314 0.42012 0.0
C139 C 0.14057 0.67837 0.38508 0.0
C140 C 0.18969 0.7038 0.37185 0.0
C141 C 0.2073 0.73433 0.39353 0.0
C142 C 0.17717 0.73814 0.43012 0.0
C143 C 0.12778 0.71282 0.44311 0.0
C144 C 0.04637 0.62619 0.42933 0.0
C145 C 0.05798 0.6129 0.46503 0.0
C146 C 0.05678 0.57998 0.4653 0.0
C147 C 0.04419 0.55976 0.42962 0.0
C148 C 0.03148 0.57298 0.39405 0.0
C149 C 0.03269 0.6058 0.39382 0.0
H150 H 0.94498 0.44861 0.65047 0.0
N151 N 0.02649 0.44431 0.5906 0.0
H152 H 0.8557 0.40514 0.66946 0.0
H153 H 0.97717 0.38718 0.54984 0.0
H154 H 0.88801 0.34284 0.56954 0.0
H155 H 0.10456 0.41433 0.56259 0.0
H156 H 0.15668 0.38532 0.60258 0.0
H157 H 0.04238 0.4526 0.67308 0.0
H158 H 0.09227 0.42271 0.7132 0.0
H159 H 0.94219 0.47128 0.56792 0.0
H160 H 0.12173 0.49804 0.61332 0.0
H161 H 0.94504 0.52877 0.57481 0.0
H162 H 0.12442 0.55553 0.61853 0.0
H163 H 0.9844 0.69018 0.6924 0.0
H164 H 0.89213 0.70377 0.70436 0.0
H165 H 0.86182 0.69558 0.5751 0.0
H166 H 0.95611 0.68319 0.56309 0.0
H167 H 0.10215 0.74 0.59734 0.0
H168 H 0.18019 0.77963 0.63711 0.0
H169 H 0.15474 0.70932 0.73107 0.0
H170 H 0.07675 0.66999 0.69106 0.0
H171 H 0.9633 0.62744 0.65868 0.0
H172 H 0.96302 0.57034 0.64876 0.0
H173 H 0.10693 0.59965 0.56082 0.0
N174 N 0.03481 0.68064 0.61803 0.0
H175 H 0.10522 0.65687 0.56907 0.0
C176 C 0.96789 0.42133 0.59831 0.0
C177 C 0.93223 0.426 0.63188 0.0
C178 C 0.88106 0.401 0.64281 0.0
C179 C 0.86504 0.37042 0.62121 0.0
C180 C 0.89937 0.36608 0.5869 0.0
C181 C 0.95003 0.39142 0.57544 0.0
C182 C 0.06878 0.43515 0.61463 0.0
C183 C 0.10369 0.41727 0.59544 0.0
C184 C 0.13328 0.40065 0.61839 0.0
C185 C 0.1276 0.40125 0.66104 0.0
C186 C 0.09686 0.42147 0.68038 0.0
C187 C 0.06821 0.43854 0.65743 0.0
C188 C 0.02955 0.47905 0.59363 0.0
C189 C 0.98172 0.48907 0.58031 0.0
C190 C 0.98341 0.52206 0.58376 0.0
C191 C 0.03426 0.5462 0.59831 0.0
C192 C 0.08419 0.53708 0.60811 0.0
C193 C 0.08212 0.50395 0.60555 0.0
C194 C 0.97813 0.68638 0.62653 0.0
C195 C 0.9585 0.69155 0.66648 0.0
C196 C 0.90541 0.6992 0.67337 0.0
C197 C 0.86999 0.701 0.64067 0.0
C198 C 0.88824 0.69441 0.60093 0.0
C199 C 0.94203 0.68739 0.59398 0.0
C200 C 0.0838 0.70213 0.64103 0.0
C201 C 0.11401 0.73311 0.62631 0.0
C202 C 0.15844 0.7557 0.64916 0.0
C203 C 0.17355 0.74771 0.68741 0.0
C204 C 0.14421 0.71628 0.70177 0.0
C205 C 0.0997 0.69369 0.67885 0.0
C206 C 0.03373 0.64659 0.6139 0.0
C207 C 0.99431 0.62178 0.63679 0.0
C208 C 0.9942 0.58911 0.63125 0.0
C209 C 0.03465 0.58078 0.60385 0.0
C210 C 0.07517 0.60556 0.58195 0.0
C211 C 0.07419 0.6381 0.58664 0.0
H212 H 0.42946 0.29904 0.61782 0.0
N213 N 0.52014 0.29401 0.56628 0.0
H214 H 0.44005 0.32694 0.68477 0.0
H215 H 0.62035 0.3251 0.60444 0.0
H216 H 0.63172 0.35434 0.6708 0.0
H217 H 0.55752 0.34617 0.52068 0.0
H218 H 0.50279 0.36224 0.46764 0.0
H219 H 0.40247 0.26441 0.5473 0.0
H220 H 0.34855 0.27948 0.4934 0.0
H221 H 0.44216 0.24473 0.60891 0.0
H222 H 0.58533 0.26512 0.51979 0.0
H223 H 0.43291 0.18636 0.60283 0.0
H224 H 0.57693 0.20652 0.51377 0.0
H225 H 0.38236 0.02692 0.57686 0.0
H226 H 0.35509 0.00021 0.64145 0.0
H227 H 0.54129 0.01748 0.6659 0.0
H228 H 0.56823 0.04304 0.60003 0.0
H229 H 0.53669 0.01076 0.50544 0.0
H230 H 0.48924 0.97305 0.44893 0.0
H231 H 0.34619 0.01643 0.45166 0.0
H232 H 0.39186 0.0527 0.50931 0.0
H233 H 0.4826 0.09236 0.61575 0.0
H234 H 0.48744 0.14943 0.61952 0.0
H235 H 0.51217 0.15378 0.48932 0.0
N236 N 0.49545 0.05466 0.54675 0.0
H237 H 0.50995 0.09645 0.48514 0.0
C238 C 0.52436 0.31022 0.60604 0.0
C239 C 0.4737 0.31106 0.62925 0.0
C240 C 0.47988 0.3275 0.66751 0.0
C241 C 0.53672 0.34388 0.68301 0.0
C242 C 0.58714 0.34238 0.65983 0.0
C243 C 0.5809 0.32571 0.62185 0.0
C244 C 0.48481 0.30384 0.53744 0.0
C245 C 0.51168 0.3318 0.51515 0.0
C246 C 0.48034 0.34092 0.48497 0.0
C247 C 0.42165 0.32185 0.47611 0.0
C248 C 0.394 0.29439 0.49928 0.0
C249 C 0.42495 0.28571 0.53008 0.0
C250 C 0.51506 0.25945 0.56499 0.0
C251 C 0.47217 0.23677 0.58836 0.0
C252 C 0.46689 0.20328 0.58483 0.0
C253 C 0.50421 0.19171 0.55785 0.0
C254 C 0.54699 0.21448 0.53451 0.0
C255 C 0.55228 0.24799 0.53814 0.0
C256 C 0.47754 0.03652 0.5833 0.0
C257 C 0.41727 0.02415 0.59547 0.0
C258 C 0.40173 0.009 0.63255 0.0
C259 C 0.44608 0.00677 0.65867 0.0
C260 C 0.5062 0.01889 0.64635 0.0
C261 C 0.52166 0.03335 0.6088 0.0
C262 C 0.46855 0.03486 0.5113 0.0
C263 C 0.49532 0.01222 0.4936 0.0
C264 C 0.46818 0.99073 0.4615 0.0
C265 C 0.41435 0.99206 0.44585 0.0
C266 C 0.38809 0.0152 0.46286 0.0
C267 C 0.41424 0.03597 0.49579 0.0
C268 C 0.49277 0.08846 0.54957 0.0
C269 C 0.4877 0.10473 0.58744 0.0
C270 C 0.49048 0.13786 0.58983 0.0
C271 C 0.49922 0.15612 0.55472 0.0
C272 C 0.5051 0.14039 0.51702 0.0
C273 C 0.50283 0.10725 0.51458 0.0
H274 H 0.48586 0.78446 0.20007 0.0
N275 N 0.51548 0.84319 0.163 0.0
H276 H 0.55368 0.76245 0.23546 0.0
H277 H 0.63354 0.86668 0.16363 0.0
H278 H 0.70216 0.84485 0.19874 0.0
H279 H 0.53867 0.90159 0.2015 0.0
H280 H 0.47937 0.9186 0.25572 0.0
H281 H 0.40551 0.80672 0.18997 0.0
H282 H 0.34586 0.82334 0.24459 0.0
H283 H 0.4949 0.7828 0.12206 0.0
H284 H 0.48735 0.88165 0.11147 0.0
H285 H 0.47735 0.7718 0.04989 0.0
H286 H 0.46478 0.86996 0.03959 0.0
H287 H 0.48223 0.7553 0.80557 0.0
H288 H 0.57204 0.74817 0.77205 0.0
H289 H 0.68095 0.82242 0.85489 0.0
H290 H 0.59242 0.8295 0.8877 0.0
H291 H 0.54589 0.85876 0.83587 0.0
H292 H 0.51192 0.89885 0.80236 0.0
H293 H 0.33149 0.83334 0.80581 0.0
H294 H 0.36597 0.79277 0.83953 0.0
H295 H 0.42298 0.755 0.91832 0.0
H296 H 0.41813 0.76318 0.9924 0.0
H297 H 0.51954 0.86574 0.98143 0.0
N298 N 0.47586 0.79948 0.86405 0.0
H299 H 0.52104 0.85778 0.90851 0.0
C300 C 0.55488 0.82748 0.17968 0.0
C301 C 0.53304 0.79757 0.19932 0.0
C302 C 0.57197 0.78492 0.21934 0.0
C303 C 0.63327 0.80207 0.22025 0.0
C304 C 0.65517 0.8311 0.19878 0.0
C305 C 0.61621 0.84364 0.17872 0.0
C306 C 0.47666 0.85296 0.19213 0.0
C307 C 0.49634 0.88456 0.21064 0.0
C308 C 0.46253 0.89413 0.24159 0.0
C309 C 0.40862 0.87202 0.25504 0.0
C310 C 0.38809 0.84053 0.23575 0.0
C311 C 0.42177 0.83109 0.20434 0.0
C312 C 0.49388 0.83352 0.12231 0.0
C313 C 0.48815 0.80202 0.10457 0.0
C314 C 0.4774 0.79557 0.06299 0.0
C315 C 0.47084 0.82018 0.0384 0.0
C316 C 0.47163 0.8507 0.05708 0.0
C317 C 0.48374 0.85735 0.09836 0.0
C318 C 0.52972 0.79289 0.84911 0.0
C319 C 0.52553 0.76953 0.81692 0.0
C320 C 0.57691 0.76551 0.79784 0.0
C321 C 0.63369 0.78496 0.8106 0.0
C322 C 0.63794 0.80713 0.84417 0.0
C323 C 0.58672 0.81114 0.86317 0.0
C324 C 0.4583 0.82249 0.84043 0.0
C325 C 0.49917 0.85251 0.82891 0.0
C326 C 0.47969 0.87557 0.8097 0.0
C327 C 0.41918 0.86909 0.80105 0.0
C328 C 0.37861 0.83868 0.81112 0.0
C329 C 0.39811 0.81564 0.83073 0.0
C330 C 0.47243 0.80552 0.90758 0.0
C331 C 0.44347 0.77927 0.9321 0.0
C332 C 0.44111 0.784 0.97446 0.0
C333 C 0.4684 0.81518 0.99323 0.0
C334 C 0.49667 0.84153 0.96839 0.0
C335 C 0.49813 0.83689 0.92623 0.0
H336 H 0.62262 0.13395 0.50517 0.0
N337 N 0.70546 0.10723 0.4803 0.0
H338 H 0.62985 0.17746 0.55791 0.0
H339 H 0.7996 0.13329 0.53146 0.0
H340 H 0.8077 0.17697 0.58418 0.0
H341 H 0.81848 0.1424 0.45674 0.0
H342 H 0.84533 0.18007 0.40083 0.0
H343 H 0.63383 0.11515 0.42381 0.0
H344 H 0.66003 0.1539 0.36873 0.0
H345 H 0.67699 0.06714 0.5428 0.0
H346 H 0.77924 0.08139 0.43 0.0
H347 H 0.71032 0.01986 0.555 0.0
H348 H 0.81162 0.03447 0.44223 0.0
H349 H 0.72807 0.86016 0.52378 0.0
H350 H 0.7026 0.8186 0.57435 0.0
H351 H 0.87141 0.86464 0.63231 0.0
H352 H 0.89745 0.90634 0.5805 0.0
H353 H 0.91127 0.87679 0.48384 0.0
H354 H 0.89291 0.83499 0.42805 0.0
H355 H 0.72777 0.85391 0.40352 0.0
H356 H 0.74598 0.89501 0.45897 0.0
H357 H 0.72612 0.9152 0.53481 0.0
H358 H 0.69681 0.96429 0.52782 0.0
H359 H 0.87511 0.01636 0.48657 0.0
N360 N 0.83614 0.90766 0.51435 0.0
H361 H 0.90417 0.96655 0.49299 0.0
C362 C 0.70957 0.12991 0.51498 0.0
C363 C 0.6622 0.14263 0.52323 0.0
C364 C 0.66686 0.16773 0.5529 0.0
C365 C 0.71938 0.18073 0.57501 0.0
C366 C 0.76651 0.16734 0.56772 0.0
C367 C 0.76192 0.14234 0.53767 0.0
C368 C 0.72411 0.1254 0.44386 0.0
C369 C 0.78392 0.144 0.43688 0.0
C370 C 0.79915 0.16555 0.40498 0.0
C371 C 0.75469 0.16988 0.38052 0.0
C372 C 0.69516 0.15097 0.3871 0.0
C373 C 0.68019 0.1287 0.41826 0.0
C374 C 0.72769 0.07963 0.48668 0.0
C375 C 0.70742 0.06068 0.52102 0.0
C376 C 0.72601 0.03336 0.5278 0.0
C377 C 0.76457 0.02374 0.49996 0.0
C378 C 0.78348 0.04187 0.46497 0.0
C379 C 0.76486 0.06916 0.45811 0.0
C380 C 0.81516 0.88654 0.54816 0.0
C381 C 0.75947 0.86185 0.54758 0.0
C382 C 0.74502 0.83782 0.57647 0.0
C383 C 0.78541 0.83803 0.60691 0.0
C384 C 0.8395 0.86377 0.60904 0.0
C385 C 0.8543 0.88769 0.5797 0.0
C386 C 0.83034 0.88913 0.47589 0.0
C387 C 0.87201 0.8725 0.46561 0.0
C388 C 0.86119 0.84847 0.43393 0.0
C389 C 0.80832 0.8407 0.41184 0.0
C390 C 0.76866 0.85903 0.42021 0.0
C391 C 0.77938 0.88291 0.45192 0.0
C392 C 0.81794 0.93707 0.51454 0.0
C393 C 0.75945 0.93709 0.52482 0.0
C394 C 0.74257 0.96539 0.52087 0.0
C395 C 0.78353 0.99427 0.50652 0.0
C396 C 0.84223 0.99441 0.49719 0.0
C397 C 0.85907 0.9661 0.50116 0.0
H398 H 0.60488 0.31526 0.23065 0.0
N399 N 0.58838 0.34888 0.16348 0.0
H400 H 0.67202 0.28243 0.23423 0.0
H401 H 0.67245 0.34275 0.10952 0.0
H402 H 0.7377 0.30829 0.11295 0.0
H403 H 0.60221 0.40205 0.21237 0.0
H404 H 0.53973 0.40897 0.27089 0.0
H405 H 0.49053 0.302 0.1925 0.0
H406 H 0.4276 0.30847 0.25101 0.0
H407 H 0.54624 0.28888 0.12241 0.0
H408 H 0.55297 0.39067 0.12084 0.0
H409 H 0.50396 0.27882 0.05558 0.0
H410 H 0.50256 0.38014 0.05613 0.0
H411 H 0.45043 0.26046 0.82099 0.0
H412 H 0.53338 0.26402 0.77265 0.0
H413 H 0.63478 0.35514 0.83336 0.0
H414 H 0.55264 0.35198 0.88013 0.0
H415 H 0.46209 0.36478 0.8463 0.0
H416 H 0.39494 0.3793 0.80075 0.0
H417 H 0.26081 0.28651 0.82161 0.0
H418 H 0.32824 0.27207 0.86701 0.0
H419 H 0.41781 0.26054 0.93618 0.0
H420 H 0.4376 0.26993 0.00839 0.0
H421 H 0.50943 0.37471 0.99005 0.0
N422 N 0.44221 0.30455 0.87911 0.0
H423 H 0.48077 0.36485 0.91968 0.0
C424 C 0.63078 0.33073 0.16867 0.0
C425 C 0.63335 0.31434 0.20452 0.0
C426 C 0.6725 0.29566 0.20698 0.0
C427 C 0.7093 0.29257 0.1737 0.0
C428 C 0.70913 0.31002 0.13886 0.0
C429 C 0.67158 0.32956 0.13686 0.0
C430 C 0.55095 0.3517 0.19818 0.0
C431 C 0.56417 0.3816 0.22081 0.0
C432 C 0.52837 0.38544 0.25416 0.0
C433 C 0.47856 0.35927 0.26564 0.0
C434 C 0.46559 0.32912 0.24303 0.0
C435 C 0.50131 0.32538 0.2095 0.0
C436 C 0.55533 0.34102 0.126 0.0
C437 C 0.53765 0.30907 0.10782 0.0
C438 C 0.51205 0.30323 0.0694 0.0
C439 C 0.50008 0.32871 0.0489 0.0
C440 C 0.51313 0.35997 0.0692 0.0
C441 C 0.54133 0.3661 0.10678 0.0
C442 C 0.49487 0.30552 0.85476 0.0
C443 C 0.49105 0.28087 0.82418 0.0
C444 C 0.53832 0.28302 0.79653 0.0
C445 C 0.5907 0.30985 0.79922 0.0
C446 C 0.59522 0.33401 0.83056 0.0
C447 C 0.54779 0.33208 0.85775 0.0
C448 C 0.40026 0.31699 0.8596 0.0
C449 C 0.41784 0.34785 0.84179 0.0
C450 C 0.37971 0.356 0.81543 0.0
C451 C 0.32347 0.3336 0.80681 0.0
C452 C 0.30412 0.30415 0.82752 0.0
C453 C 0.34242 0.29587 0.85348 0.0
C454 C 0.44986 0.31175 0.92223 0.0
C455 C 0.43685 0.28552 0.94824 0.0
C456 C 0.44939 0.2911 0.98965 0.0
C457 C 0.47775 0.32314 0.00596 0.0
C458 C 0.4877 0.34958 0.97977 0.0
C459 C 0.47238 0.34399 0.93877 0.0
loop_
_geom_bond_atom_site_label_1
_geom_bond_atom_site_label_2
_geom_bond_distance
_geom_bond_site_symmetry_2
_ccdc_geom_bond_type
O0 Cd1 2.300 . S
O0 C7 1.275 . S
Cd1 O0 2.300 . S
Cd1 O9 2.381 . S
Cd1 O10 2.378 . S
O2 Cd3 2.385 . S
O2 C7 1.255 . S
Cd3 O2 2.385 . S
Cd3 O4 2.317 . S
O4 Cd3 2.317 . S
O4 C5 1.232 . S
C5 O4 1.232 . S
C5 O6 1.218 . S
O6 C5 1.218 . S
C7 O0 1.275 . S
C7 O2 1.255 . S
C8 O9 1.258 . S
C8 O10 1.256 . S
O9 Cd1 2.381 . S
O9 C8 1.258 . S
O10 Cd1 2.378 . S
O10 C8 1.256 . S
O11 Cd12 2.300 . S
O11 C18 1.275 . S
Cd12 O11 2.300 . S
Cd12 O20 2.381 . S
Cd12 O21 2.378 . S
O13 Cd14 2.385 . S
O13 C18 1.255 . S
Cd14 O13 2.385 . S
Cd14 O15 2.317 . S
O15 Cd14 2.317 . S
O15 C16 1.232 . S
C16 O15 1.232 . S
C16 O17 1.218 . S
O17 C16 1.218 . S
C18 O11 1.275 . S
C18 O13 1.255 . S
C19 O20 1.258 . S
C19 O21 1.256 . S
O20 Cd12 2.381 . S
O20 C19 1.258 . S
O21 Cd12 2.378 . S
O21 C19 1.256 . S
O22 Cd23 2.300 . S
O22 C29 1.275 . S
Cd23 O22 2.300 . S
Cd23 O31 2.381 . S
Cd23 O32 2.378 . S
O24 Cd25 2.385 . S
O24 C29 1.255 . S
Cd25 O24 2.385 . S
Cd25 O26 2.317 . S
O26 Cd25 2.317 . S
O26 C27 1.232 . S
C27 O26 1.232 . S
C27 O28 1.218 . S
O28 C27 1.218 . S
C29 O22 1.275 . S
C29 O24 1.255 . S
C30 O31 1.258 . S
C30 O32 1.256 . S
O31 Cd23 2.381 . S
O31 C30 1.258 . S
O32 Cd23 2.378 . S
O32 C30 1.256 . S
O33 Cd34 2.300 . S
O33 C40 1.275 . S
Cd34 O33 2.300 . S
Cd34 O42 2.381 . S
Cd34 O43 2.378 . S
O35 Cd36 2.385 . S
O35 C40 1.255 . S
Cd36 O35 2.385 . S
Cd36 O37 2.317 . S
O37 Cd36 2.317 . S
O37 C38 1.232 . S
C38 O37 1.232 . S
C38 O39 1.218 . S
O39 C38 1.218 . S
C40 O33 1.275 . S
C40 O35 1.255 . S
C41 O42 1.258 . S
C41 O43 1.256 . S
O42 Cd34 2.381 . S
O42 C41 1.258 . S
O43 Cd34 2.378 . S
O43 C41 1.256 . S
O44 Cd45 2.300 . S
O44 C51 1.275 . S
Cd45 O44 2.300 . S
Cd45 O53 2.381 . S
Cd45 O54 2.378 . S
O46 Cd47 2.385 . S
O46 C51 1.255 . S
Cd47 O46 2.385 . S
Cd47 O48 2.317 . S
O48 Cd47 2.317 . S
O48 C49 1.232 . S
C49 O48 1.232 . S
C49 O50 1.218 . S
O50 C49 1.218 . S
C51 O44 1.275 . S
C51 O46 1.255 . S
C52 O53 1.258 . S
C52 O54 1.256 . S
O53 Cd45 2.381 . S
O53 C52 1.258 . S
O54 Cd45 2.378 . S
O54 C52 1.256 . S
O55 Cd56 2.300 . S
O55 C62 1.275 . S
Cd56 O55 2.300 . S
Cd56 O64 2.381 . S
Cd56 O65 2.378 . S
O57 Cd58 2.385 . S
O57 C62 1.255 . S
Cd58 O57 2.385 . S
Cd58 O59 2.317 . S
O59 Cd58 2.317 . S
O59 C60 1.232 . S
C60 O59 1.232 . S
C60 O61 1.218 . S
O61 C60 1.218 . S
C62 O55 1.275 . S
C62 O57 1.255 . S
C63 O64 1.258 . S
C63 O65 1.256 . S
O64 Cd56 2.381 . S
O64 C63 1.258 . S
O65 Cd56 2.378 . S
O65 C63 1.256 . S
O66 Cd67 2.300 . S
O66 C73 1.275 . S
Cd67 O66 2.300 . S
Cd67 O75 2.381 . S
Cd67 O76 2.378 . S
O68 Cd69 2.385 . S
O68 C73 1.255 . S
Cd69 O68 2.385 . S
Cd69 O70 2.317 . S
O70 Cd69 2.317 . S
O70 C71 1.232 . S
C71 O70 1.232 . S
C71 O72 1.218 . S
O72 C71 1.218 . S
C73 O66 1.275 . S
C73 O68 1.255 . S
C74 O75 1.258 . S
C74 O76 1.256 . S
O75 Cd67 2.381 . S
O75 C74 1.258 . S
O76 Cd67 2.378 . S
O76 C74 1.256 . S
O77 Cd78 2.300 . S
O77 C84 1.275 . S
Cd78 O77 2.300 . S
Cd78 O86 2.381 . S
Cd78 O87 2.378 . S
O79 Cd80 2.385 . S
O79 C84 1.255 . S
Cd80 O79 2.385 . S
Cd80 O81 2.317 . S
O81 Cd80 2.317 . S
O81 C82 1.232 . S
C82 O81 1.232 . S
C82 O83 1.218 . S
O83 C82 1.218 . S
C84 O77 1.275 . S
C84 O79 1.255 . S
C85 O86 1.258 . S
C85 O87 1.256 . S
O86 Cd78 2.381 . S
O86 C85 1.258 . S
O87 Cd78 2.378 . S
O87 C85 1.256 . S
H88 C115 0.929 . S
N89 C114 1.433 1_455 S
N89 C120 1.435 . S
N89 C126 1.423 . S
H90 C116 0.930 . S
H91 C119 0.931 . S
H92 C118 0.929 . S
H93 C121 0.930 . S
H94 C122 0.932 . S
H95 C125 0.929 . S
H96 C124 0.931 . S
H97 C127 0.929 1_655 S
H98 C131 0.932 . S
H99 C128 0.931 1_655 S
H100 C130 0.929 . S
H101 C133 0.929 1_455 S
H102 C134 0.930 . S
H103 C136 0.929 . S
H104 C137 0.931 . S
H105 C139 0.930 . S
H106 C140 0.932 . S
H107 C142 0.931 . S
H108 C143 0.929 . S
H109 C145 0.929 1_655 S
H110 C146 0.931 1_655 S
H111 C148 0.929 . S
N112 C132 1.433 . S
N112 C138 1.435 . S
N112 C144 1.423 . S
H113 C149 0.932 . S
C114 N89 1.433 1_655 S
C114 C115 1.363 . S
C114 C119 1.370 . S
C115 H88 0.929 . S
C115 C114 1.363 . S
C115 C116 1.385 . S
C116 H90 0.930 . S
C116 C115 1.385 . S
C116 C117 1.357 . S
C117 C116 1.357 . S
C117 C118 1.406 . S
C118 H92 0.929 . S
C118 C117 1.406 . S
C118 C119 1.391 . S
C119 H91 0.931 . S
C119 C114 1.370 . S
C119 C118 1.391 . S
C120 N89 1.435 . S
C120 C121 1.358 . S
C120 C125 1.371 . S
C121 H93 0.930 . S
C121 C120 1.358 . S
C121 C122 1.405 . S
C122 H94 0.932 . S
C122 C121 1.405 . S
C122 C123 1.383 . S
C123 C122 1.383 . S
C123 C124 1.393 . S
C124 H96 0.931 . S
C124 C123 1.393 . S
C124 C125 1.382 . S
C125 H95 0.929 . S
C125 C120 1.371 . S
C125 C124 1.382 . S
C126 N89 1.423 . S
C126 C127 1.362 . S
C126 C131 1.388 . S
C127 H97 0.929 1_455 S
C127 C126 1.362 . S
C127 C128 1.376 . S
C128 H99 0.931 1_455 S
C128 C127 1.376 . S
C128 C129 1.396 . S
C129 C128 1.396 . S
C129 C130 1.348 . S
C129 C147 1.472 . S
C130 H100 0.929 . S
C130 C129 1.348 . S
C130 C131 1.443 . S
C131 H98 0.932 . S
C131 C126 1.388 . S
C131 C130 1.443 . S
C132 N112 1.433 . S
C132 C133 1.363 1_455 S
C132 C137 1.370 1_455 S
C133 H101 0.929 1_655 S
C133 C132 1.363 1_655 S
C133 C134 1.385 . S
C134 H102 0.930 . S
C134 C133 1.385 . S
C134 C135 1.357 . S
C135 C134 1.357 . S
C135 C136 1.406 . S
C136 H103 0.929 . S
C136 C135 1.406 . S
C136 C137 1.391 . S
C137 H104 0.931 . S
C137 C132 1.370 1_655 S
C137 C136 1.391 . S
C138 N112 1.435 . S
C138 C139 1.358 . S
C138 C143 1.371 . S
C139 H105 0.930 . S
C139 C138 1.358 . S
C139 C140 1.405 . S
C140 H106 0.932 . S
C140 C139 1.405 . S
C140 C141 1.383 . S
C141 C140 1.383 . S
C141 C142 1.393 . S
C142 H107 0.931 . S
C142 C141 1.393 . S
C142 C143 1.382 . S
C143 H108 0.929 . S
C143 C138 1.371 . S
C143 C142 1.382 . S
C144 N112 1.423 . S
C144 C145 1.362 . S
C144 C149 1.388 . S
C145 H109 0.929 1_455 S
C145 C144 1.362 . S
C145 C146 1.376 . S
C146 H110 0.931 1_455 S
C146 C145 1.376 . S
C146 C147 1.396 . S
C147 C129 1.472 . S
C147 C146 1.396 . S
C147 C148 1.348 . S
C148 H111 0.929 . S
C148 C147 1.348 . S
C148 C149 1.443 . S
C149 H113 0.932 . S
C149 C144 1.388 . S
C149 C148 1.443 . S
H150 C177 0.929 . S
N151 C176 1.433 1_455 S
N151 C182 1.435 . S
N151 C188 1.423 . S
H152 C178 0.930 . S
H153 C181 0.931 . S
H154 C180 0.929 . S
H155 C183 0.930 . S
H156 C184 0.932 . S
H157 C187 0.929 . S
H158 C186 0.931 . S
H159 C189 0.929 . S
H160 C193 0.932 . S
H161 C190 0.931 . S
H162 C192 0.929 . S
H163 C195 0.929 . S
H164 C196 0.930 . S
H165 C198 0.929 . S
H166 C199 0.931 . S
H167 C201 0.930 . S
H168 C202 0.932 . S
H169 C204 0.931 . S
H170 C205 0.929 . S
H171 C207 0.929 . S
H172 C208 0.931 . S
H173 C210 0.929 . S
N174 C194 1.433 1_455 S
N174 C200 1.435 . S
N174 C206 1.423 . S
H175 C211 0.932 . S
C176 N151 1.433 1_655 S
C176 C177 1.363 . S
C176 C181 1.370 . S
C177 H150 0.929 . S
C177 C176 1.363 . S
C177 C178 1.385 . S
C178 H152 0.930 . S
C178 C177 1.385 . S
C178 C179 1.357 . S
C179 C178 1.357 . S
C179 C180 1.406 . S
C180 H154 0.929 . S
C180 C179 1.406 . S
C180 C181 1.391 . S
C181 H153 0.931 . S
C181 C176 1.370 . S
C181 C180 1.391 . S
C182 N151 1.435 . S
C182 C183 1.358 . S
C182 C187 1.371 . S
C183 H155 0.930 . S
C183 C182 1.358 . S
C183 C184 1.405 . S
C184 H156 0.932 . S
C184 C183 1.405 . S
C184 C185 1.383 . S
C185 C184 1.383 . S
C185 C186 1.393 . S
C186 H158 0.931 . S
C186 C185 1.393 . S
C186 C187 1.382 . S
C187 H157 0.929 . S
C187 C182 1.371 . S
C187 C186 1.382 . S
C188 N151 1.423 . S
C188 C189 1.362 1_455 S
C188 C193 1.388 . S
C189 H159 0.929 . S
C189 C188 1.362 1_655 S
C189 C190 1.376 . S
C190 H161 0.931 . S
C190 C189 1.376 . S
C190 C191 1.396 1_655 S
C191 C190 1.396 1_455 S
C191 C192 1.348 . S
C191 C209 1.472 . S
C192 H162 0.929 . S
C192 C191 1.348 . S
C192 C193 1.443 . S
C193 H160 0.932 . S
C193 C188 1.388 . S
C193 C192 1.443 . S
C194 N174 1.433 1_655 S
C194 C195 1.363 . S
C194 C199 1.370 . S
C195 H163 0.929 . S
C195 C194 1.363 . S
C195 C196 1.385 . S
C196 H164 0.930 . S
C196 C195 1.385 . S
C196 C197 1.357 . S
C197 C196 1.357 . S
C197 C198 1.406 . S
C198 H165 0.929 . S
C198 C197 1.406 . S
C198 C199 1.391 . S
C199 H166 0.931 . S
C199 C194 1.370 . S
C199 C198 1.391 . S
C200 N174 1.435 . S
C200 C201 1.358 . S
C200 C205 1.371 . S
C201 H167 0.930 . S
C201 C200 1.358 . S
C201 C202 1.405 . S
C202 H168 0.932 . S
C202 C201 1.405 . S
C202 C203 1.383 . S
C203 C202 1.383 . S
C203 C204 1.393 . S
C204 H169 0.931 . S
C204 C203 1.393 . S
C204 C205 1.382 . S
C205 H170 0.929 . S
C205 C200 1.371 . S
C205 C204 1.382 . S
C206 N174 1.423 . S
C206 C207 1.362 1_455 S
C206 C211 1.388 . S
C207 H171 0.929 . S
C207 C206 1.362 1_655 S
C207 C208 1.376 . S
C208 H172 0.931 . S
C208 C207 1.376 . S
C208 C209 1.396 1_655 S
C209 C191 1.472 . S
C209 C208 1.396 1_455 S
C209 C210 1.348 . S
C210 H173 0.929 . S
C210 C209 1.348 . S
C210 C211 1.443 . S
C211 H175 0.932 . S
C211 C206 1.388 . S
C211 C210 1.443 . S
H212 C239 0.929 . S
N213 C238 1.433 . S
N213 C244 1.435 . S
N213 C250 1.423 . S
H214 C240 0.930 . S
H215 C243 0.931 . S
H216 C242 0.929 . S
H217 C245 0.930 . S
H218 C246 0.932 . S
H219 C249 0.929 . S
H220 C248 0.931 . S
H221 C251 0.929 . S
H222 C255 0.932 . S
H223 C252 0.931 . S
H224 C254 0.929 . S
H225 C257 0.929 . S
H226 C258 0.930 . S
H227 C260 0.929 . S
H228 C261 0.931 . S
H229 C263 0.930 . S
H230 C264 0.932 . S
H231 C266 0.931 . S
H232 C267 0.929 . S
H233 C269 0.929 . S
H234 C270 0.931 . S
H235 C272 0.929 . S
N236 C256 1.433 1_545 S
N236 C262 1.435 1_545 S
N236 C268 1.423 . S
H237 C273 0.932 . S
C238 N213 1.433 . S
C238 C239 1.363 . S
C238 C243 1.370 . S
C239 H212 0.929 . S
C239 C238 1.363 . S
C239 C240 1.385 . S
C240 H214 0.930 . S
C240 C239 1.385 . S
C240 C241 1.357 . S
C241 C240 1.357 . S
C241 C242 1.406 . S
C242 H216 0.929 . S
C242 C241 1.406 . S
C242 C243 1.391 . S
C243 H215 0.931 . S
C243 C238 1.370 . S
C243 C242 1.391 . S
C244 N213 1.435 . S
C244 C245 1.358 . S
C244 C249 1.371 . S
C245 H217 0.930 . S
C245 C244 1.358 . S
C245 C246 1.405 . S
C246 H218 0.932 . S
C246 C245 1.405 . S
C246 C247 1.383 . S
C247 C246 1.383 . S
C247 C248 1.393 . S
C248 H220 0.931 . S
C248 C247 1.393 . S
C248 C249 1.382 . S
C249 H219 0.929 . S
C249 C244 1.371 . S
C249 C248 1.382 . S
C250 N213 1.423 . S
C250 C251 1.362 . S
C250 C255 1.388 . S
C251 H221 0.929 . S
C251 C250 1.362 . S
C251 C252 1.376 . S
C252 H223 0.931 . S
C252 C251 1.376 . S
C252 C253 1.396 . S
C253 C252 1.396 . S
C253 C254 1.348 . S
C253 C271 1.472 . S
C254 H224 0.929 . S
C254 C253 1.348 . S
C254 C255 1.443 . S
C255 H222 0.932 . S
C255 C250 1.388 . S
C255 C254 1.443 . S
C256 N236 1.433 1_565 S
C256 C257 1.363 . S
C256 C261 1.370 1_565 S
C257 H225 0.929 . S
C257 C256 1.363 . S
C257 C258 1.385 . S
C258 H226 0.930 . S
C258 C257 1.385 . S
C258 C259 1.357 . S
C259 C258 1.357 . S
C259 C260 1.406 1_565 S
C260 H227 0.929 . S
C260 C259 1.406 1_545 S
C260 C261 1.391 . S
C261 H228 0.931 . S
C261 C256 1.370 1_545 S
C261 C260 1.391 . S
C262 N236 1.435 1_565 S
C262 C263 1.358 . S
C262 C267 1.371 . S
C263 H229 0.930 . S
C263 C262 1.358 . S
C263 C264 1.405 . S
C264 H230 0.932 . S
C264 C263 1.405 . S
C264 C265 1.383 . S
C265 C264 1.383 . S
C265 C266 1.393 . S
C266 H231 0.931 . S
C266 C265 1.393 . S
C266 C267 1.382 . S
C267 H232 0.929 . S
C267 C262 1.371 . S
C267 C266 1.382 . S
C268 N236 1.423 . S
C268 C269 1.362 . S
C268 C273 1.388 . S
C269 H233 0.929 . S
C269 C268 1.362 . S
C269 C270 1.376 . S
C270 H234 0.931 . S
C270 C269 1.376 . S
C270 C271 1.396 . S
C271 C253 1.472 . S
C271 C270 1.396 . S
C271 C272 1.348 . S
C272 H235 0.929 . S
C272 C271 1.348 . S
C272 C273 1.443 . S
C273 H237 0.932 . S
C273 C268 1.388 . S
C273 C272 1.443 . S
H274 C301 0.929 . S
N275 C300 1.433 . S
N275 C306 1.435 . S
N275 C312 1.423 . S
H276 C302 0.930 . S
H277 C305 0.931 . S
H278 C304 0.929 . S
H279 C307 0.930 . S
H280 C308 0.932 . S
H281 C311 0.929 . S
H282 C310 0.931 . S
H283 C313 0.929 . S
H284 C317 0.932 . S
H285 C314 0.931 . S
H286 C316 0.929 . S
H287 C319 0.929 . S
H288 C320 0.930 . S
H289 C322 0.929 . S
H290 C323 0.931 . S
H291 C325 0.930 . S
H292 C326 0.932 . S
H293 C328 0.931 . S
H294 C329 0.929 . S
H295 C331 0.929 . S
H296 C332 0.931 . S
H297 C334 0.929 . S
N298 C318 1.433 . S
N298 C324 1.435 . S
N298 C330 1.423 . S
H299 C335 0.932 . S
C300 N275 1.433 . S
C300 C301 1.363 . S
C300 C305 1.370 . S
C301 H274 0.929 . S
C301 C300 1.363 . S
C301 C302 1.385 . S
C302 H276 0.930 . S
C302 C301 1.385 . S
C302 C303 1.357 . S
C303 C302 1.357 . S
C303 C304 1.406 . S
C304 H278 0.929 . S
C304 C303 1.406 . S
C304 C305 1.391 . S
C305 H277 0.931 . S
C305 C300 1.370 . S
C305 C304 1.391 . S
C306 N275 1.435 . S
C306 C307 1.358 . S
C306 C311 1.371 . S
C307 H279 0.930 . S
C307 C306 1.358 . S
C307 C308 1.405 . S
C308 H280 0.932 . S
C308 C307 1.405 . S
C308 C309 1.383 . S
C309 C308 1.383 . S
C309 C310 1.393 . S
C310 H282 0.931 . S
C310 C309 1.393 . S
C310 C311 1.382 . S
C311 H281 0.929 . S
C311 C306 1.371 . S
C311 C310 1.382 . S
C312 N275 1.423 . S
C312 C313 1.362 . S
C312 C317 1.388 . S
C313 H283 0.929 . S
C313 C312 1.362 . S
C313 C314 1.376 . S
C314 H285 0.931 . S
C314 C313 1.376 . S
C314 C315 1.396 . S
C315 C314 1.396 . S
C315 C316 1.348 . S
C315 C333 1.472 1_554 S
C316 H286 0.929 . S
C316 C315 1.348 . S
C316 C317 1.443 . S
C317 H284 0.932 . S
C317 C312 1.388 . S
C317 C316 1.443 . S
C318 N298 1.433 . S
C318 C319 1.363 . S
C318 C323 1.370 . S
C319 H287 0.929 . S
C319 C318 1.363 . S
C319 C320 1.385 . S
C320 H288 0.930 . S
C320 C319 1.385 . S
C320 C321 1.357 . S
C321 C320 1.357 . S
C321 C322 1.406 . S
C322 H289 0.929 . S
C322 C321 1.406 . S
C322 C323 1.391 . S
C323 H290 0.931 . S
C323 C318 1.370 . S
C323 C322 1.391 . S
C324 N298 1.435 . S
C324 C325 1.358 . S
C324 C329 1.371 . S
C325 H291 0.930 . S
C325 C324 1.358 . S
C325 C326 1.405 . S
C326 H292 0.932 . S
C326 C325 1.405 . S
C326 C327 1.383 . S
C327 C326 1.383 . S
C327 C328 1.393 . S
C328 H293 0.931 . S
C328 C327 1.393 . S
C328 C329 1.382 . S
C329 H294 0.929 . S
C329 C324 1.371 . S
C329 C328 1.382 . S
C330 N298 1.423 . S
C330 C331 1.362 . S
C330 C335 1.388 . S
C331 H295 0.929 . S
C331 C330 1.362 . S
C331 C332 1.376 . S
C332 H296 0.931 . S
C332 C331 1.376 . S
C332 C333 1.396 . S
C333 C315 1.472 1_556 S
C333 C332 1.396 . S
C333 C334 1.348 . S
C334 H297 0.929 . S
C334 C333 1.348 . S
C334 C335 1.443 . S
C335 H299 0.932 . S
C335 C330 1.388 . S
C335 C334 1.443 . S
H336 C363 0.929 . S
N337 C362 1.433 . S
N337 C368 1.435 . S
N337 C374 1.423 . S
H338 C364 0.930 . S
H339 C367 0.931 . S
H340 C366 0.929 . S
H341 C369 0.930 . S
H342 C370 0.932 . S
H343 C373 0.929 . S
H344 C372 0.931 . S
H345 C375 0.929 . S
H346 C379 0.932 . S
H347 C376 0.931 . S
H348 C378 0.929 . S
H349 C381 0.929 . S
H350 C382 0.930 . S
H351 C384 0.929 . S
H352 C385 0.931 . S
H353 C387 0.930 . S
H354 C388 0.932 . S
H355 C390 0.931 . S
H356 C391 0.929 . S
H357 C393 0.929 . S
H358 C394 0.931 . S
H359 C396 0.929 1_545 S
N360 C380 1.433 . S
N360 C386 1.435 . S
N360 C392 1.423 . S
H361 C397 0.932 . S
C362 N337 1.433 . S
C362 C363 1.363 . S
C362 C367 1.370 . S
C363 H336 0.929 . S
C363 C362 1.363 . S
C363 C364 1.385 . S
C364 H338 0.930 . S
C364 C363 1.385 . S
C364 C365 1.357 . S
C365 C364 1.357 . S
C365 C366 1.406 . S
C366 H340 0.929 . S
C366 C365 1.406 . S
C366 C367 1.391 . S
C367 H339 0.931 . S
C367 C362 1.370 . S
C367 C366 1.391 . S
C368 N337 1.435 . S
C368 C369 1.358 . S
C368 C373 1.371 . S
C369 H341 0.930 . S
C369 C368 1.358 . S
C369 C370 1.405 . S
C370 H342 0.932 . S
C370 C369 1.405 . S
C370 C371 1.383 . S
C371 C370 1.383 . S
C371 C372 1.393 . S
C372 H344 0.931 . S
C372 C371 1.393 . S
C372 C373 1.382 . S
C373 H343 0.929 . S
C373 C368 1.371 . S
C373 C372 1.382 . S
C374 N337 1.423 . S
C374 C375 1.362 . S
C374 C379 1.388 . S
C375 H345 0.929 . S
C375 C374 1.362 . S
C375 C376 1.376 . S
C376 H347 0.931 . S
C376 C375 1.376 . S
C376 C377 1.396 . S
C377 C376 1.396 . S
C377 C378 1.348 . S
C377 C395 1.495 . S
C378 H348 0.929 . S
C378 C377 1.348 . S
C378 C379 1.443 . S
C379 H346 0.932 . S
C379 C374 1.388 . S
C379 C378 1.443 . S
C380 N360 1.433 . S
C380 C381 1.363 . S
C380 C385 1.370 . S
C381 H349 0.929 . S
C381 C380 1.363 . S
C381 C382 1.385 . S
C382 H350 0.930 . S
C382 C381 1.385 . S
C382 C383 1.357 . S
C383 C382 1.357 . S
C383 C384 1.406 . S
C384 H351 0.929 . S
C384 C383 1.406 . S
C384 C385 1.391 . S
C385 H352 0.931 . S
C385 C380 1.370 . S
C385 C384 1.391 . S
C386 N360 1.435 . S
C386 C387 1.358 . S
C386 C391 1.371 . S
C387 H353 0.930 . S
C387 C386 1.358 . S
C387 C388 1.405 . S
C388 H354 0.932 . S
C388 C387 1.405 . S
C388 C389 1.383 . S
C389 C388 1.383 . S
C389 C390 1.393 . S
C390 H355 0.931 . S
C390 C389 1.393 . S
C390 C391 1.382 . S
C391 H356 0.929 . S
C391 C386 1.371 . S
C391 C390 1.382 . S
C392 N360 1.423 . S
C392 C393 1.362 . S
C392 C397 1.388 . S
C393 H357 0.929 . S
C393 C392 1.362 . S
C393 C394 1.376 . S
C394 H358 0.931 . S
C394 C393 1.376 . S
C394 C395 1.384 1_565 S
C395 C377 1.495 . S
C395 C394 1.384 1_545 S
C395 C396 1.336 1_545 S
C396 H359 0.929 1_565 S
C396 C395 1.336 1_565 S
C396 C397 1.443 . S
C397 H361 0.932 . S
C397 C392 1.388 . S
C397 C396 1.443 . S
H398 C425 0.929 . S
N399 C424 1.433 . S
N399 C430 1.435 . S
N399 C436 1.423 . S
H400 C426 0.930 . S
H401 C429 0.931 . S
H402 C428 0.929 . S
H403 C431 0.930 . S
H404 C432 0.932 . S
H405 C435 0.929 . S
H406 C434 0.931 . S
H407 C437 0.929 . S
H408 C441 0.932 . S
H409 C438 0.931 . S
H410 C440 0.929 . S
H411 C443 0.929 . S
H412 C444 0.930 . S
H413 C446 0.929 . S
H414 C447 0.931 . S
H415 C449 0.930 . S
H416 C450 0.932 . S
H417 C452 0.931 . S
H418 C453 0.929 . S
H419 C455 0.929 . S
H420 C456 0.931 . S
H421 C458 0.929 . S
N422 C442 1.433 . S
N422 C448 1.435 . S
N422 C454 1.423 . S
H423 C459 0.932 . S
C424 N399 1.433 . S
C424 C425 1.363 . S
C424 C429 1.370 . S
C425 H398 0.929 . S
C425 C424 1.363 . S
C425 C426 1.385 . S
C426 H400 0.930 . S
C426 C425 1.385 . S
C426 C427 1.357 . S
C427 C426 1.357 . S
C427 C428 1.406 . S
C428 H402 0.929 . S
C428 C427 1.406 . S
C428 C429 1.391 . S
C429 H401 0.931 . S
C429 C424 1.370 . S
C429 C428 1.391 . S
C430 N399 1.435 . S
C430 C431 1.358 . S
C430 C435 1.371 . S
C431 H403 0.930 . S
C431 C430 1.358 . S
C431 C432 1.405 . S
C432 H404 0.932 . S
C432 C431 1.405 . S
C432 C433 1.383 . S
C433 C432 1.383 . S
C433 C434 1.393 . S
C434 H406 0.931 . S
C434 C433 1.393 . S
C434 C435 1.382 . S
C435 H405 0.929 . S
C435 C430 1.371 . S
C435 C434 1.382 . S
C436 N399 1.423 . S
C436 C437 1.362 . S
C436 C441 1.388 . S
C437 H407 0.929 . S
C437 C436 1.362 . S
C437 C438 1.376 . S
C438 H409 0.931 . S
C438 C437 1.376 . S
C438 C439 1.396 . S
C439 C438 1.396 . S
C439 C440 1.348 . S
C439 C457 1.472 1_554 S
C440 H410 0.929 . S
C440 C439 1.348 . S
C440 C441 1.443 . S
C441 H408 0.932 . S
C441 C436 1.388 . S
C441 C440 1.443 . S
C442 N422 1.433 . S
C442 C443 1.363 . S
C442 C447 1.370 . S
C443 H411 0.929 . S
C443 C442 1.363 . S
C443 C444 1.385 . S
C444 H412 0.930 . S
C444 C443 1.385 . S
C444 C445 1.357 . S
C445 C444 1.357 . S
C445 C446 1.406 . S
C446 H413 0.929 . S
C446 C445 1.406 . S
C446 C447 1.391 . S
C447 H414 0.931 . S
C447 C442 1.370 . S
C447 C446 1.391 . S
C448 N422 1.435 . S
C448 C449 1.358 . S
C448 C453 1.371 . S
C449 H415 0.930 . S
C449 C448 1.358 . S
C449 C450 1.405 . S
C450 H416 0.932 . S
C450 C449 1.405 . S
C450 C451 1.383 . S
C451 C450 1.383 . S
C451 C452 1.393 . S
C452 H417 0.931 . S
C452 C451 1.393 . S
C452 C453 1.382 . S
C453 H418 0.929 . S
C453 C448 1.371 . S
C453 C452 1.382 . S
C454 N422 1.423 . S
C454 C455 1.362 . S
C454 C459 1.388 . S
C455 H419 0.929 . S
C455 C454 1.362 . S
C455 C456 1.376 . S
C456 H420 0.931 . S
C456 C455 1.376 . S
C456 C457 1.396 . S
C457 C439 1.472 1_556 S
C457 C456 1.396 . S
C457 C458 1.348 . S
C458 H421 0.929 . S
C458 C457 1.348 . S
C458 C459 1.443 . S
C459 H423 0.932 . S
C459 C454 1.388 . S
C459 C458 1.443 . S
C123 C5 2.672 . S
C203 C16 2.406 . S
C135 C30 1.704 . S
C179 C40 2.436 . S
C247 C8 1.799 . S
C327 C18 1.398 . S
C29 C389 2.341 . S
C445 C38 1.464 . S
C259 C19 1.992 . S
C27 C303 1.599 . S
C365 C41 2.119 . S
C433 C7 1.421 . S
C52 C197 2.043 . S
C117 C62 1.545 . S
C74 C185 2.236 . S
C82 C141 1.605 . S
C383 C51 2.326 . S
C427 C60 1.526 . S
C241 C71 1.619 . S
C84 C309 1.258 . S
C371 C63 1.983 . S
C451 C73 1.675 . S
C265 C85 2.149 . S
C49 C321 1.255 . S
