# Generated by pormake.
# Topology tbo, (3,4)-cn, num edge types: 1
# Building blocks:
#     Node 0, Type 0, BuildingBlock: WUSLED_clean_sbu_0, # of connection points: 3
#     Node 1, Type 0, BuildingBlock: WUSLED_clean_sbu_0, # of connection points: 3
#     Node 2, Type 0, BuildingBlock: WUSLED_clean_sbu_0, # of connection points: 3
#     Node 3, Type 0, BuildingBlock: WUSLED_clean_sbu_0, # of connection points: 3
#     Node 4, Type 0, BuildingBlock: WUSLED_clean_sbu_0, # of connection points: 3
#     Node 5, Type 0, BuildingBlock: WUSLED_clean_sbu_0, # of connection points: 3
#     Node 6, Type 0, BuildingBlock: WUSLED_clean_sbu_0, # of connection points: 3
#     Node 7, Type 0, BuildingBlock: WUSLED_clean_sbu_0, # of connection points: 3
#     Node 8, Type 0, BuildingBlock: WUSLED_clean_sbu_0, # of connection points: 3
#     Node 9, Type 0, BuildingBlock: WUSLED_clean_sbu_0, # of connection points: 3
#     Node 10, Type 0, BuildingBlock: WUSLED_clean_sbu_0, # of connection points: 3
#     Node 11, Type 0, BuildingBlock: WUSLED_clean_sbu_0, # of connection points: 3
#     Node 12, Type 0, BuildingBlock: WUSLED_clean_sbu_0, # of connection points: 3
#     Node 13, Type 0, BuildingBlock: WUSLED_clean_sbu_0, # of connection points: 3
#     Node 14, Type 0, BuildingBlock: WUSLED_clean_sbu_0, # of connection points: 3
#     Node 15, Type 0, BuildingBlock: WUSLED_clean_sbu_0, # of connection points: 3
#     Node 16, Type 0, BuildingBlock: WUSLED_clean_sbu_0, # of connection points: 3
#     Node 17, Type 0, BuildingBlock: WUSLED_clean_sbu_0, # of connection points: 3
#     Node 18, Type 0, BuildingBlock: WUSLED_clean_sbu_0, # of connection points: 3
#     Node 19, Type 0, BuildingBlock: WUSLED_clean_sbu_0, # of connection points: 3
#     Node 20, Type 0, BuildingBlock: WUSLED_clean_sbu_0, # of connection points: 3
#     Node 21, Type 0, BuildingBlock: WUSLED_clean_sbu_0, # of connection points: 3
#     Node 22, Type 0, BuildingBlock: WUSLED_clean_sbu_0, # of connection points: 3
#     Node 23, Type 0, BuildingBlock: WUSLED_clean_sbu_0, # of connection points: 3
#     Node 24, Type 0, BuildingBlock: WUSLED_clean_sbu_0, # of connection points: 3
#     Node 25, Type 0, BuildingBlock: WUSLED_clean_sbu_0, # of connection points: 3
#     Node 26, Type 0, BuildingBlock: WUSLED_clean_sbu_0, # of connection points: 3
#     Node 27, Type 0, BuildingBlock: WUSLED_clean_sbu_0, # of connection points: 3
#     Node 28, Type 0, BuildingBlock: WUSLED_clean_sbu_0, # of connection points: 3
#     Node 29, Type 0, BuildingBlock: WUSLED_clean_sbu_0, # of connection points: 3
#     Node 30, Type 0, BuildingBlock: WUSLED_clean_sbu_0, # of connection points: 3
#     Node 31, Type 0, BuildingBlock: WUSLED_clean_sbu_0, # of connection points: 3
#     Node 32, Type 1, BuildingBlock: KUFVIS_clean_linker_0, # of connection points: 4
#     Node 33, Type 1, BuildingBlock: KUFVIS_clean_linker_0, # of connection points: 4
#     Node 34, Type 1, BuildingBlock: KUFVIS_clean_linker_0, # of connection points: 4
#     Node 35, Type 1, BuildingBlock: KUFVIS_clean_linker_0, # of connection points: 4
#     Node 36, Type 1, BuildingBlock: KUFVIS_clean_linker_0, # of connection points: 4
#     Node 37, Type 1, BuildingBlock: KUFVIS_clean_linker_0, # of connection points: 4
#     Node 38, Type 1, BuildingBlock: KUFVIS_clean_linker_0, # of connection points: 4
#     Node 39, Type 1, BuildingBlock: KUFVIS_clean_linker_0, # of connection points: 4
#     Node 40, Type 1, BuildingBlock: KUFVIS_clean_linker_0, # of connection points: 4
#     Node 41, Type 1, BuildingBlock: KUFVIS_clean_linker_0, # of connection points: 4
#     Node 42, Type 1, BuildingBlock: KUFVIS_clean_linker_0, # of connection points: 4
#     Node 43, Type 1, BuildingBlock: KUFVIS_clean_linker_0, # of connection points: 4
#     Node 44, Type 1, BuildingBlock: KUFVIS_clean_linker_0, # of connection points: 4
#     Node 45, Type 1, BuildingBlock: KUFVIS_clean_linker_0, # of connection points: 4
#     Node 46, Type 1, BuildingBlock: KUFVIS_clean_linker_0, # of connection points: 4
#     Node 47, Type 1, BuildingBlock: KUFVIS_clean_linker_0, # of connection points: 4
#     Node 48, Type 1, BuildingBlock: KUFVIS_clean_linker_0, # of connection points: 4
#     Node 49, Type 1, BuildingBlock: KUFVIS_clean_linker_0, # of connection points: 4
#     Node 50, Type 1, BuildingBlock: KUFVIS_clean_linker_0, # of connection points: 4
#     Node 51, Type 1, BuildingBlock: KUFVIS_clean_linker_0, # of connection points: 4
#     Node 52, Type 1, BuildingBlock: KUFVIS_clean_linker_0, # of connection points: 4
#     Node 53, Type 1, BuildingBlock: KUFVIS_clean_linker_0, # of connection points: 4
#     Node 54, Type 1, BuildingBlock: KUFVIS_clean_linker_0, # of connection points: 4
#     Node 55, Type 1, BuildingBlock: KUFVIS_clean_linker_0, # of connection points: 4
#     Edge 56, Type (0, 1), BuildingBlock: CIFDUS_clean_linker_0, # of connection points: 2
#     Edge 57, Type (0, 1), BuildingBlock: CIFDUS_clean_linker_0, # of connection points: 2
#     Edge 58, Type (0, 1), BuildingBlock: CIFDUS_clean_linker_0, # of connection points: 2
#     Edge 59, Type (0, 1), BuildingBlock: CIFDUS_clean_linker_0, # of connection points: 2
#     Edge 60, Type (0, 1), BuildingBlock: CIFDUS_clean_linker_0, # of connection points: 2
#     Edge 61, Type (0, 1), BuildingBlock: CIFDUS_clean_linker_0, # of connection points: 2
#     Edge 62, Type (0, 1), BuildingBlock: CIFDUS_clean_linker_0, # of connection points: 2
#     Edge 63, Type (0, 1), BuildingBlock: CIFDUS_clean_linker_0, # of connection points: 2
#     Edge 64, Type (0, 1), BuildingBlock: CIFDUS_clean_linker_0, # of connection points: 2
#     Edge 65, Type (0, 1), BuildingBlock: CIFDUS_clean_linker_0, # of connection points: 2
#     Edge 66, Type (0, 1), BuildingBlock: CIFDUS_clean_linker_0, # of connection points: 2
#     Edge 67, Type (0, 1), BuildingBlock: CIFDUS_clean_linker_0, # of connection points: 2
#     Edge 68, Type (0, 1), BuildingBlock: CIFDUS_clean_linker_0, # of connection points: 2
#     Edge 69, Type (0, 1), BuildingBlock: CIFDUS_clean_linker_0, # of connection points: 2
#     Edge 70, Type (0, 1), BuildingBlock: CIFDUS_clean_linker_0, # of connection points: 2
#     Edge 71, Type (0, 1), BuildingBlock: CIFDUS_clean_linker_0, # of connection points: 2
#     Edge 72, Type (0, 1), BuildingBlock: CIFDUS_clean_linker_0, # of connection points: 2
#     Edge 73, Type (0, 1), BuildingBlock: CIFDUS_clean_linker_0, # of connection points: 2
#     Edge 74, Type (0, 1), BuildingBlock: CIFDUS_clean_linker_0, # of connection points: 2
#     Edge 75, Type (0, 1), BuildingBlock: CIFDUS_clean_linker_0, # of connection points: 2
#     Edge 76, Type (0, 1), BuildingBlock: CIFDUS_clean_linker_0, # of connection points: 2
#     Edge 77, Type (0, 1), BuildingBlock: CIFDUS_clean_linker_0, # of connection points: 2
#     Edge 78, Type (0, 1), BuildingBlock: CIFDUS_clean_linker_0, # of connection points: 2
#     Edge 79, Type (0, 1), BuildingBlock: CIFDUS_clean_linker_0, # of connection points: 2
#     Edge 80, Type (0, 1), BuildingBlock: CIFDUS_clean_linker_0, # of connection points: 2
#     Edge 81, Type (0, 1), BuildingBlock: CIFDUS_clean_linker_0, # of connection points: 2
#     Edge 82, Type (0, 1), BuildingBlock: CIFDUS_clean_linker_0, # of connection points: 2
#     Edge 83, Type (0, 1), BuildingBlock: CIFDUS_clean_linker_0, # of connection points: 2
#     Edge 84, Type (0, 1), BuildingBlock: CIFDUS_clean_linker_0, # of connection points: 2
#     Edge 85, Type (0, 1), BuildingBlock: CIFDUS_clean_linker_0, # of connection points: 2
#     Edge 86, Type (0, 1), BuildingBlock: CIFDUS_clean_linker_0, # of connection points: 2
#     Edge 87, Type (0, 1), BuildingBlock: CIFDUS_clean_linker_0, # of connection points: 2
#     Edge 88, Type (0, 1), BuildingBlock: CIFDUS_clean_linker_0, # of connection points: 2
#     Edge 89, Type (0, 1), BuildingBlock: CIFDUS_clean_linker_0, # of connection points: 2
#     Edge 90, Type (0, 1), BuildingBlock: CIFDUS_clean_linker_0, # of connection points: 2
#     Edge 91, Type (0, 1), BuildingBlock: CIFDUS_clean_linker_0, # of connection points: 2
#     Edge 92, Type (0, 1), BuildingBlock: CIFDUS_clean_linker_0, # of connection points: 2
#     Edge 93, Type (0, 1), BuildingBlock: CIFDUS_clean_linker_0, # of connection points: 2
#     Edge 94, Type (0, 1), BuildingBlock: CIFDUS_clean_linker_0, # of connection points: 2
#     Edge 95, Type (0, 1), BuildingBlock: CIFDUS_clean_linker_0, # of connection points: 2
#     Edge 96, Type (0, 1), BuildingBlock: CIFDUS_clean_linker_0, # of connection points: 2
#     Edge 97, Type (0, 1), BuildingBlock: CIFDUS_clean_linker_0, # of connection points: 2
#     Edge 98, Type (0, 1), BuildingBlock: CIFDUS_clean_linker_0, # of connection points: 2
#     Edge 99, Type (0, 1), BuildingBlock: CIFDUS_clean_linker_0, # of connection points: 2
#     Edge 100, Type (0, 1), BuildingBlock: CIFDUS_clean_linker_0, # of connection points: 2
#     Edge 101, Type (0, 1), BuildingBlock: CIFDUS_clean_linker_0, # of connection points: 2
#     Edge 102, Type (0, 1), BuildingBlock: CIFDUS_clean_linker_0, # of connection points: 2
#     Edge 103, Type (0, 1), BuildingBlock: CIFDUS_clean_linker_0, # of connection points: 2
#     Edge 104, Type (0, 1), BuildingBlock: CIFDUS_clean_linker_0, # of connection points: 2
#     Edge 105, Type (0, 1), BuildingBlock: CIFDUS_clean_linker_0, # of connection points: 2
#     Edge 106, Type (0, 1), BuildingBlock: CIFDUS_clean_linker_0, # of connection points: 2
#     Edge 107, Type (0, 1), BuildingBlock: CIFDUS_clean_linker_0, # of connection points: 2
#     Edge 108, Type (0, 1), BuildingBlock: CIFDUS_clean_linker_0, # of connection points: 2
#     Edge 109, Type (0, 1), BuildingBlock: CIFDUS_clean_linker_0, # of connection points: 2
#     Edge 110, Type (0, 1), BuildingBlock: CIFDUS_clean_linker_0, # of connection points: 2
#     Edge 111, Type (0, 1), BuildingBlock: CIFDUS_clean_linker_0, # of connection points: 2
#     Edge 112, Type (0, 1), BuildingBlock: CIFDUS_clean_linker_0, # of connection points: 2
#     Edge 113, Type (0, 1), BuildingBlock: CIFDUS_clean_linker_0, # of connection points: 2
#     Edge 114, Type (0, 1), BuildingBlock: CIFDUS_clean_linker_0, # of connection points: 2
#     Edge 115, Type (0, 1), BuildingBlock: CIFDUS_clean_linker_0, # of connection points: 2
#     Edge 116, Type (0, 1), BuildingBlock: CIFDUS_clean_linker_0, # of connection points: 2
#     Edge 117, Type (0, 1), BuildingBlock: CIFDUS_clean_linker_0, # of connection points: 2
#     Edge 118, Type (0, 1), BuildingBlock: CIFDUS_clean_linker_0, # of connection points: 2
#     Edge 119, Type (0, 1), BuildingBlock: CIFDUS_clean_linker_0, # of connection points: 2
#     Edge 120, Type (0, 1), BuildingBlock: CIFDUS_clean_linker_0, # of connection points: 2
#     Edge 121, Type (0, 1), BuildingBlock: CIFDUS_clean_linker_0, # of connection points: 2
#     Edge 122, Type (0, 1), BuildingBlock: CIFDUS_clean_linker_0, # of connection points: 2
#     Edge 123, Type (0, 1), BuildingBlock: CIFDUS_clean_linker_0, # of connection points: 2
#     Edge 124, Type (0, 1), BuildingBlock: CIFDUS_clean_linker_0, # of connection points: 2
#     Edge 125, Type (0, 1), BuildingBlock: CIFDUS_clean_linker_0, # of connection points: 2
#     Edge 126, Type (0, 1), BuildingBlock: CIFDUS_clean_linker_0, # of connection points: 2
#     Edge 127, Type (0, 1), BuildingBlock: CIFDUS_clean_linker_0, # of connection points: 2
#     Edge 128, Type (0, 1), BuildingBlock: CIFDUS_clean_linker_0, # of connection points: 2
#     Edge 129, Type (0, 1), BuildingBlock: CIFDUS_clean_linker_0, # of connection points: 2
#     Edge 130, Type (0, 1), BuildingBlock: CIFDUS_clean_linker_0, # of connection points: 2
#     Edge 131, Type (0, 1), BuildingBlock: CIFDUS_clean_linker_0, # of connection points: 2
#     Edge 132, Type (0, 1), BuildingBlock: CIFDUS_clean_linker_0, # of connection points: 2
#     Edge 133, Type (0, 1), BuildingBlock: CIFDUS_clean_linker_0, # of connection points: 2
#     Edge 134, Type (0, 1), BuildingBlock: CIFDUS_clean_linker_0, # of connection points: 2
#     Edge 135, Type (0, 1), BuildingBlock: CIFDUS_clean_linker_0, # of connection points: 2
#     Edge 136, Type (0, 1), BuildingBlock: CIFDUS_clean_linker_0, # of connection points: 2
#     Edge 137, Type (0, 1), BuildingBlock: CIFDUS_clean_linker_0, # of connection points: 2
#     Edge 138, Type (0, 1), BuildingBlock: CIFDUS_clean_linker_0, # of connection points: 2
#     Edge 139, Type (0, 1), BuildingBlock: CIFDUS_clean_linker_0, # of connection points: 2
#     Edge 140, Type (0, 1), BuildingBlock: CIFDUS_clean_linker_0, # of connection points: 2
#     Edge 141, Type (0, 1), BuildingBlock: CIFDUS_clean_linker_0, # of connection points: 2
#     Edge 142, Type (0, 1), BuildingBlock: CIFDUS_clean_linker_0, # of connection points: 2
#     Edge 143, Type (0, 1), BuildingBlock: CIFDUS_clean_linker_0, # of connection points: 2
#     Edge 144, Type (0, 1), BuildingBlock: CIFDUS_clean_linker_0, # of connection points: 2
#     Edge 145, Type (0, 1), BuildingBlock: CIFDUS_clean_linker_0, # of connection points: 2
#     Edge 146, Type (0, 1), BuildingBlock: CIFDUS_clean_linker_0, # of connection points: 2
#     Edge 147, Type (0, 1), BuildingBlock: CIFDUS_clean_linker_0, # of connection points: 2
#     Edge 148, Type (0, 1), BuildingBlock: CIFDUS_clean_linker_0, # of connection points: 2
#     Edge 149, Type (0, 1), BuildingBlock: CIFDUS_clean_linker_0, # of connection points: 2
#     Edge 150, Type (0, 1), BuildingBlock: CIFDUS_clean_linker_0, # of connection points: 2
#     Edge 151, Type (0, 1), BuildingBlock: CIFDUS_clean_linker_0, # of connection points: 2
# Relax obj value: 0.000
# Max RMSD: 0.055
# Mean RMSD: 0.026
data_MOF--net-tbo--node1-WUSLED_clean_sbu_0--node2-KUFVIS_clean_linker_0--edge1-CIFDUS_clean_linker_0
_symmetry_space_group_name_H-M    P1
_symmetry_Int_Tables_number       1
_symmetry_cell_setting            triclinic
loop_
_symmetry_equiv_pos_as_xyz
'x, y, z'
_cell_length_a     85.021833
_cell_length_b     85.342803
_cell_length_c     85.21855
_cell_angle_alpha  89.632348
_cell_angle_beta   90.360486
_cell_angle_gamma 90.758051
loop_
_atom_site_label
_atom_site_type_symbol
_atom_site_fract_x
_atom_site_fract_y
_atom_site_fract_z
_atom_type_partial_charge
C0 C 0.19072 0.14453 0.20901 0.0
C1 C 0.1879 0.12881 0.2047 0.0
C2 C 0.20766 0.1199 0.22351 0.0
C3 C 0.19638 0.11662 0.21181 0.0
C4 C 0.21086 0.13562 0.22734 0.0
C5 C 0.20249 0.14774 0.22024 0.0
U6 U 0.17859 0.17819 0.18054 0.0
O7 O 0.1548 0.18655 0.17434 0.0
O8 O 0.17165 0.20208 0.18639 0.0
C9 C 0.15713 0.2001 0.18132 0.0
C10 C 0.1804 0.15737 0.20337 0.0
C11 C 0.14445 0.20586 0.19165 0.0
C12 C 0.1171 0.21359 0.19476 0.0
C13 C 0.12882 0.20612 0.18615 0.0
C14 C 0.13633 0.22031 0.21473 0.0
C15 C 0.12084 0.22113 0.20893 0.0
C16 C 0.14799 0.21275 0.20623 0.0
C17 C 0.20334 0.18909 0.14445 0.0
C18 C 0.21034 0.21485 0.134 0.0
C19 C 0.21059 0.19228 0.11696 0.0
C20 C 0.20583 0.1827 0.12954 0.0
C21 C 0.21306 0.20849 0.11905 0.0
C22 C 0.20545 0.20531 0.14648 0.0
C23 C 0.19943 0.17868 0.15789 0.0
O24 O 0.18629 0.17166 0.20427 0.0
O25 O 0.17205 0.15504 0.19051 0.0
O26 O 0.1861 0.17071 0.15696 0.0
O27 O 0.20208 0.18454 0.1719 0.0
H28 H 0.17879 0.12588 0.19624 0.0
H29 H 0.1936 0.10461 0.20869 0.0
H30 H 0.21961 0.13855 0.23617 0.0
H31 H 0.20491 0.15964 0.22399 0.0
H32 H 0.10528 0.21408 0.18997 0.0
H33 H 0.12578 0.20105 0.17489 0.0
H34 H 0.13953 0.22584 0.22573 0.0
H35 H 0.15987 0.21279 0.21088 0.0
H36 H 0.21238 0.22718 0.13623 0.0
H37 H 0.21233 0.18697 0.10561 0.0
H38 H 0.20429 0.17022 0.12767 0.0
H39 H 0.20364 0.21064 0.15782 0.0
C40 C 0.8319 0.19 0.14517 0.0
C41 C 0.82864 0.20582 0.14807 0.0
C42 C 0.82225 0.21014 0.12044 0.0
C43 C 0.82383 0.21573 0.13589 0.0
C44 C 0.82574 0.19435 0.11751 0.0
C45 C 0.83046 0.18439 0.12975 0.0
U46 U 0.8581 0.17618 0.17947 0.0
O47 O 0.85145 0.16865 0.2032 0.0
O48 O 0.86327 0.15219 0.18769 0.0
C49 C 0.85571 0.15409 0.20096 0.0
C50 C 0.83585 0.17907 0.15815 0.0
C51 C 0.84403 0.14175 0.20536 0.0
C52 C 0.81999 0.13383 0.21882 0.0
C53 C 0.83055 0.14552 0.21398 0.0
C54 C 0.83602 0.11421 0.20656 0.0
C55 C 0.82257 0.11801 0.21522 0.0
C56 C 0.84665 0.12595 0.20173 0.0
C57 C 0.8954 0.19969 0.19007 0.0
C58 C 0.9105 0.19511 0.21394 0.0
C59 C 0.91748 0.21679 0.19675 0.0
C60 C 0.90523 0.21252 0.18655 0.0
C61 C 0.92013 0.2083 0.21072 0.0
C62 C 0.89823 0.19086 0.20371 0.0
C63 C 0.8817 0.19638 0.17994 0.0
O64 O 0.84825 0.17024 0.15617 0.0
O65 O 0.83483 0.18463 0.17245 0.0
O66 O 0.86799 0.19904 0.18635 0.0
O67 O 0.88196 0.18322 0.172 0.0
H68 H 0.82952 0.21055 0.15981 0.0
H69 H 0.82096 0.2277 0.13872 0.0
H70 H 0.82484 0.18967 0.10576 0.0
H71 H 0.83282 0.17223 0.1272 0.0
H72 H 0.80997 0.13719 0.22577 0.0
H73 H 0.82823 0.15751 0.21724 0.0
H74 H 0.83834 0.10216 0.20351 0.0
H75 H 0.857 0.12263 0.19526 0.0
H76 H 0.9123 0.18821 0.22449 0.0
H77 H 0.92446 0.22714 0.19399 0.0
H78 H 0.90315 0.21952 0.17611 0.0
H79 H 0.89072 0.18091 0.20662 0.0
C80 C 0.83285 0.84479 0.14893 0.0
C81 C 0.82527 0.83036 0.15203 0.0
C82 C 0.82394 0.82445 0.12405 0.0
C83 C 0.82089 0.82036 0.13978 0.0
C84 C 0.83155 0.83887 0.12093 0.0
C85 C 0.83591 0.84893 0.13322 0.0
U86 U 0.85782 0.85903 0.18424 0.0
O87 O 0.86381 0.88312 0.19182 0.0
O88 O 0.8504 0.86734 0.20732 0.0
C89 C 0.85577 0.88167 0.2049 0.0
C90 C 0.83658 0.85593 0.16185 0.0
C91 C 0.845 0.8946 0.20881 0.0
C92 C 0.81938 0.90383 0.21706 0.0
C93 C 0.82903 0.89173 0.21202 0.0
C94 C 0.84131 0.9221 0.21536 0.0
C95 C 0.82538 0.91919 0.21889 0.0
C96 C 0.85101 0.90993 0.21043 0.0
C97 C 0.89377 0.83479 0.19689 0.0
C98 C 0.90748 0.83733 0.2219 0.0
C99 C 0.91619 0.81837 0.20291 0.0
C100 C 0.90429 0.8231 0.19258 0.0
C101 C 0.91781 0.82525 0.21782 0.0
C102 C 0.89557 0.84206 0.21153 0.0
C103 C 0.88048 0.83842 0.18637 0.0
O104 O 0.8346 0.85065 0.17625 0.0
O105 O 0.84936 0.86465 0.16032 0.0
O106 O 0.88168 0.85141 0.17806 0.0
O107 O 0.86644 0.83623 0.19241 0.0
H108 H 0.82245 0.82684 0.16392 0.0
H109 H 0.81474 0.80954 0.14268 0.0
H110 H 0.83419 0.84239 0.10899 0.0
H111 H 0.84155 0.86004 0.13041 0.0
H112 H 0.80728 0.901 0.21991 0.0
H113 H 0.82401 0.88005 0.21099 0.0
H114 H 0.84633 0.93377 0.21641 0.0
H115 H 0.8633 0.91246 0.20809 0.0
H116 H 0.90849 0.84301 0.2332 0.0
H117 H 0.92372 0.80889 0.19944 0.0
H118 H 0.90304 0.81729 0.18136 0.0
H119 H 0.88755 0.85113 0.21505 0.0
C120 C 0.14157 0.83134 0.19252 0.0
C121 C 0.14489 0.82627 0.2079 0.0
C122 C 0.117 0.82124 0.21276 0.0
C123 C 0.1328 0.82125 0.21784 0.0
C124 C 0.11367 0.82634 0.19737 0.0
C125 C 0.12583 0.83129 0.18736 0.0
U126 U 0.17565 0.85863 0.18005 0.0
O127 O 0.19936 0.85293 0.17187 0.0
O128 O 0.1835 0.86622 0.15656 0.0
C129 C 0.19708 0.85911 0.1579 0.0
C130 C 0.1544 0.83603 0.18162 0.0
C131 C 0.20173 0.84924 0.14463 0.0
C132 C 0.19783 0.82645 0.128 0.0
C133 C 0.19259 0.83628 0.13995 0.0
C134 C 0.22127 0.84261 0.12511 0.0
C135 C 0.21236 0.82937 0.12055 0.0
C136 C 0.216 0.85243 0.13702 0.0
C137 C 0.18565 0.89413 0.2061 0.0
C138 C 0.20758 0.91204 0.20125 0.0
C139 C 0.19276 0.91397 0.22532 0.0
C140 C 0.18306 0.90153 0.22047 0.0
C141 C 0.2053 0.91927 0.21588 0.0
C142 C 0.19787 0.89955 0.19642 0.0
C143 C 0.17596 0.88036 0.20181 0.0
O144 O 0.15231 0.84898 0.17344 0.0
O145 O 0.16885 0.83469 0.187 0.0
O146 O 0.18286 0.86677 0.20348 0.0
O147 O 0.16778 0.88149 0.18872 0.0
H148 H 0.15686 0.82599 0.21228 0.0
H149 H 0.13591 0.81709 0.22947 0.0
H150 H 0.10167 0.82661 0.19307 0.0
H151 H 0.12292 0.83502 0.17553 0.0
H152 H 0.19055 0.81649 0.12468 0.0
H153 H 0.18153 0.83362 0.14571 0.0
H154 H 0.2326 0.84512 0.11986 0.0
H155 H 0.22327 0.86234 0.14054 0.0
H156 H 0.21699 0.91591 0.19359 0.0
H157 H 0.19077 0.91905 0.23674 0.0
H158 H 0.17371 0.89744 0.22812 0.0
H159 H 0.20005 0.89398 0.18527 0.0
C160 C 0.14067 0.82574 0.85873 0.0
C161 C 0.13395 0.8326 0.8453 0.0
C162 C 0.11684 0.80966 0.84187 0.0
C163 C 0.12205 0.82463 0.83696 0.0
C164 C 0.12337 0.80311 0.85558 0.0
C165 C 0.13515 0.81108 0.86391 0.0
U166 U 0.17332 0.85725 0.86459 0.0
O167 O 0.1823 0.86691 0.88689 0.0
O168 O 0.19786 0.85348 0.87178 0.0
C169 C 0.19589 0.85987 0.88561 0.0
C170 C 0.15396 0.8331 0.86713 0.0
C171 C 0.20041 0.84985 0.89898 0.0
C172 C 0.19715 0.82563 0.91386 0.0
C173 C 0.19215 0.83581 0.90196 0.0
C174 C 0.21845 0.84364 0.92031 0.0
C175 C 0.21051 0.8293 0.92303 0.0
C176 C 0.21345 0.8538 0.90835 0.0
C177 C 0.17845 0.89102 0.83439 0.0
C178 C 0.20012 0.90995 0.8338 0.0
C179 C 0.18076 0.90964 0.81282 0.0
C180 C 0.17274 0.89733 0.82029 0.0
C181 C 0.19471 0.91592 0.81932 0.0
C182 C 0.19209 0.89753 0.84125 0.0
C183 C 0.17044 0.87711 0.84106 0.0
O184 O 0.16759 0.83251 0.86001 0.0
O185 O 0.15137 0.84671 0.8737 0.0
O186 O 0.16338 0.8789 0.85461 0.0
O187 O 0.17819 0.86394 0.84014 0.0
H188 H 0.13814 0.8439 0.8411 0.0
H189 H 0.11734 0.82992 0.82637 0.0
H190 H 0.11948 0.7917 0.85977 0.0
H191 H 0.14019 0.80562 0.87427 0.0
H192 H 0.19067 0.81478 0.91575 0.0
H193 H 0.18202 0.83257 0.89485 0.0
H194 H 0.22887 0.84674 0.92704 0.0
H195 H 0.22 0.86457 0.90618 0.0
H196 H 0.21089 0.91446 0.83903 0.0
H197 H 0.17618 0.91408 0.8018 0.0
H198 H 0.16222 0.89248 0.81483 0.0
H199 H 0.1967 0.89275 0.85213 0.0
C200 C 0.13954 0.18751 0.83847 0.0
C201 C 0.13733 0.20149 0.8467 0.0
C202 C 0.11498 0.20795 0.82983 0.0
C203 C 0.12517 0.21162 0.84242 0.0
C204 C 0.11701 0.19368 0.82193 0.0
C205 C 0.12918 0.18359 0.82621 0.0
U206 U 0.17553 0.17716 0.86333 0.0
O207 O 0.18488 0.15408 0.8703 0.0
O208 O 0.19924 0.17033 0.85621 0.0
C209 C 0.19776 0.15606 0.86198 0.0
C210 C 0.15301 0.17735 0.84202 0.0
C211 C 0.20219 0.14298 0.85148 0.0
C212 C 0.21245 0.13359 0.82665 0.0
C213 C 0.2075 0.14588 0.83613 0.0
C214 C 0.20683 0.11509 0.84755 0.0
C215 C 0.21218 0.11799 0.83218 0.0
C216 C 0.20194 0.12744 0.85708 0.0
C217 C 0.18433 0.20572 0.89814 0.0
C218 C 0.20719 0.2067 0.9155 0.0
C219 C 0.18767 0.22708 0.91661 0.0
C220 C 0.17893 0.21954 0.90491 0.0
C221 C 0.20204 0.22093 0.92186 0.0
C222 C 0.19842 0.19917 0.90362 0.0
C223 C 0.17538 0.1992 0.88478 0.0
O224 O 0.16692 0.18388 0.83989 0.0
O225 O 0.15213 0.16917 0.85512 0.0
O226 O 0.16855 0.18542 0.88674 0.0
O227 O 0.18185 0.201 0.87091 0.0
H228 H 0.14519 0.20471 0.85624 0.0
H229 H 0.12385 0.22241 0.84887 0.0
H230 H 0.10955 0.19057 0.81206 0.0
H231 H 0.13074 0.17287 0.81968 0.0
H232 H 0.21679 0.1364 0.81504 0.0
H233 H 0.20805 0.15769 0.83142 0.0
H234 H 0.20632 0.10326 0.8522 0.0
H235 H 0.19805 0.12484 0.86891 0.0
H236 H 0.21827 0.20175 0.91925 0.0
H237 H 0.18332 0.23792 0.92138 0.0
H238 H 0.16807 0.22476 0.90084 0.0
H239 H 0.2028 0.18852 0.89848 0.0
C240 C 0.82566 0.14279 0.85824 0.0
C241 C 0.83249 0.13717 0.84444 0.0
C242 C 0.81115 0.11794 0.84159 0.0
C243 C 0.82531 0.12477 0.8362 0.0
C244 C 0.80474 0.12331 0.85571 0.0
C245 C 0.81193 0.13559 0.86393 0.0
U246 U 0.85526 0.17715 0.86417 0.0
O247 O 0.85022 0.20173 0.86942 0.0
O248 O 0.86336 0.18765 0.8865 0.0
C249 C 0.85584 0.20078 0.8838 0.0
C250 C 0.83192 0.15673 0.86639 0.0
C251 C 0.84537 0.2063 0.8965 0.0
C252 C 0.82055 0.21727 0.90503 0.0
C253 C 0.83026 0.21195 0.89308 0.0
C254 C 0.84076 0.21153 0.92424 0.0
C255 C 0.82558 0.21704 0.9208 0.0
C256 C 0.85055 0.20625 0.91221 0.0
C257 C 0.89 0.18239 0.83512 0.0
C258 C 0.90837 0.20451 0.83387 0.0
C259 C 0.9085 0.18475 0.8136 0.0
C260 C 0.89644 0.17657 0.82127 0.0
C261 C 0.91443 0.19896 0.81963 0.0
C262 C 0.89616 0.19632 0.84153 0.0
C263 C 0.87625 0.17417 0.84188 0.0
O264 O 0.84536 0.15516 0.87391 0.0
O265 O 0.83096 0.16999 0.85855 0.0
O266 O 0.86269 0.1811 0.8398 0.0
O267 O 0.87794 0.16806 0.85599 0.0
H268 H 0.84308 0.14264 0.83984 0.0
H269 H 0.83047 0.12097 0.8253 0.0
H270 H 0.79397 0.11818 0.86027 0.0
H271 H 0.80651 0.13976 0.87458 0.0
H272 H 0.8091 0.22175 0.90184 0.0
H273 H 0.82587 0.21233 0.88113 0.0
H274 H 0.84502 0.21109 0.93623 0.0
H275 H 0.86217 0.20208 0.91521 0.0
H276 H 0.91262 0.21547 0.83874 0.0
H277 H 0.91303 0.18007 0.80276 0.0
H278 H 0.89184 0.16584 0.81615 0.0
H279 H 0.89128 0.20103 0.85219 0.0
C280 C 0.85069 0.89408 0.8321 0.0
C281 C 0.85601 0.90974 0.83308 0.0
C282 C 0.83423 0.91838 0.81656 0.0
C283 C 0.84779 0.9218 0.82549 0.0
C284 C 0.8286 0.90283 0.81609 0.0
C285 C 0.8367 0.89084 0.82376 0.0
U286 U 0.86047 0.85945 0.86023 0.0
O287 O 0.86879 0.83606 0.854 0.0
O288 O 0.88362 0.85138 0.8686 0.0
C289 C 0.88259 0.8382 0.86072 0.0
C290 C 0.86064 0.88116 0.83817 0.0
C291 C 0.89616 0.83435 0.85084 0.0
C292 C 0.91136 0.83805 0.82698 0.0
C293 C 0.89939 0.84283 0.83704 0.0
C294 C 0.91732 0.81656 0.84463 0.0
C295 C 0.92031 0.82469 0.83051 0.0
C296 C 0.90534 0.82134 0.85467 0.0
C297 C 0.8312 0.84791 0.89352 0.0
C298 C 0.82525 0.84436 0.92136 0.0
C299 C 0.81445 0.82622 0.90232 0.0
C300 C 0.8221 0.83441 0.89027 0.0
C301 C 0.81563 0.83128 0.91797 0.0
C302 C 0.83286 0.85266 0.90925 0.0
C303 C 0.83726 0.85799 0.88051 0.0
O304 O 0.86752 0.88312 0.8519 0.0
O305 O 0.8552 0.86683 0.83611 0.0
O306 O 0.83642 0.85213 0.86629 0.0
O307 O 0.85032 0.86606 0.88304 0.0
H308 H 0.86683 0.91259 0.83927 0.0
H309 H 0.85242 0.93367 0.82601 0.0
H310 H 0.81806 0.89987 0.80948 0.0
H311 H 0.83221 0.87896 0.82269 0.0
H312 H 0.91346 0.84471 0.81632 0.0
H313 H 0.8924 0.85291 0.83388 0.0
H314 H 0.92379 0.80611 0.84765 0.0
H315 H 0.90296 0.81459 0.86522 0.0
H316 H 0.82633 0.8486 0.93328 0.0
H317 H 0.80729 0.81606 0.89934 0.0
H318 H 0.82041 0.83041 0.87834 0.0
H319 H 0.83961 0.86311 0.91214 0.0
C320 C 0.18809 0.64348 0.70738 0.0
C321 C 0.20173 0.64691 0.71621 0.0
C322 C 0.20898 0.61933 0.7166 0.0
C323 C 0.21201 0.63503 0.72072 0.0
C324 C 0.19524 0.61583 0.70793 0.0
C325 C 0.18492 0.62776 0.7034 0.0
U326 U 0.17564 0.67753 0.68059 0.0
O327 O 0.15225 0.68539 0.67268 0.0
O328 O 0.16756 0.70113 0.6864 0.0
C329 C 0.15386 0.69913 0.67944 0.0
C330 C 0.17701 0.65614 0.70287 0.0
C331 C 0.14017 0.70532 0.68779 0.0
C332 C 0.12225 0.70578 0.70996 0.0
C333 C 0.13439 0.69852 0.7017 0.0
C334 C 0.12144 0.72638 0.69029 0.0
C335 C 0.1159 0.71999 0.70449 0.0
C336 C 0.13341 0.7191 0.68204 0.0
C337 C 0.20177 0.68876 0.64585 0.0
C338 C 0.19821 0.71294 0.63109 0.0
C339 C 0.21948 0.6956 0.62453 0.0
C340 C 0.21468 0.68525 0.63643 0.0
C341 C 0.21146 0.7097 0.62186 0.0
C342 C 0.19341 0.70256 0.64297 0.0
C343 C 0.19774 0.67841 0.65915 0.0
O344 O 0.18227 0.6706 0.70457 0.0
O345 O 0.16888 0.65417 0.68982 0.0
O346 O 0.18471 0.67007 0.65767 0.0
O347 O 0.1993 0.68483 0.67305 0.0
H348 H 0.20448 0.6588 0.71977 0.0
H349 H 0.22225 0.63816 0.7277 0.0
H350 H 0.19254 0.60389 0.70452 0.0
H351 H 0.17442 0.62467 0.69679 0.0
H352 H 0.11828 0.70066 0.72092 0.0
H353 H 0.13953 0.6879 0.70634 0.0
H354 H 0.1167 0.73722 0.68571 0.0
H355 H 0.13771 0.72451 0.67132 0.0
H356 H 0.19166 0.7236 0.62924 0.0
H357 H 0.22984 0.69282 0.61782 0.0
H358 H 0.22131 0.67468 0.63853 0.0
H359 H 0.18338 0.70545 0.65014 0.0
C360 C 0.83094 0.68533 0.64648 0.0
C361 C 0.82704 0.70096 0.64959 0.0
C362 C 0.82068 0.70548 0.62198 0.0
C363 C 0.82191 0.71085 0.63754 0.0
C364 C 0.82453 0.68981 0.61888 0.0
C365 C 0.82957 0.67985 0.63101 0.0
U366 U 0.85957 0.67488 0.67955 0.0
O367 O 0.85523 0.66676 0.70364 0.0
O368 O 0.86864 0.65208 0.6876 0.0
C369 C 0.86209 0.65325 0.70148 0.0
C370 C 0.83621 0.67467 0.65924 0.0
C371 C 0.85332 0.63942 0.70728 0.0
C372 C 0.82947 0.62338 0.7087 0.0
C373 C 0.8382 0.63558 0.70166 0.0
C374 C 0.85112 0.61851 0.72661 0.0
C375 C 0.83571 0.61498 0.72153 0.0
C376 C 0.85982 0.6306 0.71956 0.0
C377 C 0.894 0.70417 0.68675 0.0
C378 C 0.9105 0.70565 0.71016 0.0
C379 C 0.91481 0.72383 0.68862 0.0
C380 C 0.9026 0.71666 0.68018 0.0
C381 C 0.91869 0.71866 0.70385 0.0
C382 C 0.89819 0.69848 0.70168 0.0
C383 C 0.8801 0.69816 0.6782 0.0
O384 O 0.84947 0.66729 0.65685 0.0
O385 O 0.83499 0.67998 0.67363 0.0
O386 O 0.86668 0.69891 0.68571 0.0
O387 O 0.88177 0.685 0.6705 0.0
H388 H 0.82787 0.70561 0.66137 0.0
H389 H 0.81873 0.72271 0.64049 0.0
H390 H 0.82385 0.68529 0.60705 0.0
H391 H 0.83246 0.66785 0.62829 0.0
H392 H 0.8176 0.62101 0.7046 0.0
H393 H 0.83298 0.64231 0.6922 0.0
H394 H 0.85633 0.61213 0.73633 0.0
H395 H 0.87147 0.63338 0.72403 0.0
H396 H 0.91315 0.70147 0.7219 0.0
H397 H 0.92102 0.73368 0.68336 0.0
H398 H 0.89957 0.72118 0.66866 0.0
H399 H 0.89164 0.68884 0.70695 0.0
C400 C 0.8318 0.3494 0.64652 0.0
C401 C 0.8274 0.33368 0.64925 0.0
C402 C 0.82128 0.33005 0.62143 0.0
C403 C 0.82216 0.32419 0.63691 0.0
C404 C 0.82577 0.34578 0.6187 0.0
C405 C 0.83092 0.35533 0.63111 0.0
U406 U 0.85867 0.36026 0.68144 0.0
O407 O 0.86725 0.38331 0.68971 0.0
O408 O 0.85268 0.36839 0.70504 0.0
C409 C 0.86012 0.38187 0.7033 0.0
C410 C 0.83665 0.35985 0.65962 0.0
C411 C 0.852 0.39571 0.70934 0.0
C412 C 0.8297 0.41329 0.7101 0.0
C413 C 0.83778 0.40104 0.70289 0.0
C414 C 0.85017 0.41514 0.72992 0.0
C415 C 0.83566 0.4202 0.72392 0.0
C416 C 0.85825 0.40305 0.72269 0.0
C417 C 0.89274 0.33364 0.69294 0.0
C418 C 0.90713 0.33671 0.71752 0.0
C419 C 0.9143 0.31626 0.69944 0.0
C420 C 0.90244 0.32111 0.68909 0.0
C421 C 0.91666 0.32385 0.7139 0.0
C422 C 0.8953 0.34157 0.70713 0.0
C423 C 0.87961 0.33785 0.68242 0.0
O424 O 0.83458 0.35432 0.67391 0.0
O425 O 0.85009 0.36749 0.65798 0.0
O426 O 0.8815 0.3508 0.67417 0.0
O427 O 0.86554 0.33651 0.68862 0.0
H428 H 0.82781 0.3287 0.66096 0.0
H429 H 0.81852 0.31227 0.6396 0.0
H430 H 0.82542 0.35069 0.60697 0.0
H431 H 0.83417 0.36742 0.62867 0.0
H432 H 0.81848 0.41689 0.70529 0.0
H433 H 0.83275 0.39545 0.69261 0.0
H434 H 0.85513 0.42032 0.74045 0.0
H435 H 0.86921 0.3991 0.72782 0.0
H436 H 0.90873 0.34294 0.72846 0.0
H437 H 0.92124 0.3062 0.69635 0.0
H438 H 0.90061 0.31482 0.6782 0.0
H439 H 0.88795 0.35132 0.71029 0.0
C440 C 0.142 0.32764 0.69291 0.0
C441 C 0.12618 0.32908 0.6882 0.0
C442 C 0.11766 0.3121 0.70973 0.0
C443 C 0.11411 0.32149 0.6966 0.0
C444 C 0.13341 0.31112 0.71473 0.0
C445 C 0.14541 0.31877 0.70645 0.0
U446 U 0.17618 0.35648 0.68251 0.0
O447 O 0.19995 0.35103 0.67451 0.0
O448 O 0.18429 0.3645 0.65915 0.0
C449 C 0.19764 0.35696 0.66043 0.0
C450 C 0.15488 0.33383 0.68279 0.0
C451 C 0.20195 0.34682 0.6471 0.0
C452 C 0.20903 0.32134 0.63679 0.0
C453 C 0.20397 0.33062 0.64918 0.0
C454 C 0.20974 0.34413 0.61976 0.0
C455 C 0.21203 0.32793 0.62188 0.0
C456 C 0.2048 0.35346 0.63225 0.0
C457 C 0.18693 0.39027 0.7113 0.0
C458 C 0.18975 0.41801 0.71783 0.0
C459 C 0.20896 0.3995 0.72734 0.0
C460 C 0.2009 0.38736 0.7197 0.0
C461 C 0.2033 0.4149 0.7268 0.0
C462 C 0.18158 0.40578 0.71025 0.0
C463 C 0.17702 0.37707 0.70535 0.0
O464 O 0.15267 0.34735 0.67565 0.0
O465 O 0.16929 0.33227 0.6882 0.0
O466 O 0.18304 0.36299 0.70645 0.0
O467 O 0.1691 0.37929 0.69222 0.0
H468 H 0.12318 0.33567 0.67772 0.0
H469 H 0.1021 0.3224 0.69243 0.0
H470 H 0.1365 0.30414 0.72494 0.0
H471 H 0.15742 0.3173 0.71045 0.0
H472 H 0.21094 0.30901 0.63905 0.0
H473 H 0.20189 0.3251 0.66047 0.0
H474 H 0.21171 0.34962 0.60844 0.0
H475 H 0.20334 0.36592 0.63034 0.0
H476 H 0.18508 0.42975 0.71726 0.0
H477 H 0.21949 0.39678 0.73398 0.0
H478 H 0.2054 0.37559 0.72086 0.0
H479 H 0.17076 0.40839 0.70404 0.0
C480 C 0.13976 0.32889 0.35905 0.0
C481 C 0.13383 0.33531 0.34504 0.0
C482 C 0.11549 0.31321 0.34248 0.0
C483 C 0.12169 0.32755 0.33684 0.0
C484 C 0.12117 0.30718 0.35678 0.0
C485 C 0.13317 0.31496 0.36498 0.0
U486 U 0.17496 0.35793 0.36385 0.0
O487 O 0.18486 0.36739 0.38587 0.0
O488 O 0.19904 0.35216 0.37113 0.0
C489 C 0.1978 0.35922 0.38471 0.0
C490 C 0.15352 0.33569 0.36719 0.0
C491 C 0.20179 0.34942 0.39841 0.0
C492 C 0.19779 0.32565 0.41383 0.0
C493 C 0.19313 0.33568 0.40167 0.0
C494 C 0.21952 0.34324 0.42 0.0
C495 C 0.21119 0.32917 0.42299 0.0
C496 C 0.21487 0.35325 0.40779 0.0
C497 C 0.18447 0.38999 0.33272 0.0
C498 C 0.1885 0.41768 0.32625 0.0
C499 C 0.20566 0.39827 0.31529 0.0
C500 C 0.19744 0.38643 0.32328 0.0
C501 C 0.20114 0.414 0.31643 0.0
C502 C 0.18018 0.40579 0.33422 0.0
C503 C 0.17458 0.37724 0.33967 0.0
O504 O 0.16708 0.33361 0.36026 0.0
O505 O 0.15204 0.34981 0.37303 0.0
O506 O 0.16742 0.38019 0.35296 0.0
O507 O 0.1803 0.36301 0.33917 0.0
H508 H 0.13887 0.34603 0.34026 0.0
H509 H 0.11763 0.3324 0.32579 0.0
H510 H 0.11653 0.29626 0.36149 0.0
H511 H 0.13762 0.30984 0.37577 0.0
H512 H 0.19102 0.315 0.41592 0.0
H513 H 0.18297 0.33255 0.39456 0.0
H514 H 0.22999 0.34622 0.42671 0.0
H515 H 0.22173 0.36377 0.4054 0.0
H516 H 0.18467 0.42968 0.3273 0.0
H517 H 0.2155 0.39505 0.30801 0.0
H518 H 0.20107 0.37442 0.32171 0.0
H519 H 0.17012 0.40892 0.34122 0.0
C520 C 0.1448 0.68878 0.33634 0.0
C521 C 0.12908 0.68624 0.34096 0.0
C522 C 0.12007 0.70597 0.32224 0.0
C523 C 0.11684 0.69483 0.33406 0.0
C524 C 0.13582 0.70894 0.31814 0.0
C525 C 0.148 0.70045 0.32504 0.0
U526 U 0.17905 0.67542 0.3638 0.0
O527 O 0.18618 0.65131 0.36994 0.0
O528 O 0.20235 0.66698 0.35722 0.0
C529 C 0.1995 0.65264 0.36226 0.0
C530 C 0.15756 0.67816 0.34162 0.0
C531 C 0.20332 0.63978 0.3513 0.0
C532 C 0.21224 0.63084 0.32581 0.0
C533 C 0.20757 0.64293 0.33567 0.0
C534 C 0.20819 0.61205 0.34681 0.0
C535 C 0.21267 0.61521 0.33121 0.0
C536 C 0.20362 0.62421 0.35674 0.0
C537 C 0.19116 0.69995 0.39982 0.0
C538 C 0.2159 0.69718 0.41402 0.0
C539 C 0.19726 0.71675 0.42204 0.0
C540 C 0.18699 0.71197 0.41005 0.0
C541 C 0.21197 0.7096 0.42404 0.0
C542 C 0.20558 0.69241 0.40201 0.0
C543 C 0.18082 0.69628 0.38636 0.0
O544 O 0.17205 0.68356 0.34032 0.0
O545 O 0.15531 0.6699 0.35453 0.0
O546 O 0.17229 0.68336 0.38739 0.0
O547 O 0.18722 0.69831 0.37249 0.0
H548 H 0.12615 0.67721 0.34948 0.0
H549 H 0.10481 0.69222 0.33739 0.0
H550 H 0.13871 0.71758 0.3092 0.0
H551 H 0.1599 0.70266 0.32105 0.0
H552 H 0.21589 0.63386 0.31401 0.0
H553 H 0.20757 0.65479 0.33107 0.0
H554 H 0.20818 0.60018 0.35137 0.0
H555 H 0.20047 0.62145 0.36875 0.0
H556 H 0.22703 0.69129 0.41533 0.0
H557 H 0.19391 0.72648 0.42933 0.0
H558 H 0.17595 0.718 0.40847 0.0
H559 H 0.20901 0.68308 0.39422 0.0
C560 C 0.82876 0.64175 0.35997 0.0
C561 C 0.83472 0.63638 0.34567 0.0
C562 C 0.81376 0.61659 0.34423 0.0
C563 C 0.8273 0.62382 0.33788 0.0
C564 C 0.80827 0.62169 0.35885 0.0
C565 C 0.8157 0.63413 0.36662 0.0
U566 U 0.8583 0.67642 0.36499 0.0
O567 O 0.85307 0.70103 0.36991 0.0
O568 O 0.86644 0.68731 0.38711 0.0
C569 C 0.85876 0.70032 0.38428 0.0
C570 C 0.83511 0.65589 0.3677 0.0
C571 C 0.84827 0.70587 0.39696 0.0
C572 C 0.82347 0.71698 0.40539 0.0
C573 C 0.83326 0.71175 0.39346 0.0
C574 C 0.84343 0.71077 0.42472 0.0
C575 C 0.82833 0.71645 0.42121 0.0
C576 C 0.85328 0.70557 0.41272 0.0
C577 C 0.89294 0.68154 0.33583 0.0
C578 C 0.91151 0.7035 0.33472 0.0
C579 C 0.9112 0.68408 0.31412 0.0
C580 C 0.89914 0.6759 0.3218 0.0
C581 C 0.91736 0.69812 0.32032 0.0
C582 C 0.89931 0.6953 0.34239 0.0
C583 C 0.87926 0.67328 0.34269 0.0
O584 O 0.84861 0.65452 0.37515 0.0
O585 O 0.83405 0.66898 0.35959 0.0
O586 O 0.86563 0.68007 0.34054 0.0
O587 O 0.88101 0.66736 0.35687 0.0
H588 H 0.84479 0.64217 0.34034 0.0
H589 H 0.83174 0.62023 0.32659 0.0
H590 H 0.79799 0.61625 0.36414 0.0
H591 H 0.81096 0.6381 0.37765 0.0
H592 H 0.8121 0.7216 0.40215 0.0
H593 H 0.829 0.71236 0.38147 0.0
H594 H 0.84754 0.7101 0.43675 0.0
H595 H 0.86483 0.70123 0.41578 0.0
H596 H 0.91594 0.71434 0.33973 0.0
H597 H 0.91556 0.67954 0.30315 0.0
H598 H 0.89439 0.6653 0.31655 0.0
H599 H 0.89461 0.69988 0.3532 0.0
C600 C 0.85433 0.39447 0.33099 0.0
C601 C 0.84047 0.40019 0.33762 0.0
C602 C 0.83828 0.41953 0.31647 0.0
C603 C 0.83253 0.41271 0.33044 0.0
C604 C 0.85247 0.41406 0.31028 0.0
C605 C 0.86039 0.40169 0.31748 0.0
U606 U 0.86085 0.35944 0.35984 0.0
O607 O 0.86585 0.33509 0.35362 0.0
O608 O 0.88345 0.34885 0.36668 0.0
C609 C 0.8803 0.33574 0.35918 0.0
C610 C 0.8622 0.38037 0.33706 0.0
C611 C 0.89276 0.32935 0.34894 0.0
C612 C 0.90064 0.31023 0.3295 0.0
C613 C 0.88891 0.31764 0.33799 0.0
C614 C 0.92048 0.32624 0.34236 0.0
C615 C 0.91659 0.31418 0.3318 0.0
C616 C 0.90869 0.33368 0.35092 0.0
C617 C 0.83545 0.35068 0.39568 0.0
C618 C 0.83789 0.32625 0.41032 0.0
C619 C 0.81785 0.34478 0.41741 0.0
C620 C 0.82298 0.35489 0.40541 0.0
C621 C 0.82509 0.33021 0.41987 0.0
C622 C 0.84301 0.33638 0.39834 0.0
C623 C 0.83985 0.36084 0.3823 0.0
O624 O 0.87018 0.38175 0.35025 0.0
O625 O 0.85406 0.36721 0.33615 0.0
O626 O 0.83688 0.35486 0.36841 0.0
O627 O 0.85376 0.36773 0.38318 0.0
H628 H 0.83558 0.39471 0.34804 0.0
H629 H 0.82158 0.4166 0.33542 0.0
H630 H 0.85728 0.41916 0.29964 0.0
H631 H 0.87108 0.39745 0.3122 0.0
H632 H 0.89721 0.30115 0.32128 0.0
H633 H 0.87681 0.31387 0.33623 0.0
H634 H 0.93267 0.32948 0.34448 0.0
H635 H 0.91212 0.34251 0.3594 0.0
H636 H 0.84386 0.31523 0.41199 0.0
H637 H 0.80785 0.34813 0.42436 0.0
H638 H 0.81694 0.36584 0.40349 0.0
H639 H 0.85268 0.33293 0.39095 0.0
C640 C 0.68999 0.14223 0.70411 0.0
C641 C 0.70435 0.14012 0.69642 0.0
C642 C 0.71052 0.11815 0.71379 0.0
C643 C 0.71452 0.12821 0.70122 0.0
C644 C 0.69587 0.12004 0.72111 0.0
C645 C 0.68574 0.13198 0.71633 0.0
U646 U 0.67868 0.17695 0.67786 0.0
O647 O 0.65523 0.18599 0.67143 0.0
O648 O 0.67215 0.20087 0.68417 0.0
C649 C 0.6577 0.19933 0.67875 0.0
C650 C 0.67976 0.1555 0.70012 0.0
C651 C 0.64488 0.20521 0.68886 0.0
C652 C 0.61722 0.21188 0.69196 0.0
C653 C 0.62914 0.20438 0.68366 0.0
C654 C 0.63645 0.22088 0.71101 0.0
C655 C 0.62083 0.22058 0.70549 0.0
C656 C 0.64832 0.21331 0.70282 0.0
C657 C 0.70381 0.18662 0.64169 0.0
C658 C 0.69947 0.20949 0.62515 0.0
C659 C 0.72274 0.19389 0.62155 0.0
C660 C 0.7178 0.18381 0.63363 0.0
C661 C 0.71377 0.20701 0.6173 0.0
C662 C 0.69456 0.19941 0.63726 0.0
C663 C 0.6996 0.17667 0.65525 0.0
O664 O 0.68639 0.16944 0.70135 0.0
O665 O 0.67112 0.15397 0.68736 0.0
O666 O 0.68601 0.16918 0.65442 0.0
O667 O 0.70222 0.18306 0.66902 0.0
H668 H 0.70782 0.1479 0.68691 0.0
H669 H 0.72562 0.12698 0.6952 0.0
H670 H 0.69248 0.11267 0.73095 0.0
H671 H 0.67472 0.13345 0.72244 0.0
H672 H 0.60531 0.2115 0.68737 0.0
H673 H 0.62614 0.19839 0.67286 0.0
H674 H 0.63958 0.2273 0.72153 0.0
H675 H 0.66028 0.21427 0.7072 0.0
H676 H 0.69215 0.21935 0.62207 0.0
H677 H 0.7339 0.19171 0.61597 0.0
H678 H 0.72514 0.17404 0.63696 0.0
H679 H 0.68372 0.20178 0.64337 0.0
C680 C 0.3266 0.18564 0.64733 0.0
C681 C 0.32748 0.18099 0.63155 0.0
C682 C 0.31131 0.20299 0.6234 0.0
C683 C 0.32 0.18965 0.61967 0.0
C684 C 0.31094 0.20796 0.63909 0.0
C685 C 0.31849 0.19942 0.6509 0.0
U686 U 0.35478 0.17401 0.68147 0.0
O687 O 0.34847 0.16489 0.70477 0.0
O688 O 0.3623 0.15044 0.68891 0.0
C689 C 0.35463 0.15111 0.70224 0.0
C690 C 0.33246 0.17518 0.66002 0.0
C691 C 0.34427 0.13767 0.70597 0.0
C692 C 0.31945 0.12353 0.70284 0.0
C693 C 0.32992 0.1354 0.69803 0.0
C694 C 0.3378 0.11578 0.72323 0.0
C695 C 0.32314 0.11373 0.71568 0.0
C696 C 0.34824 0.12765 0.71842 0.0
C697 C 0.38941 0.20063 0.69442 0.0
C698 C 0.39896 0.21377 0.718 0.0
C699 C 0.41752 0.20176 0.70052 0.0
C700 C 0.40506 0.19707 0.69066 0.0
C701 C 0.41461 0.21017 0.71433 0.0
C702 C 0.38656 0.2091 0.70819 0.0
C703 C 0.37623 0.19638 0.68362 0.0
O704 O 0.34593 0.16813 0.65775 0.0
O705 O 0.33078 0.18012 0.67448 0.0
O706 O 0.36197 0.19748 0.68936 0.0
O707 O 0.37798 0.18387 0.67488 0.0
H708 H 0.33348 0.17034 0.62845 0.0
H709 H 0.32043 0.18552 0.6077 0.0
H710 H 0.30451 0.21833 0.64229 0.0
H711 H 0.3175 0.20339 0.66289 0.0
H712 H 0.30835 0.12217 0.69666 0.0
H713 H 0.32666 0.14306 0.68839 0.0
H714 H 0.34096 0.10863 0.73328 0.0
H715 H 0.35923 0.1293 0.72474 0.0
H716 H 0.39627 0.22054 0.72832 0.0
H717 H 0.42941 0.19875 0.69735 0.0
H718 H 0.4077 0.19076 0.68003 0.0
H719 H 0.37473 0.21234 0.71136 0.0
C720 C 0.33254 0.8461 0.65065 0.0
C721 C 0.3249 0.83172 0.65385 0.0
C722 C 0.32319 0.82579 0.62589 0.0
C723 C 0.32031 0.82173 0.64166 0.0
C724 C 0.33081 0.84019 0.62267 0.0
C725 C 0.33539 0.85023 0.6349 0.0
U726 U 0.35841 0.85986 0.68545 0.0
O727 O 0.36497 0.88368 0.69319 0.0
O728 O 0.35147 0.86809 0.70877 0.0
C729 C 0.35745 0.8822 0.70657 0.0
C730 C 0.33661 0.85715 0.66355 0.0
C731 C 0.34723 0.89523 0.71102 0.0
C732 C 0.32412 0.91128 0.70692 0.0
C733 C 0.33422 0.89951 0.70183 0.0
C734 C 0.3401 0.91477 0.73029 0.0
C735 C 0.32681 0.91893 0.72134 0.0
C736 C 0.35018 0.90305 0.72517 0.0
C737 C 0.3945 0.83551 0.69709 0.0
C738 C 0.40929 0.83895 0.72139 0.0
C739 C 0.41692 0.81903 0.70292 0.0
C740 C 0.40466 0.82347 0.69289 0.0
C741 C 0.41929 0.82657 0.71741 0.0
C742 C 0.397 0.84339 0.71131 0.0
C743 C 0.38096 0.83907 0.68687 0.0
O744 O 0.33492 0.8518 0.67796 0.0
O745 O 0.34942 0.86581 0.66181 0.0
O746 O 0.38198 0.85205 0.67852 0.0
O747 O 0.36707 0.83693 0.69326 0.0
H748 H 0.32223 0.8282 0.66578 0.0
H749 H 0.31415 0.81094 0.64464 0.0
H750 H 0.33331 0.84368 0.61069 0.0
H751 H 0.34106 0.86131 0.63201 0.0
H752 H 0.31413 0.9143 0.69961 0.0
H753 H 0.33174 0.89359 0.69086 0.0
H754 H 0.34245 0.92017 0.74154 0.0
H755 H 0.36013 0.89984 0.73247 0.0
H756 H 0.41086 0.84512 0.73236 0.0
H757 H 0.42419 0.8093 0.69955 0.0
H758 H 0.40286 0.81721 0.68198 0.0
H759 H 0.38928 0.85275 0.71474 0.0
C760 C 0.64519 0.82921 0.68815 0.0
C761 C 0.62934 0.8321 0.68435 0.0
C762 C 0.62057 0.81338 0.70431 0.0
C763 C 0.61714 0.82434 0.69244 0.0
C764 C 0.63639 0.8109 0.70842 0.0
C765 C 0.64852 0.81867 0.70045 0.0
U766 U 0.67935 0.85848 0.67906 0.0
O767 O 0.70319 0.85315 0.67103 0.0
O768 O 0.68778 0.8675 0.65625 0.0
C769 C 0.70118 0.86003 0.65734 0.0
C770 C 0.65813 0.83577 0.67833 0.0
C771 C 0.70558 0.85051 0.64372 0.0
C772 C 0.70132 0.82788 0.62696 0.0
C773 C 0.69624 0.83771 0.63896 0.0
C774 C 0.72495 0.84376 0.62408 0.0
C775 C 0.7159 0.8306 0.61955 0.0
C776 C 0.71984 0.85359 0.63607 0.0
C777 C 0.68963 0.89144 0.70888 0.0
C778 C 0.69242 0.91912 0.71567 0.0
C779 C 0.7115 0.9005 0.72522 0.0
C780 C 0.70348 0.88843 0.71743 0.0
C781 C 0.70589 0.91593 0.72472 0.0
C782 C 0.68431 0.90697 0.70792 0.0
C783 C 0.67984 0.87832 0.70257 0.0
O784 O 0.65597 0.84951 0.67159 0.0
O785 O 0.67249 0.83409 0.68385 0.0
O786 O 0.68599 0.86427 0.70326 0.0
O787 O 0.67196 0.88085 0.68948 0.0
H788 H 0.62636 0.83999 0.67481 0.0
H789 H 0.60507 0.82644 0.68897 0.0
H790 H 0.63941 0.80268 0.71766 0.0
H791 H 0.66053 0.81602 0.70368 0.0
H792 H 0.69394 0.81799 0.62365 0.0
H793 H 0.68519 0.83512 0.64477 0.0
H794 H 0.73631 0.84613 0.61882 0.0
H795 H 0.72726 0.86336 0.63966 0.0
H796 H 0.68778 0.93087 0.71512 0.0
H797 H 0.72197 0.89771 0.73192 0.0
H798 H 0.70794 0.87664 0.71854 0.0
H799 H 0.67357 0.90966 0.7016 0.0
C800 C 0.64075 0.829 0.34928 0.0
C801 C 0.64456 0.82119 0.33535 0.0
C802 C 0.61688 0.81951 0.32784 0.0
C803 C 0.6328 0.81652 0.3248 0.0
C804 C 0.61303 0.82728 0.34179 0.0
C805 C 0.62484 0.83194 0.35241 0.0
U806 U 0.67512 0.85542 0.36253 0.0
O807 O 0.68272 0.86299 0.38613 0.0
O808 O 0.69842 0.84907 0.37159 0.0
C809 C 0.69599 0.85528 0.38541 0.0
C810 C 0.65322 0.8335 0.36077 0.0
C811 C 0.69968 0.84505 0.39888 0.0
C812 C 0.69656 0.82035 0.413 0.0
C813 C 0.69184 0.83062 0.40103 0.0
C814 C 0.71666 0.83903 0.42111 0.0
C815 C 0.7092 0.82432 0.42305 0.0
C816 C 0.71194 0.84927 0.40914 0.0
C817 C 0.68678 0.88975 0.33426 0.0
C818 C 0.6901 0.91778 0.32907 0.0
C819 C 0.7079 0.89935 0.31742 0.0
C820 C 0.69998 0.88697 0.32486 0.0
C821 C 0.70283 0.91485 0.31912 0.0
C822 C 0.68208 0.90534 0.33647 0.0
C823 C 0.67682 0.87645 0.33988 0.0
O824 O 0.6678 0.83152 0.35624 0.0
O825 O 0.65128 0.84669 0.36839 0.0
O826 O 0.66858 0.87848 0.35271 0.0
O827 O 0.68289 0.8624 0.33899 0.0
H828 H 0.65664 0.8185 0.3326 0.0
H829 H 0.63621 0.81025 0.31438 0.0
H830 H 0.60091 0.82984 0.34448 0.0
H831 H 0.62151 0.83779 0.3631 0.0
H832 H 0.69044 0.80921 0.41426 0.0
H833 H 0.68233 0.82717 0.39321 0.0
H834 H 0.72656 0.8424 0.42845 0.0
H835 H 0.71819 0.86032 0.4076 0.0
H836 H 0.6859 0.9296 0.33054 0.0
H837 H 0.71781 0.89674 0.30999 0.0
H838 H 0.70391 0.87515 0.32274 0.0
H839 H 0.67182 0.90787 0.34345 0.0
C840 C 0.64124 0.18594 0.33313 0.0
C841 C 0.63762 0.20105 0.33834 0.0
C842 C 0.61659 0.20284 0.31877 0.0
C843 C 0.62531 0.20943 0.33125 0.0
C844 C 0.61989 0.18745 0.31412 0.0
C845 C 0.63207 0.17911 0.32123 0.0
U846 U 0.67639 0.17836 0.36148 0.0
O847 O 0.68617 0.15557 0.36886 0.0
O848 O 0.70061 0.1723 0.35544 0.0
C849 C 0.69946 0.15808 0.36137 0.0
C850 C 0.65515 0.17742 0.3389 0.0
C851 C 0.70559 0.1451 0.35162 0.0
C852 C 0.71103 0.11724 0.34835 0.0
C853 C 0.70351 0.12936 0.35634 0.0
C854 C 0.72259 0.1363 0.33059 0.0
C855 C 0.72097 0.12063 0.33562 0.0
C856 C 0.71504 0.14836 0.33847 0.0
C857 C 0.6854 0.20486 0.39672 0.0
C858 C 0.70883 0.20198 0.41295 0.0
C859 C 0.69177 0.2241 0.4168 0.0
C860 C 0.68182 0.21858 0.40484 0.0
C861 C 0.70554 0.21601 0.42088 0.0
C862 C 0.69887 0.19648 0.40097 0.0
C863 C 0.67548 0.2 0.3833 0.0
O864 O 0.66871 0.18488 0.33768 0.0
O865 O 0.65364 0.16963 0.35218 0.0
O866 O 0.66828 0.18632 0.3846 0.0
O867 O 0.68179 0.2023 0.36943 0.0
H868 H 0.64459 0.20653 0.34752 0.0
H869 H 0.6231 0.22129 0.33502 0.0
H870 H 0.61328 0.18198 0.30468 0.0
H871 H 0.63465 0.16746 0.31706 0.0
H872 H 0.70961 0.10531 0.35257 0.0
H873 H 0.69648 0.12645 0.36653 0.0
H874 H 0.72999 0.13929 0.32068 0.0
H875 H 0.71704 0.16029 0.3345 0.0
H876 H 0.7192 0.19532 0.4159 0.0
H877 H 0.68895 0.23503 0.42245 0.0
H878 H 0.67152 0.22526 0.40166 0.0
H879 H 0.70183 0.18585 0.39482 0.0
C880 C 0.33309 0.14226 0.35163 0.0
C881 C 0.32951 0.14475 0.33569 0.0
C882 C 0.32395 0.11685 0.33211 0.0
C883 C 0.32494 0.13225 0.3261 0.0
C884 C 0.32776 0.11434 0.34802 0.0
C885 C 0.33223 0.12692 0.35767 0.0
U886 U 0.35809 0.17818 0.36376 0.0
O887 O 0.35069 0.20174 0.37035 0.0
O888 O 0.3639 0.18751 0.38729 0.0
C889 C 0.35609 0.20051 0.38478 0.0
C890 C 0.33683 0.15559 0.3622 0.0
C891 C 0.34571 0.20615 0.39749 0.0
C892 C 0.34197 0.21226 0.42518 0.0
C893 C 0.35034 0.20472 0.41332 0.0
C894 C 0.32394 0.22243 0.40567 0.0
C895 C 0.32896 0.22158 0.4214 0.0
C896 C 0.33219 0.21483 0.39387 0.0
C897 C 0.39382 0.19057 0.33873 0.0
C898 C 0.40313 0.2159 0.32896 0.0
C899 C 0.4217 0.19508 0.33347 0.0
C900 C 0.40937 0.1852 0.33846 0.0
C901 C 0.41873 0.21055 0.32854 0.0
C902 C 0.39087 0.20608 0.33404 0.0
C903 C 0.38077 0.17964 0.34295 0.0
O904 O 0.34971 0.15452 0.37076 0.0
O905 O 0.33477 0.1697 0.3563 0.0
O906 O 0.36644 0.18464 0.34026 0.0
O907 O 0.38211 0.17204 0.35636 0.0
H908 H 0.32994 0.15641 0.33061 0.0
H909 H 0.32179 0.13477 0.31403 0.0
H910 H 0.32732 0.10266 0.35305 0.0
H911 H 0.33486 0.12467 0.36993 0.0
H912 H 0.34615 0.21146 0.43719 0.0
H913 H 0.36081 0.19831 0.41648 0.0
H914 H 0.31383 0.22936 0.40242 0.0
H915 H 0.32827 0.2163 0.38184 0.0
H916 H 0.40026 0.22759 0.32497 0.0
H917 H 0.43354 0.19059 0.3335 0.0
H918 H 0.41196 0.17328 0.34194 0.0
H919 H 0.37903 0.21062 0.33399 0.0
C920 C 0.34775 0.89011 0.33116 0.0
C921 C 0.35272 0.90582 0.33289 0.0
C922 C 0.33137 0.91468 0.3159 0.0
C923 C 0.34454 0.918 0.32544 0.0
C924 C 0.32611 0.89905 0.31464 0.0
C925 C 0.33418 0.88694 0.32213 0.0
U926 U 0.3586 0.8565 0.3602 0.0
O927 O 0.36507 0.83237 0.35479 0.0
O928 O 0.38211 0.8477 0.36682 0.0
C929 C 0.37957 0.83412 0.35999 0.0
C930 C 0.35764 0.87707 0.33709 0.0
C931 C 0.3922 0.82801 0.34982 0.0
C932 C 0.41934 0.81952 0.34702 0.0
C933 C 0.40773 0.82726 0.35553 0.0
C934 C 0.40018 0.81349 0.32675 0.0
C935 C 0.41555 0.81218 0.33274 0.0
C936 C 0.38865 0.82133 0.33515 0.0
C937 C 0.3333 0.84636 0.39608 0.0
C938 C 0.32501 0.82098 0.40655 0.0
C939 C 0.32723 0.84325 0.42388 0.0
C940 C 0.33198 0.85269 0.41118 0.0
C941 C 0.32358 0.82725 0.42171 0.0
C942 C 0.32988 0.83036 0.39394 0.0
C943 C 0.33749 0.85665 0.38259 0.0
O944 O 0.36581 0.87939 0.35007 0.0
O945 O 0.35145 0.8629 0.33627 0.0
O946 O 0.33487 0.85077 0.36859 0.0
O947 O 0.35094 0.8644 0.38358 0.0
H948 H 0.36324 0.90866 0.33958 0.0
H949 H 0.34892 0.92992 0.32657 0.0
H950 H 0.31588 0.89613 0.30755 0.0
H951 H 0.33001 0.87503 0.3204 0.0
H952 H 0.43108 0.81865 0.35194 0.0
H953 H 0.41077 0.83218 0.36685 0.0
H954 H 0.39698 0.80813 0.31567 0.0
H955 H 0.37685 0.82169 0.33033 0.0
H956 H 0.32202 0.80883 0.40426 0.0
H957 H 0.32646 0.84848 0.43538 0.0
H958 H 0.33452 0.865 0.41315 0.0
H959 H 0.33072 0.82506 0.38247 0.0
C960 C 0.68938 0.64364 0.20901 0.0
C961 C 0.68759 0.62795 0.20417 0.0
C962 C 0.70637 0.61941 0.22412 0.0
C963 C 0.69609 0.61596 0.21159 0.0
C964 C 0.7086 0.63514 0.22848 0.0
C965 C 0.7002 0.64707 0.22108 0.0
U966 U 0.67672 0.67724 0.18054 0.0
O967 O 0.65281 0.68382 0.17303 0.0
O968 O 0.66733 0.70026 0.18668 0.0
C969 C 0.65343 0.69724 0.18051 0.0
C970 C 0.67877 0.65611 0.20306 0.0
C971 C 0.63997 0.70073 0.19067 0.0
C972 C 0.62529 0.69675 0.21481 0.0
C973 C 0.63739 0.69239 0.20469 0.0
C974 C 0.61801 0.71754 0.19683 0.0
C975 C 0.61558 0.70953 0.21112 0.0
C976 C 0.63009 0.71317 0.18673 0.0
C977 C 0.70235 0.68956 0.14544 0.0
C978 C 0.69896 0.71385 0.13077 0.0
C979 C 0.71951 0.69595 0.12352 0.0
C980 C 0.71483 0.68573 0.13557 0.0
C981 C 0.7118 0.71027 0.1211 0.0
C982 C 0.69428 0.70359 0.14283 0.0
C983 C 0.69858 0.67926 0.15889 0.0
O984 O 0.6839 0.67064 0.20444 0.0
O985 O 0.67114 0.6536 0.18981 0.0
O986 O 0.68592 0.67035 0.15747 0.0
O987 O 0.69987 0.68584 0.17275 0.0
H988 H 0.67921 0.62484 0.19505 0.0
H989 H 0.69406 0.60394 0.20802 0.0
H990 H 0.71659 0.63821 0.23797 0.0
H991 H 0.7018 0.65895 0.22525 0.0
H992 H 0.62367 0.6902 0.22562 0.0
H993 H 0.64492 0.68274 0.20793 0.0
H994 H 0.61095 0.72757 0.19368 0.0
H995 H 0.63196 0.7198 0.176 0.0
H996 H 0.69263 0.72468 0.12914 0.0
H997 H 0.72956 0.69289 0.11648 0.0
H998 H 0.72125 0.67498 0.13745 0.0
H999 H 0.68458 0.70674 0.15032 0.0
C1000 C 0.32985 0.68172 0.14212 0.0
C1001 C 0.33927 0.69456 0.13758 0.0
C1002 C 0.31946 0.70247 0.11837 0.0
C1003 C 0.33415 0.70481 0.12579 0.0
C1004 C 0.31029 0.68929 0.12267 0.0
C1005 C 0.31544 0.67903 0.13446 0.0
U1006 U 0.35625 0.67395 0.1774 0.0
O1007 O 0.35022 0.66656 0.20136 0.0
O1008 O 0.36566 0.65195 0.18719 0.0
C1009 C 0.35794 0.65336 0.20041 0.0
C1010 C 0.33445 0.67176 0.15551 0.0
C1011 C 0.34962 0.63928 0.20632 0.0
C1012 C 0.32612 0.6228 0.20851 0.0
C1013 C 0.33436 0.63521 0.20125 0.0
C1014 C 0.34854 0.61813 0.2255 0.0
C1015 C 0.333 0.6144 0.22101 0.0
C1016 C 0.35675 0.63044 0.21823 0.0
C1017 C 0.38888 0.70486 0.18668 0.0
C1018 C 0.41679 0.71107 0.19038 0.0
C1019 C 0.39753 0.72241 0.20756 0.0
C1020 C 0.38549 0.71448 0.19954 0.0
C1021 C 0.41329 0.72104 0.20292 0.0
C1022 C 0.4047 0.70315 0.18228 0.0
C1023 C 0.37595 0.69798 0.177 0.0
O1024 O 0.34821 0.665 0.15447 0.0
O1025 O 0.33201 0.67796 0.16934 0.0
O1026 O 0.36172 0.69852 0.18289 0.0
O1027 O 0.37873 0.68472 0.16979 0.0
H1028 H 0.35043 0.69685 0.1434 0.0
H1029 H 0.34161 0.71471 0.12265 0.0
H1030 H 0.29884 0.68723 0.11737 0.0
H1031 H 0.30797 0.66923 0.13789 0.0
H1032 H 0.31413 0.62026 0.20486 0.0
H1033 H 0.32865 0.64193 0.19207 0.0
H1034 H 0.35424 0.61177 0.23494 0.0
H1035 H 0.36852 0.63338 0.22228 0.0
H1036 H 0.4288 0.70984 0.18647 0.0
H1037 H 0.39445 0.72981 0.21733 0.0
H1038 H 0.37348 0.71621 0.20324 0.0
H1039 H 0.4077 0.69602 0.17229 0.0
C1040 C 0.33215 0.35091 0.1454 0.0
C1041 C 0.34121 0.33807 0.14098 0.0
C1042 C 0.32186 0.33108 0.12077 0.0
C1043 C 0.33613 0.32827 0.12877 0.0
C1044 C 0.31306 0.34424 0.12502 0.0
C1045 C 0.31816 0.35403 0.13723 0.0
U1046 U 0.35906 0.36047 0.18047 0.0
O1047 O 0.3671 0.38332 0.18961 0.0
O1048 O 0.3528 0.36763 0.20437 0.0
C1049 C 0.35935 0.38159 0.20283 0.0
C1050 C 0.33674 0.3607 0.15892 0.0
C1051 C 0.3494 0.3948 0.20742 0.0
C1052 C 0.32697 0.41166 0.20288 0.0
C1053 C 0.33686 0.3997 0.19789 0.0
C1054 C 0.34221 0.41417 0.22685 0.0
C1055 C 0.32937 0.41892 0.21754 0.0
C1056 C 0.3521 0.40222 0.22184 0.0
C1057 C 0.39409 0.33243 0.18831 0.0
C1058 C 0.4107 0.33099 0.21168 0.0
C1059 C 0.41451 0.31287 0.19032 0.0
C1060 C 0.40241 0.32 0.18186 0.0
C1061 C 0.41859 0.31804 0.20546 0.0
C1062 C 0.39845 0.3381 0.20318 0.0
C1063 C 0.38034 0.33838 0.17959 0.0
O1064 O 0.33513 0.35397 0.17273 0.0
O1065 O 0.35002 0.36865 0.15758 0.0
O1066 O 0.38202 0.35197 0.1724 0.0
O1067 O 0.36667 0.33666 0.18653 0.0
H1068 H 0.35206 0.33547 0.14714 0.0
H1069 H 0.34332 0.31838 0.12569 0.0
H1070 H 0.30194 0.34667 0.1193 0.0
H1071 H 0.31098 0.36386 0.14052 0.0
H1072 H 0.31734 0.41513 0.19531 0.0
H1073 H 0.33459 0.39411 0.18671 0.0
H1074 H 0.34432 0.41929 0.23828 0.0
H1075 H 0.36169 0.39855 0.22938 0.0
H1076 H 0.41352 0.33516 0.22335 0.0
H1077 H 0.42046 0.30304 0.18514 0.0
H1078 H 0.39924 0.31547 0.17039 0.0
H1079 H 0.39213 0.34769 0.20836 0.0
C1080 C 0.64355 0.33295 0.18878 0.0
C1081 C 0.64657 0.32797 0.20425 0.0
C1082 C 0.6186 0.32291 0.20861 0.0
C1083 C 0.6343 0.32296 0.21397 0.0
C1084 C 0.61557 0.32789 0.1931 0.0
C1085 C 0.62792 0.33282 0.1833 0.0
U1086 U 0.67861 0.3598 0.17932 0.0
O1087 O 0.7025 0.35415 0.17175 0.0
O1088 O 0.68775 0.36917 0.1569 0.0
C1089 C 0.70123 0.36193 0.15846 0.0
C1090 C 0.65659 0.33793 0.17825 0.0
C1091 C 0.70747 0.35406 0.14451 0.0
C1092 C 0.70831 0.3321 0.12643 0.0
C1093 C 0.70091 0.34005 0.13869 0.0
C1094 C 0.72857 0.35229 0.12553 0.0
C1095 C 0.72244 0.33797 0.11999 0.0
C1096 C 0.72115 0.36024 0.13763 0.0
C1097 C 0.68888 0.39218 0.20969 0.0
C1098 C 0.69201 0.41972 0.21688 0.0
C1099 C 0.7109 0.40075 0.22609 0.0
C1100 C 0.70272 0.38888 0.21815 0.0
C1101 C 0.70548 0.41624 0.22583 0.0
C1102 C 0.68373 0.40778 0.20899 0.0
C1103 C 0.67896 0.3793 0.20311 0.0
O1104 O 0.65513 0.35164 0.17126 0.0
O1105 O 0.67091 0.3355 0.18356 0.0
O1106 O 0.68482 0.36514 0.20375 0.0
O1107 O 0.67138 0.38214 0.1899 0.0
H1108 H 0.65845 0.32781 0.2089 0.0
H1109 H 0.63721 0.31889 0.22569 0.0
H1110 H 0.60364 0.32814 0.18858 0.0
H1111 H 0.62524 0.33655 0.17141 0.0
H1112 H 0.70337 0.32103 0.12247 0.0
H1113 H 0.69039 0.33506 0.14392 0.0
H1114 H 0.73933 0.3572 0.12071 0.0
H1115 H 0.72639 0.37104 0.14196 0.0
H1116 H 0.68751 0.43153 0.21653 0.0
H1117 H 0.72136 0.39773 0.2327 0.0
H1118 H 0.70704 0.37703 0.21905 0.0
H1119 H 0.67301 0.41069 0.20274 0.0
C1120 C 0.63873 0.33246 0.85328 0.0
C1121 C 0.63406 0.34177 0.8405 0.0
C1122 C 0.61478 0.32181 0.83269 0.0
C1123 C 0.62216 0.33652 0.83033 0.0
C1124 C 0.61922 0.31277 0.84582 0.0
C1125 C 0.63109 0.31805 0.856 0.0
U1126 U 0.67485 0.35827 0.86188 0.0
O1127 O 0.68451 0.36647 0.8845 0.0
O1128 O 0.69846 0.35123 0.86951 0.0
C1129 C 0.69723 0.35796 0.88327 0.0
C1130 C 0.65223 0.33702 0.86317 0.0
C1131 C 0.70088 0.3478 0.89679 0.0
C1132 C 0.69667 0.32367 0.91158 0.0
C1133 C 0.69229 0.3339 0.89946 0.0
C1134 C 0.71795 0.34139 0.91882 0.0
C1135 C 0.7097 0.32718 0.92127 0.0
C1136 C 0.71359 0.35158 0.90666 0.0
C1137 C 0.68594 0.39127 0.83212 0.0
C1138 C 0.68953 0.41874 0.82463 0.0
C1139 C 0.70827 0.39951 0.81616 0.0
C1140 C 0.69985 0.38776 0.82408 0.0
C1141 C 0.70304 0.41507 0.81604 0.0
C1142 C 0.681 0.40693 0.83249 0.0
C1143 C 0.67568 0.37856 0.83853 0.0
O1144 O 0.66604 0.33449 0.85693 0.0
O1145 O 0.65141 0.35071 0.8701 0.0
O1146 O 0.66842 0.38127 0.85182 0.0
O1147 O 0.681 0.3642 0.83759 0.0
H1148 H 0.63988 0.35291 0.8382 0.0
H1149 H 0.6189 0.34387 0.82046 0.0
H1150 H 0.61399 0.30131 0.8479 0.0
H1151 H 0.63463 0.31067 0.86576 0.0
H1152 H 0.68996 0.31291 0.91325 0.0
H1153 H 0.6824 0.33081 0.89196 0.0
H1154 H 0.72816 0.34437 0.92591 0.0
H1155 H 0.72038 0.36225 0.90473 0.0
H1156 H 0.68517 0.43061 0.82469 0.0
H1157 H 0.71877 0.39635 0.80983 0.0
H1158 H 0.70404 0.37585 0.82347 0.0
H1159 H 0.67025 0.40998 0.83842 0.0
C1160 C 0.6453 0.68709 0.83418 0.0
C1161 C 0.62966 0.6857 0.83943 0.0
C1162 C 0.62095 0.70425 0.81938 0.0
C1163 C 0.61761 0.69429 0.83216 0.0
C1164 C 0.63667 0.70607 0.81457 0.0
C1165 C 0.64865 0.69757 0.82181 0.0
U1166 U 0.67886 0.67452 0.86277 0.0
O1167 O 0.68568 0.65076 0.87023 0.0
O1168 O 0.70214 0.66549 0.8568 0.0
C1169 C 0.69924 0.65159 0.86291 0.0
C1170 C 0.65783 0.67652 0.84008 0.0
C1171 C 0.70307 0.63827 0.85278 0.0
C1172 C 0.6987 0.6229 0.82919 0.0
C1173 C 0.69408 0.6348 0.83936 0.0
C1174 C 0.72113 0.61756 0.84594 0.0
C1175 C 0.71244 0.61428 0.83221 0.0
C1176 C 0.71649 0.62944 0.8561 0.0
C1177 C 0.69078 0.69992 0.89802 0.0
C1178 C 0.71534 0.69687 0.91245 0.0
C1179 C 0.69688 0.7167 0.92024 0.0
C1180 C 0.68667 0.71203 0.90816 0.0
C1181 C 0.71148 0.70936 0.92239 0.0
C1182 C 0.70508 0.69218 0.90038 0.0
C1183 C 0.6805 0.6962 0.88452 0.0
O1184 O 0.67239 0.68173 0.83884 0.0
O1185 O 0.65527 0.66879 0.85326 0.0
O1186 O 0.67166 0.68351 0.88582 0.0
O1187 O 0.68715 0.69765 0.8707 0.0
H1188 H 0.62661 0.6776 0.84879 0.0
H1189 H 0.60561 0.69258 0.83607 0.0
H1190 H 0.63967 0.71381 0.80489 0.0
H1191 H 0.66049 0.69886 0.81733 0.0
H1192 H 0.69161 0.62058 0.81884 0.0
H1193 H 0.68368 0.64151 0.8366 0.0
H1194 H 0.73188 0.61137 0.84856 0.0
H1195 H 0.72363 0.63201 0.86637 0.0
H1196 H 0.72639 0.69084 0.91388 0.0
H1197 H 0.6936 0.72649 0.92749 0.0
H1198 H 0.67571 0.71818 0.90647 0.0
H1199 H 0.70844 0.68277 0.89267 0.0
C1200 C 0.32846 0.64576 0.85111 0.0
C1201 C 0.33003 0.63005 0.85595 0.0
C1202 C 0.31323 0.62124 0.83435 0.0
C1203 C 0.32258 0.61789 0.84758 0.0
C1204 C 0.31217 0.63687 0.82919 0.0
C1205 C 0.31966 0.64896 0.83744 0.0
U1206 U 0.35724 0.67971 0.86254 0.0
O1207 O 0.35154 0.70367 0.86939 0.0
O1208 O 0.36379 0.68841 0.88612 0.0
C1209 C 0.35678 0.7019 0.88382 0.0
C1210 C 0.33428 0.65878 0.86122 0.0
C1211 C 0.34657 0.70779 0.89655 0.0
C1212 C 0.34283 0.71371 0.92429 0.0
C1213 C 0.35118 0.70623 0.91238 0.0
C1214 C 0.3249 0.72415 0.90483 0.0
C1215 C 0.32985 0.7231 0.92057 0.0
C1216 C 0.33313 0.71661 0.89299 0.0
C1217 C 0.39315 0.69052 0.83732 0.0
C1218 C 0.40357 0.71605 0.82933 0.0
C1219 C 0.42091 0.69384 0.83084 0.0
C1220 C 0.40825 0.68428 0.83564 0.0
C1221 C 0.41872 0.70985 0.82751 0.0
C1222 C 0.39099 0.70655 0.83425 0.0
C1223 C 0.37967 0.68009 0.84144 0.0
O1224 O 0.34731 0.65657 0.86933 0.0
O1225 O 0.33332 0.673 0.85531 0.0
O1226 O 0.3656 0.68584 0.83896 0.0
O1227 O 0.38075 0.67225 0.85474 0.0
H1228 H 0.33654 0.62719 0.86653 0.0
H1229 H 0.32354 0.60596 0.85187 0.0
H1230 H 0.30521 0.6398 0.81893 0.0
H1231 H 0.31808 0.66088 0.83335 0.0
H1232 H 0.34696 0.71275 0.9363 0.0
H1233 H 0.36159 0.69968 0.91549 0.0
H1234 H 0.31482 0.73114 0.90163 0.0
H1235 H 0.32921 0.71816 0.88097 0.0
H1236 H 0.40126 0.72821 0.8266 0.0
H1237 H 0.43241 0.68866 0.82978 0.0
H1238 H 0.41023 0.67196 0.8379 0.0
H1239 H 0.37951 0.71177 0.83537 0.0
C1240 C 0.34817 0.39484 0.83479 0.0
C1241 C 0.33201 0.39213 0.83231 0.0
C1242 C 0.32816 0.41975 0.82582 0.0
C1243 C 0.32217 0.40439 0.82782 0.0
C1244 C 0.34431 0.42248 0.82858 0.0
C1245 C 0.35419 0.41015 0.83296 0.0
U1246 U 0.36112 0.35854 0.85859 0.0
O1247 O 0.3694 0.33585 0.85014 0.0
O1248 O 0.38496 0.3505 0.86472 0.0
C1249 C 0.38351 0.33772 0.85626 0.0
C1250 C 0.35901 0.38178 0.8383 0.0
C1251 C 0.39667 0.33414 0.84576 0.0
C1252 C 0.41027 0.33713 0.82088 0.0
C1253 C 0.39853 0.34181 0.83127 0.0
C1254 C 0.41867 0.31741 0.83958 0.0
C1255 C 0.42034 0.32469 0.8248 0.0
C1256 C 0.40695 0.32209 0.84993 0.0
C1257 C 0.3363 0.34372 0.89366 0.0
C1258 C 0.32366 0.31947 0.90257 0.0
C1259 C 0.33548 0.33703 0.92157 0.0
C1260 C 0.33991 0.34728 0.90939 0.0
C1261 C 0.32724 0.32299 0.91832 0.0
C1262 C 0.32811 0.32967 0.89043 0.0
C1263 C 0.34006 0.3551 0.88088 0.0
O1264 O 0.36726 0.38278 0.85137 0.0
O1265 O 0.35355 0.36755 0.83562 0.0
O1266 O 0.3379 0.35019 0.86642 0.0
O1267 O 0.35296 0.36365 0.88255 0.0
H1268 H 0.32697 0.38047 0.83355 0.0
H1269 H 0.30989 0.40169 0.82553 0.0
H1270 H 0.34934 0.43414 0.82737 0.0
H1271 H 0.36662 0.41255 0.83475 0.0
H1272 H 0.41133 0.34312 0.80969 0.0
H1273 H 0.39069 0.35116 0.82786 0.0
H1274 H 0.42601 0.30766 0.84294 0.0
H1275 H 0.40564 0.31598 0.86104 0.0
H1276 H 0.31703 0.30897 0.89958 0.0
H1277 H 0.33853 0.3401 0.93353 0.0
H1278 H 0.34603 0.3581 0.91232 0.0
H1279 H 0.32485 0.32661 0.87852 0.0
H1280 H 0.27101 0.26841 0.96567 0.0
H1281 H 0.29113 0.28361 1.00916 0.0
H1282 H 0.24956 0.25352 1.00852 0.0
H1283 H 0.25664 0.24657 0.03187 0.0
H1284 H 0.2679 0.26893 0.07522 0.0
H1285 H 0.28376 0.29006 0.03239 0.0
C1286 C 0.2709 0.26834 0.97839 0.0
C1287 C 0.25935 0.25957 0.98627 0.0
C1288 C 0.2821 0.27728 0.9866 0.0
C1289 C 0.28198 0.27709 1.00312 0.0
C1290 C 0.27044 0.26838 1.01158 0.0
C1291 C 0.25906 0.25977 1.00277 0.0
C1292 C 0.27008 0.26844 0.02938 0.0
C1293 C 0.2621 0.25638 0.03783 0.0
C1294 C 0.26089 0.25687 0.05425 0.0
C1295 C 0.26865 0.26878 0.06252 0.0
C1296 C 0.27743 0.28039 0.05472 0.0
C1297 C 0.27761 0.28052 0.03818 0.0
H1298 H 0.76864 0.27085 0.07598 0.0
H1299 H 0.78013 0.24848 0.03294 0.0
H1300 H 0.75349 0.29152 0.03271 0.0
H1301 H 0.74562 0.28418 1.00978 0.0
H1302 H 0.76594 0.26988 0.96646 0.0
H1303 H 0.78739 0.25553 1.00957 0.0
C1304 C 0.76828 0.2708 0.06325 0.0
C1305 C 0.75977 0.28227 0.05519 0.0
C1306 C 0.77587 0.25887 0.05521 0.0
C1307 C 0.77471 0.25821 0.03878 0.0
C1308 C 0.76683 0.27001 0.03012 0.0
C1309 C 0.75937 0.28203 0.03867 0.0
C1310 C 0.76648 0.26981 1.01235 0.0
C1311 C 0.75482 0.27803 1.0038 0.0
C1312 C 0.75471 0.27834 0.98729 0.0
C1313 C 0.76581 0.26957 0.97918 0.0
C1314 C 0.77731 0.26103 0.9872 0.0
C1315 C 0.77792 0.26158 1.00369 0.0
H1316 H 0.7676 0.76838 0.96641 0.0
H1317 H 0.75454 0.74745 1.01002 0.0
H1318 H 0.78223 0.79056 1.009 0.0
H1319 H 0.78834 0.78554 0.03291 0.0
H1320 H 0.76908 0.7688 0.07615 0.0
H1321 H 0.74825 0.75347 0.03315 0.0
C1322 C 0.76788 0.76857 0.97912 0.0
C1323 C 0.77628 0.78051 0.98683 0.0
C1324 C 0.75964 0.75698 0.98748 0.0
C1325 C 0.76029 0.75706 1.00397 0.0
C1326 C 0.76839 0.76907 1.01233 0.0
C1327 C 0.7763 0.78083 1.00337 0.0
C1328 C 0.76845 0.76928 0.03019 0.0
C1329 C 0.77948 0.77853 0.03879 0.0
C1330 C 0.77954 0.77859 0.05532 0.0
C1331 C 0.76883 0.76899 0.06343 0.0
C1332 C 0.75779 0.75967 0.05543 0.0
C1333 C 0.75744 0.76014 0.03892 0.0
H1334 H 0.26611 0.76708 0.07676 0.0
H1335 H 0.27999 0.74737 0.03306 0.0
H1336 H 0.25358 0.79048 0.03408 0.0
H1337 H 0.24646 0.78454 1.01061 0.0
H1338 H 0.26757 0.77188 0.96729 0.0
H1339 H 0.28791 0.75546 1.01029 0.0
C1340 C 0.26626 0.76762 0.06405 0.0
C1341 C 0.25833 0.77969 0.05627 0.0
C1342 C 0.27445 0.75625 0.05574 0.0
C1343 C 0.27422 0.75668 0.03923 0.0
C1344 C 0.26681 0.76902 0.0309 0.0
C1345 C 0.25912 0.78064 0.03979 0.0
C1346 C 0.26708 0.76978 1.01313 0.0
C1347 C 0.25581 0.7786 1.00465 0.0
C1348 C 0.25618 0.77967 0.98819 0.0
C1349 C 0.26748 0.77127 0.97999 0.0
C1350 C 0.27877 0.7623 0.98788 0.0
C1351 C 0.27865 0.7618 1.00441 0.0
H1352 H 0.07339 0.26772 0.27304 0.0
H1353 H 0.03092 0.2553 0.2487 0.0
H1354 H 0.02945 0.28015 0.29292 0.0
H1355 H 1.00587 0.28602 0.2867 0.0
H1356 H 0.9636 0.26446 0.26961 0.0
H1357 H 1.00775 0.24702 0.25433 0.0
C1358 C 0.06066 0.26774 0.27226 0.0
C1359 C 0.05215 0.27535 0.28388 0.0
C1360 C 0.05306 0.26024 0.25969 0.0
C1361 C 0.0365 0.26045 0.25888 0.0
C1362 C 0.02742 0.26747 0.27082 0.0
C1363 C 0.03564 0.27493 0.28329 0.0
C1364 C 1.00957 0.26677 0.2704 0.0
C1365 C 1.0004 0.27704 0.27958 0.0
C1366 C 0.98388 0.27572 0.27989 0.0
C1367 C 0.97635 0.26484 0.27008 0.0
C1368 C 0.98492 0.25476 0.2606 0.0
C1369 C 1.00145 0.25553 0.26108 0.0
H1370 H 0.76561 0.96331 0.27289 0.0
H1371 H 0.78902 1.00639 0.26172 0.0
H1372 H 0.7453 1.00639 0.28777 0.0
H1373 H 0.7533 0.02959 0.29575 0.0
H1374 H 0.76831 0.07259 0.27391 0.0
H1375 H 0.78175 0.02924 0.25368 0.0
C1376 C 0.76583 0.97601 0.27324 0.0
C1377 C 0.75424 0.98394 0.28154 0.0
C1378 C 0.77807 0.9841 0.26577 0.0
C1379 C 0.77903 1.00049 0.267 0.0
C1380 C 0.76715 1.00905 0.27471 0.0
C1381 C 0.75479 1.00044 0.28201 0.0
C1382 C 0.76747 0.02678 0.27473 0.0
C1383 C 0.75941 0.03549 0.28627 0.0
C1384 C 0.75954 0.05203 0.28598 0.0
C1385 C 0.76804 0.05989 0.27421 0.0
C1386 C 0.77639 0.05168 0.2629 0.0
C1387 C 0.77583 0.03524 0.26302 0.0
H1388 H 0.07211 0.76674 0.27204 0.0
H1389 H 0.02955 0.75043 0.29349 0.0
H1390 H 0.02832 0.78137 0.25277 0.0
H1391 H 1.00556 0.78786 0.26031 0.0
H1392 H 0.96219 0.76603 0.27372 0.0
H1393 H 1.00535 0.74515 0.28822 0.0
C1394 C 0.05936 0.76655 0.27247 0.0
C1395 C 0.05093 0.77558 0.2617 0.0
C1396 C 0.05168 0.75694 0.28345 0.0
C1397 C 0.03514 0.75734 0.2844 0.0
C1398 C 0.02611 0.76628 0.27352 0.0
C1399 C 0.03442 0.77496 0.26185 0.0
C1400 C 1.00825 0.7664 0.27407 0.0
C1401 C 0.99963 0.77821 0.26611 0.0
C1402 C 0.98308 0.77796 0.26563 0.0
C1403 C 0.97494 0.76626 0.27395 0.0
C1404 C 0.98295 0.75468 0.28241 0.0
C1405 C 0.99952 0.75466 0.28226 0.0
H1406 H 0.26883 0.07205 0.27438 0.0
H1407 H 0.25205 0.03004 0.25252 0.0
H1408 H 0.28314 0.028 0.29315 0.0
H1409 H 0.28981 1.0054 0.28463 0.0
H1410 H 0.26778 0.96273 0.26956 0.0
H1411 H 0.24614 1.00614 0.25796 0.0
C1412 C 0.26846 0.05935 0.27385 0.0
C1413 C 0.27746 0.05074 0.28451 0.0
C1414 C 0.25875 0.05191 0.26278 0.0
C1415 C 0.25898 0.03545 0.2617 0.0
C1416 C 0.26784 0.02626 0.27249 0.0
C1417 C 0.2767 0.0343 0.2842 0.0
C1418 C 0.26786 1.00849 0.2716 0.0
C1419 C 0.28003 0.99966 0.2788 0.0
C1420 C 0.28002 0.98318 0.27823 0.0
C1421 C 0.26809 0.97543 0.26982 0.0
C1422 C 0.25623 0.9837 0.26206 0.0
C1423 C 0.25584 1.00012 0.26343 0.0
H1424 H 0.07232 0.76414 0.77296 0.0
H1425 H 0.02875 0.75188 0.75074 0.0
H1426 H 0.02947 0.77766 0.79453 0.0
H1427 H 1.00667 0.7855 0.7883 0.0
H1428 H 0.96249 0.76798 0.77139 0.0
H1429 H 1.00464 0.74659 0.75574 0.0
C1430 C 0.05957 0.76429 0.77289 0.0
C1431 C 0.0517 0.77217 0.78478 0.0
C1432 C 0.05129 0.75667 0.76086 0.0
C1433 C 0.03474 0.75722 0.76059 0.0
C1434 C 0.02629 0.76498 0.77253 0.0
C1435 C 0.03516 0.77218 0.78474 0.0
C1436 C 1.00845 0.76578 0.77222 0.0
C1437 C 1.00035 0.77697 0.78131 0.0
C1438 C 0.98382 0.77766 0.7813 0.0
C1439 C 0.97524 0.76764 0.77142 0.0
C1440 C 0.98277 0.7568 0.76188 0.0
C1441 C 0.99924 0.75553 0.76272 0.0
H1442 H 0.26342 0.96115 0.77515 0.0
H1443 H 0.28611 1.00434 0.76261 0.0
H1444 H 0.24274 1.00426 0.78915 0.0
H1445 H 0.25001 0.02778 0.79632 0.0
H1446 H 0.26525 0.07058 0.77455 0.0
H1447 H 0.27901 0.02708 0.75462 0.0
C1448 C 0.26356 0.97386 0.77512 0.0
C1449 C 0.25192 0.98185 0.78329 0.0
C1450 C 0.27563 0.98193 0.76729 0.0
C1451 C 0.27631 0.99839 0.76815 0.0
C1452 C 0.26444 1.00697 0.77585 0.0
C1453 C 0.25227 0.99835 0.78343 0.0
C1454 C 0.2646 0.02474 0.7756 0.0
C1455 C 0.25632 0.03355 0.78689 0.0
C1456 C 0.25598 0.05004 0.78608 0.0
C1457 C 0.26479 0.05787 0.77456 0.0
C1458 C 0.27353 0.04962 0.76356 0.0
C1459 C 0.27298 0.03315 0.76385 0.0
H1460 H 0.06987 0.26436 0.7735 0.0
H1461 H 0.02612 0.2512 0.7944 0.0
H1462 H 0.02717 0.2794 0.75183 0.0
H1463 H 1.00402 0.28664 0.7581 0.0
H1464 H 0.96 0.26612 0.77165 0.0
H1465 H 1.00249 0.24513 0.78777 0.0
C1466 C 0.05714 0.26472 0.77342 0.0
C1467 C 0.04941 0.27326 0.76167 0.0
C1468 C 0.04876 0.2564 0.78492 0.0
C1469 C 0.03223 0.25713 0.78497 0.0
C1470 C 0.02388 0.26554 0.77321 0.0
C1471 C 0.03285 0.27342 0.76148 0.0
C1472 C 1.00602 0.26587 0.77301 0.0
C1473 C 0.99778 0.2774 0.76426 0.0
C1474 C 0.98123 0.27738 0.76349 0.0
C1475 C 0.97274 0.26615 0.77211 0.0
C1476 C 0.98039 0.25478 0.78115 0.0
C1477 C 0.99694 0.25454 0.78137 0.0
H1478 H 0.76625 0.07356 0.77248 0.0
H1479 H 0.75378 0.03028 0.75028 0.0
H1480 H 0.78272 0.03061 0.79235 0.0
H1481 H 0.79123 1.0082 0.78344 0.0
H1482 H 0.7699 0.96442 0.77058 0.0
H1483 H 0.74659 1.00695 0.75855 0.0
C1484 C 0.76692 0.0609 0.77205 0.0
C1485 C 0.77581 0.05299 0.78341 0.0
C1486 C 0.75871 0.05276 0.76029 0.0
C1487 C 0.75968 0.03631 0.7598 0.0
C1488 C 0.76837 0.02786 0.77124 0.0
C1489 C 0.77638 0.03652 0.78306 0.0
C1490 C 0.76887 1.01015 0.77098 0.0
C1491 C 0.78145 1.00193 0.77814 0.0
C1492 C 0.78178 0.98543 0.7782 0.0
C1493 C 0.76963 0.97711 0.77068 0.0
C1494 C 0.75711 0.98478 0.76332 0.0
C1495 C 0.75669 1.00125 0.76368 0.0
H1496 H 0.26898 0.76867 0.46822 0.0
H1497 H 0.25428 0.74821 0.51164 0.0
H1498 H 0.28261 0.79097 0.51091 0.0
H1499 H 0.28775 0.78661 0.53499 0.0
H1500 H 0.26835 0.76951 0.57799 0.0
H1501 H 0.24823 0.75383 0.53481 0.0
C1502 C 0.26903 0.76866 0.48095 0.0
C1503 C 0.2774 0.78044 0.48884 0.0
C1504 C 0.2602 0.7574 0.48916 0.0
C1505 C 0.26036 0.75767 0.50568 0.0
C1506 C 0.26837 0.76968 0.51416 0.0
C1507 C 0.27662 0.78126 0.5053 0.0
C1508 C 0.26816 0.77001 0.53202 0.0
C1509 C 0.27893 0.77946 0.54075 0.0
C1510 C 0.27883 0.77952 0.55728 0.0
C1511 C 0.26822 0.76972 0.56527 0.0
C1512 C 0.25745 0.76021 0.55714 0.0
C1513 C 0.25724 0.76068 0.54064 0.0
H1514 H 0.76949 0.76751 0.57677 0.0
H1515 H 0.78153 0.74571 0.53352 0.0
H1516 H 0.75572 0.78923 0.53353 0.0
H1517 H 0.74728 0.78156 0.51075 0.0
H1518 H 0.76791 0.76815 0.46727 0.0
H1519 H 0.78945 0.75356 0.51031 0.0
C1520 C 0.76918 0.76752 0.56405 0.0
C1521 C 0.76108 0.77932 0.55602 0.0
C1522 C 0.77686 0.75567 0.55596 0.0
C1523 C 0.77613 0.75539 0.53948 0.0
C1524 C 0.76866 0.76752 0.5309 0.0
C1525 C 0.76136 0.7796 0.53951 0.0
C1526 C 0.7684 0.76756 0.51314 0.0
C1527 C 0.7566 0.77568 0.50467 0.0
C1528 C 0.75648 0.77616 0.48817 0.0
C1529 C 0.76776 0.7677 0.47999 0.0
C1530 C 0.77939 0.75923 0.48793 0.0
C1531 C 0.77996 0.75958 0.50443 0.0
H1532 H 0.76652 0.27311 0.46469 0.0
H1533 H 0.74637 0.25703 0.50773 0.0
H1534 H 0.78765 0.28745 0.50803 0.0
H1535 H 0.78091 0.29347 0.53155 0.0
H1536 H 0.76819 0.27043 0.57435 0.0
H1537 H 0.75346 0.25018 0.53088 0.0
C1538 C 0.76693 0.27257 0.4774 0.0
C1539 C 0.77817 0.28157 0.48553 0.0
C1540 C 0.75576 0.26338 0.48536 0.0
C1541 C 0.75555 0.26364 0.50188 0.0
C1542 C 0.76701 0.27222 0.51061 0.0
C1543 C 0.77837 0.28106 0.50205 0.0
C1544 C 0.76721 0.27184 0.52844 0.0
C1545 C 0.77517 0.28364 0.53727 0.0
C1546 C 0.776 0.28282 0.55376 0.0
C1547 C 0.76786 0.27084 0.56163 0.0
C1548 C 0.75926 0.25942 0.55342 0.0
C1549 C 0.75948 0.25961 0.53691 0.0
H1550 H 0.2654 0.26823 0.57725 0.0
H1551 H 0.25499 0.29209 0.53442 0.0
H1552 H 0.27953 0.24783 0.53382 0.0
H1553 H 0.28815 0.25583 0.51104 0.0
H1554 H 0.26772 0.27182 0.46786 0.0
H1555 H 0.24721 0.2856 0.51112 0.0
C1556 C 0.26577 0.26848 0.56453 0.0
C1557 C 0.27371 0.25676 0.55644 0.0
C1558 C 0.25867 0.2809 0.55657 0.0
C1559 C 0.25995 0.28196 0.54018 0.0
C1560 C 0.26732 0.27002 0.53146 0.0
C1561 C 0.27414 0.25741 0.53992 0.0
C1562 C 0.26761 0.27057 0.51371 0.0
C1563 C 0.27899 0.26225 0.50507 0.0
C1564 C 0.27898 0.26247 0.48853 0.0
C1565 C 0.26774 0.27146 0.48057 0.0
C1566 C 0.25664 0.28017 0.4887 0.0
C1567 C 0.25642 0.27942 0.50517 0.0
H1568 H 0.76731 0.46283 0.76852 0.0
H1569 H 0.74435 0.50519 0.7811 0.0
H1570 H 0.78825 0.5066 0.75534 0.0
H1571 H 0.78216 0.53012 0.74913 0.0
H1572 H 0.76751 0.57219 0.77125 0.0
H1573 H 0.75078 0.5282 0.78912 0.0
C1574 C 0.7669 0.47552 0.76839 0.0
C1575 C 0.77869 0.48397 0.76055 0.0
C1576 C 0.75465 0.48312 0.77604 0.0
C1577 C 0.75429 0.49961 0.77576 0.0
C1578 C 0.76635 0.50865 0.76843 0.0
C1579 C 0.77852 0.50044 0.7608 0.0
C1580 C 0.76635 0.52642 0.76896 0.0
C1581 C 0.77543 0.53556 0.75826 0.0
C1582 C 0.7763 0.55197 0.75945 0.0
C1583 C 0.76704 0.55951 0.77053 0.0
C1584 C 0.75746 0.551 0.7809 0.0
C1585 C 0.75758 0.53451 0.78043 0.0
H1586 H 0.26504 0.57314 0.77116 0.0
H1587 H 0.25078 0.52935 0.7513 0.0
H1588 H 0.28042 0.53066 0.79292 0.0
H1589 H 0.28826 0.50771 0.78535 0.0
H1590 H 0.2666 0.46383 0.77396 0.0
H1591 H 0.244 0.50618 0.75968 0.0
C1592 C 0.2653 0.56045 0.77142 0.0
C1593 C 0.27406 0.55283 0.78309 0.0
C1594 C 0.25657 0.55203 0.76026 0.0
C1595 C 0.2571 0.53556 0.76043 0.0
C1596 C 0.26587 0.52736 0.77201 0.0
C1597 C 0.27418 0.53633 0.78341 0.0
C1598 C 0.26611 0.50961 0.7724 0.0
C1599 C 0.27844 0.50146 0.78008 0.0
C1600 C 0.2782 0.48502 0.7812 0.0
C1601 C 0.2662 0.47653 0.77373 0.0
C1602 C 0.25407 0.48407 0.76558 0.0
C1603 C 0.25391 0.50057 0.76526 0.0
H1604 H 0.26609 0.46153 0.27003 0.0
H1605 H 0.24451 0.50423 0.28381 0.0
H1606 H 0.28828 0.50507 0.25789 0.0
H1607 H 0.282 0.52859 0.2513 0.0
H1608 H 0.26705 0.57092 0.27283 0.0
H1609 H 0.25181 0.52706 0.29225 0.0
C1610 C 0.26595 0.47423 0.26999 0.0
C1611 C 0.27798 0.48251 0.26229 0.0
C1612 C 0.25406 0.48198 0.27802 0.0
C1613 C 0.25423 0.49848 0.27824 0.0
C1614 C 0.26651 0.50733 0.27106 0.0
C1615 C 0.27849 0.49897 0.2633 0.0
C1616 C 0.26672 0.52509 0.27157 0.0
C1617 C 0.27545 0.53413 0.26051 0.0
C1618 C 0.27609 0.55059 0.26133 0.0
C1619 C 0.26694 0.55821 0.27245 0.0
C1620 C 0.25788 0.54975 0.28328 0.0
C1621 C 0.25825 0.53328 0.2832 0.0
H1622 H 0.76605 0.57298 0.27725 0.0
H1623 H 0.75235 0.53044 0.2544 0.0
H1624 H 0.78302 0.52958 0.29534 0.0
H1625 H 0.79075 0.50732 0.28662 0.0
H1626 H 0.77013 0.46387 0.27212 0.0
H1627 H 0.74648 0.50648 0.26097 0.0
C1628 C 0.76635 0.56029 0.27667 0.0
C1629 C 0.77575 0.55209 0.28734 0.0
C1630 C 0.75752 0.55252 0.26512 0.0
C1631 C 0.75875 0.53614 0.26379 0.0
C1632 C 0.76794 0.52733 0.2746 0.0
C1633 C 0.77632 0.53567 0.28644 0.0
C1634 C 0.76858 0.5096 0.27379 0.0
C1635 C 0.78107 0.50124 0.28096 0.0
C1636 C 0.7815 0.48477 0.28062 0.0
C1637 C 0.76965 0.47654 0.27259 0.0
C1638 C 0.75715 0.48432 0.26529 0.0
C1639 C 0.75658 0.50078 0.26607 0.0
H1640 H 0.46345 0.26658 0.76755 0.0
H1641 H 0.50708 0.28762 0.78176 0.0
H1642 H 0.50643 0.24691 0.75154 0.0
H1643 H 0.53015 0.25429 0.74524 0.0
H1644 H 0.57325 0.26706 0.76842 0.0
H1645 H 0.5298 0.27982 0.7891 0.0
C1646 C 0.4762 0.26683 0.76729 0.0
C1647 C 0.48409 0.2559 0.75812 0.0
C1648 C 0.48447 0.27803 0.77611 0.0
C1649 C 0.50101 0.27834 0.77554 0.0
C1650 C 0.50946 0.26711 0.76687 0.0
C1651 C 0.50064 0.25592 0.75812 0.0
C1652 C 0.52729 0.26703 0.76713 0.0
C1653 C 0.53603 0.25968 0.75514 0.0
C1654 C 0.55261 0.25955 0.75556 0.0
C1655 C 0.56051 0.26731 0.76779 0.0
C1656 C 0.55231 0.27508 0.77952 0.0
C1657 C 0.53581 0.27441 0.77946 0.0
H1658 H 0.57446 0.76463 0.76733 0.0
H1659 H 0.53196 0.75135 0.79055 0.0
H1660 H 0.53084 0.78136 0.74918 0.0
H1661 H 0.50854 0.789 0.75745 0.0
H1662 H 0.46497 0.76925 0.77343 0.0
H1663 H 0.50768 0.74624 0.78531 0.0
C1664 C 0.56173 0.76497 0.76789 0.0
C1665 C 0.55347 0.77421 0.75712 0.0
C1666 C 0.55398 0.75627 0.77953 0.0
C1667 C 0.53757 0.75761 0.78102 0.0
C1668 C 0.52867 0.76671 0.7702 0.0
C1669 C 0.53698 0.77482 0.75815 0.0
C1670 C 0.51088 0.76755 0.77129 0.0
C1671 C 0.50245 0.77972 0.76369 0.0
C1672 C 0.4859 0.78026 0.76411 0.0
C1673 C 0.47771 0.7691 0.77312 0.0
C1674 C 0.48561 0.75715 0.78107 0.0
C1675 C 0.50204 0.75609 0.77972 0.0
H1676 H 0.4609 0.76572 0.26789 0.0
H1677 H 0.50419 0.77605 0.29161 0.0
H1678 H 0.50405 0.7527 0.24653 0.0
H1679 H 0.52715 0.74478 0.25314 0.0
H1680 H 0.57067 0.76452 0.26961 0.0
H1681 H 0.52759 0.78369 0.28565 0.0
C1682 C 0.47362 0.76533 0.26828 0.0
C1683 C 0.48161 0.75791 0.25614 0.0
C1684 C 0.48171 0.77219 0.2809 0.0
C1685 C 0.49824 0.77141 0.28138 0.0
C1686 C 0.50683 0.76444 0.26907 0.0
C1687 C 0.49815 0.75776 0.25644 0.0
C1688 C 0.52465 0.76427 0.26933 0.0
C1689 C 0.53319 0.75356 0.26009 0.0
C1690 C 0.54976 0.75375 0.25992 0.0
C1691 C 0.55792 0.76437 0.26955 0.0
C1692 C 0.54992 0.77482 0.27913 0.0
C1693 C 0.5334 0.77494 0.27875 0.0
H1694 H 0.57323 0.26876 0.2674 0.0
H1695 H 0.52936 0.28387 0.2486 0.0
H1696 H 0.53094 0.25319 0.28956 0.0
H1697 H 0.5069 0.24831 0.28574 0.0
H1698 H 0.46321 0.26809 0.27181 0.0
H1699 H 0.50565 0.28838 0.25395 0.0
C1700 C 0.56048 0.26875 0.26798 0.0
C1701 C 0.55285 0.25944 0.27921 0.0
C1702 C 0.552 0.27782 0.25727 0.0
C1703 C 0.53546 0.27733 0.25758 0.0
C1704 C 0.52718 0.26865 0.26929 0.0
C1705 C 0.53634 0.25992 0.28026 0.0
C1706 C 0.50926 0.26855 0.26996 0.0
C1707 C 0.5009 0.25733 0.27923 0.0
C1708 C 0.48441 0.25754 0.28033 0.0
C1709 C 0.47596 0.26828 0.27132 0.0
C1710 C 0.4836 0.27896 0.26137 0.0
C1711 C 0.50017 0.2795 0.2612 0.0
H1712 H 0.2342 0.20146 0.09592 0.0
H1713 H 0.20492 0.23882 0.11252 0.0
H1714 H 0.21654 0.25671 0.09337 0.0
H1715 H 0.23632 0.26237 0.07318 0.0
H1716 H 0.26481 0.22513 0.05553 0.0
H1717 H 0.25187 0.20645 0.07348 0.0
C1718 C 0.23009 0.21341 0.09517 0.0
C1719 C 0.21888 0.21878 0.10598 0.0
C1720 C 0.23668 0.22368 0.08391 0.0
C1721 C 0.21385 0.2344 0.10476 0.0
C1722 C 0.2204 0.24466 0.0937 0.0
C1723 C 0.2395 0.2501 0.07314 0.0
C1724 C 0.25152 0.24509 0.06317 0.0
C1725 C 0.23205 0.23952 0.08346 0.0
C1726 C 0.25553 0.22919 0.06309 0.0
C1727 C 0.24821 0.21857 0.07341 0.0
H1728 H 0.80231 0.20307 0.09597 0.0
H1729 H 0.82948 0.24119 0.11603 0.0
H1730 H 0.81811 0.25933 0.09709 0.0
H1731 H 0.79923 0.2648 0.07596 0.0
H1732 H 0.77266 0.22691 0.05508 0.0
H1733 H 0.78537 0.20815 0.07289 0.0
C1734 C 0.806 0.21527 0.09603 0.0
C1735 C 0.81656 0.22074 0.10767 0.0
C1736 C 0.79953 0.2257 0.08493 0.0
C1737 C 0.82107 0.23667 0.10754 0.0
C1738 C 0.81466 0.24707 0.09662 0.0
C1739 C 0.79637 0.2524 0.07523 0.0
C1740 C 0.78497 0.24721 0.06436 0.0
C1741 C 0.80366 0.24178 0.08549 0.0
C1742 C 0.78144 0.23113 0.06335 0.0
C1743 C 0.78863 0.22045 0.07359 0.0
H1744 H 0.81129 0.83232 0.09535 0.0
H1745 H 0.82501 0.79244 0.12346 0.0
H1746 H 0.81384 0.77474 0.10391 0.0
H1747 H 0.79823 0.77053 0.07996 0.0
H1748 H 0.78454 0.8101 0.05159 0.0
H1749 H 0.79814 0.82792 0.06977 0.0
C1750 C 0.81213 0.81976 0.09708 0.0
C1751 C 0.81875 0.81379 0.11109 0.0
C1752 C 0.80571 0.80956 0.0857 0.0
C1753 C 0.81962 0.79743 0.11306 0.0
C1754 C 0.81332 0.78727 0.10181 0.0
C1755 C 0.79842 0.78305 0.07766 0.0
C1756 C 0.79028 0.78901 0.06453 0.0
C1757 C 0.80602 0.7932 0.08828 0.0
C1758 C 0.79078 0.80522 0.06157 0.0
C1759 C 0.79843 0.81541 0.07205 0.0
H1760 H 0.22855 0.83602 0.09347 0.0
H1761 H 0.21059 0.79737 0.12131 0.0
H1762 H 0.2222 0.77883 0.10329 0.0
H1763 H 0.2386 0.77344 0.0805 0.0
H1764 H 0.25772 0.81178 0.05312 0.0
H1765 H 0.24444 0.83053 0.07 0.0
C1766 C 0.22719 0.82354 0.09562 0.0
C1767 C 0.21866 0.81818 0.10881 0.0
C1768 C 0.23414 0.81286 0.0853 0.0
C1769 C 0.21685 0.80192 0.1112 0.0
C1770 C 0.22361 0.79127 0.10095 0.0
C1771 C 0.23991 0.78591 0.07823 0.0
C1772 C 0.24929 0.79118 0.06564 0.0
C1773 C 0.23244 0.79659 0.0881 0.0
C1774 C 0.25053 0.80737 0.06267 0.0
C1775 C 0.24302 0.81811 0.07239 0.0
H1776 H 0.22174 0.83478 0.95272 0.0
H1777 H 0.21341 0.79778 0.91927 0.0
H1778 H 0.2252 0.77887 0.93721 0.0
H1779 H 0.23964 0.77311 0.96151 0.0
H1780 H 0.24886 0.81002 0.99478 0.0
H1781 H 0.23473 0.82857 0.978 0.0
C1782 C 0.22248 0.82257 0.94939 0.0
C1783 C 0.21673 0.81775 0.93462 0.0
C1784 C 0.22941 0.81171 0.95976 0.0
C1785 C 0.21758 0.80182 0.9306 0.0
C1786 C 0.22441 0.79099 0.94082 0.0
C1787 C 0.23846 0.7852 0.96514 0.0
C1788 C 0.24542 0.7902 0.97931 0.0
C1789 C 0.2306 0.79584 0.95531 0.0
C1790 C 0.24354 0.80583 0.98398 0.0
C1791 C 0.23559 0.81648 0.97431 0.0
H1792 H 0.21676 0.21078 0.94879 0.0
H1793 H 0.20969 0.25179 0.91986 0.0
H1794 H 0.22585 0.26746 0.9377 0.0
H1795 H 0.24253 0.26953 0.96107 0.0
H1796 H 0.24998 0.22894 0.99039 0.0
H1797 H 0.23293 0.21318 0.97311 0.0
C1798 C 0.21882 0.22313 0.94642 0.0
C1799 C 0.21201 0.2301 0.93301 0.0
C1800 C 0.22809 0.23218 0.95686 0.0
C1801 C 0.21466 0.24617 0.93016 0.0
C1802 C 0.22393 0.25514 0.94034 0.0
C1803 C 0.2404 0.25723 0.9637 0.0
C1804 C 0.24761 0.25038 0.97692 0.0
C1805 C 0.23075 0.24828 0.95367 0.0
C1806 C 0.2445 0.23451 0.98033 0.0
C1807 C 0.23486 0.22547 0.97037 0.0
H1808 H 0.83309 0.23419 0.94712 0.0
H1809 H 0.79386 0.21212 0.9231 0.0
H1810 H 0.77576 0.223 0.94202 0.0
H1811 H 0.77073 0.24006 0.96439 0.0
H1812 H 0.80955 0.26181 0.98906 0.0
H1813 H 0.82815 0.24942 0.97121 0.0
C1814 C 0.82061 0.23154 0.94616 0.0
C1815 C 0.81489 0.22256 0.93343 0.0
C1816 C 0.81017 0.23776 0.95723 0.0
C1817 C 0.79863 0.21933 0.93244 0.0
C1818 C 0.78823 0.22546 0.94334 0.0
C1819 C 0.78328 0.24196 0.96593 0.0
C1820 C 0.78876 0.25192 0.97793 0.0
C1821 C 0.79383 0.23492 0.95559 0.0
C1822 C 0.80505 0.25414 0.97994 0.0
C1823 C 0.81567 0.24715 0.96967 0.0
H1824 H 0.82467 0.82184 0.94756 0.0
H1825 H 0.78466 0.82338 0.91621 0.0
H1826 H 0.76862 0.80935 0.93543 0.0
H1827 H 0.76621 0.79539 0.96038 0.0
H1828 H 0.80621 0.79226 0.99153 0.0
H1829 H 0.82178 0.80864 0.97351 0.0
C1830 C 0.81241 0.81922 0.94504 0.0
C1831 C 0.80595 0.82347 0.93035 0.0
C1832 C 0.80321 0.81094 0.95616 0.0
C1833 C 0.79002 0.81997 0.92726 0.0
C1834 C 0.7808 0.81203 0.93829 0.0
C1835 C 0.77834 0.79827 0.96326 0.0
C1836 C 0.78507 0.79239 0.97721 0.0
C1837 C 0.78733 0.80723 0.95264 0.0
C1838 C 0.80069 0.79665 0.98092 0.0
C1839 C 0.80965 0.80589 0.97053 0.0
H1840 H 0.09042 0.2133 0.21664 0.0
H1841 H 0.12481 0.25081 0.2196 0.0
H1842 H 0.10632 0.26674 0.23408 0.0
H1843 H 0.08098 0.26967 0.24692 0.0
H1844 H 0.04692 0.23176 0.24583 0.0
H1845 H 0.06437 0.21664 0.22913 0.0
C1846 C 0.09378 0.225 0.22037 0.0
C1847 C 0.10905 0.23078 0.2172 0.0
C1848 C 0.0831 0.23409 0.22894 0.0
C1849 C 0.11325 0.24597 0.22213 0.0
C1850 C 0.10265 0.25513 0.23034 0.0
C1851 C 0.07735 0.25807 0.24311 0.0
C1852 C 0.06269 0.25184 0.24784 0.0
C1853 C 0.08765 0.24923 0.23401 0.0
C1854 C 0.05806 0.23695 0.24233 0.0
C1855 C 0.06812 0.22821 0.2329 0.0
H1856 H 0.82963 0.08907 0.22716 0.0
H1857 H 0.79045 0.11906 0.2164 0.0
H1858 H 0.77248 0.10044 0.22898 0.0
H1859 H 0.76817 0.07678 0.245 0.0
H1860 H 0.80713 0.04664 0.25571 0.0
H1861 H 0.8248 0.06387 0.24071 0.0
C1862 C 0.81713 0.09139 0.22726 0.0
C1863 C 0.81149 0.10562 0.22106 0.0
C1864 C 0.80679 0.08059 0.2345 0.0
C1865 C 0.79522 0.10842 0.22141 0.0
C1866 C 0.78489 0.09773 0.22853 0.0
C1867 C 0.7805 0.07391 0.24388 0.0
C1868 C 0.78637 0.06056 0.25157 0.0
C1869 C 0.7906 0.08398 0.23545 0.0
C1870 C 0.80232 0.05682 0.24984 0.0
C1871 C 0.81244 0.06675 0.24138 0.0
H1872 H 0.94804 0.81606 0.21241 0.0
H1873 H 0.91378 0.82019 0.24927 0.0
H1874 H 0.93167 0.80754 0.26772 0.0
H1875 H 0.95607 0.79328 0.27291 0.0
H1876 H 0.98978 0.78782 0.23577 0.0
H1877 H 0.97322 0.80317 0.21806 0.0
C1878 C 0.94449 0.81423 0.22449 0.0
C1879 C 0.92949 0.81902 0.22936 0.0
C1880 C 0.95476 0.80667 0.23503 0.0
C1881 C 0.92526 0.8168 0.24517 0.0
C1882 C 0.93546 0.80944 0.25573 0.0
C1883 C 0.95984 0.79549 0.26095 0.0
C1884 C 0.97411 0.78924 0.25567 0.0
C1885 C 0.95009 0.80402 0.25071 0.0
C1886 C 0.97894 0.79255 0.24022 0.0
C1887 C 0.96939 0.80121 0.23002 0.0
H1888 H 0.19887 0.94595 0.23241 0.0
H1889 H 0.23725 0.91992 0.2129 0.0
H1890 H 0.25609 0.93843 0.22418 0.0
H1891 H 0.26191 0.96082 0.24111 0.0
H1892 H 0.22401 0.98644 0.26182 0.0
H1893 H 0.20477 0.96941 0.24846 0.0
C1894 C 0.21135 0.94433 0.23062 0.0
C1895 C 0.21657 0.93147 0.2218 0.0
C1896 C 0.22223 0.95494 0.23739 0.0
C1897 C 0.23281 0.92976 0.21941 0.0
C1898 C 0.24364 0.94029 0.22598 0.0
C1899 C 0.24942 0.96271 0.24267 0.0
C1900 C 0.2444 0.97477 0.25259 0.0
C1901 C 0.23851 0.95274 0.2352 0.0
C1902 C 0.22819 0.97728 0.25422 0.0
C1903 C 0.2172 0.96746 0.24667 0.0
H1904 H 0.08923 0.81944 0.82855 0.0
H1905 H 0.11885 0.77904 0.83368 0.0
H1906 H 0.10071 0.7636 0.81757 0.0
H1907 H 0.07706 0.76176 0.80113 0.0
H1908 H 0.0474 0.802 0.7954 0.0
H1909 H 0.0647 0.8172 0.81284 0.0
C1910 C 0.09168 0.80726 0.82611 0.0
C1911 C 0.10538 0.80041 0.83232 0.0
C1912 C 0.08115 0.79839 0.8168 0.0
C1913 C 0.10832 0.78456 0.8292 0.0
C1914 C 0.09798 0.77572 0.81993 0.0
C1915 C 0.07436 0.77385 0.80374 0.0
C1916 C 0.06103 0.78076 0.79689 0.0
C1917 C 0.08444 0.78254 0.81358 0.0
C1918 C 0.05753 0.79636 0.80061 0.0
C1919 C 0.06749 0.8051 0.81047 0.0
H1920 H 0.22906 0.09183 0.84045 0.0
H1921 H 0.20739 0.11469 0.8006 0.0
H1922 H 0.21819 0.09517 0.78316 0.0
H1923 H 0.23509 0.07259 0.77884 0.0
H1924 H 0.25638 0.04904 0.81829 0.0
H1925 H 0.24403 0.0675 0.83629 0.0
C1926 C 0.22645 0.09241 0.82799 0.0
C1927 C 0.21762 0.105 0.8219 0.0
C1928 C 0.2326 0.08097 0.81793 0.0
C1929 C 0.21449 0.10548 0.80566 0.0
C1930 C 0.22056 0.09422 0.79564 0.0
C1931 C 0.23688 0.0714 0.79141 0.0
C1932 C 0.24671 0.05955 0.79724 0.0
C1933 C 0.22987 0.0821 0.80159 0.0
C1934 C 0.2488 0.05802 0.81354 0.0
C1935 C 0.24184 0.06866 0.8238 0.0
H1936 H 0.94162 0.21343 0.82988 0.0
H1937 H 0.91316 0.2057 0.78848 0.0
H1938 H 0.93154 0.22128 0.77284 0.0
H1939 H 0.95517 0.2378 0.77092 0.0
H1940 H 0.98393 0.24597 0.81196 0.0
H1941 H 0.96622 0.22932 0.82764 0.0
C1942 C 0.93948 0.21519 0.81744 0.0
C1943 C 0.92603 0.20838 0.81037 0.0
C1944 C 0.9502 0.22416 0.80842 0.0
C1945 C 0.92348 0.21065 0.7942 0.0
C1946 C 0.93397 0.21961 0.78523 0.0
C1947 C 0.95759 0.23591 0.7833 0.0
C1948 C 0.97078 0.24322 0.79028 0.0
C1949 C 0.9473 0.22649 0.79222 0.0
C1950 C 0.9739 0.24041 0.80627 0.0
C1951 C 0.9637 0.231 0.81527 0.0
H1952 H 0.82518 0.9478 0.8254 0.0
H1953 H 0.82591 0.91647 0.78588 0.0
H1954 H 0.81151 0.93538 0.76998 0.0
H1955 H 0.79713 0.95983 0.76774 0.0
H1956 H 0.79457 0.99077 0.80742 0.0
H1957 H 0.81174 0.97338 0.82257 0.0
C1958 C 0.82231 0.94523 0.81326 0.0
C1959 C 0.82641 0.93064 0.8069 0.0
C1960 C 0.81377 0.95613 0.80417 0.0
C1961 C 0.82262 0.92747 0.79115 0.0
C1962 C 0.81446 0.93831 0.78201 0.0
C1963 C 0.80035 0.96282 0.7797 0.0
C1964 C 0.79437 0.97649 0.78649 0.0
C1965 C 0.8097 0.95251 0.78849 0.0
C1966 C 0.79903 0.98037 0.80186 0.0
C1967 C 0.80872 0.97033 0.81059 0.0
H1968 H 0.22193 0.09326 0.21275 0.0
H1969 H 0.21025 0.11788 0.25511 0.0
H1970 H 0.22395 0.09839 0.27084 0.0
H1971 H 0.24028 0.07527 0.27267 0.0
H1972 H 0.25321 0.05057 0.23083 0.0
H1973 H 0.23766 0.06884 0.21484 0.0
C1974 C 0.22229 0.09423 0.22543 0.0
C1975 C 0.21527 0.10716 0.23272 0.0
C1976 C 0.23038 0.08296 0.2345 0.0
C1977 C 0.21582 0.10825 0.24917 0.0
C1978 C 0.22358 0.09706 0.2582 0.0
C1979 C 0.23974 0.07387 0.26003 0.0
C1980 C 0.24809 0.06171 0.25294 0.0
C1981 C 0.23111 0.08455 0.25098 0.0
C1982 C 0.2469 0.05983 0.23659 0.0
C1983 C 0.2381 0.07035 0.22745 0.0
H1984 H 0.20858 0.94308 0.83006 0.0
H1985 H 0.20194 0.91531 0.78834 0.0
H1986 H 0.21781 0.93395 0.7733 0.0
H1987 H 0.23465 0.95738 0.77214 0.0
H1988 H 0.24189 0.98533 0.81356 0.0
H1989 H 0.22451 0.96764 0.82848 0.0
C1990 C 0.21062 0.94115 0.81768 0.0
C1991 C 0.20406 0.9278 0.81036 0.0
C1992 C 0.2198 0.952 0.80902 0.0
C1993 C 0.20668 0.92555 0.79425 0.0
C1994 C 0.21582 0.93618 0.78564 0.0
C1995 C 0.23234 0.95965 0.78442 0.0
C1996 C 0.23964 0.97257 0.79176 0.0
C1997 C 0.22255 0.94935 0.79291 0.0
C1998 C 0.23634 0.97552 0.80761 0.0
C1999 C 0.22653 0.96532 0.81617 0.0
H2000 H 0.08468 0.2021 0.82002 0.0
H2001 H 0.11849 0.23967 0.82678 0.0
H2002 H 0.10013 0.25831 0.81538 0.0
H2003 H 0.07551 0.26362 0.8013 0.0
H2004 H 0.04204 0.22606 0.79334 0.0
H2005 H 0.05903 0.20788 0.80762 0.0
C2006 C 0.08801 0.21438 0.81904 0.0
C2007 C 0.10303 0.21941 0.82421 0.0
C2008 C 0.07743 0.22507 0.81226 0.0
C2009 C 0.107 0.23543 0.82308 0.0
C2010 C 0.09653 0.24612 0.81645 0.0
C2011 C 0.07186 0.25148 0.80282 0.0
C2012 C 0.05758 0.24619 0.7961 0.0
C2013 C 0.08186 0.24102 0.8107 0.0
C2014 C 0.0529 0.23049 0.79844 0.0
C2015 C 0.06271 0.22004 0.80647 0.0
H2016 H 0.82253 0.09192 0.82686 0.0
H2017 H 0.77993 0.11761 0.83469 0.0
H2018 H 0.76512 0.09913 0.8185 0.0
H2019 H 0.76433 0.07641 0.80116 0.0
H2020 H 0.80658 0.0505 0.79278 0.0
H2021 H 0.82139 0.06807 0.81032 0.0
C2022 C 0.81001 0.09343 0.82501 0.0
C2023 C 0.80236 0.10615 0.83201 0.0
C2024 C 0.80148 0.08268 0.81564 0.0
C2025 C 0.78609 0.10786 0.82962 0.0
C2026 C 0.77761 0.09732 0.82029 0.0
C2027 C 0.77677 0.07457 0.80323 0.0
C2028 C 0.78438 0.06226 0.79558 0.0
C2029 C 0.78518 0.08479 0.81314 0.0
C2030 C 0.80044 0.05985 0.79859 0.0
C2031 C 0.80893 0.06998 0.80851 0.0
H2032 H 0.94934 0.81222 0.83649 0.0
H2033 H 0.91726 0.82312 0.79862 0.0
H2034 H 0.93487 0.81107 0.7799 0.0
H2035 H 0.95831 0.79561 0.77447 0.0
H2036 H 0.98991 0.78353 0.81232 0.0
H2037 H 0.97372 0.79801 0.83074 0.0
C2038 C 0.94621 0.81198 0.82414 0.0
C2039 C 0.9319 0.81855 0.81904 0.0
C2040 C 0.95632 0.80479 0.8134 0.0
C2041 C 0.92822 0.81835 0.80292 0.0
C2042 C 0.93825 0.81134 0.79219 0.0
C2043 C 0.9617 0.79618 0.78674 0.0
C2044 C 0.97524 0.78833 0.792 0.0
C2045 C 0.95217 0.80426 0.79733 0.0
C2046 C 0.97962 0.78951 0.8079 0.0
C2047 C 0.97028 0.79768 0.81848 0.0
H2048 H 0.83309 0.94334 0.23888 0.0
H2049 H 0.79425 0.92387 0.21213 0.0
H2050 H 0.77656 0.94273 0.22366 0.0
H2051 H 0.77165 0.96368 0.24249 0.0
H2052 H 0.81023 0.98402 0.26866 0.0
H2053 H 0.82858 0.96624 0.25585 0.0
C2054 C 0.82083 0.94337 0.23532 0.0
C2055 C 0.81504 0.9319 0.22481 0.0
C2056 C 0.81066 0.95445 0.24188 0.0
C2057 C 0.79904 0.93219 0.22049 0.0
C2058 C 0.78889 0.94308 0.22699 0.0
C2059 C 0.78412 0.96431 0.24525 0.0
C2060 C 0.78959 0.97503 0.25657 0.0
C2061 C 0.7945 0.95405 0.23791 0.0
C2062 C 0.80577 0.97589 0.25994 0.0
C2063 C 0.81622 0.96565 0.25269 0.0
H2064 H 0.09052 0.80378 0.20561 0.0
H2065 H 0.11461 0.82634 0.2443 0.0
H2066 H 0.09564 0.81509 0.26258 0.0
H2067 H 0.07338 0.79735 0.26794 0.0
H2068 H 0.04864 0.7752 0.22962 0.0
H2069 H 0.06635 0.78817 0.2108 0.0
C2070 C 0.09147 0.8065 0.21799 0.0
C2071 C 0.10425 0.81568 0.22353 0.0
C2072 C 0.08037 0.80008 0.22853 0.0
C2073 C 0.10523 0.81897 0.23968 0.0
C2074 C 0.0943 0.81263 0.25018 0.0
C2075 C 0.07176 0.79555 0.25544 0.0
C2076 C 0.05982 0.78529 0.25014 0.0
C2077 C 0.08204 0.80291 0.24478 0.0
C2078 C 0.05771 0.78312 0.23394 0.0
C2079 C 0.06792 0.79043 0.22321 0.0
H2080 H 0.94966 0.22021 0.2051 0.0
H2081 H 0.91733 0.20934 0.24261 0.0
H2082 H 0.93545 0.22105 0.26157 0.0
H2083 H 0.95928 0.23652 0.26724 0.0
H2084 H 0.99106 0.24878 0.22974 0.0
H2085 H 0.97451 0.23422 0.21112 0.0
C2086 C 0.9466 0.22036 0.21742 0.0
C2087 C 0.93206 0.21395 0.22235 0.0
C2088 C 0.95698 0.2274 0.22829 0.0
C2089 C 0.92846 0.214 0.23844 0.0
C2090 C 0.93878 0.22083 0.24931 0.0
C2091 C 0.96264 0.23593 0.255 0.0
C2092 C 0.9763 0.24389 0.24986 0.0
C2093 C 0.95289 0.22787 0.24432 0.0
C2094 C 0.98066 0.24272 0.23403 0.0
C2095 C 0.97112 0.23451 0.22335 0.0
H2096 H 0.22298 0.70435 0.59247 0.0
H2097 H 0.21381 0.74144 0.62523 0.0
H2098 H 0.22578 0.76053 0.6074 0.0
H2099 H 0.24063 0.76646 0.58345 0.0
H2100 H 0.25086 0.72937 0.55108 0.0
H2101 H 0.23655 0.7106 0.56766 0.0
C2102 C 0.22358 0.71661 0.59569 0.0
C2103 C 0.21754 0.7214 0.61024 0.0
C2104 C 0.23069 0.72755 0.58544 0.0
C2105 C 0.21819 0.7374 0.61408 0.0
C2106 C 0.22515 0.74834 0.60392 0.0
C2107 C 0.23968 0.75428 0.57999 0.0
C2108 C 0.24695 0.74931 0.56611 0.0
C2109 C 0.23169 0.74351 0.58972 0.0
C2110 C 0.24531 0.73354 0.56164 0.0
C2111 C 0.23724 0.72277 0.5712 0.0
H2112 H 0.80143 0.69891 0.59674 0.0
H2113 H 0.82811 0.73653 0.6183 0.0
H2114 H 0.81761 0.75503 0.59923 0.0
H2115 H 0.79963 0.76098 0.57749 0.0
H2116 H 0.77341 0.7237 0.55516 0.0
H2117 H 0.7853 0.70454 0.57313 0.0
C2118 C 0.80517 0.71109 0.59712 0.0
C2119 C 0.81534 0.7163 0.60922 0.0
C2120 C 0.79919 0.72174 0.58594 0.0
C2121 C 0.81997 0.7322 0.60947 0.0
C2122 C 0.81406 0.74281 0.59847 0.0
C2123 C 0.79667 0.74861 0.57648 0.0
C2124 C 0.7856 0.74373 0.56514 0.0
C2125 C 0.80345 0.73778 0.58686 0.0
C2126 C 0.78195 0.7277 0.56378 0.0
C2127 C 0.78866 0.71679 0.57412 0.0
H2128 H 0.80274 0.33779 0.59597 0.0
H2129 H 0.82719 0.29893 0.61726 0.0
H2130 H 0.81613 0.28128 0.59766 0.0
H2131 H 0.79829 0.27641 0.57548 0.0
H2132 H 0.77424 0.31492 0.55346 0.0
H2133 H 0.78677 0.33324 0.57197 0.0
C2134 C 0.80589 0.32552 0.59619 0.0
C2135 C 0.8156 0.31973 0.60837 0.0
C2136 C 0.79959 0.31535 0.58469 0.0
C2137 C 0.81942 0.30372 0.60838 0.0
C2138 C 0.81319 0.2936 0.59707 0.0
C2139 C 0.79594 0.28885 0.57464 0.0
C2140 C 0.78529 0.29431 0.56321 0.0
C2141 C 0.80305 0.29922 0.58537 0.0
C2142 C 0.78245 0.31046 0.56211 0.0
C2143 C 0.78952 0.3209 0.57278 0.0
H2144 H 0.2335 0.33545 0.59889 0.0
H2145 H 0.20342 0.29764 0.61527 0.0
H2146 H 0.21467 0.28015 0.59605 0.0
H2147 H 0.23419 0.27499 0.57571 0.0
H2148 H 0.26351 0.31265 0.55823 0.0
H2149 H 0.25111 0.33093 0.57641 0.0
C2150 C 0.22916 0.32349 0.59809 0.0
C2151 C 0.2178 0.31787 0.60885 0.0
C2152 C 0.23554 0.31345 0.58676 0.0
C2153 C 0.21246 0.30224 0.60756 0.0
C2154 C 0.2188 0.29222 0.59645 0.0
C2155 C 0.2377 0.28726 0.57578 0.0
C2156 C 0.24978 0.2925 0.56577 0.0
C2157 C 0.23055 0.2976 0.58622 0.0
C2158 C 0.25419 0.30841 0.56582 0.0
C2159 C 0.24716 0.3188 0.57627 0.0
H2160 H 0.22256 0.33502 0.45255 0.0
H2161 H 0.21333 0.2975 0.4199 0.0
H2162 H 0.22499 0.27875 0.43812 0.0
H2163 H 0.23969 0.27328 0.46235 0.0
H2164 H 0.24979 0.31072 0.49477 0.0
H2165 H 0.23569 0.32912 0.47781 0.0
C2166 C 0.22306 0.32273 0.44946 0.0
C2167 C 0.21713 0.31771 0.43482 0.0
C2168 C 0.22993 0.31197 0.45997 0.0
C2169 C 0.21766 0.30169 0.43112 0.0
C2170 C 0.22442 0.29095 0.4415 0.0
C2171 C 0.2387 0.28545 0.46575 0.0
C2172 C 0.24592 0.29065 0.47973 0.0
C2173 C 0.23085 0.296 0.45581 0.0
C2174 C 0.24428 0.30639 0.48412 0.0
C2175 C 0.23635 0.31695 0.47435 0.0
H2176 H 0.20633 0.71963 0.45395 0.0
H2177 H 0.24369 0.71388 0.42048 0.0
H2178 H 0.26226 0.72652 0.43843 0.0
H2179 H 0.26748 0.74125 0.46262 0.0
H2180 H 0.22992 0.74828 0.49553 0.0
H2181 H 0.21199 0.73296 0.47897 0.0
C2182 C 0.21854 0.72111 0.45059 0.0
C2183 C 0.22352 0.71586 0.43579 0.0
C2184 C 0.22917 0.72866 0.46089 0.0
C2185 C 0.23949 0.71763 0.43181 0.0
C2186 C 0.25013 0.72499 0.44204 0.0
C2187 C 0.25539 0.73937 0.46621 0.0
C2188 C 0.25006 0.74607 0.48026 0.0
C2189 C 0.24503 0.73085 0.45645 0.0
C2190 C 0.23441 0.74321 0.48487 0.0
C2191 C 0.22409 0.73456 0.47531 0.0
H2192 H 0.83559 0.73321 0.44784 0.0
H2193 H 0.79661 0.71149 0.42312 0.0
H2194 H 0.77832 0.72201 0.44208 0.0
H2195 H 0.77307 0.73863 0.46471 0.0
H2196 H 0.81163 0.76012 0.49001 0.0
H2197 H 0.83041 0.74807 0.47212 0.0
C2198 C 0.82313 0.73056 0.44673 0.0
C2199 C 0.81752 0.72178 0.43382 0.0
C2200 C 0.81257 0.73659 0.45781 0.0
C2201 C 0.80128 0.71855 0.43263 0.0
C2202 C 0.79078 0.72447 0.44355 0.0
C2203 C 0.78561 0.74057 0.46637 0.0
C2204 C 0.79096 0.75035 0.47857 0.0
C2205 C 0.79625 0.73374 0.456 0.0
C2206 C 0.80723 0.75259 0.48074 0.0
C2207 C 0.81795 0.74579 0.47044 0.0
H2208 H 0.81435 0.33603 0.44956 0.0
H2209 H 0.82107 0.29859 0.41653 0.0
H2210 H 0.80872 0.28002 0.43463 0.0
H2211 H 0.79426 0.27466 0.45892 0.0
H2212 H 0.78644 0.31208 0.49162 0.0
H2213 H 0.80115 0.33027 0.47474 0.0
C2214 C 0.81313 0.3238 0.44632 0.0
C2215 C 0.81862 0.31879 0.43162 0.0
C2216 C 0.80582 0.31314 0.45676 0.0
C2217 C 0.81715 0.30282 0.42779 0.0
C2218 C 0.80998 0.29217 0.4381 0.0
C2219 C 0.79583 0.28678 0.4624 0.0
C2220 C 0.7891 0.292 0.47647 0.0
C2221 C 0.80403 0.29724 0.45249 0.0
C2222 C 0.79155 0.30769 0.48093 0.0
C2223 C 0.79984 0.31815 0.47119 0.0
H2224 H 0.08857 0.70944 0.71823 0.0
H2225 H 0.11779 0.75072 0.71213 0.0
H2226 H 0.09975 0.76594 0.72788 0.0
H2227 H 0.07631 0.76742 0.74425 0.0
H2228 H 0.0467 0.72655 0.75068 0.0
H2229 H 0.06397 0.71138 0.73371 0.0
C2230 C 0.09094 0.72176 0.72039 0.0
C2231 C 0.10452 0.72893 0.71402 0.0
C2232 C 0.08039 0.73055 0.72941 0.0
C2233 C 0.10737 0.74495 0.71677 0.0
C2234 C 0.09708 0.75366 0.72581 0.0
C2235 C 0.07358 0.75521 0.74184 0.0
C2236 C 0.06031 0.74809 0.74878 0.0
C2237 C 0.08363 0.74658 0.73226 0.0
C2238 C 0.05679 0.73232 0.74539 0.0
C2239 C 0.06675 0.72362 0.73581 0.0
H2240 H 0.81653 0.59139 0.71023 0.0
H2241 H 0.83264 0.6131 0.75313 0.0
H2242 H 0.81633 0.59511 0.76845 0.0
H2243 H 0.79703 0.57376 0.76983 0.0
H2244 H 0.78047 0.55158 0.72744 0.0
H2245 H 0.79752 0.56901 0.71176 0.0
C2246 C 0.81643 0.59215 0.72293 0.0
C2247 C 0.82585 0.60355 0.73052 0.0
C2248 C 0.80699 0.58166 0.73176 0.0
C2249 C 0.82569 0.60432 0.74699 0.0
C2250 C 0.81631 0.59408 0.75578 0.0
C2251 C 0.79714 0.57275 0.75714 0.0
C2252 C 0.7874 0.56153 0.74978 0.0
C2253 C 0.80686 0.58278 0.7483 0.0
C2254 C 0.78789 0.56012 0.73337 0.0
C2255 C 0.79757 0.57014 0.72442 0.0
H2256 H 0.94643 0.31324 0.70853 0.0
H2257 H 0.91293 0.32046 0.74556 0.0
H2258 H 0.93073 0.30837 0.76446 0.0
H2259 H 0.95482 0.29381 0.77016 0.0
H2260 H 0.98795 0.2855 0.73311 0.0
H2261 H 0.97148 0.30014 0.71467 0.0
C2262 C 0.94304 0.31219 0.72075 0.0
C2263 C 0.92828 0.31771 0.72555 0.0
C2264 C 0.9533 0.30502 0.73159 0.0
C2265 C 0.92423 0.31649 0.7415 0.0
C2266 C 0.93438 0.30947 0.75233 0.0
C2267 C 0.95849 0.29528 0.75806 0.0
C2268 C 0.97254 0.28841 0.75301 0.0
C2269 C 0.9488 0.30342 0.74746 0.0
C2270 C 0.97726 0.29072 0.73737 0.0
C2271 C 0.96776 0.29897 0.72677 0.0
H2272 H 0.21198 0.44478 0.71801 0.0
H2273 H 0.21182 0.41282 0.75745 0.0
H2274 H 0.22591 0.4321 0.77338 0.0
H2275 H 0.23964 0.45725 0.77576 0.0
H2276 H 0.24152 0.48895 0.73617 0.0
H2277 H 0.22492 0.4709 0.7209 0.0
C2278 C 0.21491 0.44215 0.73014 0.0
C2279 C 0.21104 0.4273 0.73647 0.0
C2280 C 0.22325 0.45328 0.73925 0.0
C2281 C 0.21493 0.42403 0.7522 0.0
C2282 C 0.22291 0.43508 0.76136 0.0
C2283 C 0.23643 0.46025 0.76378 0.0
C2284 C 0.24202 0.47438 0.75709 0.0
C2285 C 0.22738 0.44961 0.75493 0.0
C2286 C 0.23735 0.47821 0.74168 0.0
C2287 C 0.22799 0.46781 0.73288 0.0
H2288 H 0.08858 0.32314 0.32787 0.0
H2289 H 0.11693 0.28224 0.33572 0.0
H2290 H 0.09909 0.26663 0.31944 0.0
H2291 H 0.07628 0.26481 0.30186 0.0
H2292 H 0.0477 0.30541 0.29363 0.0
H2293 H 0.06453 0.32083 0.31137 0.0
C2294 C 0.09079 0.31081 0.32601 0.0
C2295 C 0.10407 0.30387 0.33298 0.0
C2296 C 0.08041 0.30183 0.31663 0.0
C2297 C 0.10672 0.28783 0.33061 0.0
C2298 C 0.09656 0.2789 0.32126 0.0
C2299 C 0.07368 0.27701 0.30405 0.0
C2300 C 0.06085 0.284 0.29638 0.0
C2301 C 0.08347 0.2858 0.31409 0.0
C2302 C 0.05746 0.29975 0.29949 0.0
C2303 C 0.06717 0.3086 0.30951 0.0
H2304 H 0.23048 0.5895 0.33871 0.0
H2305 H 0.20702 0.61206 0.29971 0.0
H2306 H 0.21813 0.5932 0.28174 0.0
H2307 H 0.23596 0.57145 0.2767 0.0
H2308 H 0.25879 0.54809 0.31538 0.0
H2309 H 0.24609 0.56576 0.33392 0.0
C2310 C 0.22752 0.59014 0.32634 0.0
C2311 C 0.21813 0.60248 0.32062 0.0
C2312 C 0.23382 0.57906 0.31598 0.0
C2313 C 0.21456 0.60305 0.30447 0.0
C2314 C 0.22082 0.59216 0.29415 0.0
C2315 C 0.23796 0.57011 0.28923 0.0
C2316 C 0.24834 0.55857 0.2947 0.0
C2317 C 0.23071 0.58034 0.29972 0.0
C2318 C 0.25078 0.55684 0.31093 0.0
C2319 C 0.24361 0.56703 0.32149 0.0
H2320 H 0.94476 0.71223 0.33058 0.0
H2321 H 0.91596 0.70529 0.28927 0.0
H2322 H 0.93432 0.72101 0.27374 0.0
H2323 H 0.95791 0.73761 0.27195 0.0
H2324 H 0.98695 0.74509 0.31292 0.0
H2325 H 0.9694 0.72807 0.32842 0.0
C2326 C 0.94254 0.71419 0.31819 0.0
C2327 C 0.92899 0.70756 0.31111 0.0
C2328 C 0.95324 0.72326 0.30923 0.0
C2329 C 0.92636 0.71009 0.29499 0.0
C2330 C 0.93682 0.71913 0.28609 0.0
C2331 C 0.96044 0.73546 0.28427 0.0
C2332 C 0.97364 0.74271 0.29131 0.0
C2333 C 0.95022 0.72586 0.29309 0.0
C2334 C 0.97691 0.73959 0.3072 0.0
C2335 C 0.96679 0.72997 0.3161 0.0
H2336 H 0.82435 0.44611 0.32749 0.0
H2337 H 0.83137 0.41939 0.28536 0.0
H2338 H 0.81572 0.43798 0.27033 0.0
H2339 H 0.79893 0.46103 0.26926 0.0
H2340 H 0.79148 0.48804 0.31104 0.0
H2341 H 0.80863 0.47044 0.326 0.0
C2342 C 0.82244 0.44441 0.31502 0.0
C2343 C 0.82902 0.43136 0.30758 0.0
C2344 C 0.81344 0.45526 0.30635 0.0
C2345 C 0.82657 0.42939 0.29137 0.0
C2346 C 0.81758 0.44 0.28275 0.0
C2347 C 0.80118 0.46314 0.28161 0.0
C2348 C 0.79387 0.47576 0.28905 0.0
C2349 C 0.81084 0.45288 0.29013 0.0
C2350 C 0.79706 0.47847 0.30502 0.0
C2351 C 0.80673 0.46831 0.3136 0.0
H2352 H 0.20205 0.58973 0.72762 0.0
H2353 H 0.2411 0.6207 0.71675 0.0
H2354 H 0.25942 0.60177 0.7277 0.0
H2355 H 0.26424 0.57755 0.74249 0.0
H2356 H 0.22547 0.54649 0.75368 0.0
H2357 H 0.20728 0.56398 0.73996 0.0
C2358 C 0.21458 0.59222 0.72737 0.0
C2359 C 0.22011 0.60681 0.72161 0.0
C2360 C 0.22514 0.58122 0.73371 0.0
C2361 C 0.23643 0.60979 0.72146 0.0
C2362 C 0.24696 0.59891 0.72764 0.0
C2363 C 0.25183 0.57451 0.74173 0.0
C2364 C 0.2462 0.56082 0.74922 0.0
C2365 C 0.24142 0.58478 0.73415 0.0
C2366 C 0.23013 0.55691 0.74795 0.0
C2367 C 0.2197 0.56701 0.74025 0.0
H2368 H 0.21137 0.44327 0.32544 0.0
H2369 H 0.20894 0.41234 0.28561 0.0
H2370 H 0.22369 0.43131 0.26985 0.0
H2371 H 0.2386 0.45588 0.26771 0.0
H2372 H 0.24226 0.48665 0.30754 0.0
H2373 H 0.22526 0.4689 0.32274 0.0
C2374 C 0.21393 0.44079 0.31326 0.0
C2375 C 0.20924 0.42628 0.3068 0.0
C2376 C 0.22257 0.45177 0.30422 0.0
C2377 C 0.21268 0.42324 0.29099 0.0
C2378 C 0.22104 0.43414 0.28193 0.0
C2379 C 0.23566 0.45874 0.27972 0.0
C2380 C 0.24187 0.47251 0.28651 0.0
C2381 C 0.22628 0.44829 0.28849 0.0
C2382 C 0.23761 0.47619 0.30197 0.0
C2383 C 0.22801 0.46595 0.31072 0.0
H2384 H 0.09353 0.72041 0.33325 0.0
H2385 H 0.11761 0.7083 0.29066 0.0
H2386 H 0.09782 0.72177 0.27507 0.0
H2387 H 0.07464 0.73809 0.2734 0.0
H2388 H 0.05053 0.75157 0.31544 0.0
H2389 H 0.06901 0.73612 0.33135 0.0
C2390 C 0.09433 0.72064 0.32056 0.0
C2391 C 0.1072 0.71356 0.31315 0.0
C2392 C 0.08288 0.7286 0.31157 0.0
C2393 C 0.10804 0.71392 0.29668 0.0
C2394 C 0.09668 0.72155 0.28774 0.0
C2395 C 0.0734 0.73766 0.28607 0.0
C2396 C 0.06137 0.74615 0.29325 0.0
C2397 C 0.08422 0.72914 0.29505 0.0
C2398 C 0.05969 0.74514 0.30962 0.0
C2399 C 0.07033 0.7364 0.31871 0.0
H2400 H 0.82455 0.59091 0.3285 0.0
H2401 H 0.78217 0.61573 0.33954 0.0
H2402 H 0.76661 0.59718 0.32412 0.0
H2403 H 0.76505 0.57479 0.30641 0.0
H2404 H 0.80704 0.54973 0.29484 0.0
H2405 H 0.82268 0.56723 0.31174 0.0
C2406 C 0.81191 0.59221 0.32752 0.0
C2407 C 0.80455 0.60471 0.33518 0.0
C2408 C 0.80295 0.58141 0.3186 0.0
C2409 C 0.78813 0.60614 0.33393 0.0
C2410 C 0.77921 0.59557 0.32505 0.0
C2411 C 0.77762 0.57309 0.30769 0.0
C2412 C 0.7849 0.56107 0.2993 0.0
C2413 C 0.78649 0.58327 0.31722 0.0
C2414 C 0.80115 0.55885 0.30124 0.0
C2415 C 0.81011 0.56894 0.31079 0.0
H2416 H 0.94341 0.32501 0.31713 0.0
H2417 H 0.91773 0.28258 0.3288 0.0
H2418 H 0.93679 0.26709 0.31469 0.0
H2419 H 0.95999 0.26549 0.29817 0.0
H2420 H 0.98582 0.30747 0.28561 0.0
H2421 H 0.9678 0.32317 0.30129 0.0
C2422 C 0.9421 0.31236 0.31669 0.0
C2423 C 0.92898 0.30501 0.32382 0.0
C2424 C 0.95316 0.30343 0.30845 0.0
C2425 C 0.92748 0.28859 0.32313 0.0
C2426 C 0.93843 0.27969 0.31514 0.0
C2427 C 0.96168 0.2781 0.29883 0.0
C2428 C 0.97412 0.28532 0.29057 0.0
C2429 C 0.95116 0.28699 0.30758 0.0
C2430 C 0.97637 0.30161 0.29188 0.0
C2431 C 0.96599 0.31059 0.30075 0.0
H2432 H 0.82109 0.44673 0.71312 0.0
H2433 H 0.82924 0.4193 0.75502 0.0
H2434 H 0.81352 0.43732 0.77026 0.0
H2435 H 0.79643 0.46012 0.77158 0.0
H2436 H 0.78803 0.48795 0.73009 0.0
H2437 H 0.80509 0.47082 0.71488 0.0
C2438 C 0.8194 0.44475 0.72558 0.0
C2439 C 0.82631 0.43167 0.73291 0.0
C2440 C 0.81039 0.4553 0.73437 0.0
C2441 C 0.82416 0.42933 0.74911 0.0
C2442 C 0.81514 0.43962 0.75784 0.0
C2443 C 0.79846 0.4625 0.75923 0.0
C2444 C 0.79092 0.47521 0.75194 0.0
C2445 C 0.8081 0.45255 0.75059 0.0
C2446 C 0.79379 0.4783 0.73598 0.0
C2447 C 0.80342 0.46841 0.72726 0.0
H2448 H 0.08854 0.32121 0.71971 0.0
H2449 H 0.11904 0.28128 0.71749 0.0
H2450 H 0.0999 0.26541 0.73191 0.0
H2451 H 0.07532 0.26314 0.7464 0.0
H2452 H 0.04509 0.3031 0.75021 0.0
H2453 H 0.06295 0.31848 0.73349 0.0
C2454 C 0.09088 0.30899 0.72227 0.0
C2455 C 0.1053 0.3025 0.71771 0.0
C2456 C 0.07984 0.29991 0.73079 0.0
C2457 C 0.10818 0.28665 0.72112 0.0
C2458 C 0.09721 0.27753 0.7293 0.0
C2459 C 0.07261 0.27523 0.74361 0.0
C2460 C 0.05897 0.28199 0.74976 0.0
C2461 C 0.08314 0.2841 0.73443 0.0
C2462 C 0.05547 0.29755 0.74561 0.0
C2463 C 0.06576 0.3064 0.73616 0.0
H2464 H 0.94283 0.70755 0.72222 0.0
H2465 H 0.92041 0.75022 0.70717 0.0
H2466 H 0.93871 0.76562 0.72308 0.0
H2467 H 0.9605 0.76711 0.7418 0.0
H2468 H 0.98335 0.72492 0.75729 0.0
H2469 H 0.96566 0.70921 0.74056 0.0
C2470 C 0.94199 0.72021 0.72246 0.0
C2471 C 0.93029 0.72771 0.71346 0.0
C2472 C 0.95264 0.72909 0.73167 0.0
C2473 C 0.92941 0.74415 0.7138 0.0
C2474 C 0.93983 0.75298 0.72296 0.0
C2475 C 0.96161 0.75446 0.74151 0.0
C2476 C 0.97311 0.74717 0.75086 0.0
C2477 C 0.95141 0.74559 0.73199 0.0
C2478 C 0.97461 0.73081 0.75015 0.0
C2479 C 0.96444 0.72183 0.74067 0.0
H2480 H 0.72914 0.20143 0.58966 0.0
H2481 H 0.71239 0.2389 0.61872 0.0
H2482 H 0.72385 0.25819 0.60085 0.0
H2483 H 0.73997 0.26456 0.57796 0.0
H2484 H 0.75782 0.22749 0.54921 0.0
H2485 H 0.74452 0.20795 0.56587 0.0
C2486 C 0.728 0.21381 0.59209 0.0
C2487 C 0.71987 0.21864 0.60559 0.0
C2488 C 0.73485 0.22494 0.58183 0.0
C2489 C 0.71833 0.23478 0.60836 0.0
C2490 C 0.72501 0.24586 0.5982 0.0
C2491 C 0.74095 0.25219 0.57533 0.0
C2492 C 0.75002 0.24748 0.56246 0.0
C2493 C 0.73348 0.24108 0.58505 0.0
C2494 C 0.75089 0.23144 0.55901 0.0
C2495 C 0.74337 0.22026 0.5686 0.0
H2496 H 0.32034 0.21296 0.59412 0.0
H2497 H 0.28076 0.2114 0.62554 0.0
H2498 H 0.2651 0.2263 0.60676 0.0
H2499 H 0.26307 0.24113 0.58228 0.0
H2500 H 0.3029 0.24443 0.55128 0.0
H2501 H 0.31779 0.22702 0.56865 0.0
C2502 C 0.30824 0.21577 0.59674 0.0
C2503 C 0.30179 0.21126 0.6113 0.0
C2504 C 0.29931 0.22457 0.58592 0.0
C2505 C 0.28609 0.21498 0.61455 0.0
C2506 C 0.2771 0.22343 0.60379 0.0
C2507 C 0.27502 0.23806 0.57929 0.0
C2508 C 0.2819 0.24428 0.56558 0.0
C2509 C 0.28367 0.22854 0.58958 0.0
C2510 C 0.29725 0.23978 0.56171 0.0
C2511 C 0.30584 0.22995 0.57173 0.0
H2512 H 0.31027 0.83355 0.59727 0.0
H2513 H 0.32428 0.79378 0.6254 0.0
H2514 H 0.31306 0.776 0.60596 0.0
H2515 H 0.29745 0.77166 0.58204 0.0
H2516 H 0.28351 0.81109 0.5536 0.0
H2517 H 0.297 0.82902 0.57175 0.0
C2518 C 0.31115 0.821 0.59903 0.0
C2519 C 0.31789 0.81509 0.61301 0.0
C2520 C 0.30471 0.81074 0.5877 0.0
C2521 C 0.31881 0.79874 0.61502 0.0
C2522 C 0.31248 0.78852 0.60384 0.0
C2523 C 0.29754 0.78418 0.57972 0.0
C2524 C 0.28938 0.79005 0.56657 0.0
C2525 C 0.3051 0.79438 0.59032 0.0
C2526 C 0.28977 0.80627 0.5636 0.0
C2527 C 0.29736 0.81653 0.57406 0.0
H2528 H 0.73205 0.83668 0.59229 0.0
H2529 H 0.71403 0.79869 0.62098 0.0
H2530 H 0.72544 0.77971 0.6033 0.0
H2531 H 0.74164 0.77376 0.58055 0.0
H2532 H 0.76063 0.81134 0.5521 0.0
H2533 H 0.74767 0.83058 0.56873 0.0
C2534 C 0.73063 0.82425 0.59468 0.0
C2535 C 0.72213 0.81918 0.608 0.0
C2536 C 0.73743 0.8133 0.58452 0.0
C2537 C 0.72026 0.80299 0.61074 0.0
C2538 C 0.7269 0.79209 0.60069 0.0
C2539 C 0.74298 0.78617 0.57799 0.0
C2540 C 0.75225 0.7911 0.5652 0.0
C2541 C 0.73566 0.79711 0.58768 0.0
C2542 C 0.75354 0.80722 0.56184 0.0
C2543 C 0.74621 0.81822 0.57141 0.0
H2544 H 0.71945 0.82979 0.45308 0.0
H2545 H 0.71308 0.79285 0.41917 0.0
H2546 H 0.72552 0.77431 0.43707 0.0
H2547 H 0.74023 0.76903 0.46136 0.0
H2548 H 0.7478 0.80614 0.49481 0.0
H2549 H 0.73271 0.82403 0.47823 0.0
C2550 C 0.72075 0.81768 0.44962 0.0
C2551 C 0.71538 0.8128 0.43472 0.0
C2552 C 0.72816 0.80707 0.4599 0.0
C2553 C 0.71692 0.79696 0.43058 0.0
C2554 C 0.72416 0.78634 0.44078 0.0
C2555 C 0.73851 0.78101 0.46507 0.0
C2556 C 0.74529 0.78625 0.47926 0.0
C2557 C 0.73011 0.79134 0.45532 0.0
C2558 C 0.74265 0.80174 0.48402 0.0
C2559 C 0.73414 0.81203 0.47446 0.0
H2560 H 0.6992 0.23073 0.44869 0.0
H2561 H 0.73762 0.21662 0.41927 0.0
H2562 H 0.75638 0.22894 0.43719 0.0
H2563 H 0.76195 0.24496 0.46035 0.0
H2564 H 0.72381 0.2601 0.48947 0.0
H2565 H 0.70494 0.24607 0.47264 0.0
C2566 C 0.71167 0.23036 0.44618 0.0
C2567 C 0.71691 0.22272 0.43257 0.0
C2568 C 0.72248 0.23768 0.45649 0.0
C2569 C 0.73318 0.22218 0.42971 0.0
C2570 C 0.74396 0.22935 0.43991 0.0
C2571 C 0.7495 0.24521 0.46303 0.0
C2572 C 0.7443 0.25371 0.47609 0.0
C2573 C 0.73874 0.2373 0.4532 0.0
C2574 C 0.72816 0.25361 0.47955 0.0
C2575 C 0.71735 0.24567 0.46986 0.0
H2576 H 0.31855 0.21296 0.45071 0.0
H2577 H 0.32243 0.25248 0.41909 0.0
H2578 H 0.30885 0.26893 0.43779 0.0
H2579 H 0.29472 0.27188 0.46236 0.0
H2580 H 0.28901 0.23232 0.49364 0.0
H2581 H 0.30492 0.2163 0.47621 0.0
C2582 C 0.31651 0.2252 0.44802 0.0
C2583 C 0.32131 0.23143 0.43343 0.0
C2584 C 0.30845 0.23462 0.45881 0.0
C2585 C 0.31859 0.24733 0.43009 0.0
C2586 C 0.31091 0.25677 0.44082 0.0
C2587 C 0.2969 0.25974 0.46539 0.0
C2588 C 0.29045 0.25329 0.47921 0.0
C2589 C 0.30556 0.25049 0.45508 0.0
C2590 C 0.29384 0.23764 0.48313 0.0
C2591 C 0.30283 0.22843 0.47307 0.0
H2592 H 0.30426 0.83506 0.44615 0.0
H2593 H 0.33042 0.79646 0.42736 0.0
H2594 H 0.3191 0.77892 0.447 0.0
H2595 H 0.30043 0.77401 0.46835 0.0
H2596 H 0.27499 0.8124 0.48809 0.0
H2597 H 0.28773 0.83065 0.46958 0.0
C2598 C 0.30776 0.8229 0.44651 0.0
C2599 C 0.31798 0.8171 0.43497 0.0
C2600 C 0.30134 0.81282 0.45805 0.0
C2601 C 0.32224 0.80123 0.43571 0.0
C2602 C 0.31586 0.79116 0.44704 0.0
C2603 C 0.29786 0.78643 0.46871 0.0
C2604 C 0.28676 0.79189 0.47946 0.0
C2605 C 0.30517 0.79675 0.45805 0.0
C2606 C 0.28357 0.80798 0.47994 0.0
C2607 C 0.29077 0.81836 0.46929 0.0
H2608 H 0.59073 0.21207 0.71392 0.0
H2609 H 0.62371 0.25093 0.71443 0.0
H2610 H 0.60483 0.26688 0.72834 0.0
H2611 H 0.57968 0.26946 0.7416 0.0
H2612 H 0.54694 0.23044 0.74284 0.0
H2613 H 0.56465 0.21515 0.72651 0.0
C2614 C 0.59369 0.22407 0.71697 0.0
C2615 C 0.60872 0.23022 0.71332 0.0
C2616 C 0.58277 0.2332 0.72519 0.0
C2617 C 0.61238 0.2458 0.71736 0.0
C2618 C 0.60154 0.25497 0.72524 0.0
C2619 C 0.57638 0.2576 0.73832 0.0
C2620 C 0.56206 0.25107 0.74365 0.0
C2621 C 0.58683 0.24872 0.72944 0.0
C2622 C 0.55783 0.23582 0.73887 0.0
C2623 C 0.56805 0.22701 0.72966 0.0
H2624 H 0.32823 0.08395 0.7265 0.0
H2625 H 0.29153 0.11775 0.7192 0.0
H2626 H 0.27259 0.10016 0.73182 0.0
H2627 H 0.26687 0.07618 0.74691 0.0
H2628 H 0.30375 0.04289 0.75541 0.0
H2629 H 0.32207 0.05913 0.74021 0.0
C2630 C 0.31608 0.08745 0.72764 0.0
C2631 C 0.31138 0.10223 0.72196 0.0
C2632 C 0.30525 0.07736 0.73517 0.0
C2633 C 0.2955 0.10642 0.72329 0.0
C2634 C 0.28465 0.09641 0.73063 0.0
C2635 C 0.2789 0.07244 0.74538 0.0
C2636 C 0.28394 0.05839 0.75244 0.0
C2637 C 0.28946 0.082 0.7369 0.0
C2638 C 0.2995 0.05358 0.75005 0.0
C2639 C 0.31003 0.06294 0.74146 0.0
H2640 H 0.44917 0.81687 0.71107 0.0
H2641 H 0.41669 0.823 0.74921 0.0
H2642 H 0.43532 0.81102 0.76739 0.0
H2643 H 0.45973 0.79663 0.77207 0.0
H2644 H 0.49158 0.78908 0.73371 0.0
H2645 H 0.47448 0.80399 0.71616 0.0
C2646 C 0.44617 0.81562 0.72336 0.0
C2647 C 0.43144 0.82076 0.72868 0.0
C2648 C 0.45685 0.80845 0.73376 0.0
C2649 C 0.42794 0.81931 0.74475 0.0
C2650 C 0.43856 0.81234 0.75517 0.0
C2651 C 0.46299 0.79832 0.75989 0.0
C2652 C 0.47688 0.79157 0.75422 0.0
C2653 C 0.45289 0.80655 0.74974 0.0
C2654 C 0.48105 0.7942 0.73847 0.0
C2655 C 0.47118 0.8026 0.72836 0.0
H2656 H 0.71432 0.94593 0.7161 0.0
H2657 H 0.71475 0.91366 0.75529 0.0
H2658 H 0.72902 0.93284 0.77118 0.0
H2659 H 0.74284 0.95795 0.77353 0.0
H2660 H 0.74397 0.99003 0.73425 0.0
H2661 H 0.72716 0.97209 0.71906 0.0
C2662 C 0.71741 0.9432 0.72817 0.0
C2663 C 0.71368 0.92828 0.73442 0.0
C2664 C 0.72583 0.95429 0.73726 0.0
C2665 C 0.71776 0.92492 0.75008 0.0
C2666 C 0.72584 0.93591 0.75922 0.0
C2667 C 0.73939 0.96106 0.76165 0.0
C2668 C 0.74486 0.97524 0.75498 0.0
C2669 C 0.7302 0.95049 0.75285 0.0
C2670 C 0.73991 0.97924 0.73971 0.0
C2671 C 0.73042 0.96889 0.73095 0.0
H2672 H 0.588 0.80651 0.33442 0.0
H2673 H 0.61779 0.82044 0.29578 0.0
H2674 H 0.59908 0.80894 0.27724 0.0
H2675 H 0.57528 0.79319 0.27206 0.0
H2676 H 0.54526 0.77937 0.31044 0.0
H2677 H 0.56273 0.79302 0.32894 0.0
C2678 C 0.59027 0.80732 0.32193 0.0
C2679 C 0.60447 0.81411 0.31657 0.0
C2680 C 0.57939 0.80071 0.31126 0.0
C2681 C 0.60719 0.81494 0.30031 0.0
C2682 C 0.59644 0.80844 0.28966 0.0
C2683 C 0.5725 0.79331 0.28447 0.0
C2684 C 0.55909 0.78516 0.2899 0.0
C2685 C 0.58269 0.80099 0.29502 0.0
C2686 C 0.55548 0.78561 0.30596 0.0
C2687 C 0.56554 0.7933 0.31655 0.0
H2688 H 0.71147 0.09125 0.32597 0.0
H2689 H 0.75206 0.12204 0.3287 0.0
H2690 H 0.76787 0.10281 0.31516 0.0
H2691 H 0.76994 0.07808 0.30121 0.0
H2692 H 0.72944 0.04743 0.29694 0.0
H2693 H 0.71403 0.06541 0.31289 0.0
C2694 C 0.72381 0.09365 0.32372 0.0
C2695 C 0.7305 0.1082 0.32814 0.0
C2696 C 0.73289 0.08252 0.31573 0.0
C2697 C 0.74652 0.11111 0.32514 0.0
C2698 C 0.75561 0.10007 0.31747 0.0
C2699 C 0.75773 0.07529 0.30377 0.0
C2700 C 0.75082 0.0615 0.29768 0.0
C2701 C 0.74886 0.08588 0.31247 0.0
C2702 C 0.7351 0.05791 0.3015 0.0
C2703 C 0.72624 0.06829 0.31049 0.0
H2704 H 0.44415 0.20274 0.31056 0.0
H2705 H 0.4225 0.24211 0.33311 0.0
H2706 H 0.44157 0.25987 0.32103 0.0
H2707 H 0.46318 0.26456 0.30257 0.0
H2708 H 0.48554 0.22549 0.28052 0.0
H2709 H 0.46777 0.20723 0.2943 0.0
C2710 C 0.44377 0.21515 0.31311 0.0
C2711 C 0.43162 0.22103 0.32254 0.0
C2712 C 0.45494 0.22538 0.30623 0.0
C2713 C 0.43136 0.23723 0.32558 0.0
C2714 C 0.44236 0.24742 0.31875 0.0
C2715 C 0.46428 0.25202 0.30097 0.0
C2716 C 0.47555 0.24635 0.2905 0.0
C2717 C 0.45398 0.24168 0.30881 0.0
C2718 C 0.47699 0.2301 0.28859 0.0
C2719 C 0.46675 0.21969 0.29637 0.0
H2720 H 0.32197 0.94378 0.3254 0.0
H2721 H 0.32353 0.91361 0.28502 0.0
H2722 H 0.30932 0.93289 0.26943 0.0
H2723 H 0.29507 0.95746 0.26757 0.0
H2724 H 0.29195 0.98738 0.30799 0.0
H2725 H 0.30861 0.96943 0.32304 0.0
C2726 C 0.31933 0.94154 0.31315 0.0
C2727 C 0.32361 0.92716 0.30646 0.0
C2728 C 0.31094 0.95268 0.30422 0.0
C2729 C 0.32009 0.92442 0.29055 0.0
C2730 C 0.31204 0.93549 0.28159 0.0
C2731 C 0.29803 0.9601 0.27968 0.0
C2732 C 0.29207 0.97367 0.28668 0.0
C2733 C 0.30716 0.94951 0.28837 0.0
C2734 C 0.29641 0.97707 0.30226 0.0
C2735 C 0.30581 0.96671 0.31093 0.0
H2736 H 0.70472 0.08797 0.72364 0.0
H2737 H 0.74214 0.1222 0.71811 0.0
H2738 H 0.76068 0.10429 0.73038 0.0
H2739 H 0.7659 0.07983 0.74464 0.0
H2740 H 0.72849 0.04585 0.75119 0.0
H2741 H 0.71045 0.06257 0.73638 0.0
C2742 C 0.71695 0.09149 0.72508 0.0
C2743 C 0.72197 0.10649 0.71999 0.0
C2744 C 0.72758 0.08116 0.73235 0.0
C2745 C 0.73793 0.11072 0.72174 0.0
C2746 C 0.74855 0.1005 0.72887 0.0
C2747 C 0.75382 0.07603 0.74274 0.0
C2748 C 0.74853 0.06167 0.74916 0.0
C2749 C 0.74345 0.08583 0.73449 0.0
C2750 C 0.73291 0.05679 0.74632 0.0
C2751 C 0.72254 0.06643 0.73797 0.0
H2752 H 0.71299 0.94387 0.32887 0.0
H2753 H 0.70916 0.91446 0.28799 0.0
H2754 H 0.72298 0.93419 0.27233 0.0
H2755 H 0.73782 0.95878 0.2706 0.0
H2756 H 0.74326 0.98792 0.31147 0.0
H2757 H 0.72667 0.96969 0.3266 0.0
C2758 C 0.71504 0.94191 0.3165 0.0
C2759 C 0.71027 0.92761 0.30967 0.0
C2760 C 0.72322 0.9533 0.30753 0.0
C2761 C 0.713 0.92521 0.29361 0.0
C2762 C 0.72083 0.93653 0.28461 0.0
C2763 C 0.73532 0.9612 0.28281 0.0
C2764 C 0.74195 0.97459 0.28994 0.0
C2765 C 0.72627 0.95044 0.29152 0.0
C2766 C 0.73827 0.97774 0.30566 0.0
C2767 C 0.72891 0.96722 0.31436 0.0
H2768 H 0.59283 0.2215 0.32961 0.0
H2769 H 0.61469 0.20552 0.28713 0.0
H2770 H 0.59649 0.2209 0.27139 0.0
H2771 H 0.57486 0.23932 0.26947 0.0
H2772 H 0.55242 0.25567 0.31137 0.0
H2773 H 0.5701 0.23959 0.32753 0.0
C2774 C 0.59357 0.22143 0.31691 0.0
C2775 C 0.60509 0.2123 0.30957 0.0
C2776 C 0.58292 0.23031 0.30782 0.0
C2777 C 0.60584 0.21225 0.29309 0.0
C2778 C 0.59546 0.2211 0.28406 0.0
C2779 C 0.57383 0.23937 0.28215 0.0
C2780 C 0.56245 0.24878 0.28922 0.0
C2781 C 0.58402 0.2302 0.29127 0.0
C2782 C 0.56106 0.2485 0.30565 0.0
C2783 C 0.57124 0.23938 0.31487 0.0
H2784 H 0.30519 0.09145 0.33974 0.0
H2785 H 0.33068 0.11243 0.30108 0.0
H2786 H 0.31945 0.09306 0.28327 0.0
H2787 H 0.30075 0.07152 0.27815 0.0
H2788 H 0.27585 0.04975 0.31654 0.0
H2789 H 0.28887 0.06772 0.33507 0.0
C2790 C 0.30857 0.09162 0.3275 0.0
C2791 C 0.31855 0.1037 0.32178 0.0
C2792 C 0.30219 0.08026 0.31725 0.0
C2793 C 0.32268 0.10365 0.3058 0.0
C2794 C 0.31636 0.09247 0.29559 0.0
C2795 C 0.29842 0.07056 0.29063 0.0
C2796 C 0.28736 0.05942 0.29602 0.0
C2797 C 0.30583 0.08096 0.3011 0.0
C2798 C 0.28442 0.05819 0.31218 0.0
C2799 C 0.29176 0.06855 0.32272 0.0
H2800 H 0.4461 0.81938 0.32502 0.0
H2801 H 0.41095 0.78257 0.32223 0.0
H2802 H 0.42899 0.7663 0.30756 0.0
H2803 H 0.45403 0.76302 0.29426 0.0
H2804 H 0.48882 0.80026 0.29511 0.0
H2805 H 0.47197 0.81557 0.31227 0.0
C2806 C 0.44249 0.80774 0.32129 0.0
C2807 C 0.42714 0.80226 0.32454 0.0
C2808 C 0.4529 0.79848 0.3126 0.0
C2809 C 0.4226 0.78716 0.31964 0.0
C2810 C 0.43293 0.77782 0.31132 0.0
C2811 C 0.45796 0.77451 0.29814 0.0
C2812 C 0.47261 0.78053 0.29318 0.0
C2813 C 0.44799 0.78345 0.30749 0.0
C2814 C 0.47765 0.79526 0.29878 0.0
C2815 C 0.46793 0.8041 0.30847 0.0
H2816 H 0.33295 0.94621 0.73734 0.0
H2817 H 0.29471 0.91752 0.7195 0.0
H2818 H 0.27574 0.93508 0.7311 0.0
H2819 H 0.26987 0.95764 0.74756 0.0
H2820 H 0.3078 0.98585 0.76657 0.0
H2821 H 0.32697 0.9695 0.75322 0.0
C2822 C 0.32047 0.94377 0.73601 0.0
C2823 C 0.31535 0.93046 0.72753 0.0
C2824 C 0.30953 0.95382 0.74297 0.0
C2825 C 0.29908 0.92772 0.72572 0.0
C2826 C 0.28818 0.9377 0.73249 0.0
C2827 C 0.28234 0.96021 0.74883 0.0
C2828 C 0.28738 0.97288 0.75821 0.0
C2829 C 0.29327 0.95064 0.74132 0.0
C2830 C 0.30357 0.97624 0.7594 0.0
C2831 C 0.31455 0.96681 0.75184 0.0
H2832 H 0.59252 0.82315 0.71646 0.0
H2833 H 0.62028 0.78192 0.70904 0.0
H2834 H 0.60103 0.76595 0.72319 0.0
H2835 H 0.57743 0.76389 0.73923 0.0
H2836 H 0.5499 0.80492 0.74803 0.0
H2837 H 0.56755 0.82064 0.73138 0.0
C2838 C 0.59422 0.81065 0.7178 0.0
C2839 C 0.60796 0.80379 0.71191 0.0
C2840 C 0.58311 0.80148 0.72616 0.0
C2841 C 0.60999 0.78755 0.71373 0.0
C2842 C 0.59895 0.77838 0.72176 0.0
C2843 C 0.57524 0.77627 0.73746 0.0
C2844 C 0.56248 0.78325 0.74504 0.0
C2845 C 0.58566 0.78527 0.72829 0.0
C2846 C 0.5596 0.79923 0.74231 0.0
C2847 C 0.56979 0.80825 0.7329 0.0
H2848 H 0.44342 0.22228 0.70591 0.0
H2849 H 0.41534 0.21026 0.74639 0.0
H2850 H 0.43515 0.22201 0.76361 0.0
H2851 H 0.45929 0.23766 0.76708 0.0
H2852 H 0.48755 0.24982 0.72689 0.0
H2853 H 0.46915 0.23557 0.70973 0.0
C2854 C 0.44177 0.22194 0.71851 0.0
C2855 C 0.42772 0.21562 0.72478 0.0
C2856 C 0.45327 0.22873 0.72842 0.0
C2857 C 0.42581 0.21538 0.74117 0.0
C2858 C 0.43719 0.22202 0.75106 0.0
C2859 C 0.46151 0.23702 0.75458 0.0
C2860 C 0.47466 0.24491 0.74823 0.0
C2861 C 0.45076 0.22906 0.7448 0.0
C2862 C 0.47754 0.24379 0.73206 0.0
C2863 C 0.46694 0.23577 0.72224 0.0
H2864 H 0.72256 0.70464 0.09143 0.0
H2865 H 0.71489 0.742 0.1243 0.0
H2866 H 0.72693 0.76078 0.1062 0.0
H2867 H 0.74149 0.76634 0.08199 0.0
H2868 H 0.75029 0.72897 0.04949 0.0
H2869 H 0.73581 0.71056 0.06634 0.0
C2870 C 0.7235 0.7169 0.09462 0.0
C2871 C 0.71786 0.72183 0.10929 0.0
C2872 C 0.73067 0.72766 0.08421 0.0
C2873 C 0.71894 0.73784 0.11307 0.0
C2874 C 0.72595 0.7486 0.10276 0.0
C2875 C 0.74019 0.75418 0.07855 0.0
C2876 C 0.74712 0.74903 0.06455 0.0
C2877 C 0.73212 0.7436 0.08844 0.0
C2878 C 0.74502 0.73329 0.06014 0.0
C2879 C 0.73686 0.72272 0.06985 0.0
H2880 H 0.30317 0.69745 0.09089 0.0
H2881 H 0.32155 0.73429 0.12057 0.0
H2882 H 0.31028 0.75397 0.10321 0.0
H2883 H 0.29407 0.76084 0.08046 0.0
H2884 H 0.27472 0.72442 0.05099 0.0
H2885 H 0.28758 0.7045 0.06729 0.0
C2886 C 0.30469 0.70978 0.09356 0.0
C2887 C 0.31324 0.71432 0.10706 0.0
C2888 C 0.29799 0.72113 0.08357 0.0
C2889 C 0.31527 0.7304 0.11019 0.0
C2890 C 0.30871 0.7417 0.10031 0.0
C2891 C 0.29265 0.74853 0.0776 0.0
C2892 C 0.28331 0.74411 0.06463 0.0
C2893 C 0.29989 0.7372 0.0871 0.0
C2894 C 0.28188 0.72814 0.06088 0.0
C2895 C 0.28915 0.71675 0.07026 0.0
H2896 H 0.30681 0.33744 0.0928 0.0
H2897 H 0.32276 0.29916 0.12195 0.0
H2898 H 0.31153 0.28037 0.10352 0.0
H2899 H 0.29603 0.27463 0.07995 0.0
H2900 H 0.27908 0.31245 0.05093 0.0
H2901 H 0.29196 0.33154 0.06835 0.0
C2902 C 0.30782 0.32499 0.09513 0.0
C2903 C 0.31568 0.31979 0.10882 0.0
C2904 C 0.30114 0.31414 0.08449 0.0
C2905 C 0.31703 0.30357 0.11147 0.0
C2906 C 0.31049 0.29277 0.10097 0.0
C2907 C 0.29514 0.28707 0.07742 0.0
C2908 C 0.28645 0.2921 0.06424 0.0
C2909 C 0.30238 0.29792 0.08757 0.0
C2910 C 0.28573 0.30824 0.06095 0.0
C2911 C 0.293 0.31916 0.07099 0.0
H2912 H 0.71187 0.32366 0.09306 0.0
H2913 H 0.75357 0.33152 0.12118 0.0
H2914 H 0.76898 0.31609 0.10303 0.0
H2915 H 0.77054 0.29948 0.0798 0.0
H2916 H 0.72919 0.29132 0.05134 0.0
H2917 H 0.71382 0.30796 0.06871 0.0
C2918 C 0.72432 0.32197 0.09517 0.0
C2919 C 0.73155 0.32874 0.10847 0.0
C2920 C 0.73321 0.31312 0.08456 0.0
C2921 C 0.74774 0.32658 0.11097 0.0
C2922 C 0.75657 0.31771 0.10062 0.0
C2923 C 0.75818 0.30143 0.07734 0.0
C2924 C 0.751 0.2941 0.06435 0.0
C2925 C 0.74942 0.31084 0.08745 0.0
C2926 C 0.73503 0.29692 0.0612 0.0
C2927 C 0.7262 0.30631 0.07122 0.0
H2928 H 0.72018 0.33284 0.95115 0.0
H2929 H 0.71212 0.29551 0.91801 0.0
H2930 H 0.72365 0.27676 0.93631 0.0
H2931 H 0.73809 0.27132 0.96072 0.0
H2932 H 0.74723 0.30873 0.99348 0.0
H2933 H 0.733 0.32697 0.97651 0.0
C2934 C 0.72091 0.32059 0.94796 0.0
C2935 C 0.71536 0.31565 0.93316 0.0
C2936 C 0.72775 0.30986 0.95849 0.0
C2937 C 0.71615 0.29966 0.92935 0.0
C2938 C 0.72285 0.28892 0.93978 0.0
C2939 C 0.73687 0.28345 0.9642 0.0
C2940 C 0.74386 0.28867 0.97829 0.0
C2941 C 0.72897 0.29394 0.95423 0.0
C2942 C 0.7419 0.30435 0.98276 0.0
C2943 C 0.73389 0.31483 0.97298 0.0
H2944 H 0.70582 0.71923 0.95234 0.0
H2945 H 0.74318 0.71354 0.91887 0.0
H2946 H 0.76177 0.72605 0.93688 0.0
H2947 H 0.76699 0.74076 0.96106 0.0
H2948 H 0.7295 0.74763 0.99408 0.0
H2949 H 0.71153 0.73234 0.9775 0.0
C2950 C 0.71804 0.72068 0.94901 0.0
C2951 C 0.72302 0.71551 0.93418 0.0
C2952 C 0.72868 0.72813 0.95936 0.0
C2953 C 0.73899 0.71724 0.93022 0.0
C2954 C 0.74964 0.72452 0.94048 0.0
C2955 C 0.75491 0.73882 0.96469 0.0
C2956 C 0.74958 0.74549 0.97874 0.0
C2957 C 0.74455 0.73031 0.95492 0.0
C2958 C 0.73397 0.74258 0.9834 0.0
C2959 C 0.72363 0.73395 0.97383 0.0
H2960 H 0.31932 0.71392 0.94966 0.0
H2961 H 0.32311 0.754 0.91874 0.0
H2962 H 0.30914 0.76998 0.93756 0.0
H2963 H 0.29465 0.77234 0.96201 0.0
H2964 H 0.2891 0.73221 0.99258 0.0
H2965 H 0.30541 0.71669 0.97506 0.0
C2966 C 0.31719 0.72619 0.94716 0.0
C2967 C 0.32207 0.73271 0.93272 0.0
C2968 C 0.30891 0.73533 0.95801 0.0
C2969 C 0.31922 0.74862 0.92962 0.0
C2970 C 0.3113 0.7578 0.94041 0.0
C2971 C 0.29695 0.76018 0.96486 0.0
C2972 C 0.29044 0.75342 0.97851 0.0
C2973 C 0.30586 0.75122 0.95451 0.0
C2974 C 0.29399 0.73776 0.98221 0.0
C2975 C 0.3032 0.72883 0.9721 0.0
H2976 H 0.3155 0.33063 0.94719 0.0
H2977 H 0.32703 0.29093 0.91847 0.0
H2978 H 0.31549 0.27319 0.93787 0.0
H2979 H 0.30011 0.26902 0.96184 0.0
H2980 H 0.28857 0.30844 0.99075 0.0
H2981 H 0.30264 0.32612 0.97276 0.0
C2982 C 0.3158 0.31809 0.94529 0.0
C2983 C 0.3219 0.31221 0.93117 0.0
C2984 C 0.30916 0.30786 0.95658 0.0
C2985 C 0.32206 0.29587 0.92898 0.0
C2986 C 0.31555 0.28568 0.94014 0.0
C2987 C 0.30088 0.28147 0.96431 0.0
C2988 C 0.2932 0.28743 0.97754 0.0
C2989 C 0.30873 0.29156 0.95378 0.0
C2990 C 0.29445 0.30354 0.9807 0.0
C2991 C 0.30236 0.31367 0.97033 0.0
H2992 H 0.58589 0.72034 0.20508 0.0
H2993 H 0.61864 0.71172 0.24298 0.0
H2994 H 0.60042 0.72302 0.26159 0.0
H2995 H 0.57616 0.73721 0.2669 0.0
H2996 H 0.54386 0.74715 0.229 0.0
H2997 H 0.56077 0.73331 0.21071 0.0
C2998 C 0.58904 0.72092 0.21741 0.0
C2999 C 0.60371 0.71521 0.22255 0.0
C3000 C 0.57856 0.72769 0.22809 0.0
C3001 C 0.60742 0.71582 0.23865 0.0
C3002 C 0.59703 0.72241 0.24932 0.0
C3003 C 0.57277 0.73631 0.25464 0.0
C3004 C 0.55882 0.74338 0.24932 0.0
C3005 C 0.58272 0.72864 0.24414 0.0
C3006 C 0.55447 0.74177 0.23346 0.0
C3007 C 0.56422 0.73397 0.22295 0.0
H3008 H 0.31385 0.59038 0.21048 0.0
H3009 H 0.3311 0.6126 0.25269 0.0
H3010 H 0.31571 0.59438 0.26866 0.0
H3011 H 0.29684 0.57272 0.27083 0.0
H3012 H 0.27923 0.54994 0.22919 0.0
H3013 H 0.29539 0.56759 0.21281 0.0
C3014 C 0.31421 0.59119 0.22317 0.0
C3015 C 0.32368 0.60282 0.23037 0.0
C3016 C 0.30531 0.58055 0.23238 0.0
C3017 C 0.3241 0.60365 0.24684 0.0
C3018 C 0.31524 0.59328 0.256 0.0
C3019 C 0.29655 0.57161 0.25815 0.0
C3020 C 0.28676 0.56016 0.25121 0.0
C3021 C 0.30576 0.58176 0.24892 0.0
C3022 C 0.28671 0.55865 0.2348 0.0
C3023 C 0.29586 0.5688 0.22545 0.0
H3024 H 0.44382 0.32893 0.22288 0.0
H3025 H 0.41895 0.28659 0.20965 0.0
H3026 H 0.43725 0.27096 0.22503 0.0
H3027 H 0.45992 0.26914 0.24254 0.0
H3028 H 0.48538 0.31089 0.25623 0.0
H3029 H 0.46751 0.3269 0.2402 0.0
C3030 C 0.44244 0.31629 0.22343 0.0
C3031 C 0.43005 0.30894 0.21506 0.0
C3032 C 0.45317 0.30727 0.23229 0.0
C3033 C 0.42847 0.29253 0.21579 0.0
C3034 C 0.43891 0.28357 0.22463 0.0
C3035 C 0.46157 0.28176 0.24204 0.0
C3036 C 0.47386 0.28883 0.25068 0.0
C3037 C 0.45125 0.2908 0.23293 0.0
C3038 C 0.47603 0.30516 0.24965 0.0
C3039 C 0.46574 0.31431 0.24057 0.0
H3040 H 0.71412 0.44629 0.21759 0.0
H3041 H 0.71455 0.41345 0.25629 0.0
H3042 H 0.72904 0.43229 0.27238 0.0
H3043 H 0.74297 0.4573 0.27504 0.0
H3044 H 0.74404 0.49001 0.23628 0.0
H3045 H 0.72713 0.47233 0.22086 0.0
C3046 C 0.71726 0.44336 0.22959 0.0
C3047 C 0.71345 0.42838 0.23565 0.0
C3048 C 0.7258 0.45426 0.2388 0.0
C3049 C 0.71761 0.42475 0.25123 0.0
C3050 C 0.72582 0.43556 0.26048 0.0
C3051 C 0.7395 0.4606 0.26322 0.0
C3052 C 0.74496 0.47488 0.25676 0.0
C3053 C 0.73022 0.45021 0.2543 0.0
C3054 C 0.73998 0.47912 0.24157 0.0
C3055 C 0.73043 0.46894 0.23269 0.0
H3056 H 0.58756 0.30503 0.838 0.0
H3057 H 0.61653 0.32395 0.8008 0.0
H3058 H 0.59917 0.31207 0.78128 0.0
H3059 H 0.5767 0.29517 0.77466 0.0
H3060 H 0.54807 0.2752 0.81149 0.0
H3061 H 0.5643 0.28867 0.83124 0.0
C3062 C 0.59008 0.30654 0.82562 0.0
C3063 C 0.60338 0.3154 0.82093 0.0
C3064 C 0.58014 0.29945 0.81438 0.0
C3065 C 0.60629 0.31742 0.80481 0.0
C3066 C 0.59643 0.31051 0.7936 0.0
C3067 C 0.57402 0.29373 0.78702 0.0
C3068 C 0.5613 0.28406 0.79161 0.0
C3069 C 0.58347 0.30133 0.79825 0.0
C3070 C 0.55777 0.28261 0.80764 0.0
C3071 C 0.5671 0.29023 0.81893 0.0
H3072 H 0.72604 0.58576 0.8379 0.0
H3073 H 0.71233 0.61694 0.80026 0.0
H3074 H 0.72372 0.59938 0.78114 0.0
H3075 H 0.73917 0.5762 0.77512 0.0
H3076 H 0.75407 0.5454 0.81251 0.0
H3077 H 0.74052 0.56167 0.83164 0.0
C3078 C 0.72554 0.58872 0.82551 0.0
C3079 C 0.71833 0.60274 0.8206 0.0
C3080 C 0.73236 0.57863 0.81451 0.0
C3081 C 0.71758 0.60619 0.80444 0.0
C3082 C 0.72422 0.59619 0.79347 0.0
C3083 C 0.73942 0.57301 0.78747 0.0
C3084 C 0.74776 0.55968 0.79239 0.0
C3085 C 0.73186 0.58254 0.79838 0.0
C3086 C 0.74769 0.55555 0.80838 0.0
C3087 C 0.74005 0.56492 0.81934 0.0
H3088 H 0.44287 0.70228 0.80771 0.0
H3089 H 0.42459 0.74065 0.83462 0.0
H3090 H 0.44418 0.75832 0.82326 0.0
H3091 H 0.46537 0.7634 0.80442 0.0
H3092 H 0.4846 0.72521 0.77825 0.0
H3093 H 0.46612 0.70686 0.79095 0.0
C3094 C 0.44333 0.71442 0.81136 0.0
C3095 C 0.43195 0.72011 0.82182 0.0
C3096 C 0.45484 0.72457 0.80493 0.0
C3097 C 0.43281 0.73596 0.82626 0.0
C3098 C 0.44411 0.7461 0.81987 0.0
C3099 C 0.46563 0.75101 0.80167 0.0
C3100 C 0.47623 0.74564 0.79038 0.0
C3101 C 0.45497 0.74061 0.80897 0.0
C3102 C 0.47658 0.72957 0.78697 0.0
C3103 C 0.46594 0.71912 0.79415 0.0
H3104 H 0.33477 0.44433 0.80574 0.0
H3105 H 0.29754 0.42444 0.83417 0.0
H3106 H 0.27923 0.44354 0.82362 0.0
H3107 H 0.27319 0.46467 0.80499 0.0
H3108 H 0.31017 0.48541 0.77714 0.0
H3109 H 0.32929 0.46755 0.78915 0.0
C3110 C 0.32274 0.44433 0.80989 0.0
C3111 C 0.31755 0.43265 0.82055 0.0
C3112 C 0.31222 0.45555 0.80389 0.0
C3113 C 0.30184 0.43291 0.82565 0.0
C3114 C 0.29134 0.44393 0.81971 0.0
C3115 C 0.2855 0.46541 0.80175 0.0
C3116 C 0.2903 0.47624 0.79017 0.0
C3117 C 0.29631 0.45508 0.80861 0.0
C3118 C 0.30625 0.4772 0.78609 0.0
C3119 C 0.31713 0.46691 0.79287 0.0
H3120 H 0.72214 0.59346 0.2138 0.0
H3121 H 0.70713 0.61683 0.2558 0.0
H3122 H 0.72044 0.59742 0.27197 0.0
H3123 H 0.73743 0.5748 0.27437 0.0
H3124 H 0.75369 0.55145 0.23294 0.0
H3125 H 0.73846 0.56949 0.21639 0.0
C3126 C 0.7217 0.59418 0.22649 0.0
C3127 C 0.71385 0.60675 0.23357 0.0
C3128 C 0.72955 0.58295 0.23582 0.0
C3129 C 0.71336 0.6075 0.25003 0.0
C3130 C 0.72089 0.59635 0.25931 0.0
C3131 C 0.73764 0.57363 0.2617 0.0
C3132 C 0.74685 0.56193 0.2549 0.0
C3133 C 0.72922 0.58421 0.25234 0.0
C3134 C 0.74669 0.56033 0.23849 0.0
C3135 C 0.73808 0.57073 0.22903 0.0
H3136 H 0.71203 0.44498 0.82402 0.0
H3137 H 0.71218 0.41211 0.78577 0.0
H3138 H 0.72668 0.4309 0.76955 0.0
H3139 H 0.74047 0.45598 0.76658 0.0
H3140 H 0.74196 0.48857 0.80505 0.0
H3141 H 0.72518 0.47091 0.82057 0.0
C3142 C 0.71513 0.44203 0.81209 0.0
C3143 C 0.7112 0.42708 0.80619 0.0
C3144 C 0.72367 0.45288 0.80281 0.0
C3145 C 0.71532 0.42341 0.7907 0.0
C3146 C 0.72353 0.43418 0.78137 0.0
C3147 C 0.73716 0.45925 0.77837 0.0
C3148 C 0.74266 0.47353 0.78468 0.0
C3149 C 0.72799 0.44883 0.78739 0.0
C3150 C 0.73785 0.47772 0.79983 0.0
C3151 C 0.72838 0.46753 0.80879 0.0
H3152 H 0.59548 0.72056 0.83018 0.0
H3153 H 0.61763 0.70482 0.78776 0.0
H3154 H 0.59809 0.7184 0.77194 0.0
H3155 H 0.57573 0.73581 0.76994 0.0
H3156 H 0.55353 0.7527 0.81176 0.0
H3157 H 0.5717 0.73727 0.82802 0.0
C3158 C 0.5959 0.72001 0.81748 0.0
C3159 C 0.60818 0.71189 0.81017 0.0
C3160 C 0.58459 0.728 0.80835 0.0
C3161 C 0.60854 0.71126 0.79369 0.0
C3162 C 0.59731 0.71895 0.78462 0.0
C3163 C 0.57483 0.73611 0.78263 0.0
C3164 C 0.56343 0.74555 0.78963 0.0
C3165 C 0.58548 0.72755 0.7918 0.0
C3166 C 0.56218 0.74552 0.80607 0.0
C3167 C 0.57266 0.73679 0.81536 0.0
H3168 H 0.32246 0.59221 0.82442 0.0
H3169 H 0.28226 0.62241 0.82684 0.0
H3170 H 0.2663 0.60322 0.81264 0.0
H3171 H 0.264 0.57867 0.7983 0.0
H3172 H 0.30418 0.5487 0.79423 0.0
H3173 H 0.31972 0.56664 0.81073 0.0
C3174 C 0.31017 0.59448 0.82194 0.0
C3175 C 0.30362 0.60883 0.8265 0.0
C3176 C 0.30103 0.5834 0.81354 0.0
C3177 C 0.28767 0.61161 0.82321 0.0
C3178 C 0.2785 0.6006 0.81516 0.0
C3179 C 0.27617 0.57604 0.80099 0.0
C3180 C 0.28296 0.56245 0.79483 0.0
C3181 C 0.28512 0.5866 0.81003 0.0
C3182 C 0.29863 0.55904 0.79883 0.0
C3183 C 0.30756 0.56938 0.80816 0.0
H3184 H 0.45038 0.3146 0.83018 0.0
H3185 H 0.41597 0.32071 0.79326 0.0
H3186 H 0.43346 0.30833 0.77463 0.0
H3187 H 0.45756 0.29386 0.76921 0.0
H3188 H 0.49146 0.28646 0.80633 0.0
H3189 H 0.47526 0.30138 0.82436 0.0
C3190 C 0.44671 0.31325 0.81806 0.0
C3191 C 0.43179 0.31854 0.81321 0.0
C3192 C 0.45674 0.30584 0.8074 0.0
C3193 C 0.4274 0.31694 0.79735 0.0
C3194 C 0.43736 0.30972 0.78668 0.0
C3195 C 0.46144 0.29554 0.78124 0.0
C3196 C 0.47565 0.28889 0.78642 0.0
C3197 C 0.45191 0.30385 0.79164 0.0
C3198 C 0.48064 0.29151 0.80197 0.0
C3199 C 0.4713 0.29993 0.81234 0.0
H3200 H 0.33559 0.44594 0.234 0.0
H3201 H 0.29737 0.41814 0.21477 0.0
H3202 H 0.2784 0.43608 0.22575 0.0
H3203 H 0.27244 0.45868 0.24206 0.0
H3204 H 0.3102 0.48616 0.26238 0.0
H3205 H 0.32953 0.46945 0.24963 0.0
C3206 C 0.32311 0.44379 0.23222 0.0
C3207 C 0.31799 0.43063 0.22353 0.0
C3208 C 0.31216 0.45411 0.23878 0.0
C3209 C 0.30174 0.42823 0.22117 0.0
C3210 C 0.29084 0.43844 0.22756 0.0
C3211 C 0.28491 0.46104 0.2437 0.0
C3212 C 0.28986 0.47356 0.25331 0.0
C3213 C 0.29589 0.45127 0.23655 0.0
C3214 C 0.30606 0.47665 0.25502 0.0
C3215 C 0.31711 0.46702 0.24782 0.0
H3216 H 0.59208 0.30552 0.2013 0.0
H3217 H 0.61578 0.32841 0.24002 0.0
H3218 H 0.59658 0.31741 0.25819 0.0
H3219 H 0.57429 0.29971 0.2635 0.0
H3220 H 0.54988 0.27724 0.22518 0.0
H3221 H 0.56778 0.29003 0.20639 0.0
C3222 C 0.5929 0.30836 0.21366 0.0
C3223 C 0.60566 0.31755 0.21925 0.0
C3224 C 0.58165 0.30208 0.22414 0.0
C3225 C 0.60644 0.32101 0.23537 0.0
C3226 C 0.59537 0.31482 0.2458 0.0
C3227 C 0.57277 0.29781 0.251 0.0
C3228 C 0.56088 0.2875 0.2457 0.0
C3229 C 0.58315 0.30507 0.24037 0.0
C3230 C 0.55891 0.2852 0.2295 0.0
C3231 C 0.56923 0.29241 0.2188 0.0
H3232 H 0.44246 0.71166 0.21287 0.0
H3233 H 0.41226 0.75187 0.21065 0.0
H3234 H 0.43157 0.7673 0.22537 0.0
H3235 H 0.45608 0.76894 0.24042 0.0
H3236 H 0.48607 0.7287 0.24385 0.0
H3237 H 0.46817 0.71394 0.22663 0.0
C3238 C 0.44022 0.72385 0.21544 0.0
C3239 C 0.42581 0.73051 0.21087 0.0
C3240 C 0.45139 0.73269 0.22406 0.0
C3241 C 0.42308 0.74634 0.21432 0.0
C3242 C 0.43416 0.75521 0.22266 0.0
C3243 C 0.45875 0.75696 0.23735 0.0
C3244 C 0.4723 0.74988 0.24359 0.0
C3245 C 0.44819 0.74843 0.22786 0.0
C3246 C 0.47577 0.73447 0.23917 0.0
C3247 C 0.46544 0.72597 0.22945 0.0
loop_
_geom_bond_atom_site_label_1
_geom_bond_atom_site_label_2
_geom_bond_distance
_geom_bond_site_symmetry_2
_ccdc_geom_bond_type
C0 C1 1.264 . S
C0 C5 1.479 . S
C0 C10 1.465 . S
C1 C0 1.264 . S
C1 C3 1.339 . S
C1 H28 0.931 . S
C2 C3 1.395 . S
C2 C4 1.320 . S
C3 C1 1.339 . S
C3 C2 1.395 . S
C3 H29 0.929 . S
C4 C2 1.320 . S
C4 C5 1.405 . S
C4 H30 0.930 . S
C5 C0 1.479 . S
C5 C4 1.405 . S
C5 H31 0.931 . S
U6 O7 2.454 . S
U6 O8 2.458 . S
U6 C9 2.984 . S
U6 C10 2.847 . S
U6 C23 2.882 . S
U6 O24 2.441 . S
U6 O25 2.420 . S
U6 O26 2.455 . S
U6 O27 2.449 . S
O7 U6 2.454 . S
O7 C9 1.353 . S
O8 U6 2.458 . S
O8 C9 1.286 . S
C9 U6 2.984 . S
C9 O7 1.353 . S
C9 O8 1.286 . S
C9 C11 1.363 . S
C10 C0 1.465 . S
C10 U6 2.847 . S
C10 O24 1.249 . S
C10 O25 1.202 . S
C11 C9 1.363 . S
C11 C13 1.408 . S
C11 C16 1.342 . S
C12 C13 1.310 . S
C12 C15 1.461 . S
C12 H32 0.932 . S
C13 C11 1.408 . S
C13 C12 1.310 . S
C13 H33 0.930 . S
C14 C15 1.474 . S
C14 C16 1.285 . S
C14 H34 0.929 . S
C15 C12 1.461 . S
C15 C14 1.474 . S
C16 C11 1.342 . S
C16 C14 1.285 . S
C16 H35 0.930 . S
C17 C20 1.424 . S
C17 C22 1.245 . S
C17 C23 1.428 . S
C18 C21 1.260 . S
C18 C22 1.477 . S
C18 H36 0.932 . S
C19 C20 1.384 . S
C19 C21 1.479 . S
C19 H37 0.929 . S
C20 C17 1.424 . S
C20 C19 1.384 . S
C20 H38 0.928 . S
C21 C18 1.260 . S
C21 C19 1.479 . S
C22 C17 1.245 . S
C22 C18 1.477 . S
C22 H39 0.932 . S
C23 U6 2.882 . S
C23 C17 1.428 . S
C23 O26 1.301 . S
C23 O27 1.282 . S
O24 U6 2.441 . S
O24 C10 1.249 . S
O25 U6 2.420 . S
O25 C10 1.202 . S
O26 U6 2.455 . S
O26 C23 1.301 . S
O27 U6 2.449 . S
O27 C23 1.282 . S
H28 C1 0.931 . S
H29 C3 0.929 . S
H30 C4 0.930 . S
H31 C5 0.931 . S
H32 C12 0.932 . S
H33 C13 0.930 . S
H34 C14 0.929 . S
H35 C16 0.930 . S
H36 C18 0.932 . S
H37 C19 0.929 . S
H38 C20 0.928 . S
H39 C22 0.932 . S
C40 C41 1.264 . S
C40 C45 1.479 . S
C40 C50 1.465 . S
C41 C40 1.264 . S
C41 C43 1.339 . S
C41 H68 0.931 . S
C42 C43 1.395 . S
C42 C44 1.320 . S
C43 C41 1.339 . S
C43 C42 1.395 . S
C43 H69 0.929 . S
C44 C42 1.320 . S
C44 C45 1.405 . S
C44 H70 0.930 . S
C45 C40 1.479 . S
C45 C44 1.405 . S
C45 H71 0.931 . S
U46 O47 2.454 . S
U46 O48 2.458 . S
U46 C49 2.984 . S
U46 C50 2.847 . S
U46 C63 2.882 . S
U46 O64 2.441 . S
U46 O65 2.420 . S
U46 O66 2.455 . S
U46 O67 2.449 . S
O47 U46 2.454 . S
O47 C49 1.353 . S
O48 U46 2.458 . S
O48 C49 1.286 . S
C49 U46 2.984 . S
C49 O47 1.353 . S
C49 O48 1.286 . S
C49 C51 1.363 . S
C50 C40 1.465 . S
C50 U46 2.847 . S
C50 O64 1.249 . S
C50 O65 1.202 . S
C51 C49 1.363 . S
C51 C53 1.408 . S
C51 C56 1.342 . S
C52 C53 1.310 . S
C52 C55 1.461 . S
C52 H72 0.932 . S
C53 C51 1.408 . S
C53 C52 1.310 . S
C53 H73 0.930 . S
C54 C55 1.474 . S
C54 C56 1.285 . S
C54 H74 0.929 . S
C55 C52 1.461 . S
C55 C54 1.474 . S
C56 C51 1.342 . S
C56 C54 1.285 . S
C56 H75 0.930 . S
C57 C60 1.424 . S
C57 C62 1.245 . S
C57 C63 1.428 . S
C58 C61 1.260 . S
C58 C62 1.477 . S
C58 H76 0.932 . S
C59 C60 1.384 . S
C59 C61 1.479 . S
C59 H77 0.929 . S
C60 C57 1.424 . S
C60 C59 1.384 . S
C60 H78 0.928 . S
C61 C58 1.260 . S
C61 C59 1.479 . S
C62 C57 1.245 . S
C62 C58 1.477 . S
C62 H79 0.932 . S
C63 U46 2.882 . S
C63 C57 1.428 . S
C63 O66 1.301 . S
C63 O67 1.282 . S
O64 U46 2.441 . S
O64 C50 1.249 . S
O65 U46 2.420 . S
O65 C50 1.202 . S
O66 U46 2.455 . S
O66 C63 1.301 . S
O67 U46 2.449 . S
O67 C63 1.282 . S
H68 C41 0.931 . S
H69 C43 0.929 . S
H70 C44 0.930 . S
H71 C45 0.931 . S
H72 C52 0.932 . S
H73 C53 0.930 . S
H74 C54 0.929 . S
H75 C56 0.930 . S
H76 C58 0.932 . S
H77 C59 0.929 . S
H78 C60 0.928 . S
H79 C62 0.932 . S
C80 C81 1.264 . S
C80 C85 1.479 . S
C80 C90 1.465 . S
C81 C80 1.264 . S
C81 C83 1.339 . S
C81 H108 0.931 . S
C82 C83 1.395 . S
C82 C84 1.320 . S
C83 C81 1.339 . S
C83 C82 1.395 . S
C83 H109 0.929 . S
C84 C82 1.320 . S
C84 C85 1.405 . S
C84 H110 0.930 . S
C85 C80 1.479 . S
C85 C84 1.405 . S
C85 H111 0.931 . S
U86 O87 2.454 . S
U86 O88 2.458 . S
U86 C89 2.984 . S
U86 C90 2.847 . S
U86 C103 2.882 . S
U86 O104 2.441 . S
U86 O105 2.420 . S
U86 O106 2.455 . S
U86 O107 2.449 . S
O87 U86 2.454 . S
O87 C89 1.353 . S
O88 U86 2.458 . S
O88 C89 1.286 . S
C89 U86 2.984 . S
C89 O87 1.353 . S
C89 O88 1.286 . S
C89 C91 1.363 . S
C90 C80 1.465 . S
C90 U86 2.847 . S
C90 O104 1.249 . S
C90 O105 1.202 . S
C91 C89 1.363 . S
C91 C93 1.408 . S
C91 C96 1.342 . S
C92 C93 1.310 . S
C92 C95 1.461 . S
C92 H112 0.932 . S
C93 C91 1.408 . S
C93 C92 1.310 . S
C93 H113 0.930 . S
C94 C95 1.474 . S
C94 C96 1.285 . S
C94 H114 0.929 . S
C95 C92 1.461 . S
C95 C94 1.474 . S
C96 C91 1.342 . S
C96 C94 1.285 . S
C96 H115 0.930 . S
C97 C100 1.424 . S
C97 C102 1.245 . S
C97 C103 1.428 . S
C98 C101 1.260 . S
C98 C102 1.477 . S
C98 H116 0.932 . S
C99 C100 1.384 . S
C99 C101 1.479 . S
C99 H117 0.929 . S
C100 C97 1.424 . S
C100 C99 1.384 . S
C100 H118 0.928 . S
C101 C98 1.260 . S
C101 C99 1.479 . S
C102 C97 1.245 . S
C102 C98 1.477 . S
C102 H119 0.932 . S
C103 U86 2.882 . S
C103 C97 1.428 . S
C103 O106 1.301 . S
C103 O107 1.282 . S
O104 U86 2.441 . S
O104 C90 1.249 . S
O105 U86 2.420 . S
O105 C90 1.202 . S
O106 U86 2.455 . S
O106 C103 1.301 . S
O107 U86 2.449 . S
O107 C103 1.282 . S
H108 C81 0.931 . S
H109 C83 0.929 . S
H110 C84 0.930 . S
H111 C85 0.931 . S
H112 C92 0.932 . S
H113 C93 0.930 . S
H114 C94 0.929 . S
H115 C96 0.930 . S
H116 C98 0.932 . S
H117 C99 0.929 . S
H118 C100 0.928 . S
H119 C102 0.932 . S
C120 C121 1.264 . S
C120 C125 1.479 . S
C120 C130 1.465 . S
C121 C120 1.264 . S
C121 C123 1.339 . S
C121 H148 0.931 . S
C122 C123 1.395 . S
C122 C124 1.320 . S
C123 C121 1.339 . S
C123 C122 1.395 . S
C123 H149 0.929 . S
C124 C122 1.320 . S
C124 C125 1.405 . S
C124 H150 0.930 . S
C125 C120 1.479 . S
C125 C124 1.405 . S
C125 H151 0.931 . S
U126 O127 2.454 . S
U126 O128 2.458 . S
U126 C129 2.984 . S
U126 C130 2.847 . S
U126 C143 2.882 . S
U126 O144 2.441 . S
U126 O145 2.420 . S
U126 O146 2.455 . S
U126 O147 2.449 . S
O127 U126 2.454 . S
O127 C129 1.353 . S
O128 U126 2.458 . S
O128 C129 1.286 . S
C129 U126 2.984 . S
C129 O127 1.353 . S
C129 O128 1.286 . S
C129 C131 1.363 . S
C130 C120 1.465 . S
C130 U126 2.847 . S
C130 O144 1.249 . S
C130 O145 1.202 . S
C131 C129 1.363 . S
C131 C133 1.408 . S
C131 C136 1.342 . S
C132 C133 1.310 . S
C132 C135 1.461 . S
C132 H152 0.932 . S
C133 C131 1.408 . S
C133 C132 1.310 . S
C133 H153 0.930 . S
C134 C135 1.474 . S
C134 C136 1.285 . S
C134 H154 0.929 . S
C135 C132 1.461 . S
C135 C134 1.474 . S
C136 C131 1.342 . S
C136 C134 1.285 . S
C136 H155 0.930 . S
C137 C140 1.424 . S
C137 C142 1.245 . S
C137 C143 1.428 . S
C138 C141 1.260 . S
C138 C142 1.477 . S
C138 H156 0.932 . S
C139 C140 1.384 . S
C139 C141 1.479 . S
C139 H157 0.929 . S
C140 C137 1.424 . S
C140 C139 1.384 . S
C140 H158 0.928 . S
C141 C138 1.260 . S
C141 C139 1.479 . S
C142 C137 1.245 . S
C142 C138 1.477 . S
C142 H159 0.932 . S
C143 U126 2.882 . S
C143 C137 1.428 . S
C143 O146 1.301 . S
C143 O147 1.282 . S
O144 U126 2.441 . S
O144 C130 1.249 . S
O145 U126 2.420 . S
O145 C130 1.202 . S
O146 U126 2.455 . S
O146 C143 1.301 . S
O147 U126 2.449 . S
O147 C143 1.282 . S
H148 C121 0.931 . S
H149 C123 0.929 . S
H150 C124 0.930 . S
H151 C125 0.931 . S
H152 C132 0.932 . S
H153 C133 0.930 . S
H154 C134 0.929 . S
H155 C136 0.930 . S
H156 C138 0.932 . S
H157 C139 0.929 . S
H158 C140 0.928 . S
H159 C142 0.932 . S
C160 C161 1.264 . S
C160 C165 1.479 . S
C160 C170 1.465 . S
C161 C160 1.264 . S
C161 C163 1.339 . S
C161 H188 0.931 . S
C162 C163 1.395 . S
C162 C164 1.320 . S
C163 C161 1.339 . S
C163 C162 1.395 . S
C163 H189 0.929 . S
C164 C162 1.320 . S
C164 C165 1.405 . S
C164 H190 0.930 . S
C165 C160 1.479 . S
C165 C164 1.405 . S
C165 H191 0.931 . S
U166 O167 2.454 . S
U166 O168 2.458 . S
U166 C169 2.984 . S
U166 C170 2.847 . S
U166 C183 2.882 . S
U166 O184 2.441 . S
U166 O185 2.420 . S
U166 O186 2.455 . S
U166 O187 2.449 . S
O167 U166 2.454 . S
O167 C169 1.353 . S
O168 U166 2.458 . S
O168 C169 1.286 . S
C169 U166 2.984 . S
C169 O167 1.353 . S
C169 O168 1.286 . S
C169 C171 1.363 . S
C170 C160 1.465 . S
C170 U166 2.847 . S
C170 O184 1.249 . S
C170 O185 1.202 . S
C171 C169 1.363 . S
C171 C173 1.408 . S
C171 C176 1.342 . S
C172 C173 1.310 . S
C172 C175 1.461 . S
C172 H192 0.932 . S
C173 C171 1.408 . S
C173 C172 1.310 . S
C173 H193 0.930 . S
C174 C175 1.474 . S
C174 C176 1.285 . S
C174 H194 0.929 . S
C175 C172 1.461 . S
C175 C174 1.474 . S
C176 C171 1.342 . S
C176 C174 1.285 . S
C176 H195 0.930 . S
C177 C180 1.424 . S
C177 C182 1.245 . S
C177 C183 1.428 . S
C178 C181 1.260 . S
C178 C182 1.477 . S
C178 H196 0.932 . S
C179 C180 1.384 . S
C179 C181 1.479 . S
C179 H197 0.929 . S
C180 C177 1.424 . S
C180 C179 1.384 . S
C180 H198 0.928 . S
C181 C178 1.260 . S
C181 C179 1.479 . S
C182 C177 1.245 . S
C182 C178 1.477 . S
C182 H199 0.932 . S
C183 U166 2.882 . S
C183 C177 1.428 . S
C183 O186 1.301 . S
C183 O187 1.282 . S
O184 U166 2.441 . S
O184 C170 1.249 . S
O185 U166 2.420 . S
O185 C170 1.202 . S
O186 U166 2.455 . S
O186 C183 1.301 . S
O187 U166 2.449 . S
O187 C183 1.282 . S
H188 C161 0.931 . S
H189 C163 0.929 . S
H190 C164 0.930 . S
H191 C165 0.931 . S
H192 C172 0.932 . S
H193 C173 0.930 . S
H194 C174 0.929 . S
H195 C176 0.930 . S
H196 C178 0.932 . S
H197 C179 0.929 . S
H198 C180 0.928 . S
H199 C182 0.932 . S
C200 C201 1.264 . S
C200 C205 1.479 . S
C200 C210 1.465 . S
C201 C200 1.264 . S
C201 C203 1.339 . S
C201 H228 0.931 . S
C202 C203 1.395 . S
C202 C204 1.320 . S
C203 C201 1.339 . S
C203 C202 1.395 . S
C203 H229 0.929 . S
C204 C202 1.320 . S
C204 C205 1.405 . S
C204 H230 0.930 . S
C205 C200 1.479 . S
C205 C204 1.405 . S
C205 H231 0.931 . S
U206 O207 2.454 . S
U206 O208 2.458 . S
U206 C209 2.984 . S
U206 C210 2.847 . S
U206 C223 2.882 . S
U206 O224 2.441 . S
U206 O225 2.420 . S
U206 O226 2.455 . S
U206 O227 2.449 . S
O207 U206 2.454 . S
O207 C209 1.353 . S
O208 U206 2.458 . S
O208 C209 1.286 . S
C209 U206 2.984 . S
C209 O207 1.353 . S
C209 O208 1.286 . S
C209 C211 1.363 . S
C210 C200 1.465 . S
C210 U206 2.847 . S
C210 O224 1.249 . S
C210 O225 1.202 . S
C211 C209 1.363 . S
C211 C213 1.408 . S
C211 C216 1.342 . S
C212 C213 1.310 . S
C212 C215 1.461 . S
C212 H232 0.932 . S
C213 C211 1.408 . S
C213 C212 1.310 . S
C213 H233 0.930 . S
C214 C215 1.474 . S
C214 C216 1.285 . S
C214 H234 0.929 . S
C215 C212 1.461 . S
C215 C214 1.474 . S
C216 C211 1.342 . S
C216 C214 1.285 . S
C216 H235 0.930 . S
C217 C220 1.424 . S
C217 C222 1.245 . S
C217 C223 1.428 . S
C218 C221 1.260 . S
C218 C222 1.477 . S
C218 H236 0.932 . S
C219 C220 1.384 . S
C219 C221 1.479 . S
C219 H237 0.929 . S
C220 C217 1.424 . S
C220 C219 1.384 . S
C220 H238 0.928 . S
C221 C218 1.260 . S
C221 C219 1.479 . S
C222 C217 1.245 . S
C222 C218 1.477 . S
C222 H239 0.932 . S
C223 U206 2.882 . S
C223 C217 1.428 . S
C223 O226 1.301 . S
C223 O227 1.282 . S
O224 U206 2.441 . S
O224 C210 1.249 . S
O225 U206 2.420 . S
O225 C210 1.202 . S
O226 U206 2.455 . S
O226 C223 1.301 . S
O227 U206 2.449 . S
O227 C223 1.282 . S
H228 C201 0.931 . S
H229 C203 0.929 . S
H230 C204 0.930 . S
H231 C205 0.931 . S
H232 C212 0.932 . S
H233 C213 0.930 . S
H234 C214 0.929 . S
H235 C216 0.930 . S
H236 C218 0.932 . S
H237 C219 0.929 . S
H238 C220 0.928 . S
H239 C222 0.932 . S
C240 C241 1.264 . S
C240 C245 1.479 . S
C240 C250 1.465 . S
C241 C240 1.264 . S
C241 C243 1.339 . S
C241 H268 0.931 . S
C242 C243 1.395 . S
C242 C244 1.320 . S
C243 C241 1.339 . S
C243 C242 1.395 . S
C243 H269 0.929 . S
C244 C242 1.320 . S
C244 C245 1.405 . S
C244 H270 0.930 . S
C245 C240 1.479 . S
C245 C244 1.405 . S
C245 H271 0.931 . S
U246 O247 2.454 . S
U246 O248 2.458 . S
U246 C249 2.984 . S
U246 C250 2.847 . S
U246 C263 2.882 . S
U246 O264 2.441 . S
U246 O265 2.420 . S
U246 O266 2.455 . S
U246 O267 2.449 . S
O247 U246 2.454 . S
O247 C249 1.353 . S
O248 U246 2.458 . S
O248 C249 1.286 . S
C249 U246 2.984 . S
C249 O247 1.353 . S
C249 O248 1.286 . S
C249 C251 1.363 . S
C250 C240 1.465 . S
C250 U246 2.847 . S
C250 O264 1.249 . S
C250 O265 1.202 . S
C251 C249 1.363 . S
C251 C253 1.408 . S
C251 C256 1.342 . S
C252 C253 1.310 . S
C252 C255 1.461 . S
C252 H272 0.932 . S
C253 C251 1.408 . S
C253 C252 1.310 . S
C253 H273 0.930 . S
C254 C255 1.474 . S
C254 C256 1.285 . S
C254 H274 0.929 . S
C255 C252 1.461 . S
C255 C254 1.474 . S
C256 C251 1.342 . S
C256 C254 1.285 . S
C256 H275 0.930 . S
C257 C260 1.424 . S
C257 C262 1.245 . S
C257 C263 1.428 . S
C258 C261 1.260 . S
C258 C262 1.477 . S
C258 H276 0.932 . S
C259 C260 1.384 . S
C259 C261 1.479 . S
C259 H277 0.929 . S
C260 C257 1.424 . S
C260 C259 1.384 . S
C260 H278 0.928 . S
C261 C258 1.260 . S
C261 C259 1.479 . S
C262 C257 1.245 . S
C262 C258 1.477 . S
C262 H279 0.932 . S
C263 U246 2.882 . S
C263 C257 1.428 . S
C263 O266 1.301 . S
C263 O267 1.282 . S
O264 U246 2.441 . S
O264 C250 1.249 . S
O265 U246 2.420 . S
O265 C250 1.202 . S
O266 U246 2.455 . S
O266 C263 1.301 . S
O267 U246 2.449 . S
O267 C263 1.282 . S
H268 C241 0.931 . S
H269 C243 0.929 . S
H270 C244 0.930 . S
H271 C245 0.931 . S
H272 C252 0.932 . S
H273 C253 0.930 . S
H274 C254 0.929 . S
H275 C256 0.930 . S
H276 C258 0.932 . S
H277 C259 0.929 . S
H278 C260 0.928 . S
H279 C262 0.932 . S
C280 C281 1.264 . S
C280 C285 1.479 . S
C280 C290 1.465 . S
C281 C280 1.264 . S
C281 C283 1.339 . S
C281 H308 0.931 . S
C282 C283 1.395 . S
C282 C284 1.320 . S
C283 C281 1.339 . S
C283 C282 1.395 . S
C283 H309 0.929 . S
C284 C282 1.320 . S
C284 C285 1.405 . S
C284 H310 0.930 . S
C285 C280 1.479 . S
C285 C284 1.405 . S
C285 H311 0.931 . S
U286 O287 2.454 . S
U286 O288 2.458 . S
U286 C289 2.984 . S
U286 C290 2.847 . S
U286 C303 2.882 . S
U286 O304 2.441 . S
U286 O305 2.420 . S
U286 O306 2.455 . S
U286 O307 2.449 . S
O287 U286 2.454 . S
O287 C289 1.353 . S
O288 U286 2.458 . S
O288 C289 1.286 . S
C289 U286 2.984 . S
C289 O287 1.353 . S
C289 O288 1.286 . S
C289 C291 1.363 . S
C290 C280 1.465 . S
C290 U286 2.847 . S
C290 O304 1.249 . S
C290 O305 1.202 . S
C291 C289 1.363 . S
C291 C293 1.408 . S
C291 C296 1.342 . S
C292 C293 1.310 . S
C292 C295 1.461 . S
C292 H312 0.932 . S
C293 C291 1.408 . S
C293 C292 1.310 . S
C293 H313 0.930 . S
C294 C295 1.474 . S
C294 C296 1.285 . S
C294 H314 0.929 . S
C295 C292 1.461 . S
C295 C294 1.474 . S
C296 C291 1.342 . S
C296 C294 1.285 . S
C296 H315 0.930 . S
C297 C300 1.424 . S
C297 C302 1.245 . S
C297 C303 1.428 . S
C298 C301 1.260 . S
C298 C302 1.477 . S
C298 H316 0.932 . S
C299 C300 1.384 . S
C299 C301 1.479 . S
C299 H317 0.929 . S
C300 C297 1.424 . S
C300 C299 1.384 . S
C300 H318 0.928 . S
C301 C298 1.260 . S
C301 C299 1.479 . S
C302 C297 1.245 . S
C302 C298 1.477 . S
C302 H319 0.932 . S
C303 U286 2.882 . S
C303 C297 1.428 . S
C303 O306 1.301 . S
C303 O307 1.282 . S
O304 U286 2.441 . S
O304 C290 1.249 . S
O305 U286 2.420 . S
O305 C290 1.202 . S
O306 U286 2.455 . S
O306 C303 1.301 . S
O307 U286 2.449 . S
O307 C303 1.282 . S
H308 C281 0.931 . S
H309 C283 0.929 . S
H310 C284 0.930 . S
H311 C285 0.931 . S
H312 C292 0.932 . S
H313 C293 0.930 . S
H314 C294 0.929 . S
H315 C296 0.930 . S
H316 C298 0.932 . S
H317 C299 0.929 . S
H318 C300 0.928 . S
H319 C302 0.932 . S
C320 C321 1.264 . S
C320 C325 1.479 . S
C320 C330 1.465 . S
C321 C320 1.264 . S
C321 C323 1.339 . S
C321 H348 0.931 . S
C322 C323 1.395 . S
C322 C324 1.320 . S
C323 C321 1.339 . S
C323 C322 1.395 . S
C323 H349 0.929 . S
C324 C322 1.320 . S
C324 C325 1.405 . S
C324 H350 0.930 . S
C325 C320 1.479 . S
C325 C324 1.405 . S
C325 H351 0.931 . S
U326 O327 2.454 . S
U326 O328 2.458 . S
U326 C329 2.984 . S
U326 C330 2.847 . S
U326 C343 2.882 . S
U326 O344 2.441 . S
U326 O345 2.420 . S
U326 O346 2.455 . S
U326 O347 2.449 . S
O327 U326 2.454 . S
O327 C329 1.353 . S
O328 U326 2.458 . S
O328 C329 1.286 . S
C329 U326 2.984 . S
C329 O327 1.353 . S
C329 O328 1.286 . S
C329 C331 1.363 . S
C330 C320 1.465 . S
C330 U326 2.847 . S
C330 O344 1.249 . S
C330 O345 1.202 . S
C331 C329 1.363 . S
C331 C333 1.408 . S
C331 C336 1.342 . S
C332 C333 1.310 . S
C332 C335 1.461 . S
C332 H352 0.932 . S
C333 C331 1.408 . S
C333 C332 1.310 . S
C333 H353 0.930 . S
C334 C335 1.474 . S
C334 C336 1.285 . S
C334 H354 0.929 . S
C335 C332 1.461 . S
C335 C334 1.474 . S
C336 C331 1.342 . S
C336 C334 1.285 . S
C336 H355 0.930 . S
C337 C340 1.424 . S
C337 C342 1.245 . S
C337 C343 1.428 . S
C338 C341 1.260 . S
C338 C342 1.477 . S
C338 H356 0.932 . S
C339 C340 1.384 . S
C339 C341 1.479 . S
C339 H357 0.929 . S
C340 C337 1.424 . S
C340 C339 1.384 . S
C340 H358 0.928 . S
C341 C338 1.260 . S
C341 C339 1.479 . S
C342 C337 1.245 . S
C342 C338 1.477 . S
C342 H359 0.932 . S
C343 U326 2.882 . S
C343 C337 1.428 . S
C343 O346 1.301 . S
C343 O347 1.282 . S
O344 U326 2.441 . S
O344 C330 1.249 . S
O345 U326 2.420 . S
O345 C330 1.202 . S
O346 U326 2.455 . S
O346 C343 1.301 . S
O347 U326 2.449 . S
O347 C343 1.282 . S
H348 C321 0.931 . S
H349 C323 0.929 . S
H350 C324 0.930 . S
H351 C325 0.931 . S
H352 C332 0.932 . S
H353 C333 0.930 . S
H354 C334 0.929 . S
H355 C336 0.930 . S
H356 C338 0.932 . S
H357 C339 0.929 . S
H358 C340 0.928 . S
H359 C342 0.932 . S
C360 C361 1.264 . S
C360 C365 1.479 . S
C360 C370 1.465 . S
C361 C360 1.264 . S
C361 C363 1.339 . S
C361 H388 0.931 . S
C362 C363 1.395 . S
C362 C364 1.320 . S
C363 C361 1.339 . S
C363 C362 1.395 . S
C363 H389 0.929 . S
C364 C362 1.320 . S
C364 C365 1.405 . S
C364 H390 0.930 . S
C365 C360 1.479 . S
C365 C364 1.405 . S
C365 H391 0.931 . S
U366 O367 2.454 . S
U366 O368 2.458 . S
U366 C369 2.984 . S
U366 C370 2.847 . S
U366 C383 2.882 . S
U366 O384 2.441 . S
U366 O385 2.420 . S
U366 O386 2.455 . S
U366 O387 2.449 . S
O367 U366 2.454 . S
O367 C369 1.353 . S
O368 U366 2.458 . S
O368 C369 1.286 . S
C369 U366 2.984 . S
C369 O367 1.353 . S
C369 O368 1.286 . S
C369 C371 1.363 . S
C370 C360 1.465 . S
C370 U366 2.847 . S
C370 O384 1.249 . S
C370 O385 1.202 . S
C371 C369 1.363 . S
C371 C373 1.408 . S
C371 C376 1.342 . S
C372 C373 1.310 . S
C372 C375 1.461 . S
C372 H392 0.932 . S
C373 C371 1.408 . S
C373 C372 1.310 . S
C373 H393 0.930 . S
C374 C375 1.474 . S
C374 C376 1.285 . S
C374 H394 0.929 . S
C375 C372 1.461 . S
C375 C374 1.474 . S
C376 C371 1.342 . S
C376 C374 1.285 . S
C376 H395 0.930 . S
C377 C380 1.424 . S
C377 C382 1.245 . S
C377 C383 1.428 . S
C378 C381 1.260 . S
C378 C382 1.477 . S
C378 H396 0.932 . S
C379 C380 1.384 . S
C379 C381 1.479 . S
C379 H397 0.929 . S
C380 C377 1.424 . S
C380 C379 1.384 . S
C380 H398 0.928 . S
C381 C378 1.260 . S
C381 C379 1.479 . S
C382 C377 1.245 . S
C382 C378 1.477 . S
C382 H399 0.932 . S
C383 U366 2.882 . S
C383 C377 1.428 . S
C383 O386 1.301 . S
C383 O387 1.282 . S
O384 U366 2.441 . S
O384 C370 1.249 . S
O385 U366 2.420 . S
O385 C370 1.202 . S
O386 U366 2.455 . S
O386 C383 1.301 . S
O387 U366 2.449 . S
O387 C383 1.282 . S
H388 C361 0.931 . S
H389 C363 0.929 . S
H390 C364 0.930 . S
H391 C365 0.931 . S
H392 C372 0.932 . S
H393 C373 0.930 . S
H394 C374 0.929 . S
H395 C376 0.930 . S
H396 C378 0.932 . S
H397 C379 0.929 . S
H398 C380 0.928 . S
H399 C382 0.932 . S
C400 C401 1.264 . S
C400 C405 1.479 . S
C400 C410 1.465 . S
C401 C400 1.264 . S
C401 C403 1.339 . S
C401 H428 0.931 . S
C402 C403 1.395 . S
C402 C404 1.320 . S
C403 C401 1.339 . S
C403 C402 1.395 . S
C403 H429 0.929 . S
C404 C402 1.320 . S
C404 C405 1.405 . S
C404 H430 0.930 . S
C405 C400 1.479 . S
C405 C404 1.405 . S
C405 H431 0.931 . S
U406 O407 2.454 . S
U406 O408 2.458 . S
U406 C409 2.984 . S
U406 C410 2.847 . S
U406 C423 2.882 . S
U406 O424 2.441 . S
U406 O425 2.420 . S
U406 O426 2.455 . S
U406 O427 2.449 . S
O407 U406 2.454 . S
O407 C409 1.353 . S
O408 U406 2.458 . S
O408 C409 1.286 . S
C409 U406 2.984 . S
C409 O407 1.353 . S
C409 O408 1.286 . S
C409 C411 1.363 . S
C410 C400 1.465 . S
C410 U406 2.847 . S
C410 O424 1.249 . S
C410 O425 1.202 . S
C411 C409 1.363 . S
C411 C413 1.408 . S
C411 C416 1.342 . S
C412 C413 1.310 . S
C412 C415 1.461 . S
C412 H432 0.932 . S
C413 C411 1.408 . S
C413 C412 1.310 . S
C413 H433 0.930 . S
C414 C415 1.474 . S
C414 C416 1.285 . S
C414 H434 0.929 . S
C415 C412 1.461 . S
C415 C414 1.474 . S
C416 C411 1.342 . S
C416 C414 1.285 . S
C416 H435 0.930 . S
C417 C420 1.424 . S
C417 C422 1.245 . S
C417 C423 1.428 . S
C418 C421 1.260 . S
C418 C422 1.477 . S
C418 H436 0.932 . S
C419 C420 1.384 . S
C419 C421 1.479 . S
C419 H437 0.929 . S
C420 C417 1.424 . S
C420 C419 1.384 . S
C420 H438 0.928 . S
C421 C418 1.260 . S
C421 C419 1.479 . S
C422 C417 1.245 . S
C422 C418 1.477 . S
C422 H439 0.932 . S
C423 U406 2.882 . S
C423 C417 1.428 . S
C423 O426 1.301 . S
C423 O427 1.282 . S
O424 U406 2.441 . S
O424 C410 1.249 . S
O425 U406 2.420 . S
O425 C410 1.202 . S
O426 U406 2.455 . S
O426 C423 1.301 . S
O427 U406 2.449 . S
O427 C423 1.282 . S
H428 C401 0.931 . S
H429 C403 0.929 . S
H430 C404 0.930 . S
H431 C405 0.931 . S
H432 C412 0.932 . S
H433 C413 0.930 . S
H434 C414 0.929 . S
H435 C416 0.930 . S
H436 C418 0.932 . S
H437 C419 0.929 . S
H438 C420 0.928 . S
H439 C422 0.932 . S
C440 C441 1.264 . S
C440 C445 1.479 . S
C440 C450 1.465 . S
C441 C440 1.264 . S
C441 C443 1.339 . S
C441 H468 0.931 . S
C442 C443 1.395 . S
C442 C444 1.320 . S
C443 C441 1.339 . S
C443 C442 1.395 . S
C443 H469 0.929 . S
C444 C442 1.320 . S
C444 C445 1.405 . S
C444 H470 0.930 . S
C445 C440 1.479 . S
C445 C444 1.405 . S
C445 H471 0.931 . S
U446 O447 2.454 . S
U446 O448 2.458 . S
U446 C449 2.984 . S
U446 C450 2.847 . S
U446 C463 2.882 . S
U446 O464 2.441 . S
U446 O465 2.420 . S
U446 O466 2.455 . S
U446 O467 2.449 . S
O447 U446 2.454 . S
O447 C449 1.353 . S
O448 U446 2.458 . S
O448 C449 1.286 . S
C449 U446 2.984 . S
C449 O447 1.353 . S
C449 O448 1.286 . S
C449 C451 1.363 . S
C450 C440 1.465 . S
C450 U446 2.847 . S
C450 O464 1.249 . S
C450 O465 1.202 . S
C451 C449 1.363 . S
C451 C453 1.408 . S
C451 C456 1.342 . S
C452 C453 1.310 . S
C452 C455 1.461 . S
C452 H472 0.932 . S
C453 C451 1.408 . S
C453 C452 1.310 . S
C453 H473 0.930 . S
C454 C455 1.474 . S
C454 C456 1.285 . S
C454 H474 0.929 . S
C455 C452 1.461 . S
C455 C454 1.474 . S
C456 C451 1.342 . S
C456 C454 1.285 . S
C456 H475 0.930 . S
C457 C460 1.424 . S
C457 C462 1.245 . S
C457 C463 1.428 . S
C458 C461 1.260 . S
C458 C462 1.477 . S
C458 H476 0.932 . S
C459 C460 1.384 . S
C459 C461 1.479 . S
C459 H477 0.929 . S
C460 C457 1.424 . S
C460 C459 1.384 . S
C460 H478 0.928 . S
C461 C458 1.260 . S
C461 C459 1.479 . S
C462 C457 1.245 . S
C462 C458 1.477 . S
C462 H479 0.932 . S
C463 U446 2.882 . S
C463 C457 1.428 . S
C463 O466 1.301 . S
C463 O467 1.282 . S
O464 U446 2.441 . S
O464 C450 1.249 . S
O465 U446 2.420 . S
O465 C450 1.202 . S
O466 U446 2.455 . S
O466 C463 1.301 . S
O467 U446 2.449 . S
O467 C463 1.282 . S
H468 C441 0.931 . S
H469 C443 0.929 . S
H470 C444 0.930 . S
H471 C445 0.931 . S
H472 C452 0.932 . S
H473 C453 0.930 . S
H474 C454 0.929 . S
H475 C456 0.930 . S
H476 C458 0.932 . S
H477 C459 0.929 . S
H478 C460 0.928 . S
H479 C462 0.932 . S
C480 C481 1.264 . S
C480 C485 1.479 . S
C480 C490 1.465 . S
C481 C480 1.264 . S
C481 C483 1.339 . S
C481 H508 0.931 . S
C482 C483 1.395 . S
C482 C484 1.320 . S
C483 C481 1.339 . S
C483 C482 1.395 . S
C483 H509 0.929 . S
C484 C482 1.320 . S
C484 C485 1.405 . S
C484 H510 0.930 . S
C485 C480 1.479 . S
C485 C484 1.405 . S
C485 H511 0.931 . S
U486 O487 2.454 . S
U486 O488 2.458 . S
U486 C489 2.984 . S
U486 C490 2.847 . S
U486 C503 2.882 . S
U486 O504 2.441 . S
U486 O505 2.420 . S
U486 O506 2.455 . S
U486 O507 2.449 . S
O487 U486 2.454 . S
O487 C489 1.353 . S
O488 U486 2.458 . S
O488 C489 1.286 . S
C489 U486 2.984 . S
C489 O487 1.353 . S
C489 O488 1.286 . S
C489 C491 1.363 . S
C490 C480 1.465 . S
C490 U486 2.847 . S
C490 O504 1.249 . S
C490 O505 1.202 . S
C491 C489 1.363 . S
C491 C493 1.408 . S
C491 C496 1.342 . S
C492 C493 1.310 . S
C492 C495 1.461 . S
C492 H512 0.932 . S
C493 C491 1.408 . S
C493 C492 1.310 . S
C493 H513 0.930 . S
C494 C495 1.474 . S
C494 C496 1.285 . S
C494 H514 0.929 . S
C495 C492 1.461 . S
C495 C494 1.474 . S
C496 C491 1.342 . S
C496 C494 1.285 . S
C496 H515 0.930 . S
C497 C500 1.424 . S
C497 C502 1.245 . S
C497 C503 1.428 . S
C498 C501 1.260 . S
C498 C502 1.477 . S
C498 H516 0.932 . S
C499 C500 1.384 . S
C499 C501 1.479 . S
C499 H517 0.929 . S
C500 C497 1.424 . S
C500 C499 1.384 . S
C500 H518 0.928 . S
C501 C498 1.260 . S
C501 C499 1.479 . S
C502 C497 1.245 . S
C502 C498 1.477 . S
C502 H519 0.932 . S
C503 U486 2.882 . S
C503 C497 1.428 . S
C503 O506 1.301 . S
C503 O507 1.282 . S
O504 U486 2.441 . S
O504 C490 1.249 . S
O505 U486 2.420 . S
O505 C490 1.202 . S
O506 U486 2.455 . S
O506 C503 1.301 . S
O507 U486 2.449 . S
O507 C503 1.282 . S
H508 C481 0.931 . S
H509 C483 0.929 . S
H510 C484 0.930 . S
H511 C485 0.931 . S
H512 C492 0.932 . S
H513 C493 0.930 . S
H514 C494 0.929 . S
H515 C496 0.930 . S
H516 C498 0.932 . S
H517 C499 0.929 . S
H518 C500 0.928 . S
H519 C502 0.932 . S
C520 C521 1.264 . S
C520 C525 1.479 . S
C520 C530 1.465 . S
C521 C520 1.264 . S
C521 C523 1.339 . S
C521 H548 0.931 . S
C522 C523 1.395 . S
C522 C524 1.320 . S
C523 C521 1.339 . S
C523 C522 1.395 . S
C523 H549 0.929 . S
C524 C522 1.320 . S
C524 C525 1.405 . S
C524 H550 0.930 . S
C525 C520 1.479 . S
C525 C524 1.405 . S
C525 H551 0.931 . S
U526 O527 2.454 . S
U526 O528 2.458 . S
U526 C529 2.984 . S
U526 C530 2.847 . S
U526 C543 2.882 . S
U526 O544 2.441 . S
U526 O545 2.420 . S
U526 O546 2.455 . S
U526 O547 2.449 . S
O527 U526 2.454 . S
O527 C529 1.353 . S
O528 U526 2.458 . S
O528 C529 1.286 . S
C529 U526 2.984 . S
C529 O527 1.353 . S
C529 O528 1.286 . S
C529 C531 1.363 . S
C530 C520 1.465 . S
C530 U526 2.847 . S
C530 O544 1.249 . S
C530 O545 1.202 . S
C531 C529 1.363 . S
C531 C533 1.408 . S
C531 C536 1.342 . S
C532 C533 1.310 . S
C532 C535 1.461 . S
C532 H552 0.932 . S
C533 C531 1.408 . S
C533 C532 1.310 . S
C533 H553 0.930 . S
C534 C535 1.474 . S
C534 C536 1.285 . S
C534 H554 0.929 . S
C535 C532 1.461 . S
C535 C534 1.474 . S
C536 C531 1.342 . S
C536 C534 1.285 . S
C536 H555 0.930 . S
C537 C540 1.424 . S
C537 C542 1.245 . S
C537 C543 1.428 . S
C538 C541 1.260 . S
C538 C542 1.477 . S
C538 H556 0.932 . S
C539 C540 1.384 . S
C539 C541 1.479 . S
C539 H557 0.929 . S
C540 C537 1.424 . S
C540 C539 1.384 . S
C540 H558 0.928 . S
C541 C538 1.260 . S
C541 C539 1.479 . S
C542 C537 1.245 . S
C542 C538 1.477 . S
C542 H559 0.932 . S
C543 U526 2.882 . S
C543 C537 1.428 . S
C543 O546 1.301 . S
C543 O547 1.282 . S
O544 U526 2.441 . S
O544 C530 1.249 . S
O545 U526 2.420 . S
O545 C530 1.202 . S
O546 U526 2.455 . S
O546 C543 1.301 . S
O547 U526 2.449 . S
O547 C543 1.282 . S
H548 C521 0.931 . S
H549 C523 0.929 . S
H550 C524 0.930 . S
H551 C525 0.931 . S
H552 C532 0.932 . S
H553 C533 0.930 . S
H554 C534 0.929 . S
H555 C536 0.930 . S
H556 C538 0.932 . S
H557 C539 0.929 . S
H558 C540 0.928 . S
H559 C542 0.932 . S
C560 C561 1.264 . S
C560 C565 1.479 . S
C560 C570 1.465 . S
C561 C560 1.264 . S
C561 C563 1.339 . S
C561 H588 0.931 . S
C562 C563 1.395 . S
C562 C564 1.320 . S
C563 C561 1.339 . S
C563 C562 1.395 . S
C563 H589 0.929 . S
C564 C562 1.320 . S
C564 C565 1.405 . S
C564 H590 0.930 . S
C565 C560 1.479 . S
C565 C564 1.405 . S
C565 H591 0.931 . S
U566 O567 2.454 . S
U566 O568 2.458 . S
U566 C569 2.984 . S
U566 C570 2.847 . S
U566 C583 2.882 . S
U566 O584 2.441 . S
U566 O585 2.420 . S
U566 O586 2.455 . S
U566 O587 2.449 . S
O567 U566 2.454 . S
O567 C569 1.353 . S
O568 U566 2.458 . S
O568 C569 1.286 . S
C569 U566 2.984 . S
C569 O567 1.353 . S
C569 O568 1.286 . S
C569 C571 1.363 . S
C570 C560 1.465 . S
C570 U566 2.847 . S
C570 O584 1.249 . S
C570 O585 1.202 . S
C571 C569 1.363 . S
C571 C573 1.408 . S
C571 C576 1.342 . S
C572 C573 1.310 . S
C572 C575 1.461 . S
C572 H592 0.932 . S
C573 C571 1.408 . S
C573 C572 1.310 . S
C573 H593 0.930 . S
C574 C575 1.474 . S
C574 C576 1.285 . S
C574 H594 0.929 . S
C575 C572 1.461 . S
C575 C574 1.474 . S
C576 C571 1.342 . S
C576 C574 1.285 . S
C576 H595 0.930 . S
C577 C580 1.424 . S
C577 C582 1.245 . S
C577 C583 1.428 . S
C578 C581 1.260 . S
C578 C582 1.477 . S
C578 H596 0.932 . S
C579 C580 1.384 . S
C579 C581 1.479 . S
C579 H597 0.929 . S
C580 C577 1.424 . S
C580 C579 1.384 . S
C580 H598 0.928 . S
C581 C578 1.260 . S
C581 C579 1.479 . S
C582 C577 1.245 . S
C582 C578 1.477 . S
C582 H599 0.932 . S
C583 U566 2.882 . S
C583 C577 1.428 . S
C583 O586 1.301 . S
C583 O587 1.282 . S
O584 U566 2.441 . S
O584 C570 1.249 . S
O585 U566 2.420 . S
O585 C570 1.202 . S
O586 U566 2.455 . S
O586 C583 1.301 . S
O587 U566 2.449 . S
O587 C583 1.282 . S
H588 C561 0.931 . S
H589 C563 0.929 . S
H590 C564 0.930 . S
H591 C565 0.931 . S
H592 C572 0.932 . S
H593 C573 0.930 . S
H594 C574 0.929 . S
H595 C576 0.930 . S
H596 C578 0.932 . S
H597 C579 0.929 . S
H598 C580 0.928 . S
H599 C582 0.932 . S
C600 C601 1.264 . S
C600 C605 1.479 . S
C600 C610 1.465 . S
C601 C600 1.264 . S
C601 C603 1.339 . S
C601 H628 0.931 . S
C602 C603 1.395 . S
C602 C604 1.320 . S
C603 C601 1.339 . S
C603 C602 1.395 . S
C603 H629 0.929 . S
C604 C602 1.320 . S
C604 C605 1.405 . S
C604 H630 0.930 . S
C605 C600 1.479 . S
C605 C604 1.405 . S
C605 H631 0.931 . S
U606 O607 2.454 . S
U606 O608 2.458 . S
U606 C609 2.984 . S
U606 C610 2.847 . S
U606 C623 2.882 . S
U606 O624 2.441 . S
U606 O625 2.420 . S
U606 O626 2.455 . S
U606 O627 2.449 . S
O607 U606 2.454 . S
O607 C609 1.353 . S
O608 U606 2.458 . S
O608 C609 1.286 . S
C609 U606 2.984 . S
C609 O607 1.353 . S
C609 O608 1.286 . S
C609 C611 1.363 . S
C610 C600 1.465 . S
C610 U606 2.847 . S
C610 O624 1.249 . S
C610 O625 1.202 . S
C611 C609 1.363 . S
C611 C613 1.408 . S
C611 C616 1.342 . S
C612 C613 1.310 . S
C612 C615 1.461 . S
C612 H632 0.932 . S
C613 C611 1.408 . S
C613 C612 1.310 . S
C613 H633 0.930 . S
C614 C615 1.474 . S
C614 C616 1.285 . S
C614 H634 0.929 . S
C615 C612 1.461 . S
C615 C614 1.474 . S
C616 C611 1.342 . S
C616 C614 1.285 . S
C616 H635 0.930 . S
C617 C620 1.424 . S
C617 C622 1.245 . S
C617 C623 1.428 . S
C618 C621 1.260 . S
C618 C622 1.477 . S
C618 H636 0.932 . S
C619 C620 1.384 . S
C619 C621 1.479 . S
C619 H637 0.929 . S
C620 C617 1.424 . S
C620 C619 1.384 . S
C620 H638 0.928 . S
C621 C618 1.260 . S
C621 C619 1.479 . S
C622 C617 1.245 . S
C622 C618 1.477 . S
C622 H639 0.932 . S
C623 U606 2.882 . S
C623 C617 1.428 . S
C623 O626 1.301 . S
C623 O627 1.282 . S
O624 U606 2.441 . S
O624 C610 1.249 . S
O625 U606 2.420 . S
O625 C610 1.202 . S
O626 U606 2.455 . S
O626 C623 1.301 . S
O627 U606 2.449 . S
O627 C623 1.282 . S
H628 C601 0.931 . S
H629 C603 0.929 . S
H630 C604 0.930 . S
H631 C605 0.931 . S
H632 C612 0.932 . S
H633 C613 0.930 . S
H634 C614 0.929 . S
H635 C616 0.930 . S
H636 C618 0.932 . S
H637 C619 0.929 . S
H638 C620 0.928 . S
H639 C622 0.932 . S
C640 C641 1.264 . S
C640 C645 1.479 . S
C640 C650 1.465 . S
C641 C640 1.264 . S
C641 C643 1.339 . S
C641 H668 0.931 . S
C642 C643 1.395 . S
C642 C644 1.320 . S
C643 C641 1.339 . S
C643 C642 1.395 . S
C643 H669 0.929 . S
C644 C642 1.320 . S
C644 C645 1.405 . S
C644 H670 0.930 . S
C645 C640 1.479 . S
C645 C644 1.405 . S
C645 H671 0.931 . S
U646 O647 2.454 . S
U646 O648 2.458 . S
U646 C649 2.984 . S
U646 C650 2.847 . S
U646 C663 2.882 . S
U646 O664 2.441 . S
U646 O665 2.420 . S
U646 O666 2.455 . S
U646 O667 2.449 . S
O647 U646 2.454 . S
O647 C649 1.353 . S
O648 U646 2.458 . S
O648 C649 1.286 . S
C649 U646 2.984 . S
C649 O647 1.353 . S
C649 O648 1.286 . S
C649 C651 1.363 . S
C650 C640 1.465 . S
C650 U646 2.847 . S
C650 O664 1.249 . S
C650 O665 1.202 . S
C651 C649 1.363 . S
C651 C653 1.408 . S
C651 C656 1.342 . S
C652 C653 1.310 . S
C652 C655 1.461 . S
C652 H672 0.932 . S
C653 C651 1.408 . S
C653 C652 1.310 . S
C653 H673 0.930 . S
C654 C655 1.474 . S
C654 C656 1.285 . S
C654 H674 0.929 . S
C655 C652 1.461 . S
C655 C654 1.474 . S
C656 C651 1.342 . S
C656 C654 1.285 . S
C656 H675 0.930 . S
C657 C660 1.424 . S
C657 C662 1.245 . S
C657 C663 1.428 . S
C658 C661 1.260 . S
C658 C662 1.477 . S
C658 H676 0.932 . S
C659 C660 1.384 . S
C659 C661 1.479 . S
C659 H677 0.929 . S
C660 C657 1.424 . S
C660 C659 1.384 . S
C660 H678 0.928 . S
C661 C658 1.260 . S
C661 C659 1.479 . S
C662 C657 1.245 . S
C662 C658 1.477 . S
C662 H679 0.932 . S
C663 U646 2.882 . S
C663 C657 1.428 . S
C663 O666 1.301 . S
C663 O667 1.282 . S
O664 U646 2.441 . S
O664 C650 1.249 . S
O665 U646 2.420 . S
O665 C650 1.202 . S
O666 U646 2.455 . S
O666 C663 1.301 . S
O667 U646 2.449 . S
O667 C663 1.282 . S
H668 C641 0.931 . S
H669 C643 0.929 . S
H670 C644 0.930 . S
H671 C645 0.931 . S
H672 C652 0.932 . S
H673 C653 0.930 . S
H674 C654 0.929 . S
H675 C656 0.930 . S
H676 C658 0.932 . S
H677 C659 0.929 . S
H678 C660 0.928 . S
H679 C662 0.932 . S
C680 C681 1.264 . S
C680 C685 1.479 . S
C680 C690 1.465 . S
C681 C680 1.264 . S
C681 C683 1.339 . S
C681 H708 0.931 . S
C682 C683 1.395 . S
C682 C684 1.320 . S
C683 C681 1.339 . S
C683 C682 1.395 . S
C683 H709 0.929 . S
C684 C682 1.320 . S
C684 C685 1.405 . S
C684 H710 0.930 . S
C685 C680 1.479 . S
C685 C684 1.405 . S
C685 H711 0.931 . S
U686 O687 2.454 . S
U686 O688 2.458 . S
U686 C689 2.984 . S
U686 C690 2.847 . S
U686 C703 2.882 . S
U686 O704 2.441 . S
U686 O705 2.420 . S
U686 O706 2.455 . S
U686 O707 2.449 . S
O687 U686 2.454 . S
O687 C689 1.353 . S
O688 U686 2.458 . S
O688 C689 1.286 . S
C689 U686 2.984 . S
C689 O687 1.353 . S
C689 O688 1.286 . S
C689 C691 1.363 . S
C690 C680 1.465 . S
C690 U686 2.847 . S
C690 O704 1.249 . S
C690 O705 1.202 . S
C691 C689 1.363 . S
C691 C693 1.408 . S
C691 C696 1.342 . S
C692 C693 1.310 . S
C692 C695 1.461 . S
C692 H712 0.932 . S
C693 C691 1.408 . S
C693 C692 1.310 . S
C693 H713 0.930 . S
C694 C695 1.474 . S
C694 C696 1.285 . S
C694 H714 0.929 . S
C695 C692 1.461 . S
C695 C694 1.474 . S
C696 C691 1.342 . S
C696 C694 1.285 . S
C696 H715 0.930 . S
C697 C700 1.424 . S
C697 C702 1.245 . S
C697 C703 1.428 . S
C698 C701 1.260 . S
C698 C702 1.477 . S
C698 H716 0.932 . S
C699 C700 1.384 . S
C699 C701 1.479 . S
C699 H717 0.929 . S
C700 C697 1.424 . S
C700 C699 1.384 . S
C700 H718 0.928 . S
C701 C698 1.260 . S
C701 C699 1.479 . S
C702 C697 1.245 . S
C702 C698 1.477 . S
C702 H719 0.932 . S
C703 U686 2.882 . S
C703 C697 1.428 . S
C703 O706 1.301 . S
C703 O707 1.282 . S
O704 U686 2.441 . S
O704 C690 1.249 . S
O705 U686 2.420 . S
O705 C690 1.202 . S
O706 U686 2.455 . S
O706 C703 1.301 . S
O707 U686 2.449 . S
O707 C703 1.282 . S
H708 C681 0.931 . S
H709 C683 0.929 . S
H710 C684 0.930 . S
H711 C685 0.931 . S
H712 C692 0.932 . S
H713 C693 0.930 . S
H714 C694 0.929 . S
H715 C696 0.930 . S
H716 C698 0.932 . S
H717 C699 0.929 . S
H718 C700 0.928 . S
H719 C702 0.932 . S
C720 C721 1.264 . S
C720 C725 1.479 . S
C720 C730 1.465 . S
C721 C720 1.264 . S
C721 C723 1.339 . S
C721 H748 0.931 . S
C722 C723 1.395 . S
C722 C724 1.320 . S
C723 C721 1.339 . S
C723 C722 1.395 . S
C723 H749 0.929 . S
C724 C722 1.320 . S
C724 C725 1.405 . S
C724 H750 0.930 . S
C725 C720 1.479 . S
C725 C724 1.405 . S
C725 H751 0.931 . S
U726 O727 2.454 . S
U726 O728 2.458 . S
U726 C729 2.984 . S
U726 C730 2.847 . S
U726 C743 2.882 . S
U726 O744 2.441 . S
U726 O745 2.420 . S
U726 O746 2.455 . S
U726 O747 2.449 . S
O727 U726 2.454 . S
O727 C729 1.353 . S
O728 U726 2.458 . S
O728 C729 1.286 . S
C729 U726 2.984 . S
C729 O727 1.353 . S
C729 O728 1.286 . S
C729 C731 1.363 . S
C730 C720 1.465 . S
C730 U726 2.847 . S
C730 O744 1.249 . S
C730 O745 1.202 . S
C731 C729 1.363 . S
C731 C733 1.408 . S
C731 C736 1.342 . S
C732 C733 1.310 . S
C732 C735 1.461 . S
C732 H752 0.932 . S
C733 C731 1.408 . S
C733 C732 1.310 . S
C733 H753 0.930 . S
C734 C735 1.474 . S
C734 C736 1.285 . S
C734 H754 0.929 . S
C735 C732 1.461 . S
C735 C734 1.474 . S
C736 C731 1.342 . S
C736 C734 1.285 . S
C736 H755 0.930 . S
C737 C740 1.424 . S
C737 C742 1.245 . S
C737 C743 1.428 . S
C738 C741 1.260 . S
C738 C742 1.477 . S
C738 H756 0.932 . S
C739 C740 1.384 . S
C739 C741 1.479 . S
C739 H757 0.929 . S
C740 C737 1.424 . S
C740 C739 1.384 . S
C740 H758 0.928 . S
C741 C738 1.260 . S
C741 C739 1.479 . S
C742 C737 1.245 . S
C742 C738 1.477 . S
C742 H759 0.932 . S
C743 U726 2.882 . S
C743 C737 1.428 . S
C743 O746 1.301 . S
C743 O747 1.282 . S
O744 U726 2.441 . S
O744 C730 1.249 . S
O745 U726 2.420 . S
O745 C730 1.202 . S
O746 U726 2.455 . S
O746 C743 1.301 . S
O747 U726 2.449 . S
O747 C743 1.282 . S
H748 C721 0.931 . S
H749 C723 0.929 . S
H750 C724 0.930 . S
H751 C725 0.931 . S
H752 C732 0.932 . S
H753 C733 0.930 . S
H754 C734 0.929 . S
H755 C736 0.930 . S
H756 C738 0.932 . S
H757 C739 0.929 . S
H758 C740 0.928 . S
H759 C742 0.932 . S
C760 C761 1.264 . S
C760 C765 1.479 . S
C760 C770 1.465 . S
C761 C760 1.264 . S
C761 C763 1.339 . S
C761 H788 0.931 . S
C762 C763 1.395 . S
C762 C764 1.320 . S
C763 C761 1.339 . S
C763 C762 1.395 . S
C763 H789 0.929 . S
C764 C762 1.320 . S
C764 C765 1.405 . S
C764 H790 0.930 . S
C765 C760 1.479 . S
C765 C764 1.405 . S
C765 H791 0.931 . S
U766 O767 2.454 . S
U766 O768 2.458 . S
U766 C769 2.984 . S
U766 C770 2.847 . S
U766 C783 2.882 . S
U766 O784 2.441 . S
U766 O785 2.420 . S
U766 O786 2.455 . S
U766 O787 2.449 . S
O767 U766 2.454 . S
O767 C769 1.353 . S
O768 U766 2.458 . S
O768 C769 1.286 . S
C769 U766 2.984 . S
C769 O767 1.353 . S
C769 O768 1.286 . S
C769 C771 1.363 . S
C770 C760 1.465 . S
C770 U766 2.847 . S
C770 O784 1.249 . S
C770 O785 1.202 . S
C771 C769 1.363 . S
C771 C773 1.408 . S
C771 C776 1.342 . S
C772 C773 1.310 . S
C772 C775 1.461 . S
C772 H792 0.932 . S
C773 C771 1.408 . S
C773 C772 1.310 . S
C773 H793 0.930 . S
C774 C775 1.474 . S
C774 C776 1.285 . S
C774 H794 0.929 . S
C775 C772 1.461 . S
C775 C774 1.474 . S
C776 C771 1.342 . S
C776 C774 1.285 . S
C776 H795 0.930 . S
C777 C780 1.424 . S
C777 C782 1.245 . S
C777 C783 1.428 . S
C778 C781 1.260 . S
C778 C782 1.477 . S
C778 H796 0.932 . S
C779 C780 1.384 . S
C779 C781 1.479 . S
C779 H797 0.929 . S
C780 C777 1.424 . S
C780 C779 1.384 . S
C780 H798 0.928 . S
C781 C778 1.260 . S
C781 C779 1.479 . S
C782 C777 1.245 . S
C782 C778 1.477 . S
C782 H799 0.932 . S
C783 U766 2.882 . S
C783 C777 1.428 . S
C783 O786 1.301 . S
C783 O787 1.282 . S
O784 U766 2.441 . S
O784 C770 1.249 . S
O785 U766 2.420 . S
O785 C770 1.202 . S
O786 U766 2.455 . S
O786 C783 1.301 . S
O787 U766 2.449 . S
O787 C783 1.282 . S
H788 C761 0.931 . S
H789 C763 0.929 . S
H790 C764 0.930 . S
H791 C765 0.931 . S
H792 C772 0.932 . S
H793 C773 0.930 . S
H794 C774 0.929 . S
H795 C776 0.930 . S
H796 C778 0.932 . S
H797 C779 0.929 . S
H798 C780 0.928 . S
H799 C782 0.932 . S
C800 C801 1.264 . S
C800 C805 1.479 . S
C800 C810 1.465 . S
C801 C800 1.264 . S
C801 C803 1.339 . S
C801 H828 0.931 . S
C802 C803 1.395 . S
C802 C804 1.320 . S
C803 C801 1.339 . S
C803 C802 1.395 . S
C803 H829 0.929 . S
C804 C802 1.320 . S
C804 C805 1.405 . S
C804 H830 0.930 . S
C805 C800 1.479 . S
C805 C804 1.405 . S
C805 H831 0.931 . S
U806 O807 2.454 . S
U806 O808 2.458 . S
U806 C809 2.984 . S
U806 C810 2.847 . S
U806 C823 2.882 . S
U806 O824 2.441 . S
U806 O825 2.420 . S
U806 O826 2.455 . S
U806 O827 2.449 . S
O807 U806 2.454 . S
O807 C809 1.353 . S
O808 U806 2.458 . S
O808 C809 1.286 . S
C809 U806 2.984 . S
C809 O807 1.353 . S
C809 O808 1.286 . S
C809 C811 1.363 . S
C810 C800 1.465 . S
C810 U806 2.847 . S
C810 O824 1.249 . S
C810 O825 1.202 . S
C811 C809 1.363 . S
C811 C813 1.408 . S
C811 C816 1.342 . S
C812 C813 1.310 . S
C812 C815 1.461 . S
C812 H832 0.932 . S
C813 C811 1.408 . S
C813 C812 1.310 . S
C813 H833 0.930 . S
C814 C815 1.474 . S
C814 C816 1.285 . S
C814 H834 0.929 . S
C815 C812 1.461 . S
C815 C814 1.474 . S
C816 C811 1.342 . S
C816 C814 1.285 . S
C816 H835 0.930 . S
C817 C820 1.424 . S
C817 C822 1.245 . S
C817 C823 1.428 . S
C818 C821 1.260 . S
C818 C822 1.477 . S
C818 H836 0.932 . S
C819 C820 1.384 . S
C819 C821 1.479 . S
C819 H837 0.929 . S
C820 C817 1.424 . S
C820 C819 1.384 . S
C820 H838 0.928 . S
C821 C818 1.260 . S
C821 C819 1.479 . S
C822 C817 1.245 . S
C822 C818 1.477 . S
C822 H839 0.932 . S
C823 U806 2.882 . S
C823 C817 1.428 . S
C823 O826 1.301 . S
C823 O827 1.282 . S
O824 U806 2.441 . S
O824 C810 1.249 . S
O825 U806 2.420 . S
O825 C810 1.202 . S
O826 U806 2.455 . S
O826 C823 1.301 . S
O827 U806 2.449 . S
O827 C823 1.282 . S
H828 C801 0.931 . S
H829 C803 0.929 . S
H830 C804 0.930 . S
H831 C805 0.931 . S
H832 C812 0.932 . S
H833 C813 0.930 . S
H834 C814 0.929 . S
H835 C816 0.930 . S
H836 C818 0.932 . S
H837 C819 0.929 . S
H838 C820 0.928 . S
H839 C822 0.932 . S
C840 C841 1.264 . S
C840 C845 1.479 . S
C840 C850 1.465 . S
C841 C840 1.264 . S
C841 C843 1.339 . S
C841 H868 0.931 . S
C842 C843 1.395 . S
C842 C844 1.320 . S
C843 C841 1.339 . S
C843 C842 1.395 . S
C843 H869 0.929 . S
C844 C842 1.320 . S
C844 C845 1.405 . S
C844 H870 0.930 . S
C845 C840 1.479 . S
C845 C844 1.405 . S
C845 H871 0.931 . S
U846 O847 2.454 . S
U846 O848 2.458 . S
U846 C849 2.984 . S
U846 C850 2.847 . S
U846 C863 2.882 . S
U846 O864 2.441 . S
U846 O865 2.420 . S
U846 O866 2.455 . S
U846 O867 2.449 . S
O847 U846 2.454 . S
O847 C849 1.353 . S
O848 U846 2.458 . S
O848 C849 1.286 . S
C849 U846 2.984 . S
C849 O847 1.353 . S
C849 O848 1.286 . S
C849 C851 1.363 . S
C850 C840 1.465 . S
C850 U846 2.847 . S
C850 O864 1.249 . S
C850 O865 1.202 . S
C851 C849 1.363 . S
C851 C853 1.408 . S
C851 C856 1.342 . S
C852 C853 1.310 . S
C852 C855 1.461 . S
C852 H872 0.932 . S
C853 C851 1.408 . S
C853 C852 1.310 . S
C853 H873 0.930 . S
C854 C855 1.474 . S
C854 C856 1.285 . S
C854 H874 0.929 . S
C855 C852 1.461 . S
C855 C854 1.474 . S
C856 C851 1.342 . S
C856 C854 1.285 . S
C856 H875 0.930 . S
C857 C860 1.424 . S
C857 C862 1.245 . S
C857 C863 1.428 . S
C858 C861 1.260 . S
C858 C862 1.477 . S
C858 H876 0.932 . S
C859 C860 1.384 . S
C859 C861 1.479 . S
C859 H877 0.929 . S
C860 C857 1.424 . S
C860 C859 1.384 . S
C860 H878 0.928 . S
C861 C858 1.260 . S
C861 C859 1.479 . S
C862 C857 1.245 . S
C862 C858 1.477 . S
C862 H879 0.932 . S
C863 U846 2.882 . S
C863 C857 1.428 . S
C863 O866 1.301 . S
C863 O867 1.282 . S
O864 U846 2.441 . S
O864 C850 1.249 . S
O865 U846 2.420 . S
O865 C850 1.202 . S
O866 U846 2.455 . S
O866 C863 1.301 . S
O867 U846 2.449 . S
O867 C863 1.282 . S
H868 C841 0.931 . S
H869 C843 0.929 . S
H870 C844 0.930 . S
H871 C845 0.931 . S
H872 C852 0.932 . S
H873 C853 0.930 . S
H874 C854 0.929 . S
H875 C856 0.930 . S
H876 C858 0.932 . S
H877 C859 0.929 . S
H878 C860 0.928 . S
H879 C862 0.932 . S
C880 C881 1.264 . S
C880 C885 1.479 . S
C880 C890 1.465 . S
C881 C880 1.264 . S
C881 C883 1.339 . S
C881 H908 0.931 . S
C882 C883 1.395 . S
C882 C884 1.320 . S
C883 C881 1.339 . S
C883 C882 1.395 . S
C883 H909 0.929 . S
C884 C882 1.320 . S
C884 C885 1.405 . S
C884 H910 0.930 . S
C885 C880 1.479 . S
C885 C884 1.405 . S
C885 H911 0.931 . S
U886 O887 2.454 . S
U886 O888 2.458 . S
U886 C889 2.984 . S
U886 C890 2.847 . S
U886 C903 2.882 . S
U886 O904 2.441 . S
U886 O905 2.420 . S
U886 O906 2.455 . S
U886 O907 2.449 . S
O887 U886 2.454 . S
O887 C889 1.353 . S
O888 U886 2.458 . S
O888 C889 1.286 . S
C889 U886 2.984 . S
C889 O887 1.353 . S
C889 O888 1.286 . S
C889 C891 1.363 . S
C890 C880 1.465 . S
C890 U886 2.847 . S
C890 O904 1.249 . S
C890 O905 1.202 . S
C891 C889 1.363 . S
C891 C893 1.408 . S
C891 C896 1.342 . S
C892 C893 1.310 . S
C892 C895 1.461 . S
C892 H912 0.932 . S
C893 C891 1.408 . S
C893 C892 1.310 . S
C893 H913 0.930 . S
C894 C895 1.474 . S
C894 C896 1.285 . S
C894 H914 0.929 . S
C895 C892 1.461 . S
C895 C894 1.474 . S
C896 C891 1.342 . S
C896 C894 1.285 . S
C896 H915 0.930 . S
C897 C900 1.424 . S
C897 C902 1.245 . S
C897 C903 1.428 . S
C898 C901 1.260 . S
C898 C902 1.477 . S
C898 H916 0.932 . S
C899 C900 1.384 . S
C899 C901 1.479 . S
C899 H917 0.929 . S
C900 C897 1.424 . S
C900 C899 1.384 . S
C900 H918 0.928 . S
C901 C898 1.260 . S
C901 C899 1.479 . S
C902 C897 1.245 . S
C902 C898 1.477 . S
C902 H919 0.932 . S
C903 U886 2.882 . S
C903 C897 1.428 . S
C903 O906 1.301 . S
C903 O907 1.282 . S
O904 U886 2.441 . S
O904 C890 1.249 . S
O905 U886 2.420 . S
O905 C890 1.202 . S
O906 U886 2.455 . S
O906 C903 1.301 . S
O907 U886 2.449 . S
O907 C903 1.282 . S
H908 C881 0.931 . S
H909 C883 0.929 . S
H910 C884 0.930 . S
H911 C885 0.931 . S
H912 C892 0.932 . S
H913 C893 0.930 . S
H914 C894 0.929 . S
H915 C896 0.930 . S
H916 C898 0.932 . S
H917 C899 0.929 . S
H918 C900 0.928 . S
H919 C902 0.932 . S
C920 C921 1.264 . S
C920 C925 1.479 . S
C920 C930 1.465 . S
C921 C920 1.264 . S
C921 C923 1.339 . S
C921 H948 0.931 . S
C922 C923 1.395 . S
C922 C924 1.320 . S
C923 C921 1.339 . S
C923 C922 1.395 . S
C923 H949 0.929 . S
C924 C922 1.320 . S
C924 C925 1.405 . S
C924 H950 0.930 . S
C925 C920 1.479 . S
C925 C924 1.405 . S
C925 H951 0.931 . S
U926 O927 2.454 . S
U926 O928 2.458 . S
U926 C929 2.984 . S
U926 C930 2.847 . S
U926 C943 2.882 . S
U926 O944 2.441 . S
U926 O945 2.420 . S
U926 O946 2.455 . S
U926 O947 2.449 . S
O927 U926 2.454 . S
O927 C929 1.353 . S
O928 U926 2.458 . S
O928 C929 1.286 . S
C929 U926 2.984 . S
C929 O927 1.353 . S
C929 O928 1.286 . S
C929 C931 1.363 . S
C930 C920 1.465 . S
C930 U926 2.847 . S
C930 O944 1.249 . S
C930 O945 1.202 . S
C931 C929 1.363 . S
C931 C933 1.408 . S
C931 C936 1.342 . S
C932 C933 1.310 . S
C932 C935 1.461 . S
C932 H952 0.932 . S
C933 C931 1.408 . S
C933 C932 1.310 . S
C933 H953 0.930 . S
C934 C935 1.474 . S
C934 C936 1.285 . S
C934 H954 0.929 . S
C935 C932 1.461 . S
C935 C934 1.474 . S
C936 C931 1.342 . S
C936 C934 1.285 . S
C936 H955 0.930 . S
C937 C940 1.424 . S
C937 C942 1.245 . S
C937 C943 1.428 . S
C938 C941 1.260 . S
C938 C942 1.477 . S
C938 H956 0.932 . S
C939 C940 1.384 . S
C939 C941 1.479 . S
C939 H957 0.929 . S
C940 C937 1.424 . S
C940 C939 1.384 . S
C940 H958 0.928 . S
C941 C938 1.260 . S
C941 C939 1.479 . S
C942 C937 1.245 . S
C942 C938 1.477 . S
C942 H959 0.932 . S
C943 U926 2.882 . S
C943 C937 1.428 . S
C943 O946 1.301 . S
C943 O947 1.282 . S
O944 U926 2.441 . S
O944 C930 1.249 . S
O945 U926 2.420 . S
O945 C930 1.202 . S
O946 U926 2.455 . S
O946 C943 1.301 . S
O947 U926 2.449 . S
O947 C943 1.282 . S
H948 C921 0.931 . S
H949 C923 0.929 . S
H950 C924 0.930 . S
H951 C925 0.931 . S
H952 C932 0.932 . S
H953 C933 0.930 . S
H954 C934 0.929 . S
H955 C936 0.930 . S
H956 C938 0.932 . S
H957 C939 0.929 . S
H958 C940 0.928 . S
H959 C942 0.932 . S
C960 C961 1.264 . S
C960 C965 1.479 . S
C960 C970 1.465 . S
C961 C960 1.264 . S
C961 C963 1.339 . S
C961 H988 0.931 . S
C962 C963 1.395 . S
C962 C964 1.320 . S
C963 C961 1.339 . S
C963 C962 1.395 . S
C963 H989 0.929 . S
C964 C962 1.320 . S
C964 C965 1.405 . S
C964 H990 0.930 . S
C965 C960 1.479 . S
C965 C964 1.405 . S
C965 H991 0.931 . S
U966 O967 2.454 . S
U966 O968 2.458 . S
U966 C969 2.984 . S
U966 C970 2.847 . S
U966 C983 2.882 . S
U966 O984 2.441 . S
U966 O985 2.420 . S
U966 O986 2.455 . S
U966 O987 2.449 . S
O967 U966 2.454 . S
O967 C969 1.353 . S
O968 U966 2.458 . S
O968 C969 1.286 . S
C969 U966 2.984 . S
C969 O967 1.353 . S
C969 O968 1.286 . S
C969 C971 1.363 . S
C970 C960 1.465 . S
C970 U966 2.847 . S
C970 O984 1.249 . S
C970 O985 1.202 . S
C971 C969 1.363 . S
C971 C973 1.408 . S
C971 C976 1.342 . S
C972 C973 1.310 . S
C972 C975 1.461 . S
C972 H992 0.932 . S
C973 C971 1.408 . S
C973 C972 1.310 . S
C973 H993 0.930 . S
C974 C975 1.474 . S
C974 C976 1.285 . S
C974 H994 0.929 . S
C975 C972 1.461 . S
C975 C974 1.474 . S
C976 C971 1.342 . S
C976 C974 1.285 . S
C976 H995 0.930 . S
C977 C980 1.424 . S
C977 C982 1.245 . S
C977 C983 1.428 . S
C978 C981 1.260 . S
C978 C982 1.477 . S
C978 H996 0.932 . S
C979 C980 1.384 . S
C979 C981 1.479 . S
C979 H997 0.929 . S
C980 C977 1.424 . S
C980 C979 1.384 . S
C980 H998 0.928 . S
C981 C978 1.260 . S
C981 C979 1.479 . S
C982 C977 1.245 . S
C982 C978 1.477 . S
C982 H999 0.932 . S
C983 U966 2.882 . S
C983 C977 1.428 . S
C983 O986 1.301 . S
C983 O987 1.282 . S
O984 U966 2.441 . S
O984 C970 1.249 . S
O985 U966 2.420 . S
O985 C970 1.202 . S
O986 U966 2.455 . S
O986 C983 1.301 . S
O987 U966 2.449 . S
O987 C983 1.282 . S
H988 C961 0.931 . S
H989 C963 0.929 . S
H990 C964 0.930 . S
H991 C965 0.931 . S
H992 C972 0.932 . S
H993 C973 0.930 . S
H994 C974 0.929 . S
H995 C976 0.930 . S
H996 C978 0.932 . S
H997 C979 0.929 . S
H998 C980 0.928 . S
H999 C982 0.932 . S
C1000 C1001 1.264 . S
C1000 C1005 1.479 . S
C1000 C1010 1.465 . S
C1001 C1000 1.264 . S
C1001 C1003 1.339 . S
C1001 H1028 0.931 . S
C1002 C1003 1.395 . S
C1002 C1004 1.320 . S
C1003 C1001 1.339 . S
C1003 C1002 1.395 . S
C1003 H1029 0.929 . S
C1004 C1002 1.320 . S
C1004 C1005 1.405 . S
C1004 H1030 0.930 . S
C1005 C1000 1.479 . S
C1005 C1004 1.405 . S
C1005 H1031 0.931 . S
U1006 O1007 2.454 . S
U1006 O1008 2.458 . S
U1006 C1009 2.984 . S
U1006 C1010 2.847 . S
U1006 C1023 2.882 . S
U1006 O1024 2.441 . S
U1006 O1025 2.420 . S
U1006 O1026 2.455 . S
U1006 O1027 2.449 . S
O1007 U1006 2.454 . S
O1007 C1009 1.353 . S
O1008 U1006 2.458 . S
O1008 C1009 1.286 . S
C1009 U1006 2.984 . S
C1009 O1007 1.353 . S
C1009 O1008 1.286 . S
C1009 C1011 1.363 . S
C1010 C1000 1.465 . S
C1010 U1006 2.847 . S
C1010 O1024 1.249 . S
C1010 O1025 1.202 . S
C1011 C1009 1.363 . S
C1011 C1013 1.408 . S
C1011 C1016 1.342 . S
C1012 C1013 1.310 . S
C1012 C1015 1.461 . S
C1012 H1032 0.932 . S
C1013 C1011 1.408 . S
C1013 C1012 1.310 . S
C1013 H1033 0.930 . S
C1014 C1015 1.474 . S
C1014 C1016 1.285 . S
C1014 H1034 0.929 . S
C1015 C1012 1.461 . S
C1015 C1014 1.474 . S
C1016 C1011 1.342 . S
C1016 C1014 1.285 . S
C1016 H1035 0.930 . S
C1017 C1020 1.424 . S
C1017 C1022 1.245 . S
C1017 C1023 1.428 . S
C1018 C1021 1.260 . S
C1018 C1022 1.477 . S
C1018 H1036 0.932 . S
C1019 C1020 1.384 . S
C1019 C1021 1.479 . S
C1019 H1037 0.929 . S
C1020 C1017 1.424 . S
C1020 C1019 1.384 . S
C1020 H1038 0.928 . S
C1021 C1018 1.260 . S
C1021 C1019 1.479 . S
C1022 C1017 1.245 . S
C1022 C1018 1.477 . S
C1022 H1039 0.932 . S
C1023 U1006 2.882 . S
C1023 C1017 1.428 . S
C1023 O1026 1.301 . S
C1023 O1027 1.282 . S
O1024 U1006 2.441 . S
O1024 C1010 1.249 . S
O1025 U1006 2.420 . S
O1025 C1010 1.202 . S
O1026 U1006 2.455 . S
O1026 C1023 1.301 . S
O1027 U1006 2.449 . S
O1027 C1023 1.282 . S
H1028 C1001 0.931 . S
H1029 C1003 0.929 . S
H1030 C1004 0.930 . S
H1031 C1005 0.931 . S
H1032 C1012 0.932 . S
H1033 C1013 0.930 . S
H1034 C1014 0.929 . S
H1035 C1016 0.930 . S
H1036 C1018 0.932 . S
H1037 C1019 0.929 . S
H1038 C1020 0.928 . S
H1039 C1022 0.932 . S
C1040 C1041 1.264 . S
C1040 C1045 1.479 . S
C1040 C1050 1.465 . S
C1041 C1040 1.264 . S
C1041 C1043 1.339 . S
C1041 H1068 0.931 . S
C1042 C1043 1.395 . S
C1042 C1044 1.320 . S
C1043 C1041 1.339 . S
C1043 C1042 1.395 . S
C1043 H1069 0.929 . S
C1044 C1042 1.320 . S
C1044 C1045 1.405 . S
C1044 H1070 0.930 . S
C1045 C1040 1.479 . S
C1045 C1044 1.405 . S
C1045 H1071 0.931 . S
U1046 O1047 2.454 . S
U1046 O1048 2.458 . S
U1046 C1049 2.984 . S
U1046 C1050 2.847 . S
U1046 C1063 2.882 . S
U1046 O1064 2.441 . S
U1046 O1065 2.420 . S
U1046 O1066 2.455 . S
U1046 O1067 2.449 . S
O1047 U1046 2.454 . S
O1047 C1049 1.353 . S
O1048 U1046 2.458 . S
O1048 C1049 1.286 . S
C1049 U1046 2.984 . S
C1049 O1047 1.353 . S
C1049 O1048 1.286 . S
C1049 C1051 1.363 . S
C1050 C1040 1.465 . S
C1050 U1046 2.847 . S
C1050 O1064 1.249 . S
C1050 O1065 1.202 . S
C1051 C1049 1.363 . S
C1051 C1053 1.408 . S
C1051 C1056 1.342 . S
C1052 C1053 1.310 . S
C1052 C1055 1.461 . S
C1052 H1072 0.932 . S
C1053 C1051 1.408 . S
C1053 C1052 1.310 . S
C1053 H1073 0.930 . S
C1054 C1055 1.474 . S
C1054 C1056 1.285 . S
C1054 H1074 0.929 . S
C1055 C1052 1.461 . S
C1055 C1054 1.474 . S
C1056 C1051 1.342 . S
C1056 C1054 1.285 . S
C1056 H1075 0.930 . S
C1057 C1060 1.424 . S
C1057 C1062 1.245 . S
C1057 C1063 1.428 . S
C1058 C1061 1.260 . S
C1058 C1062 1.477 . S
C1058 H1076 0.932 . S
C1059 C1060 1.384 . S
C1059 C1061 1.479 . S
C1059 H1077 0.929 . S
C1060 C1057 1.424 . S
C1060 C1059 1.384 . S
C1060 H1078 0.928 . S
C1061 C1058 1.260 . S
C1061 C1059 1.479 . S
C1062 C1057 1.245 . S
C1062 C1058 1.477 . S
C1062 H1079 0.932 . S
C1063 U1046 2.882 . S
C1063 C1057 1.428 . S
C1063 O1066 1.301 . S
C1063 O1067 1.282 . S
O1064 U1046 2.441 . S
O1064 C1050 1.249 . S
O1065 U1046 2.420 . S
O1065 C1050 1.202 . S
O1066 U1046 2.455 . S
O1066 C1063 1.301 . S
O1067 U1046 2.449 . S
O1067 C1063 1.282 . S
H1068 C1041 0.931 . S
H1069 C1043 0.929 . S
H1070 C1044 0.930 . S
H1071 C1045 0.931 . S
H1072 C1052 0.932 . S
H1073 C1053 0.930 . S
H1074 C1054 0.929 . S
H1075 C1056 0.930 . S
H1076 C1058 0.932 . S
H1077 C1059 0.929 . S
H1078 C1060 0.928 . S
H1079 C1062 0.932 . S
C1080 C1081 1.264 . S
C1080 C1085 1.479 . S
C1080 C1090 1.465 . S
C1081 C1080 1.264 . S
C1081 C1083 1.339 . S
C1081 H1108 0.931 . S
C1082 C1083 1.395 . S
C1082 C1084 1.320 . S
C1083 C1081 1.339 . S
C1083 C1082 1.395 . S
C1083 H1109 0.929 . S
C1084 C1082 1.320 . S
C1084 C1085 1.405 . S
C1084 H1110 0.930 . S
C1085 C1080 1.479 . S
C1085 C1084 1.405 . S
C1085 H1111 0.931 . S
U1086 O1087 2.454 . S
U1086 O1088 2.458 . S
U1086 C1089 2.984 . S
U1086 C1090 2.847 . S
U1086 C1103 2.882 . S
U1086 O1104 2.441 . S
U1086 O1105 2.420 . S
U1086 O1106 2.455 . S
U1086 O1107 2.449 . S
O1087 U1086 2.454 . S
O1087 C1089 1.353 . S
O1088 U1086 2.458 . S
O1088 C1089 1.286 . S
C1089 U1086 2.984 . S
C1089 O1087 1.353 . S
C1089 O1088 1.286 . S
C1089 C1091 1.363 . S
C1090 C1080 1.465 . S
C1090 U1086 2.847 . S
C1090 O1104 1.249 . S
C1090 O1105 1.202 . S
C1091 C1089 1.363 . S
C1091 C1093 1.408 . S
C1091 C1096 1.342 . S
C1092 C1093 1.310 . S
C1092 C1095 1.461 . S
C1092 H1112 0.932 . S
C1093 C1091 1.408 . S
C1093 C1092 1.310 . S
C1093 H1113 0.930 . S
C1094 C1095 1.474 . S
C1094 C1096 1.285 . S
C1094 H1114 0.929 . S
C1095 C1092 1.461 . S
C1095 C1094 1.474 . S
C1096 C1091 1.342 . S
C1096 C1094 1.285 . S
C1096 H1115 0.930 . S
C1097 C1100 1.424 . S
C1097 C1102 1.245 . S
C1097 C1103 1.428 . S
C1098 C1101 1.260 . S
C1098 C1102 1.477 . S
C1098 H1116 0.932 . S
C1099 C1100 1.384 . S
C1099 C1101 1.479 . S
C1099 H1117 0.929 . S
C1100 C1097 1.424 . S
C1100 C1099 1.384 . S
C1100 H1118 0.928 . S
C1101 C1098 1.260 . S
C1101 C1099 1.479 . S
C1102 C1097 1.245 . S
C1102 C1098 1.477 . S
C1102 H1119 0.932 . S
C1103 U1086 2.882 . S
C1103 C1097 1.428 . S
C1103 O1106 1.301 . S
C1103 O1107 1.282 . S
O1104 U1086 2.441 . S
O1104 C1090 1.249 . S
O1105 U1086 2.420 . S
O1105 C1090 1.202 . S
O1106 U1086 2.455 . S
O1106 C1103 1.301 . S
O1107 U1086 2.449 . S
O1107 C1103 1.282 . S
H1108 C1081 0.931 . S
H1109 C1083 0.929 . S
H1110 C1084 0.930 . S
H1111 C1085 0.931 . S
H1112 C1092 0.932 . S
H1113 C1093 0.930 . S
H1114 C1094 0.929 . S
H1115 C1096 0.930 . S
H1116 C1098 0.932 . S
H1117 C1099 0.929 . S
H1118 C1100 0.928 . S
H1119 C1102 0.932 . S
C1120 C1121 1.264 . S
C1120 C1125 1.479 . S
C1120 C1130 1.465 . S
C1121 C1120 1.264 . S
C1121 C1123 1.339 . S
C1121 H1148 0.931 . S
C1122 C1123 1.395 . S
C1122 C1124 1.320 . S
C1123 C1121 1.339 . S
C1123 C1122 1.395 . S
C1123 H1149 0.929 . S
C1124 C1122 1.320 . S
C1124 C1125 1.405 . S
C1124 H1150 0.930 . S
C1125 C1120 1.479 . S
C1125 C1124 1.405 . S
C1125 H1151 0.931 . S
U1126 O1127 2.454 . S
U1126 O1128 2.458 . S
U1126 C1129 2.984 . S
U1126 C1130 2.847 . S
U1126 C1143 2.882 . S
U1126 O1144 2.441 . S
U1126 O1145 2.420 . S
U1126 O1146 2.455 . S
U1126 O1147 2.449 . S
O1127 U1126 2.454 . S
O1127 C1129 1.353 . S
O1128 U1126 2.458 . S
O1128 C1129 1.286 . S
C1129 U1126 2.984 . S
C1129 O1127 1.353 . S
C1129 O1128 1.286 . S
C1129 C1131 1.363 . S
C1130 C1120 1.465 . S
C1130 U1126 2.847 . S
C1130 O1144 1.249 . S
C1130 O1145 1.202 . S
C1131 C1129 1.363 . S
C1131 C1133 1.408 . S
C1131 C1136 1.342 . S
C1132 C1133 1.310 . S
C1132 C1135 1.461 . S
C1132 H1152 0.932 . S
C1133 C1131 1.408 . S
C1133 C1132 1.310 . S
C1133 H1153 0.930 . S
C1134 C1135 1.474 . S
C1134 C1136 1.285 . S
C1134 H1154 0.929 . S
C1135 C1132 1.461 . S
C1135 C1134 1.474 . S
C1136 C1131 1.342 . S
C1136 C1134 1.285 . S
C1136 H1155 0.930 . S
C1137 C1140 1.424 . S
C1137 C1142 1.245 . S
C1137 C1143 1.428 . S
C1138 C1141 1.260 . S
C1138 C1142 1.477 . S
C1138 H1156 0.932 . S
C1139 C1140 1.384 . S
C1139 C1141 1.479 . S
C1139 H1157 0.929 . S
C1140 C1137 1.424 . S
C1140 C1139 1.384 . S
C1140 H1158 0.928 . S
C1141 C1138 1.260 . S
C1141 C1139 1.479 . S
C1142 C1137 1.245 . S
C1142 C1138 1.477 . S
C1142 H1159 0.932 . S
C1143 U1126 2.882 . S
C1143 C1137 1.428 . S
C1143 O1146 1.301 . S
C1143 O1147 1.282 . S
O1144 U1126 2.441 . S
O1144 C1130 1.249 . S
O1145 U1126 2.420 . S
O1145 C1130 1.202 . S
O1146 U1126 2.455 . S
O1146 C1143 1.301 . S
O1147 U1126 2.449 . S
O1147 C1143 1.282 . S
H1148 C1121 0.931 . S
H1149 C1123 0.929 . S
H1150 C1124 0.930 . S
H1151 C1125 0.931 . S
H1152 C1132 0.932 . S
H1153 C1133 0.930 . S
H1154 C1134 0.929 . S
H1155 C1136 0.930 . S
H1156 C1138 0.932 . S
H1157 C1139 0.929 . S
H1158 C1140 0.928 . S
H1159 C1142 0.932 . S
C1160 C1161 1.264 . S
C1160 C1165 1.479 . S
C1160 C1170 1.465 . S
C1161 C1160 1.264 . S
C1161 C1163 1.339 . S
C1161 H1188 0.931 . S
C1162 C1163 1.395 . S
C1162 C1164 1.320 . S
C1163 C1161 1.339 . S
C1163 C1162 1.395 . S
C1163 H1189 0.929 . S
C1164 C1162 1.320 . S
C1164 C1165 1.405 . S
C1164 H1190 0.930 . S
C1165 C1160 1.479 . S
C1165 C1164 1.405 . S
C1165 H1191 0.931 . S
U1166 O1167 2.454 . S
U1166 O1168 2.458 . S
U1166 C1169 2.984 . S
U1166 C1170 2.847 . S
U1166 C1183 2.882 . S
U1166 O1184 2.441 . S
U1166 O1185 2.420 . S
U1166 O1186 2.455 . S
U1166 O1187 2.449 . S
O1167 U1166 2.454 . S
O1167 C1169 1.353 . S
O1168 U1166 2.458 . S
O1168 C1169 1.286 . S
C1169 U1166 2.984 . S
C1169 O1167 1.353 . S
C1169 O1168 1.286 . S
C1169 C1171 1.363 . S
C1170 C1160 1.465 . S
C1170 U1166 2.847 . S
C1170 O1184 1.249 . S
C1170 O1185 1.202 . S
C1171 C1169 1.363 . S
C1171 C1173 1.408 . S
C1171 C1176 1.342 . S
C1172 C1173 1.310 . S
C1172 C1175 1.461 . S
C1172 H1192 0.932 . S
C1173 C1171 1.408 . S
C1173 C1172 1.310 . S
C1173 H1193 0.930 . S
C1174 C1175 1.474 . S
C1174 C1176 1.285 . S
C1174 H1194 0.929 . S
C1175 C1172 1.461 . S
C1175 C1174 1.474 . S
C1176 C1171 1.342 . S
C1176 C1174 1.285 . S
C1176 H1195 0.930 . S
C1177 C1180 1.424 . S
C1177 C1182 1.245 . S
C1177 C1183 1.428 . S
C1178 C1181 1.260 . S
C1178 C1182 1.477 . S
C1178 H1196 0.932 . S
C1179 C1180 1.384 . S
C1179 C1181 1.479 . S
C1179 H1197 0.929 . S
C1180 C1177 1.424 . S
C1180 C1179 1.384 . S
C1180 H1198 0.928 . S
C1181 C1178 1.260 . S
C1181 C1179 1.479 . S
C1182 C1177 1.245 . S
C1182 C1178 1.477 . S
C1182 H1199 0.932 . S
C1183 U1166 2.882 . S
C1183 C1177 1.428 . S
C1183 O1186 1.301 . S
C1183 O1187 1.282 . S
O1184 U1166 2.441 . S
O1184 C1170 1.249 . S
O1185 U1166 2.420 . S
O1185 C1170 1.202 . S
O1186 U1166 2.455 . S
O1186 C1183 1.301 . S
O1187 U1166 2.449 . S
O1187 C1183 1.282 . S
H1188 C1161 0.931 . S
H1189 C1163 0.929 . S
H1190 C1164 0.930 . S
H1191 C1165 0.931 . S
H1192 C1172 0.932 . S
H1193 C1173 0.930 . S
H1194 C1174 0.929 . S
H1195 C1176 0.930 . S
H1196 C1178 0.932 . S
H1197 C1179 0.929 . S
H1198 C1180 0.928 . S
H1199 C1182 0.932 . S
C1200 C1201 1.264 . S
C1200 C1205 1.479 . S
C1200 C1210 1.465 . S
C1201 C1200 1.264 . S
C1201 C1203 1.339 . S
C1201 H1228 0.931 . S
C1202 C1203 1.395 . S
C1202 C1204 1.320 . S
C1203 C1201 1.339 . S
C1203 C1202 1.395 . S
C1203 H1229 0.929 . S
C1204 C1202 1.320 . S
C1204 C1205 1.405 . S
C1204 H1230 0.930 . S
C1205 C1200 1.479 . S
C1205 C1204 1.405 . S
C1205 H1231 0.931 . S
U1206 O1207 2.454 . S
U1206 O1208 2.458 . S
U1206 C1209 2.984 . S
U1206 C1210 2.847 . S
U1206 C1223 2.882 . S
U1206 O1224 2.441 . S
U1206 O1225 2.420 . S
U1206 O1226 2.455 . S
U1206 O1227 2.449 . S
O1207 U1206 2.454 . S
O1207 C1209 1.353 . S
O1208 U1206 2.458 . S
O1208 C1209 1.286 . S
C1209 U1206 2.984 . S
C1209 O1207 1.353 . S
C1209 O1208 1.286 . S
C1209 C1211 1.363 . S
C1210 C1200 1.465 . S
C1210 U1206 2.847 . S
C1210 O1224 1.249 . S
C1210 O1225 1.202 . S
C1211 C1209 1.363 . S
C1211 C1213 1.408 . S
C1211 C1216 1.342 . S
C1212 C1213 1.310 . S
C1212 C1215 1.461 . S
C1212 H1232 0.932 . S
C1213 C1211 1.408 . S
C1213 C1212 1.310 . S
C1213 H1233 0.930 . S
C1214 C1215 1.474 . S
C1214 C1216 1.285 . S
C1214 H1234 0.929 . S
C1215 C1212 1.461 . S
C1215 C1214 1.474 . S
C1216 C1211 1.342 . S
C1216 C1214 1.285 . S
C1216 H1235 0.930 . S
C1217 C1220 1.424 . S
C1217 C1222 1.245 . S
C1217 C1223 1.428 . S
C1218 C1221 1.260 . S
C1218 C1222 1.477 . S
C1218 H1236 0.932 . S
C1219 C1220 1.384 . S
C1219 C1221 1.479 . S
C1219 H1237 0.929 . S
C1220 C1217 1.424 . S
C1220 C1219 1.384 . S
C1220 H1238 0.928 . S
C1221 C1218 1.260 . S
C1221 C1219 1.479 . S
C1222 C1217 1.245 . S
C1222 C1218 1.477 . S
C1222 H1239 0.932 . S
C1223 U1206 2.882 . S
C1223 C1217 1.428 . S
C1223 O1226 1.301 . S
C1223 O1227 1.282 . S
O1224 U1206 2.441 . S
O1224 C1210 1.249 . S
O1225 U1206 2.420 . S
O1225 C1210 1.202 . S
O1226 U1206 2.455 . S
O1226 C1223 1.301 . S
O1227 U1206 2.449 . S
O1227 C1223 1.282 . S
H1228 C1201 0.931 . S
H1229 C1203 0.929 . S
H1230 C1204 0.930 . S
H1231 C1205 0.931 . S
H1232 C1212 0.932 . S
H1233 C1213 0.930 . S
H1234 C1214 0.929 . S
H1235 C1216 0.930 . S
H1236 C1218 0.932 . S
H1237 C1219 0.929 . S
H1238 C1220 0.928 . S
H1239 C1222 0.932 . S
C1240 C1241 1.264 . S
C1240 C1245 1.479 . S
C1240 C1250 1.465 . S
C1241 C1240 1.264 . S
C1241 C1243 1.339 . S
C1241 H1268 0.931 . S
C1242 C1243 1.395 . S
C1242 C1244 1.320 . S
C1243 C1241 1.339 . S
C1243 C1242 1.395 . S
C1243 H1269 0.929 . S
C1244 C1242 1.320 . S
C1244 C1245 1.405 . S
C1244 H1270 0.930 . S
C1245 C1240 1.479 . S
C1245 C1244 1.405 . S
C1245 H1271 0.931 . S
U1246 O1247 2.454 . S
U1246 O1248 2.458 . S
U1246 C1249 2.984 . S
U1246 C1250 2.847 . S
U1246 C1263 2.882 . S
U1246 O1264 2.441 . S
U1246 O1265 2.420 . S
U1246 O1266 2.455 . S
U1246 O1267 2.449 . S
O1247 U1246 2.454 . S
O1247 C1249 1.353 . S
O1248 U1246 2.458 . S
O1248 C1249 1.286 . S
C1249 U1246 2.984 . S
C1249 O1247 1.353 . S
C1249 O1248 1.286 . S
C1249 C1251 1.363 . S
C1250 C1240 1.465 . S
C1250 U1246 2.847 . S
C1250 O1264 1.249 . S
C1250 O1265 1.202 . S
C1251 C1249 1.363 . S
C1251 C1253 1.408 . S
C1251 C1256 1.342 . S
C1252 C1253 1.310 . S
C1252 C1255 1.461 . S
C1252 H1272 0.932 . S
C1253 C1251 1.408 . S
C1253 C1252 1.310 . S
C1253 H1273 0.930 . S
C1254 C1255 1.474 . S
C1254 C1256 1.285 . S
C1254 H1274 0.929 . S
C1255 C1252 1.461 . S
C1255 C1254 1.474 . S
C1256 C1251 1.342 . S
C1256 C1254 1.285 . S
C1256 H1275 0.930 . S
C1257 C1260 1.424 . S
C1257 C1262 1.245 . S
C1257 C1263 1.428 . S
C1258 C1261 1.260 . S
C1258 C1262 1.477 . S
C1258 H1276 0.932 . S
C1259 C1260 1.384 . S
C1259 C1261 1.479 . S
C1259 H1277 0.929 . S
C1260 C1257 1.424 . S
C1260 C1259 1.384 . S
C1260 H1278 0.928 . S
C1261 C1258 1.260 . S
C1261 C1259 1.479 . S
C1262 C1257 1.245 . S
C1262 C1258 1.477 . S
C1262 H1279 0.932 . S
C1263 U1246 2.882 . S
C1263 C1257 1.428 . S
C1263 O1266 1.301 . S
C1263 O1267 1.282 . S
O1264 U1246 2.441 . S
O1264 C1250 1.249 . S
O1265 U1246 2.420 . S
O1265 C1250 1.202 . S
O1266 U1246 2.455 . S
O1266 C1263 1.301 . S
O1267 U1246 2.449 . S
O1267 C1263 1.282 . S
H1268 C1241 0.931 . S
H1269 C1243 0.929 . S
H1270 C1244 0.930 . S
H1271 C1245 0.931 . S
H1272 C1252 0.932 . S
H1273 C1253 0.930 . S
H1274 C1254 0.929 . S
H1275 C1256 0.930 . S
H1276 C1258 0.932 . S
H1277 C1259 0.929 . S
H1278 C1260 0.928 . S
H1279 C1262 0.932 . S
H1280 C1286 0.930 . S
H1281 C1289 0.931 . S
H1282 C1291 0.931 . S
H1283 C1293 0.930 . S
H1284 C1295 0.930 . S
H1285 C1297 0.931 . S
C1286 H1280 0.930 . S
C1286 C1287 1.380 . S
C1286 C1288 1.394 . S
C1287 C1286 1.380 . S
C1287 C1291 1.382 . S
C1288 C1286 1.394 . S
C1288 C1289 1.400 . S
C1289 H1281 0.931 . S
C1289 C1288 1.400 . S
C1289 C1290 1.375 . S
C1290 C1289 1.375 . S
C1290 C1291 1.415 . S
C1290 C1292 1.501 1_556 S
C1291 H1282 0.931 . S
C1291 C1287 1.382 . S
C1291 C1290 1.415 . S
C1292 C1290 1.501 1_554 S
C1292 C1293 1.384 . S
C1292 C1297 1.408 . S
C1293 H1283 0.930 . S
C1293 C1292 1.384 . S
C1293 C1294 1.389 . S
C1294 C1293 1.389 . S
C1294 C1295 1.405 . S
C1295 H1284 0.930 . S
C1295 C1294 1.405 . S
C1295 C1296 1.364 . S
C1296 C1295 1.364 . S
C1296 C1297 1.400 . S
C1297 H1285 0.931 . S
C1297 C1292 1.408 . S
C1297 C1296 1.400 . S
H1298 C1304 0.930 . S
H1299 C1307 0.931 . S
H1300 C1309 0.931 . S
H1301 C1311 0.930 . S
H1302 C1313 0.930 . S
H1303 C1315 0.931 . S
C1304 H1298 0.930 . S
C1304 C1305 1.380 . S
C1304 C1306 1.394 . S
C1305 C1304 1.380 . S
C1305 C1309 1.382 . S
C1306 C1304 1.394 . S
C1306 C1307 1.400 . S
C1307 H1299 0.931 . S
C1307 C1306 1.400 . S
C1307 C1308 1.375 . S
C1308 C1307 1.375 . S
C1308 C1309 1.415 . S
C1308 C1310 1.501 1_554 S
C1309 H1300 0.931 . S
C1309 C1305 1.382 . S
C1309 C1308 1.415 . S
C1310 C1308 1.501 1_556 S
C1310 C1311 1.384 . S
C1310 C1315 1.408 . S
C1311 H1301 0.930 . S
C1311 C1310 1.384 . S
C1311 C1312 1.389 . S
C1312 C1311 1.389 . S
C1312 C1313 1.405 . S
C1313 H1302 0.930 . S
C1313 C1312 1.405 . S
C1313 C1314 1.364 . S
C1314 C1313 1.364 . S
C1314 C1315 1.400 . S
C1315 H1303 0.931 . S
C1315 C1310 1.408 . S
C1315 C1314 1.400 . S
H1316 C1322 0.930 . S
H1317 C1325 0.931 . S
H1318 C1327 0.931 . S
H1319 C1329 0.930 . S
H1320 C1331 0.930 . S
H1321 C1333 0.931 . S
C1322 H1316 0.930 . S
C1322 C1323 1.380 . S
C1322 C1324 1.394 . S
C1323 C1322 1.380 . S
C1323 C1327 1.382 . S
C1324 C1322 1.394 . S
C1324 C1325 1.400 . S
C1325 H1317 0.931 . S
C1325 C1324 1.400 . S
C1325 C1326 1.375 . S
C1326 C1325 1.375 . S
C1326 C1327 1.415 . S
C1326 C1328 1.501 1_556 S
C1327 H1318 0.931 . S
C1327 C1323 1.382 . S
C1327 C1326 1.415 . S
C1328 C1326 1.501 1_554 S
C1328 C1329 1.384 . S
C1328 C1333 1.408 . S
C1329 H1319 0.930 . S
C1329 C1328 1.384 . S
C1329 C1330 1.389 . S
C1330 C1329 1.389 . S
C1330 C1331 1.405 . S
C1331 H1320 0.930 . S
C1331 C1330 1.405 . S
C1331 C1332 1.364 . S
C1332 C1331 1.364 . S
C1332 C1333 1.400 . S
C1333 H1321 0.931 . S
C1333 C1328 1.408 . S
C1333 C1332 1.400 . S
H1334 C1340 0.930 . S
H1335 C1343 0.931 . S
H1336 C1345 0.931 . S
H1337 C1347 0.930 . S
H1338 C1349 0.930 . S
H1339 C1351 0.931 . S
C1340 H1334 0.930 . S
C1340 C1341 1.380 . S
C1340 C1342 1.394 . S
C1341 C1340 1.380 . S
C1341 C1345 1.382 . S
C1342 C1340 1.394 . S
C1342 C1343 1.400 . S
C1343 H1335 0.931 . S
C1343 C1342 1.400 . S
C1343 C1344 1.375 . S
C1344 C1343 1.375 . S
C1344 C1345 1.415 . S
C1344 C1346 1.501 1_554 S
C1345 H1336 0.931 . S
C1345 C1341 1.382 . S
C1345 C1344 1.415 . S
C1346 C1344 1.501 1_556 S
C1346 C1347 1.384 . S
C1346 C1351 1.408 . S
C1347 H1337 0.930 . S
C1347 C1346 1.384 . S
C1347 C1348 1.389 . S
C1348 C1347 1.389 . S
C1348 C1349 1.405 . S
C1349 H1338 0.930 . S
C1349 C1348 1.405 . S
C1349 C1350 1.364 . S
C1350 C1349 1.364 . S
C1350 C1351 1.400 . S
C1351 H1339 0.931 . S
C1351 C1346 1.408 . S
C1351 C1350 1.400 . S
H1352 C1358 0.930 . S
H1353 C1361 0.931 . S
H1354 C1363 0.931 . S
H1355 C1365 0.930 . S
H1356 C1367 0.930 . S
H1357 C1369 0.931 . S
C1358 H1352 0.930 . S
C1358 C1359 1.380 . S
C1358 C1360 1.394 . S
C1359 C1358 1.380 . S
C1359 C1363 1.382 . S
C1360 C1358 1.394 . S
C1360 C1361 1.400 . S
C1361 H1353 0.931 . S
C1361 C1360 1.400 . S
C1361 C1362 1.375 . S
C1362 C1361 1.375 . S
C1362 C1363 1.415 . S
C1362 C1364 1.501 1_455 S
C1363 H1354 0.931 . S
C1363 C1359 1.382 . S
C1363 C1362 1.415 . S
C1364 C1362 1.501 1_655 S
C1364 C1365 1.384 . S
C1364 C1369 1.408 . S
C1365 H1355 0.930 . S
C1365 C1364 1.384 . S
C1365 C1366 1.389 . S
C1366 C1365 1.389 . S
C1366 C1367 1.405 . S
C1367 H1356 0.930 . S
C1367 C1366 1.405 . S
C1367 C1368 1.364 . S
C1368 C1367 1.364 . S
C1368 C1369 1.400 . S
C1369 H1357 0.931 . S
C1369 C1364 1.408 . S
C1369 C1368 1.400 . S
H1370 C1376 0.930 . S
H1371 C1379 0.931 . S
H1372 C1381 0.931 . S
H1373 C1383 0.930 . S
H1374 C1385 0.930 . S
H1375 C1387 0.931 . S
C1376 H1370 0.930 . S
C1376 C1377 1.380 . S
C1376 C1378 1.394 . S
C1377 C1376 1.380 . S
C1377 C1381 1.382 . S
C1378 C1376 1.394 . S
C1378 C1379 1.400 . S
C1379 H1371 0.931 . S
C1379 C1378 1.400 . S
C1379 C1380 1.375 . S
C1380 C1379 1.375 . S
C1380 C1381 1.415 . S
C1380 C1382 1.501 1_565 S
C1381 H1372 0.931 . S
C1381 C1377 1.382 . S
C1381 C1380 1.415 . S
C1382 C1380 1.501 1_545 S
C1382 C1383 1.384 . S
C1382 C1387 1.408 . S
C1383 H1373 0.930 . S
C1383 C1382 1.384 . S
C1383 C1384 1.389 . S
C1384 C1383 1.389 . S
C1384 C1385 1.405 . S
C1385 H1374 0.930 . S
C1385 C1384 1.405 . S
C1385 C1386 1.364 . S
C1386 C1385 1.364 . S
C1386 C1387 1.400 . S
C1387 H1375 0.931 . S
C1387 C1382 1.408 . S
C1387 C1386 1.400 . S
H1388 C1394 0.930 . S
H1389 C1397 0.931 . S
H1390 C1399 0.931 . S
H1391 C1401 0.930 . S
H1392 C1403 0.930 . S
H1393 C1405 0.931 . S
C1394 H1388 0.930 . S
C1394 C1395 1.380 . S
C1394 C1396 1.394 . S
C1395 C1394 1.380 . S
C1395 C1399 1.382 . S
C1396 C1394 1.394 . S
C1396 C1397 1.400 . S
C1397 H1389 0.931 . S
C1397 C1396 1.400 . S
C1397 C1398 1.375 . S
C1398 C1397 1.375 . S
C1398 C1399 1.415 . S
C1398 C1400 1.501 1_455 S
C1399 H1390 0.931 . S
C1399 C1395 1.382 . S
C1399 C1398 1.415 . S
C1400 C1398 1.501 1_655 S
C1400 C1401 1.384 . S
C1400 C1405 1.408 . S
C1401 H1391 0.930 . S
C1401 C1400 1.384 . S
C1401 C1402 1.389 . S
C1402 C1401 1.389 . S
C1402 C1403 1.405 . S
C1403 H1392 0.930 . S
C1403 C1402 1.405 . S
C1403 C1404 1.364 . S
C1404 C1403 1.364 . S
C1404 C1405 1.400 . S
C1405 H1393 0.931 . S
C1405 C1400 1.408 . S
C1405 C1404 1.400 . S
H1406 C1412 0.930 . S
H1407 C1415 0.931 . S
H1408 C1417 0.931 . S
H1409 C1419 0.930 . S
H1410 C1421 0.930 . S
H1411 C1423 0.931 . S
C1412 H1406 0.930 . S
C1412 C1413 1.380 . S
C1412 C1414 1.394 . S
C1413 C1412 1.380 . S
C1413 C1417 1.382 . S
C1414 C1412 1.394 . S
C1414 C1415 1.400 . S
C1415 H1407 0.931 . S
C1415 C1414 1.400 . S
C1415 C1416 1.375 . S
C1416 C1415 1.375 . S
C1416 C1417 1.415 . S
C1416 C1418 1.501 1_545 S
C1417 H1408 0.931 . S
C1417 C1413 1.382 . S
C1417 C1416 1.415 . S
C1418 C1416 1.501 1_565 S
C1418 C1419 1.384 . S
C1418 C1423 1.408 . S
C1419 H1409 0.930 . S
C1419 C1418 1.384 . S
C1419 C1420 1.389 . S
C1420 C1419 1.389 . S
C1420 C1421 1.405 . S
C1421 H1410 0.930 . S
C1421 C1420 1.405 . S
C1421 C1422 1.364 . S
C1422 C1421 1.364 . S
C1422 C1423 1.400 . S
C1423 H1411 0.931 . S
C1423 C1418 1.408 . S
C1423 C1422 1.400 . S
H1424 C1430 0.930 . S
H1425 C1433 0.931 . S
H1426 C1435 0.931 . S
H1427 C1437 0.930 . S
H1428 C1439 0.930 . S
H1429 C1441 0.931 . S
C1430 H1424 0.930 . S
C1430 C1431 1.380 . S
C1430 C1432 1.394 . S
C1431 C1430 1.380 . S
C1431 C1435 1.382 . S
C1432 C1430 1.394 . S
C1432 C1433 1.400 . S
C1433 H1425 0.931 . S
C1433 C1432 1.400 . S
C1433 C1434 1.375 . S
C1434 C1433 1.375 . S
C1434 C1435 1.415 . S
C1434 C1436 1.501 1_455 S
C1435 H1426 0.931 . S
C1435 C1431 1.382 . S
C1435 C1434 1.415 . S
C1436 C1434 1.501 1_655 S
C1436 C1437 1.384 . S
C1436 C1441 1.408 . S
C1437 H1427 0.930 . S
C1437 C1436 1.384 . S
C1437 C1438 1.389 . S
C1438 C1437 1.389 . S
C1438 C1439 1.405 . S
C1439 H1428 0.930 . S
C1439 C1438 1.405 . S
C1439 C1440 1.364 . S
C1440 C1439 1.364 . S
C1440 C1441 1.400 . S
C1441 H1429 0.931 . S
C1441 C1436 1.408 . S
C1441 C1440 1.400 . S
H1442 C1448 0.930 . S
H1443 C1451 0.931 . S
H1444 C1453 0.931 . S
H1445 C1455 0.930 . S
H1446 C1457 0.930 . S
H1447 C1459 0.931 . S
C1448 H1442 0.930 . S
C1448 C1449 1.380 . S
C1448 C1450 1.394 . S
C1449 C1448 1.380 . S
C1449 C1453 1.382 . S
C1450 C1448 1.394 . S
C1450 C1451 1.400 . S
C1451 H1443 0.931 . S
C1451 C1450 1.400 . S
C1451 C1452 1.375 . S
C1452 C1451 1.375 . S
C1452 C1453 1.415 . S
C1452 C1454 1.501 1_565 S
C1453 H1444 0.931 . S
C1453 C1449 1.382 . S
C1453 C1452 1.415 . S
C1454 C1452 1.501 1_545 S
C1454 C1455 1.384 . S
C1454 C1459 1.408 . S
C1455 H1445 0.930 . S
C1455 C1454 1.384 . S
C1455 C1456 1.389 . S
C1456 C1455 1.389 . S
C1456 C1457 1.405 . S
C1457 H1446 0.930 . S
C1457 C1456 1.405 . S
C1457 C1458 1.364 . S
C1458 C1457 1.364 . S
C1458 C1459 1.400 . S
C1459 H1447 0.931 . S
C1459 C1454 1.408 . S
C1459 C1458 1.400 . S
H1460 C1466 0.930 . S
H1461 C1469 0.931 . S
H1462 C1471 0.931 . S
H1463 C1473 0.930 . S
H1464 C1475 0.930 . S
H1465 C1477 0.931 . S
C1466 H1460 0.930 . S
C1466 C1467 1.380 . S
C1466 C1468 1.394 . S
C1467 C1466 1.380 . S
C1467 C1471 1.382 . S
C1468 C1466 1.394 . S
C1468 C1469 1.400 . S
C1469 H1461 0.931 . S
C1469 C1468 1.400 . S
C1469 C1470 1.375 . S
C1470 C1469 1.375 . S
C1470 C1471 1.415 . S
C1470 C1472 1.501 1_455 S
C1471 H1462 0.931 . S
C1471 C1467 1.382 . S
C1471 C1470 1.415 . S
C1472 C1470 1.501 1_655 S
C1472 C1473 1.384 . S
C1472 C1477 1.408 . S
C1473 H1463 0.930 . S
C1473 C1472 1.384 . S
C1473 C1474 1.389 . S
C1474 C1473 1.389 . S
C1474 C1475 1.405 . S
C1475 H1464 0.930 . S
C1475 C1474 1.405 . S
C1475 C1476 1.364 . S
C1476 C1475 1.364 . S
C1476 C1477 1.400 . S
C1477 H1465 0.931 . S
C1477 C1472 1.408 . S
C1477 C1476 1.400 . S
H1478 C1484 0.930 . S
H1479 C1487 0.931 . S
H1480 C1489 0.931 . S
H1481 C1491 0.930 . S
H1482 C1493 0.930 . S
H1483 C1495 0.931 . S
C1484 H1478 0.930 . S
C1484 C1485 1.380 . S
C1484 C1486 1.394 . S
C1485 C1484 1.380 . S
C1485 C1489 1.382 . S
C1486 C1484 1.394 . S
C1486 C1487 1.400 . S
C1487 H1479 0.931 . S
C1487 C1486 1.400 . S
C1487 C1488 1.375 . S
C1488 C1487 1.375 . S
C1488 C1489 1.415 . S
C1488 C1490 1.501 1_545 S
C1489 H1480 0.931 . S
C1489 C1485 1.382 . S
C1489 C1488 1.415 . S
C1490 C1488 1.501 1_565 S
C1490 C1491 1.384 . S
C1490 C1495 1.408 . S
C1491 H1481 0.930 . S
C1491 C1490 1.384 . S
C1491 C1492 1.389 . S
C1492 C1491 1.389 . S
C1492 C1493 1.405 . S
C1493 H1482 0.930 . S
C1493 C1492 1.405 . S
C1493 C1494 1.364 . S
C1494 C1493 1.364 . S
C1494 C1495 1.400 . S
C1495 H1483 0.931 . S
C1495 C1490 1.408 . S
C1495 C1494 1.400 . S
H1496 C1502 0.930 . S
H1497 C1505 0.931 . S
H1498 C1507 0.931 . S
H1499 C1509 0.930 . S
H1500 C1511 0.930 . S
H1501 C1513 0.931 . S
C1502 H1496 0.930 . S
C1502 C1503 1.380 . S
C1502 C1504 1.394 . S
C1503 C1502 1.380 . S
C1503 C1507 1.382 . S
C1504 C1502 1.394 . S
C1504 C1505 1.400 . S
C1505 H1497 0.931 . S
C1505 C1504 1.400 . S
C1505 C1506 1.375 . S
C1506 C1505 1.375 . S
C1506 C1507 1.415 . S
C1506 C1508 1.501 . S
C1507 H1498 0.931 . S
C1507 C1503 1.382 . S
C1507 C1506 1.415 . S
C1508 C1506 1.501 . S
C1508 C1509 1.384 . S
C1508 C1513 1.408 . S
C1509 H1499 0.930 . S
C1509 C1508 1.384 . S
C1509 C1510 1.389 . S
C1510 C1509 1.389 . S
C1510 C1511 1.405 . S
C1511 H1500 0.930 . S
C1511 C1510 1.405 . S
C1511 C1512 1.364 . S
C1512 C1511 1.364 . S
C1512 C1513 1.400 . S
C1513 H1501 0.931 . S
C1513 C1508 1.408 . S
C1513 C1512 1.400 . S
H1514 C1520 0.930 . S
H1515 C1523 0.931 . S
H1516 C1525 0.931 . S
H1517 C1527 0.930 . S
H1518 C1529 0.930 . S
H1519 C1531 0.931 . S
C1520 H1514 0.930 . S
C1520 C1521 1.380 . S
C1520 C1522 1.394 . S
C1521 C1520 1.380 . S
C1521 C1525 1.382 . S
C1522 C1520 1.394 . S
C1522 C1523 1.400 . S
C1523 H1515 0.931 . S
C1523 C1522 1.400 . S
C1523 C1524 1.375 . S
C1524 C1523 1.375 . S
C1524 C1525 1.415 . S
C1524 C1526 1.501 . S
C1525 H1516 0.931 . S
C1525 C1521 1.382 . S
C1525 C1524 1.415 . S
C1526 C1524 1.501 . S
C1526 C1527 1.384 . S
C1526 C1531 1.408 . S
C1527 H1517 0.930 . S
C1527 C1526 1.384 . S
C1527 C1528 1.389 . S
C1528 C1527 1.389 . S
C1528 C1529 1.405 . S
C1529 H1518 0.930 . S
C1529 C1528 1.405 . S
C1529 C1530 1.364 . S
C1530 C1529 1.364 . S
C1530 C1531 1.400 . S
C1531 H1519 0.931 . S
C1531 C1526 1.408 . S
C1531 C1530 1.400 . S
H1532 C1538 0.930 . S
H1533 C1541 0.931 . S
H1534 C1543 0.931 . S
H1535 C1545 0.930 . S
H1536 C1547 0.930 . S
H1537 C1549 0.931 . S
C1538 H1532 0.930 . S
C1538 C1539 1.380 . S
C1538 C1540 1.394 . S
C1539 C1538 1.380 . S
C1539 C1543 1.382 . S
C1540 C1538 1.394 . S
C1540 C1541 1.400 . S
C1541 H1533 0.931 . S
C1541 C1540 1.400 . S
C1541 C1542 1.375 . S
C1542 C1541 1.375 . S
C1542 C1543 1.415 . S
C1542 C1544 1.501 . S
C1543 H1534 0.931 . S
C1543 C1539 1.382 . S
C1543 C1542 1.415 . S
C1544 C1542 1.501 . S
C1544 C1545 1.384 . S
C1544 C1549 1.408 . S
C1545 H1535 0.930 . S
C1545 C1544 1.384 . S
C1545 C1546 1.389 . S
C1546 C1545 1.389 . S
C1546 C1547 1.405 . S
C1547 H1536 0.930 . S
C1547 C1546 1.405 . S
C1547 C1548 1.364 . S
C1548 C1547 1.364 . S
C1548 C1549 1.400 . S
C1549 H1537 0.931 . S
C1549 C1544 1.408 . S
C1549 C1548 1.400 . S
H1550 C1556 0.930 . S
H1551 C1559 0.931 . S
H1552 C1561 0.931 . S
H1553 C1563 0.930 . S
H1554 C1565 0.930 . S
H1555 C1567 0.931 . S
C1556 H1550 0.930 . S
C1556 C1557 1.380 . S
C1556 C1558 1.394 . S
C1557 C1556 1.380 . S
C1557 C1561 1.382 . S
C1558 C1556 1.394 . S
C1558 C1559 1.400 . S
C1559 H1551 0.931 . S
C1559 C1558 1.400 . S
C1559 C1560 1.375 . S
C1560 C1559 1.375 . S
C1560 C1561 1.415 . S
C1560 C1562 1.501 . S
C1561 H1552 0.931 . S
C1561 C1557 1.382 . S
C1561 C1560 1.415 . S
C1562 C1560 1.501 . S
C1562 C1563 1.384 . S
C1562 C1567 1.408 . S
C1563 H1553 0.930 . S
C1563 C1562 1.384 . S
C1563 C1564 1.389 . S
C1564 C1563 1.389 . S
C1564 C1565 1.405 . S
C1565 H1554 0.930 . S
C1565 C1564 1.405 . S
C1565 C1566 1.364 . S
C1566 C1565 1.364 . S
C1566 C1567 1.400 . S
C1567 H1555 0.931 . S
C1567 C1562 1.408 . S
C1567 C1566 1.400 . S
H1568 C1574 0.930 . S
H1569 C1577 0.931 . S
H1570 C1579 0.931 . S
H1571 C1581 0.930 . S
H1572 C1583 0.930 . S
H1573 C1585 0.931 . S
C1574 H1568 0.930 . S
C1574 C1575 1.380 . S
C1574 C1576 1.394 . S
C1575 C1574 1.380 . S
C1575 C1579 1.382 . S
C1576 C1574 1.394 . S
C1576 C1577 1.400 . S
C1577 H1569 0.931 . S
C1577 C1576 1.400 . S
C1577 C1578 1.375 . S
C1578 C1577 1.375 . S
C1578 C1579 1.415 . S
C1578 C1580 1.501 . S
C1579 H1570 0.931 . S
C1579 C1575 1.382 . S
C1579 C1578 1.415 . S
C1580 C1578 1.501 . S
C1580 C1581 1.384 . S
C1580 C1585 1.408 . S
C1581 H1571 0.930 . S
C1581 C1580 1.384 . S
C1581 C1582 1.389 . S
C1582 C1581 1.389 . S
C1582 C1583 1.405 . S
C1583 H1572 0.930 . S
C1583 C1582 1.405 . S
C1583 C1584 1.364 . S
C1584 C1583 1.364 . S
C1584 C1585 1.400 . S
C1585 H1573 0.931 . S
C1585 C1580 1.408 . S
C1585 C1584 1.400 . S
H1586 C1592 0.930 . S
H1587 C1595 0.931 . S
H1588 C1597 0.931 . S
H1589 C1599 0.930 . S
H1590 C1601 0.930 . S
H1591 C1603 0.931 . S
C1592 H1586 0.930 . S
C1592 C1593 1.380 . S
C1592 C1594 1.394 . S
C1593 C1592 1.380 . S
C1593 C1597 1.382 . S
C1594 C1592 1.394 . S
C1594 C1595 1.400 . S
C1595 H1587 0.931 . S
C1595 C1594 1.400 . S
C1595 C1596 1.375 . S
C1596 C1595 1.375 . S
C1596 C1597 1.415 . S
C1596 C1598 1.501 . S
C1597 H1588 0.931 . S
C1597 C1593 1.382 . S
C1597 C1596 1.415 . S
C1598 C1596 1.501 . S
C1598 C1599 1.384 . S
C1598 C1603 1.408 . S
C1599 H1589 0.930 . S
C1599 C1598 1.384 . S
C1599 C1600 1.389 . S
C1600 C1599 1.389 . S
C1600 C1601 1.405 . S
C1601 H1590 0.930 . S
C1601 C1600 1.405 . S
C1601 C1602 1.364 . S
C1602 C1601 1.364 . S
C1602 C1603 1.400 . S
C1603 H1591 0.931 . S
C1603 C1598 1.408 . S
C1603 C1602 1.400 . S
H1604 C1610 0.930 . S
H1605 C1613 0.931 . S
H1606 C1615 0.931 . S
H1607 C1617 0.930 . S
H1608 C1619 0.930 . S
H1609 C1621 0.931 . S
C1610 H1604 0.930 . S
C1610 C1611 1.380 . S
C1610 C1612 1.394 . S
C1611 C1610 1.380 . S
C1611 C1615 1.382 . S
C1612 C1610 1.394 . S
C1612 C1613 1.400 . S
C1613 H1605 0.931 . S
C1613 C1612 1.400 . S
C1613 C1614 1.375 . S
C1614 C1613 1.375 . S
C1614 C1615 1.415 . S
C1614 C1616 1.501 . S
C1615 H1606 0.931 . S
C1615 C1611 1.382 . S
C1615 C1614 1.415 . S
C1616 C1614 1.501 . S
C1616 C1617 1.384 . S
C1616 C1621 1.408 . S
C1617 H1607 0.930 . S
C1617 C1616 1.384 . S
C1617 C1618 1.389 . S
C1618 C1617 1.389 . S
C1618 C1619 1.405 . S
C1619 H1608 0.930 . S
C1619 C1618 1.405 . S
C1619 C1620 1.364 . S
C1620 C1619 1.364 . S
C1620 C1621 1.400 . S
C1621 H1609 0.931 . S
C1621 C1616 1.408 . S
C1621 C1620 1.400 . S
H1622 C1628 0.930 . S
H1623 C1631 0.931 . S
H1624 C1633 0.931 . S
H1625 C1635 0.930 . S
H1626 C1637 0.930 . S
H1627 C1639 0.931 . S
C1628 H1622 0.930 . S
C1628 C1629 1.380 . S
C1628 C1630 1.394 . S
C1629 C1628 1.380 . S
C1629 C1633 1.382 . S
C1630 C1628 1.394 . S
C1630 C1631 1.400 . S
C1631 H1623 0.931 . S
C1631 C1630 1.400 . S
C1631 C1632 1.375 . S
C1632 C1631 1.375 . S
C1632 C1633 1.415 . S
C1632 C1634 1.501 . S
C1633 H1624 0.931 . S
C1633 C1629 1.382 . S
C1633 C1632 1.415 . S
C1634 C1632 1.501 . S
C1634 C1635 1.384 . S
C1634 C1639 1.408 . S
C1635 H1625 0.930 . S
C1635 C1634 1.384 . S
C1635 C1636 1.389 . S
C1636 C1635 1.389 . S
C1636 C1637 1.405 . S
C1637 H1626 0.930 . S
C1637 C1636 1.405 . S
C1637 C1638 1.364 . S
C1638 C1637 1.364 . S
C1638 C1639 1.400 . S
C1639 H1627 0.931 . S
C1639 C1634 1.408 . S
C1639 C1638 1.400 . S
H1640 C1646 0.930 . S
H1641 C1649 0.931 . S
H1642 C1651 0.931 . S
H1643 C1653 0.930 . S
H1644 C1655 0.930 . S
H1645 C1657 0.931 . S
C1646 H1640 0.930 . S
C1646 C1647 1.380 . S
C1646 C1648 1.394 . S
C1647 C1646 1.380 . S
C1647 C1651 1.382 . S
C1648 C1646 1.394 . S
C1648 C1649 1.400 . S
C1649 H1641 0.931 . S
C1649 C1648 1.400 . S
C1649 C1650 1.375 . S
C1650 C1649 1.375 . S
C1650 C1651 1.415 . S
C1650 C1652 1.501 . S
C1651 H1642 0.931 . S
C1651 C1647 1.382 . S
C1651 C1650 1.415 . S
C1652 C1650 1.501 . S
C1652 C1653 1.384 . S
C1652 C1657 1.408 . S
C1653 H1643 0.930 . S
C1653 C1652 1.384 . S
C1653 C1654 1.389 . S
C1654 C1653 1.389 . S
C1654 C1655 1.405 . S
C1655 H1644 0.930 . S
C1655 C1654 1.405 . S
C1655 C1656 1.364 . S
C1656 C1655 1.364 . S
C1656 C1657 1.400 . S
C1657 H1645 0.931 . S
C1657 C1652 1.408 . S
C1657 C1656 1.400 . S
H1658 C1664 0.930 . S
H1659 C1667 0.931 . S
H1660 C1669 0.931 . S
H1661 C1671 0.930 . S
H1662 C1673 0.930 . S
H1663 C1675 0.931 . S
C1664 H1658 0.930 . S
C1664 C1665 1.380 . S
C1664 C1666 1.394 . S
C1665 C1664 1.380 . S
C1665 C1669 1.382 . S
C1666 C1664 1.394 . S
C1666 C1667 1.400 . S
C1667 H1659 0.931 . S
C1667 C1666 1.400 . S
C1667 C1668 1.375 . S
C1668 C1667 1.375 . S
C1668 C1669 1.415 . S
C1668 C1670 1.501 . S
C1669 H1660 0.931 . S
C1669 C1665 1.382 . S
C1669 C1668 1.415 . S
C1670 C1668 1.501 . S
C1670 C1671 1.384 . S
C1670 C1675 1.408 . S
C1671 H1661 0.930 . S
C1671 C1670 1.384 . S
C1671 C1672 1.389 . S
C1672 C1671 1.389 . S
C1672 C1673 1.405 . S
C1673 H1662 0.930 . S
C1673 C1672 1.405 . S
C1673 C1674 1.364 . S
C1674 C1673 1.364 . S
C1674 C1675 1.400 . S
C1675 H1663 0.931 . S
C1675 C1670 1.408 . S
C1675 C1674 1.400 . S
H1676 C1682 0.930 . S
H1677 C1685 0.931 . S
H1678 C1687 0.931 . S
H1679 C1689 0.930 . S
H1680 C1691 0.930 . S
H1681 C1693 0.931 . S
C1682 H1676 0.930 . S
C1682 C1683 1.380 . S
C1682 C1684 1.394 . S
C1683 C1682 1.380 . S
C1683 C1687 1.382 . S
C1684 C1682 1.394 . S
C1684 C1685 1.400 . S
C1685 H1677 0.931 . S
C1685 C1684 1.400 . S
C1685 C1686 1.375 . S
C1686 C1685 1.375 . S
C1686 C1687 1.415 . S
C1686 C1688 1.501 . S
C1687 H1678 0.931 . S
C1687 C1683 1.382 . S
C1687 C1686 1.415 . S
C1688 C1686 1.501 . S
C1688 C1689 1.384 . S
C1688 C1693 1.408 . S
C1689 H1679 0.930 . S
C1689 C1688 1.384 . S
C1689 C1690 1.389 . S
C1690 C1689 1.389 . S
C1690 C1691 1.405 . S
C1691 H1680 0.930 . S
C1691 C1690 1.405 . S
C1691 C1692 1.364 . S
C1692 C1691 1.364 . S
C1692 C1693 1.400 . S
C1693 H1681 0.931 . S
C1693 C1688 1.408 . S
C1693 C1692 1.400 . S
H1694 C1700 0.930 . S
H1695 C1703 0.931 . S
H1696 C1705 0.931 . S
H1697 C1707 0.930 . S
H1698 C1709 0.930 . S
H1699 C1711 0.931 . S
C1700 H1694 0.930 . S
C1700 C1701 1.380 . S
C1700 C1702 1.394 . S
C1701 C1700 1.380 . S
C1701 C1705 1.382 . S
C1702 C1700 1.394 . S
C1702 C1703 1.400 . S
C1703 H1695 0.931 . S
C1703 C1702 1.400 . S
C1703 C1704 1.375 . S
C1704 C1703 1.375 . S
C1704 C1705 1.415 . S
C1704 C1706 1.501 . S
C1705 H1696 0.931 . S
C1705 C1701 1.382 . S
C1705 C1704 1.415 . S
C1706 C1704 1.501 . S
C1706 C1707 1.384 . S
C1706 C1711 1.408 . S
C1707 H1697 0.930 . S
C1707 C1706 1.384 . S
C1707 C1708 1.389 . S
C1708 C1707 1.389 . S
C1708 C1709 1.405 . S
C1709 H1698 0.930 . S
C1709 C1708 1.405 . S
C1709 C1710 1.364 . S
C1710 C1709 1.364 . S
C1710 C1711 1.400 . S
C1711 H1699 0.931 . S
C1711 C1706 1.408 . S
C1711 C1710 1.400 . S
H1712 C1718 0.930 . S
H1713 C1721 0.930 . S
H1714 C1722 0.930 . S
H1715 C1723 0.930 . S
H1716 C1726 0.930 . S
H1717 C1727 0.930 . S
C1718 H1712 0.930 . S
C1718 C1719 1.355 . S
C1718 C1720 1.415 . S
C1719 C1718 1.355 . S
C1719 C1721 1.419 . S
C1720 C1718 1.415 . S
C1720 C1725 1.425 . S
C1720 C1727 1.409 . S
C1721 H1713 0.930 . S
C1721 C1719 1.419 . S
C1721 C1722 1.362 . S
C1722 H1714 0.930 . S
C1722 C1721 1.362 . S
C1722 C1725 1.409 . S
C1723 H1715 0.930 . S
C1723 C1724 1.355 . S
C1723 C1725 1.415 . S
C1724 C1723 1.355 . S
C1724 C1726 1.419 . S
C1725 C1720 1.425 . S
C1725 C1722 1.409 . S
C1725 C1723 1.415 . S
C1726 H1716 0.930 . S
C1726 C1724 1.419 . S
C1726 C1727 1.362 . S
C1727 H1717 0.930 . S
C1727 C1720 1.409 . S
C1727 C1726 1.362 . S
H1728 C1734 0.930 . S
H1729 C1737 0.930 . S
H1730 C1738 0.930 . S
H1731 C1739 0.930 . S
H1732 C1742 0.930 . S
H1733 C1743 0.930 . S
C1734 H1728 0.930 . S
C1734 C1735 1.355 . S
C1734 C1736 1.415 . S
C1735 C1734 1.355 . S
C1735 C1737 1.419 . S
C1736 C1734 1.415 . S
C1736 C1741 1.425 . S
C1736 C1743 1.409 . S
C1737 H1729 0.930 . S
C1737 C1735 1.419 . S
C1737 C1738 1.362 . S
C1738 H1730 0.930 . S
C1738 C1737 1.362 . S
C1738 C1741 1.409 . S
C1739 H1731 0.930 . S
C1739 C1740 1.355 . S
C1739 C1741 1.415 . S
C1740 C1739 1.355 . S
C1740 C1742 1.419 . S
C1741 C1736 1.425 . S
C1741 C1738 1.409 . S
C1741 C1739 1.415 . S
C1742 H1732 0.930 . S
C1742 C1740 1.419 . S
C1742 C1743 1.362 . S
C1743 H1733 0.930 . S
C1743 C1736 1.409 . S
C1743 C1742 1.362 . S
H1744 C1750 0.930 . S
H1745 C1753 0.930 . S
H1746 C1754 0.930 . S
H1747 C1755 0.930 . S
H1748 C1758 0.930 . S
H1749 C1759 0.930 . S
C1750 H1744 0.930 . S
C1750 C1751 1.355 . S
C1750 C1752 1.415 . S
C1751 C1750 1.355 . S
C1751 C1753 1.419 . S
C1752 C1750 1.415 . S
C1752 C1757 1.425 . S
C1752 C1759 1.409 . S
C1753 H1745 0.930 . S
C1753 C1751 1.419 . S
C1753 C1754 1.362 . S
C1754 H1746 0.930 . S
C1754 C1753 1.362 . S
C1754 C1757 1.409 . S
C1755 H1747 0.930 . S
C1755 C1756 1.355 . S
C1755 C1757 1.415 . S
C1756 C1755 1.355 . S
C1756 C1758 1.419 . S
C1757 C1752 1.425 . S
C1757 C1754 1.409 . S
C1757 C1755 1.415 . S
C1758 H1748 0.930 . S
C1758 C1756 1.419 . S
C1758 C1759 1.362 . S
C1759 H1749 0.930 . S
C1759 C1752 1.409 . S
C1759 C1758 1.362 . S
H1760 C1766 0.930 . S
H1761 C1769 0.930 . S
H1762 C1770 0.930 . S
H1763 C1771 0.930 . S
H1764 C1774 0.930 . S
H1765 C1775 0.930 . S
C1766 H1760 0.930 . S
C1766 C1767 1.355 . S
C1766 C1768 1.415 . S
C1767 C1766 1.355 . S
C1767 C1769 1.419 . S
C1768 C1766 1.415 . S
C1768 C1773 1.425 . S
C1768 C1775 1.409 . S
C1769 H1761 0.930 . S
C1769 C1767 1.419 . S
C1769 C1770 1.362 . S
C1770 H1762 0.930 . S
C1770 C1769 1.362 . S
C1770 C1773 1.409 . S
C1771 H1763 0.930 . S
C1771 C1772 1.355 . S
C1771 C1773 1.415 . S
C1772 C1771 1.355 . S
C1772 C1774 1.419 . S
C1773 C1768 1.425 . S
C1773 C1770 1.409 . S
C1773 C1771 1.415 . S
C1774 H1764 0.930 . S
C1774 C1772 1.419 . S
C1774 C1775 1.362 . S
C1775 H1765 0.930 . S
C1775 C1768 1.409 . S
C1775 C1774 1.362 . S
H1776 C1782 0.930 . S
H1777 C1785 0.930 . S
H1778 C1786 0.930 . S
H1779 C1787 0.930 . S
H1780 C1790 0.930 . S
H1781 C1791 0.930 . S
C1782 H1776 0.930 . S
C1782 C1783 1.355 . S
C1782 C1784 1.415 . S
C1783 C1782 1.355 . S
C1783 C1785 1.419 . S
C1784 C1782 1.415 . S
C1784 C1789 1.425 . S
C1784 C1791 1.409 . S
C1785 H1777 0.930 . S
C1785 C1783 1.419 . S
C1785 C1786 1.362 . S
C1786 H1778 0.930 . S
C1786 C1785 1.362 . S
C1786 C1789 1.409 . S
C1787 H1779 0.930 . S
C1787 C1788 1.355 . S
C1787 C1789 1.415 . S
C1788 C1787 1.355 . S
C1788 C1790 1.419 . S
C1789 C1784 1.425 . S
C1789 C1786 1.409 . S
C1789 C1787 1.415 . S
C1790 H1780 0.930 . S
C1790 C1788 1.419 . S
C1790 C1791 1.362 . S
C1791 H1781 0.930 . S
C1791 C1784 1.409 . S
C1791 C1790 1.362 . S
H1792 C1798 0.930 . S
H1793 C1801 0.930 . S
H1794 C1802 0.930 . S
H1795 C1803 0.930 . S
H1796 C1806 0.930 . S
H1797 C1807 0.930 . S
C1798 H1792 0.930 . S
C1798 C1799 1.355 . S
C1798 C1800 1.415 . S
C1799 C1798 1.355 . S
C1799 C1801 1.419 . S
C1800 C1798 1.415 . S
C1800 C1805 1.425 . S
C1800 C1807 1.409 . S
C1801 H1793 0.930 . S
C1801 C1799 1.419 . S
C1801 C1802 1.362 . S
C1802 H1794 0.930 . S
C1802 C1801 1.362 . S
C1802 C1805 1.409 . S
C1803 H1795 0.930 . S
C1803 C1804 1.355 . S
C1803 C1805 1.415 . S
C1804 C1803 1.355 . S
C1804 C1806 1.419 . S
C1805 C1800 1.425 . S
C1805 C1802 1.409 . S
C1805 C1803 1.415 . S
C1806 H1796 0.930 . S
C1806 C1804 1.419 . S
C1806 C1807 1.362 . S
C1807 H1797 0.930 . S
C1807 C1800 1.409 . S
C1807 C1806 1.362 . S
H1808 C1814 0.930 . S
H1809 C1817 0.930 . S
H1810 C1818 0.930 . S
H1811 C1819 0.930 . S
H1812 C1822 0.930 . S
H1813 C1823 0.930 . S
C1814 H1808 0.930 . S
C1814 C1815 1.355 . S
C1814 C1816 1.415 . S
C1815 C1814 1.355 . S
C1815 C1817 1.419 . S
C1816 C1814 1.415 . S
C1816 C1821 1.425 . S
C1816 C1823 1.409 . S
C1817 H1809 0.930 . S
C1817 C1815 1.419 . S
C1817 C1818 1.362 . S
C1818 H1810 0.930 . S
C1818 C1817 1.362 . S
C1818 C1821 1.409 . S
C1819 H1811 0.930 . S
C1819 C1820 1.355 . S
C1819 C1821 1.415 . S
C1820 C1819 1.355 . S
C1820 C1822 1.419 . S
C1821 C1816 1.425 . S
C1821 C1818 1.409 . S
C1821 C1819 1.415 . S
C1822 H1812 0.930 . S
C1822 C1820 1.419 . S
C1822 C1823 1.362 . S
C1823 H1813 0.930 . S
C1823 C1816 1.409 . S
C1823 C1822 1.362 . S
H1824 C1830 0.930 . S
H1825 C1833 0.930 . S
H1826 C1834 0.930 . S
H1827 C1835 0.930 . S
H1828 C1838 0.930 . S
H1829 C1839 0.930 . S
C1830 H1824 0.930 . S
C1830 C1831 1.355 . S
C1830 C1832 1.415 . S
C1831 C1830 1.355 . S
C1831 C1833 1.419 . S
C1832 C1830 1.415 . S
C1832 C1837 1.425 . S
C1832 C1839 1.409 . S
C1833 H1825 0.930 . S
C1833 C1831 1.419 . S
C1833 C1834 1.362 . S
C1834 H1826 0.930 . S
C1834 C1833 1.362 . S
C1834 C1837 1.409 . S
C1835 H1827 0.930 . S
C1835 C1836 1.355 . S
C1835 C1837 1.415 . S
C1836 C1835 1.355 . S
C1836 C1838 1.419 . S
C1837 C1832 1.425 . S
C1837 C1834 1.409 . S
C1837 C1835 1.415 . S
C1838 H1828 0.930 . S
C1838 C1836 1.419 . S
C1838 C1839 1.362 . S
C1839 H1829 0.930 . S
C1839 C1832 1.409 . S
C1839 C1838 1.362 . S
H1840 C1846 0.930 . S
H1841 C1849 0.930 . S
H1842 C1850 0.930 . S
H1843 C1851 0.930 . S
H1844 C1854 0.930 . S
H1845 C1855 0.930 . S
C1846 H1840 0.930 . S
C1846 C1847 1.355 . S
C1846 C1848 1.415 . S
C1847 C1846 1.355 . S
C1847 C1849 1.419 . S
C1848 C1846 1.415 . S
C1848 C1853 1.425 . S
C1848 C1855 1.409 . S
C1849 H1841 0.930 . S
C1849 C1847 1.419 . S
C1849 C1850 1.362 . S
C1850 H1842 0.930 . S
C1850 C1849 1.362 . S
C1850 C1853 1.409 . S
C1851 H1843 0.930 . S
C1851 C1852 1.355 . S
C1851 C1853 1.415 . S
C1852 C1851 1.355 . S
C1852 C1854 1.419 . S
C1853 C1848 1.425 . S
C1853 C1850 1.409 . S
C1853 C1851 1.415 . S
C1854 H1844 0.930 . S
C1854 C1852 1.419 . S
C1854 C1855 1.362 . S
C1855 H1845 0.930 . S
C1855 C1848 1.409 . S
C1855 C1854 1.362 . S
H1856 C1862 0.930 . S
H1857 C1865 0.930 . S
H1858 C1866 0.930 . S
H1859 C1867 0.930 . S
H1860 C1870 0.930 . S
H1861 C1871 0.930 . S
C1862 H1856 0.930 . S
C1862 C1863 1.355 . S
C1862 C1864 1.415 . S
C1863 C1862 1.355 . S
C1863 C1865 1.419 . S
C1864 C1862 1.415 . S
C1864 C1869 1.425 . S
C1864 C1871 1.409 . S
C1865 H1857 0.930 . S
C1865 C1863 1.419 . S
C1865 C1866 1.362 . S
C1866 H1858 0.930 . S
C1866 C1865 1.362 . S
C1866 C1869 1.409 . S
C1867 H1859 0.930 . S
C1867 C1868 1.355 . S
C1867 C1869 1.415 . S
C1868 C1867 1.355 . S
C1868 C1870 1.419 . S
C1869 C1864 1.425 . S
C1869 C1866 1.409 . S
C1869 C1867 1.415 . S
C1870 H1860 0.930 . S
C1870 C1868 1.419 . S
C1870 C1871 1.362 . S
C1871 H1861 0.930 . S
C1871 C1864 1.409 . S
C1871 C1870 1.362 . S
H1872 C1878 0.930 . S
H1873 C1881 0.930 . S
H1874 C1882 0.930 . S
H1875 C1883 0.930 . S
H1876 C1886 0.930 . S
H1877 C1887 0.930 . S
C1878 H1872 0.930 . S
C1878 C1879 1.355 . S
C1878 C1880 1.415 . S
C1879 C1878 1.355 . S
C1879 C1881 1.419 . S
C1880 C1878 1.415 . S
C1880 C1885 1.425 . S
C1880 C1887 1.409 . S
C1881 H1873 0.930 . S
C1881 C1879 1.419 . S
C1881 C1882 1.362 . S
C1882 H1874 0.930 . S
C1882 C1881 1.362 . S
C1882 C1885 1.409 . S
C1883 H1875 0.930 . S
C1883 C1884 1.355 . S
C1883 C1885 1.415 . S
C1884 C1883 1.355 . S
C1884 C1886 1.419 . S
C1885 C1880 1.425 . S
C1885 C1882 1.409 . S
C1885 C1883 1.415 . S
C1886 H1876 0.930 . S
C1886 C1884 1.419 . S
C1886 C1887 1.362 . S
C1887 H1877 0.930 . S
C1887 C1880 1.409 . S
C1887 C1886 1.362 . S
H1888 C1894 0.930 . S
H1889 C1897 0.930 . S
H1890 C1898 0.930 . S
H1891 C1899 0.930 . S
H1892 C1902 0.930 . S
H1893 C1903 0.930 . S
C1894 H1888 0.930 . S
C1894 C1895 1.355 . S
C1894 C1896 1.415 . S
C1895 C1894 1.355 . S
C1895 C1897 1.419 . S
C1896 C1894 1.415 . S
C1896 C1901 1.425 . S
C1896 C1903 1.409 . S
C1897 H1889 0.930 . S
C1897 C1895 1.419 . S
C1897 C1898 1.362 . S
C1898 H1890 0.930 . S
C1898 C1897 1.362 . S
C1898 C1901 1.409 . S
C1899 H1891 0.930 . S
C1899 C1900 1.355 . S
C1899 C1901 1.415 . S
C1900 C1899 1.355 . S
C1900 C1902 1.419 . S
C1901 C1896 1.425 . S
C1901 C1898 1.409 . S
C1901 C1899 1.415 . S
C1902 H1892 0.930 . S
C1902 C1900 1.419 . S
C1902 C1903 1.362 . S
C1903 H1893 0.930 . S
C1903 C1896 1.409 . S
C1903 C1902 1.362 . S
H1904 C1910 0.930 . S
H1905 C1913 0.930 . S
H1906 C1914 0.930 . S
H1907 C1915 0.930 . S
H1908 C1918 0.930 . S
H1909 C1919 0.930 . S
C1910 H1904 0.930 . S
C1910 C1911 1.355 . S
C1910 C1912 1.415 . S
C1911 C1910 1.355 . S
C1911 C1913 1.419 . S
C1912 C1910 1.415 . S
C1912 C1917 1.425 . S
C1912 C1919 1.409 . S
C1913 H1905 0.930 . S
C1913 C1911 1.419 . S
C1913 C1914 1.362 . S
C1914 H1906 0.930 . S
C1914 C1913 1.362 . S
C1914 C1917 1.409 . S
C1915 H1907 0.930 . S
C1915 C1916 1.355 . S
C1915 C1917 1.415 . S
C1916 C1915 1.355 . S
C1916 C1918 1.419 . S
C1917 C1912 1.425 . S
C1917 C1914 1.409 . S
C1917 C1915 1.415 . S
C1918 H1908 0.930 . S
C1918 C1916 1.419 . S
C1918 C1919 1.362 . S
C1919 H1909 0.930 . S
C1919 C1912 1.409 . S
C1919 C1918 1.362 . S
H1920 C1926 0.930 . S
H1921 C1929 0.930 . S
H1922 C1930 0.930 . S
H1923 C1931 0.930 . S
H1924 C1934 0.930 . S
H1925 C1935 0.930 . S
C1926 H1920 0.930 . S
C1926 C1927 1.355 . S
C1926 C1928 1.415 . S
C1927 C1926 1.355 . S
C1927 C1929 1.419 . S
C1928 C1926 1.415 . S
C1928 C1933 1.425 . S
C1928 C1935 1.409 . S
C1929 H1921 0.930 . S
C1929 C1927 1.419 . S
C1929 C1930 1.362 . S
C1930 H1922 0.930 . S
C1930 C1929 1.362 . S
C1930 C1933 1.409 . S
C1931 H1923 0.930 . S
C1931 C1932 1.355 . S
C1931 C1933 1.415 . S
C1932 C1931 1.355 . S
C1932 C1934 1.419 . S
C1933 C1928 1.425 . S
C1933 C1930 1.409 . S
C1933 C1931 1.415 . S
C1934 H1924 0.930 . S
C1934 C1932 1.419 . S
C1934 C1935 1.362 . S
C1935 H1925 0.930 . S
C1935 C1928 1.409 . S
C1935 C1934 1.362 . S
H1936 C1942 0.930 . S
H1937 C1945 0.930 . S
H1938 C1946 0.930 . S
H1939 C1947 0.930 . S
H1940 C1950 0.930 . S
H1941 C1951 0.930 . S
C1942 H1936 0.930 . S
C1942 C1943 1.355 . S
C1942 C1944 1.415 . S
C1943 C1942 1.355 . S
C1943 C1945 1.419 . S
C1944 C1942 1.415 . S
C1944 C1949 1.425 . S
C1944 C1951 1.409 . S
C1945 H1937 0.930 . S
C1945 C1943 1.419 . S
C1945 C1946 1.362 . S
C1946 H1938 0.930 . S
C1946 C1945 1.362 . S
C1946 C1949 1.409 . S
C1947 H1939 0.930 . S
C1947 C1948 1.355 . S
C1947 C1949 1.415 . S
C1948 C1947 1.355 . S
C1948 C1950 1.419 . S
C1949 C1944 1.425 . S
C1949 C1946 1.409 . S
C1949 C1947 1.415 . S
C1950 H1940 0.930 . S
C1950 C1948 1.419 . S
C1950 C1951 1.362 . S
C1951 H1941 0.930 . S
C1951 C1944 1.409 . S
C1951 C1950 1.362 . S
H1952 C1958 0.930 . S
H1953 C1961 0.930 . S
H1954 C1962 0.930 . S
H1955 C1963 0.930 . S
H1956 C1966 0.930 . S
H1957 C1967 0.930 . S
C1958 H1952 0.930 . S
C1958 C1959 1.355 . S
C1958 C1960 1.415 . S
C1959 C1958 1.355 . S
C1959 C1961 1.419 . S
C1960 C1958 1.415 . S
C1960 C1965 1.425 . S
C1960 C1967 1.409 . S
C1961 H1953 0.930 . S
C1961 C1959 1.419 . S
C1961 C1962 1.362 . S
C1962 H1954 0.930 . S
C1962 C1961 1.362 . S
C1962 C1965 1.409 . S
C1963 H1955 0.930 . S
C1963 C1964 1.355 . S
C1963 C1965 1.415 . S
C1964 C1963 1.355 . S
C1964 C1966 1.419 . S
C1965 C1960 1.425 . S
C1965 C1962 1.409 . S
C1965 C1963 1.415 . S
C1966 H1956 0.930 . S
C1966 C1964 1.419 . S
C1966 C1967 1.362 . S
C1967 H1957 0.930 . S
C1967 C1960 1.409 . S
C1967 C1966 1.362 . S
H1968 C1974 0.930 . S
H1969 C1977 0.930 . S
H1970 C1978 0.930 . S
H1971 C1979 0.930 . S
H1972 C1982 0.930 . S
H1973 C1983 0.930 . S
C1974 H1968 0.930 . S
C1974 C1975 1.355 . S
C1974 C1976 1.415 . S
C1975 C1974 1.355 . S
C1975 C1977 1.419 . S
C1976 C1974 1.415 . S
C1976 C1981 1.425 . S
C1976 C1983 1.409 . S
C1977 H1969 0.930 . S
C1977 C1975 1.419 . S
C1977 C1978 1.362 . S
C1978 H1970 0.930 . S
C1978 C1977 1.362 . S
C1978 C1981 1.409 . S
C1979 H1971 0.930 . S
C1979 C1980 1.355 . S
C1979 C1981 1.415 . S
C1980 C1979 1.355 . S
C1980 C1982 1.419 . S
C1981 C1976 1.425 . S
C1981 C1978 1.409 . S
C1981 C1979 1.415 . S
C1982 H1972 0.930 . S
C1982 C1980 1.419 . S
C1982 C1983 1.362 . S
C1983 H1973 0.930 . S
C1983 C1976 1.409 . S
C1983 C1982 1.362 . S
H1984 C1990 0.930 . S
H1985 C1993 0.930 . S
H1986 C1994 0.930 . S
H1987 C1995 0.930 . S
H1988 C1998 0.930 . S
H1989 C1999 0.930 . S
C1990 H1984 0.930 . S
C1990 C1991 1.355 . S
C1990 C1992 1.415 . S
C1991 C1990 1.355 . S
C1991 C1993 1.419 . S
C1992 C1990 1.415 . S
C1992 C1997 1.425 . S
C1992 C1999 1.409 . S
C1993 H1985 0.930 . S
C1993 C1991 1.419 . S
C1993 C1994 1.362 . S
C1994 H1986 0.930 . S
C1994 C1993 1.362 . S
C1994 C1997 1.409 . S
C1995 H1987 0.930 . S
C1995 C1996 1.355 . S
C1995 C1997 1.415 . S
C1996 C1995 1.355 . S
C1996 C1998 1.419 . S
C1997 C1992 1.425 . S
C1997 C1994 1.409 . S
C1997 C1995 1.415 . S
C1998 H1988 0.930 . S
C1998 C1996 1.419 . S
C1998 C1999 1.362 . S
C1999 H1989 0.930 . S
C1999 C1992 1.409 . S
C1999 C1998 1.362 . S
H2000 C2006 0.930 . S
H2001 C2009 0.930 . S
H2002 C2010 0.930 . S
H2003 C2011 0.930 . S
H2004 C2014 0.930 . S
H2005 C2015 0.930 . S
C2006 H2000 0.930 . S
C2006 C2007 1.355 . S
C2006 C2008 1.415 . S
C2007 C2006 1.355 . S
C2007 C2009 1.419 . S
C2008 C2006 1.415 . S
C2008 C2013 1.425 . S
C2008 C2015 1.409 . S
C2009 H2001 0.930 . S
C2009 C2007 1.419 . S
C2009 C2010 1.362 . S
C2010 H2002 0.930 . S
C2010 C2009 1.362 . S
C2010 C2013 1.409 . S
C2011 H2003 0.930 . S
C2011 C2012 1.355 . S
C2011 C2013 1.415 . S
C2012 C2011 1.355 . S
C2012 C2014 1.419 . S
C2013 C2008 1.425 . S
C2013 C2010 1.409 . S
C2013 C2011 1.415 . S
C2014 H2004 0.930 . S
C2014 C2012 1.419 . S
C2014 C2015 1.362 . S
C2015 H2005 0.930 . S
C2015 C2008 1.409 . S
C2015 C2014 1.362 . S
H2016 C2022 0.930 . S
H2017 C2025 0.930 . S
H2018 C2026 0.930 . S
H2019 C2027 0.930 . S
H2020 C2030 0.930 . S
H2021 C2031 0.930 . S
C2022 H2016 0.930 . S
C2022 C2023 1.355 . S
C2022 C2024 1.415 . S
C2023 C2022 1.355 . S
C2023 C2025 1.419 . S
C2024 C2022 1.415 . S
C2024 C2029 1.425 . S
C2024 C2031 1.409 . S
C2025 H2017 0.930 . S
C2025 C2023 1.419 . S
C2025 C2026 1.362 . S
C2026 H2018 0.930 . S
C2026 C2025 1.362 . S
C2026 C2029 1.409 . S
C2027 H2019 0.930 . S
C2027 C2028 1.355 . S
C2027 C2029 1.415 . S
C2028 C2027 1.355 . S
C2028 C2030 1.419 . S
C2029 C2024 1.425 . S
C2029 C2026 1.409 . S
C2029 C2027 1.415 . S
C2030 H2020 0.930 . S
C2030 C2028 1.419 . S
C2030 C2031 1.362 . S
C2031 H2021 0.930 . S
C2031 C2024 1.409 . S
C2031 C2030 1.362 . S
H2032 C2038 0.930 . S
H2033 C2041 0.930 . S
H2034 C2042 0.930 . S
H2035 C2043 0.930 . S
H2036 C2046 0.930 . S
H2037 C2047 0.930 . S
C2038 H2032 0.930 . S
C2038 C2039 1.355 . S
C2038 C2040 1.415 . S
C2039 C2038 1.355 . S
C2039 C2041 1.419 . S
C2040 C2038 1.415 . S
C2040 C2045 1.425 . S
C2040 C2047 1.409 . S
C2041 H2033 0.930 . S
C2041 C2039 1.419 . S
C2041 C2042 1.362 . S
C2042 H2034 0.930 . S
C2042 C2041 1.362 . S
C2042 C2045 1.409 . S
C2043 H2035 0.930 . S
C2043 C2044 1.355 . S
C2043 C2045 1.415 . S
C2044 C2043 1.355 . S
C2044 C2046 1.419 . S
C2045 C2040 1.425 . S
C2045 C2042 1.409 . S
C2045 C2043 1.415 . S
C2046 H2036 0.930 . S
C2046 C2044 1.419 . S
C2046 C2047 1.362 . S
C2047 H2037 0.930 . S
C2047 C2040 1.409 . S
C2047 C2046 1.362 . S
H2048 C2054 0.930 . S
H2049 C2057 0.930 . S
H2050 C2058 0.930 . S
H2051 C2059 0.930 . S
H2052 C2062 0.930 . S
H2053 C2063 0.930 . S
C2054 H2048 0.930 . S
C2054 C2055 1.355 . S
C2054 C2056 1.415 . S
C2055 C2054 1.355 . S
C2055 C2057 1.419 . S
C2056 C2054 1.415 . S
C2056 C2061 1.425 . S
C2056 C2063 1.409 . S
C2057 H2049 0.930 . S
C2057 C2055 1.419 . S
C2057 C2058 1.362 . S
C2058 H2050 0.930 . S
C2058 C2057 1.362 . S
C2058 C2061 1.409 . S
C2059 H2051 0.930 . S
C2059 C2060 1.355 . S
C2059 C2061 1.415 . S
C2060 C2059 1.355 . S
C2060 C2062 1.419 . S
C2061 C2056 1.425 . S
C2061 C2058 1.409 . S
C2061 C2059 1.415 . S
C2062 H2052 0.930 . S
C2062 C2060 1.419 . S
C2062 C2063 1.362 . S
C2063 H2053 0.930 . S
C2063 C2056 1.409 . S
C2063 C2062 1.362 . S
H2064 C2070 0.930 . S
H2065 C2073 0.930 . S
H2066 C2074 0.930 . S
H2067 C2075 0.930 . S
H2068 C2078 0.930 . S
H2069 C2079 0.930 . S
C2070 H2064 0.930 . S
C2070 C2071 1.355 . S
C2070 C2072 1.415 . S
C2071 C2070 1.355 . S
C2071 C2073 1.419 . S
C2072 C2070 1.415 . S
C2072 C2077 1.425 . S
C2072 C2079 1.409 . S
C2073 H2065 0.930 . S
C2073 C2071 1.419 . S
C2073 C2074 1.362 . S
C2074 H2066 0.930 . S
C2074 C2073 1.362 . S
C2074 C2077 1.409 . S
C2075 H2067 0.930 . S
C2075 C2076 1.355 . S
C2075 C2077 1.415 . S
C2076 C2075 1.355 . S
C2076 C2078 1.419 . S
C2077 C2072 1.425 . S
C2077 C2074 1.409 . S
C2077 C2075 1.415 . S
C2078 H2068 0.930 . S
C2078 C2076 1.419 . S
C2078 C2079 1.362 . S
C2079 H2069 0.930 . S
C2079 C2072 1.409 . S
C2079 C2078 1.362 . S
H2080 C2086 0.930 . S
H2081 C2089 0.930 . S
H2082 C2090 0.930 . S
H2083 C2091 0.930 . S
H2084 C2094 0.930 . S
H2085 C2095 0.930 . S
C2086 H2080 0.930 . S
C2086 C2087 1.355 . S
C2086 C2088 1.415 . S
C2087 C2086 1.355 . S
C2087 C2089 1.419 . S
C2088 C2086 1.415 . S
C2088 C2093 1.425 . S
C2088 C2095 1.409 . S
C2089 H2081 0.930 . S
C2089 C2087 1.419 . S
C2089 C2090 1.362 . S
C2090 H2082 0.930 . S
C2090 C2089 1.362 . S
C2090 C2093 1.409 . S
C2091 H2083 0.930 . S
C2091 C2092 1.355 . S
C2091 C2093 1.415 . S
C2092 C2091 1.355 . S
C2092 C2094 1.419 . S
C2093 C2088 1.425 . S
C2093 C2090 1.409 . S
C2093 C2091 1.415 . S
C2094 H2084 0.930 . S
C2094 C2092 1.419 . S
C2094 C2095 1.362 . S
C2095 H2085 0.930 . S
C2095 C2088 1.409 . S
C2095 C2094 1.362 . S
H2096 C2102 0.930 . S
H2097 C2105 0.930 . S
H2098 C2106 0.930 . S
H2099 C2107 0.930 . S
H2100 C2110 0.930 . S
H2101 C2111 0.930 . S
C2102 H2096 0.930 . S
C2102 C2103 1.355 . S
C2102 C2104 1.415 . S
C2103 C2102 1.355 . S
C2103 C2105 1.419 . S
C2104 C2102 1.415 . S
C2104 C2109 1.425 . S
C2104 C2111 1.409 . S
C2105 H2097 0.930 . S
C2105 C2103 1.419 . S
C2105 C2106 1.362 . S
C2106 H2098 0.930 . S
C2106 C2105 1.362 . S
C2106 C2109 1.409 . S
C2107 H2099 0.930 . S
C2107 C2108 1.355 . S
C2107 C2109 1.415 . S
C2108 C2107 1.355 . S
C2108 C2110 1.419 . S
C2109 C2104 1.425 . S
C2109 C2106 1.409 . S
C2109 C2107 1.415 . S
C2110 H2100 0.930 . S
C2110 C2108 1.419 . S
C2110 C2111 1.362 . S
C2111 H2101 0.930 . S
C2111 C2104 1.409 . S
C2111 C2110 1.362 . S
H2112 C2118 0.930 . S
H2113 C2121 0.930 . S
H2114 C2122 0.930 . S
H2115 C2123 0.930 . S
H2116 C2126 0.930 . S
H2117 C2127 0.930 . S
C2118 H2112 0.930 . S
C2118 C2119 1.355 . S
C2118 C2120 1.415 . S
C2119 C2118 1.355 . S
C2119 C2121 1.419 . S
C2120 C2118 1.415 . S
C2120 C2125 1.425 . S
C2120 C2127 1.409 . S
C2121 H2113 0.930 . S
C2121 C2119 1.419 . S
C2121 C2122 1.362 . S
C2122 H2114 0.930 . S
C2122 C2121 1.362 . S
C2122 C2125 1.409 . S
C2123 H2115 0.930 . S
C2123 C2124 1.355 . S
C2123 C2125 1.415 . S
C2124 C2123 1.355 . S
C2124 C2126 1.419 . S
C2125 C2120 1.425 . S
C2125 C2122 1.409 . S
C2125 C2123 1.415 . S
C2126 H2116 0.930 . S
C2126 C2124 1.419 . S
C2126 C2127 1.362 . S
C2127 H2117 0.930 . S
C2127 C2120 1.409 . S
C2127 C2126 1.362 . S
H2128 C2134 0.930 . S
H2129 C2137 0.930 . S
H2130 C2138 0.930 . S
H2131 C2139 0.930 . S
H2132 C2142 0.930 . S
H2133 C2143 0.930 . S
C2134 H2128 0.930 . S
C2134 C2135 1.355 . S
C2134 C2136 1.415 . S
C2135 C2134 1.355 . S
C2135 C2137 1.419 . S
C2136 C2134 1.415 . S
C2136 C2141 1.425 . S
C2136 C2143 1.409 . S
C2137 H2129 0.930 . S
C2137 C2135 1.419 . S
C2137 C2138 1.362 . S
C2138 H2130 0.930 . S
C2138 C2137 1.362 . S
C2138 C2141 1.409 . S
C2139 H2131 0.930 . S
C2139 C2140 1.355 . S
C2139 C2141 1.415 . S
C2140 C2139 1.355 . S
C2140 C2142 1.419 . S
C2141 C2136 1.425 . S
C2141 C2138 1.409 . S
C2141 C2139 1.415 . S
C2142 H2132 0.930 . S
C2142 C2140 1.419 . S
C2142 C2143 1.362 . S
C2143 H2133 0.930 . S
C2143 C2136 1.409 . S
C2143 C2142 1.362 . S
H2144 C2150 0.930 . S
H2145 C2153 0.930 . S
H2146 C2154 0.930 . S
H2147 C2155 0.930 . S
H2148 C2158 0.930 . S
H2149 C2159 0.930 . S
C2150 H2144 0.930 . S
C2150 C2151 1.355 . S
C2150 C2152 1.415 . S
C2151 C2150 1.355 . S
C2151 C2153 1.419 . S
C2152 C2150 1.415 . S
C2152 C2157 1.425 . S
C2152 C2159 1.409 . S
C2153 H2145 0.930 . S
C2153 C2151 1.419 . S
C2153 C2154 1.362 . S
C2154 H2146 0.930 . S
C2154 C2153 1.362 . S
C2154 C2157 1.409 . S
C2155 H2147 0.930 . S
C2155 C2156 1.355 . S
C2155 C2157 1.415 . S
C2156 C2155 1.355 . S
C2156 C2158 1.419 . S
C2157 C2152 1.425 . S
C2157 C2154 1.409 . S
C2157 C2155 1.415 . S
C2158 H2148 0.930 . S
C2158 C2156 1.419 . S
C2158 C2159 1.362 . S
C2159 H2149 0.930 . S
C2159 C2152 1.409 . S
C2159 C2158 1.362 . S
H2160 C2166 0.930 . S
H2161 C2169 0.930 . S
H2162 C2170 0.930 . S
H2163 C2171 0.930 . S
H2164 C2174 0.930 . S
H2165 C2175 0.930 . S
C2166 H2160 0.930 . S
C2166 C2167 1.355 . S
C2166 C2168 1.415 . S
C2167 C2166 1.355 . S
C2167 C2169 1.419 . S
C2168 C2166 1.415 . S
C2168 C2173 1.425 . S
C2168 C2175 1.409 . S
C2169 H2161 0.930 . S
C2169 C2167 1.419 . S
C2169 C2170 1.362 . S
C2170 H2162 0.930 . S
C2170 C2169 1.362 . S
C2170 C2173 1.409 . S
C2171 H2163 0.930 . S
C2171 C2172 1.355 . S
C2171 C2173 1.415 . S
C2172 C2171 1.355 . S
C2172 C2174 1.419 . S
C2173 C2168 1.425 . S
C2173 C2170 1.409 . S
C2173 C2171 1.415 . S
C2174 H2164 0.930 . S
C2174 C2172 1.419 . S
C2174 C2175 1.362 . S
C2175 H2165 0.930 . S
C2175 C2168 1.409 . S
C2175 C2174 1.362 . S
H2176 C2182 0.930 . S
H2177 C2185 0.930 . S
H2178 C2186 0.930 . S
H2179 C2187 0.930 . S
H2180 C2190 0.930 . S
H2181 C2191 0.930 . S
C2182 H2176 0.930 . S
C2182 C2183 1.355 . S
C2182 C2184 1.415 . S
C2183 C2182 1.355 . S
C2183 C2185 1.419 . S
C2184 C2182 1.415 . S
C2184 C2189 1.425 . S
C2184 C2191 1.409 . S
C2185 H2177 0.930 . S
C2185 C2183 1.419 . S
C2185 C2186 1.362 . S
C2186 H2178 0.930 . S
C2186 C2185 1.362 . S
C2186 C2189 1.409 . S
C2187 H2179 0.930 . S
C2187 C2188 1.355 . S
C2187 C2189 1.415 . S
C2188 C2187 1.355 . S
C2188 C2190 1.419 . S
C2189 C2184 1.425 . S
C2189 C2186 1.409 . S
C2189 C2187 1.415 . S
C2190 H2180 0.930 . S
C2190 C2188 1.419 . S
C2190 C2191 1.362 . S
C2191 H2181 0.930 . S
C2191 C2184 1.409 . S
C2191 C2190 1.362 . S
H2192 C2198 0.930 . S
H2193 C2201 0.930 . S
H2194 C2202 0.930 . S
H2195 C2203 0.930 . S
H2196 C2206 0.930 . S
H2197 C2207 0.930 . S
C2198 H2192 0.930 . S
C2198 C2199 1.355 . S
C2198 C2200 1.415 . S
C2199 C2198 1.355 . S
C2199 C2201 1.419 . S
C2200 C2198 1.415 . S
C2200 C2205 1.425 . S
C2200 C2207 1.409 . S
C2201 H2193 0.930 . S
C2201 C2199 1.419 . S
C2201 C2202 1.362 . S
C2202 H2194 0.930 . S
C2202 C2201 1.362 . S
C2202 C2205 1.409 . S
C2203 H2195 0.930 . S
C2203 C2204 1.355 . S
C2203 C2205 1.415 . S
C2204 C2203 1.355 . S
C2204 C2206 1.419 . S
C2205 C2200 1.425 . S
C2205 C2202 1.409 . S
C2205 C2203 1.415 . S
C2206 H2196 0.930 . S
C2206 C2204 1.419 . S
C2206 C2207 1.362 . S
C2207 H2197 0.930 . S
C2207 C2200 1.409 . S
C2207 C2206 1.362 . S
H2208 C2214 0.930 . S
H2209 C2217 0.930 . S
H2210 C2218 0.930 . S
H2211 C2219 0.930 . S
H2212 C2222 0.930 . S
H2213 C2223 0.930 . S
C2214 H2208 0.930 . S
C2214 C2215 1.355 . S
C2214 C2216 1.415 . S
C2215 C2214 1.355 . S
C2215 C2217 1.419 . S
C2216 C2214 1.415 . S
C2216 C2221 1.425 . S
C2216 C2223 1.409 . S
C2217 H2209 0.930 . S
C2217 C2215 1.419 . S
C2217 C2218 1.362 . S
C2218 H2210 0.930 . S
C2218 C2217 1.362 . S
C2218 C2221 1.409 . S
C2219 H2211 0.930 . S
C2219 C2220 1.355 . S
C2219 C2221 1.415 . S
C2220 C2219 1.355 . S
C2220 C2222 1.419 . S
C2221 C2216 1.425 . S
C2221 C2218 1.409 . S
C2221 C2219 1.415 . S
C2222 H2212 0.930 . S
C2222 C2220 1.419 . S
C2222 C2223 1.362 . S
C2223 H2213 0.930 . S
C2223 C2216 1.409 . S
C2223 C2222 1.362 . S
H2224 C2230 0.930 . S
H2225 C2233 0.930 . S
H2226 C2234 0.930 . S
H2227 C2235 0.930 . S
H2228 C2238 0.930 . S
H2229 C2239 0.930 . S
C2230 H2224 0.930 . S
C2230 C2231 1.355 . S
C2230 C2232 1.415 . S
C2231 C2230 1.355 . S
C2231 C2233 1.419 . S
C2232 C2230 1.415 . S
C2232 C2237 1.425 . S
C2232 C2239 1.409 . S
C2233 H2225 0.930 . S
C2233 C2231 1.419 . S
C2233 C2234 1.362 . S
C2234 H2226 0.930 . S
C2234 C2233 1.362 . S
C2234 C2237 1.409 . S
C2235 H2227 0.930 . S
C2235 C2236 1.355 . S
C2235 C2237 1.415 . S
C2236 C2235 1.355 . S
C2236 C2238 1.419 . S
C2237 C2232 1.425 . S
C2237 C2234 1.409 . S
C2237 C2235 1.415 . S
C2238 H2228 0.930 . S
C2238 C2236 1.419 . S
C2238 C2239 1.362 . S
C2239 H2229 0.930 . S
C2239 C2232 1.409 . S
C2239 C2238 1.362 . S
H2240 C2246 0.930 . S
H2241 C2249 0.930 . S
H2242 C2250 0.930 . S
H2243 C2251 0.930 . S
H2244 C2254 0.930 . S
H2245 C2255 0.930 . S
C2246 H2240 0.930 . S
C2246 C2247 1.355 . S
C2246 C2248 1.415 . S
C2247 C2246 1.355 . S
C2247 C2249 1.419 . S
C2248 C2246 1.415 . S
C2248 C2253 1.425 . S
C2248 C2255 1.409 . S
C2249 H2241 0.930 . S
C2249 C2247 1.419 . S
C2249 C2250 1.362 . S
C2250 H2242 0.930 . S
C2250 C2249 1.362 . S
C2250 C2253 1.409 . S
C2251 H2243 0.930 . S
C2251 C2252 1.355 . S
C2251 C2253 1.415 . S
C2252 C2251 1.355 . S
C2252 C2254 1.419 . S
C2253 C2248 1.425 . S
C2253 C2250 1.409 . S
C2253 C2251 1.415 . S
C2254 H2244 0.930 . S
C2254 C2252 1.419 . S
C2254 C2255 1.362 . S
C2255 H2245 0.930 . S
C2255 C2248 1.409 . S
C2255 C2254 1.362 . S
H2256 C2262 0.930 . S
H2257 C2265 0.930 . S
H2258 C2266 0.930 . S
H2259 C2267 0.930 . S
H2260 C2270 0.930 . S
H2261 C2271 0.930 . S
C2262 H2256 0.930 . S
C2262 C2263 1.355 . S
C2262 C2264 1.415 . S
C2263 C2262 1.355 . S
C2263 C2265 1.419 . S
C2264 C2262 1.415 . S
C2264 C2269 1.425 . S
C2264 C2271 1.409 . S
C2265 H2257 0.930 . S
C2265 C2263 1.419 . S
C2265 C2266 1.362 . S
C2266 H2258 0.930 . S
C2266 C2265 1.362 . S
C2266 C2269 1.409 . S
C2267 H2259 0.930 . S
C2267 C2268 1.355 . S
C2267 C2269 1.415 . S
C2268 C2267 1.355 . S
C2268 C2270 1.419 . S
C2269 C2264 1.425 . S
C2269 C2266 1.409 . S
C2269 C2267 1.415 . S
C2270 H2260 0.930 . S
C2270 C2268 1.419 . S
C2270 C2271 1.362 . S
C2271 H2261 0.930 . S
C2271 C2264 1.409 . S
C2271 C2270 1.362 . S
H2272 C2278 0.930 . S
H2273 C2281 0.930 . S
H2274 C2282 0.930 . S
H2275 C2283 0.930 . S
H2276 C2286 0.930 . S
H2277 C2287 0.930 . S
C2278 H2272 0.930 . S
C2278 C2279 1.355 . S
C2278 C2280 1.415 . S
C2279 C2278 1.355 . S
C2279 C2281 1.419 . S
C2280 C2278 1.415 . S
C2280 C2285 1.425 . S
C2280 C2287 1.409 . S
C2281 H2273 0.930 . S
C2281 C2279 1.419 . S
C2281 C2282 1.362 . S
C2282 H2274 0.930 . S
C2282 C2281 1.362 . S
C2282 C2285 1.409 . S
C2283 H2275 0.930 . S
C2283 C2284 1.355 . S
C2283 C2285 1.415 . S
C2284 C2283 1.355 . S
C2284 C2286 1.419 . S
C2285 C2280 1.425 . S
C2285 C2282 1.409 . S
C2285 C2283 1.415 . S
C2286 H2276 0.930 . S
C2286 C2284 1.419 . S
C2286 C2287 1.362 . S
C2287 H2277 0.930 . S
C2287 C2280 1.409 . S
C2287 C2286 1.362 . S
H2288 C2294 0.930 . S
H2289 C2297 0.930 . S
H2290 C2298 0.930 . S
H2291 C2299 0.930 . S
H2292 C2302 0.930 . S
H2293 C2303 0.930 . S
C2294 H2288 0.930 . S
C2294 C2295 1.355 . S
C2294 C2296 1.415 . S
C2295 C2294 1.355 . S
C2295 C2297 1.419 . S
C2296 C2294 1.415 . S
C2296 C2301 1.425 . S
C2296 C2303 1.409 . S
C2297 H2289 0.930 . S
C2297 C2295 1.419 . S
C2297 C2298 1.362 . S
C2298 H2290 0.930 . S
C2298 C2297 1.362 . S
C2298 C2301 1.409 . S
C2299 H2291 0.930 . S
C2299 C2300 1.355 . S
C2299 C2301 1.415 . S
C2300 C2299 1.355 . S
C2300 C2302 1.419 . S
C2301 C2296 1.425 . S
C2301 C2298 1.409 . S
C2301 C2299 1.415 . S
C2302 H2292 0.930 . S
C2302 C2300 1.419 . S
C2302 C2303 1.362 . S
C2303 H2293 0.930 . S
C2303 C2296 1.409 . S
C2303 C2302 1.362 . S
H2304 C2310 0.930 . S
H2305 C2313 0.930 . S
H2306 C2314 0.930 . S
H2307 C2315 0.930 . S
H2308 C2318 0.930 . S
H2309 C2319 0.930 . S
C2310 H2304 0.930 . S
C2310 C2311 1.355 . S
C2310 C2312 1.415 . S
C2311 C2310 1.355 . S
C2311 C2313 1.419 . S
C2312 C2310 1.415 . S
C2312 C2317 1.425 . S
C2312 C2319 1.409 . S
C2313 H2305 0.930 . S
C2313 C2311 1.419 . S
C2313 C2314 1.362 . S
C2314 H2306 0.930 . S
C2314 C2313 1.362 . S
C2314 C2317 1.409 . S
C2315 H2307 0.930 . S
C2315 C2316 1.355 . S
C2315 C2317 1.415 . S
C2316 C2315 1.355 . S
C2316 C2318 1.419 . S
C2317 C2312 1.425 . S
C2317 C2314 1.409 . S
C2317 C2315 1.415 . S
C2318 H2308 0.930 . S
C2318 C2316 1.419 . S
C2318 C2319 1.362 . S
C2319 H2309 0.930 . S
C2319 C2312 1.409 . S
C2319 C2318 1.362 . S
H2320 C2326 0.930 . S
H2321 C2329 0.930 . S
H2322 C2330 0.930 . S
H2323 C2331 0.930 . S
H2324 C2334 0.930 . S
H2325 C2335 0.930 . S
C2326 H2320 0.930 . S
C2326 C2327 1.355 . S
C2326 C2328 1.415 . S
C2327 C2326 1.355 . S
C2327 C2329 1.419 . S
C2328 C2326 1.415 . S
C2328 C2333 1.425 . S
C2328 C2335 1.409 . S
C2329 H2321 0.930 . S
C2329 C2327 1.419 . S
C2329 C2330 1.362 . S
C2330 H2322 0.930 . S
C2330 C2329 1.362 . S
C2330 C2333 1.409 . S
C2331 H2323 0.930 . S
C2331 C2332 1.355 . S
C2331 C2333 1.415 . S
C2332 C2331 1.355 . S
C2332 C2334 1.419 . S
C2333 C2328 1.425 . S
C2333 C2330 1.409 . S
C2333 C2331 1.415 . S
C2334 H2324 0.930 . S
C2334 C2332 1.419 . S
C2334 C2335 1.362 . S
C2335 H2325 0.930 . S
C2335 C2328 1.409 . S
C2335 C2334 1.362 . S
H2336 C2342 0.930 . S
H2337 C2345 0.930 . S
H2338 C2346 0.930 . S
H2339 C2347 0.930 . S
H2340 C2350 0.930 . S
H2341 C2351 0.930 . S
C2342 H2336 0.930 . S
C2342 C2343 1.355 . S
C2342 C2344 1.415 . S
C2343 C2342 1.355 . S
C2343 C2345 1.419 . S
C2344 C2342 1.415 . S
C2344 C2349 1.425 . S
C2344 C2351 1.409 . S
C2345 H2337 0.930 . S
C2345 C2343 1.419 . S
C2345 C2346 1.362 . S
C2346 H2338 0.930 . S
C2346 C2345 1.362 . S
C2346 C2349 1.409 . S
C2347 H2339 0.930 . S
C2347 C2348 1.355 . S
C2347 C2349 1.415 . S
C2348 C2347 1.355 . S
C2348 C2350 1.419 . S
C2349 C2344 1.425 . S
C2349 C2346 1.409 . S
C2349 C2347 1.415 . S
C2350 H2340 0.930 . S
C2350 C2348 1.419 . S
C2350 C2351 1.362 . S
C2351 H2341 0.930 . S
C2351 C2344 1.409 . S
C2351 C2350 1.362 . S
H2352 C2358 0.930 . S
H2353 C2361 0.930 . S
H2354 C2362 0.930 . S
H2355 C2363 0.930 . S
H2356 C2366 0.930 . S
H2357 C2367 0.930 . S
C2358 H2352 0.930 . S
C2358 C2359 1.355 . S
C2358 C2360 1.415 . S
C2359 C2358 1.355 . S
C2359 C2361 1.419 . S
C2360 C2358 1.415 . S
C2360 C2365 1.425 . S
C2360 C2367 1.409 . S
C2361 H2353 0.930 . S
C2361 C2359 1.419 . S
C2361 C2362 1.362 . S
C2362 H2354 0.930 . S
C2362 C2361 1.362 . S
C2362 C2365 1.409 . S
C2363 H2355 0.930 . S
C2363 C2364 1.355 . S
C2363 C2365 1.415 . S
C2364 C2363 1.355 . S
C2364 C2366 1.419 . S
C2365 C2360 1.425 . S
C2365 C2362 1.409 . S
C2365 C2363 1.415 . S
C2366 H2356 0.930 . S
C2366 C2364 1.419 . S
C2366 C2367 1.362 . S
C2367 H2357 0.930 . S
C2367 C2360 1.409 . S
C2367 C2366 1.362 . S
H2368 C2374 0.930 . S
H2369 C2377 0.930 . S
H2370 C2378 0.930 . S
H2371 C2379 0.930 . S
H2372 C2382 0.930 . S
H2373 C2383 0.930 . S
C2374 H2368 0.930 . S
C2374 C2375 1.355 . S
C2374 C2376 1.415 . S
C2375 C2374 1.355 . S
C2375 C2377 1.419 . S
C2376 C2374 1.415 . S
C2376 C2381 1.425 . S
C2376 C2383 1.409 . S
C2377 H2369 0.930 . S
C2377 C2375 1.419 . S
C2377 C2378 1.362 . S
C2378 H2370 0.930 . S
C2378 C2377 1.362 . S
C2378 C2381 1.409 . S
C2379 H2371 0.930 . S
C2379 C2380 1.355 . S
C2379 C2381 1.415 . S
C2380 C2379 1.355 . S
C2380 C2382 1.419 . S
C2381 C2376 1.425 . S
C2381 C2378 1.409 . S
C2381 C2379 1.415 . S
C2382 H2372 0.930 . S
C2382 C2380 1.419 . S
C2382 C2383 1.362 . S
C2383 H2373 0.930 . S
C2383 C2376 1.409 . S
C2383 C2382 1.362 . S
H2384 C2390 0.930 . S
H2385 C2393 0.930 . S
H2386 C2394 0.930 . S
H2387 C2395 0.930 . S
H2388 C2398 0.930 . S
H2389 C2399 0.930 . S
C2390 H2384 0.930 . S
C2390 C2391 1.355 . S
C2390 C2392 1.415 . S
C2391 C2390 1.355 . S
C2391 C2393 1.419 . S
C2392 C2390 1.415 . S
C2392 C2397 1.425 . S
C2392 C2399 1.409 . S
C2393 H2385 0.930 . S
C2393 C2391 1.419 . S
C2393 C2394 1.362 . S
C2394 H2386 0.930 . S
C2394 C2393 1.362 . S
C2394 C2397 1.409 . S
C2395 H2387 0.930 . S
C2395 C2396 1.355 . S
C2395 C2397 1.415 . S
C2396 C2395 1.355 . S
C2396 C2398 1.419 . S
C2397 C2392 1.425 . S
C2397 C2394 1.409 . S
C2397 C2395 1.415 . S
C2398 H2388 0.930 . S
C2398 C2396 1.419 . S
C2398 C2399 1.362 . S
C2399 H2389 0.930 . S
C2399 C2392 1.409 . S
C2399 C2398 1.362 . S
H2400 C2406 0.930 . S
H2401 C2409 0.930 . S
H2402 C2410 0.930 . S
H2403 C2411 0.930 . S
H2404 C2414 0.930 . S
H2405 C2415 0.930 . S
C2406 H2400 0.930 . S
C2406 C2407 1.355 . S
C2406 C2408 1.415 . S
C2407 C2406 1.355 . S
C2407 C2409 1.419 . S
C2408 C2406 1.415 . S
C2408 C2413 1.425 . S
C2408 C2415 1.409 . S
C2409 H2401 0.930 . S
C2409 C2407 1.419 . S
C2409 C2410 1.362 . S
C2410 H2402 0.930 . S
C2410 C2409 1.362 . S
C2410 C2413 1.409 . S
C2411 H2403 0.930 . S
C2411 C2412 1.355 . S
C2411 C2413 1.415 . S
C2412 C2411 1.355 . S
C2412 C2414 1.419 . S
C2413 C2408 1.425 . S
C2413 C2410 1.409 . S
C2413 C2411 1.415 . S
C2414 H2404 0.930 . S
C2414 C2412 1.419 . S
C2414 C2415 1.362 . S
C2415 H2405 0.930 . S
C2415 C2408 1.409 . S
C2415 C2414 1.362 . S
H2416 C2422 0.930 . S
H2417 C2425 0.930 . S
H2418 C2426 0.930 . S
H2419 C2427 0.930 . S
H2420 C2430 0.930 . S
H2421 C2431 0.930 . S
C2422 H2416 0.930 . S
C2422 C2423 1.355 . S
C2422 C2424 1.415 . S
C2423 C2422 1.355 . S
C2423 C2425 1.419 . S
C2424 C2422 1.415 . S
C2424 C2429 1.425 . S
C2424 C2431 1.409 . S
C2425 H2417 0.930 . S
C2425 C2423 1.419 . S
C2425 C2426 1.362 . S
C2426 H2418 0.930 . S
C2426 C2425 1.362 . S
C2426 C2429 1.409 . S
C2427 H2419 0.930 . S
C2427 C2428 1.355 . S
C2427 C2429 1.415 . S
C2428 C2427 1.355 . S
C2428 C2430 1.419 . S
C2429 C2424 1.425 . S
C2429 C2426 1.409 . S
C2429 C2427 1.415 . S
C2430 H2420 0.930 . S
C2430 C2428 1.419 . S
C2430 C2431 1.362 . S
C2431 H2421 0.930 . S
C2431 C2424 1.409 . S
C2431 C2430 1.362 . S
H2432 C2438 0.930 . S
H2433 C2441 0.930 . S
H2434 C2442 0.930 . S
H2435 C2443 0.930 . S
H2436 C2446 0.930 . S
H2437 C2447 0.930 . S
C2438 H2432 0.930 . S
C2438 C2439 1.355 . S
C2438 C2440 1.415 . S
C2439 C2438 1.355 . S
C2439 C2441 1.419 . S
C2440 C2438 1.415 . S
C2440 C2445 1.425 . S
C2440 C2447 1.409 . S
C2441 H2433 0.930 . S
C2441 C2439 1.419 . S
C2441 C2442 1.362 . S
C2442 H2434 0.930 . S
C2442 C2441 1.362 . S
C2442 C2445 1.409 . S
C2443 H2435 0.930 . S
C2443 C2444 1.355 . S
C2443 C2445 1.415 . S
C2444 C2443 1.355 . S
C2444 C2446 1.419 . S
C2445 C2440 1.425 . S
C2445 C2442 1.409 . S
C2445 C2443 1.415 . S
C2446 H2436 0.930 . S
C2446 C2444 1.419 . S
C2446 C2447 1.362 . S
C2447 H2437 0.930 . S
C2447 C2440 1.409 . S
C2447 C2446 1.362 . S
H2448 C2454 0.930 . S
H2449 C2457 0.930 . S
H2450 C2458 0.930 . S
H2451 C2459 0.930 . S
H2452 C2462 0.930 . S
H2453 C2463 0.930 . S
C2454 H2448 0.930 . S
C2454 C2455 1.355 . S
C2454 C2456 1.415 . S
C2455 C2454 1.355 . S
C2455 C2457 1.419 . S
C2456 C2454 1.415 . S
C2456 C2461 1.425 . S
C2456 C2463 1.409 . S
C2457 H2449 0.930 . S
C2457 C2455 1.419 . S
C2457 C2458 1.362 . S
C2458 H2450 0.930 . S
C2458 C2457 1.362 . S
C2458 C2461 1.409 . S
C2459 H2451 0.930 . S
C2459 C2460 1.355 . S
C2459 C2461 1.415 . S
C2460 C2459 1.355 . S
C2460 C2462 1.419 . S
C2461 C2456 1.425 . S
C2461 C2458 1.409 . S
C2461 C2459 1.415 . S
C2462 H2452 0.930 . S
C2462 C2460 1.419 . S
C2462 C2463 1.362 . S
C2463 H2453 0.930 . S
C2463 C2456 1.409 . S
C2463 C2462 1.362 . S
H2464 C2470 0.930 . S
H2465 C2473 0.930 . S
H2466 C2474 0.930 . S
H2467 C2475 0.930 . S
H2468 C2478 0.930 . S
H2469 C2479 0.930 . S
C2470 H2464 0.930 . S
C2470 C2471 1.355 . S
C2470 C2472 1.415 . S
C2471 C2470 1.355 . S
C2471 C2473 1.419 . S
C2472 C2470 1.415 . S
C2472 C2477 1.425 . S
C2472 C2479 1.409 . S
C2473 H2465 0.930 . S
C2473 C2471 1.419 . S
C2473 C2474 1.362 . S
C2474 H2466 0.930 . S
C2474 C2473 1.362 . S
C2474 C2477 1.409 . S
C2475 H2467 0.930 . S
C2475 C2476 1.355 . S
C2475 C2477 1.415 . S
C2476 C2475 1.355 . S
C2476 C2478 1.419 . S
C2477 C2472 1.425 . S
C2477 C2474 1.409 . S
C2477 C2475 1.415 . S
C2478 H2468 0.930 . S
C2478 C2476 1.419 . S
C2478 C2479 1.362 . S
C2479 H2469 0.930 . S
C2479 C2472 1.409 . S
C2479 C2478 1.362 . S
H2480 C2486 0.930 . S
H2481 C2489 0.930 . S
H2482 C2490 0.930 . S
H2483 C2491 0.930 . S
H2484 C2494 0.930 . S
H2485 C2495 0.930 . S
C2486 H2480 0.930 . S
C2486 C2487 1.355 . S
C2486 C2488 1.415 . S
C2487 C2486 1.355 . S
C2487 C2489 1.419 . S
C2488 C2486 1.415 . S
C2488 C2493 1.425 . S
C2488 C2495 1.409 . S
C2489 H2481 0.930 . S
C2489 C2487 1.419 . S
C2489 C2490 1.362 . S
C2490 H2482 0.930 . S
C2490 C2489 1.362 . S
C2490 C2493 1.409 . S
C2491 H2483 0.930 . S
C2491 C2492 1.355 . S
C2491 C2493 1.415 . S
C2492 C2491 1.355 . S
C2492 C2494 1.419 . S
C2493 C2488 1.425 . S
C2493 C2490 1.409 . S
C2493 C2491 1.415 . S
C2494 H2484 0.930 . S
C2494 C2492 1.419 . S
C2494 C2495 1.362 . S
C2495 H2485 0.930 . S
C2495 C2488 1.409 . S
C2495 C2494 1.362 . S
H2496 C2502 0.930 . S
H2497 C2505 0.930 . S
H2498 C2506 0.930 . S
H2499 C2507 0.930 . S
H2500 C2510 0.930 . S
H2501 C2511 0.930 . S
C2502 H2496 0.930 . S
C2502 C2503 1.355 . S
C2502 C2504 1.415 . S
C2503 C2502 1.355 . S
C2503 C2505 1.419 . S
C2504 C2502 1.415 . S
C2504 C2509 1.425 . S
C2504 C2511 1.409 . S
C2505 H2497 0.930 . S
C2505 C2503 1.419 . S
C2505 C2506 1.362 . S
C2506 H2498 0.930 . S
C2506 C2505 1.362 . S
C2506 C2509 1.409 . S
C2507 H2499 0.930 . S
C2507 C2508 1.355 . S
C2507 C2509 1.415 . S
C2508 C2507 1.355 . S
C2508 C2510 1.419 . S
C2509 C2504 1.425 . S
C2509 C2506 1.409 . S
C2509 C2507 1.415 . S
C2510 H2500 0.930 . S
C2510 C2508 1.419 . S
C2510 C2511 1.362 . S
C2511 H2501 0.930 . S
C2511 C2504 1.409 . S
C2511 C2510 1.362 . S
H2512 C2518 0.930 . S
H2513 C2521 0.930 . S
H2514 C2522 0.930 . S
H2515 C2523 0.930 . S
H2516 C2526 0.930 . S
H2517 C2527 0.930 . S
C2518 H2512 0.930 . S
C2518 C2519 1.355 . S
C2518 C2520 1.415 . S
C2519 C2518 1.355 . S
C2519 C2521 1.419 . S
C2520 C2518 1.415 . S
C2520 C2525 1.425 . S
C2520 C2527 1.409 . S
C2521 H2513 0.930 . S
C2521 C2519 1.419 . S
C2521 C2522 1.362 . S
C2522 H2514 0.930 . S
C2522 C2521 1.362 . S
C2522 C2525 1.409 . S
C2523 H2515 0.930 . S
C2523 C2524 1.355 . S
C2523 C2525 1.415 . S
C2524 C2523 1.355 . S
C2524 C2526 1.419 . S
C2525 C2520 1.425 . S
C2525 C2522 1.409 . S
C2525 C2523 1.415 . S
C2526 H2516 0.930 . S
C2526 C2524 1.419 . S
C2526 C2527 1.362 . S
C2527 H2517 0.930 . S
C2527 C2520 1.409 . S
C2527 C2526 1.362 . S
H2528 C2534 0.930 . S
H2529 C2537 0.930 . S
H2530 C2538 0.930 . S
H2531 C2539 0.930 . S
H2532 C2542 0.930 . S
H2533 C2543 0.930 . S
C2534 H2528 0.930 . S
C2534 C2535 1.355 . S
C2534 C2536 1.415 . S
C2535 C2534 1.355 . S
C2535 C2537 1.419 . S
C2536 C2534 1.415 . S
C2536 C2541 1.425 . S
C2536 C2543 1.409 . S
C2537 H2529 0.930 . S
C2537 C2535 1.419 . S
C2537 C2538 1.362 . S
C2538 H2530 0.930 . S
C2538 C2537 1.362 . S
C2538 C2541 1.409 . S
C2539 H2531 0.930 . S
C2539 C2540 1.355 . S
C2539 C2541 1.415 . S
C2540 C2539 1.355 . S
C2540 C2542 1.419 . S
C2541 C2536 1.425 . S
C2541 C2538 1.409 . S
C2541 C2539 1.415 . S
C2542 H2532 0.930 . S
C2542 C2540 1.419 . S
C2542 C2543 1.362 . S
C2543 H2533 0.930 . S
C2543 C2536 1.409 . S
C2543 C2542 1.362 . S
H2544 C2550 0.930 . S
H2545 C2553 0.930 . S
H2546 C2554 0.930 . S
H2547 C2555 0.930 . S
H2548 C2558 0.930 . S
H2549 C2559 0.930 . S
C2550 H2544 0.930 . S
C2550 C2551 1.355 . S
C2550 C2552 1.415 . S
C2551 C2550 1.355 . S
C2551 C2553 1.419 . S
C2552 C2550 1.415 . S
C2552 C2557 1.425 . S
C2552 C2559 1.409 . S
C2553 H2545 0.930 . S
C2553 C2551 1.419 . S
C2553 C2554 1.362 . S
C2554 H2546 0.930 . S
C2554 C2553 1.362 . S
C2554 C2557 1.409 . S
C2555 H2547 0.930 . S
C2555 C2556 1.355 . S
C2555 C2557 1.415 . S
C2556 C2555 1.355 . S
C2556 C2558 1.419 . S
C2557 C2552 1.425 . S
C2557 C2554 1.409 . S
C2557 C2555 1.415 . S
C2558 H2548 0.930 . S
C2558 C2556 1.419 . S
C2558 C2559 1.362 . S
C2559 H2549 0.930 . S
C2559 C2552 1.409 . S
C2559 C2558 1.362 . S
H2560 C2566 0.930 . S
H2561 C2569 0.930 . S
H2562 C2570 0.930 . S
H2563 C2571 0.930 . S
H2564 C2574 0.930 . S
H2565 C2575 0.930 . S
C2566 H2560 0.930 . S
C2566 C2567 1.355 . S
C2566 C2568 1.415 . S
C2567 C2566 1.355 . S
C2567 C2569 1.419 . S
C2568 C2566 1.415 . S
C2568 C2573 1.425 . S
C2568 C2575 1.409 . S
C2569 H2561 0.930 . S
C2569 C2567 1.419 . S
C2569 C2570 1.362 . S
C2570 H2562 0.930 . S
C2570 C2569 1.362 . S
C2570 C2573 1.409 . S
C2571 H2563 0.930 . S
C2571 C2572 1.355 . S
C2571 C2573 1.415 . S
C2572 C2571 1.355 . S
C2572 C2574 1.419 . S
C2573 C2568 1.425 . S
C2573 C2570 1.409 . S
C2573 C2571 1.415 . S
C2574 H2564 0.930 . S
C2574 C2572 1.419 . S
C2574 C2575 1.362 . S
C2575 H2565 0.930 . S
C2575 C2568 1.409 . S
C2575 C2574 1.362 . S
H2576 C2582 0.930 . S
H2577 C2585 0.930 . S
H2578 C2586 0.930 . S
H2579 C2587 0.930 . S
H2580 C2590 0.930 . S
H2581 C2591 0.930 . S
C2582 H2576 0.930 . S
C2582 C2583 1.355 . S
C2582 C2584 1.415 . S
C2583 C2582 1.355 . S
C2583 C2585 1.419 . S
C2584 C2582 1.415 . S
C2584 C2589 1.425 . S
C2584 C2591 1.409 . S
C2585 H2577 0.930 . S
C2585 C2583 1.419 . S
C2585 C2586 1.362 . S
C2586 H2578 0.930 . S
C2586 C2585 1.362 . S
C2586 C2589 1.409 . S
C2587 H2579 0.930 . S
C2587 C2588 1.355 . S
C2587 C2589 1.415 . S
C2588 C2587 1.355 . S
C2588 C2590 1.419 . S
C2589 C2584 1.425 . S
C2589 C2586 1.409 . S
C2589 C2587 1.415 . S
C2590 H2580 0.930 . S
C2590 C2588 1.419 . S
C2590 C2591 1.362 . S
C2591 H2581 0.930 . S
C2591 C2584 1.409 . S
C2591 C2590 1.362 . S
H2592 C2598 0.930 . S
H2593 C2601 0.930 . S
H2594 C2602 0.930 . S
H2595 C2603 0.930 . S
H2596 C2606 0.930 . S
H2597 C2607 0.930 . S
C2598 H2592 0.930 . S
C2598 C2599 1.355 . S
C2598 C2600 1.415 . S
C2599 C2598 1.355 . S
C2599 C2601 1.419 . S
C2600 C2598 1.415 . S
C2600 C2605 1.425 . S
C2600 C2607 1.409 . S
C2601 H2593 0.930 . S
C2601 C2599 1.419 . S
C2601 C2602 1.362 . S
C2602 H2594 0.930 . S
C2602 C2601 1.362 . S
C2602 C2605 1.409 . S
C2603 H2595 0.930 . S
C2603 C2604 1.355 . S
C2603 C2605 1.415 . S
C2604 C2603 1.355 . S
C2604 C2606 1.419 . S
C2605 C2600 1.425 . S
C2605 C2602 1.409 . S
C2605 C2603 1.415 . S
C2606 H2596 0.930 . S
C2606 C2604 1.419 . S
C2606 C2607 1.362 . S
C2607 H2597 0.930 . S
C2607 C2600 1.409 . S
C2607 C2606 1.362 . S
H2608 C2614 0.930 . S
H2609 C2617 0.930 . S
H2610 C2618 0.930 . S
H2611 C2619 0.930 . S
H2612 C2622 0.930 . S
H2613 C2623 0.930 . S
C2614 H2608 0.930 . S
C2614 C2615 1.355 . S
C2614 C2616 1.415 . S
C2615 C2614 1.355 . S
C2615 C2617 1.419 . S
C2616 C2614 1.415 . S
C2616 C2621 1.425 . S
C2616 C2623 1.409 . S
C2617 H2609 0.930 . S
C2617 C2615 1.419 . S
C2617 C2618 1.362 . S
C2618 H2610 0.930 . S
C2618 C2617 1.362 . S
C2618 C2621 1.409 . S
C2619 H2611 0.930 . S
C2619 C2620 1.355 . S
C2619 C2621 1.415 . S
C2620 C2619 1.355 . S
C2620 C2622 1.419 . S
C2621 C2616 1.425 . S
C2621 C2618 1.409 . S
C2621 C2619 1.415 . S
C2622 H2612 0.930 . S
C2622 C2620 1.419 . S
C2622 C2623 1.362 . S
C2623 H2613 0.930 . S
C2623 C2616 1.409 . S
C2623 C2622 1.362 . S
H2624 C2630 0.930 . S
H2625 C2633 0.930 . S
H2626 C2634 0.930 . S
H2627 C2635 0.930 . S
H2628 C2638 0.930 . S
H2629 C2639 0.930 . S
C2630 H2624 0.930 . S
C2630 C2631 1.355 . S
C2630 C2632 1.415 . S
C2631 C2630 1.355 . S
C2631 C2633 1.419 . S
C2632 C2630 1.415 . S
C2632 C2637 1.425 . S
C2632 C2639 1.409 . S
C2633 H2625 0.930 . S
C2633 C2631 1.419 . S
C2633 C2634 1.362 . S
C2634 H2626 0.930 . S
C2634 C2633 1.362 . S
C2634 C2637 1.409 . S
C2635 H2627 0.930 . S
C2635 C2636 1.355 . S
C2635 C2637 1.415 . S
C2636 C2635 1.355 . S
C2636 C2638 1.419 . S
C2637 C2632 1.425 . S
C2637 C2634 1.409 . S
C2637 C2635 1.415 . S
C2638 H2628 0.930 . S
C2638 C2636 1.419 . S
C2638 C2639 1.362 . S
C2639 H2629 0.930 . S
C2639 C2632 1.409 . S
C2639 C2638 1.362 . S
H2640 C2646 0.930 . S
H2641 C2649 0.930 . S
H2642 C2650 0.930 . S
H2643 C2651 0.930 . S
H2644 C2654 0.930 . S
H2645 C2655 0.930 . S
C2646 H2640 0.930 . S
C2646 C2647 1.355 . S
C2646 C2648 1.415 . S
C2647 C2646 1.355 . S
C2647 C2649 1.419 . S
C2648 C2646 1.415 . S
C2648 C2653 1.425 . S
C2648 C2655 1.409 . S
C2649 H2641 0.930 . S
C2649 C2647 1.419 . S
C2649 C2650 1.362 . S
C2650 H2642 0.930 . S
C2650 C2649 1.362 . S
C2650 C2653 1.409 . S
C2651 H2643 0.930 . S
C2651 C2652 1.355 . S
C2651 C2653 1.415 . S
C2652 C2651 1.355 . S
C2652 C2654 1.419 . S
C2653 C2648 1.425 . S
C2653 C2650 1.409 . S
C2653 C2651 1.415 . S
C2654 H2644 0.930 . S
C2654 C2652 1.419 . S
C2654 C2655 1.362 . S
C2655 H2645 0.930 . S
C2655 C2648 1.409 . S
C2655 C2654 1.362 . S
H2656 C2662 0.930 . S
H2657 C2665 0.930 . S
H2658 C2666 0.930 . S
H2659 C2667 0.930 . S
H2660 C2670 0.930 . S
H2661 C2671 0.930 . S
C2662 H2656 0.930 . S
C2662 C2663 1.355 . S
C2662 C2664 1.415 . S
C2663 C2662 1.355 . S
C2663 C2665 1.419 . S
C2664 C2662 1.415 . S
C2664 C2669 1.425 . S
C2664 C2671 1.409 . S
C2665 H2657 0.930 . S
C2665 C2663 1.419 . S
C2665 C2666 1.362 . S
C2666 H2658 0.930 . S
C2666 C2665 1.362 . S
C2666 C2669 1.409 . S
C2667 H2659 0.930 . S
C2667 C2668 1.355 . S
C2667 C2669 1.415 . S
C2668 C2667 1.355 . S
C2668 C2670 1.419 . S
C2669 C2664 1.425 . S
C2669 C2666 1.409 . S
C2669 C2667 1.415 . S
C2670 H2660 0.930 . S
C2670 C2668 1.419 . S
C2670 C2671 1.362 . S
C2671 H2661 0.930 . S
C2671 C2664 1.409 . S
C2671 C2670 1.362 . S
H2672 C2678 0.930 . S
H2673 C2681 0.930 . S
H2674 C2682 0.930 . S
H2675 C2683 0.930 . S
H2676 C2686 0.930 . S
H2677 C2687 0.930 . S
C2678 H2672 0.930 . S
C2678 C2679 1.355 . S
C2678 C2680 1.415 . S
C2679 C2678 1.355 . S
C2679 C2681 1.419 . S
C2680 C2678 1.415 . S
C2680 C2685 1.425 . S
C2680 C2687 1.409 . S
C2681 H2673 0.930 . S
C2681 C2679 1.419 . S
C2681 C2682 1.362 . S
C2682 H2674 0.930 . S
C2682 C2681 1.362 . S
C2682 C2685 1.409 . S
C2683 H2675 0.930 . S
C2683 C2684 1.355 . S
C2683 C2685 1.415 . S
C2684 C2683 1.355 . S
C2684 C2686 1.419 . S
C2685 C2680 1.425 . S
C2685 C2682 1.409 . S
C2685 C2683 1.415 . S
C2686 H2676 0.930 . S
C2686 C2684 1.419 . S
C2686 C2687 1.362 . S
C2687 H2677 0.930 . S
C2687 C2680 1.409 . S
C2687 C2686 1.362 . S
H2688 C2694 0.930 . S
H2689 C2697 0.930 . S
H2690 C2698 0.930 . S
H2691 C2699 0.930 . S
H2692 C2702 0.930 . S
H2693 C2703 0.930 . S
C2694 H2688 0.930 . S
C2694 C2695 1.355 . S
C2694 C2696 1.415 . S
C2695 C2694 1.355 . S
C2695 C2697 1.419 . S
C2696 C2694 1.415 . S
C2696 C2701 1.425 . S
C2696 C2703 1.409 . S
C2697 H2689 0.930 . S
C2697 C2695 1.419 . S
C2697 C2698 1.362 . S
C2698 H2690 0.930 . S
C2698 C2697 1.362 . S
C2698 C2701 1.409 . S
C2699 H2691 0.930 . S
C2699 C2700 1.355 . S
C2699 C2701 1.415 . S
C2700 C2699 1.355 . S
C2700 C2702 1.419 . S
C2701 C2696 1.425 . S
C2701 C2698 1.409 . S
C2701 C2699 1.415 . S
C2702 H2692 0.930 . S
C2702 C2700 1.419 . S
C2702 C2703 1.362 . S
C2703 H2693 0.930 . S
C2703 C2696 1.409 . S
C2703 C2702 1.362 . S
H2704 C2710 0.930 . S
H2705 C2713 0.930 . S
H2706 C2714 0.930 . S
H2707 C2715 0.930 . S
H2708 C2718 0.930 . S
H2709 C2719 0.930 . S
C2710 H2704 0.930 . S
C2710 C2711 1.355 . S
C2710 C2712 1.415 . S
C2711 C2710 1.355 . S
C2711 C2713 1.419 . S
C2712 C2710 1.415 . S
C2712 C2717 1.425 . S
C2712 C2719 1.409 . S
C2713 H2705 0.930 . S
C2713 C2711 1.419 . S
C2713 C2714 1.362 . S
C2714 H2706 0.930 . S
C2714 C2713 1.362 . S
C2714 C2717 1.409 . S
C2715 H2707 0.930 . S
C2715 C2716 1.355 . S
C2715 C2717 1.415 . S
C2716 C2715 1.355 . S
C2716 C2718 1.419 . S
C2717 C2712 1.425 . S
C2717 C2714 1.409 . S
C2717 C2715 1.415 . S
C2718 H2708 0.930 . S
C2718 C2716 1.419 . S
C2718 C2719 1.362 . S
C2719 H2709 0.930 . S
C2719 C2712 1.409 . S
C2719 C2718 1.362 . S
H2720 C2726 0.930 . S
H2721 C2729 0.930 . S
H2722 C2730 0.930 . S
H2723 C2731 0.930 . S
H2724 C2734 0.930 . S
H2725 C2735 0.930 . S
C2726 H2720 0.930 . S
C2726 C2727 1.355 . S
C2726 C2728 1.415 . S
C2727 C2726 1.355 . S
C2727 C2729 1.419 . S
C2728 C2726 1.415 . S
C2728 C2733 1.425 . S
C2728 C2735 1.409 . S
C2729 H2721 0.930 . S
C2729 C2727 1.419 . S
C2729 C2730 1.362 . S
C2730 H2722 0.930 . S
C2730 C2729 1.362 . S
C2730 C2733 1.409 . S
C2731 H2723 0.930 . S
C2731 C2732 1.355 . S
C2731 C2733 1.415 . S
C2732 C2731 1.355 . S
C2732 C2734 1.419 . S
C2733 C2728 1.425 . S
C2733 C2730 1.409 . S
C2733 C2731 1.415 . S
C2734 H2724 0.930 . S
C2734 C2732 1.419 . S
C2734 C2735 1.362 . S
C2735 H2725 0.930 . S
C2735 C2728 1.409 . S
C2735 C2734 1.362 . S
H2736 C2742 0.930 . S
H2737 C2745 0.930 . S
H2738 C2746 0.930 . S
H2739 C2747 0.930 . S
H2740 C2750 0.930 . S
H2741 C2751 0.930 . S
C2742 H2736 0.930 . S
C2742 C2743 1.355 . S
C2742 C2744 1.415 . S
C2743 C2742 1.355 . S
C2743 C2745 1.419 . S
C2744 C2742 1.415 . S
C2744 C2749 1.425 . S
C2744 C2751 1.409 . S
C2745 H2737 0.930 . S
C2745 C2743 1.419 . S
C2745 C2746 1.362 . S
C2746 H2738 0.930 . S
C2746 C2745 1.362 . S
C2746 C2749 1.409 . S
C2747 H2739 0.930 . S
C2747 C2748 1.355 . S
C2747 C2749 1.415 . S
C2748 C2747 1.355 . S
C2748 C2750 1.419 . S
C2749 C2744 1.425 . S
C2749 C2746 1.409 . S
C2749 C2747 1.415 . S
C2750 H2740 0.930 . S
C2750 C2748 1.419 . S
C2750 C2751 1.362 . S
C2751 H2741 0.930 . S
C2751 C2744 1.409 . S
C2751 C2750 1.362 . S
H2752 C2758 0.930 . S
H2753 C2761 0.930 . S
H2754 C2762 0.930 . S
H2755 C2763 0.930 . S
H2756 C2766 0.930 . S
H2757 C2767 0.930 . S
C2758 H2752 0.930 . S
C2758 C2759 1.355 . S
C2758 C2760 1.415 . S
C2759 C2758 1.355 . S
C2759 C2761 1.419 . S
C2760 C2758 1.415 . S
C2760 C2765 1.425 . S
C2760 C2767 1.409 . S
C2761 H2753 0.930 . S
C2761 C2759 1.419 . S
C2761 C2762 1.362 . S
C2762 H2754 0.930 . S
C2762 C2761 1.362 . S
C2762 C2765 1.409 . S
C2763 H2755 0.930 . S
C2763 C2764 1.355 . S
C2763 C2765 1.415 . S
C2764 C2763 1.355 . S
C2764 C2766 1.419 . S
C2765 C2760 1.425 . S
C2765 C2762 1.409 . S
C2765 C2763 1.415 . S
C2766 H2756 0.930 . S
C2766 C2764 1.419 . S
C2766 C2767 1.362 . S
C2767 H2757 0.930 . S
C2767 C2760 1.409 . S
C2767 C2766 1.362 . S
H2768 C2774 0.930 . S
H2769 C2777 0.930 . S
H2770 C2778 0.930 . S
H2771 C2779 0.930 . S
H2772 C2782 0.930 . S
H2773 C2783 0.930 . S
C2774 H2768 0.930 . S
C2774 C2775 1.355 . S
C2774 C2776 1.415 . S
C2775 C2774 1.355 . S
C2775 C2777 1.419 . S
C2776 C2774 1.415 . S
C2776 C2781 1.425 . S
C2776 C2783 1.409 . S
C2777 H2769 0.930 . S
C2777 C2775 1.419 . S
C2777 C2778 1.362 . S
C2778 H2770 0.930 . S
C2778 C2777 1.362 . S
C2778 C2781 1.409 . S
C2779 H2771 0.930 . S
C2779 C2780 1.355 . S
C2779 C2781 1.415 . S
C2780 C2779 1.355 . S
C2780 C2782 1.419 . S
C2781 C2776 1.425 . S
C2781 C2778 1.409 . S
C2781 C2779 1.415 . S
C2782 H2772 0.930 . S
C2782 C2780 1.419 . S
C2782 C2783 1.362 . S
C2783 H2773 0.930 . S
C2783 C2776 1.409 . S
C2783 C2782 1.362 . S
H2784 C2790 0.930 . S
H2785 C2793 0.930 . S
H2786 C2794 0.930 . S
H2787 C2795 0.930 . S
H2788 C2798 0.930 . S
H2789 C2799 0.930 . S
C2790 H2784 0.930 . S
C2790 C2791 1.355 . S
C2790 C2792 1.415 . S
C2791 C2790 1.355 . S
C2791 C2793 1.419 . S
C2792 C2790 1.415 . S
C2792 C2797 1.425 . S
C2792 C2799 1.409 . S
C2793 H2785 0.930 . S
C2793 C2791 1.419 . S
C2793 C2794 1.362 . S
C2794 H2786 0.930 . S
C2794 C2793 1.362 . S
C2794 C2797 1.409 . S
C2795 H2787 0.930 . S
C2795 C2796 1.355 . S
C2795 C2797 1.415 . S
C2796 C2795 1.355 . S
C2796 C2798 1.419 . S
C2797 C2792 1.425 . S
C2797 C2794 1.409 . S
C2797 C2795 1.415 . S
C2798 H2788 0.930 . S
C2798 C2796 1.419 . S
C2798 C2799 1.362 . S
C2799 H2789 0.930 . S
C2799 C2792 1.409 . S
C2799 C2798 1.362 . S
H2800 C2806 0.930 . S
H2801 C2809 0.930 . S
H2802 C2810 0.930 . S
H2803 C2811 0.930 . S
H2804 C2814 0.930 . S
H2805 C2815 0.930 . S
C2806 H2800 0.930 . S
C2806 C2807 1.355 . S
C2806 C2808 1.415 . S
C2807 C2806 1.355 . S
C2807 C2809 1.419 . S
C2808 C2806 1.415 . S
C2808 C2813 1.425 . S
C2808 C2815 1.409 . S
C2809 H2801 0.930 . S
C2809 C2807 1.419 . S
C2809 C2810 1.362 . S
C2810 H2802 0.930 . S
C2810 C2809 1.362 . S
C2810 C2813 1.409 . S
C2811 H2803 0.930 . S
C2811 C2812 1.355 . S
C2811 C2813 1.415 . S
C2812 C2811 1.355 . S
C2812 C2814 1.419 . S
C2813 C2808 1.425 . S
C2813 C2810 1.409 . S
C2813 C2811 1.415 . S
C2814 H2804 0.930 . S
C2814 C2812 1.419 . S
C2814 C2815 1.362 . S
C2815 H2805 0.930 . S
C2815 C2808 1.409 . S
C2815 C2814 1.362 . S
H2816 C2822 0.930 . S
H2817 C2825 0.930 . S
H2818 C2826 0.930 . S
H2819 C2827 0.930 . S
H2820 C2830 0.930 . S
H2821 C2831 0.930 . S
C2822 H2816 0.930 . S
C2822 C2823 1.355 . S
C2822 C2824 1.415 . S
C2823 C2822 1.355 . S
C2823 C2825 1.419 . S
C2824 C2822 1.415 . S
C2824 C2829 1.425 . S
C2824 C2831 1.409 . S
C2825 H2817 0.930 . S
C2825 C2823 1.419 . S
C2825 C2826 1.362 . S
C2826 H2818 0.930 . S
C2826 C2825 1.362 . S
C2826 C2829 1.409 . S
C2827 H2819 0.930 . S
C2827 C2828 1.355 . S
C2827 C2829 1.415 . S
C2828 C2827 1.355 . S
C2828 C2830 1.419 . S
C2829 C2824 1.425 . S
C2829 C2826 1.409 . S
C2829 C2827 1.415 . S
C2830 H2820 0.930 . S
C2830 C2828 1.419 . S
C2830 C2831 1.362 . S
C2831 H2821 0.930 . S
C2831 C2824 1.409 . S
C2831 C2830 1.362 . S
H2832 C2838 0.930 . S
H2833 C2841 0.930 . S
H2834 C2842 0.930 . S
H2835 C2843 0.930 . S
H2836 C2846 0.930 . S
H2837 C2847 0.930 . S
C2838 H2832 0.930 . S
C2838 C2839 1.355 . S
C2838 C2840 1.415 . S
C2839 C2838 1.355 . S
C2839 C2841 1.419 . S
C2840 C2838 1.415 . S
C2840 C2845 1.425 . S
C2840 C2847 1.409 . S
C2841 H2833 0.930 . S
C2841 C2839 1.419 . S
C2841 C2842 1.362 . S
C2842 H2834 0.930 . S
C2842 C2841 1.362 . S
C2842 C2845 1.409 . S
C2843 H2835 0.930 . S
C2843 C2844 1.355 . S
C2843 C2845 1.415 . S
C2844 C2843 1.355 . S
C2844 C2846 1.419 . S
C2845 C2840 1.425 . S
C2845 C2842 1.409 . S
C2845 C2843 1.415 . S
C2846 H2836 0.930 . S
C2846 C2844 1.419 . S
C2846 C2847 1.362 . S
C2847 H2837 0.930 . S
C2847 C2840 1.409 . S
C2847 C2846 1.362 . S
H2848 C2854 0.930 . S
H2849 C2857 0.930 . S
H2850 C2858 0.930 . S
H2851 C2859 0.930 . S
H2852 C2862 0.930 . S
H2853 C2863 0.930 . S
C2854 H2848 0.930 . S
C2854 C2855 1.355 . S
C2854 C2856 1.415 . S
C2855 C2854 1.355 . S
C2855 C2857 1.419 . S
C2856 C2854 1.415 . S
C2856 C2861 1.425 . S
C2856 C2863 1.409 . S
C2857 H2849 0.930 . S
C2857 C2855 1.419 . S
C2857 C2858 1.362 . S
C2858 H2850 0.930 . S
C2858 C2857 1.362 . S
C2858 C2861 1.409 . S
C2859 H2851 0.930 . S
C2859 C2860 1.355 . S
C2859 C2861 1.415 . S
C2860 C2859 1.355 . S
C2860 C2862 1.419 . S
C2861 C2856 1.425 . S
C2861 C2858 1.409 . S
C2861 C2859 1.415 . S
C2862 H2852 0.930 . S
C2862 C2860 1.419 . S
C2862 C2863 1.362 . S
C2863 H2853 0.930 . S
C2863 C2856 1.409 . S
C2863 C2862 1.362 . S
H2864 C2870 0.930 . S
H2865 C2873 0.930 . S
H2866 C2874 0.930 . S
H2867 C2875 0.930 . S
H2868 C2878 0.930 . S
H2869 C2879 0.930 . S
C2870 H2864 0.930 . S
C2870 C2871 1.355 . S
C2870 C2872 1.415 . S
C2871 C2870 1.355 . S
C2871 C2873 1.419 . S
C2872 C2870 1.415 . S
C2872 C2877 1.425 . S
C2872 C2879 1.409 . S
C2873 H2865 0.930 . S
C2873 C2871 1.419 . S
C2873 C2874 1.362 . S
C2874 H2866 0.930 . S
C2874 C2873 1.362 . S
C2874 C2877 1.409 . S
C2875 H2867 0.930 . S
C2875 C2876 1.355 . S
C2875 C2877 1.415 . S
C2876 C2875 1.355 . S
C2876 C2878 1.419 . S
C2877 C2872 1.425 . S
C2877 C2874 1.409 . S
C2877 C2875 1.415 . S
C2878 H2868 0.930 . S
C2878 C2876 1.419 . S
C2878 C2879 1.362 . S
C2879 H2869 0.930 . S
C2879 C2872 1.409 . S
C2879 C2878 1.362 . S
H2880 C2886 0.930 . S
H2881 C2889 0.930 . S
H2882 C2890 0.930 . S
H2883 C2891 0.930 . S
H2884 C2894 0.930 . S
H2885 C2895 0.930 . S
C2886 H2880 0.930 . S
C2886 C2887 1.355 . S
C2886 C2888 1.415 . S
C2887 C2886 1.355 . S
C2887 C2889 1.419 . S
C2888 C2886 1.415 . S
C2888 C2893 1.425 . S
C2888 C2895 1.409 . S
C2889 H2881 0.930 . S
C2889 C2887 1.419 . S
C2889 C2890 1.362 . S
C2890 H2882 0.930 . S
C2890 C2889 1.362 . S
C2890 C2893 1.409 . S
C2891 H2883 0.930 . S
C2891 C2892 1.355 . S
C2891 C2893 1.415 . S
C2892 C2891 1.355 . S
C2892 C2894 1.419 . S
C2893 C2888 1.425 . S
C2893 C2890 1.409 . S
C2893 C2891 1.415 . S
C2894 H2884 0.930 . S
C2894 C2892 1.419 . S
C2894 C2895 1.362 . S
C2895 H2885 0.930 . S
C2895 C2888 1.409 . S
C2895 C2894 1.362 . S
H2896 C2902 0.930 . S
H2897 C2905 0.930 . S
H2898 C2906 0.930 . S
H2899 C2907 0.930 . S
H2900 C2910 0.930 . S
H2901 C2911 0.930 . S
C2902 H2896 0.930 . S
C2902 C2903 1.355 . S
C2902 C2904 1.415 . S
C2903 C2902 1.355 . S
C2903 C2905 1.419 . S
C2904 C2902 1.415 . S
C2904 C2909 1.425 . S
C2904 C2911 1.409 . S
C2905 H2897 0.930 . S
C2905 C2903 1.419 . S
C2905 C2906 1.362 . S
C2906 H2898 0.930 . S
C2906 C2905 1.362 . S
C2906 C2909 1.409 . S
C2907 H2899 0.930 . S
C2907 C2908 1.355 . S
C2907 C2909 1.415 . S
C2908 C2907 1.355 . S
C2908 C2910 1.419 . S
C2909 C2904 1.425 . S
C2909 C2906 1.409 . S
C2909 C2907 1.415 . S
C2910 H2900 0.930 . S
C2910 C2908 1.419 . S
C2910 C2911 1.362 . S
C2911 H2901 0.930 . S
C2911 C2904 1.409 . S
C2911 C2910 1.362 . S
H2912 C2918 0.930 . S
H2913 C2921 0.930 . S
H2914 C2922 0.930 . S
H2915 C2923 0.930 . S
H2916 C2926 0.930 . S
H2917 C2927 0.930 . S
C2918 H2912 0.930 . S
C2918 C2919 1.355 . S
C2918 C2920 1.415 . S
C2919 C2918 1.355 . S
C2919 C2921 1.419 . S
C2920 C2918 1.415 . S
C2920 C2925 1.425 . S
C2920 C2927 1.409 . S
C2921 H2913 0.930 . S
C2921 C2919 1.419 . S
C2921 C2922 1.362 . S
C2922 H2914 0.930 . S
C2922 C2921 1.362 . S
C2922 C2925 1.409 . S
C2923 H2915 0.930 . S
C2923 C2924 1.355 . S
C2923 C2925 1.415 . S
C2924 C2923 1.355 . S
C2924 C2926 1.419 . S
C2925 C2920 1.425 . S
C2925 C2922 1.409 . S
C2925 C2923 1.415 . S
C2926 H2916 0.930 . S
C2926 C2924 1.419 . S
C2926 C2927 1.362 . S
C2927 H2917 0.930 . S
C2927 C2920 1.409 . S
C2927 C2926 1.362 . S
H2928 C2934 0.930 . S
H2929 C2937 0.930 . S
H2930 C2938 0.930 . S
H2931 C2939 0.930 . S
H2932 C2942 0.930 . S
H2933 C2943 0.930 . S
C2934 H2928 0.930 . S
C2934 C2935 1.355 . S
C2934 C2936 1.415 . S
C2935 C2934 1.355 . S
C2935 C2937 1.419 . S
C2936 C2934 1.415 . S
C2936 C2941 1.425 . S
C2936 C2943 1.409 . S
C2937 H2929 0.930 . S
C2937 C2935 1.419 . S
C2937 C2938 1.362 . S
C2938 H2930 0.930 . S
C2938 C2937 1.362 . S
C2938 C2941 1.409 . S
C2939 H2931 0.930 . S
C2939 C2940 1.355 . S
C2939 C2941 1.415 . S
C2940 C2939 1.355 . S
C2940 C2942 1.419 . S
C2941 C2936 1.425 . S
C2941 C2938 1.409 . S
C2941 C2939 1.415 . S
C2942 H2932 0.930 . S
C2942 C2940 1.419 . S
C2942 C2943 1.362 . S
C2943 H2933 0.930 . S
C2943 C2936 1.409 . S
C2943 C2942 1.362 . S
H2944 C2950 0.930 . S
H2945 C2953 0.930 . S
H2946 C2954 0.930 . S
H2947 C2955 0.930 . S
H2948 C2958 0.930 . S
H2949 C2959 0.930 . S
C2950 H2944 0.930 . S
C2950 C2951 1.355 . S
C2950 C2952 1.415 . S
C2951 C2950 1.355 . S
C2951 C2953 1.419 . S
C2952 C2950 1.415 . S
C2952 C2957 1.425 . S
C2952 C2959 1.409 . S
C2953 H2945 0.930 . S
C2953 C2951 1.419 . S
C2953 C2954 1.362 . S
C2954 H2946 0.930 . S
C2954 C2953 1.362 . S
C2954 C2957 1.409 . S
C2955 H2947 0.930 . S
C2955 C2956 1.355 . S
C2955 C2957 1.415 . S
C2956 C2955 1.355 . S
C2956 C2958 1.419 . S
C2957 C2952 1.425 . S
C2957 C2954 1.409 . S
C2957 C2955 1.415 . S
C2958 H2948 0.930 . S
C2958 C2956 1.419 . S
C2958 C2959 1.362 . S
C2959 H2949 0.930 . S
C2959 C2952 1.409 . S
C2959 C2958 1.362 . S
H2960 C2966 0.930 . S
H2961 C2969 0.930 . S
H2962 C2970 0.930 . S
H2963 C2971 0.930 . S
H2964 C2974 0.930 . S
H2965 C2975 0.930 . S
C2966 H2960 0.930 . S
C2966 C2967 1.355 . S
C2966 C2968 1.415 . S
C2967 C2966 1.355 . S
C2967 C2969 1.419 . S
C2968 C2966 1.415 . S
C2968 C2973 1.425 . S
C2968 C2975 1.409 . S
C2969 H2961 0.930 . S
C2969 C2967 1.419 . S
C2969 C2970 1.362 . S
C2970 H2962 0.930 . S
C2970 C2969 1.362 . S
C2970 C2973 1.409 . S
C2971 H2963 0.930 . S
C2971 C2972 1.355 . S
C2971 C2973 1.415 . S
C2972 C2971 1.355 . S
C2972 C2974 1.419 . S
C2973 C2968 1.425 . S
C2973 C2970 1.409 . S
C2973 C2971 1.415 . S
C2974 H2964 0.930 . S
C2974 C2972 1.419 . S
C2974 C2975 1.362 . S
C2975 H2965 0.930 . S
C2975 C2968 1.409 . S
C2975 C2974 1.362 . S
H2976 C2982 0.930 . S
H2977 C2985 0.930 . S
H2978 C2986 0.930 . S
H2979 C2987 0.930 . S
H2980 C2990 0.930 . S
H2981 C2991 0.930 . S
C2982 H2976 0.930 . S
C2982 C2983 1.355 . S
C2982 C2984 1.415 . S
C2983 C2982 1.355 . S
C2983 C2985 1.419 . S
C2984 C2982 1.415 . S
C2984 C2989 1.425 . S
C2984 C2991 1.409 . S
C2985 H2977 0.930 . S
C2985 C2983 1.419 . S
C2985 C2986 1.362 . S
C2986 H2978 0.930 . S
C2986 C2985 1.362 . S
C2986 C2989 1.409 . S
C2987 H2979 0.930 . S
C2987 C2988 1.355 . S
C2987 C2989 1.415 . S
C2988 C2987 1.355 . S
C2988 C2990 1.419 . S
C2989 C2984 1.425 . S
C2989 C2986 1.409 . S
C2989 C2987 1.415 . S
C2990 H2980 0.930 . S
C2990 C2988 1.419 . S
C2990 C2991 1.362 . S
C2991 H2981 0.930 . S
C2991 C2984 1.409 . S
C2991 C2990 1.362 . S
H2992 C2998 0.930 . S
H2993 C3001 0.930 . S
H2994 C3002 0.930 . S
H2995 C3003 0.930 . S
H2996 C3006 0.930 . S
H2997 C3007 0.930 . S
C2998 H2992 0.930 . S
C2998 C2999 1.355 . S
C2998 C3000 1.415 . S
C2999 C2998 1.355 . S
C2999 C3001 1.419 . S
C3000 C2998 1.415 . S
C3000 C3005 1.425 . S
C3000 C3007 1.409 . S
C3001 H2993 0.930 . S
C3001 C2999 1.419 . S
C3001 C3002 1.362 . S
C3002 H2994 0.930 . S
C3002 C3001 1.362 . S
C3002 C3005 1.409 . S
C3003 H2995 0.930 . S
C3003 C3004 1.355 . S
C3003 C3005 1.415 . S
C3004 C3003 1.355 . S
C3004 C3006 1.419 . S
C3005 C3000 1.425 . S
C3005 C3002 1.409 . S
C3005 C3003 1.415 . S
C3006 H2996 0.930 . S
C3006 C3004 1.419 . S
C3006 C3007 1.362 . S
C3007 H2997 0.930 . S
C3007 C3000 1.409 . S
C3007 C3006 1.362 . S
H3008 C3014 0.930 . S
H3009 C3017 0.930 . S
H3010 C3018 0.930 . S
H3011 C3019 0.930 . S
H3012 C3022 0.930 . S
H3013 C3023 0.930 . S
C3014 H3008 0.930 . S
C3014 C3015 1.355 . S
C3014 C3016 1.415 . S
C3015 C3014 1.355 . S
C3015 C3017 1.419 . S
C3016 C3014 1.415 . S
C3016 C3021 1.425 . S
C3016 C3023 1.409 . S
C3017 H3009 0.930 . S
C3017 C3015 1.419 . S
C3017 C3018 1.362 . S
C3018 H3010 0.930 . S
C3018 C3017 1.362 . S
C3018 C3021 1.409 . S
C3019 H3011 0.930 . S
C3019 C3020 1.355 . S
C3019 C3021 1.415 . S
C3020 C3019 1.355 . S
C3020 C3022 1.419 . S
C3021 C3016 1.425 . S
C3021 C3018 1.409 . S
C3021 C3019 1.415 . S
C3022 H3012 0.930 . S
C3022 C3020 1.419 . S
C3022 C3023 1.362 . S
C3023 H3013 0.930 . S
C3023 C3016 1.409 . S
C3023 C3022 1.362 . S
H3024 C3030 0.930 . S
H3025 C3033 0.930 . S
H3026 C3034 0.930 . S
H3027 C3035 0.930 . S
H3028 C3038 0.930 . S
H3029 C3039 0.930 . S
C3030 H3024 0.930 . S
C3030 C3031 1.355 . S
C3030 C3032 1.415 . S
C3031 C3030 1.355 . S
C3031 C3033 1.419 . S
C3032 C3030 1.415 . S
C3032 C3037 1.425 . S
C3032 C3039 1.409 . S
C3033 H3025 0.930 . S
C3033 C3031 1.419 . S
C3033 C3034 1.362 . S
C3034 H3026 0.930 . S
C3034 C3033 1.362 . S
C3034 C3037 1.409 . S
C3035 H3027 0.930 . S
C3035 C3036 1.355 . S
C3035 C3037 1.415 . S
C3036 C3035 1.355 . S
C3036 C3038 1.419 . S
C3037 C3032 1.425 . S
C3037 C3034 1.409 . S
C3037 C3035 1.415 . S
C3038 H3028 0.930 . S
C3038 C3036 1.419 . S
C3038 C3039 1.362 . S
C3039 H3029 0.930 . S
C3039 C3032 1.409 . S
C3039 C3038 1.362 . S
H3040 C3046 0.930 . S
H3041 C3049 0.930 . S
H3042 C3050 0.930 . S
H3043 C3051 0.930 . S
H3044 C3054 0.930 . S
H3045 C3055 0.930 . S
C3046 H3040 0.930 . S
C3046 C3047 1.355 . S
C3046 C3048 1.415 . S
C3047 C3046 1.355 . S
C3047 C3049 1.419 . S
C3048 C3046 1.415 . S
C3048 C3053 1.425 . S
C3048 C3055 1.409 . S
C3049 H3041 0.930 . S
C3049 C3047 1.419 . S
C3049 C3050 1.362 . S
C3050 H3042 0.930 . S
C3050 C3049 1.362 . S
C3050 C3053 1.409 . S
C3051 H3043 0.930 . S
C3051 C3052 1.355 . S
C3051 C3053 1.415 . S
C3052 C3051 1.355 . S
C3052 C3054 1.419 . S
C3053 C3048 1.425 . S
C3053 C3050 1.409 . S
C3053 C3051 1.415 . S
C3054 H3044 0.930 . S
C3054 C3052 1.419 . S
C3054 C3055 1.362 . S
C3055 H3045 0.930 . S
C3055 C3048 1.409 . S
C3055 C3054 1.362 . S
H3056 C3062 0.930 . S
H3057 C3065 0.930 . S
H3058 C3066 0.930 . S
H3059 C3067 0.930 . S
H3060 C3070 0.930 . S
H3061 C3071 0.930 . S
C3062 H3056 0.930 . S
C3062 C3063 1.355 . S
C3062 C3064 1.415 . S
C3063 C3062 1.355 . S
C3063 C3065 1.419 . S
C3064 C3062 1.415 . S
C3064 C3069 1.425 . S
C3064 C3071 1.409 . S
C3065 H3057 0.930 . S
C3065 C3063 1.419 . S
C3065 C3066 1.362 . S
C3066 H3058 0.930 . S
C3066 C3065 1.362 . S
C3066 C3069 1.409 . S
C3067 H3059 0.930 . S
C3067 C3068 1.355 . S
C3067 C3069 1.415 . S
C3068 C3067 1.355 . S
C3068 C3070 1.419 . S
C3069 C3064 1.425 . S
C3069 C3066 1.409 . S
C3069 C3067 1.415 . S
C3070 H3060 0.930 . S
C3070 C3068 1.419 . S
C3070 C3071 1.362 . S
C3071 H3061 0.930 . S
C3071 C3064 1.409 . S
C3071 C3070 1.362 . S
H3072 C3078 0.930 . S
H3073 C3081 0.930 . S
H3074 C3082 0.930 . S
H3075 C3083 0.930 . S
H3076 C3086 0.930 . S
H3077 C3087 0.930 . S
C3078 H3072 0.930 . S
C3078 C3079 1.355 . S
C3078 C3080 1.415 . S
C3079 C3078 1.355 . S
C3079 C3081 1.419 . S
C3080 C3078 1.415 . S
C3080 C3085 1.425 . S
C3080 C3087 1.409 . S
C3081 H3073 0.930 . S
C3081 C3079 1.419 . S
C3081 C3082 1.362 . S
C3082 H3074 0.930 . S
C3082 C3081 1.362 . S
C3082 C3085 1.409 . S
C3083 H3075 0.930 . S
C3083 C3084 1.355 . S
C3083 C3085 1.415 . S
C3084 C3083 1.355 . S
C3084 C3086 1.419 . S
C3085 C3080 1.425 . S
C3085 C3082 1.409 . S
C3085 C3083 1.415 . S
C3086 H3076 0.930 . S
C3086 C3084 1.419 . S
C3086 C3087 1.362 . S
C3087 H3077 0.930 . S
C3087 C3080 1.409 . S
C3087 C3086 1.362 . S
H3088 C3094 0.930 . S
H3089 C3097 0.930 . S
H3090 C3098 0.930 . S
H3091 C3099 0.930 . S
H3092 C3102 0.930 . S
H3093 C3103 0.930 . S
C3094 H3088 0.930 . S
C3094 C3095 1.355 . S
C3094 C3096 1.415 . S
C3095 C3094 1.355 . S
C3095 C3097 1.419 . S
C3096 C3094 1.415 . S
C3096 C3101 1.425 . S
C3096 C3103 1.409 . S
C3097 H3089 0.930 . S
C3097 C3095 1.419 . S
C3097 C3098 1.362 . S
C3098 H3090 0.930 . S
C3098 C3097 1.362 . S
C3098 C3101 1.409 . S
C3099 H3091 0.930 . S
C3099 C3100 1.355 . S
C3099 C3101 1.415 . S
C3100 C3099 1.355 . S
C3100 C3102 1.419 . S
C3101 C3096 1.425 . S
C3101 C3098 1.409 . S
C3101 C3099 1.415 . S
C3102 H3092 0.930 . S
C3102 C3100 1.419 . S
C3102 C3103 1.362 . S
C3103 H3093 0.930 . S
C3103 C3096 1.409 . S
C3103 C3102 1.362 . S
H3104 C3110 0.930 . S
H3105 C3113 0.930 . S
H3106 C3114 0.930 . S
H3107 C3115 0.930 . S
H3108 C3118 0.930 . S
H3109 C3119 0.930 . S
C3110 H3104 0.930 . S
C3110 C3111 1.355 . S
C3110 C3112 1.415 . S
C3111 C3110 1.355 . S
C3111 C3113 1.419 . S
C3112 C3110 1.415 . S
C3112 C3117 1.425 . S
C3112 C3119 1.409 . S
C3113 H3105 0.930 . S
C3113 C3111 1.419 . S
C3113 C3114 1.362 . S
C3114 H3106 0.930 . S
C3114 C3113 1.362 . S
C3114 C3117 1.409 . S
C3115 H3107 0.930 . S
C3115 C3116 1.355 . S
C3115 C3117 1.415 . S
C3116 C3115 1.355 . S
C3116 C3118 1.419 . S
C3117 C3112 1.425 . S
C3117 C3114 1.409 . S
C3117 C3115 1.415 . S
C3118 H3108 0.930 . S
C3118 C3116 1.419 . S
C3118 C3119 1.362 . S
C3119 H3109 0.930 . S
C3119 C3112 1.409 . S
C3119 C3118 1.362 . S
H3120 C3126 0.930 . S
H3121 C3129 0.930 . S
H3122 C3130 0.930 . S
H3123 C3131 0.930 . S
H3124 C3134 0.930 . S
H3125 C3135 0.930 . S
C3126 H3120 0.930 . S
C3126 C3127 1.355 . S
C3126 C3128 1.415 . S
C3127 C3126 1.355 . S
C3127 C3129 1.419 . S
C3128 C3126 1.415 . S
C3128 C3133 1.425 . S
C3128 C3135 1.409 . S
C3129 H3121 0.930 . S
C3129 C3127 1.419 . S
C3129 C3130 1.362 . S
C3130 H3122 0.930 . S
C3130 C3129 1.362 . S
C3130 C3133 1.409 . S
C3131 H3123 0.930 . S
C3131 C3132 1.355 . S
C3131 C3133 1.415 . S
C3132 C3131 1.355 . S
C3132 C3134 1.419 . S
C3133 C3128 1.425 . S
C3133 C3130 1.409 . S
C3133 C3131 1.415 . S
C3134 H3124 0.930 . S
C3134 C3132 1.419 . S
C3134 C3135 1.362 . S
C3135 H3125 0.930 . S
C3135 C3128 1.409 . S
C3135 C3134 1.362 . S
H3136 C3142 0.930 . S
H3137 C3145 0.930 . S
H3138 C3146 0.930 . S
H3139 C3147 0.930 . S
H3140 C3150 0.930 . S
H3141 C3151 0.930 . S
C3142 H3136 0.930 . S
C3142 C3143 1.355 . S
C3142 C3144 1.415 . S
C3143 C3142 1.355 . S
C3143 C3145 1.419 . S
C3144 C3142 1.415 . S
C3144 C3149 1.425 . S
C3144 C3151 1.409 . S
C3145 H3137 0.930 . S
C3145 C3143 1.419 . S
C3145 C3146 1.362 . S
C3146 H3138 0.930 . S
C3146 C3145 1.362 . S
C3146 C3149 1.409 . S
C3147 H3139 0.930 . S
C3147 C3148 1.355 . S
C3147 C3149 1.415 . S
C3148 C3147 1.355 . S
C3148 C3150 1.419 . S
C3149 C3144 1.425 . S
C3149 C3146 1.409 . S
C3149 C3147 1.415 . S
C3150 H3140 0.930 . S
C3150 C3148 1.419 . S
C3150 C3151 1.362 . S
C3151 H3141 0.930 . S
C3151 C3144 1.409 . S
C3151 C3150 1.362 . S
H3152 C3158 0.930 . S
H3153 C3161 0.930 . S
H3154 C3162 0.930 . S
H3155 C3163 0.930 . S
H3156 C3166 0.930 . S
H3157 C3167 0.930 . S
C3158 H3152 0.930 . S
C3158 C3159 1.355 . S
C3158 C3160 1.415 . S
C3159 C3158 1.355 . S
C3159 C3161 1.419 . S
C3160 C3158 1.415 . S
C3160 C3165 1.425 . S
C3160 C3167 1.409 . S
C3161 H3153 0.930 . S
C3161 C3159 1.419 . S
C3161 C3162 1.362 . S
C3162 H3154 0.930 . S
C3162 C3161 1.362 . S
C3162 C3165 1.409 . S
C3163 H3155 0.930 . S
C3163 C3164 1.355 . S
C3163 C3165 1.415 . S
C3164 C3163 1.355 . S
C3164 C3166 1.419 . S
C3165 C3160 1.425 . S
C3165 C3162 1.409 . S
C3165 C3163 1.415 . S
C3166 H3156 0.930 . S
C3166 C3164 1.419 . S
C3166 C3167 1.362 . S
C3167 H3157 0.930 . S
C3167 C3160 1.409 . S
C3167 C3166 1.362 . S
H3168 C3174 0.930 . S
H3169 C3177 0.930 . S
H3170 C3178 0.930 . S
H3171 C3179 0.930 . S
H3172 C3182 0.930 . S
H3173 C3183 0.930 . S
C3174 H3168 0.930 . S
C3174 C3175 1.355 . S
C3174 C3176 1.415 . S
C3175 C3174 1.355 . S
C3175 C3177 1.419 . S
C3176 C3174 1.415 . S
C3176 C3181 1.425 . S
C3176 C3183 1.409 . S
C3177 H3169 0.930 . S
C3177 C3175 1.419 . S
C3177 C3178 1.362 . S
C3178 H3170 0.930 . S
C3178 C3177 1.362 . S
C3178 C3181 1.409 . S
C3179 H3171 0.930 . S
C3179 C3180 1.355 . S
C3179 C3181 1.415 . S
C3180 C3179 1.355 . S
C3180 C3182 1.419 . S
C3181 C3176 1.425 . S
C3181 C3178 1.409 . S
C3181 C3179 1.415 . S
C3182 H3172 0.930 . S
C3182 C3180 1.419 . S
C3182 C3183 1.362 . S
C3183 H3173 0.930 . S
C3183 C3176 1.409 . S
C3183 C3182 1.362 . S
H3184 C3190 0.930 . S
H3185 C3193 0.930 . S
H3186 C3194 0.930 . S
H3187 C3195 0.930 . S
H3188 C3198 0.930 . S
H3189 C3199 0.930 . S
C3190 H3184 0.930 . S
C3190 C3191 1.355 . S
C3190 C3192 1.415 . S
C3191 C3190 1.355 . S
C3191 C3193 1.419 . S
C3192 C3190 1.415 . S
C3192 C3197 1.425 . S
C3192 C3199 1.409 . S
C3193 H3185 0.930 . S
C3193 C3191 1.419 . S
C3193 C3194 1.362 . S
C3194 H3186 0.930 . S
C3194 C3193 1.362 . S
C3194 C3197 1.409 . S
C3195 H3187 0.930 . S
C3195 C3196 1.355 . S
C3195 C3197 1.415 . S
C3196 C3195 1.355 . S
C3196 C3198 1.419 . S
C3197 C3192 1.425 . S
C3197 C3194 1.409 . S
C3197 C3195 1.415 . S
C3198 H3188 0.930 . S
C3198 C3196 1.419 . S
C3198 C3199 1.362 . S
C3199 H3189 0.930 . S
C3199 C3192 1.409 . S
C3199 C3198 1.362 . S
H3200 C3206 0.930 . S
H3201 C3209 0.930 . S
H3202 C3210 0.930 . S
H3203 C3211 0.930 . S
H3204 C3214 0.930 . S
H3205 C3215 0.930 . S
C3206 H3200 0.930 . S
C3206 C3207 1.355 . S
C3206 C3208 1.415 . S
C3207 C3206 1.355 . S
C3207 C3209 1.419 . S
C3208 C3206 1.415 . S
C3208 C3213 1.425 . S
C3208 C3215 1.409 . S
C3209 H3201 0.930 . S
C3209 C3207 1.419 . S
C3209 C3210 1.362 . S
C3210 H3202 0.930 . S
C3210 C3209 1.362 . S
C3210 C3213 1.409 . S
C3211 H3203 0.930 . S
C3211 C3212 1.355 . S
C3211 C3213 1.415 . S
C3212 C3211 1.355 . S
C3212 C3214 1.419 . S
C3213 C3208 1.425 . S
C3213 C3210 1.409 . S
C3213 C3211 1.415 . S
C3214 H3204 0.930 . S
C3214 C3212 1.419 . S
C3214 C3215 1.362 . S
C3215 H3205 0.930 . S
C3215 C3208 1.409 . S
C3215 C3214 1.362 . S
H3216 C3222 0.930 . S
H3217 C3225 0.930 . S
H3218 C3226 0.930 . S
H3219 C3227 0.930 . S
H3220 C3230 0.930 . S
H3221 C3231 0.930 . S
C3222 H3216 0.930 . S
C3222 C3223 1.355 . S
C3222 C3224 1.415 . S
C3223 C3222 1.355 . S
C3223 C3225 1.419 . S
C3224 C3222 1.415 . S
C3224 C3229 1.425 . S
C3224 C3231 1.409 . S
C3225 H3217 0.930 . S
C3225 C3223 1.419 . S
C3225 C3226 1.362 . S
C3226 H3218 0.930 . S
C3226 C3225 1.362 . S
C3226 C3229 1.409 . S
C3227 H3219 0.930 . S
C3227 C3228 1.355 . S
C3227 C3229 1.415 . S
C3228 C3227 1.355 . S
C3228 C3230 1.419 . S
C3229 C3224 1.425 . S
C3229 C3226 1.409 . S
C3229 C3227 1.415 . S
C3230 H3220 0.930 . S
C3230 C3228 1.419 . S
C3230 C3231 1.362 . S
C3231 H3221 0.930 . S
C3231 C3224 1.409 . S
C3231 C3230 1.362 . S
H3232 C3238 0.930 . S
H3233 C3241 0.930 . S
H3234 C3242 0.930 . S
H3235 C3243 0.930 . S
H3236 C3246 0.930 . S
H3237 C3247 0.930 . S
C3238 H3232 0.930 . S
C3238 C3239 1.355 . S
C3238 C3240 1.415 . S
C3239 C3238 1.355 . S
C3239 C3241 1.419 . S
C3240 C3238 1.415 . S
C3240 C3245 1.425 . S
C3240 C3247 1.409 . S
C3241 H3233 0.930 . S
C3241 C3239 1.419 . S
C3241 C3242 1.362 . S
C3242 H3234 0.930 . S
C3242 C3241 1.362 . S
C3242 C3245 1.409 . S
C3243 H3235 0.930 . S
C3243 C3244 1.355 . S
C3243 C3245 1.415 . S
C3244 C3243 1.355 . S
C3244 C3246 1.419 . S
C3245 C3240 1.425 . S
C3245 C3242 1.409 . S
C3245 C3243 1.415 . S
C3246 H3236 0.930 . S
C3246 C3244 1.419 . S
C3246 C3247 1.362 . S
C3247 H3237 0.930 . S
C3247 C3240 1.409 . S
C3247 C3246 1.362 . S
C1724 C1294 1.463 . S
C1719 C21 1.515 . S
C1740 C1306 1.392 . S
C1735 C42 1.508 . S
C1751 C82 1.503 . S
C1756 C1330 1.443 . S
C1772 C1341 1.482 . S
C1767 C135 1.543 . S
C1783 C175 1.505 . S
C1788 C1348 1.459 . S
C1799 C221 1.557 . S
C1804 C1287 1.526 . S
C1815 C255 1.515 . S
C1820 C1314 1.402 . S
C1836 C1323 1.476 . S
C1831 C301 1.578 . S
C1852 C1360 1.430 . S
C1847 C15 1.522 . S
C1863 C55 1.492 . S
C1868 C1386 1.398 . S
C1879 C101 1.566 . S
C1884 C1402 1.538 . S
C1900 C1422 1.502 . S
C1895 C141 1.546 . S
C1911 C162 1.484 . S
C1916 C1431 1.456 . S
C1932 C1456 1.467 . S
C1927 C215 1.537 . S
C1943 C261 1.542 . S
C1948 C1476 1.486 . S
C1964 C1492 1.463 . S
C1959 C282 1.538 . S
C1975 C2 1.488 . S
C1980 C1414 1.440 . S
C1991 C181 1.462 . S
C1996 C1449 1.423 . S
C2012 C1468 1.527 . S
C2007 C202 1.561 . S
C2023 C242 1.537 . S
C2028 C1485 1.491 . S
C2044 C1438 1.467 . S
C2039 C295 1.537 . S
C2060 C1378 1.471 . S
C2055 C95 1.537 . S
C2071 C122 1.537 . S
C2076 C1395 1.415 . S
C2092 C1368 1.471 . S
C2087 C61 1.529 . S
C2108 C1512 1.523 . S
C2103 C341 1.553 . S
C2119 C362 1.504 . S
C2124 C1522 1.384 . S
C2135 C402 1.527 . S
C2140 C1546 1.474 . S
C2156 C1558 1.434 . S
C2151 C455 1.526 . S
C2167 C495 1.491 . S
C2172 C1566 1.414 . S
C2183 C541 1.555 . S
C2188 C1504 1.528 . S
C2199 C575 1.524 . S
C2204 C1530 1.429 . S
C2215 C621 1.580 . S
C2220 C1539 1.525 . S
C2236 C1432 1.465 . S
C2231 C335 1.535 . S
C2247 C375 1.513 . S
C2252 C1582 1.457 . S
C2268 C1474 1.515 . S
C2263 C421 1.553 . S
C2279 C461 1.541 . S
C2284 C1602 1.444 . S
C2295 C482 1.506 . S
C2300 C1359 1.480 . S
C2316 C1620 1.421 . S
C2311 C535 1.524 . S
C2327 C581 1.542 . S
C2332 C1404 1.499 . S
C2348 C1636 1.504 . S
C2343 C602 1.537 . S
C2359 C322 1.498 . S
C2364 C1594 1.442 . S
C2380 C1612 1.392 . S
C2375 C501 1.438 . S
C2391 C522 1.508 . S
C2396 C1396 1.465 . S
C2412 C1629 1.505 . S
C2407 C562 1.542 . S
C2423 C615 1.545 . S
C2428 C1366 1.498 . S
C2439 C415 1.542 . S
C2444 C1575 1.471 . S
C2455 C442 1.530 . S
C2460 C1467 1.424 . S
C2471 C381 1.523 . S
C2476 C1440 1.471 . S
C2487 C661 1.562 . S
C2492 C1548 1.523 . S
C2508 C1557 1.421 . S
C2503 C682 1.494 . S
C2519 C722 1.503 . S
C2524 C1510 1.443 . S
C2535 C775 1.537 . S
C2540 C1521 1.462 . S
C2551 C815 1.506 . S
C2556 C1528 1.461 . S
C2567 C861 1.546 . S
C2572 C1540 1.511 . S
C2588 C1564 1.413 . S
C2583 C895 1.517 . S
C2599 C941 1.581 . S
C2604 C1503 1.470 . S
C2620 C1654 1.430 . S
C2615 C655 1.526 . S
C2631 C695 1.506 . S
C2636 C1458 1.440 . S
C2652 C1672 1.525 . S
C2647 C741 1.558 . S
C2663 C781 1.543 . S
C2668 C1494 1.451 . S
C2679 C802 1.474 . S
C2684 C1692 1.404 . S
C2695 C855 1.530 . S
C2700 C1384 1.442 . S
C2716 C1708 1.429 . S
C2711 C901 1.549 . S
C2727 C922 1.534 . S
C2732 C1420 1.477 . S
C2748 C1486 1.491 . S
C2743 C642 1.536 . S
C2764 C1377 1.386 . S
C2759 C821 1.439 . S
C2775 C842 1.559 . S
C2780 C1701 1.529 . S
C2791 C882 1.545 . S
C2796 C1413 1.424 . S
C2812 C1684 1.448 . S
C2807 C935 1.530 . S
C2828 C1450 1.479 . S
C2823 C735 1.541 . S
C2844 C1665 1.426 . S
C2839 C762 1.531 . S
C2860 C1647 1.399 . S
C2855 C701 1.527 . S
C2871 C981 1.547 . S
C2876 C1332 1.494 . S
C2887 C1002 1.514 . S
C2892 C1342 1.431 . S
C2908 C1296 1.503 . S
C2903 C1042 1.548 . S
C2924 C1305 1.477 . S
C2919 C1095 1.541 . S
C2940 C1312 1.458 . S
C2935 C1135 1.505 . S
C2956 C1324 1.522 . S
C2951 C1181 1.552 . S
C2972 C1350 1.416 . S
C2967 C1215 1.523 . S
C2983 C1261 1.579 . S
C2988 C1288 1.467 . S
C2999 C975 1.553 . S
C3004 C1690 1.512 . S
C3020 C1618 1.460 . S
C3015 C1015 1.514 . S
C3036 C1710 1.536 . S
C3031 C1061 1.567 . S
C3052 C1638 1.431 . S
C3047 C1101 1.543 . S
C3063 C1122 1.499 . S
C3068 C1656 1.434 . S
C3084 C1584 1.501 . S
C3079 C1175 1.549 . S
C3100 C1674 1.422 . S
C3095 C1221 1.548 . S
C3111 C1242 1.543 . S
C3116 C1600 1.432 . S
C3132 C1630 1.456 . S
C3127 C962 1.493 . S
C3148 C1576 1.414 . S
C3143 C1141 1.452 . S
C3164 C1666 1.453 . S
C3159 C1162 1.505 . S
C3175 C1202 1.535 . S
C3180 C1593 1.459 . S
C3191 C1255 1.530 . S
C3196 C1648 1.458 . S
C3207 C1055 1.553 . S
C3212 C1611 1.502 . S
C3223 C1082 1.538 . S
C3228 C1702 1.423 . S
C3244 C1683 1.428 . S
C3239 C1021 1.518 . S
