# Generated by pormake.
# Topology pth, (4,4)-cn, num edge types: 1
# Building blocks:
#     Node 0, Type 0, BuildingBlock: AZAVOO_clean_sbu_0, # of connection points: 4
#     Node 1, Type 0, BuildingBlock: AZAVOO_clean_sbu_0, # of connection points: 4
#     Node 2, Type 0, BuildingBlock: AZAVOO_clean_sbu_0, # of connection points: 4
#     Node 3, Type 1, BuildingBlock: AZAVOO_clean_linker_0, # of connection points: 4
#     Node 4, Type 1, BuildingBlock: AZAVOO_clean_linker_0, # of connection points: 4
#     Node 5, Type 1, BuildingBlock: AZAVOO_clean_linker_0, # of connection points: 4
#     Edge 6, Type (0, 1), BuildingBlock: TEMPAE_clean_linker_10, # of connection points: 2
#     Edge 7, Type (0, 1), BuildingBlock: TEMPAE_clean_linker_10, # of connection points: 2
#     Edge 8, Type (0, 1), BuildingBlock: TEMPAE_clean_linker_10, # of connection points: 2
#     Edge 9, Type (0, 1), BuildingBlock: TEMPAE_clean_linker_10, # of connection points: 2
#     Edge 10, Type (0, 1), BuildingBlock: TEMPAE_clean_linker_10, # of connection points: 2
#     Edge 11, Type (0, 1), BuildingBlock: TEMPAE_clean_linker_10, # of connection points: 2
#     Edge 12, Type (0, 1), BuildingBlock: TEMPAE_clean_linker_10, # of connection points: 2
#     Edge 13, Type (0, 1), BuildingBlock: TEMPAE_clean_linker_10, # of connection points: 2
#     Edge 14, Type (0, 1), BuildingBlock: TEMPAE_clean_linker_10, # of connection points: 2
#     Edge 15, Type (0, 1), BuildingBlock: TEMPAE_clean_linker_10, # of connection points: 2
#     Edge 16, Type (0, 1), BuildingBlock: TEMPAE_clean_linker_10, # of connection points: 2
#     Edge 17, Type (0, 1), BuildingBlock: TEMPAE_clean_linker_10, # of connection points: 2
# Relax obj value: 0.174
# Max RMSD: 0.231
# Mean RMSD: 0.224
data_MOF--net-pth--node1-AZAVOO_clean_sbu_0--node2-AZAVOO_clean_linker_0--edge1-TEMPAE_clean_linker_10
_symmetry_space_group_name_H-M    P1
_symmetry_Int_Tables_number       1
_symmetry_cell_setting            triclinic
loop_
_symmetry_equiv_pos_as_xyz
'x, y, z'
_cell_length_a     26.195837
_cell_length_b     26.923566
_cell_length_c     70.676297
_cell_angle_alpha  92.278808
_cell_angle_beta   92.072627
_cell_angle_gamma 122.00599
loop_
_atom_site_label
_atom_site_type_symbol
_atom_site_fract_x
_atom_site_fract_y
_atom_site_fract_z
_atom_type_partial_charge
Mg0 Mg 0.1517 0.10791 0.06067 0.0
O1 O 0.08407 0.0665 0.0348 0.0
O2 O 0.08163 0.13857 0.02101 0.0
Mg3 Mg 0.14872 0.22554 0.03762 0.0
C4 C 0.06393 0.08448 0.02177 0.0
C5 C 0.15236 0.01766 0.08437 0.0
O6 O 0.20535 0.06582 0.08856 0.0
O7 O 0.08526 0.11981 0.07676 0.0
O8 O 0.09145 0.19681 0.06358 0.0
O9 O 0.22461 0.12072 0.04253 0.0
O10 O 0.19891 0.18602 0.04761 0.0
C11 C 0.07115 0.15832 0.07589 0.0
C12 C 0.23046 0.17007 0.03867 0.0
O13 O 0.11621 0.01898 0.07226 0.0
Mg14 Mg 0.89631 0.94026 0.38275 0.0
O15 O 0.97736 0.00559 0.40246 0.0
O16 O 0.95434 0.05968 0.4208 0.0
Mg17 Mg 0.86024 0.03571 0.40955 0.0
C18 C 0.99101 0.04483 0.41577 0.0
C19 C 0.93557 0.88544 0.35214 0.0
O20 O 0.88432 0.87532 0.34434 0.0
O21 O 0.91939 0.01311 0.36292 0.0
O22 O 0.8962 0.06834 0.38058 0.0
O23 O 0.86165 0.88173 0.40684 0.0
O24 O 0.8388 0.94776 0.40019 0.0
C25 C 0.9154 0.05818 0.36544 0.0
C26 C 0.8361 0.91014 0.41139 0.0
O27 O 0.95505 0.91407 0.36817 0.0
Mg28 Mg 0.05646 0.05964 0.6996 0.0
O29 O 0.11875 0.14047 0.71914 0.0
O30 O 0.06655 0.16263 0.73811 0.0
Mg31 Mg 0.96695 0.0936 0.72986 0.0
C32 C 0.11659 0.17281 0.7323 0.0
C33 C 0.18405 0.08833 0.69188 0.0
O34 O 0.18206 0.07874 0.71 0.0
O35 O 0.03265 0.11306 0.68138 0.0
O36 O 0.97569 0.12945 0.7003 0.0
O37 O 0.05474 0.00196 0.72168 0.0
O38 O 0.98956 0.03006 0.71878 0.0
C39 C -4e-05 0.13426 0.68455 0.0
C40 C 0.00895 0.00218 0.72791 0.0
O41 O 0.13784 0.08238 0.68299 0.0
H42 H 0.92023 0.34308 0.10208 0.0
H43 H 0.16185 0.89616 0.25044 0.0
H44 H 0.91215 0.36437 0.20881 0.0
H45 H 0.88889 0.27126 0.19297 0.0
H46 H 0.07992 0.34463 0.18836 0.0
H47 H 0.10207 0.43566 0.20472 0.0
H48 H 0.92033 0.4407 0.17756 0.0
H49 H 0.90229 0.3954 0.1453 0.0
H50 H 0.09373 0.46787 0.1428 0.0
H51 H 0.11092 0.51242 0.17513 0.0
H52 H 0.95495 0.58381 0.19294 0.0
H53 H 0.96255 0.65177 0.16949 0.0
H54 H 0.13957 0.68863 0.15742 0.0
H55 H 0.1313 0.62045 0.1808 0.0
H56 H 0.96991 0.60642 0.2371 0.0
H57 H 0.99037 0.70324 0.2478 0.0
H58 H 0.17284 0.78279 0.23052 0.0
H59 H 0.15193 0.6855 0.22011 0.0
H60 H 0.95783 0.51375 0.26172 0.0
H61 H 0.96496 0.5735 0.28964 0.0
H62 H 0.15722 0.68626 0.28494 0.0
H63 H 0.14941 0.62579 0.25684 0.0
H64 H 0.93085 0.40964 0.24931 0.0
H65 H 0.91891 0.33588 0.27087 0.0
H66 H 0.1083 0.39833 0.26861 0.0
H67 H 0.11995 0.47326 0.24746 0.0
O68 O 0.92848 0.36271 0.1146 0.0
O69 O 0.02784 0.40772 0.11297 0.0
O70 O 0.05662 0.81489 0.25318 0.0
O71 O 0.15232 0.85749 0.24602 0.0
C72 C 0.02222 0.46597 0.21312 0.0
C73 C 0.02686 0.50258 0.19868 0.0
C74 C 0.03952 0.55942 0.20349 0.0
C75 C 0.04809 0.57981 0.22273 0.0
C76 C 0.04482 0.54346 0.23718 0.0
C77 C 0.03142 0.48635 0.23234 0.0
C78 C 0.00872 0.40641 0.20777 0.0
C79 C 0.94877 0.35914 0.20496 0.0
C80 C 0.93564 0.30631 0.19579 0.0
C81 C 0.9824 0.30047 0.18922 0.0
C82 C 0.04265 0.34684 0.19346 0.0
C83 C 0.05561 0.39924 0.20272 0.0
C84 C 0.01693 0.48024 0.17853 0.0
C85 C 0.95831 0.4473 0.1699 0.0
C86 C 0.94815 0.42124 0.15153 0.0
C87 C 0.99658 0.42798 0.14147 0.0
C88 C 0.05546 0.46194 0.15012 0.0
C89 C 0.06547 0.4877 0.16852 0.0
C90 C 0.0425 0.59727 0.18844 0.0
C91 C 0.99502 0.60621 0.18506 0.0
C92 C -0.00045 0.64508 0.17175 0.0
C93 C 0.05164 0.67543 0.16163 0.0
C94 C 0.09853 0.66522 0.1648 0.0
C95 C 0.09402 0.62651 0.17815 0.0
C96 C 0.05948 0.63906 0.22787 0.0
C97 C 0.01417 0.64487 0.23557 0.0
C98 C 0.02599 0.70019 0.24167 0.0
C99 C 0.08331 0.75077 0.24005 0.0
C100 C 0.12828 0.74476 0.23201 0.0
C101 C 0.11641 0.68933 0.22596 0.0
C102 C 0.05302 0.56556 0.25726 0.0
C103 C 0.00194 0.54941 0.2673 0.0
C104 C 0.00617 0.58392 0.28324 0.0
C105 C 0.06159 0.63519 0.28931 0.0
C106 C 0.11384 0.64748 0.28042 0.0
C107 C 0.10957 0.61269 0.26451 0.0
C108 C 0.02637 0.44709 0.24713 0.0
C109 C 0.96992 0.40809 0.25383 0.0
C110 C 0.96309 0.36552 0.26589 0.0
C111 C 0.01256 0.36087 0.27127 0.0
C112 C 0.06949 0.4011 0.26484 0.0
C113 C 0.07628 0.4439 0.25282 0.0
C114 C 0.9855 0.39906 0.12215 0.0
C115 C 0.09635 0.80952 0.24681 0.0
H116 H 0.50037 0.02615 0.41336 0.0
H117 H 0.31398 0.25987 0.57851 0.0
H118 H 0.56923 0.03948 0.51607 0.0
H119 H 0.62627 -0.00234 0.50471 0.0
H120 H 0.78973 0.16989 0.51051 0.0
H121 H 0.73161 0.2118 0.52174 0.0
H122 H 0.47667 0.05078 0.49463 0.0
H123 H 0.47049 0.0249 0.46069 0.0
H124 H 0.63918 0.18838 0.45508 0.0
H125 H 0.64444 0.21402 0.48901 0.0
H126 H 0.40503 0.07471 0.52374 0.0
H127 H 0.31804 0.06312 0.5057 0.0
H128 H 0.43681 0.2146 0.47511 0.0
H129 H 0.52368 0.22795 0.49428 0.0
H130 H 0.43746 0.10034 0.56438 0.0
H131 H 0.36159 0.11332 0.57888 0.0
H132 H 0.4317 0.27782 0.55263 0.0
H133 H 0.50815 0.2648 0.53849 0.0
H134 H 0.55463 0.09903 0.57963 0.0
H135 H 0.51896 0.09452 0.61115 0.0
H136 H 0.54244 0.26504 0.60638 0.0
H137 H 0.58418 0.27168 0.57567 0.0
H138 H 0.62814 0.0779 0.5559 0.0
H139 H 0.70695 0.08249 0.57671 0.0
H140 H 0.7868 0.26934 0.58779 0.0
H141 H 0.70953 0.26473 0.56589 0.0
O142 O 0.50356 0.03738 0.42673 0.0
O143 O 0.59049 0.12192 0.42462 0.0
O144 O 0.30793 0.16782 0.58556 0.0
O145 O 0.34346 0.2536 0.57291 0.0
C146 C 0.61025 0.15212 0.52691 0.0
C147 C 0.56482 0.15016 0.51487 0.0
C148 C 0.52242 0.16103 0.52259 0.0
C149 C 0.5261 0.17483 0.54229 0.0
C150 C 0.573 0.17895 0.55425 0.0
C151 C 0.61546 0.16819 0.5465 0.0
C152 C 0.64621 0.12869 0.51951 0.0
C153 C 0.61731 0.06825 0.51481 0.0
C154 C 0.65013 0.04433 0.50862 0.0
C155 C 0.7126 0.08041 0.50697 0.0
C156 C 0.74163 0.14111 0.5117 0.0
C157 C 0.70863 0.16508 0.51802 0.0
C158 C 0.56066 0.13456 0.49423 0.0
C159 C 0.51193 0.08118 0.48601 0.0
C160 C 0.50867 0.0664 0.46664 0.0
C161 C 0.55428 0.10463 0.45516 0.0
C162 C 0.60323 0.15799 0.4635 0.0
C163 C 0.60636 0.17274 0.48287 0.0
C164 C 0.47054 0.15254 0.51047 0.0
C165 C 0.4122 0.10562 0.51322 0.0
C166 C 0.36257 0.09872 0.50272 0.0
C167 C 0.37026 0.13787 0.48888 0.0
C168 C 0.42911 0.18421 0.48585 0.0
C169 C 0.47884 0.1916 0.49663 0.0
C170 C 0.47863 0.1819 0.55052 0.0
C171 C 0.43647 0.13924 0.56183 0.0
C172 C 0.39308 0.14669 0.57006 0.0
C173 C 0.39065 0.1967 0.56694 0.0
C174 C 0.43243 0.23891 0.55536 0.0
C175 C 0.47603 0.23154 0.54722 0.0
C176 C 0.57104 0.18528 0.57517 0.0
C177 C 0.55547 0.13692 0.58583 0.0
C178 C 0.53384 0.13392 0.60374 0.0
C179 C 0.5253 0.17825 0.61099 0.0
C180 C 0.54799 0.22985 0.60128 0.0
C181 C 0.57165 0.23367 0.58362 0.0
C182 C 0.66362 0.17113 0.55915 0.0
C183 C 0.66335 0.12002 0.5625 0.0
C184 C 0.70801 0.12265 0.57462 0.0
C185 C 0.75313 0.17629 0.584 0.0
C186 C 0.75329 0.2275 0.58059 0.0
C187 C 0.70894 0.22491 0.56823 0.0
C188 C 0.55076 0.08873 0.43459 0.0
C189 C 0.34479 0.20495 0.57573 0.0
H190 H 0.6442 0.69054 0.00164 0.0
H191 H 0.31789 0.21373 0.8338 0.0
H192 H 0.63605 0.71994 0.89927 0.0
H193 H 0.71019 0.80739 0.91912 0.0
H194 H 0.84452 0.76361 0.91004 0.0
H195 H 0.77006 0.67664 0.88987 0.0
H196 H 0.54932 0.61391 0.92269 0.0
H197 H 0.57344 0.64573 0.95648 0.0
H198 H 0.73322 0.63676 0.95457 0.0
H199 H 0.70809 0.60426 0.92084 0.0
H200 H 0.45196 0.49773 0.90147 0.0
H201 H 0.39538 0.42869 0.92531 0.0
H202 H 0.54423 0.40486 0.93639 0.0
H203 H 0.60068 0.47462 0.91271 0.0
H204 H 0.4423 0.49847 0.85875 0.0
H205 H 0.35633 0.40523 0.84489 0.0
H206 H 0.45546 0.32117 0.856 0.0
H207 H 0.54146 0.41504 0.86963 0.0
H208 H 0.52739 0.59639 0.83697 0.0
H209 H 0.46448 0.54165 0.80825 0.0
H210 H 0.54406 0.43616 0.80711 0.0
H211 H 0.60547 0.4902 0.83621 0.0
H212 H 0.65613 0.72484 0.8586 0.0
H213 H 0.72624 0.79424 0.83687 0.0
H214 H 0.77923 0.67206 0.82104 0.0
H215 H 0.70999 0.60344 0.84302 0.0
O216 O 0.63486 0.67677 0.98837 0.0
O217 O 0.71656 0.67165 0.98661 0.0
O218 O 0.30166 0.29615 0.83435 0.0
O219 O 0.35088 0.2509 0.8395 0.0
C220 C 0.64945 0.6327 0.88566 0.0
C221 C 0.61406 0.59104 0.89861 0.0
C222 C 0.56572 0.53499 0.89186 0.0
C223 C 0.55151 0.52105 0.87222 0.0
C224 C 0.58786 0.5622 0.85924 0.0
C225 C 0.63753 0.61778 0.86593 0.0
C226 C 0.69786 0.69214 0.89323 0.0
C227 C 0.68207 0.73042 0.90107 0.0
C228 C 0.72421 0.77986 0.91255 0.0
C229 C 0.78277 0.79167 0.9164 0.0
C230 C 0.79979 0.75573 0.90726 0.0
C231 C 0.75749 0.70619 0.89571 0.0
C232 C 0.627 0.60688 0.91936 0.0
C233 C 0.58916 0.61829 0.92966 0.0
C234 C 0.60321 0.63671 0.94893 0.0
C235 C 0.65542 0.64405 0.95821 0.0
C236 C 0.69276 0.6317 0.94786 0.0
C237 C 0.67853 0.61311 0.92861 0.0
C238 C 0.5302 0.49093 0.90545 0.0
C239 C 0.47193 0.47707 0.90895 0.0
C240 C 0.43972 0.43756 0.92248 0.0
C241 C 0.46547 0.41145 0.93271 0.0
C242 C 0.52357 0.42483 0.92888 0.0
C243 C 0.5557 0.46433 0.91535 0.0
C244 C 0.49801 0.46339 0.86513 0.0
C245 C 0.4452 0.45977 0.85824 0.0
C246 C 0.39621 0.40649 0.85033 0.0
C247 C 0.39906 0.35573 0.84931 0.0
C248 C 0.4518 0.35941 0.85655 0.0
C249 C 0.50086 0.41283 0.86442 0.0
C250 C 0.57037 0.54675 0.83872 0.0
C251 C 0.53331 0.56338 0.82999 0.0
C252 C 0.49721 0.53182 0.81359 0.0
C253 C 0.49824 0.48358 0.80569 0.0
C254 C 0.54131 0.47223 0.81314 0.0
C255 C 0.57704 0.50354 0.8296 0.0
C256 C 0.6781 0.6592 0.85238 0.0
C257 C 0.68315 0.71328 0.85051 0.0
C258 C 0.72321 0.75282 0.83817 0.0
C259 C 0.75815 0.73844 0.82734 0.0
C260 C 0.75248 0.68398 0.82912 0.0
C261 C 0.71298 0.64482 0.84162 0.0
C262 C 0.67096 0.66491 0.97858 0.0
C263 C 0.34748 0.29926 0.84062 0.0
C264 C -0.00314 0.1146 0.10089 0.0
C265 C 0.0367 0.16342 0.09108 0.0
C266 C 0.97066 0.12122 0.11703 0.0
C267 C 0.98704 0.17824 0.12388 0.0
C268 C 0.02506 0.22721 0.11347 0.0
C269 C 0.0485 0.21896 0.09702 0.0
C270 C 0.9278 0.06742 0.12705 0.0
C271 C 0.04442 0.28905 0.12037 0.0
C272 C 0.92508 0.23294 0.16052 0.0
C273 C 0.96954 0.25141 0.17546 0.0
C274 C 0.92466 0.20084 0.14433 0.0
C275 C 0.97098 0.18905 0.14287 0.0
C276 C 0.01084 0.2008 0.15886 0.0
C277 C 0.00885 0.23096 0.17513 0.0
C278 C 0.87874 0.18533 0.12805 0.0
C279 C 0.06038 0.18809 0.15802 0.0
H280 H 0.98702 0.0714 0.09617 0.0
H281 H 0.07936 0.25681 0.0895 0.0
H282 H 0.95389 0.05813 0.13746 0.0
H283 H 0.89507 0.07341 0.13476 0.0
H284 H 0.90245 0.02837 0.11682 0.0
H285 H 0.07406 0.32215 0.11054 0.0
H286 H 0.00435 0.29232 0.12196 0.0
H287 H 0.06914 0.30043 0.13452 0.0
H288 H 0.89387 0.24777 0.16062 0.0
H289 H 0.0417 0.24306 0.18696 0.0
H290 H 0.86629 0.14327 0.12033 0.0
H291 H 0.89805 0.22021 0.11788 0.0
H292 H 0.83727 0.18172 0.13308 0.0
H293 H 0.04177 0.14219 0.15248 0.0
H294 H 0.08411 0.19512 0.17214 0.0
H295 H 0.09393 0.21735 0.14815 0.0
C296 C 0.76024 0.90468 0.43195 0.0
C297 C 0.81636 0.91102 0.43041 0.0
C298 C 0.74781 0.9263 0.44829 0.0
C299 C 0.79329 0.95592 0.46325 0.0
C300 C 0.84794 0.95719 0.46251 0.0
C301 C 0.85887 0.93445 0.44598 0.0
C302 C 0.68854 0.9232 0.44857 0.0
C303 C 0.89727 0.98781 0.47821 0.0
C304 C 0.78257 0.08088 0.48388 0.0
C305 C 0.7455 0.05464 0.4988 0.0
C306 C 0.80344 0.05101 0.47321 0.0
C307 C 0.78685 0.99363 0.47763 0.0
C308 C 0.75463 0.96946 0.49385 0.0
C309 C 0.73402 0.00021 0.50423 0.0
C310 C 0.83822 0.07864 0.45607 0.0
C311 C 0.73748 0.90917 0.49933 0.0
H312 H 0.72789 0.88709 0.41973 0.0
H313 H 0.90281 0.94034 0.44455 0.0
H314 H 0.66818 0.90854 0.46232 0.0
H315 H 0.69651 0.96756 0.44692 0.0
H316 H 0.65562 0.89278 0.43696 0.0
H317 H 0.92981 0.97331 0.47763 0.0
H318 H 0.92245 0.03586 0.47672 0.0
H319 H 0.87825 0.97976 0.49234 0.0
H320 H 0.79153 0.12289 0.47963 0.0
H321 H 0.70639 0.98037 0.51604 0.0
H322 H 0.80879 0.0557 0.44296 0.0
H323 H 0.87783 0.0741 0.45553 0.0
H324 H 0.85415 0.12597 0.45603 0.0
H325 H 0.69795 0.87549 0.49007 0.0
H326 H 0.72524 0.90254 0.51431 0.0
H327 H 0.77488 0.90184 0.49734 0.0
C328 C 0.92288 0.96246 0.74874 0.0
C329 C 0.97855 0.97034 0.74458 0.0
C330 C 0.89007 0.92746 0.76326 0.0
C331 C 0.9138 0.90012 0.77401 0.0
C332 C 0.97115 0.90985 0.77043 0.0
C333 C 0.00277 0.94463 0.75565 0.0
C334 C 0.82884 0.91777 0.76654 0.0
C335 C -0.00182 0.882 0.7818 0.0
C336 C 0.83958 0.83916 0.81973 0.0
C337 C 0.79971 0.7797 0.81396 0.0
C338 C 0.87842 0.87874 0.80703 0.0
C339 C 0.87658 0.85833 0.78809 0.0
C340 C 0.83678 0.79818 0.78227 0.0
C341 C 0.79903 0.75952 0.79532 0.0
C342 C 0.92082 0.94243 0.81378 0.0
C343 C 0.83298 0.77489 0.76213 0.0
H344 H 0.90374 0.98199 0.7402 0.0
H345 H 0.04591 0.9508 0.75256 0.0
H346 H 0.79345 0.87078 0.76327 0.0
H347 H 0.82651 0.92865 0.78166 0.0
H348 H 0.81827 0.94464 0.75761 0.0
H349 H 0.04535 0.89812 0.77841 0.0
H350 H -0.00242 0.89107 0.79722 0.0
H351 H 0.97071 0.83364 0.77884 0.0
H352 H 0.84058 0.85461 0.83422 0.0
H353 H 0.76781 0.71363 0.79082 0.0
H354 H 0.90899 0.97023 0.80593 0.0
H355 H 0.96782 0.95672 0.81079 0.0
H356 H 0.91919 0.95052 0.82921 0.0
H357 H 0.8183 0.79659 0.75222 0.0
H358 H 0.80084 0.72664 0.76005 0.0
H359 H 0.87807 0.78525 0.75822 0.0
C360 C 0.17484 0.96402 0.1079 0.0
C361 C 0.13465 0.96388 0.09421 0.0
C362 C 0.15833 0.91437 0.11793 0.0
C363 C 0.10024 0.86327 0.11416 0.0
C364 C 0.0597 0.86241 0.10017 0.0
C365 C 0.07739 0.91283 0.09034 0.0
C366 C 0.20281 0.91694 0.13277 0.0
C367 C -0.00257 0.80856 0.09578 0.0
C368 C 0.08309 0.72356 0.13098 0.0
C369 C 0.05872 0.72008 0.14858 0.0
C370 C 0.0947 0.76873 0.11924 0.0
C371 C 0.0818 0.81144 0.12531 0.0
C372 C 0.05528 0.80699 0.14276 0.0
C373 C 0.04405 0.76131 0.15419 0.0
C374 C 0.12264 0.77191 0.10066 0.0
C375 C 0.04111 0.85185 0.14974 0.0
H376 H 0.21919 0.00324 0.11095 0.0
H377 H 0.04612 0.91239 0.07977 0.0
H378 H 0.18372 0.90983 0.14688 0.0
H379 H 0.2113 0.88139 0.1295 0.0
H380 H 0.24663 0.95968 0.13371 0.0
H381 H 0.97211 0.81432 0.08402 0.0
H382 H 0.00067 0.77005 0.09187 0.0
H383 H 0.97122 0.79836 0.10859 0.0
H384 H 0.09375 0.69128 0.12651 0.0
H385 H 0.02586 0.75919 0.16788 0.0
H386 H 0.16881 0.81169 0.10127 0.0
H387 H 0.09604 0.77574 0.08888 0.0
H388 H 0.12555 0.73284 0.09733 0.0
H389 H 0.08365 0.89519 0.15262 0.0
H390 H 0.01655 0.83969 0.16293 0.0
H391 H 0.01343 0.85703 0.13868 0.0
C392 C 0.09988 0.0793 0.41678 0.0
C393 C 0.05015 0.07088 0.42629 0.0
C394 C 0.1547 0.09715 0.4268 0.0
C395 C 0.15921 0.10512 0.44684 0.0
C396 C 0.10972 0.09874 0.45646 0.0
C397 C 0.05583 0.08233 0.446 0.0
C398 C 0.20684 0.1048 0.41599 0.0
C399 C 0.1124 0.10569 0.47783 0.0
C400 C 0.2679 0.07348 0.47211 0.0
C401 C 0.31682 0.13008 0.47779 0.0
C402 C 0.21605 0.06493 0.46236 0.0
C403 C 0.21341 0.11422 0.45774 0.0
C404 C 0.26286 0.17154 0.46311 0.0
C405 C 0.31382 0.1788 0.47321 0.0
C406 C 0.16406 0.00302 0.45698 0.0
C407 C 0.26196 0.22509 0.45812 0.0
H408 H 0.09552 0.07084 0.4015 0.0
H409 H 0.0171 0.07526 0.45335 0.0
H410 H 0.24885 0.14697 0.42073 0.0
H411 H 0.21462 0.06905 0.4189 0.0
H412 H 0.19842 0.10387 0.40043 0.0
H413 H 0.07191 0.10383 0.48302 0.0
H414 H 0.11573 0.07012 0.48397 0.0
H415 H 0.15317 0.148 0.48322 0.0
H416 H 0.27018 0.03557 0.47519 0.0
H417 H 0.35098 0.22268 0.47774 0.0
H418 H 0.1564 0.99569 0.44131 0.0
H419 H 0.12202 0.99627 0.46264 0.0
H420 H 0.17216 0.96948 0.46243 0.0
H421 H 0.25493 0.22448 0.44252 0.0
H422 H 0.30446 0.26664 0.46308 0.0
H423 H 0.22373 0.22462 0.46456 0.0
C424 C 0.22916 0.23733 0.73375 0.0
C425 C 0.17426 0.22259 0.74127 0.0
C426 C 0.28448 0.28215 0.74255 0.0
C427 C 0.28501 0.31288 0.75933 0.0
C428 C 0.22986 0.2993 0.76676 0.0
C429 C 0.1751 0.25441 0.7576 0.0
C430 C 0.34236 0.2954 0.73421 0.0
C431 C 0.22877 0.33101 0.7847 0.0
C432 C 0.41978 0.37995 0.79502 0.0
C433 C 0.44838 0.43997 0.79208 0.0
C434 C 0.36769 0.33805 0.78404 0.0
C435 C 0.34317 0.35657 0.76984 0.0
C436 C 0.37278 0.4168 0.76634 0.0
C437 C 0.42512 0.45787 0.77753 0.0
C438 C 0.33758 0.27418 0.78816 0.0
C439 C 0.34807 0.438 0.75121 0.0
H440 H 0.22911 0.21333 0.72106 0.0
H441 H 0.13301 0.24341 0.7635 0.0
H442 H 0.37118 0.3429 0.73201 0.0
H443 H 0.36813 0.2847 0.74426 0.0
H444 H 0.33408 0.27002 0.72045 0.0
H445 H 0.18218 0.31731 0.78809 0.0
H446 H 0.25031 0.32216 0.79681 0.0
H447 H 0.25514 0.37913 0.78334 0.0
H448 H 0.43657 0.36578 0.80651 0.0
H449 H 0.4472 0.50414 0.77514 0.0
H450 H 0.3292 0.24668 0.77492 0.0
H451 H 0.29315 0.25904 0.79391 0.0
H452 H 0.36511 0.26656 0.79857 0.0
H453 H 0.34089 0.41335 0.7374 0.0
H454 H 0.37853 0.48566 0.74943 0.0
H455 H 0.30354 0.42963 0.75498 0.0
C456 C 0.95675 0.19134 0.67262 0.0
C457 C 0.98273 0.15824 0.6688 0.0
C458 C 0.92839 0.20373 0.65801 0.0
C459 C 0.92529 0.1818 0.6392 0.0
C460 C 0.95586 0.15272 0.63503 0.0
C461 C 0.98464 0.14161 0.6499 0.0
C462 C 0.89746 0.23604 0.66297 0.0
C463 C 0.95352 0.12855 0.61516 0.0
C464 C 0.78013 0.13282 0.61017 0.0
C465 C 0.79817 0.17807 0.59788 0.0
C466 C 0.82142 0.13332 0.62341 0.0
C467 C 0.88229 0.18078 0.62467 0.0
C468 C 0.90099 0.22687 0.61242 0.0
C469 C 0.85871 0.22484 0.59908 0.0
C470 C 0.79964 0.08314 0.6362 0.0
C471 C 0.96543 0.27835 0.61349 0.0
H472 H 0.95596 0.20516 0.68717 0.0
H473 H 0.00481 0.11619 0.64681 0.0
H474 H 0.9064 0.26918 0.65261 0.0
H475 H 0.84795 0.20442 0.66237 0.0
H476 H 0.91233 0.25841 0.67745 0.0
H477 H 0.98713 0.11564 0.61374 0.0
H478 H 0.90788 0.08921 0.61149 0.0
H479 H 0.96165 0.16118 0.60468 0.0
H480 H 0.73326 0.09719 0.60965 0.0
H481 H 0.87316 0.25969 0.5895 0.0
H482 H 0.80562 0.09983 0.65124 0.0
H483 H 0.8268 0.06278 0.63476 0.0
H484 H 0.75133 0.04858 0.63293 0.0
H485 H 0.97789 0.3011 0.62789 0.0
H486 H 0.97275 0.31056 0.60291 0.0
H487 H 0.99642 0.26275 0.61109 0.0
C488 C 0.99252 0.05859 0.99327 0.0
C489 C 0.02069 0.04172 0.00655 0.0
C490 C 0.95338 0.01927 0.97835 0.0
C491 C 0.94247 0.96185 0.97658 0.0
C492 C 0.97041 0.94436 0.98997 0.0
C493 C 0.009 0.98443 0.00483 0.0
C494 C 0.92382 0.03919 0.96443 0.0
C495 C 0.95993 0.88346 0.98849 0.0
C496 C 0.80112 0.84133 0.94868 0.0
C497 C 0.82362 0.83744 0.93133 0.0
C498 C 0.83919 0.88213 0.96344 0.0
C499 C 0.90136 0.91976 0.96082 0.0
C500 C 0.92437 0.91638 0.94331 0.0
C501 C 0.88516 0.87513 0.92875 0.0
C502 C 0.81302 0.88428 0.98193 0.0
C503 C 0.99049 0.95584 0.94005 0.0
H504 H 0.00107 0.10267 0.9945 0.0
H505 H 0.03073 0.97101 0.01495 0.0
H506 H 0.93654 0.03566 0.94987 0.0
H507 H 0.87402 0.01025 0.96437 0.0
H508 H 0.9368 0.08523 0.96785 0.0
H509 H 0.98518 0.8768 4e-05 0.0
H510 H 0.91116 0.85009 0.98903 0.0
H511 H 0.97397 0.87546 0.97465 0.0
H512 H 0.75381 0.81137 0.9509 0.0
H513 H 0.90259 0.87233 0.91534 0.0
H514 H 0.82295 0.92924 0.98539 0.0
H515 H 0.8343 0.8737 0.99364 0.0
H516 H 0.7634 0.85299 0.98147 0.0
H517 H 0.00452 0.00254 0.94226 0.0
H518 H 0.00099 0.94827 0.92552 0.0
H519 H 0.01794 0.94829 0.95049 0.0
C520 C 0.01875 0.86537 0.35244 0.0
C521 C 0.96645 0.85838 0.34342 0.0
C522 C 0.04488 0.83518 0.3452 0.0
C523 C 0.01778 0.79697 0.32865 0.0
C524 C 0.96639 0.79152 0.3191 0.0
C525 C 0.94147 0.82239 0.32658 0.0
C526 C 0.10009 0.8426 0.35562 0.0
C527 C 0.93641 0.75145 0.30131 0.0
C528 C 0.09137 0.73854 0.29755 0.0
C529 C 0.06216 0.67997 0.30238 0.0
C530 C 0.08122 0.77888 0.30709 0.0
C531 C 0.04051 0.75994 0.32164 0.0
C532 C 0.01482 0.70228 0.3276 0.0
C533 C 0.02613 0.66298 0.31792 0.0
C534 C 0.11036 0.84036 0.3006 0.0
C535 C 0.97145 0.68054 0.34316 0.0
H536 H 0.03854 0.89335 0.36542 0.0
H537 H 0.90131 0.817 0.31946 0.0
H538 H 0.08777 0.80157 0.36241 0.0
H539 H 0.13493 0.85079 0.34558 0.0
H540 H 0.12001 0.87929 0.3668 0.0
H541 H 0.89803 0.75373 0.29525 0.0
H542 H 0.96959 0.76312 0.29036 0.0
H543 H 0.91937 0.70538 0.30451 0.0
H544 H 0.11885 0.75194 0.28543 0.0
H545 H 0.00416 0.61798 0.32185 0.0
H546 H 0.13032 0.87309 0.31295 0.0
H547 H 0.07566 0.84576 0.29323 0.0
H548 H 0.14617 0.85024 0.29073 0.0
H549 H 0.98995 0.71257 0.35571 0.0
H550 H 0.96135 0.63733 0.34767 0.0
H551 H 0.92848 0.6759 0.33803 0.0
C552 C 0.24597 0.12718 0.66388 0.0
C553 C 0.23949 0.10619 0.68203 0.0
C554 C 0.2976 0.14283 0.65417 0.0
C555 C 0.34347 0.13663 0.66272 0.0
C556 C 0.33789 0.11678 0.68121 0.0
C557 C 0.28604 0.1021 0.6907 0.0
C558 C 0.30222 0.16434 0.63451 0.0
C559 C 0.38553 0.1089 0.69065 0.0
C560 C 0.43154 0.11032 0.62687 0.0
C561 C 0.48397 0.16638 0.62645 0.0
C562 C 0.38714 0.09947 0.63939 0.0
C563 C 0.39443 0.14607 0.65155 0.0
C564 C 0.44806 0.20222 0.65179 0.0
C565 C 0.49245 0.21164 0.63931 0.0
C566 C 0.33084 0.03874 0.63882 0.0
C567 C 0.45714 0.25303 0.66452 0.0
H568 H 0.21048 0.13109 0.65719 0.0
H569 H 0.28138 0.08605 0.70475 0.0
H570 H 0.34594 0.20627 0.63358 0.0
H571 H 0.30073 0.13188 0.62397 0.0
H572 H 0.26508 0.17117 0.63051 0.0
H573 H 0.37682 0.09766 0.70563 0.0
H574 H 0.38689 0.07322 0.68274 0.0
H575 H 0.43075 0.14951 0.69031 0.0
H576 H 0.42341 0.07522 0.61673 0.0
H577 H 0.53299 0.2549 0.63925 0.0
H578 H 0.29181 0.03982 0.63275 0.0
H579 H 0.32066 0.02375 0.65337 0.0
H580 H 0.33506 0.00601 0.63009 0.0
H581 H 0.42477 0.26536 0.6597 0.0
H582 H 0.50362 0.29217 0.66442 0.0
H583 H 0.44789 0.24028 0.67932 0.0
C584 C 0.27689 0.25966 0.02045 0.0
C585 C 0.26772 0.20437 0.02337 0.0
C586 C 0.31004 0.29194 0.00554 0.0
C587 C 0.33496 0.26851 0.99335 0.0
C588 C 0.3268 0.21318 -0.00361 0.0
C589 C 0.29318 0.18168 0.0114 0.0
C590 C 0.31794 0.35092 0.00273 0.0
C591 C 0.35308 0.1871 0.98369 0.0
C592 C 0.3708 0.32994 0.94498 0.0
C593 C 0.43268 0.37215 0.94782 0.0
C594 C 0.33864 0.29478 0.95957 0.0
C595 C 0.36924 0.30205 0.97735 0.0
C596 C 0.43197 0.34355 0.98016 0.0
C597 C 0.46295 0.37823 0.96535 0.0
C598 C 0.2717 0.25087 0.95609 0.0
C599 C 0.46601 0.35252 -0.00103 0.0
H600 H 0.25811 0.27785 0.02981 0.0
H601 H 0.2863 0.13898 0.01361 0.0
H602 H 0.36663 0.38559 0.00343 0.0
H603 H 0.29852 0.35042 0.98846 0.0
H604 H 0.29589 0.36298 0.01355 0.0
H605 H 0.34361 0.1441 0.9882 0.0
H606 H 0.33421 0.18091 0.96887 0.0
H607 H 0.40266 0.21763 0.98367 0.0
H608 H 0.34745 0.32462 0.93136 0.0
H609 H 0.51063 0.41134 0.96768 0.0
H610 H 0.24661 0.26288 0.96564 0.0
H611 H 0.2608 0.20649 0.95943 0.0
H612 H 0.25528 0.24873 0.94119 0.0
H613 H 0.44915 0.36952 0.01008 0.0
H614 H 0.51534 0.38393 -0.00156 0.0
H615 H 0.45821 0.31007 0.00338 0.0
C616 C 0.96505 0.0989 0.33525 0.0
C617 C 0.93299 0.10041 0.35051 0.0
C618 C 0.98232 0.1398 0.32132 0.0
C619 C 0.96658 0.1826 0.32265 0.0
C620 C 0.93403 0.18409 0.33796 0.0
C621 C 0.91787 0.14321 0.35171 0.0
C622 C 0.01746 0.13736 0.30523 0.0
C623 C 0.91586 0.22872 0.33979 0.0
C624 C 0.04632 0.32536 0.2984 0.0
C625 C 0.0042 0.31358 0.28335 0.0
C626 C 0.03637 0.28193 0.31072 0.0
C627 C 0.98286 0.22563 0.30798 0.0
C628 C 0.94156 0.21272 0.29231 0.0
C629 C 0.95286 0.2568 0.28015 0.0
C630 C 0.08161 0.29718 0.32722 0.0
C631 C 0.88395 0.15323 0.28893 0.0
H632 H 0.97715 0.06616 0.33427 0.0
H633 H 0.89282 0.14463 0.36337 0.0
H634 H 0.99208 0.13026 0.29145 0.0
H635 H 0.06105 0.17988 0.30506 0.0
H636 H 0.02672 0.10177 0.30635 0.0
H637 H 0.89056 0.22388 0.35258 0.0
H638 H 0.95652 0.2738 0.34057 0.0
H639 H 0.8872 0.22414 0.32707 0.0
H640 H 0.086 0.36918 0.30098 0.0
H641 H 0.92087 0.24704 0.26826 0.0
H642 H 0.09265 0.26282 0.32817 0.0
H643 H 0.06186 0.29902 0.34066 0.0
H644 H 0.12404 0.34023 0.32607 0.0
H645 H 0.89372 0.11789 0.28915 0.0
H646 H 0.85942 0.14859 0.27517 0.0
H647 H 0.85379 0.1465 0.30049 0.0
loop_
_geom_bond_atom_site_label_1
_geom_bond_atom_site_label_2
_geom_bond_distance
_geom_bond_site_symmetry_2
_ccdc_geom_bond_type
Mg0 O1 2.028 . S
Mg0 O7 1.986 . S
Mg0 O9 2.114 . S
Mg0 O10 2.251 . S
Mg0 O13 2.010 . S
O1 Mg0 2.028 . S
O1 C4 1.250 . S
O2 Mg3 2.028 . S
O2 C4 1.248 . S
Mg3 O2 2.028 . S
Mg3 O8 2.032 . S
Mg3 O10 2.079 . S
C4 O1 1.250 . S
C4 O2 1.248 . S
C5 O6 1.264 . S
C5 O13 1.249 . S
O6 C5 1.264 . S
O7 Mg0 1.986 . S
O7 C11 1.246 . S
O8 Mg3 2.032 . S
O8 C11 1.259 . S
O9 Mg0 2.114 . S
O9 C12 1.252 . S
O10 Mg0 2.251 . S
O10 Mg3 2.079 . S
O10 C12 1.273 . S
C11 O7 1.246 . S
C11 O8 1.259 . S
C12 O9 1.252 . S
C12 O10 1.273 . S
O13 Mg0 2.010 . S
O13 C5 1.249 . S
Mg14 O15 2.028 1_665 S
Mg14 O21 1.987 1_665 S
Mg14 O23 2.113 . S
Mg14 O24 2.253 1_565 S
Mg14 O27 2.009 . S
O15 Mg14 2.028 1_445 S
O15 C18 1.250 . S
O16 Mg17 2.028 . S
O16 C18 1.248 . S
Mg17 O16 2.028 . S
Mg17 O22 2.032 . S
Mg17 O24 2.079 1_455 S
C18 O15 1.250 . S
C18 O16 1.248 . S
C19 O20 1.264 . S
C19 O27 1.249 . S
O20 C19 1.264 . S
O21 Mg14 1.987 1_445 S
O21 C25 1.246 . S
O22 Mg17 2.032 . S
O22 C25 1.259 . S
O23 Mg14 2.113 . S
O23 C26 1.252 . S
O24 Mg14 2.253 1_545 S
O24 Mg17 2.079 1_655 S
O24 C26 1.273 1_545 S
C25 O21 1.246 . S
C25 O22 1.259 . S
C26 O23 1.252 . S
C26 O24 1.273 1_565 S
O27 Mg14 2.009 . S
O27 C19 1.249 . S
Mg28 O29 2.028 . S
Mg28 O35 1.986 . S
Mg28 O37 2.114 . S
Mg28 O38 2.251 . S
Mg28 O41 2.010 . S
O29 Mg28 2.028 . S
O29 C32 1.250 . S
O30 Mg31 2.028 . S
O30 C32 1.248 . S
Mg31 O30 2.028 . S
Mg31 O36 2.032 . S
Mg31 O38 2.079 . S
C32 O29 1.250 . S
C32 O30 1.248 . S
C33 O34 1.273 . S
C33 O41 1.249 . S
O34 C33 1.273 . S
O35 Mg28 1.986 . S
O35 C39 1.246 . S
O36 Mg31 2.032 . S
O36 C39 1.259 . S
O37 Mg28 2.114 . S
O37 C40 1.252 . S
O38 Mg28 2.251 . S
O38 Mg31 2.079 . S
O38 C40 1.273 . S
C39 O35 1.246 . S
C39 O36 1.259 . S
C40 O37 1.252 . S
C40 O38 1.273 . S
O41 Mg28 2.010 . S
O41 C33 1.249 . S
H42 O68 0.856 . S
H43 O71 0.854 . S
H44 C79 0.946 . S
H45 C80 0.930 . S
H46 C82 0.930 . S
H47 C83 0.930 . S
H48 C85 0.918 1_655 S
H49 C86 0.930 . S
H50 C88 0.930 . S
H51 C89 0.929 . S
H52 C91 0.930 1_655 S
H53 C92 0.931 . S
H54 C94 0.930 . S
H55 C95 0.929 . S
H56 C97 0.931 1_655 S
H57 C98 0.930 1_655 S
H58 C100 0.930 . S
H59 C101 0.932 . S
H60 C103 0.930 . S
H61 C104 0.929 . S
H62 C106 0.931 . S
H63 C107 0.930 . S
H64 C109 0.929 . S
H65 C110 0.930 1_655 S
H66 C112 0.930 . S
H67 C113 0.929 . S
O68 H42 0.856 . S
O68 C114 1.300 . S
O69 C114 1.209 . S
O70 C115 1.199 . S
O71 H43 0.854 . S
O71 C115 1.297 . S
C72 C73 1.404 . S
C72 C77 1.397 . S
C72 C78 1.492 . S
C73 C72 1.404 . S
C73 C74 1.396 . S
C73 C84 1.492 . S
C74 C73 1.396 . S
C74 C75 1.397 . S
C74 C90 1.509 . S
C75 C74 1.397 . S
C75 C76 1.412 . S
C75 C96 1.485 . S
C76 C75 1.412 . S
C76 C77 1.388 . S
C76 C102 1.490 . S
C77 C72 1.397 . S
C77 C76 1.388 . S
C77 C108 1.519 . S
C78 C72 1.492 . S
C78 C79 1.355 1_455 S
C78 C83 1.390 . S
C79 H44 0.946 . S
C79 C78 1.355 1_655 S
C79 C80 1.365 . S
C80 H45 0.930 . S
C80 C79 1.365 . S
C80 C81 1.383 1_655 S
C81 C80 1.383 1_455 S
C81 C82 1.395 . S
C82 H46 0.930 . S
C82 C81 1.395 . S
C82 C83 1.362 . S
C83 H47 0.930 . S
C83 C78 1.390 . S
C83 C82 1.362 . S
C84 C73 1.492 . S
C84 C85 1.377 . S
C84 C89 1.397 . S
C85 H48 0.918 1_455 S
C85 C84 1.377 . S
C85 C86 1.376 . S
C86 H49 0.930 . S
C86 C85 1.376 . S
C86 C87 1.376 . S
C87 C86 1.376 . S
C87 C88 1.378 . S
C87 C114 1.486 . S
C88 H50 0.930 . S
C88 C87 1.378 . S
C88 C89 1.376 . S
C89 H51 0.929 . S
C89 C84 1.397 . S
C89 C88 1.376 . S
C90 C74 1.509 . S
C90 C91 1.391 . S
C90 C95 1.386 . S
C91 H52 0.930 1_455 S
C91 C90 1.391 . S
C91 C92 1.375 . S
C92 H53 0.931 . S
C92 C91 1.375 . S
C92 C93 1.375 . S
C93 C92 1.375 . S
C93 C94 1.361 . S
C94 H54 0.930 . S
C94 C93 1.361 . S
C94 C95 1.399 . S
C95 H55 0.929 . S
C95 C90 1.386 . S
C95 C94 1.399 . S
C96 C75 1.485 . S
C96 C97 1.394 . S
C96 C101 1.360 . S
C97 H56 0.931 1_455 S
C97 C96 1.394 . S
C97 C98 1.372 . S
C98 H57 0.930 1_455 S
C98 C97 1.372 . S
C98 C99 1.397 . S
C99 C98 1.397 . S
C99 C100 1.390 . S
C99 C115 1.476 . S
C100 H58 0.930 . S
C100 C99 1.390 . S
C100 C101 1.366 . S
C101 H59 0.932 . S
C101 C96 1.360 . S
C101 C100 1.366 . S
C102 C76 1.490 . S
C102 C103 1.380 1_455 S
C102 C107 1.386 . S
C103 H60 0.930 . S
C103 C102 1.380 1_655 S
C103 C104 1.381 . S
C104 H61 0.929 . S
C104 C103 1.381 . S
C104 C105 1.371 1_655 S
C105 C104 1.371 1_455 S
C105 C106 1.380 . S
C106 H62 0.931 . S
C106 C105 1.380 . S
C106 C107 1.387 . S
C107 H63 0.930 . S
C107 C102 1.386 . S
C107 C106 1.387 . S
C108 C77 1.519 . S
C108 C109 1.377 1_455 S
C108 C113 1.361 . S
C109 H64 0.929 . S
C109 C108 1.377 1_655 S
C109 C110 1.384 1_655 S
C110 H65 0.930 1_455 S
C110 C109 1.384 1_455 S
C110 C111 1.366 . S
C111 C110 1.366 . S
C111 C112 1.385 . S
C112 H66 0.930 . S
C112 C111 1.385 . S
C112 C113 1.396 . S
C113 H67 0.929 . S
C113 C108 1.361 . S
C113 C112 1.396 . S
C114 O68 1.300 . S
C114 O69 1.209 . S
C114 C87 1.486 . S
C115 O70 1.199 . S
C115 O71 1.297 . S
C115 C99 1.476 . S
H116 O142 0.856 . S
H117 O145 0.854 . S
H118 C153 0.930 . S
H119 C154 0.930 1_565 S
H120 C156 0.930 . S
H121 C157 0.930 . S
H122 C159 0.931 . S
H123 C160 0.930 . S
H124 C162 0.930 . S
H125 C163 0.929 . S
H126 C165 0.930 . S
H127 C166 0.931 . S
H128 C168 0.930 . S
H129 C169 0.929 . S
H130 C171 0.931 . S
H131 C172 0.930 . S
H132 C174 0.930 . S
H133 C175 0.932 . S
H134 C177 0.930 . S
H135 C178 0.929 . S
H136 C180 0.931 . S
H137 C181 0.930 . S
H138 C183 0.929 . S
H139 C184 0.931 . S
H140 C186 0.930 . S
H141 C187 0.929 . S
O142 H116 0.856 . S
O142 C188 1.300 . S
O143 C188 1.209 . S
O144 C189 1.199 . S
O145 H117 0.854 . S
O145 C189 1.297 . S
C146 C147 1.404 . S
C146 C151 1.397 . S
C146 C152 1.492 . S
C147 C146 1.404 . S
C147 C148 1.396 . S
C147 C158 1.492 . S
C148 C147 1.396 . S
C148 C149 1.397 . S
C148 C164 1.509 . S
C149 C148 1.397 . S
C149 C150 1.412 . S
C149 C170 1.485 . S
C150 C149 1.412 . S
C150 C151 1.388 . S
C150 C176 1.490 . S
C151 C146 1.397 . S
C151 C150 1.388 . S
C151 C182 1.519 . S
C152 C146 1.492 . S
C152 C153 1.363 . S
C152 C157 1.390 . S
C153 H118 0.930 . S
C153 C152 1.363 . S
C153 C154 1.372 . S
C154 H119 0.930 1_545 S
C154 C153 1.372 . S
C154 C155 1.383 . S
C155 C154 1.383 . S
C155 C156 1.395 . S
C156 H120 0.930 . S
C156 C155 1.395 . S
C156 C157 1.362 . S
C157 H121 0.930 . S
C157 C152 1.390 . S
C157 C156 1.362 . S
C158 C147 1.492 . S
C158 C159 1.377 . S
C158 C163 1.397 . S
C159 H122 0.931 . S
C159 C158 1.377 . S
C159 C160 1.376 . S
C160 H123 0.930 . S
C160 C159 1.376 . S
C160 C161 1.376 . S
C161 C160 1.376 . S
C161 C162 1.378 . S
C161 C188 1.486 . S
C162 H124 0.930 . S
C162 C161 1.378 . S
C162 C163 1.376 . S
C163 H125 0.929 . S
C163 C158 1.397 . S
C163 C162 1.376 . S
C164 C148 1.509 . S
C164 C165 1.391 . S
C164 C169 1.386 . S
C165 H126 0.930 . S
C165 C164 1.391 . S
C165 C166 1.375 . S
C166 H127 0.931 . S
C166 C165 1.375 . S
C166 C167 1.375 . S
C167 C166 1.375 . S
C167 C168 1.361 . S
C168 H128 0.930 . S
C168 C167 1.361 . S
C168 C169 1.399 . S
C169 H129 0.929 . S
C169 C164 1.386 . S
C169 C168 1.399 . S
C170 C149 1.485 . S
C170 C171 1.394 . S
C170 C175 1.360 . S
C171 H130 0.931 . S
C171 C170 1.394 . S
C171 C172 1.372 . S
C172 H131 0.930 . S
C172 C171 1.372 . S
C172 C173 1.397 . S
C173 C172 1.397 . S
C173 C174 1.390 . S
C173 C189 1.476 . S
C174 H132 0.930 . S
C174 C173 1.390 . S
C174 C175 1.366 . S
C175 H133 0.932 . S
C175 C170 1.360 . S
C175 C174 1.366 . S
C176 C150 1.490 . S
C176 C177 1.380 . S
C176 C181 1.386 . S
C177 H134 0.930 . S
C177 C176 1.380 . S
C177 C178 1.381 . S
C178 H135 0.929 . S
C178 C177 1.381 . S
C178 C179 1.371 . S
C179 C178 1.371 . S
C179 C180 1.380 . S
C180 H136 0.931 . S
C180 C179 1.380 . S
C180 C181 1.387 . S
C181 H137 0.930 . S
C181 C176 1.386 . S
C181 C180 1.387 . S
C182 C151 1.519 . S
C182 C183 1.377 . S
C182 C187 1.361 . S
C183 H138 0.929 . S
C183 C182 1.377 . S
C183 C184 1.386 . S
C184 H139 0.931 . S
C184 C183 1.386 . S
C184 C185 1.363 . S
C185 C184 1.363 . S
C185 C186 1.385 . S
C186 H140 0.930 . S
C186 C185 1.385 . S
C186 C187 1.396 . S
C187 H141 0.929 . S
C187 C182 1.361 . S
C187 C186 1.396 . S
C188 O142 1.300 . S
C188 O143 1.209 . S
C188 C161 1.486 . S
C189 O144 1.199 . S
C189 O145 1.297 . S
C189 C173 1.476 . S
H190 O216 0.856 . S
H191 O219 0.854 . S
H192 C227 0.930 . S
H193 C228 0.930 . S
H194 C230 0.930 . S
H195 C231 0.930 . S
H196 C233 0.931 . S
H197 C234 0.930 . S
H198 C236 0.930 . S
H199 C237 0.929 . S
H200 C239 0.930 . S
H201 C240 0.931 . S
H202 C242 0.930 . S
H203 C243 0.929 . S
H204 C245 0.931 . S
H205 C246 0.930 . S
H206 C248 0.930 . S
H207 C249 0.932 . S
H208 C251 0.930 . S
H209 C252 0.929 . S
H210 C254 0.931 . S
H211 C255 0.930 . S
H212 C257 0.929 . S
H213 C258 0.931 . S
H214 C260 0.930 . S
H215 C261 0.929 . S
O216 H190 0.856 . S
O216 C262 1.300 1_554 S
O217 C262 1.209 1_554 S
O218 C263 1.199 . S
O219 H191 0.854 . S
O219 C263 1.297 . S
C220 C221 1.404 . S
C220 C225 1.397 . S
C220 C226 1.492 . S
C221 C220 1.404 . S
C221 C222 1.396 . S
C221 C232 1.492 . S
C222 C221 1.396 . S
C222 C223 1.397 . S
C222 C238 1.509 . S
C223 C222 1.397 . S
C223 C224 1.412 . S
C223 C244 1.485 . S
C224 C223 1.412 . S
C224 C225 1.388 . S
C224 C250 1.490 . S
C225 C220 1.397 . S
C225 C224 1.388 . S
C225 C256 1.519 . S
C226 C220 1.492 . S
C226 C227 1.363 . S
C226 C231 1.390 . S
C227 H192 0.930 . S
C227 C226 1.363 . S
C227 C228 1.372 . S
C228 H193 0.930 . S
C228 C227 1.372 . S
C228 C229 1.383 . S
C229 C228 1.383 . S
C229 C230 1.395 . S
C230 H194 0.930 . S
C230 C229 1.395 . S
C230 C231 1.362 . S
C231 H195 0.930 . S
C231 C226 1.390 . S
C231 C230 1.362 . S
C232 C221 1.492 . S
C232 C233 1.377 . S
C232 C237 1.397 . S
C233 H196 0.931 . S
C233 C232 1.377 . S
C233 C234 1.376 . S
C234 H197 0.930 . S
C234 C233 1.376 . S
C234 C235 1.376 . S
C235 C234 1.376 . S
C235 C236 1.378 . S
C235 C262 1.485 . S
C236 H198 0.930 . S
C236 C235 1.378 . S
C236 C237 1.376 . S
C237 H199 0.929 . S
C237 C232 1.397 . S
C237 C236 1.376 . S
C238 C222 1.509 . S
C238 C239 1.391 . S
C238 C243 1.386 . S
C239 H200 0.930 . S
C239 C238 1.391 . S
C239 C240 1.375 . S
C240 H201 0.931 . S
C240 C239 1.375 . S
C240 C241 1.375 . S
C241 C240 1.375 . S
C241 C242 1.361 . S
C242 H202 0.930 . S
C242 C241 1.361 . S
C242 C243 1.399 . S
C243 H203 0.929 . S
C243 C238 1.386 . S
C243 C242 1.399 . S
C244 C223 1.485 . S
C244 C245 1.394 . S
C244 C249 1.360 . S
C245 H204 0.931 . S
C245 C244 1.394 . S
C245 C246 1.372 . S
C246 H205 0.930 . S
C246 C245 1.372 . S
C246 C247 1.397 . S
C247 C246 1.397 . S
C247 C248 1.390 . S
C247 C263 1.476 . S
C248 H206 0.930 . S
C248 C247 1.390 . S
C248 C249 1.366 . S
C249 H207 0.932 . S
C249 C244 1.360 . S
C249 C248 1.366 . S
C250 C224 1.490 . S
C250 C251 1.380 . S
C250 C255 1.386 . S
C251 H208 0.930 . S
C251 C250 1.380 . S
C251 C252 1.381 . S
C252 H209 0.929 . S
C252 C251 1.381 . S
C252 C253 1.371 . S
C253 C252 1.371 . S
C253 C254 1.380 . S
C254 H210 0.931 . S
C254 C253 1.380 . S
C254 C255 1.387 . S
C255 H211 0.930 . S
C255 C250 1.386 . S
C255 C254 1.387 . S
C256 C225 1.519 . S
C256 C257 1.377 . S
C256 C261 1.361 . S
C257 H212 0.929 . S
C257 C256 1.377 . S
C257 C258 1.386 . S
C258 H213 0.931 . S
C258 C257 1.386 . S
C258 C259 1.363 . S
C259 C258 1.363 . S
C259 C260 1.385 . S
C260 H214 0.930 . S
C260 C259 1.385 . S
C260 C261 1.396 . S
C261 H215 0.929 . S
C261 C256 1.361 . S
C261 C260 1.396 . S
C262 O216 1.300 1_556 S
C262 O217 1.209 1_556 S
C262 C235 1.485 . S
C263 O218 1.199 . S
C263 O219 1.297 . S
C263 C247 1.476 . S
C264 C265 1.391 . S
C264 C266 1.394 . S
C264 H280 0.931 1_455 S
C265 C264 1.391 . S
C265 C269 1.376 . S
C266 C264 1.394 . S
C266 C267 1.369 . S
C266 C270 1.531 1_455 S
C267 C266 1.369 . S
C267 C268 1.410 . S
C267 C275 1.503 . S
C268 C267 1.410 . S
C268 C269 1.392 . S
C268 C271 1.511 . S
C269 C265 1.376 . S
C269 C268 1.392 . S
C269 H281 0.929 . S
C270 C266 1.531 1_655 S
C270 H282 0.960 . S
C270 H283 0.962 . S
C270 H284 0.960 . S
C271 C268 1.511 . S
C271 H285 0.961 . S
C271 H286 0.961 . S
C271 H287 0.961 . S
C272 C273 1.370 . S
C272 C274 1.363 . S
C272 H288 0.931 . S
C273 C272 1.370 . S
C273 C277 1.408 . S
C274 C272 1.363 . S
C274 C275 1.370 . S
C274 C278 1.524 . S
C275 C267 1.503 . S
C275 C274 1.370 . S
C275 C276 1.403 . S
C276 C275 1.403 . S
C276 C277 1.404 . S
C276 C279 1.539 . S
C277 C273 1.408 . S
C277 C276 1.404 . S
C277 H289 0.930 . S
C278 C274 1.524 . S
C278 H290 0.956 1_455 S
C278 H291 0.961 . S
C278 H292 0.961 . S
C279 C276 1.539 . S
C279 H293 0.958 . S
C279 H294 0.961 . S
C279 H295 0.960 . S
H280 C264 0.931 1_655 S
H281 C269 0.929 . S
H282 C270 0.960 . S
H283 C270 0.962 . S
H284 C270 0.960 . S
H285 C271 0.961 . S
H286 C271 0.961 . S
H287 C271 0.961 . S
H288 C272 0.931 . S
H289 C277 0.930 . S
H290 C278 0.956 1_655 S
H291 C278 0.961 . S
H292 C278 0.961 . S
H293 C279 0.958 . S
H294 C279 0.961 . S
H295 C279 0.960 . S
C296 C297 1.391 1_545 S
C296 C298 1.394 . S
C296 H312 0.931 . S
C297 C296 1.391 1_565 S
C297 C301 1.376 . S
C298 C296 1.394 . S
C298 C299 1.369 . S
C298 C302 1.531 . S
C299 C298 1.369 . S
C299 C300 1.410 1_545 S
C299 C307 1.503 . S
C300 C299 1.410 1_565 S
C300 C301 1.392 . S
C300 C303 1.511 . S
C301 C297 1.376 . S
C301 C300 1.392 . S
C301 H313 0.929 . S
C302 C298 1.531 . S
C302 H314 0.960 . S
C302 H315 0.962 . S
C302 H316 0.960 . S
C303 C300 1.511 . S
C303 H317 0.961 . S
C303 H318 0.961 1_565 S
C303 H319 0.961 . S
C304 C305 1.370 . S
C304 C306 1.363 . S
C304 H320 0.931 . S
C305 C304 1.370 . S
C305 C309 1.408 . S
C306 C304 1.363 . S
C306 C307 1.370 . S
C306 C310 1.524 . S
C307 C299 1.503 . S
C307 C306 1.370 . S
C307 C308 1.403 1_545 S
C308 C307 1.403 1_565 S
C308 C309 1.404 1_565 S
C308 C311 1.539 . S
C309 C305 1.408 . S
C309 C308 1.404 1_545 S
C309 H321 0.930 1_545 S
C310 C306 1.524 . S
C310 H322 0.956 . S
C310 H323 0.961 . S
C310 H324 0.961 . S
C311 C308 1.539 . S
C311 H325 0.958 . S
C311 H326 0.961 . S
C311 H327 0.960 . S
H312 C296 0.931 . S
H313 C301 0.929 . S
H314 C302 0.960 . S
H315 C302 0.962 . S
H316 C302 0.960 . S
H317 C303 0.961 . S
H318 C303 0.961 1_545 S
H319 C303 0.961 . S
H320 C304 0.931 . S
H321 C309 0.930 1_565 S
H322 C310 0.956 . S
H323 C310 0.961 . S
H324 C310 0.961 . S
H325 C311 0.958 . S
H326 C311 0.961 . S
H327 C311 0.960 . S
C328 C329 1.391 . S
C328 C330 1.394 . S
C328 H344 0.931 . S
C329 C328 1.391 . S
C329 C333 1.376 1_655 S
C330 C328 1.394 . S
C330 C331 1.369 . S
C330 C334 1.531 . S
C331 C330 1.369 . S
C331 C332 1.410 . S
C331 C339 1.503 . S
C332 C331 1.410 . S
C332 C333 1.392 1_655 S
C332 C335 1.511 . S
C333 C329 1.376 1_455 S
C333 C332 1.392 1_455 S
C333 H345 0.929 . S
C334 C330 1.531 . S
C334 H346 0.960 . S
C334 H347 0.962 . S
C334 H348 0.960 . S
C335 C332 1.511 . S
C335 H349 0.961 1_655 S
C335 H350 0.961 . S
C335 H351 0.961 . S
C336 C337 1.370 . S
C336 C338 1.363 . S
C336 H352 0.931 . S
C337 C336 1.370 . S
C337 C341 1.408 . S
C338 C336 1.363 . S
C338 C339 1.370 . S
C338 C342 1.524 . S
C339 C331 1.503 . S
C339 C338 1.370 . S
C339 C340 1.403 . S
C340 C339 1.403 . S
C340 C341 1.404 . S
C340 C343 1.539 . S
C341 C337 1.408 . S
C341 C340 1.404 . S
C341 H353 0.930 . S
C342 C338 1.524 . S
C342 H354 0.956 . S
C342 H355 0.961 . S
C342 H356 0.961 . S
C343 C340 1.539 . S
C343 H357 0.958 . S
C343 H358 0.961 . S
C343 H359 0.960 . S
H344 C328 0.931 . S
H345 C333 0.929 . S
H346 C334 0.960 . S
H347 C334 0.962 . S
H348 C334 0.960 . S
H349 C335 0.961 1_455 S
H350 C335 0.961 . S
H351 C335 0.961 . S
H352 C336 0.931 . S
H353 C341 0.930 . S
H354 C342 0.956 . S
H355 C342 0.961 . S
H356 C342 0.961 . S
H357 C343 0.958 . S
H358 C343 0.961 . S
H359 C343 0.960 . S
C360 C361 1.391 . S
C360 C362 1.394 . S
C360 H376 0.931 1_565 S
C361 C360 1.391 . S
C361 C365 1.376 . S
C362 C360 1.394 . S
C362 C363 1.369 . S
C362 C366 1.531 . S
C363 C362 1.369 . S
C363 C364 1.410 . S
C363 C371 1.503 . S
C364 C363 1.410 . S
C364 C365 1.392 . S
C364 C367 1.511 1_455 S
C365 C361 1.376 . S
C365 C364 1.392 . S
C365 H377 0.929 . S
C366 C362 1.531 . S
C366 H378 0.960 . S
C366 H379 0.962 . S
C366 H380 0.960 1_565 S
C367 C364 1.511 1_655 S
C367 H381 0.961 . S
C367 H382 0.961 1_655 S
C367 H383 0.961 . S
C368 C369 1.370 . S
C368 C370 1.363 . S
C368 H384 0.931 . S
C369 C368 1.370 . S
C369 C373 1.408 . S
C370 C368 1.363 . S
C370 C371 1.370 . S
C370 C374 1.524 . S
C371 C363 1.503 . S
C371 C370 1.370 . S
C371 C372 1.403 . S
C372 C371 1.403 . S
C372 C373 1.404 . S
C372 C375 1.539 . S
C373 C369 1.408 . S
C373 C372 1.404 . S
C373 H385 0.930 . S
C374 C370 1.524 . S
C374 H386 0.956 . S
C374 H387 0.961 . S
C374 H388 0.961 . S
C375 C372 1.539 . S
C375 H389 0.958 . S
C375 H390 0.961 . S
C375 H391 0.960 . S
H376 C360 0.931 1_545 S
H377 C365 0.929 . S
H378 C366 0.960 . S
H379 C366 0.962 . S
H380 C366 0.960 1_545 S
H381 C367 0.961 . S
H382 C367 0.961 1_455 S
H383 C367 0.961 . S
H384 C368 0.931 . S
H385 C373 0.930 . S
H386 C374 0.956 . S
H387 C374 0.961 . S
H388 C374 0.961 . S
H389 C375 0.958 . S
H390 C375 0.961 . S
H391 C375 0.960 . S
C392 C393 1.391 . S
C392 C394 1.394 . S
C392 H408 0.931 . S
C393 C392 1.391 . S
C393 C397 1.376 . S
C394 C392 1.394 . S
C394 C395 1.369 . S
C394 C398 1.531 . S
C395 C394 1.369 . S
C395 C396 1.410 . S
C395 C403 1.503 . S
C396 C395 1.410 . S
C396 C397 1.392 . S
C396 C399 1.511 . S
C397 C393 1.376 . S
C397 C396 1.392 . S
C397 H409 0.929 . S
C398 C394 1.531 . S
C398 H410 0.960 . S
C398 H411 0.962 . S
C398 H412 0.960 . S
C399 C396 1.511 . S
C399 H413 0.961 1_545 S
C399 H414 0.961 . S
C399 H415 0.961 . S
C400 C401 1.370 . S
C400 C402 1.363 . S
C400 H416 0.931 . S
C401 C400 1.370 . S
C401 C405 1.408 . S
C402 C400 1.363 . S
C402 C403 1.370 . S
C402 C406 1.524 . S
C403 C395 1.503 . S
C403 C402 1.370 . S
C403 C404 1.403 . S
C404 C403 1.403 . S
C404 C405 1.404 . S
C404 C407 1.539 . S
C405 C401 1.408 . S
C405 C404 1.404 . S
C405 H417 0.930 . S
C406 C402 1.524 . S
C406 H418 0.956 . S
C406 H419 0.961 1_545 S
C406 H420 0.961 1_545 S
C407 C404 1.539 . S
C407 H421 0.958 . S
C407 H422 0.961 . S
C407 H423 0.960 . S
H408 C392 0.931 . S
H409 C397 0.929 . S
H410 C398 0.960 . S
H411 C398 0.962 . S
H412 C398 0.960 . S
H413 C399 0.961 1_565 S
H414 C399 0.961 . S
H415 C399 0.961 . S
H416 C400 0.931 . S
H417 C405 0.930 . S
H418 C406 0.956 . S
H419 C406 0.961 1_565 S
H420 C406 0.961 1_565 S
H421 C407 0.958 . S
H422 C407 0.961 . S
H423 C407 0.960 . S
C424 C425 1.391 . S
C424 C426 1.394 . S
C424 H440 0.931 . S
C425 C424 1.391 . S
C425 C429 1.376 . S
C426 C424 1.394 . S
C426 C427 1.369 . S
C426 C430 1.531 . S
C427 C426 1.369 . S
C427 C428 1.410 . S
C427 C435 1.503 . S
C428 C427 1.410 . S
C428 C429 1.392 . S
C428 C431 1.511 . S
C429 C425 1.376 . S
C429 C428 1.392 . S
C429 H441 0.929 . S
C430 C426 1.531 . S
C430 H442 0.960 . S
C430 H443 0.962 . S
C430 H444 0.960 . S
C431 C428 1.511 . S
C431 H445 0.961 . S
C431 H446 0.961 . S
C431 H447 0.961 . S
C432 C433 1.370 . S
C432 C434 1.363 . S
C432 H448 0.931 . S
C433 C432 1.370 . S
C433 C437 1.408 . S
C434 C432 1.363 . S
C434 C435 1.370 . S
C434 C438 1.524 . S
C435 C427 1.503 . S
C435 C434 1.370 . S
C435 C436 1.403 . S
C436 C435 1.403 . S
C436 C437 1.404 . S
C436 C439 1.539 . S
C437 C433 1.408 . S
C437 C436 1.404 . S
C437 H449 0.930 . S
C438 C434 1.524 . S
C438 H450 0.956 . S
C438 H451 0.961 . S
C438 H452 0.961 . S
C439 C436 1.539 . S
C439 H453 0.958 . S
C439 H454 0.961 . S
C439 H455 0.960 . S
H440 C424 0.931 . S
H441 C429 0.929 . S
H442 C430 0.960 . S
H443 C430 0.962 . S
H444 C430 0.960 . S
H445 C431 0.961 . S
H446 C431 0.961 . S
H447 C431 0.961 . S
H448 C432 0.931 . S
H449 C437 0.930 . S
H450 C438 0.956 . S
H451 C438 0.961 . S
H452 C438 0.961 . S
H453 C439 0.958 . S
H454 C439 0.961 . S
H455 C439 0.960 . S
C456 C457 1.391 . S
C456 C458 1.394 . S
C456 H472 0.931 . S
C457 C456 1.391 . S
C457 C461 1.376 . S
C458 C456 1.394 . S
C458 C459 1.369 . S
C458 C462 1.531 . S
C459 C458 1.369 . S
C459 C460 1.410 . S
C459 C467 1.503 . S
C460 C459 1.410 . S
C460 C461 1.392 . S
C460 C463 1.511 . S
C461 C457 1.376 . S
C461 C460 1.392 . S
C461 H473 0.929 1_655 S
C462 C458 1.531 . S
C462 H474 0.960 . S
C462 H475 0.962 . S
C462 H476 0.960 . S
C463 C460 1.511 . S
C463 H477 0.961 . S
C463 H478 0.961 . S
C463 H479 0.961 . S
C464 C465 1.370 . S
C464 C466 1.363 . S
C464 H480 0.931 . S
C465 C464 1.370 . S
C465 C469 1.408 . S
C466 C464 1.363 . S
C466 C467 1.370 . S
C466 C470 1.524 . S
C467 C459 1.503 . S
C467 C466 1.370 . S
C467 C468 1.403 . S
C468 C467 1.403 . S
C468 C469 1.404 . S
C468 C471 1.539 . S
C469 C465 1.408 . S
C469 C468 1.404 . S
C469 H481 0.930 . S
C470 C466 1.524 . S
C470 H482 0.956 . S
C470 H483 0.961 . S
C470 H484 0.961 1_545 S
C471 C468 1.539 . S
C471 H485 0.958 . S
C471 H486 0.961 . S
C471 H487 0.960 . S
H472 C456 0.931 . S
H473 C461 0.929 1_455 S
H474 C462 0.960 . S
H475 C462 0.962 . S
H476 C462 0.960 . S
H477 C463 0.961 . S
H478 C463 0.961 . S
H479 C463 0.961 . S
H480 C464 0.931 . S
H481 C469 0.930 . S
H482 C470 0.956 . S
H483 C470 0.961 . S
H484 C470 0.961 1_565 S
H485 C471 0.958 . S
H486 C471 0.961 . S
H487 C471 0.960 . S
C488 C489 1.391 . S
C488 C490 1.410 . S
C488 H504 0.931 . S
C489 C488 1.391 . S
C489 C493 1.376 1_655 S
C490 C488 1.410 . S
C490 C491 1.353 1_554 S
C490 C494 1.530 1_554 S
C491 C490 1.353 1_556 S
C491 C492 1.410 . S
C491 C499 1.503 . S
C492 C491 1.410 . S
C492 C493 1.392 1_656 S
C492 C495 1.511 1_655 S
C493 C489 1.376 1_455 S
C493 C492 1.392 1_454 S
C493 H505 0.925 . S
C494 C490 1.530 1_556 S
C494 H506 0.960 . S
C494 H507 0.962 1_556 S
C494 H508 0.960 1_556 S
C495 C492 1.511 1_455 S
C495 H509 0.961 . S
C495 H510 0.961 1_455 S
C495 H511 0.961 . S
C496 C497 1.370 . S
C496 C498 1.363 . S
C496 H512 0.931 . S
C497 C496 1.370 . S
C497 C501 1.408 . S
C498 C496 1.363 . S
C498 C499 1.370 . S
C498 C502 1.524 . S
C499 C491 1.503 . S
C499 C498 1.370 . S
C499 C500 1.403 . S
C500 C499 1.403 . S
C500 C501 1.404 . S
C500 C503 1.547 . S
C501 C497 1.408 . S
C501 C500 1.404 . S
C501 H513 0.930 . S
C502 C498 1.524 . S
C502 H514 0.956 . S
C502 H515 0.961 . S
C502 H516 0.961 . S
C503 C500 1.547 . S
C503 H517 0.952 1_565 S
C503 H518 0.960 1_565 S
C503 H519 0.960 1_565 S
H504 C488 0.931 . S
H505 C493 0.925 . S
H506 C494 0.960 . S
H507 C494 0.962 1_554 S
H508 C494 0.960 1_554 S
H509 C495 0.961 . S
H510 C495 0.961 1_655 S
H511 C495 0.961 . S
H512 C496 0.931 . S
H513 C501 0.930 . S
H514 C502 0.956 . S
H515 C502 0.961 . S
H516 C502 0.961 . S
H517 C503 0.952 1_545 S
H518 C503 0.960 1_545 S
H519 C503 0.960 1_545 S
C520 C521 1.391 1_455 S
C520 C522 1.394 . S
C520 H536 0.931 . S
C521 C520 1.391 1_655 S
C521 C525 1.376 . S
C522 C520 1.394 . S
C522 C523 1.369 1_455 S
C522 C526 1.531 . S
C523 C522 1.369 1_655 S
C523 C524 1.410 . S
C523 C531 1.503 . S
C524 C523 1.410 . S
C524 C525 1.392 . S
C524 C527 1.511 . S
C525 C521 1.376 . S
C525 C524 1.392 . S
C525 H537 0.929 . S
C526 C522 1.531 . S
C526 H538 0.960 . S
C526 H539 0.962 . S
C526 H540 0.960 . S
C527 C524 1.511 . S
C527 H541 0.961 . S
C527 H542 0.961 . S
C527 H543 0.961 . S
C528 C529 1.370 1_455 S
C528 C530 1.363 . S
C528 H544 0.931 . S
C529 C528 1.370 1_655 S
C529 C533 1.408 . S
C530 C528 1.363 . S
C530 C531 1.370 1_455 S
C530 C534 1.524 . S
C531 C523 1.503 . S
C531 C530 1.370 1_655 S
C531 C532 1.403 . S
C532 C531 1.403 . S
C532 C533 1.404 . S
C532 C535 1.539 . S
C533 C529 1.408 . S
C533 C532 1.404 . S
C533 H545 0.930 . S
C534 C530 1.524 . S
C534 H546 0.956 . S
C534 H547 0.961 . S
C534 H548 0.961 . S
C535 C532 1.539 . S
C535 H549 0.958 . S
C535 H550 0.961 . S
C535 H551 0.960 . S
H536 C520 0.931 . S
H537 C525 0.929 . S
H538 C526 0.960 . S
H539 C526 0.962 . S
H540 C526 0.960 . S
H541 C527 0.961 . S
H542 C527 0.961 . S
H543 C527 0.961 . S
H544 C528 0.931 . S
H545 C533 0.930 . S
H546 C534 0.956 . S
H547 C534 0.961 . S
H548 C534 0.961 . S
H549 C535 0.958 . S
H550 C535 0.961 . S
H551 C535 0.960 . S
C552 C553 1.391 . S
C552 C554 1.394 . S
C552 H568 0.931 . S
C553 C552 1.391 . S
C553 C557 1.376 . S
C554 C552 1.394 . S
C554 C555 1.369 . S
C554 C558 1.531 . S
C555 C554 1.369 . S
C555 C556 1.410 . S
C555 C563 1.503 . S
C556 C555 1.410 . S
C556 C557 1.392 . S
C556 C559 1.511 1_545 S
C557 C553 1.376 . S
C557 C556 1.392 . S
C557 H569 0.935 . S
C558 C554 1.531 . S
C558 H570 0.960 . S
C558 H571 0.962 . S
C558 H572 0.960 . S
C559 C556 1.511 1_565 S
C559 H573 0.961 . S
C559 H574 0.961 . S
C559 H575 0.961 1_565 S
C560 C561 1.370 . S
C560 C562 1.363 . S
C560 H576 0.931 . S
C561 C560 1.370 . S
C561 C565 1.408 . S
C562 C560 1.363 . S
C562 C563 1.370 . S
C562 C566 1.524 . S
C563 C555 1.503 . S
C563 C562 1.370 . S
C563 C564 1.403 . S
C564 C563 1.403 . S
C564 C565 1.404 . S
C564 C567 1.539 . S
C565 C561 1.408 . S
C565 C564 1.404 . S
C565 H577 0.930 . S
C566 C562 1.524 . S
C566 H578 0.956 . S
C566 H579 0.961 . S
C566 H580 0.961 . S
C567 C564 1.539 . S
C567 H581 0.958 . S
C567 H582 0.961 . S
C567 H583 0.960 . S
H568 C552 0.931 . S
H569 C557 0.935 . S
H570 C558 0.960 . S
H571 C558 0.962 . S
H572 C558 0.960 . S
H573 C559 0.961 . S
H574 C559 0.961 . S
H575 C559 0.961 1_545 S
H576 C560 0.931 . S
H577 C565 0.930 . S
H578 C566 0.956 . S
H579 C566 0.961 . S
H580 C566 0.961 . S
H581 C567 0.958 . S
H582 C567 0.961 . S
H583 C567 0.960 . S
C584 C585 1.391 . S
C584 C586 1.394 . S
C584 H600 0.931 . S
C585 C584 1.391 . S
C585 C589 1.376 . S
C586 C584 1.394 . S
C586 C587 1.369 . S
C586 C590 1.531 . S
C587 C586 1.369 . S
C587 C588 1.410 . S
C587 C595 1.503 1_554 S
C588 C587 1.410 . S
C588 C589 1.392 . S
C588 C591 1.511 1_554 S
C589 C585 1.376 . S
C589 C588 1.392 . S
C589 H601 0.929 . S
C590 C586 1.531 . S
C590 H602 0.960 . S
C590 H603 0.962 . S
C590 H604 0.960 . S
C591 C588 1.511 1_556 S
C591 H605 0.961 . S
C591 H606 0.961 . S
C591 H607 0.981 . S
C592 C593 1.370 . S
C592 C594 1.363 . S
C592 H608 0.931 . S
C593 C592 1.370 . S
C593 C597 1.408 . S
C594 C592 1.363 . S
C594 C595 1.370 . S
C594 C598 1.524 . S
C595 C587 1.503 1_556 S
C595 C594 1.370 . S
C595 C596 1.403 . S
C596 C595 1.403 . S
C596 C597 1.404 . S
C596 C599 1.539 1_556 S
C597 C593 1.408 . S
C597 C596 1.404 . S
C597 H609 0.930 . S
C598 C594 1.524 . S
C598 H610 0.956 . S
C598 H611 0.961 . S
C598 H612 0.961 . S
C599 C596 1.539 1_554 S
C599 H613 0.958 . S
C599 H614 0.961 . S
C599 H615 0.960 . S
H600 C584 0.931 . S
H601 C589 0.929 . S
H602 C590 0.960 . S
H603 C590 0.962 . S
H604 C590 0.960 . S
H605 C591 0.961 . S
H606 C591 0.961 . S
H607 C591 0.981 . S
H608 C592 0.931 . S
H609 C597 0.930 . S
H610 C598 0.956 . S
H611 C598 0.961 . S
H612 C598 0.961 . S
H613 C599 0.958 . S
H614 C599 0.961 . S
H615 C599 0.960 . S
C616 C617 1.391 . S
C616 C618 1.394 . S
C616 H632 0.931 . S
C617 C616 1.391 . S
C617 C621 1.376 1_455 S
C618 C616 1.394 . S
C618 C619 1.369 . S
C618 C622 1.531 . S
C619 C618 1.369 . S
C619 C620 1.410 1_455 S
C619 C627 1.503 . S
C620 C619 1.410 1_655 S
C620 C621 1.392 . S
C620 C623 1.511 . S
C621 C617 1.376 1_655 S
C621 C620 1.392 . S
C621 H633 0.929 . S
C622 C618 1.531 . S
C622 H634 0.960 . S
C622 H635 0.962 . S
C622 H636 0.960 . S
C623 C620 1.511 . S
C623 H637 0.961 . S
C623 H638 0.961 . S
C623 H639 0.961 . S
C624 C625 1.370 . S
C624 C626 1.363 . S
C624 H640 0.931 . S
C625 C624 1.370 . S
C625 C629 1.408 . S
C626 C624 1.363 . S
C626 C627 1.370 . S
C626 C630 1.524 . S
C627 C619 1.503 . S
C627 C626 1.370 . S
C627 C628 1.403 . S
C628 C627 1.403 . S
C628 C629 1.404 . S
C628 C631 1.539 1_455 S
C629 C625 1.408 . S
C629 C628 1.404 . S
C629 H641 0.930 1_455 S
C630 C626 1.524 . S
C630 H642 0.956 . S
C630 H643 0.961 . S
C630 H644 0.961 . S
C631 C628 1.539 1_655 S
C631 H645 0.968 . S
C631 H646 0.961 . S
C631 H647 0.960 . S
H632 C616 0.931 . S
H633 C621 0.929 . S
H634 C622 0.960 . S
H635 C622 0.962 . S
H636 C622 0.960 . S
H637 C623 0.961 . S
H638 C623 0.961 . S
H639 C623 0.961 . S
H640 C624 0.931 . S
H641 C629 0.930 1_655 S
H642 C630 0.956 . S
H643 C630 0.961 . S
H644 C630 0.961 . S
H645 C631 0.968 . S
H646 C631 0.961 . S
H647 C631 0.960 . S
C273 C81 1.311 . S
C265 C11 1.374 . S
C297 C26 1.470 . S
C305 C155 1.404 . S
C329 C40 2.020 1_665 S
C337 C259 2.029 . S
C361 C5 0.667 1_565 S
C369 C93 0.693 . S
C401 C167 0.888 . S
C393 C18 0.835 . S
C425 C32 1.465 . S
C433 C253 1.386 . S
C465 C185 1.957 . S
C457 C39 1.951 1_655 S
C489 C4 1.339 1_665 S
C497 C229 1.365 . S
C529 C105 1.381 1_655 S
C521 C19 1.314 . S
C561 C179 1.260 . S
C553 C33 1.234 . S
C593 C241 0.754 . S
C585 C12 0.766 . S
C617 C25 2.089 . S
C625 C111 2.102 . S
