# Generated by pormake.
# Topology ana-f, (3,3)-cn, num edge types: 1
# Building blocks:
#     Node 0, Type 0, BuildingBlock: WUSLED_clean_sbu_0, # of connection points: 3
#     Node 1, Type 0, BuildingBlock: WUSLED_clean_sbu_0, # of connection points: 3
#     Node 2, Type 0, BuildingBlock: WUSLED_clean_sbu_0, # of connection points: 3
#     Node 3, Type 0, BuildingBlock: WUSLED_clean_sbu_0, # of connection points: 3
#     Node 4, Type 0, BuildingBlock: WUSLED_clean_sbu_0, # of connection points: 3
#     Node 5, Type 0, BuildingBlock: WUSLED_clean_sbu_0, # of connection points: 3
#     Node 6, Type 0, BuildingBlock: WUSLED_clean_sbu_0, # of connection points: 3
#     Node 7, Type 0, BuildingBlock: WUSLED_clean_sbu_0, # of connection points: 3
#     Node 8, Type 0, BuildingBlock: WUSLED_clean_sbu_0, # of connection points: 3
#     Node 9, Type 0, BuildingBlock: WUSLED_clean_sbu_0, # of connection points: 3
#     Node 10, Type 0, BuildingBlock: WUSLED_clean_sbu_0, # of connection points: 3
#     Node 11, Type 0, BuildingBlock: WUSLED_clean_sbu_0, # of connection points: 3
#     Node 12, Type 0, BuildingBlock: WUSLED_clean_sbu_0, # of connection points: 3
#     Node 13, Type 0, BuildingBlock: WUSLED_clean_sbu_0, # of connection points: 3
#     Node 14, Type 0, BuildingBlock: WUSLED_clean_sbu_0, # of connection points: 3
#     Node 15, Type 0, BuildingBlock: WUSLED_clean_sbu_0, # of connection points: 3
#     Node 16, Type 0, BuildingBlock: WUSLED_clean_sbu_0, # of connection points: 3
#     Node 17, Type 0, BuildingBlock: WUSLED_clean_sbu_0, # of connection points: 3
#     Node 18, Type 0, BuildingBlock: WUSLED_clean_sbu_0, # of connection points: 3
#     Node 19, Type 0, BuildingBlock: WUSLED_clean_sbu_0, # of connection points: 3
#     Node 20, Type 0, BuildingBlock: WUSLED_clean_sbu_0, # of connection points: 3
#     Node 21, Type 0, BuildingBlock: WUSLED_clean_sbu_0, # of connection points: 3
#     Node 22, Type 0, BuildingBlock: WUSLED_clean_sbu_0, # of connection points: 3
#     Node 23, Type 0, BuildingBlock: WUSLED_clean_sbu_0, # of connection points: 3
#     Node 24, Type 0, BuildingBlock: WUSLED_clean_sbu_0, # of connection points: 3
#     Node 25, Type 0, BuildingBlock: WUSLED_clean_sbu_0, # of connection points: 3
#     Node 26, Type 0, BuildingBlock: WUSLED_clean_sbu_0, # of connection points: 3
#     Node 27, Type 0, BuildingBlock: WUSLED_clean_sbu_0, # of connection points: 3
#     Node 28, Type 0, BuildingBlock: WUSLED_clean_sbu_0, # of connection points: 3
#     Node 29, Type 0, BuildingBlock: WUSLED_clean_sbu_0, # of connection points: 3
#     Node 30, Type 0, BuildingBlock: WUSLED_clean_sbu_0, # of connection points: 3
#     Node 31, Type 0, BuildingBlock: WUSLED_clean_sbu_0, # of connection points: 3
#     Node 32, Type 0, BuildingBlock: WUSLED_clean_sbu_0, # of connection points: 3
#     Node 33, Type 0, BuildingBlock: WUSLED_clean_sbu_0, # of connection points: 3
#     Node 34, Type 0, BuildingBlock: WUSLED_clean_sbu_0, # of connection points: 3
#     Node 35, Type 0, BuildingBlock: WUSLED_clean_sbu_0, # of connection points: 3
#     Node 36, Type 0, BuildingBlock: WUSLED_clean_sbu_0, # of connection points: 3
#     Node 37, Type 0, BuildingBlock: WUSLED_clean_sbu_0, # of connection points: 3
#     Node 38, Type 0, BuildingBlock: WUSLED_clean_sbu_0, # of connection points: 3
#     Node 39, Type 0, BuildingBlock: WUSLED_clean_sbu_0, # of connection points: 3
#     Node 40, Type 0, BuildingBlock: WUSLED_clean_sbu_0, # of connection points: 3
#     Node 41, Type 0, BuildingBlock: WUSLED_clean_sbu_0, # of connection points: 3
#     Node 42, Type 0, BuildingBlock: WUSLED_clean_sbu_0, # of connection points: 3
#     Node 43, Type 0, BuildingBlock: WUSLED_clean_sbu_0, # of connection points: 3
#     Node 44, Type 0, BuildingBlock: WUSLED_clean_sbu_0, # of connection points: 3
#     Node 45, Type 0, BuildingBlock: WUSLED_clean_sbu_0, # of connection points: 3
#     Node 46, Type 0, BuildingBlock: WUSLED_clean_sbu_0, # of connection points: 3
#     Node 47, Type 0, BuildingBlock: WUSLED_clean_sbu_0, # of connection points: 3
#     Node 48, Type 0, BuildingBlock: WUSLED_clean_sbu_0, # of connection points: 3
#     Node 49, Type 0, BuildingBlock: WUSLED_clean_sbu_0, # of connection points: 3
#     Node 50, Type 0, BuildingBlock: WUSLED_clean_sbu_0, # of connection points: 3
#     Node 51, Type 0, BuildingBlock: WUSLED_clean_sbu_0, # of connection points: 3
#     Node 52, Type 0, BuildingBlock: WUSLED_clean_sbu_0, # of connection points: 3
#     Node 53, Type 0, BuildingBlock: WUSLED_clean_sbu_0, # of connection points: 3
#     Node 54, Type 0, BuildingBlock: WUSLED_clean_sbu_0, # of connection points: 3
#     Node 55, Type 0, BuildingBlock: WUSLED_clean_sbu_0, # of connection points: 3
#     Node 56, Type 0, BuildingBlock: WUSLED_clean_sbu_0, # of connection points: 3
#     Node 57, Type 0, BuildingBlock: WUSLED_clean_sbu_0, # of connection points: 3
#     Node 58, Type 0, BuildingBlock: WUSLED_clean_sbu_0, # of connection points: 3
#     Node 59, Type 0, BuildingBlock: WUSLED_clean_sbu_0, # of connection points: 3
#     Node 60, Type 0, BuildingBlock: WUSLED_clean_sbu_0, # of connection points: 3
#     Node 61, Type 0, BuildingBlock: WUSLED_clean_sbu_0, # of connection points: 3
#     Node 62, Type 0, BuildingBlock: WUSLED_clean_sbu_0, # of connection points: 3
#     Node 63, Type 0, BuildingBlock: WUSLED_clean_sbu_0, # of connection points: 3
#     Node 64, Type 0, BuildingBlock: WUSLED_clean_sbu_0, # of connection points: 3
#     Node 65, Type 0, BuildingBlock: WUSLED_clean_sbu_0, # of connection points: 3
#     Node 66, Type 0, BuildingBlock: WUSLED_clean_sbu_0, # of connection points: 3
#     Node 67, Type 0, BuildingBlock: WUSLED_clean_sbu_0, # of connection points: 3
#     Node 68, Type 0, BuildingBlock: WUSLED_clean_sbu_0, # of connection points: 3
#     Node 69, Type 0, BuildingBlock: WUSLED_clean_sbu_0, # of connection points: 3
#     Node 70, Type 0, BuildingBlock: WUSLED_clean_sbu_0, # of connection points: 3
#     Node 71, Type 0, BuildingBlock: WUSLED_clean_sbu_0, # of connection points: 3
#     Node 72, Type 0, BuildingBlock: WUSLED_clean_sbu_0, # of connection points: 3
#     Node 73, Type 0, BuildingBlock: WUSLED_clean_sbu_0, # of connection points: 3
#     Node 74, Type 0, BuildingBlock: WUSLED_clean_sbu_0, # of connection points: 3
#     Node 75, Type 0, BuildingBlock: WUSLED_clean_sbu_0, # of connection points: 3
#     Node 76, Type 0, BuildingBlock: WUSLED_clean_sbu_0, # of connection points: 3
#     Node 77, Type 0, BuildingBlock: WUSLED_clean_sbu_0, # of connection points: 3
#     Node 78, Type 0, BuildingBlock: WUSLED_clean_sbu_0, # of connection points: 3
#     Node 79, Type 0, BuildingBlock: WUSLED_clean_sbu_0, # of connection points: 3
#     Node 80, Type 0, BuildingBlock: WUSLED_clean_sbu_0, # of connection points: 3
#     Node 81, Type 0, BuildingBlock: WUSLED_clean_sbu_0, # of connection points: 3
#     Node 82, Type 0, BuildingBlock: WUSLED_clean_sbu_0, # of connection points: 3
#     Node 83, Type 0, BuildingBlock: WUSLED_clean_sbu_0, # of connection points: 3
#     Node 84, Type 0, BuildingBlock: WUSLED_clean_sbu_0, # of connection points: 3
#     Node 85, Type 0, BuildingBlock: WUSLED_clean_sbu_0, # of connection points: 3
#     Node 86, Type 0, BuildingBlock: WUSLED_clean_sbu_0, # of connection points: 3
#     Node 87, Type 0, BuildingBlock: WUSLED_clean_sbu_0, # of connection points: 3
#     Node 88, Type 0, BuildingBlock: WUSLED_clean_sbu_0, # of connection points: 3
#     Node 89, Type 0, BuildingBlock: WUSLED_clean_sbu_0, # of connection points: 3
#     Node 90, Type 0, BuildingBlock: WUSLED_clean_sbu_0, # of connection points: 3
#     Node 91, Type 0, BuildingBlock: WUSLED_clean_sbu_0, # of connection points: 3
#     Node 92, Type 0, BuildingBlock: WUSLED_clean_sbu_0, # of connection points: 3
#     Node 93, Type 0, BuildingBlock: WUSLED_clean_sbu_0, # of connection points: 3
#     Node 94, Type 0, BuildingBlock: WUSLED_clean_sbu_0, # of connection points: 3
#     Node 95, Type 0, BuildingBlock: WUSLED_clean_sbu_0, # of connection points: 3
#     Node 96, Type 1, BuildingBlock: BETDIP_clean_linker_0, # of connection points: 3
#     Node 97, Type 1, BuildingBlock: BETDIP_clean_linker_0, # of connection points: 3
#     Node 98, Type 1, BuildingBlock: BETDIP_clean_linker_0, # of connection points: 3
#     Node 99, Type 1, BuildingBlock: BETDIP_clean_linker_0, # of connection points: 3
#     Node 100, Type 1, BuildingBlock: BETDIP_clean_linker_0, # of connection points: 3
#     Node 101, Type 1, BuildingBlock: BETDIP_clean_linker_0, # of connection points: 3
#     Node 102, Type 1, BuildingBlock: BETDIP_clean_linker_0, # of connection points: 3
#     Node 103, Type 1, BuildingBlock: BETDIP_clean_linker_0, # of connection points: 3
#     Node 104, Type 1, BuildingBlock: BETDIP_clean_linker_0, # of connection points: 3
#     Node 105, Type 1, BuildingBlock: BETDIP_clean_linker_0, # of connection points: 3
#     Node 106, Type 1, BuildingBlock: BETDIP_clean_linker_0, # of connection points: 3
#     Node 107, Type 1, BuildingBlock: BETDIP_clean_linker_0, # of connection points: 3
#     Node 108, Type 1, BuildingBlock: BETDIP_clean_linker_0, # of connection points: 3
#     Node 109, Type 1, BuildingBlock: BETDIP_clean_linker_0, # of connection points: 3
#     Node 110, Type 1, BuildingBlock: BETDIP_clean_linker_0, # of connection points: 3
#     Node 111, Type 1, BuildingBlock: BETDIP_clean_linker_0, # of connection points: 3
#     Node 112, Type 1, BuildingBlock: BETDIP_clean_linker_0, # of connection points: 3
#     Node 113, Type 1, BuildingBlock: BETDIP_clean_linker_0, # of connection points: 3
#     Node 114, Type 1, BuildingBlock: BETDIP_clean_linker_0, # of connection points: 3
#     Node 115, Type 1, BuildingBlock: BETDIP_clean_linker_0, # of connection points: 3
#     Node 116, Type 1, BuildingBlock: BETDIP_clean_linker_0, # of connection points: 3
#     Node 117, Type 1, BuildingBlock: BETDIP_clean_linker_0, # of connection points: 3
#     Node 118, Type 1, BuildingBlock: BETDIP_clean_linker_0, # of connection points: 3
#     Node 119, Type 1, BuildingBlock: BETDIP_clean_linker_0, # of connection points: 3
#     Node 120, Type 1, BuildingBlock: BETDIP_clean_linker_0, # of connection points: 3
#     Node 121, Type 1, BuildingBlock: BETDIP_clean_linker_0, # of connection points: 3
#     Node 122, Type 1, BuildingBlock: BETDIP_clean_linker_0, # of connection points: 3
#     Node 123, Type 1, BuildingBlock: BETDIP_clean_linker_0, # of connection points: 3
#     Node 124, Type 1, BuildingBlock: BETDIP_clean_linker_0, # of connection points: 3
#     Node 125, Type 1, BuildingBlock: BETDIP_clean_linker_0, # of connection points: 3
#     Node 126, Type 1, BuildingBlock: BETDIP_clean_linker_0, # of connection points: 3
#     Node 127, Type 1, BuildingBlock: BETDIP_clean_linker_0, # of connection points: 3
#     Node 128, Type 1, BuildingBlock: BETDIP_clean_linker_0, # of connection points: 3
#     Node 129, Type 1, BuildingBlock: BETDIP_clean_linker_0, # of connection points: 3
#     Node 130, Type 1, BuildingBlock: BETDIP_clean_linker_0, # of connection points: 3
#     Node 131, Type 1, BuildingBlock: BETDIP_clean_linker_0, # of connection points: 3
#     Node 132, Type 1, BuildingBlock: BETDIP_clean_linker_0, # of connection points: 3
#     Node 133, Type 1, BuildingBlock: BETDIP_clean_linker_0, # of connection points: 3
#     Node 134, Type 1, BuildingBlock: BETDIP_clean_linker_0, # of connection points: 3
#     Node 135, Type 1, BuildingBlock: BETDIP_clean_linker_0, # of connection points: 3
#     Node 136, Type 1, BuildingBlock: BETDIP_clean_linker_0, # of connection points: 3
#     Node 137, Type 1, BuildingBlock: BETDIP_clean_linker_0, # of connection points: 3
#     Node 138, Type 1, BuildingBlock: BETDIP_clean_linker_0, # of connection points: 3
#     Node 139, Type 1, BuildingBlock: BETDIP_clean_linker_0, # of connection points: 3
#     Node 140, Type 1, BuildingBlock: BETDIP_clean_linker_0, # of connection points: 3
#     Node 141, Type 1, BuildingBlock: BETDIP_clean_linker_0, # of connection points: 3
#     Node 142, Type 1, BuildingBlock: BETDIP_clean_linker_0, # of connection points: 3
#     Node 143, Type 1, BuildingBlock: BETDIP_clean_linker_0, # of connection points: 3
#     Node 144, Type 1, BuildingBlock: BETDIP_clean_linker_0, # of connection points: 3
#     Node 145, Type 1, BuildingBlock: BETDIP_clean_linker_0, # of connection points: 3
#     Node 146, Type 1, BuildingBlock: BETDIP_clean_linker_0, # of connection points: 3
#     Node 147, Type 1, BuildingBlock: BETDIP_clean_linker_0, # of connection points: 3
#     Node 148, Type 1, BuildingBlock: BETDIP_clean_linker_0, # of connection points: 3
#     Node 149, Type 1, BuildingBlock: BETDIP_clean_linker_0, # of connection points: 3
#     Node 150, Type 1, BuildingBlock: BETDIP_clean_linker_0, # of connection points: 3
#     Node 151, Type 1, BuildingBlock: BETDIP_clean_linker_0, # of connection points: 3
#     Node 152, Type 1, BuildingBlock: BETDIP_clean_linker_0, # of connection points: 3
#     Node 153, Type 1, BuildingBlock: BETDIP_clean_linker_0, # of connection points: 3
#     Node 154, Type 1, BuildingBlock: BETDIP_clean_linker_0, # of connection points: 3
#     Node 155, Type 1, BuildingBlock: BETDIP_clean_linker_0, # of connection points: 3
#     Node 156, Type 1, BuildingBlock: BETDIP_clean_linker_0, # of connection points: 3
#     Node 157, Type 1, BuildingBlock: BETDIP_clean_linker_0, # of connection points: 3
#     Node 158, Type 1, BuildingBlock: BETDIP_clean_linker_0, # of connection points: 3
#     Node 159, Type 1, BuildingBlock: BETDIP_clean_linker_0, # of connection points: 3
#     Node 160, Type 1, BuildingBlock: BETDIP_clean_linker_0, # of connection points: 3
#     Node 161, Type 1, BuildingBlock: BETDIP_clean_linker_0, # of connection points: 3
#     Node 162, Type 1, BuildingBlock: BETDIP_clean_linker_0, # of connection points: 3
#     Node 163, Type 1, BuildingBlock: BETDIP_clean_linker_0, # of connection points: 3
#     Node 164, Type 1, BuildingBlock: BETDIP_clean_linker_0, # of connection points: 3
#     Node 165, Type 1, BuildingBlock: BETDIP_clean_linker_0, # of connection points: 3
#     Node 166, Type 1, BuildingBlock: BETDIP_clean_linker_0, # of connection points: 3
#     Node 167, Type 1, BuildingBlock: BETDIP_clean_linker_0, # of connection points: 3
#     Node 168, Type 1, BuildingBlock: BETDIP_clean_linker_0, # of connection points: 3
#     Node 169, Type 1, BuildingBlock: BETDIP_clean_linker_0, # of connection points: 3
#     Node 170, Type 1, BuildingBlock: BETDIP_clean_linker_0, # of connection points: 3
#     Node 171, Type 1, BuildingBlock: BETDIP_clean_linker_0, # of connection points: 3
#     Node 172, Type 1, BuildingBlock: BETDIP_clean_linker_0, # of connection points: 3
#     Node 173, Type 1, BuildingBlock: BETDIP_clean_linker_0, # of connection points: 3
#     Node 174, Type 1, BuildingBlock: BETDIP_clean_linker_0, # of connection points: 3
#     Node 175, Type 1, BuildingBlock: BETDIP_clean_linker_0, # of connection points: 3
#     Node 176, Type 1, BuildingBlock: BETDIP_clean_linker_0, # of connection points: 3
#     Node 177, Type 1, BuildingBlock: BETDIP_clean_linker_0, # of connection points: 3
#     Node 178, Type 1, BuildingBlock: BETDIP_clean_linker_0, # of connection points: 3
#     Node 179, Type 1, BuildingBlock: BETDIP_clean_linker_0, # of connection points: 3
#     Node 180, Type 1, BuildingBlock: BETDIP_clean_linker_0, # of connection points: 3
#     Node 181, Type 1, BuildingBlock: BETDIP_clean_linker_0, # of connection points: 3
#     Node 182, Type 1, BuildingBlock: BETDIP_clean_linker_0, # of connection points: 3
#     Node 183, Type 1, BuildingBlock: BETDIP_clean_linker_0, # of connection points: 3
#     Node 184, Type 1, BuildingBlock: BETDIP_clean_linker_0, # of connection points: 3
#     Node 185, Type 1, BuildingBlock: BETDIP_clean_linker_0, # of connection points: 3
#     Node 186, Type 1, BuildingBlock: BETDIP_clean_linker_0, # of connection points: 3
#     Node 187, Type 1, BuildingBlock: BETDIP_clean_linker_0, # of connection points: 3
#     Node 188, Type 1, BuildingBlock: BETDIP_clean_linker_0, # of connection points: 3
#     Node 189, Type 1, BuildingBlock: BETDIP_clean_linker_0, # of connection points: 3
#     Node 190, Type 1, BuildingBlock: BETDIP_clean_linker_0, # of connection points: 3
#     Node 191, Type 1, BuildingBlock: BETDIP_clean_linker_0, # of connection points: 3
#     Edge 192, Type (0, 1), BuildingBlock: OJICUG_clean_linker_0, # of connection points: 2
#     Edge 193, Type (0, 1), BuildingBlock: OJICUG_clean_linker_0, # of connection points: 2
#     Edge 194, Type (0, 1), BuildingBlock: OJICUG_clean_linker_0, # of connection points: 2
#     Edge 195, Type (0, 1), BuildingBlock: OJICUG_clean_linker_0, # of connection points: 2
#     Edge 196, Type (0, 1), BuildingBlock: OJICUG_clean_linker_0, # of connection points: 2
#     Edge 197, Type (0, 1), BuildingBlock: OJICUG_clean_linker_0, # of connection points: 2
#     Edge 198, Type (0, 1), BuildingBlock: OJICUG_clean_linker_0, # of connection points: 2
#     Edge 199, Type (0, 1), BuildingBlock: OJICUG_clean_linker_0, # of connection points: 2
#     Edge 200, Type (0, 1), BuildingBlock: OJICUG_clean_linker_0, # of connection points: 2
#     Edge 201, Type (0, 1), BuildingBlock: OJICUG_clean_linker_0, # of connection points: 2
#     Edge 202, Type (0, 1), BuildingBlock: OJICUG_clean_linker_0, # of connection points: 2
#     Edge 203, Type (0, 1), BuildingBlock: OJICUG_clean_linker_0, # of connection points: 2
#     Edge 204, Type (0, 1), BuildingBlock: OJICUG_clean_linker_0, # of connection points: 2
#     Edge 205, Type (0, 1), BuildingBlock: OJICUG_clean_linker_0, # of connection points: 2
#     Edge 206, Type (0, 1), BuildingBlock: OJICUG_clean_linker_0, # of connection points: 2
#     Edge 207, Type (0, 1), BuildingBlock: OJICUG_clean_linker_0, # of connection points: 2
#     Edge 208, Type (0, 1), BuildingBlock: OJICUG_clean_linker_0, # of connection points: 2
#     Edge 209, Type (0, 1), BuildingBlock: OJICUG_clean_linker_0, # of connection points: 2
#     Edge 210, Type (0, 1), BuildingBlock: OJICUG_clean_linker_0, # of connection points: 2
#     Edge 211, Type (0, 1), BuildingBlock: OJICUG_clean_linker_0, # of connection points: 2
#     Edge 212, Type (0, 1), BuildingBlock: OJICUG_clean_linker_0, # of connection points: 2
#     Edge 213, Type (0, 1), BuildingBlock: OJICUG_clean_linker_0, # of connection points: 2
#     Edge 214, Type (0, 1), BuildingBlock: OJICUG_clean_linker_0, # of connection points: 2
#     Edge 215, Type (0, 1), BuildingBlock: OJICUG_clean_linker_0, # of connection points: 2
#     Edge 216, Type (0, 1), BuildingBlock: OJICUG_clean_linker_0, # of connection points: 2
#     Edge 217, Type (0, 1), BuildingBlock: OJICUG_clean_linker_0, # of connection points: 2
#     Edge 218, Type (0, 1), BuildingBlock: OJICUG_clean_linker_0, # of connection points: 2
#     Edge 219, Type (0, 1), BuildingBlock: OJICUG_clean_linker_0, # of connection points: 2
#     Edge 220, Type (0, 1), BuildingBlock: OJICUG_clean_linker_0, # of connection points: 2
#     Edge 221, Type (0, 1), BuildingBlock: OJICUG_clean_linker_0, # of connection points: 2
#     Edge 222, Type (0, 1), BuildingBlock: OJICUG_clean_linker_0, # of connection points: 2
#     Edge 223, Type (0, 1), BuildingBlock: OJICUG_clean_linker_0, # of connection points: 2
#     Edge 224, Type (0, 1), BuildingBlock: OJICUG_clean_linker_0, # of connection points: 2
#     Edge 225, Type (0, 1), BuildingBlock: OJICUG_clean_linker_0, # of connection points: 2
#     Edge 226, Type (0, 1), BuildingBlock: OJICUG_clean_linker_0, # of connection points: 2
#     Edge 227, Type (0, 1), BuildingBlock: OJICUG_clean_linker_0, # of connection points: 2
#     Edge 228, Type (0, 1), BuildingBlock: OJICUG_clean_linker_0, # of connection points: 2
#     Edge 229, Type (0, 1), BuildingBlock: OJICUG_clean_linker_0, # of connection points: 2
#     Edge 230, Type (0, 1), BuildingBlock: OJICUG_clean_linker_0, # of connection points: 2
#     Edge 231, Type (0, 1), BuildingBlock: OJICUG_clean_linker_0, # of connection points: 2
#     Edge 232, Type (0, 1), BuildingBlock: OJICUG_clean_linker_0, # of connection points: 2
#     Edge 233, Type (0, 1), BuildingBlock: OJICUG_clean_linker_0, # of connection points: 2
#     Edge 234, Type (0, 1), BuildingBlock: OJICUG_clean_linker_0, # of connection points: 2
#     Edge 235, Type (0, 1), BuildingBlock: OJICUG_clean_linker_0, # of connection points: 2
#     Edge 236, Type (0, 1), BuildingBlock: OJICUG_clean_linker_0, # of connection points: 2
#     Edge 237, Type (0, 1), BuildingBlock: OJICUG_clean_linker_0, # of connection points: 2
#     Edge 238, Type (0, 1), BuildingBlock: OJICUG_clean_linker_0, # of connection points: 2
#     Edge 239, Type (0, 1), BuildingBlock: OJICUG_clean_linker_0, # of connection points: 2
#     Edge 240, Type (0, 1), BuildingBlock: OJICUG_clean_linker_0, # of connection points: 2
#     Edge 241, Type (0, 1), BuildingBlock: OJICUG_clean_linker_0, # of connection points: 2
#     Edge 242, Type (0, 1), BuildingBlock: OJICUG_clean_linker_0, # of connection points: 2
#     Edge 243, Type (0, 1), BuildingBlock: OJICUG_clean_linker_0, # of connection points: 2
#     Edge 244, Type (0, 1), BuildingBlock: OJICUG_clean_linker_0, # of connection points: 2
#     Edge 245, Type (0, 1), BuildingBlock: OJICUG_clean_linker_0, # of connection points: 2
#     Edge 246, Type (0, 1), BuildingBlock: OJICUG_clean_linker_0, # of connection points: 2
#     Edge 247, Type (0, 1), BuildingBlock: OJICUG_clean_linker_0, # of connection points: 2
#     Edge 248, Type (0, 1), BuildingBlock: OJICUG_clean_linker_0, # of connection points: 2
#     Edge 249, Type (0, 1), BuildingBlock: OJICUG_clean_linker_0, # of connection points: 2
#     Edge 250, Type (0, 1), BuildingBlock: OJICUG_clean_linker_0, # of connection points: 2
#     Edge 251, Type (0, 1), BuildingBlock: OJICUG_clean_linker_0, # of connection points: 2
#     Edge 252, Type (0, 1), BuildingBlock: OJICUG_clean_linker_0, # of connection points: 2
#     Edge 253, Type (0, 1), BuildingBlock: OJICUG_clean_linker_0, # of connection points: 2
#     Edge 254, Type (0, 1), BuildingBlock: OJICUG_clean_linker_0, # of connection points: 2
#     Edge 255, Type (0, 1), BuildingBlock: OJICUG_clean_linker_0, # of connection points: 2
#     Edge 256, Type (0, 1), BuildingBlock: OJICUG_clean_linker_0, # of connection points: 2
#     Edge 257, Type (0, 1), BuildingBlock: OJICUG_clean_linker_0, # of connection points: 2
#     Edge 258, Type (0, 1), BuildingBlock: OJICUG_clean_linker_0, # of connection points: 2
#     Edge 259, Type (0, 1), BuildingBlock: OJICUG_clean_linker_0, # of connection points: 2
#     Edge 260, Type (0, 1), BuildingBlock: OJICUG_clean_linker_0, # of connection points: 2
#     Edge 261, Type (0, 1), BuildingBlock: OJICUG_clean_linker_0, # of connection points: 2
#     Edge 262, Type (0, 1), BuildingBlock: OJICUG_clean_linker_0, # of connection points: 2
#     Edge 263, Type (0, 1), BuildingBlock: OJICUG_clean_linker_0, # of connection points: 2
#     Edge 264, Type (0, 1), BuildingBlock: OJICUG_clean_linker_0, # of connection points: 2
#     Edge 265, Type (0, 1), BuildingBlock: OJICUG_clean_linker_0, # of connection points: 2
#     Edge 266, Type (0, 1), BuildingBlock: OJICUG_clean_linker_0, # of connection points: 2
#     Edge 267, Type (0, 1), BuildingBlock: OJICUG_clean_linker_0, # of connection points: 2
#     Edge 268, Type (0, 1), BuildingBlock: OJICUG_clean_linker_0, # of connection points: 2
#     Edge 269, Type (0, 1), BuildingBlock: OJICUG_clean_linker_0, # of connection points: 2
#     Edge 270, Type (0, 1), BuildingBlock: OJICUG_clean_linker_0, # of connection points: 2
#     Edge 271, Type (0, 1), BuildingBlock: OJICUG_clean_linker_0, # of connection points: 2
#     Edge 272, Type (0, 1), BuildingBlock: OJICUG_clean_linker_0, # of connection points: 2
#     Edge 273, Type (0, 1), BuildingBlock: OJICUG_clean_linker_0, # of connection points: 2
#     Edge 274, Type (0, 1), BuildingBlock: OJICUG_clean_linker_0, # of connection points: 2
#     Edge 275, Type (0, 1), BuildingBlock: OJICUG_clean_linker_0, # of connection points: 2
#     Edge 276, Type (0, 1), BuildingBlock: OJICUG_clean_linker_0, # of connection points: 2
#     Edge 277, Type (0, 1), BuildingBlock: OJICUG_clean_linker_0, # of connection points: 2
#     Edge 278, Type (0, 1), BuildingBlock: OJICUG_clean_linker_0, # of connection points: 2
#     Edge 279, Type (0, 1), BuildingBlock: OJICUG_clean_linker_0, # of connection points: 2
#     Edge 280, Type (0, 1), BuildingBlock: OJICUG_clean_linker_0, # of connection points: 2
#     Edge 281, Type (0, 1), BuildingBlock: OJICUG_clean_linker_0, # of connection points: 2
#     Edge 282, Type (0, 1), BuildingBlock: OJICUG_clean_linker_0, # of connection points: 2
#     Edge 283, Type (0, 1), BuildingBlock: OJICUG_clean_linker_0, # of connection points: 2
#     Edge 284, Type (0, 1), BuildingBlock: OJICUG_clean_linker_0, # of connection points: 2
#     Edge 285, Type (0, 1), BuildingBlock: OJICUG_clean_linker_0, # of connection points: 2
#     Edge 286, Type (0, 1), BuildingBlock: OJICUG_clean_linker_0, # of connection points: 2
#     Edge 287, Type (0, 1), BuildingBlock: OJICUG_clean_linker_0, # of connection points: 2
#     Edge 288, Type (0, 1), BuildingBlock: OJICUG_clean_linker_0, # of connection points: 2
#     Edge 289, Type (0, 1), BuildingBlock: OJICUG_clean_linker_0, # of connection points: 2
#     Edge 290, Type (0, 1), BuildingBlock: OJICUG_clean_linker_0, # of connection points: 2
#     Edge 291, Type (0, 1), BuildingBlock: OJICUG_clean_linker_0, # of connection points: 2
#     Edge 292, Type (0, 1), BuildingBlock: OJICUG_clean_linker_0, # of connection points: 2
#     Edge 293, Type (0, 1), BuildingBlock: OJICUG_clean_linker_0, # of connection points: 2
#     Edge 294, Type (0, 1), BuildingBlock: OJICUG_clean_linker_0, # of connection points: 2
#     Edge 295, Type (0, 1), BuildingBlock: OJICUG_clean_linker_0, # of connection points: 2
#     Edge 296, Type (0, 1), BuildingBlock: OJICUG_clean_linker_0, # of connection points: 2
#     Edge 297, Type (0, 1), BuildingBlock: OJICUG_clean_linker_0, # of connection points: 2
#     Edge 298, Type (0, 1), BuildingBlock: OJICUG_clean_linker_0, # of connection points: 2
#     Edge 299, Type (0, 1), BuildingBlock: OJICUG_clean_linker_0, # of connection points: 2
#     Edge 300, Type (0, 1), BuildingBlock: OJICUG_clean_linker_0, # of connection points: 2
#     Edge 301, Type (0, 1), BuildingBlock: OJICUG_clean_linker_0, # of connection points: 2
#     Edge 302, Type (0, 1), BuildingBlock: OJICUG_clean_linker_0, # of connection points: 2
#     Edge 303, Type (0, 1), BuildingBlock: OJICUG_clean_linker_0, # of connection points: 2
#     Edge 304, Type (0, 1), BuildingBlock: OJICUG_clean_linker_0, # of connection points: 2
#     Edge 305, Type (0, 1), BuildingBlock: OJICUG_clean_linker_0, # of connection points: 2
#     Edge 306, Type (0, 1), BuildingBlock: OJICUG_clean_linker_0, # of connection points: 2
#     Edge 307, Type (0, 1), BuildingBlock: OJICUG_clean_linker_0, # of connection points: 2
#     Edge 308, Type (0, 1), BuildingBlock: OJICUG_clean_linker_0, # of connection points: 2
#     Edge 309, Type (0, 1), BuildingBlock: OJICUG_clean_linker_0, # of connection points: 2
#     Edge 310, Type (0, 1), BuildingBlock: OJICUG_clean_linker_0, # of connection points: 2
#     Edge 311, Type (0, 1), BuildingBlock: OJICUG_clean_linker_0, # of connection points: 2
#     Edge 312, Type (0, 1), BuildingBlock: OJICUG_clean_linker_0, # of connection points: 2
#     Edge 313, Type (0, 1), BuildingBlock: OJICUG_clean_linker_0, # of connection points: 2
#     Edge 314, Type (0, 1), BuildingBlock: OJICUG_clean_linker_0, # of connection points: 2
#     Edge 315, Type (0, 1), BuildingBlock: OJICUG_clean_linker_0, # of connection points: 2
#     Edge 316, Type (0, 1), BuildingBlock: OJICUG_clean_linker_0, # of connection points: 2
#     Edge 317, Type (0, 1), BuildingBlock: OJICUG_clean_linker_0, # of connection points: 2
#     Edge 318, Type (0, 1), BuildingBlock: OJICUG_clean_linker_0, # of connection points: 2
#     Edge 319, Type (0, 1), BuildingBlock: OJICUG_clean_linker_0, # of connection points: 2
#     Edge 320, Type (0, 1), BuildingBlock: OJICUG_clean_linker_0, # of connection points: 2
#     Edge 321, Type (0, 1), BuildingBlock: OJICUG_clean_linker_0, # of connection points: 2
#     Edge 322, Type (0, 1), BuildingBlock: OJICUG_clean_linker_0, # of connection points: 2
#     Edge 323, Type (0, 1), BuildingBlock: OJICUG_clean_linker_0, # of connection points: 2
#     Edge 324, Type (0, 1), BuildingBlock: OJICUG_clean_linker_0, # of connection points: 2
#     Edge 325, Type (0, 1), BuildingBlock: OJICUG_clean_linker_0, # of connection points: 2
#     Edge 326, Type (0, 1), BuildingBlock: OJICUG_clean_linker_0, # of connection points: 2
#     Edge 327, Type (0, 1), BuildingBlock: OJICUG_clean_linker_0, # of connection points: 2
#     Edge 328, Type (0, 1), BuildingBlock: OJICUG_clean_linker_0, # of connection points: 2
#     Edge 329, Type (0, 1), BuildingBlock: OJICUG_clean_linker_0, # of connection points: 2
#     Edge 330, Type (0, 1), BuildingBlock: OJICUG_clean_linker_0, # of connection points: 2
#     Edge 331, Type (0, 1), BuildingBlock: OJICUG_clean_linker_0, # of connection points: 2
#     Edge 332, Type (0, 1), BuildingBlock: OJICUG_clean_linker_0, # of connection points: 2
#     Edge 333, Type (0, 1), BuildingBlock: OJICUG_clean_linker_0, # of connection points: 2
#     Edge 334, Type (0, 1), BuildingBlock: OJICUG_clean_linker_0, # of connection points: 2
#     Edge 335, Type (0, 1), BuildingBlock: OJICUG_clean_linker_0, # of connection points: 2
#     Edge 336, Type (0, 1), BuildingBlock: OJICUG_clean_linker_0, # of connection points: 2
#     Edge 337, Type (0, 1), BuildingBlock: OJICUG_clean_linker_0, # of connection points: 2
#     Edge 338, Type (0, 1), BuildingBlock: OJICUG_clean_linker_0, # of connection points: 2
#     Edge 339, Type (0, 1), BuildingBlock: OJICUG_clean_linker_0, # of connection points: 2
#     Edge 340, Type (0, 1), BuildingBlock: OJICUG_clean_linker_0, # of connection points: 2
#     Edge 341, Type (0, 1), BuildingBlock: OJICUG_clean_linker_0, # of connection points: 2
#     Edge 342, Type (0, 1), BuildingBlock: OJICUG_clean_linker_0, # of connection points: 2
#     Edge 343, Type (0, 1), BuildingBlock: OJICUG_clean_linker_0, # of connection points: 2
#     Edge 344, Type (0, 1), BuildingBlock: OJICUG_clean_linker_0, # of connection points: 2
#     Edge 345, Type (0, 1), BuildingBlock: OJICUG_clean_linker_0, # of connection points: 2
#     Edge 346, Type (0, 1), BuildingBlock: OJICUG_clean_linker_0, # of connection points: 2
#     Edge 347, Type (0, 1), BuildingBlock: OJICUG_clean_linker_0, # of connection points: 2
#     Edge 348, Type (0, 1), BuildingBlock: OJICUG_clean_linker_0, # of connection points: 2
#     Edge 349, Type (0, 1), BuildingBlock: OJICUG_clean_linker_0, # of connection points: 2
#     Edge 350, Type (0, 1), BuildingBlock: OJICUG_clean_linker_0, # of connection points: 2
#     Edge 351, Type (0, 1), BuildingBlock: OJICUG_clean_linker_0, # of connection points: 2
#     Edge 352, Type (0, 1), BuildingBlock: OJICUG_clean_linker_0, # of connection points: 2
#     Edge 353, Type (0, 1), BuildingBlock: OJICUG_clean_linker_0, # of connection points: 2
#     Edge 354, Type (0, 1), BuildingBlock: OJICUG_clean_linker_0, # of connection points: 2
#     Edge 355, Type (0, 1), BuildingBlock: OJICUG_clean_linker_0, # of connection points: 2
#     Edge 356, Type (0, 1), BuildingBlock: OJICUG_clean_linker_0, # of connection points: 2
#     Edge 357, Type (0, 1), BuildingBlock: OJICUG_clean_linker_0, # of connection points: 2
#     Edge 358, Type (0, 1), BuildingBlock: OJICUG_clean_linker_0, # of connection points: 2
#     Edge 359, Type (0, 1), BuildingBlock: OJICUG_clean_linker_0, # of connection points: 2
#     Edge 360, Type (0, 1), BuildingBlock: OJICUG_clean_linker_0, # of connection points: 2
#     Edge 361, Type (0, 1), BuildingBlock: OJICUG_clean_linker_0, # of connection points: 2
#     Edge 362, Type (0, 1), BuildingBlock: OJICUG_clean_linker_0, # of connection points: 2
#     Edge 363, Type (0, 1), BuildingBlock: OJICUG_clean_linker_0, # of connection points: 2
#     Edge 364, Type (0, 1), BuildingBlock: OJICUG_clean_linker_0, # of connection points: 2
#     Edge 365, Type (0, 1), BuildingBlock: OJICUG_clean_linker_0, # of connection points: 2
#     Edge 366, Type (0, 1), BuildingBlock: OJICUG_clean_linker_0, # of connection points: 2
#     Edge 367, Type (0, 1), BuildingBlock: OJICUG_clean_linker_0, # of connection points: 2
#     Edge 368, Type (0, 1), BuildingBlock: OJICUG_clean_linker_0, # of connection points: 2
#     Edge 369, Type (0, 1), BuildingBlock: OJICUG_clean_linker_0, # of connection points: 2
#     Edge 370, Type (0, 1), BuildingBlock: OJICUG_clean_linker_0, # of connection points: 2
#     Edge 371, Type (0, 1), BuildingBlock: OJICUG_clean_linker_0, # of connection points: 2
#     Edge 372, Type (0, 1), BuildingBlock: OJICUG_clean_linker_0, # of connection points: 2
#     Edge 373, Type (0, 1), BuildingBlock: OJICUG_clean_linker_0, # of connection points: 2
#     Edge 374, Type (0, 1), BuildingBlock: OJICUG_clean_linker_0, # of connection points: 2
#     Edge 375, Type (0, 1), BuildingBlock: OJICUG_clean_linker_0, # of connection points: 2
#     Edge 376, Type (0, 1), BuildingBlock: OJICUG_clean_linker_0, # of connection points: 2
#     Edge 377, Type (0, 1), BuildingBlock: OJICUG_clean_linker_0, # of connection points: 2
#     Edge 378, Type (0, 1), BuildingBlock: OJICUG_clean_linker_0, # of connection points: 2
#     Edge 379, Type (0, 1), BuildingBlock: OJICUG_clean_linker_0, # of connection points: 2
#     Edge 380, Type (0, 1), BuildingBlock: OJICUG_clean_linker_0, # of connection points: 2
#     Edge 381, Type (0, 1), BuildingBlock: OJICUG_clean_linker_0, # of connection points: 2
#     Edge 382, Type (0, 1), BuildingBlock: OJICUG_clean_linker_0, # of connection points: 2
#     Edge 383, Type (0, 1), BuildingBlock: OJICUG_clean_linker_0, # of connection points: 2
#     Edge 384, Type (0, 1), BuildingBlock: OJICUG_clean_linker_0, # of connection points: 2
#     Edge 385, Type (0, 1), BuildingBlock: OJICUG_clean_linker_0, # of connection points: 2
#     Edge 386, Type (0, 1), BuildingBlock: OJICUG_clean_linker_0, # of connection points: 2
#     Edge 387, Type (0, 1), BuildingBlock: OJICUG_clean_linker_0, # of connection points: 2
#     Edge 388, Type (0, 1), BuildingBlock: OJICUG_clean_linker_0, # of connection points: 2
#     Edge 389, Type (0, 1), BuildingBlock: OJICUG_clean_linker_0, # of connection points: 2
#     Edge 390, Type (0, 1), BuildingBlock: OJICUG_clean_linker_0, # of connection points: 2
#     Edge 391, Type (0, 1), BuildingBlock: OJICUG_clean_linker_0, # of connection points: 2
#     Edge 392, Type (0, 1), BuildingBlock: OJICUG_clean_linker_0, # of connection points: 2
#     Edge 393, Type (0, 1), BuildingBlock: OJICUG_clean_linker_0, # of connection points: 2
#     Edge 394, Type (0, 1), BuildingBlock: OJICUG_clean_linker_0, # of connection points: 2
#     Edge 395, Type (0, 1), BuildingBlock: OJICUG_clean_linker_0, # of connection points: 2
#     Edge 396, Type (0, 1), BuildingBlock: OJICUG_clean_linker_0, # of connection points: 2
#     Edge 397, Type (0, 1), BuildingBlock: OJICUG_clean_linker_0, # of connection points: 2
#     Edge 398, Type (0, 1), BuildingBlock: OJICUG_clean_linker_0, # of connection points: 2
#     Edge 399, Type (0, 1), BuildingBlock: OJICUG_clean_linker_0, # of connection points: 2
#     Edge 400, Type (0, 1), BuildingBlock: OJICUG_clean_linker_0, # of connection points: 2
#     Edge 401, Type (0, 1), BuildingBlock: OJICUG_clean_linker_0, # of connection points: 2
#     Edge 402, Type (0, 1), BuildingBlock: OJICUG_clean_linker_0, # of connection points: 2
#     Edge 403, Type (0, 1), BuildingBlock: OJICUG_clean_linker_0, # of connection points: 2
#     Edge 404, Type (0, 1), BuildingBlock: OJICUG_clean_linker_0, # of connection points: 2
#     Edge 405, Type (0, 1), BuildingBlock: OJICUG_clean_linker_0, # of connection points: 2
#     Edge 406, Type (0, 1), BuildingBlock: OJICUG_clean_linker_0, # of connection points: 2
#     Edge 407, Type (0, 1), BuildingBlock: OJICUG_clean_linker_0, # of connection points: 2
#     Edge 408, Type (0, 1), BuildingBlock: OJICUG_clean_linker_0, # of connection points: 2
#     Edge 409, Type (0, 1), BuildingBlock: OJICUG_clean_linker_0, # of connection points: 2
#     Edge 410, Type (0, 1), BuildingBlock: OJICUG_clean_linker_0, # of connection points: 2
#     Edge 411, Type (0, 1), BuildingBlock: OJICUG_clean_linker_0, # of connection points: 2
#     Edge 412, Type (0, 1), BuildingBlock: OJICUG_clean_linker_0, # of connection points: 2
#     Edge 413, Type (0, 1), BuildingBlock: OJICUG_clean_linker_0, # of connection points: 2
#     Edge 414, Type (0, 1), BuildingBlock: OJICUG_clean_linker_0, # of connection points: 2
#     Edge 415, Type (0, 1), BuildingBlock: OJICUG_clean_linker_0, # of connection points: 2
#     Edge 416, Type (0, 1), BuildingBlock: OJICUG_clean_linker_0, # of connection points: 2
#     Edge 417, Type (0, 1), BuildingBlock: OJICUG_clean_linker_0, # of connection points: 2
#     Edge 418, Type (0, 1), BuildingBlock: OJICUG_clean_linker_0, # of connection points: 2
#     Edge 419, Type (0, 1), BuildingBlock: OJICUG_clean_linker_0, # of connection points: 2
#     Edge 420, Type (0, 1), BuildingBlock: OJICUG_clean_linker_0, # of connection points: 2
#     Edge 421, Type (0, 1), BuildingBlock: OJICUG_clean_linker_0, # of connection points: 2
#     Edge 422, Type (0, 1), BuildingBlock: OJICUG_clean_linker_0, # of connection points: 2
#     Edge 423, Type (0, 1), BuildingBlock: OJICUG_clean_linker_0, # of connection points: 2
#     Edge 424, Type (0, 1), BuildingBlock: OJICUG_clean_linker_0, # of connection points: 2
#     Edge 425, Type (0, 1), BuildingBlock: OJICUG_clean_linker_0, # of connection points: 2
#     Edge 426, Type (0, 1), BuildingBlock: OJICUG_clean_linker_0, # of connection points: 2
#     Edge 427, Type (0, 1), BuildingBlock: OJICUG_clean_linker_0, # of connection points: 2
#     Edge 428, Type (0, 1), BuildingBlock: OJICUG_clean_linker_0, # of connection points: 2
#     Edge 429, Type (0, 1), BuildingBlock: OJICUG_clean_linker_0, # of connection points: 2
#     Edge 430, Type (0, 1), BuildingBlock: OJICUG_clean_linker_0, # of connection points: 2
#     Edge 431, Type (0, 1), BuildingBlock: OJICUG_clean_linker_0, # of connection points: 2
#     Edge 432, Type (0, 1), BuildingBlock: OJICUG_clean_linker_0, # of connection points: 2
#     Edge 433, Type (0, 1), BuildingBlock: OJICUG_clean_linker_0, # of connection points: 2
#     Edge 434, Type (0, 1), BuildingBlock: OJICUG_clean_linker_0, # of connection points: 2
#     Edge 435, Type (0, 1), BuildingBlock: OJICUG_clean_linker_0, # of connection points: 2
#     Edge 436, Type (0, 1), BuildingBlock: OJICUG_clean_linker_0, # of connection points: 2
#     Edge 437, Type (0, 1), BuildingBlock: OJICUG_clean_linker_0, # of connection points: 2
#     Edge 438, Type (0, 1), BuildingBlock: OJICUG_clean_linker_0, # of connection points: 2
#     Edge 439, Type (0, 1), BuildingBlock: OJICUG_clean_linker_0, # of connection points: 2
#     Edge 440, Type (0, 1), BuildingBlock: OJICUG_clean_linker_0, # of connection points: 2
#     Edge 441, Type (0, 1), BuildingBlock: OJICUG_clean_linker_0, # of connection points: 2
#     Edge 442, Type (0, 1), BuildingBlock: OJICUG_clean_linker_0, # of connection points: 2
#     Edge 443, Type (0, 1), BuildingBlock: OJICUG_clean_linker_0, # of connection points: 2
#     Edge 444, Type (0, 1), BuildingBlock: OJICUG_clean_linker_0, # of connection points: 2
#     Edge 445, Type (0, 1), BuildingBlock: OJICUG_clean_linker_0, # of connection points: 2
#     Edge 446, Type (0, 1), BuildingBlock: OJICUG_clean_linker_0, # of connection points: 2
#     Edge 447, Type (0, 1), BuildingBlock: OJICUG_clean_linker_0, # of connection points: 2
#     Edge 448, Type (0, 1), BuildingBlock: OJICUG_clean_linker_0, # of connection points: 2
#     Edge 449, Type (0, 1), BuildingBlock: OJICUG_clean_linker_0, # of connection points: 2
#     Edge 450, Type (0, 1), BuildingBlock: OJICUG_clean_linker_0, # of connection points: 2
#     Edge 451, Type (0, 1), BuildingBlock: OJICUG_clean_linker_0, # of connection points: 2
#     Edge 452, Type (0, 1), BuildingBlock: OJICUG_clean_linker_0, # of connection points: 2
#     Edge 453, Type (0, 1), BuildingBlock: OJICUG_clean_linker_0, # of connection points: 2
#     Edge 454, Type (0, 1), BuildingBlock: OJICUG_clean_linker_0, # of connection points: 2
#     Edge 455, Type (0, 1), BuildingBlock: OJICUG_clean_linker_0, # of connection points: 2
#     Edge 456, Type (0, 1), BuildingBlock: OJICUG_clean_linker_0, # of connection points: 2
#     Edge 457, Type (0, 1), BuildingBlock: OJICUG_clean_linker_0, # of connection points: 2
#     Edge 458, Type (0, 1), BuildingBlock: OJICUG_clean_linker_0, # of connection points: 2
#     Edge 459, Type (0, 1), BuildingBlock: OJICUG_clean_linker_0, # of connection points: 2
#     Edge 460, Type (0, 1), BuildingBlock: OJICUG_clean_linker_0, # of connection points: 2
#     Edge 461, Type (0, 1), BuildingBlock: OJICUG_clean_linker_0, # of connection points: 2
#     Edge 462, Type (0, 1), BuildingBlock: OJICUG_clean_linker_0, # of connection points: 2
#     Edge 463, Type (0, 1), BuildingBlock: OJICUG_clean_linker_0, # of connection points: 2
#     Edge 464, Type (0, 1), BuildingBlock: OJICUG_clean_linker_0, # of connection points: 2
#     Edge 465, Type (0, 1), BuildingBlock: OJICUG_clean_linker_0, # of connection points: 2
#     Edge 466, Type (0, 1), BuildingBlock: OJICUG_clean_linker_0, # of connection points: 2
#     Edge 467, Type (0, 1), BuildingBlock: OJICUG_clean_linker_0, # of connection points: 2
#     Edge 468, Type (0, 1), BuildingBlock: OJICUG_clean_linker_0, # of connection points: 2
#     Edge 469, Type (0, 1), BuildingBlock: OJICUG_clean_linker_0, # of connection points: 2
#     Edge 470, Type (0, 1), BuildingBlock: OJICUG_clean_linker_0, # of connection points: 2
#     Edge 471, Type (0, 1), BuildingBlock: OJICUG_clean_linker_0, # of connection points: 2
#     Edge 472, Type (0, 1), BuildingBlock: OJICUG_clean_linker_0, # of connection points: 2
#     Edge 473, Type (0, 1), BuildingBlock: OJICUG_clean_linker_0, # of connection points: 2
#     Edge 474, Type (0, 1), BuildingBlock: OJICUG_clean_linker_0, # of connection points: 2
#     Edge 475, Type (0, 1), BuildingBlock: OJICUG_clean_linker_0, # of connection points: 2
#     Edge 476, Type (0, 1), BuildingBlock: OJICUG_clean_linker_0, # of connection points: 2
#     Edge 477, Type (0, 1), BuildingBlock: OJICUG_clean_linker_0, # of connection points: 2
#     Edge 478, Type (0, 1), BuildingBlock: OJICUG_clean_linker_0, # of connection points: 2
#     Edge 479, Type (0, 1), BuildingBlock: OJICUG_clean_linker_0, # of connection points: 2
# Relax obj value: 0.033
# Max RMSD: 0.059
# Mean RMSD: 0.034
data_MOF--net-ana-f--node1-WUSLED_clean_sbu_0--node2-BETDIP_clean_linker_0--edge1-OJICUG_clean_linker_0
_symmetry_space_group_name_H-M    P1
_symmetry_Int_Tables_number       1
_symmetry_cell_setting            triclinic
loop_
_symmetry_equiv_pos_as_xyz
'x, y, z'
_cell_length_a     147.67946
_cell_length_b     147.87287
_cell_length_c     147.90675
_cell_angle_alpha  90.019969
_cell_angle_beta   90.022238
_cell_angle_gamma 90.019566
loop_
_atom_site_label
_atom_site_type_symbol
_atom_site_fract_x
_atom_site_fract_y
_atom_site_fract_z
_atom_type_partial_charge
C0 C 0.08031 0.14331 0.4356 0.0
C1 C 0.08918 0.14535 0.43284 0.0
C2 C 0.09522 0.13664 0.44546 0.0
C3 C 0.09659 0.14197 0.43771 0.0
C4 C 0.08635 0.13481 0.44833 0.0
C5 C 0.07896 0.13809 0.4434 0.0
U6 U 0.06898 0.15838 0.41771 0.0
O7 O 0.05873 0.15499 0.40747 0.0
O8 O 0.05565 0.16513 0.41792 0.0
C9 C 0.05271 0.16059 0.41087 0.0
C10 C 0.07237 0.14635 0.43035 0.0
C11 C 0.04315 0.15766 0.41086 0.0
C12 C 0.0314 0.14607 0.41074 0.0
C13 C 0.04045 0.14864 0.41223 0.0
C14 C 0.02767 0.16155 0.40693 0.0
C15 C 0.02496 0.15247 0.40778 0.0
C16 C 0.03664 0.16409 0.40843 0.0
C17 C 0.08479 0.17597 0.4058 0.0
C18 C 0.0836 0.18419 0.39157 0.0
C19 C 0.0951 0.18831 0.40251 0.0
C20 C 0.09205 0.18152 0.40828 0.0
C21 C 0.09096 0.18971 0.39407 0.0
C22 C 0.08049 0.17738 0.39743 0.0
C23 C 0.08239 0.16852 0.41196 0.0
O24 O 0.06947 0.15457 0.43211 0.0
O25 O 0.07251 0.14448 0.42166 0.0
O26 O 0.08029 0.16069 0.40832 0.0
O27 O 0.07737 0.17063 0.41898 0.0
H28 H 0.09037 0.14942 0.42687 0.0
H29 H 0.10338 0.14348 0.43541 0.0
H30 H 0.08515 0.13067 0.45425 0.0
H31 H 0.07216 0.13645 0.44562 0.0
H32 H 0.02955 0.13902 0.41148 0.0
H33 H 0.04538 0.14356 0.41412 0.0
H34 H 0.02288 0.16671 0.40491 0.0
H35 H 0.03856 0.17108 0.40735 0.0
H36 H 0.08029 0.18512 0.3851 0.0
H37 H 0.10091 0.19229 0.40456 0.0
H38 H 0.09551 0.18049 0.41466 0.0
H39 H 0.07487 0.17314 0.39537 0.0
C40 C 0.11417 0.82922 0.686 0.0
C41 C 0.113 0.83807 0.68275 0.0
C42 C 0.1213 0.8441 0.69572 0.0
C43 C 0.11655 0.84543 0.68755 0.0
C44 C 0.12218 0.83526 0.69908 0.0
C45 C 0.11868 0.8279 0.69425 0.0
U46 U 0.09899 0.81814 0.66807 0.0
O47 O 0.10224 0.8082 0.6575 0.0
O48 O 0.09227 0.8048 0.66801 0.0
C49 C 0.09665 0.80209 0.66076 0.0
C50 C 0.11106 0.8213 0.68076 0.0
C51 C 0.09961 0.79257 0.66035 0.0
C52 C 0.10983 0.78015 0.66404 0.0
C53 C 0.10702 0.78918 0.66527 0.0
C54 C 0.09786 0.77795 0.65305 0.0
C55 C 0.10536 0.77453 0.65777 0.0
C56 C 0.09501 0.78684 0.65437 0.0
C57 C 0.08181 0.83483 0.65652 0.0
C58 C 0.07194 0.83317 0.64342 0.0
C59 C 0.07122 0.84671 0.65263 0.0
C60 C 0.078 0.84331 0.65821 0.0
C61 C 0.06805 0.84169 0.64521 0.0
C62 C 0.07877 0.82972 0.64909 0.0
C63 C 0.0891 0.83185 0.66261 0.0
O64 O 0.10281 0.81844 0.68249 0.0
O65 O 0.11295 0.82141 0.67207 0.0
O66 O 0.0969 0.8297 0.65893 0.0
O67 O 0.08678 0.82659 0.66938 0.0
H68 H 0.10947 0.83927 0.67645 0.0
H69 H 0.11561 0.85217 0.68485 0.0
H70 H 0.12583 0.834 0.70531 0.0
H71 H 0.11963 0.82112 0.69687 0.0
H72 H 0.11563 0.77766 0.66775 0.0
H73 H 0.11068 0.79351 0.66991 0.0
H74 H 0.09423 0.77374 0.64827 0.0
H75 H 0.08927 0.78933 0.65053 0.0
H76 H 0.06963 0.82917 0.63773 0.0
H77 H 0.06855 0.85338 0.65408 0.0
H78 H 0.08032 0.84737 0.66385 0.0
H79 H 0.08169 0.82316 0.64766 0.0
C80 C 0.42839 0.86313 0.93622 0.0
C81 C 0.41962 0.86189 0.93275 0.0
C82 C 0.41322 0.86998 0.94562 0.0
C83 C 0.41211 0.86532 0.93739 0.0
C84 C 0.42198 0.87094 0.94921 0.0
C85 C 0.42949 0.86758 0.94452 0.0
U86 U 0.43965 0.84814 0.91843 0.0
O87 O 0.44958 0.85145 0.90789 0.0
O88 O 0.45296 0.84136 0.91829 0.0
C89 C 0.45569 0.84585 0.91112 0.0
C90 C 0.43644 0.86013 0.93114 0.0
C91 C 0.4652 0.84887 0.91088 0.0
C92 C 0.47689 0.86044 0.91203 0.0
C93 C 0.46791 0.85761 0.91347 0.0
C94 C 0.48047 0.84581 0.90558 0.0
C95 C 0.48318 0.85462 0.90786 0.0
C96 C 0.47159 0.84297 0.90711 0.0
C97 C 0.42344 0.83115 0.90641 0.0
C98 C 0.42587 0.82219 0.89283 0.0
C99 C 0.41182 0.82082 0.90122 0.0
C100 C 0.41491 0.82716 0.90745 0.0
C101 C 0.41723 0.81836 0.89384 0.0
C102 C 0.42899 0.82857 0.89913 0.0
C103 C 0.42597 0.83828 0.91283 0.0
O104 O 0.43929 0.85188 0.93286 0.0
O105 O 0.43646 0.86208 0.92247 0.0
O106 O 0.42802 0.8462 0.90936 0.0
O107 O 0.43122 0.83591 0.91959 0.0
H108 H 0.4186 0.8584 0.92638 0.0
H109 H 0.40543 0.86436 0.93453 0.0
H110 H 0.42304 0.87452 0.95551 0.0
H111 H 0.4362 0.86858 0.94731 0.0
H112 H 0.47882 0.86727 0.91385 0.0
H113 H 0.46307 0.86229 0.91635 0.0
H114 H 0.4852 0.84115 0.90247 0.0
H115 H 0.46963 0.83621 0.90506 0.0
H116 H 0.43008 0.82037 0.88711 0.0
H117 H 0.40511 0.81797 0.90204 0.0
H118 H 0.41054 0.8291 0.91301 0.0
H119 H 0.4356 0.83162 0.89823 0.0
C120 C 0.39424 0.17759 0.18641 0.0
C121 C 0.39568 0.1688 0.18311 0.0
C122 C 0.38729 0.1625 0.19584 0.0
C123 C 0.3922 0.16133 0.18776 0.0
C124 C 0.38612 0.17129 0.19926 0.0
C125 C 0.38955 0.17877 0.19456 0.0
U126 U 0.40944 0.18855 0.16865 0.0
O127 O 0.40628 0.19828 0.15787 0.0
O128 O 0.41616 0.20186 0.16841 0.0
C129 C 0.41182 0.20444 0.16109 0.0
C130 C 0.39732 0.18558 0.18129 0.0
C131 C 0.40873 0.21389 0.16063 0.0
C132 C 0.39949 0.22661 0.16555 0.0
C133 C 0.40232 0.21758 0.1666 0.0
C134 C 0.40943 0.22818 0.15261 0.0
C135 C 0.40297 0.23192 0.15846 0.0
C136 C 0.4123 0.21928 0.15372 0.0
C137 C 0.4264 0.17236 0.15673 0.0
C138 C 0.43513 0.17485 0.143 0.0
C139 C 0.43682 0.16088 0.15143 0.0
C140 C 0.43052 0.16391 0.15775 0.0
C141 C 0.43909 0.16628 0.14399 0.0
C142 C 0.42879 0.1779 0.14938 0.0
C143 C 0.41929 0.17482 0.16321 0.0
O144 O 0.40559 0.18838 0.18306 0.0
O145 O 0.39544 0.18551 0.17261 0.0
O146 O 0.41133 0.1768 0.15977 0.0
O147 O 0.42167 0.18013 0.16993 0.0
H148 H 0.39936 0.16773 0.17686 0.0
H149 H 0.39333 0.15463 0.18503 0.0
H150 H 0.38234 0.17241 0.20544 0.0
H151 H 0.38839 0.1855 0.19722 0.0
H152 H 0.39449 0.22939 0.17014 0.0
H153 H 0.39947 0.2135 0.17198 0.0
H154 H 0.41225 0.23217 0.14715 0.0
H155 H 0.41727 0.21655 0.14907 0.0
H156 H 0.43679 0.17905 0.13724 0.0
H157 H 0.43977 0.15422 0.15224 0.0
H158 H 0.42872 0.15954 0.16335 0.0
H159 H 0.42563 0.18446 0.14849 0.0
C160 C 0.07982 0.86369 0.07067 0.0
C161 C 0.08858 0.86217 0.07404 0.0
C162 C 0.09508 0.87045 0.06132 0.0
C163 C 0.09613 0.86555 0.06942 0.0
C164 C 0.08631 0.87169 0.05784 0.0
C165 C 0.07876 0.86836 0.06249 0.0
U166 U 0.06838 0.84865 0.08829 0.0
O167 O 0.05858 0.85204 0.09896 0.0
O168 O 0.05495 0.84212 0.08846 0.0
C169 C 0.0524 0.84649 0.09578 0.0
C170 C 0.07173 0.86075 0.07574 0.0
C171 C 0.04287 0.84934 0.09642 0.0
C172 C 0.03031 0.85963 0.09352 0.0
C173 C 0.03942 0.85713 0.0922 0.0
C174 C 0.02815 0.84656 0.10314 0.0
C175 C 0.02458 0.85433 0.09901 0.0
C176 C 0.03717 0.84411 0.10186 0.0
C177 C 0.08427 0.83114 0.09998 0.0
C178 C 0.08208 0.82255 0.11384 0.0
C179 C 0.09554 0.82022 0.10474 0.0
C180 C 0.09248 0.82663 0.09856 0.0
C181 C 0.09043 0.81822 0.11246 0.0
C182 C 0.07898 0.82898 0.10758 0.0
C183 C 0.08188 0.83842 0.09366 0.0
O184 O 0.06872 0.85259 0.07391 0.0
O185 O 0.07181 0.86258 0.08444 0.0
O186 O 0.08003 0.84634 0.09723 0.0
O187 O 0.07654 0.83625 0.08689 0.0
H188 H 0.08957 0.85851 0.0803 0.0
H189 H 0.10281 0.86432 0.0722 0.0
H190 H 0.08526 0.87547 0.05165 0.0
H191 H 0.07205 0.86957 0.05977 0.0
H192 H 0.02773 0.86564 0.09022 0.0
H193 H 0.04375 0.86128 0.08799 0.0
H194 H 0.024 0.84241 0.10753 0.0
H195 H 0.03973 0.83813 0.10523 0.0
H196 H 0.07811 0.8211 0.11982 0.0
H197 H 0.10205 0.81702 0.10364 0.0
H198 H 0.09667 0.82825 0.09276 0.0
H199 H 0.07262 0.83242 0.10878 0.0
C200 C 0.39572 0.8325 0.31972 0.0
C201 C 0.3963 0.8413 0.32319 0.0
C202 C 0.38783 0.84702 0.3102 0.0
C203 C 0.39239 0.84852 0.31845 0.0
C204 C 0.38754 0.83822 0.30665 0.0
C205 C 0.39144 0.83105 0.31138 0.0
U206 U 0.40874 0.81689 0.33723 0.0
O207 O 0.40154 0.80632 0.34497 0.0
O208 O 0.41195 0.80256 0.33473 0.0
C209 C 0.40598 0.79988 0.34074 0.0
C210 C 0.39845 0.82451 0.32495 0.0
C211 C 0.40453 0.79029 0.34273 0.0
C212 C 0.39437 0.77764 0.34529 0.0
C213 C 0.39574 0.78673 0.3431 0.0
C214 C 0.4106 0.77557 0.34663 0.0
C215 C 0.40178 0.77197 0.34722 0.0
C216 C 0.41195 0.78465 0.34439 0.0
C217 C 0.42831 0.83026 0.35135 0.0
C218 C 0.43489 0.83441 0.36587 0.0
C219 C 0.44155 0.83994 0.35196 0.0
C220 C 0.43505 0.83525 0.34695 0.0
C221 C 0.44145 0.83973 0.36149 0.0
C222 C 0.42836 0.82974 0.36083 0.0
C223 C 0.42133 0.82552 0.34605 0.0
O224 O 0.40623 0.82066 0.323 0.0
O225 O 0.39645 0.8244 0.33361 0.0
O226 O 0.41294 0.82497 0.34898 0.0
O227 O 0.42294 0.82171 0.33817 0.0
H228 H 0.39954 0.84256 0.32965 0.0
H229 H 0.39285 0.85526 0.32129 0.0
H230 H 0.38402 0.83682 0.30038 0.0
H231 H 0.39084 0.82427 0.30866 0.0
H232 H 0.3875 0.77515 0.34575 0.0
H233 H 0.38993 0.79101 0.34177 0.0
H234 H 0.41649 0.7714 0.34789 0.0
H235 H 0.41879 0.78729 0.34411 0.0
H236 H 0.43457 0.83413 0.37318 0.0
H237 H 0.4466 0.84382 0.34835 0.0
H238 H 0.4352 0.83567 0.33964 0.0
H239 H 0.42328 0.82579 0.36435 0.0
C240 C 0.42743 0.14327 0.57061 0.0
C241 C 0.4186 0.14441 0.57394 0.0
C242 C 0.41245 0.13631 0.56091 0.0
C243 C 0.41119 0.14093 0.56915 0.0
C244 C 0.42128 0.13544 0.55748 0.0
C245 C 0.42869 0.13887 0.5623 0.0
U246 U 0.43888 0.15841 0.58838 0.0
O247 O 0.44896 0.15507 0.5988 0.0
O248 O 0.45231 0.16498 0.58824 0.0
C249 C 0.45506 0.16061 0.59548 0.0
C250 C 0.43542 0.14632 0.5758 0.0
C251 C 0.46459 0.15767 0.59584 0.0
C252 C 0.47679 0.14696 0.59296 0.0
C253 C 0.46777 0.14974 0.59166 0.0
C254 C 0.47945 0.16 0.60251 0.0
C255 C 0.48264 0.15199 0.59856 0.0
C256 C 0.47054 0.16282 0.60112 0.0
C257 C 0.42318 0.17605 0.60028 0.0
C258 C 0.42433 0.184 0.61466 0.0
C259 C 0.41302 0.18847 0.60367 0.0
C260 C 0.41604 0.18175 0.59781 0.0
C261 C 0.41707 0.18965 0.61218 0.0
C262 C 0.42741 0.17726 0.60872 0.0
C263 C 0.4255 0.16863 0.59405 0.0
O264 O 0.43837 0.15451 0.57399 0.0
O265 O 0.43534 0.1445 0.5845 0.0
O266 O 0.42749 0.16075 0.59765 0.0
O267 O 0.4306 0.17072 0.58708 0.0
H268 H 0.41745 0.14786 0.5803 0.0
H269 H 0.40446 0.14186 0.57191 0.0
H270 H 0.4225 0.13188 0.5512 0.0
H271 H 0.43545 0.13795 0.55961 0.0
H272 H 0.47911 0.14074 0.58984 0.0
H273 H 0.46326 0.14565 0.58757 0.0
H274 H 0.48383 0.16406 0.60676 0.0
H275 H 0.46822 0.16896 0.60439 0.0
H276 H 0.42756 0.18476 0.62119 0.0
H277 H 0.40729 0.19257 0.60164 0.0
H278 H 0.41263 0.18087 0.59137 0.0
H279 H 0.43294 0.1729 0.61076 0.0
C280 C 0.11411 0.17737 0.82079 0.0
C281 C 0.11243 0.16853 0.82382 0.0
C282 C 0.12117 0.16239 0.81123 0.0
C283 C 0.11595 0.16112 0.8191 0.0
C284 C 0.12255 0.17123 0.80804 0.0
C285 C 0.11907 0.17865 0.8128 0.0
U286 U 0.09901 0.18852 0.83869 0.0
O287 O 0.10244 0.19833 0.84935 0.0
O288 O 0.09248 0.20193 0.83888 0.0
C289 C 0.09688 0.2045 0.84618 0.0
C290 C 0.11109 0.18531 0.82604 0.0
C291 C 0.09977 0.21402 0.84679 0.0
C292 C 0.10965 0.22674 0.8432 0.0
C293 C 0.10716 0.21762 0.84199 0.0
C294 C 0.09737 0.22863 0.85388 0.0
C295 C 0.10473 0.23235 0.84915 0.0
C296 C 0.09494 0.21961 0.85271 0.0
C297 C 0.08134 0.17274 0.85038 0.0
C298 C 0.07375 0.17365 0.86497 0.0
C299 C 0.06875 0.16276 0.85378 0.0
C300 C 0.07542 0.1658 0.84784 0.0
C301 C 0.06789 0.16658 0.86243 0.0
C302 C 0.08041 0.17677 0.85895 0.0
C303 C 0.08874 0.17507 0.84411 0.0
O304 O 0.10288 0.18827 0.82429 0.0
O305 O 0.11293 0.1851 0.83473 0.0
O306 O 0.09668 0.17691 0.84768 0.0
O307 O 0.08663 0.18031 0.83726 0.0
H308 H 0.10854 0.16738 0.82993 0.0
H309 H 0.11464 0.15437 0.82165 0.0
H310 H 0.12656 0.17244 0.80203 0.0
H311 H 0.12042 0.18542 0.81035 0.0
H312 H 0.11534 0.22943 0.83943 0.0
H313 H 0.11099 0.21339 0.8374 0.0
H314 H 0.09353 0.23269 0.85862 0.0
H315 H 0.08927 0.21694 0.85652 0.0
H316 H 0.07322 0.17668 0.87162 0.0
H317 H 0.06445 0.15719 0.85171 0.0
H318 H 0.07609 0.16255 0.84131 0.0
H319 H 0.08493 0.18214 0.86105 0.0
C320 C 0.43648 0.07934 0.14276 0.0
C321 C 0.43576 0.08771 0.14718 0.0
C322 C 0.44647 0.09441 0.13653 0.0
C323 C 0.4407 0.09518 0.14409 0.0
C324 C 0.44713 0.08599 0.13215 0.0
C325 C 0.44218 0.07855 0.13523 0.0
U326 U 0.41887 0.0682 0.15809 0.0
O327 O 0.40848 0.05802 0.15496 0.0
O328 O 0.41901 0.05502 0.16505 0.0
C329 C 0.4119 0.05206 0.1606 0.0
C330 C 0.43135 0.07138 0.14585 0.0
C331 C 0.41199 0.04252 0.15771 0.0
C332 C 0.41295 0.03068 0.14629 0.0
C333 C 0.41389 0.03981 0.1488 0.0
C334 C 0.40842 0.02698 0.16158 0.0
C335 C 0.41013 0.02418 0.15266 0.0
C336 C 0.40936 0.03603 0.16406 0.0
C337 C 0.40701 0.08404 0.17543 0.0
C338 C 0.39319 0.08164 0.18407 0.0
C339 C 0.40225 0.09511 0.18652 0.0
C340 C 0.40841 0.09219 0.18004 0.0
C341 C 0.39456 0.08993 0.1885 0.0
C342 C 0.39944 0.07867 0.17756 0.0
C343 C 0.41331 0.08176 0.1681 0.0
O344 O 0.43321 0.06854 0.15407 0.0
O345 O 0.42263 0.07151 0.14408 0.0
O346 O 0.40968 0.07967 0.16025 0.0
O347 O 0.42027 0.07667 0.17026 0.0
H348 H 0.43135 0.08846 0.15299 0.0
H349 H 0.43989 0.10158 0.14755 0.0
H350 H 0.45157 0.0851 0.12639 0.0
H351 H 0.44281 0.07213 0.13175 0.0
H352 H 0.41438 0.02873 0.13938 0.0
H353 H 0.41592 0.04474 0.14378 0.0
H354 H 0.40606 0.02223 0.16663 0.0
H355 H 0.40777 0.038 0.17094 0.0
H356 H 0.38723 0.07762 0.18549 0.0
H357 H 0.40333 0.10157 0.18981 0.0
H358 H 0.41419 0.09642 0.17844 0.0
H359 H 0.39825 0.07235 0.17405 0.0
C360 C 0.17728 0.18615 0.39245 0.0
C361 C 0.16864 0.18452 0.39604 0.0
C362 C 0.16219 0.19608 0.38613 0.0
C363 C 0.16116 0.18942 0.39289 0.0
C364 C 0.17089 0.19766 0.3826 0.0
C365 C 0.17835 0.19273 0.38573 0.0
U366 U 0.18848 0.16853 0.40775 0.0
O367 O 0.1988 0.15829 0.40464 0.0
O368 O 0.20164 0.1688 0.41481 0.0
C369 C 0.20471 0.16177 0.41031 0.0
C370 C 0.18526 0.18106 0.39558 0.0
C371 C 0.2143 0.16192 0.40753 0.0
C372 C 0.22618 0.16036 0.3962 0.0
C373 C 0.21705 0.16184 0.39843 0.0
C374 C 0.2299 0.15958 0.41212 0.0
C375 C 0.23267 0.1589 0.40304 0.0
C376 C 0.22084 0.16101 0.41432 0.0
C377 C 0.17272 0.15634 0.42495 0.0
C378 C 0.17494 0.14228 0.43322 0.0
C379 C 0.16199 0.15182 0.43648 0.0
C380 C 0.16485 0.15797 0.42995 0.0
C381 C 0.16694 0.1439 0.43809 0.0
C382 C 0.17787 0.14852 0.4267 0.0
C383 C 0.17494 0.16269 0.41764 0.0
O384 O 0.188 0.18288 0.40384 0.0
O385 O 0.18522 0.17236 0.39376 0.0
O386 O 0.17712 0.15916 0.40979 0.0
O387 O 0.1799 0.16973 0.41987 0.0
H388 H 0.16768 0.17943 0.40122 0.0
H389 H 0.15455 0.18788 0.39567 0.0
H390 H 0.17199 0.2028 0.3775 0.0
H391 H 0.18498 0.19409 0.3829 0.0
H392 H 0.22805 0.15991 0.38913 0.0
H393 H 0.21211 0.16255 0.39306 0.0
H394 H 0.23471 0.15878 0.41759 0.0
H395 H 0.21888 0.16105 0.42138 0.0
H396 H 0.17879 0.13616 0.43436 0.0
H397 H 0.15574 0.15311 0.4401 0.0
H398 H 0.16078 0.16392 0.42865 0.0
H399 H 0.18398 0.14716 0.42289 0.0
C400 C 0.07149 0.92662 0.64227 0.0
C401 C 0.07142 0.91827 0.64681 0.0
C402 C 0.06124 0.91199 0.63539 0.0
C403 C 0.0663 0.91103 0.64341 0.0
C404 C 0.0614 0.92034 0.63086 0.0
C405 C 0.06645 0.92758 0.63429 0.0
U406 U 0.08907 0.93766 0.65807 0.0
O407 O 0.09961 0.94771 0.65493 0.0
O408 O 0.0889 0.95101 0.66473 0.0
C409 C 0.09624 0.95375 0.66051 0.0
C410 C 0.07676 0.93441 0.64563 0.0
C411 C 0.09681 0.96336 0.65786 0.0
C412 C 0.09399 0.97614 0.64781 0.0
C413 C 0.0927 0.96696 0.65007 0.0
C414 C 0.10333 0.97807 0.66113 0.0
C415 C 0.09934 0.98179 0.65335 0.0
C416 C 0.10208 0.969 0.66333 0.0
C417 C 0.10072 0.9219 0.67575 0.0
C418 C 0.11431 0.92441 0.68475 0.0
C419 C 0.10554 0.91069 0.6867 0.0
C420 C 0.09943 0.91362 0.68015 0.0
C421 C 0.11306 0.916 0.68899 0.0
C422 C 0.10812 0.92739 0.67817 0.0
C423 C 0.09448 0.92421 0.66834 0.0
O424 O 0.07478 0.93725 0.65382 0.0
O425 O 0.08551 0.93417 0.64404 0.0
O426 O 0.09818 0.92616 0.6605 0.0
O427 O 0.08755 0.92939 0.67037 0.0
H428 H 0.07531 0.91737 0.65295 0.0
H429 H 0.06639 0.90465 0.647 0.0
H430 H 0.05753 0.92131 0.62472 0.0
H431 H 0.06641 0.93397 0.6307 0.0
H432 H 0.0908 0.97882 0.64179 0.0
H433 H 0.08861 0.96269 0.64574 0.0
H434 H 0.10762 0.98215 0.66545 0.0
H435 H 0.10537 0.96634 0.66932 0.0
H436 H 0.12014 0.92855 0.68639 0.0
H437 H 0.10454 0.90413 0.68982 0.0
H438 H 0.0938 0.90928 0.67833 0.0
H439 H 0.10923 0.93381 0.67482 0.0
C440 C 0.32982 0.82018 0.89325 0.0
C441 C 0.33862 0.82363 0.89433 0.0
C442 C 0.34487 0.81068 0.88623 0.0
C443 C 0.34606 0.81895 0.89082 0.0
C444 C 0.33609 0.80711 0.88542 0.0
C445 C 0.32864 0.81184 0.88887 0.0
U446 U 0.31855 0.83798 0.90833 0.0
O447 O 0.30865 0.84857 0.90499 0.0
O448 O 0.30516 0.8381 0.91497 0.0
C449 C 0.30251 0.84535 0.91056 0.0
C450 C 0.3218 0.82531 0.8963 0.0
C451 C 0.29301 0.84575 0.90754 0.0
C452 C 0.28089 0.84284 0.89675 0.0
C453 C 0.28987 0.84151 0.89963 0.0
C454 C 0.27819 0.85256 0.90966 0.0
C455 C 0.27504 0.84854 0.90166 0.0
C456 C 0.28706 0.85114 0.91258 0.0
C457 C 0.33461 0.85002 0.92546 0.0
C458 C 0.33216 0.86369 0.9343 0.0
C459 C 0.3461 0.85518 0.93595 0.0
C460 C 0.34306 0.84894 0.92959 0.0
C461 C 0.34073 0.86263 0.93828 0.0
C462 C 0.32908 0.85737 0.92791 0.0
C463 C 0.33214 0.84359 0.9183 0.0
O464 O 0.31894 0.82355 0.90453 0.0
O465 O 0.32182 0.83399 0.8944 0.0
O466 O 0.33016 0.84705 0.91036 0.0
O467 O 0.32688 0.83681 0.92063 0.0
H468 H 0.3397 0.83002 0.89776 0.0
H469 H 0.35277 0.8218 0.89168 0.0
H470 H 0.33496 0.80079 0.88189 0.0
H471 H 0.32191 0.80906 0.88798 0.0
H472 H 0.2786 0.83967 0.89055 0.0
H473 H 0.29439 0.83735 0.89563 0.0
H474 H 0.2738 0.85688 0.91363 0.0
H475 H 0.28935 0.85446 0.9187 0.0
H476 H 0.32798 0.86946 0.936 0.0
H477 H 0.35277 0.85432 0.9389 0.0
H478 H 0.34742 0.84334 0.92775 0.0
H479 H 0.32253 0.85831 0.92475 0.0
C480 C 0.43694 0.92762 0.36406 0.0
C481 C 0.43396 0.91867 0.36295 0.0
C482 C 0.44671 0.91319 0.37194 0.0
C483 C 0.43879 0.91152 0.36688 0.0
C484 C 0.44981 0.92213 0.37277 0.0
C485 C 0.44494 0.92927 0.3689 0.0
U486 U 0.41912 0.9385 0.3484 0.0
O487 O 0.40838 0.94827 0.35172 0.0
O488 O 0.41899 0.95194 0.34193 0.0
C489 C 0.41162 0.95447 0.34623 0.0
C490 C 0.43159 0.93537 0.36071 0.0
C491 C 0.41093 0.96399 0.34912 0.0
C492 C 0.41428 0.97671 0.35909 0.0
C493 C 0.41557 0.96759 0.35661 0.0
C494 C 0.40382 0.97858 0.34662 0.0
C495 C 0.40839 0.9823 0.35408 0.0
C496 C 0.40508 0.96956 0.34419 0.0
C497 C 0.40748 0.92279 0.33071 0.0
C498 C 0.39424 0.9258 0.32137 0.0
C499 C 0.40217 0.91152 0.32004 0.0
C500 C 0.40833 0.91429 0.32662 0.0
C501 C 0.39505 0.91721 0.31742 0.0
C502 C 0.40046 0.92862 0.32799 0.0
C503 C 0.41381 0.92505 0.33805 0.0
O504 O 0.43349 0.93824 0.35251 0.0
O505 O 0.42285 0.93508 0.36237 0.0
O506 O 0.4102 0.92684 0.34597 0.0
O507 O 0.42062 0.93039 0.33599 0.0
H508 H 0.42783 0.91722 0.35919 0.0
H509 H 0.43631 0.90468 0.36601 0.0
H510 H 0.45586 0.92362 0.37664 0.0
H511 H 0.44734 0.93613 0.36984 0.0
H512 H 0.41792 0.9794 0.36485 0.0
H513 H 0.42011 0.96338 0.36052 0.0
H514 H 0.39912 0.98262 0.3427 0.0
H515 H 0.40138 0.9669 0.33845 0.0
H516 H 0.38871 0.93023 0.31947 0.0
H517 H 0.40284 0.90482 0.31713 0.0
H518 H 0.41367 0.9097 0.32867 0.0
H519 H 0.3997 0.93521 0.3311 0.0
C520 C 0.3307 0.18552 0.61341 0.0
C521 C 0.33951 0.18325 0.61067 0.0
C522 C 0.34573 0.19547 0.61993 0.0
C523 C 0.34695 0.18816 0.61392 0.0
C524 C 0.33687 0.1977 0.62261 0.0
C525 C 0.32945 0.19278 0.61938 0.0
U526 U 0.31942 0.16802 0.59788 0.0
O527 O 0.30922 0.15763 0.60095 0.0
O528 O 0.30611 0.16833 0.5911 0.0
C529 C 0.30323 0.16107 0.59535 0.0
C530 C 0.32275 0.18039 0.61022 0.0
C531 C 0.29366 0.1608 0.59816 0.0
C532 C 0.28145 0.16319 0.60896 0.0
C533 C 0.29053 0.16445 0.60635 0.0
C534 C 0.27866 0.15476 0.59518 0.0
C535 C 0.2755 0.15815 0.60346 0.0
C536 C 0.28762 0.15611 0.59256 0.0
C537 C 0.33502 0.1561 0.58029 0.0
C538 C 0.33312 0.14191 0.57213 0.0
C539 C 0.34543 0.15204 0.56826 0.0
C540 C 0.34258 0.15806 0.57493 0.0
C541 C 0.34079 0.14388 0.56687 0.0
C542 C 0.33019 0.14804 0.57877 0.0
C543 C 0.33285 0.16236 0.58771 0.0
O544 O 0.31991 0.18233 0.60202 0.0
O545 O 0.32285 0.17166 0.61189 0.0
O546 O 0.3308 0.15874 0.59556 0.0
O547 O 0.32783 0.1694 0.58565 0.0
H548 H 0.34063 0.17766 0.60607 0.0
H549 H 0.35367 0.18614 0.6118 0.0
H550 H 0.33564 0.20334 0.62712 0.0
H551 H 0.32269 0.19464 0.62155 0.0
H552 H 0.27916 0.16587 0.61538 0.0
H553 H 0.2951 0.16807 0.61079 0.0
H554 H 0.2742 0.15096 0.59078 0.0
H555 H 0.28992 0.15326 0.58621 0.0
H556 H 0.32949 0.13561 0.57118 0.0
H557 H 0.35144 0.15362 0.56438 0.0
H558 H 0.34644 0.1642 0.57605 0.0
H559 H 0.32432 0.14639 0.58285 0.0
C560 C 0.07078 0.07971 0.86385 0.0
C561 C 0.07429 0.08847 0.8627 0.0
C562 C 0.06132 0.09488 0.87066 0.0
C563 C 0.06962 0.09597 0.8661 0.0
C564 C 0.0577 0.08613 0.87154 0.0
C565 C 0.06241 0.07862 0.86819 0.0
U566 U 0.08835 0.0683 0.84867 0.0
O567 O 0.09899 0.0584 0.85191 0.0
O568 O 0.0884 0.05496 0.84201 0.0
C569 C 0.09576 0.05233 0.84628 0.0
C570 C 0.07586 0.07164 0.86085 0.0
C571 C 0.09644 0.04275 0.84891 0.0
C572 C 0.09326 0.02984 0.85864 0.0
C573 C 0.09199 0.03902 0.85643 0.0
C574 C 0.10333 0.02818 0.84582 0.0
C575 C 0.09894 0.02432 0.85331 0.0
C576 C 0.10209 0.03726 0.84367 0.0
C577 C 0.10001 0.08409 0.83116 0.0
C578 C 0.11374 0.08162 0.82241 0.0
C579 C 0.10488 0.09524 0.8202 0.0
C580 C 0.0987 0.09232 0.82668 0.0
C581 C 0.11248 0.08998 0.8181 0.0
C582 C 0.10749 0.07864 0.82891 0.0
C583 C 0.09371 0.0818 0.83848 0.0
O584 O 0.07397 0.06865 0.8527 0.0
O585 O 0.08458 0.07168 0.86263 0.0
O586 O 0.09734 0.07991 0.84637 0.0
O587 O 0.08687 0.07654 0.83635 0.0
H588 H 0.0807 0.08949 0.85928 0.0
H589 H 0.07251 0.10264 0.86518 0.0
H590 H 0.05136 0.08505 0.87505 0.0
H591 H 0.05958 0.07193 0.86913 0.0
H592 H 0.08977 0.02704 0.86444 0.0
H593 H 0.08761 0.04318 0.86058 0.0
H594 H 0.10787 0.0242 0.84168 0.0
H595 H 0.10564 0.04004 0.83788 0.0
H596 H 0.11964 0.07753 0.8209 0.0
H597 H 0.10388 0.10177 0.81702 0.0
H598 H 0.09301 0.09662 0.82837 0.0
H599 H 0.10859 0.07226 0.83233 0.0
C600 C 0.17838 0.82051 0.11367 0.0
C601 C 0.1696 0.82387 0.11227 0.0
C602 C 0.16323 0.81096 0.12033 0.0
C603 C 0.1621 0.81915 0.1156 0.0
C604 C 0.17201 0.80747 0.12142 0.0
C605 C 0.17952 0.81223 0.11815 0.0
U606 U 0.18943 0.8384 0.09874 0.0
O607 O 0.19925 0.84908 0.10203 0.0
O608 O 0.2027 0.8387 0.09194 0.0
C609 C 0.20535 0.84593 0.09638 0.0
C610 C 0.1864 0.8257 0.11077 0.0
C611 C 0.21488 0.84632 0.09927 0.0
C612 C 0.22713 0.84375 0.11 0.0
C613 C 0.21803 0.84259 0.10743 0.0
C614 C 0.22989 0.85224 0.09627 0.0
C615 C 0.23316 0.8486 0.10442 0.0
C616 C 0.22088 0.8511 0.09374 0.0
C617 C 0.17317 0.84979 0.08135 0.0
C618 C 0.17465 0.86371 0.0727 0.0
C619 C 0.16239 0.85327 0.06951 0.0
C620 C 0.1655 0.84753 0.07628 0.0
C621 C 0.16689 0.86143 0.06766 0.0
C622 C 0.17782 0.85788 0.0795 0.0
C623 C 0.17574 0.84365 0.08873 0.0
O624 O 0.18935 0.82398 0.10256 0.0
O625 O 0.18625 0.83438 0.11268 0.0
O626 O 0.17773 0.84734 0.09657 0.0
O627 O 0.18102 0.83685 0.08655 0.0
H628 H 0.16856 0.8302 0.10874 0.0
H629 H 0.1554 0.82194 0.11451 0.0
H630 H 0.17309 0.8012 0.12505 0.0
H631 H 0.18625 0.80952 0.11925 0.0
H632 H 0.22947 0.84083 0.1163 0.0
H633 H 0.21346 0.8389 0.11181 0.0
H634 H 0.23428 0.85614 0.09189 0.0
H635 H 0.21855 0.8541 0.08747 0.0
H636 H 0.17822 0.86998 0.07141 0.0
H637 H 0.15629 0.85143 0.06588 0.0
H638 H 0.1618 0.84136 0.07767 0.0
H639 H 0.18376 0.85973 0.08337 0.0
C640 C 0.14349 0.43633 0.0788 0.0
C641 C 0.14478 0.43302 0.08761 0.0
C642 C 0.13641 0.44584 0.09382 0.0
C643 C 0.14125 0.43772 0.09504 0.0
C644 C 0.13542 0.44928 0.08502 0.0
C645 C 0.1389 0.44454 0.07758 0.0
U646 U 0.15868 0.41852 0.0677 0.0
O647 O 0.15552 0.4079 0.05777 0.0
O648 O 0.16547 0.41844 0.05441 0.0
C649 C 0.16115 0.41115 0.05171 0.0
C650 C 0.14658 0.43116 0.07082 0.0
C651 C 0.15825 0.41071 0.04218 0.0
C652 C 0.14797 0.41416 0.02976 0.0
C653 C 0.15074 0.41545 0.03878 0.0
C654 C 0.1602 0.40347 0.02756 0.0
C655 C 0.1526 0.40801 0.02414 0.0
C656 C 0.16301 0.40485 0.03646 0.0
C657 C 0.1759 0.4068 0.08393 0.0
C658 C 0.18466 0.39296 0.08221 0.0
C659 C 0.18752 0.40302 0.09485 0.0
C660 C 0.18077 0.40882 0.09178 0.0
C661 C 0.18955 0.39503 0.09012 0.0
C662 C 0.17789 0.39886 0.07909 0.0
C663 C 0.16858 0.41302 0.08137 0.0
O664 O 0.15482 0.43293 0.06799 0.0
O665 O 0.14469 0.42247 0.07088 0.0
O666 O 0.16073 0.40941 0.07927 0.0
O667 O 0.17084 0.41988 0.0762 0.0
H668 H 0.14838 0.42674 0.08873 0.0
H669 H 0.14227 0.43496 0.10175 0.0
H670 H 0.13171 0.45549 0.08385 0.0
H671 H 0.13786 0.44722 0.07084 0.0
H672 H 0.14208 0.41774 0.02726 0.0
H673 H 0.14696 0.41999 0.04311 0.0
H674 H 0.16395 0.39878 0.02335 0.0
H675 H 0.16883 0.40114 0.03896 0.0
H676 H 0.1861 0.38683 0.07847 0.0
H677 H 0.19104 0.40469 0.10106 0.0
H678 H 0.17926 0.41486 0.09565 0.0
H679 H 0.17416 0.39719 0.073 0.0
C680 C 0.64331 0.07065 0.92752 0.0
C681 C 0.64343 0.07407 0.91866 0.0
C682 C 0.63526 0.06077 0.91324 0.0
C683 C 0.63941 0.06919 0.9116 0.0
C684 C 0.63545 0.05723 0.92206 0.0
C685 C 0.63941 0.06215 0.92912 0.0
U686 U 0.65896 0.08864 0.93808 0.0
O687 O 0.65587 0.0992 0.94808 0.0
O688 O 0.6659 0.08869 0.95129 0.0
C689 C 0.66153 0.09591 0.9541 0.0
C690 C 0.64678 0.07598 0.93523 0.0
C691 C 0.65857 0.09613 0.96361 0.0
C692 C 0.64844 0.09203 0.97595 0.0
C693 C 0.65122 0.09106 0.9669 0.0
C694 C 0.66037 0.10302 0.97841 0.0
C695 C 0.65296 0.09811 0.98171 0.0
C696 C 0.66315 0.10202 0.96946 0.0
C697 C 0.67588 0.10045 0.92147 0.0
C698 C 0.68668 0.11264 0.92408 0.0
C699 C 0.68586 0.10534 0.90943 0.0
C700 C 0.67895 0.09976 0.91256 0.0
C701 C 0.68986 0.11178 0.91516 0.0
C702 C 0.67974 0.10695 0.92726 0.0
C703 C 0.66866 0.09421 0.92428 0.0
O704 O 0.65511 0.07422 0.93783 0.0
O705 O 0.64493 0.08468 0.93512 0.0
O706 O 0.66083 0.0978 0.9265 0.0
O707 O 0.67104 0.0874 0.92946 0.0
H708 H 0.64649 0.08058 0.91723 0.0
H709 H 0.63953 0.07203 0.90485 0.0
H710 H 0.6323 0.05079 0.92354 0.0
H711 H 0.63926 0.05939 0.9359 0.0
H712 H 0.6427 0.08818 0.9784 0.0
H713 H 0.64759 0.08648 0.96246 0.0
H714 H 0.66394 0.10773 0.98275 0.0
H715 H 0.66882 0.106 0.96704 0.0
H716 H 0.68966 0.11758 0.9286 0.0
H717 H 0.68806 0.10463 0.90248 0.0
H718 H 0.67601 0.09484 0.90799 0.0
H719 H 0.67742 0.10758 0.93418 0.0
C720 C 0.18671 0.39277 0.17716 0.0
C721 C 0.18408 0.39554 0.16847 0.0
C722 C 0.19637 0.38673 0.16177 0.0
C723 C 0.18883 0.39253 0.16086 0.0
C724 C 0.19897 0.38402 0.17051 0.0
C725 C 0.19418 0.38701 0.17811 0.0
U726 U 0.16929 0.40795 0.18874 0.0
O727 O 0.15891 0.40476 0.19889 0.0
O728 O 0.16953 0.41472 0.20204 0.0
C729 C 0.16237 0.41031 0.20493 0.0
C730 C 0.18172 0.39572 0.18527 0.0
C731 C 0.16225 0.4074 0.21448 0.0
C732 C 0.16152 0.39581 0.22619 0.0
C733 C 0.16315 0.39832 0.21716 0.0
C734 C 0.15852 0.41145 0.22995 0.0
C735 C 0.15889 0.40233 0.23264 0.0
C736 C 0.16014 0.41393 0.221 0.0
C737 C 0.15751 0.4254 0.17282 0.0
C738 C 0.14366 0.43409 0.17484 0.0
C739 C 0.15295 0.43635 0.16151 0.0
C740 C 0.15906 0.4299 0.16464 0.0
C741 C 0.14517 0.4384 0.16652 0.0
C742 C 0.14985 0.42762 0.17802 0.0
C743 C 0.16373 0.41806 0.17526 0.0
O744 O 0.18363 0.40389 0.18822 0.0
O745 O 0.17299 0.39397 0.18527 0.0
O746 O 0.16006 0.41023 0.17732 0.0
O747 O 0.17067 0.42021 0.18039 0.0
H748 H 0.17831 0.39999 0.16759 0.0
H749 H 0.18652 0.39466 0.15424 0.0
H750 H 0.20479 0.37968 0.17151 0.0
H751 H 0.19633 0.38482 0.18477 0.0
H752 H 0.16189 0.38873 0.22801 0.0
H753 H 0.16477 0.39315 0.21223 0.0
H754 H 0.15678 0.41672 0.23474 0.0
H755 H 0.15941 0.42097 0.21909 0.0
H756 H 0.13763 0.43557 0.17873 0.0
H757 H 0.15414 0.43953 0.15502 0.0
H758 H 0.1649 0.42823 0.16052 0.0
H759 H 0.14854 0.42418 0.18435 0.0
C760 C 0.86447 0.93556 0.42696 0.0
C761 C 0.86111 0.93379 0.41826 0.0
C762 C 0.87069 0.94575 0.41198 0.0
C763 C 0.86421 0.93882 0.41085 0.0
C764 C 0.874 0.94746 0.42074 0.0
C765 C 0.87092 0.94242 0.42814 0.0
U766 U 0.84916 0.91784 0.43819 0.0
O767 O 0.85229 0.90755 0.44845 0.0
O768 O 0.84224 0.91811 0.45142 0.0
C769 C 0.84664 0.91098 0.4544 0.0
C770 C 0.86137 0.93036 0.4349 0.0
C771 C 0.84945 0.9109 0.46398 0.0
C772 C 0.86076 0.91192 0.47596 0.0
C773 C 0.8582 0.91328 0.46689 0.0
C774 C 0.8458 0.90609 0.47926 0.0
C775 C 0.85465 0.90805 0.48218 0.0
C776 C 0.84325 0.9075 0.47029 0.0
C777 C 0.83176 0.9062 0.42186 0.0
C778 C 0.82181 0.89322 0.42393 0.0
C779 C 0.82083 0.90226 0.4103 0.0
C780 C 0.82775 0.90781 0.41346 0.0
C781 C 0.81775 0.89492 0.41549 0.0
C782 C 0.82877 0.89887 0.42714 0.0
C783 C 0.83918 0.91224 0.42459 0.0
O784 O 0.85315 0.93218 0.43776 0.0
O785 O 0.86315 0.92165 0.43477 0.0
O786 O 0.84692 0.90848 0.42684 0.0
O787 O 0.83701 0.9192 0.42966 0.0
H788 H 0.85614 0.9285 0.41721 0.0
H789 H 0.8616 0.93718 0.4042 0.0
H790 H 0.87888 0.95279 0.42192 0.0
H791 H 0.87356 0.9439 0.43481 0.0
H792 H 0.86762 0.91352 0.478 0.0
H793 H 0.8631 0.91591 0.46212 0.0
H794 H 0.84087 0.90329 0.4839 0.0
H795 H 0.83647 0.90564 0.4682 0.0
H796 H 0.81957 0.88759 0.42804 0.0
H797 H 0.81799 0.90363 0.40368 0.0
H798 H 0.83003 0.91338 0.40926 0.0
H799 H 0.83183 0.89752 0.43366 0.0
C800 C 0.8215 0.11407 0.17679 0.0
C801 C 0.82473 0.11296 0.16793 0.0
C802 C 0.81181 0.1214 0.162 0.0
C803 C 0.81994 0.11661 0.16061 0.0
C804 C 0.80849 0.12227 0.17087 0.0
C805 C 0.81331 0.11865 0.17818 0.0
U806 U 0.83902 0.09839 0.1879 0.0
O807 O 0.8496 0.10144 0.19792 0.0
O808 O 0.83884 0.0917 0.20123 0.0
C809 C 0.84617 0.09593 0.20399 0.0
C810 C 0.82669 0.1108 0.18467 0.0
C811 C 0.84649 0.0989 0.2135 0.0
C812 C 0.8434 0.10955 0.22569 0.0
C813 C 0.8423 0.10685 0.21663 0.0
C814 C 0.85264 0.09632 0.22852 0.0
C815 C 0.84862 0.1043 0.23167 0.0
C816 C 0.85159 0.09366 0.21953 0.0
C817 C 0.8505 0.08059 0.17217 0.0
C818 C 0.86495 0.07272 0.17313 0.0
C819 C 0.85369 0.06796 0.1622 0.0
C820 C 0.84787 0.07472 0.16522 0.0
C821 C 0.86233 0.06693 0.16604 0.0
C822 C 0.85905 0.07948 0.17623 0.0
C823 C 0.84438 0.08812 0.17444 0.0
O824 O 0.8247 0.10262 0.18754 0.0
O825 O 0.83544 0.11242 0.18453 0.0
O826 O 0.84813 0.09594 0.1764 0.0
O827 O 0.83738 0.08615 0.17955 0.0
H828 H 0.831 0.10937 0.16668 0.0
H829 H 0.82261 0.11566 0.15386 0.0
H830 H 0.80229 0.12595 0.17218 0.0
H831 H 0.8107 0.11957 0.18496 0.0
H832 H 0.84023 0.11574 0.22802 0.0
H833 H 0.83834 0.11099 0.21207 0.0
H834 H 0.85671 0.09219 0.23301 0.0
H835 H 0.85491 0.08754 0.21724 0.0
H836 H 0.87159 0.07207 0.17619 0.0
H837 H 0.85155 0.06373 0.1566 0.0
H838 H 0.84134 0.07552 0.16195 0.0
H839 H 0.86122 0.08395 0.18161 0.0
C840 C 0.36382 0.57083 0.57883 0.0
C841 C 0.3623 0.57412 0.58761 0.0
C842 C 0.37084 0.56148 0.59398 0.0
C843 C 0.3658 0.5695 0.5951 0.0
C844 C 0.37209 0.55808 0.58519 0.0
C845 C 0.36863 0.56273 0.5777 0.0
U846 U 0.34827 0.588 0.56702 0.0
O847 O 0.35142 0.59856 0.55705 0.0
O848 O 0.34201 0.5876 0.55348 0.0
C849 C 0.34613 0.59502 0.55084 0.0
C850 C 0.36075 0.57588 0.57077 0.0
C851 C 0.34927 0.59551 0.5414 0.0
C852 C 0.36002 0.59244 0.52929 0.0
C853 C 0.35711 0.59113 0.53826 0.0
C854 C 0.3473 0.60243 0.52664 0.0
C855 C 0.35521 0.59826 0.52347 0.0
C856 C 0.34435 0.60104 0.53548 0.0
C857 C 0.32983 0.59931 0.5823 0.0
C858 C 0.3232 0.61429 0.58422 0.0
C859 C 0.3164 0.60128 0.59149 0.0
C860 C 0.32292 0.59568 0.58765 0.0
C861 C 0.31671 0.61069 0.59018 0.0
C862 C 0.32975 0.60863 0.5803 0.0
C863 C 0.33753 0.59335 0.58008 0.0
O864 O 0.35269 0.57376 0.56765 0.0
O865 O 0.36225 0.58465 0.57086 0.0
O866 O 0.34537 0.59718 0.57834 0.0
O867 O 0.3358 0.58627 0.575 0.0
H868 H 0.35853 0.58031 0.58866 0.0
H869 H 0.36458 0.57222 0.6018 0.0
H870 H 0.37597 0.55196 0.58408 0.0
H871 H 0.36986 0.56008 0.57098 0.0
H872 H 0.36615 0.58915 0.52699 0.0
H873 H 0.36101 0.58685 0.54274 0.0
H874 H 0.34341 0.60686 0.52227 0.0
H875 H 0.33828 0.60446 0.53778 0.0
H876 H 0.32359 0.62152 0.58309 0.0
H877 H 0.31138 0.59827 0.5959 0.0
H878 H 0.32283 0.58853 0.58927 0.0
H879 H 0.33501 0.61159 0.57615 0.0
C880 C 0.18617 0.61383 0.33009 0.0
C881 C 0.18628 0.60921 0.33838 0.0
C882 C 0.19646 0.62061 0.34475 0.0
C883 C 0.1914 0.61257 0.34564 0.0
C884 C 0.19626 0.6252 0.33643 0.0
C885 C 0.19119 0.62183 0.32919 0.0
U886 U 0.16846 0.59826 0.31887 0.0
O887 O 0.15803 0.60161 0.30878 0.0
O888 O 0.16867 0.59174 0.30546 0.0
C889 C 0.16139 0.59605 0.30272 0.0
C890 C 0.1809 0.61053 0.32228 0.0
C891 C 0.1609 0.59879 0.29314 0.0
C892 C 0.16454 0.60851 0.28033 0.0
C893 C 0.16564 0.60619 0.28951 0.0
C894 C 0.15408 0.59602 0.27847 0.0
C895 C 0.15876 0.60339 0.27471 0.0
C896 C 0.15515 0.59377 0.28755 0.0
C897 C 0.15623 0.58059 0.33406 0.0
C898 C 0.14195 0.57271 0.3316 0.0
C899 C 0.15142 0.5688 0.34441 0.0
C900 C 0.15774 0.57528 0.34176 0.0
C901 C 0.14343 0.56754 0.33944 0.0
C902 C 0.14836 0.57917 0.32888 0.0
C903 C 0.1627 0.58792 0.33212 0.0
O904 O 0.1828 0.60232 0.31944 0.0
O905 O 0.17217 0.61222 0.32248 0.0
O906 O 0.15922 0.59588 0.33026 0.0
O907 O 0.1697 0.58585 0.32705 0.0
H908 H 0.18242 0.60305 0.33924 0.0
H909 H 0.1913 0.60892 0.352 0.0
H910 H 0.20014 0.63135 0.33547 0.0
H911 H 0.19119 0.62548 0.32284 0.0
H912 H 0.16825 0.61421 0.27761 0.0
H913 H 0.17011 0.61017 0.29375 0.0
H914 H 0.14947 0.59203 0.2744 0.0
H915 H 0.15138 0.58808 0.29023 0.0
H916 H 0.13579 0.57185 0.32772 0.0
H917 H 0.15262 0.56497 0.35054 0.0
H918 H 0.16373 0.57632 0.34587 0.0
H919 H 0.14708 0.58321 0.32291 0.0
C920 C 0.32147 0.39262 0.82972 0.0
C921 C 0.32445 0.39431 0.83858 0.0
C922 C 0.31178 0.38557 0.84466 0.0
C923 C 0.31966 0.39081 0.84598 0.0
C924 C 0.30871 0.38411 0.83578 0.0
C925 C 0.31352 0.38759 0.8284 0.0
U926 U 0.33918 0.40793 0.81835 0.0
O927 O 0.3495 0.40465 0.80814 0.0
O928 O 0.33895 0.41468 0.80504 0.0
C929 C 0.3461 0.41026 0.80214 0.0
C930 C 0.32666 0.39575 0.82178 0.0
C931 C 0.34629 0.40746 0.79254 0.0
C932 C 0.34546 0.39622 0.78049 0.0
C933 C 0.34417 0.39867 0.78961 0.0
C934 C 0.35082 0.41134 0.77723 0.0
C935 C 0.3489 0.40252 0.77419 0.0
C936 C 0.3495 0.41376 0.78625 0.0
C937 C 0.35084 0.42565 0.83423 0.0
C938 C 0.36481 0.4343 0.83282 0.0
C939 C 0.35414 0.43777 0.84478 0.0
C940 C 0.34845 0.43092 0.84172 0.0
C941 C 0.36241 0.43954 0.84041 0.0
C942 C 0.35903 0.42741 0.82972 0.0
C943 C 0.34477 0.41814 0.83178 0.0
O944 O 0.3248 0.40394 0.81888 0.0
O945 O 0.33539 0.39399 0.82187 0.0
O946 O 0.34852 0.41035 0.82969 0.0
O947 O 0.33775 0.42017 0.82672 0.0
H948 H 0.33053 0.39824 0.83977 0.0
H949 H 0.32213 0.3922 0.85273 0.0
H950 H 0.30272 0.38008 0.83451 0.0
H951 H 0.31111 0.38622 0.82162 0.0
H952 H 0.34383 0.38939 0.7784 0.0
H953 H 0.34171 0.39368 0.79436 0.0
H954 H 0.35365 0.41634 0.7727 0.0
H955 H 0.35127 0.42055 0.78838 0.0
H956 H 0.37114 0.43551 0.82934 0.0
H957 H 0.35218 0.44153 0.85075 0.0
H958 H 0.3422 0.4296 0.84534 0.0
H959 H 0.36101 0.42339 0.82392 0.0
C960 C 0.92828 0.86209 0.56883 0.0
C961 C 0.92042 0.85682 0.5678 0.0
C962 C 0.91327 0.86896 0.55924 0.0
C963 C 0.91298 0.86021 0.56296 0.0
C964 C 0.92112 0.87418 0.56028 0.0
C965 C 0.92858 0.87075 0.56499 0.0
U966 U 0.93964 0.84637 0.58617 0.0
O967 O 0.95333 0.84042 0.58622 0.0
O968 O 0.94918 0.84964 0.59714 0.0
C969 C 0.95562 0.84453 0.59377 0.0
C970 C 0.93618 0.85889 0.57404 0.0
C971 C 0.96502 0.84777 0.59475 0.0
C972 C 0.97828 0.85646 0.59011 0.0
C973 C 0.9692 0.85384 0.58872 0.0
C974 C 0.97895 0.84698 0.60343 0.0
C975 C 0.98326 0.85296 0.59745 0.0
C976 C 0.96997 0.84444 0.6021 0.0
C977 C 0.92401 0.82814 0.59725 0.0
C978 C 0.92508 0.82016 0.61161 0.0
C979 C 0.91342 0.81611 0.60081 0.0
C980 C 0.91663 0.8227 0.59488 0.0
C981 C 0.91753 0.81482 0.60928 0.0
C982 C 0.92833 0.82676 0.60561 0.0
C983 C 0.92637 0.83564 0.59114 0.0
O984 O 0.93583 0.86036 0.5828 0.0
O985 O 0.9393 0.85083 0.57197 0.0
O986 O 0.93182 0.83378 0.58437 0.0
O987 O 0.92797 0.84352 0.59492 0.0
H988 H 0.92003 0.85013 0.57077 0.0
H989 H 0.90695 0.8561 0.56229 0.0
H990 H 0.92149 0.88093 0.55745 0.0
H991 H 0.93457 0.87492 0.56571 0.0
H992 H 0.98145 0.86106 0.58536 0.0
H993 H 0.96549 0.85649 0.58299 0.0
H994 H 0.98255 0.84425 0.6092 0.0
H995 H 0.96687 0.83979 0.60684 0.0
H996 H 0.92837 0.81929 0.6181 0.0
H997 H 0.90749 0.81225 0.59888 0.0
H998 H 0.91314 0.82373 0.58851 0.0
H999 H 0.93404 0.83092 0.60758 0.0
C1000 C 0.89674 0.17572 0.31723 0.0
C1001 C 0.89779 0.16689 0.32053 0.0
C1002 C 0.88821 0.16121 0.30835 0.0
C1003 C 0.89355 0.15967 0.31611 0.0
C1004 C 0.88751 0.17001 0.30491 0.0
C1005 C 0.89173 0.1772 0.30933 0.0
U1006 U 0.91115 0.18966 0.33457 0.0
O1007 O 0.91502 0.20395 0.33285 0.0
O1008 O 0.90539 0.19999 0.34375 0.0
C1009 C 0.90989 0.20647 0.33967 0.0
C1010 C 0.89984 0.18367 0.32228 0.0
C1011 C 0.90837 0.21607 0.34171 0.0
C1012 C 0.90143 0.23065 0.33863 0.0
C1013 C 0.90342 0.22176 0.33595 0.0
C1014 C 0.90961 0.22825 0.35264 0.0
C1015 C 0.90448 0.23395 0.34703 0.0
C1016 C 0.91146 0.21937 0.35002 0.0
C1017 C 0.92992 0.17545 0.34811 0.0
C1018 C 0.93925 0.17704 0.36162 0.0
C1019 C 0.93932 0.16298 0.35319 0.0
C1020 C 0.93323 0.16664 0.34701 0.0
C1021 C 0.94229 0.16808 0.3606 0.0
C1022 C 0.93304 0.18072 0.3554 0.0
C1023 C 0.92271 0.17833 0.34186 0.0
O1024 O 0.898 0.1838 0.33096 0.0
O1025 O 0.90787 0.18694 0.32028 0.0
O1026 O 0.92475 0.1834 0.33485 0.0
O1027 O 0.91457 0.17976 0.34514 0.0
H1028 H 0.90164 0.16562 0.32664 0.0
H1029 H 0.89432 0.15291 0.31881 0.0
H1030 H 0.88342 0.1714 0.29899 0.0
H1031 H 0.89081 0.18399 0.30674 0.0
H1032 H 0.89755 0.23496 0.33416 0.0
H1033 H 0.90093 0.2193 0.32951 0.0
H1034 H 0.91202 0.2306 0.35915 0.0
H1035 H 0.91523 0.21502 0.35457 0.0
H1036 H 0.94143 0.18103 0.36737 0.0
H1037 H 0.94152 0.15604 0.35233 0.0
H1038 H 0.93086 0.16245 0.34148 0.0
H1039 H 0.93052 0.18752 0.35639 0.0
C1040 C 0.58198 0.14705 0.06726 0.0
C1041 C 0.59077 0.14897 0.07031 0.0
C1042 C 0.59699 0.13969 0.05818 0.0
C1043 C 0.59824 0.14529 0.06579 0.0
C1044 C 0.58819 0.13808 0.05499 0.0
C1045 C 0.58076 0.14172 0.05952 0.0
U1046 U 0.5675 0.16032 0.08502 0.0
O1047 O 0.55317 0.16419 0.08322 0.0
O1048 O 0.55705 0.154 0.09363 0.0
C1049 C 0.5506 0.1587 0.08973 0.0
C1050 C 0.57388 0.14969 0.07234 0.0
C1051 C 0.54101 0.157 0.09162 0.0
C1052 C 0.52694 0.14895 0.08901 0.0
C1053 C 0.53593 0.15077 0.0866 0.0
C1054 C 0.52808 0.15961 0.10141 0.0
C1055 C 0.52295 0.15329 0.09649 0.0
C1056 C 0.53703 0.16145 0.09897 0.0
C1057 C 0.58216 0.17892 0.09875 0.0
C1058 C 0.58145 0.18971 0.11118 0.0
C1059 C 0.59531 0.18794 0.10259 0.0
C1060 C 0.59117 0.18139 0.09726 0.0
C1061 C 0.59051 0.19225 0.10957 0.0
C1062 C 0.57726 0.18309 0.10576 0.0
C1063 C 0.57842 0.17185 0.09284 0.0
O1064 O 0.57374 0.14751 0.08095 0.0
O1065 O 0.57043 0.1577 0.07064 0.0
O1066 O 0.57345 0.17401 0.08579 0.0
O1067 O 0.57707 0.16365 0.09599 0.0
H1068 H 0.59182 0.15308 0.07628 0.0
H1069 H 0.60498 0.1467 0.06831 0.0
H1070 H 0.58704 0.13374 0.04921 0.0
H1071 H 0.574 0.14012 0.05714 0.0
H1072 H 0.52318 0.14397 0.08516 0.0
H1073 H 0.53893 0.14722 0.08093 0.0
H1074 H 0.52518 0.16314 0.10713 0.0
H1075 H 0.54091 0.16627 0.10291 0.0
H1076 H 0.5776 0.19291 0.11653 0.0
H1077 H 0.60235 0.18954 0.10131 0.0
H1078 H 0.59507 0.17819 0.09194 0.0
H1079 H 0.57029 0.18122 0.10702 0.0
C1080 C 0.61227 0.82862 0.81829 0.0
C1081 C 0.60726 0.83666 0.81744 0.0
C1082 C 0.61933 0.8433 0.80835 0.0
C1083 C 0.61075 0.84394 0.81244 0.0
C1084 C 0.62428 0.83526 0.80921 0.0
C1085 C 0.62075 0.82797 0.81408 0.0
U1086 U 0.59687 0.81766 0.83628 0.0
O1087 O 0.59038 0.80421 0.83649 0.0
O1088 O 0.6004 0.80785 0.84688 0.0
C1089 C 0.5949 0.80162 0.8437 0.0
C1090 C 0.60898 0.82087 0.82366 0.0
C1091 C 0.59797 0.79213 0.84412 0.0
C1092 C 0.60936 0.78027 0.84268 0.0
C1093 C 0.60661 0.78929 0.84131 0.0
C1094 C 0.59484 0.77693 0.84951 0.0
C1095 C 0.6035 0.77399 0.84684 0.0
C1096 C 0.59213 0.78586 0.84815 0.0
C1097 C 0.57926 0.83328 0.84818 0.0
C1098 C 0.57185 0.83205 0.86283 0.0
C1099 C 0.56704 0.84349 0.85213 0.0
C1100 C 0.57351 0.84047 0.84598 0.0
C1101 C 0.56622 0.8394 0.86066 0.0
C1102 C 0.57831 0.82895 0.85659 0.0
C1103 C 0.58657 0.83105 0.84179 0.0
O1104 O 0.61081 0.82117 0.83235 0.0
O1105 O 0.60074 0.81799 0.82191 0.0
O1106 O 0.58443 0.8258 0.83495 0.0
O1107 O 0.59456 0.82925 0.84528 0.0
H1108 H 0.60072 0.83733 0.82069 0.0
H1109 H 0.60687 0.85014 0.81193 0.0
H1110 H 0.6309 0.83463 0.80613 0.0
H1111 H 0.62471 0.82183 0.81467 0.0
H1112 H 0.61605 0.77821 0.8405 0.0
H1113 H 0.61124 0.79404 0.83821 0.0
H1114 H 0.5902 0.77237 0.85287 0.0
H1115 H 0.58548 0.78793 0.85046 0.0
H1116 H 0.57134 0.82881 0.86938 0.0
H1117 H 0.56289 0.84926 0.85034 0.0
H1118 H 0.5742 0.84394 0.83956 0.0
H1119 H 0.5827 0.82338 0.85842 0.0
C1120 C 0.92868 0.14604 0.93825 0.0
C1121 C 0.91991 0.14831 0.93536 0.0
C1122 C 0.91337 0.13895 0.94728 0.0
C1123 C 0.91233 0.14478 0.93982 0.0
C1124 C 0.92216 0.13693 0.95032 0.0
C1125 C 0.92974 0.14043 0.94582 0.0
U1126 U 0.94017 0.16116 0.92063 0.0
O1127 O 0.95374 0.16743 0.9204 0.0
O1128 O 0.94983 0.15766 0.90989 0.0
C1129 C 0.95617 0.16303 0.91307 0.0
C1130 C 0.93676 0.14907 0.93321 0.0
C1131 C 0.96559 0.15978 0.91245 0.0
C1132 C 0.97763 0.14891 0.91543 0.0
C1133 C 0.96875 0.15203 0.91695 0.0
C1134 C 0.98019 0.16129 0.90502 0.0
C1135 C 0.98336 0.15343 0.90929 0.0
C1136 C 0.97143 0.16443 0.90662 0.0
C1137 C 0.92387 0.17835 0.90872 0.0
C1138 C 0.92644 0.18826 0.89582 0.0
C1139 C 0.91148 0.18708 0.90246 0.0
C1140 C 0.91477 0.181 0.90885 0.0
C1141 C 0.91724 0.19068 0.89585 0.0
C1142 C 0.92976 0.18207 0.90224 0.0
C1143 C 0.92663 0.1713 0.91516 0.0
O1144 O 0.93672 0.14724 0.92451 0.0
O1145 O 0.9397 0.15726 0.93503 0.0
O1146 O 0.93212 0.17367 0.92175 0.0
O1147 O 0.92845 0.16331 0.91173 0.0
H1148 H 0.91894 0.15268 0.92956 0.0
H1149 H 0.90564 0.14657 0.93739 0.0
H1150 H 0.92319 0.13243 0.956 0.0
H1151 H 0.93645 0.13859 0.94814 0.0
H1152 H 0.97992 0.14283 0.91882 0.0
H1153 H 0.96433 0.14832 0.92147 0.0
H1154 H 0.98448 0.16499 0.90038 0.0
H1155 H 0.96913 0.17043 0.9031 0.0
H1156 H 0.93096 0.19095 0.89072 0.0
H1157 H 0.90436 0.18886 0.90257 0.0
H1158 H 0.91014 0.17819 0.91378 0.0
H1159 H 0.9368 0.18005 0.90203 0.0
C1160 C 0.61161 0.17785 0.68807 0.0
C1161 C 0.6093 0.16908 0.68526 0.0
C1162 C 0.61866 0.16266 0.69724 0.0
C1163 C 0.61282 0.16155 0.68979 0.0
C1164 C 0.6207 0.17145 0.70021 0.0
C1165 C 0.61723 0.17898 0.69563 0.0
U1166 U 0.59623 0.18897 0.67052 0.0
O1167 O 0.58978 0.20243 0.67034 0.0
O1168 O 0.59937 0.19859 0.65964 0.0
C1169 C 0.59401 0.20488 0.66292 0.0
C1170 C 0.60855 0.18586 0.68297 0.0
C1171 C 0.59723 0.21429 0.66226 0.0
C1172 C 0.60722 0.22677 0.66633 0.0
C1173 C 0.60418 0.21784 0.6677 0.0
C1174 C 0.59638 0.22855 0.65417 0.0
C1175 C 0.60344 0.23214 0.65942 0.0
C1176 C 0.59331 0.21975 0.65559 0.0
C1177 C 0.57875 0.17268 0.65919 0.0
C1178 C 0.57033 0.17393 0.64509 0.0
C1179 C 0.56728 0.16158 0.65542 0.0
C1180 C 0.57384 0.16488 0.66132 0.0
C1181 C 0.56547 0.16602 0.64721 0.0
C1182 C 0.57692 0.17728 0.65107 0.0
C1183 C 0.58608 0.17533 0.66537 0.0
O1184 O 0.61025 0.1857 0.67424 0.0
O1185 O 0.60036 0.18879 0.68486 0.0
O1186 O 0.58391 0.18071 0.6721 0.0
O1187 O 0.59396 0.17724 0.6617 0.0
H1188 H 0.60491 0.16806 0.67948 0.0
H1189 H 0.61102 0.15485 0.68743 0.0
H1190 H 0.62521 0.17251 0.70589 0.0
H1191 H 0.61908 0.1857 0.69789 0.0
H1192 H 0.61267 0.22938 0.67049 0.0
H1193 H 0.6073 0.21371 0.67289 0.0
H1194 H 0.59323 0.23256 0.64891 0.0
H1195 H 0.58792 0.21714 0.65135 0.0
H1196 H 0.56907 0.17747 0.63881 0.0
H1197 H 0.56381 0.15537 0.65716 0.0
H1198 H 0.57523 0.16119 0.6675 0.0
H1199 H 0.58068 0.18331 0.6493 0.0
C1200 C 0.57922 0.86106 0.43796 0.0
C1201 C 0.58801 0.85878 0.43515 0.0
C1202 C 0.59442 0.86798 0.44726 0.0
C1203 C 0.59554 0.86225 0.43974 0.0
C1204 C 0.58561 0.86997 0.45024 0.0
C1205 C 0.57808 0.86656 0.4456 0.0
U1206 U 0.56789 0.84588 0.42031 0.0
O1207 O 0.55427 0.83973 0.42006 0.0
O1208 O 0.55836 0.84922 0.40938 0.0
C1209 C 0.55194 0.844 0.41262 0.0
C1210 C 0.5712 0.8581 0.43278 0.0
C1211 C 0.54256 0.84738 0.41187 0.0
C1212 C 0.53006 0.85727 0.41608 0.0
C1213 C 0.53894 0.85412 0.41751 0.0
C1214 C 0.52842 0.84696 0.40347 0.0
C1215 C 0.52476 0.85381 0.40893 0.0
C1216 C 0.53719 0.84378 0.40494 0.0
C1217 C 0.58416 0.82813 0.40915 0.0
C1218 C 0.58337 0.81982 0.39495 0.0
C1219 C 0.59534 0.81663 0.4057 0.0
C1220 C 0.59185 0.82316 0.41153 0.0
C1221 C 0.59119 0.81491 0.39732 0.0
C1222 C 0.57984 0.82638 0.40085 0.0
C1223 C 0.58139 0.83549 0.41525 0.0
O1224 O 0.57145 0.85981 0.42406 0.0
O1225 O 0.5681 0.84998 0.43465 0.0
O1226 O 0.5759 0.83339 0.42192 0.0
O1227 O 0.57963 0.84337 0.41155 0.0
H1228 H 0.58904 0.85448 0.4293 0.0
H1229 H 0.60226 0.8605 0.43736 0.0
H1230 H 0.58455 0.87439 0.45598 0.0
H1231 H 0.57135 0.86838 0.44787 0.0
H1232 H 0.52741 0.86256 0.42041 0.0
H1233 H 0.54299 0.85699 0.4229 0.0
H1234 H 0.52449 0.84403 0.39802 0.0
H1235 H 0.53985 0.83855 0.40054 0.0
H1236 H 0.58004 0.81863 0.38853 0.0
H1237 H 0.60147 0.81312 0.40765 0.0
H1238 H 0.59533 0.82448 0.41785 0.0
H1239 H 0.5739 0.83019 0.39888 0.0
C1240 C 0.89673 0.82847 0.18866 0.0
C1241 C 0.89887 0.83726 0.18578 0.0
C1242 C 0.88961 0.84365 0.19788 0.0
C1243 C 0.89532 0.84478 0.19034 0.0
C1244 C 0.88775 0.83484 0.20093 0.0
C1245 C 0.89126 0.82732 0.19633 0.0
U1246 U 0.91163 0.81715 0.17071 0.0
O1247 O 0.91783 0.80357 0.17029 0.0
O1248 O 0.90798 0.80761 0.15989 0.0
C1249 C 0.91337 0.80124 0.16295 0.0
C1250 C 0.89971 0.82046 0.18349 0.0
C1251 C 0.91011 0.79183 0.16218 0.0
C1252 C 0.90015 0.7793 0.16616 0.0
C1253 C 0.90324 0.78819 0.16766 0.0
C1254 C 0.91077 0.77772 0.15378 0.0
C1255 C 0.90379 0.77404 0.15908 0.0
C1256 C 0.91389 0.78648 0.15534 0.0
C1257 C 0.9287 0.83328 0.15856 0.0
C1258 C 0.9377 0.83074 0.14499 0.0
C1259 C 0.938 0.84533 0.15247 0.0
C1260 C 0.93203 0.84213 0.15901 0.0
C1261 C 0.94079 0.83972 0.14537 0.0
C1262 C 0.93163 0.82752 0.15158 0.0
C1263 C 0.92174 0.83066 0.16516 0.0
O1264 O 0.89776 0.82058 0.17482 0.0
O1265 O 0.90794 0.81751 0.18517 0.0
O1266 O 0.92419 0.82516 0.1717 0.0
O1267 O 0.91367 0.82891 0.16189 0.0
H1268 H 0.90313 0.83831 0.17991 0.0
H1269 H 0.89699 0.85148 0.18791 0.0
H1270 H 0.88335 0.83374 0.20668 0.0
H1271 H 0.88953 0.82059 0.19865 0.0
H1272 H 0.89477 0.77663 0.17035 0.0
H1273 H 0.90022 0.79223 0.17297 0.0
H1274 H 0.91382 0.7738 0.1484 0.0
H1275 H 0.91922 0.78916 0.15107 0.0
H1276 H 0.93976 0.82635 0.13951 0.0
H1277 H 0.9403 0.85229 0.15284 0.0
H1278 H 0.92981 0.84667 0.16433 0.0
H1279 H 0.92909 0.82067 0.15111 0.0
C1280 C 0.56935 0.92811 0.86125 0.0
C1281 C 0.56731 0.92101 0.85528 0.0
C1282 C 0.56005 0.91251 0.86752 0.0
C1283 C 0.56263 0.91335 0.85835 0.0
C1284 C 0.56213 0.9197 0.87343 0.0
C1285 C 0.56668 0.9274 0.87031 0.0
U1286 U 0.58685 0.93971 0.84606 0.0
O1287 O 0.58697 0.95318 0.83962 0.0
O1288 O 0.5975 0.94953 0.84949 0.0
C1289 C 0.59427 0.95575 0.84402 0.0
C1290 C 0.57441 0.93621 0.85827 0.0
C1291 C 0.59485 0.96527 0.847 0.0
C1292 C 0.5934 0.97733 0.85817 0.0
C1293 C 0.59188 0.9683 0.85551 0.0
C1294 C 0.60071 0.9803 0.84383 0.0
C1295 C 0.59788 0.98344 0.85236 0.0
C1296 C 0.59919 0.97137 0.84121 0.0
C1297 C 0.59836 0.92329 0.82865 0.0
C1298 C 0.6121 0.92487 0.81968 0.0
C1299 C 0.60333 0.91102 0.819 0.0
C1300 C 0.59709 0.91463 0.82505 0.0
C1301 C 0.61094 0.91603 0.81638 0.0
C1302 C 0.60582 0.9285 0.82584 0.0
C1303 C 0.59215 0.92617 0.83585 0.0
O1304 O 0.58313 0.93613 0.86003 0.0
O1305 O 0.57252 0.9393 0.85014 0.0
O1306 O 0.58547 0.9316 0.83361 0.0
O1307 O 0.5958 0.92808 0.84373 0.0
H1308 H 0.56932 0.92138 0.84825 0.0
H1309 H 0.56102 0.90814 0.85348 0.0
H1310 H 0.56047 0.91933 0.88054 0.0
H1311 H 0.56823 0.93278 0.87504 0.0
H1312 H 0.59107 0.97953 0.86476 0.0
H1313 H 0.58854 0.96369 0.86012 0.0
H1314 H 0.60433 0.98469 0.83923 0.0
H1315 H 0.60162 0.96915 0.83466 0.0
H1316 H 0.61798 0.92879 0.81776 0.0
H1317 H 0.60237 0.90417 0.81655 0.0
H1318 H 0.59141 0.91051 0.82718 0.0
H1319 H 0.60692 0.9352 0.82859 0.0
C1320 C 0.82978 0.81883 0.61142 0.0
C1321 C 0.83854 0.82151 0.60886 0.0
C1322 C 0.8451 0.80967 0.61831 0.0
C1323 C 0.84612 0.81698 0.61229 0.0
C1324 C 0.83631 0.80682 0.62059 0.0
C1325 C 0.82873 0.81139 0.6172 0.0
U1326 U 0.81829 0.83634 0.59623 0.0
O1327 O 0.80456 0.83663 0.59034 0.0
O1328 O 0.80891 0.84739 0.59967 0.0
C1329 C 0.80239 0.84417 0.59454 0.0
C1330 C 0.82173 0.82398 0.60852 0.0
C1331 C 0.79301 0.84528 0.59781 0.0
C1332 C 0.77967 0.84081 0.60646 0.0
C1333 C 0.7887 0.83925 0.60377 0.0
C1334 C 0.77931 0.85434 0.59725 0.0
C1335 C 0.77486 0.84836 0.60313 0.0
C1336 C 0.78825 0.85282 0.59465 0.0
C1337 C 0.83436 0.84735 0.57821 0.0
C1338 C 0.83354 0.86158 0.56996 0.0
C1339 C 0.84552 0.85087 0.56671 0.0
C1340 C 0.84205 0.845 0.57321 0.0
C1341 C 0.84137 0.85926 0.56504 0.0
C1342 C 0.83003 0.85564 0.5765 0.0
C1343 C 0.83167 0.84127 0.58561 0.0
O1344 O 0.82202 0.83271 0.61014 0.0
O1345 O 0.81852 0.82204 0.60046 0.0
O1346 O 0.82608 0.83464 0.58362 0.0
O1347 O 0.83006 0.845 0.59351 0.0
H1348 H 0.8395 0.8272 0.60435 0.0
H1349 H 0.85281 0.81925 0.61028 0.0
H1350 H 0.83529 0.80125 0.62524 0.0
H1351 H 0.82203 0.80922 0.61925 0.0
H1352 H 0.77639 0.83606 0.61096 0.0
H1353 H 0.79227 0.83337 0.60629 0.0
H1354 H 0.77587 0.86027 0.59466 0.0
H1355 H 0.79145 0.85758 0.59008 0.0
H1356 H 0.83019 0.86799 0.5688 0.0
H1357 H 0.85166 0.84895 0.5632 0.0
H1358 H 0.84554 0.83869 0.57451 0.0
H1359 H 0.82409 0.85759 0.58033 0.0
C1360 C 0.939 0.0783 0.3612 0.0
C1361 C 0.93672 0.08702 0.35821 0.0
C1362 C 0.94819 0.09357 0.36814 0.0
C1363 C 0.94126 0.09459 0.36167 0.0
C1364 C 0.95065 0.08481 0.37088 0.0
C1365 C 0.94606 0.07726 0.36746 0.0
U1366 U 0.92159 0.06654 0.34588 0.0
O1367 O 0.9217 0.05291 0.3398 0.0
O1368 O 0.91097 0.05673 0.34938 0.0
C1369 C 0.91435 0.05039 0.34414 0.0
C1370 C 0.93386 0.07028 0.35823 0.0
C1371 C 0.91385 0.04097 0.34737 0.0
C1372 C 0.91518 0.02927 0.35892 0.0
C1373 C 0.91658 0.03825 0.35607 0.0
C1374 C 0.90848 0.02573 0.3444 0.0
C1375 C 0.91108 0.02291 0.3531 0.0
C1376 C 0.90985 0.03462 0.34159 0.0
C1377 C 0.91029 0.08156 0.32722 0.0
C1378 C 0.89524 0.08418 0.32095 0.0
C1379 C 0.90852 0.08949 0.31296 0.0
C1380 C 0.91406 0.08587 0.31968 0.0
C1381 C 0.89902 0.08906 0.3137 0.0
C1382 C 0.90083 0.08045 0.32766 0.0
C1383 C 0.91633 0.07949 0.33492 0.0
O1384 O 0.9251 0.07054 0.35976 0.0
O1385 O 0.93589 0.06708 0.35018 0.0
O1386 O 0.92335 0.07427 0.33327 0.0
O1387 O 0.91257 0.07797 0.34284 0.0
H1388 H 0.93132 0.08797 0.35334 0.0
H1389 H 0.9393 0.10125 0.35934 0.0
H1390 H 0.95591 0.08382 0.37588 0.0
H1391 H 0.94791 0.07058 0.36985 0.0
H1392 H 0.91731 0.02729 0.36564 0.0
H1393 H 0.91966 0.04307 0.36065 0.0
H1394 H 0.90516 0.02109 0.3398 0.0
H1395 H 0.9076 0.0366 0.33491 0.0
H1396 H 0.88797 0.08372 0.32176 0.0
H1397 H 0.91171 0.09296 0.30736 0.0
H1398 H 0.92132 0.08681 0.31917 0.0
H1399 H 0.89773 0.07713 0.3334 0.0
C1400 C 0.67887 0.1884 0.11096 0.0
C1401 C 0.67004 0.18571 0.10871 0.0
C1402 C 0.66379 0.19757 0.11838 0.0
C1403 C 0.66257 0.19024 0.1124 0.0
C1404 C 0.67266 0.20041 0.12037 0.0
C1405 C 0.68012 0.19585 0.11671 0.0
U1406 U 0.69016 0.17078 0.09557 0.0
O1407 O 0.70378 0.17052 0.08945 0.0
O1408 O 0.69969 0.15989 0.099 0.0
C1409 C 0.7061 0.16309 0.09375 0.0
C1410 C 0.68684 0.18327 0.1078 0.0
C1411 C 0.71548 0.16232 0.0971 0.0
C1412 C 0.72805 0.16655 0.10692 0.0
C1413 C 0.71915 0.16799 0.1038 0.0
C1414 C 0.72957 0.15386 0.09667 0.0
C1415 C 0.73328 0.15936 0.10347 0.0
C1416 C 0.7208 0.15535 0.09352 0.0
C1417 C 0.67411 0.15894 0.07818 0.0
C1418 C 0.67729 0.14656 0.0678 0.0
C1419 C 0.66194 0.1521 0.06957 0.0
C1420 C 0.66496 0.15851 0.07578 0.0
C1421 C 0.66805 0.14603 0.0656 0.0
C1422 C 0.68033 0.15299 0.07412 0.0
C1423 C 0.67668 0.16543 0.08527 0.0
O1424 O 0.68668 0.17455 0.10951 0.0
O1425 O 0.68977 0.18515 0.09962 0.0
O1426 O 0.68221 0.17202 0.08301 0.0
O1427 O 0.67836 0.16201 0.09329 0.0
H1428 H 0.66892 0.18 0.10425 0.0
H1429 H 0.65583 0.18797 0.1106 0.0
H1430 H 0.67384 0.20598 0.12497 0.0
H1431 H 0.68689 0.19802 0.11852 0.0
H1432 H 0.73075 0.1709 0.11216 0.0
H1433 H 0.71514 0.17342 0.10665 0.0
H1434 H 0.73347 0.14838 0.09378 0.0
H1435 H 0.7181 0.15094 0.08832 0.0
H1436 H 0.68208 0.14187 0.06482 0.0
H1437 H 0.65479 0.15178 0.06796 0.0
H1438 H 0.66008 0.16303 0.07886 0.0
H1439 H 0.68743 0.15321 0.07594 0.0
C1440 C 0.56904 0.07882 0.64534 0.0
C1441 C 0.57186 0.0876 0.64765 0.0
C1442 C 0.55992 0.09405 0.63822 0.0
C1443 C 0.56735 0.09514 0.6441 0.0
C1444 C 0.55696 0.08525 0.63617 0.0
C1445 C 0.56151 0.07772 0.63967 0.0
U1446 U 0.58677 0.06727 0.66038 0.0
O1447 O 0.58699 0.05372 0.66666 0.0
O1448 O 0.59738 0.05751 0.6567 0.0
C1449 C 0.59421 0.0512 0.6621 0.0
C1450 C 0.57414 0.07078 0.64834 0.0
C1451 C 0.59465 0.04174 0.65892 0.0
C1452 C 0.59351 0.03003 0.64734 0.0
C1453 C 0.59207 0.03901 0.65018 0.0
C1454 C 0.59992 0.02647 0.66198 0.0
C1455 C 0.5975 0.02367 0.65322 0.0
C1456 C 0.59851 0.03537 0.66477 0.0
C1457 C 0.5986 0.08339 0.67783 0.0
C1458 C 0.61126 0.08066 0.68803 0.0
C1459 C 0.6048 0.09567 0.68674 0.0
C1460 C 0.59851 0.09246 0.6805 0.0
C1461 C 0.61128 0.08985 0.69047 0.0
C1462 C 0.60494 0.07743 0.68169 0.0
C1463 C 0.59223 0.08068 0.67068 0.0
O1464 O 0.58285 0.07087 0.64651 0.0
O1465 O 0.57234 0.06778 0.65651 0.0
O1466 O 0.5856 0.07521 0.67295 0.0
O1467 O 0.59573 0.07891 0.66271 0.0
H1468 H 0.57764 0.08861 0.65205 0.0
H1469 H 0.56971 0.10184 0.64591 0.0
H1470 H 0.5513 0.08419 0.63163 0.0
H1471 H 0.55925 0.071 0.6378 0.0
H1472 H 0.59153 0.02806 0.64057 0.0
H1473 H 0.58911 0.04384 0.64553 0.0
H1474 H 0.60313 0.02182 0.66664 0.0
H1475 H 0.60064 0.03735 0.6715 0.0
H1476 H 0.61627 0.07609 0.69081 0.0
H1477 H 0.60473 0.10278 0.68852 0.0
H1478 H 0.59368 0.09715 0.67759 0.0
H1479 H 0.6051 0.07039 0.67967 0.0
C1480 C 0.67861 0.81818 0.39554 0.0
C1481 C 0.66987 0.82007 0.39878 0.0
C1482 C 0.66349 0.80893 0.38843 0.0
C1483 C 0.66236 0.81551 0.3952 0.0
C1484 C 0.67224 0.8069 0.38537 0.0
C1485 C 0.67974 0.81154 0.38886 0.0
U1486 U 0.68997 0.83588 0.41082 0.0
O1487 O 0.70352 0.83602 0.41716 0.0
O1488 O 0.69975 0.84652 0.40733 0.0
C1489 C 0.70604 0.84331 0.41272 0.0
C1490 C 0.68658 0.82333 0.39868 0.0
C1491 C 0.7155 0.84382 0.40953 0.0
C1492 C 0.72728 0.84188 0.39815 0.0
C1493 C 0.71838 0.8403 0.40118 0.0
C1494 C 0.73044 0.85037 0.41179 0.0
C1495 C 0.73333 0.84712 0.40335 0.0
C1496 C 0.72165 0.84871 0.41484 0.0
C1497 C 0.67375 0.84781 0.42808 0.0
C1498 C 0.67643 0.8606 0.43812 0.0
C1499 C 0.66142 0.85408 0.4369 0.0
C1500 C 0.66466 0.84772 0.43075 0.0
C1501 C 0.66723 0.86062 0.44055 0.0
C1502 C 0.67969 0.85422 0.43186 0.0
C1503 C 0.67647 0.84139 0.42099 0.0
O1504 O 0.68646 0.83203 0.3969 0.0
O1505 O 0.68948 0.8215 0.40689 0.0
O1506 O 0.6819 0.83475 0.42331 0.0
O1507 O 0.67832 0.84485 0.41302 0.0
H1508 H 0.66886 0.82518 0.40394 0.0
H1509 H 0.65565 0.81716 0.39768 0.0
H1510 H 0.67326 0.80191 0.38011 0.0
H1511 H 0.68642 0.81002 0.38625 0.0
H1512 H 0.72934 0.83928 0.39162 0.0
H1513 H 0.71373 0.83653 0.39696 0.0
H1514 H 0.73496 0.8543 0.41602 0.0
H1515 H 0.71956 0.85148 0.4213 0.0
H1516 H 0.68099 0.86565 0.44085 0.0
H1517 H 0.6543 0.854 0.43868 0.0
H1518 H 0.65998 0.84285 0.4279 0.0
H1519 H 0.68674 0.8544 0.42984 0.0
C1520 C 0.93921 0.92856 0.1457 0.0
C1521 C 0.94174 0.9217 0.15175 0.0
C1522 C 0.9489 0.9132 0.13945 0.0
C1523 C 0.94662 0.91417 0.14868 0.0
C1524 C 0.94636 0.92017 0.13347 0.0
C1525 C 0.94163 0.92776 0.13658 0.0
U1526 U 0.92126 0.93985 0.1607 0.0
O1527 O 0.92085 0.95336 0.16704 0.0
O1528 O 0.91054 0.9495 0.15702 0.0
C1529 C 0.91364 0.95583 0.16245 0.0
C1530 C 0.93394 0.93652 0.14868 0.0
C1531 C 0.91319 0.96527 0.15925 0.0
C1532 C 0.91473 0.97701 0.14775 0.0
C1533 C 0.9161 0.96802 0.15062 0.0
C1534 C 0.90771 0.9805 0.16212 0.0
C1535 C 0.91048 0.98334 0.15348 0.0
C1536 C 0.90906 0.9716 0.16495 0.0
C1537 C 0.90962 0.92342 0.17803 0.0
C1538 C 0.89716 0.92587 0.18854 0.0
C1539 C 0.90344 0.91086 0.18655 0.0
C1540 C 0.90965 0.91424 0.18034 0.0
C1541 C 0.89708 0.9166 0.19062 0.0
C1542 C 0.90341 0.92929 0.18221 0.0
C1543 C 0.91595 0.92632 0.17092 0.0
O1544 O 0.92524 0.93627 0.1468 0.0
O1545 O 0.93566 0.93964 0.15683 0.0
O1546 O 0.9225 0.93188 0.17324 0.0
O1547 O 0.91244 0.92809 0.16296 0.0
H1548 H 0.93995 0.92214 0.15884 0.0
H1549 H 0.94861 0.90915 0.15362 0.0
H1550 H 0.94778 0.9197 0.12631 0.0
H1551 H 0.93972 0.93297 0.13179 0.0
H1552 H 0.917 0.979 0.14108 0.0
H1553 H 0.91928 0.96323 0.14609 0.0
H1554 H 0.90428 0.98511 0.16666 0.0
H1555 H 0.90667 0.9696 0.17158 0.0
H1556 H 0.89226 0.93038 0.1916 0.0
H1557 H 0.90348 0.90369 0.18806 0.0
H1558 H 0.91439 0.90963 0.17718 0.0
H1559 H 0.90328 0.9364 0.18048 0.0
C1560 C 0.82924 0.18832 0.89584 0.0
C1561 C 0.83804 0.18556 0.89813 0.0
C1562 C 0.84439 0.1976 0.88882 0.0
C1563 C 0.84555 0.19014 0.89462 0.0
C1564 C 0.83558 0.20054 0.88682 0.0
C1565 C 0.82806 0.19591 0.89027 0.0
U1566 U 0.8179 0.17038 0.91072 0.0
O1567 O 0.80437 0.17004 0.91706 0.0
O1568 O 0.80816 0.15976 0.90698 0.0
C1569 C 0.80185 0.16287 0.91242 0.0
C1570 C 0.82124 0.18312 0.89879 0.0
C1571 C 0.7924 0.16252 0.90919 0.0
C1572 C 0.78072 0.16399 0.89762 0.0
C1573 C 0.78972 0.16528 0.9005 0.0
C1574 C 0.77707 0.15733 0.91212 0.0
C1575 C 0.7743 0.15996 0.90341 0.0
C1576 C 0.78598 0.15861 0.91496 0.0
C1577 C 0.83399 0.1586 0.92821 0.0
C1578 C 0.83159 0.14527 0.93758 0.0
C1579 C 0.84589 0.1533 0.9382 0.0
C1580 C 0.8427 0.15948 0.93184 0.0
C1581 C 0.84041 0.14611 0.94105 0.0
C1582 C 0.82836 0.15152 0.93118 0.0
C1583 C 0.83135 0.16495 0.92101 0.0
O1584 O 0.82144 0.17444 0.89689 0.0
O1585 O 0.81824 0.18482 0.90698 0.0
O1586 O 0.82589 0.17159 0.92326 0.0
O1587 O 0.82957 0.16145 0.91304 0.0
H1588 H 0.83909 0.17975 0.90247 0.0
H1589 H 0.85228 0.1878 0.89636 0.0
H1590 H 0.83449 0.20623 0.88234 0.0
H1591 H 0.82132 0.19813 0.88842 0.0
H1592 H 0.77878 0.16614 0.89089 0.0
H1593 H 0.79459 0.16829 0.89592 0.0
H1594 H 0.77239 0.15407 0.91671 0.0
H1595 H 0.78793 0.15633 0.92165 0.0
H1596 H 0.8273 0.1397 0.93967 0.0
H1597 H 0.85274 0.15399 0.94073 0.0
H1598 H 0.84714 0.16487 0.9296 0.0
H1599 H 0.82161 0.15073 0.92842 0.0
C1600 C 0.8618 0.56825 0.92781 0.0
C1601 C 0.85935 0.57105 0.91908 0.0
C1602 C 0.86898 0.55937 0.91246 0.0
C1603 C 0.86292 0.56666 0.91148 0.0
C1604 C 0.87114 0.55638 0.92122 0.0
C1605 C 0.8676 0.56081 0.92882 0.0
U1606 U 0.84673 0.5859 0.93929 0.0
O1607 O 0.84069 0.58633 0.95293 0.0
O1608 O 0.85034 0.59686 0.9487 0.0
C1609 C 0.84507 0.59376 0.95515 0.0
C1610 C 0.85884 0.57333 0.93589 0.0
C1611 C 0.84829 0.59472 0.96454 0.0
C1612 C 0.8574 0.59037 0.9776 0.0
C1613 C 0.85469 0.58894 0.96857 0.0
C1614 C 0.84733 0.60325 0.97854 0.0
C1615 C 0.85366 0.59752 0.98269 0.0
C1616 C 0.8447 0.60188 0.9696 0.0
C1617 C 0.82931 0.59758 0.9231 0.0
C1618 C 0.81919 0.6103 0.92583 0.0
C1619 C 0.82074 0.60408 0.91074 0.0
C1620 C 0.82682 0.59766 0.91398 0.0
C1621 C 0.81697 0.61052 0.91659 0.0
C1622 C 0.8254 0.60386 0.92909 0.0
C1623 C 0.83637 0.59114 0.92583 0.0
O1624 O 0.86063 0.58203 0.93575 0.0
O1625 O 0.85067 0.57151 0.93893 0.0
O1626 O 0.83407 0.58466 0.93146 0.0
O1627 O 0.84441 0.59457 0.92745 0.0
H1628 H 0.85484 0.57675 0.91814 0.0
H1629 H 0.86099 0.56903 0.90482 0.0
H1630 H 0.8758 0.55082 0.92222 0.0
H1631 H 0.86957 0.55855 0.9355 0.0
H1632 H 0.86227 0.58581 0.98065 0.0
H1633 H 0.85754 0.58337 0.96476 0.0
H1634 H 0.84441 0.60888 0.98222 0.0
H1635 H 0.8398 0.60644 0.96661 0.0
H1636 H 0.81636 0.61525 0.93043 0.0
H1637 H 0.81909 0.60413 0.9036 0.0
H1638 H 0.82977 0.59287 0.90927 0.0
H1639 H 0.82729 0.6039 0.93616 0.0
C1640 C 0.36082 0.93921 0.08089 0.0
C1641 C 0.35886 0.93601 0.0896 0.0
C1642 C 0.36824 0.94795 0.0961 0.0
C1643 C 0.36255 0.94037 0.09716 0.0
C1644 C 0.36991 0.95126 0.08737 0.0
C1645 C 0.36623 0.94692 0.07984 0.0
U1646 U 0.34716 0.9217 0.06658 0.0
O1647 O 0.34309 0.9236 0.05237 0.0
O1648 O 0.3531 0.91291 0.05603 0.0
C1649 C 0.34861 0.91716 0.04964 0.0
C1650 C 0.35804 0.93434 0.07271 0.0
C1651 C 0.3495 0.91487 0.04001 0.0
C1652 C 0.35415 0.919 0.02481 0.0
C1653 C 0.352 0.92148 0.03369 0.0
C1654 C 0.35101 0.90333 0.02842 0.0
C1655 C 0.35377 0.90987 0.02207 0.0
C1656 C 0.34898 0.90581 0.03731 0.0
C1657 C 0.32929 0.90755 0.0815 0.0
C1658 C 0.31768 0.89593 0.08002 0.0
C1659 C 0.32142 0.90206 0.09476 0.0
C1660 C 0.32788 0.90765 0.09084 0.0
C1661 C 0.31617 0.8962 0.08943 0.0
C1662 C 0.3242 0.90164 0.07605 0.0
C1663 C 0.33618 0.91381 0.078 0.0
O1664 O 0.36025 0.92575 0.07232 0.0
O1665 O 0.34991 0.93605 0.06954 0.0
O1666 O 0.33372 0.92076 0.07302 0.0
O1667 O 0.34439 0.91081 0.07639 0.0
H1668 H 0.35468 0.93006 0.09052 0.0
H1669 H 0.36103 0.93775 0.10383 0.0
H1670 H 0.37432 0.95702 0.08632 0.0
H1671 H 0.36784 0.94943 0.07315 0.0
H1672 H 0.35639 0.92421 0.02017 0.0
H1673 H 0.35264 0.9285 0.0357 0.0
H1674 H 0.35047 0.89628 0.02654 0.0
H1675 H 0.34715 0.90061 0.04214 0.0
H1676 H 0.31372 0.89146 0.07577 0.0
H1677 H 0.32054 0.9023 0.10203 0.0
H1678 H 0.33178 0.91212 0.09515 0.0
H1679 H 0.32523 0.90147 0.0688 0.0
C1680 C 0.81768 0.61124 0.83075 0.0
C1681 C 0.81766 0.60646 0.83893 0.0
C1682 C 0.80787 0.61798 0.8456 0.0
C1683 C 0.81276 0.60981 0.84633 0.0
C1684 C 0.80789 0.62262 0.83733 0.0
C1685 C 0.81275 0.61928 0.83 0.0
U1686 U 0.83534 0.59728 0.8168 0.0
O1687 O 0.83384 0.59324 0.80244 0.0
O1688 O 0.84419 0.60343 0.80653 0.0
C1689 C 0.84039 0.59875 0.8 0.0
C1690 C 0.82287 0.60835 0.82283 0.0
C1691 C 0.84269 0.60045 0.79049 0.0
C1692 C 0.84272 0.61001 0.77715 0.0
C1693 C 0.8402 0.6085 0.78615 0.0
C1694 C 0.85015 0.5954 0.77675 0.0
C1695 C 0.84781 0.60353 0.77238 0.0
C1696 C 0.84759 0.59389 0.78573 0.0
C1697 C 0.84849 0.57805 0.83072 0.0
C1698 C 0.863 0.57025 0.83088 0.0
C1699 C 0.85145 0.56638 0.84185 0.0
C1700 C 0.84568 0.57276 0.83805 0.0
C1701 C 0.86021 0.56508 0.83839 0.0
C1702 C 0.85716 0.57672 0.82706 0.0
C1703 C 0.84243 0.58546 0.82797 0.0
O1704 O 0.83156 0.61024 0.82293 0.0
O1705 O 0.82099 0.60038 0.81937 0.0
O1706 O 0.83533 0.58363 0.82292 0.0
O1707 O 0.84588 0.59355 0.82664 0.0
H1708 H 0.82148 0.60025 0.83962 0.0
H1709 H 0.81297 0.60613 0.85265 0.0
H1710 H 0.8041 0.62884 0.83648 0.0
H1711 H 0.81271 0.62304 0.8237 0.0
H1712 H 0.84066 0.61624 0.77391 0.0
H1713 H 0.83634 0.61361 0.78971 0.0
H1714 H 0.8541 0.59029 0.7733 0.0
H1715 H 0.84955 0.58764 0.78901 0.0
H1716 H 0.86972 0.56939 0.82807 0.0
H1717 H 0.84915 0.5627 0.84775 0.0
H1718 H 0.83907 0.5738 0.84107 0.0
H1719 H 0.85949 0.5808 0.82144 0.0
C1720 C 0.14697 0.06708 0.58062 0.0
C1721 C 0.14773 0.07038 0.58948 0.0
C1722 C 0.1382 0.05804 0.59489 0.0
C1723 C 0.14335 0.06588 0.59658 0.0
C1724 C 0.13781 0.05456 0.58608 0.0
C1725 C 0.14214 0.05907 0.57901 0.0
U1726 U 0.16132 0.08462 0.56675 0.0
O1727 O 0.16517 0.0829 0.55246 0.0
O1728 O 0.1555 0.09376 0.55641 0.0
C1729 C 0.16004 0.08972 0.54993 0.0
C1730 C 0.15011 0.07223 0.57274 0.0
C1731 C 0.15846 0.09171 0.54033 0.0
C1732 C 0.15145 0.08847 0.52582 0.0
C1733 C 0.15352 0.08588 0.53471 0.0
C1734 C 0.15946 0.1026 0.52807 0.0
C1735 C 0.15433 0.09691 0.52242 0.0
C1736 C 0.16147 0.10002 0.53693 0.0
C1737 C 0.18013 0.09837 0.5806 0.0
C1738 C 0.18875 0.11232 0.57885 0.0
C1739 C 0.1901 0.10352 0.5926 0.0
C1740 C 0.18405 0.09717 0.58915 0.0
C1741 C 0.19241 0.11119 0.58755 0.0
C1742 C 0.1826 0.10592 0.57537 0.0
C1743 C 0.17292 0.09198 0.57803 0.0
O1744 O 0.14823 0.08091 0.57266 0.0
O1745 O 0.15815 0.07029 0.56946 0.0
O1746 O 0.17494 0.08495 0.57298 0.0
O1747 O 0.16474 0.0952 0.57664 0.0
H1748 H 0.15142 0.07656 0.59086 0.0
H1749 H 0.14387 0.06861 0.60336 0.0
H1750 H 0.13387 0.04857 0.58459 0.0
H1751 H 0.14144 0.05648 0.57219 0.0
H1752 H 0.14738 0.08398 0.52171 0.0
H1753 H 0.15105 0.07946 0.53724 0.0
H1754 H 0.1619 0.10907 0.52566 0.0
H1755 H 0.16528 0.10459 0.54121 0.0
H1756 H 0.19041 0.11826 0.5749 0.0
H1757 H 0.19278 0.10259 0.59936 0.0
H1758 H 0.18217 0.09145 0.59332 0.0
H1759 H 0.17959 0.107 0.56878 0.0
C1760 C 0.18873 0.89503 0.82815 0.0
C1761 C 0.19144 0.90105 0.83496 0.0
C1762 C 0.1983 0.88863 0.84352 0.0
C1763 C 0.19626 0.89791 0.8425 0.0
C1764 C 0.19559 0.88266 0.8366 0.0
C1765 C 0.1909 0.88584 0.82901 0.0
U1766 U 0.17135 0.91055 0.81668 0.0
O1767 O 0.17125 0.91674 0.8031 0.0
O1768 O 0.16051 0.90721 0.80702 0.0
C1769 C 0.16381 0.9125 0.80069 0.0
C1770 C 0.18356 0.8981 0.82016 0.0
C1771 C 0.16308 0.90935 0.79124 0.0
C1772 C 0.16549 0.89847 0.77907 0.0
C1773 C 0.16694 0.90126 0.78807 0.0
C1774 C 0.15645 0.91188 0.77643 0.0
C1775 C 0.16021 0.90378 0.77315 0.0
C1776 C 0.15788 0.91461 0.78534 0.0
C1777 C 0.16003 0.92861 0.83226 0.0
C1778 C 0.14551 0.93629 0.8309 0.0
C1779 C 0.15573 0.94014 0.84314 0.0
C1780 C 0.16199 0.93385 0.83991 0.0
C1781 C 0.1474 0.94129 0.83875 0.0
C1782 C 0.15182 0.93 0.82763 0.0
C1783 C 0.16627 0.9212 0.82997 0.0
O1784 O 0.1748 0.89656 0.82043 0.0
O1785 O 0.18559 0.90615 0.81696 0.0
O1786 O 0.17305 0.92313 0.82455 0.0
O1787 O 0.16258 0.91328 0.82834 0.0
H1788 H 0.18985 0.90819 0.83447 0.0
H1789 H 0.19839 0.90283 0.84748 0.0
H1790 H 0.19684 0.87547 0.83712 0.0
H1791 H 0.18885 0.88107 0.82383 0.0
H1792 H 0.16851 0.89223 0.77673 0.0
H1793 H 0.17097 0.89709 0.79255 0.0
H1794 H 0.15224 0.91606 0.77213 0.0
H1795 H 0.15477 0.92083 0.78767 0.0
H1796 H 0.13905 0.93703 0.82751 0.0
H1797 H 0.15724 0.94383 0.84929 0.0
H1798 H 0.16824 0.93282 0.84362 0.0
H1799 H 0.15017 0.92599 0.82172 0.0
C1800 C 0.64648 0.43838 0.42791 0.0
C1801 C 0.6488 0.43553 0.41915 0.0
C1802 C 0.6395 0.44753 0.41263 0.0
C1803 C 0.64532 0.44005 0.41158 0.0
C1804 C 0.63745 0.45053 0.42141 0.0
C1805 C 0.64088 0.44597 0.42897 0.0
U1806 U 0.66148 0.42063 0.43934 0.0
O1807 O 0.66759 0.42021 0.45295 0.0
O1808 O 0.65787 0.40973 0.4488 0.0
C1809 C 0.66315 0.41284 0.45524 0.0
C1810 C 0.64942 0.43327 0.43596 0.0
C1811 C 0.65974 0.41216 0.4646 0.0
C1812 C 0.64985 0.41656 0.47705 0.0
C1813 C 0.65296 0.41782 0.46813 0.0
C1814 C 0.66028 0.40405 0.47889 0.0
C1815 C 0.65347 0.4096 0.48245 0.0
C1816 C 0.66337 0.40532 0.47007 0.0
C1817 C 0.67871 0.40894 0.42289 0.0
C1818 C 0.6891 0.39639 0.42534 0.0
C1819 C 0.68694 0.40249 0.41028 0.0
C1820 C 0.68088 0.40883 0.41368 0.0
C1821 C 0.69101 0.39616 0.41604 0.0
C1822 C 0.68291 0.40275 0.42877 0.0
C1823 C 0.6717 0.41535 0.4258 0.0
O1824 O 0.64758 0.42457 0.43582 0.0
O1825 O 0.6576 0.43504 0.439 0.0
O1826 O 0.67408 0.4218 0.43143 0.0
O1827 O 0.66367 0.41192 0.4275 0.0
H1828 H 0.65316 0.42972 0.41817 0.0
H1829 H 0.64713 0.43765 0.4049 0.0
H1830 H 0.63296 0.45622 0.42243 0.0
H1831 H 0.63901 0.44826 0.43567 0.0
H1832 H 0.64462 0.42094 0.47971 0.0
H1833 H 0.65006 0.42314 0.46401 0.0
H1834 H 0.66319 0.39869 0.48295 0.0
H1835 H 0.6686 0.40088 0.46747 0.0
H1836 H 0.69218 0.39152 0.42987 0.0
H1837 H 0.68835 0.40243 0.40309 0.0
H1838 H 0.6777 0.41355 0.40906 0.0
H1839 H 0.68127 0.40274 0.43591 0.0
C1840 C 0.8186 0.39574 0.67834 0.0
C1841 C 0.82122 0.39829 0.66959 0.0
C1842 C 0.80963 0.38846 0.66311 0.0
C1843 C 0.81679 0.39467 0.66204 0.0
C1844 C 0.8068 0.3862 0.67189 0.0
C1845 C 0.81129 0.38978 0.67944 0.0
U1846 U 0.83649 0.41075 0.68962 0.0
O1847 O 0.83691 0.41712 0.70311 0.0
O1848 O 0.8472 0.40709 0.69927 0.0
C1849 C 0.84412 0.41253 0.70558 0.0
C1850 C 0.82376 0.39875 0.68635 0.0
C1851 C 0.84461 0.40936 0.71504 0.0
C1852 C 0.84331 0.39783 0.72679 0.0
C1853 C 0.84186 0.40068 0.7178 0.0
C1854 C 0.85009 0.41234 0.73025 0.0
C1855 C 0.84748 0.40365 0.73311 0.0
C1856 C 0.84866 0.41513 0.72136 0.0
C1857 C 0.84816 0.42805 0.67322 0.0
C1858 C 0.86072 0.43843 0.67577 0.0
C1859 C 0.85421 0.43686 0.6608 0.0
C1860 C 0.84801 0.43059 0.66411 0.0
C1861 C 0.86066 0.44076 0.66655 0.0
C1862 C 0.85449 0.43206 0.67911 0.0
C1863 C 0.84182 0.42093 0.67607 0.0
O1864 O 0.83245 0.39687 0.6862 0.0
O1865 O 0.82203 0.40696 0.68929 0.0
O1866 O 0.83526 0.42326 0.6816 0.0
O1867 O 0.84532 0.41297 0.67785 0.0
H1868 H 0.82683 0.40292 0.66859 0.0
H1869 H 0.81903 0.39663 0.65535 0.0
H1870 H 0.80135 0.38141 0.67292 0.0
H1871 H 0.80918 0.38772 0.68614 0.0
H1872 H 0.84117 0.39112 0.72878 0.0
H1873 H 0.83875 0.39608 0.71302 0.0
H1874 H 0.85346 0.41694 0.73485 0.0
H1875 H 0.85093 0.42181 0.71935 0.0
H1876 H 0.86571 0.44135 0.68028 0.0
H1877 H 0.85408 0.43856 0.65367 0.0
H1878 H 0.84319 0.42756 0.65948 0.0
H1879 H 0.8547 0.43014 0.68617 0.0
C1880 C 0.68825 0.61242 0.17822 0.0
C1881 C 0.6897 0.6071 0.17048 0.0
C1882 C 0.6981 0.61946 0.1634 0.0
C1883 C 0.69464 0.61057 0.16315 0.0
C1884 C 0.69658 0.62473 0.17116 0.0
C1885 C 0.69174 0.62123 0.17849 0.0
U1886 U 0.67108 0.59648 0.18982 0.0
O1887 O 0.67144 0.5903 0.2034 0.0
O1888 O 0.66052 0.59974 0.19977 0.0
C1889 C 0.66404 0.5945 0.20602 0.0
C1890 C 0.6831 0.60906 0.1861 0.0
C1891 C 0.66356 0.59764 0.21547 0.0
C1892 C 0.66486 0.60911 0.22725 0.0
C1893 C 0.66628 0.60632 0.21826 0.0
C1894 C 0.65817 0.59456 0.23067 0.0
C1895 C 0.66074 0.60325 0.23355 0.0
C1896 C 0.65958 0.59181 0.22176 0.0
C1897 C 0.65964 0.57789 0.17492 0.0
C1898 C 0.64452 0.57167 0.17258 0.0
C1899 C 0.65766 0.56378 0.16681 0.0
C1900 C 0.6633 0.57042 0.17041 0.0
C1901 C 0.64818 0.56455 0.16744 0.0
C1902 C 0.65021 0.57831 0.17631 0.0
C1903 C 0.66571 0.58559 0.17687 0.0
O1904 O 0.67432 0.61048 0.18589 0.0
O1905 O 0.68528 0.60099 0.18914 0.0
O1906 O 0.67283 0.58394 0.18195 0.0
O1907 O 0.66195 0.59349 0.17848 0.0
H1908 H 0.68702 0.60029 0.1701 0.0
H1909 H 0.69561 0.60638 0.15722 0.0
H1910 H 0.69922 0.63155 0.17159 0.0
H1911 H 0.6907 0.62544 0.1844 0.0
H1912 H 0.66697 0.61583 0.22928 0.0
H1913 H 0.66935 0.61095 0.21348 0.0
H1914 H 0.65484 0.58992 0.23525 0.0
H1915 H 0.65734 0.58513 0.21973 0.0
H1916 H 0.63726 0.57247 0.17322 0.0
H1917 H 0.66074 0.55825 0.16312 0.0
H1918 H 0.67053 0.56993 0.16927 0.0
H1919 H 0.6472 0.58399 0.17981 0.0
C1920 C 0.58004 0.64374 0.93561 0.0
C1921 C 0.58883 0.64581 0.93267 0.0
C1922 C 0.5952 0.63686 0.94498 0.0
C1923 C 0.59635 0.64238 0.9373 0.0
C1924 C 0.58638 0.63503 0.94804 0.0
C1925 C 0.57887 0.63841 0.94337 0.0
U1926 U 0.56869 0.65891 0.91796 0.0
O1927 O 0.55856 0.6556 0.90759 0.0
O1928 O 0.55535 0.66565 0.91809 0.0
C1929 C 0.55247 0.66111 0.91101 0.0
C1930 C 0.57202 0.6468 0.93053 0.0
C1931 C 0.54296 0.65803 0.91103 0.0
C1932 C 0.53147 0.64623 0.91007 0.0
C1933 C 0.54049 0.64887 0.91162 0.0
C1934 C 0.5273 0.6619 0.90784 0.0
C1935 C 0.52482 0.65271 0.90787 0.0
C1936 C 0.53625 0.66451 0.90936 0.0
C1937 C 0.58459 0.67633 0.90603 0.0
C1938 C 0.58276 0.68479 0.89203 0.0
C1939 C 0.59549 0.6879 0.90191 0.0
C1940 C 0.59246 0.68128 0.9079 0.0
C1941 C 0.59072 0.68965 0.8939 0.0
C1942 C 0.57965 0.67818 0.89811 0.0
C1943 C 0.58218 0.66899 0.91229 0.0
O1944 O 0.56918 0.65503 0.93234 0.0
O1945 O 0.57205 0.64496 0.92183 0.0
O1946 O 0.58011 0.66112 0.9087 0.0
O1947 O 0.57707 0.67117 0.91923 0.0
H1948 H 0.58988 0.64997 0.92673 0.0
H1949 H 0.60307 0.64401 0.93486 0.0
H1950 H 0.58529 0.63076 0.95389 0.0
H1951 H 0.57213 0.63675 0.94573 0.0
H1952 H 0.52981 0.6391 0.91017 0.0
H1953 H 0.54556 0.64374 0.91291 0.0
H1954 H 0.52236 0.66712 0.90644 0.0
H1955 H 0.538 0.67161 0.90889 0.0
H1956 H 0.57904 0.68602 0.88584 0.0
H1957 H 0.60172 0.69148 0.9034 0.0
H1958 H 0.59639 0.67989 0.91393 0.0
H1959 H 0.57356 0.67441 0.89656 0.0
C1960 C 0.61549 0.32889 0.18622 0.0
C1961 C 0.61501 0.33775 0.18285 0.0
C1962 C 0.6234 0.34333 0.19595 0.0
C1963 C 0.61895 0.3449 0.18766 0.0
C1964 C 0.62357 0.3345 0.19943 0.0
C1965 C 0.61968 0.32735 0.19459 0.0
U1966 U 0.59982 0.31806 0.16846 0.0
O1967 O 0.60292 0.30796 0.158 0.0
O1968 O 0.59288 0.30484 0.16853 0.0
C1969 C 0.59731 0.30194 0.16138 0.0
C1970 C 0.6121 0.3211 0.18096 0.0
C1971 C 0.60024 0.29241 0.16134 0.0
C1972 C 0.61173 0.2806 0.16219 0.0
C1973 C 0.60915 0.2897 0.16329 0.0
C1974 C 0.59651 0.27691 0.15736 0.0
C1975 C 0.60544 0.27411 0.15913 0.0
C1976 C 0.59396 0.28592 0.15848 0.0
C1977 C 0.58235 0.3339 0.15673 0.0
C1978 C 0.57463 0.33287 0.14222 0.0
C1979 C 0.56979 0.3439 0.15334 0.0
C1980 C 0.57648 0.34089 0.15925 0.0
C1981 C 0.56886 0.34 0.14474 0.0
C1982 C 0.58131 0.32977 0.14822 0.0
C1983 C 0.58979 0.33162 0.16294 0.0
O1984 O 0.60383 0.31839 0.18283 0.0
O1985 O 0.61385 0.32122 0.17225 0.0
O1986 O 0.59764 0.32956 0.1593 0.0
O1987 O 0.58767 0.32657 0.16993 0.0
H1988 H 0.61173 0.33912 0.17644 0.0
H1989 H 0.61855 0.35167 0.18488 0.0
H1990 H 0.62694 0.33307 0.20578 0.0
H1991 H 0.6201 0.32056 0.19731 0.0
H1992 H 0.61864 0.27867 0.16369 0.0
H1993 H 0.61413 0.29461 0.16549 0.0
H1994 H 0.5915 0.27219 0.15482 0.0
H1995 H 0.58708 0.28789 0.15683 0.0
H1996 H 0.57403 0.32979 0.1356 0.0
H1997 H 0.56555 0.34952 0.15538 0.0
H1998 H 0.57723 0.3442 0.16575 0.0
H1999 H 0.58577 0.32435 0.14615 0.0
C2000 C 0.92797 0.3642 0.43603 0.0
C2001 C 0.9192 0.36257 0.43272 0.0
C2002 C 0.91267 0.37084 0.44544 0.0
C2003 C 0.91163 0.36588 0.43736 0.0
C2004 C 0.92145 0.37222 0.44885 0.0
C2005 C 0.92902 0.36895 0.44417 0.0
U2006 U 0.93949 0.34896 0.41861 0.0
O2007 O 0.94951 0.35202 0.40806 0.0
O2008 O 0.95283 0.34223 0.41876 0.0
C2009 C 0.95557 0.34645 0.41143 0.0
C2010 C 0.93608 0.36122 0.431 0.0
C2011 C 0.96514 0.34927 0.41095 0.0
C2012 C 0.97737 0.36013 0.41302 0.0
C2013 C 0.96834 0.35749 0.4145 0.0
C2014 C 0.98001 0.34636 0.40455 0.0
C2015 C 0.98322 0.35466 0.40785 0.0
C2016 C 0.97109 0.34369 0.40612 0.0
C2017 C 0.92344 0.33133 0.40722 0.0
C2018 C 0.92459 0.3229 0.39314 0.0
C2019 C 0.91285 0.31925 0.40399 0.0
C2020 C 0.91602 0.32601 0.40971 0.0
C2021 C 0.91704 0.31764 0.39563 0.0
C2022 C 0.92781 0.3297 0.39893 0.0
C2023 C 0.92593 0.33881 0.41326 0.0
O2024 O 0.93907 0.35308 0.43293 0.0
O2025 O 0.93606 0.36295 0.42228 0.0
O2026 O 0.92799 0.34658 0.40948 0.0
O2027 O 0.93109 0.33676 0.4202 0.0
H2028 H 0.91822 0.35883 0.42649 0.0
H2029 H 0.90495 0.36456 0.43463 0.0
H2030 H 0.9225 0.37605 0.455 0.0
H2031 H 0.93572 0.37026 0.44684 0.0
H2032 H 0.9797 0.36657 0.41564 0.0
H2033 H 0.96383 0.36191 0.41822 0.0
H2034 H 0.98439 0.34197 0.40065 0.0
H2035 H 0.96875 0.33733 0.40333 0.0
H2036 H 0.92792 0.3218 0.38671 0.0
H2037 H 0.9069 0.31546 0.40601 0.0
H2038 H 0.91252 0.32724 0.41604 0.0
H2039 H 0.93356 0.33376 0.39689 0.0
C2040 C 0.89356 0.67789 0.68635 0.0
C2041 C 0.89522 0.66911 0.68314 0.0
C2042 C 0.88666 0.66272 0.69573 0.0
C2043 C 0.89178 0.6616 0.68777 0.0
C2044 C 0.88528 0.67151 0.69908 0.0
C2045 C 0.88867 0.67903 0.6944 0.0
U2046 U 0.90856 0.68895 0.66844 0.0
O2047 O 0.90537 0.69896 0.65792 0.0
O2048 O 0.91555 0.70215 0.6683 0.0
C2049 C 0.91111 0.70495 0.66112 0.0
C2050 C 0.89661 0.68592 0.68124 0.0
C2051 C 0.90828 0.71451 0.66084 0.0
C2052 C 0.89769 0.72678 0.66388 0.0
C2053 C 0.90042 0.71774 0.66512 0.0
C2054 C 0.91066 0.72935 0.65419 0.0
C2055 C 0.9027 0.73259 0.65823 0.0
C2056 C 0.91342 0.72043 0.65552 0.0
C2057 C 0.92524 0.67203 0.65663 0.0
C2058 C 0.93577 0.67411 0.64414 0.0
C2059 C 0.9351 0.65979 0.65208 0.0
C2060 C 0.92832 0.66316 0.65765 0.0
C2061 C 0.93896 0.66522 0.64532 0.0
C2062 C 0.92895 0.67754 0.64982 0.0
C2063 C 0.91811 0.67507 0.66284 0.0
O2064 O 0.90492 0.68866 0.68289 0.0
O2065 O 0.89459 0.68595 0.67258 0.0
O2066 O 0.91029 0.67736 0.65927 0.0
O2067 O 0.92062 0.68029 0.66958 0.0
H2068 H 0.89905 0.66807 0.67698 0.0
H2069 H 0.8931 0.65491 0.6851 0.0
H2070 H 0.88134 0.6726 0.70516 0.0
H2071 H 0.88734 0.68575 0.69699 0.0
H2072 H 0.89153 0.72913 0.66707 0.0
H2073 H 0.89633 0.71326 0.66923 0.0
H2074 H 0.91469 0.7337 0.6499 0.0
H2075 H 0.91951 0.71807 0.65217 0.0
H2076 H 0.93864 0.67841 0.63895 0.0
H2077 H 0.93729 0.65286 0.65303 0.0
H2078 H 0.92548 0.65881 0.66282 0.0
H2079 H 0.92661 0.68442 0.64893 0.0
C2080 C 0.5808 0.36312 0.57021 0.0
C2081 C 0.58965 0.36206 0.57353 0.0
C2082 C 0.59568 0.37027 0.56053 0.0
C2083 C 0.59701 0.36564 0.56875 0.0
C2084 C 0.58684 0.37107 0.55711 0.0
C2085 C 0.57947 0.36755 0.56193 0.0
U2086 U 0.56949 0.34788 0.58799 0.0
O2087 O 0.55944 0.3512 0.59844 0.0
O2088 O 0.5561 0.34125 0.58789 0.0
C2089 C 0.55337 0.3456 0.59515 0.0
C2090 C 0.57285 0.35996 0.5754 0.0
C2091 C 0.54382 0.34846 0.59556 0.0
C2092 C 0.53139 0.35878 0.59229 0.0
C2093 C 0.54045 0.3561 0.59102 0.0
C2094 C 0.52912 0.34621 0.60254 0.0
C2095 C 0.52571 0.35393 0.59822 0.0
C2096 C 0.53805 0.34349 0.60119 0.0
C2097 C 0.58487 0.33041 0.60027 0.0
C2098 C 0.58232 0.32231 0.61438 0.0
C2099 C 0.59517 0.31851 0.60492 0.0
C2100 C 0.59258 0.32512 0.59872 0.0
C2101 C 0.59012 0.3171 0.61282 0.0
C2102 C 0.57965 0.3289 0.60808 0.0
C2103 C 0.58286 0.33771 0.5938 0.0
O2104 O 0.57 0.35174 0.57359 0.0
O2105 O 0.57292 0.3618 0.5841 0.0
O2106 O 0.58093 0.34567 0.59724 0.0
O2107 O 0.57779 0.33555 0.58683 0.0
H2108 H 0.59085 0.3586 0.57987 0.0
H2109 H 0.60376 0.3648 0.57149 0.0
H2110 H 0.58559 0.37463 0.55083 0.0
H2111 H 0.5727 0.36842 0.55925 0.0
H2112 H 0.52891 0.36477 0.58888 0.0
H2113 H 0.54483 0.36004 0.58666 0.0
H2114 H 0.52486 0.34229 0.60705 0.0
H2115 H 0.54053 0.33757 0.60473 0.0
H2116 H 0.57838 0.32134 0.62047 0.0
H2117 H 0.60128 0.31465 0.60367 0.0
H2118 H 0.59672 0.32624 0.59278 0.0
H2119 H 0.57367 0.33293 0.60939 0.0
C2120 C 0.89367 0.32874 0.81956 0.0
C2121 C 0.89528 0.33755 0.82276 0.0
C2122 C 0.88668 0.34387 0.81013 0.0
C2123 C 0.8918 0.34503 0.8181 0.0
C2124 C 0.88533 0.33506 0.80682 0.0
C2125 C 0.88877 0.32757 0.81152 0.0
U2126 U 0.909 0.31734 0.8371 0.0
O2127 O 0.90578 0.30762 0.84789 0.0
O2128 O 0.91539 0.30385 0.83717 0.0
C2129 C 0.91119 0.30137 0.84461 0.0
C2130 C 0.89673 0.32071 0.82467 0.0
C2131 C 0.90817 0.2919 0.84538 0.0
C2132 C 0.89851 0.27913 0.84145 0.0
C2133 C 0.90129 0.28813 0.84001 0.0
C2134 C 0.90946 0.27771 0.85356 0.0
C2135 C 0.90249 0.27391 0.84835 0.0
C2136 C 0.91229 0.28659 0.85206 0.0
C2137 C 0.92656 0.33309 0.84886 0.0
C2138 C 0.93344 0.33247 0.8638 0.0
C2139 C 0.93832 0.34376 0.85296 0.0
C2140 C 0.93226 0.34031 0.84662 0.0
C2141 C 0.93881 0.33999 0.86164 0.0
C2142 C 0.92731 0.32901 0.85743 0.0
C2143 C 0.9193 0.33076 0.84247 0.0
O2144 O 0.90488 0.31771 0.82276 0.0
O2145 O 0.89502 0.32082 0.8334 0.0
O2146 O 0.91132 0.329 0.84597 0.0
O2147 O 0.92146 0.32545 0.83568 0.0
H2148 H 0.8991 0.33862 0.82892 0.0
H2149 H 0.89309 0.35174 0.82075 0.0
H2150 H 0.8814 0.33392 0.80075 0.0
H2151 H 0.88746 0.32084 0.80894 0.0
H2152 H 0.89311 0.27634 0.83734 0.0
H2153 H 0.89802 0.29215 0.83482 0.0
H2154 H 0.91272 0.27381 0.85884 0.0
H2155 H 0.91764 0.28936 0.85624 0.0
H2156 H 0.93371 0.32954 0.87051 0.0
H2157 H 0.94239 0.3496 0.85122 0.0
H2158 H 0.93174 0.34356 0.84007 0.0
H2159 H 0.92294 0.32344 0.85929 0.0
C2160 C 0.92729 0.64327 0.07048 0.0
C2161 C 0.91841 0.64423 0.07374 0.0
C2162 C 0.91257 0.63571 0.06083 0.0
C2163 C 0.91113 0.64047 0.06896 0.0
C2164 C 0.92145 0.63502 0.05747 0.0
C2165 C 0.92873 0.63875 0.06227 0.0
U2166 U 0.93842 0.65881 0.08817 0.0
O2167 O 0.94839 0.65563 0.09874 0.0
O2168 O 0.95182 0.6654 0.08806 0.0
C2169 C 0.95451 0.66116 0.0954 0.0
C2170 C 0.93517 0.64657 0.07569 0.0
C2171 C 0.96403 0.65823 0.09591 0.0
C2172 C 0.97668 0.64846 0.0919 0.0
C2173 C 0.96763 0.65118 0.09065 0.0
C2174 C 0.97848 0.65983 0.10356 0.0
C2175 C 0.98213 0.65268 0.0985 0.0
C2176 C 0.96956 0.66258 0.10225 0.0
C2177 C 0.9228 0.6763 0.10021 0.0
C2178 C 0.92476 0.68427 0.1145 0.0
C2179 C 0.91239 0.68825 0.1045 0.0
C2180 C 0.91521 0.68167 0.09837 0.0
C2181 C 0.91707 0.68954 0.11265 0.0
C2182 C 0.92767 0.67771 0.10827 0.0
C2183 C 0.92497 0.66898 0.09382 0.0
O2184 O 0.93797 0.6548 0.07381 0.0
O2185 O 0.93507 0.64483 0.0844 0.0
O2186 O 0.92692 0.66105 0.09733 0.0
O2187 O 0.93009 0.67112 0.08688 0.0
H2188 H 0.91713 0.64776 0.08003 0.0
H2189 H 0.90436 0.64128 0.07166 0.0
H2190 H 0.92281 0.63137 0.05127 0.0
H2191 H 0.93553 0.63795 0.05964 0.0
H2192 H 0.97935 0.64292 0.08791 0.0
H2193 H 0.96345 0.64773 0.08572 0.0
H2194 H 0.98255 0.66328 0.1086 0.0
H2195 H 0.9669 0.66806 0.10634 0.0
H2196 H 0.92843 0.68515 0.12079 0.0
H2197 H 0.90636 0.69214 0.10301 0.0
H2198 H 0.91133 0.68063 0.09224 0.0
H2199 H 0.93356 0.67362 0.10982 0.0
C2200 C 0.6141 0.67728 0.32063 0.0
C2201 C 0.6126 0.66842 0.32369 0.0
C2202 C 0.62116 0.6624 0.31089 0.0
C2203 C 0.61612 0.66105 0.31888 0.0
C2204 C 0.62238 0.67127 0.30772 0.0
C2205 C 0.61891 0.67863 0.31256 0.0
U2206 U 0.59897 0.6885 0.33855 0.0
O2207 O 0.60236 0.69865 0.34887 0.0
O2208 O 0.59221 0.70181 0.33846 0.0
C2209 C 0.5968 0.70472 0.34551 0.0
C2210 C 0.61101 0.68519 0.32588 0.0
C2211 C 0.59986 0.71423 0.34542 0.0
C2212 C 0.61158 0.72584 0.34494 0.0
C2213 C 0.6089 0.71677 0.34387 0.0
C2214 C 0.59619 0.72987 0.34888 0.0
C2215 C 0.60526 0.73249 0.34757 0.0
C2216 C 0.59355 0.72087 0.3478 0.0
C2217 C 0.58136 0.67258 0.35031 0.0
C2218 C 0.57294 0.67384 0.36441 0.0
C2219 C 0.56918 0.66209 0.35362 0.0
C2220 C 0.57598 0.66518 0.34788 0.0
C2221 C 0.56759 0.66634 0.36197 0.0
C2222 C 0.57976 0.67698 0.35859 0.0
C2223 C 0.58881 0.67505 0.34418 0.0
O2224 O 0.60278 0.68807 0.32413 0.0
O2225 O 0.61289 0.68505 0.33457 0.0
O2226 O 0.59665 0.67712 0.34784 0.0
O2227 O 0.5867 0.68013 0.33721 0.0
H2228 H 0.60884 0.6672 0.32986 0.0
H2229 H 0.61493 0.65429 0.32142 0.0
H2230 H 0.62625 0.67254 0.30163 0.0
H2231 H 0.62012 0.68542 0.31009 0.0
H2232 H 0.6186 0.72763 0.3438 0.0
H2233 H 0.61391 0.71174 0.34204 0.0
H2234 H 0.59116 0.73472 0.35107 0.0
H2235 H 0.58656 0.71905 0.34913 0.0
H2236 H 0.57186 0.67723 0.37082 0.0
H2237 H 0.56532 0.65618 0.35163 0.0
H2238 H 0.57716 0.66164 0.34157 0.0
H2239 H 0.58387 0.68272 0.36059 0.0
C2240 C 0.93659 0.57923 0.64211 0.0
C2241 C 0.93651 0.58741 0.64695 0.0
C2242 C 0.94652 0.59428 0.63576 0.0
C2243 C 0.94147 0.59486 0.64382 0.0
C2244 C 0.94652 0.58609 0.63094 0.0
C2245 C 0.94163 0.57864 0.63411 0.0
U2246 U 0.9191 0.56793 0.65756 0.0
O2247 O 0.90849 0.55799 0.65436 0.0
O2248 O 0.91915 0.55456 0.66417 0.0
C2249 C 0.91182 0.55188 0.6599 0.0
C2250 C 0.93143 0.57127 0.6452 0.0
C2251 C 0.91131 0.54233 0.65709 0.0
C2252 C 0.91368 0.52991 0.64649 0.0
C2253 C 0.91494 0.53904 0.64894 0.0
C2254 C 0.90529 0.5274 0.66033 0.0
C2255 C 0.90882 0.524 0.65219 0.0
C2256 C 0.90653 0.53643 0.66273 0.0
C2257 C 0.90765 0.58373 0.67527 0.0
C2258 C 0.89389 0.58151 0.68404 0.0
C2259 C 0.90304 0.59495 0.68629 0.0
C2260 C 0.90914 0.59192 0.67979 0.0
C2261 C 0.89533 0.58983 0.68837 0.0
C2262 C 0.90007 0.57843 0.67752 0.0
C2263 C 0.91384 0.58139 0.66787 0.0
O2264 O 0.93339 0.56827 0.65333 0.0
O2265 O 0.92268 0.57148 0.64356 0.0
O2266 O 0.91011 0.57949 0.66003 0.0
O2267 O 0.92071 0.57613 0.6699 0.0
H2268 H 0.9326 0.58802 0.65312 0.0
H2269 H 0.94126 0.60112 0.64762 0.0
H2270 H 0.95039 0.58542 0.62475 0.0
H2271 H 0.94178 0.57239 0.63029 0.0
H2272 H 0.91652 0.52748 0.6402 0.0
H2273 H 0.91863 0.54351 0.64447 0.0
H2274 H 0.90138 0.52312 0.66481 0.0
H2275 H 0.9036 0.53885 0.669 0.0
H2276 H 0.88791 0.57754 0.68554 0.0
H2277 H 0.90418 0.60144 0.68949 0.0
H2278 H 0.91492 0.59611 0.6781 0.0
H2279 H 0.89881 0.57209 0.67406 0.0
C2280 C 0.67762 0.68671 0.89279 0.0
C2281 C 0.6688 0.68338 0.89397 0.0
C2282 C 0.66265 0.69628 0.88569 0.0
C2283 C 0.66139 0.68811 0.89043 0.0
C2284 C 0.67148 0.69972 0.88478 0.0
C2285 C 0.67889 0.69496 0.88828 0.0
U2286 U 0.68874 0.66896 0.90803 0.0
O2287 O 0.69871 0.65839 0.90478 0.0
O2288 O 0.70201 0.66886 0.91485 0.0
C2289 C 0.70472 0.66159 0.91052 0.0
C2290 C 0.68559 0.68155 0.89591 0.0
C2291 C 0.71431 0.66105 0.90792 0.0
C2292 C 0.72716 0.66429 0.89812 0.0
C2293 C 0.71795 0.66543 0.90031 0.0
C2294 C 0.72901 0.65451 0.91113 0.0
C2295 C 0.73278 0.65883 0.90356 0.0
C2296 C 0.7199 0.65562 0.91327 0.0
C2297 C 0.67304 0.65701 0.92537 0.0
C2298 C 0.6758 0.64328 0.93401 0.0
C2299 C 0.66215 0.65203 0.93655 0.0
C2300 C 0.66488 0.65823 0.93001 0.0
C2301 C 0.66752 0.64448 0.93852 0.0
C2302 C 0.67859 0.64957 0.92748 0.0
C2303 C 0.6752 0.66341 0.91809 0.0
O2304 O 0.68844 0.68335 0.90414 0.0
O2305 O 0.68551 0.67285 0.89406 0.0
O2306 O 0.67715 0.65989 0.91016 0.0
O2307 O 0.68037 0.6703 0.92027 0.0
H2308 H 0.66765 0.67707 0.89751 0.0
H2309 H 0.65466 0.68536 0.89139 0.0
H2310 H 0.67269 0.70595 0.88114 0.0
H2311 H 0.68565 0.69764 0.88732 0.0
H2312 H 0.72989 0.66772 0.89225 0.0
H2313 H 0.7137 0.66964 0.89608 0.0
H2314 H 0.73308 0.65012 0.91535 0.0
H2315 H 0.71719 0.65212 0.91911 0.0
H2316 H 0.67998 0.63743 0.93543 0.0
H2317 H 0.65568 0.65298 0.93988 0.0
H2318 H 0.66051 0.6639 0.92844 0.0
H2319 H 0.68493 0.64854 0.92394 0.0
C2320 C 0.57198 0.42706 0.1426 0.0
C2321 C 0.57417 0.41832 0.14556 0.0
C2322 C 0.56201 0.41197 0.13629 0.0
C2323 C 0.56926 0.41085 0.14241 0.0
C2324 C 0.55987 0.42077 0.13337 0.0
C2325 C 0.5648 0.42822 0.13651 0.0
U2326 U 0.58907 0.43868 0.15837 0.0
O2327 O 0.59954 0.44884 0.15541 0.0
O2328 O 0.58852 0.45209 0.16487 0.0
C2329 C 0.5959 0.45492 0.16077 0.0
C2330 C 0.57708 0.43505 0.14574 0.0
C2331 C 0.59615 0.46441 0.15777 0.0
C2332 C 0.59344 0.47643 0.14684 0.0
C2333 C 0.59238 0.46737 0.14955 0.0
C2334 C 0.60177 0.47958 0.1606 0.0
C2335 C 0.59819 0.48257 0.15235 0.0
C2336 C 0.60078 0.47059 0.16326 0.0
C2337 C 0.60029 0.42356 0.17695 0.0
C2338 C 0.6152 0.42066 0.18342 0.0
C2339 C 0.60171 0.41582 0.19134 0.0
C2340 C 0.59633 0.41949 0.18453 0.0
C2341 C 0.61121 0.41598 0.19068 0.0
C2342 C 0.60978 0.42442 0.17659 0.0
C2343 C 0.59439 0.42559 0.16912 0.0
O2344 O 0.57489 0.43813 0.15378 0.0
O2345 O 0.58587 0.43486 0.14435 0.0
O2346 O 0.5983 0.42739 0.16134 0.0
O2347 O 0.58719 0.43057 0.17071 0.0
H2348 H 0.5797 0.41727 0.15026 0.0
H2349 H 0.57121 0.40417 0.1447 0.0
H2350 H 0.55429 0.42192 0.12877 0.0
H2351 H 0.56299 0.43493 0.13418 0.0
H2352 H 0.59062 0.47864 0.14045 0.0
H2353 H 0.58878 0.46268 0.14522 0.0
H2354 H 0.6055 0.48419 0.16492 0.0
H2355 H 0.60378 0.46842 0.16958 0.0
H2356 H 0.6225 0.4209 0.1827 0.0
H2357 H 0.59839 0.41247 0.19695 0.0
H2358 H 0.58905 0.41874 0.18498 0.0
H2359 H 0.61303 0.42756 0.17082 0.0
C2360 C 0.83056 0.32086 0.39296 0.0
C2361 C 0.8394 0.32409 0.39432 0.0
C2362 C 0.84551 0.31144 0.38562 0.0
C2363 C 0.8468 0.31943 0.39067 0.0
C2364 C 0.83666 0.3081 0.38453 0.0
C2365 C 0.82927 0.31279 0.38815 0.0
U2366 U 0.81912 0.33846 0.40832 0.0
O2367 O 0.80881 0.34866 0.40505 0.0
O2368 O 0.8058 0.33809 0.41508 0.0
C2369 C 0.80278 0.34513 0.41056 0.0
C2370 C 0.82259 0.32595 0.39617 0.0
C2371 C 0.79324 0.34496 0.40755 0.0
C2372 C 0.78161 0.34702 0.39601 0.0
C2373 C 0.7907 0.34547 0.39839 0.0
C2374 C 0.77749 0.347 0.41184 0.0
C2375 C 0.77494 0.34812 0.40273 0.0
C2376 C 0.78652 0.34551 0.4142 0.0
C2377 C 0.83466 0.35057 0.42595 0.0
C2378 C 0.83356 0.36508 0.43367 0.0
C2379 C 0.84457 0.35397 0.43859 0.0
C2380 C 0.84162 0.34806 0.43187 0.0
C2381 C 0.84065 0.36257 0.43951 0.0
C2382 C 0.83053 0.35908 0.42695 0.0
C2383 C 0.83246 0.34433 0.41849 0.0
O2384 O 0.81981 0.32408 0.4044 0.0
O2385 O 0.82257 0.33466 0.39438 0.0
O2386 O 0.83037 0.34792 0.41064 0.0
O2387 O 0.82752 0.33723 0.42057 0.0
H2388 H 0.84056 0.33027 0.39808 0.0
H2389 H 0.85354 0.32209 0.39179 0.0
H2390 H 0.83543 0.30201 0.38065 0.0
H2391 H 0.8225 0.31019 0.38704 0.0
H2392 H 0.77993 0.34782 0.38893 0.0
H2393 H 0.79576 0.34507 0.39312 0.0
H2394 H 0.77255 0.34749 0.41722 0.0
H2395 H 0.7883 0.34514 0.4213 0.0
H2396 H 0.83045 0.37169 0.43424 0.0
H2397 H 0.85016 0.35193 0.44287 0.0
H2398 H 0.84495 0.34157 0.43115 0.0
H2399 H 0.82514 0.36115 0.42244 0.0
C2400 C 0.93787 0.42414 0.86356 0.0
C2401 C 0.93841 0.41578 0.8591 0.0
C2402 C 0.94879 0.41021 0.87074 0.0
C2403 C 0.94386 0.40886 0.86267 0.0
C2404 C 0.94814 0.41859 0.87515 0.0
C2405 C 0.94275 0.42547 0.87157 0.0
U2406 U 0.9201 0.43809 0.84911 0.0
O2407 O 0.9116 0.44874 0.85517 0.0
O2408 O 0.92211 0.45236 0.845 0.0
C2409 C 0.91562 0.4551 0.85043 0.0
C2410 C 0.93246 0.43179 0.86021 0.0
C2411 C 0.91375 0.46473 0.85208 0.0
C2412 C 0.91485 0.47838 0.86117 0.0
C2413 C 0.917 0.46925 0.85976 0.0
C2414 C 0.90626 0.47853 0.84722 0.0
C2415 C 0.90938 0.48311 0.85496 0.0
C2416 C 0.90844 0.46944 0.84581 0.0
C2417 C 0.90631 0.4245 0.82995 0.0
C2418 C 0.89283 0.42626 0.82058 0.0
C2419 C 0.90166 0.41247 0.81978 0.0
C2420 C 0.90767 0.41592 0.82617 0.0
C2421 C 0.89416 0.41754 0.81699 0.0
C2422 C 0.8989 0.42974 0.82706 0.0
C2423 C 0.91251 0.42719 0.83731 0.0
O2424 O 0.93438 0.43507 0.85218 0.0
O2425 O 0.92377 0.43179 0.86208 0.0
O2426 O 0.90918 0.42862 0.84543 0.0
O2427 O 0.91974 0.43202 0.83544 0.0
H2428 H 0.93465 0.41463 0.85291 0.0
H2429 H 0.94413 0.40243 0.85918 0.0
H2430 H 0.95189 0.41988 0.88131 0.0
H2431 H 0.94243 0.43189 0.87509 0.0
H2432 H 0.91751 0.48175 0.86711 0.0
H2433 H 0.92117 0.46573 0.86465 0.0
H2434 H 0.90198 0.4819 0.84233 0.0
H2435 H 0.90587 0.46603 0.83984 0.0
H2436 H 0.88702 0.43022 0.81855 0.0
H2437 H 0.90274 0.4057 0.81718 0.0
H2438 H 0.91329 0.41175 0.82836 0.0
H2439 H 0.8977 0.43637 0.82995 0.0
C2440 C 0.8305 0.68612 0.1135 0.0
C2441 C 0.8393 0.68268 0.11245 0.0
C2442 C 0.84553 0.69575 0.1204 0.0
C2443 C 0.84674 0.68744 0.1159 0.0
C2444 C 0.83673 0.69929 0.12119 0.0
C2445 C 0.82929 0.6945 0.11779 0.0
U2446 U 0.81913 0.66835 0.09841 0.0
O2447 O 0.80889 0.65807 0.10169 0.0
O2448 O 0.80585 0.66853 0.09154 0.0
C2449 C 0.80291 0.66144 0.09603 0.0
C2450 C 0.82249 0.68099 0.11044 0.0
C2451 C 0.79333 0.66136 0.09885 0.0
C2452 C 0.7814 0.66197 0.11024 0.0
C2453 C 0.79047 0.66344 0.10768 0.0
C2454 C 0.77801 0.65672 0.09511 0.0
C2455 C 0.77513 0.65832 0.10403 0.0
C2456 C 0.78698 0.6582 0.09258 0.0
C2457 C 0.83553 0.6566 0.08113 0.0
C2458 C 0.83368 0.64347 0.07134 0.0
C2459 C 0.84713 0.6528 0.07018 0.0
C2460 C 0.84389 0.65836 0.07704 0.0
C2461 C 0.84208 0.64532 0.06721 0.0
C2462 C 0.83039 0.64913 0.07825 0.0
C2463 C 0.83273 0.66267 0.08849 0.0
O2464 O 0.81964 0.68276 0.10221 0.0
O2465 O 0.82248 0.6723 0.11234 0.0
O2466 O 0.83049 0.65896 0.09624 0.0
O2467 O 0.82763 0.66959 0.08625 0.0
H2468 H 0.8404 0.67627 0.10908 0.0
H2469 H 0.85345 0.68461 0.11505 0.0
H2470 H 0.83557 0.70563 0.12465 0.0
H2471 H 0.82256 0.69727 0.11864 0.0
H2472 H 0.77941 0.6633 0.11716 0.0
H2473 H 0.79527 0.66589 0.11264 0.0
H2474 H 0.77335 0.65415 0.09007 0.0
H2475 H 0.78904 0.65656 0.08574 0.0
H2476 H 0.82967 0.63773 0.06918 0.0
H2477 H 0.85371 0.65429 0.06731 0.0
H2478 H 0.84798 0.66404 0.07923 0.0
H2479 H 0.82392 0.64765 0.08136 0.0
C2480 C 0.57139 0.57968 0.36325 0.0
C2481 C 0.57459 0.58848 0.36167 0.0
C2482 C 0.56194 0.59479 0.37024 0.0
C2483 C 0.56992 0.59596 0.36515 0.0
C2484 C 0.55865 0.58597 0.37158 0.0
C2485 C 0.56334 0.5785 0.36814 0.0
U2486 U 0.58889 0.56807 0.34794 0.0
O2487 O 0.59951 0.55817 0.35126 0.0
O2488 O 0.58875 0.55453 0.34163 0.0
C2489 C 0.59613 0.55195 0.34588 0.0
C2490 C 0.57649 0.57164 0.36018 0.0
C2491 C 0.59672 0.54247 0.34895 0.0
C2492 C 0.59296 0.52995 0.359 0.0
C2493 C 0.59161 0.53894 0.35616 0.0
C2494 C 0.60444 0.52802 0.34748 0.0
C2495 C 0.59952 0.52447 0.35477 0.0
C2496 C 0.60302 0.53689 0.34459 0.0
C2497 C 0.60063 0.58388 0.33025 0.0
C2498 C 0.61428 0.58161 0.3213 0.0
C2499 C 0.60546 0.59532 0.31955 0.0
C2500 C 0.59933 0.59224 0.32601 0.0
C2501 C 0.61301 0.59009 0.31721 0.0
C2502 C 0.60808 0.57849 0.3278 0.0
C2503 C 0.59436 0.58143 0.33758 0.0
O2504 O 0.57454 0.56863 0.35205 0.0
O2505 O 0.58523 0.5717 0.36187 0.0
O2506 O 0.59799 0.57956 0.34547 0.0
O2507 O 0.58753 0.57614 0.33548 0.0
H2508 H 0.58076 0.58956 0.35785 0.0
H2509 H 0.57256 0.60267 0.36385 0.0
H2510 H 0.55257 0.58481 0.37551 0.0
H2511 H 0.56077 0.57176 0.36943 0.0
H2512 H 0.58907 0.52735 0.36465 0.0
H2513 H 0.58672 0.54315 0.35963 0.0
H2514 H 0.60945 0.52393 0.34402 0.0
H2515 H 0.60701 0.53946 0.339 0.0
H2516 H 0.62014 0.57754 0.31962 0.0
H2517 H 0.60444 0.60193 0.31655 0.0
H2518 H 0.59367 0.59651 0.32787 0.0
H2519 H 0.60921 0.57202 0.33104 0.0
C2520 C 0.67488 0.31953 0.61179 0.0
C2521 C 0.66611 0.32312 0.61113 0.0
C2522 C 0.66012 0.31009 0.61929 0.0
C2523 C 0.65878 0.31843 0.61486 0.0
C2524 C 0.66886 0.3064 0.6196 0.0
C2525 C 0.67617 0.31109 0.61589 0.0
U2526 U 0.68893 0.33777 0.59876 0.0
O2527 O 0.69934 0.34628 0.60506 0.0
O2528 O 0.70326 0.33642 0.59435 0.0
C2529 C 0.70583 0.34264 0.60017 0.0
C2530 C 0.68295 0.32478 0.60928 0.0
C2531 C 0.71535 0.34499 0.6019 0.0
C2532 C 0.72803 0.34754 0.61208 0.0
C2533 C 0.71887 0.34545 0.6107 0.0
C2534 C 0.73021 0.34855 0.59588 0.0
C2535 C 0.73381 0.3492 0.60468 0.0
C2536 C 0.72109 0.34646 0.59453 0.0
C2537 C 0.6752 0.35148 0.57985 0.0
C2538 C 0.67633 0.36575 0.57169 0.0
C2539 C 0.66403 0.35539 0.56844 0.0
C2540 C 0.66738 0.3494 0.5749 0.0
C2541 C 0.66842 0.36363 0.56682 0.0
C2542 C 0.67975 0.35967 0.57817 0.0
C2543 C 0.67773 0.34515 0.58712 0.0
O2544 O 0.68652 0.32324 0.60129 0.0
O2545 O 0.68291 0.33337 0.61155 0.0
O2546 O 0.67903 0.34835 0.59532 0.0
O2547 O 0.68281 0.33813 0.58513 0.0
H2548 H 0.66498 0.32965 0.608 0.0
H2549 H 0.65208 0.32137 0.61439 0.0
H2550 H 0.67012 0.30004 0.62301 0.0
H2551 H 0.68291 0.30827 0.61652 0.0
H2552 H 0.7305 0.34807 0.61895 0.0
H2553 H 0.71456 0.34422 0.6165 0.0
H2554 H 0.73444 0.34959 0.59 0.0
H2555 H 0.71851 0.34601 0.58768 0.0
H2556 H 0.67976 0.37213 0.57056 0.0
H2557 H 0.65785 0.35369 0.56488 0.0
H2558 H 0.66371 0.34319 0.57619 0.0
H2559 H 0.68577 0.36143 0.58197 0.0
C2560 C 0.64354 0.93595 0.57944 0.0
C2561 C 0.64484 0.93266 0.58825 0.0
C2562 C 0.6366 0.94558 0.59447 0.0
C2563 C 0.64139 0.93742 0.59569 0.0
C2564 C 0.63555 0.94896 0.58565 0.0
C2565 C 0.63896 0.94417 0.57822 0.0
U2566 U 0.65891 0.91853 0.56767 0.0
O2567 O 0.65565 0.90803 0.55764 0.0
O2568 O 0.66519 0.91889 0.55413 0.0
C2569 C 0.66102 0.9115 0.55147 0.0
C2570 C 0.64658 0.9308 0.57142 0.0
C2571 C 0.65804 0.91092 0.54197 0.0
C2572 C 0.64779 0.91431 0.5295 0.0
C2573 C 0.65056 0.91568 0.53852 0.0
C2574 C 0.65996 0.90353 0.52742 0.0
C2575 C 0.65239 0.90808 0.52394 0.0
C2576 C 0.66276 0.90497 0.53631 0.0
C2577 C 0.67728 0.90688 0.58272 0.0
C2578 C 0.68354 0.8918 0.58507 0.0
C2579 C 0.69164 0.90497 0.59045 0.0
C2580 C 0.68488 0.91056 0.58702 0.0
C2581 C 0.69089 0.89549 0.5899 0.0
C2582 C 0.67679 0.89745 0.58149 0.0
C2583 C 0.66961 0.91299 0.58071 0.0
O2584 O 0.65467 0.93282 0.56831 0.0
O2585 O 0.64498 0.92206 0.57153 0.0
O2586 O 0.6617 0.9093 0.57898 0.0
O2587 O 0.67138 0.9201 0.57569 0.0
H2588 H 0.64842 0.92637 0.58937 0.0
H2589 H 0.64246 0.9347 0.6024 0.0
H2590 H 0.63186 0.95518 0.58446 0.0
H2591 H 0.63789 0.94683 0.57148 0.0
H2592 H 0.64193 0.9179 0.52696 0.0
H2593 H 0.64681 0.9203 0.54279 0.0
H2594 H 0.66369 0.89878 0.52327 0.0
H2595 H 0.66857 0.90127 0.53884 0.0
H2596 H 0.68269 0.88455 0.5845 0.0
H2597 H 0.69733 0.90811 0.59385 0.0
H2598 H 0.68543 0.9178 0.58804 0.0
H2599 H 0.671 0.89441 0.57817 0.0
C2600 C 0.14377 0.57038 0.42712 0.0
C2601 C 0.14936 0.56952 0.41951 0.0
C2602 C 0.13781 0.56045 0.41181 0.0
C2603 C 0.14647 0.56452 0.412 0.0
C2604 C 0.13229 0.5613 0.41954 0.0
C2605 C 0.13527 0.56616 0.42711 0.0
U2606 U 0.15868 0.58844 0.43809 0.0
O2607 O 0.1554 0.59894 0.44811 0.0
O2608 O 0.16567 0.58862 0.45126 0.0
C2609 C 0.16119 0.59577 0.45408 0.0
C2610 C 0.14665 0.57569 0.43507 0.0
C2611 C 0.1585 0.59603 0.46367 0.0
C2612 C 0.14796 0.59349 0.4761 0.0
C2613 C 0.1503 0.59247 0.46692 0.0
C2614 C 0.16202 0.60151 0.47874 0.0
C2615 C 0.15382 0.59805 0.4821 0.0
C2616 C 0.16431 0.6005 0.46966 0.0
C2617 C 0.17596 0.5999 0.4216 0.0
C2618 C 0.18521 0.61346 0.42313 0.0
C2619 C 0.18734 0.60343 0.41035 0.0
C2620 C 0.18052 0.59781 0.41359 0.0
C2621 C 0.18979 0.61131 0.41507 0.0
C2622 C 0.17834 0.60775 0.42642 0.0
C2623 C 0.16858 0.59382 0.42436 0.0
O2624 O 0.15487 0.57406 0.43806 0.0
O2625 O 0.14471 0.58437 0.43479 0.0
O2626 O 0.16079 0.59754 0.42651 0.0
O2627 O 0.17081 0.58697 0.42956 0.0
H2628 H 0.15597 0.5727 0.41937 0.0
H2629 H 0.15113 0.56385 0.4064 0.0
H2630 H 0.12555 0.55845 0.41972 0.0
H2631 H 0.13086 0.56675 0.43293 0.0
H2632 H 0.14161 0.59072 0.4785 0.0
H2633 H 0.1457 0.589 0.46238 0.0
H2634 H 0.16661 0.6052 0.48309 0.0
H2635 H 0.17063 0.60338 0.46726 0.0
H2636 H 0.18696 0.6195 0.42689 0.0
H2637 H 0.19057 0.60168 0.40401 0.0
H2638 H 0.17872 0.59183 0.40975 0.0
H2639 H 0.17486 0.60949 0.43263 0.0
C2640 C 0.6867 0.8927 0.67751 0.0
C2641 C 0.68815 0.89808 0.66986 0.0
C2642 C 0.69662 0.88582 0.66258 0.0
C2643 C 0.69315 0.89474 0.66255 0.0
C2644 C 0.69521 0.88052 0.67037 0.0
C2645 C 0.69036 0.88395 0.67775 0.0
U2646 U 0.66902 0.90842 0.68844 0.0
O2647 O 0.65867 0.90536 0.69866 0.0
O2648 O 0.6693 0.91534 0.70167 0.0
C2649 C 0.66221 0.91088 0.70467 0.0
C2650 C 0.68145 0.89605 0.68532 0.0
C2651 C 0.66232 0.90791 0.71423 0.0
C2652 C 0.65995 0.89647 0.72587 0.0
C2653 C 0.66155 0.89879 0.71679 0.0
C2654 C 0.66049 0.9123 0.72996 0.0
C2655 C 0.65908 0.90324 0.73254 0.0
C2656 C 0.66202 0.91459 0.72093 0.0
C2657 C 0.65713 0.92588 0.67253 0.0
C2658 C 0.64314 0.93441 0.67438 0.0
C2659 C 0.65305 0.93752 0.6617 0.0
C2660 C 0.65902 0.93086 0.66469 0.0
C2661 C 0.64503 0.9393 0.66645 0.0
C2662 C 0.64921 0.92776 0.67745 0.0
C2663 C 0.66336 0.91846 0.67491 0.0
O2664 O 0.68333 0.9043 0.68807 0.0
O2665 O 0.67271 0.89436 0.68514 0.0
O2666 O 0.6597 0.91065 0.67706 0.0
O2667 O 0.6704 0.92058 0.67992 0.0
H2668 H 0.68544 0.90489 0.66954 0.0
H2669 H 0.69429 0.89925 0.65691 0.0
H2670 H 0.69762 0.87362 0.67071 0.0
H2671 H 0.68933 0.8797 0.68363 0.0
H2672 H 0.65892 0.88942 0.72756 0.0
H2673 H 0.66177 0.89348 0.71175 0.0
H2674 H 0.6602 0.91772 0.73488 0.0
H2675 H 0.6626 0.92168 0.71913 0.0
H2676 H 0.63694 0.93565 0.67809 0.0
H2677 H 0.65456 0.94112 0.6555 0.0
H2678 H 0.66505 0.92946 0.66076 0.0
H2679 H 0.64762 0.92397 0.68352 0.0
C2680 C 0.36431 0.4358 0.92654 0.0
C2681 C 0.36281 0.43263 0.91771 0.0
C2682 C 0.3714 0.44534 0.91154 0.0
C2683 C 0.36634 0.43735 0.91029 0.0
C2684 C 0.37265 0.4486 0.92039 0.0
C2685 C 0.36915 0.44386 0.9278 0.0
U2686 U 0.34879 0.41828 0.93774 0.0
O2687 O 0.35179 0.4078 0.94785 0.0
O2688 O 0.34196 0.41851 0.95101 0.0
C2689 C 0.3462 0.41123 0.95385 0.0
C2690 C 0.36111 0.43069 0.93451 0.0
C2691 C 0.34909 0.41096 0.96339 0.0
C2692 C 0.35974 0.41398 0.97561 0.0
C2693 C 0.35702 0.41515 0.96657 0.0
C2694 C 0.34662 0.40451 0.97829 0.0
C2695 C 0.35463 0.40847 0.98149 0.0
C2696 C 0.34387 0.40578 0.96936 0.0
C2697 C 0.33132 0.40676 0.92154 0.0
C2698 C 0.32181 0.39345 0.92353 0.0
C2699 C 0.31992 0.40303 0.91037 0.0
C2700 C 0.32684 0.40863 0.91343 0.0
C2701 C 0.3173 0.39539 0.91537 0.0
C2702 C 0.32877 0.39915 0.92664 0.0
C2703 C 0.33878 0.41281 0.92413 0.0
O2704 O 0.3529 0.43261 0.93733 0.0
O2705 O 0.36283 0.42196 0.93446 0.0
O2706 O 0.34653 0.40903 0.9263 0.0
O2707 O 0.33666 0.41977 0.92922 0.0
H2708 H 0.35902 0.42647 0.91656 0.0
H2709 H 0.36511 0.43473 0.90356 0.0
H2710 H 0.37654 0.45469 0.92161 0.0
H2711 H 0.37036 0.44642 0.93456 0.0
H2712 H 0.36595 0.4171 0.97794 0.0
H2713 H 0.36116 0.41917 0.96204 0.0
H2714 H 0.34251 0.40033 0.98269 0.0
H2715 H 0.33773 0.4025 0.96704 0.0
H2716 H 0.31994 0.38758 0.92749 0.0
H2717 H 0.31673 0.40458 0.90395 0.0
H2718 H 0.32877 0.41442 0.90937 0.0
H2719 H 0.33219 0.39759 0.93293 0.0
C2720 C 0.32055 0.61463 0.6775 0.0
C2721 C 0.32385 0.61404 0.66861 0.0
C2722 C 0.31095 0.62276 0.6631 0.0
C2723 C 0.31911 0.6181 0.66148 0.0
C2724 C 0.30749 0.62303 0.67194 0.0
C2725 C 0.31228 0.61903 0.67907 0.0
U2726 U 0.33826 0.59882 0.68814 0.0
O2727 O 0.34907 0.60188 0.69792 0.0
O2728 O 0.33844 0.59205 0.70142 0.0
C2729 C 0.34584 0.59626 0.704 0.0
C2730 C 0.32582 0.61119 0.68526 0.0
C2731 C 0.34655 0.59897 0.71356 0.0
C2732 C 0.3428 0.60837 0.72657 0.0
C2733 C 0.3416 0.60612 0.71739 0.0
C2734 C 0.35383 0.59633 0.72802 0.0
C2735 C 0.34891 0.60343 0.73198 0.0
C2736 C 0.35266 0.59415 0.71894 0.0
C2737 C 0.34981 0.58143 0.67216 0.0
C2738 C 0.36338 0.57245 0.6748 0.0
C2739 C 0.35484 0.57063 0.66091 0.0
C2740 C 0.34867 0.57714 0.6638 0.0
C2741 C 0.36227 0.56831 0.66632 0.0
C2742 C 0.35713 0.57898 0.67774 0.0
C2743 C 0.34349 0.58874 0.67449 0.0
O2744 O 0.3239 0.60295 0.688 0.0
O2745 O 0.33456 0.61286 0.68506 0.0
O2746 O 0.34711 0.59663 0.67641 0.0
O2747 O 0.33668 0.58659 0.67978 0.0
H2748 H 0.33017 0.6106 0.66721 0.0
H2749 H 0.32185 0.61766 0.65471 0.0
H2750 H 0.30124 0.62657 0.67339 0.0
H2751 H 0.30962 0.61956 0.68588 0.0
H2752 H 0.3389 0.61385 0.72945 0.0
H2753 H 0.33685 0.60994 0.71331 0.0
H2754 H 0.3587 0.5925 0.73194 0.0
H2755 H 0.3566 0.58866 0.71609 0.0
H2756 H 0.36914 0.57078 0.67901 0.0
H2757 H 0.35396 0.56758 0.6543 0.0
H2758 H 0.3431 0.57898 0.6594 0.0
H2759 H 0.35811 0.58225 0.68422 0.0
C2760 C 0.86439 0.07087 0.07928 0.0
C2761 C 0.86295 0.07406 0.08811 0.0
C2762 C 0.87144 0.06128 0.09429 0.0
C2763 C 0.86646 0.06932 0.09553 0.0
C2764 C 0.87262 0.058 0.08545 0.0
C2765 C 0.86915 0.06276 0.07803 0.0
U2766 U 0.84911 0.08854 0.06782 0.0
O2767 O 0.85243 0.0991 0.05787 0.0
O2768 O 0.84268 0.08842 0.05435 0.0
C2769 C 0.84701 0.09572 0.05168 0.0
C2770 C 0.8613 0.07604 0.07129 0.0
C2771 C 0.85013 0.09614 0.0422 0.0
C2772 C 0.86005 0.09184 0.02972 0.0
C2773 C 0.85716 0.09073 0.03874 0.0
C2774 C 0.84892 0.10368 0.02764 0.0
C2775 C 0.85601 0.09843 0.02416 0.0
C2776 C 0.846 0.10252 0.03653 0.0
C2777 C 0.83163 0.1 0.08439 0.0
C2778 C 0.82096 0.11243 0.08246 0.0
C2779 C 0.82162 0.10428 0.09665 0.0
C2780 C 0.82847 0.0988 0.09322 0.0
C2781 C 0.81772 0.11111 0.09132 0.0
C2782 C 0.82787 0.10686 0.07898 0.0
C2783 C 0.83896 0.09398 0.08136 0.0
O2784 O 0.85311 0.07417 0.06833 0.0
O2785 O 0.86306 0.08475 0.07137 0.0
O2786 O 0.84676 0.09772 0.07931 0.0
O2787 O 0.83674 0.08721 0.07604 0.0
H2788 H 0.85923 0.08027 0.08925 0.0
H2789 H 0.86528 0.07197 0.10226 0.0
H2790 H 0.87646 0.05187 0.08423 0.0
H2791 H 0.87032 0.06018 0.07127 0.0
H2792 H 0.86553 0.08771 0.02716 0.0
H2793 H 0.86045 0.08577 0.04301 0.0
H2794 H 0.84568 0.10876 0.02346 0.0
H2795 H 0.84057 0.10675 0.03906 0.0
H2796 H 0.81809 0.11766 0.07821 0.0
H2797 H 0.81946 0.10321 0.10357 0.0
H2798 H 0.83134 0.09361 0.09752 0.0
H2799 H 0.83027 0.1079 0.07214 0.0
C2800 C 0.68629 0.11424 0.82934 0.0
C2801 C 0.68393 0.11158 0.83813 0.0
C2802 C 0.6964 0.12054 0.84436 0.0
C2803 C 0.68892 0.11471 0.84557 0.0
C2804 C 0.6987 0.12318 0.83552 0.0
C2805 C 0.6937 0.12005 0.8281 0.0
U2806 U 0.66909 0.09857 0.8176 0.0
O2807 O 0.65855 0.10164 0.80754 0.0
O2808 O 0.66961 0.09231 0.80407 0.0
C2809 C 0.66216 0.09635 0.80138 0.0
C2810 C 0.68112 0.11114 0.82136 0.0
C2811 C 0.6616 0.09933 0.79188 0.0
C2812 C 0.66499 0.10957 0.77942 0.0
C2813 C 0.66633 0.10683 0.78845 0.0
C2814 C 0.65428 0.09735 0.7773 0.0
C2815 C 0.65881 0.10493 0.77384 0.0
C2816 C 0.6557 0.09457 0.78619 0.0
C2817 C 0.65783 0.07994 0.83274 0.0
C2818 C 0.64289 0.07345 0.83552 0.0
C2819 C 0.65632 0.06582 0.84096 0.0
C2820 C 0.66174 0.07254 0.83718 0.0
C2821 C 0.64682 0.0664 0.84055 0.0
C2822 C 0.64836 0.0802 0.83165 0.0
C2823 C 0.66375 0.08773 0.83062 0.0
O2824 O 0.68329 0.10312 0.81821 0.0
O2825 O 0.67233 0.11254 0.82159 0.0
O2826 O 0.65987 0.09554 0.82888 0.0
O2827 O 0.6709 0.08612 0.82559 0.0
H2828 H 0.67822 0.10711 0.83925 0.0
H2829 H 0.68686 0.11263 0.85228 0.0
H2830 H 0.70445 0.12755 0.83432 0.0
H2831 H 0.69564 0.12216 0.82136 0.0
H2832 H 0.66856 0.11545 0.7769 0.0
H2833 H 0.67092 0.11061 0.79275 0.0
H2834 H 0.64957 0.09359 0.77312 0.0
H2835 H 0.65201 0.08875 0.7887 0.0
H2836 H 0.6356 0.07409 0.83507 0.0
H2837 H 0.6596 0.06038 0.8446 0.0
H2838 H 0.66901 0.07218 0.83812 0.0
H2839 H 0.64515 0.08583 0.82824 0.0
C2840 C 0.82148 0.89298 0.3297 0.0
C2841 C 0.82463 0.89444 0.33854 0.0
C2842 C 0.81188 0.88584 0.34466 0.0
C2843 C 0.81988 0.89089 0.34594 0.0
C2844 C 0.80865 0.88461 0.3358 0.0
C2845 C 0.81342 0.88812 0.32841 0.0
U2846 U 0.83924 0.90818 0.31818 0.0
O2847 O 0.84949 0.90474 0.30796 0.0
O2848 O 0.83904 0.91486 0.30483 0.0
C2849 C 0.84612 0.91033 0.30192 0.0
C2850 C 0.82663 0.89611 0.32172 0.0
C2851 C 0.84618 0.90742 0.29236 0.0
C2852 C 0.84571 0.89594 0.28051 0.0
C2853 C 0.84448 0.89847 0.28961 0.0
C2854 C 0.85013 0.91127 0.27688 0.0
C2855 C 0.84866 0.90231 0.27404 0.0
C2856 C 0.84889 0.91378 0.28589 0.0
C2857 C 0.85133 0.92566 0.33398 0.0
C2858 C 0.86506 0.93451 0.33175 0.0
C2859 C 0.85593 0.93673 0.34519 0.0
C2860 C 0.84986 0.93017 0.34217 0.0
C2861 C 0.8636 0.93889 0.34005 0.0
C2862 C 0.85891 0.92794 0.32868 0.0
C2863 C 0.84504 0.91833 0.33157 0.0
O2864 O 0.82482 0.90433 0.31885 0.0
O2865 O 0.83534 0.89428 0.32173 0.0
O2866 O 0.84861 0.91046 0.32951 0.0
O2867 O 0.83809 0.92051 0.32647 0.0
H2868 H 0.83081 0.89822 0.33971 0.0
H2869 H 0.82248 0.89212 0.35268 0.0
H2870 H 0.80257 0.88072 0.33455 0.0
H2871 H 0.81088 0.88692 0.32164 0.0
H2872 H 0.84442 0.889 0.27856 0.0
H2873 H 0.84241 0.89343 0.2945 0.0
H2874 H 0.85257 0.91634 0.27219 0.0
H2875 H 0.85034 0.92069 0.28787 0.0
H2876 H 0.871 0.93607 0.32775 0.0
H2877 H 0.85476 0.93995 0.35166 0.0
H2878 H 0.84409 0.92846 0.34637 0.0
H2879 H 0.86016 0.92451 0.32233 0.0
C2880 C 0.42583 0.36002 0.06728 0.0
C2881 C 0.41708 0.35816 0.07048 0.0
C2882 C 0.41067 0.36752 0.0585 0.0
C2883 C 0.40955 0.3619 0.06611 0.0
C2884 C 0.41943 0.36908 0.05517 0.0
C2885 C 0.42693 0.36536 0.05954 0.0
U2886 U 0.44022 0.34627 0.08468 0.0
O2887 O 0.45457 0.34244 0.08307 0.0
O2888 O 0.45049 0.35221 0.09378 0.0
C2889 C 0.45702 0.34762 0.08987 0.0
C2890 C 0.43401 0.35728 0.07221 0.0
C2891 C 0.4666 0.34932 0.09192 0.0
C2892 C 0.48108 0.35661 0.08905 0.0
C2893 C 0.47216 0.35467 0.08637 0.0
C2894 C 0.47894 0.34771 0.10263 0.0
C2895 C 0.48452 0.35317 0.09723 0.0
C2896 C 0.47005 0.34587 0.10002 0.0
C2897 C 0.42633 0.32765 0.09865 0.0
C2898 C 0.429 0.3173 0.11119 0.0
C2899 C 0.41391 0.31896 0.10497 0.0
C2900 C 0.41718 0.32517 0.0987 0.0
C2901 C 0.41975 0.31503 0.11131 0.0
C2902 C 0.4323 0.32363 0.10488 0.0
C2903 C 0.42898 0.33476 0.09219 0.0
O2904 O 0.43423 0.35929 0.08086 0.0
O2905 O 0.43741 0.34928 0.07034 0.0
O2906 O 0.43411 0.33264 0.08524 0.0
O2907 O 0.43028 0.34299 0.09527 0.0
H2908 H 0.41611 0.35404 0.07645 0.0
H2909 H 0.40285 0.36049 0.06874 0.0
H2910 H 0.42052 0.37343 0.04938 0.0
H2911 H 0.43365 0.36691 0.05703 0.0
H2912 H 0.4853 0.36076 0.08472 0.0
H2913 H 0.46959 0.35743 0.08009 0.0
H2914 H 0.4814 0.34499 0.10898 0.0
H2915 H 0.46581 0.34181 0.1044 0.0
H2916 H 0.43359 0.31436 0.11609 0.0
H2917 H 0.40675 0.31732 0.10497 0.0
H2918 H 0.41247 0.32821 0.09396 0.0
H2919 H 0.43939 0.32548 0.10496 0.0
C2920 C 0.39779 0.67543 0.81669 0.0
C2921 C 0.39917 0.66663 0.81994 0.0
C2922 C 0.38948 0.66066 0.80797 0.0
C2923 C 0.39505 0.65929 0.81559 0.0
C2924 C 0.38845 0.66945 0.80456 0.0
C2925 C 0.39257 0.67676 0.80889 0.0
U2926 U 0.41107 0.68947 0.83482 0.0
O2927 O 0.41522 0.70384 0.83364 0.0
O2928 O 0.40452 0.6997 0.84342 0.0
C2929 C 0.40944 0.70625 0.83996 0.0
C2930 C 0.40058 0.68345 0.82182 0.0
C2931 C 0.40755 0.71575 0.84216 0.0
C2932 C 0.39788 0.72903 0.84186 0.0
C2933 C 0.39954 0.72002 0.83941 0.0
C2934 C 0.41219 0.72952 0.84987 0.0
C2935 C 0.40415 0.73385 0.84718 0.0
C2936 C 0.41388 0.72057 0.84732 0.0
C2937 C 0.42924 0.67524 0.84917 0.0
C2938 C 0.43877 0.67717 0.86249 0.0
C2939 C 0.43787 0.66259 0.85505 0.0
C2940 C 0.43196 0.66619 0.84867 0.0
C2941 C 0.44124 0.66799 0.86207 0.0
C2942 C 0.43273 0.6808 0.85607 0.0
C2943 C 0.42235 0.67819 0.8426 0.0
O2944 O 0.39824 0.68358 0.83037 0.0
O2945 O 0.4087 0.68677 0.8203 0.0
O2946 O 0.42473 0.6834 0.8358 0.0
O2947 O 0.41402 0.67947 0.84544 0.0
H2948 H 0.40315 0.66547 0.82599 0.0
H2949 H 0.39611 0.65255 0.81828 0.0
H2950 H 0.38417 0.67075 0.79876 0.0
H2951 H 0.39136 0.68353 0.80636 0.0
H2952 H 0.39159 0.73215 0.83975 0.0
H2953 H 0.39457 0.71641 0.83541 0.0
H2954 H 0.41719 0.73306 0.85389 0.0
H2955 H 0.42011 0.71735 0.84947 0.0
H2956 H 0.4413 0.68142 0.8679 0.0
H2957 H 0.43969 0.6555 0.85461 0.0
H2958 H 0.42933 0.6618 0.84342 0.0
H2959 H 0.43067 0.68781 0.85658 0.0
C2960 C 0.08196 0.64697 0.56711 0.0
C2961 C 0.09073 0.64886 0.57024 0.0
C2962 C 0.09703 0.63922 0.55841 0.0
C2963 C 0.09822 0.645 0.5659 0.0
C2964 C 0.08825 0.63764 0.55516 0.0
C2965 C 0.08079 0.64147 0.55949 0.0
U2966 U 0.06764 0.66088 0.58448 0.0
O2967 O 0.05334 0.6649 0.58273 0.0
O2968 O 0.0572 0.6551 0.59347 0.0
C2969 C 0.05077 0.65983 0.58958 0.0
C2970 C 0.07381 0.64985 0.57201 0.0
C2971 C 0.04115 0.65805 0.5914 0.0
C2972 C 0.02645 0.65169 0.58767 0.0
C2973 C 0.03541 0.65369 0.58521 0.0
C2974 C 0.02894 0.65845 0.60238 0.0
C2975 C 0.02313 0.65397 0.59632 0.0
C2976 C 0.03784 0.66042 0.59994 0.0
C2977 C 0.082 0.67909 0.5987 0.0
C2978 C 0.07986 0.68983 0.61103 0.0
C2979 C 0.09489 0.687 0.60509 0.0
C2980 C 0.09129 0.68093 0.59886 0.0
C2981 C 0.08926 0.69143 0.61129 0.0
C2982 C 0.07623 0.68362 0.60476 0.0
C2983 C 0.07897 0.67211 0.59226 0.0
O2984 O 0.07347 0.64778 0.58064 0.0
O2985 O 0.07058 0.65792 0.57017 0.0
O2986 O 0.07394 0.67441 0.58529 0.0
O2987 O 0.0775 0.66388 0.59526 0.0
H2988 H 0.09175 0.6531 0.57612 0.0
H2989 H 0.10494 0.64645 0.56846 0.0
H2990 H 0.0871 0.63317 0.54947 0.0
H2991 H 0.07405 0.63991 0.55704 0.0
H2992 H 0.02219 0.64814 0.58287 0.0
H2993 H 0.03788 0.65172 0.5786 0.0
H2994 H 0.02661 0.66045 0.60903 0.0
H2995 H 0.04221 0.66375 0.60479 0.0
H2996 H 0.07542 0.69318 0.6158 0.0
H2997 H 0.10214 0.68814 0.60516 0.0
H2998 H 0.09585 0.67752 0.59424 0.0
H2999 H 0.06902 0.68227 0.60475 0.0
C3000 C 0.11137 0.32846 0.31829 0.0
C3001 C 0.10905 0.33724 0.32105 0.0
C3002 C 0.11864 0.34365 0.30924 0.0
C3003 C 0.11266 0.34476 0.31658 0.0
C3004 C 0.12068 0.33485 0.3063 0.0
C3005 C 0.1171 0.32732 0.31081 0.0
U3006 U 0.096 0.31703 0.33576 0.0
O3007 O 0.09016 0.3033 0.33604 0.0
O3008 O 0.0994 0.3077 0.34684 0.0
C3009 C 0.09443 0.30111 0.34353 0.0
C3010 C 0.10832 0.32044 0.3234 0.0
C3011 C 0.09815 0.29188 0.34436 0.0
C3012 C 0.10556 0.27837 0.33847 0.0
C3013 C 0.10245 0.28728 0.33722 0.0
C3014 C 0.10022 0.27869 0.35394 0.0
C3015 C 0.10452 0.27402 0.34689 0.0
C3016 C 0.09706 0.28749 0.35267 0.0
C3017 C 0.07833 0.33308 0.34722 0.0
C3018 C 0.0692 0.33079 0.36075 0.0
C3019 C 0.0688 0.34517 0.35288 0.0
C3020 C 0.07489 0.34186 0.34649 0.0
C3021 C 0.066 0.33972 0.3601 0.0
C3022 C 0.07537 0.32747 0.35432 0.0
C3023 C 0.0855 0.33042 0.34086 0.0
O3024 O 0.10995 0.32066 0.33213 0.0
O3025 O 0.1002 0.31736 0.32144 0.0
O3026 O 0.08332 0.32479 0.33433 0.0
O3027 O 0.0935 0.32884 0.34439 0.0
H3028 H 0.10459 0.33827 0.32678 0.0
H3029 H 0.11085 0.35147 0.31892 0.0
H3030 H 0.12528 0.33376 0.30071 0.0
H3031 H 0.11898 0.3206 0.30859 0.0
H3032 H 0.10886 0.27491 0.33292 0.0
H3033 H 0.10335 0.29054 0.33072 0.0
H3034 H 0.09916 0.27549 0.36044 0.0
H3035 H 0.09369 0.29088 0.35823 0.0
H3036 H 0.06715 0.32653 0.36634 0.0
H3037 H 0.06645 0.35209 0.35232 0.0
H3038 H 0.07713 0.34629 0.3411 0.0
H3039 H 0.07802 0.32067 0.35501 0.0
C3040 C 0.42933 0.64496 0.43859 0.0
C3041 C 0.42063 0.64746 0.43568 0.0
C3042 C 0.41383 0.638 0.44736 0.0
C3043 C 0.41295 0.64398 0.44001 0.0
C3044 C 0.42256 0.63577 0.45043 0.0
C3045 C 0.43023 0.6392 0.44605 0.0
U3046 U 0.44071 0.66033 0.42135 0.0
O3047 O 0.45429 0.66653 0.42097 0.0
O3048 O 0.45005 0.65716 0.41022 0.0
C3049 C 0.45651 0.66236 0.41343 0.0
C3050 C 0.43747 0.64794 0.43364 0.0
C3051 C 0.46585 0.659 0.4125 0.0
C3052 C 0.47858 0.64946 0.41682 0.0
C3053 C 0.4697 0.65257 0.41834 0.0
C3054 C 0.47971 0.65917 0.40368 0.0
C3055 C 0.48361 0.65265 0.40937 0.0
C3056 C 0.47095 0.66231 0.40524 0.0
C3057 C 0.42422 0.67765 0.41014 0.0
C3058 C 0.42656 0.68735 0.39706 0.0
C3059 C 0.41176 0.68638 0.4041 0.0
C3060 C 0.41516 0.68038 0.41048 0.0
C3061 C 0.41738 0.6898 0.39729 0.0
C3062 C 0.42999 0.68124 0.40348 0.0
C3063 C 0.42705 0.67054 0.41644 0.0
O3064 O 0.43738 0.64631 0.42491 0.0
O3065 O 0.44051 0.65607 0.43564 0.0
O3066 O 0.4327 0.67281 0.42292 0.0
O3067 O 0.42876 0.66261 0.41284 0.0
H3068 H 0.41978 0.65195 0.42995 0.0
H3069 H 0.40632 0.64595 0.43758 0.0
H3070 H 0.42346 0.63114 0.45604 0.0
H3071 H 0.43689 0.6372 0.44839 0.0
H3072 H 0.48144 0.64444 0.42132 0.0
H3073 H 0.46585 0.64993 0.42399 0.0
H3074 H 0.48346 0.66187 0.39799 0.0
H3075 H 0.46811 0.6673 0.40069 0.0
H3076 H 0.43095 0.68991 0.39179 0.0
H3077 H 0.40465 0.68818 0.40434 0.0
H3078 H 0.41063 0.67763 0.41555 0.0
H3079 H 0.43701 0.67915 0.40311 0.0
C3080 C 0.11094 0.67587 0.18933 0.0
C3081 C 0.10937 0.66707 0.18614 0.0
C3082 C 0.11855 0.66095 0.19843 0.0
C3083 C 0.11315 0.65966 0.19066 0.0
C3084 C 0.11979 0.66975 0.20176 0.0
C3085 C 0.11603 0.67713 0.19723 0.0
U3086 U 0.09672 0.69019 0.17214 0.0
O3087 O 0.09308 0.70453 0.17431 0.0
O3088 O 0.10233 0.70062 0.16306 0.0
C3089 C 0.09836 0.70712 0.16761 0.0
C3090 C 0.10809 0.68393 0.18427 0.0
C3091 C 0.09928 0.71668 0.16505 0.0
C3092 C 0.10397 0.73192 0.16903 0.0
C3093 C 0.10181 0.72307 0.17157 0.0
C3094 C 0.10073 0.7282 0.15341 0.0
C3095 C 0.10353 0.73459 0.15991 0.0
C3096 C 0.09872 0.7193 0.15595 0.0
C3097 C 0.07709 0.67714 0.15888 0.0
C3098 C 0.07119 0.67444 0.14371 0.0
C3099 C 0.06373 0.66785 0.15671 0.0
C3100 C 0.06998 0.67199 0.16242 0.0
C3101 C 0.06449 0.66868 0.14727 0.0
C3102 C 0.0775 0.67862 0.14948 0.0
C3103 C 0.08468 0.67925 0.16503 0.0
O3104 O 0.10979 0.68399 0.17555 0.0
O3105 O 0.1002 0.68744 0.18636 0.0
O3106 O 0.08308 0.68408 0.17232 0.0
O3107 O 0.09279 0.68048 0.16157 0.0
H3108 H 0.10543 0.66596 0.18006 0.0
H3109 H 0.11197 0.65293 0.18802 0.0
H3110 H 0.12394 0.67095 0.20768 0.0
H3111 H 0.11734 0.68388 0.19976 0.0
H3112 H 0.10624 0.73657 0.17421 0.0
H3113 H 0.10247 0.72112 0.1786 0.0
H3114 H 0.10015 0.73004 0.14635 0.0
H3115 H 0.09683 0.71444 0.1508 0.0
H3116 H 0.07195 0.67521 0.13647 0.0
H3117 H 0.05856 0.66359 0.15969 0.0
H3118 H 0.06956 0.67068 0.16962 0.0
H3119 H 0.08296 0.68254 0.14657 0.0
C3120 C 0.0797 0.361 0.9382 0.0
C3121 C 0.08846 0.35868 0.93532 0.0
C3122 C 0.09501 0.36812 0.94717 0.0
C3123 C 0.09604 0.36224 0.93975 0.0
C3124 C 0.08623 0.37018 0.9502 0.0
C3125 C 0.07865 0.36667 0.94573 0.0
U3126 U 0.06835 0.34555 0.92087 0.0
O3127 O 0.05489 0.33905 0.92083 0.0
O3128 O 0.05857 0.34868 0.91012 0.0
C3129 C 0.05232 0.34331 0.91346 0.0
C3130 C 0.07162 0.35789 0.93323 0.0
C3131 C 0.0429 0.34657 0.91303 0.0
C3132 C 0.0312 0.35789 0.91558 0.0
C3133 C 0.04005 0.3547 0.91703 0.0
C3134 C 0.02796 0.34473 0.90638 0.0
C3135 C 0.0251 0.35302 0.91006 0.0
C3136 C 0.03675 0.34157 0.90784 0.0
C3137 C 0.08443 0.32813 0.90926 0.0
C3138 C 0.08248 0.31968 0.89528 0.0
C3139 C 0.09577 0.31723 0.9046 0.0
C3140 C 0.09262 0.32362 0.91077 0.0
C3141 C 0.09079 0.31529 0.89677 0.0
C3142 C 0.07927 0.32605 0.90154 0.0
C3143 C 0.08194 0.3354 0.91556 0.0
O3144 O 0.07166 0.35957 0.9245 0.0
O3145 O 0.06873 0.34971 0.93519 0.0
O3146 O 0.07661 0.33322 0.92233 0.0
O3147 O 0.08002 0.34329 0.91196 0.0
H3148 H 0.08942 0.35426 0.92956 0.0
H3149 H 0.10273 0.36042 0.93734 0.0
H3150 H 0.08522 0.37472 0.95585 0.0
H3151 H 0.07194 0.36853 0.94804 0.0
H3152 H 0.02925 0.36432 0.91849 0.0
H3153 H 0.04472 0.35867 0.92105 0.0
H3154 H 0.02344 0.34068 0.90228 0.0
H3155 H 0.03881 0.33528 0.90471 0.0
H3156 H 0.0786 0.31829 0.88922 0.0
H3157 H 0.10225 0.31401 0.90579 0.0
H3158 H 0.09672 0.3252 0.91665 0.0
H3159 H 0.07293 0.3295 0.90026 0.0
C3160 C 0.39549 0.32798 0.68842 0.0
C3161 C 0.39682 0.33689 0.68543 0.0
C3162 C 0.38749 0.34257 0.69781 0.0
C3163 C 0.39282 0.34412 0.69007 0.0
C3164 C 0.38649 0.33368 0.70098 0.0
C3165 C 0.39042 0.32644 0.69629 0.0
U3166 U 0.41107 0.31724 0.67057 0.0
O3167 O 0.41781 0.3039 0.67038 0.0
O3168 O 0.40784 0.30742 0.6599 0.0
C3169 C 0.41336 0.30124 0.66315 0.0
C3170 C 0.39885 0.32018 0.68316 0.0
C3171 C 0.41026 0.29175 0.66279 0.0
C3172 C 0.39853 0.28014 0.66337 0.0
C3173 C 0.4014 0.28907 0.66503 0.0
C3174 C 0.41342 0.27648 0.6576 0.0
C3175 C 0.40445 0.27379 0.6594 0.0
C3176 C 0.41625 0.28533 0.65925 0.0
C3177 C 0.42828 0.33379 0.65904 0.0
C3178 C 0.43787 0.3318 0.64579 0.0
C3179 C 0.43886 0.34554 0.65468 0.0
C3180 C 0.43219 0.34228 0.66048 0.0
C3181 C 0.4418 0.34036 0.64727 0.0
C3182 C 0.43116 0.32851 0.65168 0.0
C3183 C 0.42101 0.33098 0.66523 0.0
O3184 O 0.39706 0.32035 0.67446 0.0
O3185 O 0.40714 0.31747 0.68496 0.0
O3186 O 0.4233 0.32567 0.67197 0.0
O3187 O 0.41316 0.32891 0.66159 0.0
H3188 H 0.40077 0.33824 0.67941 0.0
H3189 H 0.39381 0.35093 0.68755 0.0
H3190 H 0.38241 0.33229 0.70691 0.0
H3191 H 0.38932 0.31961 0.6987 0.0
H3192 H 0.39159 0.27833 0.66486 0.0
H3193 H 0.39665 0.29393 0.66776 0.0
H3194 H 0.41826 0.27176 0.65478 0.0
H3195 H 0.42312 0.28724 0.65749 0.0
H3196 H 0.44001 0.32768 0.64013 0.0
H3197 H 0.4416 0.35223 0.6559 0.0
H3198 H 0.42999 0.34649 0.66607 0.0
H3199 H 0.42819 0.32192 0.65046 0.0
C3200 C 0.06888 0.42834 0.36074 0.0
C3201 C 0.07155 0.41957 0.35825 0.0
C3202 C 0.05967 0.41311 0.36774 0.0
C3203 C 0.067 0.41203 0.36174 0.0
C3204 C 0.05683 0.4219 0.36996 0.0
C3205 C 0.06143 0.42944 0.36651 0.0
U3206 U 0.08668 0.43967 0.34569 0.0
O3207 O 0.08721 0.45333 0.33972 0.0
O3208 O 0.09774 0.44898 0.34929 0.0
C3209 C 0.09465 0.4555 0.34411 0.0
C3210 C 0.07408 0.43635 0.35781 0.0
C3211 C 0.09548 0.46482 0.3476 0.0
C3212 C 0.091 0.47738 0.35729 0.0
C3213 C 0.08965 0.46849 0.35416 0.0
C3214 C 0.10397 0.47891 0.34739 0.0
C3215 C 0.09823 0.48261 0.35396 0.0
C3216 C 0.10259 0.47012 0.34424 0.0
C3217 C 0.09808 0.42336 0.32818 0.0
C3218 C 0.11079 0.42587 0.31799 0.0
C3219 C 0.10419 0.41092 0.31942 0.0
C3220 C 0.09793 0.41425 0.32561 0.0
C3221 C 0.11072 0.41666 0.31563 0.0
C3222 C 0.10449 0.42922 0.32428 0.0
C3223 C 0.09174 0.42618 0.33529 0.0
O3224 O 0.0828 0.43608 0.35957 0.0
O3225 O 0.07228 0.43946 0.34968 0.0
O3226 O 0.0853 0.43189 0.33304 0.0
O3227 O 0.09525 0.42776 0.34329 0.0
H3228 H 0.07726 0.41856 0.35376 0.0
H3229 H 0.06927 0.40533 0.35981 0.0
H3230 H 0.05125 0.42295 0.37459 0.0
H3231 H 0.05928 0.43615 0.36852 0.0
H3232 H 0.08647 0.48016 0.36234 0.0
H3233 H 0.08412 0.4645 0.35685 0.0
H3234 H 0.10953 0.48285 0.34468 0.0
H3235 H 0.10715 0.46742 0.33917 0.0
H3236 H 0.11584 0.43037 0.31516 0.0
H3237 H 0.10407 0.4038 0.31771 0.0
H3238 H 0.09306 0.40963 0.32857 0.0
H3239 H 0.10472 0.43628 0.32623 0.0
C3240 C 0.33213 0.31755 0.11001 0.0
C3241 C 0.34088 0.32058 0.10791 0.0
C3242 C 0.34728 0.30859 0.11724 0.0
C3243 C 0.34841 0.31612 0.11152 0.0
C3244 C 0.33851 0.30542 0.11903 0.0
C3245 C 0.33101 0.30988 0.11545 0.0
U3246 U 0.31784 0.33493 0.09621 0.0
O3247 O 0.30357 0.33303 0.09233 0.0
O3248 O 0.30737 0.34394 0.10202 0.0
C3249 C 0.30094 0.33977 0.09751 0.0
C3250 C 0.324 0.32253 0.1073 0.0
C3251 C 0.29129 0.34171 0.09891 0.0
C3252 C 0.27662 0.33805 0.10534 0.0
C3253 C 0.28555 0.33558 0.1033 0.0
C3254 C 0.27906 0.35268 0.09837 0.0
C3255 C 0.27328 0.34666 0.10296 0.0
C3256 C 0.28798 0.35022 0.0964 0.0
C3257 C 0.33137 0.3487 0.07726 0.0
C3258 C 0.33091 0.36348 0.07 0.0
C3259 C 0.342 0.35236 0.06528 0.0
C3260 C 0.33858 0.34628 0.07161 0.0
C3261 C 0.33828 0.36105 0.06445 0.0
C3262 C 0.32745 0.35731 0.07636 0.0
C3263 C 0.32904 0.34235 0.08459 0.0
O3264 O 0.32385 0.3312 0.10925 0.0
O3265 O 0.32058 0.32063 0.09932 0.0
O3266 O 0.32415 0.33517 0.08267 0.0
O3267 O 0.32759 0.34563 0.09273 0.0
H3268 H 0.34186 0.32649 0.1037 0.0
H3269 H 0.35512 0.31862 0.10993 0.0
H3270 H 0.33742 0.29969 0.12346 0.0
H3271 H 0.32428 0.30749 0.11715 0.0
H3272 H 0.27242 0.3333 0.10901 0.0
H3273 H 0.28803 0.32901 0.1054 0.0
H3274 H 0.2767 0.3593 0.09632 0.0
H3275 H 0.29236 0.35504 0.09303 0.0
H3276 H 0.32795 0.37016 0.06949 0.0
H3277 H 0.34778 0.35037 0.06124 0.0
H3278 H 0.34181 0.33973 0.07231 0.0
H3279 H 0.32192 0.35935 0.08071 0.0
C3280 C 0.43909 0.57796 0.8613 0.0
C3281 C 0.44189 0.58463 0.85515 0.0
C3282 C 0.44883 0.59335 0.86741 0.0
C3283 C 0.44679 0.59217 0.85815 0.0
C3284 C 0.44602 0.58658 0.8735 0.0
C3285 C 0.44126 0.57898 0.87047 0.0
U3286 U 0.42126 0.56674 0.8462 0.0
O3287 O 0.42089 0.55318 0.83999 0.0
O3288 O 0.41028 0.55726 0.84958 0.0
C3289 C 0.41348 0.55084 0.84433 0.0
C3290 C 0.43381 0.56998 0.85837 0.0
C3291 C 0.41282 0.54149 0.84776 0.0
C3292 C 0.41811 0.52863 0.85662 0.0
C3293 C 0.41926 0.53758 0.85358 0.0
C3294 C 0.40414 0.52752 0.84811 0.0
C3295 C 0.41048 0.52358 0.85395 0.0
C3296 C 0.40532 0.53636 0.84504 0.0
C3297 C 0.4101 0.58343 0.8288 0.0
C3298 C 0.3976 0.5814 0.81824 0.0
C3299 C 0.40532 0.59584 0.81925 0.0
C3300 C 0.41099 0.59238 0.82591 0.0
C3301 C 0.3986 0.5904 0.81528 0.0
C3302 C 0.40336 0.57791 0.82496 0.0
C3303 C 0.41622 0.58038 0.83601 0.0
O3304 O 0.42509 0.57029 0.86016 0.0
O3305 O 0.43559 0.56678 0.85027 0.0
O3306 O 0.42275 0.57479 0.83376 0.0
O3307 O 0.41253 0.57855 0.84388 0.0
H3308 H 0.44029 0.58402 0.84802 0.0
H3309 H 0.44898 0.59704 0.85315 0.0
H3310 H 0.44725 0.58723 0.88068 0.0
H3311 H 0.43914 0.57392 0.87533 0.0
H3312 H 0.4231 0.52568 0.86111 0.0
H3313 H 0.42511 0.54143 0.85576 0.0
H3314 H 0.39825 0.52373 0.84591 0.0
H3315 H 0.4003 0.53924 0.84052 0.0
H3316 H 0.39246 0.57708 0.81531 0.0
H3317 H 0.40613 0.60285 0.81729 0.0
H3318 H 0.41608 0.59676 0.82888 0.0
H3319 H 0.40256 0.57097 0.82717 0.0
C3320 C 0.17856 0.68838 0.61118 0.0
C3321 C 0.16981 0.68582 0.60846 0.0
C3322 C 0.16324 0.69762 0.61795 0.0
C3323 C 0.16222 0.69038 0.61184 0.0
C3324 C 0.17202 0.70035 0.62041 0.0
C3325 C 0.1796 0.69574 0.61707 0.0
U3326 U 0.19001 0.67076 0.59608 0.0
O3327 O 0.20368 0.67037 0.59009 0.0
O3328 O 0.19939 0.65973 0.59958 0.0
C3329 C 0.20585 0.66285 0.59432 0.0
C3330 C 0.1866 0.6832 0.60831 0.0
C3331 C 0.21528 0.66168 0.59738 0.0
C3332 C 0.22849 0.66548 0.60654 0.0
C3333 C 0.21943 0.66712 0.60399 0.0
C3334 C 0.22918 0.65305 0.59589 0.0
C3335 C 0.23347 0.65845 0.60244 0.0
C3336 C 0.22022 0.65465 0.59342 0.0
C3337 C 0.1744 0.65948 0.57805 0.0
C3338 C 0.17622 0.64525 0.56998 0.0
C3339 C 0.16367 0.65519 0.56639 0.0
C3340 C 0.16666 0.66132 0.57291 0.0
C3341 C 0.16836 0.64707 0.56495 0.0
C3342 C 0.17929 0.65147 0.57647 0.0
C3343 C 0.17669 0.66576 0.58542 0.0
O3344 O 0.18629 0.67447 0.60997 0.0
O3345 O 0.18982 0.68508 0.60024 0.0
O3346 O 0.18225 0.67242 0.58345 0.0
O3347 O 0.1782 0.66214 0.59339 0.0
H3348 H 0.16886 0.68019 0.60387 0.0
H3349 H 0.15554 0.6882 0.60973 0.0
H3350 H 0.17301 0.70586 0.62513 0.0
H3351 H 0.18629 0.69781 0.61925 0.0
H3352 H 0.23163 0.66977 0.61157 0.0
H3353 H 0.21571 0.67259 0.60713 0.0
H3354 H 0.23275 0.64751 0.5927 0.0
H3355 H 0.21713 0.65034 0.58835 0.0
H3356 H 0.17989 0.63899 0.56897 0.0
H3357 H 0.15751 0.65666 0.5627 0.0
H3358 H 0.16276 0.66741 0.57411 0.0
H3359 H 0.18528 0.64993 0.5804 0.0
C3360 C 0.06757 0.58077 0.14583 0.0
C3361 C 0.07092 0.5896 0.14674 0.0
C3362 C 0.05859 0.59525 0.13733 0.0
C3363 C 0.06646 0.5968 0.1425 0.0
C3364 C 0.05508 0.58646 0.13677 0.0
C3365 C 0.05956 0.57928 0.14096 0.0
U3366 U 0.08515 0.56692 0.16008 0.0
O3367 O 0.08357 0.55263 0.16402 0.0
O3368 O 0.09433 0.55663 0.15424 0.0
C3369 C 0.09031 0.55013 0.15877 0.0
C3370 C 0.07266 0.57282 0.14892 0.0
C3371 C 0.09253 0.54054 0.15744 0.0
C3372 C 0.08962 0.52584 0.15066 0.0
C3373 C 0.08683 0.5347 0.15258 0.0
C3374 C 0.10365 0.52852 0.15874 0.0
C3375 C 0.09809 0.52269 0.15369 0.0
C3376 C 0.10092 0.53738 0.16052 0.0
C3377 C 0.09895 0.58132 0.1785 0.0
C3378 C 0.11164 0.57918 0.18882 0.0
C3379 C 0.10501 0.59405 0.18691 0.0
C3380 C 0.09876 0.5905 0.18082 0.0
C3381 C 0.11156 0.58847 0.19088 0.0
C3382 C 0.10537 0.5756 0.18259 0.0
C3383 C 0.09257 0.57838 0.17144 0.0
O3384 O 0.08133 0.57267 0.14697 0.0
O3385 O 0.07078 0.56959 0.15698 0.0
O3386 O 0.08565 0.57322 0.17363 0.0
O3387 O 0.0957 0.57697 0.16325 0.0
H3388 H 0.07711 0.59088 0.15047 0.0
H3389 H 0.06922 0.60356 0.14314 0.0
H3390 H 0.04907 0.58507 0.13281 0.0
H3391 H 0.05693 0.57249 0.14014 0.0
H3392 H 0.08519 0.52143 0.14683 0.0
H3393 H 0.08034 0.53704 0.15009 0.0
H3394 H 0.11021 0.52628 0.16114 0.0
H3395 H 0.10542 0.54184 0.16421 0.0
H3396 H 0.1167 0.57479 0.1918 0.0
H3397 H 0.10483 0.60122 0.1884 0.0
H3398 H 0.09388 0.59501 0.17773 0.0
H3399 H 0.10563 0.56849 0.18085 0.0
C3400 C 0.17853 0.3185 0.89515 0.0
C3401 C 0.16972 0.32122 0.89745 0.0
C3402 C 0.1634 0.30929 0.88794 0.0
C3403 C 0.16222 0.31667 0.89385 0.0
C3404 C 0.17224 0.3064 0.88592 0.0
C3405 C 0.17973 0.31099 0.88948 0.0
U3406 U 0.18987 0.33622 0.91032 0.0
O3407 O 0.20338 0.33637 0.91671 0.0
O3408 O 0.19967 0.34684 0.90681 0.0
C3409 C 0.20595 0.34359 0.91221 0.0
C3410 C 0.18651 0.32367 0.89819 0.0
C3411 C 0.2154 0.34393 0.909 0.0
C3412 C 0.22706 0.34245 0.89741 0.0
C3413 C 0.21806 0.34115 0.9003 0.0
C3414 C 0.23073 0.3491 0.91193 0.0
C3415 C 0.23348 0.34648 0.90321 0.0
C3416 C 0.22182 0.34784 0.91476 0.0
C3417 C 0.1741 0.34784 0.9281 0.0
C3418 C 0.17513 0.36234 0.93585 0.0
C3419 C 0.16361 0.3515 0.94019 0.0
C3420 C 0.16679 0.3455 0.93365 0.0
C3421 C 0.16767 0.36002 0.94129 0.0
C3422 C 0.17838 0.35625 0.92932 0.0
C3423 C 0.17649 0.34159 0.92072 0.0
O3424 O 0.18632 0.33238 0.89642 0.0
O3425 O 0.1895 0.32184 0.90636 0.0
O3426 O 0.1818 0.33478 0.92279 0.0
O3427 O 0.17828 0.3452 0.9128 0.0
H3428 H 0.16865 0.32697 0.90187 0.0
H3429 H 0.15549 0.31897 0.89564 0.0
H3430 H 0.17336 0.30078 0.88136 0.0
H3431 H 0.18648 0.3088 0.88763 0.0
H3432 H 0.22899 0.34031 0.89068 0.0
H3433 H 0.21319 0.33815 0.89573 0.0
H3434 H 0.23544 0.35234 0.91651 0.0
H3435 H 0.21989 0.35012 0.92145 0.0
H3436 H 0.17835 0.36888 0.93658 0.0
H3437 H 0.15775 0.34961 0.94417 0.0
H3438 H 0.16334 0.33909 0.93275 0.0
H3439 H 0.18405 0.35819 0.92509 0.0
C3440 C 0.43947 0.42526 0.64641 0.0
C3441 C 0.43694 0.41645 0.64886 0.0
C3442 C 0.44859 0.41037 0.63887 0.0
C3443 C 0.44148 0.40903 0.64506 0.0
C3444 C 0.45125 0.4192 0.6367 0.0
C3445 C 0.4467 0.42657 0.64042 0.0
U3446 U 0.42227 0.44026 0.66022 0.0
O3447 O 0.42438 0.45472 0.66363 0.0
O3448 O 0.41373 0.4506 0.65378 0.0
C3449 C 0.4178 0.45717 0.65816 0.0
C3450 C 0.43436 0.4333 0.64923 0.0
C3451 C 0.41577 0.46669 0.65616 0.0
C3452 C 0.4161 0.47981 0.64627 0.0
C3453 C 0.41849 0.4708 0.64805 0.0
C3454 C 0.40828 0.48058 0.66066 0.0
C3455 C 0.41093 0.48477 0.65254 0.0
C3456 C 0.41067 0.47162 0.66242 0.0
C3457 C 0.40894 0.42697 0.68011 0.0
C3458 C 0.3941 0.424 0.68674 0.0
C3459 C 0.40737 0.41631 0.69248 0.0
C3460 C 0.41278 0.42096 0.68633 0.0
C3461 C 0.39791 0.41747 0.69253 0.0
C3462 C 0.39957 0.4287 0.68052 0.0
C3463 C 0.41477 0.43006 0.67261 0.0
O3464 O 0.42563 0.43333 0.64752 0.0
O3465 O 0.43649 0.43703 0.65701 0.0
O3466 O 0.42213 0.43481 0.67418 0.0
O3467 O 0.41131 0.43113 0.66448 0.0
H3468 H 0.43136 0.41531 0.65347 0.0
H3469 H 0.43936 0.40225 0.64687 0.0
H3470 H 0.45666 0.4204 0.6319 0.0
H3471 H 0.44867 0.43334 0.63842 0.0
H3472 H 0.41831 0.48291 0.64002 0.0
H3473 H 0.42241 0.46707 0.64311 0.0
H3474 H 0.40422 0.48419 0.66557 0.0
H3475 H 0.40842 0.46848 0.66864 0.0
H3476 H 0.38684 0.42507 0.68662 0.0
H3477 H 0.41059 0.41151 0.69698 0.0
H3478 H 0.41997 0.41948 0.68613 0.0
H3479 H 0.39645 0.43331 0.67577 0.0
C3480 C 0.32869 0.68806 0.39532 0.0
C3481 C 0.33744 0.68523 0.3977 0.0
C3482 C 0.34398 0.697 0.38818 0.0
C3483 C 0.34502 0.68964 0.39414 0.0
C3484 C 0.33521 0.70005 0.38613 0.0
C3485 C 0.32763 0.69558 0.38965 0.0
U3486 U 0.31758 0.67032 0.41041 0.0
O3487 O 0.30418 0.66999 0.41699 0.0
O3488 O 0.30787 0.65956 0.40703 0.0
C3489 C 0.30165 0.66271 0.41255 0.0
C3490 C 0.32065 0.68295 0.39831 0.0
C3491 C 0.29216 0.6622 0.40949 0.0
C3492 C 0.27992 0.66505 0.39879 0.0
C3493 C 0.28898 0.66629 0.40152 0.0
C3494 C 0.27726 0.65574 0.412 0.0
C3495 C 0.27397 0.65975 0.40404 0.0
C3496 C 0.28623 0.65696 0.41467 0.0
C3497 C 0.33423 0.65908 0.42776 0.0
C3498 C 0.3329 0.64552 0.437 0.0
C3499 C 0.346 0.65528 0.43854 0.0
C3500 C 0.34251 0.66101 0.43193 0.0
C3501 C 0.34126 0.64746 0.44115 0.0
C3502 C 0.32937 0.65133 0.43035 0.0
C3503 C 0.33129 0.66517 0.42047 0.0
O3504 O 0.3208 0.67426 0.39646 0.0
O3505 O 0.31773 0.68472 0.40651 0.0
O3506 O 0.32586 0.67184 0.42271 0.0
O3507 O 0.32932 0.66146 0.41263 0.0
H3508 H 0.33841 0.67947 0.40213 0.0
H3509 H 0.3517 0.68723 0.39596 0.0
H3510 H 0.33421 0.70567 0.38155 0.0
H3511 H 0.32092 0.69787 0.38776 0.0
H3512 H 0.27757 0.66826 0.39264 0.0
H3513 H 0.29349 0.67034 0.3974 0.0
H3514 H 0.27294 0.6515 0.41612 0.0
H3515 H 0.28857 0.65368 0.42079 0.0
H3516 H 0.32912 0.63953 0.43889 0.0
H3517 H 0.35254 0.65687 0.44144 0.0
H3518 H 0.3464 0.66691 0.42996 0.0
H3519 H 0.32296 0.64973 0.42717 0.0
C3520 C 0.36165 0.06803 0.42808 0.0
C3521 C 0.35957 0.07085 0.41926 0.0
C3522 C 0.36891 0.05874 0.41302 0.0
C3523 C 0.36319 0.06626 0.4118 0.0
C3524 C 0.37069 0.05574 0.42186 0.0
C3525 C 0.36712 0.06037 0.42932 0.0
U3526 U 0.34653 0.08587 0.43935 0.0
O3527 O 0.34063 0.08635 0.45305 0.0
O3528 O 0.35008 0.09696 0.44862 0.0
C3529 C 0.34498 0.09382 0.45519 0.0
C3530 C 0.35865 0.07328 0.43604 0.0
C3531 C 0.34855 0.09475 0.46447 0.0
C3532 C 0.35623 0.08919 0.47797 0.0
C3533 C 0.35319 0.08782 0.46905 0.0
C3534 C 0.35011 0.10438 0.47771 0.0
C3535 C 0.35476 0.09754 0.48234 0.0
C3536 C 0.34701 0.10298 0.46891 0.0
C3537 C 0.329 0.09757 0.42345 0.0
C3538 C 0.31963 0.11081 0.42635 0.0
C3539 C 0.31948 0.10368 0.41158 0.0
C3540 C 0.32568 0.09725 0.4146 0.0
C3541 C 0.31648 0.11053 0.41739 0.0
C3542 C 0.32589 0.10433 0.42938 0.0
C3543 C 0.33609 0.09107 0.42594 0.0
O3544 O 0.36042 0.08198 0.43577 0.0
O3545 O 0.35049 0.07148 0.43912 0.0
O3546 O 0.33385 0.08457 0.43157 0.0
O3547 O 0.34416 0.09447 0.42748 0.0
H3548 H 0.35532 0.07672 0.41815 0.0
H3549 H 0.36157 0.06865 0.40507 0.0
H3550 H 0.3751 0.05 0.42302 0.0
H3551 H 0.36881 0.0581 0.43607 0.0
H3552 H 0.35979 0.0838 0.48142 0.0
H3553 H 0.35444 0.0814 0.46575 0.0
H3554 H 0.34876 0.11082 0.48095 0.0
H3555 H 0.34338 0.10838 0.46554 0.0
H3556 H 0.3174 0.11611 0.43088 0.0
H3557 H 0.31716 0.10341 0.40463 0.0
H3558 H 0.32804 0.09212 0.40992 0.0
H3559 H 0.32844 0.1047 0.43624 0.0
C3560 C 0.86209 0.43901 0.57797 0.0
C3561 C 0.85944 0.4363 0.58668 0.0
C3562 C 0.86905 0.44796 0.59336 0.0
C3563 C 0.86292 0.44072 0.5943 0.0
C3564 C 0.87143 0.45083 0.58463 0.0
C3565 C 0.868 0.44637 0.577 0.0
U3566 U 0.84676 0.42162 0.56655 0.0
O3567 O 0.8407 0.42125 0.55291 0.0
O3568 O 0.85003 0.4105 0.55723 0.0
C3569 C 0.84488 0.4137 0.55074 0.0
C3570 C 0.85913 0.43396 0.56988 0.0
C3571 C 0.84827 0.41271 0.54141 0.0
C3572 C 0.85763 0.4171 0.52857 0.0
C3573 C 0.85454 0.41866 0.53744 0.0
C3574 C 0.84822 0.40371 0.52765 0.0
C3575 C 0.85458 0.40952 0.52364 0.0
C3576 C 0.8451 0.40531 0.53641 0.0
C3577 C 0.82918 0.4104 0.58275 0.0
C3578 C 0.8203 0.39668 0.58071 0.0
C3579 C 0.81954 0.40499 0.59483 0.0
C3580 C 0.82558 0.41137 0.59144 0.0
C3581 C 0.81698 0.39755 0.58956 0.0
C3582 C 0.82642 0.40311 0.5773 0.0
C3583 C 0.83637 0.4167 0.58007 0.0
O3584 O 0.86076 0.42522 0.57006 0.0
O3585 O 0.85102 0.43592 0.56677 0.0
O3586 O 0.83419 0.42322 0.57443 0.0
O3587 O 0.84433 0.4131 0.57844 0.0
H3588 H 0.85484 0.43066 0.58757 0.0
H3589 H 0.86085 0.43843 0.60095 0.0
H3590 H 0.87617 0.45634 0.58368 0.0
H3591 H 0.87012 0.44855 0.57034 0.0
H3592 H 0.86253 0.42169 0.52563 0.0
H3593 H 0.85707 0.42441 0.5412 0.0
H3594 H 0.84561 0.39792 0.52399 0.0
H3595 H 0.84022 0.40068 0.53933 0.0
H3596 H 0.81842 0.39091 0.5766 0.0
H3597 H 0.81709 0.40571 0.6017 0.0
H3598 H 0.82768 0.41692 0.59575 0.0
H3599 H 0.82919 0.40224 0.57057 0.0
C3600 C 0.31823 0.11037 0.33094 0.0
C3601 C 0.31995 0.10684 0.33957 0.0
C3602 C 0.30882 0.11722 0.34603 0.0
C3603 C 0.31526 0.11025 0.34707 0.0
C3604 C 0.3071 0.1206 0.33733 0.0
C3605 C 0.31177 0.11721 0.32988 0.0
U3606 U 0.33563 0.09631 0.31681 0.0
O3607 O 0.33371 0.09241 0.3026 0.0
O3608 O 0.34468 0.10209 0.30631 0.0
C3609 C 0.34042 0.09761 0.29991 0.0
C3610 C 0.32321 0.10745 0.32289 0.0
C3611 C 0.34249 0.09871 0.29026 0.0
C3612 C 0.33862 0.10426 0.27529 0.0
C3613 C 0.33607 0.10214 0.28416 0.0
C3614 C 0.35388 0.09915 0.27842 0.0
C3615 C 0.34758 0.10286 0.27232 0.0
C3616 C 0.35135 0.09714 0.2873 0.0
C3617 C 0.34933 0.07788 0.33141 0.0
C3618 C 0.36195 0.06739 0.32977 0.0
C3619 C 0.35509 0.06981 0.34446 0.0
C3620 C 0.34897 0.07585 0.34064 0.0
C3621 C 0.3617 0.06562 0.33912 0.0
C3622 C 0.3558 0.07357 0.32592 0.0
C3623 C 0.34311 0.08494 0.32817 0.0
O3624 O 0.33188 0.10942 0.32268 0.0
O3625 O 0.32132 0.09939 0.31965 0.0
O3626 O 0.33613 0.08275 0.3231 0.0
O3627 O 0.34632 0.09309 0.32668 0.0
H3628 H 0.32497 0.10158 0.3405 0.0
H3629 H 0.31683 0.10756 0.3537 0.0
H3630 H 0.3021 0.12584 0.33625 0.0
H3631 H 0.31037 0.11999 0.32325 0.0
H3632 H 0.33363 0.10727 0.27084 0.0
H3633 H 0.32921 0.10353 0.28636 0.0
H3634 H 0.3608 0.09786 0.27638 0.0
H3635 H 0.35638 0.09453 0.29194 0.0
H3636 H 0.36704 0.06423 0.32556 0.0
H3637 H 0.35478 0.06854 0.35167 0.0
H3638 H 0.34404 0.07912 0.34498 0.0
H3639 H 0.35619 0.07509 0.31877 0.0
C3640 C 0.64648 0.56823 0.08042 0.0
C3641 C 0.64999 0.56943 0.08915 0.0
C3642 C 0.63901 0.55854 0.09499 0.0
C3643 C 0.64628 0.56458 0.0964 0.0
C3644 C 0.63564 0.55735 0.0862 0.0
C3645 C 0.63936 0.56214 0.079 0.0
U3646 U 0.66083 0.5857 0.06638 0.0
O3647 O 0.66471 0.58344 0.05217 0.0
O3648 O 0.65491 0.59435 0.0557 0.0
C3649 C 0.65928 0.58992 0.04937 0.0
C3650 C 0.64971 0.57335 0.07259 0.0
C3651 C 0.6582 0.59192 0.03972 0.0
C3652 C 0.65205 0.58803 0.025 0.0
C3653 C 0.65418 0.58561 0.0339 0.0
C3654 C 0.65823 0.60299 0.02759 0.0
C3655 C 0.65398 0.59677 0.02175 0.0
C3656 C 0.66026 0.60059 0.03651 0.0
C3657 C 0.67917 0.59934 0.0815 0.0
C3658 C 0.69063 0.61119 0.08111 0.0
C3659 C 0.68717 0.60352 0.09517 0.0
C3660 C 0.68074 0.59826 0.09075 0.0
C3661 C 0.69227 0.60999 0.09043 0.0
C3662 C 0.68411 0.60585 0.07665 0.0
C3663 C 0.67218 0.59356 0.07742 0.0
O3664 O 0.64774 0.58201 0.07238 0.0
O3665 O 0.65783 0.57146 0.06951 0.0
O3666 O 0.67441 0.58642 0.07261 0.0
O3667 O 0.66403 0.59678 0.07586 0.0
H3668 H 0.65547 0.57414 0.09035 0.0
H3669 H 0.64896 0.56569 0.10313 0.0
H3670 H 0.63016 0.55267 0.08488 0.0
H3671 H 0.6366 0.56115 0.07229 0.0
H3672 H 0.64865 0.58312 0.02076 0.0
H3673 H 0.65238 0.57894 0.03633 0.0
H3674 H 0.65995 0.60972 0.02529 0.0
H3675 H 0.66329 0.60556 0.04096 0.0
H3676 H 0.69445 0.61613 0.07729 0.0
H3677 H 0.68808 0.60257 0.10238 0.0
H3678 H 0.67693 0.59333 0.09462 0.0
H3679 H 0.68294 0.6068 0.06948 0.0
C3680 C 0.68874 0.39535 0.32859 0.0
C3681 C 0.68785 0.39948 0.33709 0.0
C3682 C 0.69862 0.38873 0.34363 0.0
C3683 C 0.69273 0.3962 0.34453 0.0
C3684 C 0.6995 0.38469 0.33506 0.0
C3685 C 0.69461 0.38796 0.32764 0.0
U3686 U 0.67094 0.41062 0.31732 0.0
O3687 O 0.67066 0.41676 0.30373 0.0
O3688 O 0.66011 0.40704 0.30773 0.0
C3689 C 0.66326 0.41239 0.30138 0.0
C3690 C 0.68345 0.3984 0.32069 0.0
C3691 C 0.66239 0.40934 0.29191 0.0
C3692 C 0.66567 0.39929 0.27922 0.0
C3693 C 0.66713 0.40193 0.28827 0.0
C3694 C 0.65484 0.41145 0.27747 0.0
C3695 C 0.65951 0.40407 0.27371 0.0
C3696 C 0.65627 0.41403 0.28642 0.0
C3697 C 0.65942 0.42828 0.33339 0.0
C3698 C 0.64672 0.43844 0.33064 0.0
C3699 C 0.65333 0.43737 0.34561 0.0
C3700 C 0.65959 0.43108 0.34243 0.0
C3701 C 0.64679 0.44102 0.33979 0.0
C3702 C 0.65302 0.43206 0.32744 0.0
C3703 C 0.66574 0.42107 0.33072 0.0
O3704 O 0.67472 0.39671 0.32103 0.0
O3705 O 0.6853 0.40654 0.31762 0.0
O3706 O 0.67234 0.42323 0.32516 0.0
O3707 O 0.66217 0.41311 0.32906 0.0
H3708 H 0.68331 0.40516 0.33798 0.0
H3709 H 0.69174 0.39942 0.35104 0.0
H3710 H 0.70404 0.37904 0.33404 0.0
H3711 H 0.69539 0.38468 0.32114 0.0
H3712 H 0.6694 0.3936 0.27651 0.0
H3713 H 0.67189 0.3982 0.29241 0.0
H3714 H 0.64994 0.41519 0.27351 0.0
H3715 H 0.65249 0.41971 0.28911 0.0
H3716 H 0.64167 0.44116 0.32608 0.0
H3717 H 0.65346 0.43925 0.35269 0.0
H3718 H 0.66445 0.42823 0.34711 0.0
H3719 H 0.65278 0.42994 0.32043 0.0
C3720 C 0.14755 0.93973 0.92585 0.0
C3721 C 0.14899 0.9365 0.91705 0.0
C3722 C 0.13967 0.94872 0.91104 0.0
C3723 C 0.14507 0.94098 0.90969 0.0
C3724 C 0.13857 0.9521 0.91983 0.0
C3725 C 0.14247 0.94762 0.92716 0.0
U3726 U 0.16107 0.92181 0.93994 0.0
O3727 O 0.16516 0.92354 0.95416 0.0
O3728 O 0.15492 0.91309 0.95046 0.0
C3729 C 0.15966 0.91707 0.95684 0.0
C3730 C 0.1504 0.93466 0.93388 0.0
C3731 C 0.15832 0.91515 0.96648 0.0
C3732 C 0.1523 0.91909 0.98125 0.0
C3733 C 0.15442 0.92152 0.97234 0.0
C3734 C 0.15821 0.90404 0.97857 0.0
C3735 C 0.15409 0.91029 0.98445 0.0
C3736 C 0.16026 0.90646 0.96967 0.0
C3737 C 0.17887 0.90739 0.9251 0.0
C3738 C 0.1901 0.89539 0.92651 0.0
C3739 C 0.18706 0.90215 0.9119 0.0
C3740 C 0.18061 0.90778 0.91582 0.0
C3741 C 0.19195 0.89595 0.91718 0.0
C3742 C 0.18361 0.90114 0.93048 0.0
C3743 C 0.17203 0.91373 0.9286 0.0
O3744 O 0.14808 0.92609 0.93417 0.0
O3745 O 0.15857 0.93623 0.93704 0.0
O3746 O 0.17454 0.92067 0.93356 0.0
O3747 O 0.16376 0.91085 0.93017 0.0
H3748 H 0.1529 0.9304 0.91591 0.0
H3749 H 0.14614 0.93831 0.90295 0.0
H3750 H 0.13441 0.95801 0.92108 0.0
H3751 H 0.14125 0.95016 0.93393 0.0
H3752 H 0.14902 0.92403 0.98555 0.0
H3753 H 0.15275 0.92824 0.96995 0.0
H3754 H 0.15982 0.89727 0.98083 0.0
H3755 H 0.16323 0.90146 0.96521 0.0
H3756 H 0.19379 0.89066 0.93071 0.0
H3757 H 0.1882 0.90264 0.90468 0.0
H3758 H 0.17699 0.91251 0.91155 0.0
H3759 H 0.18233 0.90074 0.93768 0.0
C3760 C 0.31902 0.89492 0.17843 0.0
C3761 C 0.31749 0.90056 0.17098 0.0
C3762 C 0.30959 0.88831 0.1631 0.0
C3763 C 0.31271 0.89734 0.16347 0.0
C3764 C 0.31104 0.88276 0.1707 0.0
C3765 C 0.31566 0.88606 0.17829 0.0
U3766 U 0.33668 0.9105 0.18919 0.0
O3767 O 0.33696 0.91719 0.20252 0.0
O3768 O 0.34757 0.90741 0.19885 0.0
C3769 C 0.34435 0.91292 0.20504 0.0
C3770 C 0.32431 0.89806 0.1863 0.0
C3771 C 0.34495 0.90996 0.21453 0.0
C3772 C 0.34254 0.89922 0.2268 0.0
C3773 C 0.34121 0.90182 0.21773 0.0
C3774 C 0.35119 0.91289 0.22942 0.0
C3775 C 0.34756 0.90475 0.23273 0.0
C3776 C 0.3499 0.91544 0.22045 0.0
C3777 C 0.34785 0.9282 0.17321 0.0
C3778 C 0.36208 0.93637 0.17471 0.0
C3779 C 0.35157 0.94026 0.16275 0.0
C3780 C 0.34563 0.93359 0.16576 0.0
C3781 C 0.35989 0.94168 0.16713 0.0
C3782 C 0.35606 0.92969 0.17778 0.0
C3783 C 0.34167 0.92075 0.17557 0.0
O3784 O 0.33305 0.89644 0.18591 0.0
O3785 O 0.32241 0.90622 0.18929 0.0
O3786 O 0.33485 0.92277 0.18091 0.0
O3787 O 0.3454 0.9129 0.1774 0.0
H3788 H 0.32 0.90745 0.17095 0.0
H3789 H 0.31151 0.90201 0.15797 0.0
H3790 H 0.30889 0.87577 0.17074 0.0
H3791 H 0.31679 0.8816 0.184 0.0
H3792 H 0.33962 0.89293 0.22917 0.0
H3793 H 0.33738 0.89748 0.21324 0.0
H3794 H 0.35521 0.91724 0.23374 0.0
H3795 H 0.35291 0.9217 0.21809 0.0
H3796 H 0.36846 0.93734 0.1782 0.0
H3797 H 0.34977 0.94411 0.15678 0.0
H3798 H 0.33936 0.93248 0.16211 0.0
H3799 H 0.3579 0.92559 0.18356 0.0
C3800 C 0.19028 0.10981 0.67563 0.0
C3801 C 0.18718 0.10798 0.66685 0.0
C3802 C 0.19925 0.11739 0.66064 0.0
C3803 C 0.19165 0.11175 0.6594 0.0
C3804 C 0.2025 0.11889 0.66943 0.0
C3805 C 0.19803 0.11514 0.67685 0.0
U3806 U 0.17272 0.09625 0.69016 0.0
O3807 O 0.17445 0.09256 0.70455 0.0
O3808 O 0.16386 0.10247 0.70043 0.0
C3809 C 0.16779 0.09793 0.70698 0.0
C3810 C 0.18516 0.10716 0.68371 0.0
C3811 C 0.16571 0.09979 0.71651 0.0
C3812 C 0.16685 0.10897 0.73009 0.0
C3813 C 0.16938 0.10723 0.72112 0.0
C3814 C 0.15712 0.09576 0.7299 0.0
C3815 C 0.16063 0.10329 0.73455 0.0
C3816 C 0.15965 0.09405 0.72096 0.0
C3817 C 0.15939 0.07653 0.67698 0.0
C3818 C 0.1443 0.07042 0.67408 0.0
C3819 C 0.15745 0.06345 0.66724 0.0
C3820 C 0.16305 0.06967 0.67157 0.0
C3821 C 0.14798 0.06397 0.66812 0.0
C3822 C 0.14997 0.07671 0.67846 0.0
C3823 C 0.16547 0.08407 0.67947 0.0
O3824 O 0.17646 0.10905 0.68369 0.0
O3825 O 0.18708 0.09931 0.68739 0.0
O3826 O 0.17269 0.08244 0.68441 0.0
O3827 O 0.16207 0.09221 0.68055 0.0
H3828 H 0.18119 0.10388 0.66578 0.0
H3829 H 0.18909 0.11039 0.65267 0.0
H3830 H 0.20829 0.12324 0.6706 0.0
H3831 H 0.20045 0.11667 0.68359 0.0
H3832 H 0.16977 0.11473 0.73356 0.0
H3833 H 0.17413 0.11171 0.71778 0.0
H3834 H 0.15228 0.0913 0.7331 0.0
H3835 H 0.15675 0.0883 0.71747 0.0
H3836 H 0.13704 0.071 0.67491 0.0
H3837 H 0.16055 0.05846 0.66286 0.0
H3838 H 0.17027 0.06943 0.67026 0.0
H3839 H 0.14697 0.08197 0.68257 0.0
H3840 H 0.13529 0.22584 0.36653 0.0
H3841 H 0.10614 0.22375 0.36694 0.0
H3842 H 0.12237 0.2032 0.37944 0.0
H3843 H 0.1092 0.23159 0.35208 0.0
C3844 C 0.1133 0.23678 0.35529 0.0
C3845 C 0.1292 0.22212 0.36825 0.0
C3846 C 0.12985 0.21402 0.37318 0.0
C3847 C 0.12068 0.2256 0.36577 0.0
C3848 C 0.11275 0.22093 0.36837 0.0
C3849 C 0.11342 0.21284 0.37328 0.0
C3850 C 0.12193 0.2094 0.37552 0.0
N3851 N 0.12024 0.2342 0.36145 0.0
H3852 H 0.03164 0.88459 0.61447 0.0
H3853 H 0.03417 0.85566 0.61811 0.0
H3854 H 0.05356 0.8735 0.63005 0.0
H3855 H 0.02534 0.8549 0.60613 0.0
C3856 C 0.02071 0.86059 0.60653 0.0
C3857 C 0.0353 0.87877 0.61702 0.0
C3858 C 0.04308 0.88004 0.62237 0.0
C3859 C 0.03204 0.86998 0.61521 0.0
C3860 C 0.03671 0.86247 0.61891 0.0
C3861 C 0.0445 0.86377 0.62416 0.0
C3862 C 0.04765 0.87252 0.6258 0.0
N3863 N 0.02377 0.86894 0.61027 0.0
H3864 H 0.37299 0.78084 0.86791 0.0
H3865 H 0.40196 0.7844 0.86877 0.0
H3866 H 0.3845 0.80537 0.87853 0.0
H3867 H 0.39921 0.77586 0.85421 0.0
C3868 C 0.39585 0.77054 0.858 0.0
C3869 C 0.37883 0.78499 0.86948 0.0
C3870 C 0.37764 0.79372 0.87314 0.0
C3871 C 0.38759 0.78168 0.86764 0.0
C3872 C 0.39519 0.78701 0.86982 0.0
C3873 C 0.39406 0.7956 0.87366 0.0
C3874 C 0.38532 0.79888 0.87522 0.0
N3875 N 0.38868 0.77283 0.86401 0.0
H3876 H 0.47673 0.1222 0.1184 0.0
H3877 H 0.47266 0.15107 0.11802 0.0
H3878 H 0.45236 0.1336 0.12937 0.0
H3879 H 0.48076 0.14676 0.1026 0.0
C3880 C 0.48627 0.14416 0.10672 0.0
C3881 C 0.4725 0.12804 0.11975 0.0
C3882 C 0.46406 0.12692 0.12397 0.0
C3883 C 0.47557 0.13673 0.11742 0.0
C3884 C 0.47019 0.14433 0.11947 0.0
C3885 C 0.46177 0.14321 0.12373 0.0
C3886 C 0.45875 0.13449 0.12586 0.0
N3887 N 0.48435 0.13779 0.11364 0.0
H3888 H 0.13517 0.7814 0.1387 0.0
H3889 H 0.10616 0.78461 0.13795 0.0
H3890 H 0.12335 0.80546 0.12741 0.0
H3891 H 0.10912 0.7767 0.15263 0.0
C3892 C 0.11274 0.77124 0.1493 0.0
C3893 C 0.12928 0.78542 0.13701 0.0
C3894 C 0.13035 0.79403 0.1331 0.0
C3895 C 0.12058 0.78207 0.139 0.0
C3896 C 0.1129 0.78725 0.13673 0.0
C3897 C 0.11391 0.79575 0.13265 0.0
C3898 C 0.12261 0.79905 0.1309 0.0
N3899 N 0.11967 0.77336 0.14297 0.0
H3900 H 0.47696 0.8855 0.39114 0.0
H3901 H 0.47469 0.85687 0.38624 0.0
H3902 H 0.45267 0.87459 0.37947 0.0
H3903 H 0.48264 0.86296 0.40538 0.0
C3904 C 0.48793 0.86476 0.4006 0.0
C3905 C 0.47296 0.87975 0.38898 0.0
C3906 C 0.4642 0.8811 0.38546 0.0
C3907 C 0.47657 0.87096 0.38971 0.0
C3908 C 0.47162 0.86353 0.38633 0.0
C3909 C 0.46309 0.86491 0.38232 0.0
C3910 C 0.4593 0.87359 0.38244 0.0
N3911 N 0.48564 0.86982 0.39275 0.0
H3912 H 0.37248 0.22524 0.63999 0.0
H3913 H 0.40167 0.22346 0.63911 0.0
H3914 H 0.38554 0.20259 0.6272 0.0
H3915 H 0.40079 0.23235 0.65154 0.0
C3916 C 0.39518 0.23687 0.65009 0.0
C3917 C 0.37858 0.22158 0.63824 0.0
C3918 C 0.37797 0.21347 0.63326 0.0
C3919 C 0.3871 0.22517 0.64066 0.0
C3920 C 0.39504 0.22059 0.63789 0.0
C3921 C 0.39441 0.21242 0.63313 0.0
C3922 C 0.38593 0.20886 0.63101 0.0
N3923 N 0.38749 0.23368 0.64522 0.0
H3924 H 0.03113 0.12222 0.88893 0.0
H3925 H 0.03326 0.15125 0.88806 0.0
H3926 H 0.0552 0.13486 0.87845 0.0
H3927 H 0.02531 0.14439 0.90522 0.0
C3928 C 0.02003 0.14258 0.90043 0.0
C3929 C 0.03505 0.12823 0.88744 0.0
C3930 C 0.04383 0.12743 0.88378 0.0
C3931 C 0.03133 0.1368 0.88929 0.0
C3932 C 0.03627 0.14464 0.8871 0.0
C3933 C 0.04492 0.14389 0.88323 0.0
C3934 C 0.04866 0.13534 0.88176 0.0
N3935 N 0.02232 0.13746 0.89262 0.0
H3936 H 0.3688 0.1346 0.22547 0.0
H3937 H 0.3693 0.10563 0.22233 0.0
H3938 H 0.37976 0.12263 0.20132 0.0
H3939 H 0.35436 0.10911 0.23023 0.0
C3940 C 0.35799 0.11241 0.23571 0.0
C3941 C 0.3704 0.1287 0.22144 0.0
C3942 C 0.37423 0.12973 0.21278 0.0
C3943 C 0.36839 0.12004 0.22483 0.0
C3944 C 0.37053 0.11233 0.21965 0.0
C3945 C 0.37453 0.11329 0.21111 0.0
C3946 C 0.37631 0.12196 0.20776 0.0
N3947 N 0.36454 0.11915 0.2336 0.0
H3948 H 0.12278 0.11886 0.47586 0.0
H3949 H 0.15176 0.1189 0.47241 0.0
H3950 H 0.13457 0.12841 0.45104 0.0
H3951 H 0.14746 0.10357 0.48043 0.0
C3952 C 0.14468 0.10758 0.48593 0.0
C3953 C 0.12867 0.12015 0.47169 0.0
C3954 C 0.12761 0.1236 0.46288 0.0
C3955 C 0.13736 0.11813 0.47504 0.0
C3956 C 0.14503 0.12003 0.46972 0.0
C3957 C 0.14402 0.12372 0.46104 0.0
C3958 C 0.13532 0.12531 0.45765 0.0
N3959 N 0.13834 0.11452 0.4839 0.0
H3960 H 0.14105 0.87172 0.72538 0.0
H3961 H 0.1388 0.90074 0.72277 0.0
H3962 H 0.1283 0.88353 0.70205 0.0
H3963 H 0.1515 0.90034 0.7312 0.0
C3964 C 0.15013 0.89514 0.7362 0.0
C3965 C 0.13895 0.87762 0.72159 0.0
C3966 C 0.13463 0.87654 0.71315 0.0
C3967 C 0.14078 0.88633 0.72504 0.0
C3968 C 0.13786 0.89399 0.72011 0.0
C3969 C 0.13355 0.89296 0.71172 0.0
C3970 C 0.13198 0.88427 0.70836 0.0
N3971 N 0.14533 0.8872 0.73354 0.0
H3972 H 0.38537 0.88859 0.9752 0.0
H3973 H 0.35635 0.88809 0.97204 0.0
H3974 H 0.37339 0.87766 0.95103 0.0
H3975 H 0.35941 0.90275 0.97995 0.0
C3976 C 0.36303 0.89939 0.98541 0.0
C3977 C 0.37945 0.887 0.97116 0.0
C3978 C 0.38047 0.88314 0.96252 0.0
C3979 C 0.37078 0.88907 0.97453 0.0
C3980 C 0.36306 0.88687 0.96936 0.0
C3981 C 0.36403 0.88284 0.96083 0.0
C3982 C 0.3727 0.88108 0.95748 0.0
N3983 N 0.36991 0.89302 0.98326 0.0
H3984 H 0.36662 0.87375 0.28076 0.0
H3985 H 0.3688 0.90279 0.28329 0.0
H3986 H 0.37927 0.88566 0.30409 0.0
H3987 H 0.35609 0.90228 0.27475 0.0
C3988 C 0.35746 0.897 0.26984 0.0
C3989 C 0.36867 0.87967 0.28456 0.0
C3990 C 0.37298 0.87866 0.29299 0.0
C3991 C 0.36683 0.88835 0.28109 0.0
C3992 C 0.36973 0.89606 0.28599 0.0
C3993 C 0.37403 0.89505 0.29439 0.0
C3994 C 0.37559 0.88639 0.29778 0.0
N3995 N 0.36231 0.88914 0.27258 0.0
H3996 H 0.38549 0.11714 0.53072 0.0
H3997 H 0.35636 0.11801 0.53269 0.0
H3998 H 0.37265 0.12859 0.55421 0.0
H3999 H 0.35931 0.1034 0.52465 0.0
C4000 C 0.36342 0.10657 0.51945 0.0
C4001 C 0.37943 0.11884 0.53449 0.0
C4002 C 0.38016 0.12287 0.5431 0.0
C4003 C 0.37088 0.11678 0.53079 0.0
C4004 C 0.36298 0.11916 0.53562 0.0
C4005 C 0.36368 0.12333 0.54412 0.0
C4006 C 0.37222 0.12506 0.54779 0.0
N4007 N 0.37035 0.11276 0.52205 0.0
H4008 H 0.1411 0.1343 0.78223 0.0
H4009 H 0.13825 0.10534 0.78496 0.0
H4010 H 0.12788 0.12278 0.80547 0.0
H4011 H 0.15038 0.10505 0.77623 0.0
C4012 C 0.14934 0.11047 0.77139 0.0
C4013 C 0.13886 0.12846 0.78604 0.0
C4014 C 0.13444 0.12964 0.79441 0.0
C4015 C 0.14055 0.1197 0.78265 0.0
C4016 C 0.13745 0.11213 0.78757 0.0
C4017 C 0.13312 0.11326 0.7959 0.0
C4018 C 0.13162 0.12198 0.79921 0.0
N4019 N 0.14513 0.11868 0.77421 0.0
H4020 H 0.12259 0.8896 0.0319 0.0
H4021 H 0.15167 0.88785 0.03363 0.0
H4022 H 0.13529 0.87711 0.05497 0.0
H4023 H 0.1481 0.90363 0.02657 0.0
C4024 C 0.14466 0.90009 0.02111 0.0
C4025 C 0.12861 0.88764 0.0356 0.0
C4026 C 0.12784 0.88341 0.0441 0.0
C4027 C 0.1372 0.88953 0.03192 0.0
C4028 C 0.14504 0.88684 0.03661 0.0
C4029 C 0.14429 0.88241 0.04493 0.0
C4030 C 0.13575 0.88083 0.04866 0.0
N4031 N 0.13785 0.89364 0.02325 0.0
H4032 H 0.22609 0.36814 0.13424 0.0
H4033 H 0.22364 0.36838 0.10519 0.0
H4034 H 0.20272 0.38003 0.12153 0.0
H4035 H 0.23107 0.35299 0.10902 0.0
C4036 C 0.23651 0.3567 0.1123 0.0
C4037 C 0.2222 0.36967 0.12822 0.0
C4038 C 0.21389 0.37428 0.12896 0.0
C4039 C 0.22565 0.36729 0.11967 0.0
C4040 C 0.2208 0.36969 0.11182 0.0
C4041 C 0.21255 0.37429 0.11255 0.0
C4042 C 0.20907 0.37637 0.12107 0.0
N4043 N 0.23435 0.36322 0.11902 0.0
H4044 H 0.72631 0.1403 0.87158 0.0
H4045 H 0.72446 0.1384 0.90068 0.0
H4046 H 0.70401 0.12638 0.88414 0.0
H4047 H 0.73221 0.15178 0.89979 0.0
C4048 C 0.73723 0.15025 0.89465 0.0
C4049 C 0.72268 0.13822 0.87759 0.0
C4050 C 0.71471 0.13302 0.87678 0.0
C4051 C 0.72617 0.14047 0.8862 0.0
C4052 C 0.72164 0.13731 0.89402 0.0
C4053 C 0.71368 0.13222 0.8932 0.0
C4054 C 0.71018 0.13034 0.88465 0.0
N4055 N 0.73454 0.1453 0.88682 0.0
H4056 H 0.11684 0.47495 0.12224 0.0
H4057 H 0.12003 0.47174 0.15113 0.0
H4058 H 0.12983 0.45135 0.13326 0.0
H4059 H 0.10919 0.48143 0.15217 0.0
C4060 C 0.10959 0.48598 0.14644 0.0
C4061 C 0.11908 0.47103 0.12801 0.0
C4062 C 0.12337 0.46261 0.12666 0.0
C4063 C 0.11754 0.47434 0.13683 0.0
C4064 C 0.12068 0.46925 0.14429 0.0
C4065 C 0.12486 0.46086 0.14299 0.0
C4066 C 0.1262 0.45765 0.13422 0.0
N4067 N 0.11309 0.48286 0.138 0.0
H4068 H 0.78163 0.86659 0.37162 0.0
H4069 H 0.78282 0.86871 0.40066 0.0
H4070 H 0.80453 0.87919 0.38456 0.0
H4071 H 0.77531 0.85173 0.39558 0.0
C4072 C 0.77007 0.85616 0.39294 0.0
C4073 C 0.78526 0.86856 0.37767 0.0
C4074 C 0.79383 0.87274 0.37698 0.0
C4075 C 0.78137 0.86682 0.38621 0.0
C4076 C 0.78596 0.86957 0.3941 0.0
C4077 C 0.79431 0.87404 0.39343 0.0
C4078 C 0.79821 0.87545 0.38494 0.0
N4079 N 0.77248 0.86312 0.38675 0.0
H4080 H 0.89134 0.0316 0.12154 0.0
H4081 H 0.88853 0.033 0.15058 0.0
H4082 H 0.87802 0.05428 0.13411 0.0
H4083 H 0.90202 0.02531 0.14974 0.0
C4084 C 0.90048 0.02027 0.14462 0.0
C4085 C 0.88909 0.03515 0.12754 0.0
C4086 C 0.88463 0.04356 0.12672 0.0
C4087 C 0.89086 0.03139 0.13614 0.0
C4088 C 0.88772 0.03595 0.14393 0.0
C4089 C 0.88325 0.04426 0.14313 0.0
C4090 C 0.88179 0.048 0.1346 0.0
N4091 N 0.89549 0.02293 0.1368 0.0
H4092 H 0.2816 0.64295 0.63471 0.0
H4093 H 0.2846 0.63642 0.60642 0.0
H4094 H 0.30618 0.63098 0.625 0.0
H4095 H 0.27516 0.648 0.60439 0.0
C4096 C 0.27057 0.64805 0.61012 0.0
C4097 C 0.28568 0.64044 0.62916 0.0
C4098 C 0.29431 0.63681 0.6309 0.0
C4099 C 0.28234 0.64095 0.62025 0.0
C4100 C 0.28742 0.63696 0.61315 0.0
C4101 C 0.29593 0.63306 0.6149 0.0
C4102 C 0.29949 0.63366 0.62366 0.0
N4103 N 0.2737 0.64504 0.61873 0.0
H4104 H 0.11987 0.53048 0.38395 0.0
H4105 H 0.11783 0.53343 0.35509 0.0
H4106 H 0.12691 0.55571 0.37108 0.0
H4107 H 0.10439 0.52481 0.35819 0.0
C4108 C 0.10753 0.51965 0.36237 0.0
C4109 C 0.12045 0.53472 0.37802 0.0
C4110 C 0.12405 0.54356 0.37869 0.0
C4111 C 0.11766 0.5312 0.36959 0.0
C4112 C 0.11917 0.53632 0.36168 0.0
C4113 C 0.12269 0.54511 0.36227 0.0
C4114 C 0.12455 0.54879 0.37078 0.0
N4115 N 0.11387 0.52233 0.36914 0.0
H4116 H 0.39129 0.47501 0.88458 0.0
H4117 H 0.38913 0.47386 0.8555 0.0
H4118 H 0.37799 0.45255 0.87163 0.0
H4119 H 0.40377 0.48142 0.85765 0.0
C4120 C 0.40121 0.48655 0.86226 0.0
C4121 C 0.38915 0.4715 0.87851 0.0
C4122 C 0.38465 0.46311 0.87919 0.0
C4123 C 0.39107 0.47531 0.86999 0.0
C4124 C 0.38812 0.47083 0.86209 0.0
C4125 C 0.38346 0.46259 0.86276 0.0
C4126 C 0.38186 0.45878 0.87124 0.0
N4127 N 0.39549 0.48388 0.86954 0.0
H4128 H 0.87236 0.78107 0.63864 0.0
H4129 H 0.90144 0.78204 0.63706 0.0
H4130 H 0.88567 0.80342 0.62549 0.0
H4131 H 0.89575 0.77488 0.65421 0.0
C4132 C 0.89317 0.76961 0.64979 0.0
C4133 C 0.87846 0.78461 0.63665 0.0
C4134 C 0.87788 0.79299 0.63213 0.0
C4135 C 0.88693 0.78075 0.63867 0.0
C4136 C 0.89491 0.78519 0.63595 0.0
C4137 C 0.89438 0.79341 0.63126 0.0
C4138 C 0.88593 0.79727 0.62948 0.0
N4139 N 0.88728 0.77196 0.64255 0.0
H4140 H 0.9761 0.1215 0.38906 0.0
H4141 H 0.97412 0.15059 0.38708 0.0
H4142 H 0.95405 0.13392 0.37467 0.0
H4143 H 0.98367 0.15057 0.39842 0.0
C4144 C 0.98786 0.14457 0.39791 0.0
C4145 C 0.97255 0.12748 0.38675 0.0
C4146 C 0.96442 0.1266 0.38181 0.0
C4147 C 0.9761 0.13608 0.38885 0.0
C4148 C 0.97146 0.1439 0.38582 0.0
C4149 C 0.96333 0.14309 0.38096 0.0
C4150 C 0.96002 0.13447 0.37889 0.0
N4151 N 0.98448 0.13661 0.39367 0.0
H4152 H 0.63634 0.22555 0.14008 0.0
H4153 H 0.60731 0.22484 0.13658 0.0
H4154 H 0.62382 0.20463 0.12413 0.0
H4155 H 0.60801 0.23206 0.15046 0.0
C4156 C 0.61331 0.23699 0.14914 0.0
C4157 C 0.63034 0.22232 0.13737 0.0
C4158 C 0.63115 0.2144 0.13212 0.0
C4159 C 0.62175 0.22604 0.13926 0.0
C4160 C 0.61394 0.22188 0.13562 0.0
C4161 C 0.61475 0.21416 0.13018 0.0
C4162 C 0.6233 0.21047 0.12854 0.0
N4163 N 0.6212 0.23424 0.14432 0.0
H4164 H 0.53087 0.88474 0.88584 0.0
H4165 H 0.53304 0.85582 0.8874 0.0
H4166 H 0.5554 0.8713 0.87739 0.0
H4167 H 0.52513 0.86339 0.90398 0.0
C4168 C 0.51994 0.86491 0.89899 0.0
C4169 C 0.53495 0.8787 0.88509 0.0
C4170 C 0.54369 0.87921 0.88124 0.0
C4171 C 0.53127 0.87032 0.88774 0.0
C4172 C 0.53614 0.86233 0.88607 0.0
C4173 C 0.54477 0.86274 0.88216 0.0
C4174 C 0.54864 0.87115 0.88023 0.0
N4175 N 0.52228 0.86991 0.89113 0.0
H4176 H 0.87209 0.22635 0.86899 0.0
H4177 H 0.90112 0.22352 0.86906 0.0
H4178 H 0.88445 0.20285 0.88079 0.0
H4179 H 0.89643 0.23158 0.85338 0.0
C4180 C 0.89345 0.23692 0.85745 0.0
C4181 C 0.87806 0.22242 0.87061 0.0
C4182 C 0.87716 0.21392 0.87482 0.0
C4183 C 0.88665 0.22584 0.86834 0.0
C4184 C 0.89447 0.2208 0.87052 0.0
C4185 C 0.89366 0.21241 0.87492 0.0
C4186 C 0.88503 0.2091 0.877 0.0
N4187 N 0.88731 0.23463 0.8645 0.0
H4188 H 0.53105 0.1213 0.61803 0.0
H4189 H 0.53228 0.15034 0.61967 0.0
H4190 H 0.55377 0.13438 0.63081 0.0
H4191 H 0.52493 0.14477 0.60256 0.0
C4192 C 0.51966 0.14225 0.60703 0.0
C4193 C 0.53468 0.12737 0.61995 0.0
C4194 C 0.54314 0.12671 0.62433 0.0
C4195 C 0.53086 0.13587 0.618 0.0
C4196 C 0.53541 0.14379 0.62068 0.0
C4197 C 0.5437 0.14318 0.62527 0.0
C4198 C 0.54755 0.13471 0.62693 0.0
N4199 N 0.52201 0.13632 0.61422 0.0
H4200 H 0.63613 0.78068 0.36746 0.0
H4201 H 0.60703 0.78214 0.36983 0.0
H4202 H 0.62352 0.80299 0.38131 0.0
H4203 H 0.60815 0.77455 0.35605 0.0
C4204 C 0.61326 0.76953 0.35773 0.0
C4205 C 0.6301 0.78422 0.36967 0.0
C4206 C 0.63089 0.79244 0.37442 0.0
C4207 C 0.62151 0.78058 0.36765 0.0
C4208 C 0.61368 0.78507 0.3708 0.0
C4209 C 0.61447 0.79318 0.37564 0.0
C4210 C 0.62301 0.79686 0.3773 0.0
N4211 N 0.62095 0.7722 0.36291 0.0
H4212 H 0.97704 0.8847 0.11967 0.0
H4213 H 0.97332 0.85578 0.11873 0.0
H4214 H 0.95258 0.87254 0.12984 0.0
H4215 H 0.98234 0.85671 0.10673 0.0
C4216 C 0.98725 0.86192 0.10839 0.0
C4217 C 0.97283 0.87882 0.12084 0.0
C4218 C 0.96445 0.87973 0.12535 0.0
C4219 C 0.97595 0.87025 0.11802 0.0
C4220 C 0.97079 0.86249 0.12017 0.0
C4221 C 0.96235 0.86334 0.12444 0.0
C4222 C 0.95915 0.87196 0.12665 0.0
N4223 N 0.9845 0.86959 0.11354 0.0
H4224 H 0.6399 0.87173 0.77988 0.0
H4225 H 0.63772 0.90054 0.78452 0.0
H4226 H 0.62648 0.88185 0.80352 0.0
H4227 H 0.64657 0.9022 0.77336 0.0
C4228 C 0.64732 0.89612 0.76936 0.0
C4229 C 0.63778 0.8774 0.78401 0.0
C4230 C 0.63311 0.87583 0.79214 0.0
C4231 C 0.63972 0.88629 0.78118 0.0
C4232 C 0.63665 0.89362 0.78655 0.0
C4233 C 0.63199 0.89206 0.79469 0.0
C4234 C 0.63033 0.88315 0.79741 0.0
N4235 N 0.64443 0.88758 0.77281 0.0
H4236 H 0.88597 0.88938 0.53058 0.0
H4237 H 0.8569 0.88716 0.5325 0.0
H4238 H 0.8738 0.87587 0.55324 0.0
H4239 H 0.85766 0.90051 0.52398 0.0
C4240 C 0.86306 0.89885 0.51929 0.0
C4241 C 0.87997 0.88732 0.53426 0.0
C4242 C 0.88085 0.8826 0.54245 0.0
C4243 C 0.87135 0.88935 0.53075 0.0
C4244 C 0.86358 0.88622 0.53537 0.0
C4245 C 0.86448 0.88139 0.54349 0.0
C4246 C 0.8731 0.87979 0.54707 0.0
N4247 N 0.87075 0.89387 0.52225 0.0
H4248 H 0.86609 0.13392 0.2803 0.0
H4249 H 0.8715 0.10531 0.28173 0.0
H4250 H 0.87975 0.12282 0.30337 0.0
H4251 H 0.85629 0.10604 0.27378 0.0
C4252 C 0.85846 0.11099 0.2688 0.0
C4253 C 0.86863 0.12813 0.28401 0.0
C4254 C 0.87282 0.12937 0.29243 0.0
C4255 C 0.86769 0.11942 0.28032 0.0
C4256 C 0.87154 0.11193 0.28486 0.0
C4257 C 0.87616 0.11324 0.29309 0.0
C4258 C 0.87624 0.12185 0.297 0.0
N4259 N 0.86363 0.11858 0.27163 0.0
H4260 H 0.62383 0.11841 0.02978 0.0
H4261 H 0.65292 0.11871 0.0323 0.0
H4262 H 0.6364 0.13046 0.05304 0.0
H4263 H 0.64988 0.10425 0.024 0.0
C4264 C 0.64566 0.10737 0.01886 0.0
C4265 C 0.62985 0.12009 0.03362 0.0
C4266 C 0.62906 0.12442 0.04205 0.0
C4267 C 0.6384 0.1178 0.03015 0.0
C4268 C 0.64628 0.12012 0.03505 0.0
C4269 C 0.64552 0.12457 0.04342 0.0
C4270 C 0.63693 0.12664 0.0468 0.0
N4271 N 0.63888 0.11367 0.02147 0.0
H4272 H 0.63833 0.13495 0.72602 0.0
H4273 H 0.63798 0.10594 0.72353 0.0
H4274 H 0.6264 0.12241 0.70264 0.0
H4275 H 0.65429 0.11148 0.73151 0.0
C4276 C 0.6499 0.11405 0.73682 0.0
C4277 C 0.63664 0.12897 0.72214 0.0
C4278 C 0.63244 0.1298 0.71364 0.0
C4279 C 0.63882 0.1204 0.72567 0.0
C4280 C 0.63659 0.11256 0.72072 0.0
C4281 C 0.63221 0.1133 0.71232 0.0
C4282 C 0.63019 0.1219 0.7089 0.0
N4283 N 0.64254 0.1198 0.73451 0.0
H4284 H 0.62213 0.88756 0.47619 0.0
H4285 H 0.65118 0.88734 0.47358 0.0
H4286 H 0.63461 0.87579 0.45272 0.0
H4287 H 0.64573 0.90351 0.48163 0.0
C4288 C 0.64314 0.89914 0.48694 0.0
C4289 C 0.62811 0.88592 0.47229 0.0
C4290 C 0.62725 0.88176 0.46376 0.0
C4291 C 0.6367 0.88811 0.47579 0.0
C4292 C 0.64454 0.88593 0.4708 0.0
C4293 C 0.64377 0.88158 0.46237 0.0
C4294 C 0.63514 0.87955 0.45899 0.0
N4295 N 0.63734 0.89182 0.48464 0.0
H4296 H 0.86901 0.87159 0.22623 0.0
H4297 H 0.8706 0.90064 0.2236 0.0
H4298 H 0.88245 0.88363 0.20342 0.0
H4299 H 0.85764 0.89977 0.232 0.0
C4300 C 0.85927 0.89463 0.23699 0.0
C4301 C 0.87113 0.87752 0.22248 0.0
C4302 C 0.87576 0.87651 0.21421 0.0
C4303 C 0.86904 0.88618 0.22588 0.0
C4304 C 0.87186 0.89392 0.221 0.0
C4305 C 0.8765 0.89297 0.21277 0.0
C4306 C 0.87846 0.8843 0.20954 0.0
N4307 N 0.86439 0.88691 0.23432 0.0
H4308 H 0.88593 0.11861 0.97584 0.0
H4309 H 0.85681 0.11927 0.97394 0.0
H4310 H 0.87295 0.13113 0.95298 0.0
H4311 H 0.8601 0.1044 0.98186 0.0
C4312 C 0.86416 0.10766 0.98705 0.0
C4313 C 0.87987 0.12044 0.97214 0.0
C4314 C 0.88057 0.12488 0.96374 0.0
C4315 C 0.87135 0.11819 0.97579 0.0
C4316 C 0.86341 0.12065 0.97106 0.0
C4317 C 0.86404 0.1252 0.96275 0.0
C4318 C 0.87258 0.12724 0.95919 0.0
N4319 N 0.87093 0.11401 0.98446 0.0
H4320 H 0.77983 0.63947 0.87351 0.0
H4321 H 0.78443 0.63849 0.90237 0.0
H4322 H 0.8028 0.62534 0.88416 0.0
H4323 H 0.77488 0.65006 0.9027 0.0
C4324 C 0.77017 0.64924 0.89713 0.0
C4325 C 0.78391 0.63745 0.87926 0.0
C4326 C 0.79167 0.63218 0.87791 0.0
C4327 C 0.78123 0.6399 0.88804 0.0
C4328 C 0.78647 0.63698 0.89552 0.0
C4329 C 0.7944 0.6319 0.89412 0.0
C4330 C 0.79687 0.62953 0.8853 0.0
N4331 N 0.77299 0.64483 0.88906 0.0
H4332 H 0.28161 0.86801 0.13492 0.0
H4333 H 0.28298 0.86966 0.10592 0.0
H4334 H 0.30526 0.87893 0.1216 0.0
H4335 H 0.27539 0.85616 0.10701 0.0
C4336 C 0.27048 0.85769 0.11226 0.0
C4337 C 0.28545 0.86964 0.12891 0.0
C4338 C 0.29387 0.87416 0.12956 0.0
C4339 C 0.28175 0.86737 0.1204 0.0
C4340 C 0.28617 0.87036 0.11247 0.0
C4341 C 0.29449 0.87481 0.11306 0.0
C4342 C 0.29856 0.87598 0.12149 0.0
N4343 N 0.27328 0.86274 0.11997 0.0
H4344 H 0.89057 0.53204 0.88442 0.0
H4345 H 0.88729 0.53336 0.85544 0.0
H4346 H 0.87548 0.55375 0.87207 0.0
H4347 H 0.89995 0.52515 0.85542 0.0
C4348 C 0.899 0.52049 0.86101 0.0
C4349 C 0.88803 0.53548 0.87846 0.0
C4350 C 0.88296 0.54352 0.87938 0.0
C4351 C 0.88991 0.53185 0.86984 0.0
C4352 C 0.88642 0.53623 0.86211 0.0
C4353 C 0.88141 0.54419 0.86298 0.0
C4354 C 0.87973 0.54779 0.87154 0.0
N4355 N 0.89484 0.52358 0.86914 0.0
H4356 H 0.22765 0.13822 0.63328 0.0
H4357 H 0.22473 0.13797 0.60433 0.0
H4358 H 0.20401 0.12644 0.6211 0.0
H4359 H 0.2331 0.15451 0.61049 0.0
C4360 C 0.23833 0.14975 0.61252 0.0
C4361 C 0.22365 0.13662 0.62735 0.0
C4362 C 0.21512 0.13248 0.62829 0.0
C4363 C 0.22707 0.13875 0.61875 0.0
C4364 C 0.22198 0.13659 0.61097 0.0
C4365 C 0.21355 0.13225 0.61182 0.0
C4366 C 0.21025 0.13025 0.62047 0.0
N4367 N 0.23601 0.14222 0.618 0.0
H4368 H 0.11741 0.97624 0.88338 0.0
H4369 H 0.11992 0.97321 0.85443 0.0
H4370 H 0.13151 0.95348 0.87212 0.0
H4371 H 0.10789 0.98229 0.85422 0.0
C4372 C 0.10872 0.98696 0.85982 0.0
C4373 C 0.1197 0.97243 0.87756 0.0
C4374 C 0.12445 0.96428 0.87879 0.0
C4375 C 0.1178 0.97566 0.86881 0.0
C4376 C 0.12096 0.97073 0.86123 0.0
C4377 C 0.12571 0.96258 0.86243 0.0
C4378 C 0.12743 0.95951 0.87119 0.0
N4379 N 0.11305 0.98401 0.8679 0.0
H4380 H 0.72711 0.36768 0.37162 0.0
H4381 H 0.72326 0.36905 0.40061 0.0
H4382 H 0.70431 0.38174 0.38288 0.0
H4383 H 0.73379 0.35924 0.40156 0.0
C4384 C 0.73788 0.35903 0.39549 0.0
C4385 C 0.72318 0.36972 0.37746 0.0
C4386 C 0.71535 0.37501 0.37626 0.0
C4387 C 0.72616 0.36738 0.38621 0.0
C4388 C 0.7211 0.3704 0.39378 0.0
C4389 C 0.71311 0.37538 0.39257 0.0
C4390 C 0.71034 0.37764 0.38382 0.0
N4391 N 0.73446 0.36245 0.38716 0.0
H4392 H 0.88965 0.47577 0.62164 0.0
H4393 H 0.88733 0.47357 0.65066 0.0
H4394 H 0.87557 0.45333 0.63371 0.0
H4395 H 0.90008 0.48194 0.6502 0.0
C4396 C 0.89886 0.48678 0.64482 0.0
C4397 C 0.88733 0.47214 0.62756 0.0
C4398 C 0.88254 0.46394 0.62656 0.0
C4399 C 0.88929 0.47562 0.63621 0.0
C4400 C 0.88621 0.47091 0.64394 0.0
C4401 C 0.88148 0.46273 0.64301 0.0
C4402 C 0.87963 0.4594 0.63435 0.0
N4403 N 0.89409 0.48398 0.63692 0.0
H4404 H 0.61731 0.52991 0.12228 0.0
H4405 H 0.62043 0.53318 0.15107 0.0
H4406 H 0.62911 0.55413 0.13284 0.0
H4407 H 0.60582 0.52471 0.15023 0.0
C4408 C 0.60809 0.51964 0.14542 0.0
C4409 C 0.6191 0.5341 0.12803 0.0
C4410 C 0.6234 0.54241 0.12664 0.0
C4411 C 0.61745 0.53097 0.13685 0.0
C4412 C 0.62079 0.53598 0.14432 0.0
C4413 C 0.62537 0.54422 0.14285 0.0
C4414 C 0.62583 0.54767 0.13405 0.0
N4415 N 0.61343 0.5223 0.13789 0.0
H4416 H 0.63518 0.72595 0.86614 0.0
H4417 H 0.6061 0.72375 0.86843 0.0
H4418 H 0.623 0.70261 0.87858 0.0
H4419 H 0.60683 0.732 0.85541 0.0
C4420 C 0.61197 0.73702 0.85698 0.0
C4421 C 0.62923 0.7222 0.86819 0.0
C4422 C 0.63018 0.7137 0.87242 0.0
C4423 C 0.62056 0.72579 0.86641 0.0
C4424 C 0.61282 0.72096 0.86929 0.0
C4425 C 0.61375 0.71252 0.87351 0.0
C4426 C 0.62238 0.70897 0.87499 0.0
N4427 N 0.6198 0.73434 0.86196 0.0
H4428 H 0.53243 0.38418 0.11672 0.0
H4429 H 0.53534 0.35515 0.11867 0.0
H4430 H 0.55574 0.37235 0.12963 0.0
H4431 H 0.5261 0.35472 0.10727 0.0
C4432 C 0.52148 0.36036 0.10805 0.0
C4433 C 0.53633 0.37828 0.11863 0.0
C4434 C 0.54447 0.37933 0.12353 0.0
C4435 C 0.53304 0.36956 0.11653 0.0
C4436 C 0.53793 0.36193 0.11956 0.0
C4437 C 0.54617 0.36298 0.12408 0.0
C4438 C 0.54944 0.37163 0.12592 0.0
N4439 N 0.52457 0.36864 0.11192 0.0
H4440 H 0.87323 0.28239 0.36516 0.0
H4441 H 0.90214 0.28396 0.36948 0.0
H4442 H 0.88506 0.30493 0.3794 0.0
H4443 H 0.90287 0.27538 0.35746 0.0
C4444 C 0.89716 0.27079 0.35795 0.0
C4445 C 0.87911 0.28595 0.36771 0.0
C4446 C 0.87804 0.29424 0.37232 0.0
C4447 C 0.88783 0.28228 0.36629 0.0
C4448 C 0.89542 0.28683 0.3699 0.0
C4449 C 0.89436 0.29505 0.37441 0.0
C4450 C 0.88576 0.29872 0.37556 0.0
N4451 N 0.88877 0.27389 0.36158 0.0
H4452 H 0.97639 0.62208 0.61684 0.0
H4453 H 0.97336 0.65102 0.61888 0.0
H4454 H 0.95323 0.63342 0.63024 0.0
H4455 H 0.98092 0.64826 0.60325 0.0
C4456 C 0.98641 0.6448 0.60671 0.0
C4457 C 0.97245 0.62793 0.61884 0.0
C4458 C 0.96424 0.62675 0.62348 0.0
C4459 C 0.97569 0.63668 0.61694 0.0
C4460 C 0.9707 0.64427 0.61986 0.0
C4461 C 0.96263 0.64306 0.6247 0.0
C4462 C 0.95939 0.63433 0.62635 0.0
N4463 N 0.98434 0.63771 0.61285 0.0
H4464 H 0.63371 0.28021 0.63932 0.0
H4465 H 0.60463 0.28248 0.63906 0.0
H4466 H 0.62098 0.30427 0.62905 0.0
H4467 H 0.61097 0.27435 0.6556 0.0
C4468 C 0.61325 0.2691 0.651 0.0
C4469 C 0.62768 0.28415 0.63795 0.0
C4470 C 0.62842 0.29289 0.63426 0.0
C4471 C 0.61913 0.28048 0.63999 0.0
C4472 C 0.61124 0.28545 0.63795 0.0
C4473 C 0.61196 0.29409 0.63407 0.0
C4474 C 0.62052 0.29776 0.6324 0.0
N4475 N 0.61857 0.2715 0.64336 0.0
H4476 H 0.97918 0.38113 0.89083 0.0
H4477 H 0.97156 0.35316 0.88834 0.0
H4478 H 0.95429 0.37407 0.87772 0.0
H4479 H 0.98654 0.37259 0.90501 0.0
C4480 C 0.98969 0.36754 0.9007 0.0
C4481 C 0.97428 0.37604 0.88889 0.0
C4482 C 0.96624 0.37858 0.88443 0.0
C4483 C 0.97618 0.36676 0.89022 0.0
C4484 C 0.96996 0.36022 0.88727 0.0
C4485 C 0.96187 0.36271 0.88293 0.0
C4486 C 0.96017 0.37194 0.88154 0.0
N4487 N 0.98469 0.36366 0.89348 0.0
H4488 H 0.87262 0.72613 0.13885 0.0
H4489 H 0.90171 0.72391 0.13844 0.0
H4490 H 0.88534 0.70212 0.12842 0.0
H4491 H 0.89604 0.73193 0.15472 0.0
C4492 C 0.89353 0.73722 0.15029 0.0
C4493 C 0.87865 0.72222 0.1374 0.0
C4494 C 0.87789 0.71347 0.13371 0.0
C4495 C 0.88722 0.72591 0.1394 0.0
C4496 C 0.89509 0.72095 0.13732 0.0
C4497 C 0.89438 0.71231 0.13341 0.0
C4498 C 0.88581 0.70864 0.13176 0.0
N4499 N 0.88782 0.73486 0.1429 0.0
H4500 H 0.532 0.62166 0.38957 0.0
H4501 H 0.53318 0.65074 0.38831 0.0
H4502 H 0.55493 0.63495 0.37744 0.0
H4503 H 0.52584 0.64578 0.40471 0.0
C4504 C 0.52053 0.64275 0.40062 0.0
C4505 C 0.53562 0.62776 0.38775 0.0
C4506 C 0.54418 0.62719 0.38356 0.0
C4507 C 0.53173 0.63623 0.38974 0.0
C4508 C 0.53631 0.64421 0.38722 0.0
C4509 C 0.54471 0.64367 0.38282 0.0
C4510 C 0.5486 0.63523 0.38114 0.0
N4511 N 0.52292 0.63661 0.39361 0.0
H4512 H 0.86735 0.63429 0.72471 0.0
H4513 H 0.86992 0.60535 0.72171 0.0
H4514 H 0.88021 0.62288 0.70122 0.0
H4515 H 0.85766 0.60523 0.73053 0.0
C4516 C 0.85899 0.61051 0.73545 0.0
C4517 C 0.86951 0.62847 0.72082 0.0
C4518 C 0.87381 0.6297 0.7124 0.0
C4519 C 0.8678 0.6197 0.72416 0.0
C4520 C 0.87076 0.61214 0.71914 0.0
C4521 C 0.87502 0.61331 0.71077 0.0
C4522 C 0.87653 0.62205 0.70751 0.0
N4523 N 0.86337 0.61865 0.73267 0.0
H4524 H 0.62274 0.61795 0.97449 0.0
H4525 H 0.65181 0.61858 0.97216 0.0
H4526 H 0.6354 0.6295 0.95094 0.0
H4527 H 0.64779 0.60321 0.97963 0.0
C4528 C 0.64455 0.60693 0.98509 0.0
C4529 C 0.62874 0.61966 0.97065 0.0
C4530 C 0.62794 0.6237 0.96205 0.0
C4531 C 0.63732 0.61759 0.97424 0.0
C4532 C 0.64517 0.61985 0.96932 0.0
C4533 C 0.64443 0.62402 0.96085 0.0
C4534 C 0.63586 0.62589 0.95731 0.0
N4535 N 0.63798 0.61362 0.98296 0.0
H4536 H 0.64374 0.37149 0.22547 0.0
H4537 H 0.63723 0.39989 0.22321 0.0
H4538 H 0.62967 0.38152 0.20213 0.0
H4539 H 0.64962 0.4015 0.23193 0.0
C4540 C 0.64939 0.39587 0.23664 0.0
C4541 C 0.64093 0.37709 0.22168 0.0
C4542 C 0.63672 0.37549 0.21328 0.0
C4543 C 0.64162 0.38596 0.22514 0.0
C4544 C 0.63745 0.39316 0.22036 0.0
C4545 C 0.63296 0.39151 0.21215 0.0
C4546 C 0.63304 0.38277 0.20853 0.0
N4547 N 0.64604 0.38734 0.23364 0.0
H4548 H 0.88549 0.38953 0.47538 0.0
H4549 H 0.85637 0.38864 0.47379 0.0
H4550 H 0.87235 0.37807 0.45202 0.0
H4551 H 0.86135 0.40479 0.48143 0.0
C4552 C 0.86436 0.40067 0.48673 0.0
C4553 C 0.8794 0.38785 0.47165 0.0
C4554 C 0.88003 0.38384 0.46302 0.0
C4555 C 0.87089 0.38986 0.47546 0.0
C4556 C 0.86294 0.38752 0.47073 0.0
C4557 C 0.86353 0.38333 0.46224 0.0
C4558 C 0.87202 0.38163 0.45843 0.0
N4559 N 0.87045 0.39362 0.48431 0.0
H4560 H 0.86731 0.37181 0.78079 0.0
H4561 H 0.86911 0.40086 0.78347 0.0
H4562 H 0.88011 0.38375 0.80404 0.0
H4563 H 0.85622 0.40006 0.77506 0.0
C4564 C 0.85785 0.39499 0.77 0.0
C4565 C 0.86938 0.37773 0.78459 0.0
C4566 C 0.87374 0.3767 0.79301 0.0
C4567 C 0.86745 0.38641 0.78114 0.0
C4568 C 0.87023 0.39412 0.7861 0.0
C4569 C 0.8746 0.39315 0.79448 0.0
C4570 C 0.87636 0.38446 0.79778 0.0
N4571 N 0.86293 0.38722 0.77262 0.0
H4572 H 0.88534 0.61475 0.03146 0.0
H4573 H 0.85637 0.61879 0.03282 0.0
H4574 H 0.87338 0.62947 0.05357 0.0
H4575 H 0.85611 0.60607 0.0247 0.0
C4576 C 0.86168 0.60677 0.01997 0.0
C4577 C 0.87942 0.61733 0.03492 0.0
C4578 C 0.88042 0.62212 0.04312 0.0
C4579 C 0.87073 0.61575 0.03125 0.0
C4580 C 0.86307 0.61938 0.03571 0.0
C4581 C 0.86409 0.62422 0.04378 0.0
C4582 C 0.87269 0.62548 0.04744 0.0
N4583 N 0.8699 0.6109 0.02291 0.0
H4584 H 0.6408 0.6349 0.28123 0.0
H4585 H 0.63876 0.60585 0.28365 0.0
H4586 H 0.62796 0.62286 0.30439 0.0
H4587 H 0.6518 0.60665 0.27544 0.0
C4588 C 0.65022 0.61174 0.27039 0.0
C4589 C 0.6387 0.62897 0.28498 0.0
C4590 C 0.63434 0.62996 0.2934 0.0
C4591 C 0.64058 0.6203 0.28147 0.0
C4592 C 0.63772 0.61257 0.28634 0.0
C4593 C 0.63336 0.61352 0.29472 0.0
C4594 C 0.63169 0.62218 0.29811 0.0
N4595 N 0.64514 0.61951 0.27298 0.0
H4596 H 0.62275 0.3895 0.53047 0.0
H4597 H 0.65187 0.38858 0.53278 0.0
H4598 H 0.63532 0.3782 0.55418 0.0
H4599 H 0.64981 0.40236 0.52451 0.0
C4600 C 0.6452 0.39982 0.51937 0.0
C4601 C 0.62878 0.38781 0.5343 0.0
C4602 C 0.62796 0.3838 0.54291 0.0
C4603 C 0.63737 0.38986 0.53069 0.0
C4604 C 0.64521 0.38745 0.53561 0.0
C4605 C 0.64444 0.38334 0.54414 0.0
C4606 C 0.63584 0.38165 0.54772 0.0
N4607 N 0.63796 0.39402 0.522 0.0
H4608 H 0.72596 0.86596 0.63467 0.0
H4609 H 0.72398 0.86919 0.6058 0.0
H4610 H 0.70088 0.8742 0.62224 0.0
H4611 H 0.73282 0.85691 0.60534 0.0
C4612 C 0.73746 0.85764 0.61099 0.0
C4613 C 0.72188 0.86735 0.62875 0.0
C4614 C 0.71306 0.87101 0.62969 0.0
C4615 C 0.72556 0.86574 0.62005 0.0
C4616 C 0.72079 0.86894 0.61238 0.0
C4617 C 0.71204 0.87245 0.61335 0.0
C4618 C 0.70792 0.8722 0.62181 0.0
N4619 N 0.7343 0.86162 0.61921 0.0
H4620 H 0.22613 0.64143 0.37193 0.0
H4621 H 0.22368 0.63856 0.40093 0.0
H4622 H 0.20414 0.62626 0.38345 0.0
H4623 H 0.23188 0.65137 0.40096 0.0
C4624 C 0.23678 0.65036 0.39559 0.0
C4625 C 0.22248 0.63904 0.37781 0.0
C4626 C 0.21466 0.6337 0.37669 0.0
C4627 C 0.22576 0.64104 0.38655 0.0
C4628 C 0.2211 0.63757 0.39416 0.0
C4629 C 0.21326 0.63234 0.393 0.0
C4630 C 0.21009 0.63049 0.38431 0.0
N4631 N 0.23403 0.64597 0.38746 0.0
H4632 H 0.61737 0.97553 0.62189 0.0
H4633 H 0.61952 0.97354 0.65095 0.0
H4634 H 0.62978 0.95227 0.63426 0.0
H4635 H 0.60632 0.98173 0.64996 0.0
C4636 C 0.60802 0.98676 0.64488 0.0
C4637 C 0.61941 0.97182 0.62787 0.0
C4638 C 0.62363 0.9633 0.62698 0.0
C4639 C 0.6176 0.97548 0.63649 0.0
C4640 C 0.62044 0.97069 0.64427 0.0
C4641 C 0.62467 0.96224 0.64342 0.0
C4642 C 0.62619 0.95864 0.63482 0.0
N4643 N 0.61316 0.98406 0.63717 0.0
H4644 H 0.28204 0.36543 0.87168 0.0
H4645 H 0.28285 0.36874 0.90069 0.0
H4646 H 0.30401 0.3798 0.88439 0.0
H4647 H 0.27547 0.35493 0.89979 0.0
C4648 C 0.27046 0.35645 0.89464 0.0
C4649 C 0.28541 0.36789 0.8777 0.0
C4650 C 0.29369 0.37261 0.87695 0.0
C4651 C 0.28155 0.36617 0.88626 0.0
C4652 C 0.2859 0.36954 0.89408 0.0
C4653 C 0.29402 0.37436 0.89333 0.0
C4654 C 0.29786 0.3758 0.88484 0.0
N4655 N 0.27315 0.36141 0.88683 0.0
H4656 H 0.39052 0.53239 0.62197 0.0
H4657 H 0.38814 0.53491 0.65097 0.0
H4658 H 0.3776 0.55563 0.63383 0.0
H4659 H 0.40088 0.52655 0.65066 0.0
C4660 C 0.39946 0.52158 0.64544 0.0
C4661 C 0.38838 0.53617 0.62786 0.0
C4662 C 0.38399 0.54458 0.62679 0.0
C4663 C 0.39019 0.53272 0.63657 0.0
C4664 C 0.38722 0.5376 0.64422 0.0
C4665 C 0.38289 0.54595 0.6432 0.0
C4666 C 0.38131 0.54934 0.63453 0.0
N4667 N 0.39476 0.52426 0.63746 0.0
H4668 H 0.78161 0.14058 0.13488 0.0
H4669 H 0.7828 0.13751 0.10592 0.0
H4670 H 0.80446 0.1275 0.12246 0.0
H4671 H 0.77552 0.15496 0.11082 0.0
C4672 C 0.77019 0.15074 0.11364 0.0
C4673 C 0.78523 0.13842 0.12889 0.0
C4674 C 0.79376 0.13423 0.12973 0.0
C4675 C 0.78139 0.13992 0.1203 0.0
C4676 C 0.78595 0.13686 0.11251 0.0
C4677 C 0.79426 0.13231 0.11335 0.0
C4678 C 0.79815 0.13123 0.12189 0.0
N4679 N 0.77252 0.14364 0.11969 0.0
H4680 H 0.6151 0.03098 0.88518 0.0
H4681 H 0.62103 0.0338 0.85672 0.0
H4682 H 0.62813 0.05494 0.87526 0.0
H4683 H 0.60823 0.02513 0.85541 0.0
C4684 C 0.60888 0.02024 0.86085 0.0
C4685 C 0.61768 0.03494 0.87959 0.0
C4686 C 0.62163 0.04344 0.88124 0.0
C4687 C 0.61692 0.0316 0.87068 0.0
C4688 C 0.62084 0.03658 0.86348 0.0
C4689 C 0.62514 0.0449 0.86518 0.0
C4690 C 0.625 0.04843 0.87396 0.0
N4691 N 0.61267 0.02303 0.86926 0.0
H4692 H 0.89016 0.97573 0.38465 0.0
H4693 H 0.88968 0.97256 0.3556 0.0
H4694 H 0.87758 0.95245 0.37255 0.0
H4695 H 0.90254 0.98093 0.35665 0.0
C4696 C 0.90083 0.98601 0.36167 0.0
C4697 C 0.88843 0.97182 0.3787 0.0
C4698 C 0.88352 0.9637 0.37962 0.0
C4699 C 0.8909 0.97503 0.37007 0.0
C4700 C 0.88827 0.97006 0.36233 0.0
C4701 C 0.88361 0.96184 0.36325 0.0
C4702 C 0.88134 0.95872 0.37187 0.0
N4703 N 0.89558 0.98347 0.36934 0.0
H4704 H 0.37406 0.28036 0.13848 0.0
H4705 H 0.40317 0.28223 0.13828 0.0
H4706 H 0.3872 0.30314 0.12606 0.0
H4707 H 0.39921 0.27432 0.15339 0.0
C4708 C 0.39535 0.26916 0.14986 0.0
C4709 C 0.38015 0.28405 0.13674 0.0
C4710 C 0.37954 0.29242 0.13226 0.0
C4711 C 0.38861 0.28043 0.1391 0.0
C4712 C 0.3966 0.28512 0.13677 0.0
C4713 C 0.39605 0.29343 0.13218 0.0
C4714 C 0.38754 0.29696 0.12999 0.0
N4715 N 0.38889 0.27175 0.14323 0.0
H4716 H 0.47705 0.62173 0.887 0.0
H4717 H 0.4736 0.65068 0.88799 0.0
H4718 H 0.45291 0.63416 0.87642 0.0
H4719 H 0.4834 0.65016 0.89908 0.0
C4720 C 0.48782 0.64441 0.89796 0.0
C4721 C 0.47292 0.62766 0.88578 0.0
C4722 C 0.4646 0.62685 0.88116 0.0
C4723 C 0.47613 0.63618 0.88862 0.0
C4724 C 0.47106 0.64401 0.88645 0.0
C4725 C 0.46267 0.64326 0.88207 0.0
C4726 C 0.45943 0.63468 0.87973 0.0
N4727 N 0.48467 0.63668 0.89315 0.0
H4728 H 0.1356 0.72643 0.6376 0.0
H4729 H 0.10653 0.72423 0.63748 0.0
H4730 H 0.12269 0.70336 0.62544 0.0
H4731 H 0.11197 0.73218 0.65353 0.0
C4732 C 0.11469 0.73746 0.6492 0.0
C4733 C 0.12957 0.72264 0.6359 0.0
C4734 C 0.13029 0.71417 0.63158 0.0
C4735 C 0.12104 0.72624 0.63817 0.0
C4736 C 0.11312 0.72139 0.63597 0.0
C4737 C 0.11374 0.71302 0.6315 0.0
C4738 C 0.1223 0.70956 0.62932 0.0
N4739 N 0.12056 0.73507 0.64196 0.0
H4740 H 0.03086 0.38518 0.38732 0.0
H4741 H 0.03352 0.35619 0.38691 0.0
H4742 H 0.05431 0.37281 0.37533 0.0
H4743 H 0.02547 0.36199 0.40336 0.0
C4744 C 0.02017 0.36417 0.39877 0.0
C4745 C 0.03478 0.37924 0.38563 0.0
C4746 C 0.04331 0.38014 0.38144 0.0
C4747 C 0.03129 0.37063 0.38775 0.0
C4748 C 0.0363 0.36283 0.38553 0.0
C4749 C 0.04471 0.36364 0.38116 0.0
C4750 C 0.04807 0.37227 0.37915 0.0
N4751 N 0.0224 0.36991 0.39138 0.0
H4752 H 0.37266 0.72379 0.36655 0.0
H4753 H 0.40163 0.72089 0.36972 0.0
H4754 H 0.3839 0.7016 0.38163 0.0
H4755 H 0.40296 0.73146 0.36027 0.0
C4756 C 0.39671 0.73513 0.35929 0.0
C4757 C 0.37847 0.72012 0.3691 0.0
C4758 C 0.37719 0.71215 0.37417 0.0
C4759 C 0.38725 0.72335 0.36725 0.0
C4760 C 0.39479 0.71857 0.37072 0.0
C4761 C 0.39356 0.71061 0.37567 0.0
C4762 C 0.38479 0.70752 0.37741 0.0
N4763 N 0.38825 0.73149 0.36215 0.0
H4764 H 0.03 0.62305 0.11642 0.0
H4765 H 0.03294 0.65159 0.12117 0.0
H4766 H 0.05483 0.63347 0.12736 0.0
H4767 H 0.02454 0.64493 0.1018 0.0
C4768 C 0.01932 0.64335 0.10673 0.0
C4769 C 0.03421 0.62872 0.11839 0.0
C4770 C 0.04296 0.6272 0.12181 0.0
C4771 C 0.0308 0.63756 0.11766 0.0
C4772 C 0.03593 0.6449 0.12097 0.0
C4773 C 0.04451 0.64338 0.12482 0.0
C4774 C 0.04815 0.63463 0.12456 0.0
N4775 N 0.0217 0.63884 0.11487 0.0
H4776 H 0.13567 0.28107 0.86696 0.0
H4777 H 0.10662 0.28278 0.86984 0.0
H4778 H 0.12339 0.30353 0.88088 0.0
H4779 H 0.10687 0.27451 0.85714 0.0
C4780 C 0.11234 0.26973 0.85822 0.0
C4781 C 0.12971 0.28464 0.86929 0.0
C4782 C 0.13064 0.2929 0.87399 0.0
C4783 C 0.12107 0.28102 0.86748 0.0
C4784 C 0.11332 0.2856 0.87071 0.0
C4785 C 0.11421 0.29383 0.87532 0.0
C4786 C 0.12281 0.29739 0.87692 0.0
N4787 N 0.12036 0.27263 0.86273 0.0
H4788 H 0.47725 0.38374 0.61756 0.0
H4789 H 0.4758 0.35473 0.61958 0.0
H4790 H 0.45427 0.37106 0.63016 0.0
H4791 H 0.48328 0.36039 0.60215 0.0
C4792 C 0.48854 0.3629 0.60663 0.0
C4793 C 0.47353 0.37771 0.61944 0.0
C4794 C 0.46505 0.37847 0.62371 0.0
C4795 C 0.47728 0.36917 0.6176 0.0
C4796 C 0.47267 0.3613 0.6204 0.0
C4797 C 0.46436 0.36205 0.62495 0.0
C4798 C 0.46053 0.37058 0.62634 0.0
N4799 N 0.48616 0.36864 0.61396 0.0
H4800 H 0.13995 0.3714 0.28137 0.0
H4801 H 0.13755 0.40047 0.2833 0.0
H4802 H 0.12581 0.38372 0.30363 0.0
H4803 H 0.14876 0.4007 0.27374 0.0
C4804 C 0.1485 0.39464 0.26961 0.0
C4805 C 0.13764 0.37737 0.28494 0.0
C4806 C 0.13279 0.37646 0.2931 0.0
C4807 C 0.13964 0.38599 0.28137 0.0
C4808 C 0.13649 0.39376 0.28599 0.0
C4809 C 0.13175 0.39291 0.29415 0.0
C4810 C 0.1299 0.3843 0.29756 0.0
N4811 N 0.14448 0.38657 0.27302 0.0
H4812 H 0.38403 0.38867 0.03008 0.0
H4813 H 0.35495 0.38802 0.03157 0.0
H4814 H 0.37076 0.37703 0.05325 0.0
H4815 H 0.36164 0.40506 0.02384 0.0
C4816 C 0.3638 0.40033 0.01865 0.0
C4817 C 0.37794 0.38707 0.03382 0.0
C4818 C 0.37851 0.3829 0.04236 0.0
C4819 C 0.36948 0.38919 0.03002 0.0
C4820 C 0.36149 0.38688 0.03469 0.0
C4821 C 0.36201 0.38256 0.04313 0.0
C4822 C 0.37048 0.38075 0.04693 0.0
N4823 N 0.36911 0.39271 0.0211 0.0
H4824 H 0.36593 0.63342 0.78102 0.0
H4825 H 0.37042 0.60456 0.78214 0.0
H4826 H 0.38192 0.62173 0.80234 0.0
H4827 H 0.35754 0.60418 0.77405 0.0
C4828 C 0.35807 0.60991 0.76949 0.0
C4829 C 0.36871 0.62754 0.78439 0.0
C4830 C 0.37389 0.62861 0.79231 0.0
C4831 C 0.36711 0.61887 0.78079 0.0
C4832 C 0.37104 0.61125 0.78505 0.0
C4833 C 0.37633 0.61235 0.79284 0.0
C4834 C 0.37758 0.62096 0.79646 0.0
N4835 N 0.36207 0.6181 0.77259 0.0
H4836 H 0.12401 0.61668 0.53092 0.0
H4837 H 0.1531 0.61922 0.5323 0.0
H4838 H 0.13667 0.63076 0.55307 0.0
H4839 H 0.15238 0.60608 0.52428 0.0
C4840 C 0.14694 0.60737 0.51951 0.0
C4841 C 0.13004 0.61896 0.53443 0.0
C4842 C 0.12925 0.62379 0.5426 0.0
C4843 C 0.1386 0.61698 0.53076 0.0
C4844 C 0.14645 0.62019 0.53521 0.0
C4845 C 0.14568 0.62497 0.54335 0.0
C4846 C 0.13714 0.62668 0.54699 0.0
N4847 N 0.13912 0.61217 0.52241 0.0
H4848 H 0.14035 0.63343 0.22639 0.0
H4849 H 0.13837 0.6044 0.22351 0.0
H4850 H 0.12659 0.62176 0.2036 0.0
H4851 H 0.15046 0.60453 0.23255 0.0
C4852 C 0.14944 0.61008 0.23725 0.0
C4853 C 0.13816 0.62754 0.2226 0.0
C4854 C 0.13346 0.62864 0.21441 0.0
C4855 C 0.14018 0.61884 0.22591 0.0
C4856 C 0.1372 0.61116 0.22099 0.0
C4857 C 0.13251 0.61223 0.21279 0.0
C4858 C 0.13063 0.62095 0.20967 0.0
N4859 N 0.14491 0.61805 0.2343 0.0
H4860 H 0.12237 0.38819 0.9758 0.0
H4861 H 0.15145 0.38712 0.97435 0.0
H4862 H 0.13551 0.37589 0.95288 0.0
H4863 H 0.14595 0.40381 0.98184 0.0
C4864 C 0.14324 0.39946 0.98711 0.0
C4865 C 0.12844 0.38638 0.97212 0.0
C4866 C 0.1278 0.38207 0.96364 0.0
C4867 C 0.13694 0.38845 0.9759 0.0
C4868 C 0.14489 0.38596 0.97128 0.0
C4869 C 0.14431 0.3815 0.96292 0.0
C4870 C 0.13582 0.3797 0.95915 0.0
N4871 N 0.13735 0.39224 0.98473 0.0
H4872 H 0.36686 0.37089 0.72641 0.0
H4873 H 0.37216 0.39944 0.7238 0.0
H4874 H 0.37915 0.38123 0.70229 0.0
H4875 H 0.35902 0.4003 0.73236 0.0
C4876 C 0.35993 0.39488 0.73723 0.0
C4877 C 0.36928 0.37655 0.72244 0.0
C4878 C 0.37319 0.37502 0.71392 0.0
C4879 C 0.36834 0.3854 0.72582 0.0
C4880 C 0.3721 0.39272 0.7209 0.0
C4881 C 0.37635 0.3912 0.7125 0.0
C4882 C 0.37625 0.38243 0.7089 0.0
N4883 N 0.36409 0.38666 0.73441 0.0
H4884 H 0.38605 0.6177 0.47538 0.0
H4885 H 0.357 0.61974 0.47416 0.0
H4886 H 0.37318 0.63139 0.45311 0.0
H4887 H 0.36236 0.60243 0.48127 0.0
C4888 C 0.36499 0.60678 0.48657 0.0
C4889 C 0.38001 0.61982 0.4718 0.0
C4890 C 0.38074 0.62444 0.46351 0.0
C4891 C 0.37147 0.61787 0.47555 0.0
C4892 C 0.36358 0.62077 0.47107 0.0
C4893 C 0.36426 0.62563 0.46296 0.0
C4894 C 0.37278 0.62731 0.4592 0.0
N4895 N 0.371 0.61394 0.4843 0.0
H4896 H 0.28103 0.13929 0.37327 0.0
H4897 H 0.28428 0.13848 0.40235 0.0
H4898 H 0.3036 0.12546 0.38528 0.0
H4899 H 0.27394 0.14864 0.40278 0.0
C4900 C 0.26996 0.14867 0.39662 0.0
C4901 C 0.28486 0.13739 0.37922 0.0
C4902 C 0.29266 0.13202 0.37831 0.0
C4903 C 0.28176 0.13997 0.38785 0.0
C4904 C 0.28662 0.13704 0.39558 0.0
C4905 C 0.2946 0.132 0.39462 0.0
C4906 C 0.29756 0.12959 0.386 0.0
N4907 N 0.27349 0.14495 0.38848 0.0
H4908 H 0.78253 0.36704 0.63423 0.0
H4909 H 0.78583 0.37017 0.60533 0.0
H4910 H 0.80498 0.38199 0.62325 0.0
H4911 H 0.77468 0.36153 0.60379 0.0
C4912 C 0.77102 0.36042 0.61002 0.0
C4913 C 0.7863 0.36956 0.62848 0.0
C4914 C 0.79435 0.37452 0.62986 0.0
C4915 C 0.78309 0.36781 0.61966 0.0
C4916 C 0.78805 0.37118 0.6122 0.0
C4917 C 0.79606 0.37605 0.61351 0.0
C4918 C 0.79905 0.37777 0.6223 0.0
N4919 N 0.7748 0.36293 0.61854 0.0
H4920 H 0.38978 0.03049 0.38503 0.0
H4921 H 0.38774 0.03317 0.35601 0.0
H4922 H 0.37594 0.05317 0.37322 0.0
H4923 H 0.39997 0.02441 0.35619 0.0
C4924 C 0.39887 0.01961 0.36163 0.0
C4925 C 0.38755 0.03422 0.37913 0.0
C4926 C 0.38283 0.04244 0.38021 0.0
C4927 C 0.38955 0.03085 0.37044 0.0
C4928 C 0.38656 0.03572 0.36275 0.0
C4929 C 0.38188 0.04392 0.36376 0.0
C4930 C 0.37998 0.0471 0.37247 0.0
N4931 N 0.3943 0.02246 0.36963 0.0
H4932 H 0.72643 0.64116 0.13569 0.0
H4933 H 0.72442 0.63705 0.10679 0.0
H4934 H 0.70528 0.62461 0.12459 0.0
H4935 H 0.73404 0.64815 0.10572 0.0
C4936 C 0.73797 0.64864 0.11188 0.0
C4937 C 0.72295 0.63839 0.12986 0.0
C4938 C 0.71535 0.63281 0.1311 0.0
C4939 C 0.72627 0.64018 0.12111 0.0
C4940 C 0.72184 0.63623 0.11357 0.0
C4941 C 0.71428 0.63061 0.11485 0.0
C4942 C 0.71105 0.62904 0.12359 0.0
N4943 N 0.73441 0.64536 0.12021 0.0
H4944 H 0.61983 0.47643 0.38501 0.0
H4945 H 0.62017 0.47417 0.35598 0.0
H4946 H 0.63174 0.45314 0.37227 0.0
H4947 H 0.60406 0.48213 0.36123 0.0
C4948 C 0.60834 0.48743 0.36402 0.0
C4949 C 0.62152 0.4726 0.379 0.0
C4950 C 0.62573 0.46408 0.37978 0.0
C4951 C 0.61933 0.4762 0.37046 0.0
C4952 C 0.62156 0.47132 0.36258 0.0
C4953 C 0.62594 0.4629 0.36327 0.0
C4954 C 0.62796 0.45941 0.37184 0.0
N4955 N 0.61557 0.48504 0.36993 0.0
H4956 H 0.22707 0.86946 0.87132 0.0
H4957 H 0.22538 0.86941 0.90034 0.0
H4958 H 0.20329 0.87979 0.88474 0.0
H4959 H 0.23284 0.85237 0.89388 0.0
C4960 C 0.2381 0.85702 0.89167 0.0
C4961 C 0.22315 0.87066 0.87739 0.0
C4962 C 0.21463 0.87495 0.87684 0.0
C4963 C 0.22683 0.8682 0.88582 0.0
C4964 C 0.2222 0.8705 0.89383 0.0
C4965 C 0.21384 0.87497 0.89335 0.0
C4966 C 0.2099 0.8766 0.88491 0.0
N4967 N 0.23573 0.86455 0.8862 0.0
H4968 H 0.39061 0.97549 0.12297 0.0
H4969 H 0.38814 0.97461 0.15203 0.0
H4970 H 0.37609 0.95381 0.13594 0.0
H4971 H 0.40198 0.98206 0.15077 0.0
C4972 C 0.40037 0.98695 0.14553 0.0
C4973 C 0.38827 0.97211 0.12904 0.0
C4974 C 0.3833 0.96401 0.12838 0.0
C4975 C 0.39032 0.97586 0.13754 0.0
C4976 C 0.38708 0.9716 0.14544 0.0
C4977 C 0.38207 0.96357 0.14479 0.0
C4978 C 0.3803 0.95982 0.13632 0.0
N4979 N 0.3952 0.98417 0.13791 0.0
H4980 H 0.11571 0.03015 0.62251 0.0
H4981 H 0.12149 0.03272 0.65099 0.0
H4982 H 0.12869 0.05402 0.6327 0.0
H4983 H 0.10899 0.02371 0.65227 0.0
C4984 C 0.10962 0.01904 0.64664 0.0
C4985 C 0.11823 0.0341 0.62815 0.0
C4986 C 0.1223 0.04254 0.62659 0.0
C4987 C 0.11738 0.03074 0.637 0.0
C4988 C 0.12132 0.03559 0.64427 0.0
C4989 C 0.12569 0.04391 0.64268 0.0
C4990 C 0.12555 0.04751 0.63393 0.0
N4991 N 0.11314 0.02216 0.63825 0.0
C4992 C 0.01055 0.14335 0.40994 0.0
C4993 C 0.0156 0.14977 0.40503 0.0
H4994 H 0.99772 0.13655 0.41146 0.0
C4995 C 0.01157 0.15383 0.39742 0.0
H4996 H 0.0134 0.14013 0.41587 0.0
C4997 C 1.00265 0.15187 0.39501 0.0
C4998 C 0.99757 0.14564 0.40001 0.0
H4999 H 0.0153 0.15862 0.39332 0.0
H5000 H 0.99965 0.15532 0.38928 0.0
C5001 C 1.00159 0.14128 0.40743 0.0
C5002 C 0.11041 0.76263 0.64682 0.0
C5003 C 0.10854 0.76519 0.65579 0.0
H5004 H 0.11401 0.75191 0.63773 0.0
C5005 C 0.10915 0.75865 0.66265 0.0
H5006 H 0.10998 0.76755 0.64141 0.0
C5007 C 0.11123 0.74964 0.6605 0.0
C5008 C 0.11301 0.74708 0.65152 0.0
H5009 H 0.10768 0.76043 0.6696 0.0
H5010 H 0.11141 0.74464 0.66586 0.0
C5011 C 0.11273 0.7537 0.64472 0.0
C5012 C 0.49585 0.85644 0.89672 0.0
C5013 C 0.49247 0.85773 0.90552 0.0
H5014 H 0.50715 0.85793 0.8877 0.0
C5015 C 0.4981 0.86172 0.91206 0.0
H5016 H 0.49165 0.85339 0.89154 0.0
C5017 C 0.50703 0.86409 0.90991 0.0
C5018 C 0.51038 0.86281 0.90111 0.0
H5019 H 0.49567 0.86275 0.9189 0.0
H5020 H 0.51134 0.86695 0.91511 0.0
C5021 C 0.50468 0.85907 0.89451 0.0
C5022 C 0.40206 0.24821 0.16302 0.0
C5023 C 0.3999 0.24131 0.15688 0.0
H5024 H 0.40241 0.26253 0.16549 0.0
C5025 C 0.39571 0.24356 0.14866 0.0
H5026 H 0.40539 0.24662 0.16935 0.0
C5027 C 0.39388 0.25259 0.14651 0.0
C5028 C 0.39642 0.25955 0.15247 0.0
H5029 H 0.39405 0.23834 0.14379 0.0
H5030 H 0.39082 0.25413 0.14004 0.0
C5031 C 0.40042 0.25728 0.16079 0.0
C5032 C 0.01229 0.86554 0.10304 0.0
C5033 C 0.01491 0.85672 0.10059 0.0
H5034 H 1.00147 0.87417 0.1076 0.0
C5035 C 0.00828 0.8499 0.10033 0.0
H5036 H 0.01725 0.87093 0.10333 0.0
C5037 C 0.99933 0.85175 0.10271 0.0
C5038 C 0.99676 0.86044 0.10552 0.0
H5039 H 0.01005 0.84306 0.09837 0.0
H5040 H 0.99444 0.84629 0.10256 0.0
C5041 C 1.00329 0.86737 0.10556 0.0
C5042 C 0.39317 0.75718 0.34675 0.0
C5043 C 0.40033 0.76246 0.35024 0.0
H5044 H 0.38626 0.74437 0.34703 0.0
C5045 C 0.40602 0.75865 0.35684 0.0
H5046 H 0.38874 0.75983 0.34155 0.0
C5047 C 0.40472 0.74978 0.35974 0.0
C5048 C 0.39757 0.74459 0.35633 0.0
H5049 H 0.41144 0.76253 0.35987 0.0
H5050 H 0.40928 0.74699 0.36477 0.0
C5051 C 0.39174 0.74834 0.34986 0.0
C5052 C 0.49484 0.14814 0.60969 0.0
C5053 C 0.49198 0.14885 0.60065 0.0
H5054 H 0.5058 0.14527 0.6188 0.0
C5055 C 0.49821 0.14701 0.59371 0.0
H5056 H 0.49017 0.14953 0.61517 0.0
C5057 C 0.50721 0.14481 0.5958 0.0
C5058 C 0.51005 0.14412 0.60485 0.0
H5059 H 0.49619 0.14757 0.58669 0.0
H5060 H 0.51197 0.14366 0.59035 0.0
C5061 C 0.50375 0.14567 0.61177 0.0
C5062 C 0.10013 0.24854 0.85089 0.0
C5063 C 0.10708 0.24205 0.85058 0.0
H5064 H 0.09645 0.26228 0.8535 0.0
C5065 C 0.11603 0.24484 0.85235 0.0
H5066 H 0.09319 0.24666 0.84946 0.0
C5067 C 0.11789 0.25385 0.85479 0.0
C5068 C 0.11084 0.26023 0.85534 0.0
H5069 H 0.12152 0.23999 0.85218 0.0
H5070 H 0.12479 0.25579 0.85632 0.0
C5071 C 0.102 0.2575 0.85319 0.0
C5072 C 0.41091 0.0076 0.1562 0.0
C5073 C 0.40858 0.01454 0.15012 0.0
H5074 H 0.41011 0.99352 0.15944 0.0
C5075 C 0.40409 0.01221 0.14204 0.0
H5076 H 0.41451 0.00911 0.16239 0.0
C5077 C 0.40159 1.00321 0.14033 0.0
C5078 C 0.40357 0.99639 0.14666 0.0
H5079 H 0.40216 0.01738 0.13724 0.0
H5080 H 0.3979 1.00165 0.1342 0.0
C5081 C 0.40842 0.99866 0.15449 0.0
C5082 C 0.24689 0.15959 0.39339 0.0
C5083 C 0.24214 0.15608 0.40088 0.0
H5084 H 0.25949 0.15987 0.38602 0.0
C5085 C 0.24655 0.14976 0.40647 0.0
H5086 H 0.24375 0.1645 0.38896 0.0
C5087 C 0.25553 0.14733 0.40491 0.0
C5088 C 0.26027 0.15091 0.39757 0.0
H5089 H 0.24307 0.14665 0.41212 0.0
H5090 H 0.25878 0.14261 0.40948 0.0
C5091 C 0.25588 0.15695 0.39169 0.0
C5092 C 0.10083 0.99799 0.6581 0.0
C5093 C 0.10108 0.99148 0.65116 0.0
H5094 H 0.1033 0.0117 0.66203 0.0
C5095 C 0.10388 0.9942 0.64248 0.0
H5096 H 0.09866 0.99615 0.66485 0.0
C5097 C 0.10672 1.00314 0.6409 0.0
C5098 C 0.10657 0.00956 0.64793 0.0
H5099 H 0.10423 0.98933 0.63702 0.0
H5100 H 0.10908 0.00498 0.63422 0.0
C5101 C 0.10351 0.0069 0.6565 0.0
C5102 C 0.26291 0.85968 0.89764 0.0
C5103 C 0.26574 0.85063 0.89843 0.0
H5104 H 0.252 0.86879 0.89468 0.0
C5105 C 0.25951 0.8437 0.89659 0.0
H5106 H 0.26759 0.86516 0.89903 0.0
C5107 C 0.25052 0.84579 0.89432 0.0
C5108 C 0.2477 0.85484 0.89358 0.0
H5109 H 0.2615 0.83667 0.8972 0.0
H5110 H 0.24576 0.84034 0.89316 0.0
C5111 C 0.25402 0.86176 0.89512 0.0
C5112 C 0.40495 0.99475 0.36534 0.0
C5113 C 0.40685 0.992 0.35642 0.0
H5114 H 0.40077 0.00565 0.37406 0.0
C5115 C 0.40657 0.9985 0.3495 0.0
H5116 H 0.40509 0.9899 0.37082 0.0
C5117 C 0.40416 0.00744 0.35135 0.0
C5118 C 0.40187 0.01013 0.36015 0.0
H5119 H 0.40811 0.99665 0.34258 0.0
H5120 H 0.40387 0.01223 0.34581 0.0
C5121 C 0.4024 0.00374 0.36718 0.0
C5122 C 0.26303 0.14704 0.60629 0.0
C5123 C 0.26611 0.15605 0.60637 0.0
H5124 H 0.25186 0.13799 0.60837 0.0
C5125 C 0.26004 0.16295 0.60879 0.0
H5126 H 0.26757 0.14159 0.60445 0.0
C5127 C 0.25099 0.1609 0.6108 0.0
C5128 C 0.24794 0.1519 0.61069 0.0
H5129 H 0.26223 0.16994 0.60886 0.0
H5130 H 0.24636 0.16634 0.61245 0.0
C5131 C 0.25407 0.14498 0.60855 0.0
C5132 C 0.10058 0.00822 0.84831 0.0
C5133 C 0.10047 0.01458 0.85539 0.0
H5134 H 0.10325 0.99459 0.84426 0.0
C5135 C 0.10255 0.01164 0.8642 0.0
H5136 H 0.0989 0.01023 0.84147 0.0
C5137 C 0.10513 1.00262 0.86578 0.0
C5138 C 0.10555 0.9964 0.85859 0.0
H5139 H 0.10254 0.01637 0.86979 0.0
H5140 H 0.10693 1.00058 0.87258 0.0
C5141 C 0.10306 0.99926 0.84991 0.0
C5142 C 0.24531 0.85293 0.11567 0.0
C5143 C 0.24281 0.85007 0.10693 0.0
H5144 H 0.25604 0.85774 0.12427 0.0
C5145 C 0.24957 0.84928 0.1003 0.0
H5146 H 0.24025 0.85364 0.12092 0.0
C5147 C 0.25852 0.85159 0.10221 0.0
C5148 C 0.26097 0.85482 0.11078 0.0
H5149 H 0.24791 0.84697 0.09354 0.0
H5150 H 0.26352 0.85105 0.09687 0.0
C5151 C 0.25432 0.85535 0.11757 0.0
C5152 C 0.14786 0.39698 0.01219 0.0
C5153 C 0.14947 0.40599 0.01481 0.0
H5154 H 0.14443 0.38788 1.00142 0.0
C5155 C 0.1486 0.41288 0.00833 0.0
H5156 H 0.14849 0.39155 0.01706 0.0
C5157 C 0.14651 0.41075 0.99932 0.0
C5158 C 0.14497 0.40173 0.99672 0.0
H5159 H 0.14986 0.41986 0.01016 0.0
H5160 H 0.14612 0.41613 0.99438 0.0
C5161 C 0.14551 0.39489 0.00327 0.0
C5162 C 0.64476 0.10736 0.99319 0.0
C5163 C 0.64996 0.09969 0.99112 0.0
H5164 H 0.6392 0.11578 0.0036 0.0
C5165 C 0.65328 0.09429 0.99817 0.0
H5166 H 0.64227 0.11169 0.98783 0.0
C5167 C 0.65167 0.0967 0.00719 0.0
C5168 C 0.64666 0.1045 0.0093 0.0
H5169 H 0.65741 0.08842 0.99671 0.0
H5170 H 0.6545 0.09257 0.01254 0.0
C5171 C 0.64305 0.10971 1.0022 0.0
C5172 C 0.16044 0.39289 0.24692 0.0
C5173 C 0.156 0.39974 0.24198 0.0
H5174 H 0.16144 0.38577 0.25961 0.0
C5175 C 0.14872 0.4043 0.2461 0.0
H5176 H 0.16611 0.38928 0.24401 0.0
C5177 C 0.1462 0.4024 0.25499 0.0
C5178 C 0.15071 0.39572 0.25994 0.0
H5179 H 0.14495 0.40943 0.24247 0.0
H5180 H 0.14074 0.40622 0.25804 0.0
C5181 C 0.15777 0.39087 0.25583 0.0
C5182 C 0.8548 0.89721 0.49523 0.0
C5183 C 0.85745 0.90559 0.49156 0.0
H5184 H 0.85463 0.88853 0.50686 0.0
C5185 C 0.8625 0.91156 0.49701 0.0
H5186 H 0.85103 0.89239 0.4912 0.0
C5187 C 0.86458 0.90929 0.506 0.0
C5188 C 0.86175 0.90098 0.50963 0.0
H5189 H 0.86459 0.91808 0.49441 0.0
H5190 H 0.86824 0.91408 0.51017 0.0
C5191 C 0.85692 0.89494 0.50416 0.0
C5192 C 0.84587 0.10242 0.2482 0.0
C5193 C 0.8502 0.10706 0.24115 0.0
H5194 H 0.8451 0.10012 0.2625 0.0
C5195 C 0.85693 0.11344 0.24324 0.0
H5196 H 0.84073 0.0974 0.24672 0.0
C5197 C 0.85946 0.11498 0.25225 0.0
C5198 C 0.85534 0.11009 0.2593 0.0
H5199 H 0.86046 0.11696 0.23787 0.0
H5200 H 0.86486 0.11973 0.25365 0.0
C5201 C 0.84841 0.10393 0.2572 0.0
C5202 C 0.35955 0.60936 0.51145 0.0
C5203 C 0.35845 0.60031 0.51419 0.0
H5204 H 0.36268 0.61848 0.50061 0.0
C5205 C 0.35992 0.59338 0.50786 0.0
H5206 H 0.35844 0.61483 0.5162 0.0
C5207 C 0.3621 0.59549 0.49887 0.0
C5208 C 0.36314 0.60454 0.49615 0.0
H5209 H 0.35906 0.58637 0.50978 0.0
H5210 H 0.36296 0.59006 0.49403 0.0
C5211 C 0.36199 0.61145 0.50256 0.0
C5212 C 0.1554 0.61438 0.26202 0.0
C5213 C 0.15741 0.60554 0.26495 0.0
H5214 H 0.15115 0.62282 0.25095 0.0
C5215 C 0.15733 0.5985 0.25857 0.0
H5216 H 0.15539 0.61994 0.26679 0.0
C5217 C 0.15496 0.60013 0.24958 0.0
C5218 C 0.15252 0.60884 0.24673 0.0
H5219 H 0.15895 0.59164 0.26057 0.0
H5220 H 0.15479 0.5945 0.2449 0.0
C5221 C 0.1529 0.61601 0.25299 0.0
C5222 C 0.34955 0.40635 0.75761 0.0
C5223 C 0.35087 0.4 0.76457 0.0
H5224 H 0.35142 0.40966 0.74364 0.0
C5225 C 0.35468 0.39155 0.76231 0.0
H5226 H 0.34645 0.41284 0.75899 0.0
C5227 C 0.35748 0.38971 0.75341 0.0
C5228 C 0.3565 0.39627 0.74659 0.0
H5229 H 0.35585 0.3865 0.76748 0.0
H5230 H 0.36059 0.38324 0.75194 0.0
C5231 C 0.35236 0.40452 0.74877 0.0
C5232 C 0.99914 0.84817 0.60077 0.0
C5233 C 0.993 0.85518 0.59894 0.0
H5234 H 0.01263 0.84447 0.60453 0.0
C5235 C 0.99612 0.86418 0.59924 0.0
H5236 H 0.99698 0.84117 0.60052 0.0
C5237 C 0.00513 0.86609 0.60172 0.0
C5238 C 0.01118 0.85901 0.60373 0.0
H5239 H 0.99152 0.86972 0.59789 0.0
H5240 H 0.00734 0.87306 0.60208 0.0
C5241 C 0.00811 0.85006 0.60307 0.0
C5242 C 0.90946 0.24905 0.35276 0.0
C5243 C 0.90243 0.24333 0.34992 0.0
H5244 H 0.91321 0.26226 0.35735 0.0
C5245 C 0.8935 0.24664 0.34983 0.0
H5246 H 0.9164 0.24668 0.35285 0.0
C5247 C 0.89164 0.25552 0.35262 0.0
C5248 C 0.89872 0.26126 0.35531 0.0
H5249 H 0.88797 0.24233 0.3477 0.0
H5250 H 0.88472 0.25794 0.3525 0.0
C5251 C 0.90763 0.25795 0.35531 0.0
C5252 C 0.51132 0.14953 0.10834 0.0
C5253 C 0.51352 0.15109 0.09921 0.0
H5254 H 0.50097 0.14586 0.11786 0.0
C5255 C 0.50668 0.15029 0.09264 0.0
H5256 H 0.51645 0.15004 0.11354 0.0
C5257 C 0.49784 0.14803 0.09513 0.0
C5258 C 0.4957 0.14633 0.1042 0.0
H5259 H 0.50815 0.15152 0.08557 0.0
H5260 H 0.49268 0.14753 0.08995 0.0
C5261 C 0.5025 0.14705 0.1108 0.0
C5262 C 0.6148 0.7623 0.85231 0.0
C5263 C 0.60625 0.76444 0.84864 0.0
H5264 H 0.62337 0.75196 0.85796 0.0
C5265 C 0.59999 0.7574 0.84731 0.0
H5266 H 0.61976 0.76756 0.85346 0.0
C5267 C 0.60204 0.74855 0.84988 0.0
C5268 C 0.61039 0.74645 0.85388 0.0
H5269 H 0.59341 0.75875 0.84437 0.0
H5270 H 0.59697 0.74334 0.8489 0.0
C5271 C 0.61684 0.75338 0.85495 0.0
C5272 C 0.99883 0.14793 0.91394 0.0
C5273 C 0.99257 0.14996 0.90708 0.0
H5274 H 0.01251 0.14415 0.91715 0.0
C5275 C 0.9953 0.14912 0.898 0.0
H5276 H 0.99694 0.14856 0.92098 0.0
C5277 C 0.00412 0.1464 0.89581 0.0
C5278 C 0.01046 0.14469 0.90267 0.0
H5279 H 0.99061 0.15062 0.89257 0.0
H5280 H 0.00606 0.14594 0.88877 0.0
C5281 C 0.00773 0.14544 0.91174 0.0
C5282 C 0.60754 0.24793 0.66434 0.0
C5283 C 0.60679 0.24142 0.65746 0.0
H5284 H 0.61003 0.26188 0.66761 0.0
C5285 C 0.6087 0.24399 0.6485 0.0
H5286 H 0.60606 0.24616 0.67129 0.0
C5287 C 0.61112 0.2529 0.64642 0.0
C5288 C 0.61149 0.25949 0.65325 0.0
H5289 H 0.60822 0.2391 0.64306 0.0
H5290 H 0.61238 0.25469 0.63944 0.0
C5291 C 0.60975 0.25691 0.66223 0.0
C5292 C 0.51292 0.85926 0.398 0.0
C5293 C 0.51549 0.85729 0.40696 0.0
H5294 H 0.50229 0.86328 0.38897 0.0
C5295 C 0.509 0.85823 0.41385 0.0
H5296 H 0.51778 0.85867 0.39254 0.0
C5297 C 0.50007 0.86074 0.41176 0.0
C5298 C 0.49751 0.86257 0.40279 0.0
H5299 H 0.51075 0.85672 0.4208 0.0
H5300 H 0.49515 0.86119 0.41717 0.0
C5301 C 0.50406 0.86194 0.39595 0.0
C5302 C 0.89833 0.76234 0.14803 0.0
C5303 C 0.90037 0.76479 0.157 0.0
H5304 H 0.89439 0.75177 0.13888 0.0
C5305 C 0.89964 0.75819 0.1638 0.0
H5306 H 0.89879 0.76729 0.14265 0.0
C5307 C 0.8973 0.74926 0.1616 0.0
C5308 C 0.89539 0.74681 0.15261 0.0
H5309 H 0.90122 0.75986 0.17076 0.0
H5310 H 0.89705 0.74424 0.16692 0.0
C5311 C 0.89577 0.75348 0.14587 0.0
C5312 C 0.60308 0.99518 0.86376 0.0
C5313 C 0.59988 0.99299 0.85505 0.0
H5314 H 0.60852 0.00549 0.8725 0.0
C5315 C 0.59919 0.99997 0.84861 0.0
H5316 H 0.60373 0.98999 0.86888 0.0
C5317 C 0.60198 0.00876 0.85066 0.0
C5318 C 0.6055 0.01089 0.85921 0.0
H5319 H 0.5966 0.99861 0.8419 0.0
H5320 H 0.60151 0.0139 0.84546 0.0
C5321 C 0.60589 0.00405 0.86582 0.0
C5322 C 0.75909 0.85237 0.59848 0.0
C5323 C 0.76516 0.85006 0.60542 0.0
H5324 H 0.74569 0.85652 0.5949 0.0
C5325 C 0.762 0.85002 0.61441 0.0
H5326 H 0.76126 0.85238 0.59148 0.0
C5327 C 0.75302 0.85259 0.61639 0.0
C5328 C 0.74705 0.85502 0.60939 0.0
H5329 H 0.76653 0.84829 0.6199 0.0
H5330 H 0.75076 0.85262 0.62336 0.0
C5331 C 0.75016 0.85474 0.60044 0.0
C5332 C 0.91092 0.00628 0.34983 0.0
C5333 C 0.90929 0.01339 0.35593 0.0
H5334 H 0.90953 0.99217 0.34694 0.0
C5335 C 0.9053 0.01134 0.36433 0.0
H5336 H 0.91409 0.00758 0.34335 0.0
C5337 C 0.90263 1.00244 0.36639 0.0
C5338 C 0.90399 0.99543 0.36009 0.0
H5339 H 0.90392 0.01667 0.36916 0.0
H5340 H 0.89936 1.00109 0.3728 0.0
C5341 C 0.90832 0.99744 0.35189 0.0
C5342 C 0.74499 0.14845 0.10917 0.0
C5343 C 0.74256 0.15737 0.1069 0.0
H5344 H 0.75558 0.13939 0.11325 0.0
C5345 C 0.74919 0.16418 0.10738 0.0
H5346 H 0.74002 0.14307 0.1089 0.0
C5347 C 0.75815 0.16202 0.10969 0.0
C5348 C 0.76059 0.15307 0.11181 0.0
H5349 H 0.74753 0.17109 0.10563 0.0
H5350 H 0.7632 0.16733 0.10975 0.0
C5351 C 0.75389 0.14634 0.1117 0.0
C5352 C 0.60365 0.01212 0.64213 0.0
C5353 C 0.59937 0.01415 0.6504 0.0
H5354 H 0.60989 1.00189 0.63384 0.0
C5355 C 0.59751 0.00701 0.6564 0.0
H5356 H 0.60522 0.01747 0.63738 0.0
C5357 C 0.60017 0.99818 0.65439 0.0
C5358 C 0.60479 0.99618 0.64634 0.0
H5359 H 0.59412 0.0083 0.66277 0.0
H5360 H 0.59878 0.99289 0.65927 0.0
C5361 C 0.60639 1.00322 0.64013 0.0
C5362 C 0.74566 0.85848 0.40047 0.0
C5363 C 0.74256 0.84949 0.40001 0.0
H5364 H 0.75674 0.86768 0.39834 0.0
C5365 C 0.74846 0.84279 0.39673 0.0
H5366 H 0.74126 0.8638 0.40294 0.0
C5367 C 0.75738 0.845 0.39431 0.0
C5368 C 0.76046 0.85398 0.39483 0.0
H5369 H 0.74628 0.83581 0.39634 0.0
H5370 H 0.7619 0.83969 0.39208 0.0
C5371 C 0.75448 0.86073 0.39779 0.0
C5372 C 0.91009 0.99997 0.15679 0.0
C5373 C 0.90873 0.99287 0.15062 0.0
H5374 H 0.90856 0.01407 0.15966 0.0
C5375 C 0.90507 0.99494 0.14206 0.0
H5376 H 0.91301 0.99868 0.16339 0.0
C5377 C 0.90246 0.00384 0.13992 0.0
C5378 C 0.90356 0.01084 0.14628 0.0
H5379 H 0.9039 0.98962 0.13716 0.0
H5380 H 0.89946 0.00521 0.13338 0.0
C5381 C 0.90756 0.00881 0.15465 0.0
C5382 C 0.75764 0.15984 0.90669 0.0
C5383 C 0.76474 0.15829 0.90055 0.0
H5384 H 0.74351 0.15852 0.90955 0.0
C5385 C 0.76264 0.15453 0.89205 0.0
H5386 H 0.75897 0.16286 0.91323 0.0
C5387 C 0.75369 0.152 0.88993 0.0
C5388 C 0.74669 0.15329 0.89626 0.0
H5389 H 0.76795 0.15321 0.88718 0.0
H5390 H 0.7523 0.14891 0.88344 0.0
C5391 C 0.74876 0.15738 0.90457 0.0
C5392 C 0.86508 0.5998 0.99529 0.0
C5393 C 0.85603 0.59906 0.99237 0.0
H5394 H 0.87408 0.60303 0.00631 0.0
C5395 C 0.84907 0.60052 0.99867 0.0
H5396 H 0.87059 0.59875 0.99057 0.0
C5397 C 0.85105 0.60286 0.0076 0.0
C5398 C 0.86004 0.60395 0.01046 0.0
H5399 H 0.84204 0.59993 0.99667 0.0
H5400 H 0.8455 0.60402 0.01224 0.0
C5401 C 0.86708 0.60233 0.00426 0.0
C5402 C 0.3611 0.89909 0.01102 0.0
C5403 C 0.35635 0.90719 0.01269 0.0
H5404 H 0.36705 0.89029 1.00112 0.0
C5405 C 0.35412 0.91275 0.00529 0.0
H5406 H 0.36306 0.8947 0.01655 0.0
C5407 C 0.35643 0.91021 0.99649 0.0
C5408 C 0.3611 0.90212 0.99485 0.0
H5409 H 0.3504 0.91898 0.00627 0.0
H5410 H 0.35451 0.91458 0.99093 0.0
C5411 C 0.36348 0.8966 1.0022 0.0
C5412 C 0.85403 0.61393 0.76045 0.0
C5413 C 0.85073 0.60535 0.76292 0.0
H5414 H 0.85928 0.62236 0.74986 0.0
C5415 C 0.85016 0.59858 0.75627 0.0
H5416 H 0.85464 0.61927 0.76543 0.0
C5417 C 0.85277 0.60037 0.74737 0.0
C5418 C 0.85612 0.60892 0.74492 0.0
H5419 H 0.84755 0.59193 0.75792 0.0
H5420 H 0.85222 0.59504 0.74238 0.0
C5421 C 0.85673 0.6157 0.75154 0.0
C5422 C 0.14925 0.10875 0.51118 0.0
C5423 C 0.15186 0.09977 0.51307 0.0
H5424 H 0.14473 0.11824 0.50114 0.0
C5425 C 0.15194 0.09347 0.50595 0.0
H5426 H 0.14905 0.11377 0.51651 0.0
C5427 C 0.14951 0.09606 0.49719 0.0
C5428 C 0.14684 0.10496 0.49534 0.0
H5429 H 0.15401 0.08654 0.5071 0.0
H5430 H 0.14972 0.09106 0.49183 0.0
C5431 C 0.14668 0.1113 0.50242 0.0
C5432 C 0.15566 0.89224 0.7613 0.0
C5433 C 0.15846 0.90107 0.76358 0.0
H5434 H 0.15068 0.88337 0.75087 0.0
C5435 C 0.15891 0.9076 0.7567 0.0
H5436 H 0.15521 0.88706 0.76646 0.0
C5437 C 0.15636 0.9055 0.74786 0.0
C5438 C 0.15321 0.89683 0.74563 0.0
H5439 H 0.16114 0.91442 0.75818 0.0
H5440 H 0.15666 0.91076 0.74277 0.0
C5441 C 0.153 0.89015 0.7524 0.0
C5442 C 0.64366 0.40152 0.49367 0.0
C5443 C 0.65036 0.40801 0.49184 0.0
H5444 H 0.63664 0.39384 0.50383 0.0
C5445 C 0.65494 0.41209 0.49908 0.0
H5446 H 0.64015 0.39819 0.48817 0.0
C5447 C 0.65302 0.40955 0.508 0.0
C5448 C 0.64649 0.40289 0.50987 0.0
H5449 H 0.66023 0.41701 0.49781 0.0
H5450 H 0.65682 0.41266 0.51345 0.0
C5451 C 0.64169 0.39901 0.50262 0.0
C5452 C 0.8531 0.39231 0.7447 0.0
C5453 C 0.84933 0.40082 0.74264 0.0
H5454 H 0.85888 0.38372 0.75495 0.0
C5455 C 0.84794 0.40699 0.74973 0.0
H5456 H 0.85428 0.3874 0.73939 0.0
C5457 C 0.85056 0.4049 0.75856 0.0
C5458 C 0.85467 0.39659 0.76058 0.0
H5459 H 0.84492 0.41354 0.74845 0.0
H5460 H 0.84953 0.40991 0.76381 0.0
C5461 C 0.85579 0.39022 0.75359 0.0
C5462 C 0.65504 0.61451 0.24515 0.0
C5463 C 0.65888 0.60604 0.24308 0.0
H5464 H 0.64916 0.62302 0.2554 0.0
C5465 C 0.66029 0.59985 0.25016 0.0
H5466 H 0.65383 0.61942 0.23985 0.0
C5467 C 0.65762 0.6019 0.25898 0.0
C5468 C 0.65344 0.61017 0.261 0.0
H5469 H 0.66336 0.59332 0.24885 0.0
H5470 H 0.65866 0.59688 0.26421 0.0
C5471 C 0.6523 0.61655 0.25403 0.0
C5472 C 0.51105 0.65481 0.89813 0.0
C5473 C 0.51547 0.65002 0.90508 0.0
H5474 H 0.49885 0.65673 0.89051 0.0
C5475 C 0.51083 0.64282 0.90928 0.0
H5476 H 0.51445 0.66022 0.89455 0.0
C5477 C 0.50192 0.64065 0.90671 0.0
C5478 C 0.49751 0.64571 0.89999 0.0
H5479 H 0.51398 0.63903 0.91469 0.0
H5480 H 0.49837 0.63527 0.9102 0.0
C5481 C 0.50215 0.65275 0.89571 0.0
C5482 C 0.61637 0.26229 0.15326 0.0
C5483 C 0.60808 0.2645 0.15742 0.0
H5484 H 0.6246 0.25187 0.14731 0.0
C5485 C 0.60196 0.25747 0.15935 0.0
H5486 H 0.62123 0.26752 0.15162 0.0
C5487 C 0.60386 0.24857 0.15682 0.0
C5488 C 0.61194 0.24641 0.15234 0.0
H5489 H 0.59559 0.25885 0.16272 0.0
H5490 H 0.59888 0.24337 0.15823 0.0
C5491 C 0.61828 0.25332 0.15072 0.0
C5492 C 0.9955 0.35751 0.39649 0.0
C5493 C 0.99257 0.35763 0.40555 0.0
H5494 H 0.00649 0.35971 0.38724 0.0
C5495 C 0.99872 0.36022 0.41232 0.0
H5496 H 0.9909 0.35554 0.39114 0.0
C5497 C 0.0077 0.36237 0.4101 0.0
C5498 C 0.01059 0.36226 0.40105 0.0
H5499 H 0.99665 0.36032 0.41934 0.0
H5500 H 0.01239 0.36414 0.41545 0.0
C5501 C 0.00439 0.35993 0.39426 0.0
C5502 C 0.89865 0.74473 0.64714 0.0
C5503 C 0.8996 0.74193 0.65618 0.0
H5504 H 0.89566 0.75563 0.63805 0.0
C5505 C 0.89804 0.74823 0.66313 0.0
H5506 H 0.89982 0.74 0.64167 0.0
C5507 C 0.8959 0.75723 0.66104 0.0
C5508 C 0.89499 0.76001 0.65199 0.0
H5509 H 0.89878 0.74626 0.67014 0.0
H5510 H 0.89496 0.76204 0.66648 0.0
C5511 C 0.89624 0.75364 0.64507 0.0
C5512 C 0.51358 0.3581 0.60926 0.0
C5513 C 0.51634 0.35694 0.60023 0.0
H5514 H 0.50266 0.36107 0.61834 0.0
C5515 C 0.50996 0.35814 0.59329 0.0
H5516 H 0.51837 0.35721 0.61473 0.0
C5517 C 0.5009 0.36012 0.59538 0.0
C5518 C 0.49817 0.36121 0.60441 0.0
H5519 H 0.5119 0.35723 0.58629 0.0
H5520 H 0.49604 0.36079 0.58994 0.0
C5521 C 0.50461 0.36033 0.61132 0.0
C5522 C 0.89685 0.26228 0.85928 0.0
C5523 C 0.89938 0.26458 0.85041 0.0
H5524 H 0.89281 0.25177 0.86844 0.0
C5525 C 0.89953 0.25779 0.84377 0.0
H5526 H 0.8967 0.26739 0.86453 0.0
C5527 C 0.89752 0.2488 0.84607 0.0
C5528 C 0.89508 0.2465 0.85496 0.0
H5529 H 0.90152 0.25937 0.83691 0.0
H5530 H 0.89792 0.24362 0.8409 0.0
C5531 C 0.89461 0.25336 0.86151 0.0
C5532 C 0.99415 0.64776 0.10936 0.0
C5533 C 0.99151 0.64961 0.10041 0.0
H5534 H 0.00493 0.64422 0.11837 0.0
C5535 C 0.99802 0.64906 0.09351 0.0
H5536 H 0.98926 0.64811 0.11481 0.0
C5537 C 0.00705 0.64698 0.09558 0.0
C5538 C 0.00969 0.64523 0.10454 0.0
H5539 H 0.99617 0.65052 0.08657 0.0
H5540 H 0.012 0.64679 0.09017 0.0
C5541 C 1.00312 0.64551 0.1114 0.0
C5542 C 0.60218 0.74919 0.34691 0.0
C5543 C 0.60799 0.74206 0.34933 0.0
H5544 H 0.59934 0.76337 0.3477 0.0
C5545 C 0.61603 0.74414 0.35404 0.0
H5546 H 0.59602 0.7479 0.34314 0.0
C5547 C 0.61795 0.75309 0.35662 0.0
C5548 C 0.61189 0.76011 0.35452 0.0
H5549 H 0.62064 0.73882 0.35605 0.0
H5550 H 0.62405 0.75444 0.36046 0.0
C5551 C 0.60409 0.75808 0.34949 0.0
C5552 C 0.90783 0.50763 0.65652 0.0
C5553 C 0.9072 0.51432 0.64979 0.0
H5554 H 0.90571 0.49379 0.66013 0.0
C5555 C 0.90431 0.51176 0.64108 0.0
H5556 H 0.91016 0.50932 0.66325 0.0
C5557 C 0.9017 0.50279 0.6393 0.0
C5558 C 0.90203 0.49622 0.64618 0.0
H5559 H 0.90372 0.51675 0.63576 0.0
H5560 H 0.89928 0.50104 0.63261 0.0
C5561 C 0.90531 0.49872 0.65472 0.0
C5562 C 0.74892 0.65754 0.90853 0.0
C5563 C 0.74253 0.65742 0.90148 0.0
H5564 H 0.76261 0.65508 0.9126 0.0
C5565 C 0.74545 0.65517 0.89271 0.0
H5566 H 0.74692 0.65937 0.91534 0.0
C5567 C 0.75449 0.65264 0.89115 0.0
C5568 C 0.76075 0.65244 0.89833 0.0
H5569 H 0.74068 0.65498 0.88715 0.0
H5570 H 0.75651 0.6507 0.88439 0.0
C5571 C 0.75791 0.65511 0.90697 0.0
C5572 C 0.59558 0.49913 0.15427 0.0
C5573 C 0.59979 0.49204 0.14958 0.0
H5574 H 0.59489 0.51344 0.15654 0.0
C5575 C 0.60642 0.49407 0.14309 0.0
H5576 H 0.59051 0.49769 0.15937 0.0
C5577 C 0.60898 0.50306 0.14151 0.0
C5578 C 0.60497 0.51015 0.14643 0.0
H5579 H 0.60986 0.48868 0.13951 0.0
H5580 H 0.61431 0.50442 0.13666 0.0
C5581 C 0.59812 0.50811 0.15269 0.0
C5582 C 0.76105 0.34811 0.39252 0.0
C5583 C 0.76549 0.35103 0.40045 0.0
H5584 H 0.74879 0.34848 0.38459 0.0
C5585 C 0.76084 0.35693 0.40631 0.0
H5586 H 0.76436 0.34353 0.38787 0.0
C5587 C 0.75194 0.35952 0.40453 0.0
C5588 C 0.74751 0.35657 0.39671 0.0
H5589 H 0.76406 0.3596 0.41232 0.0
H5590 H 0.74852 0.36392 0.40929 0.0
C5591 C 0.75214 0.35093 0.39062 0.0
C5592 C 0.90455 0.49574 0.86535 0.0
C5593 C 0.90685 0.49274 0.85661 0.0
H5594 H 0.90023 0.50683 0.87366 0.0
C5595 C 0.90667 0.499 0.84946 0.0
H5596 H 0.90453 0.49108 0.871 0.0
C5597 C 0.90424 0.50801 0.851 0.0
C5598 C 0.90183 0.51096 0.8597 0.0
H5599 H 0.90851 0.49697 0.84266 0.0
H5600 H 0.90416 0.51267 0.84535 0.0
C5601 C 0.90203 0.50475 0.86688 0.0
C5602 C 0.76048 0.66106 0.11262 0.0
C5603 C 0.76576 0.65567 0.10679 0.0
H5604 H 0.74746 0.663 0.11893 0.0
C5605 C 0.76193 0.64766 0.10333 0.0
H5606 H 0.76319 0.66729 0.11536 0.0
C5607 C 0.75298 0.64532 0.10526 0.0
C5608 C 0.74768 0.65079 0.11087 0.0
H5609 H 0.76582 0.64319 0.09903 0.0
H5610 H 0.75015 0.63925 0.10227 0.0
C5611 C 0.75151 0.65861 0.11467 0.0
C5612 C 0.59475 0.50851 0.35839 0.0
C5613 C 0.60155 0.51514 0.35796 0.0
H5614 H 0.59165 0.49445 0.36048 0.0
C5615 C 0.61053 0.51267 0.35999 0.0
H5616 H 0.5878 0.51022 0.3568 0.0
C5617 C 0.61269 0.50374 0.36229 0.0
C5618 C 0.60596 0.49704 0.36238 0.0
H5619 H 0.6159 0.51765 0.3597 0.0
H5620 H 0.61968 0.50203 0.36368 0.0
C5621 C 0.59696 0.49951 0.36045 0.0
C5622 C 0.74855 0.34842 0.61338 0.0
C5623 C 0.74344 0.35192 0.60612 0.0
H5624 H 0.76127 0.34853 0.62049 0.0
C5625 C 0.74755 0.35826 0.60033 0.0
H5626 H 0.7457 0.34339 0.61786 0.0
C5627 C 0.75648 0.36098 0.60172 0.0
C5628 C 0.76148 0.35762 0.60904 0.0
H5629 H 0.74383 0.36127 0.59478 0.0
H5630 H 0.75948 0.36584 0.59712 0.0
C5631 C 0.75746 0.35134 0.6149 0.0
C5632 C 0.64763 0.89695 0.51209 0.0
C5633 C 0.64928 0.90598 0.51461 0.0
H5634 H 0.64422 0.88773 0.50141 0.0
C5635 C 0.6485 0.91279 0.50804 0.0
H5636 H 0.64821 0.89157 0.51703 0.0
C5637 C 0.64644 0.91056 0.49905 0.0
C5638 C 0.64487 0.90152 0.49654 0.0
H5639 H 0.64979 0.91978 0.5098 0.0
H5640 H 0.64611 0.91589 0.49404 0.0
C5641 C 0.64533 0.89476 0.50317 0.0
C5642 C 0.14288 0.60249 0.49449 0.0
C5643 C 0.15152 0.59946 0.49182 0.0
H5644 H 0.1346 0.60749 0.50536 0.0
C5645 C 0.15827 0.59849 0.49845 0.0
H5646 H 0.13754 0.60333 0.48955 0.0
C5647 C 0.1566 0.60086 0.50742 0.0
C5648 C 0.14815 0.60429 0.51003 0.0
H5649 H 0.16495 0.59604 0.49666 0.0
H5650 H 0.16203 0.60022 0.51231 0.0
C5651 C 0.14122 0.60493 0.50353 0.0
C5652 C 0.65042 0.90715 0.74664 0.0
C5653 C 0.65607 0.90106 0.74198 0.0
H5654 H 0.6434 0.91032 0.75888 0.0
C5655 C 0.65859 0.89297 0.74637 0.0
H5656 H 0.64804 0.9133 0.74347 0.0
C5657 C 0.65557 0.89111 0.75521 0.0
C5658 C 0.65014 0.89739 0.75984 0.0
H5659 H 0.66298 0.88814 0.74306 0.0
H5660 H 0.65769 0.88492 0.7585 0.0
C5661 C 0.64763 0.9054 0.75547 0.0
C5662 C 0.35842 0.39747 0.99377 0.0
C5663 C 0.35769 0.40649 0.99085 0.0
H5664 H 0.36112 0.38846 0.00481 0.0
C5665 C 0.35936 0.41349 0.99706 0.0
H5666 H 0.35716 0.39195 0.98912 0.0
C5667 C 0.3614 0.41148 0.00611 0.0
C5668 C 0.36207 0.40245 0.00901 0.0
H5669 H 0.35879 0.42049 0.99499 0.0
H5670 H 0.36244 0.41697 0.01085 0.0
C5671 C 0.36071 0.39547 1.00273 0.0
C5672 C 0.35077 0.5983 0.74799 0.0
C5673 C 0.35028 0.60546 0.74175 0.0
H5674 H 0.35358 0.5942 0.76157 0.0
C5675 C 0.35184 0.61433 0.74484 0.0
H5676 H 0.3495 0.5914 0.74586 0.0
C5677 C 0.35427 0.61592 0.75389 0.0
C5678 C 0.35505 0.60867 0.76001 0.0
H5679 H 0.35153 0.61997 0.74018 0.0
H5680 H 0.35566 0.62278 0.75606 0.0
C5681 C 0.35309 0.5999 0.75699 0.0
C5682 C 0.85658 0.09439 0.0077 0.0
C5683 C 0.85916 0.10014 0.01479 0.0
H5684 H 0.85609 0.09236 0.99332 0.0
C5685 C 0.86386 0.10815 0.01277 0.0
H5686 H 0.85284 0.08824 0.00909 0.0
C5687 C 0.86584 0.11045 0.00378 0.0
C5688 C 0.86295 0.10488 0.99664 0.0
H5689 H 0.86581 0.11274 0.01814 0.0
H5690 H 0.8693 0.11676 1.00242 0.0
C5691 C 0.85839 0.09678 0.99869 0.0
C5692 C 0.66355 0.10881 0.75795 0.0
C5693 C 0.65672 0.10803 0.76451 0.0
H5694 H 0.66668 0.11116 0.74394 0.0
C5695 C 0.64768 0.10963 0.76196 0.0
H5696 H 0.67056 0.10755 0.75972 0.0
C5697 C 0.6455 0.11189 0.75304 0.0
C5698 C 0.65228 0.11236 0.74641 0.0
H5699 H 0.64229 0.10905 0.76689 0.0
H5700 H 0.63846 0.11297 0.75126 0.0
C5701 C 0.66133 0.11083 0.74894 0.0
C5702 C 0.8486 0.90579 0.25738 0.0
C5703 C 0.85056 0.89972 0.26444 0.0
H5704 H 0.84983 0.90889 0.24329 0.0
C5705 C 0.85493 0.89152 0.26227 0.0
H5706 H 0.84508 0.91207 0.25872 0.0
C5707 C 0.85763 0.88968 0.25334 0.0
C5708 C 0.85598 0.89597 0.2464 0.0
H5709 H 0.8566 0.8867 0.26751 0.0
H5710 H 0.86119 0.88343 0.25192 0.0
C5711 C 0.85129 0.90395 0.24851 0.0
C5712 C 0.49718 0.36411 0.10036 0.0
C5713 C 0.49392 0.35517 0.10013 0.0
H5714 H 0.50846 0.37287 0.10323 0.0
C5715 C 0.49972 0.3481 0.10268 0.0
H5716 H 0.49281 0.36968 0.09848 0.0
C5717 C 0.50865 0.3499 0.10521 0.0
C5718 C 0.51191 0.35882 0.10549 0.0
H5719 H 0.4974 0.34115 0.10254 0.0
H5720 H 0.51303 0.3443 0.107 0.0
C5721 C 0.50609 0.36594 0.10312 0.0
C5722 C 0.40358 0.74615 0.85899 0.0
C5723 C 0.40216 0.74331 0.85001 0.0
H5724 H 0.40238 0.75698 0.86864 0.0
C5725 C 0.39851 0.74951 0.84378 0.0
H5726 H 0.40634 0.74153 0.86396 0.0
C5727 C 0.39636 0.75832 0.84645 0.0
C5728 C 0.39762 0.76106 0.85543 0.0
H5729 H 0.39742 0.74757 0.83681 0.0
H5730 H 0.39368 0.763 0.84149 0.0
C5731 C 0.40122 0.75493 0.8617 0.0
C5732 C 0.00653 0.65241 0.59289 0.0
C5733 C 0.01372 0.65158 0.59907 0.0
H5734 H 0.99228 0.65092 0.59053 0.0
C5735 C 0.01184 0.64835 0.60784 0.0
H5736 H 0.0077 0.65497 0.58613 0.0
C5737 C 1.00301 0.64591 0.6103 0.0
C5738 C 0.99586 0.64683 0.6041 0.0
H5739 H 0.01722 0.64756 0.61276 0.0
H5740 H 1.00174 0.64346 0.61708 0.0
C5741 C 0.9977 0.65013 0.59541 0.0
C5742 C 0.10521 0.25756 0.34257 0.0
C5743 C 0.10769 0.26459 0.34847 0.0
H5744 H 0.10495 0.24322 0.34023 0.0
C5745 C 0.11259 0.26244 0.35634 0.0
H5746 H 0.10138 0.25899 0.33649 0.0
C5747 C 0.11474 0.25345 0.35841 0.0
C5748 C 0.11189 0.24639 0.35272 0.0
H5749 H 0.11463 0.26772 0.361 0.0
H5750 H 0.11834 0.25201 0.36463 0.0
C5751 C 0.10721 0.24854 0.34473 0.0
C5752 C 0.49963 0.64917 0.41409 0.0
C5753 C 0.4929 0.64928 0.40737 0.0
H5754 H 0.51371 0.64716 0.41712 0.0
C5755 C 0.49523 0.64669 0.39851 0.0
H5756 H 0.49804 0.65119 0.42095 0.0
C5757 C 0.50413 0.64421 0.39637 0.0
C5758 C 0.51092 0.64448 0.40301 0.0
H5759 H 0.49018 0.64667 0.3932 0.0
H5760 H 0.50575 0.64242 0.38946 0.0
C5761 C 0.50858 0.64691 0.41189 0.0
C5762 C 0.1039 0.75139 0.16274 0.0
C5763 C 0.10609 0.74397 0.15719 0.0
H5764 H 0.10432 0.76576 0.16454 0.0
C5765 C 0.11077 0.74562 0.14905 0.0
H5766 H 0.10023 0.75043 0.169 0.0
C5767 C 0.11314 0.75444 0.14652 0.0
C5768 C 0.11081 0.76181 0.15205 0.0
H5769 H 0.11269 0.74008 0.14465 0.0
H5770 H 0.11666 0.7555 0.14018 0.0
C5771 C 0.1062 0.76019 0.16018 0.0
C5772 C 0.0107 0.36135 0.91421 0.0
C5773 C 0.01593 0.35667 0.90777 0.0
H5774 H 0.99831 0.36845 0.917 0.0
C5775 C 0.01236 0.35555 0.89901 0.0
H5776 H 0.01316 0.36224 0.92106 0.0
C5777 C 1.00383 0.35898 0.89675 0.0
C5778 C 0.99867 0.36373 0.90316 0.0
H5779 H 0.01623 0.35216 0.8938 0.0
H5780 H 1.00135 0.35804 0.88992 0.0
C5781 C 1.00219 0.36488 0.91191 0.0
C5782 C 0.39541 0.25946 0.66225 0.0
C5783 C 0.40135 0.26451 0.65676 0.0
H5784 H 0.3887 0.24669 0.66436 0.0
C5785 C 0.40457 0.26052 0.64873 0.0
H5786 H 0.39284 0.26226 0.66851 0.0
C5787 C 0.40224 0.25165 0.64643 0.0
C5788 C 0.39651 0.24658 0.652 0.0
H5789 H 0.40899 0.26422 0.64421 0.0
H5790 H 0.40506 0.24867 0.64035 0.0
C5791 C 0.39302 0.25056 0.65989 0.0
C5792 C 0.09517 0.49919 0.35309 0.0
C5793 C 0.09987 0.49199 0.35708 0.0
H5794 H 0.09399 0.51358 0.35166 0.0
C5795 C 0.10688 0.49389 0.36322 0.0
H5796 H 0.08984 0.49789 0.34823 0.0
C5797 C 0.10925 0.50286 0.36524 0.0
C5798 C 0.10472 0.51009 0.36102 0.0
H5799 H 0.11068 0.48841 0.36628 0.0
H5800 H 0.11479 0.50413 0.36987 0.0
C5801 C 0.09759 0.50815 0.35502 0.0
C5802 C 0.2619 0.35814 0.10849 0.0
C5803 C 0.26386 0.34935 0.10538 0.0
H5804 H 0.25171 0.36734 0.1133 0.0
C5805 C 0.25675 0.34305 0.10476 0.0
H5806 H 0.26721 0.36315 0.10913 0.0
C5807 C 0.24792 0.34547 0.10711 0.0
C5808 C 0.24599 0.3542 0.11026 0.0
H5809 H 0.25798 0.33626 0.1023 0.0
H5810 H 0.24257 0.3405 0.10647 0.0
C5811 C 0.25305 0.36052 0.11098 0.0
C5812 C 0.41368 0.50699 0.85307 0.0
C5813 C 0.40897 0.51418 0.85708 0.0
H5814 H 0.41482 0.4926 0.85156 0.0
C5815 C 0.402 0.51226 0.86326 0.0
H5816 H 0.41899 0.50832 0.84819 0.0
C5817 C 0.39967 0.50329 0.86527 0.0
C5818 C 0.40415 0.49608 0.86099 0.0
H5819 H 0.3982 0.51772 0.86634 0.0
H5820 H 0.39414 0.50201 0.86991 0.0
C5821 C 0.41126 0.49803 0.85496 0.0
C5822 C 0.24936 0.65503 0.5977 0.0
C5823 C 0.24314 0.65663 0.6047 0.0
H5824 H 0.2628 0.65112 0.594 0.0
C5825 C 0.24612 0.6558 0.61371 0.0
H5826 H 0.24733 0.65572 0.59069 0.0
C5827 C 0.25504 0.65304 0.61562 0.0
C5828 C 0.26115 0.65122 0.60854 0.0
H5829 H 0.24147 0.65695 0.61925 0.0
H5830 H 0.25712 0.65227 0.6226 0.0
C5831 C 0.25824 0.65241 0.59959 0.0
C5832 C 0.10098 0.50996 0.14276 0.0
C5833 C 0.10111 0.51333 0.15166 0.0
H5834 H 0.10375 0.49866 0.13402 0.0
C5835 C 0.10414 0.5077 0.15867 0.0
H5836 H 0.09869 0.51419 0.13724 0.0
C5837 C 0.10684 0.49884 0.15686 0.0
C5838 C 0.10681 0.49547 0.14798 0.0
H5839 H 0.10426 0.51011 0.16559 0.0
H5840 H 0.10902 0.4946 0.16243 0.0
C5841 C 0.10391 0.50112 0.14092 0.0
C5842 C 0.25014 0.3463 0.90635 0.0
C5843 C 0.24301 0.34816 0.90034 0.0
H5844 H 0.2643 0.34745 0.90917 0.0
C5845 C 0.24504 0.3523 0.89201 0.0
H5846 H 0.24884 0.34302 0.91277 0.0
C5847 C 0.25398 0.35489 0.88995 0.0
C5848 C 0.26102 0.3533 0.89616 0.0
H5849 H 0.23969 0.35387 0.88726 0.0
H5850 H 0.25532 0.3583 0.88361 0.0
C5851 C 0.25901 0.34882 0.90428 0.0
C5852 C 0.40901 0.50099 0.65721 0.0
C5853 C 0.40815 0.49423 0.65058 0.0
H5854 H 0.40706 0.51493 0.66064 0.0
C5855 C 0.4045 0.49656 0.64211 0.0
H5856 H 0.41187 0.49943 0.66377 0.0
C5857 C 0.40167 0.50543 0.64033 0.0
C5858 C 0.40253 0.51216 0.64698 0.0
H5859 H 0.40368 0.49147 0.6369 0.0
H5860 H 0.3988 0.50699 0.63378 0.0
C5861 C 0.40629 0.50986 0.6554 0.0
C5862 C 0.25753 0.65857 0.40803 0.0
C5863 C 0.26434 0.65824 0.40139 0.0
H5864 H 0.24361 0.65636 0.41131 0.0
C5865 C 0.26191 0.65577 0.39252 0.0
H5866 H 0.25913 0.66056 0.4149 0.0
C5867 C 0.25294 0.65329 0.39046 0.0
C5868 C 0.24625 0.65336 0.39724 0.0
H5869 H 0.267 0.65542 0.38726 0.0
H5870 H 0.25129 0.65121 0.38364 0.0
C5871 C 0.24863 0.65619 0.40597 0.0
C5872 C 0.35505 0.09368 0.49889 0.0
C5873 C 0.35789 0.09926 0.49175 0.0
H5874 H 0.35448 0.09177 0.51327 0.0
C5875 C 0.36307 0.10699 0.49375 0.0
H5876 H 0.35097 0.08774 0.49755 0.0
C5877 C 0.36521 0.10922 0.50271 0.0
C5878 C 0.36202 0.10386 0.50987 0.0
H5879 H 0.36534 0.11141 0.48836 0.0
H5880 H 0.36906 0.11532 0.50403 0.0
C5881 C 0.35701 0.09602 0.50787 0.0
C5882 C 0.85788 0.41417 0.50758 0.0
C5883 C 0.85792 0.4075 0.51435 0.0
H5884 H 0.85976 0.41714 0.49348 0.0
C5885 C 0.86062 0.39866 0.51204 0.0
H5886 H 0.85578 0.42101 0.50914 0.0
C5887 C 0.86306 0.3965 0.50314 0.0
C5888 C 0.86266 0.40308 0.49632 0.0
H5889 H 0.86076 0.39339 0.51711 0.0
H5890 H 0.86494 0.3896 0.50155 0.0
C5891 C 0.86011 0.41195 0.49863 0.0
C5892 C 0.34436 0.10411 0.25565 0.0
C5893 C 0.35034 0.10541 0.26294 0.0
H5894 H 0.34214 0.10532 0.24139 0.0
C5895 C 0.3589 0.10927 0.26119 0.0
H5896 H 0.33777 0.10106 0.2567 0.0
C5897 C 0.36136 0.11177 0.25238 0.0
C5898 C 0.35537 0.11035 0.24514 0.0
H5899 H 0.36365 0.11049 0.26664 0.0
H5900 H 0.368 0.11467 0.25122 0.0
C5901 C 0.34687 0.1065 0.24687 0.0
C5902 C 0.6479 0.60808 0.01051 0.0
C5903 C 0.65141 0.59941 0.01237 0.0
H5904 H 0.64284 0.61723 1.00044 0.0
C5905 C 0.65236 0.59324 0.00519 0.0
H5906 H 0.64697 0.61296 0.01588 0.0
C5907 C 0.65001 0.59571 0.99638 0.0
C5908 C 0.64654 0.60434 0.99454 0.0
H5909 H 0.6551 0.58655 0.00634 0.0
H5910 H 0.65093 0.59086 0.99096 0.0
C5911 C 0.64543 0.61049 1.00169 0.0
C5912 C 0.65619 0.39257 0.2614 0.0
C5913 C 0.6578 0.40158 0.26406 0.0
H5914 H 0.65214 0.3836 0.25065 0.0
C5915 C 0.65709 0.40844 0.25751 0.0
H5916 H 0.65666 0.38714 0.26629 0.0
C5917 C 0.65453 0.40643 0.24865 0.0
C5918 C 0.65256 0.39752 0.24605 0.0
H5919 H 0.6584 0.41543 0.25928 0.0
H5920 H 0.65391 0.41192 0.24384 0.0
C5921 C 0.65354 0.39056 0.25247 0.0
C5922 C 0.1479 0.899 0.99567 0.0
C5923 C 0.15156 0.90762 0.99384 0.0
H5924 H 0.14267 0.8899 0.00572 0.0
C5925 C 0.15269 0.91371 1.00105 0.0
H5926 H 0.14684 0.89416 0.99028 0.0
C5927 C 0.15033 0.91124 0.00986 0.0
C5928 C 0.14667 0.90268 0.01166 0.0
H5929 H 0.15557 0.92035 0.99993 0.0
H5930 H 0.15138 0.91604 0.0153 0.0
C5931 C 0.14541 0.89659 0.00449 0.0
C5932 C 0.35221 0.89353 0.24478 0.0
C5933 C 0.34919 0.90223 0.24235 0.0
H5934 H 0.35736 0.88499 0.25539 0.0
C5935 C 0.34842 0.90884 0.24913 0.0
H5936 H 0.35291 0.8883 0.2397 0.0
C5937 C 0.35093 0.90696 0.25803 0.0
C5938 C 0.35434 0.89844 0.2604 0.0
H5939 H 0.34599 0.91557 0.24753 0.0
H5940 H 0.35041 0.91228 0.26304 0.0
C5941 C 0.35483 0.89166 0.25374 0.0
C5942 C 0.15713 0.09821 0.75037 0.0
C5943 C 0.15775 0.10523 0.74399 0.0
H5944 H 0.15411 0.09449 0.76404 0.0
C5945 C 0.15559 0.1141 0.74671 0.0
H5946 H 0.15883 0.09133 0.74853 0.0
C5947 C 0.15281 0.1159 0.75559 0.0
C5948 C 0.15224 0.10887 0.76194 0.0
H5949 H 0.15593 0.11963 0.74192 0.0
H5950 H 0.15115 0.12278 0.75747 0.0
C5951 C 0.15448 0.10003 0.75926 0.0
C5952 C 0.10472 0.13475 0.45943 0.0
C5953 C 0.10304 0.13268 0.45031 0.0
H5954 H 0.11392 0.13347 0.47063 0.0
C5955 C 0.10896 0.12689 0.4457 0.0
H5956 H 0.10021 0.13921 0.4631 0.0
C5957 C 0.11663 0.12348 0.45002 0.0
C5958 C 0.11862 0.12589 0.45901 0.0
H5959 H 0.10772 0.1251 0.43871 0.0
H5960 H 0.12119 0.11917 0.44624 0.0
C5961 C 0.11249 0.13141 0.46375 0.0
C5962 C 0.13011 0.85857 0.69551 0.0
C5963 C 0.12553 0.85191 0.70049 0.0
H5964 H 0.13692 0.8713 0.69565 0.0
C5965 C 0.12495 0.8529 0.70996 0.0
H5966 H 0.13091 0.85791 0.68826 0.0
C5967 C 0.12838 0.86066 0.71424 0.0
C5968 C 0.13251 0.86754 0.70913 0.0
H5969 H 0.12149 0.84786 0.714 0.0
H5970 H 0.1274 0.86149 0.72145 0.0
C5971 C 0.1336 0.86623 0.69977 0.0
C5972 C 0.39885 0.8789 0.94524 0.0
C5973 C 0.40527 0.87404 0.95026 0.0
H5974 H 0.38622 0.88591 0.94526 0.0
C5975 C 0.40394 0.87299 0.95963 0.0
H5976 H 0.3998 0.88001 0.93806 0.0
C5977 C 0.39608 0.87634 0.96378 0.0
C5978 C 0.38947 0.88084 0.95864 0.0
H5979 H 0.40879 0.86928 0.96367 0.0
H5980 H 0.395 0.87504 0.9709 0.0
C5981 C 0.39109 0.88231 0.94938 0.0
C5982 C 0.38389 0.15342 0.20989 0.0
C5983 C 0.38319 0.15457 0.20047 0.0
H5984 H 0.38165 0.14462 0.22123 0.0
C5985 C 0.37866 0.14796 0.19538 0.0
H5986 H 0.38732 0.15843 0.214 0.0
C5987 C 0.37528 0.1402 0.19951 0.0
C5988 C 0.37646 0.13873 0.20884 0.0
H5989 H 0.37779 0.14876 0.18815 0.0
H5990 H 0.37191 0.13521 0.19532 0.0
C5991 C 0.38059 0.14555 0.21404 0.0
C5992 C 0.10996 0.87858 0.0618 0.0
C5993 C 0.1031 0.87444 0.0567 0.0
H5994 H 0.12292 0.88497 0.06181 0.0
C5995 C 0.10404 0.87406 0.04723 0.0
H5996 H 0.10935 0.87921 0.06908 0.0
C5997 C 0.11189 0.87736 0.04303 0.0
C5998 C 0.11892 0.88114 0.04821 0.0
H5999 H 0.09887 0.87091 0.0431 0.0
H6000 H 0.11261 0.87659 0.03578 0.0
C6001 C 0.11773 0.88192 0.05762 0.0
C6002 C 0.37811 0.86086 0.3105 0.0
C6003 C 0.38312 0.85455 0.30549 0.0
H6004 H 0.3706 0.87318 0.31038 0.0
C6005 C 0.38367 0.85557 0.29604 0.0
H6006 H 0.37732 0.86011 0.31775 0.0
C6007 C 0.3798 0.86311 0.29178 0.0
C6008 C 0.37528 0.86971 0.29692 0.0
H6009 H 0.38745 0.85079 0.29198 0.0
H6010 H 0.38079 0.86404 0.28459 0.0
C6011 C 0.37419 0.8683 0.30626 0.0
C6012 C 0.40368 0.13284 0.54663 0.0
C6013 C 0.4046 0.13219 0.55609 0.0
H6014 H 0.39522 0.1304 0.53506 0.0
C6015 C 0.39787 0.12764 0.56102 0.0
H6016 H 0.40875 0.1363 0.54264 0.0
C6017 C 0.39024 0.12416 0.55668 0.0
C6018 C 0.38904 0.12523 0.5473 0.0
H6019 H 0.39848 0.1268 0.56827 0.0
H6020 H 0.38515 0.12079 0.56073 0.0
C6021 C 0.39595 0.12941 0.54228 0.0
C6022 C 0.12517 0.15351 0.79715 0.0
C6023 C 0.12543 0.1545 0.80663 0.0
H6024 H 0.12782 0.14482 0.78579 0.0
C6025 C 0.12967 0.14778 0.8118 0.0
H6026 H 0.12197 0.15861 0.79298 0.0
C6027 C 0.13316 0.14004 0.8077 0.0
C6028 C 0.13236 0.13871 0.79831 0.0
H6029 H 0.13022 0.14846 0.81908 0.0
H6030 H 0.13624 0.13494 0.81196 0.0
C6031 C 0.12857 0.14565 0.79303 0.0
C6032 C 0.45297 0.1039 0.12389 0.0
C6033 C 0.45174 0.10236 0.13322 0.0
H6034 H 0.45801 0.11289 0.11363 0.0
C6035 C 0.45541 0.10861 0.13939 0.0
H6036 H 0.45014 0.0993 0.11894 0.0
C6037 C 0.45983 0.11637 0.13632 0.0
C6038 C 0.46081 0.118 0.12704 0.0
H6039 H 0.45477 0.10758 0.14661 0.0
H6040 H 0.4623 0.12125 0.14121 0.0
C6041 C 0.45748 0.11165 0.12083 0.0
C6042 C 0.15339 0.2038 0.37364 0.0
C6043 C 0.15422 0.20134 0.38282 0.0
H6044 H 0.14504 0.20988 0.36338 0.0
C6045 C 0.14728 0.20383 0.38882 0.0
H6046 H 0.15855 0.20194 0.36879 0.0
C6047 C 0.13957 0.20828 0.3857 0.0
C6048 C 0.13861 0.21046 0.3765 0.0
H6049 H 0.14776 0.20229 0.39596 0.0
H6050 H 0.13424 0.20991 0.39047 0.0
C6051 C 0.14567 0.20836 0.37052 0.0
C6052 C 0.05032 0.89916 0.63753 0.0
C6053 C 0.05582 0.90432 0.63175 0.0
H6054 H 0.04174 0.88755 0.63894 0.0
C6055 C 0.05626 0.90194 0.62253 0.0
H6056 H 0.04975 0.90088 0.64463 0.0
C6057 C 0.0516 0.89435 0.61926 0.0
C6058 C 0.04634 0.88907 0.62515 0.0
H6059 H 0.06051 0.90575 0.61792 0.0
H6060 H 0.05243 0.89235 0.61226 0.0
C6061 C 0.04564 0.89162 0.63426 0.0
C6062 C 0.35916 0.81097 0.87715 0.0
C6063 C 0.35277 0.80599 0.88209 0.0
H6064 H 0.37176 0.81091 0.87009 0.0
C6065 C 0.3541 0.79662 0.88317 0.0
H6066 H 0.35822 0.81815 0.876 0.0
C6067 C 0.36195 0.79245 0.87983 0.0
C6068 C 0.36857 0.79756 0.87529 0.0
H6069 H 0.34926 0.7926 0.88693 0.0
H6070 H 0.36305 0.78534 0.88118 0.0
C6071 C 0.36691 0.80681 0.87373 0.0
C6072 C 0.44661 0.89918 0.38143 0.0
C6073 C 0.45153 0.90563 0.3765 0.0
H6074 H 0.44687 0.88665 0.38861 0.0
C6075 C 0.46099 0.90463 0.37578 0.0
H6076 H 0.43936 0.89988 0.38229 0.0
C6077 C 0.46532 0.89696 0.37934 0.0
C6078 C 0.46027 0.89022 0.38377 0.0
H6079 H 0.46496 0.90953 0.37206 0.0
H6080 H 0.47249 0.89604 0.37812 0.0
C6081 C 0.45094 0.89164 0.3851 0.0
C6082 C 0.35406 0.20394 0.63229 0.0
C6083 C 0.35366 0.20075 0.62331 0.0
H6084 H 0.36206 0.21056 0.64252 0.0
C6085 C 0.361 0.20254 0.61754 0.0
H6086 H 0.34855 0.20266 0.63695 0.0
C6087 C 0.36866 0.20703 0.62073 0.0
C6088 C 0.36924 0.20987 0.62979 0.0
H6089 H 0.36085 0.20044 0.61053 0.0
H6090 H 0.37425 0.20814 0.61612 0.0
C6091 C 0.36178 0.20848 0.6355 0.0
C6092 C 0.06154 0.10943 0.87936 0.0
C6093 C 0.05659 0.10283 0.87465 0.0
H6094 H 0.06135 0.12212 0.88626 0.0
C6095 C 0.04716 0.10396 0.87373 0.0
H6096 H 0.06877 0.10865 0.88039 0.0
C6097 C 0.04288 0.11175 0.87707 0.0
C6098 C 0.04794 0.11853 0.88144 0.0
H6099 H 0.04315 0.099 0.87014 0.0
H6100 H 0.0357 0.11264 0.87587 0.0
C6101 C 0.05728 0.11713 0.88275 0.0
C6102 C 0.15405 0.7969 0.12347 0.0
C6103 C 0.15527 0.80631 0.12434 0.0
H6104 H 0.14516 0.78558 0.12555 0.0
C6105 C 0.1487 0.81137 0.12896 0.0
H6106 H 0.15903 0.79283 0.11997 0.0
C6107 C 0.1409 0.80723 0.13226 0.0
C6108 C 0.13938 0.79793 0.13093 0.0
H6109 H 0.14955 0.81858 0.12995 0.0
H6110 H 0.13593 0.81139 0.13568 0.0
C6111 C 0.14615 0.79275 0.12672 0.0
C6112 C 0.12763 0.44536 0.10828 0.0
C6113 C 0.13218 0.45048 0.1017 0.0
H6114 H 0.12091 0.44526 0.12105 0.0
C6115 C 0.13278 0.45992 0.10287 0.0
H6116 H 0.12682 0.43812 0.10748 0.0
C6117 C 0.12941 0.46405 0.11073 0.0
C6118 C 0.12532 0.45881 0.11753 0.0
H6119 H 0.13622 0.46405 0.09789 0.0
H6120 H 0.13042 0.47124 0.11171 0.0
C6121 C 0.12419 0.44947 0.11603 0.0
C6122 C 0.63197 0.04651 0.90442 0.0
C6123 C 0.63061 0.05584 0.90579 0.0
H6124 H 0.63004 0.03517 0.89553 0.0
C6125 C 0.625 0.06057 0.89976 0.0
H6126 H 0.63625 0.04268 0.90897 0.0
C6127 C 0.62132 0.05624 0.89222 0.0
C6128 C 0.62323 0.04709 0.89046 0.0
H6129 H 0.62364 0.0677 0.90074 0.0
H6130 H 0.61739 0.06019 0.88746 0.0
C6131 C 0.62834 0.04218 0.89679 0.0
C6132 C 0.2028 0.38947 0.14629 0.0
C6133 C 0.20148 0.3836 0.15365 0.0
H6134 H 0.20792 0.39118 0.13289 0.0
C6135 C 0.20498 0.37474 0.15307 0.0
H6136 H 0.20045 0.39641 0.14655 0.0
C6137 C 0.20938 0.37176 0.14521 0.0
C6138 C 0.21032 0.37756 0.13776 0.0
H6139 H 0.20405 0.37 0.15857 0.0
H6140 H 0.21172 0.36483 0.14482 0.0
C6141 C 0.20714 0.38649 0.13847 0.0
C6142 C 0.88306 0.95391 0.40334 0.0
C6143 C 0.87394 0.95115 0.40407 0.0
H6144 H 0.89326 0.96018 0.39504 0.0
C6145 C 0.86794 0.95342 0.39706 0.0
H6146 H 0.88791 0.95223 0.40857 0.0
C6147 C 0.87102 0.95793 0.38936 0.0
C6148 C 0.88018 0.96034 0.38847 0.0
H6149 H 0.86083 0.95165 0.39745 0.0
H6150 H 0.86626 0.95934 0.38397 0.0
C6151 C 0.88615 0.95848 0.39562 0.0
C6152 C 0.81183 0.12993 0.14734 0.0
C6153 C 0.80693 0.12558 0.15422 0.0
H6154 H 0.81146 0.13638 0.13442 0.0
C6155 C 0.79744 0.12508 0.15347 0.0
H6156 H 0.81911 0.13066 0.14781 0.0
C6157 C 0.79301 0.12838 0.14574 0.0
C6158 C 0.79801 0.13227 0.13865 0.0
H6159 H 0.79346 0.12178 0.15865 0.0
H6160 H 0.78577 0.12746 0.14512 0.0
C6161 C 0.80743 0.13326 0.13969 0.0
C6162 C 0.37466 0.54741 0.60295 0.0
C6163 C 0.37498 0.55688 0.60194 0.0
H6164 H 0.37726 0.53604 0.61163 0.0
C6165 C 0.37921 0.56205 0.6087 0.0
H6166 H 0.37147 0.54324 0.59785 0.0
C6167 C 0.38265 0.55793 0.61645 0.0
C6168 C 0.38184 0.54854 0.61777 0.0
H6169 H 0.37981 0.56932 0.60802 0.0
H6170 H 0.38574 0.56217 0.62157 0.0
C6171 C 0.37803 0.54328 0.61082 0.0
C6172 C 0.2069 0.61829 0.35797 0.0
C6173 C 0.2019 0.6242 0.35245 0.0
H6174 H 0.21505 0.61679 0.36987 0.0
C6175 C 0.20198 0.63352 0.35449 0.0
H6176 H 0.20711 0.61112 0.35652 0.0
C6177 C 0.20666 0.63678 0.36208 0.0
C6178 C 0.21136 0.63078 0.36772 0.0
H6179 H 0.19813 0.63825 0.35043 0.0
H6180 H 0.20625 0.64389 0.36378 0.0
C6181 C 0.21155 0.62154 0.36553 0.0
C6182 C 0.31192 0.37767 0.85967 0.0
C6183 C 0.30695 0.38148 0.85253 0.0
H6184 H 0.31162 0.37153 0.87273 0.0
C6185 C 0.29742 0.38143 0.85305 0.0
H6186 H 0.31924 0.37736 0.85939 0.0
C6187 C 0.29301 0.37809 0.86077 0.0
C6188 C 0.29804 0.3747 0.86809 0.0
H6189 H 0.29338 0.3843 0.84766 0.0
H6190 H 0.2857 0.37856 0.86119 0.0
C6191 C 0.30753 0.37428 0.8673 0.0
C6192 C 0.90182 0.86867 0.54672 0.0
C6193 C 0.90529 0.87279 0.55455 0.0
H6194 H 0.89142 0.86882 0.53655 0.0
C6195 C 0.90104 0.88058 0.55796 0.0
H6196 H 0.90501 0.86268 0.54397 0.0
C6197 C 0.89327 0.88401 0.55379 0.0
C6198 C 0.88977 0.87985 0.54602 0.0
H6199 H 0.90359 0.88383 0.56401 0.0
H6200 H 0.88986 0.88979 0.55675 0.0
C6201 C 0.89414 0.87222 0.54245 0.0
C6202 C 0.88316 0.1526 0.2946 0.0
C6203 C 0.88317 0.15369 0.30404 0.0
H6204 H 0.87975 0.14398 0.28345 0.0
C6205 C 0.87845 0.14746 0.30942 0.0
H6206 H 0.88671 0.15734 0.29029 0.0
C6207 C 0.87431 0.13996 0.30549 0.0
C6208 C 0.87491 0.13845 0.29613 0.0
H6209 H 0.87813 0.14828 0.31669 0.0
H6210 H 0.87102 0.13508 0.30985 0.0
C6211 C 0.87909 0.14501 0.29067 0.0
C6212 C 0.60588 0.13521 0.0444 0.0
C6213 C 0.60479 0.13516 0.05385 0.0
H6214 H 0.61448 0.13186 0.03321 0.0
C6215 C 0.6112 0.13068 0.05922 0.0
H6216 H 0.60098 0.13857 0.04012 0.0
C6217 C 0.61875 0.12666 0.05527 0.0
C6218 C 0.62019 0.12719 0.04588 0.0
H6219 H 0.61039 0.13032 0.06649 0.0
H6220 H 0.62363 0.12335 0.05963 0.0
C6221 C 0.61355 0.1313 0.04045 0.0
C6222 C 0.63108 0.85538 0.80718 0.0
C6223 C 0.62335 0.85115 0.80361 0.0
H6224 H 0.64027 0.86659 0.80624 0.0
C6225 C 0.61944 0.85457 0.79567 0.0
H6226 H 0.63418 0.85287 0.81333 0.0
C6227 C 0.62308 0.86226 0.79147 0.0
C6228 C 0.63061 0.86667 0.79524 0.0
H6229 H 0.61348 0.85139 0.7928 0.0
H6230 H 0.61976 0.86501 0.78555 0.0
C6231 C 0.63461 0.86314 0.80309 0.0
C6232 C 0.89833 0.13118 0.94628 0.0
C6233 C 0.90531 0.13476 0.95164 0.0
H6234 H 0.88537 0.12485 0.94585 0.0
C6235 C 0.90447 0.13431 0.96111 0.0
H6236 H 0.89887 0.13119 0.93897 0.0
C6237 C 0.89661 0.13079 0.96511 0.0
C6238 C 0.88946 0.12754 0.95971 0.0
H6239 H 0.90975 0.13699 0.96543 0.0
H6240 H 0.89599 0.13096 0.9724 0.0
C6241 C 0.89057 0.12755 0.95025 0.0
C6242 C 0.62308 0.15371 0.71109 0.0
C6243 C 0.62286 0.15464 0.70163 0.0
H6244 H 0.62616 0.1451 0.72236 0.0
C6245 C 0.62661 0.14776 0.69627 0.0
H6246 H 0.62027 0.15893 0.71539 0.0
C6247 C 0.63017 0.13999 0.70023 0.0
C6248 C 0.62991 0.13875 0.70968 0.0
H6249 H 0.62676 0.14839 0.68897 0.0
H6250 H 0.633 0.13485 0.69584 0.0
C6251 C 0.62652 0.14581 0.71508 0.0
C6252 C 0.60339 0.87225 0.46116 0.0
C6253 C 0.60243 0.87216 0.45169 0.0
H6254 H 0.61202 0.87525 0.47245 0.0
C6255 C 0.60926 0.87605 0.44637 0.0
H6256 H 0.5982 0.86933 0.46543 0.0
C6257 C 0.61702 0.87963 0.45037 0.0
C6258 C 0.6183 0.87924 0.4598 0.0
H6259 H 0.60861 0.87631 0.43908 0.0
H6260 H 0.62213 0.88256 0.44601 0.0
C6261 C 0.61128 0.8757 0.46518 0.0
C6262 C 0.88154 0.85849 0.19692 0.0
C6263 C 0.88533 0.85164 0.20228 0.0
H6264 H 0.87514 0.8714 0.19647 0.0
C6265 C 0.88504 0.85257 0.21175 0.0
H6266 H 0.88141 0.85787 0.18962 0.0
C6267 C 0.88153 0.86046 0.21574 0.0
C6268 C 0.87816 0.8675 0.21031 0.0
H6269 H 0.88787 0.84738 0.21607 0.0
H6270 H 0.88184 0.86119 0.22301 0.0
C6271 C 0.87793 0.86625 0.20087 0.0
C6272 C 0.55734 0.89569 0.86688 0.0
C6273 C 0.55553 0.90409 0.87094 0.0
H6274 H 0.55472 0.88158 0.86646 0.0
C6275 C 0.5495 0.90428 0.87835 0.0
H6276 H 0.56202 0.8951 0.86129 0.0
C6277 C 0.54562 0.89628 0.88171 0.0
C6278 C 0.54753 0.88789 0.87766 0.0
H6279 H 0.54774 0.91059 0.88159 0.0
H6280 H 0.54124 0.8967 0.88756 0.0
C6281 C 0.55329 0.88779 0.87006 0.0
C6282 C 0.86034 0.81061 0.62567 0.0
C6283 C 0.85318 0.80528 0.62243 0.0
H6284 H 0.87345 0.81098 0.6317 0.0
C6285 C 0.85384 0.79581 0.62313 0.0
H6286 H 0.85994 0.81793 0.62546 0.0
C6287 C 0.8617 0.79177 0.6266 0.0
C6288 C 0.86902 0.79713 0.62953 0.0
H6289 H 0.84842 0.79152 0.6207 0.0
H6290 H 0.86217 0.78447 0.62662 0.0
C6291 C 0.8681 0.8066 0.62925 0.0
C6292 C 0.94706 0.10883 0.3753 0.0
C6293 C 0.9525 0.10166 0.3723 0.0
H6294 H 0.94649 0.12198 0.38114 0.0
C6295 C 0.96196 0.10235 0.3733 0.0
H6296 H 0.93975 0.10841 0.37488 0.0
C6297 C 0.9659 0.11029 0.37673 0.0
C6298 C 0.96044 0.11763 0.37935 0.0
H6299 H 0.96632 0.09689 0.37109 0.0
H6300 H 0.97321 0.11079 0.37697 0.0
C6301 C 0.95096 0.11664 0.37888 0.0
C6302 C 0.65528 0.21148 0.12355 0.0
C6303 C 0.65584 0.20201 0.12271 0.0
H6304 H 0.64703 0.22288 0.12719 0.0
C6305 C 0.64863 0.19672 0.12593 0.0
H6306 H 0.66073 0.21575 0.12115 0.0
C6307 C 0.6409 0.20078 0.1295 0.0
C6308 C 0.64007 0.21026 0.12984 0.0
H6309 H 0.64894 0.18941 0.12563 0.0
H6310 H 0.63543 0.19647 0.13179 0.0
C6311 C 0.64746 0.21557 0.12706 0.0
C6312 C 0.56079 0.10906 0.63042 0.0
C6313 C 0.55548 0.10207 0.63404 0.0
H6314 H 0.56108 0.12204 0.62411 0.0
C6315 C 0.54599 0.10285 0.63367 0.0
H6316 H 0.5681 0.10856 0.63038 0.0
C6317 C 0.54191 0.11068 0.63017 0.0
C6318 C 0.54726 0.11784 0.62688 0.0
H6319 H 0.54172 0.09756 0.6364 0.0
H6320 H 0.53461 0.11126 0.63041 0.0
C6321 C 0.55673 0.11679 0.62681 0.0
C6322 C 0.64889 0.80981 0.38001 0.0
C6323 C 0.65551 0.80452 0.38425 0.0
H6324 H 0.63611 0.81008 0.3732 0.0
C6325 C 0.65442 0.79508 0.38452 0.0
H6326 H 0.64966 0.81708 0.37959 0.0
C6327 C 0.6466 0.79104 0.38094 0.0
C6328 C 0.63981 0.79638 0.37696 0.0
H6329 H 0.65947 0.79087 0.38775 0.0
H6330 H 0.6457 0.7838 0.38162 0.0
C6331 C 0.64116 0.80579 0.37634 0.0
C6332 C 0.95905 0.90488 0.12825 0.0
C6333 C 0.95349 0.9048 0.13603 0.0
H6334 H 0.96673 0.89712 0.11866 0.0
C6335 C 0.95212 0.89649 0.14044 0.0
H6336 H 0.9605 0.91113 0.12474 0.0
C6337 C 0.95605 0.88858 0.13719 0.0
C6338 C 0.96119 0.88853 0.12917 0.0
H6339 H 0.94781 0.89597 0.14633 0.0
H6340 H 0.95493 0.88244 0.14101 0.0
C6341 C 0.96278 0.89684 0.12482 0.0
C6342 C 0.85343 0.21146 0.88462 0.0
C6343 C 0.85237 0.20201 0.88458 0.0
H6344 H 0.86215 0.2227 0.88165 0.0
C6345 C 0.85908 0.19666 0.88052 0.0
H6346 H 0.84833 0.21574 0.88768 0.0
C6347 C 0.86683 0.20062 0.87688 0.0
C6348 C 0.86821 0.21004 0.87739 0.0
H6349 H 0.85834 0.18938 0.88018 0.0
H6350 H 0.87185 0.19625 0.87383 0.0
C6351 C 0.86131 0.21545 0.8811 0.0
C6352 C 0.87418 0.54572 0.90353 0.0
C6353 C 0.87328 0.55517 0.90436 0.0
H6354 H 0.8779 0.53459 0.89498 0.0
C6355 C 0.87646 0.56068 0.89731 0.0
H6356 H 0.87182 0.54129 0.90885 0.0
C6357 C 0.88008 0.55686 0.88948 0.0
C6358 C 0.88051 0.54742 0.88837 0.0
H6359 H 0.87612 0.56797 0.89783 0.0
H6360 H 0.88239 0.56136 0.88418 0.0
C6361 C 0.87773 0.54188 0.8956 0.0
C6362 C 0.37336 0.96164 0.10485 0.0
C6363 C 0.37272 0.95218 0.10404 0.0
H6364 H 0.37724 0.97284 0.11321 0.0
C6365 C 0.37644 0.94672 0.11084 0.0
H6366 H 0.37057 0.96603 0.0997 0.0
C6367 C 0.38038 0.95061 0.11847 0.0
C6368 C 0.38059 0.96006 0.11955 0.0
H6369 H 0.37629 0.93942 0.11029 0.0
H6370 H 0.38309 0.94618 0.12364 0.0
C6371 C 0.37725 0.96555 0.11256 0.0
C6372 C 0.80309 0.63117 0.85522 0.0
C6373 C 0.80292 0.6218 0.85346 0.0
H6374 H 0.79945 0.64186 0.86437 0.0
C6375 C 0.79813 0.6161 0.85937 0.0
H6376 H 0.80682 0.63574 0.85087 0.0
C6377 C 0.79395 0.61963 0.86706 0.0
C6378 C 0.79439 0.62892 0.86892 0.0
H6379 H 0.79774 0.60889 0.85814 0.0
H6380 H 0.79063 0.61507 0.87173 0.0
C6381 C 0.79885 0.6347 0.8629 0.0
C6382 C 0.13336 0.04431 0.60369 0.0
C6383 C 0.13296 0.05371 0.60225 0.0
H6384 H 0.13014 0.03332 0.6126 0.0
C6385 C 0.12766 0.05904 0.60803 0.0
H6386 H 0.13736 0.04004 0.59927 0.0
C6387 C 0.12335 0.05518 0.61547 0.0
C6388 C 0.12439 0.04592 0.61739 0.0
H6389 H 0.12704 0.06626 0.60694 0.0
H6390 H 0.11965 0.05954 0.62005 0.0
C6391 C 0.12914 0.04045 0.61124 0.0
C6392 C 0.20841 0.87739 0.85181 0.0
C6393 C 0.20288 0.88518 0.8519 0.0
H6394 H 0.21629 0.86792 0.8595 0.0
C6395 C 0.20158 0.88962 0.8602 0.0
H6396 H 0.20977 0.87383 0.84556 0.0
C6397 C 0.20565 0.88646 0.86808 0.0
C6398 C 0.21088 0.87849 0.86811 0.0
H6399 H 0.19729 0.89552 0.86072 0.0
H6400 H 0.20464 0.89037 0.87419 0.0
C6401 C 0.2123 0.87405 0.85981 0.0
C6402 C 0.6317 0.4466 0.39762 0.0
C6403 C 0.63536 0.45193 0.40457 0.0
H6404 H 0.62536 0.44622 0.38468 0.0
C6405 C 0.63505 0.46141 0.40371 0.0
H6406 H 0.6316 0.4393 0.39819 0.0
C6407 C 0.63161 0.46543 0.39583 0.0
C6408 C 0.6283 0.46006 0.3887 0.0
H6409 H 0.63779 0.4657 0.40898 0.0
H6410 H 0.6319 0.47272 0.39519 0.0
C6411 C 0.62813 0.4506 0.38986 0.0
C6412 C 0.79604 0.38332 0.65402 0.0
C6413 C 0.8055 0.38403 0.65506 0.0
H6414 H 0.78503 0.37976 0.64519 0.0
C6415 C 0.81112 0.38058 0.64825 0.0
H6416 H 0.79154 0.38587 0.65921 0.0
C6417 C 0.80742 0.37689 0.6404 0.0
C6418 C 0.79798 0.37675 0.63901 0.0
H6419 H 0.81842 0.38079 0.64895 0.0
H6420 H 0.81201 0.37439 0.63526 0.0
C6421 C 0.79231 0.37975 0.64604 0.0
C6422 C 0.70992 0.61821 0.15124 0.0
C6423 C 0.70314 0.62328 0.15557 0.0
H6424 H 0.7193 0.61745 0.14018 0.0
C6425 C 0.70107 0.63196 0.15224 0.0
H6426 H 0.71173 0.61155 0.1537 0.0
C6427 C 0.70545 0.63534 0.14455 0.0
C6428 C 0.71207 0.63017 0.14015 0.0
H6429 H 0.69581 0.63599 0.15538 0.0
H6430 H 0.70343 0.64184 0.14184 0.0
C6431 C 0.71434 0.62162 0.14361 0.0
C6432 C 0.60405 0.63294 0.95904 0.0
C6433 C 0.60319 0.63282 0.94956 0.0
H6434 H 0.61259 0.63024 0.97047 0.0
C6435 C 0.61009 0.62888 0.94438 0.0
H6436 H 0.5988 0.63591 0.9632 0.0
C6437 C 0.61784 0.62545 0.94853 0.0
C6438 C 0.61901 0.62605 0.95796 0.0
H6439 H 0.60952 0.62846 0.93709 0.0
H6440 H 0.62302 0.62248 0.94428 0.0
C6441 C 0.61192 0.62963 0.9632 0.0
C6442 C 0.62698 0.35204 0.21021 0.0
C6443 C 0.62797 0.35088 0.2008 0.0
H6444 H 0.62914 0.36078 0.22163 0.0
C6445 C 0.63316 0.35719 0.19595 0.0
H6446 H 0.62303 0.34729 0.21413 0.0
C6447 C 0.63678 0.36477 0.20026 0.0
C6448 C 0.63522 0.3663 0.20951 0.0
H6449 H 0.63424 0.35638 0.18875 0.0
H6450 H 0.64038 0.36972 0.19623 0.0
C6451 C 0.63056 0.35971 0.21452 0.0
C6452 C 0.89771 0.37883 0.44509 0.0
C6453 C 0.90464 0.37473 0.45013 0.0
H6454 H 0.88478 0.38527 0.44521 0.0
C6455 C 0.90378 0.37437 0.45961 0.0
H6456 H 0.89825 0.37945 0.43781 0.0
C6457 C 0.89597 0.37766 0.46389 0.0
C6458 C 0.88888 0.38144 0.45878 0.0
H6459 H 0.90901 0.37125 0.46369 0.0
H6460 H 0.89534 0.3769 0.47114 0.0
C6461 C 0.88998 0.38219 0.44935 0.0
C6462 C 0.88292 0.65365 0.70976 0.0
C6463 C 0.88255 0.65474 0.7003 0.0
H6464 H 0.88045 0.64485 0.72106 0.0
C6465 C 0.87832 0.64801 0.6951 0.0
H6466 H 0.8861 0.65875 0.71395 0.0
C6467 C 0.87496 0.64019 0.69916 0.0
C6468 C 0.87585 0.63879 0.70854 0.0
H6469 H 0.87769 0.64874 0.68784 0.0
H6470 H 0.87187 0.6351 0.69489 0.0
C6471 C 0.87963 0.64573 0.71384 0.0
C6472 C 0.60461 0.37347 0.54631 0.0
C6473 C 0.60348 0.37445 0.55571 0.0
H6474 H 0.61326 0.37566 0.53483 0.0
C6475 C 0.60998 0.37936 0.5606 0.0
H6476 H 0.5997 0.36973 0.54236 0.0
C6477 C 0.61762 0.38285 0.55629 0.0
C6478 C 0.61904 0.38145 0.54699 0.0
H6479 H 0.60921 0.38043 0.56781 0.0
H6480 H 0.62257 0.38647 0.56032 0.0
C6481 C 0.61234 0.37691 0.54199 0.0
C6482 C 0.88289 0.35278 0.796 0.0
C6483 C 0.88259 0.35183 0.80548 0.0
H6484 H 0.88035 0.3614 0.78457 0.0
C6485 C 0.87843 0.35866 0.8106 0.0
H6486 H 0.88602 0.34761 0.79186 0.0
C6487 C 0.87506 0.36642 0.80643 0.0
C6488 C 0.87587 0.36768 0.79703 0.0
H6489 H 0.87784 0.35804 0.81787 0.0
H6490 H 0.87201 0.37158 0.81064 0.0
C6491 C 0.87959 0.36065 0.79182 0.0
C6492 C 0.90404 0.63169 0.04653 0.0
C6493 C 0.90485 0.63133 0.05602 0.0
H6494 H 0.89567 0.62897 0.03494 0.0
C6495 C 0.89808 0.62687 0.06098 0.0
H6496 H 0.90914 0.63507 0.0425 0.0
C6497 C 0.89048 0.62331 0.05666 0.0
C6498 C 0.88938 0.62415 0.04725 0.0
H6499 H 0.89859 0.62623 0.06826 0.0
H6500 H 0.88527 0.62016 0.06074 0.0
C6501 C 0.89636 0.62815 0.04218 0.0
C6502 C 0.62969 0.64779 0.31114 0.0
C6503 C 0.62535 0.65458 0.30613 0.0
H6504 H 0.63631 0.63498 0.31101 0.0
C6505 C 0.62494 0.65371 0.29665 0.0
H6506 H 0.63034 0.64836 0.31842 0.0
C6507 C 0.62833 0.64593 0.29236 0.0
C6508 C 0.63222 0.63893 0.29748 0.0
H6509 H 0.62167 0.65885 0.29259 0.0
H6510 H 0.62748 0.64521 0.28512 0.0
C6511 C 0.63314 0.64013 0.30688 0.0
C6512 C 0.95716 0.60728 0.63827 0.0
C6513 C 0.95172 0.60219 0.63236 0.0
H6514 H 0.96559 0.61899 0.63994 0.0
C6515 C 0.95113 0.60483 0.62322 0.0
H6516 H 0.95781 0.60537 0.6453 0.0
C6517 C 0.95565 0.61258 0.62016 0.0
C6518 C 0.96088 0.61775 0.62615 0.0
H6519 H 0.94692 0.60109 0.61854 0.0
H6520 H 0.95477 0.61474 0.61322 0.0
C6521 C 0.96169 0.61499 0.63519 0.0
C6522 C 0.65382 0.71048 0.8821 0.0
C6523 C 0.65479 0.70102 0.88152 0.0
H6524 H 0.64524 0.72197 0.87965 0.0
C6525 C 0.6481 0.69601 0.877 0.0
H6526 H 0.65887 0.71453 0.88553 0.0
C6527 C 0.64042 0.70027 0.87353 0.0
C6528 C 0.63915 0.70964 0.87458 0.0
H6529 H 0.64875 0.68876 0.87621 0.0
H6530 H 0.63533 0.69615 0.87024 0.0
C6531 C 0.64605 0.71475 0.87868 0.0
C6532 C 0.55366 0.40335 0.12403 0.0
C6533 C 0.5567 0.404 0.13305 0.0
H6534 H 0.54728 0.39503 0.1139 0.0
C6535 C 0.5548 0.39685 0.139 0.0
H6536 H 0.55502 0.40872 0.11924 0.0
C6537 C 0.55039 0.38909 0.13594 0.0
C6538 C 0.54775 0.38824 0.12684 0.0
H6539 H 0.55678 0.39719 0.14604 0.0
H6540 H 0.54923 0.38362 0.14067 0.0
C6541 C 0.5492 0.39553 0.12095 0.0
C6542 C 0.86019 0.3119 0.37716 0.0
C6543 C 0.85336 0.30679 0.38133 0.0
H6544 H 0.87311 0.3119 0.37068 0.0
C6545 C 0.85421 0.29729 0.3815 0.0
H6546 H 0.85965 0.31919 0.37668 0.0
C6547 C 0.862 0.29308 0.37804 0.0
C6548 C 0.86903 0.29828 0.37432 0.0
H6549 H 0.84906 0.29316 0.38465 0.0
H6550 H 0.86271 0.28582 0.37871 0.0
C6551 C 0.86789 0.30771 0.37366 0.0
C6552 C 0.96008 0.39764 0.86902 0.0
C6553 C 0.95452 0.4029 0.87464 0.0
H6554 H 0.96858 0.38594 0.86794 0.0
C6555 C 0.95425 0.40094 0.88396 0.0
H6556 H 0.96054 0.39905 0.86185 0.0
C6557 C 0.95895 0.39348 0.88745 0.0
C6558 C 0.96413 0.38797 0.88172 0.0
H6559 H 0.94998 0.40484 0.88846 0.0
H6560 H 0.95803 0.39165 0.89449 0.0
C6561 C 0.96484 0.39026 0.87254 0.0
C6562 C 0.85447 0.70998 0.12353 0.0
C6563 C 0.8534 0.70056 0.12446 0.0
H6564 H 0.86308 0.72149 0.12571 0.0
C6565 C 0.86 0.69567 0.12923 0.0
H6566 H 0.8495 0.71394 0.11989 0.0
C6567 C 0.86765 0.7 0.13268 0.0
C6568 C 0.869 0.70932 0.13134 0.0
H6569 H 0.85926 0.68846 0.13027 0.0
H6570 H 0.87263 0.69597 0.13623 0.0
C6571 C 0.86222 0.71432 0.12692 0.0
C6572 C 0.56225 0.60973 0.37827 0.0
C6573 C 0.55721 0.60273 0.37429 0.0
H6574 H 0.56209 0.62267 0.38467 0.0
C6575 C 0.5477 0.60345 0.37415 0.0
H6576 H 0.56955 0.6093 0.37873 0.0
C6577 C 0.54337 0.6112 0.37752 0.0
C6578 C 0.54848 0.61837 0.38116 0.0
H6579 H 0.54361 0.59817 0.37113 0.0
H6580 H 0.53609 0.61173 0.37692 0.0
C6581 C 0.55794 0.6174 0.38171 0.0
C6582 C 0.6513 0.29601 0.62307 0.0
C6583 C 0.65247 0.30543 0.62383 0.0
H6584 H 0.64275 0.28461 0.6258 0.0
C6585 C 0.64623 0.31043 0.62894 0.0
H6586 H 0.65603 0.29197 0.61919 0.0
C6587 C 0.63876 0.30621 0.63284 0.0
C6588 C 0.63726 0.29689 0.63162 0.0
H6589 H 0.64708 0.31765 0.62987 0.0
H6590 H 0.63398 0.31031 0.6366 0.0
C6591 C 0.64375 0.29178 0.62692 0.0
C6592 C 0.6282 0.94542 0.6092 0.0
C6593 C 0.63254 0.95038 0.60237 0.0
H6594 H 0.62163 0.94563 0.62205 0.0
C6595 C 0.63303 0.95986 0.60324 0.0
H6596 H 0.62746 0.93815 0.60865 0.0
C6597 C 0.6297 0.9642 0.61101 0.0
C6598 C 0.62577 0.95914 0.61804 0.0
H6599 H 0.63631 0.96389 0.59808 0.0
H6600 H 0.6306 0.97143 0.6117 0.0
C6601 C 0.62482 0.94973 0.61688 0.0
C6602 C 0.12787 0.54876 0.40385 0.0
C6603 C 0.13445 0.5557 0.40347 0.0
H6604 H 0.11923 0.53969 0.39652 0.0
C6605 C 0.13772 0.55822 0.39492 0.0
H6606 H 0.12527 0.5464 0.41027 0.0
C6607 C 0.13467 0.55397 0.3871 0.0
C6608 C 0.12776 0.54738 0.38737 0.0
H6609 H 0.14262 0.5636 0.39413 0.0
H6610 H 0.13783 0.55597 0.38081 0.0
C6611 C 0.12449 0.54474 0.39591 0.0
C6612 C 0.70779 0.87504 0.65487 0.0
C6613 C 0.70123 0.882 0.65437 0.0
H6614 H 0.71655 0.86593 0.64762 0.0
C6615 C 0.69894 0.8853 0.64578 0.0
H6616 H 0.70993 0.87239 0.66134 0.0
C6617 C 0.7031 0.88198 0.63805 0.0
C6618 C 0.70931 0.87473 0.63839 0.0
H6619 H 0.69382 0.89045 0.64489 0.0
H6620 H 0.70134 0.88528 0.63177 0.0
C6621 C 0.71173 0.87139 0.64697 0.0
C6622 C 0.37954 0.44509 0.89667 0.0
C6623 C 0.37551 0.4501 0.90366 0.0
H6624 H 0.3859 0.44527 0.88371 0.0
C6625 C 0.37537 0.4596 0.90295 0.0
H6626 H 0.38 0.43779 0.89709 0.0
C6627 C 0.37875 0.46393 0.89521 0.0
C6628 C 0.38238 0.45885 0.88804 0.0
H6629 H 0.37232 0.46367 0.90822 0.0
H6630 H 0.37814 0.47121 0.89467 0.0
C6631 C 0.38296 0.4494 0.88901 0.0
C6632 C 0.29687 0.62646 0.65415 0.0
C6633 C 0.30623 0.62752 0.65559 0.0
H6634 H 0.28565 0.62871 0.64516 0.0
C6635 C 0.3112 0.63296 0.6496 0.0
H6636 H 0.29286 0.62233 0.65868 0.0
C6637 C 0.30704 0.6368 0.64205 0.0
C6638 C 0.29784 0.63515 0.64018 0.0
H6639 H 0.31838 0.63407 0.65064 0.0
H6640 H 0.31116 0.64063 0.63736 0.0
C6641 C 0.29271 0.63021 0.64648 0.0
C6642 C 0.87537 0.04702 0.10292 0.0
C6643 C 0.87557 0.05652 0.10218 0.0
H6644 H 0.87809 0.03542 0.11126 0.0
C6645 C 0.87967 0.06153 0.10914 0.0
H6646 H 0.87227 0.04295 0.09768 0.0
C6647 C 0.88311 0.05722 0.1168 0.0
C6648 C 0.88245 0.04778 0.11781 0.0
H6649 H 0.88018 0.06882 0.10869 0.0
H6650 H 0.88609 0.06135 0.12207 0.0
C6651 C 0.87876 0.04269 0.11068 0.0
C6652 C 0.70515 0.13264 0.85285 0.0
C6653 C 0.70182 0.1237 0.85229 0.0
H6654 H 0.7119 0.14264 0.86103 0.0
C6655 C 0.7036 0.11777 0.85948 0.0
H6656 H 0.7039 0.13741 0.84744 0.0
C6657 C 0.70821 0.12074 0.86715 0.0
C6658 C 0.71113 0.12977 0.86794 0.0
H6659 H 0.70139 0.11079 0.85921 0.0
H6660 H 0.70933 0.11597 0.8726 0.0
C6661 C 0.70976 0.13564 0.86061 0.0
C6662 C 0.81202 0.87774 0.35958 0.0
C6663 C 0.80706 0.88174 0.35253 0.0
H6664 H 0.81173 0.8714 0.37254 0.0
C6665 C 0.79754 0.88187 0.35316 0.0
H6666 H 0.81933 0.87728 0.35922 0.0
C6667 C 0.79314 0.87852 0.36089 0.0
C6668 C 0.79817 0.87493 0.36812 0.0
H6669 H 0.7935 0.88489 0.34785 0.0
H6670 H 0.78585 0.87915 0.36137 0.0
C6671 C 0.80764 0.87433 0.36721 0.0
C6672 C 0.40181 0.37229 0.04479 0.0
C6673 C 0.40278 0.37203 0.05424 0.0
H6674 H 0.39335 0.37585 0.03358 0.0
C6675 C 0.39618 0.37616 0.05966 0.0
H6676 H 0.40682 0.36918 0.04044 0.0
C6677 C 0.38859 0.38016 0.05574 0.0
C6678 C 0.38731 0.37999 0.04631 0.0
H6679 H 0.39688 0.37629 0.06695 0.0
H6680 H 0.38361 0.38324 0.06014 0.0
C6681 C 0.39413 0.37619 0.04086 0.0
C6682 C 0.3804 0.64645 0.80931 0.0
C6683 C 0.38451 0.65299 0.80379 0.0
H6684 H 0.37345 0.6338 0.80994 0.0
C6685 C 0.38392 0.65206 0.79434 0.0
H6686 H 0.3805 0.6471 0.8166 0.0
C6687 C 0.37983 0.64442 0.7905 0.0
C6688 C 0.37625 0.63761 0.79607 0.0
H6689 H 0.38699 0.65702 0.78991 0.0
H6690 H 0.37997 0.64359 0.78323 0.0
C6691 C 0.37629 0.63888 0.80549 0.0
C6692 C 0.11158 0.6307 0.55974 0.0
C6693 C 0.10488 0.63456 0.55423 0.0
H6694 H 0.12427 0.62386 0.56037 0.0
C6695 C 0.10574 0.63388 0.54477 0.0
H6696 H 0.11097 0.63086 0.56703 0.0
C6697 C 0.11344 0.62991 0.54092 0.0
C6698 C 0.12036 0.62648 0.54646 0.0
H6699 H 0.10065 0.63676 0.54036 0.0
H6700 H 0.11416 0.62994 0.53364 0.0
C6701 C 0.11918 0.62665 0.55591 0.0
C6702 C 0.12648 0.3586 0.31037 0.0
C6703 C 0.12297 0.35166 0.30494 0.0
H6704 H 0.13276 0.37158 0.31092 0.0
C6705 C 0.1236 0.35249 0.29547 0.0
H6706 H 0.12634 0.35806 0.31767 0.0
C6707 C 0.12719 0.36036 0.29155 0.0
C6708 C 0.13031 0.36749 0.29702 0.0
H6709 H 0.12099 0.34722 0.29111 0.0
H6710 H 0.12715 0.36101 0.28426 0.0
C6711 C 0.13018 0.36636 0.30648 0.0
C6712 C 0.40481 0.63334 0.46107 0.0
C6713 C 0.40567 0.63392 0.45161 0.0
H6714 H 0.39625 0.62999 0.47228 0.0
C6715 C 0.39862 0.63062 0.44617 0.0
H6716 H 0.41014 0.63583 0.46544 0.0
C6717 C 0.39076 0.62712 0.45006 0.0
C6718 C 0.38966 0.62695 0.45951 0.0
H6719 H 0.39916 0.63076 0.43886 0.0
H6720 H 0.38546 0.62467 0.44562 0.0
C6721 C 0.39687 0.62993 0.46498 0.0
C6722 C 0.12326 0.6521 0.21223 0.0
C6723 C 0.12319 0.65318 0.20277 0.0
H6724 H 0.12662 0.64344 0.2234 0.0
C6725 C 0.12756 0.64671 0.19738 0.0
H6726 H 0.12 0.65702 0.21656 0.0
C6727 C 0.13149 0.6391 0.20129 0.0
C6728 C 0.13102 0.63765 0.21068 0.0
H6729 H 0.12786 0.64749 0.1901 0.0
H6730 H 0.13464 0.63415 0.19689 0.0
C6731 C 0.12712 0.64437 0.21616 0.0
C6732 C 0.11004 0.37588 0.94616 0.0
C6733 C 0.10307 0.37229 0.95152 0.0
H6734 H 0.12302 0.38218 0.94575 0.0
C6735 C 0.10392 0.37267 0.96098 0.0
H6736 H 0.10948 0.3759 0.93885 0.0
C6737 C 0.11179 0.37616 0.96498 0.0
C6738 C 0.11893 0.37944 0.95959 0.0
H6739 H 0.09865 0.36997 0.96529 0.0
H6740 H 0.11242 0.37594 0.97227 0.0
C6741 C 0.11781 0.37948 0.95013 0.0
C6742 C 0.37775 0.35637 0.69709 0.0
C6743 C 0.38274 0.35021 0.70231 0.0
H6744 H 0.37035 0.36878 0.69679 0.0
C6745 C 0.38335 0.35158 0.7117 0.0
H6746 H 0.37698 0.35537 0.68987 0.0
C6747 C 0.37961 0.35934 0.71568 0.0
C6748 C 0.3751 0.3658 0.71034 0.0
H6749 H 0.38713 0.3469 0.71588 0.0
H6750 H 0.38073 0.36057 0.72282 0.0
C6751 C 0.3739 0.36401 0.70107 0.0
C6752 C 0.04582 0.40418 0.37234 0.0
C6753 C 0.0553 0.40506 0.37193 0.0
H6754 H 0.03454 0.39561 0.37554 0.0
C6755 C 0.06069 0.39812 0.3755 0.0
H6756 H 0.04149 0.40946 0.36969 0.0
C6757 C 0.05674 0.39033 0.37907 0.0
C6758 C 0.04727 0.38912 0.37896 0.0
H6759 H 0.068 0.3987 0.37552 0.0
H6760 H 0.06117 0.38516 0.38177 0.0
C6761 C 0.04184 0.39626 0.37576 0.0
C6762 C 0.35606 0.29484 0.12207 0.0
C6763 C 0.35519 0.3043 0.12166 0.0
H6764 H 0.36449 0.28361 0.12567 0.0
C6765 C 0.36192 0.30973 0.12558 0.0
H6766 H 0.35093 0.29049 0.11914 0.0
C6767 C 0.36954 0.30581 0.12949 0.0
C6768 C 0.37073 0.29636 0.12943 0.0
H6769 H 0.3613 0.31703 0.12561 0.0
H6770 H 0.37461 0.31022 0.13241 0.0
C6771 C 0.36379 0.2909 0.12588 0.0
C6772 C 0.45889 0.60174 0.8786 0.0
C6773 C 0.45347 0.60175 0.87073 0.0
H6774 H 0.4665 0.60957 0.88819 0.0
C6775 C 0.45228 0.60999 0.86614 0.0
H6776 H 0.46019 0.59554 0.88225 0.0
C6777 C 0.45625 0.61792 0.86932 0.0
C6778 C 0.46126 0.61804 0.87743 0.0
H6779 H 0.44809 0.61044 0.86016 0.0
H6780 H 0.45526 0.62402 0.8654 0.0
C6781 C 0.46267 0.6098 0.88195 0.0
C6782 C 0.14806 0.69666 0.62537 0.0
C6783 C 0.15514 0.70201 0.62202 0.0
H6784 H 0.13501 0.69623 0.63147 0.0
C6785 C 0.15438 0.71148 0.62258 0.0
H6786 H 0.14854 0.68935 0.62527 0.0
C6787 C 0.14646 0.7155 0.62596 0.0
C6788 C 0.1392 0.71012 0.62899 0.0
H6789 H 0.15977 0.71578 0.62009 0.0
H6790 H 0.14592 0.7228 0.62587 0.0
C6791 C 0.14027 0.70064 0.6289 0.0
C6792 C 0.05955 0.60856 0.12701 0.0
C6793 C 0.05425 0.60274 0.13229 0.0
H6794 H 0.06 0.62061 0.11905 0.0
C6795 C 0.04486 0.60423 0.13283 0.0
H6796 H 0.06676 0.60743 0.12628 0.0
C6797 C 0.04097 0.61184 0.12875 0.0
C6798 C 0.04641 0.61801 0.12397 0.0
H6799 H 0.04061 0.59978 0.13682 0.0
H6800 H 0.03385 0.6132 0.12985 0.0
C6801 C 0.05566 0.61605 0.12281 0.0
C6802 C 0.15463 0.29544 0.88309 0.0
C6803 C 0.15543 0.30492 0.88361 0.0
H6804 H 0.14613 0.28416 0.87967 0.0
C6805 C 0.14848 0.31029 0.88002 0.0
H6806 H 0.15991 0.29112 0.88576 0.0
C6807 C 0.14074 0.30633 0.87636 0.0
C6808 C 0.13962 0.29687 0.87635 0.0
H6809 H 0.149 0.3176 0.88008 0.0
H6810 H 0.1355 0.31073 0.87372 0.0
C6811 C 0.14677 0.29145 0.87953 0.0
C6812 C 0.44769 0.39621 0.62978 0.0
C6813 C 0.45298 0.40261 0.63435 0.0
H6814 H 0.44743 0.38379 0.62241 0.0
C6815 C 0.46244 0.40158 0.6345 0.0
H6816 H 0.4404 0.39699 0.62938 0.0
C6817 C 0.46649 0.39396 0.63059 0.0
C6818 C 0.46113 0.38733 0.62636 0.0
H6819 H 0.46666 0.40648 0.63795 0.0
H6820 H 0.47374 0.39305 0.63126 0.0
C6821 C 0.45172 0.3887 0.62575 0.0
C6822 C 0.35319 0.71055 0.38331 0.0
C6823 C 0.35204 0.70111 0.3838 0.0
H6824 H 0.36211 0.72151 0.37988 0.0
C6825 C 0.35875 0.69549 0.38013 0.0
H6826 H 0.34809 0.71505 0.38605 0.0
C6827 C 0.36661 0.69916 0.37646 0.0
C6828 C 0.36807 0.70856 0.37649 0.0
H6829 H 0.35795 0.6882 0.38018 0.0
H6830 H 0.37169 0.69459 0.37382 0.0
C6831 C 0.36117 0.71425 0.37972 0.0
C6832 C 0.37356 0.04485 0.40414 0.0
C6833 C 0.37328 0.05433 0.40508 0.0
H6834 H 0.37676 0.03359 0.39551 0.0
C6835 C 0.37713 0.05969 0.39827 0.0
H6836 H 0.37069 0.04054 0.40932 0.0
C6837 C 0.38077 0.05574 0.39052 0.0
C6838 C 0.3805 0.0463 0.38924 0.0
H6839 H 0.37728 0.06699 0.3989 0.0
H6840 H 0.38358 0.06014 0.38538 0.0
C6841 C 0.3771 0.04087 0.39627 0.0
C6842 C 0.87391 0.46167 0.60236 0.0
C6843 C 0.87321 0.45221 0.60149 0.0
H6844 H 0.87734 0.47285 0.61098 0.0
C6845 C 0.87646 0.44673 0.60852 0.0
H6846 H 0.8715 0.46606 0.59702 0.0
C6847 C 0.87999 0.45059 0.61637 0.0
C6848 C 0.88019 0.46004 0.61754 0.0
H6849 H 0.87626 0.43943 0.60797 0.0
H6850 H 0.88241 0.44611 0.62164 0.0
C6851 C 0.87732 0.46555 0.61033 0.0
C6852 C 0.30225 0.1304 0.35466 0.0
C6853 C 0.30397 0.12104 0.35398 0.0
H6854 H 0.29716 0.14125 0.36291 0.0
C6855 C 0.30113 0.11535 0.36102 0.0
H6856 H 0.30442 0.13499 0.34939 0.0
C6857 C 0.29703 0.11894 0.3687 0.0
C6858 C 0.29562 0.1283 0.36952 0.0
H6859 H 0.30215 0.1081 0.36065 0.0
H6860 H 0.29514 0.11441 0.37415 0.0
C6861 C 0.29808 0.134 0.36236 0.0
C6862 C 0.6404 0.54975 0.10935 0.0
C6863 C 0.63487 0.55355 0.10264 0.0
H6864 H 0.64096 0.54298 0.1221 0.0
C6865 C 0.62539 0.55272 0.10341 0.0
H6866 H 0.64771 0.55013 0.10887 0.0
C6867 C 0.62152 0.54852 0.11097 0.0
C6868 C 0.6271 0.54508 0.1178 0.0
H6869 H 0.62095 0.55564 0.09836 0.0
H6870 H 0.61422 0.54836 0.11169 0.0
C6871 C 0.63655 0.54555 0.11684 0.0
C6872 C 0.70704 0.39107 0.35826 0.0
C6873 C 0.70373 0.38514 0.3516 0.0
H6874 H 0.71345 0.39246 0.37117 0.0
C6875 C 0.70515 0.37577 0.35275 0.0
H6876 H 0.70629 0.39831 0.35755 0.0
C6877 C 0.70946 0.37242 0.36052 0.0
C6878 C 0.71238 0.37838 0.3673 0.0
H6879 H 0.70262 0.37097 0.34783 0.0
H6880 H 0.7101 0.36518 0.36144 0.0
C6881 C 0.71126 0.38773 0.36602 0.0
C6882 C 0.13036 0.94751 0.89702 0.0
C6883 C 0.13485 0.95297 0.90334 0.0
H6884 H 0.12315 0.94688 0.88454 0.0
C6885 C 0.13476 0.96242 0.90217 0.0
H6886 H 0.13008 0.94024 0.89788 0.0
C6887 C 0.13081 0.96626 0.89445 0.0
C6888 C 0.12684 0.96069 0.88785 0.0
H6889 H 0.13811 0.9668 0.90699 0.0
H6890 H 0.13132 0.97349 0.89341 0.0
C6891 C 0.12634 0.95132 0.88941 0.0
C6892 C 0.29897 0.87746 0.15485 0.0
C6893 C 0.30527 0.88464 0.15467 0.0
H6894 H 0.29069 0.86828 0.14726 0.0
C6895 C 0.3076 0.88829 0.14623 0.0
H6896 H 0.29683 0.87451 0.16119 0.0
C6897 C 0.30365 0.88511 0.13832 0.0
C6898 C 0.29763 0.87769 0.13835 0.0
H6899 H 0.31254 0.89365 0.14561 0.0
H6900 H 0.30537 0.88868 0.13219 0.0
C6901 C 0.29529 0.87395 0.1468 0.0
C6902 C 0.21298 0.12226 0.65178 0.0
C6903 C 0.20352 0.12201 0.65283 0.0
H6904 H 0.22414 0.1257 0.64317 0.0
C6905 C 0.19806 0.1262 0.6463 0.0
H6906 H 0.21736 0.11914 0.65676 0.0
C6907 C 0.20192 0.13015 0.63868 0.0
C6908 C 0.21134 0.12983 0.63725 0.0
H6909 H 0.19076 0.12638 0.64707 0.0
H6910 H 0.19747 0.13324 0.63375 0.0
C6911 C 0.21687 0.12609 0.64403 0.0
C6912 C 0.09747 0.20509 0.39123 0.0
C6913 C 0.09479 0.19661 0.38785 0.0
H6914 H 0.10533 0.21706 0.38901 0.0
C6915 C 0.09692 0.19436 0.37886 0.0
H6916 H 0.09588 0.20702 0.39812 0.0
C6917 C 0.10232 0.20015 0.37364 0.0
C6918 C 0.10548 0.20833 0.37729 0.0
H6919 H 0.09503 0.18785 0.3761 0.0
H6920 H 0.10455 0.19796 0.36702 0.0
C6921 C 0.10277 0.21089 0.386 0.0
C6922 C 0.05354 0.85017 0.64345 0.0
C6923 C 0.06085 0.84563 0.6394 0.0
H6924 H 0.04252 0.8594 0.64166 0.0
C6925 C 0.06175 0.8459 0.62993 0.0
H6926 H 0.05259 0.85 0.65072 0.0
C6927 C 0.05588 0.85125 0.62473 0.0
C6928 C 0.04901 0.85628 0.62894 0.0
H6929 H 0.06735 0.84252 0.62663 0.0
H6930 H 0.05707 0.85193 0.61753 0.0
C6931 C 0.04771 0.85547 0.63828 0.0
C6932 C 0.41359 0.80289 0.88829 0.0
C6933 C 0.41335 0.81228 0.887 0.0
H6934 H 0.40769 0.7901 0.88479 0.0
C6935 C 0.40783 0.81594 0.88022 0.0
H6936 H 0.4177 0.79999 0.89361 0.0
C6937 C 0.40212 0.81034 0.87521 0.0
C6938 C 0.40182 0.801 0.87696 0.0
H6939 H 0.40747 0.82319 0.87924 0.0
H6940 H 0.39748 0.81337 0.87041 0.0
C6941 C 0.40789 0.79725 0.88324 0.0
C6942 C 0.44145 0.15695 0.13031 0.0
C6943 C 0.44514 0.16246 0.13708 0.0
H6944 H 0.44398 0.14657 0.12053 0.0
C6945 C 0.45455 0.16273 0.13831 0.0
H6946 H 0.43418 0.15656 0.12939 0.0
C6947 C 0.46017 0.15706 0.13322 0.0
C6948 C 0.4564 0.15099 0.12697 0.0
H6949 H 0.45748 0.16684 0.14363 0.0
H6950 H 0.46735 0.15687 0.13473 0.0
C6951 C 0.44704 0.15125 0.12529 0.0
C6952 C 0.09417 0.8028 0.11817 0.0
C6953 C 0.09442 0.81222 0.11932 0.0
H6954 H 0.10011 0.79006 0.12178 0.0
C6955 C 0.10001 0.81597 0.12599 0.0
H6956 H 0.08999 0.79982 0.11294 0.0
C6957 C 0.10579 0.81044 0.131 0.0
C6958 C 0.10608 0.80108 0.12938 0.0
H6959 H 0.10039 0.82324 0.12686 0.0
H6960 H 0.11049 0.81355 0.13569 0.0
C6961 C 0.09993 0.79724 0.12323 0.0
C6962 C 0.45158 0.84299 0.37499 0.0
C6963 C 0.44763 0.84571 0.36673 0.0
H6964 H 0.45973 0.84691 0.38645 0.0
C6965 C 0.44936 0.85446 0.36354 0.0
H6966 H 0.45045 0.83624 0.3776 0.0
C6967 C 0.45476 0.86038 0.36843 0.0
C6968 C 0.45841 0.85788 0.37684 0.0
H6969 H 0.44634 0.85689 0.35732 0.0
H6970 H 0.4559 0.86707 0.36567 0.0
C6971 C 0.45697 0.84903 0.38001 0.0
C6972 C 0.41085 0.19394 0.62739 0.0
C6973 C 0.41322 0.19643 0.61852 0.0
H6974 H 0.40296 0.19727 0.63913 0.0
C6975 C 0.41072 0.20503 0.61533 0.0
H6976 H 0.4126 0.18733 0.62999 0.0
C6977 C 0.40535 0.21073 0.6206 0.0
C6978 C 0.40238 0.20793 0.62915 0.0
H6979 H 0.41249 0.20714 0.60854 0.0
H6980 H 0.40292 0.21702 0.61772 0.0
C6981 C 0.40537 0.19963 0.63263 0.0
C6982 C 0.06418 0.1594 0.8773 0.0
C6983 C 0.06128 0.16265 0.86886 0.0
H6984 H 0.06111 0.15085 0.88862 0.0
C6985 C 0.05234 0.16095 0.86608 0.0
H6986 H 0.07107 0.16053 0.87956 0.0
C6987 C 0.0466 0.15559 0.87134 0.0
C6988 C 0.04975 0.15175 0.87942 0.0
H6989 H 0.04995 0.16337 0.85959 0.0
H6990 H 0.03996 0.15384 0.86875 0.0
C6991 C 0.05849 0.15391 0.8825 0.0
C6992 C 0.38902 0.09364 0.20398 0.0
C6993 C 0.3877 0.0938 0.19458 0.0
H6994 H 0.38557 0.09963 0.21673 0.0
C6995 C 0.38089 0.09927 0.19091 0.0
H6996 H 0.39436 0.08955 0.20689 0.0
C6997 C 0.37593 0.10504 0.19648 0.0
C6998 C 0.37772 0.10543 0.20581 0.0
H6999 H 0.37989 0.09958 0.18365 0.0
H7000 H 0.37114 0.10968 0.19341 0.0
C7001 C 0.38399 0.09937 0.20958 0.0
C7002 C 0.16294 0.13896 0.45367 0.0
C7003 C 0.16317 0.13715 0.44436 0.0
H7004 H 0.15679 0.13578 0.46641 0.0
C7005 C 0.15823 0.12984 0.44088 0.0
H7006 H 0.16661 0.14467 0.45643 0.0
C7007 C 0.15256 0.12483 0.44654 0.0
C7008 C 0.15182 0.12704 0.45576 0.0
H7009 H 0.15821 0.12846 0.43369 0.0
H7010 H 0.14828 0.11965 0.44361 0.0
C7011 C 0.15736 0.13386 0.45936 0.0
C7012 C 0.12688 0.90689 0.69153 0.0
C7013 C 0.11989 0.91216 0.69515 0.0
H7014 H 0.1369 0.89675 0.69409 0.0
C7015 C 0.11845 0.9122 0.70454 0.0
H7016 H 0.12798 0.90666 0.68429 0.0
C7017 C 0.12359 0.90657 0.71017 0.0
C7018 C 0.13009 0.90073 0.70644 0.0
H7019 H 0.11298 0.91613 0.70742 0.0
H7020 H 0.12196 0.90622 0.7173 0.0
C7021 C 0.13195 0.90122 0.69712 0.0
C7022 C 0.34454 0.86809 0.95375 0.0
C7023 C 0.34459 0.86949 0.94437 0.0
H7024 H 0.35061 0.87154 0.96648 0.0
C7025 C 0.34993 0.8764 0.9407 0.0
H7026 H 0.34056 0.86267 0.95666 0.0
C7027 C 0.35568 0.88142 0.94626 0.0
C7028 C 0.35617 0.87957 0.95557 0.0
H7029 H 0.35015 0.87746 0.93345 0.0
H7030 H 0.36022 0.8863 0.9432 0.0
C7031 C 0.35025 0.87317 0.95935 0.0
C7032 C 0.38983 0.91358 0.30177 0.0
C7033 C 0.38819 0.91365 0.31112 0.0
H7034 H 0.38629 0.90773 0.28895 0.0
C7035 C 0.38084 0.90879 0.3146 0.0
H7036 H 0.39558 0.91719 0.299 0.0
C7037 C 0.37557 0.90341 0.3089 0.0
C7038 C 0.3776 0.90279 0.29964 0.0
H7039 H 0.37957 0.90864 0.32182 0.0
H7040 H 0.37034 0.89919 0.31184 0.0
C7041 C 0.3845 0.90822 0.29603 0.0
C7042 C 0.34559 0.13959 0.55126 0.0
C7043 C 0.34457 0.13726 0.56041 0.0
H7044 H 0.35228 0.13665 0.53872 0.0
C7045 C 0.34862 0.12933 0.56366 0.0
H7046 H 0.34259 0.14575 0.54866 0.0
C7047 C 0.35422 0.1242 0.55803 0.0
C7048 C 0.35572 0.12686 0.54903 0.0
H7049 H 0.34804 0.1275 0.57073 0.0
H7050 H 0.35789 0.11853 0.56087 0.0
C7051 C 0.35106 0.13437 0.54558 0.0
C7052 C 0.11802 0.09391 0.8027 0.0
C7053 C 0.11937 0.09386 0.81209 0.0
H7054 H 0.12161 0.10007 0.79006 0.0
C7055 C 0.12627 0.09915 0.81587 0.0
H7056 H 0.11261 0.08997 0.79971 0.0
C7057 C 0.13132 0.10495 0.81042 0.0
C7058 C 0.12955 0.10552 0.8011 0.0
H7059 H 0.12729 0.0993 0.82313 0.0
H7060 H 0.13622 0.10942 0.81356 0.0
C7061 C 0.12316 0.09966 0.79721 0.0
C7062 C 0.15994 0.86414 0.05251 0.0
C7063 C 0.16304 0.86763 0.06079 0.0
H7064 H 0.15166 0.86634 0.04082 0.0
C7065 C 0.16123 0.87671 0.06296 0.0
H7066 H 0.16127 0.85718 0.05066 0.0
C7067 C 0.15571 0.88194 0.05731 0.0
C7068 C 0.15213 0.87819 0.04936 0.0
H7069 H 0.16346 0.87953 0.06934 0.0
H7070 H 0.15375 0.88867 0.05943 0.0
C7071 C 0.15453 0.86939 0.04684 0.0
C7072 C 0.19445 0.37974 0.09559 0.0
C7073 C 0.19651 0.38886 0.09384 0.0
H7074 H 0.19814 0.3678 0.10302 0.0
C7075 C 0.20478 0.39243 0.09691 0.0
H7076 H 0.18809 0.37687 0.09336 0.0
C7077 C 0.21053 0.38722 0.10227 0.0
C7078 C 0.2081 0.37838 0.10466 0.0
H7079 H 0.20653 0.39942 0.09562 0.0
H7080 H 0.21652 0.39034 0.10515 0.0
C7081 C 0.20019 0.37455 0.10107 0.0
C7082 C 0.69678 0.1269 0.91149 0.0
C7083 C 0.69734 0.11741 0.91155 0.0
H7084 H 0.70176 0.13923 0.90555 0.0
C7085 C 0.70446 0.11318 0.90689 0.0
H7086 H 0.6913 0.1303 0.91497 0.0
C7087 C 0.71044 0.11824 0.90166 0.0
C7088 C 0.70942 0.12764 0.90097 0.0
H7089 H 0.70506 0.10587 0.90686 0.0
H7090 H 0.71543 0.11474 0.89758 0.0
C7091 C 0.70276 0.132 0.90616 0.0
C7092 C 0.13179 0.4406 0.15674 0.0
C7093 C 0.13837 0.44439 0.16242 0.0
H7094 H 0.12215 0.44298 0.14621 0.0
C7095 C 0.13952 0.4538 0.16266 0.0
H7096 H 0.13093 0.43333 0.15638 0.0
C7097 C 0.1345 0.45934 0.15685 0.0
C7098 C 0.12842 0.45548 0.15064 0.0
H7099 H 0.14468 0.4568 0.16691 0.0
H7100 H 0.13589 0.46653 0.15671 0.0
C7101 C 0.12684 0.44611 0.15091 0.0
C7102 C 0.81159 0.87963 0.41124 0.0
C7103 C 0.81049 0.88906 0.41176 0.0
H7104 H 0.80711 0.86729 0.40494 0.0
C7105 C 0.80294 0.89305 0.40755 0.0
H7106 H 0.81739 0.87639 0.41435 0.0
C7107 C 0.79706 0.88786 0.40232 0.0
C7108 C 0.79858 0.87857 0.4012 0.0
H7109 H 0.80189 0.9003 0.40789 0.0
H7110 H 0.79171 0.89121 0.39858 0.0
C7111 C 0.80571 0.87442 0.40591 0.0
C7112 C 0.8657 0.05151 0.1599 0.0
C7113 C 0.8687 0.06028 0.16204 0.0
H7114 H 0.86823 0.03938 0.15235 0.0
C7115 C 0.87733 0.06305 0.15917 0.0
H7116 H 0.85908 0.04921 0.16205 0.0
C7117 C 0.88253 0.05744 0.15359 0.0
C7118 C 0.87924 0.04892 0.15098 0.0
H7119 H 0.87976 0.06981 0.16063 0.0
H7120 H 0.88883 0.05997 0.15084 0.0
C7121 C 0.87095 0.04586 0.15444 0.0
C7122 C 0.30646 0.62426 0.5929 0.0
C7123 C 0.31115 0.61661 0.59612 0.0
H7124 H 0.29787 0.63554 0.5963 0.0
C7125 C 0.31063 0.61447 0.60533 0.0
H7126 H 0.30674 0.62604 0.58581 0.0
C7127 C 0.30545 0.61964 0.61117 0.0
C7128 C 0.30088 0.62742 0.60813 0.0
H7129 H 0.31427 0.60874 0.60809 0.0
H7130 H 0.30506 0.61745 0.61814 0.0
C7131 C 0.30133 0.62962 0.59888 0.0
C7132 C 0.12905 0.56496 0.34775 0.0
C7133 C 0.13647 0.56137 0.34305 0.0
H7134 H 0.11859 0.56245 0.35747 0.0
C7135 C 0.13809 0.55202 0.34336 0.0
H7136 H 0.12777 0.57217 0.3477 0.0
C7137 C 0.13277 0.54643 0.34884 0.0
C7138 C 0.12588 0.55016 0.35423 0.0
H7139 H 0.14386 0.54916 0.33985 0.0
H7140 H 0.13462 0.53938 0.34954 0.0
C7141 C 0.1238 0.5594 0.35331 0.0
C7142 C 0.37773 0.44449 0.84591 0.0
C7143 C 0.36858 0.4465 0.84423 0.0
H7144 H 0.38978 0.44821 0.85316 0.0
C7145 C 0.36504 0.45477 0.84734 0.0
H7146 H 0.38061 0.43813 0.84368 0.0
C7147 C 0.37032 0.46056 0.85262 0.0
C7148 C 0.37922 0.45819 0.85489 0.0
H7149 H 0.35803 0.45654 0.84609 0.0
H7150 H 0.36723 0.46654 0.85552 0.0
C7151 C 0.38299 0.45026 0.85129 0.0
C7152 C 0.91143 0.81107 0.62468 0.0
C7153 C 0.91342 0.80836 0.61578 0.0
H7154 H 0.90376 0.8083 0.63671 0.0
C7155 C 0.91035 0.79987 0.61277 0.0
H7156 H 0.91361 0.81762 0.62715 0.0
C7157 C 0.90487 0.79451 0.61828 0.0
C7158 C 0.90233 0.79755 0.62689 0.0
H7159 H 0.91181 0.79759 0.60596 0.0
H7160 H 0.90205 0.78831 0.61557 0.0
C7161 C 0.90584 0.80574 0.63016 0.0
C7162 C 0.9436 0.15731 0.37333 0.0
C7163 C 0.94783 0.16351 0.36754 0.0
H7164 H 0.94527 0.14619 0.3824 0.0
C7165 C 0.95733 0.16391 0.36728 0.0
H7166 H 0.93628 0.15683 0.37355 0.0
C7167 C 0.96252 0.15774 0.3723 0.0
C7168 C 0.95824 0.15107 0.37756 0.0
H7169 H 0.9607 0.16856 0.36274 0.0
H7170 H 0.96981 0.15775 0.37153 0.0
C7171 C 0.94875 0.1512 0.37834 0.0
C7172 C 0.59489 0.19908 0.12461 0.0
C7173 C 0.59523 0.19922 0.11509 0.0
H7174 H 0.60088 0.2039 0.13698 0.0
C7175 C 0.601 0.20545 0.1108 0.0
H7176 H 0.59054 0.19432 0.12809 0.0
C7177 C 0.60684 0.21085 0.11585 0.0
C7178 C 0.60698 0.21024 0.1253 0.0
H7179 H 0.60131 0.20584 0.1035 0.0
H7180 H 0.61163 0.21516 0.11234 0.0
C7181 C 0.60077 0.20455 0.12969 0.0
C7182 C 0.55097 0.84538 0.86489 0.0
C7183 C 0.55994 0.84339 0.86737 0.0
H7184 H 0.53897 0.8529 0.86797 0.0
C7185 C 0.56324 0.84649 0.87573 0.0
H7186 H 0.5483 0.84308 0.85847 0.0
C7187 C 0.55793 0.85219 0.88112 0.0
C7188 C 0.54919 0.85466 0.87832 0.0
H7189 H 0.57016 0.84513 0.87773 0.0
H7190 H 0.56086 0.85516 0.88714 0.0
C7191 C 0.54562 0.85092 0.87036 0.0
C7192 C 0.91377 0.20588 0.88924 0.0
C7193 C 0.91323 0.19641 0.88873 0.0
H7194 H 0.90797 0.21851 0.88502 0.0
C7195 C 0.90741 0.19241 0.8824 0.0
H7196 H 0.91815 0.20907 0.89418 0.0
C7197 C 0.90171 0.19776 0.87714 0.0
C7198 C 0.9016 0.20721 0.87821 0.0
H7199 H 0.90686 0.18512 0.88197 0.0
H7200 H 0.89687 0.19446 0.87272 0.0
C7201 C 0.90798 0.21126 0.88399 0.0
C7202 C 0.56117 0.16051 0.63172 0.0
C7203 C 0.55885 0.16198 0.64083 0.0
H7204 H 0.558 0.15332 0.61948 0.0
C7205 C 0.55064 0.15847 0.64412 0.0
H7206 H 0.5675 0.16306 0.62904 0.0
C7207 C 0.54519 0.15306 0.63863 0.0
C7208 C 0.54785 0.15105 0.62976 0.0
H7209 H 0.54866 0.15953 0.65109 0.0
H7210 H 0.53923 0.1499 0.64152 0.0
C7211 C 0.55574 0.15499 0.62625 0.0
C7212 C 0.59713 0.81072 0.38195 0.0
C7213 C 0.59546 0.80836 0.39101 0.0
H7214 H 0.60454 0.80759 0.36983 0.0
C7215 C 0.59893 0.80015 0.39434 0.0
H7216 H 0.59462 0.81704 0.37923 0.0
C7217 C 0.60448 0.79474 0.38894 0.0
C7218 C 0.60665 0.79743 0.38013 0.0
H7219 H 0.59771 0.79813 0.40127 0.0
H7220 H 0.60757 0.78877 0.39186 0.0
C7221 C 0.60277 0.80532 0.37657 0.0
C7222 C 0.94236 0.84949 0.13188 0.0
C7223 C 0.94643 0.84368 0.13816 0.0
H7224 H 0.94434 0.86008 0.12223 0.0
C7225 C 0.9559 0.84319 0.13864 0.0
H7226 H 0.93505 0.85002 0.13149 0.0
C7227 C 0.96124 0.849 0.13338 0.0
C7228 C 0.95713 0.85539 0.12766 0.0
H7229 H 0.95914 0.83883 0.14355 0.0
H7230 H 0.96851 0.84904 0.13439 0.0
C7231 C 0.94767 0.85525 0.12661 0.0
C7232 C 0.62333 0.90488 0.81498 0.0
C7233 C 0.61793 0.91151 0.8109 0.0
H7234 H 0.63234 0.89375 0.81304 0.0
C7235 C 0.61818 0.91259 0.80148 0.0
H7236 H 0.62317 0.90392 0.82224 0.0
C7237 C 0.62334 0.90667 0.79616 0.0
C7238 C 0.62825 0.89959 0.80021 0.0
H7239 H 0.61396 0.91761 0.79822 0.0
H7240 H 0.62296 0.90724 0.78887 0.0
C7241 C 0.62851 0.89904 0.8097 0.0
C7242 C 0.84924 0.86239 0.55037 0.0
C7243 C 0.84565 0.86564 0.55855 0.0
H7244 H 0.85792 0.86503 0.53906 0.0
C7245 C 0.84717 0.87473 0.56095 0.0
H7246 H 0.84813 0.85545 0.54831 0.0
C7247 C 0.85277 0.88022 0.55562 0.0
C7248 C 0.85676 0.87674 0.54774 0.0
H7249 H 0.84456 0.8774 0.56725 0.0
H7250 H 0.85441 0.88698 0.55791 0.0
C7251 C 0.85475 0.86789 0.54502 0.0
C7252 C 0.89632 0.10324 0.30498 0.0
C7253 C 0.89326 0.09463 0.30757 0.0
H7254 H 0.89353 0.11552 0.29805 0.0
C7255 C 0.88461 0.09178 0.30464 0.0
H7256 H 0.9028 0.10582 0.30723 0.0
C7257 C 0.87908 0.09758 0.29948 0.0
C7258 C 0.88214 0.10629 0.29721 0.0
H7259 H 0.88207 0.08516 0.30645 0.0
H7260 H 0.87234 0.09541 0.29758 0.0
C7261 C 0.89092 0.10889 0.29978 0.0
C7262 C 0.66476 0.13983 0.05019 0.0
C7263 C 0.66443 0.13889 0.05963 0.0
H7264 H 0.65903 0.13573 0.03747 0.0
C7265 C 0.65916 0.13199 0.06344 0.0
H7266 H 0.66869 0.14521 0.04716 0.0
C7267 C 0.65377 0.12654 0.05795 0.0
C7268 C 0.65343 0.12798 0.04856 0.0
H7269 H 0.65875 0.13123 0.07072 0.0
H7270 H 0.64927 0.12169 0.06112 0.0
C7271 C 0.65929 0.13438 0.04467 0.0
C7272 C 0.61753 0.09347 0.70578 0.0
C7273 C 0.61835 0.09377 0.69633 0.0
H7274 H 0.62155 0.09943 0.71842 0.0
C7275 C 0.62495 0.09933 0.6924 0.0
H7276 H 0.61237 0.08931 0.70891 0.0
C7277 C 0.63021 0.10502 0.69779 0.0
C7278 C 0.62887 0.10535 0.70719 0.0
H7279 H 0.62561 0.09971 0.68512 0.0
H7280 H 0.63484 0.10968 0.69453 0.0
C7281 C 0.6228 0.09922 0.7112 0.0
C7282 C 0.6637 0.86704 0.45582 0.0
C7283 C 0.66329 0.86771 0.44636 0.0
H7284 H 0.65783 0.87115 0.46846 0.0
C7285 C 0.65762 0.8742 0.44241 0.0
H7286 H 0.66795 0.86197 0.45897 0.0
C7287 C 0.65194 0.87948 0.44778 0.0
C7288 C 0.65171 0.87826 0.45721 0.0
H7289 H 0.65715 0.87476 0.43512 0.0
H7290 H 0.64721 0.88402 0.44451 0.0
C7291 C 0.65795 0.87231 0.46123 0.0
C7292 C 0.8838 0.9066 0.19261 0.0
C7293 C 0.89012 0.91251 0.1965 0.0
H7294 H 0.87424 0.89598 0.19483 0.0
C7295 C 0.89075 0.9131 0.20595 0.0
H7296 H 0.88326 0.90601 0.18533 0.0
C7297 C 0.88562 0.90728 0.21144 0.0
C7298 C 0.87986 0.90082 0.20748 0.0
H7299 H 0.89567 0.91755 0.20906 0.0
H7300 H 0.88671 0.90733 0.21868 0.0
C7301 C 0.87867 0.90086 0.19805 0.0
C7302 C 0.84925 0.13203 0.94325 0.0
C7303 C 0.84439 0.13922 0.94706 0.0
H7304 H 0.85921 0.12173 0.94539 0.0
C7305 C 0.84488 0.14073 0.95643 0.0
H7306 H 0.84907 0.13087 0.93602 0.0
C7307 C 0.85062 0.13544 0.96182 0.0
C7308 C 0.85601 0.12869 0.95787 0.0
H7309 H 0.8413 0.14636 0.95945 0.0
H7310 H 0.85141 0.13714 0.9689 0.0
C7311 C 0.85502 0.12681 0.94861 0.0
C7312 C 0.81505 0.62361 0.90635 0.0
C7313 C 0.81123 0.61768 0.91268 0.0
H7314 H 0.81264 0.6331 0.89574 0.0
C7315 C 0.80181 0.61771 0.91402 0.0
H7316 H 0.82229 0.62367 0.90521 0.0
C7317 C 0.79623 0.62307 0.90851 0.0
C7318 C 0.80004 0.62842 0.90164 0.0
H7319 H 0.79875 0.61312 0.91883 0.0
H7320 H 0.78895 0.62245 0.90913 0.0
C7321 C 0.80952 0.62898 0.90094 0.0
C7322 C 0.30882 0.88116 0.09282 0.0
C7323 C 0.30915 0.89061 0.09393 0.0
H7324 H 0.30373 0.86855 0.09812 0.0
C7325 C 0.30345 0.8947 0.10034 0.0
H7326 H 0.31317 0.87785 0.08795 0.0
C7327 C 0.2981 0.88945 0.10602 0.0
C7328 C 0.29829 0.87999 0.10542 0.0
H7329 H 0.30349 0.90197 0.10128 0.0
H7330 H 0.29423 0.89277 0.11129 0.0
C7331 C 0.30343 0.87585 0.0986 0.0
C7332 C 0.87534 0.56148 0.84531 0.0
C7333 C 0.86646 0.55879 0.84313 0.0
H7334 H 0.88713 0.55883 0.85341 0.0
C7335 C 0.86318 0.55053 0.84655 0.0
H7336 H 0.87802 0.56784 0.84286 0.0
C7337 C 0.8684 0.5454 0.85251 0.0
C7338 C 0.87699 0.54842 0.85514 0.0
H7339 H 0.85641 0.54823 0.84492 0.0
H7340 H 0.86552 0.53935 0.85548 0.0
C7341 C 0.88054 0.55635 0.85134 0.0
C7342 C 0.20739 0.11813 0.59141 0.0
C7343 C 0.1979 0.11828 0.59194 0.0
H7344 H 0.2199 0.12267 0.59726 0.0
C7345 C 0.19368 0.12419 0.59803 0.0
H7346 H 0.21075 0.1135 0.58683 0.0
C7347 C 0.19886 0.12947 0.6039 0.0
C7348 C 0.20837 0.12881 0.60392 0.0
H7349 H 0.18637 0.12432 0.59862 0.0
H7350 H 0.1954 0.13361 0.60886 0.0
C7351 C 0.2126 0.1234 0.59734 0.0
C7352 C 0.14053 0.95629 0.84256 0.0
C7353 C 0.14038 0.94682 0.84317 0.0
H7354 H 0.13572 0.96882 0.84812 0.0
C7355 C 0.13437 0.94263 0.84917 0.0
H7356 H 0.14521 0.95962 0.83801 0.0
C7357 C 0.12897 0.94783 0.85489 0.0
C7358 C 0.12954 0.95733 0.85478 0.0
H7359 H 0.13424 0.93532 0.8498 0.0
H7360 H 0.12473 0.94441 0.85979 0.0
C7361 C 0.13508 0.96153 0.84829 0.0
C7362 C 0.70624 0.38949 0.41274 0.0
C7363 C 0.69678 0.38911 0.41195 0.0
H7364 H 0.71899 0.38523 0.40715 0.0
C7365 C 0.69284 0.38301 0.40585 0.0
H7366 H 0.70939 0.39424 0.41734 0.0
C7367 C 0.69826 0.37788 0.40011 0.0
C7368 C 0.70772 0.37882 0.40029 0.0
H7369 H 0.68555 0.38266 0.40512 0.0
H7370 H 0.69503 0.37362 0.39509 0.0
C7371 C 0.71171 0.38434 0.40693 0.0
C7372 C 0.87426 0.44282 0.65702 0.0
C7373 C 0.8676 0.4467 0.66254 0.0
H7374 H 0.88413 0.44498 0.64667 0.0
C7375 C 0.86661 0.45614 0.6627 0.0
H7376 H 0.87505 0.43554 0.65674 0.0
C7377 C 0.87179 0.46158 0.6569 0.0
C7378 C 0.87795 0.4576 0.65086 0.0
H7379 H 0.86139 0.45924 0.66682 0.0
H7380 H 0.87047 0.46878 0.65663 0.0
C7381 C 0.87942 0.44821 0.65127 0.0
C7382 C 0.64522 0.55664 0.15291 0.0
C7383 C 0.64232 0.55869 0.1617 0.0
H7384 H 0.64249 0.55008 0.14047 0.0
C7385 C 0.6338 0.55546 0.16458 0.0
H7386 H 0.6516 0.55915 0.15032 0.0
C7387 C 0.62827 0.55042 0.15866 0.0
C7388 C 0.6312 0.54861 0.14979 0.0
H7389 H 0.63139 0.55689 0.17134 0.0
H7390 H 0.62165 0.54819 0.1609 0.0
C7391 C 0.63986 0.55155 0.14716 0.0
C7392 C 0.59548 0.70525 0.88959 0.0
C7393 C 0.59463 0.69606 0.88734 0.0
H7394 H 0.60207 0.71785 0.88665 0.0
C7395 C 0.59896 0.69275 0.87959 0.0
H7396 H 0.59227 0.70789 0.89563 0.0
C7397 C 0.60462 0.69838 0.87455 0.0
C7398 C 0.60592 0.70745 0.87711 0.0
H7399 H 0.59851 0.68564 0.87784 0.0
H7400 H 0.60846 0.69553 0.86899 0.0
C7401 C 0.60103 0.71094 0.88445 0.0
C7402 C 0.56537 0.34744 0.13 0.0
C7403 C 0.56233 0.34399 0.13831 0.0
H7404 H 0.56246 0.35629 0.11887 0.0
C7405 C 0.55337 0.34565 0.14104 0.0
H7406 H 0.57228 0.34634 0.12781 0.0
C7407 C 0.54774 0.35119 0.13586 0.0
C7408 C 0.55104 0.35522 0.12795 0.0
H7409 H 0.5509 0.34307 0.14744 0.0
H7410 H 0.54106 0.35287 0.13839 0.0
C7411 C 0.55978 0.35311 0.12489 0.0
C7412 C 0.9111 0.31319 0.3804 0.0
C7413 C 0.91303 0.31088 0.38941 0.0
H7414 H 0.90355 0.30979 0.36845 0.0
C7415 C 0.90997 0.30254 0.39282 0.0
H7416 H 0.9133 0.3196 0.37763 0.0
C7417 C 0.9045 0.29694 0.38755 0.0
C7418 C 0.90202 0.29959 0.37881 0.0
H7419 H 0.91142 0.30058 0.39972 0.0
H7420 H 0.90171 0.29085 0.39052 0.0
C7421 C 0.90555 0.3076 0.37515 0.0
C7422 C 0.95333 0.65656 0.64387 0.0
C7423 C 0.94628 0.66135 0.63966 0.0
H7424 H 0.96416 0.6471 0.64226 0.0
C7425 C 0.94567 0.6613 0.63017 0.0
H7426 H 0.95399 0.65655 0.65117 0.0
C7427 C 0.95156 0.65588 0.62506 0.0
C7428 C 0.95814 0.6506 0.6294 0.0
H7429 H 0.94026 0.6649 0.62678 0.0
H7430 H 0.95058 0.65536 0.61782 0.0
C7431 C 0.95918 0.65122 0.6388 0.0
C7432 C 0.59439 0.30143 0.61739 0.0
C7433 C 0.59353 0.31062 0.61961 0.0
H7434 H 0.6007 0.28877 0.62062 0.0
C7435 C 0.59741 0.31385 0.62764 0.0
H7436 H 0.59153 0.29885 0.61115 0.0
C7437 C 0.6027 0.30812 0.633 0.0
C7438 C 0.60407 0.29907 0.63045 0.0
H7439 H 0.59695 0.32095 0.62939 0.0
H7440 H 0.60629 0.31094 0.63874 0.0
C7441 C 0.59956 0.29566 0.62283 0.0
C7442 C 0.95312 0.34199 0.87039 0.0
C7443 C 0.94421 0.34465 0.86856 0.0
H7444 H 0.9658 0.34564 0.87627 0.0
C7445 C 0.94078 0.35256 0.87245 0.0
H7446 H 0.95585 0.3359 0.86739 0.0
C7447 C 0.94632 0.35801 0.87778 0.0
C7448 C 0.95555 0.35587 0.879 0.0
H7449 H 0.93389 0.35468 0.8711 0.0
H7450 H 0.94341 0.36408 0.88063 0.0
C7451 C 0.95878 0.34758 0.87554 0.0
C7452 C 0.90922 0.69264 0.12722 0.0
C7453 C 0.91335 0.69595 0.11935 0.0
H7454 H 0.89994 0.69541 0.13802 0.0
C7455 C 0.91247 0.70515 0.11716 0.0
H7456 H 0.9097 0.68553 0.12894 0.0
C7457 C 0.90706 0.71083 0.12244 0.0
C7458 C 0.9023 0.70734 0.12988 0.0
H7459 H 0.91553 0.7078 0.11105 0.0
H7460 H 0.90594 0.71774 0.12025 0.0
C7461 C 0.90368 0.69828 0.13241 0.0
C7462 C 0.56291 0.66048 0.37721 0.0
C7463 C 0.5607 0.66247 0.36818 0.0
H7464 H 0.55937 0.6529 0.38909 0.0
C7465 C 0.55229 0.65958 0.36476 0.0
H7466 H 0.56937 0.66254 0.38 0.0
C7467 C 0.54655 0.65422 0.36999 0.0
C7468 C 0.54911 0.65163 0.37874 0.0
H7469 H 0.55039 0.66105 0.35784 0.0
H7470 H 0.54045 0.6515 0.36696 0.0
C7471 C 0.55719 0.65501 0.38243 0.0
C7472 C 0.88977 0.59373 0.7038 0.0
C7473 C 0.88851 0.59385 0.69439 0.0
H7474 H 0.8862 0.59978 0.7165 0.0
C7475 C 0.88178 0.59936 0.69063 0.0
H7476 H 0.89504 0.58961 0.70677 0.0
C7477 C 0.87681 0.60518 0.69613 0.0
C7478 C 0.8785 0.60558 0.70547 0.0
H7479 H 0.88083 0.59963 0.68337 0.0
H7480 H 0.87204 0.6098 0.69301 0.0
C7481 C 0.88472 0.59952 0.70933 0.0
C7482 C 0.66345 0.63937 0.95404 0.0
C7483 C 0.66388 0.6376 0.94472 0.0
H7484 H 0.65703 0.6361 0.96663 0.0
C7485 C 0.65911 0.63024 0.94113 0.0
H7486 H 0.66697 0.64514 0.95687 0.0
C7487 C 0.65339 0.62515 0.94665 0.0
C7488 C 0.65241 0.62734 0.95585 0.0
H7489 H 0.65924 0.62889 0.93393 0.0
H7490 H 0.6492 0.61995 0.94362 0.0
C7491 C 0.6578 0.6342 0.9596 0.0
C7492 C 0.62522 0.41303 0.20022 0.0
C7493 C 0.61672 0.41026 0.19687 0.0
H7494 H 0.63709 0.40929 0.20786 0.0
C7495 C 0.61352 0.40161 0.19913 0.0
H7496 H 0.62785 0.41968 0.19862 0.0
C7497 C 0.61865 0.39585 0.20448 0.0
C7498 C 0.62727 0.39841 0.20756 0.0
H7499 H 0.60712 0.39913 0.19655 0.0
H7500 H 0.61592 0.38922 0.20601 0.0
C7501 C 0.63046 0.40715 0.20557 0.0
C7502 C 0.84639 0.36617 0.45502 0.0
C7503 C 0.84455 0.36901 0.44614 0.0
H7504 H 0.8537 0.36879 0.46728 0.0
C7505 C 0.84768 0.37751 0.44327 0.0
H7506 H 0.84406 0.35964 0.45738 0.0
C7507 C 0.85323 0.3827 0.44892 0.0
C7508 C 0.85555 0.37956 0.45757 0.0
H7509 H 0.84644 0.37981 0.43643 0.0
H7510 H 0.85622 0.38886 0.44631 0.0
C7511 C 0.85182 0.37143 0.46071 0.0
C7512 C 0.88841 0.41355 0.80155 0.0
C7513 C 0.88746 0.41316 0.811 0.0
H7514 H 0.88486 0.40755 0.78879 0.0
C7515 C 0.88122 0.4071 0.81477 0.0
H7516 H 0.89331 0.41808 0.79853 0.0
C7517 C 0.87643 0.40112 0.80926 0.0
C7518 C 0.87784 0.40101 0.79985 0.0
H7519 H 0.88049 0.4066 0.82205 0.0
H7520 H 0.87202 0.39618 0.81241 0.0
C7521 C 0.88358 0.40754 0.796 0.0
C7522 C 0.8502 0.64342 0.05251 0.0
C7523 C 0.84591 0.63945 0.06001 0.0
H7524 H 0.85923 0.64154 0.04134 0.0
C7525 C 0.84638 0.63001 0.06111 0.0
H7526 H 0.84989 0.65066 0.05143 0.0
C7527 C 0.8517 0.62478 0.05525 0.0
C7528 C 0.85647 0.62892 0.04816 0.0
H7529 H 0.8432 0.62678 0.06686 0.0
H7530 H 0.85258 0.61764 0.05661 0.0
C7531 C 0.85546 0.63821 0.04667 0.0
C7532 C 0.61851 0.594 0.30173 0.0
C7533 C 0.61983 0.59408 0.31113 0.0
H7534 H 0.62206 0.60004 0.289 0.0
C7535 C 0.62668 0.59949 0.31483 0.0
H7536 H 0.61315 0.58996 0.29878 0.0
C7537 C 0.63171 0.60524 0.3093 0.0
C7538 C 0.62996 0.60569 0.29996 0.0
H7539 H 0.62769 0.59974 0.32209 0.0
H7540 H 0.63655 0.6098 0.3124 0.0
C7541 C 0.62361 0.59973 0.29615 0.0
C7542 C 0.66335 0.36788 0.55128 0.0
C7543 C 0.66418 0.3701 0.56048 0.0
H7544 H 0.65658 0.37065 0.53873 0.0
C7545 C 0.65953 0.37764 0.56387 0.0
H7546 H 0.66678 0.362 0.54857 0.0
C7547 C 0.65362 0.38249 0.55829 0.0
C7548 C 0.65238 0.37996 0.54921 0.0
H7549 H 0.65994 0.37935 0.57098 0.0
H7550 H 0.64958 0.38787 0.56121 0.0
C7551 C 0.65756 0.37284 0.54565 0.0
C7552 C 0.70016 0.89267 0.60372 0.0
C7553 C 0.69716 0.88963 0.59523 0.0
H7554 H 0.70752 0.88977 0.61573 0.0
C7555 C 0.69981 0.88093 0.59231 0.0
H7556 H 0.69813 0.89917 0.6064 0.0
C7557 C 0.70511 0.87533 0.59792 0.0
C7558 C 0.70779 0.8784 0.60649 0.0
H7559 H 0.69768 0.87839 0.58578 0.0
H7560 H 0.70679 0.86855 0.59572 0.0
C7561 C 0.7055 0.88721 0.60917 0.0
C7562 C 0.19548 0.62664 0.41029 0.0
C7563 C 0.19691 0.61727 0.41121 0.0
H7564 H 0.19976 0.6389 0.40373 0.0
C7565 C 0.20471 0.61341 0.40736 0.0
H7566 H 0.1895 0.62978 0.41312 0.0
C7567 C 0.21054 0.61861 0.40209 0.0
C7568 C 0.20874 0.62779 0.40061 0.0
H7569 H 0.20605 0.60624 0.40805 0.0
H7570 H 0.21614 0.61533 0.39866 0.0
C7571 C 0.20134 0.63185 0.40496 0.0
C7572 C 0.63066 0.9425 0.65829 0.0
C7573 C 0.63848 0.94577 0.66256 0.0
H7574 H 0.62 0.94533 0.64885 0.0
C7575 C 0.64079 0.95494 0.66167 0.0
H7576 H 0.62885 0.93542 0.65878 0.0
C7577 C 0.63565 0.96065 0.65613 0.0
C7578 C 0.62825 0.9572 0.65128 0.0
H7579 H 0.64688 0.95754 0.66483 0.0
H7580 H 0.6379 0.96754 0.65505 0.0
C7581 C 0.62561 0.94816 0.65264 0.0
C7582 C 0.31153 0.38004 0.91084 0.0
C7583 C 0.31011 0.38941 0.91168 0.0
H7584 H 0.3073 0.36776 0.90429 0.0
C7585 C 0.30231 0.39326 0.90782 0.0
H7586 H 0.31752 0.37692 0.91368 0.0
C7587 C 0.29647 0.38803 0.90257 0.0
C7588 C 0.2983 0.37885 0.90112 0.0
H7589 H 0.30101 0.40044 0.90843 0.0
H7590 H 0.29091 0.3913 0.89908 0.0
C7591 C 0.30569 0.3748 0.90551 0.0
C7592 C 0.36756 0.55282 0.66231 0.0
C7593 C 0.36913 0.56218 0.66254 0.0
H7594 H 0.37099 0.54018 0.65605 0.0
C7595 C 0.37627 0.56586 0.65751 0.0
H7596 H 0.36196 0.54992 0.66605 0.0
C7597 C 0.38135 0.56035 0.65177 0.0
C7598 C 0.37936 0.55109 0.65101 0.0
H7599 H 0.37747 0.57309 0.6575 0.0
H7600 H 0.38642 0.56343 0.64746 0.0
C7601 C 0.37271 0.54728 0.65662 0.0
C7602 C 0.80364 0.11267 0.10055 0.0
C7603 C 0.8104 0.11678 0.09528 0.0
H7604 H 0.79306 0.11451 0.11027 0.0
C7605 C 0.81066 0.12629 0.09476 0.0
H7606 H 0.80318 0.10537 0.10101 0.0
C7607 C 0.80476 0.13154 0.10005 0.0
C7608 C 0.79847 0.12734 0.10579 0.0
H7609 H 0.81582 0.12964 0.09079 0.0
H7610 H 0.80553 0.13882 0.10013 0.0
C7611 C 0.79776 0.11788 0.10576 0.0
C7612 C 0.63295 0.05663 0.8435 0.0
C7613 C 0.64125 0.06037 0.84638 0.0
H7614 H 0.62129 0.04863 0.84715 0.0
C7615 C 0.64424 0.05856 0.8552 0.0
H7616 H 0.63048 0.05787 0.83672 0.0
C7617 C 0.63917 0.05321 0.86099 0.0
C7618 C 0.63075 0.04968 0.8583 0.0
H7619 H 0.65048 0.06145 0.85775 0.0
H7620 H 0.64182 0.05197 0.86771 0.0
C7621 C 0.62774 0.05127 0.84942 0.0
C7622 C 0.87752 0.94172 0.34899 0.0
C7623 C 0.87029 0.94519 0.34393 0.0
H7624 H 0.8876 0.94444 0.35906 0.0
C7625 C 0.8685 0.95452 0.34415 0.0
H7626 H 0.87889 0.93452 0.34903 0.0
C7627 C 0.87355 0.96022 0.34979 0.0
C7628 C 0.88032 0.95661 0.35539 0.0
H7629 H 0.86283 0.95727 0.34041 0.0
H7630 H 0.87165 0.96727 0.35035 0.0
C7631 C 0.88248 0.94738 0.3547 0.0
C7632 C 0.41051 0.31305 0.12514 0.0
C7633 C 0.41579 0.30912 0.11831 0.0
H7634 H 0.4003 0.31099 0.13518 0.0
C7635 C 0.41571 0.29969 0.11722 0.0
H7636 H 0.41038 0.32032 0.12599 0.0
C7637 C 0.40992 0.29431 0.12248 0.0
C7638 C 0.40412 0.29835 0.12884 0.0
H7639 H 0.41961 0.29656 0.11186 0.0
H7640 H 0.40941 0.28715 0.12105 0.0
C7641 C 0.40477 0.30771 0.13039 0.0
C7642 C 0.44273 0.65744 0.87498 0.0
C7643 C 0.44685 0.66362 0.86908 0.0
H7644 H 0.4446 0.64635 0.88406 0.0
C7645 C 0.45633 0.66413 0.86874 0.0
H7646 H 0.43542 0.65689 0.87527 0.0
C7647 C 0.46162 0.65801 0.87371 0.0
C7648 C 0.45746 0.6513 0.87903 0.0
H7649 H 0.45962 0.66877 0.86413 0.0
H7650 H 0.4689 0.65805 0.8728 0.0
C7651 C 0.44799 0.6514 0.87997 0.0
C7652 C 0.09941 0.69322 0.62451 0.0
C7653 C 0.09355 0.69722 0.61822 0.0
H7654 H 0.1102 0.69519 0.63394 0.0
C7655 C 0.09324 0.70669 0.61755 0.0
H7656 H 0.09979 0.68592 0.62508 0.0
C7657 C 0.09927 0.71204 0.62259 0.0
C7658 C 0.10567 0.70794 0.62832 0.0
H7659 H 0.08885 0.7099 0.61264 0.0
H7660 H 0.09944 0.71927 0.62144 0.0
C7661 C 0.10536 0.69852 0.62956 0.0
C7662 C 0.06454 0.34968 0.37347 0.0
C7663 C 0.0604 0.34385 0.36724 0.0
H7664 H 0.06272 0.36032 0.38308 0.0
C7665 C 0.05091 0.34345 0.36681 0.0
H7666 H 0.07186 0.35015 0.37381 0.0
C7667 C 0.04564 0.34931 0.37209 0.0
C7668 C 0.04983 0.35569 0.37777 0.0
H7669 H 0.04762 0.33907 0.36194 0.0
H7670 H 0.03837 0.34938 0.37114 0.0
C7671 C 0.05931 0.35549 0.37873 0.0
C7672 C 0.40738 0.69099 0.38398 0.0
C7673 C 0.41321 0.69527 0.39011 0.0
H7674 H 0.3967 0.6926 0.37436 0.0
C7675 C 0.41356 0.70474 0.39043 0.0
H7676 H 0.40697 0.68367 0.38372 0.0
C7677 C 0.40763 0.70988 0.38511 0.0
C7678 C 0.40128 0.70554 0.37951 0.0
H7679 H 0.41794 0.70813 0.39523 0.0
H7680 H 0.40754 0.71716 0.3859 0.0
C7681 C 0.40149 0.69608 0.37869 0.0
C7682 C 0.05501 0.6655 0.13326 0.0
C7683 C 0.05911 0.66256 0.14135 0.0
H7684 H 0.04705 0.66175 0.12162 0.0
C7685 C 0.05818 0.65347 0.1439 0.0
H7686 H 0.0556 0.67248 0.13115 0.0
C7687 C 0.05323 0.64749 0.13864 0.0
C7688 C 0.04925 0.65027 0.13045 0.0
H7689 H 0.06137 0.65091 0.14998 0.0
H7690 H 0.05255 0.64061 0.14104 0.0
C7691 C 0.05007 0.65939 0.12786 0.0
C7692 C 0.09579 0.30001 0.89172 0.0
C7693 C 0.09482 0.30928 0.88994 0.0
H7694 H 0.10258 0.28767 0.88815 0.0
C7695 C 0.09918 0.31307 0.88242 0.0
H7696 H 0.09258 0.29702 0.89758 0.0
C7697 C 0.10495 0.30779 0.87712 0.0
C7698 C 0.10635 0.29863 0.87922 0.0
H7699 H 0.09864 0.32025 0.88104 0.0
H7700 H 0.10877 0.31098 0.87174 0.0
C7701 C 0.10146 0.29468 0.88632 0.0
C7702 C 0.44742 0.34429 0.63168 0.0
C7703 C 0.44876 0.34417 0.6411 0.0
H7704 H 0.45152 0.35012 0.61899 0.0
C7705 C 0.4563 0.34869 0.64474 0.0
H7706 H 0.44162 0.34093 0.62871 0.0
C7707 C 0.46198 0.35377 0.63919 0.0
C7708 C 0.46026 0.35444 0.6299 0.0
H7709 H 0.45754 0.34867 0.65196 0.0
H7710 H 0.46735 0.35772 0.64226 0.0
C7711 C 0.45309 0.34948 0.62612 0.0
C7712 C 0.11681 0.41266 0.30037 0.0
C7713 C 0.11774 0.41262 0.30982 0.0
H7714 H 0.12076 0.40643 0.28784 0.0
C7715 C 0.12439 0.40719 0.31382 0.0
H7716 H 0.1116 0.41672 0.29719 0.0
C7717 C 0.12959 0.40137 0.30854 0.0
C7718 C 0.12818 0.40082 0.29916 0.0
H7719 H 0.12513 0.407 0.32111 0.0
H7720 H 0.13429 0.39682 0.31186 0.0
C7721 C 0.12204 0.4068 0.29505 0.0
C7722 C 0.34483 0.36504 0.04936 0.0
C7723 C 0.34262 0.36763 0.05824 0.0
H7724 H 0.35255 0.36803 0.03746 0.0
C7725 C 0.34568 0.37602 0.06149 0.0
H7726 H 0.34258 0.35859 0.04671 0.0
C7727 C 0.35144 0.38138 0.05622 0.0
C7728 C 0.35402 0.37853 0.04753 0.0
H7729 H 0.34418 0.37811 0.06835 0.0
H7730 H 0.35432 0.38746 0.05911 0.0
C7731 C 0.35045 0.37047 0.04404 0.0
C7732 C 0.39653 0.59992 0.80151 0.0
C7733 C 0.39268 0.59439 0.80821 0.0
H7734 H 0.39422 0.60983 0.79123 0.0
C7735 C 0.38319 0.59363 0.80868 0.0
H7736 H 0.40381 0.60056 0.80091 0.0
C7737 C 0.37768 0.59891 0.80304 0.0
C7738 C 0.38162 0.60491 0.79682 0.0
H7739 H 0.38005 0.58946 0.81382 0.0
H7740 H 0.3704 0.59879 0.80396 0.0
C7741 C 0.39106 0.60514 0.7959 0.0
C7742 C 0.16268 0.64265 0.54967 0.0
C7743 C 0.16448 0.64031 0.5587 0.0
H7744 H 0.15549 0.63927 0.53752 0.0
C7745 C 0.16126 0.63205 0.56209 0.0
H7746 H 0.16503 0.64904 0.54697 0.0
C7747 C 0.15574 0.62654 0.55674 0.0
C7748 C 0.15354 0.62913 0.54787 0.0
H7749 H 0.16244 0.63021 0.56908 0.0
H7750 H 0.15271 0.62057 0.5597 0.0
C7751 C 0.1573 0.63705 0.54426 0.0
C7752 C 0.11837 0.59193 0.20605 0.0
C7753 C 0.11857 0.59275 0.19659 0.0
H7754 H 0.12281 0.5975 0.21874 0.0
C7755 C 0.12453 0.59895 0.1926 0.0
H7756 H 0.11374 0.58724 0.20925 0.0
C7757 C 0.12975 0.60468 0.19796 0.0
C7758 C 0.129 0.60447 0.20744 0.0
H7759 H 0.12475 0.59971 0.18532 0.0
H7760 H 0.13395 0.60971 0.19467 0.0
C7761 C 0.12357 0.59777 0.21146 0.0
C7762 C 0.16058 0.37505 0.94449 0.0
C7763 C 0.16354 0.36659 0.94763 0.0
H7764 H 0.15207 0.38655 0.94703 0.0
C7765 C 0.16135 0.36393 0.95649 0.0
H7766 H 0.16208 0.3772 0.93765 0.0
C7767 C 0.15581 0.36935 0.96189 0.0
C7768 C 0.15229 0.37747 0.95849 0.0
H7769 H 0.16353 0.35742 0.95905 0.0
H7770 H 0.1537 0.36687 0.96845 0.0
C7771 C 0.1549 0.38041 0.94985 0.0
C7772 C 0.38441 0.41384 0.70263 0.0
C7773 C 0.39219 0.41108 0.69785 0.0
H7774 H 0.37322 0.40977 0.71105 0.0
C7775 C 0.39463 0.40192 0.69807 0.0
H7776 H 0.38237 0.42087 0.70262 0.0
C7777 C 0.38966 0.39572 0.70305 0.0
C7778 C 0.38175 0.39831 0.7077 0.0
H7779 H 0.40045 0.39946 0.69435 0.0
H7780 H 0.39213 0.38883 0.70324 0.0
C7781 C 0.37923 0.4075 0.70753 0.0
C7782 C 0.34974 0.64493 0.45557 0.0
C7783 C 0.34542 0.64129 0.44791 0.0
H7784 H 0.35899 0.64262 0.46648 0.0
C7785 C 0.34613 0.63195 0.44623 0.0
H7786 H 0.34926 0.65208 0.45708 0.0
C7787 C 0.3517 0.62653 0.45167 0.0
C7788 C 0.35646 0.63035 0.45894 0.0
H7789 H 0.34294 0.62898 0.44034 0.0
H7790 H 0.35275 0.61951 0.44986 0.0
C7791 C 0.35522 0.63952 0.46101 0.0
C7792 C 0.31445 0.12459 0.40855 0.0
C7793 C 0.31056 0.11763 0.41367 0.0
H7794 H 0.31226 0.13487 0.39859 0.0
C7795 C 0.30113 0.11651 0.41366 0.0
H7796 H 0.32174 0.12545 0.40837 0.0
C7797 C 0.29569 0.12193 0.40811 0.0
C7798 C 0.29967 0.12843 0.40244 0.0
H7799 H 0.29805 0.11105 0.41745 0.0
H7800 H 0.2885 0.12052 0.40766 0.0
C7801 C 0.30904 0.12996 0.40299 0.0
C7802 C 0.81587 0.38458 0.6 0.0
C7803 C 0.81159 0.39039 0.59386 0.0
H7804 H 0.81423 0.37523 0.61089 0.0
C7805 C 0.80211 0.39042 0.59325 0.0
H7806 H 0.82319 0.38455 0.60061 0.0
C7807 C 0.79695 0.38514 0.5992 0.0
C7808 C 0.80125 0.37987 0.60584 0.0
H7809 H 0.79871 0.39497 0.58862 0.0
H7810 H 0.78964 0.38572 0.59904 0.0
C7811 C 0.81075 0.37932 0.6059 0.0
C7812 C 0.36835 0.05048 0.34297 0.0
C7813 C 0.36855 0.05995 0.34368 0.0
H7814 H 0.37255 0.03785 0.34883 0.0
C7815 C 0.37429 0.064 0.35005 0.0
H7816 H 0.36388 0.04723 0.33815 0.0
C7817 C 0.37926 0.0587 0.35605 0.0
C7818 C 0.37848 0.04922 0.35592 0.0
H7819 H 0.37452 0.07129 0.35073 0.0
H7820 H 0.3833 0.06205 0.36118 0.0
C7821 C 0.3733 0.04513 0.34906 0.0
C7822 C 0.69985 0.6248 0.09446 0.0
C7823 C 0.69919 0.61535 0.09542 0.0
H7824 H 0.70531 0.63717 0.09993 0.0
C7825 C 0.7046 0.61102 0.10194 0.0
H7826 H 0.69576 0.62832 0.08951 0.0
C7827 C 0.70995 0.61604 0.10784 0.0
C7828 C 0.71012 0.6255 0.10733 0.0
H7829 H 0.70441 0.60374 0.10272 0.0
H7830 H 0.71366 0.61253 0.1131 0.0
C7831 C 0.7053 0.62986 0.1004 0.0
C7832 C 0.6408 0.45639 0.34359 0.0
C7833 C 0.63977 0.44695 0.34368 0.0
H7834 H 0.63695 0.46901 0.3497 0.0
C7835 C 0.63299 0.44307 0.34906 0.0
H7836 H 0.64611 0.45948 0.33958 0.0
C7837 C 0.62776 0.44847 0.35476 0.0
C7838 C 0.62928 0.45784 0.35527 0.0
H7839 H 0.63217 0.43579 0.3493 0.0
H7840 H 0.623 0.44523 0.3593 0.0
C7841 C 0.63555 0.46183 0.34933 0.0
C7842 C 0.2051 0.89451 0.90677 0.0
C7843 C 0.19897 0.89033 0.9127 0.0
H7844 H 0.21476 0.89278 0.89615 0.0
C7845 C 0.1989 0.88083 0.9133 0.0
H7846 H 0.20536 0.90181 0.9062 0.0
C7847 C 0.20435 0.87561 0.90749 0.0
C7848 C 0.20998 0.87988 0.90114 0.0
H7849 H 0.1942 0.87744 0.91779 0.0
H7850 H 0.20373 0.86831 0.90755 0.0
C7851 C 0.21053 0.88935 0.90107 0.0
C7852 C 0.36335 0.95678 0.1603 0.0
C7853 C 0.3664 0.94828 0.16328 0.0
H7854 H 0.3662 0.9685 0.15225 0.0
C7855 C 0.37538 0.9457 0.16146 0.0
H7856 H 0.35648 0.95896 0.16164 0.0
C7857 C 0.38093 0.95118 0.15609 0.0
C7858 C 0.37764 0.95938 0.15265 0.0
H7859 H 0.37787 0.93915 0.16358 0.0
H7860 H 0.38755 0.94873 0.15411 0.0
C7861 C 0.36893 0.96229 0.15504 0.0
C7862 C 0.14476 0.05753 0.65291 0.0
C7863 C 0.14215 0.05851 0.66197 0.0
H7864 H 0.14206 0.0518 0.64006 0.0
C7865 C 0.13405 0.05437 0.66486 0.0
H7866 H 0.15084 0.06074 0.65035 0.0
C7867 C 0.12869 0.0494 0.65873 0.0
C7868 C 0.13136 0.04855 0.64963 0.0
H7869 H 0.13187 0.05497 0.67182 0.0
H7870 H 0.12242 0.0464 0.66105 0.0
C7871 C 0.13958 0.05251 0.64692 0.0
loop_
_geom_bond_atom_site_label_1
_geom_bond_atom_site_label_2
_geom_bond_distance
_geom_bond_site_symmetry_2
_ccdc_geom_bond_type
C0 C1 1.264 . S
C0 C5 1.479 . S
C0 C10 1.465 . S
C1 C0 1.264 . S
C1 C3 1.339 . S
C1 H28 0.931 . S
C2 C3 1.395 . S
C2 C4 1.320 . S
C3 C1 1.339 . S
C3 C2 1.395 . S
C3 H29 0.929 . S
C4 C2 1.320 . S
C4 C5 1.405 . S
C4 H30 0.930 . S
C5 C0 1.479 . S
C5 C4 1.405 . S
C5 H31 0.931 . S
U6 O7 2.454 . S
U6 O8 2.458 . S
U6 C9 2.984 . S
U6 C10 2.847 . S
U6 C23 2.882 . S
U6 O24 2.441 . S
U6 O25 2.420 . S
U6 O26 2.455 . S
U6 O27 2.449 . S
O7 U6 2.454 . S
O7 C9 1.353 . S
O8 U6 2.458 . S
O8 C9 1.286 . S
C9 U6 2.984 . S
C9 O7 1.353 . S
C9 O8 1.286 . S
C9 C11 1.363 . S
C10 C0 1.465 . S
C10 U6 2.847 . S
C10 O24 1.249 . S
C10 O25 1.202 . S
C11 C9 1.363 . S
C11 C13 1.408 . S
C11 C16 1.342 . S
C12 C13 1.310 . S
C12 C15 1.461 . S
C12 H32 0.932 . S
C13 C11 1.408 . S
C13 C12 1.310 . S
C13 H33 0.930 . S
C14 C15 1.474 . S
C14 C16 1.285 . S
C14 H34 0.929 . S
C15 C12 1.461 . S
C15 C14 1.474 . S
C16 C11 1.342 . S
C16 C14 1.285 . S
C16 H35 0.930 . S
C17 C20 1.424 . S
C17 C22 1.245 . S
C17 C23 1.428 . S
C18 C21 1.260 . S
C18 C22 1.477 . S
C18 H36 0.932 . S
C19 C20 1.384 . S
C19 C21 1.479 . S
C19 H37 0.929 . S
C20 C17 1.424 . S
C20 C19 1.384 . S
C20 H38 0.928 . S
C21 C18 1.260 . S
C21 C19 1.479 . S
C22 C17 1.245 . S
C22 C18 1.477 . S
C22 H39 0.932 . S
C23 U6 2.882 . S
C23 C17 1.428 . S
C23 O26 1.301 . S
C23 O27 1.282 . S
O24 U6 2.441 . S
O24 C10 1.249 . S
O25 U6 2.420 . S
O25 C10 1.202 . S
O26 U6 2.455 . S
O26 C23 1.301 . S
O27 U6 2.449 . S
O27 C23 1.282 . S
H28 C1 0.931 . S
H29 C3 0.929 . S
H30 C4 0.930 . S
H31 C5 0.931 . S
H32 C12 0.932 . S
H33 C13 0.930 . S
H34 C14 0.929 . S
H35 C16 0.930 . S
H36 C18 0.932 . S
H37 C19 0.929 . S
H38 C20 0.928 . S
H39 C22 0.932 . S
C40 C41 1.264 . S
C40 C45 1.479 . S
C40 C50 1.465 . S
C41 C40 1.264 . S
C41 C43 1.339 . S
C41 H68 0.931 . S
C42 C43 1.395 . S
C42 C44 1.320 . S
C43 C41 1.339 . S
C43 C42 1.395 . S
C43 H69 0.929 . S
C44 C42 1.320 . S
C44 C45 1.405 . S
C44 H70 0.930 . S
C45 C40 1.479 . S
C45 C44 1.405 . S
C45 H71 0.931 . S
U46 O47 2.454 . S
U46 O48 2.458 . S
U46 C49 2.984 . S
U46 C50 2.847 . S
U46 C63 2.882 . S
U46 O64 2.441 . S
U46 O65 2.420 . S
U46 O66 2.455 . S
U46 O67 2.449 . S
O47 U46 2.454 . S
O47 C49 1.353 . S
O48 U46 2.458 . S
O48 C49 1.286 . S
C49 U46 2.984 . S
C49 O47 1.353 . S
C49 O48 1.286 . S
C49 C51 1.363 . S
C50 C40 1.465 . S
C50 U46 2.847 . S
C50 O64 1.249 . S
C50 O65 1.202 . S
C51 C49 1.363 . S
C51 C53 1.408 . S
C51 C56 1.342 . S
C52 C53 1.310 . S
C52 C55 1.461 . S
C52 H72 0.932 . S
C53 C51 1.408 . S
C53 C52 1.310 . S
C53 H73 0.930 . S
C54 C55 1.474 . S
C54 C56 1.285 . S
C54 H74 0.929 . S
C55 C52 1.461 . S
C55 C54 1.474 . S
C56 C51 1.342 . S
C56 C54 1.285 . S
C56 H75 0.930 . S
C57 C60 1.424 . S
C57 C62 1.245 . S
C57 C63 1.428 . S
C58 C61 1.260 . S
C58 C62 1.477 . S
C58 H76 0.932 . S
C59 C60 1.384 . S
C59 C61 1.479 . S
C59 H77 0.929 . S
C60 C57 1.424 . S
C60 C59 1.384 . S
C60 H78 0.928 . S
C61 C58 1.260 . S
C61 C59 1.479 . S
C62 C57 1.245 . S
C62 C58 1.477 . S
C62 H79 0.932 . S
C63 U46 2.882 . S
C63 C57 1.428 . S
C63 O66 1.301 . S
C63 O67 1.282 . S
O64 U46 2.441 . S
O64 C50 1.249 . S
O65 U46 2.420 . S
O65 C50 1.202 . S
O66 U46 2.455 . S
O66 C63 1.301 . S
O67 U46 2.449 . S
O67 C63 1.282 . S
H68 C41 0.931 . S
H69 C43 0.929 . S
H70 C44 0.930 . S
H71 C45 0.931 . S
H72 C52 0.932 . S
H73 C53 0.930 . S
H74 C54 0.929 . S
H75 C56 0.930 . S
H76 C58 0.932 . S
H77 C59 0.929 . S
H78 C60 0.928 . S
H79 C62 0.932 . S
C80 C81 1.264 . S
C80 C85 1.479 . S
C80 C90 1.465 . S
C81 C80 1.264 . S
C81 C83 1.339 . S
C81 H108 0.931 . S
C82 C83 1.395 . S
C82 C84 1.320 . S
C83 C81 1.339 . S
C83 C82 1.395 . S
C83 H109 0.929 . S
C84 C82 1.320 . S
C84 C85 1.405 . S
C84 H110 0.930 . S
C85 C80 1.479 . S
C85 C84 1.405 . S
C85 H111 0.931 . S
U86 O87 2.454 . S
U86 O88 2.458 . S
U86 C89 2.984 . S
U86 C90 2.847 . S
U86 C103 2.882 . S
U86 O104 2.441 . S
U86 O105 2.420 . S
U86 O106 2.455 . S
U86 O107 2.449 . S
O87 U86 2.454 . S
O87 C89 1.353 . S
O88 U86 2.458 . S
O88 C89 1.286 . S
C89 U86 2.984 . S
C89 O87 1.353 . S
C89 O88 1.286 . S
C89 C91 1.363 . S
C90 C80 1.465 . S
C90 U86 2.847 . S
C90 O104 1.249 . S
C90 O105 1.202 . S
C91 C89 1.363 . S
C91 C93 1.408 . S
C91 C96 1.342 . S
C92 C93 1.310 . S
C92 C95 1.461 . S
C92 H112 0.932 . S
C93 C91 1.408 . S
C93 C92 1.310 . S
C93 H113 0.930 . S
C94 C95 1.474 . S
C94 C96 1.285 . S
C94 H114 0.929 . S
C95 C92 1.461 . S
C95 C94 1.474 . S
C96 C91 1.342 . S
C96 C94 1.285 . S
C96 H115 0.930 . S
C97 C100 1.424 . S
C97 C102 1.245 . S
C97 C103 1.428 . S
C98 C101 1.260 . S
C98 C102 1.477 . S
C98 H116 0.932 . S
C99 C100 1.384 . S
C99 C101 1.479 . S
C99 H117 0.929 . S
C100 C97 1.424 . S
C100 C99 1.384 . S
C100 H118 0.928 . S
C101 C98 1.260 . S
C101 C99 1.479 . S
C102 C97 1.245 . S
C102 C98 1.477 . S
C102 H119 0.932 . S
C103 U86 2.882 . S
C103 C97 1.428 . S
C103 O106 1.301 . S
C103 O107 1.282 . S
O104 U86 2.441 . S
O104 C90 1.249 . S
O105 U86 2.420 . S
O105 C90 1.202 . S
O106 U86 2.455 . S
O106 C103 1.301 . S
O107 U86 2.449 . S
O107 C103 1.282 . S
H108 C81 0.931 . S
H109 C83 0.929 . S
H110 C84 0.930 . S
H111 C85 0.931 . S
H112 C92 0.932 . S
H113 C93 0.930 . S
H114 C94 0.929 . S
H115 C96 0.930 . S
H116 C98 0.932 . S
H117 C99 0.929 . S
H118 C100 0.928 . S
H119 C102 0.932 . S
C120 C121 1.264 . S
C120 C125 1.479 . S
C120 C130 1.465 . S
C121 C120 1.264 . S
C121 C123 1.339 . S
C121 H148 0.931 . S
C122 C123 1.395 . S
C122 C124 1.320 . S
C123 C121 1.339 . S
C123 C122 1.395 . S
C123 H149 0.929 . S
C124 C122 1.320 . S
C124 C125 1.405 . S
C124 H150 0.930 . S
C125 C120 1.479 . S
C125 C124 1.405 . S
C125 H151 0.931 . S
U126 O127 2.454 . S
U126 O128 2.458 . S
U126 C129 2.984 . S
U126 C130 2.847 . S
U126 C143 2.882 . S
U126 O144 2.441 . S
U126 O145 2.420 . S
U126 O146 2.455 . S
U126 O147 2.449 . S
O127 U126 2.454 . S
O127 C129 1.353 . S
O128 U126 2.458 . S
O128 C129 1.286 . S
C129 U126 2.984 . S
C129 O127 1.353 . S
C129 O128 1.286 . S
C129 C131 1.363 . S
C130 C120 1.465 . S
C130 U126 2.847 . S
C130 O144 1.249 . S
C130 O145 1.202 . S
C131 C129 1.363 . S
C131 C133 1.408 . S
C131 C136 1.342 . S
C132 C133 1.310 . S
C132 C135 1.461 . S
C132 H152 0.932 . S
C133 C131 1.408 . S
C133 C132 1.310 . S
C133 H153 0.930 . S
C134 C135 1.474 . S
C134 C136 1.285 . S
C134 H154 0.929 . S
C135 C132 1.461 . S
C135 C134 1.474 . S
C136 C131 1.342 . S
C136 C134 1.285 . S
C136 H155 0.930 . S
C137 C140 1.424 . S
C137 C142 1.245 . S
C137 C143 1.428 . S
C138 C141 1.260 . S
C138 C142 1.477 . S
C138 H156 0.932 . S
C139 C140 1.384 . S
C139 C141 1.479 . S
C139 H157 0.929 . S
C140 C137 1.424 . S
C140 C139 1.384 . S
C140 H158 0.928 . S
C141 C138 1.260 . S
C141 C139 1.479 . S
C142 C137 1.245 . S
C142 C138 1.477 . S
C142 H159 0.932 . S
C143 U126 2.882 . S
C143 C137 1.428 . S
C143 O146 1.301 . S
C143 O147 1.282 . S
O144 U126 2.441 . S
O144 C130 1.249 . S
O145 U126 2.420 . S
O145 C130 1.202 . S
O146 U126 2.455 . S
O146 C143 1.301 . S
O147 U126 2.449 . S
O147 C143 1.282 . S
H148 C121 0.931 . S
H149 C123 0.929 . S
H150 C124 0.930 . S
H151 C125 0.931 . S
H152 C132 0.932 . S
H153 C133 0.930 . S
H154 C134 0.929 . S
H155 C136 0.930 . S
H156 C138 0.932 . S
H157 C139 0.929 . S
H158 C140 0.928 . S
H159 C142 0.932 . S
C160 C161 1.264 . S
C160 C165 1.479 . S
C160 C170 1.465 . S
C161 C160 1.264 . S
C161 C163 1.339 . S
C161 H188 0.931 . S
C162 C163 1.395 . S
C162 C164 1.320 . S
C163 C161 1.339 . S
C163 C162 1.395 . S
C163 H189 0.929 . S
C164 C162 1.320 . S
C164 C165 1.405 . S
C164 H190 0.930 . S
C165 C160 1.479 . S
C165 C164 1.405 . S
C165 H191 0.931 . S
U166 O167 2.454 . S
U166 O168 2.458 . S
U166 C169 2.984 . S
U166 C170 2.847 . S
U166 C183 2.882 . S
U166 O184 2.441 . S
U166 O185 2.420 . S
U166 O186 2.455 . S
U166 O187 2.449 . S
O167 U166 2.454 . S
O167 C169 1.353 . S
O168 U166 2.458 . S
O168 C169 1.286 . S
C169 U166 2.984 . S
C169 O167 1.353 . S
C169 O168 1.286 . S
C169 C171 1.363 . S
C170 C160 1.465 . S
C170 U166 2.847 . S
C170 O184 1.249 . S
C170 O185 1.202 . S
C171 C169 1.363 . S
C171 C173 1.408 . S
C171 C176 1.342 . S
C172 C173 1.310 . S
C172 C175 1.461 . S
C172 H192 0.932 . S
C173 C171 1.408 . S
C173 C172 1.310 . S
C173 H193 0.930 . S
C174 C175 1.474 . S
C174 C176 1.285 . S
C174 H194 0.929 . S
C175 C172 1.461 . S
C175 C174 1.474 . S
C176 C171 1.342 . S
C176 C174 1.285 . S
C176 H195 0.930 . S
C177 C180 1.424 . S
C177 C182 1.245 . S
C177 C183 1.428 . S
C178 C181 1.260 . S
C178 C182 1.477 . S
C178 H196 0.932 . S
C179 C180 1.384 . S
C179 C181 1.479 . S
C179 H197 0.929 . S
C180 C177 1.424 . S
C180 C179 1.384 . S
C180 H198 0.928 . S
C181 C178 1.260 . S
C181 C179 1.479 . S
C182 C177 1.245 . S
C182 C178 1.477 . S
C182 H199 0.932 . S
C183 U166 2.882 . S
C183 C177 1.428 . S
C183 O186 1.301 . S
C183 O187 1.282 . S
O184 U166 2.441 . S
O184 C170 1.249 . S
O185 U166 2.420 . S
O185 C170 1.202 . S
O186 U166 2.455 . S
O186 C183 1.301 . S
O187 U166 2.449 . S
O187 C183 1.282 . S
H188 C161 0.931 . S
H189 C163 0.929 . S
H190 C164 0.930 . S
H191 C165 0.931 . S
H192 C172 0.932 . S
H193 C173 0.930 . S
H194 C174 0.929 . S
H195 C176 0.930 . S
H196 C178 0.932 . S
H197 C179 0.929 . S
H198 C180 0.928 . S
H199 C182 0.932 . S
C200 C201 1.264 . S
C200 C205 1.479 . S
C200 C210 1.465 . S
C201 C200 1.264 . S
C201 C203 1.339 . S
C201 H228 0.931 . S
C202 C203 1.395 . S
C202 C204 1.320 . S
C203 C201 1.339 . S
C203 C202 1.395 . S
C203 H229 0.929 . S
C204 C202 1.320 . S
C204 C205 1.405 . S
C204 H230 0.930 . S
C205 C200 1.479 . S
C205 C204 1.405 . S
C205 H231 0.931 . S
U206 O207 2.454 . S
U206 O208 2.458 . S
U206 C209 2.984 . S
U206 C210 2.847 . S
U206 C223 2.882 . S
U206 O224 2.441 . S
U206 O225 2.420 . S
U206 O226 2.455 . S
U206 O227 2.449 . S
O207 U206 2.454 . S
O207 C209 1.353 . S
O208 U206 2.458 . S
O208 C209 1.286 . S
C209 U206 2.984 . S
C209 O207 1.353 . S
C209 O208 1.286 . S
C209 C211 1.363 . S
C210 C200 1.465 . S
C210 U206 2.847 . S
C210 O224 1.249 . S
C210 O225 1.202 . S
C211 C209 1.363 . S
C211 C213 1.408 . S
C211 C216 1.342 . S
C212 C213 1.310 . S
C212 C215 1.461 . S
C212 H232 0.932 . S
C213 C211 1.408 . S
C213 C212 1.310 . S
C213 H233 0.930 . S
C214 C215 1.474 . S
C214 C216 1.285 . S
C214 H234 0.929 . S
C215 C212 1.461 . S
C215 C214 1.474 . S
C216 C211 1.342 . S
C216 C214 1.285 . S
C216 H235 0.930 . S
C217 C220 1.424 . S
C217 C222 1.245 . S
C217 C223 1.428 . S
C218 C221 1.260 . S
C218 C222 1.477 . S
C218 H236 0.932 . S
C219 C220 1.384 . S
C219 C221 1.479 . S
C219 H237 0.929 . S
C220 C217 1.424 . S
C220 C219 1.384 . S
C220 H238 0.928 . S
C221 C218 1.260 . S
C221 C219 1.479 . S
C222 C217 1.245 . S
C222 C218 1.477 . S
C222 H239 0.932 . S
C223 U206 2.882 . S
C223 C217 1.428 . S
C223 O226 1.301 . S
C223 O227 1.282 . S
O224 U206 2.441 . S
O224 C210 1.249 . S
O225 U206 2.420 . S
O225 C210 1.202 . S
O226 U206 2.455 . S
O226 C223 1.301 . S
O227 U206 2.449 . S
O227 C223 1.282 . S
H228 C201 0.931 . S
H229 C203 0.929 . S
H230 C204 0.930 . S
H231 C205 0.931 . S
H232 C212 0.932 . S
H233 C213 0.930 . S
H234 C214 0.929 . S
H235 C216 0.930 . S
H236 C218 0.932 . S
H237 C219 0.929 . S
H238 C220 0.928 . S
H239 C222 0.932 . S
C240 C241 1.264 . S
C240 C245 1.479 . S
C240 C250 1.465 . S
C241 C240 1.264 . S
C241 C243 1.339 . S
C241 H268 0.931 . S
C242 C243 1.395 . S
C242 C244 1.320 . S
C243 C241 1.339 . S
C243 C242 1.395 . S
C243 H269 0.929 . S
C244 C242 1.320 . S
C244 C245 1.405 . S
C244 H270 0.930 . S
C245 C240 1.479 . S
C245 C244 1.405 . S
C245 H271 0.931 . S
U246 O247 2.454 . S
U246 O248 2.458 . S
U246 C249 2.984 . S
U246 C250 2.847 . S
U246 C263 2.882 . S
U246 O264 2.441 . S
U246 O265 2.420 . S
U246 O266 2.455 . S
U246 O267 2.449 . S
O247 U246 2.454 . S
O247 C249 1.353 . S
O248 U246 2.458 . S
O248 C249 1.286 . S
C249 U246 2.984 . S
C249 O247 1.353 . S
C249 O248 1.286 . S
C249 C251 1.363 . S
C250 C240 1.465 . S
C250 U246 2.847 . S
C250 O264 1.249 . S
C250 O265 1.202 . S
C251 C249 1.363 . S
C251 C253 1.408 . S
C251 C256 1.342 . S
C252 C253 1.310 . S
C252 C255 1.461 . S
C252 H272 0.932 . S
C253 C251 1.408 . S
C253 C252 1.310 . S
C253 H273 0.930 . S
C254 C255 1.474 . S
C254 C256 1.285 . S
C254 H274 0.929 . S
C255 C252 1.461 . S
C255 C254 1.474 . S
C256 C251 1.342 . S
C256 C254 1.285 . S
C256 H275 0.930 . S
C257 C260 1.424 . S
C257 C262 1.245 . S
C257 C263 1.428 . S
C258 C261 1.260 . S
C258 C262 1.477 . S
C258 H276 0.932 . S
C259 C260 1.384 . S
C259 C261 1.479 . S
C259 H277 0.929 . S
C260 C257 1.424 . S
C260 C259 1.384 . S
C260 H278 0.928 . S
C261 C258 1.260 . S
C261 C259 1.479 . S
C262 C257 1.245 . S
C262 C258 1.477 . S
C262 H279 0.932 . S
C263 U246 2.882 . S
C263 C257 1.428 . S
C263 O266 1.301 . S
C263 O267 1.282 . S
O264 U246 2.441 . S
O264 C250 1.249 . S
O265 U246 2.420 . S
O265 C250 1.202 . S
O266 U246 2.455 . S
O266 C263 1.301 . S
O267 U246 2.449 . S
O267 C263 1.282 . S
H268 C241 0.931 . S
H269 C243 0.929 . S
H270 C244 0.930 . S
H271 C245 0.931 . S
H272 C252 0.932 . S
H273 C253 0.930 . S
H274 C254 0.929 . S
H275 C256 0.930 . S
H276 C258 0.932 . S
H277 C259 0.929 . S
H278 C260 0.928 . S
H279 C262 0.932 . S
C280 C281 1.264 . S
C280 C285 1.479 . S
C280 C290 1.465 . S
C281 C280 1.264 . S
C281 C283 1.339 . S
C281 H308 0.931 . S
C282 C283 1.395 . S
C282 C284 1.320 . S
C283 C281 1.339 . S
C283 C282 1.395 . S
C283 H309 0.929 . S
C284 C282 1.320 . S
C284 C285 1.405 . S
C284 H310 0.930 . S
C285 C280 1.479 . S
C285 C284 1.405 . S
C285 H311 0.931 . S
U286 O287 2.454 . S
U286 O288 2.458 . S
U286 C289 2.984 . S
U286 C290 2.847 . S
U286 C303 2.882 . S
U286 O304 2.441 . S
U286 O305 2.420 . S
U286 O306 2.455 . S
U286 O307 2.449 . S
O287 U286 2.454 . S
O287 C289 1.353 . S
O288 U286 2.458 . S
O288 C289 1.286 . S
C289 U286 2.984 . S
C289 O287 1.353 . S
C289 O288 1.286 . S
C289 C291 1.363 . S
C290 C280 1.465 . S
C290 U286 2.847 . S
C290 O304 1.249 . S
C290 O305 1.202 . S
C291 C289 1.363 . S
C291 C293 1.408 . S
C291 C296 1.342 . S
C292 C293 1.310 . S
C292 C295 1.461 . S
C292 H312 0.932 . S
C293 C291 1.408 . S
C293 C292 1.310 . S
C293 H313 0.930 . S
C294 C295 1.474 . S
C294 C296 1.285 . S
C294 H314 0.929 . S
C295 C292 1.461 . S
C295 C294 1.474 . S
C296 C291 1.342 . S
C296 C294 1.285 . S
C296 H315 0.930 . S
C297 C300 1.424 . S
C297 C302 1.245 . S
C297 C303 1.428 . S
C298 C301 1.260 . S
C298 C302 1.477 . S
C298 H316 0.932 . S
C299 C300 1.384 . S
C299 C301 1.479 . S
C299 H317 0.929 . S
C300 C297 1.424 . S
C300 C299 1.384 . S
C300 H318 0.928 . S
C301 C298 1.260 . S
C301 C299 1.479 . S
C302 C297 1.245 . S
C302 C298 1.477 . S
C302 H319 0.932 . S
C303 U286 2.882 . S
C303 C297 1.428 . S
C303 O306 1.301 . S
C303 O307 1.282 . S
O304 U286 2.441 . S
O304 C290 1.249 . S
O305 U286 2.420 . S
O305 C290 1.202 . S
O306 U286 2.455 . S
O306 C303 1.301 . S
O307 U286 2.449 . S
O307 C303 1.282 . S
H308 C281 0.931 . S
H309 C283 0.929 . S
H310 C284 0.930 . S
H311 C285 0.931 . S
H312 C292 0.932 . S
H313 C293 0.930 . S
H314 C294 0.929 . S
H315 C296 0.930 . S
H316 C298 0.932 . S
H317 C299 0.929 . S
H318 C300 0.928 . S
H319 C302 0.932 . S
C320 C321 1.264 . S
C320 C325 1.479 . S
C320 C330 1.465 . S
C321 C320 1.264 . S
C321 C323 1.339 . S
C321 H348 0.931 . S
C322 C323 1.395 . S
C322 C324 1.320 . S
C323 C321 1.339 . S
C323 C322 1.395 . S
C323 H349 0.929 . S
C324 C322 1.320 . S
C324 C325 1.405 . S
C324 H350 0.930 . S
C325 C320 1.479 . S
C325 C324 1.405 . S
C325 H351 0.931 . S
U326 O327 2.454 . S
U326 O328 2.458 . S
U326 C329 2.984 . S
U326 C330 2.847 . S
U326 C343 2.882 . S
U326 O344 2.441 . S
U326 O345 2.420 . S
U326 O346 2.455 . S
U326 O347 2.449 . S
O327 U326 2.454 . S
O327 C329 1.353 . S
O328 U326 2.458 . S
O328 C329 1.286 . S
C329 U326 2.984 . S
C329 O327 1.353 . S
C329 O328 1.286 . S
C329 C331 1.363 . S
C330 C320 1.465 . S
C330 U326 2.847 . S
C330 O344 1.249 . S
C330 O345 1.202 . S
C331 C329 1.363 . S
C331 C333 1.408 . S
C331 C336 1.342 . S
C332 C333 1.310 . S
C332 C335 1.461 . S
C332 H352 0.932 . S
C333 C331 1.408 . S
C333 C332 1.310 . S
C333 H353 0.930 . S
C334 C335 1.474 . S
C334 C336 1.285 . S
C334 H354 0.929 . S
C335 C332 1.461 . S
C335 C334 1.474 . S
C336 C331 1.342 . S
C336 C334 1.285 . S
C336 H355 0.930 . S
C337 C340 1.424 . S
C337 C342 1.245 . S
C337 C343 1.428 . S
C338 C341 1.260 . S
C338 C342 1.477 . S
C338 H356 0.932 . S
C339 C340 1.384 . S
C339 C341 1.479 . S
C339 H357 0.929 . S
C340 C337 1.424 . S
C340 C339 1.384 . S
C340 H358 0.928 . S
C341 C338 1.260 . S
C341 C339 1.479 . S
C342 C337 1.245 . S
C342 C338 1.477 . S
C342 H359 0.932 . S
C343 U326 2.882 . S
C343 C337 1.428 . S
C343 O346 1.301 . S
C343 O347 1.282 . S
O344 U326 2.441 . S
O344 C330 1.249 . S
O345 U326 2.420 . S
O345 C330 1.202 . S
O346 U326 2.455 . S
O346 C343 1.301 . S
O347 U326 2.449 . S
O347 C343 1.282 . S
H348 C321 0.931 . S
H349 C323 0.929 . S
H350 C324 0.930 . S
H351 C325 0.931 . S
H352 C332 0.932 . S
H353 C333 0.930 . S
H354 C334 0.929 . S
H355 C336 0.930 . S
H356 C338 0.932 . S
H357 C339 0.929 . S
H358 C340 0.928 . S
H359 C342 0.932 . S
C360 C361 1.264 . S
C360 C365 1.479 . S
C360 C370 1.465 . S
C361 C360 1.264 . S
C361 C363 1.339 . S
C361 H388 0.931 . S
C362 C363 1.395 . S
C362 C364 1.320 . S
C363 C361 1.339 . S
C363 C362 1.395 . S
C363 H389 0.929 . S
C364 C362 1.320 . S
C364 C365 1.405 . S
C364 H390 0.930 . S
C365 C360 1.479 . S
C365 C364 1.405 . S
C365 H391 0.931 . S
U366 O367 2.454 . S
U366 O368 2.458 . S
U366 C369 2.984 . S
U366 C370 2.847 . S
U366 C383 2.882 . S
U366 O384 2.441 . S
U366 O385 2.420 . S
U366 O386 2.455 . S
U366 O387 2.449 . S
O367 U366 2.454 . S
O367 C369 1.353 . S
O368 U366 2.458 . S
O368 C369 1.286 . S
C369 U366 2.984 . S
C369 O367 1.353 . S
C369 O368 1.286 . S
C369 C371 1.363 . S
C370 C360 1.465 . S
C370 U366 2.847 . S
C370 O384 1.249 . S
C370 O385 1.202 . S
C371 C369 1.363 . S
C371 C373 1.408 . S
C371 C376 1.342 . S
C372 C373 1.310 . S
C372 C375 1.461 . S
C372 H392 0.932 . S
C373 C371 1.408 . S
C373 C372 1.310 . S
C373 H393 0.930 . S
C374 C375 1.474 . S
C374 C376 1.285 . S
C374 H394 0.929 . S
C375 C372 1.461 . S
C375 C374 1.474 . S
C376 C371 1.342 . S
C376 C374 1.285 . S
C376 H395 0.930 . S
C377 C380 1.424 . S
C377 C382 1.245 . S
C377 C383 1.428 . S
C378 C381 1.260 . S
C378 C382 1.477 . S
C378 H396 0.932 . S
C379 C380 1.384 . S
C379 C381 1.479 . S
C379 H397 0.929 . S
C380 C377 1.424 . S
C380 C379 1.384 . S
C380 H398 0.928 . S
C381 C378 1.260 . S
C381 C379 1.479 . S
C382 C377 1.245 . S
C382 C378 1.477 . S
C382 H399 0.932 . S
C383 U366 2.882 . S
C383 C377 1.428 . S
C383 O386 1.301 . S
C383 O387 1.282 . S
O384 U366 2.441 . S
O384 C370 1.249 . S
O385 U366 2.420 . S
O385 C370 1.202 . S
O386 U366 2.455 . S
O386 C383 1.301 . S
O387 U366 2.449 . S
O387 C383 1.282 . S
H388 C361 0.931 . S
H389 C363 0.929 . S
H390 C364 0.930 . S
H391 C365 0.931 . S
H392 C372 0.932 . S
H393 C373 0.930 . S
H394 C374 0.929 . S
H395 C376 0.930 . S
H396 C378 0.932 . S
H397 C379 0.929 . S
H398 C380 0.928 . S
H399 C382 0.932 . S
C400 C401 1.264 . S
C400 C405 1.479 . S
C400 C410 1.465 . S
C401 C400 1.264 . S
C401 C403 1.339 . S
C401 H428 0.931 . S
C402 C403 1.395 . S
C402 C404 1.320 . S
C403 C401 1.339 . S
C403 C402 1.395 . S
C403 H429 0.929 . S
C404 C402 1.320 . S
C404 C405 1.405 . S
C404 H430 0.930 . S
C405 C400 1.479 . S
C405 C404 1.405 . S
C405 H431 0.931 . S
U406 O407 2.454 . S
U406 O408 2.458 . S
U406 C409 2.984 . S
U406 C410 2.847 . S
U406 C423 2.882 . S
U406 O424 2.441 . S
U406 O425 2.420 . S
U406 O426 2.455 . S
U406 O427 2.449 . S
O407 U406 2.454 . S
O407 C409 1.353 . S
O408 U406 2.458 . S
O408 C409 1.286 . S
C409 U406 2.984 . S
C409 O407 1.353 . S
C409 O408 1.286 . S
C409 C411 1.363 . S
C410 C400 1.465 . S
C410 U406 2.847 . S
C410 O424 1.249 . S
C410 O425 1.202 . S
C411 C409 1.363 . S
C411 C413 1.408 . S
C411 C416 1.342 . S
C412 C413 1.310 . S
C412 C415 1.461 . S
C412 H432 0.932 . S
C413 C411 1.408 . S
C413 C412 1.310 . S
C413 H433 0.930 . S
C414 C415 1.474 . S
C414 C416 1.285 . S
C414 H434 0.929 . S
C415 C412 1.461 . S
C415 C414 1.474 . S
C416 C411 1.342 . S
C416 C414 1.285 . S
C416 H435 0.930 . S
C417 C420 1.424 . S
C417 C422 1.245 . S
C417 C423 1.428 . S
C418 C421 1.260 . S
C418 C422 1.477 . S
C418 H436 0.932 . S
C419 C420 1.384 . S
C419 C421 1.479 . S
C419 H437 0.929 . S
C420 C417 1.424 . S
C420 C419 1.384 . S
C420 H438 0.928 . S
C421 C418 1.260 . S
C421 C419 1.479 . S
C422 C417 1.245 . S
C422 C418 1.477 . S
C422 H439 0.932 . S
C423 U406 2.882 . S
C423 C417 1.428 . S
C423 O426 1.301 . S
C423 O427 1.282 . S
O424 U406 2.441 . S
O424 C410 1.249 . S
O425 U406 2.420 . S
O425 C410 1.202 . S
O426 U406 2.455 . S
O426 C423 1.301 . S
O427 U406 2.449 . S
O427 C423 1.282 . S
H428 C401 0.931 . S
H429 C403 0.929 . S
H430 C404 0.930 . S
H431 C405 0.931 . S
H432 C412 0.932 . S
H433 C413 0.930 . S
H434 C414 0.929 . S
H435 C416 0.930 . S
H436 C418 0.932 . S
H437 C419 0.929 . S
H438 C420 0.928 . S
H439 C422 0.932 . S
C440 C441 1.264 . S
C440 C445 1.479 . S
C440 C450 1.465 . S
C441 C440 1.264 . S
C441 C443 1.339 . S
C441 H468 0.931 . S
C442 C443 1.395 . S
C442 C444 1.320 . S
C443 C441 1.339 . S
C443 C442 1.395 . S
C443 H469 0.929 . S
C444 C442 1.320 . S
C444 C445 1.405 . S
C444 H470 0.930 . S
C445 C440 1.479 . S
C445 C444 1.405 . S
C445 H471 0.931 . S
U446 O447 2.454 . S
U446 O448 2.458 . S
U446 C449 2.984 . S
U446 C450 2.847 . S
U446 C463 2.882 . S
U446 O464 2.441 . S
U446 O465 2.420 . S
U446 O466 2.455 . S
U446 O467 2.449 . S
O447 U446 2.454 . S
O447 C449 1.353 . S
O448 U446 2.458 . S
O448 C449 1.286 . S
C449 U446 2.984 . S
C449 O447 1.353 . S
C449 O448 1.286 . S
C449 C451 1.363 . S
C450 C440 1.465 . S
C450 U446 2.847 . S
C450 O464 1.249 . S
C450 O465 1.202 . S
C451 C449 1.363 . S
C451 C453 1.408 . S
C451 C456 1.342 . S
C452 C453 1.310 . S
C452 C455 1.461 . S
C452 H472 0.932 . S
C453 C451 1.408 . S
C453 C452 1.310 . S
C453 H473 0.930 . S
C454 C455 1.474 . S
C454 C456 1.285 . S
C454 H474 0.929 . S
C455 C452 1.461 . S
C455 C454 1.474 . S
C456 C451 1.342 . S
C456 C454 1.285 . S
C456 H475 0.930 . S
C457 C460 1.424 . S
C457 C462 1.245 . S
C457 C463 1.428 . S
C458 C461 1.260 . S
C458 C462 1.477 . S
C458 H476 0.932 . S
C459 C460 1.384 . S
C459 C461 1.479 . S
C459 H477 0.929 . S
C460 C457 1.424 . S
C460 C459 1.384 . S
C460 H478 0.928 . S
C461 C458 1.260 . S
C461 C459 1.479 . S
C462 C457 1.245 . S
C462 C458 1.477 . S
C462 H479 0.932 . S
C463 U446 2.882 . S
C463 C457 1.428 . S
C463 O466 1.301 . S
C463 O467 1.282 . S
O464 U446 2.441 . S
O464 C450 1.249 . S
O465 U446 2.420 . S
O465 C450 1.202 . S
O466 U446 2.455 . S
O466 C463 1.301 . S
O467 U446 2.449 . S
O467 C463 1.282 . S
H468 C441 0.931 . S
H469 C443 0.929 . S
H470 C444 0.930 . S
H471 C445 0.931 . S
H472 C452 0.932 . S
H473 C453 0.930 . S
H474 C454 0.929 . S
H475 C456 0.930 . S
H476 C458 0.932 . S
H477 C459 0.929 . S
H478 C460 0.928 . S
H479 C462 0.932 . S
C480 C481 1.264 . S
C480 C485 1.479 . S
C480 C490 1.465 . S
C481 C480 1.264 . S
C481 C483 1.339 . S
C481 H508 0.931 . S
C482 C483 1.395 . S
C482 C484 1.320 . S
C483 C481 1.339 . S
C483 C482 1.395 . S
C483 H509 0.929 . S
C484 C482 1.320 . S
C484 C485 1.405 . S
C484 H510 0.930 . S
C485 C480 1.479 . S
C485 C484 1.405 . S
C485 H511 0.931 . S
U486 O487 2.454 . S
U486 O488 2.458 . S
U486 C489 2.984 . S
U486 C490 2.847 . S
U486 C503 2.882 . S
U486 O504 2.441 . S
U486 O505 2.420 . S
U486 O506 2.455 . S
U486 O507 2.449 . S
O487 U486 2.454 . S
O487 C489 1.353 . S
O488 U486 2.458 . S
O488 C489 1.286 . S
C489 U486 2.984 . S
C489 O487 1.353 . S
C489 O488 1.286 . S
C489 C491 1.363 . S
C490 C480 1.465 . S
C490 U486 2.847 . S
C490 O504 1.249 . S
C490 O505 1.202 . S
C491 C489 1.363 . S
C491 C493 1.408 . S
C491 C496 1.342 . S
C492 C493 1.310 . S
C492 C495 1.461 . S
C492 H512 0.932 . S
C493 C491 1.408 . S
C493 C492 1.310 . S
C493 H513 0.930 . S
C494 C495 1.474 . S
C494 C496 1.285 . S
C494 H514 0.929 . S
C495 C492 1.461 . S
C495 C494 1.474 . S
C496 C491 1.342 . S
C496 C494 1.285 . S
C496 H515 0.930 . S
C497 C500 1.424 . S
C497 C502 1.245 . S
C497 C503 1.428 . S
C498 C501 1.260 . S
C498 C502 1.477 . S
C498 H516 0.932 . S
C499 C500 1.384 . S
C499 C501 1.479 . S
C499 H517 0.929 . S
C500 C497 1.424 . S
C500 C499 1.384 . S
C500 H518 0.928 . S
C501 C498 1.260 . S
C501 C499 1.479 . S
C502 C497 1.245 . S
C502 C498 1.477 . S
C502 H519 0.932 . S
C503 U486 2.882 . S
C503 C497 1.428 . S
C503 O506 1.301 . S
C503 O507 1.282 . S
O504 U486 2.441 . S
O504 C490 1.249 . S
O505 U486 2.420 . S
O505 C490 1.202 . S
O506 U486 2.455 . S
O506 C503 1.301 . S
O507 U486 2.449 . S
O507 C503 1.282 . S
H508 C481 0.931 . S
H509 C483 0.929 . S
H510 C484 0.930 . S
H511 C485 0.931 . S
H512 C492 0.932 . S
H513 C493 0.930 . S
H514 C494 0.929 . S
H515 C496 0.930 . S
H516 C498 0.932 . S
H517 C499 0.929 . S
H518 C500 0.928 . S
H519 C502 0.932 . S
C520 C521 1.264 . S
C520 C525 1.479 . S
C520 C530 1.465 . S
C521 C520 1.264 . S
C521 C523 1.339 . S
C521 H548 0.931 . S
C522 C523 1.395 . S
C522 C524 1.320 . S
C523 C521 1.339 . S
C523 C522 1.395 . S
C523 H549 0.929 . S
C524 C522 1.320 . S
C524 C525 1.405 . S
C524 H550 0.930 . S
C525 C520 1.479 . S
C525 C524 1.405 . S
C525 H551 0.931 . S
U526 O527 2.454 . S
U526 O528 2.458 . S
U526 C529 2.984 . S
U526 C530 2.847 . S
U526 C543 2.882 . S
U526 O544 2.441 . S
U526 O545 2.420 . S
U526 O546 2.455 . S
U526 O547 2.449 . S
O527 U526 2.454 . S
O527 C529 1.353 . S
O528 U526 2.458 . S
O528 C529 1.286 . S
C529 U526 2.984 . S
C529 O527 1.353 . S
C529 O528 1.286 . S
C529 C531 1.363 . S
C530 C520 1.465 . S
C530 U526 2.847 . S
C530 O544 1.249 . S
C530 O545 1.202 . S
C531 C529 1.363 . S
C531 C533 1.408 . S
C531 C536 1.342 . S
C532 C533 1.310 . S
C532 C535 1.461 . S
C532 H552 0.932 . S
C533 C531 1.408 . S
C533 C532 1.310 . S
C533 H553 0.930 . S
C534 C535 1.474 . S
C534 C536 1.285 . S
C534 H554 0.929 . S
C535 C532 1.461 . S
C535 C534 1.474 . S
C536 C531 1.342 . S
C536 C534 1.285 . S
C536 H555 0.930 . S
C537 C540 1.424 . S
C537 C542 1.245 . S
C537 C543 1.428 . S
C538 C541 1.260 . S
C538 C542 1.477 . S
C538 H556 0.932 . S
C539 C540 1.384 . S
C539 C541 1.479 . S
C539 H557 0.929 . S
C540 C537 1.424 . S
C540 C539 1.384 . S
C540 H558 0.928 . S
C541 C538 1.260 . S
C541 C539 1.479 . S
C542 C537 1.245 . S
C542 C538 1.477 . S
C542 H559 0.932 . S
C543 U526 2.882 . S
C543 C537 1.428 . S
C543 O546 1.301 . S
C543 O547 1.282 . S
O544 U526 2.441 . S
O544 C530 1.249 . S
O545 U526 2.420 . S
O545 C530 1.202 . S
O546 U526 2.455 . S
O546 C543 1.301 . S
O547 U526 2.449 . S
O547 C543 1.282 . S
H548 C521 0.931 . S
H549 C523 0.929 . S
H550 C524 0.930 . S
H551 C525 0.931 . S
H552 C532 0.932 . S
H553 C533 0.930 . S
H554 C534 0.929 . S
H555 C536 0.930 . S
H556 C538 0.932 . S
H557 C539 0.929 . S
H558 C540 0.928 . S
H559 C542 0.932 . S
C560 C561 1.264 . S
C560 C565 1.479 . S
C560 C570 1.465 . S
C561 C560 1.264 . S
C561 C563 1.339 . S
C561 H588 0.931 . S
C562 C563 1.395 . S
C562 C564 1.320 . S
C563 C561 1.339 . S
C563 C562 1.395 . S
C563 H589 0.929 . S
C564 C562 1.320 . S
C564 C565 1.405 . S
C564 H590 0.930 . S
C565 C560 1.479 . S
C565 C564 1.405 . S
C565 H591 0.931 . S
U566 O567 2.454 . S
U566 O568 2.458 . S
U566 C569 2.984 . S
U566 C570 2.847 . S
U566 C583 2.882 . S
U566 O584 2.441 . S
U566 O585 2.420 . S
U566 O586 2.455 . S
U566 O587 2.449 . S
O567 U566 2.454 . S
O567 C569 1.353 . S
O568 U566 2.458 . S
O568 C569 1.286 . S
C569 U566 2.984 . S
C569 O567 1.353 . S
C569 O568 1.286 . S
C569 C571 1.363 . S
C570 C560 1.465 . S
C570 U566 2.847 . S
C570 O584 1.249 . S
C570 O585 1.202 . S
C571 C569 1.363 . S
C571 C573 1.408 . S
C571 C576 1.342 . S
C572 C573 1.310 . S
C572 C575 1.461 . S
C572 H592 0.932 . S
C573 C571 1.408 . S
C573 C572 1.310 . S
C573 H593 0.930 . S
C574 C575 1.474 . S
C574 C576 1.285 . S
C574 H594 0.929 . S
C575 C572 1.461 . S
C575 C574 1.474 . S
C576 C571 1.342 . S
C576 C574 1.285 . S
C576 H595 0.930 . S
C577 C580 1.424 . S
C577 C582 1.245 . S
C577 C583 1.428 . S
C578 C581 1.260 . S
C578 C582 1.477 . S
C578 H596 0.932 . S
C579 C580 1.384 . S
C579 C581 1.479 . S
C579 H597 0.929 . S
C580 C577 1.424 . S
C580 C579 1.384 . S
C580 H598 0.928 . S
C581 C578 1.260 . S
C581 C579 1.479 . S
C582 C577 1.245 . S
C582 C578 1.477 . S
C582 H599 0.932 . S
C583 U566 2.882 . S
C583 C577 1.428 . S
C583 O586 1.301 . S
C583 O587 1.282 . S
O584 U566 2.441 . S
O584 C570 1.249 . S
O585 U566 2.420 . S
O585 C570 1.202 . S
O586 U566 2.455 . S
O586 C583 1.301 . S
O587 U566 2.449 . S
O587 C583 1.282 . S
H588 C561 0.931 . S
H589 C563 0.929 . S
H590 C564 0.930 . S
H591 C565 0.931 . S
H592 C572 0.932 . S
H593 C573 0.930 . S
H594 C574 0.929 . S
H595 C576 0.930 . S
H596 C578 0.932 . S
H597 C579 0.929 . S
H598 C580 0.928 . S
H599 C582 0.932 . S
C600 C601 1.264 . S
C600 C605 1.479 . S
C600 C610 1.465 . S
C601 C600 1.264 . S
C601 C603 1.339 . S
C601 H628 0.931 . S
C602 C603 1.395 . S
C602 C604 1.320 . S
C603 C601 1.339 . S
C603 C602 1.395 . S
C603 H629 0.929 . S
C604 C602 1.320 . S
C604 C605 1.405 . S
C604 H630 0.930 . S
C605 C600 1.479 . S
C605 C604 1.405 . S
C605 H631 0.931 . S
U606 O607 2.454 . S
U606 O608 2.458 . S
U606 C609 2.984 . S
U606 C610 2.847 . S
U606 C623 2.882 . S
U606 O624 2.441 . S
U606 O625 2.420 . S
U606 O626 2.455 . S
U606 O627 2.449 . S
O607 U606 2.454 . S
O607 C609 1.353 . S
O608 U606 2.458 . S
O608 C609 1.286 . S
C609 U606 2.984 . S
C609 O607 1.353 . S
C609 O608 1.286 . S
C609 C611 1.363 . S
C610 C600 1.465 . S
C610 U606 2.847 . S
C610 O624 1.249 . S
C610 O625 1.202 . S
C611 C609 1.363 . S
C611 C613 1.408 . S
C611 C616 1.342 . S
C612 C613 1.310 . S
C612 C615 1.461 . S
C612 H632 0.932 . S
C613 C611 1.408 . S
C613 C612 1.310 . S
C613 H633 0.930 . S
C614 C615 1.474 . S
C614 C616 1.285 . S
C614 H634 0.929 . S
C615 C612 1.461 . S
C615 C614 1.474 . S
C616 C611 1.342 . S
C616 C614 1.285 . S
C616 H635 0.930 . S
C617 C620 1.424 . S
C617 C622 1.245 . S
C617 C623 1.428 . S
C618 C621 1.260 . S
C618 C622 1.477 . S
C618 H636 0.932 . S
C619 C620 1.384 . S
C619 C621 1.479 . S
C619 H637 0.929 . S
C620 C617 1.424 . S
C620 C619 1.384 . S
C620 H638 0.928 . S
C621 C618 1.260 . S
C621 C619 1.479 . S
C622 C617 1.245 . S
C622 C618 1.477 . S
C622 H639 0.932 . S
C623 U606 2.882 . S
C623 C617 1.428 . S
C623 O626 1.301 . S
C623 O627 1.282 . S
O624 U606 2.441 . S
O624 C610 1.249 . S
O625 U606 2.420 . S
O625 C610 1.202 . S
O626 U606 2.455 . S
O626 C623 1.301 . S
O627 U606 2.449 . S
O627 C623 1.282 . S
H628 C601 0.931 . S
H629 C603 0.929 . S
H630 C604 0.930 . S
H631 C605 0.931 . S
H632 C612 0.932 . S
H633 C613 0.930 . S
H634 C614 0.929 . S
H635 C616 0.930 . S
H636 C618 0.932 . S
H637 C619 0.929 . S
H638 C620 0.928 . S
H639 C622 0.932 . S
C640 C641 1.264 . S
C640 C645 1.479 . S
C640 C650 1.465 . S
C641 C640 1.264 . S
C641 C643 1.339 . S
C641 H668 0.931 . S
C642 C643 1.395 . S
C642 C644 1.320 . S
C643 C641 1.339 . S
C643 C642 1.395 . S
C643 H669 0.929 . S
C644 C642 1.320 . S
C644 C645 1.405 . S
C644 H670 0.930 . S
C645 C640 1.479 . S
C645 C644 1.405 . S
C645 H671 0.931 . S
U646 O647 2.454 . S
U646 O648 2.458 . S
U646 C649 2.984 . S
U646 C650 2.847 . S
U646 C663 2.882 . S
U646 O664 2.441 . S
U646 O665 2.420 . S
U646 O666 2.455 . S
U646 O667 2.449 . S
O647 U646 2.454 . S
O647 C649 1.353 . S
O648 U646 2.458 . S
O648 C649 1.286 . S
C649 U646 2.984 . S
C649 O647 1.353 . S
C649 O648 1.286 . S
C649 C651 1.363 . S
C650 C640 1.465 . S
C650 U646 2.847 . S
C650 O664 1.249 . S
C650 O665 1.202 . S
C651 C649 1.363 . S
C651 C653 1.408 . S
C651 C656 1.342 . S
C652 C653 1.310 . S
C652 C655 1.461 . S
C652 H672 0.932 . S
C653 C651 1.408 . S
C653 C652 1.310 . S
C653 H673 0.930 . S
C654 C655 1.474 . S
C654 C656 1.285 . S
C654 H674 0.929 . S
C655 C652 1.461 . S
C655 C654 1.474 . S
C656 C651 1.342 . S
C656 C654 1.285 . S
C656 H675 0.930 . S
C657 C660 1.424 . S
C657 C662 1.245 . S
C657 C663 1.428 . S
C658 C661 1.260 . S
C658 C662 1.477 . S
C658 H676 0.932 . S
C659 C660 1.384 . S
C659 C661 1.479 . S
C659 H677 0.929 . S
C660 C657 1.424 . S
C660 C659 1.384 . S
C660 H678 0.928 . S
C661 C658 1.260 . S
C661 C659 1.479 . S
C662 C657 1.245 . S
C662 C658 1.477 . S
C662 H679 0.932 . S
C663 U646 2.882 . S
C663 C657 1.428 . S
C663 O666 1.301 . S
C663 O667 1.282 . S
O664 U646 2.441 . S
O664 C650 1.249 . S
O665 U646 2.420 . S
O665 C650 1.202 . S
O666 U646 2.455 . S
O666 C663 1.301 . S
O667 U646 2.449 . S
O667 C663 1.282 . S
H668 C641 0.931 . S
H669 C643 0.929 . S
H670 C644 0.930 . S
H671 C645 0.931 . S
H672 C652 0.932 . S
H673 C653 0.930 . S
H674 C654 0.929 . S
H675 C656 0.930 . S
H676 C658 0.932 . S
H677 C659 0.929 . S
H678 C660 0.928 . S
H679 C662 0.932 . S
C680 C681 1.264 . S
C680 C685 1.479 . S
C680 C690 1.465 . S
C681 C680 1.264 . S
C681 C683 1.339 . S
C681 H708 0.931 . S
C682 C683 1.395 . S
C682 C684 1.320 . S
C683 C681 1.339 . S
C683 C682 1.395 . S
C683 H709 0.929 . S
C684 C682 1.320 . S
C684 C685 1.405 . S
C684 H710 0.930 . S
C685 C680 1.479 . S
C685 C684 1.405 . S
C685 H711 0.931 . S
U686 O687 2.454 . S
U686 O688 2.458 . S
U686 C689 2.984 . S
U686 C690 2.847 . S
U686 C703 2.882 . S
U686 O704 2.441 . S
U686 O705 2.420 . S
U686 O706 2.455 . S
U686 O707 2.449 . S
O687 U686 2.454 . S
O687 C689 1.353 . S
O688 U686 2.458 . S
O688 C689 1.286 . S
C689 U686 2.984 . S
C689 O687 1.353 . S
C689 O688 1.286 . S
C689 C691 1.363 . S
C690 C680 1.465 . S
C690 U686 2.847 . S
C690 O704 1.249 . S
C690 O705 1.202 . S
C691 C689 1.363 . S
C691 C693 1.408 . S
C691 C696 1.342 . S
C692 C693 1.310 . S
C692 C695 1.461 . S
C692 H712 0.932 . S
C693 C691 1.408 . S
C693 C692 1.310 . S
C693 H713 0.930 . S
C694 C695 1.474 . S
C694 C696 1.285 . S
C694 H714 0.929 . S
C695 C692 1.461 . S
C695 C694 1.474 . S
C696 C691 1.342 . S
C696 C694 1.285 . S
C696 H715 0.930 . S
C697 C700 1.424 . S
C697 C702 1.245 . S
C697 C703 1.428 . S
C698 C701 1.260 . S
C698 C702 1.477 . S
C698 H716 0.932 . S
C699 C700 1.384 . S
C699 C701 1.479 . S
C699 H717 0.929 . S
C700 C697 1.424 . S
C700 C699 1.384 . S
C700 H718 0.928 . S
C701 C698 1.260 . S
C701 C699 1.479 . S
C702 C697 1.245 . S
C702 C698 1.477 . S
C702 H719 0.932 . S
C703 U686 2.882 . S
C703 C697 1.428 . S
C703 O706 1.301 . S
C703 O707 1.282 . S
O704 U686 2.441 . S
O704 C690 1.249 . S
O705 U686 2.420 . S
O705 C690 1.202 . S
O706 U686 2.455 . S
O706 C703 1.301 . S
O707 U686 2.449 . S
O707 C703 1.282 . S
H708 C681 0.931 . S
H709 C683 0.929 . S
H710 C684 0.930 . S
H711 C685 0.931 . S
H712 C692 0.932 . S
H713 C693 0.930 . S
H714 C694 0.929 . S
H715 C696 0.930 . S
H716 C698 0.932 . S
H717 C699 0.929 . S
H718 C700 0.928 . S
H719 C702 0.932 . S
C720 C721 1.264 . S
C720 C725 1.479 . S
C720 C730 1.465 . S
C721 C720 1.264 . S
C721 C723 1.339 . S
C721 H748 0.931 . S
C722 C723 1.395 . S
C722 C724 1.320 . S
C723 C721 1.339 . S
C723 C722 1.395 . S
C723 H749 0.929 . S
C724 C722 1.320 . S
C724 C725 1.405 . S
C724 H750 0.930 . S
C725 C720 1.479 . S
C725 C724 1.405 . S
C725 H751 0.931 . S
U726 O727 2.454 . S
U726 O728 2.458 . S
U726 C729 2.984 . S
U726 C730 2.847 . S
U726 C743 2.882 . S
U726 O744 2.441 . S
U726 O745 2.420 . S
U726 O746 2.455 . S
U726 O747 2.449 . S
O727 U726 2.454 . S
O727 C729 1.353 . S
O728 U726 2.458 . S
O728 C729 1.286 . S
C729 U726 2.984 . S
C729 O727 1.353 . S
C729 O728 1.286 . S
C729 C731 1.363 . S
C730 C720 1.465 . S
C730 U726 2.847 . S
C730 O744 1.249 . S
C730 O745 1.202 . S
C731 C729 1.363 . S
C731 C733 1.408 . S
C731 C736 1.342 . S
C732 C733 1.310 . S
C732 C735 1.461 . S
C732 H752 0.932 . S
C733 C731 1.408 . S
C733 C732 1.310 . S
C733 H753 0.930 . S
C734 C735 1.474 . S
C734 C736 1.285 . S
C734 H754 0.929 . S
C735 C732 1.461 . S
C735 C734 1.474 . S
C736 C731 1.342 . S
C736 C734 1.285 . S
C736 H755 0.930 . S
C737 C740 1.424 . S
C737 C742 1.245 . S
C737 C743 1.428 . S
C738 C741 1.260 . S
C738 C742 1.477 . S
C738 H756 0.932 . S
C739 C740 1.384 . S
C739 C741 1.479 . S
C739 H757 0.929 . S
C740 C737 1.424 . S
C740 C739 1.384 . S
C740 H758 0.928 . S
C741 C738 1.260 . S
C741 C739 1.479 . S
C742 C737 1.245 . S
C742 C738 1.477 . S
C742 H759 0.932 . S
C743 U726 2.882 . S
C743 C737 1.428 . S
C743 O746 1.301 . S
C743 O747 1.282 . S
O744 U726 2.441 . S
O744 C730 1.249 . S
O745 U726 2.420 . S
O745 C730 1.202 . S
O746 U726 2.455 . S
O746 C743 1.301 . S
O747 U726 2.449 . S
O747 C743 1.282 . S
H748 C721 0.931 . S
H749 C723 0.929 . S
H750 C724 0.930 . S
H751 C725 0.931 . S
H752 C732 0.932 . S
H753 C733 0.930 . S
H754 C734 0.929 . S
H755 C736 0.930 . S
H756 C738 0.932 . S
H757 C739 0.929 . S
H758 C740 0.928 . S
H759 C742 0.932 . S
C760 C761 1.264 . S
C760 C765 1.479 . S
C760 C770 1.465 . S
C761 C760 1.264 . S
C761 C763 1.339 . S
C761 H788 0.931 . S
C762 C763 1.395 . S
C762 C764 1.320 . S
C763 C761 1.339 . S
C763 C762 1.395 . S
C763 H789 0.929 . S
C764 C762 1.320 . S
C764 C765 1.405 . S
C764 H790 0.930 . S
C765 C760 1.479 . S
C765 C764 1.405 . S
C765 H791 0.931 . S
U766 O767 2.454 . S
U766 O768 2.458 . S
U766 C769 2.984 . S
U766 C770 2.847 . S
U766 C783 2.882 . S
U766 O784 2.441 . S
U766 O785 2.420 . S
U766 O786 2.455 . S
U766 O787 2.449 . S
O767 U766 2.454 . S
O767 C769 1.353 . S
O768 U766 2.458 . S
O768 C769 1.286 . S
C769 U766 2.984 . S
C769 O767 1.353 . S
C769 O768 1.286 . S
C769 C771 1.363 . S
C770 C760 1.465 . S
C770 U766 2.847 . S
C770 O784 1.249 . S
C770 O785 1.202 . S
C771 C769 1.363 . S
C771 C773 1.408 . S
C771 C776 1.342 . S
C772 C773 1.310 . S
C772 C775 1.461 . S
C772 H792 0.932 . S
C773 C771 1.408 . S
C773 C772 1.310 . S
C773 H793 0.930 . S
C774 C775 1.474 . S
C774 C776 1.285 . S
C774 H794 0.929 . S
C775 C772 1.461 . S
C775 C774 1.474 . S
C776 C771 1.342 . S
C776 C774 1.285 . S
C776 H795 0.930 . S
C777 C780 1.424 . S
C777 C782 1.245 . S
C777 C783 1.428 . S
C778 C781 1.260 . S
C778 C782 1.477 . S
C778 H796 0.932 . S
C779 C780 1.384 . S
C779 C781 1.479 . S
C779 H797 0.929 . S
C780 C777 1.424 . S
C780 C779 1.384 . S
C780 H798 0.928 . S
C781 C778 1.260 . S
C781 C779 1.479 . S
C782 C777 1.245 . S
C782 C778 1.477 . S
C782 H799 0.932 . S
C783 U766 2.882 . S
C783 C777 1.428 . S
C783 O786 1.301 . S
C783 O787 1.282 . S
O784 U766 2.441 . S
O784 C770 1.249 . S
O785 U766 2.420 . S
O785 C770 1.202 . S
O786 U766 2.455 . S
O786 C783 1.301 . S
O787 U766 2.449 . S
O787 C783 1.282 . S
H788 C761 0.931 . S
H789 C763 0.929 . S
H790 C764 0.930 . S
H791 C765 0.931 . S
H792 C772 0.932 . S
H793 C773 0.930 . S
H794 C774 0.929 . S
H795 C776 0.930 . S
H796 C778 0.932 . S
H797 C779 0.929 . S
H798 C780 0.928 . S
H799 C782 0.932 . S
C800 C801 1.264 . S
C800 C805 1.479 . S
C800 C810 1.465 . S
C801 C800 1.264 . S
C801 C803 1.339 . S
C801 H828 0.931 . S
C802 C803 1.395 . S
C802 C804 1.320 . S
C803 C801 1.339 . S
C803 C802 1.395 . S
C803 H829 0.929 . S
C804 C802 1.320 . S
C804 C805 1.405 . S
C804 H830 0.930 . S
C805 C800 1.479 . S
C805 C804 1.405 . S
C805 H831 0.931 . S
U806 O807 2.454 . S
U806 O808 2.458 . S
U806 C809 2.984 . S
U806 C810 2.847 . S
U806 C823 2.882 . S
U806 O824 2.441 . S
U806 O825 2.420 . S
U806 O826 2.455 . S
U806 O827 2.449 . S
O807 U806 2.454 . S
O807 C809 1.353 . S
O808 U806 2.458 . S
O808 C809 1.286 . S
C809 U806 2.984 . S
C809 O807 1.353 . S
C809 O808 1.286 . S
C809 C811 1.363 . S
C810 C800 1.465 . S
C810 U806 2.847 . S
C810 O824 1.249 . S
C810 O825 1.202 . S
C811 C809 1.363 . S
C811 C813 1.408 . S
C811 C816 1.342 . S
C812 C813 1.310 . S
C812 C815 1.461 . S
C812 H832 0.932 . S
C813 C811 1.408 . S
C813 C812 1.310 . S
C813 H833 0.930 . S
C814 C815 1.474 . S
C814 C816 1.285 . S
C814 H834 0.929 . S
C815 C812 1.461 . S
C815 C814 1.474 . S
C816 C811 1.342 . S
C816 C814 1.285 . S
C816 H835 0.930 . S
C817 C820 1.424 . S
C817 C822 1.245 . S
C817 C823 1.428 . S
C818 C821 1.260 . S
C818 C822 1.477 . S
C818 H836 0.932 . S
C819 C820 1.384 . S
C819 C821 1.479 . S
C819 H837 0.929 . S
C820 C817 1.424 . S
C820 C819 1.384 . S
C820 H838 0.928 . S
C821 C818 1.260 . S
C821 C819 1.479 . S
C822 C817 1.245 . S
C822 C818 1.477 . S
C822 H839 0.932 . S
C823 U806 2.882 . S
C823 C817 1.428 . S
C823 O826 1.301 . S
C823 O827 1.282 . S
O824 U806 2.441 . S
O824 C810 1.249 . S
O825 U806 2.420 . S
O825 C810 1.202 . S
O826 U806 2.455 . S
O826 C823 1.301 . S
O827 U806 2.449 . S
O827 C823 1.282 . S
H828 C801 0.931 . S
H829 C803 0.929 . S
H830 C804 0.930 . S
H831 C805 0.931 . S
H832 C812 0.932 . S
H833 C813 0.930 . S
H834 C814 0.929 . S
H835 C816 0.930 . S
H836 C818 0.932 . S
H837 C819 0.929 . S
H838 C820 0.928 . S
H839 C822 0.932 . S
C840 C841 1.264 . S
C840 C845 1.479 . S
C840 C850 1.465 . S
C841 C840 1.264 . S
C841 C843 1.339 . S
C841 H868 0.931 . S
C842 C843 1.395 . S
C842 C844 1.320 . S
C843 C841 1.339 . S
C843 C842 1.395 . S
C843 H869 0.929 . S
C844 C842 1.320 . S
C844 C845 1.405 . S
C844 H870 0.930 . S
C845 C840 1.479 . S
C845 C844 1.405 . S
C845 H871 0.931 . S
U846 O847 2.454 . S
U846 O848 2.458 . S
U846 C849 2.984 . S
U846 C850 2.847 . S
U846 C863 2.882 . S
U846 O864 2.441 . S
U846 O865 2.420 . S
U846 O866 2.455 . S
U846 O867 2.449 . S
O847 U846 2.454 . S
O847 C849 1.353 . S
O848 U846 2.458 . S
O848 C849 1.286 . S
C849 U846 2.984 . S
C849 O847 1.353 . S
C849 O848 1.286 . S
C849 C851 1.363 . S
C850 C840 1.465 . S
C850 U846 2.847 . S
C850 O864 1.249 . S
C850 O865 1.202 . S
C851 C849 1.363 . S
C851 C853 1.408 . S
C851 C856 1.342 . S
C852 C853 1.310 . S
C852 C855 1.461 . S
C852 H872 0.932 . S
C853 C851 1.408 . S
C853 C852 1.310 . S
C853 H873 0.930 . S
C854 C855 1.474 . S
C854 C856 1.285 . S
C854 H874 0.929 . S
C855 C852 1.461 . S
C855 C854 1.474 . S
C856 C851 1.342 . S
C856 C854 1.285 . S
C856 H875 0.930 . S
C857 C860 1.424 . S
C857 C862 1.245 . S
C857 C863 1.428 . S
C858 C861 1.260 . S
C858 C862 1.477 . S
C858 H876 0.932 . S
C859 C860 1.384 . S
C859 C861 1.479 . S
C859 H877 0.929 . S
C860 C857 1.424 . S
C860 C859 1.384 . S
C860 H878 0.928 . S
C861 C858 1.260 . S
C861 C859 1.479 . S
C862 C857 1.245 . S
C862 C858 1.477 . S
C862 H879 0.932 . S
C863 U846 2.882 . S
C863 C857 1.428 . S
C863 O866 1.301 . S
C863 O867 1.282 . S
O864 U846 2.441 . S
O864 C850 1.249 . S
O865 U846 2.420 . S
O865 C850 1.202 . S
O866 U846 2.455 . S
O866 C863 1.301 . S
O867 U846 2.449 . S
O867 C863 1.282 . S
H868 C841 0.931 . S
H869 C843 0.929 . S
H870 C844 0.930 . S
H871 C845 0.931 . S
H872 C852 0.932 . S
H873 C853 0.930 . S
H874 C854 0.929 . S
H875 C856 0.930 . S
H876 C858 0.932 . S
H877 C859 0.929 . S
H878 C860 0.928 . S
H879 C862 0.932 . S
C880 C881 1.264 . S
C880 C885 1.479 . S
C880 C890 1.465 . S
C881 C880 1.264 . S
C881 C883 1.339 . S
C881 H908 0.931 . S
C882 C883 1.395 . S
C882 C884 1.320 . S
C883 C881 1.339 . S
C883 C882 1.395 . S
C883 H909 0.929 . S
C884 C882 1.320 . S
C884 C885 1.405 . S
C884 H910 0.930 . S
C885 C880 1.479 . S
C885 C884 1.405 . S
C885 H911 0.931 . S
U886 O887 2.454 . S
U886 O888 2.458 . S
U886 C889 2.984 . S
U886 C890 2.847 . S
U886 C903 2.882 . S
U886 O904 2.441 . S
U886 O905 2.420 . S
U886 O906 2.455 . S
U886 O907 2.449 . S
O887 U886 2.454 . S
O887 C889 1.353 . S
O888 U886 2.458 . S
O888 C889 1.286 . S
C889 U886 2.984 . S
C889 O887 1.353 . S
C889 O888 1.286 . S
C889 C891 1.363 . S
C890 C880 1.465 . S
C890 U886 2.847 . S
C890 O904 1.249 . S
C890 O905 1.202 . S
C891 C889 1.363 . S
C891 C893 1.408 . S
C891 C896 1.342 . S
C892 C893 1.310 . S
C892 C895 1.461 . S
C892 H912 0.932 . S
C893 C891 1.408 . S
C893 C892 1.310 . S
C893 H913 0.930 . S
C894 C895 1.474 . S
C894 C896 1.285 . S
C894 H914 0.929 . S
C895 C892 1.461 . S
C895 C894 1.474 . S
C896 C891 1.342 . S
C896 C894 1.285 . S
C896 H915 0.930 . S
C897 C900 1.424 . S
C897 C902 1.245 . S
C897 C903 1.428 . S
C898 C901 1.260 . S
C898 C902 1.477 . S
C898 H916 0.932 . S
C899 C900 1.384 . S
C899 C901 1.479 . S
C899 H917 0.929 . S
C900 C897 1.424 . S
C900 C899 1.384 . S
C900 H918 0.928 . S
C901 C898 1.260 . S
C901 C899 1.479 . S
C902 C897 1.245 . S
C902 C898 1.477 . S
C902 H919 0.932 . S
C903 U886 2.882 . S
C903 C897 1.428 . S
C903 O906 1.301 . S
C903 O907 1.282 . S
O904 U886 2.441 . S
O904 C890 1.249 . S
O905 U886 2.420 . S
O905 C890 1.202 . S
O906 U886 2.455 . S
O906 C903 1.301 . S
O907 U886 2.449 . S
O907 C903 1.282 . S
H908 C881 0.931 . S
H909 C883 0.929 . S
H910 C884 0.930 . S
H911 C885 0.931 . S
H912 C892 0.932 . S
H913 C893 0.930 . S
H914 C894 0.929 . S
H915 C896 0.930 . S
H916 C898 0.932 . S
H917 C899 0.929 . S
H918 C900 0.928 . S
H919 C902 0.932 . S
C920 C921 1.264 . S
C920 C925 1.479 . S
C920 C930 1.465 . S
C921 C920 1.264 . S
C921 C923 1.339 . S
C921 H948 0.931 . S
C922 C923 1.395 . S
C922 C924 1.320 . S
C923 C921 1.339 . S
C923 C922 1.395 . S
C923 H949 0.929 . S
C924 C922 1.320 . S
C924 C925 1.405 . S
C924 H950 0.930 . S
C925 C920 1.479 . S
C925 C924 1.405 . S
C925 H951 0.931 . S
U926 O927 2.454 . S
U926 O928 2.458 . S
U926 C929 2.984 . S
U926 C930 2.847 . S
U926 C943 2.882 . S
U926 O944 2.441 . S
U926 O945 2.420 . S
U926 O946 2.455 . S
U926 O947 2.449 . S
O927 U926 2.454 . S
O927 C929 1.353 . S
O928 U926 2.458 . S
O928 C929 1.286 . S
C929 U926 2.984 . S
C929 O927 1.353 . S
C929 O928 1.286 . S
C929 C931 1.363 . S
C930 C920 1.465 . S
C930 U926 2.847 . S
C930 O944 1.249 . S
C930 O945 1.202 . S
C931 C929 1.363 . S
C931 C933 1.408 . S
C931 C936 1.342 . S
C932 C933 1.310 . S
C932 C935 1.461 . S
C932 H952 0.932 . S
C933 C931 1.408 . S
C933 C932 1.310 . S
C933 H953 0.930 . S
C934 C935 1.474 . S
C934 C936 1.285 . S
C934 H954 0.929 . S
C935 C932 1.461 . S
C935 C934 1.474 . S
C936 C931 1.342 . S
C936 C934 1.285 . S
C936 H955 0.930 . S
C937 C940 1.424 . S
C937 C942 1.245 . S
C937 C943 1.428 . S
C938 C941 1.260 . S
C938 C942 1.477 . S
C938 H956 0.932 . S
C939 C940 1.384 . S
C939 C941 1.479 . S
C939 H957 0.929 . S
C940 C937 1.424 . S
C940 C939 1.384 . S
C940 H958 0.928 . S
C941 C938 1.260 . S
C941 C939 1.479 . S
C942 C937 1.245 . S
C942 C938 1.477 . S
C942 H959 0.932 . S
C943 U926 2.882 . S
C943 C937 1.428 . S
C943 O946 1.301 . S
C943 O947 1.282 . S
O944 U926 2.441 . S
O944 C930 1.249 . S
O945 U926 2.420 . S
O945 C930 1.202 . S
O946 U926 2.455 . S
O946 C943 1.301 . S
O947 U926 2.449 . S
O947 C943 1.282 . S
H948 C921 0.931 . S
H949 C923 0.929 . S
H950 C924 0.930 . S
H951 C925 0.931 . S
H952 C932 0.932 . S
H953 C933 0.930 . S
H954 C934 0.929 . S
H955 C936 0.930 . S
H956 C938 0.932 . S
H957 C939 0.929 . S
H958 C940 0.928 . S
H959 C942 0.932 . S
C960 C961 1.264 . S
C960 C965 1.479 . S
C960 C970 1.465 . S
C961 C960 1.264 . S
C961 C963 1.339 . S
C961 H988 0.931 . S
C962 C963 1.395 . S
C962 C964 1.320 . S
C963 C961 1.339 . S
C963 C962 1.395 . S
C963 H989 0.929 . S
C964 C962 1.320 . S
C964 C965 1.405 . S
C964 H990 0.930 . S
C965 C960 1.479 . S
C965 C964 1.405 . S
C965 H991 0.931 . S
U966 O967 2.454 . S
U966 O968 2.458 . S
U966 C969 2.984 . S
U966 C970 2.847 . S
U966 C983 2.882 . S
U966 O984 2.441 . S
U966 O985 2.420 . S
U966 O986 2.455 . S
U966 O987 2.449 . S
O967 U966 2.454 . S
O967 C969 1.353 . S
O968 U966 2.458 . S
O968 C969 1.286 . S
C969 U966 2.984 . S
C969 O967 1.353 . S
C969 O968 1.286 . S
C969 C971 1.363 . S
C970 C960 1.465 . S
C970 U966 2.847 . S
C970 O984 1.249 . S
C970 O985 1.202 . S
C971 C969 1.363 . S
C971 C973 1.408 . S
C971 C976 1.342 . S
C972 C973 1.310 . S
C972 C975 1.461 . S
C972 H992 0.932 . S
C973 C971 1.408 . S
C973 C972 1.310 . S
C973 H993 0.930 . S
C974 C975 1.474 . S
C974 C976 1.285 . S
C974 H994 0.929 . S
C975 C972 1.461 . S
C975 C974 1.474 . S
C976 C971 1.342 . S
C976 C974 1.285 . S
C976 H995 0.930 . S
C977 C980 1.424 . S
C977 C982 1.245 . S
C977 C983 1.428 . S
C978 C981 1.260 . S
C978 C982 1.477 . S
C978 H996 0.932 . S
C979 C980 1.384 . S
C979 C981 1.479 . S
C979 H997 0.929 . S
C980 C977 1.424 . S
C980 C979 1.384 . S
C980 H998 0.928 . S
C981 C978 1.260 . S
C981 C979 1.479 . S
C982 C977 1.245 . S
C982 C978 1.477 . S
C982 H999 0.932 . S
C983 U966 2.882 . S
C983 C977 1.428 . S
C983 O986 1.301 . S
C983 O987 1.282 . S
O984 U966 2.441 . S
O984 C970 1.249 . S
O985 U966 2.420 . S
O985 C970 1.202 . S
O986 U966 2.455 . S
O986 C983 1.301 . S
O987 U966 2.449 . S
O987 C983 1.282 . S
H988 C961 0.931 . S
H989 C963 0.929 . S
H990 C964 0.930 . S
H991 C965 0.931 . S
H992 C972 0.932 . S
H993 C973 0.930 . S
H994 C974 0.929 . S
H995 C976 0.930 . S
H996 C978 0.932 . S
H997 C979 0.929 . S
H998 C980 0.928 . S
H999 C982 0.932 . S
C1000 C1001 1.264 . S
C1000 C1005 1.479 . S
C1000 C1010 1.465 . S
C1001 C1000 1.264 . S
C1001 C1003 1.339 . S
C1001 H1028 0.931 . S
C1002 C1003 1.395 . S
C1002 C1004 1.320 . S
C1003 C1001 1.339 . S
C1003 C1002 1.395 . S
C1003 H1029 0.929 . S
C1004 C1002 1.320 . S
C1004 C1005 1.405 . S
C1004 H1030 0.930 . S
C1005 C1000 1.479 . S
C1005 C1004 1.405 . S
C1005 H1031 0.931 . S
U1006 O1007 2.454 . S
U1006 O1008 2.458 . S
U1006 C1009 2.984 . S
U1006 C1010 2.847 . S
U1006 C1023 2.882 . S
U1006 O1024 2.441 . S
U1006 O1025 2.420 . S
U1006 O1026 2.455 . S
U1006 O1027 2.449 . S
O1007 U1006 2.454 . S
O1007 C1009 1.353 . S
O1008 U1006 2.458 . S
O1008 C1009 1.286 . S
C1009 U1006 2.984 . S
C1009 O1007 1.353 . S
C1009 O1008 1.286 . S
C1009 C1011 1.363 . S
C1010 C1000 1.465 . S
C1010 U1006 2.847 . S
C1010 O1024 1.249 . S
C1010 O1025 1.202 . S
C1011 C1009 1.363 . S
C1011 C1013 1.408 . S
C1011 C1016 1.342 . S
C1012 C1013 1.310 . S
C1012 C1015 1.461 . S
C1012 H1032 0.932 . S
C1013 C1011 1.408 . S
C1013 C1012 1.310 . S
C1013 H1033 0.930 . S
C1014 C1015 1.474 . S
C1014 C1016 1.285 . S
C1014 H1034 0.929 . S
C1015 C1012 1.461 . S
C1015 C1014 1.474 . S
C1016 C1011 1.342 . S
C1016 C1014 1.285 . S
C1016 H1035 0.930 . S
C1017 C1020 1.424 . S
C1017 C1022 1.245 . S
C1017 C1023 1.428 . S
C1018 C1021 1.260 . S
C1018 C1022 1.477 . S
C1018 H1036 0.932 . S
C1019 C1020 1.384 . S
C1019 C1021 1.479 . S
C1019 H1037 0.929 . S
C1020 C1017 1.424 . S
C1020 C1019 1.384 . S
C1020 H1038 0.928 . S
C1021 C1018 1.260 . S
C1021 C1019 1.479 . S
C1022 C1017 1.245 . S
C1022 C1018 1.477 . S
C1022 H1039 0.932 . S
C1023 U1006 2.882 . S
C1023 C1017 1.428 . S
C1023 O1026 1.301 . S
C1023 O1027 1.282 . S
O1024 U1006 2.441 . S
O1024 C1010 1.249 . S
O1025 U1006 2.420 . S
O1025 C1010 1.202 . S
O1026 U1006 2.455 . S
O1026 C1023 1.301 . S
O1027 U1006 2.449 . S
O1027 C1023 1.282 . S
H1028 C1001 0.931 . S
H1029 C1003 0.929 . S
H1030 C1004 0.930 . S
H1031 C1005 0.931 . S
H1032 C1012 0.932 . S
H1033 C1013 0.930 . S
H1034 C1014 0.929 . S
H1035 C1016 0.930 . S
H1036 C1018 0.932 . S
H1037 C1019 0.929 . S
H1038 C1020 0.928 . S
H1039 C1022 0.932 . S
C1040 C1041 1.264 . S
C1040 C1045 1.479 . S
C1040 C1050 1.465 . S
C1041 C1040 1.264 . S
C1041 C1043 1.339 . S
C1041 H1068 0.931 . S
C1042 C1043 1.395 . S
C1042 C1044 1.320 . S
C1043 C1041 1.339 . S
C1043 C1042 1.395 . S
C1043 H1069 0.929 . S
C1044 C1042 1.320 . S
C1044 C1045 1.405 . S
C1044 H1070 0.930 . S
C1045 C1040 1.479 . S
C1045 C1044 1.405 . S
C1045 H1071 0.931 . S
U1046 O1047 2.454 . S
U1046 O1048 2.458 . S
U1046 C1049 2.984 . S
U1046 C1050 2.847 . S
U1046 C1063 2.882 . S
U1046 O1064 2.441 . S
U1046 O1065 2.420 . S
U1046 O1066 2.455 . S
U1046 O1067 2.449 . S
O1047 U1046 2.454 . S
O1047 C1049 1.353 . S
O1048 U1046 2.458 . S
O1048 C1049 1.286 . S
C1049 U1046 2.984 . S
C1049 O1047 1.353 . S
C1049 O1048 1.286 . S
C1049 C1051 1.363 . S
C1050 C1040 1.465 . S
C1050 U1046 2.847 . S
C1050 O1064 1.249 . S
C1050 O1065 1.202 . S
C1051 C1049 1.363 . S
C1051 C1053 1.408 . S
C1051 C1056 1.342 . S
C1052 C1053 1.310 . S
C1052 C1055 1.461 . S
C1052 H1072 0.932 . S
C1053 C1051 1.408 . S
C1053 C1052 1.310 . S
C1053 H1073 0.930 . S
C1054 C1055 1.474 . S
C1054 C1056 1.285 . S
C1054 H1074 0.929 . S
C1055 C1052 1.461 . S
C1055 C1054 1.474 . S
C1056 C1051 1.342 . S
C1056 C1054 1.285 . S
C1056 H1075 0.930 . S
C1057 C1060 1.424 . S
C1057 C1062 1.245 . S
C1057 C1063 1.428 . S
C1058 C1061 1.260 . S
C1058 C1062 1.477 . S
C1058 H1076 0.932 . S
C1059 C1060 1.384 . S
C1059 C1061 1.479 . S
C1059 H1077 0.929 . S
C1060 C1057 1.424 . S
C1060 C1059 1.384 . S
C1060 H1078 0.928 . S
C1061 C1058 1.260 . S
C1061 C1059 1.479 . S
C1062 C1057 1.245 . S
C1062 C1058 1.477 . S
C1062 H1079 0.932 . S
C1063 U1046 2.882 . S
C1063 C1057 1.428 . S
C1063 O1066 1.301 . S
C1063 O1067 1.282 . S
O1064 U1046 2.441 . S
O1064 C1050 1.249 . S
O1065 U1046 2.420 . S
O1065 C1050 1.202 . S
O1066 U1046 2.455 . S
O1066 C1063 1.301 . S
O1067 U1046 2.449 . S
O1067 C1063 1.282 . S
H1068 C1041 0.931 . S
H1069 C1043 0.929 . S
H1070 C1044 0.930 . S
H1071 C1045 0.931 . S
H1072 C1052 0.932 . S
H1073 C1053 0.930 . S
H1074 C1054 0.929 . S
H1075 C1056 0.930 . S
H1076 C1058 0.932 . S
H1077 C1059 0.929 . S
H1078 C1060 0.928 . S
H1079 C1062 0.932 . S
C1080 C1081 1.264 . S
C1080 C1085 1.479 . S
C1080 C1090 1.465 . S
C1081 C1080 1.264 . S
C1081 C1083 1.339 . S
C1081 H1108 0.931 . S
C1082 C1083 1.395 . S
C1082 C1084 1.320 . S
C1083 C1081 1.339 . S
C1083 C1082 1.395 . S
C1083 H1109 0.929 . S
C1084 C1082 1.320 . S
C1084 C1085 1.405 . S
C1084 H1110 0.930 . S
C1085 C1080 1.479 . S
C1085 C1084 1.405 . S
C1085 H1111 0.931 . S
U1086 O1087 2.454 . S
U1086 O1088 2.458 . S
U1086 C1089 2.984 . S
U1086 C1090 2.847 . S
U1086 C1103 2.882 . S
U1086 O1104 2.441 . S
U1086 O1105 2.420 . S
U1086 O1106 2.455 . S
U1086 O1107 2.449 . S
O1087 U1086 2.454 . S
O1087 C1089 1.353 . S
O1088 U1086 2.458 . S
O1088 C1089 1.286 . S
C1089 U1086 2.984 . S
C1089 O1087 1.353 . S
C1089 O1088 1.286 . S
C1089 C1091 1.363 . S
C1090 C1080 1.465 . S
C1090 U1086 2.847 . S
C1090 O1104 1.249 . S
C1090 O1105 1.202 . S
C1091 C1089 1.363 . S
C1091 C1093 1.408 . S
C1091 C1096 1.342 . S
C1092 C1093 1.310 . S
C1092 C1095 1.461 . S
C1092 H1112 0.932 . S
C1093 C1091 1.408 . S
C1093 C1092 1.310 . S
C1093 H1113 0.930 . S
C1094 C1095 1.474 . S
C1094 C1096 1.285 . S
C1094 H1114 0.929 . S
C1095 C1092 1.461 . S
C1095 C1094 1.474 . S
C1096 C1091 1.342 . S
C1096 C1094 1.285 . S
C1096 H1115 0.930 . S
C1097 C1100 1.424 . S
C1097 C1102 1.245 . S
C1097 C1103 1.428 . S
C1098 C1101 1.260 . S
C1098 C1102 1.477 . S
C1098 H1116 0.932 . S
C1099 C1100 1.384 . S
C1099 C1101 1.479 . S
C1099 H1117 0.929 . S
C1100 C1097 1.424 . S
C1100 C1099 1.384 . S
C1100 H1118 0.928 . S
C1101 C1098 1.260 . S
C1101 C1099 1.479 . S
C1102 C1097 1.245 . S
C1102 C1098 1.477 . S
C1102 H1119 0.932 . S
C1103 U1086 2.882 . S
C1103 C1097 1.428 . S
C1103 O1106 1.301 . S
C1103 O1107 1.282 . S
O1104 U1086 2.441 . S
O1104 C1090 1.249 . S
O1105 U1086 2.420 . S
O1105 C1090 1.202 . S
O1106 U1086 2.455 . S
O1106 C1103 1.301 . S
O1107 U1086 2.449 . S
O1107 C1103 1.282 . S
H1108 C1081 0.931 . S
H1109 C1083 0.929 . S
H1110 C1084 0.930 . S
H1111 C1085 0.931 . S
H1112 C1092 0.932 . S
H1113 C1093 0.930 . S
H1114 C1094 0.929 . S
H1115 C1096 0.930 . S
H1116 C1098 0.932 . S
H1117 C1099 0.929 . S
H1118 C1100 0.928 . S
H1119 C1102 0.932 . S
C1120 C1121 1.264 . S
C1120 C1125 1.479 . S
C1120 C1130 1.465 . S
C1121 C1120 1.264 . S
C1121 C1123 1.339 . S
C1121 H1148 0.931 . S
C1122 C1123 1.395 . S
C1122 C1124 1.320 . S
C1123 C1121 1.339 . S
C1123 C1122 1.395 . S
C1123 H1149 0.929 . S
C1124 C1122 1.320 . S
C1124 C1125 1.405 . S
C1124 H1150 0.930 . S
C1125 C1120 1.479 . S
C1125 C1124 1.405 . S
C1125 H1151 0.931 . S
U1126 O1127 2.454 . S
U1126 O1128 2.458 . S
U1126 C1129 2.984 . S
U1126 C1130 2.847 . S
U1126 C1143 2.882 . S
U1126 O1144 2.441 . S
U1126 O1145 2.420 . S
U1126 O1146 2.455 . S
U1126 O1147 2.449 . S
O1127 U1126 2.454 . S
O1127 C1129 1.353 . S
O1128 U1126 2.458 . S
O1128 C1129 1.286 . S
C1129 U1126 2.984 . S
C1129 O1127 1.353 . S
C1129 O1128 1.286 . S
C1129 C1131 1.363 . S
C1130 C1120 1.465 . S
C1130 U1126 2.847 . S
C1130 O1144 1.249 . S
C1130 O1145 1.202 . S
C1131 C1129 1.363 . S
C1131 C1133 1.408 . S
C1131 C1136 1.342 . S
C1132 C1133 1.310 . S
C1132 C1135 1.461 . S
C1132 H1152 0.932 . S
C1133 C1131 1.408 . S
C1133 C1132 1.310 . S
C1133 H1153 0.930 . S
C1134 C1135 1.474 . S
C1134 C1136 1.285 . S
C1134 H1154 0.929 . S
C1135 C1132 1.461 . S
C1135 C1134 1.474 . S
C1136 C1131 1.342 . S
C1136 C1134 1.285 . S
C1136 H1155 0.930 . S
C1137 C1140 1.424 . S
C1137 C1142 1.245 . S
C1137 C1143 1.428 . S
C1138 C1141 1.260 . S
C1138 C1142 1.477 . S
C1138 H1156 0.932 . S
C1139 C1140 1.384 . S
C1139 C1141 1.479 . S
C1139 H1157 0.929 . S
C1140 C1137 1.424 . S
C1140 C1139 1.384 . S
C1140 H1158 0.928 . S
C1141 C1138 1.260 . S
C1141 C1139 1.479 . S
C1142 C1137 1.245 . S
C1142 C1138 1.477 . S
C1142 H1159 0.932 . S
C1143 U1126 2.882 . S
C1143 C1137 1.428 . S
C1143 O1146 1.301 . S
C1143 O1147 1.282 . S
O1144 U1126 2.441 . S
O1144 C1130 1.249 . S
O1145 U1126 2.420 . S
O1145 C1130 1.202 . S
O1146 U1126 2.455 . S
O1146 C1143 1.301 . S
O1147 U1126 2.449 . S
O1147 C1143 1.282 . S
H1148 C1121 0.931 . S
H1149 C1123 0.929 . S
H1150 C1124 0.930 . S
H1151 C1125 0.931 . S
H1152 C1132 0.932 . S
H1153 C1133 0.930 . S
H1154 C1134 0.929 . S
H1155 C1136 0.930 . S
H1156 C1138 0.932 . S
H1157 C1139 0.929 . S
H1158 C1140 0.928 . S
H1159 C1142 0.932 . S
C1160 C1161 1.264 . S
C1160 C1165 1.479 . S
C1160 C1170 1.465 . S
C1161 C1160 1.264 . S
C1161 C1163 1.339 . S
C1161 H1188 0.931 . S
C1162 C1163 1.395 . S
C1162 C1164 1.320 . S
C1163 C1161 1.339 . S
C1163 C1162 1.395 . S
C1163 H1189 0.929 . S
C1164 C1162 1.320 . S
C1164 C1165 1.405 . S
C1164 H1190 0.930 . S
C1165 C1160 1.479 . S
C1165 C1164 1.405 . S
C1165 H1191 0.931 . S
U1166 O1167 2.454 . S
U1166 O1168 2.458 . S
U1166 C1169 2.984 . S
U1166 C1170 2.847 . S
U1166 C1183 2.882 . S
U1166 O1184 2.441 . S
U1166 O1185 2.420 . S
U1166 O1186 2.455 . S
U1166 O1187 2.449 . S
O1167 U1166 2.454 . S
O1167 C1169 1.353 . S
O1168 U1166 2.458 . S
O1168 C1169 1.286 . S
C1169 U1166 2.984 . S
C1169 O1167 1.353 . S
C1169 O1168 1.286 . S
C1169 C1171 1.363 . S
C1170 C1160 1.465 . S
C1170 U1166 2.847 . S
C1170 O1184 1.249 . S
C1170 O1185 1.202 . S
C1171 C1169 1.363 . S
C1171 C1173 1.408 . S
C1171 C1176 1.342 . S
C1172 C1173 1.310 . S
C1172 C1175 1.461 . S
C1172 H1192 0.932 . S
C1173 C1171 1.408 . S
C1173 C1172 1.310 . S
C1173 H1193 0.930 . S
C1174 C1175 1.474 . S
C1174 C1176 1.285 . S
C1174 H1194 0.929 . S
C1175 C1172 1.461 . S
C1175 C1174 1.474 . S
C1176 C1171 1.342 . S
C1176 C1174 1.285 . S
C1176 H1195 0.930 . S
C1177 C1180 1.424 . S
C1177 C1182 1.245 . S
C1177 C1183 1.428 . S
C1178 C1181 1.260 . S
C1178 C1182 1.477 . S
C1178 H1196 0.932 . S
C1179 C1180 1.384 . S
C1179 C1181 1.479 . S
C1179 H1197 0.929 . S
C1180 C1177 1.424 . S
C1180 C1179 1.384 . S
C1180 H1198 0.928 . S
C1181 C1178 1.260 . S
C1181 C1179 1.479 . S
C1182 C1177 1.245 . S
C1182 C1178 1.477 . S
C1182 H1199 0.932 . S
C1183 U1166 2.882 . S
C1183 C1177 1.428 . S
C1183 O1186 1.301 . S
C1183 O1187 1.282 . S
O1184 U1166 2.441 . S
O1184 C1170 1.249 . S
O1185 U1166 2.420 . S
O1185 C1170 1.202 . S
O1186 U1166 2.455 . S
O1186 C1183 1.301 . S
O1187 U1166 2.449 . S
O1187 C1183 1.282 . S
H1188 C1161 0.931 . S
H1189 C1163 0.929 . S
H1190 C1164 0.930 . S
H1191 C1165 0.931 . S
H1192 C1172 0.932 . S
H1193 C1173 0.930 . S
H1194 C1174 0.929 . S
H1195 C1176 0.930 . S
H1196 C1178 0.932 . S
H1197 C1179 0.929 . S
H1198 C1180 0.928 . S
H1199 C1182 0.932 . S
C1200 C1201 1.264 . S
C1200 C1205 1.479 . S
C1200 C1210 1.465 . S
C1201 C1200 1.264 . S
C1201 C1203 1.339 . S
C1201 H1228 0.931 . S
C1202 C1203 1.395 . S
C1202 C1204 1.320 . S
C1203 C1201 1.339 . S
C1203 C1202 1.395 . S
C1203 H1229 0.929 . S
C1204 C1202 1.320 . S
C1204 C1205 1.405 . S
C1204 H1230 0.930 . S
C1205 C1200 1.479 . S
C1205 C1204 1.405 . S
C1205 H1231 0.931 . S
U1206 O1207 2.454 . S
U1206 O1208 2.458 . S
U1206 C1209 2.984 . S
U1206 C1210 2.847 . S
U1206 C1223 2.882 . S
U1206 O1224 2.441 . S
U1206 O1225 2.420 . S
U1206 O1226 2.455 . S
U1206 O1227 2.449 . S
O1207 U1206 2.454 . S
O1207 C1209 1.353 . S
O1208 U1206 2.458 . S
O1208 C1209 1.286 . S
C1209 U1206 2.984 . S
C1209 O1207 1.353 . S
C1209 O1208 1.286 . S
C1209 C1211 1.363 . S
C1210 C1200 1.465 . S
C1210 U1206 2.847 . S
C1210 O1224 1.249 . S
C1210 O1225 1.202 . S
C1211 C1209 1.363 . S
C1211 C1213 1.408 . S
C1211 C1216 1.342 . S
C1212 C1213 1.310 . S
C1212 C1215 1.461 . S
C1212 H1232 0.932 . S
C1213 C1211 1.408 . S
C1213 C1212 1.310 . S
C1213 H1233 0.930 . S
C1214 C1215 1.474 . S
C1214 C1216 1.285 . S
C1214 H1234 0.929 . S
C1215 C1212 1.461 . S
C1215 C1214 1.474 . S
C1216 C1211 1.342 . S
C1216 C1214 1.285 . S
C1216 H1235 0.930 . S
C1217 C1220 1.424 . S
C1217 C1222 1.245 . S
C1217 C1223 1.428 . S
C1218 C1221 1.260 . S
C1218 C1222 1.477 . S
C1218 H1236 0.932 . S
C1219 C1220 1.384 . S
C1219 C1221 1.479 . S
C1219 H1237 0.929 . S
C1220 C1217 1.424 . S
C1220 C1219 1.384 . S
C1220 H1238 0.928 . S
C1221 C1218 1.260 . S
C1221 C1219 1.479 . S
C1222 C1217 1.245 . S
C1222 C1218 1.477 . S
C1222 H1239 0.932 . S
C1223 U1206 2.882 . S
C1223 C1217 1.428 . S
C1223 O1226 1.301 . S
C1223 O1227 1.282 . S
O1224 U1206 2.441 . S
O1224 C1210 1.249 . S
O1225 U1206 2.420 . S
O1225 C1210 1.202 . S
O1226 U1206 2.455 . S
O1226 C1223 1.301 . S
O1227 U1206 2.449 . S
O1227 C1223 1.282 . S
H1228 C1201 0.931 . S
H1229 C1203 0.929 . S
H1230 C1204 0.930 . S
H1231 C1205 0.931 . S
H1232 C1212 0.932 . S
H1233 C1213 0.930 . S
H1234 C1214 0.929 . S
H1235 C1216 0.930 . S
H1236 C1218 0.932 . S
H1237 C1219 0.929 . S
H1238 C1220 0.928 . S
H1239 C1222 0.932 . S
C1240 C1241 1.264 . S
C1240 C1245 1.479 . S
C1240 C1250 1.465 . S
C1241 C1240 1.264 . S
C1241 C1243 1.339 . S
C1241 H1268 0.931 . S
C1242 C1243 1.395 . S
C1242 C1244 1.320 . S
C1243 C1241 1.339 . S
C1243 C1242 1.395 . S
C1243 H1269 0.929 . S
C1244 C1242 1.320 . S
C1244 C1245 1.405 . S
C1244 H1270 0.930 . S
C1245 C1240 1.479 . S
C1245 C1244 1.405 . S
C1245 H1271 0.931 . S
U1246 O1247 2.454 . S
U1246 O1248 2.458 . S
U1246 C1249 2.984 . S
U1246 C1250 2.847 . S
U1246 C1263 2.882 . S
U1246 O1264 2.441 . S
U1246 O1265 2.420 . S
U1246 O1266 2.455 . S
U1246 O1267 2.449 . S
O1247 U1246 2.454 . S
O1247 C1249 1.353 . S
O1248 U1246 2.458 . S
O1248 C1249 1.286 . S
C1249 U1246 2.984 . S
C1249 O1247 1.353 . S
C1249 O1248 1.286 . S
C1249 C1251 1.363 . S
C1250 C1240 1.465 . S
C1250 U1246 2.847 . S
C1250 O1264 1.249 . S
C1250 O1265 1.202 . S
C1251 C1249 1.363 . S
C1251 C1253 1.408 . S
C1251 C1256 1.342 . S
C1252 C1253 1.310 . S
C1252 C1255 1.461 . S
C1252 H1272 0.932 . S
C1253 C1251 1.408 . S
C1253 C1252 1.310 . S
C1253 H1273 0.930 . S
C1254 C1255 1.474 . S
C1254 C1256 1.285 . S
C1254 H1274 0.929 . S
C1255 C1252 1.461 . S
C1255 C1254 1.474 . S
C1256 C1251 1.342 . S
C1256 C1254 1.285 . S
C1256 H1275 0.930 . S
C1257 C1260 1.424 . S
C1257 C1262 1.245 . S
C1257 C1263 1.428 . S
C1258 C1261 1.260 . S
C1258 C1262 1.477 . S
C1258 H1276 0.932 . S
C1259 C1260 1.384 . S
C1259 C1261 1.479 . S
C1259 H1277 0.929 . S
C1260 C1257 1.424 . S
C1260 C1259 1.384 . S
C1260 H1278 0.928 . S
C1261 C1258 1.260 . S
C1261 C1259 1.479 . S
C1262 C1257 1.245 . S
C1262 C1258 1.477 . S
C1262 H1279 0.932 . S
C1263 U1246 2.882 . S
C1263 C1257 1.428 . S
C1263 O1266 1.301 . S
C1263 O1267 1.282 . S
O1264 U1246 2.441 . S
O1264 C1250 1.249 . S
O1265 U1246 2.420 . S
O1265 C1250 1.202 . S
O1266 U1246 2.455 . S
O1266 C1263 1.301 . S
O1267 U1246 2.449 . S
O1267 C1263 1.282 . S
H1268 C1241 0.931 . S
H1269 C1243 0.929 . S
H1270 C1244 0.930 . S
H1271 C1245 0.931 . S
H1272 C1252 0.932 . S
H1273 C1253 0.930 . S
H1274 C1254 0.929 . S
H1275 C1256 0.930 . S
H1276 C1258 0.932 . S
H1277 C1259 0.929 . S
H1278 C1260 0.928 . S
H1279 C1262 0.932 . S
C1280 C1281 1.264 . S
C1280 C1285 1.479 . S
C1280 C1290 1.465 . S
C1281 C1280 1.264 . S
C1281 C1283 1.339 . S
C1281 H1308 0.931 . S
C1282 C1283 1.395 . S
C1282 C1284 1.320 . S
C1283 C1281 1.339 . S
C1283 C1282 1.395 . S
C1283 H1309 0.929 . S
C1284 C1282 1.320 . S
C1284 C1285 1.405 . S
C1284 H1310 0.930 . S
C1285 C1280 1.479 . S
C1285 C1284 1.405 . S
C1285 H1311 0.931 . S
U1286 O1287 2.454 . S
U1286 O1288 2.458 . S
U1286 C1289 2.984 . S
U1286 C1290 2.847 . S
U1286 C1303 2.882 . S
U1286 O1304 2.441 . S
U1286 O1305 2.420 . S
U1286 O1306 2.455 . S
U1286 O1307 2.449 . S
O1287 U1286 2.454 . S
O1287 C1289 1.353 . S
O1288 U1286 2.458 . S
O1288 C1289 1.286 . S
C1289 U1286 2.984 . S
C1289 O1287 1.353 . S
C1289 O1288 1.286 . S
C1289 C1291 1.363 . S
C1290 C1280 1.465 . S
C1290 U1286 2.847 . S
C1290 O1304 1.249 . S
C1290 O1305 1.202 . S
C1291 C1289 1.363 . S
C1291 C1293 1.408 . S
C1291 C1296 1.342 . S
C1292 C1293 1.310 . S
C1292 C1295 1.461 . S
C1292 H1312 0.932 . S
C1293 C1291 1.408 . S
C1293 C1292 1.310 . S
C1293 H1313 0.930 . S
C1294 C1295 1.474 . S
C1294 C1296 1.285 . S
C1294 H1314 0.929 . S
C1295 C1292 1.461 . S
C1295 C1294 1.474 . S
C1296 C1291 1.342 . S
C1296 C1294 1.285 . S
C1296 H1315 0.930 . S
C1297 C1300 1.424 . S
C1297 C1302 1.245 . S
C1297 C1303 1.428 . S
C1298 C1301 1.260 . S
C1298 C1302 1.477 . S
C1298 H1316 0.932 . S
C1299 C1300 1.384 . S
C1299 C1301 1.479 . S
C1299 H1317 0.929 . S
C1300 C1297 1.424 . S
C1300 C1299 1.384 . S
C1300 H1318 0.928 . S
C1301 C1298 1.260 . S
C1301 C1299 1.479 . S
C1302 C1297 1.245 . S
C1302 C1298 1.477 . S
C1302 H1319 0.932 . S
C1303 U1286 2.882 . S
C1303 C1297 1.428 . S
C1303 O1306 1.301 . S
C1303 O1307 1.282 . S
O1304 U1286 2.441 . S
O1304 C1290 1.249 . S
O1305 U1286 2.420 . S
O1305 C1290 1.202 . S
O1306 U1286 2.455 . S
O1306 C1303 1.301 . S
O1307 U1286 2.449 . S
O1307 C1303 1.282 . S
H1308 C1281 0.931 . S
H1309 C1283 0.929 . S
H1310 C1284 0.930 . S
H1311 C1285 0.931 . S
H1312 C1292 0.932 . S
H1313 C1293 0.930 . S
H1314 C1294 0.929 . S
H1315 C1296 0.930 . S
H1316 C1298 0.932 . S
H1317 C1299 0.929 . S
H1318 C1300 0.928 . S
H1319 C1302 0.932 . S
C1320 C1321 1.264 . S
C1320 C1325 1.479 . S
C1320 C1330 1.465 . S
C1321 C1320 1.264 . S
C1321 C1323 1.339 . S
C1321 H1348 0.931 . S
C1322 C1323 1.395 . S
C1322 C1324 1.320 . S
C1323 C1321 1.339 . S
C1323 C1322 1.395 . S
C1323 H1349 0.929 . S
C1324 C1322 1.320 . S
C1324 C1325 1.405 . S
C1324 H1350 0.930 . S
C1325 C1320 1.479 . S
C1325 C1324 1.405 . S
C1325 H1351 0.931 . S
U1326 O1327 2.454 . S
U1326 O1328 2.458 . S
U1326 C1329 2.984 . S
U1326 C1330 2.847 . S
U1326 C1343 2.882 . S
U1326 O1344 2.441 . S
U1326 O1345 2.420 . S
U1326 O1346 2.455 . S
U1326 O1347 2.449 . S
O1327 U1326 2.454 . S
O1327 C1329 1.353 . S
O1328 U1326 2.458 . S
O1328 C1329 1.286 . S
C1329 U1326 2.984 . S
C1329 O1327 1.353 . S
C1329 O1328 1.286 . S
C1329 C1331 1.363 . S
C1330 C1320 1.465 . S
C1330 U1326 2.847 . S
C1330 O1344 1.249 . S
C1330 O1345 1.202 . S
C1331 C1329 1.363 . S
C1331 C1333 1.408 . S
C1331 C1336 1.342 . S
C1332 C1333 1.310 . S
C1332 C1335 1.461 . S
C1332 H1352 0.932 . S
C1333 C1331 1.408 . S
C1333 C1332 1.310 . S
C1333 H1353 0.930 . S
C1334 C1335 1.474 . S
C1334 C1336 1.285 . S
C1334 H1354 0.929 . S
C1335 C1332 1.461 . S
C1335 C1334 1.474 . S
C1336 C1331 1.342 . S
C1336 C1334 1.285 . S
C1336 H1355 0.930 . S
C1337 C1340 1.424 . S
C1337 C1342 1.245 . S
C1337 C1343 1.428 . S
C1338 C1341 1.260 . S
C1338 C1342 1.477 . S
C1338 H1356 0.932 . S
C1339 C1340 1.384 . S
C1339 C1341 1.479 . S
C1339 H1357 0.929 . S
C1340 C1337 1.424 . S
C1340 C1339 1.384 . S
C1340 H1358 0.928 . S
C1341 C1338 1.260 . S
C1341 C1339 1.479 . S
C1342 C1337 1.245 . S
C1342 C1338 1.477 . S
C1342 H1359 0.932 . S
C1343 U1326 2.882 . S
C1343 C1337 1.428 . S
C1343 O1346 1.301 . S
C1343 O1347 1.282 . S
O1344 U1326 2.441 . S
O1344 C1330 1.249 . S
O1345 U1326 2.420 . S
O1345 C1330 1.202 . S
O1346 U1326 2.455 . S
O1346 C1343 1.301 . S
O1347 U1326 2.449 . S
O1347 C1343 1.282 . S
H1348 C1321 0.931 . S
H1349 C1323 0.929 . S
H1350 C1324 0.930 . S
H1351 C1325 0.931 . S
H1352 C1332 0.932 . S
H1353 C1333 0.930 . S
H1354 C1334 0.929 . S
H1355 C1336 0.930 . S
H1356 C1338 0.932 . S
H1357 C1339 0.929 . S
H1358 C1340 0.928 . S
H1359 C1342 0.932 . S
C1360 C1361 1.264 . S
C1360 C1365 1.479 . S
C1360 C1370 1.465 . S
C1361 C1360 1.264 . S
C1361 C1363 1.339 . S
C1361 H1388 0.931 . S
C1362 C1363 1.395 . S
C1362 C1364 1.320 . S
C1363 C1361 1.339 . S
C1363 C1362 1.395 . S
C1363 H1389 0.929 . S
C1364 C1362 1.320 . S
C1364 C1365 1.405 . S
C1364 H1390 0.930 . S
C1365 C1360 1.479 . S
C1365 C1364 1.405 . S
C1365 H1391 0.931 . S
U1366 O1367 2.454 . S
U1366 O1368 2.458 . S
U1366 C1369 2.984 . S
U1366 C1370 2.847 . S
U1366 C1383 2.882 . S
U1366 O1384 2.441 . S
U1366 O1385 2.420 . S
U1366 O1386 2.455 . S
U1366 O1387 2.449 . S
O1367 U1366 2.454 . S
O1367 C1369 1.353 . S
O1368 U1366 2.458 . S
O1368 C1369 1.286 . S
C1369 U1366 2.984 . S
C1369 O1367 1.353 . S
C1369 O1368 1.286 . S
C1369 C1371 1.363 . S
C1370 C1360 1.465 . S
C1370 U1366 2.847 . S
C1370 O1384 1.249 . S
C1370 O1385 1.202 . S
C1371 C1369 1.363 . S
C1371 C1373 1.408 . S
C1371 C1376 1.342 . S
C1372 C1373 1.310 . S
C1372 C1375 1.461 . S
C1372 H1392 0.932 . S
C1373 C1371 1.408 . S
C1373 C1372 1.310 . S
C1373 H1393 0.930 . S
C1374 C1375 1.474 . S
C1374 C1376 1.285 . S
C1374 H1394 0.929 . S
C1375 C1372 1.461 . S
C1375 C1374 1.474 . S
C1376 C1371 1.342 . S
C1376 C1374 1.285 . S
C1376 H1395 0.930 . S
C1377 C1380 1.424 . S
C1377 C1382 1.245 . S
C1377 C1383 1.428 . S
C1378 C1381 1.260 . S
C1378 C1382 1.477 . S
C1378 H1396 0.932 . S
C1379 C1380 1.384 . S
C1379 C1381 1.479 . S
C1379 H1397 0.929 . S
C1380 C1377 1.424 . S
C1380 C1379 1.384 . S
C1380 H1398 0.928 . S
C1381 C1378 1.260 . S
C1381 C1379 1.479 . S
C1382 C1377 1.245 . S
C1382 C1378 1.477 . S
C1382 H1399 0.932 . S
C1383 U1366 2.882 . S
C1383 C1377 1.428 . S
C1383 O1386 1.301 . S
C1383 O1387 1.282 . S
O1384 U1366 2.441 . S
O1384 C1370 1.249 . S
O1385 U1366 2.420 . S
O1385 C1370 1.202 . S
O1386 U1366 2.455 . S
O1386 C1383 1.301 . S
O1387 U1366 2.449 . S
O1387 C1383 1.282 . S
H1388 C1361 0.931 . S
H1389 C1363 0.929 . S
H1390 C1364 0.930 . S
H1391 C1365 0.931 . S
H1392 C1372 0.932 . S
H1393 C1373 0.930 . S
H1394 C1374 0.929 . S
H1395 C1376 0.930 . S
H1396 C1378 0.932 . S
H1397 C1379 0.929 . S
H1398 C1380 0.928 . S
H1399 C1382 0.932 . S
C1400 C1401 1.264 . S
C1400 C1405 1.479 . S
C1400 C1410 1.465 . S
C1401 C1400 1.264 . S
C1401 C1403 1.339 . S
C1401 H1428 0.931 . S
C1402 C1403 1.395 . S
C1402 C1404 1.320 . S
C1403 C1401 1.339 . S
C1403 C1402 1.395 . S
C1403 H1429 0.929 . S
C1404 C1402 1.320 . S
C1404 C1405 1.405 . S
C1404 H1430 0.930 . S
C1405 C1400 1.479 . S
C1405 C1404 1.405 . S
C1405 H1431 0.931 . S
U1406 O1407 2.454 . S
U1406 O1408 2.458 . S
U1406 C1409 2.984 . S
U1406 C1410 2.847 . S
U1406 C1423 2.882 . S
U1406 O1424 2.441 . S
U1406 O1425 2.420 . S
U1406 O1426 2.455 . S
U1406 O1427 2.449 . S
O1407 U1406 2.454 . S
O1407 C1409 1.353 . S
O1408 U1406 2.458 . S
O1408 C1409 1.286 . S
C1409 U1406 2.984 . S
C1409 O1407 1.353 . S
C1409 O1408 1.286 . S
C1409 C1411 1.363 . S
C1410 C1400 1.465 . S
C1410 U1406 2.847 . S
C1410 O1424 1.249 . S
C1410 O1425 1.202 . S
C1411 C1409 1.363 . S
C1411 C1413 1.408 . S
C1411 C1416 1.342 . S
C1412 C1413 1.310 . S
C1412 C1415 1.461 . S
C1412 H1432 0.932 . S
C1413 C1411 1.408 . S
C1413 C1412 1.310 . S
C1413 H1433 0.930 . S
C1414 C1415 1.474 . S
C1414 C1416 1.285 . S
C1414 H1434 0.929 . S
C1415 C1412 1.461 . S
C1415 C1414 1.474 . S
C1416 C1411 1.342 . S
C1416 C1414 1.285 . S
C1416 H1435 0.930 . S
C1417 C1420 1.424 . S
C1417 C1422 1.245 . S
C1417 C1423 1.428 . S
C1418 C1421 1.260 . S
C1418 C1422 1.477 . S
C1418 H1436 0.932 . S
C1419 C1420 1.384 . S
C1419 C1421 1.479 . S
C1419 H1437 0.929 . S
C1420 C1417 1.424 . S
C1420 C1419 1.384 . S
C1420 H1438 0.928 . S
C1421 C1418 1.260 . S
C1421 C1419 1.479 . S
C1422 C1417 1.245 . S
C1422 C1418 1.477 . S
C1422 H1439 0.932 . S
C1423 U1406 2.882 . S
C1423 C1417 1.428 . S
C1423 O1426 1.301 . S
C1423 O1427 1.282 . S
O1424 U1406 2.441 . S
O1424 C1410 1.249 . S
O1425 U1406 2.420 . S
O1425 C1410 1.202 . S
O1426 U1406 2.455 . S
O1426 C1423 1.301 . S
O1427 U1406 2.449 . S
O1427 C1423 1.282 . S
H1428 C1401 0.931 . S
H1429 C1403 0.929 . S
H1430 C1404 0.930 . S
H1431 C1405 0.931 . S
H1432 C1412 0.932 . S
H1433 C1413 0.930 . S
H1434 C1414 0.929 . S
H1435 C1416 0.930 . S
H1436 C1418 0.932 . S
H1437 C1419 0.929 . S
H1438 C1420 0.928 . S
H1439 C1422 0.932 . S
C1440 C1441 1.264 . S
C1440 C1445 1.479 . S
C1440 C1450 1.465 . S
C1441 C1440 1.264 . S
C1441 C1443 1.339 . S
C1441 H1468 0.931 . S
C1442 C1443 1.395 . S
C1442 C1444 1.320 . S
C1443 C1441 1.339 . S
C1443 C1442 1.395 . S
C1443 H1469 0.929 . S
C1444 C1442 1.320 . S
C1444 C1445 1.405 . S
C1444 H1470 0.930 . S
C1445 C1440 1.479 . S
C1445 C1444 1.405 . S
C1445 H1471 0.931 . S
U1446 O1447 2.454 . S
U1446 O1448 2.458 . S
U1446 C1449 2.984 . S
U1446 C1450 2.847 . S
U1446 C1463 2.882 . S
U1446 O1464 2.441 . S
U1446 O1465 2.420 . S
U1446 O1466 2.455 . S
U1446 O1467 2.449 . S
O1447 U1446 2.454 . S
O1447 C1449 1.353 . S
O1448 U1446 2.458 . S
O1448 C1449 1.286 . S
C1449 U1446 2.984 . S
C1449 O1447 1.353 . S
C1449 O1448 1.286 . S
C1449 C1451 1.363 . S
C1450 C1440 1.465 . S
C1450 U1446 2.847 . S
C1450 O1464 1.249 . S
C1450 O1465 1.202 . S
C1451 C1449 1.363 . S
C1451 C1453 1.408 . S
C1451 C1456 1.342 . S
C1452 C1453 1.310 . S
C1452 C1455 1.461 . S
C1452 H1472 0.932 . S
C1453 C1451 1.408 . S
C1453 C1452 1.310 . S
C1453 H1473 0.930 . S
C1454 C1455 1.474 . S
C1454 C1456 1.285 . S
C1454 H1474 0.929 . S
C1455 C1452 1.461 . S
C1455 C1454 1.474 . S
C1456 C1451 1.342 . S
C1456 C1454 1.285 . S
C1456 H1475 0.930 . S
C1457 C1460 1.424 . S
C1457 C1462 1.245 . S
C1457 C1463 1.428 . S
C1458 C1461 1.260 . S
C1458 C1462 1.477 . S
C1458 H1476 0.932 . S
C1459 C1460 1.384 . S
C1459 C1461 1.479 . S
C1459 H1477 0.929 . S
C1460 C1457 1.424 . S
C1460 C1459 1.384 . S
C1460 H1478 0.928 . S
C1461 C1458 1.260 . S
C1461 C1459 1.479 . S
C1462 C1457 1.245 . S
C1462 C1458 1.477 . S
C1462 H1479 0.932 . S
C1463 U1446 2.882 . S
C1463 C1457 1.428 . S
C1463 O1466 1.301 . S
C1463 O1467 1.282 . S
O1464 U1446 2.441 . S
O1464 C1450 1.249 . S
O1465 U1446 2.420 . S
O1465 C1450 1.202 . S
O1466 U1446 2.455 . S
O1466 C1463 1.301 . S
O1467 U1446 2.449 . S
O1467 C1463 1.282 . S
H1468 C1441 0.931 . S
H1469 C1443 0.929 . S
H1470 C1444 0.930 . S
H1471 C1445 0.931 . S
H1472 C1452 0.932 . S
H1473 C1453 0.930 . S
H1474 C1454 0.929 . S
H1475 C1456 0.930 . S
H1476 C1458 0.932 . S
H1477 C1459 0.929 . S
H1478 C1460 0.928 . S
H1479 C1462 0.932 . S
C1480 C1481 1.264 . S
C1480 C1485 1.479 . S
C1480 C1490 1.465 . S
C1481 C1480 1.264 . S
C1481 C1483 1.339 . S
C1481 H1508 0.931 . S
C1482 C1483 1.395 . S
C1482 C1484 1.320 . S
C1483 C1481 1.339 . S
C1483 C1482 1.395 . S
C1483 H1509 0.929 . S
C1484 C1482 1.320 . S
C1484 C1485 1.405 . S
C1484 H1510 0.930 . S
C1485 C1480 1.479 . S
C1485 C1484 1.405 . S
C1485 H1511 0.931 . S
U1486 O1487 2.454 . S
U1486 O1488 2.458 . S
U1486 C1489 2.984 . S
U1486 C1490 2.847 . S
U1486 C1503 2.882 . S
U1486 O1504 2.441 . S
U1486 O1505 2.420 . S
U1486 O1506 2.455 . S
U1486 O1507 2.449 . S
O1487 U1486 2.454 . S
O1487 C1489 1.353 . S
O1488 U1486 2.458 . S
O1488 C1489 1.286 . S
C1489 U1486 2.984 . S
C1489 O1487 1.353 . S
C1489 O1488 1.286 . S
C1489 C1491 1.363 . S
C1490 C1480 1.465 . S
C1490 U1486 2.847 . S
C1490 O1504 1.249 . S
C1490 O1505 1.202 . S
C1491 C1489 1.363 . S
C1491 C1493 1.408 . S
C1491 C1496 1.342 . S
C1492 C1493 1.310 . S
C1492 C1495 1.461 . S
C1492 H1512 0.932 . S
C1493 C1491 1.408 . S
C1493 C1492 1.310 . S
C1493 H1513 0.930 . S
C1494 C1495 1.474 . S
C1494 C1496 1.285 . S
C1494 H1514 0.929 . S
C1495 C1492 1.461 . S
C1495 C1494 1.474 . S
C1496 C1491 1.342 . S
C1496 C1494 1.285 . S
C1496 H1515 0.930 . S
C1497 C1500 1.424 . S
C1497 C1502 1.245 . S
C1497 C1503 1.428 . S
C1498 C1501 1.260 . S
C1498 C1502 1.477 . S
C1498 H1516 0.932 . S
C1499 C1500 1.384 . S
C1499 C1501 1.479 . S
C1499 H1517 0.929 . S
C1500 C1497 1.424 . S
C1500 C1499 1.384 . S
C1500 H1518 0.928 . S
C1501 C1498 1.260 . S
C1501 C1499 1.479 . S
C1502 C1497 1.245 . S
C1502 C1498 1.477 . S
C1502 H1519 0.932 . S
C1503 U1486 2.882 . S
C1503 C1497 1.428 . S
C1503 O1506 1.301 . S
C1503 O1507 1.282 . S
O1504 U1486 2.441 . S
O1504 C1490 1.249 . S
O1505 U1486 2.420 . S
O1505 C1490 1.202 . S
O1506 U1486 2.455 . S
O1506 C1503 1.301 . S
O1507 U1486 2.449 . S
O1507 C1503 1.282 . S
H1508 C1481 0.931 . S
H1509 C1483 0.929 . S
H1510 C1484 0.930 . S
H1511 C1485 0.931 . S
H1512 C1492 0.932 . S
H1513 C1493 0.930 . S
H1514 C1494 0.929 . S
H1515 C1496 0.930 . S
H1516 C1498 0.932 . S
H1517 C1499 0.929 . S
H1518 C1500 0.928 . S
H1519 C1502 0.932 . S
C1520 C1521 1.264 . S
C1520 C1525 1.479 . S
C1520 C1530 1.465 . S
C1521 C1520 1.264 . S
C1521 C1523 1.339 . S
C1521 H1548 0.931 . S
C1522 C1523 1.395 . S
C1522 C1524 1.320 . S
C1523 C1521 1.339 . S
C1523 C1522 1.395 . S
C1523 H1549 0.929 . S
C1524 C1522 1.320 . S
C1524 C1525 1.405 . S
C1524 H1550 0.930 . S
C1525 C1520 1.479 . S
C1525 C1524 1.405 . S
C1525 H1551 0.931 . S
U1526 O1527 2.454 . S
U1526 O1528 2.458 . S
U1526 C1529 2.984 . S
U1526 C1530 2.847 . S
U1526 C1543 2.882 . S
U1526 O1544 2.441 . S
U1526 O1545 2.420 . S
U1526 O1546 2.455 . S
U1526 O1547 2.449 . S
O1527 U1526 2.454 . S
O1527 C1529 1.353 . S
O1528 U1526 2.458 . S
O1528 C1529 1.286 . S
C1529 U1526 2.984 . S
C1529 O1527 1.353 . S
C1529 O1528 1.286 . S
C1529 C1531 1.363 . S
C1530 C1520 1.465 . S
C1530 U1526 2.847 . S
C1530 O1544 1.249 . S
C1530 O1545 1.202 . S
C1531 C1529 1.363 . S
C1531 C1533 1.408 . S
C1531 C1536 1.342 . S
C1532 C1533 1.310 . S
C1532 C1535 1.461 . S
C1532 H1552 0.932 . S
C1533 C1531 1.408 . S
C1533 C1532 1.310 . S
C1533 H1553 0.930 . S
C1534 C1535 1.474 . S
C1534 C1536 1.285 . S
C1534 H1554 0.929 . S
C1535 C1532 1.461 . S
C1535 C1534 1.474 . S
C1536 C1531 1.342 . S
C1536 C1534 1.285 . S
C1536 H1555 0.930 . S
C1537 C1540 1.424 . S
C1537 C1542 1.245 . S
C1537 C1543 1.428 . S
C1538 C1541 1.260 . S
C1538 C1542 1.477 . S
C1538 H1556 0.932 . S
C1539 C1540 1.384 . S
C1539 C1541 1.479 . S
C1539 H1557 0.929 . S
C1540 C1537 1.424 . S
C1540 C1539 1.384 . S
C1540 H1558 0.928 . S
C1541 C1538 1.260 . S
C1541 C1539 1.479 . S
C1542 C1537 1.245 . S
C1542 C1538 1.477 . S
C1542 H1559 0.932 . S
C1543 U1526 2.882 . S
C1543 C1537 1.428 . S
C1543 O1546 1.301 . S
C1543 O1547 1.282 . S
O1544 U1526 2.441 . S
O1544 C1530 1.249 . S
O1545 U1526 2.420 . S
O1545 C1530 1.202 . S
O1546 U1526 2.455 . S
O1546 C1543 1.301 . S
O1547 U1526 2.449 . S
O1547 C1543 1.282 . S
H1548 C1521 0.931 . S
H1549 C1523 0.929 . S
H1550 C1524 0.930 . S
H1551 C1525 0.931 . S
H1552 C1532 0.932 . S
H1553 C1533 0.930 . S
H1554 C1534 0.929 . S
H1555 C1536 0.930 . S
H1556 C1538 0.932 . S
H1557 C1539 0.929 . S
H1558 C1540 0.928 . S
H1559 C1542 0.932 . S
C1560 C1561 1.264 . S
C1560 C1565 1.479 . S
C1560 C1570 1.465 . S
C1561 C1560 1.264 . S
C1561 C1563 1.339 . S
C1561 H1588 0.931 . S
C1562 C1563 1.395 . S
C1562 C1564 1.320 . S
C1563 C1561 1.339 . S
C1563 C1562 1.395 . S
C1563 H1589 0.929 . S
C1564 C1562 1.320 . S
C1564 C1565 1.405 . S
C1564 H1590 0.930 . S
C1565 C1560 1.479 . S
C1565 C1564 1.405 . S
C1565 H1591 0.931 . S
U1566 O1567 2.454 . S
U1566 O1568 2.458 . S
U1566 C1569 2.984 . S
U1566 C1570 2.847 . S
U1566 C1583 2.882 . S
U1566 O1584 2.441 . S
U1566 O1585 2.420 . S
U1566 O1586 2.455 . S
U1566 O1587 2.449 . S
O1567 U1566 2.454 . S
O1567 C1569 1.353 . S
O1568 U1566 2.458 . S
O1568 C1569 1.286 . S
C1569 U1566 2.984 . S
C1569 O1567 1.353 . S
C1569 O1568 1.286 . S
C1569 C1571 1.363 . S
C1570 C1560 1.465 . S
C1570 U1566 2.847 . S
C1570 O1584 1.249 . S
C1570 O1585 1.202 . S
C1571 C1569 1.363 . S
C1571 C1573 1.408 . S
C1571 C1576 1.342 . S
C1572 C1573 1.310 . S
C1572 C1575 1.461 . S
C1572 H1592 0.932 . S
C1573 C1571 1.408 . S
C1573 C1572 1.310 . S
C1573 H1593 0.930 . S
C1574 C1575 1.474 . S
C1574 C1576 1.285 . S
C1574 H1594 0.929 . S
C1575 C1572 1.461 . S
C1575 C1574 1.474 . S
C1576 C1571 1.342 . S
C1576 C1574 1.285 . S
C1576 H1595 0.930 . S
C1577 C1580 1.424 . S
C1577 C1582 1.245 . S
C1577 C1583 1.428 . S
C1578 C1581 1.260 . S
C1578 C1582 1.477 . S
C1578 H1596 0.932 . S
C1579 C1580 1.384 . S
C1579 C1581 1.479 . S
C1579 H1597 0.929 . S
C1580 C1577 1.424 . S
C1580 C1579 1.384 . S
C1580 H1598 0.928 . S
C1581 C1578 1.260 . S
C1581 C1579 1.479 . S
C1582 C1577 1.245 . S
C1582 C1578 1.477 . S
C1582 H1599 0.932 . S
C1583 U1566 2.882 . S
C1583 C1577 1.428 . S
C1583 O1586 1.301 . S
C1583 O1587 1.282 . S
O1584 U1566 2.441 . S
O1584 C1570 1.249 . S
O1585 U1566 2.420 . S
O1585 C1570 1.202 . S
O1586 U1566 2.455 . S
O1586 C1583 1.301 . S
O1587 U1566 2.449 . S
O1587 C1583 1.282 . S
H1588 C1561 0.931 . S
H1589 C1563 0.929 . S
H1590 C1564 0.930 . S
H1591 C1565 0.931 . S
H1592 C1572 0.932 . S
H1593 C1573 0.930 . S
H1594 C1574 0.929 . S
H1595 C1576 0.930 . S
H1596 C1578 0.932 . S
H1597 C1579 0.929 . S
H1598 C1580 0.928 . S
H1599 C1582 0.932 . S
C1600 C1601 1.264 . S
C1600 C1605 1.479 . S
C1600 C1610 1.465 . S
C1601 C1600 1.264 . S
C1601 C1603 1.339 . S
C1601 H1628 0.931 . S
C1602 C1603 1.395 . S
C1602 C1604 1.320 . S
C1603 C1601 1.339 . S
C1603 C1602 1.395 . S
C1603 H1629 0.929 . S
C1604 C1602 1.320 . S
C1604 C1605 1.405 . S
C1604 H1630 0.930 . S
C1605 C1600 1.479 . S
C1605 C1604 1.405 . S
C1605 H1631 0.931 . S
U1606 O1607 2.454 . S
U1606 O1608 2.458 . S
U1606 C1609 2.984 . S
U1606 C1610 2.847 . S
U1606 C1623 2.882 . S
U1606 O1624 2.441 . S
U1606 O1625 2.420 . S
U1606 O1626 2.455 . S
U1606 O1627 2.449 . S
O1607 U1606 2.454 . S
O1607 C1609 1.353 . S
O1608 U1606 2.458 . S
O1608 C1609 1.286 . S
C1609 U1606 2.984 . S
C1609 O1607 1.353 . S
C1609 O1608 1.286 . S
C1609 C1611 1.363 . S
C1610 C1600 1.465 . S
C1610 U1606 2.847 . S
C1610 O1624 1.249 . S
C1610 O1625 1.202 . S
C1611 C1609 1.363 . S
C1611 C1613 1.408 . S
C1611 C1616 1.342 . S
C1612 C1613 1.310 . S
C1612 C1615 1.461 . S
C1612 H1632 0.932 . S
C1613 C1611 1.408 . S
C1613 C1612 1.310 . S
C1613 H1633 0.930 . S
C1614 C1615 1.474 . S
C1614 C1616 1.285 . S
C1614 H1634 0.929 . S
C1615 C1612 1.461 . S
C1615 C1614 1.474 . S
C1616 C1611 1.342 . S
C1616 C1614 1.285 . S
C1616 H1635 0.930 . S
C1617 C1620 1.424 . S
C1617 C1622 1.245 . S
C1617 C1623 1.428 . S
C1618 C1621 1.260 . S
C1618 C1622 1.477 . S
C1618 H1636 0.932 . S
C1619 C1620 1.384 . S
C1619 C1621 1.479 . S
C1619 H1637 0.929 . S
C1620 C1617 1.424 . S
C1620 C1619 1.384 . S
C1620 H1638 0.928 . S
C1621 C1618 1.260 . S
C1621 C1619 1.479 . S
C1622 C1617 1.245 . S
C1622 C1618 1.477 . S
C1622 H1639 0.932 . S
C1623 U1606 2.882 . S
C1623 C1617 1.428 . S
C1623 O1626 1.301 . S
C1623 O1627 1.282 . S
O1624 U1606 2.441 . S
O1624 C1610 1.249 . S
O1625 U1606 2.420 . S
O1625 C1610 1.202 . S
O1626 U1606 2.455 . S
O1626 C1623 1.301 . S
O1627 U1606 2.449 . S
O1627 C1623 1.282 . S
H1628 C1601 0.931 . S
H1629 C1603 0.929 . S
H1630 C1604 0.930 . S
H1631 C1605 0.931 . S
H1632 C1612 0.932 . S
H1633 C1613 0.930 . S
H1634 C1614 0.929 . S
H1635 C1616 0.930 . S
H1636 C1618 0.932 . S
H1637 C1619 0.929 . S
H1638 C1620 0.928 . S
H1639 C1622 0.932 . S
C1640 C1641 1.264 . S
C1640 C1645 1.479 . S
C1640 C1650 1.465 . S
C1641 C1640 1.264 . S
C1641 C1643 1.339 . S
C1641 H1668 0.931 . S
C1642 C1643 1.395 . S
C1642 C1644 1.320 . S
C1643 C1641 1.339 . S
C1643 C1642 1.395 . S
C1643 H1669 0.929 . S
C1644 C1642 1.320 . S
C1644 C1645 1.405 . S
C1644 H1670 0.930 . S
C1645 C1640 1.479 . S
C1645 C1644 1.405 . S
C1645 H1671 0.931 . S
U1646 O1647 2.454 . S
U1646 O1648 2.458 . S
U1646 C1649 2.984 . S
U1646 C1650 2.847 . S
U1646 C1663 2.882 . S
U1646 O1664 2.441 . S
U1646 O1665 2.420 . S
U1646 O1666 2.455 . S
U1646 O1667 2.449 . S
O1647 U1646 2.454 . S
O1647 C1649 1.353 . S
O1648 U1646 2.458 . S
O1648 C1649 1.286 . S
C1649 U1646 2.984 . S
C1649 O1647 1.353 . S
C1649 O1648 1.286 . S
C1649 C1651 1.363 . S
C1650 C1640 1.465 . S
C1650 U1646 2.847 . S
C1650 O1664 1.249 . S
C1650 O1665 1.202 . S
C1651 C1649 1.363 . S
C1651 C1653 1.408 . S
C1651 C1656 1.342 . S
C1652 C1653 1.310 . S
C1652 C1655 1.461 . S
C1652 H1672 0.932 . S
C1653 C1651 1.408 . S
C1653 C1652 1.310 . S
C1653 H1673 0.930 . S
C1654 C1655 1.474 . S
C1654 C1656 1.285 . S
C1654 H1674 0.929 . S
C1655 C1652 1.461 . S
C1655 C1654 1.474 . S
C1656 C1651 1.342 . S
C1656 C1654 1.285 . S
C1656 H1675 0.930 . S
C1657 C1660 1.424 . S
C1657 C1662 1.245 . S
C1657 C1663 1.428 . S
C1658 C1661 1.260 . S
C1658 C1662 1.477 . S
C1658 H1676 0.932 . S
C1659 C1660 1.384 . S
C1659 C1661 1.479 . S
C1659 H1677 0.929 . S
C1660 C1657 1.424 . S
C1660 C1659 1.384 . S
C1660 H1678 0.928 . S
C1661 C1658 1.260 . S
C1661 C1659 1.479 . S
C1662 C1657 1.245 . S
C1662 C1658 1.477 . S
C1662 H1679 0.932 . S
C1663 U1646 2.882 . S
C1663 C1657 1.428 . S
C1663 O1666 1.301 . S
C1663 O1667 1.282 . S
O1664 U1646 2.441 . S
O1664 C1650 1.249 . S
O1665 U1646 2.420 . S
O1665 C1650 1.202 . S
O1666 U1646 2.455 . S
O1666 C1663 1.301 . S
O1667 U1646 2.449 . S
O1667 C1663 1.282 . S
H1668 C1641 0.931 . S
H1669 C1643 0.929 . S
H1670 C1644 0.930 . S
H1671 C1645 0.931 . S
H1672 C1652 0.932 . S
H1673 C1653 0.930 . S
H1674 C1654 0.929 . S
H1675 C1656 0.930 . S
H1676 C1658 0.932 . S
H1677 C1659 0.929 . S
H1678 C1660 0.928 . S
H1679 C1662 0.932 . S
C1680 C1681 1.264 . S
C1680 C1685 1.479 . S
C1680 C1690 1.465 . S
C1681 C1680 1.264 . S
C1681 C1683 1.339 . S
C1681 H1708 0.931 . S
C1682 C1683 1.395 . S
C1682 C1684 1.320 . S
C1683 C1681 1.339 . S
C1683 C1682 1.395 . S
C1683 H1709 0.929 . S
C1684 C1682 1.320 . S
C1684 C1685 1.405 . S
C1684 H1710 0.930 . S
C1685 C1680 1.479 . S
C1685 C1684 1.405 . S
C1685 H1711 0.931 . S
U1686 O1687 2.454 . S
U1686 O1688 2.458 . S
U1686 C1689 2.984 . S
U1686 C1690 2.847 . S
U1686 C1703 2.882 . S
U1686 O1704 2.441 . S
U1686 O1705 2.420 . S
U1686 O1706 2.455 . S
U1686 O1707 2.449 . S
O1687 U1686 2.454 . S
O1687 C1689 1.353 . S
O1688 U1686 2.458 . S
O1688 C1689 1.286 . S
C1689 U1686 2.984 . S
C1689 O1687 1.353 . S
C1689 O1688 1.286 . S
C1689 C1691 1.363 . S
C1690 C1680 1.465 . S
C1690 U1686 2.847 . S
C1690 O1704 1.249 . S
C1690 O1705 1.202 . S
C1691 C1689 1.363 . S
C1691 C1693 1.408 . S
C1691 C1696 1.342 . S
C1692 C1693 1.310 . S
C1692 C1695 1.461 . S
C1692 H1712 0.932 . S
C1693 C1691 1.408 . S
C1693 C1692 1.310 . S
C1693 H1713 0.930 . S
C1694 C1695 1.474 . S
C1694 C1696 1.285 . S
C1694 H1714 0.929 . S
C1695 C1692 1.461 . S
C1695 C1694 1.474 . S
C1696 C1691 1.342 . S
C1696 C1694 1.285 . S
C1696 H1715 0.930 . S
C1697 C1700 1.424 . S
C1697 C1702 1.245 . S
C1697 C1703 1.428 . S
C1698 C1701 1.260 . S
C1698 C1702 1.477 . S
C1698 H1716 0.932 . S
C1699 C1700 1.384 . S
C1699 C1701 1.479 . S
C1699 H1717 0.929 . S
C1700 C1697 1.424 . S
C1700 C1699 1.384 . S
C1700 H1718 0.928 . S
C1701 C1698 1.260 . S
C1701 C1699 1.479 . S
C1702 C1697 1.245 . S
C1702 C1698 1.477 . S
C1702 H1719 0.932 . S
C1703 U1686 2.882 . S
C1703 C1697 1.428 . S
C1703 O1706 1.301 . S
C1703 O1707 1.282 . S
O1704 U1686 2.441 . S
O1704 C1690 1.249 . S
O1705 U1686 2.420 . S
O1705 C1690 1.202 . S
O1706 U1686 2.455 . S
O1706 C1703 1.301 . S
O1707 U1686 2.449 . S
O1707 C1703 1.282 . S
H1708 C1681 0.931 . S
H1709 C1683 0.929 . S
H1710 C1684 0.930 . S
H1711 C1685 0.931 . S
H1712 C1692 0.932 . S
H1713 C1693 0.930 . S
H1714 C1694 0.929 . S
H1715 C1696 0.930 . S
H1716 C1698 0.932 . S
H1717 C1699 0.929 . S
H1718 C1700 0.928 . S
H1719 C1702 0.932 . S
C1720 C1721 1.264 . S
C1720 C1725 1.479 . S
C1720 C1730 1.465 . S
C1721 C1720 1.264 . S
C1721 C1723 1.339 . S
C1721 H1748 0.931 . S
C1722 C1723 1.395 . S
C1722 C1724 1.320 . S
C1723 C1721 1.339 . S
C1723 C1722 1.395 . S
C1723 H1749 0.929 . S
C1724 C1722 1.320 . S
C1724 C1725 1.405 . S
C1724 H1750 0.930 . S
C1725 C1720 1.479 . S
C1725 C1724 1.405 . S
C1725 H1751 0.931 . S
U1726 O1727 2.454 . S
U1726 O1728 2.458 . S
U1726 C1729 2.984 . S
U1726 C1730 2.847 . S
U1726 C1743 2.882 . S
U1726 O1744 2.441 . S
U1726 O1745 2.420 . S
U1726 O1746 2.455 . S
U1726 O1747 2.449 . S
O1727 U1726 2.454 . S
O1727 C1729 1.353 . S
O1728 U1726 2.458 . S
O1728 C1729 1.286 . S
C1729 U1726 2.984 . S
C1729 O1727 1.353 . S
C1729 O1728 1.286 . S
C1729 C1731 1.363 . S
C1730 C1720 1.465 . S
C1730 U1726 2.847 . S
C1730 O1744 1.249 . S
C1730 O1745 1.202 . S
C1731 C1729 1.363 . S
C1731 C1733 1.408 . S
C1731 C1736 1.342 . S
C1732 C1733 1.310 . S
C1732 C1735 1.461 . S
C1732 H1752 0.932 . S
C1733 C1731 1.408 . S
C1733 C1732 1.310 . S
C1733 H1753 0.930 . S
C1734 C1735 1.474 . S
C1734 C1736 1.285 . S
C1734 H1754 0.929 . S
C1735 C1732 1.461 . S
C1735 C1734 1.474 . S
C1736 C1731 1.342 . S
C1736 C1734 1.285 . S
C1736 H1755 0.930 . S
C1737 C1740 1.424 . S
C1737 C1742 1.245 . S
C1737 C1743 1.428 . S
C1738 C1741 1.260 . S
C1738 C1742 1.477 . S
C1738 H1756 0.932 . S
C1739 C1740 1.384 . S
C1739 C1741 1.479 . S
C1739 H1757 0.929 . S
C1740 C1737 1.424 . S
C1740 C1739 1.384 . S
C1740 H1758 0.928 . S
C1741 C1738 1.260 . S
C1741 C1739 1.479 . S
C1742 C1737 1.245 . S
C1742 C1738 1.477 . S
C1742 H1759 0.932 . S
C1743 U1726 2.882 . S
C1743 C1737 1.428 . S
C1743 O1746 1.301 . S
C1743 O1747 1.282 . S
O1744 U1726 2.441 . S
O1744 C1730 1.249 . S
O1745 U1726 2.420 . S
O1745 C1730 1.202 . S
O1746 U1726 2.455 . S
O1746 C1743 1.301 . S
O1747 U1726 2.449 . S
O1747 C1743 1.282 . S
H1748 C1721 0.931 . S
H1749 C1723 0.929 . S
H1750 C1724 0.930 . S
H1751 C1725 0.931 . S
H1752 C1732 0.932 . S
H1753 C1733 0.930 . S
H1754 C1734 0.929 . S
H1755 C1736 0.930 . S
H1756 C1738 0.932 . S
H1757 C1739 0.929 . S
H1758 C1740 0.928 . S
H1759 C1742 0.932 . S
C1760 C1761 1.264 . S
C1760 C1765 1.479 . S
C1760 C1770 1.465 . S
C1761 C1760 1.264 . S
C1761 C1763 1.339 . S
C1761 H1788 0.931 . S
C1762 C1763 1.395 . S
C1762 C1764 1.320 . S
C1763 C1761 1.339 . S
C1763 C1762 1.395 . S
C1763 H1789 0.929 . S
C1764 C1762 1.320 . S
C1764 C1765 1.405 . S
C1764 H1790 0.930 . S
C1765 C1760 1.479 . S
C1765 C1764 1.405 . S
C1765 H1791 0.931 . S
U1766 O1767 2.454 . S
U1766 O1768 2.458 . S
U1766 C1769 2.984 . S
U1766 C1770 2.847 . S
U1766 C1783 2.882 . S
U1766 O1784 2.441 . S
U1766 O1785 2.420 . S
U1766 O1786 2.455 . S
U1766 O1787 2.449 . S
O1767 U1766 2.454 . S
O1767 C1769 1.353 . S
O1768 U1766 2.458 . S
O1768 C1769 1.286 . S
C1769 U1766 2.984 . S
C1769 O1767 1.353 . S
C1769 O1768 1.286 . S
C1769 C1771 1.363 . S
C1770 C1760 1.465 . S
C1770 U1766 2.847 . S
C1770 O1784 1.249 . S
C1770 O1785 1.202 . S
C1771 C1769 1.363 . S
C1771 C1773 1.408 . S
C1771 C1776 1.342 . S
C1772 C1773 1.310 . S
C1772 C1775 1.461 . S
C1772 H1792 0.932 . S
C1773 C1771 1.408 . S
C1773 C1772 1.310 . S
C1773 H1793 0.930 . S
C1774 C1775 1.474 . S
C1774 C1776 1.285 . S
C1774 H1794 0.929 . S
C1775 C1772 1.461 . S
C1775 C1774 1.474 . S
C1776 C1771 1.342 . S
C1776 C1774 1.285 . S
C1776 H1795 0.930 . S
C1777 C1780 1.424 . S
C1777 C1782 1.245 . S
C1777 C1783 1.428 . S
C1778 C1781 1.260 . S
C1778 C1782 1.477 . S
C1778 H1796 0.932 . S
C1779 C1780 1.384 . S
C1779 C1781 1.479 . S
C1779 H1797 0.929 . S
C1780 C1777 1.424 . S
C1780 C1779 1.384 . S
C1780 H1798 0.928 . S
C1781 C1778 1.260 . S
C1781 C1779 1.479 . S
C1782 C1777 1.245 . S
C1782 C1778 1.477 . S
C1782 H1799 0.932 . S
C1783 U1766 2.882 . S
C1783 C1777 1.428 . S
C1783 O1786 1.301 . S
C1783 O1787 1.282 . S
O1784 U1766 2.441 . S
O1784 C1770 1.249 . S
O1785 U1766 2.420 . S
O1785 C1770 1.202 . S
O1786 U1766 2.455 . S
O1786 C1783 1.301 . S
O1787 U1766 2.449 . S
O1787 C1783 1.282 . S
H1788 C1761 0.931 . S
H1789 C1763 0.929 . S
H1790 C1764 0.930 . S
H1791 C1765 0.931 . S
H1792 C1772 0.932 . S
H1793 C1773 0.930 . S
H1794 C1774 0.929 . S
H1795 C1776 0.930 . S
H1796 C1778 0.932 . S
H1797 C1779 0.929 . S
H1798 C1780 0.928 . S
H1799 C1782 0.932 . S
C1800 C1801 1.264 . S
C1800 C1805 1.479 . S
C1800 C1810 1.465 . S
C1801 C1800 1.264 . S
C1801 C1803 1.339 . S
C1801 H1828 0.931 . S
C1802 C1803 1.395 . S
C1802 C1804 1.320 . S
C1803 C1801 1.339 . S
C1803 C1802 1.395 . S
C1803 H1829 0.929 . S
C1804 C1802 1.320 . S
C1804 C1805 1.405 . S
C1804 H1830 0.930 . S
C1805 C1800 1.479 . S
C1805 C1804 1.405 . S
C1805 H1831 0.931 . S
U1806 O1807 2.454 . S
U1806 O1808 2.458 . S
U1806 C1809 2.984 . S
U1806 C1810 2.847 . S
U1806 C1823 2.882 . S
U1806 O1824 2.441 . S
U1806 O1825 2.420 . S
U1806 O1826 2.455 . S
U1806 O1827 2.449 . S
O1807 U1806 2.454 . S
O1807 C1809 1.353 . S
O1808 U1806 2.458 . S
O1808 C1809 1.286 . S
C1809 U1806 2.984 . S
C1809 O1807 1.353 . S
C1809 O1808 1.286 . S
C1809 C1811 1.363 . S
C1810 C1800 1.465 . S
C1810 U1806 2.847 . S
C1810 O1824 1.249 . S
C1810 O1825 1.202 . S
C1811 C1809 1.363 . S
C1811 C1813 1.408 . S
C1811 C1816 1.342 . S
C1812 C1813 1.310 . S
C1812 C1815 1.461 . S
C1812 H1832 0.932 . S
C1813 C1811 1.408 . S
C1813 C1812 1.310 . S
C1813 H1833 0.930 . S
C1814 C1815 1.474 . S
C1814 C1816 1.285 . S
C1814 H1834 0.929 . S
C1815 C1812 1.461 . S
C1815 C1814 1.474 . S
C1816 C1811 1.342 . S
C1816 C1814 1.285 . S
C1816 H1835 0.930 . S
C1817 C1820 1.424 . S
C1817 C1822 1.245 . S
C1817 C1823 1.428 . S
C1818 C1821 1.260 . S
C1818 C1822 1.477 . S
C1818 H1836 0.932 . S
C1819 C1820 1.384 . S
C1819 C1821 1.479 . S
C1819 H1837 0.929 . S
C1820 C1817 1.424 . S
C1820 C1819 1.384 . S
C1820 H1838 0.928 . S
C1821 C1818 1.260 . S
C1821 C1819 1.479 . S
C1822 C1817 1.245 . S
C1822 C1818 1.477 . S
C1822 H1839 0.932 . S
C1823 U1806 2.882 . S
C1823 C1817 1.428 . S
C1823 O1826 1.301 . S
C1823 O1827 1.282 . S
O1824 U1806 2.441 . S
O1824 C1810 1.249 . S
O1825 U1806 2.420 . S
O1825 C1810 1.202 . S
O1826 U1806 2.455 . S
O1826 C1823 1.301 . S
O1827 U1806 2.449 . S
O1827 C1823 1.282 . S
H1828 C1801 0.931 . S
H1829 C1803 0.929 . S
H1830 C1804 0.930 . S
H1831 C1805 0.931 . S
H1832 C1812 0.932 . S
H1833 C1813 0.930 . S
H1834 C1814 0.929 . S
H1835 C1816 0.930 . S
H1836 C1818 0.932 . S
H1837 C1819 0.929 . S
H1838 C1820 0.928 . S
H1839 C1822 0.932 . S
C1840 C1841 1.264 . S
C1840 C1845 1.479 . S
C1840 C1850 1.465 . S
C1841 C1840 1.264 . S
C1841 C1843 1.339 . S
C1841 H1868 0.931 . S
C1842 C1843 1.395 . S
C1842 C1844 1.320 . S
C1843 C1841 1.339 . S
C1843 C1842 1.395 . S
C1843 H1869 0.929 . S
C1844 C1842 1.320 . S
C1844 C1845 1.405 . S
C1844 H1870 0.930 . S
C1845 C1840 1.479 . S
C1845 C1844 1.405 . S
C1845 H1871 0.931 . S
U1846 O1847 2.454 . S
U1846 O1848 2.458 . S
U1846 C1849 2.984 . S
U1846 C1850 2.847 . S
U1846 C1863 2.882 . S
U1846 O1864 2.441 . S
U1846 O1865 2.420 . S
U1846 O1866 2.455 . S
U1846 O1867 2.449 . S
O1847 U1846 2.454 . S
O1847 C1849 1.353 . S
O1848 U1846 2.458 . S
O1848 C1849 1.286 . S
C1849 U1846 2.984 . S
C1849 O1847 1.353 . S
C1849 O1848 1.286 . S
C1849 C1851 1.363 . S
C1850 C1840 1.465 . S
C1850 U1846 2.847 . S
C1850 O1864 1.249 . S
C1850 O1865 1.202 . S
C1851 C1849 1.363 . S
C1851 C1853 1.408 . S
C1851 C1856 1.342 . S
C1852 C1853 1.310 . S
C1852 C1855 1.461 . S
C1852 H1872 0.932 . S
C1853 C1851 1.408 . S
C1853 C1852 1.310 . S
C1853 H1873 0.930 . S
C1854 C1855 1.474 . S
C1854 C1856 1.285 . S
C1854 H1874 0.929 . S
C1855 C1852 1.461 . S
C1855 C1854 1.474 . S
C1856 C1851 1.342 . S
C1856 C1854 1.285 . S
C1856 H1875 0.930 . S
C1857 C1860 1.424 . S
C1857 C1862 1.245 . S
C1857 C1863 1.428 . S
C1858 C1861 1.260 . S
C1858 C1862 1.477 . S
C1858 H1876 0.932 . S
C1859 C1860 1.384 . S
C1859 C1861 1.479 . S
C1859 H1877 0.929 . S
C1860 C1857 1.424 . S
C1860 C1859 1.384 . S
C1860 H1878 0.928 . S
C1861 C1858 1.260 . S
C1861 C1859 1.479 . S
C1862 C1857 1.245 . S
C1862 C1858 1.477 . S
C1862 H1879 0.932 . S
C1863 U1846 2.882 . S
C1863 C1857 1.428 . S
C1863 O1866 1.301 . S
C1863 O1867 1.282 . S
O1864 U1846 2.441 . S
O1864 C1850 1.249 . S
O1865 U1846 2.420 . S
O1865 C1850 1.202 . S
O1866 U1846 2.455 . S
O1866 C1863 1.301 . S
O1867 U1846 2.449 . S
O1867 C1863 1.282 . S
H1868 C1841 0.931 . S
H1869 C1843 0.929 . S
H1870 C1844 0.930 . S
H1871 C1845 0.931 . S
H1872 C1852 0.932 . S
H1873 C1853 0.930 . S
H1874 C1854 0.929 . S
H1875 C1856 0.930 . S
H1876 C1858 0.932 . S
H1877 C1859 0.929 . S
H1878 C1860 0.928 . S
H1879 C1862 0.932 . S
C1880 C1881 1.264 . S
C1880 C1885 1.479 . S
C1880 C1890 1.465 . S
C1881 C1880 1.264 . S
C1881 C1883 1.339 . S
C1881 H1908 0.931 . S
C1882 C1883 1.395 . S
C1882 C1884 1.320 . S
C1883 C1881 1.339 . S
C1883 C1882 1.395 . S
C1883 H1909 0.929 . S
C1884 C1882 1.320 . S
C1884 C1885 1.405 . S
C1884 H1910 0.930 . S
C1885 C1880 1.479 . S
C1885 C1884 1.405 . S
C1885 H1911 0.931 . S
U1886 O1887 2.454 . S
U1886 O1888 2.458 . S
U1886 C1889 2.984 . S
U1886 C1890 2.847 . S
U1886 C1903 2.882 . S
U1886 O1904 2.441 . S
U1886 O1905 2.420 . S
U1886 O1906 2.455 . S
U1886 O1907 2.449 . S
O1887 U1886 2.454 . S
O1887 C1889 1.353 . S
O1888 U1886 2.458 . S
O1888 C1889 1.286 . S
C1889 U1886 2.984 . S
C1889 O1887 1.353 . S
C1889 O1888 1.286 . S
C1889 C1891 1.363 . S
C1890 C1880 1.465 . S
C1890 U1886 2.847 . S
C1890 O1904 1.249 . S
C1890 O1905 1.202 . S
C1891 C1889 1.363 . S
C1891 C1893 1.408 . S
C1891 C1896 1.342 . S
C1892 C1893 1.310 . S
C1892 C1895 1.461 . S
C1892 H1912 0.932 . S
C1893 C1891 1.408 . S
C1893 C1892 1.310 . S
C1893 H1913 0.930 . S
C1894 C1895 1.474 . S
C1894 C1896 1.285 . S
C1894 H1914 0.929 . S
C1895 C1892 1.461 . S
C1895 C1894 1.474 . S
C1896 C1891 1.342 . S
C1896 C1894 1.285 . S
C1896 H1915 0.930 . S
C1897 C1900 1.424 . S
C1897 C1902 1.245 . S
C1897 C1903 1.428 . S
C1898 C1901 1.260 . S
C1898 C1902 1.477 . S
C1898 H1916 0.932 . S
C1899 C1900 1.384 . S
C1899 C1901 1.479 . S
C1899 H1917 0.929 . S
C1900 C1897 1.424 . S
C1900 C1899 1.384 . S
C1900 H1918 0.928 . S
C1901 C1898 1.260 . S
C1901 C1899 1.479 . S
C1902 C1897 1.245 . S
C1902 C1898 1.477 . S
C1902 H1919 0.932 . S
C1903 U1886 2.882 . S
C1903 C1897 1.428 . S
C1903 O1906 1.301 . S
C1903 O1907 1.282 . S
O1904 U1886 2.441 . S
O1904 C1890 1.249 . S
O1905 U1886 2.420 . S
O1905 C1890 1.202 . S
O1906 U1886 2.455 . S
O1906 C1903 1.301 . S
O1907 U1886 2.449 . S
O1907 C1903 1.282 . S
H1908 C1881 0.931 . S
H1909 C1883 0.929 . S
H1910 C1884 0.930 . S
H1911 C1885 0.931 . S
H1912 C1892 0.932 . S
H1913 C1893 0.930 . S
H1914 C1894 0.929 . S
H1915 C1896 0.930 . S
H1916 C1898 0.932 . S
H1917 C1899 0.929 . S
H1918 C1900 0.928 . S
H1919 C1902 0.932 . S
C1920 C1921 1.264 . S
C1920 C1925 1.479 . S
C1920 C1930 1.465 . S
C1921 C1920 1.264 . S
C1921 C1923 1.339 . S
C1921 H1948 0.931 . S
C1922 C1923 1.395 . S
C1922 C1924 1.320 . S
C1923 C1921 1.339 . S
C1923 C1922 1.395 . S
C1923 H1949 0.929 . S
C1924 C1922 1.320 . S
C1924 C1925 1.405 . S
C1924 H1950 0.930 . S
C1925 C1920 1.479 . S
C1925 C1924 1.405 . S
C1925 H1951 0.931 . S
U1926 O1927 2.454 . S
U1926 O1928 2.458 . S
U1926 C1929 2.984 . S
U1926 C1930 2.847 . S
U1926 C1943 2.882 . S
U1926 O1944 2.441 . S
U1926 O1945 2.420 . S
U1926 O1946 2.455 . S
U1926 O1947 2.449 . S
O1927 U1926 2.454 . S
O1927 C1929 1.353 . S
O1928 U1926 2.458 . S
O1928 C1929 1.286 . S
C1929 U1926 2.984 . S
C1929 O1927 1.353 . S
C1929 O1928 1.286 . S
C1929 C1931 1.363 . S
C1930 C1920 1.465 . S
C1930 U1926 2.847 . S
C1930 O1944 1.249 . S
C1930 O1945 1.202 . S
C1931 C1929 1.363 . S
C1931 C1933 1.408 . S
C1931 C1936 1.342 . S
C1932 C1933 1.310 . S
C1932 C1935 1.461 . S
C1932 H1952 0.932 . S
C1933 C1931 1.408 . S
C1933 C1932 1.310 . S
C1933 H1953 0.930 . S
C1934 C1935 1.474 . S
C1934 C1936 1.285 . S
C1934 H1954 0.929 . S
C1935 C1932 1.461 . S
C1935 C1934 1.474 . S
C1936 C1931 1.342 . S
C1936 C1934 1.285 . S
C1936 H1955 0.930 . S
C1937 C1940 1.424 . S
C1937 C1942 1.245 . S
C1937 C1943 1.428 . S
C1938 C1941 1.260 . S
C1938 C1942 1.477 . S
C1938 H1956 0.932 . S
C1939 C1940 1.384 . S
C1939 C1941 1.479 . S
C1939 H1957 0.929 . S
C1940 C1937 1.424 . S
C1940 C1939 1.384 . S
C1940 H1958 0.928 . S
C1941 C1938 1.260 . S
C1941 C1939 1.479 . S
C1942 C1937 1.245 . S
C1942 C1938 1.477 . S
C1942 H1959 0.932 . S
C1943 U1926 2.882 . S
C1943 C1937 1.428 . S
C1943 O1946 1.301 . S
C1943 O1947 1.282 . S
O1944 U1926 2.441 . S
O1944 C1930 1.249 . S
O1945 U1926 2.420 . S
O1945 C1930 1.202 . S
O1946 U1926 2.455 . S
O1946 C1943 1.301 . S
O1947 U1926 2.449 . S
O1947 C1943 1.282 . S
H1948 C1921 0.931 . S
H1949 C1923 0.929 . S
H1950 C1924 0.930 . S
H1951 C1925 0.931 . S
H1952 C1932 0.932 . S
H1953 C1933 0.930 . S
H1954 C1934 0.929 . S
H1955 C1936 0.930 . S
H1956 C1938 0.932 . S
H1957 C1939 0.929 . S
H1958 C1940 0.928 . S
H1959 C1942 0.932 . S
C1960 C1961 1.264 . S
C1960 C1965 1.479 . S
C1960 C1970 1.465 . S
C1961 C1960 1.264 . S
C1961 C1963 1.339 . S
C1961 H1988 0.931 . S
C1962 C1963 1.395 . S
C1962 C1964 1.320 . S
C1963 C1961 1.339 . S
C1963 C1962 1.395 . S
C1963 H1989 0.929 . S
C1964 C1962 1.320 . S
C1964 C1965 1.405 . S
C1964 H1990 0.930 . S
C1965 C1960 1.479 . S
C1965 C1964 1.405 . S
C1965 H1991 0.931 . S
U1966 O1967 2.454 . S
U1966 O1968 2.458 . S
U1966 C1969 2.984 . S
U1966 C1970 2.847 . S
U1966 C1983 2.882 . S
U1966 O1984 2.441 . S
U1966 O1985 2.420 . S
U1966 O1986 2.455 . S
U1966 O1987 2.449 . S
O1967 U1966 2.454 . S
O1967 C1969 1.353 . S
O1968 U1966 2.458 . S
O1968 C1969 1.286 . S
C1969 U1966 2.984 . S
C1969 O1967 1.353 . S
C1969 O1968 1.286 . S
C1969 C1971 1.363 . S
C1970 C1960 1.465 . S
C1970 U1966 2.847 . S
C1970 O1984 1.249 . S
C1970 O1985 1.202 . S
C1971 C1969 1.363 . S
C1971 C1973 1.408 . S
C1971 C1976 1.342 . S
C1972 C1973 1.310 . S
C1972 C1975 1.461 . S
C1972 H1992 0.932 . S
C1973 C1971 1.408 . S
C1973 C1972 1.310 . S
C1973 H1993 0.930 . S
C1974 C1975 1.474 . S
C1974 C1976 1.285 . S
C1974 H1994 0.929 . S
C1975 C1972 1.461 . S
C1975 C1974 1.474 . S
C1976 C1971 1.342 . S
C1976 C1974 1.285 . S
C1976 H1995 0.930 . S
C1977 C1980 1.424 . S
C1977 C1982 1.245 . S
C1977 C1983 1.428 . S
C1978 C1981 1.260 . S
C1978 C1982 1.477 . S
C1978 H1996 0.932 . S
C1979 C1980 1.384 . S
C1979 C1981 1.479 . S
C1979 H1997 0.929 . S
C1980 C1977 1.424 . S
C1980 C1979 1.384 . S
C1980 H1998 0.928 . S
C1981 C1978 1.260 . S
C1981 C1979 1.479 . S
C1982 C1977 1.245 . S
C1982 C1978 1.477 . S
C1982 H1999 0.932 . S
C1983 U1966 2.882 . S
C1983 C1977 1.428 . S
C1983 O1986 1.301 . S
C1983 O1987 1.282 . S
O1984 U1966 2.441 . S
O1984 C1970 1.249 . S
O1985 U1966 2.420 . S
O1985 C1970 1.202 . S
O1986 U1966 2.455 . S
O1986 C1983 1.301 . S
O1987 U1966 2.449 . S
O1987 C1983 1.282 . S
H1988 C1961 0.931 . S
H1989 C1963 0.929 . S
H1990 C1964 0.930 . S
H1991 C1965 0.931 . S
H1992 C1972 0.932 . S
H1993 C1973 0.930 . S
H1994 C1974 0.929 . S
H1995 C1976 0.930 . S
H1996 C1978 0.932 . S
H1997 C1979 0.929 . S
H1998 C1980 0.928 . S
H1999 C1982 0.932 . S
C2000 C2001 1.264 . S
C2000 C2005 1.479 . S
C2000 C2010 1.465 . S
C2001 C2000 1.264 . S
C2001 C2003 1.339 . S
C2001 H2028 0.931 . S
C2002 C2003 1.395 . S
C2002 C2004 1.320 . S
C2003 C2001 1.339 . S
C2003 C2002 1.395 . S
C2003 H2029 0.929 . S
C2004 C2002 1.320 . S
C2004 C2005 1.405 . S
C2004 H2030 0.930 . S
C2005 C2000 1.479 . S
C2005 C2004 1.405 . S
C2005 H2031 0.931 . S
U2006 O2007 2.454 . S
U2006 O2008 2.458 . S
U2006 C2009 2.984 . S
U2006 C2010 2.847 . S
U2006 C2023 2.882 . S
U2006 O2024 2.441 . S
U2006 O2025 2.420 . S
U2006 O2026 2.455 . S
U2006 O2027 2.449 . S
O2007 U2006 2.454 . S
O2007 C2009 1.353 . S
O2008 U2006 2.458 . S
O2008 C2009 1.286 . S
C2009 U2006 2.984 . S
C2009 O2007 1.353 . S
C2009 O2008 1.286 . S
C2009 C2011 1.363 . S
C2010 C2000 1.465 . S
C2010 U2006 2.847 . S
C2010 O2024 1.249 . S
C2010 O2025 1.202 . S
C2011 C2009 1.363 . S
C2011 C2013 1.408 . S
C2011 C2016 1.342 . S
C2012 C2013 1.310 . S
C2012 C2015 1.461 . S
C2012 H2032 0.932 . S
C2013 C2011 1.408 . S
C2013 C2012 1.310 . S
C2013 H2033 0.930 . S
C2014 C2015 1.474 . S
C2014 C2016 1.285 . S
C2014 H2034 0.929 . S
C2015 C2012 1.461 . S
C2015 C2014 1.474 . S
C2016 C2011 1.342 . S
C2016 C2014 1.285 . S
C2016 H2035 0.930 . S
C2017 C2020 1.424 . S
C2017 C2022 1.245 . S
C2017 C2023 1.428 . S
C2018 C2021 1.260 . S
C2018 C2022 1.477 . S
C2018 H2036 0.932 . S
C2019 C2020 1.384 . S
C2019 C2021 1.479 . S
C2019 H2037 0.929 . S
C2020 C2017 1.424 . S
C2020 C2019 1.384 . S
C2020 H2038 0.928 . S
C2021 C2018 1.260 . S
C2021 C2019 1.479 . S
C2022 C2017 1.245 . S
C2022 C2018 1.477 . S
C2022 H2039 0.932 . S
C2023 U2006 2.882 . S
C2023 C2017 1.428 . S
C2023 O2026 1.301 . S
C2023 O2027 1.282 . S
O2024 U2006 2.441 . S
O2024 C2010 1.249 . S
O2025 U2006 2.420 . S
O2025 C2010 1.202 . S
O2026 U2006 2.455 . S
O2026 C2023 1.301 . S
O2027 U2006 2.449 . S
O2027 C2023 1.282 . S
H2028 C2001 0.931 . S
H2029 C2003 0.929 . S
H2030 C2004 0.930 . S
H2031 C2005 0.931 . S
H2032 C2012 0.932 . S
H2033 C2013 0.930 . S
H2034 C2014 0.929 . S
H2035 C2016 0.930 . S
H2036 C2018 0.932 . S
H2037 C2019 0.929 . S
H2038 C2020 0.928 . S
H2039 C2022 0.932 . S
C2040 C2041 1.264 . S
C2040 C2045 1.479 . S
C2040 C2050 1.465 . S
C2041 C2040 1.264 . S
C2041 C2043 1.339 . S
C2041 H2068 0.931 . S
C2042 C2043 1.395 . S
C2042 C2044 1.320 . S
C2043 C2041 1.339 . S
C2043 C2042 1.395 . S
C2043 H2069 0.929 . S
C2044 C2042 1.320 . S
C2044 C2045 1.405 . S
C2044 H2070 0.930 . S
C2045 C2040 1.479 . S
C2045 C2044 1.405 . S
C2045 H2071 0.931 . S
U2046 O2047 2.454 . S
U2046 O2048 2.458 . S
U2046 C2049 2.984 . S
U2046 C2050 2.847 . S
U2046 C2063 2.882 . S
U2046 O2064 2.441 . S
U2046 O2065 2.420 . S
U2046 O2066 2.455 . S
U2046 O2067 2.449 . S
O2047 U2046 2.454 . S
O2047 C2049 1.353 . S
O2048 U2046 2.458 . S
O2048 C2049 1.286 . S
C2049 U2046 2.984 . S
C2049 O2047 1.353 . S
C2049 O2048 1.286 . S
C2049 C2051 1.363 . S
C2050 C2040 1.465 . S
C2050 U2046 2.847 . S
C2050 O2064 1.249 . S
C2050 O2065 1.202 . S
C2051 C2049 1.363 . S
C2051 C2053 1.408 . S
C2051 C2056 1.342 . S
C2052 C2053 1.310 . S
C2052 C2055 1.461 . S
C2052 H2072 0.932 . S
C2053 C2051 1.408 . S
C2053 C2052 1.310 . S
C2053 H2073 0.930 . S
C2054 C2055 1.474 . S
C2054 C2056 1.285 . S
C2054 H2074 0.929 . S
C2055 C2052 1.461 . S
C2055 C2054 1.474 . S
C2056 C2051 1.342 . S
C2056 C2054 1.285 . S
C2056 H2075 0.930 . S
C2057 C2060 1.424 . S
C2057 C2062 1.245 . S
C2057 C2063 1.428 . S
C2058 C2061 1.260 . S
C2058 C2062 1.477 . S
C2058 H2076 0.932 . S
C2059 C2060 1.384 . S
C2059 C2061 1.479 . S
C2059 H2077 0.929 . S
C2060 C2057 1.424 . S
C2060 C2059 1.384 . S
C2060 H2078 0.928 . S
C2061 C2058 1.260 . S
C2061 C2059 1.479 . S
C2062 C2057 1.245 . S
C2062 C2058 1.477 . S
C2062 H2079 0.932 . S
C2063 U2046 2.882 . S
C2063 C2057 1.428 . S
C2063 O2066 1.301 . S
C2063 O2067 1.282 . S
O2064 U2046 2.441 . S
O2064 C2050 1.249 . S
O2065 U2046 2.420 . S
O2065 C2050 1.202 . S
O2066 U2046 2.455 . S
O2066 C2063 1.301 . S
O2067 U2046 2.449 . S
O2067 C2063 1.282 . S
H2068 C2041 0.931 . S
H2069 C2043 0.929 . S
H2070 C2044 0.930 . S
H2071 C2045 0.931 . S
H2072 C2052 0.932 . S
H2073 C2053 0.930 . S
H2074 C2054 0.929 . S
H2075 C2056 0.930 . S
H2076 C2058 0.932 . S
H2077 C2059 0.929 . S
H2078 C2060 0.928 . S
H2079 C2062 0.932 . S
C2080 C2081 1.264 . S
C2080 C2085 1.479 . S
C2080 C2090 1.465 . S
C2081 C2080 1.264 . S
C2081 C2083 1.339 . S
C2081 H2108 0.931 . S
C2082 C2083 1.395 . S
C2082 C2084 1.320 . S
C2083 C2081 1.339 . S
C2083 C2082 1.395 . S
C2083 H2109 0.929 . S
C2084 C2082 1.320 . S
C2084 C2085 1.405 . S
C2084 H2110 0.930 . S
C2085 C2080 1.479 . S
C2085 C2084 1.405 . S
C2085 H2111 0.931 . S
U2086 O2087 2.454 . S
U2086 O2088 2.458 . S
U2086 C2089 2.984 . S
U2086 C2090 2.847 . S
U2086 C2103 2.882 . S
U2086 O2104 2.441 . S
U2086 O2105 2.420 . S
U2086 O2106 2.455 . S
U2086 O2107 2.449 . S
O2087 U2086 2.454 . S
O2087 C2089 1.353 . S
O2088 U2086 2.458 . S
O2088 C2089 1.286 . S
C2089 U2086 2.984 . S
C2089 O2087 1.353 . S
C2089 O2088 1.286 . S
C2089 C2091 1.363 . S
C2090 C2080 1.465 . S
C2090 U2086 2.847 . S
C2090 O2104 1.249 . S
C2090 O2105 1.202 . S
C2091 C2089 1.363 . S
C2091 C2093 1.408 . S
C2091 C2096 1.342 . S
C2092 C2093 1.310 . S
C2092 C2095 1.461 . S
C2092 H2112 0.932 . S
C2093 C2091 1.408 . S
C2093 C2092 1.310 . S
C2093 H2113 0.930 . S
C2094 C2095 1.474 . S
C2094 C2096 1.285 . S
C2094 H2114 0.929 . S
C2095 C2092 1.461 . S
C2095 C2094 1.474 . S
C2096 C2091 1.342 . S
C2096 C2094 1.285 . S
C2096 H2115 0.930 . S
C2097 C2100 1.424 . S
C2097 C2102 1.245 . S
C2097 C2103 1.428 . S
C2098 C2101 1.260 . S
C2098 C2102 1.477 . S
C2098 H2116 0.932 . S
C2099 C2100 1.384 . S
C2099 C2101 1.479 . S
C2099 H2117 0.929 . S
C2100 C2097 1.424 . S
C2100 C2099 1.384 . S
C2100 H2118 0.928 . S
C2101 C2098 1.260 . S
C2101 C2099 1.479 . S
C2102 C2097 1.245 . S
C2102 C2098 1.477 . S
C2102 H2119 0.932 . S
C2103 U2086 2.882 . S
C2103 C2097 1.428 . S
C2103 O2106 1.301 . S
C2103 O2107 1.282 . S
O2104 U2086 2.441 . S
O2104 C2090 1.249 . S
O2105 U2086 2.420 . S
O2105 C2090 1.202 . S
O2106 U2086 2.455 . S
O2106 C2103 1.301 . S
O2107 U2086 2.449 . S
O2107 C2103 1.282 . S
H2108 C2081 0.931 . S
H2109 C2083 0.929 . S
H2110 C2084 0.930 . S
H2111 C2085 0.931 . S
H2112 C2092 0.932 . S
H2113 C2093 0.930 . S
H2114 C2094 0.929 . S
H2115 C2096 0.930 . S
H2116 C2098 0.932 . S
H2117 C2099 0.929 . S
H2118 C2100 0.928 . S
H2119 C2102 0.932 . S
C2120 C2121 1.264 . S
C2120 C2125 1.479 . S
C2120 C2130 1.465 . S
C2121 C2120 1.264 . S
C2121 C2123 1.339 . S
C2121 H2148 0.931 . S
C2122 C2123 1.395 . S
C2122 C2124 1.320 . S
C2123 C2121 1.339 . S
C2123 C2122 1.395 . S
C2123 H2149 0.929 . S
C2124 C2122 1.320 . S
C2124 C2125 1.405 . S
C2124 H2150 0.930 . S
C2125 C2120 1.479 . S
C2125 C2124 1.405 . S
C2125 H2151 0.931 . S
U2126 O2127 2.454 . S
U2126 O2128 2.458 . S
U2126 C2129 2.984 . S
U2126 C2130 2.847 . S
U2126 C2143 2.882 . S
U2126 O2144 2.441 . S
U2126 O2145 2.420 . S
U2126 O2146 2.455 . S
U2126 O2147 2.449 . S
O2127 U2126 2.454 . S
O2127 C2129 1.353 . S
O2128 U2126 2.458 . S
O2128 C2129 1.286 . S
C2129 U2126 2.984 . S
C2129 O2127 1.353 . S
C2129 O2128 1.286 . S
C2129 C2131 1.363 . S
C2130 C2120 1.465 . S
C2130 U2126 2.847 . S
C2130 O2144 1.249 . S
C2130 O2145 1.202 . S
C2131 C2129 1.363 . S
C2131 C2133 1.408 . S
C2131 C2136 1.342 . S
C2132 C2133 1.310 . S
C2132 C2135 1.461 . S
C2132 H2152 0.932 . S
C2133 C2131 1.408 . S
C2133 C2132 1.310 . S
C2133 H2153 0.930 . S
C2134 C2135 1.474 . S
C2134 C2136 1.285 . S
C2134 H2154 0.929 . S
C2135 C2132 1.461 . S
C2135 C2134 1.474 . S
C2136 C2131 1.342 . S
C2136 C2134 1.285 . S
C2136 H2155 0.930 . S
C2137 C2140 1.424 . S
C2137 C2142 1.245 . S
C2137 C2143 1.428 . S
C2138 C2141 1.260 . S
C2138 C2142 1.477 . S
C2138 H2156 0.932 . S
C2139 C2140 1.384 . S
C2139 C2141 1.479 . S
C2139 H2157 0.929 . S
C2140 C2137 1.424 . S
C2140 C2139 1.384 . S
C2140 H2158 0.928 . S
C2141 C2138 1.260 . S
C2141 C2139 1.479 . S
C2142 C2137 1.245 . S
C2142 C2138 1.477 . S
C2142 H2159 0.932 . S
C2143 U2126 2.882 . S
C2143 C2137 1.428 . S
C2143 O2146 1.301 . S
C2143 O2147 1.282 . S
O2144 U2126 2.441 . S
O2144 C2130 1.249 . S
O2145 U2126 2.420 . S
O2145 C2130 1.202 . S
O2146 U2126 2.455 . S
O2146 C2143 1.301 . S
O2147 U2126 2.449 . S
O2147 C2143 1.282 . S
H2148 C2121 0.931 . S
H2149 C2123 0.929 . S
H2150 C2124 0.930 . S
H2151 C2125 0.931 . S
H2152 C2132 0.932 . S
H2153 C2133 0.930 . S
H2154 C2134 0.929 . S
H2155 C2136 0.930 . S
H2156 C2138 0.932 . S
H2157 C2139 0.929 . S
H2158 C2140 0.928 . S
H2159 C2142 0.932 . S
C2160 C2161 1.264 . S
C2160 C2165 1.479 . S
C2160 C2170 1.465 . S
C2161 C2160 1.264 . S
C2161 C2163 1.339 . S
C2161 H2188 0.931 . S
C2162 C2163 1.395 . S
C2162 C2164 1.320 . S
C2163 C2161 1.339 . S
C2163 C2162 1.395 . S
C2163 H2189 0.929 . S
C2164 C2162 1.320 . S
C2164 C2165 1.405 . S
C2164 H2190 0.930 . S
C2165 C2160 1.479 . S
C2165 C2164 1.405 . S
C2165 H2191 0.931 . S
U2166 O2167 2.454 . S
U2166 O2168 2.458 . S
U2166 C2169 2.984 . S
U2166 C2170 2.847 . S
U2166 C2183 2.882 . S
U2166 O2184 2.441 . S
U2166 O2185 2.420 . S
U2166 O2186 2.455 . S
U2166 O2187 2.449 . S
O2167 U2166 2.454 . S
O2167 C2169 1.353 . S
O2168 U2166 2.458 . S
O2168 C2169 1.286 . S
C2169 U2166 2.984 . S
C2169 O2167 1.353 . S
C2169 O2168 1.286 . S
C2169 C2171 1.363 . S
C2170 C2160 1.465 . S
C2170 U2166 2.847 . S
C2170 O2184 1.249 . S
C2170 O2185 1.202 . S
C2171 C2169 1.363 . S
C2171 C2173 1.408 . S
C2171 C2176 1.342 . S
C2172 C2173 1.310 . S
C2172 C2175 1.461 . S
C2172 H2192 0.932 . S
C2173 C2171 1.408 . S
C2173 C2172 1.310 . S
C2173 H2193 0.930 . S
C2174 C2175 1.474 . S
C2174 C2176 1.285 . S
C2174 H2194 0.929 . S
C2175 C2172 1.461 . S
C2175 C2174 1.474 . S
C2176 C2171 1.342 . S
C2176 C2174 1.285 . S
C2176 H2195 0.930 . S
C2177 C2180 1.424 . S
C2177 C2182 1.245 . S
C2177 C2183 1.428 . S
C2178 C2181 1.260 . S
C2178 C2182 1.477 . S
C2178 H2196 0.932 . S
C2179 C2180 1.384 . S
C2179 C2181 1.479 . S
C2179 H2197 0.929 . S
C2180 C2177 1.424 . S
C2180 C2179 1.384 . S
C2180 H2198 0.928 . S
C2181 C2178 1.260 . S
C2181 C2179 1.479 . S
C2182 C2177 1.245 . S
C2182 C2178 1.477 . S
C2182 H2199 0.932 . S
C2183 U2166 2.882 . S
C2183 C2177 1.428 . S
C2183 O2186 1.301 . S
C2183 O2187 1.282 . S
O2184 U2166 2.441 . S
O2184 C2170 1.249 . S
O2185 U2166 2.420 . S
O2185 C2170 1.202 . S
O2186 U2166 2.455 . S
O2186 C2183 1.301 . S
O2187 U2166 2.449 . S
O2187 C2183 1.282 . S
H2188 C2161 0.931 . S
H2189 C2163 0.929 . S
H2190 C2164 0.930 . S
H2191 C2165 0.931 . S
H2192 C2172 0.932 . S
H2193 C2173 0.930 . S
H2194 C2174 0.929 . S
H2195 C2176 0.930 . S
H2196 C2178 0.932 . S
H2197 C2179 0.929 . S
H2198 C2180 0.928 . S
H2199 C2182 0.932 . S
C2200 C2201 1.264 . S
C2200 C2205 1.479 . S
C2200 C2210 1.465 . S
C2201 C2200 1.264 . S
C2201 C2203 1.339 . S
C2201 H2228 0.931 . S
C2202 C2203 1.395 . S
C2202 C2204 1.320 . S
C2203 C2201 1.339 . S
C2203 C2202 1.395 . S
C2203 H2229 0.929 . S
C2204 C2202 1.320 . S
C2204 C2205 1.405 . S
C2204 H2230 0.930 . S
C2205 C2200 1.479 . S
C2205 C2204 1.405 . S
C2205 H2231 0.931 . S
U2206 O2207 2.454 . S
U2206 O2208 2.458 . S
U2206 C2209 2.984 . S
U2206 C2210 2.847 . S
U2206 C2223 2.882 . S
U2206 O2224 2.441 . S
U2206 O2225 2.420 . S
U2206 O2226 2.455 . S
U2206 O2227 2.449 . S
O2207 U2206 2.454 . S
O2207 C2209 1.353 . S
O2208 U2206 2.458 . S
O2208 C2209 1.286 . S
C2209 U2206 2.984 . S
C2209 O2207 1.353 . S
C2209 O2208 1.286 . S
C2209 C2211 1.363 . S
C2210 C2200 1.465 . S
C2210 U2206 2.847 . S
C2210 O2224 1.249 . S
C2210 O2225 1.202 . S
C2211 C2209 1.363 . S
C2211 C2213 1.408 . S
C2211 C2216 1.342 . S
C2212 C2213 1.310 . S
C2212 C2215 1.461 . S
C2212 H2232 0.932 . S
C2213 C2211 1.408 . S
C2213 C2212 1.310 . S
C2213 H2233 0.930 . S
C2214 C2215 1.474 . S
C2214 C2216 1.285 . S
C2214 H2234 0.929 . S
C2215 C2212 1.461 . S
C2215 C2214 1.474 . S
C2216 C2211 1.342 . S
C2216 C2214 1.285 . S
C2216 H2235 0.930 . S
C2217 C2220 1.424 . S
C2217 C2222 1.245 . S
C2217 C2223 1.428 . S
C2218 C2221 1.260 . S
C2218 C2222 1.477 . S
C2218 H2236 0.932 . S
C2219 C2220 1.384 . S
C2219 C2221 1.479 . S
C2219 H2237 0.929 . S
C2220 C2217 1.424 . S
C2220 C2219 1.384 . S
C2220 H2238 0.928 . S
C2221 C2218 1.260 . S
C2221 C2219 1.479 . S
C2222 C2217 1.245 . S
C2222 C2218 1.477 . S
C2222 H2239 0.932 . S
C2223 U2206 2.882 . S
C2223 C2217 1.428 . S
C2223 O2226 1.301 . S
C2223 O2227 1.282 . S
O2224 U2206 2.441 . S
O2224 C2210 1.249 . S
O2225 U2206 2.420 . S
O2225 C2210 1.202 . S
O2226 U2206 2.455 . S
O2226 C2223 1.301 . S
O2227 U2206 2.449 . S
O2227 C2223 1.282 . S
H2228 C2201 0.931 . S
H2229 C2203 0.929 . S
H2230 C2204 0.930 . S
H2231 C2205 0.931 . S
H2232 C2212 0.932 . S
H2233 C2213 0.930 . S
H2234 C2214 0.929 . S
H2235 C2216 0.930 . S
H2236 C2218 0.932 . S
H2237 C2219 0.929 . S
H2238 C2220 0.928 . S
H2239 C2222 0.932 . S
C2240 C2241 1.264 . S
C2240 C2245 1.479 . S
C2240 C2250 1.465 . S
C2241 C2240 1.264 . S
C2241 C2243 1.339 . S
C2241 H2268 0.931 . S
C2242 C2243 1.395 . S
C2242 C2244 1.320 . S
C2243 C2241 1.339 . S
C2243 C2242 1.395 . S
C2243 H2269 0.929 . S
C2244 C2242 1.320 . S
C2244 C2245 1.405 . S
C2244 H2270 0.930 . S
C2245 C2240 1.479 . S
C2245 C2244 1.405 . S
C2245 H2271 0.931 . S
U2246 O2247 2.454 . S
U2246 O2248 2.458 . S
U2246 C2249 2.984 . S
U2246 C2250 2.847 . S
U2246 C2263 2.882 . S
U2246 O2264 2.441 . S
U2246 O2265 2.420 . S
U2246 O2266 2.455 . S
U2246 O2267 2.449 . S
O2247 U2246 2.454 . S
O2247 C2249 1.353 . S
O2248 U2246 2.458 . S
O2248 C2249 1.286 . S
C2249 U2246 2.984 . S
C2249 O2247 1.353 . S
C2249 O2248 1.286 . S
C2249 C2251 1.363 . S
C2250 C2240 1.465 . S
C2250 U2246 2.847 . S
C2250 O2264 1.249 . S
C2250 O2265 1.202 . S
C2251 C2249 1.363 . S
C2251 C2253 1.408 . S
C2251 C2256 1.342 . S
C2252 C2253 1.310 . S
C2252 C2255 1.461 . S
C2252 H2272 0.932 . S
C2253 C2251 1.408 . S
C2253 C2252 1.310 . S
C2253 H2273 0.930 . S
C2254 C2255 1.474 . S
C2254 C2256 1.285 . S
C2254 H2274 0.929 . S
C2255 C2252 1.461 . S
C2255 C2254 1.474 . S
C2256 C2251 1.342 . S
C2256 C2254 1.285 . S
C2256 H2275 0.930 . S
C2257 C2260 1.424 . S
C2257 C2262 1.245 . S
C2257 C2263 1.428 . S
C2258 C2261 1.260 . S
C2258 C2262 1.477 . S
C2258 H2276 0.932 . S
C2259 C2260 1.384 . S
C2259 C2261 1.479 . S
C2259 H2277 0.929 . S
C2260 C2257 1.424 . S
C2260 C2259 1.384 . S
C2260 H2278 0.928 . S
C2261 C2258 1.260 . S
C2261 C2259 1.479 . S
C2262 C2257 1.245 . S
C2262 C2258 1.477 . S
C2262 H2279 0.932 . S
C2263 U2246 2.882 . S
C2263 C2257 1.428 . S
C2263 O2266 1.301 . S
C2263 O2267 1.282 . S
O2264 U2246 2.441 . S
O2264 C2250 1.249 . S
O2265 U2246 2.420 . S
O2265 C2250 1.202 . S
O2266 U2246 2.455 . S
O2266 C2263 1.301 . S
O2267 U2246 2.449 . S
O2267 C2263 1.282 . S
H2268 C2241 0.931 . S
H2269 C2243 0.929 . S
H2270 C2244 0.930 . S
H2271 C2245 0.931 . S
H2272 C2252 0.932 . S
H2273 C2253 0.930 . S
H2274 C2254 0.929 . S
H2275 C2256 0.930 . S
H2276 C2258 0.932 . S
H2277 C2259 0.929 . S
H2278 C2260 0.928 . S
H2279 C2262 0.932 . S
C2280 C2281 1.264 . S
C2280 C2285 1.479 . S
C2280 C2290 1.465 . S
C2281 C2280 1.264 . S
C2281 C2283 1.339 . S
C2281 H2308 0.931 . S
C2282 C2283 1.395 . S
C2282 C2284 1.320 . S
C2283 C2281 1.339 . S
C2283 C2282 1.395 . S
C2283 H2309 0.929 . S
C2284 C2282 1.320 . S
C2284 C2285 1.405 . S
C2284 H2310 0.930 . S
C2285 C2280 1.479 . S
C2285 C2284 1.405 . S
C2285 H2311 0.931 . S
U2286 O2287 2.454 . S
U2286 O2288 2.458 . S
U2286 C2289 2.984 . S
U2286 C2290 2.847 . S
U2286 C2303 2.882 . S
U2286 O2304 2.441 . S
U2286 O2305 2.420 . S
U2286 O2306 2.455 . S
U2286 O2307 2.449 . S
O2287 U2286 2.454 . S
O2287 C2289 1.353 . S
O2288 U2286 2.458 . S
O2288 C2289 1.286 . S
C2289 U2286 2.984 . S
C2289 O2287 1.353 . S
C2289 O2288 1.286 . S
C2289 C2291 1.363 . S
C2290 C2280 1.465 . S
C2290 U2286 2.847 . S
C2290 O2304 1.249 . S
C2290 O2305 1.202 . S
C2291 C2289 1.363 . S
C2291 C2293 1.408 . S
C2291 C2296 1.342 . S
C2292 C2293 1.310 . S
C2292 C2295 1.461 . S
C2292 H2312 0.932 . S
C2293 C2291 1.408 . S
C2293 C2292 1.310 . S
C2293 H2313 0.930 . S
C2294 C2295 1.474 . S
C2294 C2296 1.285 . S
C2294 H2314 0.929 . S
C2295 C2292 1.461 . S
C2295 C2294 1.474 . S
C2296 C2291 1.342 . S
C2296 C2294 1.285 . S
C2296 H2315 0.930 . S
C2297 C2300 1.424 . S
C2297 C2302 1.245 . S
C2297 C2303 1.428 . S
C2298 C2301 1.260 . S
C2298 C2302 1.477 . S
C2298 H2316 0.932 . S
C2299 C2300 1.384 . S
C2299 C2301 1.479 . S
C2299 H2317 0.929 . S
C2300 C2297 1.424 . S
C2300 C2299 1.384 . S
C2300 H2318 0.928 . S
C2301 C2298 1.260 . S
C2301 C2299 1.479 . S
C2302 C2297 1.245 . S
C2302 C2298 1.477 . S
C2302 H2319 0.932 . S
C2303 U2286 2.882 . S
C2303 C2297 1.428 . S
C2303 O2306 1.301 . S
C2303 O2307 1.282 . S
O2304 U2286 2.441 . S
O2304 C2290 1.249 . S
O2305 U2286 2.420 . S
O2305 C2290 1.202 . S
O2306 U2286 2.455 . S
O2306 C2303 1.301 . S
O2307 U2286 2.449 . S
O2307 C2303 1.282 . S
H2308 C2281 0.931 . S
H2309 C2283 0.929 . S
H2310 C2284 0.930 . S
H2311 C2285 0.931 . S
H2312 C2292 0.932 . S
H2313 C2293 0.930 . S
H2314 C2294 0.929 . S
H2315 C2296 0.930 . S
H2316 C2298 0.932 . S
H2317 C2299 0.929 . S
H2318 C2300 0.928 . S
H2319 C2302 0.932 . S
C2320 C2321 1.264 . S
C2320 C2325 1.479 . S
C2320 C2330 1.465 . S
C2321 C2320 1.264 . S
C2321 C2323 1.339 . S
C2321 H2348 0.931 . S
C2322 C2323 1.395 . S
C2322 C2324 1.320 . S
C2323 C2321 1.339 . S
C2323 C2322 1.395 . S
C2323 H2349 0.929 . S
C2324 C2322 1.320 . S
C2324 C2325 1.405 . S
C2324 H2350 0.930 . S
C2325 C2320 1.479 . S
C2325 C2324 1.405 . S
C2325 H2351 0.931 . S
U2326 O2327 2.454 . S
U2326 O2328 2.458 . S
U2326 C2329 2.984 . S
U2326 C2330 2.847 . S
U2326 C2343 2.882 . S
U2326 O2344 2.441 . S
U2326 O2345 2.420 . S
U2326 O2346 2.455 . S
U2326 O2347 2.449 . S
O2327 U2326 2.454 . S
O2327 C2329 1.353 . S
O2328 U2326 2.458 . S
O2328 C2329 1.286 . S
C2329 U2326 2.984 . S
C2329 O2327 1.353 . S
C2329 O2328 1.286 . S
C2329 C2331 1.363 . S
C2330 C2320 1.465 . S
C2330 U2326 2.847 . S
C2330 O2344 1.249 . S
C2330 O2345 1.202 . S
C2331 C2329 1.363 . S
C2331 C2333 1.408 . S
C2331 C2336 1.342 . S
C2332 C2333 1.310 . S
C2332 C2335 1.461 . S
C2332 H2352 0.932 . S
C2333 C2331 1.408 . S
C2333 C2332 1.310 . S
C2333 H2353 0.930 . S
C2334 C2335 1.474 . S
C2334 C2336 1.285 . S
C2334 H2354 0.929 . S
C2335 C2332 1.461 . S
C2335 C2334 1.474 . S
C2336 C2331 1.342 . S
C2336 C2334 1.285 . S
C2336 H2355 0.930 . S
C2337 C2340 1.424 . S
C2337 C2342 1.245 . S
C2337 C2343 1.428 . S
C2338 C2341 1.260 . S
C2338 C2342 1.477 . S
C2338 H2356 0.932 . S
C2339 C2340 1.384 . S
C2339 C2341 1.479 . S
C2339 H2357 0.929 . S
C2340 C2337 1.424 . S
C2340 C2339 1.384 . S
C2340 H2358 0.928 . S
C2341 C2338 1.260 . S
C2341 C2339 1.479 . S
C2342 C2337 1.245 . S
C2342 C2338 1.477 . S
C2342 H2359 0.932 . S
C2343 U2326 2.882 . S
C2343 C2337 1.428 . S
C2343 O2346 1.301 . S
C2343 O2347 1.282 . S
O2344 U2326 2.441 . S
O2344 C2330 1.249 . S
O2345 U2326 2.420 . S
O2345 C2330 1.202 . S
O2346 U2326 2.455 . S
O2346 C2343 1.301 . S
O2347 U2326 2.449 . S
O2347 C2343 1.282 . S
H2348 C2321 0.931 . S
H2349 C2323 0.929 . S
H2350 C2324 0.930 . S
H2351 C2325 0.931 . S
H2352 C2332 0.932 . S
H2353 C2333 0.930 . S
H2354 C2334 0.929 . S
H2355 C2336 0.930 . S
H2356 C2338 0.932 . S
H2357 C2339 0.929 . S
H2358 C2340 0.928 . S
H2359 C2342 0.932 . S
C2360 C2361 1.264 . S
C2360 C2365 1.479 . S
C2360 C2370 1.465 . S
C2361 C2360 1.264 . S
C2361 C2363 1.339 . S
C2361 H2388 0.931 . S
C2362 C2363 1.395 . S
C2362 C2364 1.320 . S
C2363 C2361 1.339 . S
C2363 C2362 1.395 . S
C2363 H2389 0.929 . S
C2364 C2362 1.320 . S
C2364 C2365 1.405 . S
C2364 H2390 0.930 . S
C2365 C2360 1.479 . S
C2365 C2364 1.405 . S
C2365 H2391 0.931 . S
U2366 O2367 2.454 . S
U2366 O2368 2.458 . S
U2366 C2369 2.984 . S
U2366 C2370 2.847 . S
U2366 C2383 2.882 . S
U2366 O2384 2.441 . S
U2366 O2385 2.420 . S
U2366 O2386 2.455 . S
U2366 O2387 2.449 . S
O2367 U2366 2.454 . S
O2367 C2369 1.353 . S
O2368 U2366 2.458 . S
O2368 C2369 1.286 . S
C2369 U2366 2.984 . S
C2369 O2367 1.353 . S
C2369 O2368 1.286 . S
C2369 C2371 1.363 . S
C2370 C2360 1.465 . S
C2370 U2366 2.847 . S
C2370 O2384 1.249 . S
C2370 O2385 1.202 . S
C2371 C2369 1.363 . S
C2371 C2373 1.408 . S
C2371 C2376 1.342 . S
C2372 C2373 1.310 . S
C2372 C2375 1.461 . S
C2372 H2392 0.932 . S
C2373 C2371 1.408 . S
C2373 C2372 1.310 . S
C2373 H2393 0.930 . S
C2374 C2375 1.474 . S
C2374 C2376 1.285 . S
C2374 H2394 0.929 . S
C2375 C2372 1.461 . S
C2375 C2374 1.474 . S
C2376 C2371 1.342 . S
C2376 C2374 1.285 . S
C2376 H2395 0.930 . S
C2377 C2380 1.424 . S
C2377 C2382 1.245 . S
C2377 C2383 1.428 . S
C2378 C2381 1.260 . S
C2378 C2382 1.477 . S
C2378 H2396 0.932 . S
C2379 C2380 1.384 . S
C2379 C2381 1.479 . S
C2379 H2397 0.929 . S
C2380 C2377 1.424 . S
C2380 C2379 1.384 . S
C2380 H2398 0.928 . S
C2381 C2378 1.260 . S
C2381 C2379 1.479 . S
C2382 C2377 1.245 . S
C2382 C2378 1.477 . S
C2382 H2399 0.932 . S
C2383 U2366 2.882 . S
C2383 C2377 1.428 . S
C2383 O2386 1.301 . S
C2383 O2387 1.282 . S
O2384 U2366 2.441 . S
O2384 C2370 1.249 . S
O2385 U2366 2.420 . S
O2385 C2370 1.202 . S
O2386 U2366 2.455 . S
O2386 C2383 1.301 . S
O2387 U2366 2.449 . S
O2387 C2383 1.282 . S
H2388 C2361 0.931 . S
H2389 C2363 0.929 . S
H2390 C2364 0.930 . S
H2391 C2365 0.931 . S
H2392 C2372 0.932 . S
H2393 C2373 0.930 . S
H2394 C2374 0.929 . S
H2395 C2376 0.930 . S
H2396 C2378 0.932 . S
H2397 C2379 0.929 . S
H2398 C2380 0.928 . S
H2399 C2382 0.932 . S
C2400 C2401 1.264 . S
C2400 C2405 1.479 . S
C2400 C2410 1.465 . S
C2401 C2400 1.264 . S
C2401 C2403 1.339 . S
C2401 H2428 0.931 . S
C2402 C2403 1.395 . S
C2402 C2404 1.320 . S
C2403 C2401 1.339 . S
C2403 C2402 1.395 . S
C2403 H2429 0.929 . S
C2404 C2402 1.320 . S
C2404 C2405 1.405 . S
C2404 H2430 0.930 . S
C2405 C2400 1.479 . S
C2405 C2404 1.405 . S
C2405 H2431 0.931 . S
U2406 O2407 2.454 . S
U2406 O2408 2.458 . S
U2406 C2409 2.984 . S
U2406 C2410 2.847 . S
U2406 C2423 2.882 . S
U2406 O2424 2.441 . S
U2406 O2425 2.420 . S
U2406 O2426 2.455 . S
U2406 O2427 2.449 . S
O2407 U2406 2.454 . S
O2407 C2409 1.353 . S
O2408 U2406 2.458 . S
O2408 C2409 1.286 . S
C2409 U2406 2.984 . S
C2409 O2407 1.353 . S
C2409 O2408 1.286 . S
C2409 C2411 1.363 . S
C2410 C2400 1.465 . S
C2410 U2406 2.847 . S
C2410 O2424 1.249 . S
C2410 O2425 1.202 . S
C2411 C2409 1.363 . S
C2411 C2413 1.408 . S
C2411 C2416 1.342 . S
C2412 C2413 1.310 . S
C2412 C2415 1.461 . S
C2412 H2432 0.932 . S
C2413 C2411 1.408 . S
C2413 C2412 1.310 . S
C2413 H2433 0.930 . S
C2414 C2415 1.474 . S
C2414 C2416 1.285 . S
C2414 H2434 0.929 . S
C2415 C2412 1.461 . S
C2415 C2414 1.474 . S
C2416 C2411 1.342 . S
C2416 C2414 1.285 . S
C2416 H2435 0.930 . S
C2417 C2420 1.424 . S
C2417 C2422 1.245 . S
C2417 C2423 1.428 . S
C2418 C2421 1.260 . S
C2418 C2422 1.477 . S
C2418 H2436 0.932 . S
C2419 C2420 1.384 . S
C2419 C2421 1.479 . S
C2419 H2437 0.929 . S
C2420 C2417 1.424 . S
C2420 C2419 1.384 . S
C2420 H2438 0.928 . S
C2421 C2418 1.260 . S
C2421 C2419 1.479 . S
C2422 C2417 1.245 . S
C2422 C2418 1.477 . S
C2422 H2439 0.932 . S
C2423 U2406 2.882 . S
C2423 C2417 1.428 . S
C2423 O2426 1.301 . S
C2423 O2427 1.282 . S
O2424 U2406 2.441 . S
O2424 C2410 1.249 . S
O2425 U2406 2.420 . S
O2425 C2410 1.202 . S
O2426 U2406 2.455 . S
O2426 C2423 1.301 . S
O2427 U2406 2.449 . S
O2427 C2423 1.282 . S
H2428 C2401 0.931 . S
H2429 C2403 0.929 . S
H2430 C2404 0.930 . S
H2431 C2405 0.931 . S
H2432 C2412 0.932 . S
H2433 C2413 0.930 . S
H2434 C2414 0.929 . S
H2435 C2416 0.930 . S
H2436 C2418 0.932 . S
H2437 C2419 0.929 . S
H2438 C2420 0.928 . S
H2439 C2422 0.932 . S
C2440 C2441 1.264 . S
C2440 C2445 1.479 . S
C2440 C2450 1.465 . S
C2441 C2440 1.264 . S
C2441 C2443 1.339 . S
C2441 H2468 0.931 . S
C2442 C2443 1.395 . S
C2442 C2444 1.320 . S
C2443 C2441 1.339 . S
C2443 C2442 1.395 . S
C2443 H2469 0.929 . S
C2444 C2442 1.320 . S
C2444 C2445 1.405 . S
C2444 H2470 0.930 . S
C2445 C2440 1.479 . S
C2445 C2444 1.405 . S
C2445 H2471 0.931 . S
U2446 O2447 2.454 . S
U2446 O2448 2.458 . S
U2446 C2449 2.984 . S
U2446 C2450 2.847 . S
U2446 C2463 2.882 . S
U2446 O2464 2.441 . S
U2446 O2465 2.420 . S
U2446 O2466 2.455 . S
U2446 O2467 2.449 . S
O2447 U2446 2.454 . S
O2447 C2449 1.353 . S
O2448 U2446 2.458 . S
O2448 C2449 1.286 . S
C2449 U2446 2.984 . S
C2449 O2447 1.353 . S
C2449 O2448 1.286 . S
C2449 C2451 1.363 . S
C2450 C2440 1.465 . S
C2450 U2446 2.847 . S
C2450 O2464 1.249 . S
C2450 O2465 1.202 . S
C2451 C2449 1.363 . S
C2451 C2453 1.408 . S
C2451 C2456 1.342 . S
C2452 C2453 1.310 . S
C2452 C2455 1.461 . S
C2452 H2472 0.932 . S
C2453 C2451 1.408 . S
C2453 C2452 1.310 . S
C2453 H2473 0.930 . S
C2454 C2455 1.474 . S
C2454 C2456 1.285 . S
C2454 H2474 0.929 . S
C2455 C2452 1.461 . S
C2455 C2454 1.474 . S
C2456 C2451 1.342 . S
C2456 C2454 1.285 . S
C2456 H2475 0.930 . S
C2457 C2460 1.424 . S
C2457 C2462 1.245 . S
C2457 C2463 1.428 . S
C2458 C2461 1.260 . S
C2458 C2462 1.477 . S
C2458 H2476 0.932 . S
C2459 C2460 1.384 . S
C2459 C2461 1.479 . S
C2459 H2477 0.929 . S
C2460 C2457 1.424 . S
C2460 C2459 1.384 . S
C2460 H2478 0.928 . S
C2461 C2458 1.260 . S
C2461 C2459 1.479 . S
C2462 C2457 1.245 . S
C2462 C2458 1.477 . S
C2462 H2479 0.932 . S
C2463 U2446 2.882 . S
C2463 C2457 1.428 . S
C2463 O2466 1.301 . S
C2463 O2467 1.282 . S
O2464 U2446 2.441 . S
O2464 C2450 1.249 . S
O2465 U2446 2.420 . S
O2465 C2450 1.202 . S
O2466 U2446 2.455 . S
O2466 C2463 1.301 . S
O2467 U2446 2.449 . S
O2467 C2463 1.282 . S
H2468 C2441 0.931 . S
H2469 C2443 0.929 . S
H2470 C2444 0.930 . S
H2471 C2445 0.931 . S
H2472 C2452 0.932 . S
H2473 C2453 0.930 . S
H2474 C2454 0.929 . S
H2475 C2456 0.930 . S
H2476 C2458 0.932 . S
H2477 C2459 0.929 . S
H2478 C2460 0.928 . S
H2479 C2462 0.932 . S
C2480 C2481 1.264 . S
C2480 C2485 1.479 . S
C2480 C2490 1.465 . S
C2481 C2480 1.264 . S
C2481 C2483 1.339 . S
C2481 H2508 0.931 . S
C2482 C2483 1.395 . S
C2482 C2484 1.320 . S
C2483 C2481 1.339 . S
C2483 C2482 1.395 . S
C2483 H2509 0.929 . S
C2484 C2482 1.320 . S
C2484 C2485 1.405 . S
C2484 H2510 0.930 . S
C2485 C2480 1.479 . S
C2485 C2484 1.405 . S
C2485 H2511 0.931 . S
U2486 O2487 2.454 . S
U2486 O2488 2.458 . S
U2486 C2489 2.984 . S
U2486 C2490 2.847 . S
U2486 C2503 2.882 . S
U2486 O2504 2.441 . S
U2486 O2505 2.420 . S
U2486 O2506 2.455 . S
U2486 O2507 2.449 . S
O2487 U2486 2.454 . S
O2487 C2489 1.353 . S
O2488 U2486 2.458 . S
O2488 C2489 1.286 . S
C2489 U2486 2.984 . S
C2489 O2487 1.353 . S
C2489 O2488 1.286 . S
C2489 C2491 1.363 . S
C2490 C2480 1.465 . S
C2490 U2486 2.847 . S
C2490 O2504 1.249 . S
C2490 O2505 1.202 . S
C2491 C2489 1.363 . S
C2491 C2493 1.408 . S
C2491 C2496 1.342 . S
C2492 C2493 1.310 . S
C2492 C2495 1.461 . S
C2492 H2512 0.932 . S
C2493 C2491 1.408 . S
C2493 C2492 1.310 . S
C2493 H2513 0.930 . S
C2494 C2495 1.474 . S
C2494 C2496 1.285 . S
C2494 H2514 0.929 . S
C2495 C2492 1.461 . S
C2495 C2494 1.474 . S
C2496 C2491 1.342 . S
C2496 C2494 1.285 . S
C2496 H2515 0.930 . S
C2497 C2500 1.424 . S
C2497 C2502 1.245 . S
C2497 C2503 1.428 . S
C2498 C2501 1.260 . S
C2498 C2502 1.477 . S
C2498 H2516 0.932 . S
C2499 C2500 1.384 . S
C2499 C2501 1.479 . S
C2499 H2517 0.929 . S
C2500 C2497 1.424 . S
C2500 C2499 1.384 . S
C2500 H2518 0.928 . S
C2501 C2498 1.260 . S
C2501 C2499 1.479 . S
C2502 C2497 1.245 . S
C2502 C2498 1.477 . S
C2502 H2519 0.932 . S
C2503 U2486 2.882 . S
C2503 C2497 1.428 . S
C2503 O2506 1.301 . S
C2503 O2507 1.282 . S
O2504 U2486 2.441 . S
O2504 C2490 1.249 . S
O2505 U2486 2.420 . S
O2505 C2490 1.202 . S
O2506 U2486 2.455 . S
O2506 C2503 1.301 . S
O2507 U2486 2.449 . S
O2507 C2503 1.282 . S
H2508 C2481 0.931 . S
H2509 C2483 0.929 . S
H2510 C2484 0.930 . S
H2511 C2485 0.931 . S
H2512 C2492 0.932 . S
H2513 C2493 0.930 . S
H2514 C2494 0.929 . S
H2515 C2496 0.930 . S
H2516 C2498 0.932 . S
H2517 C2499 0.929 . S
H2518 C2500 0.928 . S
H2519 C2502 0.932 . S
C2520 C2521 1.264 . S
C2520 C2525 1.479 . S
C2520 C2530 1.465 . S
C2521 C2520 1.264 . S
C2521 C2523 1.339 . S
C2521 H2548 0.931 . S
C2522 C2523 1.395 . S
C2522 C2524 1.320 . S
C2523 C2521 1.339 . S
C2523 C2522 1.395 . S
C2523 H2549 0.929 . S
C2524 C2522 1.320 . S
C2524 C2525 1.405 . S
C2524 H2550 0.930 . S
C2525 C2520 1.479 . S
C2525 C2524 1.405 . S
C2525 H2551 0.931 . S
U2526 O2527 2.454 . S
U2526 O2528 2.458 . S
U2526 C2529 2.984 . S
U2526 C2530 2.847 . S
U2526 C2543 2.882 . S
U2526 O2544 2.441 . S
U2526 O2545 2.420 . S
U2526 O2546 2.455 . S
U2526 O2547 2.449 . S
O2527 U2526 2.454 . S
O2527 C2529 1.353 . S
O2528 U2526 2.458 . S
O2528 C2529 1.286 . S
C2529 U2526 2.984 . S
C2529 O2527 1.353 . S
C2529 O2528 1.286 . S
C2529 C2531 1.363 . S
C2530 C2520 1.465 . S
C2530 U2526 2.847 . S
C2530 O2544 1.249 . S
C2530 O2545 1.202 . S
C2531 C2529 1.363 . S
C2531 C2533 1.408 . S
C2531 C2536 1.342 . S
C2532 C2533 1.310 . S
C2532 C2535 1.461 . S
C2532 H2552 0.932 . S
C2533 C2531 1.408 . S
C2533 C2532 1.310 . S
C2533 H2553 0.930 . S
C2534 C2535 1.474 . S
C2534 C2536 1.285 . S
C2534 H2554 0.929 . S
C2535 C2532 1.461 . S
C2535 C2534 1.474 . S
C2536 C2531 1.342 . S
C2536 C2534 1.285 . S
C2536 H2555 0.930 . S
C2537 C2540 1.424 . S
C2537 C2542 1.245 . S
C2537 C2543 1.428 . S
C2538 C2541 1.260 . S
C2538 C2542 1.477 . S
C2538 H2556 0.932 . S
C2539 C2540 1.384 . S
C2539 C2541 1.479 . S
C2539 H2557 0.929 . S
C2540 C2537 1.424 . S
C2540 C2539 1.384 . S
C2540 H2558 0.928 . S
C2541 C2538 1.260 . S
C2541 C2539 1.479 . S
C2542 C2537 1.245 . S
C2542 C2538 1.477 . S
C2542 H2559 0.932 . S
C2543 U2526 2.882 . S
C2543 C2537 1.428 . S
C2543 O2546 1.301 . S
C2543 O2547 1.282 . S
O2544 U2526 2.441 . S
O2544 C2530 1.249 . S
O2545 U2526 2.420 . S
O2545 C2530 1.202 . S
O2546 U2526 2.455 . S
O2546 C2543 1.301 . S
O2547 U2526 2.449 . S
O2547 C2543 1.282 . S
H2548 C2521 0.931 . S
H2549 C2523 0.929 . S
H2550 C2524 0.930 . S
H2551 C2525 0.931 . S
H2552 C2532 0.932 . S
H2553 C2533 0.930 . S
H2554 C2534 0.929 . S
H2555 C2536 0.930 . S
H2556 C2538 0.932 . S
H2557 C2539 0.929 . S
H2558 C2540 0.928 . S
H2559 C2542 0.932 . S
C2560 C2561 1.264 . S
C2560 C2565 1.479 . S
C2560 C2570 1.465 . S
C2561 C2560 1.264 . S
C2561 C2563 1.339 . S
C2561 H2588 0.931 . S
C2562 C2563 1.395 . S
C2562 C2564 1.320 . S
C2563 C2561 1.339 . S
C2563 C2562 1.395 . S
C2563 H2589 0.929 . S
C2564 C2562 1.320 . S
C2564 C2565 1.405 . S
C2564 H2590 0.930 . S
C2565 C2560 1.479 . S
C2565 C2564 1.405 . S
C2565 H2591 0.931 . S
U2566 O2567 2.454 . S
U2566 O2568 2.458 . S
U2566 C2569 2.984 . S
U2566 C2570 2.847 . S
U2566 C2583 2.882 . S
U2566 O2584 2.441 . S
U2566 O2585 2.420 . S
U2566 O2586 2.455 . S
U2566 O2587 2.449 . S
O2567 U2566 2.454 . S
O2567 C2569 1.353 . S
O2568 U2566 2.458 . S
O2568 C2569 1.286 . S
C2569 U2566 2.984 . S
C2569 O2567 1.353 . S
C2569 O2568 1.286 . S
C2569 C2571 1.363 . S
C2570 C2560 1.465 . S
C2570 U2566 2.847 . S
C2570 O2584 1.249 . S
C2570 O2585 1.202 . S
C2571 C2569 1.363 . S
C2571 C2573 1.408 . S
C2571 C2576 1.342 . S
C2572 C2573 1.310 . S
C2572 C2575 1.461 . S
C2572 H2592 0.932 . S
C2573 C2571 1.408 . S
C2573 C2572 1.310 . S
C2573 H2593 0.930 . S
C2574 C2575 1.474 . S
C2574 C2576 1.285 . S
C2574 H2594 0.929 . S
C2575 C2572 1.461 . S
C2575 C2574 1.474 . S
C2576 C2571 1.342 . S
C2576 C2574 1.285 . S
C2576 H2595 0.930 . S
C2577 C2580 1.424 . S
C2577 C2582 1.245 . S
C2577 C2583 1.428 . S
C2578 C2581 1.260 . S
C2578 C2582 1.477 . S
C2578 H2596 0.932 . S
C2579 C2580 1.384 . S
C2579 C2581 1.479 . S
C2579 H2597 0.929 . S
C2580 C2577 1.424 . S
C2580 C2579 1.384 . S
C2580 H2598 0.928 . S
C2581 C2578 1.260 . S
C2581 C2579 1.479 . S
C2582 C2577 1.245 . S
C2582 C2578 1.477 . S
C2582 H2599 0.932 . S
C2583 U2566 2.882 . S
C2583 C2577 1.428 . S
C2583 O2586 1.301 . S
C2583 O2587 1.282 . S
O2584 U2566 2.441 . S
O2584 C2570 1.249 . S
O2585 U2566 2.420 . S
O2585 C2570 1.202 . S
O2586 U2566 2.455 . S
O2586 C2583 1.301 . S
O2587 U2566 2.449 . S
O2587 C2583 1.282 . S
H2588 C2561 0.931 . S
H2589 C2563 0.929 . S
H2590 C2564 0.930 . S
H2591 C2565 0.931 . S
H2592 C2572 0.932 . S
H2593 C2573 0.930 . S
H2594 C2574 0.929 . S
H2595 C2576 0.930 . S
H2596 C2578 0.932 . S
H2597 C2579 0.929 . S
H2598 C2580 0.928 . S
H2599 C2582 0.932 . S
C2600 C2601 1.264 . S
C2600 C2605 1.479 . S
C2600 C2610 1.465 . S
C2601 C2600 1.264 . S
C2601 C2603 1.339 . S
C2601 H2628 0.931 . S
C2602 C2603 1.395 . S
C2602 C2604 1.320 . S
C2603 C2601 1.339 . S
C2603 C2602 1.395 . S
C2603 H2629 0.929 . S
C2604 C2602 1.320 . S
C2604 C2605 1.405 . S
C2604 H2630 0.930 . S
C2605 C2600 1.479 . S
C2605 C2604 1.405 . S
C2605 H2631 0.931 . S
U2606 O2607 2.454 . S
U2606 O2608 2.458 . S
U2606 C2609 2.984 . S
U2606 C2610 2.847 . S
U2606 C2623 2.882 . S
U2606 O2624 2.441 . S
U2606 O2625 2.420 . S
U2606 O2626 2.455 . S
U2606 O2627 2.449 . S
O2607 U2606 2.454 . S
O2607 C2609 1.353 . S
O2608 U2606 2.458 . S
O2608 C2609 1.286 . S
C2609 U2606 2.984 . S
C2609 O2607 1.353 . S
C2609 O2608 1.286 . S
C2609 C2611 1.363 . S
C2610 C2600 1.465 . S
C2610 U2606 2.847 . S
C2610 O2624 1.249 . S
C2610 O2625 1.202 . S
C2611 C2609 1.363 . S
C2611 C2613 1.408 . S
C2611 C2616 1.342 . S
C2612 C2613 1.310 . S
C2612 C2615 1.461 . S
C2612 H2632 0.932 . S
C2613 C2611 1.408 . S
C2613 C2612 1.310 . S
C2613 H2633 0.930 . S
C2614 C2615 1.474 . S
C2614 C2616 1.285 . S
C2614 H2634 0.929 . S
C2615 C2612 1.461 . S
C2615 C2614 1.474 . S
C2616 C2611 1.342 . S
C2616 C2614 1.285 . S
C2616 H2635 0.930 . S
C2617 C2620 1.424 . S
C2617 C2622 1.245 . S
C2617 C2623 1.428 . S
C2618 C2621 1.260 . S
C2618 C2622 1.477 . S
C2618 H2636 0.932 . S
C2619 C2620 1.384 . S
C2619 C2621 1.479 . S
C2619 H2637 0.929 . S
C2620 C2617 1.424 . S
C2620 C2619 1.384 . S
C2620 H2638 0.928 . S
C2621 C2618 1.260 . S
C2621 C2619 1.479 . S
C2622 C2617 1.245 . S
C2622 C2618 1.477 . S
C2622 H2639 0.932 . S
C2623 U2606 2.882 . S
C2623 C2617 1.428 . S
C2623 O2626 1.301 . S
C2623 O2627 1.282 . S
O2624 U2606 2.441 . S
O2624 C2610 1.249 . S
O2625 U2606 2.420 . S
O2625 C2610 1.202 . S
O2626 U2606 2.455 . S
O2626 C2623 1.301 . S
O2627 U2606 2.449 . S
O2627 C2623 1.282 . S
H2628 C2601 0.931 . S
H2629 C2603 0.929 . S
H2630 C2604 0.930 . S
H2631 C2605 0.931 . S
H2632 C2612 0.932 . S
H2633 C2613 0.930 . S
H2634 C2614 0.929 . S
H2635 C2616 0.930 . S
H2636 C2618 0.932 . S
H2637 C2619 0.929 . S
H2638 C2620 0.928 . S
H2639 C2622 0.932 . S
C2640 C2641 1.264 . S
C2640 C2645 1.479 . S
C2640 C2650 1.465 . S
C2641 C2640 1.264 . S
C2641 C2643 1.339 . S
C2641 H2668 0.931 . S
C2642 C2643 1.395 . S
C2642 C2644 1.320 . S
C2643 C2641 1.339 . S
C2643 C2642 1.395 . S
C2643 H2669 0.929 . S
C2644 C2642 1.320 . S
C2644 C2645 1.405 . S
C2644 H2670 0.930 . S
C2645 C2640 1.479 . S
C2645 C2644 1.405 . S
C2645 H2671 0.931 . S
U2646 O2647 2.454 . S
U2646 O2648 2.458 . S
U2646 C2649 2.984 . S
U2646 C2650 2.847 . S
U2646 C2663 2.882 . S
U2646 O2664 2.441 . S
U2646 O2665 2.420 . S
U2646 O2666 2.455 . S
U2646 O2667 2.449 . S
O2647 U2646 2.454 . S
O2647 C2649 1.353 . S
O2648 U2646 2.458 . S
O2648 C2649 1.286 . S
C2649 U2646 2.984 . S
C2649 O2647 1.353 . S
C2649 O2648 1.286 . S
C2649 C2651 1.363 . S
C2650 C2640 1.465 . S
C2650 U2646 2.847 . S
C2650 O2664 1.249 . S
C2650 O2665 1.202 . S
C2651 C2649 1.363 . S
C2651 C2653 1.408 . S
C2651 C2656 1.342 . S
C2652 C2653 1.310 . S
C2652 C2655 1.461 . S
C2652 H2672 0.932 . S
C2653 C2651 1.408 . S
C2653 C2652 1.310 . S
C2653 H2673 0.930 . S
C2654 C2655 1.474 . S
C2654 C2656 1.285 . S
C2654 H2674 0.929 . S
C2655 C2652 1.461 . S
C2655 C2654 1.474 . S
C2656 C2651 1.342 . S
C2656 C2654 1.285 . S
C2656 H2675 0.930 . S
C2657 C2660 1.424 . S
C2657 C2662 1.245 . S
C2657 C2663 1.428 . S
C2658 C2661 1.260 . S
C2658 C2662 1.477 . S
C2658 H2676 0.932 . S
C2659 C2660 1.384 . S
C2659 C2661 1.479 . S
C2659 H2677 0.929 . S
C2660 C2657 1.424 . S
C2660 C2659 1.384 . S
C2660 H2678 0.928 . S
C2661 C2658 1.260 . S
C2661 C2659 1.479 . S
C2662 C2657 1.245 . S
C2662 C2658 1.477 . S
C2662 H2679 0.932 . S
C2663 U2646 2.882 . S
C2663 C2657 1.428 . S
C2663 O2666 1.301 . S
C2663 O2667 1.282 . S
O2664 U2646 2.441 . S
O2664 C2650 1.249 . S
O2665 U2646 2.420 . S
O2665 C2650 1.202 . S
O2666 U2646 2.455 . S
O2666 C2663 1.301 . S
O2667 U2646 2.449 . S
O2667 C2663 1.282 . S
H2668 C2641 0.931 . S
H2669 C2643 0.929 . S
H2670 C2644 0.930 . S
H2671 C2645 0.931 . S
H2672 C2652 0.932 . S
H2673 C2653 0.930 . S
H2674 C2654 0.929 . S
H2675 C2656 0.930 . S
H2676 C2658 0.932 . S
H2677 C2659 0.929 . S
H2678 C2660 0.928 . S
H2679 C2662 0.932 . S
C2680 C2681 1.264 . S
C2680 C2685 1.479 . S
C2680 C2690 1.465 . S
C2681 C2680 1.264 . S
C2681 C2683 1.339 . S
C2681 H2708 0.931 . S
C2682 C2683 1.395 . S
C2682 C2684 1.320 . S
C2683 C2681 1.339 . S
C2683 C2682 1.395 . S
C2683 H2709 0.929 . S
C2684 C2682 1.320 . S
C2684 C2685 1.405 . S
C2684 H2710 0.930 . S
C2685 C2680 1.479 . S
C2685 C2684 1.405 . S
C2685 H2711 0.931 . S
U2686 O2687 2.454 . S
U2686 O2688 2.458 . S
U2686 C2689 2.984 . S
U2686 C2690 2.847 . S
U2686 C2703 2.882 . S
U2686 O2704 2.441 . S
U2686 O2705 2.420 . S
U2686 O2706 2.455 . S
U2686 O2707 2.449 . S
O2687 U2686 2.454 . S
O2687 C2689 1.353 . S
O2688 U2686 2.458 . S
O2688 C2689 1.286 . S
C2689 U2686 2.984 . S
C2689 O2687 1.353 . S
C2689 O2688 1.286 . S
C2689 C2691 1.363 . S
C2690 C2680 1.465 . S
C2690 U2686 2.847 . S
C2690 O2704 1.249 . S
C2690 O2705 1.202 . S
C2691 C2689 1.363 . S
C2691 C2693 1.408 . S
C2691 C2696 1.342 . S
C2692 C2693 1.310 . S
C2692 C2695 1.461 . S
C2692 H2712 0.932 . S
C2693 C2691 1.408 . S
C2693 C2692 1.310 . S
C2693 H2713 0.930 . S
C2694 C2695 1.474 . S
C2694 C2696 1.285 . S
C2694 H2714 0.929 . S
C2695 C2692 1.461 . S
C2695 C2694 1.474 . S
C2696 C2691 1.342 . S
C2696 C2694 1.285 . S
C2696 H2715 0.930 . S
C2697 C2700 1.424 . S
C2697 C2702 1.245 . S
C2697 C2703 1.428 . S
C2698 C2701 1.260 . S
C2698 C2702 1.477 . S
C2698 H2716 0.932 . S
C2699 C2700 1.384 . S
C2699 C2701 1.479 . S
C2699 H2717 0.929 . S
C2700 C2697 1.424 . S
C2700 C2699 1.384 . S
C2700 H2718 0.928 . S
C2701 C2698 1.260 . S
C2701 C2699 1.479 . S
C2702 C2697 1.245 . S
C2702 C2698 1.477 . S
C2702 H2719 0.932 . S
C2703 U2686 2.882 . S
C2703 C2697 1.428 . S
C2703 O2706 1.301 . S
C2703 O2707 1.282 . S
O2704 U2686 2.441 . S
O2704 C2690 1.249 . S
O2705 U2686 2.420 . S
O2705 C2690 1.202 . S
O2706 U2686 2.455 . S
O2706 C2703 1.301 . S
O2707 U2686 2.449 . S
O2707 C2703 1.282 . S
H2708 C2681 0.931 . S
H2709 C2683 0.929 . S
H2710 C2684 0.930 . S
H2711 C2685 0.931 . S
H2712 C2692 0.932 . S
H2713 C2693 0.930 . S
H2714 C2694 0.929 . S
H2715 C2696 0.930 . S
H2716 C2698 0.932 . S
H2717 C2699 0.929 . S
H2718 C2700 0.928 . S
H2719 C2702 0.932 . S
C2720 C2721 1.264 . S
C2720 C2725 1.479 . S
C2720 C2730 1.465 . S
C2721 C2720 1.264 . S
C2721 C2723 1.339 . S
C2721 H2748 0.931 . S
C2722 C2723 1.395 . S
C2722 C2724 1.320 . S
C2723 C2721 1.339 . S
C2723 C2722 1.395 . S
C2723 H2749 0.929 . S
C2724 C2722 1.320 . S
C2724 C2725 1.405 . S
C2724 H2750 0.930 . S
C2725 C2720 1.479 . S
C2725 C2724 1.405 . S
C2725 H2751 0.931 . S
U2726 O2727 2.454 . S
U2726 O2728 2.458 . S
U2726 C2729 2.984 . S
U2726 C2730 2.847 . S
U2726 C2743 2.882 . S
U2726 O2744 2.441 . S
U2726 O2745 2.420 . S
U2726 O2746 2.455 . S
U2726 O2747 2.449 . S
O2727 U2726 2.454 . S
O2727 C2729 1.353 . S
O2728 U2726 2.458 . S
O2728 C2729 1.286 . S
C2729 U2726 2.984 . S
C2729 O2727 1.353 . S
C2729 O2728 1.286 . S
C2729 C2731 1.363 . S
C2730 C2720 1.465 . S
C2730 U2726 2.847 . S
C2730 O2744 1.249 . S
C2730 O2745 1.202 . S
C2731 C2729 1.363 . S
C2731 C2733 1.408 . S
C2731 C2736 1.342 . S
C2732 C2733 1.310 . S
C2732 C2735 1.461 . S
C2732 H2752 0.932 . S
C2733 C2731 1.408 . S
C2733 C2732 1.310 . S
C2733 H2753 0.930 . S
C2734 C2735 1.474 . S
C2734 C2736 1.285 . S
C2734 H2754 0.929 . S
C2735 C2732 1.461 . S
C2735 C2734 1.474 . S
C2736 C2731 1.342 . S
C2736 C2734 1.285 . S
C2736 H2755 0.930 . S
C2737 C2740 1.424 . S
C2737 C2742 1.245 . S
C2737 C2743 1.428 . S
C2738 C2741 1.260 . S
C2738 C2742 1.477 . S
C2738 H2756 0.932 . S
C2739 C2740 1.384 . S
C2739 C2741 1.479 . S
C2739 H2757 0.929 . S
C2740 C2737 1.424 . S
C2740 C2739 1.384 . S
C2740 H2758 0.928 . S
C2741 C2738 1.260 . S
C2741 C2739 1.479 . S
C2742 C2737 1.245 . S
C2742 C2738 1.477 . S
C2742 H2759 0.932 . S
C2743 U2726 2.882 . S
C2743 C2737 1.428 . S
C2743 O2746 1.301 . S
C2743 O2747 1.282 . S
O2744 U2726 2.441 . S
O2744 C2730 1.249 . S
O2745 U2726 2.420 . S
O2745 C2730 1.202 . S
O2746 U2726 2.455 . S
O2746 C2743 1.301 . S
O2747 U2726 2.449 . S
O2747 C2743 1.282 . S
H2748 C2721 0.931 . S
H2749 C2723 0.929 . S
H2750 C2724 0.930 . S
H2751 C2725 0.931 . S
H2752 C2732 0.932 . S
H2753 C2733 0.930 . S
H2754 C2734 0.929 . S
H2755 C2736 0.930 . S
H2756 C2738 0.932 . S
H2757 C2739 0.929 . S
H2758 C2740 0.928 . S
H2759 C2742 0.932 . S
C2760 C2761 1.264 . S
C2760 C2765 1.479 . S
C2760 C2770 1.465 . S
C2761 C2760 1.264 . S
C2761 C2763 1.339 . S
C2761 H2788 0.931 . S
C2762 C2763 1.395 . S
C2762 C2764 1.320 . S
C2763 C2761 1.339 . S
C2763 C2762 1.395 . S
C2763 H2789 0.929 . S
C2764 C2762 1.320 . S
C2764 C2765 1.405 . S
C2764 H2790 0.930 . S
C2765 C2760 1.479 . S
C2765 C2764 1.405 . S
C2765 H2791 0.931 . S
U2766 O2767 2.454 . S
U2766 O2768 2.458 . S
U2766 C2769 2.984 . S
U2766 C2770 2.847 . S
U2766 C2783 2.882 . S
U2766 O2784 2.441 . S
U2766 O2785 2.420 . S
U2766 O2786 2.455 . S
U2766 O2787 2.449 . S
O2767 U2766 2.454 . S
O2767 C2769 1.353 . S
O2768 U2766 2.458 . S
O2768 C2769 1.286 . S
C2769 U2766 2.984 . S
C2769 O2767 1.353 . S
C2769 O2768 1.286 . S
C2769 C2771 1.363 . S
C2770 C2760 1.465 . S
C2770 U2766 2.847 . S
C2770 O2784 1.249 . S
C2770 O2785 1.202 . S
C2771 C2769 1.363 . S
C2771 C2773 1.408 . S
C2771 C2776 1.342 . S
C2772 C2773 1.310 . S
C2772 C2775 1.461 . S
C2772 H2792 0.932 . S
C2773 C2771 1.408 . S
C2773 C2772 1.310 . S
C2773 H2793 0.930 . S
C2774 C2775 1.474 . S
C2774 C2776 1.285 . S
C2774 H2794 0.929 . S
C2775 C2772 1.461 . S
C2775 C2774 1.474 . S
C2776 C2771 1.342 . S
C2776 C2774 1.285 . S
C2776 H2795 0.930 . S
C2777 C2780 1.424 . S
C2777 C2782 1.245 . S
C2777 C2783 1.428 . S
C2778 C2781 1.260 . S
C2778 C2782 1.477 . S
C2778 H2796 0.932 . S
C2779 C2780 1.384 . S
C2779 C2781 1.479 . S
C2779 H2797 0.929 . S
C2780 C2777 1.424 . S
C2780 C2779 1.384 . S
C2780 H2798 0.928 . S
C2781 C2778 1.260 . S
C2781 C2779 1.479 . S
C2782 C2777 1.245 . S
C2782 C2778 1.477 . S
C2782 H2799 0.932 . S
C2783 U2766 2.882 . S
C2783 C2777 1.428 . S
C2783 O2786 1.301 . S
C2783 O2787 1.282 . S
O2784 U2766 2.441 . S
O2784 C2770 1.249 . S
O2785 U2766 2.420 . S
O2785 C2770 1.202 . S
O2786 U2766 2.455 . S
O2786 C2783 1.301 . S
O2787 U2766 2.449 . S
O2787 C2783 1.282 . S
H2788 C2761 0.931 . S
H2789 C2763 0.929 . S
H2790 C2764 0.930 . S
H2791 C2765 0.931 . S
H2792 C2772 0.932 . S
H2793 C2773 0.930 . S
H2794 C2774 0.929 . S
H2795 C2776 0.930 . S
H2796 C2778 0.932 . S
H2797 C2779 0.929 . S
H2798 C2780 0.928 . S
H2799 C2782 0.932 . S
C2800 C2801 1.264 . S
C2800 C2805 1.479 . S
C2800 C2810 1.465 . S
C2801 C2800 1.264 . S
C2801 C2803 1.339 . S
C2801 H2828 0.931 . S
C2802 C2803 1.395 . S
C2802 C2804 1.320 . S
C2803 C2801 1.339 . S
C2803 C2802 1.395 . S
C2803 H2829 0.929 . S
C2804 C2802 1.320 . S
C2804 C2805 1.405 . S
C2804 H2830 0.930 . S
C2805 C2800 1.479 . S
C2805 C2804 1.405 . S
C2805 H2831 0.931 . S
U2806 O2807 2.454 . S
U2806 O2808 2.458 . S
U2806 C2809 2.984 . S
U2806 C2810 2.847 . S
U2806 C2823 2.882 . S
U2806 O2824 2.441 . S
U2806 O2825 2.420 . S
U2806 O2826 2.455 . S
U2806 O2827 2.449 . S
O2807 U2806 2.454 . S
O2807 C2809 1.353 . S
O2808 U2806 2.458 . S
O2808 C2809 1.286 . S
C2809 U2806 2.984 . S
C2809 O2807 1.353 . S
C2809 O2808 1.286 . S
C2809 C2811 1.363 . S
C2810 C2800 1.465 . S
C2810 U2806 2.847 . S
C2810 O2824 1.249 . S
C2810 O2825 1.202 . S
C2811 C2809 1.363 . S
C2811 C2813 1.408 . S
C2811 C2816 1.342 . S
C2812 C2813 1.310 . S
C2812 C2815 1.461 . S
C2812 H2832 0.932 . S
C2813 C2811 1.408 . S
C2813 C2812 1.310 . S
C2813 H2833 0.930 . S
C2814 C2815 1.474 . S
C2814 C2816 1.285 . S
C2814 H2834 0.929 . S
C2815 C2812 1.461 . S
C2815 C2814 1.474 . S
C2816 C2811 1.342 . S
C2816 C2814 1.285 . S
C2816 H2835 0.930 . S
C2817 C2820 1.424 . S
C2817 C2822 1.245 . S
C2817 C2823 1.428 . S
C2818 C2821 1.260 . S
C2818 C2822 1.477 . S
C2818 H2836 0.932 . S
C2819 C2820 1.384 . S
C2819 C2821 1.479 . S
C2819 H2837 0.929 . S
C2820 C2817 1.424 . S
C2820 C2819 1.384 . S
C2820 H2838 0.928 . S
C2821 C2818 1.260 . S
C2821 C2819 1.479 . S
C2822 C2817 1.245 . S
C2822 C2818 1.477 . S
C2822 H2839 0.932 . S
C2823 U2806 2.882 . S
C2823 C2817 1.428 . S
C2823 O2826 1.301 . S
C2823 O2827 1.282 . S
O2824 U2806 2.441 . S
O2824 C2810 1.249 . S
O2825 U2806 2.420 . S
O2825 C2810 1.202 . S
O2826 U2806 2.455 . S
O2826 C2823 1.301 . S
O2827 U2806 2.449 . S
O2827 C2823 1.282 . S
H2828 C2801 0.931 . S
H2829 C2803 0.929 . S
H2830 C2804 0.930 . S
H2831 C2805 0.931 . S
H2832 C2812 0.932 . S
H2833 C2813 0.930 . S
H2834 C2814 0.929 . S
H2835 C2816 0.930 . S
H2836 C2818 0.932 . S
H2837 C2819 0.929 . S
H2838 C2820 0.928 . S
H2839 C2822 0.932 . S
C2840 C2841 1.264 . S
C2840 C2845 1.479 . S
C2840 C2850 1.465 . S
C2841 C2840 1.264 . S
C2841 C2843 1.339 . S
C2841 H2868 0.931 . S
C2842 C2843 1.395 . S
C2842 C2844 1.320 . S
C2843 C2841 1.339 . S
C2843 C2842 1.395 . S
C2843 H2869 0.929 . S
C2844 C2842 1.320 . S
C2844 C2845 1.405 . S
C2844 H2870 0.930 . S
C2845 C2840 1.479 . S
C2845 C2844 1.405 . S
C2845 H2871 0.931 . S
U2846 O2847 2.454 . S
U2846 O2848 2.458 . S
U2846 C2849 2.984 . S
U2846 C2850 2.847 . S
U2846 C2863 2.882 . S
U2846 O2864 2.441 . S
U2846 O2865 2.420 . S
U2846 O2866 2.455 . S
U2846 O2867 2.449 . S
O2847 U2846 2.454 . S
O2847 C2849 1.353 . S
O2848 U2846 2.458 . S
O2848 C2849 1.286 . S
C2849 U2846 2.984 . S
C2849 O2847 1.353 . S
C2849 O2848 1.286 . S
C2849 C2851 1.363 . S
C2850 C2840 1.465 . S
C2850 U2846 2.847 . S
C2850 O2864 1.249 . S
C2850 O2865 1.202 . S
C2851 C2849 1.363 . S
C2851 C2853 1.408 . S
C2851 C2856 1.342 . S
C2852 C2853 1.310 . S
C2852 C2855 1.461 . S
C2852 H2872 0.932 . S
C2853 C2851 1.408 . S
C2853 C2852 1.310 . S
C2853 H2873 0.930 . S
C2854 C2855 1.474 . S
C2854 C2856 1.285 . S
C2854 H2874 0.929 . S
C2855 C2852 1.461 . S
C2855 C2854 1.474 . S
C2856 C2851 1.342 . S
C2856 C2854 1.285 . S
C2856 H2875 0.930 . S
C2857 C2860 1.424 . S
C2857 C2862 1.245 . S
C2857 C2863 1.428 . S
C2858 C2861 1.260 . S
C2858 C2862 1.477 . S
C2858 H2876 0.932 . S
C2859 C2860 1.384 . S
C2859 C2861 1.479 . S
C2859 H2877 0.929 . S
C2860 C2857 1.424 . S
C2860 C2859 1.384 . S
C2860 H2878 0.928 . S
C2861 C2858 1.260 . S
C2861 C2859 1.479 . S
C2862 C2857 1.245 . S
C2862 C2858 1.477 . S
C2862 H2879 0.932 . S
C2863 U2846 2.882 . S
C2863 C2857 1.428 . S
C2863 O2866 1.301 . S
C2863 O2867 1.282 . S
O2864 U2846 2.441 . S
O2864 C2850 1.249 . S
O2865 U2846 2.420 . S
O2865 C2850 1.202 . S
O2866 U2846 2.455 . S
O2866 C2863 1.301 . S
O2867 U2846 2.449 . S
O2867 C2863 1.282 . S
H2868 C2841 0.931 . S
H2869 C2843 0.929 . S
H2870 C2844 0.930 . S
H2871 C2845 0.931 . S
H2872 C2852 0.932 . S
H2873 C2853 0.930 . S
H2874 C2854 0.929 . S
H2875 C2856 0.930 . S
H2876 C2858 0.932 . S
H2877 C2859 0.929 . S
H2878 C2860 0.928 . S
H2879 C2862 0.932 . S
C2880 C2881 1.264 . S
C2880 C2885 1.479 . S
C2880 C2890 1.465 . S
C2881 C2880 1.264 . S
C2881 C2883 1.339 . S
C2881 H2908 0.931 . S
C2882 C2883 1.395 . S
C2882 C2884 1.320 . S
C2883 C2881 1.339 . S
C2883 C2882 1.395 . S
C2883 H2909 0.929 . S
C2884 C2882 1.320 . S
C2884 C2885 1.405 . S
C2884 H2910 0.930 . S
C2885 C2880 1.479 . S
C2885 C2884 1.405 . S
C2885 H2911 0.931 . S
U2886 O2887 2.454 . S
U2886 O2888 2.458 . S
U2886 C2889 2.984 . S
U2886 C2890 2.847 . S
U2886 C2903 2.882 . S
U2886 O2904 2.441 . S
U2886 O2905 2.420 . S
U2886 O2906 2.455 . S
U2886 O2907 2.449 . S
O2887 U2886 2.454 . S
O2887 C2889 1.353 . S
O2888 U2886 2.458 . S
O2888 C2889 1.286 . S
C2889 U2886 2.984 . S
C2889 O2887 1.353 . S
C2889 O2888 1.286 . S
C2889 C2891 1.363 . S
C2890 C2880 1.465 . S
C2890 U2886 2.847 . S
C2890 O2904 1.249 . S
C2890 O2905 1.202 . S
C2891 C2889 1.363 . S
C2891 C2893 1.408 . S
C2891 C2896 1.342 . S
C2892 C2893 1.310 . S
C2892 C2895 1.461 . S
C2892 H2912 0.932 . S
C2893 C2891 1.408 . S
C2893 C2892 1.310 . S
C2893 H2913 0.930 . S
C2894 C2895 1.474 . S
C2894 C2896 1.285 . S
C2894 H2914 0.929 . S
C2895 C2892 1.461 . S
C2895 C2894 1.474 . S
C2896 C2891 1.342 . S
C2896 C2894 1.285 . S
C2896 H2915 0.930 . S
C2897 C2900 1.424 . S
C2897 C2902 1.245 . S
C2897 C2903 1.428 . S
C2898 C2901 1.260 . S
C2898 C2902 1.477 . S
C2898 H2916 0.932 . S
C2899 C2900 1.384 . S
C2899 C2901 1.479 . S
C2899 H2917 0.929 . S
C2900 C2897 1.424 . S
C2900 C2899 1.384 . S
C2900 H2918 0.928 . S
C2901 C2898 1.260 . S
C2901 C2899 1.479 . S
C2902 C2897 1.245 . S
C2902 C2898 1.477 . S
C2902 H2919 0.932 . S
C2903 U2886 2.882 . S
C2903 C2897 1.428 . S
C2903 O2906 1.301 . S
C2903 O2907 1.282 . S
O2904 U2886 2.441 . S
O2904 C2890 1.249 . S
O2905 U2886 2.420 . S
O2905 C2890 1.202 . S
O2906 U2886 2.455 . S
O2906 C2903 1.301 . S
O2907 U2886 2.449 . S
O2907 C2903 1.282 . S
H2908 C2881 0.931 . S
H2909 C2883 0.929 . S
H2910 C2884 0.930 . S
H2911 C2885 0.931 . S
H2912 C2892 0.932 . S
H2913 C2893 0.930 . S
H2914 C2894 0.929 . S
H2915 C2896 0.930 . S
H2916 C2898 0.932 . S
H2917 C2899 0.929 . S
H2918 C2900 0.928 . S
H2919 C2902 0.932 . S
C2920 C2921 1.264 . S
C2920 C2925 1.479 . S
C2920 C2930 1.465 . S
C2921 C2920 1.264 . S
C2921 C2923 1.339 . S
C2921 H2948 0.931 . S
C2922 C2923 1.395 . S
C2922 C2924 1.320 . S
C2923 C2921 1.339 . S
C2923 C2922 1.395 . S
C2923 H2949 0.929 . S
C2924 C2922 1.320 . S
C2924 C2925 1.405 . S
C2924 H2950 0.930 . S
C2925 C2920 1.479 . S
C2925 C2924 1.405 . S
C2925 H2951 0.931 . S
U2926 O2927 2.454 . S
U2926 O2928 2.458 . S
U2926 C2929 2.984 . S
U2926 C2930 2.847 . S
U2926 C2943 2.882 . S
U2926 O2944 2.441 . S
U2926 O2945 2.420 . S
U2926 O2946 2.455 . S
U2926 O2947 2.449 . S
O2927 U2926 2.454 . S
O2927 C2929 1.353 . S
O2928 U2926 2.458 . S
O2928 C2929 1.286 . S
C2929 U2926 2.984 . S
C2929 O2927 1.353 . S
C2929 O2928 1.286 . S
C2929 C2931 1.363 . S
C2930 C2920 1.465 . S
C2930 U2926 2.847 . S
C2930 O2944 1.249 . S
C2930 O2945 1.202 . S
C2931 C2929 1.363 . S
C2931 C2933 1.408 . S
C2931 C2936 1.342 . S
C2932 C2933 1.310 . S
C2932 C2935 1.461 . S
C2932 H2952 0.932 . S
C2933 C2931 1.408 . S
C2933 C2932 1.310 . S
C2933 H2953 0.930 . S
C2934 C2935 1.474 . S
C2934 C2936 1.285 . S
C2934 H2954 0.929 . S
C2935 C2932 1.461 . S
C2935 C2934 1.474 . S
C2936 C2931 1.342 . S
C2936 C2934 1.285 . S
C2936 H2955 0.930 . S
C2937 C2940 1.424 . S
C2937 C2942 1.245 . S
C2937 C2943 1.428 . S
C2938 C2941 1.260 . S
C2938 C2942 1.477 . S
C2938 H2956 0.932 . S
C2939 C2940 1.384 . S
C2939 C2941 1.479 . S
C2939 H2957 0.929 . S
C2940 C2937 1.424 . S
C2940 C2939 1.384 . S
C2940 H2958 0.928 . S
C2941 C2938 1.260 . S
C2941 C2939 1.479 . S
C2942 C2937 1.245 . S
C2942 C2938 1.477 . S
C2942 H2959 0.932 . S
C2943 U2926 2.882 . S
C2943 C2937 1.428 . S
C2943 O2946 1.301 . S
C2943 O2947 1.282 . S
O2944 U2926 2.441 . S
O2944 C2930 1.249 . S
O2945 U2926 2.420 . S
O2945 C2930 1.202 . S
O2946 U2926 2.455 . S
O2946 C2943 1.301 . S
O2947 U2926 2.449 . S
O2947 C2943 1.282 . S
H2948 C2921 0.931 . S
H2949 C2923 0.929 . S
H2950 C2924 0.930 . S
H2951 C2925 0.931 . S
H2952 C2932 0.932 . S
H2953 C2933 0.930 . S
H2954 C2934 0.929 . S
H2955 C2936 0.930 . S
H2956 C2938 0.932 . S
H2957 C2939 0.929 . S
H2958 C2940 0.928 . S
H2959 C2942 0.932 . S
C2960 C2961 1.264 . S
C2960 C2965 1.479 . S
C2960 C2970 1.465 . S
C2961 C2960 1.264 . S
C2961 C2963 1.339 . S
C2961 H2988 0.931 . S
C2962 C2963 1.395 . S
C2962 C2964 1.320 . S
C2963 C2961 1.339 . S
C2963 C2962 1.395 . S
C2963 H2989 0.929 . S
C2964 C2962 1.320 . S
C2964 C2965 1.405 . S
C2964 H2990 0.930 . S
C2965 C2960 1.479 . S
C2965 C2964 1.405 . S
C2965 H2991 0.931 . S
U2966 O2967 2.454 . S
U2966 O2968 2.458 . S
U2966 C2969 2.984 . S
U2966 C2970 2.847 . S
U2966 C2983 2.882 . S
U2966 O2984 2.441 . S
U2966 O2985 2.420 . S
U2966 O2986 2.455 . S
U2966 O2987 2.449 . S
O2967 U2966 2.454 . S
O2967 C2969 1.353 . S
O2968 U2966 2.458 . S
O2968 C2969 1.286 . S
C2969 U2966 2.984 . S
C2969 O2967 1.353 . S
C2969 O2968 1.286 . S
C2969 C2971 1.363 . S
C2970 C2960 1.465 . S
C2970 U2966 2.847 . S
C2970 O2984 1.249 . S
C2970 O2985 1.202 . S
C2971 C2969 1.363 . S
C2971 C2973 1.408 . S
C2971 C2976 1.342 . S
C2972 C2973 1.310 . S
C2972 C2975 1.461 . S
C2972 H2992 0.932 . S
C2973 C2971 1.408 . S
C2973 C2972 1.310 . S
C2973 H2993 0.930 . S
C2974 C2975 1.474 . S
C2974 C2976 1.285 . S
C2974 H2994 0.929 . S
C2975 C2972 1.461 . S
C2975 C2974 1.474 . S
C2976 C2971 1.342 . S
C2976 C2974 1.285 . S
C2976 H2995 0.930 . S
C2977 C2980 1.424 . S
C2977 C2982 1.245 . S
C2977 C2983 1.428 . S
C2978 C2981 1.260 . S
C2978 C2982 1.477 . S
C2978 H2996 0.932 . S
C2979 C2980 1.384 . S
C2979 C2981 1.479 . S
C2979 H2997 0.929 . S
C2980 C2977 1.424 . S
C2980 C2979 1.384 . S
C2980 H2998 0.928 . S
C2981 C2978 1.260 . S
C2981 C2979 1.479 . S
C2982 C2977 1.245 . S
C2982 C2978 1.477 . S
C2982 H2999 0.932 . S
C2983 U2966 2.882 . S
C2983 C2977 1.428 . S
C2983 O2986 1.301 . S
C2983 O2987 1.282 . S
O2984 U2966 2.441 . S
O2984 C2970 1.249 . S
O2985 U2966 2.420 . S
O2985 C2970 1.202 . S
O2986 U2966 2.455 . S
O2986 C2983 1.301 . S
O2987 U2966 2.449 . S
O2987 C2983 1.282 . S
H2988 C2961 0.931 . S
H2989 C2963 0.929 . S
H2990 C2964 0.930 . S
H2991 C2965 0.931 . S
H2992 C2972 0.932 . S
H2993 C2973 0.930 . S
H2994 C2974 0.929 . S
H2995 C2976 0.930 . S
H2996 C2978 0.932 . S
H2997 C2979 0.929 . S
H2998 C2980 0.928 . S
H2999 C2982 0.932 . S
C3000 C3001 1.264 . S
C3000 C3005 1.479 . S
C3000 C3010 1.465 . S
C3001 C3000 1.264 . S
C3001 C3003 1.339 . S
C3001 H3028 0.931 . S
C3002 C3003 1.395 . S
C3002 C3004 1.320 . S
C3003 C3001 1.339 . S
C3003 C3002 1.395 . S
C3003 H3029 0.929 . S
C3004 C3002 1.320 . S
C3004 C3005 1.405 . S
C3004 H3030 0.930 . S
C3005 C3000 1.479 . S
C3005 C3004 1.405 . S
C3005 H3031 0.931 . S
U3006 O3007 2.454 . S
U3006 O3008 2.458 . S
U3006 C3009 2.984 . S
U3006 C3010 2.847 . S
U3006 C3023 2.882 . S
U3006 O3024 2.441 . S
U3006 O3025 2.420 . S
U3006 O3026 2.455 . S
U3006 O3027 2.449 . S
O3007 U3006 2.454 . S
O3007 C3009 1.353 . S
O3008 U3006 2.458 . S
O3008 C3009 1.286 . S
C3009 U3006 2.984 . S
C3009 O3007 1.353 . S
C3009 O3008 1.286 . S
C3009 C3011 1.363 . S
C3010 C3000 1.465 . S
C3010 U3006 2.847 . S
C3010 O3024 1.249 . S
C3010 O3025 1.202 . S
C3011 C3009 1.363 . S
C3011 C3013 1.408 . S
C3011 C3016 1.342 . S
C3012 C3013 1.310 . S
C3012 C3015 1.461 . S
C3012 H3032 0.932 . S
C3013 C3011 1.408 . S
C3013 C3012 1.310 . S
C3013 H3033 0.930 . S
C3014 C3015 1.474 . S
C3014 C3016 1.285 . S
C3014 H3034 0.929 . S
C3015 C3012 1.461 . S
C3015 C3014 1.474 . S
C3016 C3011 1.342 . S
C3016 C3014 1.285 . S
C3016 H3035 0.930 . S
C3017 C3020 1.424 . S
C3017 C3022 1.245 . S
C3017 C3023 1.428 . S
C3018 C3021 1.260 . S
C3018 C3022 1.477 . S
C3018 H3036 0.932 . S
C3019 C3020 1.384 . S
C3019 C3021 1.479 . S
C3019 H3037 0.929 . S
C3020 C3017 1.424 . S
C3020 C3019 1.384 . S
C3020 H3038 0.928 . S
C3021 C3018 1.260 . S
C3021 C3019 1.479 . S
C3022 C3017 1.245 . S
C3022 C3018 1.477 . S
C3022 H3039 0.932 . S
C3023 U3006 2.882 . S
C3023 C3017 1.428 . S
C3023 O3026 1.301 . S
C3023 O3027 1.282 . S
O3024 U3006 2.441 . S
O3024 C3010 1.249 . S
O3025 U3006 2.420 . S
O3025 C3010 1.202 . S
O3026 U3006 2.455 . S
O3026 C3023 1.301 . S
O3027 U3006 2.449 . S
O3027 C3023 1.282 . S
H3028 C3001 0.931 . S
H3029 C3003 0.929 . S
H3030 C3004 0.930 . S
H3031 C3005 0.931 . S
H3032 C3012 0.932 . S
H3033 C3013 0.930 . S
H3034 C3014 0.929 . S
H3035 C3016 0.930 . S
H3036 C3018 0.932 . S
H3037 C3019 0.929 . S
H3038 C3020 0.928 . S
H3039 C3022 0.932 . S
C3040 C3041 1.264 . S
C3040 C3045 1.479 . S
C3040 C3050 1.465 . S
C3041 C3040 1.264 . S
C3041 C3043 1.339 . S
C3041 H3068 0.931 . S
C3042 C3043 1.395 . S
C3042 C3044 1.320 . S
C3043 C3041 1.339 . S
C3043 C3042 1.395 . S
C3043 H3069 0.929 . S
C3044 C3042 1.320 . S
C3044 C3045 1.405 . S
C3044 H3070 0.930 . S
C3045 C3040 1.479 . S
C3045 C3044 1.405 . S
C3045 H3071 0.931 . S
U3046 O3047 2.454 . S
U3046 O3048 2.458 . S
U3046 C3049 2.984 . S
U3046 C3050 2.847 . S
U3046 C3063 2.882 . S
U3046 O3064 2.441 . S
U3046 O3065 2.420 . S
U3046 O3066 2.455 . S
U3046 O3067 2.449 . S
O3047 U3046 2.454 . S
O3047 C3049 1.353 . S
O3048 U3046 2.458 . S
O3048 C3049 1.286 . S
C3049 U3046 2.984 . S
C3049 O3047 1.353 . S
C3049 O3048 1.286 . S
C3049 C3051 1.363 . S
C3050 C3040 1.465 . S
C3050 U3046 2.847 . S
C3050 O3064 1.249 . S
C3050 O3065 1.202 . S
C3051 C3049 1.363 . S
C3051 C3053 1.408 . S
C3051 C3056 1.342 . S
C3052 C3053 1.310 . S
C3052 C3055 1.461 . S
C3052 H3072 0.932 . S
C3053 C3051 1.408 . S
C3053 C3052 1.310 . S
C3053 H3073 0.930 . S
C3054 C3055 1.474 . S
C3054 C3056 1.285 . S
C3054 H3074 0.929 . S
C3055 C3052 1.461 . S
C3055 C3054 1.474 . S
C3056 C3051 1.342 . S
C3056 C3054 1.285 . S
C3056 H3075 0.930 . S
C3057 C3060 1.424 . S
C3057 C3062 1.245 . S
C3057 C3063 1.428 . S
C3058 C3061 1.260 . S
C3058 C3062 1.477 . S
C3058 H3076 0.932 . S
C3059 C3060 1.384 . S
C3059 C3061 1.479 . S
C3059 H3077 0.929 . S
C3060 C3057 1.424 . S
C3060 C3059 1.384 . S
C3060 H3078 0.928 . S
C3061 C3058 1.260 . S
C3061 C3059 1.479 . S
C3062 C3057 1.245 . S
C3062 C3058 1.477 . S
C3062 H3079 0.932 . S
C3063 U3046 2.882 . S
C3063 C3057 1.428 . S
C3063 O3066 1.301 . S
C3063 O3067 1.282 . S
O3064 U3046 2.441 . S
O3064 C3050 1.249 . S
O3065 U3046 2.420 . S
O3065 C3050 1.202 . S
O3066 U3046 2.455 . S
O3066 C3063 1.301 . S
O3067 U3046 2.449 . S
O3067 C3063 1.282 . S
H3068 C3041 0.931 . S
H3069 C3043 0.929 . S
H3070 C3044 0.930 . S
H3071 C3045 0.931 . S
H3072 C3052 0.932 . S
H3073 C3053 0.930 . S
H3074 C3054 0.929 . S
H3075 C3056 0.930 . S
H3076 C3058 0.932 . S
H3077 C3059 0.929 . S
H3078 C3060 0.928 . S
H3079 C3062 0.932 . S
C3080 C3081 1.264 . S
C3080 C3085 1.479 . S
C3080 C3090 1.465 . S
C3081 C3080 1.264 . S
C3081 C3083 1.339 . S
C3081 H3108 0.931 . S
C3082 C3083 1.395 . S
C3082 C3084 1.320 . S
C3083 C3081 1.339 . S
C3083 C3082 1.395 . S
C3083 H3109 0.929 . S
C3084 C3082 1.320 . S
C3084 C3085 1.405 . S
C3084 H3110 0.930 . S
C3085 C3080 1.479 . S
C3085 C3084 1.405 . S
C3085 H3111 0.931 . S
U3086 O3087 2.454 . S
U3086 O3088 2.458 . S
U3086 C3089 2.984 . S
U3086 C3090 2.847 . S
U3086 C3103 2.882 . S
U3086 O3104 2.441 . S
U3086 O3105 2.420 . S
U3086 O3106 2.455 . S
U3086 O3107 2.449 . S
O3087 U3086 2.454 . S
O3087 C3089 1.353 . S
O3088 U3086 2.458 . S
O3088 C3089 1.286 . S
C3089 U3086 2.984 . S
C3089 O3087 1.353 . S
C3089 O3088 1.286 . S
C3089 C3091 1.363 . S
C3090 C3080 1.465 . S
C3090 U3086 2.847 . S
C3090 O3104 1.249 . S
C3090 O3105 1.202 . S
C3091 C3089 1.363 . S
C3091 C3093 1.408 . S
C3091 C3096 1.342 . S
C3092 C3093 1.310 . S
C3092 C3095 1.461 . S
C3092 H3112 0.932 . S
C3093 C3091 1.408 . S
C3093 C3092 1.310 . S
C3093 H3113 0.930 . S
C3094 C3095 1.474 . S
C3094 C3096 1.285 . S
C3094 H3114 0.929 . S
C3095 C3092 1.461 . S
C3095 C3094 1.474 . S
C3096 C3091 1.342 . S
C3096 C3094 1.285 . S
C3096 H3115 0.930 . S
C3097 C3100 1.424 . S
C3097 C3102 1.245 . S
C3097 C3103 1.428 . S
C3098 C3101 1.260 . S
C3098 C3102 1.477 . S
C3098 H3116 0.932 . S
C3099 C3100 1.384 . S
C3099 C3101 1.479 . S
C3099 H3117 0.929 . S
C3100 C3097 1.424 . S
C3100 C3099 1.384 . S
C3100 H3118 0.928 . S
C3101 C3098 1.260 . S
C3101 C3099 1.479 . S
C3102 C3097 1.245 . S
C3102 C3098 1.477 . S
C3102 H3119 0.932 . S
C3103 U3086 2.882 . S
C3103 C3097 1.428 . S
C3103 O3106 1.301 . S
C3103 O3107 1.282 . S
O3104 U3086 2.441 . S
O3104 C3090 1.249 . S
O3105 U3086 2.420 . S
O3105 C3090 1.202 . S
O3106 U3086 2.455 . S
O3106 C3103 1.301 . S
O3107 U3086 2.449 . S
O3107 C3103 1.282 . S
H3108 C3081 0.931 . S
H3109 C3083 0.929 . S
H3110 C3084 0.930 . S
H3111 C3085 0.931 . S
H3112 C3092 0.932 . S
H3113 C3093 0.930 . S
H3114 C3094 0.929 . S
H3115 C3096 0.930 . S
H3116 C3098 0.932 . S
H3117 C3099 0.929 . S
H3118 C3100 0.928 . S
H3119 C3102 0.932 . S
C3120 C3121 1.264 . S
C3120 C3125 1.479 . S
C3120 C3130 1.465 . S
C3121 C3120 1.264 . S
C3121 C3123 1.339 . S
C3121 H3148 0.931 . S
C3122 C3123 1.395 . S
C3122 C3124 1.320 . S
C3123 C3121 1.339 . S
C3123 C3122 1.395 . S
C3123 H3149 0.929 . S
C3124 C3122 1.320 . S
C3124 C3125 1.405 . S
C3124 H3150 0.930 . S
C3125 C3120 1.479 . S
C3125 C3124 1.405 . S
C3125 H3151 0.931 . S
U3126 O3127 2.454 . S
U3126 O3128 2.458 . S
U3126 C3129 2.984 . S
U3126 C3130 2.847 . S
U3126 C3143 2.882 . S
U3126 O3144 2.441 . S
U3126 O3145 2.420 . S
U3126 O3146 2.455 . S
U3126 O3147 2.449 . S
O3127 U3126 2.454 . S
O3127 C3129 1.353 . S
O3128 U3126 2.458 . S
O3128 C3129 1.286 . S
C3129 U3126 2.984 . S
C3129 O3127 1.353 . S
C3129 O3128 1.286 . S
C3129 C3131 1.363 . S
C3130 C3120 1.465 . S
C3130 U3126 2.847 . S
C3130 O3144 1.249 . S
C3130 O3145 1.202 . S
C3131 C3129 1.363 . S
C3131 C3133 1.408 . S
C3131 C3136 1.342 . S
C3132 C3133 1.310 . S
C3132 C3135 1.461 . S
C3132 H3152 0.932 . S
C3133 C3131 1.408 . S
C3133 C3132 1.310 . S
C3133 H3153 0.930 . S
C3134 C3135 1.474 . S
C3134 C3136 1.285 . S
C3134 H3154 0.929 . S
C3135 C3132 1.461 . S
C3135 C3134 1.474 . S
C3136 C3131 1.342 . S
C3136 C3134 1.285 . S
C3136 H3155 0.930 . S
C3137 C3140 1.424 . S
C3137 C3142 1.245 . S
C3137 C3143 1.428 . S
C3138 C3141 1.260 . S
C3138 C3142 1.477 . S
C3138 H3156 0.932 . S
C3139 C3140 1.384 . S
C3139 C3141 1.479 . S
C3139 H3157 0.929 . S
C3140 C3137 1.424 . S
C3140 C3139 1.384 . S
C3140 H3158 0.928 . S
C3141 C3138 1.260 . S
C3141 C3139 1.479 . S
C3142 C3137 1.245 . S
C3142 C3138 1.477 . S
C3142 H3159 0.932 . S
C3143 U3126 2.882 . S
C3143 C3137 1.428 . S
C3143 O3146 1.301 . S
C3143 O3147 1.282 . S
O3144 U3126 2.441 . S
O3144 C3130 1.249 . S
O3145 U3126 2.420 . S
O3145 C3130 1.202 . S
O3146 U3126 2.455 . S
O3146 C3143 1.301 . S
O3147 U3126 2.449 . S
O3147 C3143 1.282 . S
H3148 C3121 0.931 . S
H3149 C3123 0.929 . S
H3150 C3124 0.930 . S
H3151 C3125 0.931 . S
H3152 C3132 0.932 . S
H3153 C3133 0.930 . S
H3154 C3134 0.929 . S
H3155 C3136 0.930 . S
H3156 C3138 0.932 . S
H3157 C3139 0.929 . S
H3158 C3140 0.928 . S
H3159 C3142 0.932 . S
C3160 C3161 1.264 . S
C3160 C3165 1.479 . S
C3160 C3170 1.465 . S
C3161 C3160 1.264 . S
C3161 C3163 1.339 . S
C3161 H3188 0.931 . S
C3162 C3163 1.395 . S
C3162 C3164 1.320 . S
C3163 C3161 1.339 . S
C3163 C3162 1.395 . S
C3163 H3189 0.929 . S
C3164 C3162 1.320 . S
C3164 C3165 1.405 . S
C3164 H3190 0.930 . S
C3165 C3160 1.479 . S
C3165 C3164 1.405 . S
C3165 H3191 0.931 . S
U3166 O3167 2.454 . S
U3166 O3168 2.458 . S
U3166 C3169 2.984 . S
U3166 C3170 2.847 . S
U3166 C3183 2.882 . S
U3166 O3184 2.441 . S
U3166 O3185 2.420 . S
U3166 O3186 2.455 . S
U3166 O3187 2.449 . S
O3167 U3166 2.454 . S
O3167 C3169 1.353 . S
O3168 U3166 2.458 . S
O3168 C3169 1.286 . S
C3169 U3166 2.984 . S
C3169 O3167 1.353 . S
C3169 O3168 1.286 . S
C3169 C3171 1.363 . S
C3170 C3160 1.465 . S
C3170 U3166 2.847 . S
C3170 O3184 1.249 . S
C3170 O3185 1.202 . S
C3171 C3169 1.363 . S
C3171 C3173 1.408 . S
C3171 C3176 1.342 . S
C3172 C3173 1.310 . S
C3172 C3175 1.461 . S
C3172 H3192 0.932 . S
C3173 C3171 1.408 . S
C3173 C3172 1.310 . S
C3173 H3193 0.930 . S
C3174 C3175 1.474 . S
C3174 C3176 1.285 . S
C3174 H3194 0.929 . S
C3175 C3172 1.461 . S
C3175 C3174 1.474 . S
C3176 C3171 1.342 . S
C3176 C3174 1.285 . S
C3176 H3195 0.930 . S
C3177 C3180 1.424 . S
C3177 C3182 1.245 . S
C3177 C3183 1.428 . S
C3178 C3181 1.260 . S
C3178 C3182 1.477 . S
C3178 H3196 0.932 . S
C3179 C3180 1.384 . S
C3179 C3181 1.479 . S
C3179 H3197 0.929 . S
C3180 C3177 1.424 . S
C3180 C3179 1.384 . S
C3180 H3198 0.928 . S
C3181 C3178 1.260 . S
C3181 C3179 1.479 . S
C3182 C3177 1.245 . S
C3182 C3178 1.477 . S
C3182 H3199 0.932 . S
C3183 U3166 2.882 . S
C3183 C3177 1.428 . S
C3183 O3186 1.301 . S
C3183 O3187 1.282 . S
O3184 U3166 2.441 . S
O3184 C3170 1.249 . S
O3185 U3166 2.420 . S
O3185 C3170 1.202 . S
O3186 U3166 2.455 . S
O3186 C3183 1.301 . S
O3187 U3166 2.449 . S
O3187 C3183 1.282 . S
H3188 C3161 0.931 . S
H3189 C3163 0.929 . S
H3190 C3164 0.930 . S
H3191 C3165 0.931 . S
H3192 C3172 0.932 . S
H3193 C3173 0.930 . S
H3194 C3174 0.929 . S
H3195 C3176 0.930 . S
H3196 C3178 0.932 . S
H3197 C3179 0.929 . S
H3198 C3180 0.928 . S
H3199 C3182 0.932 . S
C3200 C3201 1.264 . S
C3200 C3205 1.479 . S
C3200 C3210 1.465 . S
C3201 C3200 1.264 . S
C3201 C3203 1.339 . S
C3201 H3228 0.931 . S
C3202 C3203 1.395 . S
C3202 C3204 1.320 . S
C3203 C3201 1.339 . S
C3203 C3202 1.395 . S
C3203 H3229 0.929 . S
C3204 C3202 1.320 . S
C3204 C3205 1.405 . S
C3204 H3230 0.930 . S
C3205 C3200 1.479 . S
C3205 C3204 1.405 . S
C3205 H3231 0.931 . S
U3206 O3207 2.454 . S
U3206 O3208 2.458 . S
U3206 C3209 2.984 . S
U3206 C3210 2.847 . S
U3206 C3223 2.882 . S
U3206 O3224 2.441 . S
U3206 O3225 2.420 . S
U3206 O3226 2.455 . S
U3206 O3227 2.449 . S
O3207 U3206 2.454 . S
O3207 C3209 1.353 . S
O3208 U3206 2.458 . S
O3208 C3209 1.286 . S
C3209 U3206 2.984 . S
C3209 O3207 1.353 . S
C3209 O3208 1.286 . S
C3209 C3211 1.363 . S
C3210 C3200 1.465 . S
C3210 U3206 2.847 . S
C3210 O3224 1.249 . S
C3210 O3225 1.202 . S
C3211 C3209 1.363 . S
C3211 C3213 1.408 . S
C3211 C3216 1.342 . S
C3212 C3213 1.310 . S
C3212 C3215 1.461 . S
C3212 H3232 0.932 . S
C3213 C3211 1.408 . S
C3213 C3212 1.310 . S
C3213 H3233 0.930 . S
C3214 C3215 1.474 . S
C3214 C3216 1.285 . S
C3214 H3234 0.929 . S
C3215 C3212 1.461 . S
C3215 C3214 1.474 . S
C3216 C3211 1.342 . S
C3216 C3214 1.285 . S
C3216 H3235 0.930 . S
C3217 C3220 1.424 . S
C3217 C3222 1.245 . S
C3217 C3223 1.428 . S
C3218 C3221 1.260 . S
C3218 C3222 1.477 . S
C3218 H3236 0.932 . S
C3219 C3220 1.384 . S
C3219 C3221 1.479 . S
C3219 H3237 0.929 . S
C3220 C3217 1.424 . S
C3220 C3219 1.384 . S
C3220 H3238 0.928 . S
C3221 C3218 1.260 . S
C3221 C3219 1.479 . S
C3222 C3217 1.245 . S
C3222 C3218 1.477 . S
C3222 H3239 0.932 . S
C3223 U3206 2.882 . S
C3223 C3217 1.428 . S
C3223 O3226 1.301 . S
C3223 O3227 1.282 . S
O3224 U3206 2.441 . S
O3224 C3210 1.249 . S
O3225 U3206 2.420 . S
O3225 C3210 1.202 . S
O3226 U3206 2.455 . S
O3226 C3223 1.301 . S
O3227 U3206 2.449 . S
O3227 C3223 1.282 . S
H3228 C3201 0.931 . S
H3229 C3203 0.929 . S
H3230 C3204 0.930 . S
H3231 C3205 0.931 . S
H3232 C3212 0.932 . S
H3233 C3213 0.930 . S
H3234 C3214 0.929 . S
H3235 C3216 0.930 . S
H3236 C3218 0.932 . S
H3237 C3219 0.929 . S
H3238 C3220 0.928 . S
H3239 C3222 0.932 . S
C3240 C3241 1.264 . S
C3240 C3245 1.479 . S
C3240 C3250 1.465 . S
C3241 C3240 1.264 . S
C3241 C3243 1.339 . S
C3241 H3268 0.931 . S
C3242 C3243 1.395 . S
C3242 C3244 1.320 . S
C3243 C3241 1.339 . S
C3243 C3242 1.395 . S
C3243 H3269 0.929 . S
C3244 C3242 1.320 . S
C3244 C3245 1.405 . S
C3244 H3270 0.930 . S
C3245 C3240 1.479 . S
C3245 C3244 1.405 . S
C3245 H3271 0.931 . S
U3246 O3247 2.454 . S
U3246 O3248 2.458 . S
U3246 C3249 2.984 . S
U3246 C3250 2.847 . S
U3246 C3263 2.882 . S
U3246 O3264 2.441 . S
U3246 O3265 2.420 . S
U3246 O3266 2.455 . S
U3246 O3267 2.449 . S
O3247 U3246 2.454 . S
O3247 C3249 1.353 . S
O3248 U3246 2.458 . S
O3248 C3249 1.286 . S
C3249 U3246 2.984 . S
C3249 O3247 1.353 . S
C3249 O3248 1.286 . S
C3249 C3251 1.363 . S
C3250 C3240 1.465 . S
C3250 U3246 2.847 . S
C3250 O3264 1.249 . S
C3250 O3265 1.202 . S
C3251 C3249 1.363 . S
C3251 C3253 1.408 . S
C3251 C3256 1.342 . S
C3252 C3253 1.310 . S
C3252 C3255 1.461 . S
C3252 H3272 0.932 . S
C3253 C3251 1.408 . S
C3253 C3252 1.310 . S
C3253 H3273 0.930 . S
C3254 C3255 1.474 . S
C3254 C3256 1.285 . S
C3254 H3274 0.929 . S
C3255 C3252 1.461 . S
C3255 C3254 1.474 . S
C3256 C3251 1.342 . S
C3256 C3254 1.285 . S
C3256 H3275 0.930 . S
C3257 C3260 1.424 . S
C3257 C3262 1.245 . S
C3257 C3263 1.428 . S
C3258 C3261 1.260 . S
C3258 C3262 1.477 . S
C3258 H3276 0.932 . S
C3259 C3260 1.384 . S
C3259 C3261 1.479 . S
C3259 H3277 0.929 . S
C3260 C3257 1.424 . S
C3260 C3259 1.384 . S
C3260 H3278 0.928 . S
C3261 C3258 1.260 . S
C3261 C3259 1.479 . S
C3262 C3257 1.245 . S
C3262 C3258 1.477 . S
C3262 H3279 0.932 . S
C3263 U3246 2.882 . S
C3263 C3257 1.428 . S
C3263 O3266 1.301 . S
C3263 O3267 1.282 . S
O3264 U3246 2.441 . S
O3264 C3250 1.249 . S
O3265 U3246 2.420 . S
O3265 C3250 1.202 . S
O3266 U3246 2.455 . S
O3266 C3263 1.301 . S
O3267 U3246 2.449 . S
O3267 C3263 1.282 . S
H3268 C3241 0.931 . S
H3269 C3243 0.929 . S
H3270 C3244 0.930 . S
H3271 C3245 0.931 . S
H3272 C3252 0.932 . S
H3273 C3253 0.930 . S
H3274 C3254 0.929 . S
H3275 C3256 0.930 . S
H3276 C3258 0.932 . S
H3277 C3259 0.929 . S
H3278 C3260 0.928 . S
H3279 C3262 0.932 . S
C3280 C3281 1.264 . S
C3280 C3285 1.479 . S
C3280 C3290 1.465 . S
C3281 C3280 1.264 . S
C3281 C3283 1.339 . S
C3281 H3308 0.931 . S
C3282 C3283 1.395 . S
C3282 C3284 1.320 . S
C3283 C3281 1.339 . S
C3283 C3282 1.395 . S
C3283 H3309 0.929 . S
C3284 C3282 1.320 . S
C3284 C3285 1.405 . S
C3284 H3310 0.930 . S
C3285 C3280 1.479 . S
C3285 C3284 1.405 . S
C3285 H3311 0.931 . S
U3286 O3287 2.454 . S
U3286 O3288 2.458 . S
U3286 C3289 2.984 . S
U3286 C3290 2.847 . S
U3286 C3303 2.882 . S
U3286 O3304 2.441 . S
U3286 O3305 2.420 . S
U3286 O3306 2.455 . S
U3286 O3307 2.449 . S
O3287 U3286 2.454 . S
O3287 C3289 1.353 . S
O3288 U3286 2.458 . S
O3288 C3289 1.286 . S
C3289 U3286 2.984 . S
C3289 O3287 1.353 . S
C3289 O3288 1.286 . S
C3289 C3291 1.363 . S
C3290 C3280 1.465 . S
C3290 U3286 2.847 . S
C3290 O3304 1.249 . S
C3290 O3305 1.202 . S
C3291 C3289 1.363 . S
C3291 C3293 1.408 . S
C3291 C3296 1.342 . S
C3292 C3293 1.310 . S
C3292 C3295 1.461 . S
C3292 H3312 0.932 . S
C3293 C3291 1.408 . S
C3293 C3292 1.310 . S
C3293 H3313 0.930 . S
C3294 C3295 1.474 . S
C3294 C3296 1.285 . S
C3294 H3314 0.929 . S
C3295 C3292 1.461 . S
C3295 C3294 1.474 . S
C3296 C3291 1.342 . S
C3296 C3294 1.285 . S
C3296 H3315 0.930 . S
C3297 C3300 1.424 . S
C3297 C3302 1.245 . S
C3297 C3303 1.428 . S
C3298 C3301 1.260 . S
C3298 C3302 1.477 . S
C3298 H3316 0.932 . S
C3299 C3300 1.384 . S
C3299 C3301 1.479 . S
C3299 H3317 0.929 . S
C3300 C3297 1.424 . S
C3300 C3299 1.384 . S
C3300 H3318 0.928 . S
C3301 C3298 1.260 . S
C3301 C3299 1.479 . S
C3302 C3297 1.245 . S
C3302 C3298 1.477 . S
C3302 H3319 0.932 . S
C3303 U3286 2.882 . S
C3303 C3297 1.428 . S
C3303 O3306 1.301 . S
C3303 O3307 1.282 . S
O3304 U3286 2.441 . S
O3304 C3290 1.249 . S
O3305 U3286 2.420 . S
O3305 C3290 1.202 . S
O3306 U3286 2.455 . S
O3306 C3303 1.301 . S
O3307 U3286 2.449 . S
O3307 C3303 1.282 . S
H3308 C3281 0.931 . S
H3309 C3283 0.929 . S
H3310 C3284 0.930 . S
H3311 C3285 0.931 . S
H3312 C3292 0.932 . S
H3313 C3293 0.930 . S
H3314 C3294 0.929 . S
H3315 C3296 0.930 . S
H3316 C3298 0.932 . S
H3317 C3299 0.929 . S
H3318 C3300 0.928 . S
H3319 C3302 0.932 . S
C3320 C3321 1.264 . S
C3320 C3325 1.479 . S
C3320 C3330 1.465 . S
C3321 C3320 1.264 . S
C3321 C3323 1.339 . S
C3321 H3348 0.931 . S
C3322 C3323 1.395 . S
C3322 C3324 1.320 . S
C3323 C3321 1.339 . S
C3323 C3322 1.395 . S
C3323 H3349 0.929 . S
C3324 C3322 1.320 . S
C3324 C3325 1.405 . S
C3324 H3350 0.930 . S
C3325 C3320 1.479 . S
C3325 C3324 1.405 . S
C3325 H3351 0.931 . S
U3326 O3327 2.454 . S
U3326 O3328 2.458 . S
U3326 C3329 2.984 . S
U3326 C3330 2.847 . S
U3326 C3343 2.882 . S
U3326 O3344 2.441 . S
U3326 O3345 2.420 . S
U3326 O3346 2.455 . S
U3326 O3347 2.449 . S
O3327 U3326 2.454 . S
O3327 C3329 1.353 . S
O3328 U3326 2.458 . S
O3328 C3329 1.286 . S
C3329 U3326 2.984 . S
C3329 O3327 1.353 . S
C3329 O3328 1.286 . S
C3329 C3331 1.363 . S
C3330 C3320 1.465 . S
C3330 U3326 2.847 . S
C3330 O3344 1.249 . S
C3330 O3345 1.202 . S
C3331 C3329 1.363 . S
C3331 C3333 1.408 . S
C3331 C3336 1.342 . S
C3332 C3333 1.310 . S
C3332 C3335 1.461 . S
C3332 H3352 0.932 . S
C3333 C3331 1.408 . S
C3333 C3332 1.310 . S
C3333 H3353 0.930 . S
C3334 C3335 1.474 . S
C3334 C3336 1.285 . S
C3334 H3354 0.929 . S
C3335 C3332 1.461 . S
C3335 C3334 1.474 . S
C3336 C3331 1.342 . S
C3336 C3334 1.285 . S
C3336 H3355 0.930 . S
C3337 C3340 1.424 . S
C3337 C3342 1.245 . S
C3337 C3343 1.428 . S
C3338 C3341 1.260 . S
C3338 C3342 1.477 . S
C3338 H3356 0.932 . S
C3339 C3340 1.384 . S
C3339 C3341 1.479 . S
C3339 H3357 0.929 . S
C3340 C3337 1.424 . S
C3340 C3339 1.384 . S
C3340 H3358 0.928 . S
C3341 C3338 1.260 . S
C3341 C3339 1.479 . S
C3342 C3337 1.245 . S
C3342 C3338 1.477 . S
C3342 H3359 0.932 . S
C3343 U3326 2.882 . S
C3343 C3337 1.428 . S
C3343 O3346 1.301 . S
C3343 O3347 1.282 . S
O3344 U3326 2.441 . S
O3344 C3330 1.249 . S
O3345 U3326 2.420 . S
O3345 C3330 1.202 . S
O3346 U3326 2.455 . S
O3346 C3343 1.301 . S
O3347 U3326 2.449 . S
O3347 C3343 1.282 . S
H3348 C3321 0.931 . S
H3349 C3323 0.929 . S
H3350 C3324 0.930 . S
H3351 C3325 0.931 . S
H3352 C3332 0.932 . S
H3353 C3333 0.930 . S
H3354 C3334 0.929 . S
H3355 C3336 0.930 . S
H3356 C3338 0.932 . S
H3357 C3339 0.929 . S
H3358 C3340 0.928 . S
H3359 C3342 0.932 . S
C3360 C3361 1.264 . S
C3360 C3365 1.479 . S
C3360 C3370 1.465 . S
C3361 C3360 1.264 . S
C3361 C3363 1.339 . S
C3361 H3388 0.931 . S
C3362 C3363 1.395 . S
C3362 C3364 1.320 . S
C3363 C3361 1.339 . S
C3363 C3362 1.395 . S
C3363 H3389 0.929 . S
C3364 C3362 1.320 . S
C3364 C3365 1.405 . S
C3364 H3390 0.930 . S
C3365 C3360 1.479 . S
C3365 C3364 1.405 . S
C3365 H3391 0.931 . S
U3366 O3367 2.454 . S
U3366 O3368 2.458 . S
U3366 C3369 2.984 . S
U3366 C3370 2.847 . S
U3366 C3383 2.882 . S
U3366 O3384 2.441 . S
U3366 O3385 2.420 . S
U3366 O3386 2.455 . S
U3366 O3387 2.449 . S
O3367 U3366 2.454 . S
O3367 C3369 1.353 . S
O3368 U3366 2.458 . S
O3368 C3369 1.286 . S
C3369 U3366 2.984 . S
C3369 O3367 1.353 . S
C3369 O3368 1.286 . S
C3369 C3371 1.363 . S
C3370 C3360 1.465 . S
C3370 U3366 2.847 . S
C3370 O3384 1.249 . S
C3370 O3385 1.202 . S
C3371 C3369 1.363 . S
C3371 C3373 1.408 . S
C3371 C3376 1.342 . S
C3372 C3373 1.310 . S
C3372 C3375 1.461 . S
C3372 H3392 0.932 . S
C3373 C3371 1.408 . S
C3373 C3372 1.310 . S
C3373 H3393 0.930 . S
C3374 C3375 1.474 . S
C3374 C3376 1.285 . S
C3374 H3394 0.929 . S
C3375 C3372 1.461 . S
C3375 C3374 1.474 . S
C3376 C3371 1.342 . S
C3376 C3374 1.285 . S
C3376 H3395 0.930 . S
C3377 C3380 1.424 . S
C3377 C3382 1.245 . S
C3377 C3383 1.428 . S
C3378 C3381 1.260 . S
C3378 C3382 1.477 . S
C3378 H3396 0.932 . S
C3379 C3380 1.384 . S
C3379 C3381 1.479 . S
C3379 H3397 0.929 . S
C3380 C3377 1.424 . S
C3380 C3379 1.384 . S
C3380 H3398 0.928 . S
C3381 C3378 1.260 . S
C3381 C3379 1.479 . S
C3382 C3377 1.245 . S
C3382 C3378 1.477 . S
C3382 H3399 0.932 . S
C3383 U3366 2.882 . S
C3383 C3377 1.428 . S
C3383 O3386 1.301 . S
C3383 O3387 1.282 . S
O3384 U3366 2.441 . S
O3384 C3370 1.249 . S
O3385 U3366 2.420 . S
O3385 C3370 1.202 . S
O3386 U3366 2.455 . S
O3386 C3383 1.301 . S
O3387 U3366 2.449 . S
O3387 C3383 1.282 . S
H3388 C3361 0.931 . S
H3389 C3363 0.929 . S
H3390 C3364 0.930 . S
H3391 C3365 0.931 . S
H3392 C3372 0.932 . S
H3393 C3373 0.930 . S
H3394 C3374 0.929 . S
H3395 C3376 0.930 . S
H3396 C3378 0.932 . S
H3397 C3379 0.929 . S
H3398 C3380 0.928 . S
H3399 C3382 0.932 . S
C3400 C3401 1.264 . S
C3400 C3405 1.479 . S
C3400 C3410 1.465 . S
C3401 C3400 1.264 . S
C3401 C3403 1.339 . S
C3401 H3428 0.931 . S
C3402 C3403 1.395 . S
C3402 C3404 1.320 . S
C3403 C3401 1.339 . S
C3403 C3402 1.395 . S
C3403 H3429 0.929 . S
C3404 C3402 1.320 . S
C3404 C3405 1.405 . S
C3404 H3430 0.930 . S
C3405 C3400 1.479 . S
C3405 C3404 1.405 . S
C3405 H3431 0.931 . S
U3406 O3407 2.454 . S
U3406 O3408 2.458 . S
U3406 C3409 2.984 . S
U3406 C3410 2.847 . S
U3406 C3423 2.882 . S
U3406 O3424 2.441 . S
U3406 O3425 2.420 . S
U3406 O3426 2.455 . S
U3406 O3427 2.449 . S
O3407 U3406 2.454 . S
O3407 C3409 1.353 . S
O3408 U3406 2.458 . S
O3408 C3409 1.286 . S
C3409 U3406 2.984 . S
C3409 O3407 1.353 . S
C3409 O3408 1.286 . S
C3409 C3411 1.363 . S
C3410 C3400 1.465 . S
C3410 U3406 2.847 . S
C3410 O3424 1.249 . S
C3410 O3425 1.202 . S
C3411 C3409 1.363 . S
C3411 C3413 1.408 . S
C3411 C3416 1.342 . S
C3412 C3413 1.310 . S
C3412 C3415 1.461 . S
C3412 H3432 0.932 . S
C3413 C3411 1.408 . S
C3413 C3412 1.310 . S
C3413 H3433 0.930 . S
C3414 C3415 1.474 . S
C3414 C3416 1.285 . S
C3414 H3434 0.929 . S
C3415 C3412 1.461 . S
C3415 C3414 1.474 . S
C3416 C3411 1.342 . S
C3416 C3414 1.285 . S
C3416 H3435 0.930 . S
C3417 C3420 1.424 . S
C3417 C3422 1.245 . S
C3417 C3423 1.428 . S
C3418 C3421 1.260 . S
C3418 C3422 1.477 . S
C3418 H3436 0.932 . S
C3419 C3420 1.384 . S
C3419 C3421 1.479 . S
C3419 H3437 0.929 . S
C3420 C3417 1.424 . S
C3420 C3419 1.384 . S
C3420 H3438 0.928 . S
C3421 C3418 1.260 . S
C3421 C3419 1.479 . S
C3422 C3417 1.245 . S
C3422 C3418 1.477 . S
C3422 H3439 0.932 . S
C3423 U3406 2.882 . S
C3423 C3417 1.428 . S
C3423 O3426 1.301 . S
C3423 O3427 1.282 . S
O3424 U3406 2.441 . S
O3424 C3410 1.249 . S
O3425 U3406 2.420 . S
O3425 C3410 1.202 . S
O3426 U3406 2.455 . S
O3426 C3423 1.301 . S
O3427 U3406 2.449 . S
O3427 C3423 1.282 . S
H3428 C3401 0.931 . S
H3429 C3403 0.929 . S
H3430 C3404 0.930 . S
H3431 C3405 0.931 . S
H3432 C3412 0.932 . S
H3433 C3413 0.930 . S
H3434 C3414 0.929 . S
H3435 C3416 0.930 . S
H3436 C3418 0.932 . S
H3437 C3419 0.929 . S
H3438 C3420 0.928 . S
H3439 C3422 0.932 . S
C3440 C3441 1.264 . S
C3440 C3445 1.479 . S
C3440 C3450 1.465 . S
C3441 C3440 1.264 . S
C3441 C3443 1.339 . S
C3441 H3468 0.931 . S
C3442 C3443 1.395 . S
C3442 C3444 1.320 . S
C3443 C3441 1.339 . S
C3443 C3442 1.395 . S
C3443 H3469 0.929 . S
C3444 C3442 1.320 . S
C3444 C3445 1.405 . S
C3444 H3470 0.930 . S
C3445 C3440 1.479 . S
C3445 C3444 1.405 . S
C3445 H3471 0.931 . S
U3446 O3447 2.454 . S
U3446 O3448 2.458 . S
U3446 C3449 2.984 . S
U3446 C3450 2.847 . S
U3446 C3463 2.882 . S
U3446 O3464 2.441 . S
U3446 O3465 2.420 . S
U3446 O3466 2.455 . S
U3446 O3467 2.449 . S
O3447 U3446 2.454 . S
O3447 C3449 1.353 . S
O3448 U3446 2.458 . S
O3448 C3449 1.286 . S
C3449 U3446 2.984 . S
C3449 O3447 1.353 . S
C3449 O3448 1.286 . S
C3449 C3451 1.363 . S
C3450 C3440 1.465 . S
C3450 U3446 2.847 . S
C3450 O3464 1.249 . S
C3450 O3465 1.202 . S
C3451 C3449 1.363 . S
C3451 C3453 1.408 . S
C3451 C3456 1.342 . S
C3452 C3453 1.310 . S
C3452 C3455 1.461 . S
C3452 H3472 0.932 . S
C3453 C3451 1.408 . S
C3453 C3452 1.310 . S
C3453 H3473 0.930 . S
C3454 C3455 1.474 . S
C3454 C3456 1.285 . S
C3454 H3474 0.929 . S
C3455 C3452 1.461 . S
C3455 C3454 1.474 . S
C3456 C3451 1.342 . S
C3456 C3454 1.285 . S
C3456 H3475 0.930 . S
C3457 C3460 1.424 . S
C3457 C3462 1.245 . S
C3457 C3463 1.428 . S
C3458 C3461 1.260 . S
C3458 C3462 1.477 . S
C3458 H3476 0.932 . S
C3459 C3460 1.384 . S
C3459 C3461 1.479 . S
C3459 H3477 0.929 . S
C3460 C3457 1.424 . S
C3460 C3459 1.384 . S
C3460 H3478 0.928 . S
C3461 C3458 1.260 . S
C3461 C3459 1.479 . S
C3462 C3457 1.245 . S
C3462 C3458 1.477 . S
C3462 H3479 0.932 . S
C3463 U3446 2.882 . S
C3463 C3457 1.428 . S
C3463 O3466 1.301 . S
C3463 O3467 1.282 . S
O3464 U3446 2.441 . S
O3464 C3450 1.249 . S
O3465 U3446 2.420 . S
O3465 C3450 1.202 . S
O3466 U3446 2.455 . S
O3466 C3463 1.301 . S
O3467 U3446 2.449 . S
O3467 C3463 1.282 . S
H3468 C3441 0.931 . S
H3469 C3443 0.929 . S
H3470 C3444 0.930 . S
H3471 C3445 0.931 . S
H3472 C3452 0.932 . S
H3473 C3453 0.930 . S
H3474 C3454 0.929 . S
H3475 C3456 0.930 . S
H3476 C3458 0.932 . S
H3477 C3459 0.929 . S
H3478 C3460 0.928 . S
H3479 C3462 0.932 . S
C3480 C3481 1.264 . S
C3480 C3485 1.479 . S
C3480 C3490 1.465 . S
C3481 C3480 1.264 . S
C3481 C3483 1.339 . S
C3481 H3508 0.931 . S
C3482 C3483 1.395 . S
C3482 C3484 1.320 . S
C3483 C3481 1.339 . S
C3483 C3482 1.395 . S
C3483 H3509 0.929 . S
C3484 C3482 1.320 . S
C3484 C3485 1.405 . S
C3484 H3510 0.930 . S
C3485 C3480 1.479 . S
C3485 C3484 1.405 . S
C3485 H3511 0.931 . S
U3486 O3487 2.454 . S
U3486 O3488 2.458 . S
U3486 C3489 2.984 . S
U3486 C3490 2.847 . S
U3486 C3503 2.882 . S
U3486 O3504 2.441 . S
U3486 O3505 2.420 . S
U3486 O3506 2.455 . S
U3486 O3507 2.449 . S
O3487 U3486 2.454 . S
O3487 C3489 1.353 . S
O3488 U3486 2.458 . S
O3488 C3489 1.286 . S
C3489 U3486 2.984 . S
C3489 O3487 1.353 . S
C3489 O3488 1.286 . S
C3489 C3491 1.363 . S
C3490 C3480 1.465 . S
C3490 U3486 2.847 . S
C3490 O3504 1.249 . S
C3490 O3505 1.202 . S
C3491 C3489 1.363 . S
C3491 C3493 1.408 . S
C3491 C3496 1.342 . S
C3492 C3493 1.310 . S
C3492 C3495 1.461 . S
C3492 H3512 0.932 . S
C3493 C3491 1.408 . S
C3493 C3492 1.310 . S
C3493 H3513 0.930 . S
C3494 C3495 1.474 . S
C3494 C3496 1.285 . S
C3494 H3514 0.929 . S
C3495 C3492 1.461 . S
C3495 C3494 1.474 . S
C3496 C3491 1.342 . S
C3496 C3494 1.285 . S
C3496 H3515 0.930 . S
C3497 C3500 1.424 . S
C3497 C3502 1.245 . S
C3497 C3503 1.428 . S
C3498 C3501 1.260 . S
C3498 C3502 1.477 . S
C3498 H3516 0.932 . S
C3499 C3500 1.384 . S
C3499 C3501 1.479 . S
C3499 H3517 0.929 . S
C3500 C3497 1.424 . S
C3500 C3499 1.384 . S
C3500 H3518 0.928 . S
C3501 C3498 1.260 . S
C3501 C3499 1.479 . S
C3502 C3497 1.245 . S
C3502 C3498 1.477 . S
C3502 H3519 0.932 . S
C3503 U3486 2.882 . S
C3503 C3497 1.428 . S
C3503 O3506 1.301 . S
C3503 O3507 1.282 . S
O3504 U3486 2.441 . S
O3504 C3490 1.249 . S
O3505 U3486 2.420 . S
O3505 C3490 1.202 . S
O3506 U3486 2.455 . S
O3506 C3503 1.301 . S
O3507 U3486 2.449 . S
O3507 C3503 1.282 . S
H3508 C3481 0.931 . S
H3509 C3483 0.929 . S
H3510 C3484 0.930 . S
H3511 C3485 0.931 . S
H3512 C3492 0.932 . S
H3513 C3493 0.930 . S
H3514 C3494 0.929 . S
H3515 C3496 0.930 . S
H3516 C3498 0.932 . S
H3517 C3499 0.929 . S
H3518 C3500 0.928 . S
H3519 C3502 0.932 . S
C3520 C3521 1.264 . S
C3520 C3525 1.479 . S
C3520 C3530 1.465 . S
C3521 C3520 1.264 . S
C3521 C3523 1.339 . S
C3521 H3548 0.931 . S
C3522 C3523 1.395 . S
C3522 C3524 1.320 . S
C3523 C3521 1.339 . S
C3523 C3522 1.395 . S
C3523 H3549 0.929 . S
C3524 C3522 1.320 . S
C3524 C3525 1.405 . S
C3524 H3550 0.930 . S
C3525 C3520 1.479 . S
C3525 C3524 1.405 . S
C3525 H3551 0.931 . S
U3526 O3527 2.454 . S
U3526 O3528 2.458 . S
U3526 C3529 2.984 . S
U3526 C3530 2.847 . S
U3526 C3543 2.882 . S
U3526 O3544 2.441 . S
U3526 O3545 2.420 . S
U3526 O3546 2.455 . S
U3526 O3547 2.449 . S
O3527 U3526 2.454 . S
O3527 C3529 1.353 . S
O3528 U3526 2.458 . S
O3528 C3529 1.286 . S
C3529 U3526 2.984 . S
C3529 O3527 1.353 . S
C3529 O3528 1.286 . S
C3529 C3531 1.363 . S
C3530 C3520 1.465 . S
C3530 U3526 2.847 . S
C3530 O3544 1.249 . S
C3530 O3545 1.202 . S
C3531 C3529 1.363 . S
C3531 C3533 1.408 . S
C3531 C3536 1.342 . S
C3532 C3533 1.310 . S
C3532 C3535 1.461 . S
C3532 H3552 0.932 . S
C3533 C3531 1.408 . S
C3533 C3532 1.310 . S
C3533 H3553 0.930 . S
C3534 C3535 1.474 . S
C3534 C3536 1.285 . S
C3534 H3554 0.929 . S
C3535 C3532 1.461 . S
C3535 C3534 1.474 . S
C3536 C3531 1.342 . S
C3536 C3534 1.285 . S
C3536 H3555 0.930 . S
C3537 C3540 1.424 . S
C3537 C3542 1.245 . S
C3537 C3543 1.428 . S
C3538 C3541 1.260 . S
C3538 C3542 1.477 . S
C3538 H3556 0.932 . S
C3539 C3540 1.384 . S
C3539 C3541 1.479 . S
C3539 H3557 0.929 . S
C3540 C3537 1.424 . S
C3540 C3539 1.384 . S
C3540 H3558 0.928 . S
C3541 C3538 1.260 . S
C3541 C3539 1.479 . S
C3542 C3537 1.245 . S
C3542 C3538 1.477 . S
C3542 H3559 0.932 . S
C3543 U3526 2.882 . S
C3543 C3537 1.428 . S
C3543 O3546 1.301 . S
C3543 O3547 1.282 . S
O3544 U3526 2.441 . S
O3544 C3530 1.249 . S
O3545 U3526 2.420 . S
O3545 C3530 1.202 . S
O3546 U3526 2.455 . S
O3546 C3543 1.301 . S
O3547 U3526 2.449 . S
O3547 C3543 1.282 . S
H3548 C3521 0.931 . S
H3549 C3523 0.929 . S
H3550 C3524 0.930 . S
H3551 C3525 0.931 . S
H3552 C3532 0.932 . S
H3553 C3533 0.930 . S
H3554 C3534 0.929 . S
H3555 C3536 0.930 . S
H3556 C3538 0.932 . S
H3557 C3539 0.929 . S
H3558 C3540 0.928 . S
H3559 C3542 0.932 . S
C3560 C3561 1.264 . S
C3560 C3565 1.479 . S
C3560 C3570 1.465 . S
C3561 C3560 1.264 . S
C3561 C3563 1.339 . S
C3561 H3588 0.931 . S
C3562 C3563 1.395 . S
C3562 C3564 1.320 . S
C3563 C3561 1.339 . S
C3563 C3562 1.395 . S
C3563 H3589 0.929 . S
C3564 C3562 1.320 . S
C3564 C3565 1.405 . S
C3564 H3590 0.930 . S
C3565 C3560 1.479 . S
C3565 C3564 1.405 . S
C3565 H3591 0.931 . S
U3566 O3567 2.454 . S
U3566 O3568 2.458 . S
U3566 C3569 2.984 . S
U3566 C3570 2.847 . S
U3566 C3583 2.882 . S
U3566 O3584 2.441 . S
U3566 O3585 2.420 . S
U3566 O3586 2.455 . S
U3566 O3587 2.449 . S
O3567 U3566 2.454 . S
O3567 C3569 1.353 . S
O3568 U3566 2.458 . S
O3568 C3569 1.286 . S
C3569 U3566 2.984 . S
C3569 O3567 1.353 . S
C3569 O3568 1.286 . S
C3569 C3571 1.363 . S
C3570 C3560 1.465 . S
C3570 U3566 2.847 . S
C3570 O3584 1.249 . S
C3570 O3585 1.202 . S
C3571 C3569 1.363 . S
C3571 C3573 1.408 . S
C3571 C3576 1.342 . S
C3572 C3573 1.310 . S
C3572 C3575 1.461 . S
C3572 H3592 0.932 . S
C3573 C3571 1.408 . S
C3573 C3572 1.310 . S
C3573 H3593 0.930 . S
C3574 C3575 1.474 . S
C3574 C3576 1.285 . S
C3574 H3594 0.929 . S
C3575 C3572 1.461 . S
C3575 C3574 1.474 . S
C3576 C3571 1.342 . S
C3576 C3574 1.285 . S
C3576 H3595 0.930 . S
C3577 C3580 1.424 . S
C3577 C3582 1.245 . S
C3577 C3583 1.428 . S
C3578 C3581 1.260 . S
C3578 C3582 1.477 . S
C3578 H3596 0.932 . S
C3579 C3580 1.384 . S
C3579 C3581 1.479 . S
C3579 H3597 0.929 . S
C3580 C3577 1.424 . S
C3580 C3579 1.384 . S
C3580 H3598 0.928 . S
C3581 C3578 1.260 . S
C3581 C3579 1.479 . S
C3582 C3577 1.245 . S
C3582 C3578 1.477 . S
C3582 H3599 0.932 . S
C3583 U3566 2.882 . S
C3583 C3577 1.428 . S
C3583 O3586 1.301 . S
C3583 O3587 1.282 . S
O3584 U3566 2.441 . S
O3584 C3570 1.249 . S
O3585 U3566 2.420 . S
O3585 C3570 1.202 . S
O3586 U3566 2.455 . S
O3586 C3583 1.301 . S
O3587 U3566 2.449 . S
O3587 C3583 1.282 . S
H3588 C3561 0.931 . S
H3589 C3563 0.929 . S
H3590 C3564 0.930 . S
H3591 C3565 0.931 . S
H3592 C3572 0.932 . S
H3593 C3573 0.930 . S
H3594 C3574 0.929 . S
H3595 C3576 0.930 . S
H3596 C3578 0.932 . S
H3597 C3579 0.929 . S
H3598 C3580 0.928 . S
H3599 C3582 0.932 . S
C3600 C3601 1.264 . S
C3600 C3605 1.479 . S
C3600 C3610 1.465 . S
C3601 C3600 1.264 . S
C3601 C3603 1.339 . S
C3601 H3628 0.931 . S
C3602 C3603 1.395 . S
C3602 C3604 1.320 . S
C3603 C3601 1.339 . S
C3603 C3602 1.395 . S
C3603 H3629 0.929 . S
C3604 C3602 1.320 . S
C3604 C3605 1.405 . S
C3604 H3630 0.930 . S
C3605 C3600 1.479 . S
C3605 C3604 1.405 . S
C3605 H3631 0.931 . S
U3606 O3607 2.454 . S
U3606 O3608 2.458 . S
U3606 C3609 2.984 . S
U3606 C3610 2.847 . S
U3606 C3623 2.882 . S
U3606 O3624 2.441 . S
U3606 O3625 2.420 . S
U3606 O3626 2.455 . S
U3606 O3627 2.449 . S
O3607 U3606 2.454 . S
O3607 C3609 1.353 . S
O3608 U3606 2.458 . S
O3608 C3609 1.286 . S
C3609 U3606 2.984 . S
C3609 O3607 1.353 . S
C3609 O3608 1.286 . S
C3609 C3611 1.363 . S
C3610 C3600 1.465 . S
C3610 U3606 2.847 . S
C3610 O3624 1.249 . S
C3610 O3625 1.202 . S
C3611 C3609 1.363 . S
C3611 C3613 1.408 . S
C3611 C3616 1.342 . S
C3612 C3613 1.310 . S
C3612 C3615 1.461 . S
C3612 H3632 0.932 . S
C3613 C3611 1.408 . S
C3613 C3612 1.310 . S
C3613 H3633 0.930 . S
C3614 C3615 1.474 . S
C3614 C3616 1.285 . S
C3614 H3634 0.929 . S
C3615 C3612 1.461 . S
C3615 C3614 1.474 . S
C3616 C3611 1.342 . S
C3616 C3614 1.285 . S
C3616 H3635 0.930 . S
C3617 C3620 1.424 . S
C3617 C3622 1.245 . S
C3617 C3623 1.428 . S
C3618 C3621 1.260 . S
C3618 C3622 1.477 . S
C3618 H3636 0.932 . S
C3619 C3620 1.384 . S
C3619 C3621 1.479 . S
C3619 H3637 0.929 . S
C3620 C3617 1.424 . S
C3620 C3619 1.384 . S
C3620 H3638 0.928 . S
C3621 C3618 1.260 . S
C3621 C3619 1.479 . S
C3622 C3617 1.245 . S
C3622 C3618 1.477 . S
C3622 H3639 0.932 . S
C3623 U3606 2.882 . S
C3623 C3617 1.428 . S
C3623 O3626 1.301 . S
C3623 O3627 1.282 . S
O3624 U3606 2.441 . S
O3624 C3610 1.249 . S
O3625 U3606 2.420 . S
O3625 C3610 1.202 . S
O3626 U3606 2.455 . S
O3626 C3623 1.301 . S
O3627 U3606 2.449 . S
O3627 C3623 1.282 . S
H3628 C3601 0.931 . S
H3629 C3603 0.929 . S
H3630 C3604 0.930 . S
H3631 C3605 0.931 . S
H3632 C3612 0.932 . S
H3633 C3613 0.930 . S
H3634 C3614 0.929 . S
H3635 C3616 0.930 . S
H3636 C3618 0.932 . S
H3637 C3619 0.929 . S
H3638 C3620 0.928 . S
H3639 C3622 0.932 . S
C3640 C3641 1.264 . S
C3640 C3645 1.479 . S
C3640 C3650 1.465 . S
C3641 C3640 1.264 . S
C3641 C3643 1.339 . S
C3641 H3668 0.931 . S
C3642 C3643 1.395 . S
C3642 C3644 1.320 . S
C3643 C3641 1.339 . S
C3643 C3642 1.395 . S
C3643 H3669 0.929 . S
C3644 C3642 1.320 . S
C3644 C3645 1.405 . S
C3644 H3670 0.930 . S
C3645 C3640 1.479 . S
C3645 C3644 1.405 . S
C3645 H3671 0.931 . S
U3646 O3647 2.454 . S
U3646 O3648 2.458 . S
U3646 C3649 2.984 . S
U3646 C3650 2.847 . S
U3646 C3663 2.882 . S
U3646 O3664 2.441 . S
U3646 O3665 2.420 . S
U3646 O3666 2.455 . S
U3646 O3667 2.449 . S
O3647 U3646 2.454 . S
O3647 C3649 1.353 . S
O3648 U3646 2.458 . S
O3648 C3649 1.286 . S
C3649 U3646 2.984 . S
C3649 O3647 1.353 . S
C3649 O3648 1.286 . S
C3649 C3651 1.363 . S
C3650 C3640 1.465 . S
C3650 U3646 2.847 . S
C3650 O3664 1.249 . S
C3650 O3665 1.202 . S
C3651 C3649 1.363 . S
C3651 C3653 1.408 . S
C3651 C3656 1.342 . S
C3652 C3653 1.310 . S
C3652 C3655 1.461 . S
C3652 H3672 0.932 . S
C3653 C3651 1.408 . S
C3653 C3652 1.310 . S
C3653 H3673 0.930 . S
C3654 C3655 1.474 . S
C3654 C3656 1.285 . S
C3654 H3674 0.929 . S
C3655 C3652 1.461 . S
C3655 C3654 1.474 . S
C3656 C3651 1.342 . S
C3656 C3654 1.285 . S
C3656 H3675 0.930 . S
C3657 C3660 1.424 . S
C3657 C3662 1.245 . S
C3657 C3663 1.428 . S
C3658 C3661 1.260 . S
C3658 C3662 1.477 . S
C3658 H3676 0.932 . S
C3659 C3660 1.384 . S
C3659 C3661 1.479 . S
C3659 H3677 0.929 . S
C3660 C3657 1.424 . S
C3660 C3659 1.384 . S
C3660 H3678 0.928 . S
C3661 C3658 1.260 . S
C3661 C3659 1.479 . S
C3662 C3657 1.245 . S
C3662 C3658 1.477 . S
C3662 H3679 0.932 . S
C3663 U3646 2.882 . S
C3663 C3657 1.428 . S
C3663 O3666 1.301 . S
C3663 O3667 1.282 . S
O3664 U3646 2.441 . S
O3664 C3650 1.249 . S
O3665 U3646 2.420 . S
O3665 C3650 1.202 . S
O3666 U3646 2.455 . S
O3666 C3663 1.301 . S
O3667 U3646 2.449 . S
O3667 C3663 1.282 . S
H3668 C3641 0.931 . S
H3669 C3643 0.929 . S
H3670 C3644 0.930 . S
H3671 C3645 0.931 . S
H3672 C3652 0.932 . S
H3673 C3653 0.930 . S
H3674 C3654 0.929 . S
H3675 C3656 0.930 . S
H3676 C3658 0.932 . S
H3677 C3659 0.929 . S
H3678 C3660 0.928 . S
H3679 C3662 0.932 . S
C3680 C3681 1.264 . S
C3680 C3685 1.479 . S
C3680 C3690 1.465 . S
C3681 C3680 1.264 . S
C3681 C3683 1.339 . S
C3681 H3708 0.931 . S
C3682 C3683 1.395 . S
C3682 C3684 1.320 . S
C3683 C3681 1.339 . S
C3683 C3682 1.395 . S
C3683 H3709 0.929 . S
C3684 C3682 1.320 . S
C3684 C3685 1.405 . S
C3684 H3710 0.930 . S
C3685 C3680 1.479 . S
C3685 C3684 1.405 . S
C3685 H3711 0.931 . S
U3686 O3687 2.454 . S
U3686 O3688 2.458 . S
U3686 C3689 2.984 . S
U3686 C3690 2.847 . S
U3686 C3703 2.882 . S
U3686 O3704 2.441 . S
U3686 O3705 2.420 . S
U3686 O3706 2.455 . S
U3686 O3707 2.449 . S
O3687 U3686 2.454 . S
O3687 C3689 1.353 . S
O3688 U3686 2.458 . S
O3688 C3689 1.286 . S
C3689 U3686 2.984 . S
C3689 O3687 1.353 . S
C3689 O3688 1.286 . S
C3689 C3691 1.363 . S
C3690 C3680 1.465 . S
C3690 U3686 2.847 . S
C3690 O3704 1.249 . S
C3690 O3705 1.202 . S
C3691 C3689 1.363 . S
C3691 C3693 1.408 . S
C3691 C3696 1.342 . S
C3692 C3693 1.310 . S
C3692 C3695 1.461 . S
C3692 H3712 0.932 . S
C3693 C3691 1.408 . S
C3693 C3692 1.310 . S
C3693 H3713 0.930 . S
C3694 C3695 1.474 . S
C3694 C3696 1.285 . S
C3694 H3714 0.929 . S
C3695 C3692 1.461 . S
C3695 C3694 1.474 . S
C3696 C3691 1.342 . S
C3696 C3694 1.285 . S
C3696 H3715 0.930 . S
C3697 C3700 1.424 . S
C3697 C3702 1.245 . S
C3697 C3703 1.428 . S
C3698 C3701 1.260 . S
C3698 C3702 1.477 . S
C3698 H3716 0.932 . S
C3699 C3700 1.384 . S
C3699 C3701 1.479 . S
C3699 H3717 0.929 . S
C3700 C3697 1.424 . S
C3700 C3699 1.384 . S
C3700 H3718 0.928 . S
C3701 C3698 1.260 . S
C3701 C3699 1.479 . S
C3702 C3697 1.245 . S
C3702 C3698 1.477 . S
C3702 H3719 0.932 . S
C3703 U3686 2.882 . S
C3703 C3697 1.428 . S
C3703 O3706 1.301 . S
C3703 O3707 1.282 . S
O3704 U3686 2.441 . S
O3704 C3690 1.249 . S
O3705 U3686 2.420 . S
O3705 C3690 1.202 . S
O3706 U3686 2.455 . S
O3706 C3703 1.301 . S
O3707 U3686 2.449 . S
O3707 C3703 1.282 . S
H3708 C3681 0.931 . S
H3709 C3683 0.929 . S
H3710 C3684 0.930 . S
H3711 C3685 0.931 . S
H3712 C3692 0.932 . S
H3713 C3693 0.930 . S
H3714 C3694 0.929 . S
H3715 C3696 0.930 . S
H3716 C3698 0.932 . S
H3717 C3699 0.929 . S
H3718 C3700 0.928 . S
H3719 C3702 0.932 . S
C3720 C3721 1.264 . S
C3720 C3725 1.479 . S
C3720 C3730 1.465 . S
C3721 C3720 1.264 . S
C3721 C3723 1.339 . S
C3721 H3748 0.931 . S
C3722 C3723 1.395 . S
C3722 C3724 1.320 . S
C3723 C3721 1.339 . S
C3723 C3722 1.395 . S
C3723 H3749 0.929 . S
C3724 C3722 1.320 . S
C3724 C3725 1.405 . S
C3724 H3750 0.930 . S
C3725 C3720 1.479 . S
C3725 C3724 1.405 . S
C3725 H3751 0.931 . S
U3726 O3727 2.454 . S
U3726 O3728 2.458 . S
U3726 C3729 2.984 . S
U3726 C3730 2.847 . S
U3726 C3743 2.882 . S
U3726 O3744 2.441 . S
U3726 O3745 2.420 . S
U3726 O3746 2.455 . S
U3726 O3747 2.449 . S
O3727 U3726 2.454 . S
O3727 C3729 1.353 . S
O3728 U3726 2.458 . S
O3728 C3729 1.286 . S
C3729 U3726 2.984 . S
C3729 O3727 1.353 . S
C3729 O3728 1.286 . S
C3729 C3731 1.363 . S
C3730 C3720 1.465 . S
C3730 U3726 2.847 . S
C3730 O3744 1.249 . S
C3730 O3745 1.202 . S
C3731 C3729 1.363 . S
C3731 C3733 1.408 . S
C3731 C3736 1.342 . S
C3732 C3733 1.310 . S
C3732 C3735 1.461 . S
C3732 H3752 0.932 . S
C3733 C3731 1.408 . S
C3733 C3732 1.310 . S
C3733 H3753 0.930 . S
C3734 C3735 1.474 . S
C3734 C3736 1.285 . S
C3734 H3754 0.929 . S
C3735 C3732 1.461 . S
C3735 C3734 1.474 . S
C3736 C3731 1.342 . S
C3736 C3734 1.285 . S
C3736 H3755 0.930 . S
C3737 C3740 1.424 . S
C3737 C3742 1.245 . S
C3737 C3743 1.428 . S
C3738 C3741 1.260 . S
C3738 C3742 1.477 . S
C3738 H3756 0.932 . S
C3739 C3740 1.384 . S
C3739 C3741 1.479 . S
C3739 H3757 0.929 . S
C3740 C3737 1.424 . S
C3740 C3739 1.384 . S
C3740 H3758 0.928 . S
C3741 C3738 1.260 . S
C3741 C3739 1.479 . S
C3742 C3737 1.245 . S
C3742 C3738 1.477 . S
C3742 H3759 0.932 . S
C3743 U3726 2.882 . S
C3743 C3737 1.428 . S
C3743 O3746 1.301 . S
C3743 O3747 1.282 . S
O3744 U3726 2.441 . S
O3744 C3730 1.249 . S
O3745 U3726 2.420 . S
O3745 C3730 1.202 . S
O3746 U3726 2.455 . S
O3746 C3743 1.301 . S
O3747 U3726 2.449 . S
O3747 C3743 1.282 . S
H3748 C3721 0.931 . S
H3749 C3723 0.929 . S
H3750 C3724 0.930 . S
H3751 C3725 0.931 . S
H3752 C3732 0.932 . S
H3753 C3733 0.930 . S
H3754 C3734 0.929 . S
H3755 C3736 0.930 . S
H3756 C3738 0.932 . S
H3757 C3739 0.929 . S
H3758 C3740 0.928 . S
H3759 C3742 0.932 . S
C3760 C3761 1.264 . S
C3760 C3765 1.479 . S
C3760 C3770 1.465 . S
C3761 C3760 1.264 . S
C3761 C3763 1.339 . S
C3761 H3788 0.931 . S
C3762 C3763 1.395 . S
C3762 C3764 1.320 . S
C3763 C3761 1.339 . S
C3763 C3762 1.395 . S
C3763 H3789 0.929 . S
C3764 C3762 1.320 . S
C3764 C3765 1.405 . S
C3764 H3790 0.930 . S
C3765 C3760 1.479 . S
C3765 C3764 1.405 . S
C3765 H3791 0.931 . S
U3766 O3767 2.454 . S
U3766 O3768 2.458 . S
U3766 C3769 2.984 . S
U3766 C3770 2.847 . S
U3766 C3783 2.882 . S
U3766 O3784 2.441 . S
U3766 O3785 2.420 . S
U3766 O3786 2.455 . S
U3766 O3787 2.449 . S
O3767 U3766 2.454 . S
O3767 C3769 1.353 . S
O3768 U3766 2.458 . S
O3768 C3769 1.286 . S
C3769 U3766 2.984 . S
C3769 O3767 1.353 . S
C3769 O3768 1.286 . S
C3769 C3771 1.363 . S
C3770 C3760 1.465 . S
C3770 U3766 2.847 . S
C3770 O3784 1.249 . S
C3770 O3785 1.202 . S
C3771 C3769 1.363 . S
C3771 C3773 1.408 . S
C3771 C3776 1.342 . S
C3772 C3773 1.310 . S
C3772 C3775 1.461 . S
C3772 H3792 0.932 . S
C3773 C3771 1.408 . S
C3773 C3772 1.310 . S
C3773 H3793 0.930 . S
C3774 C3775 1.474 . S
C3774 C3776 1.285 . S
C3774 H3794 0.929 . S
C3775 C3772 1.461 . S
C3775 C3774 1.474 . S
C3776 C3771 1.342 . S
C3776 C3774 1.285 . S
C3776 H3795 0.930 . S
C3777 C3780 1.424 . S
C3777 C3782 1.245 . S
C3777 C3783 1.428 . S
C3778 C3781 1.260 . S
C3778 C3782 1.477 . S
C3778 H3796 0.932 . S
C3779 C3780 1.384 . S
C3779 C3781 1.479 . S
C3779 H3797 0.929 . S
C3780 C3777 1.424 . S
C3780 C3779 1.384 . S
C3780 H3798 0.928 . S
C3781 C3778 1.260 . S
C3781 C3779 1.479 . S
C3782 C3777 1.245 . S
C3782 C3778 1.477 . S
C3782 H3799 0.932 . S
C3783 U3766 2.882 . S
C3783 C3777 1.428 . S
C3783 O3786 1.301 . S
C3783 O3787 1.282 . S
O3784 U3766 2.441 . S
O3784 C3770 1.249 . S
O3785 U3766 2.420 . S
O3785 C3770 1.202 . S
O3786 U3766 2.455 . S
O3786 C3783 1.301 . S
O3787 U3766 2.449 . S
O3787 C3783 1.282 . S
H3788 C3761 0.931 . S
H3789 C3763 0.929 . S
H3790 C3764 0.930 . S
H3791 C3765 0.931 . S
H3792 C3772 0.932 . S
H3793 C3773 0.930 . S
H3794 C3774 0.929 . S
H3795 C3776 0.930 . S
H3796 C3778 0.932 . S
H3797 C3779 0.929 . S
H3798 C3780 0.928 . S
H3799 C3782 0.932 . S
C3800 C3801 1.264 . S
C3800 C3805 1.479 . S
C3800 C3810 1.465 . S
C3801 C3800 1.264 . S
C3801 C3803 1.339 . S
C3801 H3828 0.931 . S
C3802 C3803 1.395 . S
C3802 C3804 1.320 . S
C3803 C3801 1.339 . S
C3803 C3802 1.395 . S
C3803 H3829 0.929 . S
C3804 C3802 1.320 . S
C3804 C3805 1.405 . S
C3804 H3830 0.930 . S
C3805 C3800 1.479 . S
C3805 C3804 1.405 . S
C3805 H3831 0.931 . S
U3806 O3807 2.454 . S
U3806 O3808 2.458 . S
U3806 C3809 2.984 . S
U3806 C3810 2.847 . S
U3806 C3823 2.882 . S
U3806 O3824 2.441 . S
U3806 O3825 2.420 . S
U3806 O3826 2.455 . S
U3806 O3827 2.449 . S
O3807 U3806 2.454 . S
O3807 C3809 1.353 . S
O3808 U3806 2.458 . S
O3808 C3809 1.286 . S
C3809 U3806 2.984 . S
C3809 O3807 1.353 . S
C3809 O3808 1.286 . S
C3809 C3811 1.363 . S
C3810 C3800 1.465 . S
C3810 U3806 2.847 . S
C3810 O3824 1.249 . S
C3810 O3825 1.202 . S
C3811 C3809 1.363 . S
C3811 C3813 1.408 . S
C3811 C3816 1.342 . S
C3812 C3813 1.310 . S
C3812 C3815 1.461 . S
C3812 H3832 0.932 . S
C3813 C3811 1.408 . S
C3813 C3812 1.310 . S
C3813 H3833 0.930 . S
C3814 C3815 1.474 . S
C3814 C3816 1.285 . S
C3814 H3834 0.929 . S
C3815 C3812 1.461 . S
C3815 C3814 1.474 . S
C3816 C3811 1.342 . S
C3816 C3814 1.285 . S
C3816 H3835 0.930 . S
C3817 C3820 1.424 . S
C3817 C3822 1.245 . S
C3817 C3823 1.428 . S
C3818 C3821 1.260 . S
C3818 C3822 1.477 . S
C3818 H3836 0.932 . S
C3819 C3820 1.384 . S
C3819 C3821 1.479 . S
C3819 H3837 0.929 . S
C3820 C3817 1.424 . S
C3820 C3819 1.384 . S
C3820 H3838 0.928 . S
C3821 C3818 1.260 . S
C3821 C3819 1.479 . S
C3822 C3817 1.245 . S
C3822 C3818 1.477 . S
C3822 H3839 0.932 . S
C3823 U3806 2.882 . S
C3823 C3817 1.428 . S
C3823 O3826 1.301 . S
C3823 O3827 1.282 . S
O3824 U3806 2.441 . S
O3824 C3810 1.249 . S
O3825 U3806 2.420 . S
O3825 C3810 1.202 . S
O3826 U3806 2.455 . S
O3826 C3823 1.301 . S
O3827 U3806 2.449 . S
O3827 C3823 1.282 . S
H3828 C3801 0.931 . S
H3829 C3803 0.929 . S
H3830 C3804 0.930 . S
H3831 C3805 0.931 . S
H3832 C3812 0.932 . S
H3833 C3813 0.930 . S
H3834 C3814 0.929 . S
H3835 C3816 0.930 . S
H3836 C3818 0.932 . S
H3837 C3819 0.929 . S
H3838 C3820 0.928 . S
H3839 C3822 0.932 . S
H3840 C3845 0.930 . S
H3841 C3848 0.930 . S
H3842 C3850 0.930 . S
H3843 C3844 1.016 . S
C3844 H3843 1.016 . S
C3844 N3851 1.286 . S
C3845 H3840 0.930 . S
C3845 C3846 1.397 . S
C3845 C3847 1.361 . S
C3846 C3845 1.397 . S
C3846 C3850 1.390 . S
C3847 C3845 1.361 . S
C3847 C3848 1.393 . S
C3847 N3851 1.413 . S
C3848 H3841 0.930 . S
C3848 C3847 1.393 . S
C3848 C3849 1.399 . S
C3849 C3848 1.399 . S
C3849 C3850 1.381 . S
C3850 H3842 0.930 . S
C3850 C3846 1.390 . S
C3850 C3849 1.381 . S
N3851 C3844 1.286 . S
N3851 C3847 1.413 . S
H3852 C3857 0.930 . S
H3853 C3860 0.930 . S
H3854 C3862 0.930 . S
H3855 C3856 1.016 . S
C3856 H3855 1.016 . S
C3856 N3863 1.286 . S
C3857 H3852 0.930 . S
C3857 C3858 1.397 . S
C3857 C3859 1.361 . S
C3858 C3857 1.397 . S
C3858 C3862 1.390 . S
C3859 C3857 1.361 . S
C3859 C3860 1.393 . S
C3859 N3863 1.413 . S
C3860 H3853 0.930 . S
C3860 C3859 1.393 . S
C3860 C3861 1.399 . S
C3861 C3860 1.399 . S
C3861 C3862 1.381 . S
C3862 H3854 0.930 . S
C3862 C3858 1.390 . S
C3862 C3861 1.381 . S
N3863 C3856 1.286 . S
N3863 C3859 1.413 . S
H3864 C3869 0.930 . S
H3865 C3872 0.930 . S
H3866 C3874 0.930 . S
H3867 C3868 1.016 . S
C3868 H3867 1.016 . S
C3868 N3875 1.286 . S
C3869 H3864 0.930 . S
C3869 C3870 1.397 . S
C3869 C3871 1.361 . S
C3870 C3869 1.397 . S
C3870 C3874 1.390 . S
C3871 C3869 1.361 . S
C3871 C3872 1.393 . S
C3871 N3875 1.413 . S
C3872 H3865 0.930 . S
C3872 C3871 1.393 . S
C3872 C3873 1.399 . S
C3873 C3872 1.399 . S
C3873 C3874 1.381 . S
C3874 H3866 0.930 . S
C3874 C3870 1.390 . S
C3874 C3873 1.381 . S
N3875 C3868 1.286 . S
N3875 C3871 1.413 . S
H3876 C3881 0.930 . S
H3877 C3884 0.930 . S
H3878 C3886 0.930 . S
H3879 C3880 1.016 . S
C3880 H3879 1.016 . S
C3880 N3887 1.286 . S
C3881 H3876 0.930 . S
C3881 C3882 1.397 . S
C3881 C3883 1.361 . S
C3882 C3881 1.397 . S
C3882 C3886 1.390 . S
C3883 C3881 1.361 . S
C3883 C3884 1.393 . S
C3883 N3887 1.413 . S
C3884 H3877 0.930 . S
C3884 C3883 1.393 . S
C3884 C3885 1.399 . S
C3885 C3884 1.399 . S
C3885 C3886 1.381 . S
C3886 H3878 0.930 . S
C3886 C3882 1.390 . S
C3886 C3885 1.381 . S
N3887 C3880 1.286 . S
N3887 C3883 1.413 . S
H3888 C3893 0.930 . S
H3889 C3896 0.930 . S
H3890 C3898 0.930 . S
H3891 C3892 1.016 . S
C3892 H3891 1.016 . S
C3892 N3899 1.286 . S
C3893 H3888 0.930 . S
C3893 C3894 1.397 . S
C3893 C3895 1.361 . S
C3894 C3893 1.397 . S
C3894 C3898 1.390 . S
C3895 C3893 1.361 . S
C3895 C3896 1.393 . S
C3895 N3899 1.413 . S
C3896 H3889 0.930 . S
C3896 C3895 1.393 . S
C3896 C3897 1.399 . S
C3897 C3896 1.399 . S
C3897 C3898 1.381 . S
C3898 H3890 0.930 . S
C3898 C3894 1.390 . S
C3898 C3897 1.381 . S
N3899 C3892 1.286 . S
N3899 C3895 1.413 . S
H3900 C3905 0.930 . S
H3901 C3908 0.930 . S
H3902 C3910 0.930 . S
H3903 C3904 1.016 . S
C3904 H3903 1.016 . S
C3904 N3911 1.286 . S
C3905 H3900 0.930 . S
C3905 C3906 1.397 . S
C3905 C3907 1.361 . S
C3906 C3905 1.397 . S
C3906 C3910 1.390 . S
C3907 C3905 1.361 . S
C3907 C3908 1.393 . S
C3907 N3911 1.413 . S
C3908 H3901 0.930 . S
C3908 C3907 1.393 . S
C3908 C3909 1.399 . S
C3909 C3908 1.399 . S
C3909 C3910 1.381 . S
C3910 H3902 0.930 . S
C3910 C3906 1.390 . S
C3910 C3909 1.381 . S
N3911 C3904 1.286 . S
N3911 C3907 1.413 . S
H3912 C3917 0.930 . S
H3913 C3920 0.930 . S
H3914 C3922 0.930 . S
H3915 C3916 1.016 . S
C3916 H3915 1.016 . S
C3916 N3923 1.286 . S
C3917 H3912 0.930 . S
C3917 C3918 1.397 . S
C3917 C3919 1.361 . S
C3918 C3917 1.397 . S
C3918 C3922 1.390 . S
C3919 C3917 1.361 . S
C3919 C3920 1.393 . S
C3919 N3923 1.413 . S
C3920 H3913 0.930 . S
C3920 C3919 1.393 . S
C3920 C3921 1.399 . S
C3921 C3920 1.399 . S
C3921 C3922 1.381 . S
C3922 H3914 0.930 . S
C3922 C3918 1.390 . S
C3922 C3921 1.381 . S
N3923 C3916 1.286 . S
N3923 C3919 1.413 . S
H3924 C3929 0.930 . S
H3925 C3932 0.930 . S
H3926 C3934 0.930 . S
H3927 C3928 1.016 . S
C3928 H3927 1.016 . S
C3928 N3935 1.286 . S
C3929 H3924 0.930 . S
C3929 C3930 1.397 . S
C3929 C3931 1.361 . S
C3930 C3929 1.397 . S
C3930 C3934 1.390 . S
C3931 C3929 1.361 . S
C3931 C3932 1.393 . S
C3931 N3935 1.413 . S
C3932 H3925 0.930 . S
C3932 C3931 1.393 . S
C3932 C3933 1.399 . S
C3933 C3932 1.399 . S
C3933 C3934 1.381 . S
C3934 H3926 0.930 . S
C3934 C3930 1.390 . S
C3934 C3933 1.381 . S
N3935 C3928 1.286 . S
N3935 C3931 1.413 . S
H3936 C3941 0.930 . S
H3937 C3944 0.930 . S
H3938 C3946 0.930 . S
H3939 C3940 1.016 . S
C3940 H3939 1.016 . S
C3940 N3947 1.286 . S
C3941 H3936 0.930 . S
C3941 C3942 1.397 . S
C3941 C3943 1.361 . S
C3942 C3941 1.397 . S
C3942 C3946 1.390 . S
C3943 C3941 1.361 . S
C3943 C3944 1.393 . S
C3943 N3947 1.413 . S
C3944 H3937 0.930 . S
C3944 C3943 1.393 . S
C3944 C3945 1.399 . S
C3945 C3944 1.399 . S
C3945 C3946 1.381 . S
C3946 H3938 0.930 . S
C3946 C3942 1.390 . S
C3946 C3945 1.381 . S
N3947 C3940 1.286 . S
N3947 C3943 1.413 . S
H3948 C3953 0.930 . S
H3949 C3956 0.930 . S
H3950 C3958 0.930 . S
H3951 C3952 1.016 . S
C3952 H3951 1.016 . S
C3952 N3959 1.286 . S
C3953 H3948 0.930 . S
C3953 C3954 1.397 . S
C3953 C3955 1.361 . S
C3954 C3953 1.397 . S
C3954 C3958 1.390 . S
C3955 C3953 1.361 . S
C3955 C3956 1.393 . S
C3955 N3959 1.413 . S
C3956 H3949 0.930 . S
C3956 C3955 1.393 . S
C3956 C3957 1.399 . S
C3957 C3956 1.399 . S
C3957 C3958 1.381 . S
C3958 H3950 0.930 . S
C3958 C3954 1.390 . S
C3958 C3957 1.381 . S
N3959 C3952 1.286 . S
N3959 C3955 1.413 . S
H3960 C3965 0.930 . S
H3961 C3968 0.930 . S
H3962 C3970 0.930 . S
H3963 C3964 1.016 . S
C3964 H3963 1.016 . S
C3964 N3971 1.286 . S
C3965 H3960 0.930 . S
C3965 C3966 1.397 . S
C3965 C3967 1.361 . S
C3966 C3965 1.397 . S
C3966 C3970 1.390 . S
C3967 C3965 1.361 . S
C3967 C3968 1.393 . S
C3967 N3971 1.413 . S
C3968 H3961 0.930 . S
C3968 C3967 1.393 . S
C3968 C3969 1.399 . S
C3969 C3968 1.399 . S
C3969 C3970 1.381 . S
C3970 H3962 0.930 . S
C3970 C3966 1.390 . S
C3970 C3969 1.381 . S
N3971 C3964 1.286 . S
N3971 C3967 1.413 . S
H3972 C3977 0.930 . S
H3973 C3980 0.930 . S
H3974 C3982 0.930 . S
H3975 C3976 1.016 . S
C3976 H3975 1.016 . S
C3976 N3983 1.286 . S
C3977 H3972 0.930 . S
C3977 C3978 1.397 . S
C3977 C3979 1.361 . S
C3978 C3977 1.397 . S
C3978 C3982 1.390 . S
C3979 C3977 1.361 . S
C3979 C3980 1.393 . S
C3979 N3983 1.413 . S
C3980 H3973 0.930 . S
C3980 C3979 1.393 . S
C3980 C3981 1.399 . S
C3981 C3980 1.399 . S
C3981 C3982 1.381 . S
C3982 H3974 0.930 . S
C3982 C3978 1.390 . S
C3982 C3981 1.381 . S
N3983 C3976 1.286 . S
N3983 C3979 1.413 . S
H3984 C3989 0.930 . S
H3985 C3992 0.930 . S
H3986 C3994 0.930 . S
H3987 C3988 1.016 . S
C3988 H3987 1.016 . S
C3988 N3995 1.286 . S
C3989 H3984 0.930 . S
C3989 C3990 1.397 . S
C3989 C3991 1.361 . S
C3990 C3989 1.397 . S
C3990 C3994 1.390 . S
C3991 C3989 1.361 . S
C3991 C3992 1.393 . S
C3991 N3995 1.413 . S
C3992 H3985 0.930 . S
C3992 C3991 1.393 . S
C3992 C3993 1.399 . S
C3993 C3992 1.399 . S
C3993 C3994 1.381 . S
C3994 H3986 0.930 . S
C3994 C3990 1.390 . S
C3994 C3993 1.381 . S
N3995 C3988 1.286 . S
N3995 C3991 1.413 . S
H3996 C4001 0.930 . S
H3997 C4004 0.930 . S
H3998 C4006 0.930 . S
H3999 C4000 1.016 . S
C4000 H3999 1.016 . S
C4000 N4007 1.286 . S
C4001 H3996 0.930 . S
C4001 C4002 1.397 . S
C4001 C4003 1.361 . S
C4002 C4001 1.397 . S
C4002 C4006 1.390 . S
C4003 C4001 1.361 . S
C4003 C4004 1.393 . S
C4003 N4007 1.413 . S
C4004 H3997 0.930 . S
C4004 C4003 1.393 . S
C4004 C4005 1.399 . S
C4005 C4004 1.399 . S
C4005 C4006 1.381 . S
C4006 H3998 0.930 . S
C4006 C4002 1.390 . S
C4006 C4005 1.381 . S
N4007 C4000 1.286 . S
N4007 C4003 1.413 . S
H4008 C4013 0.930 . S
H4009 C4016 0.930 . S
H4010 C4018 0.930 . S
H4011 C4012 1.016 . S
C4012 H4011 1.016 . S
C4012 N4019 1.286 . S
C4013 H4008 0.930 . S
C4013 C4014 1.397 . S
C4013 C4015 1.361 . S
C4014 C4013 1.397 . S
C4014 C4018 1.390 . S
C4015 C4013 1.361 . S
C4015 C4016 1.393 . S
C4015 N4019 1.413 . S
C4016 H4009 0.930 . S
C4016 C4015 1.393 . S
C4016 C4017 1.399 . S
C4017 C4016 1.399 . S
C4017 C4018 1.381 . S
C4018 H4010 0.930 . S
C4018 C4014 1.390 . S
C4018 C4017 1.381 . S
N4019 C4012 1.286 . S
N4019 C4015 1.413 . S
H4020 C4025 0.930 . S
H4021 C4028 0.930 . S
H4022 C4030 0.930 . S
H4023 C4024 1.016 . S
C4024 H4023 1.016 . S
C4024 N4031 1.286 . S
C4025 H4020 0.930 . S
C4025 C4026 1.397 . S
C4025 C4027 1.361 . S
C4026 C4025 1.397 . S
C4026 C4030 1.390 . S
C4027 C4025 1.361 . S
C4027 C4028 1.393 . S
C4027 N4031 1.413 . S
C4028 H4021 0.930 . S
C4028 C4027 1.393 . S
C4028 C4029 1.399 . S
C4029 C4028 1.399 . S
C4029 C4030 1.381 . S
C4030 H4022 0.930 . S
C4030 C4026 1.390 . S
C4030 C4029 1.381 . S
N4031 C4024 1.286 . S
N4031 C4027 1.413 . S
H4032 C4037 0.930 . S
H4033 C4040 0.930 . S
H4034 C4042 0.930 . S
H4035 C4036 1.016 . S
C4036 H4035 1.016 . S
C4036 N4043 1.286 . S
C4037 H4032 0.930 . S
C4037 C4038 1.397 . S
C4037 C4039 1.361 . S
C4038 C4037 1.397 . S
C4038 C4042 1.390 . S
C4039 C4037 1.361 . S
C4039 C4040 1.393 . S
C4039 N4043 1.413 . S
C4040 H4033 0.930 . S
C4040 C4039 1.393 . S
C4040 C4041 1.399 . S
C4041 C4040 1.399 . S
C4041 C4042 1.381 . S
C4042 H4034 0.930 . S
C4042 C4038 1.390 . S
C4042 C4041 1.381 . S
N4043 C4036 1.286 . S
N4043 C4039 1.413 . S
H4044 C4049 0.930 . S
H4045 C4052 0.930 . S
H4046 C4054 0.930 . S
H4047 C4048 1.016 . S
C4048 H4047 1.016 . S
C4048 N4055 1.286 . S
C4049 H4044 0.930 . S
C4049 C4050 1.397 . S
C4049 C4051 1.361 . S
C4050 C4049 1.397 . S
C4050 C4054 1.390 . S
C4051 C4049 1.361 . S
C4051 C4052 1.393 . S
C4051 N4055 1.413 . S
C4052 H4045 0.930 . S
C4052 C4051 1.393 . S
C4052 C4053 1.399 . S
C4053 C4052 1.399 . S
C4053 C4054 1.381 . S
C4054 H4046 0.930 . S
C4054 C4050 1.390 . S
C4054 C4053 1.381 . S
N4055 C4048 1.286 . S
N4055 C4051 1.413 . S
H4056 C4061 0.930 . S
H4057 C4064 0.930 . S
H4058 C4066 0.930 . S
H4059 C4060 1.016 . S
C4060 H4059 1.016 . S
C4060 N4067 1.286 . S
C4061 H4056 0.930 . S
C4061 C4062 1.397 . S
C4061 C4063 1.361 . S
C4062 C4061 1.397 . S
C4062 C4066 1.390 . S
C4063 C4061 1.361 . S
C4063 C4064 1.393 . S
C4063 N4067 1.413 . S
C4064 H4057 0.930 . S
C4064 C4063 1.393 . S
C4064 C4065 1.399 . S
C4065 C4064 1.399 . S
C4065 C4066 1.381 . S
C4066 H4058 0.930 . S
C4066 C4062 1.390 . S
C4066 C4065 1.381 . S
N4067 C4060 1.286 . S
N4067 C4063 1.413 . S
H4068 C4073 0.930 . S
H4069 C4076 0.930 . S
H4070 C4078 0.930 . S
H4071 C4072 1.016 . S
C4072 H4071 1.016 . S
C4072 N4079 1.286 . S
C4073 H4068 0.930 . S
C4073 C4074 1.397 . S
C4073 C4075 1.361 . S
C4074 C4073 1.397 . S
C4074 C4078 1.390 . S
C4075 C4073 1.361 . S
C4075 C4076 1.393 . S
C4075 N4079 1.413 . S
C4076 H4069 0.930 . S
C4076 C4075 1.393 . S
C4076 C4077 1.399 . S
C4077 C4076 1.399 . S
C4077 C4078 1.381 . S
C4078 H4070 0.930 . S
C4078 C4074 1.390 . S
C4078 C4077 1.381 . S
N4079 C4072 1.286 . S
N4079 C4075 1.413 . S
H4080 C4085 0.930 . S
H4081 C4088 0.930 . S
H4082 C4090 0.930 . S
H4083 C4084 1.016 . S
C4084 H4083 1.016 . S
C4084 N4091 1.286 . S
C4085 H4080 0.930 . S
C4085 C4086 1.397 . S
C4085 C4087 1.361 . S
C4086 C4085 1.397 . S
C4086 C4090 1.390 . S
C4087 C4085 1.361 . S
C4087 C4088 1.393 . S
C4087 N4091 1.413 . S
C4088 H4081 0.930 . S
C4088 C4087 1.393 . S
C4088 C4089 1.399 . S
C4089 C4088 1.399 . S
C4089 C4090 1.381 . S
C4090 H4082 0.930 . S
C4090 C4086 1.390 . S
C4090 C4089 1.381 . S
N4091 C4084 1.286 . S
N4091 C4087 1.413 . S
H4092 C4097 0.930 . S
H4093 C4100 0.930 . S
H4094 C4102 0.930 . S
H4095 C4096 1.016 . S
C4096 H4095 1.016 . S
C4096 N4103 1.286 . S
C4097 H4092 0.930 . S
C4097 C4098 1.397 . S
C4097 C4099 1.361 . S
C4098 C4097 1.397 . S
C4098 C4102 1.390 . S
C4099 C4097 1.361 . S
C4099 C4100 1.393 . S
C4099 N4103 1.413 . S
C4100 H4093 0.930 . S
C4100 C4099 1.393 . S
C4100 C4101 1.399 . S
C4101 C4100 1.399 . S
C4101 C4102 1.381 . S
C4102 H4094 0.930 . S
C4102 C4098 1.390 . S
C4102 C4101 1.381 . S
N4103 C4096 1.286 . S
N4103 C4099 1.413 . S
H4104 C4109 0.930 . S
H4105 C4112 0.930 . S
H4106 C4114 0.930 . S
H4107 C4108 1.016 . S
C4108 H4107 1.016 . S
C4108 N4115 1.286 . S
C4109 H4104 0.930 . S
C4109 C4110 1.397 . S
C4109 C4111 1.361 . S
C4110 C4109 1.397 . S
C4110 C4114 1.390 . S
C4111 C4109 1.361 . S
C4111 C4112 1.393 . S
C4111 N4115 1.413 . S
C4112 H4105 0.930 . S
C4112 C4111 1.393 . S
C4112 C4113 1.399 . S
C4113 C4112 1.399 . S
C4113 C4114 1.381 . S
C4114 H4106 0.930 . S
C4114 C4110 1.390 . S
C4114 C4113 1.381 . S
N4115 C4108 1.286 . S
N4115 C4111 1.413 . S
H4116 C4121 0.930 . S
H4117 C4124 0.930 . S
H4118 C4126 0.930 . S
H4119 C4120 1.016 . S
C4120 H4119 1.016 . S
C4120 N4127 1.286 . S
C4121 H4116 0.930 . S
C4121 C4122 1.397 . S
C4121 C4123 1.361 . S
C4122 C4121 1.397 . S
C4122 C4126 1.390 . S
C4123 C4121 1.361 . S
C4123 C4124 1.393 . S
C4123 N4127 1.413 . S
C4124 H4117 0.930 . S
C4124 C4123 1.393 . S
C4124 C4125 1.399 . S
C4125 C4124 1.399 . S
C4125 C4126 1.381 . S
C4126 H4118 0.930 . S
C4126 C4122 1.390 . S
C4126 C4125 1.381 . S
N4127 C4120 1.286 . S
N4127 C4123 1.413 . S
H4128 C4133 0.930 . S
H4129 C4136 0.930 . S
H4130 C4138 0.930 . S
H4131 C4132 1.016 . S
C4132 H4131 1.016 . S
C4132 N4139 1.286 . S
C4133 H4128 0.930 . S
C4133 C4134 1.397 . S
C4133 C4135 1.361 . S
C4134 C4133 1.397 . S
C4134 C4138 1.390 . S
C4135 C4133 1.361 . S
C4135 C4136 1.393 . S
C4135 N4139 1.413 . S
C4136 H4129 0.930 . S
C4136 C4135 1.393 . S
C4136 C4137 1.399 . S
C4137 C4136 1.399 . S
C4137 C4138 1.381 . S
C4138 H4130 0.930 . S
C4138 C4134 1.390 . S
C4138 C4137 1.381 . S
N4139 C4132 1.286 . S
N4139 C4135 1.413 . S
H4140 C4145 0.930 . S
H4141 C4148 0.930 . S
H4142 C4150 0.930 . S
H4143 C4144 1.016 . S
C4144 H4143 1.016 . S
C4144 N4151 1.286 . S
C4145 H4140 0.930 . S
C4145 C4146 1.397 . S
C4145 C4147 1.361 . S
C4146 C4145 1.397 . S
C4146 C4150 1.390 . S
C4147 C4145 1.361 . S
C4147 C4148 1.393 . S
C4147 N4151 1.413 . S
C4148 H4141 0.930 . S
C4148 C4147 1.393 . S
C4148 C4149 1.399 . S
C4149 C4148 1.399 . S
C4149 C4150 1.381 . S
C4150 H4142 0.930 . S
C4150 C4146 1.390 . S
C4150 C4149 1.381 . S
N4151 C4144 1.286 . S
N4151 C4147 1.413 . S
H4152 C4157 0.930 . S
H4153 C4160 0.930 . S
H4154 C4162 0.930 . S
H4155 C4156 1.016 . S
C4156 H4155 1.016 . S
C4156 N4163 1.286 . S
C4157 H4152 0.930 . S
C4157 C4158 1.397 . S
C4157 C4159 1.361 . S
C4158 C4157 1.397 . S
C4158 C4162 1.390 . S
C4159 C4157 1.361 . S
C4159 C4160 1.393 . S
C4159 N4163 1.413 . S
C4160 H4153 0.930 . S
C4160 C4159 1.393 . S
C4160 C4161 1.399 . S
C4161 C4160 1.399 . S
C4161 C4162 1.381 . S
C4162 H4154 0.930 . S
C4162 C4158 1.390 . S
C4162 C4161 1.381 . S
N4163 C4156 1.286 . S
N4163 C4159 1.413 . S
H4164 C4169 0.930 . S
H4165 C4172 0.930 . S
H4166 C4174 0.930 . S
H4167 C4168 1.016 . S
C4168 H4167 1.016 . S
C4168 N4175 1.286 . S
C4169 H4164 0.930 . S
C4169 C4170 1.397 . S
C4169 C4171 1.361 . S
C4170 C4169 1.397 . S
C4170 C4174 1.390 . S
C4171 C4169 1.361 . S
C4171 C4172 1.393 . S
C4171 N4175 1.413 . S
C4172 H4165 0.930 . S
C4172 C4171 1.393 . S
C4172 C4173 1.399 . S
C4173 C4172 1.399 . S
C4173 C4174 1.381 . S
C4174 H4166 0.930 . S
C4174 C4170 1.390 . S
C4174 C4173 1.381 . S
N4175 C4168 1.286 . S
N4175 C4171 1.413 . S
H4176 C4181 0.930 . S
H4177 C4184 0.930 . S
H4178 C4186 0.930 . S
H4179 C4180 1.016 . S
C4180 H4179 1.016 . S
C4180 N4187 1.286 . S
C4181 H4176 0.930 . S
C4181 C4182 1.397 . S
C4181 C4183 1.361 . S
C4182 C4181 1.397 . S
C4182 C4186 1.390 . S
C4183 C4181 1.361 . S
C4183 C4184 1.393 . S
C4183 N4187 1.413 . S
C4184 H4177 0.930 . S
C4184 C4183 1.393 . S
C4184 C4185 1.399 . S
C4185 C4184 1.399 . S
C4185 C4186 1.381 . S
C4186 H4178 0.930 . S
C4186 C4182 1.390 . S
C4186 C4185 1.381 . S
N4187 C4180 1.286 . S
N4187 C4183 1.413 . S
H4188 C4193 0.930 . S
H4189 C4196 0.930 . S
H4190 C4198 0.930 . S
H4191 C4192 1.016 . S
C4192 H4191 1.016 . S
C4192 N4199 1.286 . S
C4193 H4188 0.930 . S
C4193 C4194 1.397 . S
C4193 C4195 1.361 . S
C4194 C4193 1.397 . S
C4194 C4198 1.390 . S
C4195 C4193 1.361 . S
C4195 C4196 1.393 . S
C4195 N4199 1.413 . S
C4196 H4189 0.930 . S
C4196 C4195 1.393 . S
C4196 C4197 1.399 . S
C4197 C4196 1.399 . S
C4197 C4198 1.381 . S
C4198 H4190 0.930 . S
C4198 C4194 1.390 . S
C4198 C4197 1.381 . S
N4199 C4192 1.286 . S
N4199 C4195 1.413 . S
H4200 C4205 0.930 . S
H4201 C4208 0.930 . S
H4202 C4210 0.930 . S
H4203 C4204 1.016 . S
C4204 H4203 1.016 . S
C4204 N4211 1.286 . S
C4205 H4200 0.930 . S
C4205 C4206 1.397 . S
C4205 C4207 1.361 . S
C4206 C4205 1.397 . S
C4206 C4210 1.390 . S
C4207 C4205 1.361 . S
C4207 C4208 1.393 . S
C4207 N4211 1.413 . S
C4208 H4201 0.930 . S
C4208 C4207 1.393 . S
C4208 C4209 1.399 . S
C4209 C4208 1.399 . S
C4209 C4210 1.381 . S
C4210 H4202 0.930 . S
C4210 C4206 1.390 . S
C4210 C4209 1.381 . S
N4211 C4204 1.286 . S
N4211 C4207 1.413 . S
H4212 C4217 0.930 . S
H4213 C4220 0.930 . S
H4214 C4222 0.930 . S
H4215 C4216 1.016 . S
C4216 H4215 1.016 . S
C4216 N4223 1.286 . S
C4217 H4212 0.930 . S
C4217 C4218 1.397 . S
C4217 C4219 1.361 . S
C4218 C4217 1.397 . S
C4218 C4222 1.390 . S
C4219 C4217 1.361 . S
C4219 C4220 1.393 . S
C4219 N4223 1.413 . S
C4220 H4213 0.930 . S
C4220 C4219 1.393 . S
C4220 C4221 1.399 . S
C4221 C4220 1.399 . S
C4221 C4222 1.381 . S
C4222 H4214 0.930 . S
C4222 C4218 1.390 . S
C4222 C4221 1.381 . S
N4223 C4216 1.286 . S
N4223 C4219 1.413 . S
H4224 C4229 0.930 . S
H4225 C4232 0.930 . S
H4226 C4234 0.930 . S
H4227 C4228 1.016 . S
C4228 H4227 1.016 . S
C4228 N4235 1.286 . S
C4229 H4224 0.930 . S
C4229 C4230 1.397 . S
C4229 C4231 1.361 . S
C4230 C4229 1.397 . S
C4230 C4234 1.390 . S
C4231 C4229 1.361 . S
C4231 C4232 1.393 . S
C4231 N4235 1.413 . S
C4232 H4225 0.930 . S
C4232 C4231 1.393 . S
C4232 C4233 1.399 . S
C4233 C4232 1.399 . S
C4233 C4234 1.381 . S
C4234 H4226 0.930 . S
C4234 C4230 1.390 . S
C4234 C4233 1.381 . S
N4235 C4228 1.286 . S
N4235 C4231 1.413 . S
H4236 C4241 0.930 . S
H4237 C4244 0.930 . S
H4238 C4246 0.930 . S
H4239 C4240 1.016 . S
C4240 H4239 1.016 . S
C4240 N4247 1.286 . S
C4241 H4236 0.930 . S
C4241 C4242 1.397 . S
C4241 C4243 1.361 . S
C4242 C4241 1.397 . S
C4242 C4246 1.390 . S
C4243 C4241 1.361 . S
C4243 C4244 1.393 . S
C4243 N4247 1.413 . S
C4244 H4237 0.930 . S
C4244 C4243 1.393 . S
C4244 C4245 1.399 . S
C4245 C4244 1.399 . S
C4245 C4246 1.381 . S
C4246 H4238 0.930 . S
C4246 C4242 1.390 . S
C4246 C4245 1.381 . S
N4247 C4240 1.286 . S
N4247 C4243 1.413 . S
H4248 C4253 0.930 . S
H4249 C4256 0.930 . S
H4250 C4258 0.930 . S
H4251 C4252 1.016 . S
C4252 H4251 1.016 . S
C4252 N4259 1.286 . S
C4253 H4248 0.930 . S
C4253 C4254 1.397 . S
C4253 C4255 1.361 . S
C4254 C4253 1.397 . S
C4254 C4258 1.390 . S
C4255 C4253 1.361 . S
C4255 C4256 1.393 . S
C4255 N4259 1.413 . S
C4256 H4249 0.930 . S
C4256 C4255 1.393 . S
C4256 C4257 1.399 . S
C4257 C4256 1.399 . S
C4257 C4258 1.381 . S
C4258 H4250 0.930 . S
C4258 C4254 1.390 . S
C4258 C4257 1.381 . S
N4259 C4252 1.286 . S
N4259 C4255 1.413 . S
H4260 C4265 0.930 . S
H4261 C4268 0.930 . S
H4262 C4270 0.930 . S
H4263 C4264 1.016 . S
C4264 H4263 1.016 . S
C4264 N4271 1.286 . S
C4265 H4260 0.930 . S
C4265 C4266 1.397 . S
C4265 C4267 1.361 . S
C4266 C4265 1.397 . S
C4266 C4270 1.390 . S
C4267 C4265 1.361 . S
C4267 C4268 1.393 . S
C4267 N4271 1.413 . S
C4268 H4261 0.930 . S
C4268 C4267 1.393 . S
C4268 C4269 1.399 . S
C4269 C4268 1.399 . S
C4269 C4270 1.381 . S
C4270 H4262 0.930 . S
C4270 C4266 1.390 . S
C4270 C4269 1.381 . S
N4271 C4264 1.286 . S
N4271 C4267 1.413 . S
H4272 C4277 0.930 . S
H4273 C4280 0.930 . S
H4274 C4282 0.930 . S
H4275 C4276 1.016 . S
C4276 H4275 1.016 . S
C4276 N4283 1.286 . S
C4277 H4272 0.930 . S
C4277 C4278 1.397 . S
C4277 C4279 1.361 . S
C4278 C4277 1.397 . S
C4278 C4282 1.390 . S
C4279 C4277 1.361 . S
C4279 C4280 1.393 . S
C4279 N4283 1.413 . S
C4280 H4273 0.930 . S
C4280 C4279 1.393 . S
C4280 C4281 1.399 . S
C4281 C4280 1.399 . S
C4281 C4282 1.381 . S
C4282 H4274 0.930 . S
C4282 C4278 1.390 . S
C4282 C4281 1.381 . S
N4283 C4276 1.286 . S
N4283 C4279 1.413 . S
H4284 C4289 0.930 . S
H4285 C4292 0.930 . S
H4286 C4294 0.930 . S
H4287 C4288 1.016 . S
C4288 H4287 1.016 . S
C4288 N4295 1.286 . S
C4289 H4284 0.930 . S
C4289 C4290 1.397 . S
C4289 C4291 1.361 . S
C4290 C4289 1.397 . S
C4290 C4294 1.390 . S
C4291 C4289 1.361 . S
C4291 C4292 1.393 . S
C4291 N4295 1.413 . S
C4292 H4285 0.930 . S
C4292 C4291 1.393 . S
C4292 C4293 1.399 . S
C4293 C4292 1.399 . S
C4293 C4294 1.381 . S
C4294 H4286 0.930 . S
C4294 C4290 1.390 . S
C4294 C4293 1.381 . S
N4295 C4288 1.286 . S
N4295 C4291 1.413 . S
H4296 C4301 0.930 . S
H4297 C4304 0.930 . S
H4298 C4306 0.930 . S
H4299 C4300 1.016 . S
C4300 H4299 1.016 . S
C4300 N4307 1.286 . S
C4301 H4296 0.930 . S
C4301 C4302 1.397 . S
C4301 C4303 1.361 . S
C4302 C4301 1.397 . S
C4302 C4306 1.390 . S
C4303 C4301 1.361 . S
C4303 C4304 1.393 . S
C4303 N4307 1.413 . S
C4304 H4297 0.930 . S
C4304 C4303 1.393 . S
C4304 C4305 1.399 . S
C4305 C4304 1.399 . S
C4305 C4306 1.381 . S
C4306 H4298 0.930 . S
C4306 C4302 1.390 . S
C4306 C4305 1.381 . S
N4307 C4300 1.286 . S
N4307 C4303 1.413 . S
H4308 C4313 0.930 . S
H4309 C4316 0.930 . S
H4310 C4318 0.930 . S
H4311 C4312 1.016 . S
C4312 H4311 1.016 . S
C4312 N4319 1.286 . S
C4313 H4308 0.930 . S
C4313 C4314 1.397 . S
C4313 C4315 1.361 . S
C4314 C4313 1.397 . S
C4314 C4318 1.390 . S
C4315 C4313 1.361 . S
C4315 C4316 1.393 . S
C4315 N4319 1.413 . S
C4316 H4309 0.930 . S
C4316 C4315 1.393 . S
C4316 C4317 1.399 . S
C4317 C4316 1.399 . S
C4317 C4318 1.381 . S
C4318 H4310 0.930 . S
C4318 C4314 1.390 . S
C4318 C4317 1.381 . S
N4319 C4312 1.286 . S
N4319 C4315 1.413 . S
H4320 C4325 0.930 . S
H4321 C4328 0.930 . S
H4322 C4330 0.930 . S
H4323 C4324 1.016 . S
C4324 H4323 1.016 . S
C4324 N4331 1.286 . S
C4325 H4320 0.930 . S
C4325 C4326 1.397 . S
C4325 C4327 1.361 . S
C4326 C4325 1.397 . S
C4326 C4330 1.390 . S
C4327 C4325 1.361 . S
C4327 C4328 1.393 . S
C4327 N4331 1.413 . S
C4328 H4321 0.930 . S
C4328 C4327 1.393 . S
C4328 C4329 1.399 . S
C4329 C4328 1.399 . S
C4329 C4330 1.381 . S
C4330 H4322 0.930 . S
C4330 C4326 1.390 . S
C4330 C4329 1.381 . S
N4331 C4324 1.286 . S
N4331 C4327 1.413 . S
H4332 C4337 0.930 . S
H4333 C4340 0.930 . S
H4334 C4342 0.930 . S
H4335 C4336 1.016 . S
C4336 H4335 1.016 . S
C4336 N4343 1.286 . S
C4337 H4332 0.930 . S
C4337 C4338 1.397 . S
C4337 C4339 1.361 . S
C4338 C4337 1.397 . S
C4338 C4342 1.390 . S
C4339 C4337 1.361 . S
C4339 C4340 1.393 . S
C4339 N4343 1.413 . S
C4340 H4333 0.930 . S
C4340 C4339 1.393 . S
C4340 C4341 1.399 . S
C4341 C4340 1.399 . S
C4341 C4342 1.381 . S
C4342 H4334 0.930 . S
C4342 C4338 1.390 . S
C4342 C4341 1.381 . S
N4343 C4336 1.286 . S
N4343 C4339 1.413 . S
H4344 C4349 0.930 . S
H4345 C4352 0.930 . S
H4346 C4354 0.930 . S
H4347 C4348 1.016 . S
C4348 H4347 1.016 . S
C4348 N4355 1.286 . S
C4349 H4344 0.930 . S
C4349 C4350 1.397 . S
C4349 C4351 1.361 . S
C4350 C4349 1.397 . S
C4350 C4354 1.390 . S
C4351 C4349 1.361 . S
C4351 C4352 1.393 . S
C4351 N4355 1.413 . S
C4352 H4345 0.930 . S
C4352 C4351 1.393 . S
C4352 C4353 1.399 . S
C4353 C4352 1.399 . S
C4353 C4354 1.381 . S
C4354 H4346 0.930 . S
C4354 C4350 1.390 . S
C4354 C4353 1.381 . S
N4355 C4348 1.286 . S
N4355 C4351 1.413 . S
H4356 C4361 0.930 . S
H4357 C4364 0.930 . S
H4358 C4366 0.930 . S
H4359 C4360 1.016 . S
C4360 H4359 1.016 . S
C4360 N4367 1.286 . S
C4361 H4356 0.930 . S
C4361 C4362 1.397 . S
C4361 C4363 1.361 . S
C4362 C4361 1.397 . S
C4362 C4366 1.390 . S
C4363 C4361 1.361 . S
C4363 C4364 1.393 . S
C4363 N4367 1.413 . S
C4364 H4357 0.930 . S
C4364 C4363 1.393 . S
C4364 C4365 1.399 . S
C4365 C4364 1.399 . S
C4365 C4366 1.381 . S
C4366 H4358 0.930 . S
C4366 C4362 1.390 . S
C4366 C4365 1.381 . S
N4367 C4360 1.286 . S
N4367 C4363 1.413 . S
H4368 C4373 0.930 . S
H4369 C4376 0.930 . S
H4370 C4378 0.930 . S
H4371 C4372 1.016 . S
C4372 H4371 1.016 . S
C4372 N4379 1.286 . S
C4373 H4368 0.930 . S
C4373 C4374 1.397 . S
C4373 C4375 1.361 . S
C4374 C4373 1.397 . S
C4374 C4378 1.390 . S
C4375 C4373 1.361 . S
C4375 C4376 1.393 . S
C4375 N4379 1.413 . S
C4376 H4369 0.930 . S
C4376 C4375 1.393 . S
C4376 C4377 1.399 . S
C4377 C4376 1.399 . S
C4377 C4378 1.381 . S
C4378 H4370 0.930 . S
C4378 C4374 1.390 . S
C4378 C4377 1.381 . S
N4379 C4372 1.286 . S
N4379 C4375 1.413 . S
H4380 C4385 0.930 . S
H4381 C4388 0.930 . S
H4382 C4390 0.930 . S
H4383 C4384 1.016 . S
C4384 H4383 1.016 . S
C4384 N4391 1.286 . S
C4385 H4380 0.930 . S
C4385 C4386 1.397 . S
C4385 C4387 1.361 . S
C4386 C4385 1.397 . S
C4386 C4390 1.390 . S
C4387 C4385 1.361 . S
C4387 C4388 1.393 . S
C4387 N4391 1.413 . S
C4388 H4381 0.930 . S
C4388 C4387 1.393 . S
C4388 C4389 1.399 . S
C4389 C4388 1.399 . S
C4389 C4390 1.381 . S
C4390 H4382 0.930 . S
C4390 C4386 1.390 . S
C4390 C4389 1.381 . S
N4391 C4384 1.286 . S
N4391 C4387 1.413 . S
H4392 C4397 0.930 . S
H4393 C4400 0.930 . S
H4394 C4402 0.930 . S
H4395 C4396 1.016 . S
C4396 H4395 1.016 . S
C4396 N4403 1.286 . S
C4397 H4392 0.930 . S
C4397 C4398 1.397 . S
C4397 C4399 1.361 . S
C4398 C4397 1.397 . S
C4398 C4402 1.390 . S
C4399 C4397 1.361 . S
C4399 C4400 1.393 . S
C4399 N4403 1.413 . S
C4400 H4393 0.930 . S
C4400 C4399 1.393 . S
C4400 C4401 1.399 . S
C4401 C4400 1.399 . S
C4401 C4402 1.381 . S
C4402 H4394 0.930 . S
C4402 C4398 1.390 . S
C4402 C4401 1.381 . S
N4403 C4396 1.286 . S
N4403 C4399 1.413 . S
H4404 C4409 0.930 . S
H4405 C4412 0.930 . S
H4406 C4414 0.930 . S
H4407 C4408 1.016 . S
C4408 H4407 1.016 . S
C4408 N4415 1.286 . S
C4409 H4404 0.930 . S
C4409 C4410 1.397 . S
C4409 C4411 1.361 . S
C4410 C4409 1.397 . S
C4410 C4414 1.390 . S
C4411 C4409 1.361 . S
C4411 C4412 1.393 . S
C4411 N4415 1.413 . S
C4412 H4405 0.930 . S
C4412 C4411 1.393 . S
C4412 C4413 1.399 . S
C4413 C4412 1.399 . S
C4413 C4414 1.381 . S
C4414 H4406 0.930 . S
C4414 C4410 1.390 . S
C4414 C4413 1.381 . S
N4415 C4408 1.286 . S
N4415 C4411 1.413 . S
H4416 C4421 0.930 . S
H4417 C4424 0.930 . S
H4418 C4426 0.930 . S
H4419 C4420 1.016 . S
C4420 H4419 1.016 . S
C4420 N4427 1.286 . S
C4421 H4416 0.930 . S
C4421 C4422 1.397 . S
C4421 C4423 1.361 . S
C4422 C4421 1.397 . S
C4422 C4426 1.390 . S
C4423 C4421 1.361 . S
C4423 C4424 1.393 . S
C4423 N4427 1.413 . S
C4424 H4417 0.930 . S
C4424 C4423 1.393 . S
C4424 C4425 1.399 . S
C4425 C4424 1.399 . S
C4425 C4426 1.381 . S
C4426 H4418 0.930 . S
C4426 C4422 1.390 . S
C4426 C4425 1.381 . S
N4427 C4420 1.286 . S
N4427 C4423 1.413 . S
H4428 C4433 0.930 . S
H4429 C4436 0.930 . S
H4430 C4438 0.930 . S
H4431 C4432 1.016 . S
C4432 H4431 1.016 . S
C4432 N4439 1.286 . S
C4433 H4428 0.930 . S
C4433 C4434 1.397 . S
C4433 C4435 1.361 . S
C4434 C4433 1.397 . S
C4434 C4438 1.390 . S
C4435 C4433 1.361 . S
C4435 C4436 1.393 . S
C4435 N4439 1.413 . S
C4436 H4429 0.930 . S
C4436 C4435 1.393 . S
C4436 C4437 1.399 . S
C4437 C4436 1.399 . S
C4437 C4438 1.381 . S
C4438 H4430 0.930 . S
C4438 C4434 1.390 . S
C4438 C4437 1.381 . S
N4439 C4432 1.286 . S
N4439 C4435 1.413 . S
H4440 C4445 0.930 . S
H4441 C4448 0.930 . S
H4442 C4450 0.930 . S
H4443 C4444 1.016 . S
C4444 H4443 1.016 . S
C4444 N4451 1.286 . S
C4445 H4440 0.930 . S
C4445 C4446 1.397 . S
C4445 C4447 1.361 . S
C4446 C4445 1.397 . S
C4446 C4450 1.390 . S
C4447 C4445 1.361 . S
C4447 C4448 1.393 . S
C4447 N4451 1.413 . S
C4448 H4441 0.930 . S
C4448 C4447 1.393 . S
C4448 C4449 1.399 . S
C4449 C4448 1.399 . S
C4449 C4450 1.381 . S
C4450 H4442 0.930 . S
C4450 C4446 1.390 . S
C4450 C4449 1.381 . S
N4451 C4444 1.286 . S
N4451 C4447 1.413 . S
H4452 C4457 0.930 . S
H4453 C4460 0.930 . S
H4454 C4462 0.930 . S
H4455 C4456 1.016 . S
C4456 H4455 1.016 . S
C4456 N4463 1.286 . S
C4457 H4452 0.930 . S
C4457 C4458 1.397 . S
C4457 C4459 1.361 . S
C4458 C4457 1.397 . S
C4458 C4462 1.390 . S
C4459 C4457 1.361 . S
C4459 C4460 1.393 . S
C4459 N4463 1.413 . S
C4460 H4453 0.930 . S
C4460 C4459 1.393 . S
C4460 C4461 1.399 . S
C4461 C4460 1.399 . S
C4461 C4462 1.381 . S
C4462 H4454 0.930 . S
C4462 C4458 1.390 . S
C4462 C4461 1.381 . S
N4463 C4456 1.286 . S
N4463 C4459 1.413 . S
H4464 C4469 0.930 . S
H4465 C4472 0.930 . S
H4466 C4474 0.930 . S
H4467 C4468 1.016 . S
C4468 H4467 1.016 . S
C4468 N4475 1.286 . S
C4469 H4464 0.930 . S
C4469 C4470 1.397 . S
C4469 C4471 1.361 . S
C4470 C4469 1.397 . S
C4470 C4474 1.390 . S
C4471 C4469 1.361 . S
C4471 C4472 1.393 . S
C4471 N4475 1.413 . S
C4472 H4465 0.930 . S
C4472 C4471 1.393 . S
C4472 C4473 1.399 . S
C4473 C4472 1.399 . S
C4473 C4474 1.381 . S
C4474 H4466 0.930 . S
C4474 C4470 1.390 . S
C4474 C4473 1.381 . S
N4475 C4468 1.286 . S
N4475 C4471 1.413 . S
H4476 C4481 0.930 . S
H4477 C4484 0.930 . S
H4478 C4486 0.930 . S
H4479 C4480 1.016 . S
C4480 H4479 1.016 . S
C4480 N4487 1.286 . S
C4481 H4476 0.930 . S
C4481 C4482 1.397 . S
C4481 C4483 1.361 . S
C4482 C4481 1.397 . S
C4482 C4486 1.390 . S
C4483 C4481 1.361 . S
C4483 C4484 1.393 . S
C4483 N4487 1.413 . S
C4484 H4477 0.930 . S
C4484 C4483 1.393 . S
C4484 C4485 1.399 . S
C4485 C4484 1.399 . S
C4485 C4486 1.381 . S
C4486 H4478 0.930 . S
C4486 C4482 1.390 . S
C4486 C4485 1.381 . S
N4487 C4480 1.286 . S
N4487 C4483 1.413 . S
H4488 C4493 0.930 . S
H4489 C4496 0.930 . S
H4490 C4498 0.930 . S
H4491 C4492 1.016 . S
C4492 H4491 1.016 . S
C4492 N4499 1.286 . S
C4493 H4488 0.930 . S
C4493 C4494 1.397 . S
C4493 C4495 1.361 . S
C4494 C4493 1.397 . S
C4494 C4498 1.390 . S
C4495 C4493 1.361 . S
C4495 C4496 1.393 . S
C4495 N4499 1.413 . S
C4496 H4489 0.930 . S
C4496 C4495 1.393 . S
C4496 C4497 1.399 . S
C4497 C4496 1.399 . S
C4497 C4498 1.381 . S
C4498 H4490 0.930 . S
C4498 C4494 1.390 . S
C4498 C4497 1.381 . S
N4499 C4492 1.286 . S
N4499 C4495 1.413 . S
H4500 C4505 0.930 . S
H4501 C4508 0.930 . S
H4502 C4510 0.930 . S
H4503 C4504 1.016 . S
C4504 H4503 1.016 . S
C4504 N4511 1.286 . S
C4505 H4500 0.930 . S
C4505 C4506 1.397 . S
C4505 C4507 1.361 . S
C4506 C4505 1.397 . S
C4506 C4510 1.390 . S
C4507 C4505 1.361 . S
C4507 C4508 1.393 . S
C4507 N4511 1.413 . S
C4508 H4501 0.930 . S
C4508 C4507 1.393 . S
C4508 C4509 1.399 . S
C4509 C4508 1.399 . S
C4509 C4510 1.381 . S
C4510 H4502 0.930 . S
C4510 C4506 1.390 . S
C4510 C4509 1.381 . S
N4511 C4504 1.286 . S
N4511 C4507 1.413 . S
H4512 C4517 0.930 . S
H4513 C4520 0.930 . S
H4514 C4522 0.930 . S
H4515 C4516 1.016 . S
C4516 H4515 1.016 . S
C4516 N4523 1.286 . S
C4517 H4512 0.930 . S
C4517 C4518 1.397 . S
C4517 C4519 1.361 . S
C4518 C4517 1.397 . S
C4518 C4522 1.390 . S
C4519 C4517 1.361 . S
C4519 C4520 1.393 . S
C4519 N4523 1.413 . S
C4520 H4513 0.930 . S
C4520 C4519 1.393 . S
C4520 C4521 1.399 . S
C4521 C4520 1.399 . S
C4521 C4522 1.381 . S
C4522 H4514 0.930 . S
C4522 C4518 1.390 . S
C4522 C4521 1.381 . S
N4523 C4516 1.286 . S
N4523 C4519 1.413 . S
H4524 C4529 0.930 . S
H4525 C4532 0.930 . S
H4526 C4534 0.930 . S
H4527 C4528 1.016 . S
C4528 H4527 1.016 . S
C4528 N4535 1.286 . S
C4529 H4524 0.930 . S
C4529 C4530 1.397 . S
C4529 C4531 1.361 . S
C4530 C4529 1.397 . S
C4530 C4534 1.390 . S
C4531 C4529 1.361 . S
C4531 C4532 1.393 . S
C4531 N4535 1.413 . S
C4532 H4525 0.930 . S
C4532 C4531 1.393 . S
C4532 C4533 1.399 . S
C4533 C4532 1.399 . S
C4533 C4534 1.381 . S
C4534 H4526 0.930 . S
C4534 C4530 1.390 . S
C4534 C4533 1.381 . S
N4535 C4528 1.286 . S
N4535 C4531 1.413 . S
H4536 C4541 0.930 . S
H4537 C4544 0.930 . S
H4538 C4546 0.930 . S
H4539 C4540 1.016 . S
C4540 H4539 1.016 . S
C4540 N4547 1.286 . S
C4541 H4536 0.930 . S
C4541 C4542 1.397 . S
C4541 C4543 1.361 . S
C4542 C4541 1.397 . S
C4542 C4546 1.390 . S
C4543 C4541 1.361 . S
C4543 C4544 1.393 . S
C4543 N4547 1.413 . S
C4544 H4537 0.930 . S
C4544 C4543 1.393 . S
C4544 C4545 1.399 . S
C4545 C4544 1.399 . S
C4545 C4546 1.381 . S
C4546 H4538 0.930 . S
C4546 C4542 1.390 . S
C4546 C4545 1.381 . S
N4547 C4540 1.286 . S
N4547 C4543 1.413 . S
H4548 C4553 0.930 . S
H4549 C4556 0.930 . S
H4550 C4558 0.930 . S
H4551 C4552 1.016 . S
C4552 H4551 1.016 . S
C4552 N4559 1.286 . S
C4553 H4548 0.930 . S
C4553 C4554 1.397 . S
C4553 C4555 1.361 . S
C4554 C4553 1.397 . S
C4554 C4558 1.390 . S
C4555 C4553 1.361 . S
C4555 C4556 1.393 . S
C4555 N4559 1.413 . S
C4556 H4549 0.930 . S
C4556 C4555 1.393 . S
C4556 C4557 1.399 . S
C4557 C4556 1.399 . S
C4557 C4558 1.381 . S
C4558 H4550 0.930 . S
C4558 C4554 1.390 . S
C4558 C4557 1.381 . S
N4559 C4552 1.286 . S
N4559 C4555 1.413 . S
H4560 C4565 0.930 . S
H4561 C4568 0.930 . S
H4562 C4570 0.930 . S
H4563 C4564 1.016 . S
C4564 H4563 1.016 . S
C4564 N4571 1.286 . S
C4565 H4560 0.930 . S
C4565 C4566 1.397 . S
C4565 C4567 1.361 . S
C4566 C4565 1.397 . S
C4566 C4570 1.390 . S
C4567 C4565 1.361 . S
C4567 C4568 1.393 . S
C4567 N4571 1.413 . S
C4568 H4561 0.930 . S
C4568 C4567 1.393 . S
C4568 C4569 1.399 . S
C4569 C4568 1.399 . S
C4569 C4570 1.381 . S
C4570 H4562 0.930 . S
C4570 C4566 1.390 . S
C4570 C4569 1.381 . S
N4571 C4564 1.286 . S
N4571 C4567 1.413 . S
H4572 C4577 0.930 . S
H4573 C4580 0.930 . S
H4574 C4582 0.930 . S
H4575 C4576 1.016 . S
C4576 H4575 1.016 . S
C4576 N4583 1.286 . S
C4577 H4572 0.930 . S
C4577 C4578 1.397 . S
C4577 C4579 1.361 . S
C4578 C4577 1.397 . S
C4578 C4582 1.390 . S
C4579 C4577 1.361 . S
C4579 C4580 1.393 . S
C4579 N4583 1.413 . S
C4580 H4573 0.930 . S
C4580 C4579 1.393 . S
C4580 C4581 1.399 . S
C4581 C4580 1.399 . S
C4581 C4582 1.381 . S
C4582 H4574 0.930 . S
C4582 C4578 1.390 . S
C4582 C4581 1.381 . S
N4583 C4576 1.286 . S
N4583 C4579 1.413 . S
H4584 C4589 0.930 . S
H4585 C4592 0.930 . S
H4586 C4594 0.930 . S
H4587 C4588 1.016 . S
C4588 H4587 1.016 . S
C4588 N4595 1.286 . S
C4589 H4584 0.930 . S
C4589 C4590 1.397 . S
C4589 C4591 1.361 . S
C4590 C4589 1.397 . S
C4590 C4594 1.390 . S
C4591 C4589 1.361 . S
C4591 C4592 1.393 . S
C4591 N4595 1.413 . S
C4592 H4585 0.930 . S
C4592 C4591 1.393 . S
C4592 C4593 1.399 . S
C4593 C4592 1.399 . S
C4593 C4594 1.381 . S
C4594 H4586 0.930 . S
C4594 C4590 1.390 . S
C4594 C4593 1.381 . S
N4595 C4588 1.286 . S
N4595 C4591 1.413 . S
H4596 C4601 0.930 . S
H4597 C4604 0.930 . S
H4598 C4606 0.930 . S
H4599 C4600 1.016 . S
C4600 H4599 1.016 . S
C4600 N4607 1.286 . S
C4601 H4596 0.930 . S
C4601 C4602 1.397 . S
C4601 C4603 1.361 . S
C4602 C4601 1.397 . S
C4602 C4606 1.390 . S
C4603 C4601 1.361 . S
C4603 C4604 1.393 . S
C4603 N4607 1.413 . S
C4604 H4597 0.930 . S
C4604 C4603 1.393 . S
C4604 C4605 1.399 . S
C4605 C4604 1.399 . S
C4605 C4606 1.381 . S
C4606 H4598 0.930 . S
C4606 C4602 1.390 . S
C4606 C4605 1.381 . S
N4607 C4600 1.286 . S
N4607 C4603 1.413 . S
H4608 C4613 0.930 . S
H4609 C4616 0.930 . S
H4610 C4618 0.930 . S
H4611 C4612 1.016 . S
C4612 H4611 1.016 . S
C4612 N4619 1.286 . S
C4613 H4608 0.930 . S
C4613 C4614 1.397 . S
C4613 C4615 1.361 . S
C4614 C4613 1.397 . S
C4614 C4618 1.390 . S
C4615 C4613 1.361 . S
C4615 C4616 1.393 . S
C4615 N4619 1.413 . S
C4616 H4609 0.930 . S
C4616 C4615 1.393 . S
C4616 C4617 1.399 . S
C4617 C4616 1.399 . S
C4617 C4618 1.381 . S
C4618 H4610 0.930 . S
C4618 C4614 1.390 . S
C4618 C4617 1.381 . S
N4619 C4612 1.286 . S
N4619 C4615 1.413 . S
H4620 C4625 0.930 . S
H4621 C4628 0.930 . S
H4622 C4630 0.930 . S
H4623 C4624 1.016 . S
C4624 H4623 1.016 . S
C4624 N4631 1.286 . S
C4625 H4620 0.930 . S
C4625 C4626 1.397 . S
C4625 C4627 1.361 . S
C4626 C4625 1.397 . S
C4626 C4630 1.390 . S
C4627 C4625 1.361 . S
C4627 C4628 1.393 . S
C4627 N4631 1.413 . S
C4628 H4621 0.930 . S
C4628 C4627 1.393 . S
C4628 C4629 1.399 . S
C4629 C4628 1.399 . S
C4629 C4630 1.381 . S
C4630 H4622 0.930 . S
C4630 C4626 1.390 . S
C4630 C4629 1.381 . S
N4631 C4624 1.286 . S
N4631 C4627 1.413 . S
H4632 C4637 0.930 . S
H4633 C4640 0.930 . S
H4634 C4642 0.930 . S
H4635 C4636 1.016 . S
C4636 H4635 1.016 . S
C4636 N4643 1.286 . S
C4637 H4632 0.930 . S
C4637 C4638 1.397 . S
C4637 C4639 1.361 . S
C4638 C4637 1.397 . S
C4638 C4642 1.390 . S
C4639 C4637 1.361 . S
C4639 C4640 1.393 . S
C4639 N4643 1.413 . S
C4640 H4633 0.930 . S
C4640 C4639 1.393 . S
C4640 C4641 1.399 . S
C4641 C4640 1.399 . S
C4641 C4642 1.381 . S
C4642 H4634 0.930 . S
C4642 C4638 1.390 . S
C4642 C4641 1.381 . S
N4643 C4636 1.286 . S
N4643 C4639 1.413 . S
H4644 C4649 0.930 . S
H4645 C4652 0.930 . S
H4646 C4654 0.930 . S
H4647 C4648 1.016 . S
C4648 H4647 1.016 . S
C4648 N4655 1.286 . S
C4649 H4644 0.930 . S
C4649 C4650 1.397 . S
C4649 C4651 1.361 . S
C4650 C4649 1.397 . S
C4650 C4654 1.390 . S
C4651 C4649 1.361 . S
C4651 C4652 1.393 . S
C4651 N4655 1.413 . S
C4652 H4645 0.930 . S
C4652 C4651 1.393 . S
C4652 C4653 1.399 . S
C4653 C4652 1.399 . S
C4653 C4654 1.381 . S
C4654 H4646 0.930 . S
C4654 C4650 1.390 . S
C4654 C4653 1.381 . S
N4655 C4648 1.286 . S
N4655 C4651 1.413 . S
H4656 C4661 0.930 . S
H4657 C4664 0.930 . S
H4658 C4666 0.930 . S
H4659 C4660 1.016 . S
C4660 H4659 1.016 . S
C4660 N4667 1.286 . S
C4661 H4656 0.930 . S
C4661 C4662 1.397 . S
C4661 C4663 1.361 . S
C4662 C4661 1.397 . S
C4662 C4666 1.390 . S
C4663 C4661 1.361 . S
C4663 C4664 1.393 . S
C4663 N4667 1.413 . S
C4664 H4657 0.930 . S
C4664 C4663 1.393 . S
C4664 C4665 1.399 . S
C4665 C4664 1.399 . S
C4665 C4666 1.381 . S
C4666 H4658 0.930 . S
C4666 C4662 1.390 . S
C4666 C4665 1.381 . S
N4667 C4660 1.286 . S
N4667 C4663 1.413 . S
H4668 C4673 0.930 . S
H4669 C4676 0.930 . S
H4670 C4678 0.930 . S
H4671 C4672 1.016 . S
C4672 H4671 1.016 . S
C4672 N4679 1.286 . S
C4673 H4668 0.930 . S
C4673 C4674 1.397 . S
C4673 C4675 1.361 . S
C4674 C4673 1.397 . S
C4674 C4678 1.390 . S
C4675 C4673 1.361 . S
C4675 C4676 1.393 . S
C4675 N4679 1.413 . S
C4676 H4669 0.930 . S
C4676 C4675 1.393 . S
C4676 C4677 1.399 . S
C4677 C4676 1.399 . S
C4677 C4678 1.381 . S
C4678 H4670 0.930 . S
C4678 C4674 1.390 . S
C4678 C4677 1.381 . S
N4679 C4672 1.286 . S
N4679 C4675 1.413 . S
H4680 C4685 0.930 . S
H4681 C4688 0.930 . S
H4682 C4690 0.930 . S
H4683 C4684 1.016 . S
C4684 H4683 1.016 . S
C4684 N4691 1.286 . S
C4685 H4680 0.930 . S
C4685 C4686 1.397 . S
C4685 C4687 1.361 . S
C4686 C4685 1.397 . S
C4686 C4690 1.390 . S
C4687 C4685 1.361 . S
C4687 C4688 1.393 . S
C4687 N4691 1.413 . S
C4688 H4681 0.930 . S
C4688 C4687 1.393 . S
C4688 C4689 1.399 . S
C4689 C4688 1.399 . S
C4689 C4690 1.381 . S
C4690 H4682 0.930 . S
C4690 C4686 1.390 . S
C4690 C4689 1.381 . S
N4691 C4684 1.286 . S
N4691 C4687 1.413 . S
H4692 C4697 0.930 . S
H4693 C4700 0.930 . S
H4694 C4702 0.930 . S
H4695 C4696 1.016 . S
C4696 H4695 1.016 . S
C4696 N4703 1.286 . S
C4697 H4692 0.930 . S
C4697 C4698 1.397 . S
C4697 C4699 1.361 . S
C4698 C4697 1.397 . S
C4698 C4702 1.390 . S
C4699 C4697 1.361 . S
C4699 C4700 1.393 . S
C4699 N4703 1.413 . S
C4700 H4693 0.930 . S
C4700 C4699 1.393 . S
C4700 C4701 1.399 . S
C4701 C4700 1.399 . S
C4701 C4702 1.381 . S
C4702 H4694 0.930 . S
C4702 C4698 1.390 . S
C4702 C4701 1.381 . S
N4703 C4696 1.286 . S
N4703 C4699 1.413 . S
H4704 C4709 0.930 . S
H4705 C4712 0.930 . S
H4706 C4714 0.930 . S
H4707 C4708 1.016 . S
C4708 H4707 1.016 . S
C4708 N4715 1.286 . S
C4709 H4704 0.930 . S
C4709 C4710 1.397 . S
C4709 C4711 1.361 . S
C4710 C4709 1.397 . S
C4710 C4714 1.390 . S
C4711 C4709 1.361 . S
C4711 C4712 1.393 . S
C4711 N4715 1.413 . S
C4712 H4705 0.930 . S
C4712 C4711 1.393 . S
C4712 C4713 1.399 . S
C4713 C4712 1.399 . S
C4713 C4714 1.381 . S
C4714 H4706 0.930 . S
C4714 C4710 1.390 . S
C4714 C4713 1.381 . S
N4715 C4708 1.286 . S
N4715 C4711 1.413 . S
H4716 C4721 0.930 . S
H4717 C4724 0.930 . S
H4718 C4726 0.930 . S
H4719 C4720 1.016 . S
C4720 H4719 1.016 . S
C4720 N4727 1.286 . S
C4721 H4716 0.930 . S
C4721 C4722 1.397 . S
C4721 C4723 1.361 . S
C4722 C4721 1.397 . S
C4722 C4726 1.390 . S
C4723 C4721 1.361 . S
C4723 C4724 1.393 . S
C4723 N4727 1.413 . S
C4724 H4717 0.930 . S
C4724 C4723 1.393 . S
C4724 C4725 1.399 . S
C4725 C4724 1.399 . S
C4725 C4726 1.381 . S
C4726 H4718 0.930 . S
C4726 C4722 1.390 . S
C4726 C4725 1.381 . S
N4727 C4720 1.286 . S
N4727 C4723 1.413 . S
H4728 C4733 0.930 . S
H4729 C4736 0.930 . S
H4730 C4738 0.930 . S
H4731 C4732 1.016 . S
C4732 H4731 1.016 . S
C4732 N4739 1.286 . S
C4733 H4728 0.930 . S
C4733 C4734 1.397 . S
C4733 C4735 1.361 . S
C4734 C4733 1.397 . S
C4734 C4738 1.390 . S
C4735 C4733 1.361 . S
C4735 C4736 1.393 . S
C4735 N4739 1.413 . S
C4736 H4729 0.930 . S
C4736 C4735 1.393 . S
C4736 C4737 1.399 . S
C4737 C4736 1.399 . S
C4737 C4738 1.381 . S
C4738 H4730 0.930 . S
C4738 C4734 1.390 . S
C4738 C4737 1.381 . S
N4739 C4732 1.286 . S
N4739 C4735 1.413 . S
H4740 C4745 0.930 . S
H4741 C4748 0.930 . S
H4742 C4750 0.930 . S
H4743 C4744 1.016 . S
C4744 H4743 1.016 . S
C4744 N4751 1.286 . S
C4745 H4740 0.930 . S
C4745 C4746 1.397 . S
C4745 C4747 1.361 . S
C4746 C4745 1.397 . S
C4746 C4750 1.390 . S
C4747 C4745 1.361 . S
C4747 C4748 1.393 . S
C4747 N4751 1.413 . S
C4748 H4741 0.930 . S
C4748 C4747 1.393 . S
C4748 C4749 1.399 . S
C4749 C4748 1.399 . S
C4749 C4750 1.381 . S
C4750 H4742 0.930 . S
C4750 C4746 1.390 . S
C4750 C4749 1.381 . S
N4751 C4744 1.286 . S
N4751 C4747 1.413 . S
H4752 C4757 0.930 . S
H4753 C4760 0.930 . S
H4754 C4762 0.930 . S
H4755 C4756 1.016 . S
C4756 H4755 1.016 . S
C4756 N4763 1.286 . S
C4757 H4752 0.930 . S
C4757 C4758 1.397 . S
C4757 C4759 1.361 . S
C4758 C4757 1.397 . S
C4758 C4762 1.390 . S
C4759 C4757 1.361 . S
C4759 C4760 1.393 . S
C4759 N4763 1.413 . S
C4760 H4753 0.930 . S
C4760 C4759 1.393 . S
C4760 C4761 1.399 . S
C4761 C4760 1.399 . S
C4761 C4762 1.381 . S
C4762 H4754 0.930 . S
C4762 C4758 1.390 . S
C4762 C4761 1.381 . S
N4763 C4756 1.286 . S
N4763 C4759 1.413 . S
H4764 C4769 0.930 . S
H4765 C4772 0.930 . S
H4766 C4774 0.930 . S
H4767 C4768 1.016 . S
C4768 H4767 1.016 . S
C4768 N4775 1.286 . S
C4769 H4764 0.930 . S
C4769 C4770 1.397 . S
C4769 C4771 1.361 . S
C4770 C4769 1.397 . S
C4770 C4774 1.390 . S
C4771 C4769 1.361 . S
C4771 C4772 1.393 . S
C4771 N4775 1.413 . S
C4772 H4765 0.930 . S
C4772 C4771 1.393 . S
C4772 C4773 1.399 . S
C4773 C4772 1.399 . S
C4773 C4774 1.381 . S
C4774 H4766 0.930 . S
C4774 C4770 1.390 . S
C4774 C4773 1.381 . S
N4775 C4768 1.286 . S
N4775 C4771 1.413 . S
H4776 C4781 0.930 . S
H4777 C4784 0.930 . S
H4778 C4786 0.930 . S
H4779 C4780 1.016 . S
C4780 H4779 1.016 . S
C4780 N4787 1.286 . S
C4781 H4776 0.930 . S
C4781 C4782 1.397 . S
C4781 C4783 1.361 . S
C4782 C4781 1.397 . S
C4782 C4786 1.390 . S
C4783 C4781 1.361 . S
C4783 C4784 1.393 . S
C4783 N4787 1.413 . S
C4784 H4777 0.930 . S
C4784 C4783 1.393 . S
C4784 C4785 1.399 . S
C4785 C4784 1.399 . S
C4785 C4786 1.381 . S
C4786 H4778 0.930 . S
C4786 C4782 1.390 . S
C4786 C4785 1.381 . S
N4787 C4780 1.286 . S
N4787 C4783 1.413 . S
H4788 C4793 0.930 . S
H4789 C4796 0.930 . S
H4790 C4798 0.930 . S
H4791 C4792 1.016 . S
C4792 H4791 1.016 . S
C4792 N4799 1.286 . S
C4793 H4788 0.930 . S
C4793 C4794 1.397 . S
C4793 C4795 1.361 . S
C4794 C4793 1.397 . S
C4794 C4798 1.390 . S
C4795 C4793 1.361 . S
C4795 C4796 1.393 . S
C4795 N4799 1.413 . S
C4796 H4789 0.930 . S
C4796 C4795 1.393 . S
C4796 C4797 1.399 . S
C4797 C4796 1.399 . S
C4797 C4798 1.381 . S
C4798 H4790 0.930 . S
C4798 C4794 1.390 . S
C4798 C4797 1.381 . S
N4799 C4792 1.286 . S
N4799 C4795 1.413 . S
H4800 C4805 0.930 . S
H4801 C4808 0.930 . S
H4802 C4810 0.930 . S
H4803 C4804 1.016 . S
C4804 H4803 1.016 . S
C4804 N4811 1.286 . S
C4805 H4800 0.930 . S
C4805 C4806 1.397 . S
C4805 C4807 1.361 . S
C4806 C4805 1.397 . S
C4806 C4810 1.390 . S
C4807 C4805 1.361 . S
C4807 C4808 1.393 . S
C4807 N4811 1.413 . S
C4808 H4801 0.930 . S
C4808 C4807 1.393 . S
C4808 C4809 1.399 . S
C4809 C4808 1.399 . S
C4809 C4810 1.381 . S
C4810 H4802 0.930 . S
C4810 C4806 1.390 . S
C4810 C4809 1.381 . S
N4811 C4804 1.286 . S
N4811 C4807 1.413 . S
H4812 C4817 0.930 . S
H4813 C4820 0.930 . S
H4814 C4822 0.930 . S
H4815 C4816 1.016 . S
C4816 H4815 1.016 . S
C4816 N4823 1.286 . S
C4817 H4812 0.930 . S
C4817 C4818 1.397 . S
C4817 C4819 1.361 . S
C4818 C4817 1.397 . S
C4818 C4822 1.390 . S
C4819 C4817 1.361 . S
C4819 C4820 1.393 . S
C4819 N4823 1.413 . S
C4820 H4813 0.930 . S
C4820 C4819 1.393 . S
C4820 C4821 1.399 . S
C4821 C4820 1.399 . S
C4821 C4822 1.381 . S
C4822 H4814 0.930 . S
C4822 C4818 1.390 . S
C4822 C4821 1.381 . S
N4823 C4816 1.286 . S
N4823 C4819 1.413 . S
H4824 C4829 0.930 . S
H4825 C4832 0.930 . S
H4826 C4834 0.930 . S
H4827 C4828 1.016 . S
C4828 H4827 1.016 . S
C4828 N4835 1.286 . S
C4829 H4824 0.930 . S
C4829 C4830 1.397 . S
C4829 C4831 1.361 . S
C4830 C4829 1.397 . S
C4830 C4834 1.390 . S
C4831 C4829 1.361 . S
C4831 C4832 1.393 . S
C4831 N4835 1.413 . S
C4832 H4825 0.930 . S
C4832 C4831 1.393 . S
C4832 C4833 1.399 . S
C4833 C4832 1.399 . S
C4833 C4834 1.381 . S
C4834 H4826 0.930 . S
C4834 C4830 1.390 . S
C4834 C4833 1.381 . S
N4835 C4828 1.286 . S
N4835 C4831 1.413 . S
H4836 C4841 0.930 . S
H4837 C4844 0.930 . S
H4838 C4846 0.930 . S
H4839 C4840 1.016 . S
C4840 H4839 1.016 . S
C4840 N4847 1.286 . S
C4841 H4836 0.930 . S
C4841 C4842 1.397 . S
C4841 C4843 1.361 . S
C4842 C4841 1.397 . S
C4842 C4846 1.390 . S
C4843 C4841 1.361 . S
C4843 C4844 1.393 . S
C4843 N4847 1.413 . S
C4844 H4837 0.930 . S
C4844 C4843 1.393 . S
C4844 C4845 1.399 . S
C4845 C4844 1.399 . S
C4845 C4846 1.381 . S
C4846 H4838 0.930 . S
C4846 C4842 1.390 . S
C4846 C4845 1.381 . S
N4847 C4840 1.286 . S
N4847 C4843 1.413 . S
H4848 C4853 0.930 . S
H4849 C4856 0.930 . S
H4850 C4858 0.930 . S
H4851 C4852 1.016 . S
C4852 H4851 1.016 . S
C4852 N4859 1.286 . S
C4853 H4848 0.930 . S
C4853 C4854 1.397 . S
C4853 C4855 1.361 . S
C4854 C4853 1.397 . S
C4854 C4858 1.390 . S
C4855 C4853 1.361 . S
C4855 C4856 1.393 . S
C4855 N4859 1.413 . S
C4856 H4849 0.930 . S
C4856 C4855 1.393 . S
C4856 C4857 1.399 . S
C4857 C4856 1.399 . S
C4857 C4858 1.381 . S
C4858 H4850 0.930 . S
C4858 C4854 1.390 . S
C4858 C4857 1.381 . S
N4859 C4852 1.286 . S
N4859 C4855 1.413 . S
H4860 C4865 0.930 . S
H4861 C4868 0.930 . S
H4862 C4870 0.930 . S
H4863 C4864 1.016 . S
C4864 H4863 1.016 . S
C4864 N4871 1.286 . S
C4865 H4860 0.930 . S
C4865 C4866 1.397 . S
C4865 C4867 1.361 . S
C4866 C4865 1.397 . S
C4866 C4870 1.390 . S
C4867 C4865 1.361 . S
C4867 C4868 1.393 . S
C4867 N4871 1.413 . S
C4868 H4861 0.930 . S
C4868 C4867 1.393 . S
C4868 C4869 1.399 . S
C4869 C4868 1.399 . S
C4869 C4870 1.381 . S
C4870 H4862 0.930 . S
C4870 C4866 1.390 . S
C4870 C4869 1.381 . S
N4871 C4864 1.286 . S
N4871 C4867 1.413 . S
H4872 C4877 0.930 . S
H4873 C4880 0.930 . S
H4874 C4882 0.930 . S
H4875 C4876 1.016 . S
C4876 H4875 1.016 . S
C4876 N4883 1.286 . S
C4877 H4872 0.930 . S
C4877 C4878 1.397 . S
C4877 C4879 1.361 . S
C4878 C4877 1.397 . S
C4878 C4882 1.390 . S
C4879 C4877 1.361 . S
C4879 C4880 1.393 . S
C4879 N4883 1.413 . S
C4880 H4873 0.930 . S
C4880 C4879 1.393 . S
C4880 C4881 1.399 . S
C4881 C4880 1.399 . S
C4881 C4882 1.381 . S
C4882 H4874 0.930 . S
C4882 C4878 1.390 . S
C4882 C4881 1.381 . S
N4883 C4876 1.286 . S
N4883 C4879 1.413 . S
H4884 C4889 0.930 . S
H4885 C4892 0.930 . S
H4886 C4894 0.930 . S
H4887 C4888 1.016 . S
C4888 H4887 1.016 . S
C4888 N4895 1.286 . S
C4889 H4884 0.930 . S
C4889 C4890 1.397 . S
C4889 C4891 1.361 . S
C4890 C4889 1.397 . S
C4890 C4894 1.390 . S
C4891 C4889 1.361 . S
C4891 C4892 1.393 . S
C4891 N4895 1.413 . S
C4892 H4885 0.930 . S
C4892 C4891 1.393 . S
C4892 C4893 1.399 . S
C4893 C4892 1.399 . S
C4893 C4894 1.381 . S
C4894 H4886 0.930 . S
C4894 C4890 1.390 . S
C4894 C4893 1.381 . S
N4895 C4888 1.286 . S
N4895 C4891 1.413 . S
H4896 C4901 0.930 . S
H4897 C4904 0.930 . S
H4898 C4906 0.930 . S
H4899 C4900 1.016 . S
C4900 H4899 1.016 . S
C4900 N4907 1.286 . S
C4901 H4896 0.930 . S
C4901 C4902 1.397 . S
C4901 C4903 1.361 . S
C4902 C4901 1.397 . S
C4902 C4906 1.390 . S
C4903 C4901 1.361 . S
C4903 C4904 1.393 . S
C4903 N4907 1.413 . S
C4904 H4897 0.930 . S
C4904 C4903 1.393 . S
C4904 C4905 1.399 . S
C4905 C4904 1.399 . S
C4905 C4906 1.381 . S
C4906 H4898 0.930 . S
C4906 C4902 1.390 . S
C4906 C4905 1.381 . S
N4907 C4900 1.286 . S
N4907 C4903 1.413 . S
H4908 C4913 0.930 . S
H4909 C4916 0.930 . S
H4910 C4918 0.930 . S
H4911 C4912 1.016 . S
C4912 H4911 1.016 . S
C4912 N4919 1.286 . S
C4913 H4908 0.930 . S
C4913 C4914 1.397 . S
C4913 C4915 1.361 . S
C4914 C4913 1.397 . S
C4914 C4918 1.390 . S
C4915 C4913 1.361 . S
C4915 C4916 1.393 . S
C4915 N4919 1.413 . S
C4916 H4909 0.930 . S
C4916 C4915 1.393 . S
C4916 C4917 1.399 . S
C4917 C4916 1.399 . S
C4917 C4918 1.381 . S
C4918 H4910 0.930 . S
C4918 C4914 1.390 . S
C4918 C4917 1.381 . S
N4919 C4912 1.286 . S
N4919 C4915 1.413 . S
H4920 C4925 0.930 . S
H4921 C4928 0.930 . S
H4922 C4930 0.930 . S
H4923 C4924 1.016 . S
C4924 H4923 1.016 . S
C4924 N4931 1.286 . S
C4925 H4920 0.930 . S
C4925 C4926 1.397 . S
C4925 C4927 1.361 . S
C4926 C4925 1.397 . S
C4926 C4930 1.390 . S
C4927 C4925 1.361 . S
C4927 C4928 1.393 . S
C4927 N4931 1.413 . S
C4928 H4921 0.930 . S
C4928 C4927 1.393 . S
C4928 C4929 1.399 . S
C4929 C4928 1.399 . S
C4929 C4930 1.381 . S
C4930 H4922 0.930 . S
C4930 C4926 1.390 . S
C4930 C4929 1.381 . S
N4931 C4924 1.286 . S
N4931 C4927 1.413 . S
H4932 C4937 0.930 . S
H4933 C4940 0.930 . S
H4934 C4942 0.930 . S
H4935 C4936 1.016 . S
C4936 H4935 1.016 . S
C4936 N4943 1.286 . S
C4937 H4932 0.930 . S
C4937 C4938 1.397 . S
C4937 C4939 1.361 . S
C4938 C4937 1.397 . S
C4938 C4942 1.390 . S
C4939 C4937 1.361 . S
C4939 C4940 1.393 . S
C4939 N4943 1.413 . S
C4940 H4933 0.930 . S
C4940 C4939 1.393 . S
C4940 C4941 1.399 . S
C4941 C4940 1.399 . S
C4941 C4942 1.381 . S
C4942 H4934 0.930 . S
C4942 C4938 1.390 . S
C4942 C4941 1.381 . S
N4943 C4936 1.286 . S
N4943 C4939 1.413 . S
H4944 C4949 0.930 . S
H4945 C4952 0.930 . S
H4946 C4954 0.930 . S
H4947 C4948 1.016 . S
C4948 H4947 1.016 . S
C4948 N4955 1.286 . S
C4949 H4944 0.930 . S
C4949 C4950 1.397 . S
C4949 C4951 1.361 . S
C4950 C4949 1.397 . S
C4950 C4954 1.390 . S
C4951 C4949 1.361 . S
C4951 C4952 1.393 . S
C4951 N4955 1.413 . S
C4952 H4945 0.930 . S
C4952 C4951 1.393 . S
C4952 C4953 1.399 . S
C4953 C4952 1.399 . S
C4953 C4954 1.381 . S
C4954 H4946 0.930 . S
C4954 C4950 1.390 . S
C4954 C4953 1.381 . S
N4955 C4948 1.286 . S
N4955 C4951 1.413 . S
H4956 C4961 0.930 . S
H4957 C4964 0.930 . S
H4958 C4966 0.930 . S
H4959 C4960 1.016 . S
C4960 H4959 1.016 . S
C4960 N4967 1.286 . S
C4961 H4956 0.930 . S
C4961 C4962 1.397 . S
C4961 C4963 1.361 . S
C4962 C4961 1.397 . S
C4962 C4966 1.390 . S
C4963 C4961 1.361 . S
C4963 C4964 1.393 . S
C4963 N4967 1.413 . S
C4964 H4957 0.930 . S
C4964 C4963 1.393 . S
C4964 C4965 1.399 . S
C4965 C4964 1.399 . S
C4965 C4966 1.381 . S
C4966 H4958 0.930 . S
C4966 C4962 1.390 . S
C4966 C4965 1.381 . S
N4967 C4960 1.286 . S
N4967 C4963 1.413 . S
H4968 C4973 0.930 . S
H4969 C4976 0.930 . S
H4970 C4978 0.930 . S
H4971 C4972 1.016 . S
C4972 H4971 1.016 . S
C4972 N4979 1.286 . S
C4973 H4968 0.930 . S
C4973 C4974 1.397 . S
C4973 C4975 1.361 . S
C4974 C4973 1.397 . S
C4974 C4978 1.390 . S
C4975 C4973 1.361 . S
C4975 C4976 1.393 . S
C4975 N4979 1.413 . S
C4976 H4969 0.930 . S
C4976 C4975 1.393 . S
C4976 C4977 1.399 . S
C4977 C4976 1.399 . S
C4977 C4978 1.381 . S
C4978 H4970 0.930 . S
C4978 C4974 1.390 . S
C4978 C4977 1.381 . S
N4979 C4972 1.286 . S
N4979 C4975 1.413 . S
H4980 C4985 0.930 . S
H4981 C4988 0.930 . S
H4982 C4990 0.930 . S
H4983 C4984 1.016 . S
C4984 H4983 1.016 . S
C4984 N4991 1.286 . S
C4985 H4980 0.930 . S
C4985 C4986 1.397 . S
C4985 C4987 1.361 . S
C4986 C4985 1.397 . S
C4986 C4990 1.390 . S
C4987 C4985 1.361 . S
C4987 C4988 1.393 . S
C4987 N4991 1.413 . S
C4988 H4981 0.930 . S
C4988 C4987 1.393 . S
C4988 C4989 1.399 . S
C4989 C4988 1.399 . S
C4989 C4990 1.381 . S
C4990 H4982 0.930 . S
C4990 C4986 1.390 . S
C4990 C4989 1.381 . S
N4991 C4984 1.286 . S
N4991 C4987 1.413 . S
C4992 C4993 1.387 . S
C4992 H4996 0.950 . S
C4992 C5001 1.390 1_455 S
C4993 C4992 1.387 . S
C4993 C4995 1.387 . S
H4994 C5001 0.950 . S
C4995 C4993 1.387 . S
C4995 C4997 1.390 1_455 S
C4995 H4999 0.950 . S
H4996 C4992 0.950 . S
C4997 C4995 1.390 1_655 S
C4997 C4998 1.387 . S
C4997 H5000 0.950 . S
C4998 C4997 1.387 . S
C4998 C5001 1.387 . S
H4999 C4995 0.950 . S
H5000 C4997 0.950 . S
C5001 C4992 1.390 1_655 S
C5001 H4994 0.950 . S
C5001 C4998 1.387 . S
C5002 C5003 1.387 . S
C5002 H5006 0.950 . S
C5002 C5011 1.390 . S
C5003 C5002 1.387 . S
C5003 C5005 1.387 . S
H5004 C5011 0.950 . S
C5005 C5003 1.387 . S
C5005 C5007 1.390 . S
C5005 H5009 0.950 . S
H5006 C5002 0.950 . S
C5007 C5005 1.390 . S
C5007 C5008 1.387 . S
C5007 H5010 0.950 . S
C5008 C5007 1.387 . S
C5008 C5011 1.387 . S
H5009 C5005 0.950 . S
H5010 C5007 0.950 . S
C5011 C5002 1.390 . S
C5011 H5004 0.950 . S
C5011 C5008 1.387 . S
C5012 C5013 1.387 . S
C5012 H5016 0.950 . S
C5012 C5021 1.390 . S
C5013 C5012 1.387 . S
C5013 C5015 1.387 . S
H5014 C5021 0.950 . S
C5015 C5013 1.387 . S
C5015 C5017 1.390 . S
C5015 H5019 0.950 . S
H5016 C5012 0.950 . S
C5017 C5015 1.390 . S
C5017 C5018 1.387 . S
C5017 H5020 0.950 . S
C5018 C5017 1.387 . S
C5018 C5021 1.387 . S
H5019 C5015 0.950 . S
H5020 C5017 0.950 . S
C5021 C5012 1.390 . S
C5021 H5014 0.950 . S
C5021 C5018 1.387 . S
C5022 C5023 1.387 . S
C5022 H5026 0.950 . S
C5022 C5031 1.390 . S
C5023 C5022 1.387 . S
C5023 C5025 1.387 . S
H5024 C5031 0.950 . S
C5025 C5023 1.387 . S
C5025 C5027 1.390 . S
C5025 H5029 0.950 . S
H5026 C5022 0.950 . S
C5027 C5025 1.390 . S
C5027 C5028 1.387 . S
C5027 H5030 0.950 . S
C5028 C5027 1.387 . S
C5028 C5031 1.387 . S
H5029 C5025 0.950 . S
H5030 C5027 0.950 . S
C5031 C5022 1.390 . S
C5031 H5024 0.950 . S
C5031 C5028 1.387 . S
C5032 C5033 1.387 . S
C5032 H5036 0.950 . S
C5032 C5041 1.390 1_455 S
C5033 C5032 1.387 . S
C5033 C5035 1.387 . S
H5034 C5041 0.950 . S
C5035 C5033 1.387 . S
C5035 C5037 1.390 1_455 S
C5035 H5039 0.950 . S
H5036 C5032 0.950 . S
C5037 C5035 1.390 1_655 S
C5037 C5038 1.387 . S
C5037 H5040 0.950 . S
C5038 C5037 1.387 . S
C5038 C5041 1.387 . S
H5039 C5035 0.950 . S
H5040 C5037 0.950 . S
C5041 C5032 1.390 1_655 S
C5041 H5034 0.950 . S
C5041 C5038 1.387 . S
C5042 C5043 1.387 . S
C5042 H5046 0.950 . S
C5042 C5051 1.390 . S
C5043 C5042 1.387 . S
C5043 C5045 1.387 . S
H5044 C5051 0.950 . S
C5045 C5043 1.387 . S
C5045 C5047 1.390 . S
C5045 H5049 0.950 . S
H5046 C5042 0.950 . S
C5047 C5045 1.390 . S
C5047 C5048 1.387 . S
C5047 H5050 0.950 . S
C5048 C5047 1.387 . S
C5048 C5051 1.387 . S
H5049 C5045 0.950 . S
H5050 C5047 0.950 . S
C5051 C5042 1.390 . S
C5051 H5044 0.950 . S
C5051 C5048 1.387 . S
C5052 C5053 1.387 . S
C5052 H5056 0.950 . S
C5052 C5061 1.390 . S
C5053 C5052 1.387 . S
C5053 C5055 1.387 . S
H5054 C5061 0.950 . S
C5055 C5053 1.387 . S
C5055 C5057 1.390 . S
C5055 H5059 0.950 . S
H5056 C5052 0.950 . S
C5057 C5055 1.390 . S
C5057 C5058 1.387 . S
C5057 H5060 0.950 . S
C5058 C5057 1.387 . S
C5058 C5061 1.387 . S
H5059 C5055 0.950 . S
H5060 C5057 0.950 . S
C5061 C5052 1.390 . S
C5061 H5054 0.950 . S
C5061 C5058 1.387 . S
C5062 C5063 1.387 . S
C5062 H5066 0.950 . S
C5062 C5071 1.390 . S
C5063 C5062 1.387 . S
C5063 C5065 1.387 . S
H5064 C5071 0.950 . S
C5065 C5063 1.387 . S
C5065 C5067 1.390 . S
C5065 H5069 0.950 . S
H5066 C5062 0.950 . S
C5067 C5065 1.390 . S
C5067 C5068 1.387 . S
C5067 H5070 0.950 . S
C5068 C5067 1.387 . S
C5068 C5071 1.387 . S
H5069 C5065 0.950 . S
H5070 C5067 0.950 . S
C5071 C5062 1.390 . S
C5071 H5064 0.950 . S
C5071 C5068 1.387 . S
C5072 C5073 1.387 . S
C5072 H5076 0.950 . S
C5072 C5081 1.390 1_545 S
C5073 C5072 1.387 . S
C5073 C5075 1.387 . S
H5074 C5081 0.950 . S
C5075 C5073 1.387 . S
C5075 C5077 1.456 . S
C5075 H5079 0.950 . S
H5076 C5072 0.950 . S
C5077 C5075 1.456 . S
C5077 C5078 1.326 1_545 S
C5077 H5080 0.949 . S
C5078 C5077 1.326 1_565 S
C5078 C5081 1.387 . S
H5079 C5075 0.950 . S
H5080 C5077 0.949 . S
C5081 C5072 1.390 1_565 S
C5081 H5074 0.950 . S
C5081 C5078 1.387 . S
C5082 C5083 1.387 . S
C5082 H5086 0.950 . S
C5082 C5091 1.390 . S
C5083 C5082 1.387 . S
C5083 C5085 1.387 . S
H5084 C5091 0.950 . S
C5085 C5083 1.387 . S
C5085 C5087 1.390 . S
C5085 H5089 0.950 . S
H5086 C5082 0.950 . S
C5087 C5085 1.390 . S
C5087 C5088 1.387 . S
C5087 H5090 0.950 . S
C5088 C5087 1.387 . S
C5088 C5091 1.387 . S
H5089 C5085 0.950 . S
H5090 C5087 0.950 . S
C5091 C5082 1.390 . S
C5091 H5084 0.950 . S
C5091 C5088 1.387 . S
C5092 C5093 1.387 . S
C5092 H5096 0.950 . S
C5092 C5101 1.390 1_565 S
C5093 C5092 1.387 . S
C5093 C5095 1.387 . S
H5094 C5101 0.950 . S
C5095 C5093 1.387 . S
C5095 C5097 1.276 1_565 S
C5095 H5099 0.950 . S
H5096 C5092 0.950 . S
C5097 C5095 1.276 1_545 S
C5097 C5098 1.479 . S
C5097 H5100 0.986 . S
C5098 C5097 1.479 . S
C5098 C5101 1.387 . S
H5099 C5095 0.950 . S
H5100 C5097 0.986 . S
C5101 C5092 1.390 1_545 S
C5101 H5094 0.950 . S
C5101 C5098 1.387 . S
C5102 C5103 1.387 . S
C5102 H5106 0.950 . S
C5102 C5111 1.390 . S
C5103 C5102 1.387 . S
C5103 C5105 1.387 . S
H5104 C5111 0.950 . S
C5105 C5103 1.387 . S
C5105 C5107 1.390 . S
C5105 H5109 0.950 . S
H5106 C5102 0.950 . S
C5107 C5105 1.390 . S
C5107 C5108 1.387 . S
C5107 H5110 0.950 . S
C5108 C5107 1.387 . S
C5108 C5111 1.387 . S
H5109 C5105 0.950 . S
H5110 C5107 0.950 . S
C5111 C5102 1.390 . S
C5111 H5104 0.950 . S
C5111 C5108 1.387 . S
C5112 C5113 1.387 . S
C5112 H5116 0.950 . S
C5112 C5121 1.390 1_565 S
C5113 C5112 1.387 . S
C5113 C5115 1.387 . S
H5114 C5121 0.950 . S
C5115 C5113 1.387 . S
C5115 C5117 1.390 1_565 S
C5115 H5119 0.950 . S
H5116 C5112 0.950 . S
C5117 C5115 1.390 1_545 S
C5117 C5118 1.387 . S
C5117 H5120 0.950 . S
C5118 C5117 1.387 . S
C5118 C5121 1.387 . S
H5119 C5115 0.950 . S
H5120 C5117 0.950 . S
C5121 C5112 1.390 1_545 S
C5121 H5114 0.950 . S
C5121 C5118 1.387 . S
C5122 C5123 1.387 . S
C5122 H5126 0.950 . S
C5122 C5131 1.390 . S
C5123 C5122 1.387 . S
C5123 C5125 1.387 . S
H5124 C5131 0.950 . S
C5125 C5123 1.387 . S
C5125 C5127 1.390 . S
C5125 H5129 0.950 . S
H5126 C5122 0.950 . S
C5127 C5125 1.390 . S
C5127 C5128 1.387 . S
C5127 H5130 0.950 . S
C5128 C5127 1.387 . S
C5128 C5131 1.387 . S
H5129 C5125 0.950 . S
H5130 C5127 0.950 . S
C5131 C5122 1.390 . S
C5131 H5124 0.950 . S
C5131 C5128 1.387 . S
C5132 C5133 1.387 . S
C5132 H5136 0.950 . S
C5132 C5141 1.390 1_545 S
C5133 C5132 1.387 . S
C5133 C5135 1.387 . S
H5134 C5141 0.950 . S
C5135 C5133 1.387 . S
C5135 C5137 1.390 1_545 S
C5135 H5139 0.950 . S
H5136 C5132 0.950 . S
C5137 C5135 1.390 1_565 S
C5137 C5138 1.387 . S
C5137 H5140 0.950 . S
C5138 C5137 1.387 . S
C5138 C5141 1.387 . S
H5139 C5135 0.950 . S
H5140 C5137 0.950 . S
C5141 C5132 1.390 1_565 S
C5141 H5134 0.950 . S
C5141 C5138 1.387 . S
C5142 C5143 1.387 . S
C5142 H5146 0.950 . S
C5142 C5151 1.390 . S
C5143 C5142 1.387 . S
C5143 C5145 1.387 . S
H5144 C5151 0.950 . S
C5145 C5143 1.387 . S
C5145 C5147 1.390 . S
C5145 H5149 0.950 . S
H5146 C5142 0.950 . S
C5147 C5145 1.390 . S
C5147 C5148 1.387 . S
C5147 H5150 0.950 . S
C5148 C5147 1.387 . S
C5148 C5151 1.387 . S
H5149 C5145 0.950 . S
H5150 C5147 0.950 . S
C5151 C5142 1.390 . S
C5151 H5144 0.950 . S
C5151 C5148 1.387 . S
C5152 C5153 1.387 . S
C5152 H5156 0.950 . S
C5152 C5161 1.390 1_554 S
C5153 C5152 1.387 . S
C5153 C5155 1.387 . S
H5154 C5161 0.950 . S
C5155 C5153 1.387 . S
C5155 C5157 1.390 1_554 S
C5155 H5159 0.950 . S
H5156 C5152 0.950 . S
C5157 C5155 1.390 1_556 S
C5157 C5158 1.387 . S
C5157 H5160 0.950 . S
C5158 C5157 1.387 . S
C5158 C5161 1.387 . S
H5159 C5155 0.950 . S
H5160 C5157 0.950 . S
C5161 C5152 1.390 1_556 S
C5161 H5154 0.950 . S
C5161 C5158 1.387 . S
C5162 C5163 1.387 . S
C5162 H5166 0.950 . S
C5162 C5171 1.402 1_556 S
C5163 C5162 1.387 . S
C5163 C5165 1.387 . S
H5164 C5171 0.944 . S
C5165 C5163 1.387 . S
C5165 C5167 1.390 1_556 S
C5165 H5169 0.950 . S
H5166 C5162 0.950 . S
C5167 C5165 1.390 1_554 S
C5167 C5168 1.387 . S
C5167 H5170 0.950 . S
C5168 C5167 1.387 . S
C5168 C5171 1.377 . S
H5169 C5165 0.950 . S
H5170 C5167 0.950 . S
C5171 C5162 1.402 1_554 S
C5171 H5164 0.944 . S
C5171 C5168 1.377 . S
C5172 C5173 1.387 . S
C5172 H5176 0.950 . S
C5172 C5181 1.390 . S
C5173 C5172 1.387 . S
C5173 C5175 1.387 . S
H5174 C5181 0.950 . S
C5175 C5173 1.387 . S
C5175 C5177 1.390 . S
C5175 H5179 0.950 . S
H5176 C5172 0.950 . S
C5177 C5175 1.390 . S
C5177 C5178 1.387 . S
C5177 H5180 0.950 . S
C5178 C5177 1.387 . S
C5178 C5181 1.387 . S
H5179 C5175 0.950 . S
H5180 C5177 0.950 . S
C5181 C5172 1.390 . S
C5181 H5174 0.950 . S
C5181 C5178 1.387 . S
C5182 C5183 1.387 . S
C5182 H5186 0.950 . S
C5182 C5191 1.390 . S
C5183 C5182 1.387 . S
C5183 C5185 1.387 . S
H5184 C5191 0.950 . S
C5185 C5183 1.387 . S
C5185 C5187 1.390 . S
C5185 H5189 0.950 . S
H5186 C5182 0.950 . S
C5187 C5185 1.390 . S
C5187 C5188 1.387 . S
C5187 H5190 0.950 . S
C5188 C5187 1.387 . S
C5188 C5191 1.387 . S
H5189 C5185 0.950 . S
H5190 C5187 0.950 . S
C5191 C5182 1.390 . S
C5191 H5184 0.950 . S
C5191 C5188 1.387 . S
C5192 C5193 1.387 . S
C5192 H5196 0.950 . S
C5192 C5201 1.390 . S
C5193 C5192 1.387 . S
C5193 C5195 1.387 . S
H5194 C5201 0.950 . S
C5195 C5193 1.387 . S
C5195 C5197 1.390 . S
C5195 H5199 0.950 . S
H5196 C5192 0.950 . S
C5197 C5195 1.390 . S
C5197 C5198 1.387 . S
C5197 H5200 0.950 . S
C5198 C5197 1.387 . S
C5198 C5201 1.387 . S
H5199 C5195 0.950 . S
H5200 C5197 0.950 . S
C5201 C5192 1.390 . S
C5201 H5194 0.950 . S
C5201 C5198 1.387 . S
C5202 C5203 1.387 . S
C5202 H5206 0.950 . S
C5202 C5211 1.390 . S
C5203 C5202 1.387 . S
C5203 C5205 1.387 . S
H5204 C5211 0.950 . S
C5205 C5203 1.387 . S
C5205 C5207 1.390 . S
C5205 H5209 0.950 . S
H5206 C5202 0.950 . S
C5207 C5205 1.390 . S
C5207 C5208 1.387 . S
C5207 H5210 0.950 . S
C5208 C5207 1.387 . S
C5208 C5211 1.387 . S
H5209 C5205 0.950 . S
H5210 C5207 0.950 . S
C5211 C5202 1.390 . S
C5211 H5204 0.950 . S
C5211 C5208 1.387 . S
C5212 C5213 1.387 . S
C5212 H5216 0.950 . S
C5212 C5221 1.390 . S
C5213 C5212 1.387 . S
C5213 C5215 1.387 . S
H5214 C5221 0.950 . S
C5215 C5213 1.387 . S
C5215 C5217 1.390 . S
C5215 H5219 0.950 . S
H5216 C5212 0.950 . S
C5217 C5215 1.390 . S
C5217 C5218 1.387 . S
C5217 H5220 0.950 . S
C5218 C5217 1.387 . S
C5218 C5221 1.387 . S
H5219 C5215 0.950 . S
H5220 C5217 0.950 . S
C5221 C5212 1.390 . S
C5221 H5214 0.950 . S
C5221 C5218 1.387 . S
C5222 C5223 1.387 . S
C5222 H5226 0.950 . S
C5222 C5231 1.390 . S
C5223 C5222 1.387 . S
C5223 C5225 1.387 . S
H5224 C5231 0.950 . S
C5225 C5223 1.387 . S
C5225 C5227 1.390 . S
C5225 H5229 0.950 . S
H5226 C5222 0.950 . S
C5227 C5225 1.390 . S
C5227 C5228 1.387 . S
C5227 H5230 0.950 . S
C5228 C5227 1.387 . S
C5228 C5231 1.387 . S
H5229 C5225 0.950 . S
H5230 C5227 0.950 . S
C5231 C5222 1.390 . S
C5231 H5224 0.950 . S
C5231 C5228 1.387 . S
C5232 C5233 1.387 . S
C5232 H5236 0.950 . S
C5232 C5241 1.390 1_655 S
C5233 C5232 1.387 . S
C5233 C5235 1.387 . S
H5234 C5241 0.950 . S
C5235 C5233 1.387 . S
C5235 C5237 1.390 1_655 S
C5235 H5239 0.950 . S
H5236 C5232 0.950 . S
C5237 C5235 1.390 1_455 S
C5237 C5238 1.387 . S
C5237 H5240 0.950 . S
C5238 C5237 1.387 . S
C5238 C5241 1.387 . S
H5239 C5235 0.950 . S
H5240 C5237 0.950 . S
C5241 C5232 1.390 1_455 S
C5241 H5234 0.950 . S
C5241 C5238 1.387 . S
C5242 C5243 1.387 . S
C5242 H5246 0.950 . S
C5242 C5251 1.390 . S
C5243 C5242 1.387 . S
C5243 C5245 1.387 . S
H5244 C5251 0.950 . S
C5245 C5243 1.387 . S
C5245 C5247 1.390 . S
C5245 H5249 0.950 . S
H5246 C5242 0.950 . S
C5247 C5245 1.390 . S
C5247 C5248 1.387 . S
C5247 H5250 0.950 . S
C5248 C5247 1.387 . S
C5248 C5251 1.387 . S
H5249 C5245 0.950 . S
H5250 C5247 0.950 . S
C5251 C5242 1.390 . S
C5251 H5244 0.950 . S
C5251 C5248 1.387 . S
C5252 C5253 1.387 . S
C5252 H5256 0.950 . S
C5252 C5261 1.390 . S
C5253 C5252 1.387 . S
C5253 C5255 1.387 . S
H5254 C5261 0.950 . S
C5255 C5253 1.387 . S
C5255 C5257 1.390 . S
C5255 H5259 0.950 . S
H5256 C5252 0.950 . S
C5257 C5255 1.390 . S
C5257 C5258 1.387 . S
C5257 H5260 0.950 . S
C5258 C5257 1.387 . S
C5258 C5261 1.387 . S
H5259 C5255 0.950 . S
H5260 C5257 0.950 . S
C5261 C5252 1.390 . S
C5261 H5254 0.950 . S
C5261 C5258 1.387 . S
C5262 C5263 1.387 . S
C5262 H5266 0.950 . S
C5262 C5271 1.390 . S
C5263 C5262 1.387 . S
C5263 C5265 1.387 . S
H5264 C5271 0.950 . S
C5265 C5263 1.387 . S
C5265 C5267 1.390 . S
C5265 H5269 0.950 . S
H5266 C5262 0.950 . S
C5267 C5265 1.390 . S
C5267 C5268 1.387 . S
C5267 H5270 0.950 . S
C5268 C5267 1.387 . S
C5268 C5271 1.387 . S
H5269 C5265 0.950 . S
H5270 C5267 0.950 . S
C5271 C5262 1.390 . S
C5271 H5264 0.950 . S
C5271 C5268 1.387 . S
C5272 C5273 1.387 . S
C5272 H5276 0.950 . S
C5272 C5281 1.390 1_655 S
C5273 C5272 1.387 . S
C5273 C5275 1.387 . S
H5274 C5281 0.950 . S
C5275 C5273 1.387 . S
C5275 C5277 1.390 1_655 S
C5275 H5279 0.950 . S
H5276 C5272 0.950 . S
C5277 C5275 1.390 1_455 S
C5277 C5278 1.387 . S
C5277 H5280 0.950 . S
C5278 C5277 1.387 . S
C5278 C5281 1.387 . S
H5279 C5275 0.950 . S
H5280 C5277 0.950 . S
C5281 C5272 1.390 1_455 S
C5281 H5274 0.950 . S
C5281 C5278 1.387 . S
C5282 C5283 1.387 . S
C5282 H5286 0.950 . S
C5282 C5291 1.390 . S
C5283 C5282 1.387 . S
C5283 C5285 1.387 . S
H5284 C5291 0.950 . S
C5285 C5283 1.387 . S
C5285 C5287 1.390 . S
C5285 H5289 0.950 . S
H5286 C5282 0.950 . S
C5287 C5285 1.390 . S
C5287 C5288 1.387 . S
C5287 H5290 0.950 . S
C5288 C5287 1.387 . S
C5288 C5291 1.387 . S
H5289 C5285 0.950 . S
H5290 C5287 0.950 . S
C5291 C5282 1.390 . S
C5291 H5284 0.950 . S
C5291 C5288 1.387 . S
C5292 C5293 1.387 . S
C5292 H5296 0.950 . S
C5292 C5301 1.390 . S
C5293 C5292 1.387 . S
C5293 C5295 1.387 . S
H5294 C5301 0.950 . S
C5295 C5293 1.387 . S
C5295 C5297 1.390 . S
C5295 H5299 0.950 . S
H5296 C5292 0.950 . S
C5297 C5295 1.390 . S
C5297 C5298 1.387 . S
C5297 H5300 0.950 . S
C5298 C5297 1.387 . S
C5298 C5301 1.387 . S
H5299 C5295 0.950 . S
H5300 C5297 0.950 . S
C5301 C5292 1.390 . S
C5301 H5294 0.950 . S
C5301 C5298 1.387 . S
C5302 C5303 1.387 . S
C5302 H5306 0.950 . S
C5302 C5311 1.390 . S
C5303 C5302 1.387 . S
C5303 C5305 1.387 . S
H5304 C5311 0.950 . S
C5305 C5303 1.387 . S
C5305 C5307 1.390 . S
C5305 H5309 0.950 . S
H5306 C5302 0.950 . S
C5307 C5305 1.390 . S
C5307 C5308 1.387 . S
C5307 H5310 0.950 . S
C5308 C5307 1.387 . S
C5308 C5311 1.387 . S
H5309 C5305 0.950 . S
H5310 C5307 0.950 . S
C5311 C5302 1.390 . S
C5311 H5304 0.950 . S
C5311 C5308 1.387 . S
C5312 C5313 1.387 . S
C5312 H5316 0.950 . S
C5312 C5321 1.410 . S
C5313 C5312 1.387 . S
C5313 C5315 1.387 . S
H5314 C5321 0.947 1_545 S
C5315 C5313 1.387 . S
C5315 C5317 1.390 1_565 S
C5315 H5319 0.950 . S
H5316 C5312 0.950 . S
C5317 C5315 1.390 1_545 S
C5317 C5318 1.387 . S
C5317 H5320 0.950 . S
C5318 C5317 1.387 . S
C5318 C5321 1.369 1_545 S
H5319 C5315 0.950 . S
H5320 C5317 0.950 . S
C5321 C5312 1.410 . S
C5321 H5314 0.947 1_565 S
C5321 C5318 1.369 1_565 S
C5322 C5323 1.387 . S
C5322 H5326 0.950 . S
C5322 C5331 1.390 . S
C5323 C5322 1.387 . S
C5323 C5325 1.387 . S
H5324 C5331 0.950 . S
C5325 C5323 1.387 . S
C5325 C5327 1.390 . S
C5325 H5329 0.950 . S
H5326 C5322 0.950 . S
C5327 C5325 1.390 . S
C5327 C5328 1.387 . S
C5327 H5330 0.950 . S
C5328 C5327 1.387 . S
C5328 C5331 1.387 . S
H5329 C5325 0.950 . S
H5330 C5327 0.950 . S
C5331 C5322 1.390 . S
C5331 H5324 0.950 . S
C5331 C5328 1.387 . S
C5332 C5333 1.387 . S
C5332 H5336 0.950 . S
C5332 C5341 1.390 1_545 S
C5333 C5332 1.387 . S
C5333 C5335 1.387 . S
H5334 C5341 0.950 . S
C5335 C5333 1.387 . S
C5335 C5337 1.444 . S
C5335 H5339 0.950 . S
H5336 C5332 0.950 . S
C5337 C5335 1.444 . S
C5337 C5338 1.337 1_545 S
C5337 H5340 0.948 . S
C5338 C5337 1.337 1_565 S
C5338 C5341 1.387 . S
H5339 C5335 0.950 . S
H5340 C5337 0.948 . S
C5341 C5332 1.390 1_565 S
C5341 H5334 0.950 . S
C5341 C5338 1.387 . S
C5342 C5343 1.387 . S
C5342 H5346 0.950 . S
C5342 C5351 1.390 . S
C5343 C5342 1.387 . S
C5343 C5345 1.387 . S
H5344 C5351 0.950 . S
C5345 C5343 1.387 . S
C5345 C5347 1.390 . S
C5345 H5349 0.950 . S
H5346 C5342 0.950 . S
C5347 C5345 1.390 . S
C5347 C5348 1.387 . S
C5347 H5350 0.950 . S
C5348 C5347 1.387 . S
C5348 C5351 1.387 . S
H5349 C5345 0.950 . S
H5350 C5347 0.950 . S
C5351 C5342 1.390 . S
C5351 H5344 0.950 . S
C5351 C5348 1.387 . S
C5352 C5353 1.387 . S
C5352 H5356 0.950 . S
C5352 C5361 1.454 . S
C5353 C5352 1.387 . S
C5353 C5355 1.387 . S
H5354 C5361 0.949 . S
C5355 C5353 1.387 . S
C5355 C5357 1.390 1_545 S
C5355 H5359 0.950 . S
H5356 C5352 0.950 . S
C5357 C5355 1.390 1_565 S
C5357 C5358 1.387 . S
C5357 H5360 0.950 . S
C5358 C5357 1.387 . S
C5358 C5361 1.328 1_565 S
H5359 C5355 0.950 . S
H5360 C5357 0.950 . S
C5361 C5352 1.454 . S
C5361 H5354 0.949 . S
C5361 C5358 1.328 1_545 S
C5362 C5363 1.387 . S
C5362 H5366 0.950 . S
C5362 C5371 1.390 . S
C5363 C5362 1.387 . S
C5363 C5365 1.387 . S
H5364 C5371 0.950 . S
C5365 C5363 1.387 . S
C5365 C5367 1.390 . S
C5365 H5369 0.950 . S
H5366 C5362 0.950 . S
C5367 C5365 1.390 . S
C5367 C5368 1.387 . S
C5367 H5370 0.950 . S
C5368 C5367 1.387 . S
C5368 C5371 1.387 . S
H5369 C5365 0.950 . S
H5370 C5367 0.950 . S
C5371 C5362 1.390 . S
C5371 H5364 0.950 . S
C5371 C5368 1.387 . S
C5372 C5373 1.387 . S
C5372 H5376 0.950 . S
C5372 C5381 1.390 1_565 S
C5373 C5372 1.387 . S
C5373 C5375 1.387 . S
H5374 C5381 0.950 . S
C5375 C5373 1.387 . S
C5375 C5377 1.423 . S
C5375 H5379 0.950 . S
H5376 C5372 0.950 . S
C5377 C5375 1.423 . S
C5377 C5378 1.357 1_565 S
C5377 H5380 0.948 1_565 S
C5378 C5377 1.357 1_545 S
C5378 C5381 1.387 . S
H5379 C5375 0.950 . S
H5380 C5377 0.948 1_545 S
C5381 C5372 1.390 1_545 S
C5381 H5374 0.950 . S
C5381 C5378 1.387 . S
C5382 C5383 1.387 . S
C5382 H5386 0.950 . S
C5382 C5391 1.390 . S
C5383 C5382 1.387 . S
C5383 C5385 1.387 . S
H5384 C5391 0.950 . S
C5385 C5383 1.387 . S
C5385 C5387 1.390 . S
C5385 H5389 0.950 . S
H5386 C5382 0.950 . S
C5387 C5385 1.390 . S
C5387 C5388 1.387 . S
C5387 H5390 0.950 . S
C5388 C5387 1.387 . S
C5388 C5391 1.387 . S
H5389 C5385 0.950 . S
H5390 C5387 0.950 . S
C5391 C5382 1.390 . S
C5391 H5384 0.950 . S
C5391 C5388 1.387 . S
C5392 C5393 1.387 . S
C5392 H5396 0.950 . S
C5392 C5401 1.390 1_556 S
C5393 C5392 1.387 . S
C5393 C5395 1.387 . S
H5394 C5401 0.950 . S
C5395 C5393 1.387 . S
C5395 C5397 1.390 1_556 S
C5395 H5399 0.950 . S
H5396 C5392 0.950 . S
C5397 C5395 1.390 1_554 S
C5397 C5398 1.387 . S
C5397 H5400 0.950 . S
C5398 C5397 1.387 . S
C5398 C5401 1.387 . S
H5399 C5395 0.950 . S
H5400 C5397 0.950 . S
C5401 C5392 1.390 1_554 S
C5401 H5394 0.950 . S
C5401 C5398 1.387 . S
C5402 C5403 1.387 . S
C5402 H5406 0.950 . S
C5402 C5411 1.372 1_554 S
C5403 C5402 1.387 . S
C5403 C5405 1.387 . S
H5404 C5411 0.953 . S
C5405 C5403 1.387 . S
C5405 C5407 1.390 1_554 S
C5405 H5409 0.950 . S
H5406 C5402 0.950 . S
C5407 C5405 1.390 1_556 S
C5407 C5408 1.387 . S
C5407 H5410 0.950 . S
C5408 C5407 1.387 . S
C5408 C5411 1.403 . S
H5409 C5405 0.950 . S
H5410 C5407 0.950 . S
C5411 C5402 1.372 1_556 S
C5411 H5404 0.953 . S
C5411 C5408 1.403 . S
C5412 C5413 1.387 . S
C5412 H5416 0.950 . S
C5412 C5421 1.390 . S
C5413 C5412 1.387 . S
C5413 C5415 1.387 . S
H5414 C5421 0.950 . S
C5415 C5413 1.387 . S
C5415 C5417 1.390 . S
C5415 H5419 0.950 . S
H5416 C5412 0.950 . S
C5417 C5415 1.390 . S
C5417 C5418 1.387 . S
C5417 H5420 0.950 . S
C5418 C5417 1.387 . S
C5418 C5421 1.387 . S
H5419 C5415 0.950 . S
H5420 C5417 0.950 . S
C5421 C5412 1.390 . S
C5421 H5414 0.950 . S
C5421 C5418 1.387 . S
C5422 C5423 1.387 . S
C5422 H5426 0.950 . S
C5422 C5431 1.390 . S
C5423 C5422 1.387 . S
C5423 C5425 1.387 . S
H5424 C5431 0.950 . S
C5425 C5423 1.387 . S
C5425 C5427 1.390 . S
C5425 H5429 0.950 . S
H5426 C5422 0.950 . S
C5427 C5425 1.390 . S
C5427 C5428 1.387 . S
C5427 H5430 0.950 . S
C5428 C5427 1.387 . S
C5428 C5431 1.387 . S
H5429 C5425 0.950 . S
H5430 C5427 0.950 . S
C5431 C5422 1.390 . S
C5431 H5424 0.950 . S
C5431 C5428 1.387 . S
C5432 C5433 1.387 . S
C5432 H5436 0.950 . S
C5432 C5441 1.390 . S
C5433 C5432 1.387 . S
C5433 C5435 1.387 . S
H5434 C5441 0.950 . S
C5435 C5433 1.387 . S
C5435 C5437 1.390 . S
C5435 H5439 0.950 . S
H5436 C5432 0.950 . S
C5437 C5435 1.390 . S
C5437 C5438 1.387 . S
C5437 H5440 0.950 . S
C5438 C5437 1.387 . S
C5438 C5441 1.387 . S
H5439 C5435 0.950 . S
H5440 C5437 0.950 . S
C5441 C5432 1.390 . S
C5441 H5434 0.950 . S
C5441 C5438 1.387 . S
C5442 C5443 1.387 . S
C5442 H5446 0.950 . S
C5442 C5451 1.390 . S
C5443 C5442 1.387 . S
C5443 C5445 1.387 . S
H5444 C5451 0.950 . S
C5445 C5443 1.387 . S
C5445 C5447 1.390 . S
C5445 H5449 0.950 . S
H5446 C5442 0.950 . S
C5447 C5445 1.390 . S
C5447 C5448 1.387 . S
C5447 H5450 0.950 . S
C5448 C5447 1.387 . S
C5448 C5451 1.387 . S
H5449 C5445 0.950 . S
H5450 C5447 0.950 . S
C5451 C5442 1.390 . S
C5451 H5444 0.950 . S
C5451 C5448 1.387 . S
C5452 C5453 1.387 . S
C5452 H5456 0.950 . S
C5452 C5461 1.390 . S
C5453 C5452 1.387 . S
C5453 C5455 1.387 . S
H5454 C5461 0.950 . S
C5455 C5453 1.387 . S
C5455 C5457 1.390 . S
C5455 H5459 0.950 . S
H5456 C5452 0.950 . S
C5457 C5455 1.390 . S
C5457 C5458 1.387 . S
C5457 H5460 0.950 . S
C5458 C5457 1.387 . S
C5458 C5461 1.387 . S
H5459 C5455 0.950 . S
H5460 C5457 0.950 . S
C5461 C5452 1.390 . S
C5461 H5454 0.950 . S
C5461 C5458 1.387 . S
C5462 C5463 1.387 . S
C5462 H5466 0.950 . S
C5462 C5471 1.390 . S
C5463 C5462 1.387 . S
C5463 C5465 1.387 . S
H5464 C5471 0.950 . S
C5465 C5463 1.387 . S
C5465 C5467 1.390 . S
C5465 H5469 0.950 . S
H5466 C5462 0.950 . S
C5467 C5465 1.390 . S
C5467 C5468 1.387 . S
C5467 H5470 0.950 . S
C5468 C5467 1.387 . S
C5468 C5471 1.387 . S
H5469 C5465 0.950 . S
H5470 C5467 0.950 . S
C5471 C5462 1.390 . S
C5471 H5464 0.950 . S
C5471 C5468 1.387 . S
C5472 C5473 1.387 . S
C5472 H5476 0.950 . S
C5472 C5481 1.390 . S
C5473 C5472 1.387 . S
C5473 C5475 1.387 . S
H5474 C5481 0.950 . S
C5475 C5473 1.387 . S
C5475 C5477 1.390 . S
C5475 H5479 0.950 . S
H5476 C5472 0.950 . S
C5477 C5475 1.390 . S
C5477 C5478 1.387 . S
C5477 H5480 0.950 . S
C5478 C5477 1.387 . S
C5478 C5481 1.387 . S
H5479 C5475 0.950 . S
H5480 C5477 0.950 . S
C5481 C5472 1.390 . S
C5481 H5474 0.950 . S
C5481 C5478 1.387 . S
C5482 C5483 1.387 . S
C5482 H5486 0.950 . S
C5482 C5491 1.390 . S
C5483 C5482 1.387 . S
C5483 C5485 1.387 . S
H5484 C5491 0.950 . S
C5485 C5483 1.387 . S
C5485 C5487 1.390 . S
C5485 H5489 0.950 . S
H5486 C5482 0.950 . S
C5487 C5485 1.390 . S
C5487 C5488 1.387 . S
C5487 H5490 0.950 . S
C5488 C5487 1.387 . S
C5488 C5491 1.387 . S
H5489 C5485 0.950 . S
H5490 C5487 0.950 . S
C5491 C5482 1.390 . S
C5491 H5484 0.950 . S
C5491 C5488 1.387 . S
C5492 C5493 1.387 . S
C5492 H5496 0.950 . S
C5492 C5501 1.390 1_655 S
C5493 C5492 1.387 . S
C5493 C5495 1.387 . S
H5494 C5501 0.950 . S
C5495 C5493 1.387 . S
C5495 C5497 1.390 1_655 S
C5495 H5499 0.950 . S
H5496 C5492 0.950 . S
C5497 C5495 1.390 1_455 S
C5497 C5498 1.387 . S
C5497 H5500 0.950 . S
C5498 C5497 1.387 . S
C5498 C5501 1.387 . S
H5499 C5495 0.950 . S
H5500 C5497 0.950 . S
C5501 C5492 1.390 1_455 S
C5501 H5494 0.950 . S
C5501 C5498 1.387 . S
C5502 C5503 1.387 . S
C5502 H5506 0.950 . S
C5502 C5511 1.390 . S
C5503 C5502 1.387 . S
C5503 C5505 1.387 . S
H5504 C5511 0.950 . S
C5505 C5503 1.387 . S
C5505 C5507 1.390 . S
C5505 H5509 0.950 . S
H5506 C5502 0.950 . S
C5507 C5505 1.390 . S
C5507 C5508 1.387 . S
C5507 H5510 0.950 . S
C5508 C5507 1.387 . S
C5508 C5511 1.387 . S
H5509 C5505 0.950 . S
H5510 C5507 0.950 . S
C5511 C5502 1.390 . S
C5511 H5504 0.950 . S
C5511 C5508 1.387 . S
C5512 C5513 1.387 . S
C5512 H5516 0.950 . S
C5512 C5521 1.390 . S
C5513 C5512 1.387 . S
C5513 C5515 1.387 . S
H5514 C5521 0.950 . S
C5515 C5513 1.387 . S
C5515 C5517 1.390 . S
C5515 H5519 0.950 . S
H5516 C5512 0.950 . S
C5517 C5515 1.390 . S
C5517 C5518 1.387 . S
C5517 H5520 0.950 . S
C5518 C5517 1.387 . S
C5518 C5521 1.387 . S
H5519 C5515 0.950 . S
H5520 C5517 0.950 . S
C5521 C5512 1.390 . S
C5521 H5514 0.950 . S
C5521 C5518 1.387 . S
C5522 C5523 1.387 . S
C5522 H5526 0.950 . S
C5522 C5531 1.390 . S
C5523 C5522 1.387 . S
C5523 C5525 1.387 . S
H5524 C5531 0.950 . S
C5525 C5523 1.387 . S
C5525 C5527 1.390 . S
C5525 H5529 0.950 . S
H5526 C5522 0.950 . S
C5527 C5525 1.390 . S
C5527 C5528 1.387 . S
C5527 H5530 0.950 . S
C5528 C5527 1.387 . S
C5528 C5531 1.387 . S
H5529 C5525 0.950 . S
H5530 C5527 0.950 . S
C5531 C5522 1.390 . S
C5531 H5524 0.950 . S
C5531 C5528 1.387 . S
C5532 C5533 1.387 . S
C5532 H5536 0.950 . S
C5532 C5541 1.390 1_655 S
C5533 C5532 1.387 . S
C5533 C5535 1.387 . S
H5534 C5541 0.950 . S
C5535 C5533 1.387 . S
C5535 C5537 1.390 1_655 S
C5535 H5539 0.950 . S
H5536 C5532 0.950 . S
C5537 C5535 1.390 1_455 S
C5537 C5538 1.387 . S
C5537 H5540 0.950 . S
C5538 C5537 1.387 . S
C5538 C5541 1.387 . S
H5539 C5535 0.950 . S
H5540 C5537 0.950 . S
C5541 C5532 1.390 1_455 S
C5541 H5534 0.950 . S
C5541 C5538 1.387 . S
C5542 C5543 1.387 . S
C5542 H5546 0.950 . S
C5542 C5551 1.390 . S
C5543 C5542 1.387 . S
C5543 C5545 1.387 . S
H5544 C5551 0.950 . S
C5545 C5543 1.387 . S
C5545 C5547 1.390 . S
C5545 H5549 0.950 . S
H5546 C5542 0.950 . S
C5547 C5545 1.390 . S
C5547 C5548 1.387 . S
C5547 H5550 0.950 . S
C5548 C5547 1.387 . S
C5548 C5551 1.387 . S
H5549 C5545 0.950 . S
H5550 C5547 0.950 . S
C5551 C5542 1.390 . S
C5551 H5544 0.950 . S
C5551 C5548 1.387 . S
C5552 C5553 1.387 . S
C5552 H5556 0.950 . S
C5552 C5561 1.390 . S
C5553 C5552 1.387 . S
C5553 C5555 1.387 . S
H5554 C5561 0.950 . S
C5555 C5553 1.387 . S
C5555 C5557 1.390 . S
C5555 H5559 0.950 . S
H5556 C5552 0.950 . S
C5557 C5555 1.390 . S
C5557 C5558 1.387 . S
C5557 H5560 0.950 . S
C5558 C5557 1.387 . S
C5558 C5561 1.387 . S
H5559 C5555 0.950 . S
H5560 C5557 0.950 . S
C5561 C5552 1.390 . S
C5561 H5554 0.950 . S
C5561 C5558 1.387 . S
C5562 C5563 1.387 . S
C5562 H5566 0.950 . S
C5562 C5571 1.390 . S
C5563 C5562 1.387 . S
C5563 C5565 1.387 . S
H5564 C5571 0.950 . S
C5565 C5563 1.387 . S
C5565 C5567 1.390 . S
C5565 H5569 0.950 . S
H5566 C5562 0.950 . S
C5567 C5565 1.390 . S
C5567 C5568 1.387 . S
C5567 H5570 0.950 . S
C5568 C5567 1.387 . S
C5568 C5571 1.387 . S
H5569 C5565 0.950 . S
H5570 C5567 0.950 . S
C5571 C5562 1.390 . S
C5571 H5564 0.950 . S
C5571 C5568 1.387 . S
C5572 C5573 1.387 . S
C5572 H5576 0.950 . S
C5572 C5581 1.390 . S
C5573 C5572 1.387 . S
C5573 C5575 1.387 . S
H5574 C5581 0.950 . S
C5575 C5573 1.387 . S
C5575 C5577 1.390 . S
C5575 H5579 0.950 . S
H5576 C5572 0.950 . S
C5577 C5575 1.390 . S
C5577 C5578 1.387 . S
C5577 H5580 0.950 . S
C5578 C5577 1.387 . S
C5578 C5581 1.387 . S
H5579 C5575 0.950 . S
H5580 C5577 0.950 . S
C5581 C5572 1.390 . S
C5581 H5574 0.950 . S
C5581 C5578 1.387 . S
C5582 C5583 1.387 . S
C5582 H5586 0.950 . S
C5582 C5591 1.390 . S
C5583 C5582 1.387 . S
C5583 C5585 1.387 . S
H5584 C5591 0.950 . S
C5585 C5583 1.387 . S
C5585 C5587 1.390 . S
C5585 H5589 0.950 . S
H5586 C5582 0.950 . S
C5587 C5585 1.390 . S
C5587 C5588 1.387 . S
C5587 H5590 0.950 . S
C5588 C5587 1.387 . S
C5588 C5591 1.387 . S
H5589 C5585 0.950 . S
H5590 C5587 0.950 . S
C5591 C5582 1.390 . S
C5591 H5584 0.950 . S
C5591 C5588 1.387 . S
C5592 C5593 1.387 . S
C5592 H5596 0.950 . S
C5592 C5601 1.390 . S
C5593 C5592 1.387 . S
C5593 C5595 1.387 . S
H5594 C5601 0.950 . S
C5595 C5593 1.387 . S
C5595 C5597 1.390 . S
C5595 H5599 0.950 . S
H5596 C5592 0.950 . S
C5597 C5595 1.390 . S
C5597 C5598 1.387 . S
C5597 H5600 0.950 . S
C5598 C5597 1.387 . S
C5598 C5601 1.387 . S
H5599 C5595 0.950 . S
H5600 C5597 0.950 . S
C5601 C5592 1.390 . S
C5601 H5594 0.950 . S
C5601 C5598 1.387 . S
C5602 C5603 1.387 . S
C5602 H5606 0.950 . S
C5602 C5611 1.390 . S
C5603 C5602 1.387 . S
C5603 C5605 1.387 . S
H5604 C5611 0.950 . S
C5605 C5603 1.387 . S
C5605 C5607 1.390 . S
C5605 H5609 0.950 . S
H5606 C5602 0.950 . S
C5607 C5605 1.390 . S
C5607 C5608 1.387 . S
C5607 H5610 0.950 . S
C5608 C5607 1.387 . S
C5608 C5611 1.387 . S
H5609 C5605 0.950 . S
H5610 C5607 0.950 . S
C5611 C5602 1.390 . S
C5611 H5604 0.950 . S
C5611 C5608 1.387 . S
C5612 C5613 1.387 . S
C5612 H5616 0.950 . S
C5612 C5621 1.390 . S
C5613 C5612 1.387 . S
C5613 C5615 1.387 . S
H5614 C5621 0.950 . S
C5615 C5613 1.387 . S
C5615 C5617 1.390 . S
C5615 H5619 0.950 . S
H5616 C5612 0.950 . S
C5617 C5615 1.390 . S
C5617 C5618 1.387 . S
C5617 H5620 0.950 . S
C5618 C5617 1.387 . S
C5618 C5621 1.387 . S
H5619 C5615 0.950 . S
H5620 C5617 0.950 . S
C5621 C5612 1.390 . S
C5621 H5614 0.950 . S
C5621 C5618 1.387 . S
C5622 C5623 1.387 . S
C5622 H5626 0.950 . S
C5622 C5631 1.390 . S
C5623 C5622 1.387 . S
C5623 C5625 1.387 . S
H5624 C5631 0.950 . S
C5625 C5623 1.387 . S
C5625 C5627 1.390 . S
C5625 H5629 0.950 . S
H5626 C5622 0.950 . S
C5627 C5625 1.390 . S
C5627 C5628 1.387 . S
C5627 H5630 0.950 . S
C5628 C5627 1.387 . S
C5628 C5631 1.387 . S
H5629 C5625 0.950 . S
H5630 C5627 0.950 . S
C5631 C5622 1.390 . S
C5631 H5624 0.950 . S
C5631 C5628 1.387 . S
C5632 C5633 1.387 . S
C5632 H5636 0.950 . S
C5632 C5641 1.390 . S
C5633 C5632 1.387 . S
C5633 C5635 1.387 . S
H5634 C5641 0.950 . S
C5635 C5633 1.387 . S
C5635 C5637 1.390 . S
C5635 H5639 0.950 . S
H5636 C5632 0.950 . S
C5637 C5635 1.390 . S
C5637 C5638 1.387 . S
C5637 H5640 0.950 . S
C5638 C5637 1.387 . S
C5638 C5641 1.387 . S
H5639 C5635 0.950 . S
H5640 C5637 0.950 . S
C5641 C5632 1.390 . S
C5641 H5634 0.950 . S
C5641 C5638 1.387 . S
C5642 C5643 1.387 . S
C5642 H5646 0.950 . S
C5642 C5651 1.390 . S
C5643 C5642 1.387 . S
C5643 C5645 1.387 . S
H5644 C5651 0.950 . S
C5645 C5643 1.387 . S
C5645 C5647 1.390 . S
C5645 H5649 0.950 . S
H5646 C5642 0.950 . S
C5647 C5645 1.390 . S
C5647 C5648 1.387 . S
C5647 H5650 0.950 . S
C5648 C5647 1.387 . S
C5648 C5651 1.387 . S
H5649 C5645 0.950 . S
H5650 C5647 0.950 . S
C5651 C5642 1.390 . S
C5651 H5644 0.950 . S
C5651 C5648 1.387 . S
C5652 C5653 1.387 . S
C5652 H5656 0.950 . S
C5652 C5661 1.390 . S
C5653 C5652 1.387 . S
C5653 C5655 1.387 . S
H5654 C5661 0.950 . S
C5655 C5653 1.387 . S
C5655 C5657 1.390 . S
C5655 H5659 0.950 . S
H5656 C5652 0.950 . S
C5657 C5655 1.390 . S
C5657 C5658 1.387 . S
C5657 H5660 0.950 . S
C5658 C5657 1.387 . S
C5658 C5661 1.387 . S
H5659 C5655 0.950 . S
H5660 C5657 0.950 . S
C5661 C5652 1.390 . S
C5661 H5654 0.950 . S
C5661 C5658 1.387 . S
C5662 C5663 1.387 . S
C5662 H5666 0.950 . S
C5662 C5671 1.390 1_556 S
C5663 C5662 1.387 . S
C5663 C5665 1.387 . S
H5664 C5671 0.950 . S
C5665 C5663 1.387 . S
C5665 C5667 1.390 1_556 S
C5665 H5669 0.950 . S
H5666 C5662 0.950 . S
C5667 C5665 1.390 1_554 S
C5667 C5668 1.387 . S
C5667 H5670 0.950 . S
C5668 C5667 1.387 . S
C5668 C5671 1.387 . S
H5669 C5665 0.950 . S
H5670 C5667 0.950 . S
C5671 C5662 1.390 1_554 S
C5671 H5664 0.950 . S
C5671 C5668 1.387 . S
C5672 C5673 1.387 . S
C5672 H5676 0.950 . S
C5672 C5681 1.390 . S
C5673 C5672 1.387 . S
C5673 C5675 1.387 . S
H5674 C5681 0.950 . S
C5675 C5673 1.387 . S
C5675 C5677 1.390 . S
C5675 H5679 0.950 . S
H5676 C5672 0.950 . S
C5677 C5675 1.390 . S
C5677 C5678 1.387 . S
C5677 H5680 0.950 . S
C5678 C5677 1.387 . S
C5678 C5681 1.387 . S
H5679 C5675 0.950 . S
H5680 C5677 0.950 . S
C5681 C5672 1.390 . S
C5681 H5674 0.950 . S
C5681 C5678 1.387 . S
C5682 C5683 1.387 . S
C5682 H5686 0.950 . S
C5682 C5691 1.390 1_554 S
C5683 C5682 1.387 . S
C5683 C5685 1.387 . S
H5684 C5691 0.950 . S
C5685 C5683 1.387 . S
C5685 C5687 1.386 1_554 S
C5685 H5689 0.950 . S
H5686 C5682 0.950 . S
C5687 C5685 1.386 1_556 S
C5687 C5688 1.391 . S
C5687 H5690 0.942 . S
C5688 C5687 1.391 . S
C5688 C5691 1.387 . S
H5689 C5685 0.950 . S
H5690 C5687 0.942 . S
C5691 C5682 1.390 1_556 S
C5691 H5684 0.950 . S
C5691 C5688 1.387 . S
C5692 C5693 1.387 . S
C5692 H5696 0.950 . S
C5692 C5701 1.390 . S
C5693 C5692 1.387 . S
C5693 C5695 1.387 . S
H5694 C5701 0.950 . S
C5695 C5693 1.387 . S
C5695 C5697 1.390 . S
C5695 H5699 0.950 . S
H5696 C5692 0.950 . S
C5697 C5695 1.390 . S
C5697 C5698 1.387 . S
C5697 H5700 0.950 . S
C5698 C5697 1.387 . S
C5698 C5701 1.387 . S
H5699 C5695 0.950 . S
H5700 C5697 0.950 . S
C5701 C5692 1.390 . S
C5701 H5694 0.950 . S
C5701 C5698 1.387 . S
C5702 C5703 1.387 . S
C5702 H5706 0.950 . S
C5702 C5711 1.390 . S
C5703 C5702 1.387 . S
C5703 C5705 1.387 . S
H5704 C5711 0.950 . S
C5705 C5703 1.387 . S
C5705 C5707 1.390 . S
C5705 H5709 0.950 . S
H5706 C5702 0.950 . S
C5707 C5705 1.390 . S
C5707 C5708 1.387 . S
C5707 H5710 0.950 . S
C5708 C5707 1.387 . S
C5708 C5711 1.387 . S
H5709 C5705 0.950 . S
H5710 C5707 0.950 . S
C5711 C5702 1.390 . S
C5711 H5704 0.950 . S
C5711 C5708 1.387 . S
C5712 C5713 1.387 . S
C5712 H5716 0.950 . S
C5712 C5721 1.390 . S
C5713 C5712 1.387 . S
C5713 C5715 1.387 . S
H5714 C5721 0.950 . S
C5715 C5713 1.387 . S
C5715 C5717 1.390 . S
C5715 H5719 0.950 . S
H5716 C5712 0.950 . S
C5717 C5715 1.390 . S
C5717 C5718 1.387 . S
C5717 H5720 0.950 . S
C5718 C5717 1.387 . S
C5718 C5721 1.387 . S
H5719 C5715 0.950 . S
H5720 C5717 0.950 . S
C5721 C5712 1.390 . S
C5721 H5714 0.950 . S
C5721 C5718 1.387 . S
C5722 C5723 1.387 . S
C5722 H5726 0.950 . S
C5722 C5731 1.390 . S
C5723 C5722 1.387 . S
C5723 C5725 1.387 . S
H5724 C5731 0.950 . S
C5725 C5723 1.387 . S
C5725 C5727 1.390 . S
C5725 H5729 0.950 . S
H5726 C5722 0.950 . S
C5727 C5725 1.390 . S
C5727 C5728 1.387 . S
C5727 H5730 0.950 . S
C5728 C5727 1.387 . S
C5728 C5731 1.387 . S
H5729 C5725 0.950 . S
H5730 C5727 0.950 . S
C5731 C5722 1.390 . S
C5731 H5724 0.950 . S
C5731 C5728 1.387 . S
C5732 C5733 1.387 . S
C5732 H5736 0.950 . S
C5732 C5741 1.390 1_455 S
C5733 C5732 1.387 . S
C5733 C5735 1.387 . S
H5734 C5741 0.950 . S
C5735 C5733 1.387 . S
C5735 C5737 1.390 1_455 S
C5735 H5739 0.950 . S
H5736 C5732 0.950 . S
C5737 C5735 1.390 1_655 S
C5737 C5738 1.387 . S
C5737 H5740 0.950 . S
C5738 C5737 1.387 . S
C5738 C5741 1.387 . S
H5739 C5735 0.950 . S
H5740 C5737 0.950 . S
C5741 C5732 1.390 1_655 S
C5741 H5734 0.950 . S
C5741 C5738 1.387 . S
C5742 C5743 1.387 . S
C5742 H5746 0.950 . S
C5742 C5751 1.390 . S
C5743 C5742 1.387 . S
C5743 C5745 1.387 . S
H5744 C5751 0.950 . S
C5745 C5743 1.387 . S
C5745 C5747 1.390 . S
C5745 H5749 0.950 . S
H5746 C5742 0.950 . S
C5747 C5745 1.390 . S
C5747 C5748 1.387 . S
C5747 H5750 0.950 . S
C5748 C5747 1.387 . S
C5748 C5751 1.387 . S
H5749 C5745 0.950 . S
H5750 C5747 0.950 . S
C5751 C5742 1.390 . S
C5751 H5744 0.950 . S
C5751 C5748 1.387 . S
C5752 C5753 1.387 . S
C5752 H5756 0.950 . S
C5752 C5761 1.390 . S
C5753 C5752 1.387 . S
C5753 C5755 1.387 . S
H5754 C5761 0.950 . S
C5755 C5753 1.387 . S
C5755 C5757 1.390 . S
C5755 H5759 0.950 . S
H5756 C5752 0.950 . S
C5757 C5755 1.390 . S
C5757 C5758 1.387 . S
C5757 H5760 0.950 . S
C5758 C5757 1.387 . S
C5758 C5761 1.387 . S
H5759 C5755 0.950 . S
H5760 C5757 0.950 . S
C5761 C5752 1.390 . S
C5761 H5754 0.950 . S
C5761 C5758 1.387 . S
C5762 C5763 1.387 . S
C5762 H5766 0.950 . S
C5762 C5771 1.390 . S
C5763 C5762 1.387 . S
C5763 C5765 1.387 . S
H5764 C5771 0.950 . S
C5765 C5763 1.387 . S
C5765 C5767 1.390 . S
C5765 H5769 0.950 . S
H5766 C5762 0.950 . S
C5767 C5765 1.390 . S
C5767 C5768 1.387 . S
C5767 H5770 0.950 . S
C5768 C5767 1.387 . S
C5768 C5771 1.387 . S
H5769 C5765 0.950 . S
H5770 C5767 0.950 . S
C5771 C5762 1.390 . S
C5771 H5764 0.950 . S
C5771 C5768 1.387 . S
C5772 C5773 1.387 . S
C5772 H5776 0.950 . S
C5772 C5781 1.390 1_455 S
C5773 C5772 1.387 . S
C5773 C5775 1.387 . S
H5774 C5781 0.950 . S
C5775 C5773 1.387 . S
C5775 C5777 1.390 1_455 S
C5775 H5779 0.950 . S
H5776 C5772 0.950 . S
C5777 C5775 1.390 1_655 S
C5777 C5778 1.387 . S
C5777 H5780 0.950 . S
C5778 C5777 1.387 . S
C5778 C5781 1.387 . S
H5779 C5775 0.950 . S
H5780 C5777 0.950 . S
C5781 C5772 1.390 1_655 S
C5781 H5774 0.950 . S
C5781 C5778 1.387 . S
C5782 C5783 1.387 . S
C5782 H5786 0.950 . S
C5782 C5791 1.390 . S
C5783 C5782 1.387 . S
C5783 C5785 1.387 . S
H5784 C5791 0.950 . S
C5785 C5783 1.387 . S
C5785 C5787 1.390 . S
C5785 H5789 0.950 . S
H5786 C5782 0.950 . S
C5787 C5785 1.390 . S
C5787 C5788 1.387 . S
C5787 H5790 0.950 . S
C5788 C5787 1.387 . S
C5788 C5791 1.387 . S
H5789 C5785 0.950 . S
H5790 C5787 0.950 . S
C5791 C5782 1.390 . S
C5791 H5784 0.950 . S
C5791 C5788 1.387 . S
C5792 C5793 1.387 . S
C5792 H5796 0.950 . S
C5792 C5801 1.390 . S
C5793 C5792 1.387 . S
C5793 C5795 1.387 . S
H5794 C5801 0.950 . S
C5795 C5793 1.387 . S
C5795 C5797 1.390 . S
C5795 H5799 0.950 . S
H5796 C5792 0.950 . S
C5797 C5795 1.390 . S
C5797 C5798 1.387 . S
C5797 H5800 0.950 . S
C5798 C5797 1.387 . S
C5798 C5801 1.387 . S
H5799 C5795 0.950 . S
H5800 C5797 0.950 . S
C5801 C5792 1.390 . S
C5801 H5794 0.950 . S
C5801 C5798 1.387 . S
C5802 C5803 1.387 . S
C5802 H5806 0.950 . S
C5802 C5811 1.390 . S
C5803 C5802 1.387 . S
C5803 C5805 1.387 . S
H5804 C5811 0.950 . S
C5805 C5803 1.387 . S
C5805 C5807 1.390 . S
C5805 H5809 0.950 . S
H5806 C5802 0.950 . S
C5807 C5805 1.390 . S
C5807 C5808 1.387 . S
C5807 H5810 0.950 . S
C5808 C5807 1.387 . S
C5808 C5811 1.387 . S
H5809 C5805 0.950 . S
H5810 C5807 0.950 . S
C5811 C5802 1.390 . S
C5811 H5804 0.950 . S
C5811 C5808 1.387 . S
C5812 C5813 1.387 . S
C5812 H5816 0.950 . S
C5812 C5821 1.390 . S
C5813 C5812 1.387 . S
C5813 C5815 1.387 . S
H5814 C5821 0.950 . S
C5815 C5813 1.387 . S
C5815 C5817 1.390 . S
C5815 H5819 0.950 . S
H5816 C5812 0.950 . S
C5817 C5815 1.390 . S
C5817 C5818 1.387 . S
C5817 H5820 0.950 . S
C5818 C5817 1.387 . S
C5818 C5821 1.387 . S
H5819 C5815 0.950 . S
H5820 C5817 0.950 . S
C5821 C5812 1.390 . S
C5821 H5814 0.950 . S
C5821 C5818 1.387 . S
C5822 C5823 1.387 . S
C5822 H5826 0.950 . S
C5822 C5831 1.390 . S
C5823 C5822 1.387 . S
C5823 C5825 1.387 . S
H5824 C5831 0.950 . S
C5825 C5823 1.387 . S
C5825 C5827 1.390 . S
C5825 H5829 0.950 . S
H5826 C5822 0.950 . S
C5827 C5825 1.390 . S
C5827 C5828 1.387 . S
C5827 H5830 0.950 . S
C5828 C5827 1.387 . S
C5828 C5831 1.387 . S
H5829 C5825 0.950 . S
H5830 C5827 0.950 . S
C5831 C5822 1.390 . S
C5831 H5824 0.950 . S
C5831 C5828 1.387 . S
C5832 C5833 1.387 . S
C5832 H5836 0.950 . S
C5832 C5841 1.390 . S
C5833 C5832 1.387 . S
C5833 C5835 1.387 . S
H5834 C5841 0.950 . S
C5835 C5833 1.387 . S
C5835 C5837 1.390 . S
C5835 H5839 0.950 . S
H5836 C5832 0.950 . S
C5837 C5835 1.390 . S
C5837 C5838 1.387 . S
C5837 H5840 0.950 . S
C5838 C5837 1.387 . S
C5838 C5841 1.387 . S
H5839 C5835 0.950 . S
H5840 C5837 0.950 . S
C5841 C5832 1.390 . S
C5841 H5834 0.950 . S
C5841 C5838 1.387 . S
C5842 C5843 1.387 . S
C5842 H5846 0.950 . S
C5842 C5851 1.390 . S
C5843 C5842 1.387 . S
C5843 C5845 1.387 . S
H5844 C5851 0.950 . S
C5845 C5843 1.387 . S
C5845 C5847 1.390 . S
C5845 H5849 0.950 . S
H5846 C5842 0.950 . S
C5847 C5845 1.390 . S
C5847 C5848 1.387 . S
C5847 H5850 0.950 . S
C5848 C5847 1.387 . S
C5848 C5851 1.387 . S
H5849 C5845 0.950 . S
H5850 C5847 0.950 . S
C5851 C5842 1.390 . S
C5851 H5844 0.950 . S
C5851 C5848 1.387 . S
C5852 C5853 1.387 . S
C5852 H5856 0.950 . S
C5852 C5861 1.390 . S
C5853 C5852 1.387 . S
C5853 C5855 1.387 . S
H5854 C5861 0.950 . S
C5855 C5853 1.387 . S
C5855 C5857 1.390 . S
C5855 H5859 0.950 . S
H5856 C5852 0.950 . S
C5857 C5855 1.390 . S
C5857 C5858 1.387 . S
C5857 H5860 0.950 . S
C5858 C5857 1.387 . S
C5858 C5861 1.387 . S
H5859 C5855 0.950 . S
H5860 C5857 0.950 . S
C5861 C5852 1.390 . S
C5861 H5854 0.950 . S
C5861 C5858 1.387 . S
C5862 C5863 1.387 . S
C5862 H5866 0.950 . S
C5862 C5871 1.390 . S
C5863 C5862 1.387 . S
C5863 C5865 1.387 . S
H5864 C5871 0.950 . S
C5865 C5863 1.387 . S
C5865 C5867 1.390 . S
C5865 H5869 0.950 . S
H5866 C5862 0.950 . S
C5867 C5865 1.390 . S
C5867 C5868 1.387 . S
C5867 H5870 0.950 . S
C5868 C5867 1.387 . S
C5868 C5871 1.387 . S
H5869 C5865 0.950 . S
H5870 C5867 0.950 . S
C5871 C5862 1.390 . S
C5871 H5864 0.950 . S
C5871 C5868 1.387 . S
C5872 C5873 1.387 . S
C5872 H5876 0.950 . S
C5872 C5881 1.390 . S
C5873 C5872 1.387 . S
C5873 C5875 1.387 . S
H5874 C5881 0.950 . S
C5875 C5873 1.387 . S
C5875 C5877 1.390 . S
C5875 H5879 0.950 . S
H5876 C5872 0.950 . S
C5877 C5875 1.390 . S
C5877 C5878 1.387 . S
C5877 H5880 0.950 . S
C5878 C5877 1.387 . S
C5878 C5881 1.387 . S
H5879 C5875 0.950 . S
H5880 C5877 0.950 . S
C5881 C5872 1.390 . S
C5881 H5874 0.950 . S
C5881 C5878 1.387 . S
C5882 C5883 1.387 . S
C5882 H5886 0.950 . S
C5882 C5891 1.390 . S
C5883 C5882 1.387 . S
C5883 C5885 1.387 . S
H5884 C5891 0.950 . S
C5885 C5883 1.387 . S
C5885 C5887 1.390 . S
C5885 H5889 0.950 . S
H5886 C5882 0.950 . S
C5887 C5885 1.390 . S
C5887 C5888 1.387 . S
C5887 H5890 0.950 . S
C5888 C5887 1.387 . S
C5888 C5891 1.387 . S
H5889 C5885 0.950 . S
H5890 C5887 0.950 . S
C5891 C5882 1.390 . S
C5891 H5884 0.950 . S
C5891 C5888 1.387 . S
C5892 C5893 1.387 . S
C5892 H5896 0.950 . S
C5892 C5901 1.390 . S
C5893 C5892 1.387 . S
C5893 C5895 1.387 . S
H5894 C5901 0.950 . S
C5895 C5893 1.387 . S
C5895 C5897 1.390 . S
C5895 H5899 0.950 . S
H5896 C5892 0.950 . S
C5897 C5895 1.390 . S
C5897 C5898 1.387 . S
C5897 H5900 0.950 . S
C5898 C5897 1.387 . S
C5898 C5901 1.387 . S
H5899 C5895 0.950 . S
H5900 C5897 0.950 . S
C5901 C5892 1.390 . S
C5901 H5894 0.950 . S
C5901 C5898 1.387 . S
C5902 C5903 1.387 . S
C5902 H5906 0.950 . S
C5902 C5911 1.390 1_554 S
C5903 C5902 1.387 . S
C5903 C5905 1.387 . S
H5904 C5911 0.950 . S
C5905 C5903 1.387 . S
C5905 C5907 1.390 1_554 S
C5905 H5909 0.950 . S
H5906 C5902 0.950 . S
C5907 C5905 1.390 1_556 S
C5907 C5908 1.387 . S
C5907 H5910 0.950 . S
C5908 C5907 1.387 . S
C5908 C5911 1.387 . S
H5909 C5905 0.950 . S
H5910 C5907 0.950 . S
C5911 C5902 1.390 1_556 S
C5911 H5904 0.950 . S
C5911 C5908 1.387 . S
C5912 C5913 1.387 . S
C5912 H5916 0.950 . S
C5912 C5921 1.390 . S
C5913 C5912 1.387 . S
C5913 C5915 1.387 . S
H5914 C5921 0.950 . S
C5915 C5913 1.387 . S
C5915 C5917 1.390 . S
C5915 H5919 0.950 . S
H5916 C5912 0.950 . S
C5917 C5915 1.390 . S
C5917 C5918 1.387 . S
C5917 H5920 0.950 . S
C5918 C5917 1.387 . S
C5918 C5921 1.387 . S
H5919 C5915 0.950 . S
H5920 C5917 0.950 . S
C5921 C5912 1.390 . S
C5921 H5914 0.950 . S
C5921 C5918 1.387 . S
C5922 C5923 1.387 . S
C5922 H5926 0.950 . S
C5922 C5931 1.390 1_556 S
C5923 C5922 1.387 . S
C5923 C5925 1.387 . S
H5924 C5931 0.950 . S
C5925 C5923 1.387 . S
C5925 C5927 1.390 1_556 S
C5925 H5929 0.950 . S
H5926 C5922 0.950 . S
C5927 C5925 1.390 1_554 S
C5927 C5928 1.387 . S
C5927 H5930 0.950 . S
C5928 C5927 1.387 . S
C5928 C5931 1.387 . S
H5929 C5925 0.950 . S
H5930 C5927 0.950 . S
C5931 C5922 1.390 1_554 S
C5931 H5924 0.950 . S
C5931 C5928 1.387 . S
C5932 C5933 1.387 . S
C5932 H5936 0.950 . S
C5932 C5941 1.390 . S
C5933 C5932 1.387 . S
C5933 C5935 1.387 . S
H5934 C5941 0.950 . S
C5935 C5933 1.387 . S
C5935 C5937 1.390 . S
C5935 H5939 0.950 . S
H5936 C5932 0.950 . S
C5937 C5935 1.390 . S
C5937 C5938 1.387 . S
C5937 H5940 0.950 . S
C5938 C5937 1.387 . S
C5938 C5941 1.387 . S
H5939 C5935 0.950 . S
H5940 C5937 0.950 . S
C5941 C5932 1.390 . S
C5941 H5934 0.950 . S
C5941 C5938 1.387 . S
C5942 C5943 1.387 . S
C5942 H5946 0.950 . S
C5942 C5951 1.390 . S
C5943 C5942 1.387 . S
C5943 C5945 1.387 . S
H5944 C5951 0.950 . S
C5945 C5943 1.387 . S
C5945 C5947 1.390 . S
C5945 H5949 0.950 . S
H5946 C5942 0.950 . S
C5947 C5945 1.390 . S
C5947 C5948 1.387 . S
C5947 H5950 0.950 . S
C5948 C5947 1.387 . S
C5948 C5951 1.387 . S
H5949 C5945 0.950 . S
H5950 C5947 0.950 . S
C5951 C5942 1.390 . S
C5951 H5944 0.950 . S
C5951 C5948 1.387 . S
C5952 C5953 1.387 . S
C5952 H5956 0.950 . S
C5952 C5961 1.390 . S
C5953 C5952 1.387 . S
C5953 C5955 1.387 . S
H5954 C5961 0.950 . S
C5955 C5953 1.387 . S
C5955 C5957 1.390 . S
C5955 H5959 0.950 . S
H5956 C5952 0.950 . S
C5957 C5955 1.390 . S
C5957 C5958 1.387 . S
C5957 H5960 0.950 . S
C5958 C5957 1.387 . S
C5958 C5961 1.387 . S
H5959 C5955 0.950 . S
H5960 C5957 0.950 . S
C5961 C5952 1.390 . S
C5961 H5954 0.950 . S
C5961 C5958 1.387 . S
C5962 C5963 1.387 . S
C5962 H5966 0.950 . S
C5962 C5971 1.390 . S
C5963 C5962 1.387 . S
C5963 C5965 1.387 . S
H5964 C5971 0.950 . S
C5965 C5963 1.387 . S
C5965 C5967 1.390 . S
C5965 H5969 0.950 . S
H5966 C5962 0.950 . S
C5967 C5965 1.390 . S
C5967 C5968 1.387 . S
C5967 H5970 0.950 . S
C5968 C5967 1.387 . S
C5968 C5971 1.387 . S
H5969 C5965 0.950 . S
H5970 C5967 0.950 . S
C5971 C5962 1.390 . S
C5971 H5964 0.950 . S
C5971 C5968 1.387 . S
C5972 C5973 1.387 . S
C5972 H5976 0.950 . S
C5972 C5981 1.390 . S
C5973 C5972 1.387 . S
C5973 C5975 1.387 . S
H5974 C5981 0.950 . S
C5975 C5973 1.387 . S
C5975 C5977 1.390 . S
C5975 H5979 0.950 . S
H5976 C5972 0.950 . S
C5977 C5975 1.390 . S
C5977 C5978 1.387 . S
C5977 H5980 0.950 . S
C5978 C5977 1.387 . S
C5978 C5981 1.387 . S
H5979 C5975 0.950 . S
H5980 C5977 0.950 . S
C5981 C5972 1.390 . S
C5981 H5974 0.950 . S
C5981 C5978 1.387 . S
C5982 C5983 1.387 . S
C5982 H5986 0.950 . S
C5982 C5991 1.390 . S
C5983 C5982 1.387 . S
C5983 C5985 1.387 . S
H5984 C5991 0.950 . S
C5985 C5983 1.387 . S
C5985 C5987 1.390 . S
C5985 H5989 0.950 . S
H5986 C5982 0.950 . S
C5987 C5985 1.390 . S
C5987 C5988 1.387 . S
C5987 H5990 0.950 . S
C5988 C5987 1.387 . S
C5988 C5991 1.387 . S
H5989 C5985 0.950 . S
H5990 C5987 0.950 . S
C5991 C5982 1.390 . S
C5991 H5984 0.950 . S
C5991 C5988 1.387 . S
C5992 C5993 1.387 . S
C5992 H5996 0.950 . S
C5992 C6001 1.390 . S
C5993 C5992 1.387 . S
C5993 C5995 1.387 . S
H5994 C6001 0.950 . S
C5995 C5993 1.387 . S
C5995 C5997 1.390 . S
C5995 H5999 0.950 . S
H5996 C5992 0.950 . S
C5997 C5995 1.390 . S
C5997 C5998 1.387 . S
C5997 H6000 0.950 . S
C5998 C5997 1.387 . S
C5998 C6001 1.387 . S
H5999 C5995 0.950 . S
H6000 C5997 0.950 . S
C6001 C5992 1.390 . S
C6001 H5994 0.950 . S
C6001 C5998 1.387 . S
C6002 C6003 1.387 . S
C6002 H6006 0.950 . S
C6002 C6011 1.390 . S
C6003 C6002 1.387 . S
C6003 C6005 1.387 . S
H6004 C6011 0.950 . S
C6005 C6003 1.387 . S
C6005 C6007 1.390 . S
C6005 H6009 0.950 . S
H6006 C6002 0.950 . S
C6007 C6005 1.390 . S
C6007 C6008 1.387 . S
C6007 H6010 0.950 . S
C6008 C6007 1.387 . S
C6008 C6011 1.387 . S
H6009 C6005 0.950 . S
H6010 C6007 0.950 . S
C6011 C6002 1.390 . S
C6011 H6004 0.950 . S
C6011 C6008 1.387 . S
C6012 C6013 1.387 . S
C6012 H6016 0.950 . S
C6012 C6021 1.390 . S
C6013 C6012 1.387 . S
C6013 C6015 1.387 . S
H6014 C6021 0.950 . S
C6015 C6013 1.387 . S
C6015 C6017 1.390 . S
C6015 H6019 0.950 . S
H6016 C6012 0.950 . S
C6017 C6015 1.390 . S
C6017 C6018 1.387 . S
C6017 H6020 0.950 . S
C6018 C6017 1.387 . S
C6018 C6021 1.387 . S
H6019 C6015 0.950 . S
H6020 C6017 0.950 . S
C6021 C6012 1.390 . S
C6021 H6014 0.950 . S
C6021 C6018 1.387 . S
C6022 C6023 1.387 . S
C6022 H6026 0.950 . S
C6022 C6031 1.390 . S
C6023 C6022 1.387 . S
C6023 C6025 1.387 . S
H6024 C6031 0.950 . S
C6025 C6023 1.387 . S
C6025 C6027 1.390 . S
C6025 H6029 0.950 . S
H6026 C6022 0.950 . S
C6027 C6025 1.390 . S
C6027 C6028 1.387 . S
C6027 H6030 0.950 . S
C6028 C6027 1.387 . S
C6028 C6031 1.387 . S
H6029 C6025 0.950 . S
H6030 C6027 0.950 . S
C6031 C6022 1.390 . S
C6031 H6024 0.950 . S
C6031 C6028 1.387 . S
C6032 C6033 1.387 . S
C6032 H6036 0.950 . S
C6032 C6041 1.390 . S
C6033 C6032 1.387 . S
C6033 C6035 1.387 . S
H6034 C6041 0.950 . S
C6035 C6033 1.387 . S
C6035 C6037 1.390 . S
C6035 H6039 0.950 . S
H6036 C6032 0.950 . S
C6037 C6035 1.390 . S
C6037 C6038 1.387 . S
C6037 H6040 0.950 . S
C6038 C6037 1.387 . S
C6038 C6041 1.387 . S
H6039 C6035 0.950 . S
H6040 C6037 0.950 . S
C6041 C6032 1.390 . S
C6041 H6034 0.950 . S
C6041 C6038 1.387 . S
C6042 C6043 1.387 . S
C6042 H6046 0.950 . S
C6042 C6051 1.390 . S
C6043 C6042 1.387 . S
C6043 C6045 1.387 . S
H6044 C6051 0.950 . S
C6045 C6043 1.387 . S
C6045 C6047 1.390 . S
C6045 H6049 0.950 . S
H6046 C6042 0.950 . S
C6047 C6045 1.390 . S
C6047 C6048 1.387 . S
C6047 H6050 0.950 . S
C6048 C6047 1.387 . S
C6048 C6051 1.387 . S
H6049 C6045 0.950 . S
H6050 C6047 0.950 . S
C6051 C6042 1.390 . S
C6051 H6044 0.950 . S
C6051 C6048 1.387 . S
C6052 C6053 1.387 . S
C6052 H6056 0.950 . S
C6052 C6061 1.390 . S
C6053 C6052 1.387 . S
C6053 C6055 1.387 . S
H6054 C6061 0.950 . S
C6055 C6053 1.387 . S
C6055 C6057 1.390 . S
C6055 H6059 0.950 . S
H6056 C6052 0.950 . S
C6057 C6055 1.390 . S
C6057 C6058 1.387 . S
C6057 H6060 0.950 . S
C6058 C6057 1.387 . S
C6058 C6061 1.387 . S
H6059 C6055 0.950 . S
H6060 C6057 0.950 . S
C6061 C6052 1.390 . S
C6061 H6054 0.950 . S
C6061 C6058 1.387 . S
C6062 C6063 1.387 . S
C6062 H6066 0.950 . S
C6062 C6071 1.390 . S
C6063 C6062 1.387 . S
C6063 C6065 1.387 . S
H6064 C6071 0.950 . S
C6065 C6063 1.387 . S
C6065 C6067 1.390 . S
C6065 H6069 0.950 . S
H6066 C6062 0.950 . S
C6067 C6065 1.390 . S
C6067 C6068 1.387 . S
C6067 H6070 0.950 . S
C6068 C6067 1.387 . S
C6068 C6071 1.387 . S
H6069 C6065 0.950 . S
H6070 C6067 0.950 . S
C6071 C6062 1.390 . S
C6071 H6064 0.950 . S
C6071 C6068 1.387 . S
C6072 C6073 1.387 . S
C6072 H6076 0.950 . S
C6072 C6081 1.390 . S
C6073 C6072 1.387 . S
C6073 C6075 1.387 . S
H6074 C6081 0.950 . S
C6075 C6073 1.387 . S
C6075 C6077 1.390 . S
C6075 H6079 0.950 . S
H6076 C6072 0.950 . S
C6077 C6075 1.390 . S
C6077 C6078 1.387 . S
C6077 H6080 0.950 . S
C6078 C6077 1.387 . S
C6078 C6081 1.387 . S
H6079 C6075 0.950 . S
H6080 C6077 0.950 . S
C6081 C6072 1.390 . S
C6081 H6074 0.950 . S
C6081 C6078 1.387 . S
C6082 C6083 1.387 . S
C6082 H6086 0.950 . S
C6082 C6091 1.390 . S
C6083 C6082 1.387 . S
C6083 C6085 1.387 . S
H6084 C6091 0.950 . S
C6085 C6083 1.387 . S
C6085 C6087 1.390 . S
C6085 H6089 0.950 . S
H6086 C6082 0.950 . S
C6087 C6085 1.390 . S
C6087 C6088 1.387 . S
C6087 H6090 0.950 . S
C6088 C6087 1.387 . S
C6088 C6091 1.387 . S
H6089 C6085 0.950 . S
H6090 C6087 0.950 . S
C6091 C6082 1.390 . S
C6091 H6084 0.950 . S
C6091 C6088 1.387 . S
C6092 C6093 1.387 . S
C6092 H6096 0.950 . S
C6092 C6101 1.390 . S
C6093 C6092 1.387 . S
C6093 C6095 1.387 . S
H6094 C6101 0.950 . S
C6095 C6093 1.387 . S
C6095 C6097 1.390 . S
C6095 H6099 0.950 . S
H6096 C6092 0.950 . S
C6097 C6095 1.390 . S
C6097 C6098 1.387 . S
C6097 H6100 0.950 . S
C6098 C6097 1.387 . S
C6098 C6101 1.387 . S
H6099 C6095 0.950 . S
H6100 C6097 0.950 . S
C6101 C6092 1.390 . S
C6101 H6094 0.950 . S
C6101 C6098 1.387 . S
C6102 C6103 1.387 . S
C6102 H6106 0.950 . S
C6102 C6111 1.390 . S
C6103 C6102 1.387 . S
C6103 C6105 1.387 . S
H6104 C6111 0.950 . S
C6105 C6103 1.387 . S
C6105 C6107 1.390 . S
C6105 H6109 0.950 . S
H6106 C6102 0.950 . S
C6107 C6105 1.390 . S
C6107 C6108 1.387 . S
C6107 H6110 0.950 . S
C6108 C6107 1.387 . S
C6108 C6111 1.387 . S
H6109 C6105 0.950 . S
H6110 C6107 0.950 . S
C6111 C6102 1.390 . S
C6111 H6104 0.950 . S
C6111 C6108 1.387 . S
C6112 C6113 1.387 . S
C6112 H6116 0.950 . S
C6112 C6121 1.390 . S
C6113 C6112 1.387 . S
C6113 C6115 1.387 . S
H6114 C6121 0.950 . S
C6115 C6113 1.387 . S
C6115 C6117 1.390 . S
C6115 H6119 0.950 . S
H6116 C6112 0.950 . S
C6117 C6115 1.390 . S
C6117 C6118 1.387 . S
C6117 H6120 0.950 . S
C6118 C6117 1.387 . S
C6118 C6121 1.387 . S
H6119 C6115 0.950 . S
H6120 C6117 0.950 . S
C6121 C6112 1.390 . S
C6121 H6114 0.950 . S
C6121 C6118 1.387 . S
C6122 C6123 1.387 . S
C6122 H6126 0.950 . S
C6122 C6131 1.390 . S
C6123 C6122 1.387 . S
C6123 C6125 1.387 . S
H6124 C6131 0.950 . S
C6125 C6123 1.387 . S
C6125 C6127 1.390 . S
C6125 H6129 0.950 . S
H6126 C6122 0.950 . S
C6127 C6125 1.390 . S
C6127 C6128 1.387 . S
C6127 H6130 0.950 . S
C6128 C6127 1.387 . S
C6128 C6131 1.387 . S
H6129 C6125 0.950 . S
H6130 C6127 0.950 . S
C6131 C6122 1.390 . S
C6131 H6124 0.950 . S
C6131 C6128 1.387 . S
C6132 C6133 1.387 . S
C6132 H6136 0.950 . S
C6132 C6141 1.390 . S
C6133 C6132 1.387 . S
C6133 C6135 1.387 . S
H6134 C6141 0.950 . S
C6135 C6133 1.387 . S
C6135 C6137 1.390 . S
C6135 H6139 0.950 . S
H6136 C6132 0.950 . S
C6137 C6135 1.390 . S
C6137 C6138 1.387 . S
C6137 H6140 0.950 . S
C6138 C6137 1.387 . S
C6138 C6141 1.387 . S
H6139 C6135 0.950 . S
H6140 C6137 0.950 . S
C6141 C6132 1.390 . S
C6141 H6134 0.950 . S
C6141 C6138 1.387 . S
C6142 C6143 1.387 . S
C6142 H6146 0.950 . S
C6142 C6151 1.390 . S
C6143 C6142 1.387 . S
C6143 C6145 1.387 . S
H6144 C6151 0.950 . S
C6145 C6143 1.387 . S
C6145 C6147 1.390 . S
C6145 H6149 0.950 . S
H6146 C6142 0.950 . S
C6147 C6145 1.390 . S
C6147 C6148 1.387 . S
C6147 H6150 0.950 . S
C6148 C6147 1.387 . S
C6148 C6151 1.387 . S
H6149 C6145 0.950 . S
H6150 C6147 0.950 . S
C6151 C6142 1.390 . S
C6151 H6144 0.950 . S
C6151 C6148 1.387 . S
C6152 C6153 1.387 . S
C6152 H6156 0.950 . S
C6152 C6161 1.390 . S
C6153 C6152 1.387 . S
C6153 C6155 1.387 . S
H6154 C6161 0.950 . S
C6155 C6153 1.387 . S
C6155 C6157 1.390 . S
C6155 H6159 0.950 . S
H6156 C6152 0.950 . S
C6157 C6155 1.390 . S
C6157 C6158 1.387 . S
C6157 H6160 0.950 . S
C6158 C6157 1.387 . S
C6158 C6161 1.387 . S
H6159 C6155 0.950 . S
H6160 C6157 0.950 . S
C6161 C6152 1.390 . S
C6161 H6154 0.950 . S
C6161 C6158 1.387 . S
C6162 C6163 1.387 . S
C6162 H6166 0.950 . S
C6162 C6171 1.390 . S
C6163 C6162 1.387 . S
C6163 C6165 1.387 . S
H6164 C6171 0.950 . S
C6165 C6163 1.387 . S
C6165 C6167 1.390 . S
C6165 H6169 0.950 . S
H6166 C6162 0.950 . S
C6167 C6165 1.390 . S
C6167 C6168 1.387 . S
C6167 H6170 0.950 . S
C6168 C6167 1.387 . S
C6168 C6171 1.387 . S
H6169 C6165 0.950 . S
H6170 C6167 0.950 . S
C6171 C6162 1.390 . S
C6171 H6164 0.950 . S
C6171 C6168 1.387 . S
C6172 C6173 1.387 . S
C6172 H6176 0.950 . S
C6172 C6181 1.390 . S
C6173 C6172 1.387 . S
C6173 C6175 1.387 . S
H6174 C6181 0.950 . S
C6175 C6173 1.387 . S
C6175 C6177 1.390 . S
C6175 H6179 0.950 . S
H6176 C6172 0.950 . S
C6177 C6175 1.390 . S
C6177 C6178 1.387 . S
C6177 H6180 0.950 . S
C6178 C6177 1.387 . S
C6178 C6181 1.387 . S
H6179 C6175 0.950 . S
H6180 C6177 0.950 . S
C6181 C6172 1.390 . S
C6181 H6174 0.950 . S
C6181 C6178 1.387 . S
C6182 C6183 1.387 . S
C6182 H6186 0.950 . S
C6182 C6191 1.390 . S
C6183 C6182 1.387 . S
C6183 C6185 1.387 . S
H6184 C6191 0.950 . S
C6185 C6183 1.387 . S
C6185 C6187 1.390 . S
C6185 H6189 0.950 . S
H6186 C6182 0.950 . S
C6187 C6185 1.390 . S
C6187 C6188 1.387 . S
C6187 H6190 0.950 . S
C6188 C6187 1.387 . S
C6188 C6191 1.387 . S
H6189 C6185 0.950 . S
H6190 C6187 0.950 . S
C6191 C6182 1.390 . S
C6191 H6184 0.950 . S
C6191 C6188 1.387 . S
C6192 C6193 1.387 . S
C6192 H6196 0.950 . S
C6192 C6201 1.390 . S
C6193 C6192 1.387 . S
C6193 C6195 1.387 . S
H6194 C6201 0.950 . S
C6195 C6193 1.387 . S
C6195 C6197 1.390 . S
C6195 H6199 0.950 . S
H6196 C6192 0.950 . S
C6197 C6195 1.390 . S
C6197 C6198 1.387 . S
C6197 H6200 0.950 . S
C6198 C6197 1.387 . S
C6198 C6201 1.387 . S
H6199 C6195 0.950 . S
H6200 C6197 0.950 . S
C6201 C6192 1.390 . S
C6201 H6194 0.950 . S
C6201 C6198 1.387 . S
C6202 C6203 1.387 . S
C6202 H6206 0.950 . S
C6202 C6211 1.390 . S
C6203 C6202 1.387 . S
C6203 C6205 1.387 . S
H6204 C6211 0.950 . S
C6205 C6203 1.387 . S
C6205 C6207 1.390 . S
C6205 H6209 0.950 . S
H6206 C6202 0.950 . S
C6207 C6205 1.390 . S
C6207 C6208 1.387 . S
C6207 H6210 0.950 . S
C6208 C6207 1.387 . S
C6208 C6211 1.387 . S
H6209 C6205 0.950 . S
H6210 C6207 0.950 . S
C6211 C6202 1.390 . S
C6211 H6204 0.950 . S
C6211 C6208 1.387 . S
C6212 C6213 1.387 . S
C6212 H6216 0.950 . S
C6212 C6221 1.390 . S
C6213 C6212 1.387 . S
C6213 C6215 1.387 . S
H6214 C6221 0.950 . S
C6215 C6213 1.387 . S
C6215 C6217 1.390 . S
C6215 H6219 0.950 . S
H6216 C6212 0.950 . S
C6217 C6215 1.390 . S
C6217 C6218 1.387 . S
C6217 H6220 0.950 . S
C6218 C6217 1.387 . S
C6218 C6221 1.387 . S
H6219 C6215 0.950 . S
H6220 C6217 0.950 . S
C6221 C6212 1.390 . S
C6221 H6214 0.950 . S
C6221 C6218 1.387 . S
C6222 C6223 1.387 . S
C6222 H6226 0.950 . S
C6222 C6231 1.390 . S
C6223 C6222 1.387 . S
C6223 C6225 1.387 . S
H6224 C6231 0.950 . S
C6225 C6223 1.387 . S
C6225 C6227 1.390 . S
C6225 H6229 0.950 . S
H6226 C6222 0.950 . S
C6227 C6225 1.390 . S
C6227 C6228 1.387 . S
C6227 H6230 0.950 . S
C6228 C6227 1.387 . S
C6228 C6231 1.387 . S
H6229 C6225 0.950 . S
H6230 C6227 0.950 . S
C6231 C6222 1.390 . S
C6231 H6224 0.950 . S
C6231 C6228 1.387 . S
C6232 C6233 1.387 . S
C6232 H6236 0.950 . S
C6232 C6241 1.390 . S
C6233 C6232 1.387 . S
C6233 C6235 1.387 . S
H6234 C6241 0.950 . S
C6235 C6233 1.387 . S
C6235 C6237 1.390 . S
C6235 H6239 0.950 . S
H6236 C6232 0.950 . S
C6237 C6235 1.390 . S
C6237 C6238 1.387 . S
C6237 H6240 0.950 . S
C6238 C6237 1.387 . S
C6238 C6241 1.387 . S
H6239 C6235 0.950 . S
H6240 C6237 0.950 . S
C6241 C6232 1.390 . S
C6241 H6234 0.950 . S
C6241 C6238 1.387 . S
C6242 C6243 1.387 . S
C6242 H6246 0.950 . S
C6242 C6251 1.390 . S
C6243 C6242 1.387 . S
C6243 C6245 1.387 . S
H6244 C6251 0.950 . S
C6245 C6243 1.387 . S
C6245 C6247 1.390 . S
C6245 H6249 0.950 . S
H6246 C6242 0.950 . S
C6247 C6245 1.390 . S
C6247 C6248 1.387 . S
C6247 H6250 0.950 . S
C6248 C6247 1.387 . S
C6248 C6251 1.387 . S
H6249 C6245 0.950 . S
H6250 C6247 0.950 . S
C6251 C6242 1.390 . S
C6251 H6244 0.950 . S
C6251 C6248 1.387 . S
C6252 C6253 1.387 . S
C6252 H6256 0.950 . S
C6252 C6261 1.390 . S
C6253 C6252 1.387 . S
C6253 C6255 1.387 . S
H6254 C6261 0.950 . S
C6255 C6253 1.387 . S
C6255 C6257 1.390 . S
C6255 H6259 0.950 . S
H6256 C6252 0.950 . S
C6257 C6255 1.390 . S
C6257 C6258 1.387 . S
C6257 H6260 0.950 . S
C6258 C6257 1.387 . S
C6258 C6261 1.387 . S
H6259 C6255 0.950 . S
H6260 C6257 0.950 . S
C6261 C6252 1.390 . S
C6261 H6254 0.950 . S
C6261 C6258 1.387 . S
C6262 C6263 1.387 . S
C6262 H6266 0.950 . S
C6262 C6271 1.390 . S
C6263 C6262 1.387 . S
C6263 C6265 1.387 . S
H6264 C6271 0.950 . S
C6265 C6263 1.387 . S
C6265 C6267 1.390 . S
C6265 H6269 0.950 . S
H6266 C6262 0.950 . S
C6267 C6265 1.390 . S
C6267 C6268 1.387 . S
C6267 H6270 0.950 . S
C6268 C6267 1.387 . S
C6268 C6271 1.387 . S
H6269 C6265 0.950 . S
H6270 C6267 0.950 . S
C6271 C6262 1.390 . S
C6271 H6264 0.950 . S
C6271 C6268 1.387 . S
C6272 C6273 1.387 . S
C6272 H6276 0.950 . S
C6272 C6281 1.390 . S
C6273 C6272 1.387 . S
C6273 C6275 1.387 . S
H6274 C6281 0.950 . S
C6275 C6273 1.387 . S
C6275 C6277 1.390 . S
C6275 H6279 0.950 . S
H6276 C6272 0.950 . S
C6277 C6275 1.390 . S
C6277 C6278 1.387 . S
C6277 H6280 0.950 . S
C6278 C6277 1.387 . S
C6278 C6281 1.387 . S
H6279 C6275 0.950 . S
H6280 C6277 0.950 . S
C6281 C6272 1.390 . S
C6281 H6274 0.950 . S
C6281 C6278 1.387 . S
C6282 C6283 1.387 . S
C6282 H6286 0.950 . S
C6282 C6291 1.390 . S
C6283 C6282 1.387 . S
C6283 C6285 1.387 . S
H6284 C6291 0.950 . S
C6285 C6283 1.387 . S
C6285 C6287 1.390 . S
C6285 H6289 0.950 . S
H6286 C6282 0.950 . S
C6287 C6285 1.390 . S
C6287 C6288 1.387 . S
C6287 H6290 0.950 . S
C6288 C6287 1.387 . S
C6288 C6291 1.387 . S
H6289 C6285 0.950 . S
H6290 C6287 0.950 . S
C6291 C6282 1.390 . S
C6291 H6284 0.950 . S
C6291 C6288 1.387 . S
C6292 C6293 1.387 . S
C6292 H6296 0.950 . S
C6292 C6301 1.390 . S
C6293 C6292 1.387 . S
C6293 C6295 1.387 . S
H6294 C6301 0.950 . S
C6295 C6293 1.387 . S
C6295 C6297 1.390 . S
C6295 H6299 0.950 . S
H6296 C6292 0.950 . S
C6297 C6295 1.390 . S
C6297 C6298 1.387 . S
C6297 H6300 0.950 . S
C6298 C6297 1.387 . S
C6298 C6301 1.387 . S
H6299 C6295 0.950 . S
H6300 C6297 0.950 . S
C6301 C6292 1.390 . S
C6301 H6294 0.950 . S
C6301 C6298 1.387 . S
C6302 C6303 1.387 . S
C6302 H6306 0.950 . S
C6302 C6311 1.390 . S
C6303 C6302 1.387 . S
C6303 C6305 1.387 . S
H6304 C6311 0.950 . S
C6305 C6303 1.387 . S
C6305 C6307 1.390 . S
C6305 H6309 0.950 . S
H6306 C6302 0.950 . S
C6307 C6305 1.390 . S
C6307 C6308 1.387 . S
C6307 H6310 0.950 . S
C6308 C6307 1.387 . S
C6308 C6311 1.387 . S
H6309 C6305 0.950 . S
H6310 C6307 0.950 . S
C6311 C6302 1.390 . S
C6311 H6304 0.950 . S
C6311 C6308 1.387 . S
C6312 C6313 1.387 . S
C6312 H6316 0.950 . S
C6312 C6321 1.390 . S
C6313 C6312 1.387 . S
C6313 C6315 1.387 . S
H6314 C6321 0.950 . S
C6315 C6313 1.387 . S
C6315 C6317 1.390 . S
C6315 H6319 0.950 . S
H6316 C6312 0.950 . S
C6317 C6315 1.390 . S
C6317 C6318 1.387 . S
C6317 H6320 0.950 . S
C6318 C6317 1.387 . S
C6318 C6321 1.387 . S
H6319 C6315 0.950 . S
H6320 C6317 0.950 . S
C6321 C6312 1.390 . S
C6321 H6314 0.950 . S
C6321 C6318 1.387 . S
C6322 C6323 1.387 . S
C6322 H6326 0.950 . S
C6322 C6331 1.390 . S
C6323 C6322 1.387 . S
C6323 C6325 1.387 . S
H6324 C6331 0.950 . S
C6325 C6323 1.387 . S
C6325 C6327 1.390 . S
C6325 H6329 0.950 . S
H6326 C6322 0.950 . S
C6327 C6325 1.390 . S
C6327 C6328 1.387 . S
C6327 H6330 0.950 . S
C6328 C6327 1.387 . S
C6328 C6331 1.387 . S
H6329 C6325 0.950 . S
H6330 C6327 0.950 . S
C6331 C6322 1.390 . S
C6331 H6324 0.950 . S
C6331 C6328 1.387 . S
C6332 C6333 1.387 . S
C6332 H6336 0.950 . S
C6332 C6341 1.390 . S
C6333 C6332 1.387 . S
C6333 C6335 1.387 . S
H6334 C6341 0.950 . S
C6335 C6333 1.387 . S
C6335 C6337 1.390 . S
C6335 H6339 0.950 . S
H6336 C6332 0.950 . S
C6337 C6335 1.390 . S
C6337 C6338 1.387 . S
C6337 H6340 0.950 . S
C6338 C6337 1.387 . S
C6338 C6341 1.387 . S
H6339 C6335 0.950 . S
H6340 C6337 0.950 . S
C6341 C6332 1.390 . S
C6341 H6334 0.950 . S
C6341 C6338 1.387 . S
C6342 C6343 1.387 . S
C6342 H6346 0.950 . S
C6342 C6351 1.390 . S
C6343 C6342 1.387 . S
C6343 C6345 1.387 . S
H6344 C6351 0.950 . S
C6345 C6343 1.387 . S
C6345 C6347 1.390 . S
C6345 H6349 0.950 . S
H6346 C6342 0.950 . S
C6347 C6345 1.390 . S
C6347 C6348 1.387 . S
C6347 H6350 0.950 . S
C6348 C6347 1.387 . S
C6348 C6351 1.387 . S
H6349 C6345 0.950 . S
H6350 C6347 0.950 . S
C6351 C6342 1.390 . S
C6351 H6344 0.950 . S
C6351 C6348 1.387 . S
C6352 C6353 1.387 . S
C6352 H6356 0.950 . S
C6352 C6361 1.390 . S
C6353 C6352 1.387 . S
C6353 C6355 1.387 . S
H6354 C6361 0.950 . S
C6355 C6353 1.387 . S
C6355 C6357 1.390 . S
C6355 H6359 0.950 . S
H6356 C6352 0.950 . S
C6357 C6355 1.390 . S
C6357 C6358 1.387 . S
C6357 H6360 0.950 . S
C6358 C6357 1.387 . S
C6358 C6361 1.387 . S
H6359 C6355 0.950 . S
H6360 C6357 0.950 . S
C6361 C6352 1.390 . S
C6361 H6354 0.950 . S
C6361 C6358 1.387 . S
C6362 C6363 1.387 . S
C6362 H6366 0.950 . S
C6362 C6371 1.390 . S
C6363 C6362 1.387 . S
C6363 C6365 1.387 . S
H6364 C6371 0.950 . S
C6365 C6363 1.387 . S
C6365 C6367 1.390 . S
C6365 H6369 0.950 . S
H6366 C6362 0.950 . S
C6367 C6365 1.390 . S
C6367 C6368 1.387 . S
C6367 H6370 0.950 . S
C6368 C6367 1.387 . S
C6368 C6371 1.387 . S
H6369 C6365 0.950 . S
H6370 C6367 0.950 . S
C6371 C6362 1.390 . S
C6371 H6364 0.950 . S
C6371 C6368 1.387 . S
C6372 C6373 1.387 . S
C6372 H6376 0.950 . S
C6372 C6381 1.390 . S
C6373 C6372 1.387 . S
C6373 C6375 1.387 . S
H6374 C6381 0.950 . S
C6375 C6373 1.387 . S
C6375 C6377 1.390 . S
C6375 H6379 0.950 . S
H6376 C6372 0.950 . S
C6377 C6375 1.390 . S
C6377 C6378 1.387 . S
C6377 H6380 0.950 . S
C6378 C6377 1.387 . S
C6378 C6381 1.387 . S
H6379 C6375 0.950 . S
H6380 C6377 0.950 . S
C6381 C6372 1.390 . S
C6381 H6374 0.950 . S
C6381 C6378 1.387 . S
C6382 C6383 1.387 . S
C6382 H6386 0.950 . S
C6382 C6391 1.390 . S
C6383 C6382 1.387 . S
C6383 C6385 1.387 . S
H6384 C6391 0.950 . S
C6385 C6383 1.387 . S
C6385 C6387 1.390 . S
C6385 H6389 0.950 . S
H6386 C6382 0.950 . S
C6387 C6385 1.390 . S
C6387 C6388 1.387 . S
C6387 H6390 0.950 . S
C6388 C6387 1.387 . S
C6388 C6391 1.387 . S
H6389 C6385 0.950 . S
H6390 C6387 0.950 . S
C6391 C6382 1.390 . S
C6391 H6384 0.950 . S
C6391 C6388 1.387 . S
C6392 C6393 1.387 . S
C6392 H6396 0.950 . S
C6392 C6401 1.390 . S
C6393 C6392 1.387 . S
C6393 C6395 1.387 . S
H6394 C6401 0.950 . S
C6395 C6393 1.387 . S
C6395 C6397 1.390 . S
C6395 H6399 0.950 . S
H6396 C6392 0.950 . S
C6397 C6395 1.390 . S
C6397 C6398 1.387 . S
C6397 H6400 0.950 . S
C6398 C6397 1.387 . S
C6398 C6401 1.387 . S
H6399 C6395 0.950 . S
H6400 C6397 0.950 . S
C6401 C6392 1.390 . S
C6401 H6394 0.950 . S
C6401 C6398 1.387 . S
C6402 C6403 1.387 . S
C6402 H6406 0.950 . S
C6402 C6411 1.390 . S
C6403 C6402 1.387 . S
C6403 C6405 1.387 . S
H6404 C6411 0.950 . S
C6405 C6403 1.387 . S
C6405 C6407 1.390 . S
C6405 H6409 0.950 . S
H6406 C6402 0.950 . S
C6407 C6405 1.390 . S
C6407 C6408 1.387 . S
C6407 H6410 0.950 . S
C6408 C6407 1.387 . S
C6408 C6411 1.387 . S
H6409 C6405 0.950 . S
H6410 C6407 0.950 . S
C6411 C6402 1.390 . S
C6411 H6404 0.950 . S
C6411 C6408 1.387 . S
C6412 C6413 1.387 . S
C6412 H6416 0.950 . S
C6412 C6421 1.390 . S
C6413 C6412 1.387 . S
C6413 C6415 1.387 . S
H6414 C6421 0.950 . S
C6415 C6413 1.387 . S
C6415 C6417 1.390 . S
C6415 H6419 0.950 . S
H6416 C6412 0.950 . S
C6417 C6415 1.390 . S
C6417 C6418 1.387 . S
C6417 H6420 0.950 . S
C6418 C6417 1.387 . S
C6418 C6421 1.387 . S
H6419 C6415 0.950 . S
H6420 C6417 0.950 . S
C6421 C6412 1.390 . S
C6421 H6414 0.950 . S
C6421 C6418 1.387 . S
C6422 C6423 1.387 . S
C6422 H6426 0.950 . S
C6422 C6431 1.390 . S
C6423 C6422 1.387 . S
C6423 C6425 1.387 . S
H6424 C6431 0.950 . S
C6425 C6423 1.387 . S
C6425 C6427 1.390 . S
C6425 H6429 0.950 . S
H6426 C6422 0.950 . S
C6427 C6425 1.390 . S
C6427 C6428 1.387 . S
C6427 H6430 0.950 . S
C6428 C6427 1.387 . S
C6428 C6431 1.387 . S
H6429 C6425 0.950 . S
H6430 C6427 0.950 . S
C6431 C6422 1.390 . S
C6431 H6424 0.950 . S
C6431 C6428 1.387 . S
C6432 C6433 1.387 . S
C6432 H6436 0.950 . S
C6432 C6441 1.390 . S
C6433 C6432 1.387 . S
C6433 C6435 1.387 . S
H6434 C6441 0.950 . S
C6435 C6433 1.387 . S
C6435 C6437 1.390 . S
C6435 H6439 0.950 . S
H6436 C6432 0.950 . S
C6437 C6435 1.390 . S
C6437 C6438 1.387 . S
C6437 H6440 0.950 . S
C6438 C6437 1.387 . S
C6438 C6441 1.387 . S
H6439 C6435 0.950 . S
H6440 C6437 0.950 . S
C6441 C6432 1.390 . S
C6441 H6434 0.950 . S
C6441 C6438 1.387 . S
C6442 C6443 1.387 . S
C6442 H6446 0.950 . S
C6442 C6451 1.390 . S
C6443 C6442 1.387 . S
C6443 C6445 1.387 . S
H6444 C6451 0.950 . S
C6445 C6443 1.387 . S
C6445 C6447 1.390 . S
C6445 H6449 0.950 . S
H6446 C6442 0.950 . S
C6447 C6445 1.390 . S
C6447 C6448 1.387 . S
C6447 H6450 0.950 . S
C6448 C6447 1.387 . S
C6448 C6451 1.387 . S
H6449 C6445 0.950 . S
H6450 C6447 0.950 . S
C6451 C6442 1.390 . S
C6451 H6444 0.950 . S
C6451 C6448 1.387 . S
C6452 C6453 1.387 . S
C6452 H6456 0.950 . S
C6452 C6461 1.390 . S
C6453 C6452 1.387 . S
C6453 C6455 1.387 . S
H6454 C6461 0.950 . S
C6455 C6453 1.387 . S
C6455 C6457 1.390 . S
C6455 H6459 0.950 . S
H6456 C6452 0.950 . S
C6457 C6455 1.390 . S
C6457 C6458 1.387 . S
C6457 H6460 0.950 . S
C6458 C6457 1.387 . S
C6458 C6461 1.387 . S
H6459 C6455 0.950 . S
H6460 C6457 0.950 . S
C6461 C6452 1.390 . S
C6461 H6454 0.950 . S
C6461 C6458 1.387 . S
C6462 C6463 1.387 . S
C6462 H6466 0.950 . S
C6462 C6471 1.390 . S
C6463 C6462 1.387 . S
C6463 C6465 1.387 . S
H6464 C6471 0.950 . S
C6465 C6463 1.387 . S
C6465 C6467 1.390 . S
C6465 H6469 0.950 . S
H6466 C6462 0.950 . S
C6467 C6465 1.390 . S
C6467 C6468 1.387 . S
C6467 H6470 0.950 . S
C6468 C6467 1.387 . S
C6468 C6471 1.387 . S
H6469 C6465 0.950 . S
H6470 C6467 0.950 . S
C6471 C6462 1.390 . S
C6471 H6464 0.950 . S
C6471 C6468 1.387 . S
C6472 C6473 1.387 . S
C6472 H6476 0.950 . S
C6472 C6481 1.390 . S
C6473 C6472 1.387 . S
C6473 C6475 1.387 . S
H6474 C6481 0.950 . S
C6475 C6473 1.387 . S
C6475 C6477 1.390 . S
C6475 H6479 0.950 . S
H6476 C6472 0.950 . S
C6477 C6475 1.390 . S
C6477 C6478 1.387 . S
C6477 H6480 0.950 . S
C6478 C6477 1.387 . S
C6478 C6481 1.387 . S
H6479 C6475 0.950 . S
H6480 C6477 0.950 . S
C6481 C6472 1.390 . S
C6481 H6474 0.950 . S
C6481 C6478 1.387 . S
C6482 C6483 1.387 . S
C6482 H6486 0.950 . S
C6482 C6491 1.390 . S
C6483 C6482 1.387 . S
C6483 C6485 1.387 . S
H6484 C6491 0.950 . S
C6485 C6483 1.387 . S
C6485 C6487 1.390 . S
C6485 H6489 0.950 . S
H6486 C6482 0.950 . S
C6487 C6485 1.390 . S
C6487 C6488 1.387 . S
C6487 H6490 0.950 . S
C6488 C6487 1.387 . S
C6488 C6491 1.387 . S
H6489 C6485 0.950 . S
H6490 C6487 0.950 . S
C6491 C6482 1.390 . S
C6491 H6484 0.950 . S
C6491 C6488 1.387 . S
C6492 C6493 1.387 . S
C6492 H6496 0.950 . S
C6492 C6501 1.390 . S
C6493 C6492 1.387 . S
C6493 C6495 1.387 . S
H6494 C6501 0.950 . S
C6495 C6493 1.387 . S
C6495 C6497 1.390 . S
C6495 H6499 0.950 . S
H6496 C6492 0.950 . S
C6497 C6495 1.390 . S
C6497 C6498 1.387 . S
C6497 H6500 0.950 . S
C6498 C6497 1.387 . S
C6498 C6501 1.387 . S
H6499 C6495 0.950 . S
H6500 C6497 0.950 . S
C6501 C6492 1.390 . S
C6501 H6494 0.950 . S
C6501 C6498 1.387 . S
C6502 C6503 1.387 . S
C6502 H6506 0.950 . S
C6502 C6511 1.390 . S
C6503 C6502 1.387 . S
C6503 C6505 1.387 . S
H6504 C6511 0.950 . S
C6505 C6503 1.387 . S
C6505 C6507 1.390 . S
C6505 H6509 0.950 . S
H6506 C6502 0.950 . S
C6507 C6505 1.390 . S
C6507 C6508 1.387 . S
C6507 H6510 0.950 . S
C6508 C6507 1.387 . S
C6508 C6511 1.387 . S
H6509 C6505 0.950 . S
H6510 C6507 0.950 . S
C6511 C6502 1.390 . S
C6511 H6504 0.950 . S
C6511 C6508 1.387 . S
C6512 C6513 1.387 . S
C6512 H6516 0.950 . S
C6512 C6521 1.390 . S
C6513 C6512 1.387 . S
C6513 C6515 1.387 . S
H6514 C6521 0.950 . S
C6515 C6513 1.387 . S
C6515 C6517 1.390 . S
C6515 H6519 0.950 . S
H6516 C6512 0.950 . S
C6517 C6515 1.390 . S
C6517 C6518 1.387 . S
C6517 H6520 0.950 . S
C6518 C6517 1.387 . S
C6518 C6521 1.387 . S
H6519 C6515 0.950 . S
H6520 C6517 0.950 . S
C6521 C6512 1.390 . S
C6521 H6514 0.950 . S
C6521 C6518 1.387 . S
C6522 C6523 1.387 . S
C6522 H6526 0.950 . S
C6522 C6531 1.390 . S
C6523 C6522 1.387 . S
C6523 C6525 1.387 . S
H6524 C6531 0.950 . S
C6525 C6523 1.387 . S
C6525 C6527 1.390 . S
C6525 H6529 0.950 . S
H6526 C6522 0.950 . S
C6527 C6525 1.390 . S
C6527 C6528 1.387 . S
C6527 H6530 0.950 . S
C6528 C6527 1.387 . S
C6528 C6531 1.387 . S
H6529 C6525 0.950 . S
H6530 C6527 0.950 . S
C6531 C6522 1.390 . S
C6531 H6524 0.950 . S
C6531 C6528 1.387 . S
C6532 C6533 1.387 . S
C6532 H6536 0.950 . S
C6532 C6541 1.390 . S
C6533 C6532 1.387 . S
C6533 C6535 1.387 . S
H6534 C6541 0.950 . S
C6535 C6533 1.387 . S
C6535 C6537 1.390 . S
C6535 H6539 0.950 . S
H6536 C6532 0.950 . S
C6537 C6535 1.390 . S
C6537 C6538 1.387 . S
C6537 H6540 0.950 . S
C6538 C6537 1.387 . S
C6538 C6541 1.387 . S
H6539 C6535 0.950 . S
H6540 C6537 0.950 . S
C6541 C6532 1.390 . S
C6541 H6534 0.950 . S
C6541 C6538 1.387 . S
C6542 C6543 1.387 . S
C6542 H6546 0.950 . S
C6542 C6551 1.390 . S
C6543 C6542 1.387 . S
C6543 C6545 1.387 . S
H6544 C6551 0.950 . S
C6545 C6543 1.387 . S
C6545 C6547 1.390 . S
C6545 H6549 0.950 . S
H6546 C6542 0.950 . S
C6547 C6545 1.390 . S
C6547 C6548 1.387 . S
C6547 H6550 0.950 . S
C6548 C6547 1.387 . S
C6548 C6551 1.387 . S
H6549 C6545 0.950 . S
H6550 C6547 0.950 . S
C6551 C6542 1.390 . S
C6551 H6544 0.950 . S
C6551 C6548 1.387 . S
C6552 C6553 1.387 . S
C6552 H6556 0.950 . S
C6552 C6561 1.390 . S
C6553 C6552 1.387 . S
C6553 C6555 1.387 . S
H6554 C6561 0.950 . S
C6555 C6553 1.387 . S
C6555 C6557 1.390 . S
C6555 H6559 0.950 . S
H6556 C6552 0.950 . S
C6557 C6555 1.390 . S
C6557 C6558 1.387 . S
C6557 H6560 0.950 . S
C6558 C6557 1.387 . S
C6558 C6561 1.387 . S
H6559 C6555 0.950 . S
H6560 C6557 0.950 . S
C6561 C6552 1.390 . S
C6561 H6554 0.950 . S
C6561 C6558 1.387 . S
C6562 C6563 1.387 . S
C6562 H6566 0.950 . S
C6562 C6571 1.390 . S
C6563 C6562 1.387 . S
C6563 C6565 1.387 . S
H6564 C6571 0.950 . S
C6565 C6563 1.387 . S
C6565 C6567 1.390 . S
C6565 H6569 0.950 . S
H6566 C6562 0.950 . S
C6567 C6565 1.390 . S
C6567 C6568 1.387 . S
C6567 H6570 0.950 . S
C6568 C6567 1.387 . S
C6568 C6571 1.387 . S
H6569 C6565 0.950 . S
H6570 C6567 0.950 . S
C6571 C6562 1.390 . S
C6571 H6564 0.950 . S
C6571 C6568 1.387 . S
C6572 C6573 1.387 . S
C6572 H6576 0.950 . S
C6572 C6581 1.390 . S
C6573 C6572 1.387 . S
C6573 C6575 1.387 . S
H6574 C6581 0.950 . S
C6575 C6573 1.387 . S
C6575 C6577 1.390 . S
C6575 H6579 0.950 . S
H6576 C6572 0.950 . S
C6577 C6575 1.390 . S
C6577 C6578 1.387 . S
C6577 H6580 0.950 . S
C6578 C6577 1.387 . S
C6578 C6581 1.387 . S
H6579 C6575 0.950 . S
H6580 C6577 0.950 . S
C6581 C6572 1.390 . S
C6581 H6574 0.950 . S
C6581 C6578 1.387 . S
C6582 C6583 1.387 . S
C6582 H6586 0.950 . S
C6582 C6591 1.390 . S
C6583 C6582 1.387 . S
C6583 C6585 1.387 . S
H6584 C6591 0.950 . S
C6585 C6583 1.387 . S
C6585 C6587 1.390 . S
C6585 H6589 0.950 . S
H6586 C6582 0.950 . S
C6587 C6585 1.390 . S
C6587 C6588 1.387 . S
C6587 H6590 0.950 . S
C6588 C6587 1.387 . S
C6588 C6591 1.387 . S
H6589 C6585 0.950 . S
H6590 C6587 0.950 . S
C6591 C6582 1.390 . S
C6591 H6584 0.950 . S
C6591 C6588 1.387 . S
C6592 C6593 1.387 . S
C6592 H6596 0.950 . S
C6592 C6601 1.390 . S
C6593 C6592 1.387 . S
C6593 C6595 1.387 . S
H6594 C6601 0.950 . S
C6595 C6593 1.387 . S
C6595 C6597 1.390 . S
C6595 H6599 0.950 . S
H6596 C6592 0.950 . S
C6597 C6595 1.390 . S
C6597 C6598 1.387 . S
C6597 H6600 0.950 . S
C6598 C6597 1.387 . S
C6598 C6601 1.387 . S
H6599 C6595 0.950 . S
H6600 C6597 0.950 . S
C6601 C6592 1.390 . S
C6601 H6594 0.950 . S
C6601 C6598 1.387 . S
C6602 C6603 1.387 . S
C6602 H6606 0.950 . S
C6602 C6611 1.390 . S
C6603 C6602 1.387 . S
C6603 C6605 1.387 . S
H6604 C6611 0.950 . S
C6605 C6603 1.387 . S
C6605 C6607 1.390 . S
C6605 H6609 0.950 . S
H6606 C6602 0.950 . S
C6607 C6605 1.390 . S
C6607 C6608 1.387 . S
C6607 H6610 0.950 . S
C6608 C6607 1.387 . S
C6608 C6611 1.387 . S
H6609 C6605 0.950 . S
H6610 C6607 0.950 . S
C6611 C6602 1.390 . S
C6611 H6604 0.950 . S
C6611 C6608 1.387 . S
C6612 C6613 1.387 . S
C6612 H6616 0.950 . S
C6612 C6621 1.390 . S
C6613 C6612 1.387 . S
C6613 C6615 1.387 . S
H6614 C6621 0.950 . S
C6615 C6613 1.387 . S
C6615 C6617 1.390 . S
C6615 H6619 0.950 . S
H6616 C6612 0.950 . S
C6617 C6615 1.390 . S
C6617 C6618 1.387 . S
C6617 H6620 0.950 . S
C6618 C6617 1.387 . S
C6618 C6621 1.387 . S
H6619 C6615 0.950 . S
H6620 C6617 0.950 . S
C6621 C6612 1.390 . S
C6621 H6614 0.950 . S
C6621 C6618 1.387 . S
C6622 C6623 1.387 . S
C6622 H6626 0.950 . S
C6622 C6631 1.390 . S
C6623 C6622 1.387 . S
C6623 C6625 1.387 . S
H6624 C6631 0.950 . S
C6625 C6623 1.387 . S
C6625 C6627 1.390 . S
C6625 H6629 0.950 . S
H6626 C6622 0.950 . S
C6627 C6625 1.390 . S
C6627 C6628 1.387 . S
C6627 H6630 0.950 . S
C6628 C6627 1.387 . S
C6628 C6631 1.387 . S
H6629 C6625 0.950 . S
H6630 C6627 0.950 . S
C6631 C6622 1.390 . S
C6631 H6624 0.950 . S
C6631 C6628 1.387 . S
C6632 C6633 1.387 . S
C6632 H6636 0.950 . S
C6632 C6641 1.390 . S
C6633 C6632 1.387 . S
C6633 C6635 1.387 . S
H6634 C6641 0.950 . S
C6635 C6633 1.387 . S
C6635 C6637 1.390 . S
C6635 H6639 0.950 . S
H6636 C6632 0.950 . S
C6637 C6635 1.390 . S
C6637 C6638 1.387 . S
C6637 H6640 0.950 . S
C6638 C6637 1.387 . S
C6638 C6641 1.387 . S
H6639 C6635 0.950 . S
H6640 C6637 0.950 . S
C6641 C6632 1.390 . S
C6641 H6634 0.950 . S
C6641 C6638 1.387 . S
C6642 C6643 1.387 . S
C6642 H6646 0.950 . S
C6642 C6651 1.390 . S
C6643 C6642 1.387 . S
C6643 C6645 1.387 . S
H6644 C6651 0.950 . S
C6645 C6643 1.387 . S
C6645 C6647 1.390 . S
C6645 H6649 0.950 . S
H6646 C6642 0.950 . S
C6647 C6645 1.390 . S
C6647 C6648 1.387 . S
C6647 H6650 0.950 . S
C6648 C6647 1.387 . S
C6648 C6651 1.387 . S
H6649 C6645 0.950 . S
H6650 C6647 0.950 . S
C6651 C6642 1.390 . S
C6651 H6644 0.950 . S
C6651 C6648 1.387 . S
C6652 C6653 1.387 . S
C6652 H6656 0.950 . S
C6652 C6661 1.390 . S
C6653 C6652 1.387 . S
C6653 C6655 1.387 . S
H6654 C6661 0.950 . S
C6655 C6653 1.387 . S
C6655 C6657 1.390 . S
C6655 H6659 0.950 . S
H6656 C6652 0.950 . S
C6657 C6655 1.390 . S
C6657 C6658 1.387 . S
C6657 H6660 0.950 . S
C6658 C6657 1.387 . S
C6658 C6661 1.387 . S
H6659 C6655 0.950 . S
H6660 C6657 0.950 . S
C6661 C6652 1.390 . S
C6661 H6654 0.950 . S
C6661 C6658 1.387 . S
C6662 C6663 1.387 . S
C6662 H6666 0.950 . S
C6662 C6671 1.390 . S
C6663 C6662 1.387 . S
C6663 C6665 1.387 . S
H6664 C6671 0.950 . S
C6665 C6663 1.387 . S
C6665 C6667 1.390 . S
C6665 H6669 0.950 . S
H6666 C6662 0.950 . S
C6667 C6665 1.390 . S
C6667 C6668 1.387 . S
C6667 H6670 0.950 . S
C6668 C6667 1.387 . S
C6668 C6671 1.387 . S
H6669 C6665 0.950 . S
H6670 C6667 0.950 . S
C6671 C6662 1.390 . S
C6671 H6664 0.950 . S
C6671 C6668 1.387 . S
C6672 C6673 1.387 . S
C6672 H6676 0.950 . S
C6672 C6681 1.390 . S
C6673 C6672 1.387 . S
C6673 C6675 1.387 . S
H6674 C6681 0.950 . S
C6675 C6673 1.387 . S
C6675 C6677 1.390 . S
C6675 H6679 0.950 . S
H6676 C6672 0.950 . S
C6677 C6675 1.390 . S
C6677 C6678 1.387 . S
C6677 H6680 0.950 . S
C6678 C6677 1.387 . S
C6678 C6681 1.387 . S
H6679 C6675 0.950 . S
H6680 C6677 0.950 . S
C6681 C6672 1.390 . S
C6681 H6674 0.950 . S
C6681 C6678 1.387 . S
C6682 C6683 1.387 . S
C6682 H6686 0.950 . S
C6682 C6691 1.390 . S
C6683 C6682 1.387 . S
C6683 C6685 1.387 . S
H6684 C6691 0.950 . S
C6685 C6683 1.387 . S
C6685 C6687 1.390 . S
C6685 H6689 0.950 . S
H6686 C6682 0.950 . S
C6687 C6685 1.390 . S
C6687 C6688 1.387 . S
C6687 H6690 0.950 . S
C6688 C6687 1.387 . S
C6688 C6691 1.387 . S
H6689 C6685 0.950 . S
H6690 C6687 0.950 . S
C6691 C6682 1.390 . S
C6691 H6684 0.950 . S
C6691 C6688 1.387 . S
C6692 C6693 1.387 . S
C6692 H6696 0.950 . S
C6692 C6701 1.390 . S
C6693 C6692 1.387 . S
C6693 C6695 1.387 . S
H6694 C6701 0.950 . S
C6695 C6693 1.387 . S
C6695 C6697 1.390 . S
C6695 H6699 0.950 . S
H6696 C6692 0.950 . S
C6697 C6695 1.390 . S
C6697 C6698 1.387 . S
C6697 H6700 0.950 . S
C6698 C6697 1.387 . S
C6698 C6701 1.387 . S
H6699 C6695 0.950 . S
H6700 C6697 0.950 . S
C6701 C6692 1.390 . S
C6701 H6694 0.950 . S
C6701 C6698 1.387 . S
C6702 C6703 1.387 . S
C6702 H6706 0.950 . S
C6702 C6711 1.390 . S
C6703 C6702 1.387 . S
C6703 C6705 1.387 . S
H6704 C6711 0.950 . S
C6705 C6703 1.387 . S
C6705 C6707 1.390 . S
C6705 H6709 0.950 . S
H6706 C6702 0.950 . S
C6707 C6705 1.390 . S
C6707 C6708 1.387 . S
C6707 H6710 0.950 . S
C6708 C6707 1.387 . S
C6708 C6711 1.387 . S
H6709 C6705 0.950 . S
H6710 C6707 0.950 . S
C6711 C6702 1.390 . S
C6711 H6704 0.950 . S
C6711 C6708 1.387 . S
C6712 C6713 1.387 . S
C6712 H6716 0.950 . S
C6712 C6721 1.390 . S
C6713 C6712 1.387 . S
C6713 C6715 1.387 . S
H6714 C6721 0.950 . S
C6715 C6713 1.387 . S
C6715 C6717 1.390 . S
C6715 H6719 0.950 . S
H6716 C6712 0.950 . S
C6717 C6715 1.390 . S
C6717 C6718 1.387 . S
C6717 H6720 0.950 . S
C6718 C6717 1.387 . S
C6718 C6721 1.387 . S
H6719 C6715 0.950 . S
H6720 C6717 0.950 . S
C6721 C6712 1.390 . S
C6721 H6714 0.950 . S
C6721 C6718 1.387 . S
C6722 C6723 1.387 . S
C6722 H6726 0.950 . S
C6722 C6731 1.390 . S
C6723 C6722 1.387 . S
C6723 C6725 1.387 . S
H6724 C6731 0.950 . S
C6725 C6723 1.387 . S
C6725 C6727 1.390 . S
C6725 H6729 0.950 . S
H6726 C6722 0.950 . S
C6727 C6725 1.390 . S
C6727 C6728 1.387 . S
C6727 H6730 0.950 . S
C6728 C6727 1.387 . S
C6728 C6731 1.387 . S
H6729 C6725 0.950 . S
H6730 C6727 0.950 . S
C6731 C6722 1.390 . S
C6731 H6724 0.950 . S
C6731 C6728 1.387 . S
C6732 C6733 1.387 . S
C6732 H6736 0.950 . S
C6732 C6741 1.390 . S
C6733 C6732 1.387 . S
C6733 C6735 1.387 . S
H6734 C6741 0.950 . S
C6735 C6733 1.387 . S
C6735 C6737 1.390 . S
C6735 H6739 0.950 . S
H6736 C6732 0.950 . S
C6737 C6735 1.390 . S
C6737 C6738 1.387 . S
C6737 H6740 0.950 . S
C6738 C6737 1.387 . S
C6738 C6741 1.387 . S
H6739 C6735 0.950 . S
H6740 C6737 0.950 . S
C6741 C6732 1.390 . S
C6741 H6734 0.950 . S
C6741 C6738 1.387 . S
C6742 C6743 1.387 . S
C6742 H6746 0.950 . S
C6742 C6751 1.390 . S
C6743 C6742 1.387 . S
C6743 C6745 1.387 . S
H6744 C6751 0.950 . S
C6745 C6743 1.387 . S
C6745 C6747 1.390 . S
C6745 H6749 0.950 . S
H6746 C6742 0.950 . S
C6747 C6745 1.390 . S
C6747 C6748 1.387 . S
C6747 H6750 0.950 . S
C6748 C6747 1.387 . S
C6748 C6751 1.387 . S
H6749 C6745 0.950 . S
H6750 C6747 0.950 . S
C6751 C6742 1.390 . S
C6751 H6744 0.950 . S
C6751 C6748 1.387 . S
C6752 C6753 1.387 . S
C6752 H6756 0.950 . S
C6752 C6761 1.390 . S
C6753 C6752 1.387 . S
C6753 C6755 1.387 . S
H6754 C6761 0.950 . S
C6755 C6753 1.387 . S
C6755 C6757 1.390 . S
C6755 H6759 0.950 . S
H6756 C6752 0.950 . S
C6757 C6755 1.390 . S
C6757 C6758 1.387 . S
C6757 H6760 0.950 . S
C6758 C6757 1.387 . S
C6758 C6761 1.387 . S
H6759 C6755 0.950 . S
H6760 C6757 0.950 . S
C6761 C6752 1.390 . S
C6761 H6754 0.950 . S
C6761 C6758 1.387 . S
C6762 C6763 1.387 . S
C6762 H6766 0.950 . S
C6762 C6771 1.390 . S
C6763 C6762 1.387 . S
C6763 C6765 1.387 . S
H6764 C6771 0.950 . S
C6765 C6763 1.387 . S
C6765 C6767 1.390 . S
C6765 H6769 0.950 . S
H6766 C6762 0.950 . S
C6767 C6765 1.390 . S
C6767 C6768 1.387 . S
C6767 H6770 0.950 . S
C6768 C6767 1.387 . S
C6768 C6771 1.387 . S
H6769 C6765 0.950 . S
H6770 C6767 0.950 . S
C6771 C6762 1.390 . S
C6771 H6764 0.950 . S
C6771 C6768 1.387 . S
C6772 C6773 1.387 . S
C6772 H6776 0.950 . S
C6772 C6781 1.390 . S
C6773 C6772 1.387 . S
C6773 C6775 1.387 . S
H6774 C6781 0.950 . S
C6775 C6773 1.387 . S
C6775 C6777 1.390 . S
C6775 H6779 0.950 . S
H6776 C6772 0.950 . S
C6777 C6775 1.390 . S
C6777 C6778 1.387 . S
C6777 H6780 0.950 . S
C6778 C6777 1.387 . S
C6778 C6781 1.387 . S
H6779 C6775 0.950 . S
H6780 C6777 0.950 . S
C6781 C6772 1.390 . S
C6781 H6774 0.950 . S
C6781 C6778 1.387 . S
C6782 C6783 1.387 . S
C6782 H6786 0.950 . S
C6782 C6791 1.390 . S
C6783 C6782 1.387 . S
C6783 C6785 1.387 . S
H6784 C6791 0.950 . S
C6785 C6783 1.387 . S
C6785 C6787 1.390 . S
C6785 H6789 0.950 . S
H6786 C6782 0.950 . S
C6787 C6785 1.390 . S
C6787 C6788 1.387 . S
C6787 H6790 0.950 . S
C6788 C6787 1.387 . S
C6788 C6791 1.387 . S
H6789 C6785 0.950 . S
H6790 C6787 0.950 . S
C6791 C6782 1.390 . S
C6791 H6784 0.950 . S
C6791 C6788 1.387 . S
C6792 C6793 1.387 . S
C6792 H6796 0.950 . S
C6792 C6801 1.390 . S
C6793 C6792 1.387 . S
C6793 C6795 1.387 . S
H6794 C6801 0.950 . S
C6795 C6793 1.387 . S
C6795 C6797 1.390 . S
C6795 H6799 0.950 . S
H6796 C6792 0.950 . S
C6797 C6795 1.390 . S
C6797 C6798 1.387 . S
C6797 H6800 0.950 . S
C6798 C6797 1.387 . S
C6798 C6801 1.387 . S
H6799 C6795 0.950 . S
H6800 C6797 0.950 . S
C6801 C6792 1.390 . S
C6801 H6794 0.950 . S
C6801 C6798 1.387 . S
C6802 C6803 1.387 . S
C6802 H6806 0.950 . S
C6802 C6811 1.390 . S
C6803 C6802 1.387 . S
C6803 C6805 1.387 . S
H6804 C6811 0.950 . S
C6805 C6803 1.387 . S
C6805 C6807 1.390 . S
C6805 H6809 0.950 . S
H6806 C6802 0.950 . S
C6807 C6805 1.390 . S
C6807 C6808 1.387 . S
C6807 H6810 0.950 . S
C6808 C6807 1.387 . S
C6808 C6811 1.387 . S
H6809 C6805 0.950 . S
H6810 C6807 0.950 . S
C6811 C6802 1.390 . S
C6811 H6804 0.950 . S
C6811 C6808 1.387 . S
C6812 C6813 1.387 . S
C6812 H6816 0.950 . S
C6812 C6821 1.390 . S
C6813 C6812 1.387 . S
C6813 C6815 1.387 . S
H6814 C6821 0.950 . S
C6815 C6813 1.387 . S
C6815 C6817 1.390 . S
C6815 H6819 0.950 . S
H6816 C6812 0.950 . S
C6817 C6815 1.390 . S
C6817 C6818 1.387 . S
C6817 H6820 0.950 . S
C6818 C6817 1.387 . S
C6818 C6821 1.387 . S
H6819 C6815 0.950 . S
H6820 C6817 0.950 . S
C6821 C6812 1.390 . S
C6821 H6814 0.950 . S
C6821 C6818 1.387 . S
C6822 C6823 1.387 . S
C6822 H6826 0.950 . S
C6822 C6831 1.390 . S
C6823 C6822 1.387 . S
C6823 C6825 1.387 . S
H6824 C6831 0.950 . S
C6825 C6823 1.387 . S
C6825 C6827 1.390 . S
C6825 H6829 0.950 . S
H6826 C6822 0.950 . S
C6827 C6825 1.390 . S
C6827 C6828 1.387 . S
C6827 H6830 0.950 . S
C6828 C6827 1.387 . S
C6828 C6831 1.387 . S
H6829 C6825 0.950 . S
H6830 C6827 0.950 . S
C6831 C6822 1.390 . S
C6831 H6824 0.950 . S
C6831 C6828 1.387 . S
C6832 C6833 1.387 . S
C6832 H6836 0.950 . S
C6832 C6841 1.390 . S
C6833 C6832 1.387 . S
C6833 C6835 1.387 . S
H6834 C6841 0.950 . S
C6835 C6833 1.387 . S
C6835 C6837 1.390 . S
C6835 H6839 0.950 . S
H6836 C6832 0.950 . S
C6837 C6835 1.390 . S
C6837 C6838 1.387 . S
C6837 H6840 0.950 . S
C6838 C6837 1.387 . S
C6838 C6841 1.387 . S
H6839 C6835 0.950 . S
H6840 C6837 0.950 . S
C6841 C6832 1.390 . S
C6841 H6834 0.950 . S
C6841 C6838 1.387 . S
C6842 C6843 1.387 . S
C6842 H6846 0.950 . S
C6842 C6851 1.390 . S
C6843 C6842 1.387 . S
C6843 C6845 1.387 . S
H6844 C6851 0.950 . S
C6845 C6843 1.387 . S
C6845 C6847 1.390 . S
C6845 H6849 0.950 . S
H6846 C6842 0.950 . S
C6847 C6845 1.390 . S
C6847 C6848 1.387 . S
C6847 H6850 0.950 . S
C6848 C6847 1.387 . S
C6848 C6851 1.387 . S
H6849 C6845 0.950 . S
H6850 C6847 0.950 . S
C6851 C6842 1.390 . S
C6851 H6844 0.950 . S
C6851 C6848 1.387 . S
C6852 C6853 1.387 . S
C6852 H6856 0.950 . S
C6852 C6861 1.390 . S
C6853 C6852 1.387 . S
C6853 C6855 1.387 . S
H6854 C6861 0.950 . S
C6855 C6853 1.387 . S
C6855 C6857 1.390 . S
C6855 H6859 0.950 . S
H6856 C6852 0.950 . S
C6857 C6855 1.390 . S
C6857 C6858 1.387 . S
C6857 H6860 0.950 . S
C6858 C6857 1.387 . S
C6858 C6861 1.387 . S
H6859 C6855 0.950 . S
H6860 C6857 0.950 . S
C6861 C6852 1.390 . S
C6861 H6854 0.950 . S
C6861 C6858 1.387 . S
C6862 C6863 1.387 . S
C6862 H6866 0.950 . S
C6862 C6871 1.390 . S
C6863 C6862 1.387 . S
C6863 C6865 1.387 . S
H6864 C6871 0.950 . S
C6865 C6863 1.387 . S
C6865 C6867 1.390 . S
C6865 H6869 0.950 . S
H6866 C6862 0.950 . S
C6867 C6865 1.390 . S
C6867 C6868 1.387 . S
C6867 H6870 0.950 . S
C6868 C6867 1.387 . S
C6868 C6871 1.387 . S
H6869 C6865 0.950 . S
H6870 C6867 0.950 . S
C6871 C6862 1.390 . S
C6871 H6864 0.950 . S
C6871 C6868 1.387 . S
C6872 C6873 1.387 . S
C6872 H6876 0.950 . S
C6872 C6881 1.390 . S
C6873 C6872 1.387 . S
C6873 C6875 1.387 . S
H6874 C6881 0.950 . S
C6875 C6873 1.387 . S
C6875 C6877 1.390 . S
C6875 H6879 0.950 . S
H6876 C6872 0.950 . S
C6877 C6875 1.390 . S
C6877 C6878 1.387 . S
C6877 H6880 0.950 . S
C6878 C6877 1.387 . S
C6878 C6881 1.387 . S
H6879 C6875 0.950 . S
H6880 C6877 0.950 . S
C6881 C6872 1.390 . S
C6881 H6874 0.950 . S
C6881 C6878 1.387 . S
C6882 C6883 1.387 . S
C6882 H6886 0.950 . S
C6882 C6891 1.390 . S
C6883 C6882 1.387 . S
C6883 C6885 1.387 . S
H6884 C6891 0.950 . S
C6885 C6883 1.387 . S
C6885 C6887 1.390 . S
C6885 H6889 0.950 . S
H6886 C6882 0.950 . S
C6887 C6885 1.390 . S
C6887 C6888 1.387 . S
C6887 H6890 0.950 . S
C6888 C6887 1.387 . S
C6888 C6891 1.387 . S
H6889 C6885 0.950 . S
H6890 C6887 0.950 . S
C6891 C6882 1.390 . S
C6891 H6884 0.950 . S
C6891 C6888 1.387 . S
C6892 C6893 1.387 . S
C6892 H6896 0.950 . S
C6892 C6901 1.390 . S
C6893 C6892 1.387 . S
C6893 C6895 1.387 . S
H6894 C6901 0.950 . S
C6895 C6893 1.387 . S
C6895 C6897 1.390 . S
C6895 H6899 0.950 . S
H6896 C6892 0.950 . S
C6897 C6895 1.390 . S
C6897 C6898 1.387 . S
C6897 H6900 0.950 . S
C6898 C6897 1.387 . S
C6898 C6901 1.387 . S
H6899 C6895 0.950 . S
H6900 C6897 0.950 . S
C6901 C6892 1.390 . S
C6901 H6894 0.950 . S
C6901 C6898 1.387 . S
C6902 C6903 1.387 . S
C6902 H6906 0.950 . S
C6902 C6911 1.390 . S
C6903 C6902 1.387 . S
C6903 C6905 1.387 . S
H6904 C6911 0.950 . S
C6905 C6903 1.387 . S
C6905 C6907 1.390 . S
C6905 H6909 0.950 . S
H6906 C6902 0.950 . S
C6907 C6905 1.390 . S
C6907 C6908 1.387 . S
C6907 H6910 0.950 . S
C6908 C6907 1.387 . S
C6908 C6911 1.387 . S
H6909 C6905 0.950 . S
H6910 C6907 0.950 . S
C6911 C6902 1.390 . S
C6911 H6904 0.950 . S
C6911 C6908 1.387 . S
C6912 C6913 1.387 . S
C6912 H6916 0.950 . S
C6912 C6921 1.390 . S
C6913 C6912 1.387 . S
C6913 C6915 1.387 . S
H6914 C6921 0.950 . S
C6915 C6913 1.387 . S
C6915 C6917 1.390 . S
C6915 H6919 0.950 . S
H6916 C6912 0.950 . S
C6917 C6915 1.390 . S
C6917 C6918 1.387 . S
C6917 H6920 0.950 . S
C6918 C6917 1.387 . S
C6918 C6921 1.387 . S
H6919 C6915 0.950 . S
H6920 C6917 0.950 . S
C6921 C6912 1.390 . S
C6921 H6914 0.950 . S
C6921 C6918 1.387 . S
C6922 C6923 1.387 . S
C6922 H6926 0.950 . S
C6922 C6931 1.390 . S
C6923 C6922 1.387 . S
C6923 C6925 1.387 . S
H6924 C6931 0.950 . S
C6925 C6923 1.387 . S
C6925 C6927 1.390 . S
C6925 H6929 0.950 . S
H6926 C6922 0.950 . S
C6927 C6925 1.390 . S
C6927 C6928 1.387 . S
C6927 H6930 0.950 . S
C6928 C6927 1.387 . S
C6928 C6931 1.387 . S
H6929 C6925 0.950 . S
H6930 C6927 0.950 . S
C6931 C6922 1.390 . S
C6931 H6924 0.950 . S
C6931 C6928 1.387 . S
C6932 C6933 1.387 . S
C6932 H6936 0.950 . S
C6932 C6941 1.390 . S
C6933 C6932 1.387 . S
C6933 C6935 1.387 . S
H6934 C6941 0.950 . S
C6935 C6933 1.387 . S
C6935 C6937 1.390 . S
C6935 H6939 0.950 . S
H6936 C6932 0.950 . S
C6937 C6935 1.390 . S
C6937 C6938 1.387 . S
C6937 H6940 0.950 . S
C6938 C6937 1.387 . S
C6938 C6941 1.387 . S
H6939 C6935 0.950 . S
H6940 C6937 0.950 . S
C6941 C6932 1.390 . S
C6941 H6934 0.950 . S
C6941 C6938 1.387 . S
C6942 C6943 1.387 . S
C6942 H6946 0.950 . S
C6942 C6951 1.390 . S
C6943 C6942 1.387 . S
C6943 C6945 1.387 . S
H6944 C6951 0.950 . S
C6945 C6943 1.387 . S
C6945 C6947 1.390 . S
C6945 H6949 0.950 . S
H6946 C6942 0.950 . S
C6947 C6945 1.390 . S
C6947 C6948 1.387 . S
C6947 H6950 0.950 . S
C6948 C6947 1.387 . S
C6948 C6951 1.387 . S
H6949 C6945 0.950 . S
H6950 C6947 0.950 . S
C6951 C6942 1.390 . S
C6951 H6944 0.950 . S
C6951 C6948 1.387 . S
C6952 C6953 1.387 . S
C6952 H6956 0.950 . S
C6952 C6961 1.390 . S
C6953 C6952 1.387 . S
C6953 C6955 1.387 . S
H6954 C6961 0.950 . S
C6955 C6953 1.387 . S
C6955 C6957 1.390 . S
C6955 H6959 0.950 . S
H6956 C6952 0.950 . S
C6957 C6955 1.390 . S
C6957 C6958 1.387 . S
C6957 H6960 0.950 . S
C6958 C6957 1.387 . S
C6958 C6961 1.387 . S
H6959 C6955 0.950 . S
H6960 C6957 0.950 . S
C6961 C6952 1.390 . S
C6961 H6954 0.950 . S
C6961 C6958 1.387 . S
C6962 C6963 1.387 . S
C6962 H6966 0.950 . S
C6962 C6971 1.390 . S
C6963 C6962 1.387 . S
C6963 C6965 1.387 . S
H6964 C6971 0.950 . S
C6965 C6963 1.387 . S
C6965 C6967 1.390 . S
C6965 H6969 0.950 . S
H6966 C6962 0.950 . S
C6967 C6965 1.390 . S
C6967 C6968 1.387 . S
C6967 H6970 0.950 . S
C6968 C6967 1.387 . S
C6968 C6971 1.387 . S
H6969 C6965 0.950 . S
H6970 C6967 0.950 . S
C6971 C6962 1.390 . S
C6971 H6964 0.950 . S
C6971 C6968 1.387 . S
C6972 C6973 1.387 . S
C6972 H6976 0.950 . S
C6972 C6981 1.390 . S
C6973 C6972 1.387 . S
C6973 C6975 1.387 . S
H6974 C6981 0.950 . S
C6975 C6973 1.387 . S
C6975 C6977 1.390 . S
C6975 H6979 0.950 . S
H6976 C6972 0.950 . S
C6977 C6975 1.390 . S
C6977 C6978 1.387 . S
C6977 H6980 0.950 . S
C6978 C6977 1.387 . S
C6978 C6981 1.387 . S
H6979 C6975 0.950 . S
H6980 C6977 0.950 . S
C6981 C6972 1.390 . S
C6981 H6974 0.950 . S
C6981 C6978 1.387 . S
C6982 C6983 1.387 . S
C6982 H6986 0.950 . S
C6982 C6991 1.390 . S
C6983 C6982 1.387 . S
C6983 C6985 1.387 . S
H6984 C6991 0.950 . S
C6985 C6983 1.387 . S
C6985 C6987 1.390 . S
C6985 H6989 0.950 . S
H6986 C6982 0.950 . S
C6987 C6985 1.390 . S
C6987 C6988 1.387 . S
C6987 H6990 0.950 . S
C6988 C6987 1.387 . S
C6988 C6991 1.387 . S
H6989 C6985 0.950 . S
H6990 C6987 0.950 . S
C6991 C6982 1.390 . S
C6991 H6984 0.950 . S
C6991 C6988 1.387 . S
C6992 C6993 1.387 . S
C6992 H6996 0.950 . S
C6992 C7001 1.390 . S
C6993 C6992 1.387 . S
C6993 C6995 1.387 . S
H6994 C7001 0.950 . S
C6995 C6993 1.387 . S
C6995 C6997 1.390 . S
C6995 H6999 0.950 . S
H6996 C6992 0.950 . S
C6997 C6995 1.390 . S
C6997 C6998 1.387 . S
C6997 H7000 0.950 . S
C6998 C6997 1.387 . S
C6998 C7001 1.387 . S
H6999 C6995 0.950 . S
H7000 C6997 0.950 . S
C7001 C6992 1.390 . S
C7001 H6994 0.950 . S
C7001 C6998 1.387 . S
C7002 C7003 1.387 . S
C7002 H7006 0.950 . S
C7002 C7011 1.390 . S
C7003 C7002 1.387 . S
C7003 C7005 1.387 . S
H7004 C7011 0.950 . S
C7005 C7003 1.387 . S
C7005 C7007 1.390 . S
C7005 H7009 0.950 . S
H7006 C7002 0.950 . S
C7007 C7005 1.390 . S
C7007 C7008 1.387 . S
C7007 H7010 0.950 . S
C7008 C7007 1.387 . S
C7008 C7011 1.387 . S
H7009 C7005 0.950 . S
H7010 C7007 0.950 . S
C7011 C7002 1.390 . S
C7011 H7004 0.950 . S
C7011 C7008 1.387 . S
C7012 C7013 1.387 . S
C7012 H7016 0.950 . S
C7012 C7021 1.390 . S
C7013 C7012 1.387 . S
C7013 C7015 1.387 . S
H7014 C7021 0.950 . S
C7015 C7013 1.387 . S
C7015 C7017 1.390 . S
C7015 H7019 0.950 . S
H7016 C7012 0.950 . S
C7017 C7015 1.390 . S
C7017 C7018 1.387 . S
C7017 H7020 0.950 . S
C7018 C7017 1.387 . S
C7018 C7021 1.387 . S
H7019 C7015 0.950 . S
H7020 C7017 0.950 . S
C7021 C7012 1.390 . S
C7021 H7014 0.950 . S
C7021 C7018 1.387 . S
C7022 C7023 1.387 . S
C7022 H7026 0.950 . S
C7022 C7031 1.390 . S
C7023 C7022 1.387 . S
C7023 C7025 1.387 . S
H7024 C7031 0.950 . S
C7025 C7023 1.387 . S
C7025 C7027 1.390 . S
C7025 H7029 0.950 . S
H7026 C7022 0.950 . S
C7027 C7025 1.390 . S
C7027 C7028 1.387 . S
C7027 H7030 0.950 . S
C7028 C7027 1.387 . S
C7028 C7031 1.387 . S
H7029 C7025 0.950 . S
H7030 C7027 0.950 . S
C7031 C7022 1.390 . S
C7031 H7024 0.950 . S
C7031 C7028 1.387 . S
C7032 C7033 1.387 . S
C7032 H7036 0.950 . S
C7032 C7041 1.390 . S
C7033 C7032 1.387 . S
C7033 C7035 1.387 . S
H7034 C7041 0.950 . S
C7035 C7033 1.387 . S
C7035 C7037 1.390 . S
C7035 H7039 0.950 . S
H7036 C7032 0.950 . S
C7037 C7035 1.390 . S
C7037 C7038 1.387 . S
C7037 H7040 0.950 . S
C7038 C7037 1.387 . S
C7038 C7041 1.387 . S
H7039 C7035 0.950 . S
H7040 C7037 0.950 . S
C7041 C7032 1.390 . S
C7041 H7034 0.950 . S
C7041 C7038 1.387 . S
C7042 C7043 1.387 . S
C7042 H7046 0.950 . S
C7042 C7051 1.390 . S
C7043 C7042 1.387 . S
C7043 C7045 1.387 . S
H7044 C7051 0.950 . S
C7045 C7043 1.387 . S
C7045 C7047 1.390 . S
C7045 H7049 0.950 . S
H7046 C7042 0.950 . S
C7047 C7045 1.390 . S
C7047 C7048 1.387 . S
C7047 H7050 0.950 . S
C7048 C7047 1.387 . S
C7048 C7051 1.387 . S
H7049 C7045 0.950 . S
H7050 C7047 0.950 . S
C7051 C7042 1.390 . S
C7051 H7044 0.950 . S
C7051 C7048 1.387 . S
C7052 C7053 1.387 . S
C7052 H7056 0.950 . S
C7052 C7061 1.390 . S
C7053 C7052 1.387 . S
C7053 C7055 1.387 . S
H7054 C7061 0.950 . S
C7055 C7053 1.387 . S
C7055 C7057 1.390 . S
C7055 H7059 0.950 . S
H7056 C7052 0.950 . S
C7057 C7055 1.390 . S
C7057 C7058 1.387 . S
C7057 H7060 0.950 . S
C7058 C7057 1.387 . S
C7058 C7061 1.387 . S
H7059 C7055 0.950 . S
H7060 C7057 0.950 . S
C7061 C7052 1.390 . S
C7061 H7054 0.950 . S
C7061 C7058 1.387 . S
C7062 C7063 1.387 . S
C7062 H7066 0.950 . S
C7062 C7071 1.390 . S
C7063 C7062 1.387 . S
C7063 C7065 1.387 . S
H7064 C7071 0.950 . S
C7065 C7063 1.387 . S
C7065 C7067 1.390 . S
C7065 H7069 0.950 . S
H7066 C7062 0.950 . S
C7067 C7065 1.390 . S
C7067 C7068 1.387 . S
C7067 H7070 0.950 . S
C7068 C7067 1.387 . S
C7068 C7071 1.387 . S
H7069 C7065 0.950 . S
H7070 C7067 0.950 . S
C7071 C7062 1.390 . S
C7071 H7064 0.950 . S
C7071 C7068 1.387 . S
C7072 C7073 1.387 . S
C7072 H7076 0.950 . S
C7072 C7081 1.390 . S
C7073 C7072 1.387 . S
C7073 C7075 1.387 . S
H7074 C7081 0.950 . S
C7075 C7073 1.387 . S
C7075 C7077 1.390 . S
C7075 H7079 0.950 . S
H7076 C7072 0.950 . S
C7077 C7075 1.390 . S
C7077 C7078 1.387 . S
C7077 H7080 0.950 . S
C7078 C7077 1.387 . S
C7078 C7081 1.387 . S
H7079 C7075 0.950 . S
H7080 C7077 0.950 . S
C7081 C7072 1.390 . S
C7081 H7074 0.950 . S
C7081 C7078 1.387 . S
C7082 C7083 1.387 . S
C7082 H7086 0.950 . S
C7082 C7091 1.390 . S
C7083 C7082 1.387 . S
C7083 C7085 1.387 . S
H7084 C7091 0.950 . S
C7085 C7083 1.387 . S
C7085 C7087 1.390 . S
C7085 H7089 0.950 . S
H7086 C7082 0.950 . S
C7087 C7085 1.390 . S
C7087 C7088 1.387 . S
C7087 H7090 0.950 . S
C7088 C7087 1.387 . S
C7088 C7091 1.387 . S
H7089 C7085 0.950 . S
H7090 C7087 0.950 . S
C7091 C7082 1.390 . S
C7091 H7084 0.950 . S
C7091 C7088 1.387 . S
C7092 C7093 1.387 . S
C7092 H7096 0.950 . S
C7092 C7101 1.390 . S
C7093 C7092 1.387 . S
C7093 C7095 1.387 . S
H7094 C7101 0.950 . S
C7095 C7093 1.387 . S
C7095 C7097 1.390 . S
C7095 H7099 0.950 . S
H7096 C7092 0.950 . S
C7097 C7095 1.390 . S
C7097 C7098 1.387 . S
C7097 H7100 0.950 . S
C7098 C7097 1.387 . S
C7098 C7101 1.387 . S
H7099 C7095 0.950 . S
H7100 C7097 0.950 . S
C7101 C7092 1.390 . S
C7101 H7094 0.950 . S
C7101 C7098 1.387 . S
C7102 C7103 1.387 . S
C7102 H7106 0.950 . S
C7102 C7111 1.390 . S
C7103 C7102 1.387 . S
C7103 C7105 1.387 . S
H7104 C7111 0.950 . S
C7105 C7103 1.387 . S
C7105 C7107 1.390 . S
C7105 H7109 0.950 . S
H7106 C7102 0.950 . S
C7107 C7105 1.390 . S
C7107 C7108 1.387 . S
C7107 H7110 0.950 . S
C7108 C7107 1.387 . S
C7108 C7111 1.387 . S
H7109 C7105 0.950 . S
H7110 C7107 0.950 . S
C7111 C7102 1.390 . S
C7111 H7104 0.950 . S
C7111 C7108 1.387 . S
C7112 C7113 1.387 . S
C7112 H7116 0.950 . S
C7112 C7121 1.390 . S
C7113 C7112 1.387 . S
C7113 C7115 1.387 . S
H7114 C7121 0.950 . S
C7115 C7113 1.387 . S
C7115 C7117 1.390 . S
C7115 H7119 0.950 . S
H7116 C7112 0.950 . S
C7117 C7115 1.390 . S
C7117 C7118 1.387 . S
C7117 H7120 0.950 . S
C7118 C7117 1.387 . S
C7118 C7121 1.387 . S
H7119 C7115 0.950 . S
H7120 C7117 0.950 . S
C7121 C7112 1.390 . S
C7121 H7114 0.950 . S
C7121 C7118 1.387 . S
C7122 C7123 1.387 . S
C7122 H7126 0.950 . S
C7122 C7131 1.390 . S
C7123 C7122 1.387 . S
C7123 C7125 1.387 . S
H7124 C7131 0.950 . S
C7125 C7123 1.387 . S
C7125 C7127 1.390 . S
C7125 H7129 0.950 . S
H7126 C7122 0.950 . S
C7127 C7125 1.390 . S
C7127 C7128 1.387 . S
C7127 H7130 0.950 . S
C7128 C7127 1.387 . S
C7128 C7131 1.387 . S
H7129 C7125 0.950 . S
H7130 C7127 0.950 . S
C7131 C7122 1.390 . S
C7131 H7124 0.950 . S
C7131 C7128 1.387 . S
C7132 C7133 1.387 . S
C7132 H7136 0.950 . S
C7132 C7141 1.390 . S
C7133 C7132 1.387 . S
C7133 C7135 1.387 . S
H7134 C7141 0.950 . S
C7135 C7133 1.387 . S
C7135 C7137 1.390 . S
C7135 H7139 0.950 . S
H7136 C7132 0.950 . S
C7137 C7135 1.390 . S
C7137 C7138 1.387 . S
C7137 H7140 0.950 . S
C7138 C7137 1.387 . S
C7138 C7141 1.387 . S
H7139 C7135 0.950 . S
H7140 C7137 0.950 . S
C7141 C7132 1.390 . S
C7141 H7134 0.950 . S
C7141 C7138 1.387 . S
C7142 C7143 1.387 . S
C7142 H7146 0.950 . S
C7142 C7151 1.390 . S
C7143 C7142 1.387 . S
C7143 C7145 1.387 . S
H7144 C7151 0.950 . S
C7145 C7143 1.387 . S
C7145 C7147 1.390 . S
C7145 H7149 0.950 . S
H7146 C7142 0.950 . S
C7147 C7145 1.390 . S
C7147 C7148 1.387 . S
C7147 H7150 0.950 . S
C7148 C7147 1.387 . S
C7148 C7151 1.387 . S
H7149 C7145 0.950 . S
H7150 C7147 0.950 . S
C7151 C7142 1.390 . S
C7151 H7144 0.950 . S
C7151 C7148 1.387 . S
C7152 C7153 1.387 . S
C7152 H7156 0.950 . S
C7152 C7161 1.390 . S
C7153 C7152 1.387 . S
C7153 C7155 1.387 . S
H7154 C7161 0.950 . S
C7155 C7153 1.387 . S
C7155 C7157 1.390 . S
C7155 H7159 0.950 . S
H7156 C7152 0.950 . S
C7157 C7155 1.390 . S
C7157 C7158 1.387 . S
C7157 H7160 0.950 . S
C7158 C7157 1.387 . S
C7158 C7161 1.387 . S
H7159 C7155 0.950 . S
H7160 C7157 0.950 . S
C7161 C7152 1.390 . S
C7161 H7154 0.950 . S
C7161 C7158 1.387 . S
C7162 C7163 1.387 . S
C7162 H7166 0.950 . S
C7162 C7171 1.390 . S
C7163 C7162 1.387 . S
C7163 C7165 1.387 . S
H7164 C7171 0.950 . S
C7165 C7163 1.387 . S
C7165 C7167 1.390 . S
C7165 H7169 0.950 . S
H7166 C7162 0.950 . S
C7167 C7165 1.390 . S
C7167 C7168 1.387 . S
C7167 H7170 0.950 . S
C7168 C7167 1.387 . S
C7168 C7171 1.387 . S
H7169 C7165 0.950 . S
H7170 C7167 0.950 . S
C7171 C7162 1.390 . S
C7171 H7164 0.950 . S
C7171 C7168 1.387 . S
C7172 C7173 1.387 . S
C7172 H7176 0.950 . S
C7172 C7181 1.390 . S
C7173 C7172 1.387 . S
C7173 C7175 1.387 . S
H7174 C7181 0.950 . S
C7175 C7173 1.387 . S
C7175 C7177 1.390 . S
C7175 H7179 0.950 . S
H7176 C7172 0.950 . S
C7177 C7175 1.390 . S
C7177 C7178 1.387 . S
C7177 H7180 0.950 . S
C7178 C7177 1.387 . S
C7178 C7181 1.387 . S
H7179 C7175 0.950 . S
H7180 C7177 0.950 . S
C7181 C7172 1.390 . S
C7181 H7174 0.950 . S
C7181 C7178 1.387 . S
C7182 C7183 1.387 . S
C7182 H7186 0.950 . S
C7182 C7191 1.390 . S
C7183 C7182 1.387 . S
C7183 C7185 1.387 . S
H7184 C7191 0.950 . S
C7185 C7183 1.387 . S
C7185 C7187 1.390 . S
C7185 H7189 0.950 . S
H7186 C7182 0.950 . S
C7187 C7185 1.390 . S
C7187 C7188 1.387 . S
C7187 H7190 0.950 . S
C7188 C7187 1.387 . S
C7188 C7191 1.387 . S
H7189 C7185 0.950 . S
H7190 C7187 0.950 . S
C7191 C7182 1.390 . S
C7191 H7184 0.950 . S
C7191 C7188 1.387 . S
C7192 C7193 1.387 . S
C7192 H7196 0.950 . S
C7192 C7201 1.390 . S
C7193 C7192 1.387 . S
C7193 C7195 1.387 . S
H7194 C7201 0.950 . S
C7195 C7193 1.387 . S
C7195 C7197 1.390 . S
C7195 H7199 0.950 . S
H7196 C7192 0.950 . S
C7197 C7195 1.390 . S
C7197 C7198 1.387 . S
C7197 H7200 0.950 . S
C7198 C7197 1.387 . S
C7198 C7201 1.387 . S
H7199 C7195 0.950 . S
H7200 C7197 0.950 . S
C7201 C7192 1.390 . S
C7201 H7194 0.950 . S
C7201 C7198 1.387 . S
C7202 C7203 1.387 . S
C7202 H7206 0.950 . S
C7202 C7211 1.390 . S
C7203 C7202 1.387 . S
C7203 C7205 1.387 . S
H7204 C7211 0.950 . S
C7205 C7203 1.387 . S
C7205 C7207 1.390 . S
C7205 H7209 0.950 . S
H7206 C7202 0.950 . S
C7207 C7205 1.390 . S
C7207 C7208 1.387 . S
C7207 H7210 0.950 . S
C7208 C7207 1.387 . S
C7208 C7211 1.387 . S
H7209 C7205 0.950 . S
H7210 C7207 0.950 . S
C7211 C7202 1.390 . S
C7211 H7204 0.950 . S
C7211 C7208 1.387 . S
C7212 C7213 1.387 . S
C7212 H7216 0.950 . S
C7212 C7221 1.390 . S
C7213 C7212 1.387 . S
C7213 C7215 1.387 . S
H7214 C7221 0.950 . S
C7215 C7213 1.387 . S
C7215 C7217 1.390 . S
C7215 H7219 0.950 . S
H7216 C7212 0.950 . S
C7217 C7215 1.390 . S
C7217 C7218 1.387 . S
C7217 H7220 0.950 . S
C7218 C7217 1.387 . S
C7218 C7221 1.387 . S
H7219 C7215 0.950 . S
H7220 C7217 0.950 . S
C7221 C7212 1.390 . S
C7221 H7214 0.950 . S
C7221 C7218 1.387 . S
C7222 C7223 1.387 . S
C7222 H7226 0.950 . S
C7222 C7231 1.390 . S
C7223 C7222 1.387 . S
C7223 C7225 1.387 . S
H7224 C7231 0.950 . S
C7225 C7223 1.387 . S
C7225 C7227 1.390 . S
C7225 H7229 0.950 . S
H7226 C7222 0.950 . S
C7227 C7225 1.390 . S
C7227 C7228 1.387 . S
C7227 H7230 0.950 . S
C7228 C7227 1.387 . S
C7228 C7231 1.387 . S
H7229 C7225 0.950 . S
H7230 C7227 0.950 . S
C7231 C7222 1.390 . S
C7231 H7224 0.950 . S
C7231 C7228 1.387 . S
C7232 C7233 1.387 . S
C7232 H7236 0.950 . S
C7232 C7241 1.390 . S
C7233 C7232 1.387 . S
C7233 C7235 1.387 . S
H7234 C7241 0.950 . S
C7235 C7233 1.387 . S
C7235 C7237 1.390 . S
C7235 H7239 0.950 . S
H7236 C7232 0.950 . S
C7237 C7235 1.390 . S
C7237 C7238 1.387 . S
C7237 H7240 0.950 . S
C7238 C7237 1.387 . S
C7238 C7241 1.387 . S
H7239 C7235 0.950 . S
H7240 C7237 0.950 . S
C7241 C7232 1.390 . S
C7241 H7234 0.950 . S
C7241 C7238 1.387 . S
C7242 C7243 1.387 . S
C7242 H7246 0.950 . S
C7242 C7251 1.390 . S
C7243 C7242 1.387 . S
C7243 C7245 1.387 . S
H7244 C7251 0.950 . S
C7245 C7243 1.387 . S
C7245 C7247 1.390 . S
C7245 H7249 0.950 . S
H7246 C7242 0.950 . S
C7247 C7245 1.390 . S
C7247 C7248 1.387 . S
C7247 H7250 0.950 . S
C7248 C7247 1.387 . S
C7248 C7251 1.387 . S
H7249 C7245 0.950 . S
H7250 C7247 0.950 . S
C7251 C7242 1.390 . S
C7251 H7244 0.950 . S
C7251 C7248 1.387 . S
C7252 C7253 1.387 . S
C7252 H7256 0.950 . S
C7252 C7261 1.390 . S
C7253 C7252 1.387 . S
C7253 C7255 1.387 . S
H7254 C7261 0.950 . S
C7255 C7253 1.387 . S
C7255 C7257 1.390 . S
C7255 H7259 0.950 . S
H7256 C7252 0.950 . S
C7257 C7255 1.390 . S
C7257 C7258 1.387 . S
C7257 H7260 0.950 . S
C7258 C7257 1.387 . S
C7258 C7261 1.387 . S
H7259 C7255 0.950 . S
H7260 C7257 0.950 . S
C7261 C7252 1.390 . S
C7261 H7254 0.950 . S
C7261 C7258 1.387 . S
C7262 C7263 1.387 . S
C7262 H7266 0.950 . S
C7262 C7271 1.390 . S
C7263 C7262 1.387 . S
C7263 C7265 1.387 . S
H7264 C7271 0.950 . S
C7265 C7263 1.387 . S
C7265 C7267 1.390 . S
C7265 H7269 0.950 . S
H7266 C7262 0.950 . S
C7267 C7265 1.390 . S
C7267 C7268 1.387 . S
C7267 H7270 0.950 . S
C7268 C7267 1.387 . S
C7268 C7271 1.387 . S
H7269 C7265 0.950 . S
H7270 C7267 0.950 . S
C7271 C7262 1.390 . S
C7271 H7264 0.950 . S
C7271 C7268 1.387 . S
C7272 C7273 1.387 . S
C7272 H7276 0.950 . S
C7272 C7281 1.390 . S
C7273 C7272 1.387 . S
C7273 C7275 1.387 . S
H7274 C7281 0.950 . S
C7275 C7273 1.387 . S
C7275 C7277 1.390 . S
C7275 H7279 0.950 . S
H7276 C7272 0.950 . S
C7277 C7275 1.390 . S
C7277 C7278 1.387 . S
C7277 H7280 0.950 . S
C7278 C7277 1.387 . S
C7278 C7281 1.387 . S
H7279 C7275 0.950 . S
H7280 C7277 0.950 . S
C7281 C7272 1.390 . S
C7281 H7274 0.950 . S
C7281 C7278 1.387 . S
C7282 C7283 1.387 . S
C7282 H7286 0.950 . S
C7282 C7291 1.390 . S
C7283 C7282 1.387 . S
C7283 C7285 1.387 . S
H7284 C7291 0.950 . S
C7285 C7283 1.387 . S
C7285 C7287 1.390 . S
C7285 H7289 0.950 . S
H7286 C7282 0.950 . S
C7287 C7285 1.390 . S
C7287 C7288 1.387 . S
C7287 H7290 0.950 . S
C7288 C7287 1.387 . S
C7288 C7291 1.387 . S
H7289 C7285 0.950 . S
H7290 C7287 0.950 . S
C7291 C7282 1.390 . S
C7291 H7284 0.950 . S
C7291 C7288 1.387 . S
C7292 C7293 1.387 . S
C7292 H7296 0.950 . S
C7292 C7301 1.390 . S
C7293 C7292 1.387 . S
C7293 C7295 1.387 . S
H7294 C7301 0.950 . S
C7295 C7293 1.387 . S
C7295 C7297 1.390 . S
C7295 H7299 0.950 . S
H7296 C7292 0.950 . S
C7297 C7295 1.390 . S
C7297 C7298 1.387 . S
C7297 H7300 0.950 . S
C7298 C7297 1.387 . S
C7298 C7301 1.387 . S
H7299 C7295 0.950 . S
H7300 C7297 0.950 . S
C7301 C7292 1.390 . S
C7301 H7294 0.950 . S
C7301 C7298 1.387 . S
C7302 C7303 1.387 . S
C7302 H7306 0.950 . S
C7302 C7311 1.390 . S
C7303 C7302 1.387 . S
C7303 C7305 1.387 . S
H7304 C7311 0.950 . S
C7305 C7303 1.387 . S
C7305 C7307 1.390 . S
C7305 H7309 0.950 . S
H7306 C7302 0.950 . S
C7307 C7305 1.390 . S
C7307 C7308 1.387 . S
C7307 H7310 0.950 . S
C7308 C7307 1.387 . S
C7308 C7311 1.387 . S
H7309 C7305 0.950 . S
H7310 C7307 0.950 . S
C7311 C7302 1.390 . S
C7311 H7304 0.950 . S
C7311 C7308 1.387 . S
C7312 C7313 1.387 . S
C7312 H7316 0.950 . S
C7312 C7321 1.390 . S
C7313 C7312 1.387 . S
C7313 C7315 1.387 . S
H7314 C7321 0.950 . S
C7315 C7313 1.387 . S
C7315 C7317 1.390 . S
C7315 H7319 0.950 . S
H7316 C7312 0.950 . S
C7317 C7315 1.390 . S
C7317 C7318 1.387 . S
C7317 H7320 0.950 . S
C7318 C7317 1.387 . S
C7318 C7321 1.387 . S
H7319 C7315 0.950 . S
H7320 C7317 0.950 . S
C7321 C7312 1.390 . S
C7321 H7314 0.950 . S
C7321 C7318 1.387 . S
C7322 C7323 1.387 . S
C7322 H7326 0.950 . S
C7322 C7331 1.390 . S
C7323 C7322 1.387 . S
C7323 C7325 1.387 . S
H7324 C7331 0.950 . S
C7325 C7323 1.387 . S
C7325 C7327 1.390 . S
C7325 H7329 0.950 . S
H7326 C7322 0.950 . S
C7327 C7325 1.390 . S
C7327 C7328 1.387 . S
C7327 H7330 0.950 . S
C7328 C7327 1.387 . S
C7328 C7331 1.387 . S
H7329 C7325 0.950 . S
H7330 C7327 0.950 . S
C7331 C7322 1.390 . S
C7331 H7324 0.950 . S
C7331 C7328 1.387 . S
C7332 C7333 1.387 . S
C7332 H7336 0.950 . S
C7332 C7341 1.390 . S
C7333 C7332 1.387 . S
C7333 C7335 1.387 . S
H7334 C7341 0.950 . S
C7335 C7333 1.387 . S
C7335 C7337 1.390 . S
C7335 H7339 0.950 . S
H7336 C7332 0.950 . S
C7337 C7335 1.390 . S
C7337 C7338 1.387 . S
C7337 H7340 0.950 . S
C7338 C7337 1.387 . S
C7338 C7341 1.387 . S
H7339 C7335 0.950 . S
H7340 C7337 0.950 . S
C7341 C7332 1.390 . S
C7341 H7334 0.950 . S
C7341 C7338 1.387 . S
C7342 C7343 1.387 . S
C7342 H7346 0.950 . S
C7342 C7351 1.390 . S
C7343 C7342 1.387 . S
C7343 C7345 1.387 . S
H7344 C7351 0.950 . S
C7345 C7343 1.387 . S
C7345 C7347 1.390 . S
C7345 H7349 0.950 . S
H7346 C7342 0.950 . S
C7347 C7345 1.390 . S
C7347 C7348 1.387 . S
C7347 H7350 0.950 . S
C7348 C7347 1.387 . S
C7348 C7351 1.387 . S
H7349 C7345 0.950 . S
H7350 C7347 0.950 . S
C7351 C7342 1.390 . S
C7351 H7344 0.950 . S
C7351 C7348 1.387 . S
C7352 C7353 1.387 . S
C7352 H7356 0.950 . S
C7352 C7361 1.390 . S
C7353 C7352 1.387 . S
C7353 C7355 1.387 . S
H7354 C7361 0.950 . S
C7355 C7353 1.387 . S
C7355 C7357 1.390 . S
C7355 H7359 0.950 . S
H7356 C7352 0.950 . S
C7357 C7355 1.390 . S
C7357 C7358 1.387 . S
C7357 H7360 0.950 . S
C7358 C7357 1.387 . S
C7358 C7361 1.387 . S
H7359 C7355 0.950 . S
H7360 C7357 0.950 . S
C7361 C7352 1.390 . S
C7361 H7354 0.950 . S
C7361 C7358 1.387 . S
C7362 C7363 1.387 . S
C7362 H7366 0.950 . S
C7362 C7371 1.390 . S
C7363 C7362 1.387 . S
C7363 C7365 1.387 . S
H7364 C7371 0.950 . S
C7365 C7363 1.387 . S
C7365 C7367 1.390 . S
C7365 H7369 0.950 . S
H7366 C7362 0.950 . S
C7367 C7365 1.390 . S
C7367 C7368 1.387 . S
C7367 H7370 0.950 . S
C7368 C7367 1.387 . S
C7368 C7371 1.387 . S
H7369 C7365 0.950 . S
H7370 C7367 0.950 . S
C7371 C7362 1.390 . S
C7371 H7364 0.950 . S
C7371 C7368 1.387 . S
C7372 C7373 1.387 . S
C7372 H7376 0.950 . S
C7372 C7381 1.390 . S
C7373 C7372 1.387 . S
C7373 C7375 1.387 . S
H7374 C7381 0.950 . S
C7375 C7373 1.387 . S
C7375 C7377 1.390 . S
C7375 H7379 0.950 . S
H7376 C7372 0.950 . S
C7377 C7375 1.390 . S
C7377 C7378 1.387 . S
C7377 H7380 0.950 . S
C7378 C7377 1.387 . S
C7378 C7381 1.387 . S
H7379 C7375 0.950 . S
H7380 C7377 0.950 . S
C7381 C7372 1.390 . S
C7381 H7374 0.950 . S
C7381 C7378 1.387 . S
C7382 C7383 1.387 . S
C7382 H7386 0.950 . S
C7382 C7391 1.390 . S
C7383 C7382 1.387 . S
C7383 C7385 1.387 . S
H7384 C7391 0.950 . S
C7385 C7383 1.387 . S
C7385 C7387 1.390 . S
C7385 H7389 0.950 . S
H7386 C7382 0.950 . S
C7387 C7385 1.390 . S
C7387 C7388 1.387 . S
C7387 H7390 0.950 . S
C7388 C7387 1.387 . S
C7388 C7391 1.387 . S
H7389 C7385 0.950 . S
H7390 C7387 0.950 . S
C7391 C7382 1.390 . S
C7391 H7384 0.950 . S
C7391 C7388 1.387 . S
C7392 C7393 1.387 . S
C7392 H7396 0.950 . S
C7392 C7401 1.390 . S
C7393 C7392 1.387 . S
C7393 C7395 1.387 . S
H7394 C7401 0.950 . S
C7395 C7393 1.387 . S
C7395 C7397 1.390 . S
C7395 H7399 0.950 . S
H7396 C7392 0.950 . S
C7397 C7395 1.390 . S
C7397 C7398 1.387 . S
C7397 H7400 0.950 . S
C7398 C7397 1.387 . S
C7398 C7401 1.387 . S
H7399 C7395 0.950 . S
H7400 C7397 0.950 . S
C7401 C7392 1.390 . S
C7401 H7394 0.950 . S
C7401 C7398 1.387 . S
C7402 C7403 1.387 . S
C7402 H7406 0.950 . S
C7402 C7411 1.390 . S
C7403 C7402 1.387 . S
C7403 C7405 1.387 . S
H7404 C7411 0.950 . S
C7405 C7403 1.387 . S
C7405 C7407 1.390 . S
C7405 H7409 0.950 . S
H7406 C7402 0.950 . S
C7407 C7405 1.390 . S
C7407 C7408 1.387 . S
C7407 H7410 0.950 . S
C7408 C7407 1.387 . S
C7408 C7411 1.387 . S
H7409 C7405 0.950 . S
H7410 C7407 0.950 . S
C7411 C7402 1.390 . S
C7411 H7404 0.950 . S
C7411 C7408 1.387 . S
C7412 C7413 1.387 . S
C7412 H7416 0.950 . S
C7412 C7421 1.390 . S
C7413 C7412 1.387 . S
C7413 C7415 1.387 . S
H7414 C7421 0.950 . S
C7415 C7413 1.387 . S
C7415 C7417 1.390 . S
C7415 H7419 0.950 . S
H7416 C7412 0.950 . S
C7417 C7415 1.390 . S
C7417 C7418 1.387 . S
C7417 H7420 0.950 . S
C7418 C7417 1.387 . S
C7418 C7421 1.387 . S
H7419 C7415 0.950 . S
H7420 C7417 0.950 . S
C7421 C7412 1.390 . S
C7421 H7414 0.950 . S
C7421 C7418 1.387 . S
C7422 C7423 1.387 . S
C7422 H7426 0.950 . S
C7422 C7431 1.390 . S
C7423 C7422 1.387 . S
C7423 C7425 1.387 . S
H7424 C7431 0.950 . S
C7425 C7423 1.387 . S
C7425 C7427 1.390 . S
C7425 H7429 0.950 . S
H7426 C7422 0.950 . S
C7427 C7425 1.390 . S
C7427 C7428 1.387 . S
C7427 H7430 0.950 . S
C7428 C7427 1.387 . S
C7428 C7431 1.387 . S
H7429 C7425 0.950 . S
H7430 C7427 0.950 . S
C7431 C7422 1.390 . S
C7431 H7424 0.950 . S
C7431 C7428 1.387 . S
C7432 C7433 1.387 . S
C7432 H7436 0.950 . S
C7432 C7441 1.390 . S
C7433 C7432 1.387 . S
C7433 C7435 1.387 . S
H7434 C7441 0.950 . S
C7435 C7433 1.387 . S
C7435 C7437 1.390 . S
C7435 H7439 0.950 . S
H7436 C7432 0.950 . S
C7437 C7435 1.390 . S
C7437 C7438 1.387 . S
C7437 H7440 0.950 . S
C7438 C7437 1.387 . S
C7438 C7441 1.387 . S
H7439 C7435 0.950 . S
H7440 C7437 0.950 . S
C7441 C7432 1.390 . S
C7441 H7434 0.950 . S
C7441 C7438 1.387 . S
C7442 C7443 1.387 . S
C7442 H7446 0.950 . S
C7442 C7451 1.390 . S
C7443 C7442 1.387 . S
C7443 C7445 1.387 . S
H7444 C7451 0.950 . S
C7445 C7443 1.387 . S
C7445 C7447 1.390 . S
C7445 H7449 0.950 . S
H7446 C7442 0.950 . S
C7447 C7445 1.390 . S
C7447 C7448 1.387 . S
C7447 H7450 0.950 . S
C7448 C7447 1.387 . S
C7448 C7451 1.387 . S
H7449 C7445 0.950 . S
H7450 C7447 0.950 . S
C7451 C7442 1.390 . S
C7451 H7444 0.950 . S
C7451 C7448 1.387 . S
C7452 C7453 1.387 . S
C7452 H7456 0.950 . S
C7452 C7461 1.390 . S
C7453 C7452 1.387 . S
C7453 C7455 1.387 . S
H7454 C7461 0.950 . S
C7455 C7453 1.387 . S
C7455 C7457 1.390 . S
C7455 H7459 0.950 . S
H7456 C7452 0.950 . S
C7457 C7455 1.390 . S
C7457 C7458 1.387 . S
C7457 H7460 0.950 . S
C7458 C7457 1.387 . S
C7458 C7461 1.387 . S
H7459 C7455 0.950 . S
H7460 C7457 0.950 . S
C7461 C7452 1.390 . S
C7461 H7454 0.950 . S
C7461 C7458 1.387 . S
C7462 C7463 1.387 . S
C7462 H7466 0.950 . S
C7462 C7471 1.390 . S
C7463 C7462 1.387 . S
C7463 C7465 1.387 . S
H7464 C7471 0.950 . S
C7465 C7463 1.387 . S
C7465 C7467 1.390 . S
C7465 H7469 0.950 . S
H7466 C7462 0.950 . S
C7467 C7465 1.390 . S
C7467 C7468 1.387 . S
C7467 H7470 0.950 . S
C7468 C7467 1.387 . S
C7468 C7471 1.387 . S
H7469 C7465 0.950 . S
H7470 C7467 0.950 . S
C7471 C7462 1.390 . S
C7471 H7464 0.950 . S
C7471 C7468 1.387 . S
C7472 C7473 1.387 . S
C7472 H7476 0.950 . S
C7472 C7481 1.390 . S
C7473 C7472 1.387 . S
C7473 C7475 1.387 . S
H7474 C7481 0.950 . S
C7475 C7473 1.387 . S
C7475 C7477 1.390 . S
C7475 H7479 0.950 . S
H7476 C7472 0.950 . S
C7477 C7475 1.390 . S
C7477 C7478 1.387 . S
C7477 H7480 0.950 . S
C7478 C7477 1.387 . S
C7478 C7481 1.387 . S
H7479 C7475 0.950 . S
H7480 C7477 0.950 . S
C7481 C7472 1.390 . S
C7481 H7474 0.950 . S
C7481 C7478 1.387 . S
C7482 C7483 1.387 . S
C7482 H7486 0.950 . S
C7482 C7491 1.390 . S
C7483 C7482 1.387 . S
C7483 C7485 1.387 . S
H7484 C7491 0.950 . S
C7485 C7483 1.387 . S
C7485 C7487 1.390 . S
C7485 H7489 0.950 . S
H7486 C7482 0.950 . S
C7487 C7485 1.390 . S
C7487 C7488 1.387 . S
C7487 H7490 0.950 . S
C7488 C7487 1.387 . S
C7488 C7491 1.387 . S
H7489 C7485 0.950 . S
H7490 C7487 0.950 . S
C7491 C7482 1.390 . S
C7491 H7484 0.950 . S
C7491 C7488 1.387 . S
C7492 C7493 1.387 . S
C7492 H7496 0.950 . S
C7492 C7501 1.390 . S
C7493 C7492 1.387 . S
C7493 C7495 1.387 . S
H7494 C7501 0.950 . S
C7495 C7493 1.387 . S
C7495 C7497 1.390 . S
C7495 H7499 0.950 . S
H7496 C7492 0.950 . S
C7497 C7495 1.390 . S
C7497 C7498 1.387 . S
C7497 H7500 0.950 . S
C7498 C7497 1.387 . S
C7498 C7501 1.387 . S
H7499 C7495 0.950 . S
H7500 C7497 0.950 . S
C7501 C7492 1.390 . S
C7501 H7494 0.950 . S
C7501 C7498 1.387 . S
C7502 C7503 1.387 . S
C7502 H7506 0.950 . S
C7502 C7511 1.390 . S
C7503 C7502 1.387 . S
C7503 C7505 1.387 . S
H7504 C7511 0.950 . S
C7505 C7503 1.387 . S
C7505 C7507 1.390 . S
C7505 H7509 0.950 . S
H7506 C7502 0.950 . S
C7507 C7505 1.390 . S
C7507 C7508 1.387 . S
C7507 H7510 0.950 . S
C7508 C7507 1.387 . S
C7508 C7511 1.387 . S
H7509 C7505 0.950 . S
H7510 C7507 0.950 . S
C7511 C7502 1.390 . S
C7511 H7504 0.950 . S
C7511 C7508 1.387 . S
C7512 C7513 1.387 . S
C7512 H7516 0.950 . S
C7512 C7521 1.390 . S
C7513 C7512 1.387 . S
C7513 C7515 1.387 . S
H7514 C7521 0.950 . S
C7515 C7513 1.387 . S
C7515 C7517 1.390 . S
C7515 H7519 0.950 . S
H7516 C7512 0.950 . S
C7517 C7515 1.390 . S
C7517 C7518 1.387 . S
C7517 H7520 0.950 . S
C7518 C7517 1.387 . S
C7518 C7521 1.387 . S
H7519 C7515 0.950 . S
H7520 C7517 0.950 . S
C7521 C7512 1.390 . S
C7521 H7514 0.950 . S
C7521 C7518 1.387 . S
C7522 C7523 1.387 . S
C7522 H7526 0.950 . S
C7522 C7531 1.390 . S
C7523 C7522 1.387 . S
C7523 C7525 1.387 . S
H7524 C7531 0.950 . S
C7525 C7523 1.387 . S
C7525 C7527 1.390 . S
C7525 H7529 0.950 . S
H7526 C7522 0.950 . S
C7527 C7525 1.390 . S
C7527 C7528 1.387 . S
C7527 H7530 0.950 . S
C7528 C7527 1.387 . S
C7528 C7531 1.387 . S
H7529 C7525 0.950 . S
H7530 C7527 0.950 . S
C7531 C7522 1.390 . S
C7531 H7524 0.950 . S
C7531 C7528 1.387 . S
C7532 C7533 1.387 . S
C7532 H7536 0.950 . S
C7532 C7541 1.390 . S
C7533 C7532 1.387 . S
C7533 C7535 1.387 . S
H7534 C7541 0.950 . S
C7535 C7533 1.387 . S
C7535 C7537 1.390 . S
C7535 H7539 0.950 . S
H7536 C7532 0.950 . S
C7537 C7535 1.390 . S
C7537 C7538 1.387 . S
C7537 H7540 0.950 . S
C7538 C7537 1.387 . S
C7538 C7541 1.387 . S
H7539 C7535 0.950 . S
H7540 C7537 0.950 . S
C7541 C7532 1.390 . S
C7541 H7534 0.950 . S
C7541 C7538 1.387 . S
C7542 C7543 1.387 . S
C7542 H7546 0.950 . S
C7542 C7551 1.390 . S
C7543 C7542 1.387 . S
C7543 C7545 1.387 . S
H7544 C7551 0.950 . S
C7545 C7543 1.387 . S
C7545 C7547 1.390 . S
C7545 H7549 0.950 . S
H7546 C7542 0.950 . S
C7547 C7545 1.390 . S
C7547 C7548 1.387 . S
C7547 H7550 0.950 . S
C7548 C7547 1.387 . S
C7548 C7551 1.387 . S
H7549 C7545 0.950 . S
H7550 C7547 0.950 . S
C7551 C7542 1.390 . S
C7551 H7544 0.950 . S
C7551 C7548 1.387 . S
C7552 C7553 1.387 . S
C7552 H7556 0.950 . S
C7552 C7561 1.390 . S
C7553 C7552 1.387 . S
C7553 C7555 1.387 . S
H7554 C7561 0.950 . S
C7555 C7553 1.387 . S
C7555 C7557 1.390 . S
C7555 H7559 0.950 . S
H7556 C7552 0.950 . S
C7557 C7555 1.390 . S
C7557 C7558 1.387 . S
C7557 H7560 0.950 . S
C7558 C7557 1.387 . S
C7558 C7561 1.387 . S
H7559 C7555 0.950 . S
H7560 C7557 0.950 . S
C7561 C7552 1.390 . S
C7561 H7554 0.950 . S
C7561 C7558 1.387 . S
C7562 C7563 1.387 . S
C7562 H7566 0.950 . S
C7562 C7571 1.390 . S
C7563 C7562 1.387 . S
C7563 C7565 1.387 . S
H7564 C7571 0.950 . S
C7565 C7563 1.387 . S
C7565 C7567 1.390 . S
C7565 H7569 0.950 . S
H7566 C7562 0.950 . S
C7567 C7565 1.390 . S
C7567 C7568 1.387 . S
C7567 H7570 0.950 . S
C7568 C7567 1.387 . S
C7568 C7571 1.387 . S
H7569 C7565 0.950 . S
H7570 C7567 0.950 . S
C7571 C7562 1.390 . S
C7571 H7564 0.950 . S
C7571 C7568 1.387 . S
C7572 C7573 1.387 . S
C7572 H7576 0.950 . S
C7572 C7581 1.390 . S
C7573 C7572 1.387 . S
C7573 C7575 1.387 . S
H7574 C7581 0.950 . S
C7575 C7573 1.387 . S
C7575 C7577 1.390 . S
C7575 H7579 0.950 . S
H7576 C7572 0.950 . S
C7577 C7575 1.390 . S
C7577 C7578 1.387 . S
C7577 H7580 0.950 . S
C7578 C7577 1.387 . S
C7578 C7581 1.387 . S
H7579 C7575 0.950 . S
H7580 C7577 0.950 . S
C7581 C7572 1.390 . S
C7581 H7574 0.950 . S
C7581 C7578 1.387 . S
C7582 C7583 1.387 . S
C7582 H7586 0.950 . S
C7582 C7591 1.390 . S
C7583 C7582 1.387 . S
C7583 C7585 1.387 . S
H7584 C7591 0.950 . S
C7585 C7583 1.387 . S
C7585 C7587 1.390 . S
C7585 H7589 0.950 . S
H7586 C7582 0.950 . S
C7587 C7585 1.390 . S
C7587 C7588 1.387 . S
C7587 H7590 0.950 . S
C7588 C7587 1.387 . S
C7588 C7591 1.387 . S
H7589 C7585 0.950 . S
H7590 C7587 0.950 . S
C7591 C7582 1.390 . S
C7591 H7584 0.950 . S
C7591 C7588 1.387 . S
C7592 C7593 1.387 . S
C7592 H7596 0.950 . S
C7592 C7601 1.390 . S
C7593 C7592 1.387 . S
C7593 C7595 1.387 . S
H7594 C7601 0.950 . S
C7595 C7593 1.387 . S
C7595 C7597 1.390 . S
C7595 H7599 0.950 . S
H7596 C7592 0.950 . S
C7597 C7595 1.390 . S
C7597 C7598 1.387 . S
C7597 H7600 0.950 . S
C7598 C7597 1.387 . S
C7598 C7601 1.387 . S
H7599 C7595 0.950 . S
H7600 C7597 0.950 . S
C7601 C7592 1.390 . S
C7601 H7594 0.950 . S
C7601 C7598 1.387 . S
C7602 C7603 1.387 . S
C7602 H7606 0.950 . S
C7602 C7611 1.390 . S
C7603 C7602 1.387 . S
C7603 C7605 1.387 . S
H7604 C7611 0.950 . S
C7605 C7603 1.387 . S
C7605 C7607 1.390 . S
C7605 H7609 0.950 . S
H7606 C7602 0.950 . S
C7607 C7605 1.390 . S
C7607 C7608 1.387 . S
C7607 H7610 0.950 . S
C7608 C7607 1.387 . S
C7608 C7611 1.387 . S
H7609 C7605 0.950 . S
H7610 C7607 0.950 . S
C7611 C7602 1.390 . S
C7611 H7604 0.950 . S
C7611 C7608 1.387 . S
C7612 C7613 1.387 . S
C7612 H7616 0.950 . S
C7612 C7621 1.390 . S
C7613 C7612 1.387 . S
C7613 C7615 1.387 . S
H7614 C7621 0.950 . S
C7615 C7613 1.387 . S
C7615 C7617 1.390 . S
C7615 H7619 0.950 . S
H7616 C7612 0.950 . S
C7617 C7615 1.390 . S
C7617 C7618 1.387 . S
C7617 H7620 0.950 . S
C7618 C7617 1.387 . S
C7618 C7621 1.387 . S
H7619 C7615 0.950 . S
H7620 C7617 0.950 . S
C7621 C7612 1.390 . S
C7621 H7614 0.950 . S
C7621 C7618 1.387 . S
C7622 C7623 1.387 . S
C7622 H7626 0.950 . S
C7622 C7631 1.390 . S
C7623 C7622 1.387 . S
C7623 C7625 1.387 . S
H7624 C7631 0.950 . S
C7625 C7623 1.387 . S
C7625 C7627 1.390 . S
C7625 H7629 0.950 . S
H7626 C7622 0.950 . S
C7627 C7625 1.390 . S
C7627 C7628 1.387 . S
C7627 H7630 0.950 . S
C7628 C7627 1.387 . S
C7628 C7631 1.387 . S
H7629 C7625 0.950 . S
H7630 C7627 0.950 . S
C7631 C7622 1.390 . S
C7631 H7624 0.950 . S
C7631 C7628 1.387 . S
C7632 C7633 1.387 . S
C7632 H7636 0.950 . S
C7632 C7641 1.390 . S
C7633 C7632 1.387 . S
C7633 C7635 1.387 . S
H7634 C7641 0.950 . S
C7635 C7633 1.387 . S
C7635 C7637 1.390 . S
C7635 H7639 0.950 . S
H7636 C7632 0.950 . S
C7637 C7635 1.390 . S
C7637 C7638 1.387 . S
C7637 H7640 0.950 . S
C7638 C7637 1.387 . S
C7638 C7641 1.387 . S
H7639 C7635 0.950 . S
H7640 C7637 0.950 . S
C7641 C7632 1.390 . S
C7641 H7634 0.950 . S
C7641 C7638 1.387 . S
C7642 C7643 1.387 . S
C7642 H7646 0.950 . S
C7642 C7651 1.390 . S
C7643 C7642 1.387 . S
C7643 C7645 1.387 . S
H7644 C7651 0.950 . S
C7645 C7643 1.387 . S
C7645 C7647 1.390 . S
C7645 H7649 0.950 . S
H7646 C7642 0.950 . S
C7647 C7645 1.390 . S
C7647 C7648 1.387 . S
C7647 H7650 0.950 . S
C7648 C7647 1.387 . S
C7648 C7651 1.387 . S
H7649 C7645 0.950 . S
H7650 C7647 0.950 . S
C7651 C7642 1.390 . S
C7651 H7644 0.950 . S
C7651 C7648 1.387 . S
C7652 C7653 1.387 . S
C7652 H7656 0.950 . S
C7652 C7661 1.390 . S
C7653 C7652 1.387 . S
C7653 C7655 1.387 . S
H7654 C7661 0.950 . S
C7655 C7653 1.387 . S
C7655 C7657 1.390 . S
C7655 H7659 0.950 . S
H7656 C7652 0.950 . S
C7657 C7655 1.390 . S
C7657 C7658 1.387 . S
C7657 H7660 0.950 . S
C7658 C7657 1.387 . S
C7658 C7661 1.387 . S
H7659 C7655 0.950 . S
H7660 C7657 0.950 . S
C7661 C7652 1.390 . S
C7661 H7654 0.950 . S
C7661 C7658 1.387 . S
C7662 C7663 1.387 . S
C7662 H7666 0.950 . S
C7662 C7671 1.390 . S
C7663 C7662 1.387 . S
C7663 C7665 1.387 . S
H7664 C7671 0.950 . S
C7665 C7663 1.387 . S
C7665 C7667 1.390 . S
C7665 H7669 0.950 . S
H7666 C7662 0.950 . S
C7667 C7665 1.390 . S
C7667 C7668 1.387 . S
C7667 H7670 0.950 . S
C7668 C7667 1.387 . S
C7668 C7671 1.387 . S
H7669 C7665 0.950 . S
H7670 C7667 0.950 . S
C7671 C7662 1.390 . S
C7671 H7664 0.950 . S
C7671 C7668 1.387 . S
C7672 C7673 1.387 . S
C7672 H7676 0.950 . S
C7672 C7681 1.390 . S
C7673 C7672 1.387 . S
C7673 C7675 1.387 . S
H7674 C7681 0.950 . S
C7675 C7673 1.387 . S
C7675 C7677 1.390 . S
C7675 H7679 0.950 . S
H7676 C7672 0.950 . S
C7677 C7675 1.390 . S
C7677 C7678 1.387 . S
C7677 H7680 0.950 . S
C7678 C7677 1.387 . S
C7678 C7681 1.387 . S
H7679 C7675 0.950 . S
H7680 C7677 0.950 . S
C7681 C7672 1.390 . S
C7681 H7674 0.950 . S
C7681 C7678 1.387 . S
C7682 C7683 1.387 . S
C7682 H7686 0.950 . S
C7682 C7691 1.390 . S
C7683 C7682 1.387 . S
C7683 C7685 1.387 . S
H7684 C7691 0.950 . S
C7685 C7683 1.387 . S
C7685 C7687 1.390 . S
C7685 H7689 0.950 . S
H7686 C7682 0.950 . S
C7687 C7685 1.390 . S
C7687 C7688 1.387 . S
C7687 H7690 0.950 . S
C7688 C7687 1.387 . S
C7688 C7691 1.387 . S
H7689 C7685 0.950 . S
H7690 C7687 0.950 . S
C7691 C7682 1.390 . S
C7691 H7684 0.950 . S
C7691 C7688 1.387 . S
C7692 C7693 1.387 . S
C7692 H7696 0.950 . S
C7692 C7701 1.390 . S
C7693 C7692 1.387 . S
C7693 C7695 1.387 . S
H7694 C7701 0.950 . S
C7695 C7693 1.387 . S
C7695 C7697 1.390 . S
C7695 H7699 0.950 . S
H7696 C7692 0.950 . S
C7697 C7695 1.390 . S
C7697 C7698 1.387 . S
C7697 H7700 0.950 . S
C7698 C7697 1.387 . S
C7698 C7701 1.387 . S
H7699 C7695 0.950 . S
H7700 C7697 0.950 . S
C7701 C7692 1.390 . S
C7701 H7694 0.950 . S
C7701 C7698 1.387 . S
C7702 C7703 1.387 . S
C7702 H7706 0.950 . S
C7702 C7711 1.390 . S
C7703 C7702 1.387 . S
C7703 C7705 1.387 . S
H7704 C7711 0.950 . S
C7705 C7703 1.387 . S
C7705 C7707 1.390 . S
C7705 H7709 0.950 . S
H7706 C7702 0.950 . S
C7707 C7705 1.390 . S
C7707 C7708 1.387 . S
C7707 H7710 0.950 . S
C7708 C7707 1.387 . S
C7708 C7711 1.387 . S
H7709 C7705 0.950 . S
H7710 C7707 0.950 . S
C7711 C7702 1.390 . S
C7711 H7704 0.950 . S
C7711 C7708 1.387 . S
C7712 C7713 1.387 . S
C7712 H7716 0.950 . S
C7712 C7721 1.390 . S
C7713 C7712 1.387 . S
C7713 C7715 1.387 . S
H7714 C7721 0.950 . S
C7715 C7713 1.387 . S
C7715 C7717 1.390 . S
C7715 H7719 0.950 . S
H7716 C7712 0.950 . S
C7717 C7715 1.390 . S
C7717 C7718 1.387 . S
C7717 H7720 0.950 . S
C7718 C7717 1.387 . S
C7718 C7721 1.387 . S
H7719 C7715 0.950 . S
H7720 C7717 0.950 . S
C7721 C7712 1.390 . S
C7721 H7714 0.950 . S
C7721 C7718 1.387 . S
C7722 C7723 1.387 . S
C7722 H7726 0.950 . S
C7722 C7731 1.390 . S
C7723 C7722 1.387 . S
C7723 C7725 1.387 . S
H7724 C7731 0.950 . S
C7725 C7723 1.387 . S
C7725 C7727 1.390 . S
C7725 H7729 0.950 . S
H7726 C7722 0.950 . S
C7727 C7725 1.390 . S
C7727 C7728 1.387 . S
C7727 H7730 0.950 . S
C7728 C7727 1.387 . S
C7728 C7731 1.387 . S
H7729 C7725 0.950 . S
H7730 C7727 0.950 . S
C7731 C7722 1.390 . S
C7731 H7724 0.950 . S
C7731 C7728 1.387 . S
C7732 C7733 1.387 . S
C7732 H7736 0.950 . S
C7732 C7741 1.390 . S
C7733 C7732 1.387 . S
C7733 C7735 1.387 . S
H7734 C7741 0.950 . S
C7735 C7733 1.387 . S
C7735 C7737 1.390 . S
C7735 H7739 0.950 . S
H7736 C7732 0.950 . S
C7737 C7735 1.390 . S
C7737 C7738 1.387 . S
C7737 H7740 0.950 . S
C7738 C7737 1.387 . S
C7738 C7741 1.387 . S
H7739 C7735 0.950 . S
H7740 C7737 0.950 . S
C7741 C7732 1.390 . S
C7741 H7734 0.950 . S
C7741 C7738 1.387 . S
C7742 C7743 1.387 . S
C7742 H7746 0.950 . S
C7742 C7751 1.390 . S
C7743 C7742 1.387 . S
C7743 C7745 1.387 . S
H7744 C7751 0.950 . S
C7745 C7743 1.387 . S
C7745 C7747 1.390 . S
C7745 H7749 0.950 . S
H7746 C7742 0.950 . S
C7747 C7745 1.390 . S
C7747 C7748 1.387 . S
C7747 H7750 0.950 . S
C7748 C7747 1.387 . S
C7748 C7751 1.387 . S
H7749 C7745 0.950 . S
H7750 C7747 0.950 . S
C7751 C7742 1.390 . S
C7751 H7744 0.950 . S
C7751 C7748 1.387 . S
C7752 C7753 1.387 . S
C7752 H7756 0.950 . S
C7752 C7761 1.390 . S
C7753 C7752 1.387 . S
C7753 C7755 1.387 . S
H7754 C7761 0.950 . S
C7755 C7753 1.387 . S
C7755 C7757 1.390 . S
C7755 H7759 0.950 . S
H7756 C7752 0.950 . S
C7757 C7755 1.390 . S
C7757 C7758 1.387 . S
C7757 H7760 0.950 . S
C7758 C7757 1.387 . S
C7758 C7761 1.387 . S
H7759 C7755 0.950 . S
H7760 C7757 0.950 . S
C7761 C7752 1.390 . S
C7761 H7754 0.950 . S
C7761 C7758 1.387 . S
C7762 C7763 1.387 . S
C7762 H7766 0.950 . S
C7762 C7771 1.390 . S
C7763 C7762 1.387 . S
C7763 C7765 1.387 . S
H7764 C7771 0.950 . S
C7765 C7763 1.387 . S
C7765 C7767 1.390 . S
C7765 H7769 0.950 . S
H7766 C7762 0.950 . S
C7767 C7765 1.390 . S
C7767 C7768 1.387 . S
C7767 H7770 0.950 . S
C7768 C7767 1.387 . S
C7768 C7771 1.387 . S
H7769 C7765 0.950 . S
H7770 C7767 0.950 . S
C7771 C7762 1.390 . S
C7771 H7764 0.950 . S
C7771 C7768 1.387 . S
C7772 C7773 1.387 . S
C7772 H7776 0.950 . S
C7772 C7781 1.390 . S
C7773 C7772 1.387 . S
C7773 C7775 1.387 . S
H7774 C7781 0.950 . S
C7775 C7773 1.387 . S
C7775 C7777 1.390 . S
C7775 H7779 0.950 . S
H7776 C7772 0.950 . S
C7777 C7775 1.390 . S
C7777 C7778 1.387 . S
C7777 H7780 0.950 . S
C7778 C7777 1.387 . S
C7778 C7781 1.387 . S
H7779 C7775 0.950 . S
H7780 C7777 0.950 . S
C7781 C7772 1.390 . S
C7781 H7774 0.950 . S
C7781 C7778 1.387 . S
C7782 C7783 1.387 . S
C7782 H7786 0.950 . S
C7782 C7791 1.390 . S
C7783 C7782 1.387 . S
C7783 C7785 1.387 . S
H7784 C7791 0.950 . S
C7785 C7783 1.387 . S
C7785 C7787 1.390 . S
C7785 H7789 0.950 . S
H7786 C7782 0.950 . S
C7787 C7785 1.390 . S
C7787 C7788 1.387 . S
C7787 H7790 0.950 . S
C7788 C7787 1.387 . S
C7788 C7791 1.387 . S
H7789 C7785 0.950 . S
H7790 C7787 0.950 . S
C7791 C7782 1.390 . S
C7791 H7784 0.950 . S
C7791 C7788 1.387 . S
C7792 C7793 1.387 . S
C7792 H7796 0.950 . S
C7792 C7801 1.390 . S
C7793 C7792 1.387 . S
C7793 C7795 1.387 . S
H7794 C7801 0.950 . S
C7795 C7793 1.387 . S
C7795 C7797 1.390 . S
C7795 H7799 0.950 . S
H7796 C7792 0.950 . S
C7797 C7795 1.390 . S
C7797 C7798 1.387 . S
C7797 H7800 0.950 . S
C7798 C7797 1.387 . S
C7798 C7801 1.387 . S
H7799 C7795 0.950 . S
H7800 C7797 0.950 . S
C7801 C7792 1.390 . S
C7801 H7794 0.950 . S
C7801 C7798 1.387 . S
C7802 C7803 1.387 . S
C7802 H7806 0.950 . S
C7802 C7811 1.390 . S
C7803 C7802 1.387 . S
C7803 C7805 1.387 . S
H7804 C7811 0.950 . S
C7805 C7803 1.387 . S
C7805 C7807 1.390 . S
C7805 H7809 0.950 . S
H7806 C7802 0.950 . S
C7807 C7805 1.390 . S
C7807 C7808 1.387 . S
C7807 H7810 0.950 . S
C7808 C7807 1.387 . S
C7808 C7811 1.387 . S
H7809 C7805 0.950 . S
H7810 C7807 0.950 . S
C7811 C7802 1.390 . S
C7811 H7804 0.950 . S
C7811 C7808 1.387 . S
C7812 C7813 1.387 . S
C7812 H7816 0.950 . S
C7812 C7821 1.390 . S
C7813 C7812 1.387 . S
C7813 C7815 1.387 . S
H7814 C7821 0.950 . S
C7815 C7813 1.387 . S
C7815 C7817 1.390 . S
C7815 H7819 0.950 . S
H7816 C7812 0.950 . S
C7817 C7815 1.390 . S
C7817 C7818 1.387 . S
C7817 H7820 0.950 . S
C7818 C7817 1.387 . S
C7818 C7821 1.387 . S
H7819 C7815 0.950 . S
H7820 C7817 0.950 . S
C7821 C7812 1.390 . S
C7821 H7814 0.950 . S
C7821 C7818 1.387 . S
C7822 C7823 1.387 . S
C7822 H7826 0.950 . S
C7822 C7831 1.390 . S
C7823 C7822 1.387 . S
C7823 C7825 1.387 . S
H7824 C7831 0.950 . S
C7825 C7823 1.387 . S
C7825 C7827 1.390 . S
C7825 H7829 0.950 . S
H7826 C7822 0.950 . S
C7827 C7825 1.390 . S
C7827 C7828 1.387 . S
C7827 H7830 0.950 . S
C7828 C7827 1.387 . S
C7828 C7831 1.387 . S
H7829 C7825 0.950 . S
H7830 C7827 0.950 . S
C7831 C7822 1.390 . S
C7831 H7824 0.950 . S
C7831 C7828 1.387 . S
C7832 C7833 1.387 . S
C7832 H7836 0.950 . S
C7832 C7841 1.390 . S
C7833 C7832 1.387 . S
C7833 C7835 1.387 . S
H7834 C7841 0.950 . S
C7835 C7833 1.387 . S
C7835 C7837 1.390 . S
C7835 H7839 0.950 . S
H7836 C7832 0.950 . S
C7837 C7835 1.390 . S
C7837 C7838 1.387 . S
C7837 H7840 0.950 . S
C7838 C7837 1.387 . S
C7838 C7841 1.387 . S
H7839 C7835 0.950 . S
H7840 C7837 0.950 . S
C7841 C7832 1.390 . S
C7841 H7834 0.950 . S
C7841 C7838 1.387 . S
C7842 C7843 1.387 . S
C7842 H7846 0.950 . S
C7842 C7851 1.390 . S
C7843 C7842 1.387 . S
C7843 C7845 1.387 . S
H7844 C7851 0.950 . S
C7845 C7843 1.387 . S
C7845 C7847 1.390 . S
C7845 H7849 0.950 . S
H7846 C7842 0.950 . S
C7847 C7845 1.390 . S
C7847 C7848 1.387 . S
C7847 H7850 0.950 . S
C7848 C7847 1.387 . S
C7848 C7851 1.387 . S
H7849 C7845 0.950 . S
H7850 C7847 0.950 . S
C7851 C7842 1.390 . S
C7851 H7844 0.950 . S
C7851 C7848 1.387 . S
C7852 C7853 1.387 . S
C7852 H7856 0.950 . S
C7852 C7861 1.390 . S
C7853 C7852 1.387 . S
C7853 C7855 1.387 . S
H7854 C7861 0.950 . S
C7855 C7853 1.387 . S
C7855 C7857 1.390 . S
C7855 H7859 0.950 . S
H7856 C7852 0.950 . S
C7857 C7855 1.390 . S
C7857 C7858 1.387 . S
C7857 H7860 0.950 . S
C7858 C7857 1.387 . S
C7858 C7861 1.387 . S
H7859 C7855 0.950 . S
H7860 C7857 0.950 . S
C7861 C7852 1.390 . S
C7861 H7854 0.950 . S
C7861 C7858 1.387 . S
C7862 C7863 1.387 . S
C7862 H7866 0.950 . S
C7862 C7871 1.390 . S
C7863 C7862 1.387 . S
C7863 C7865 1.387 . S
H7864 C7871 0.950 . S
C7865 C7863 1.387 . S
C7865 C7867 1.390 . S
C7865 H7869 0.950 . S
H7866 C7862 0.950 . S
C7867 C7865 1.390 . S
C7867 C7868 1.387 . S
C7867 H7870 0.950 . S
C7868 C7867 1.387 . S
C7868 C7871 1.387 . S
H7869 C7865 0.950 . S
H7870 C7867 0.950 . S
C7871 C7862 1.390 . S
C7871 H7864 0.950 . S
C7871 C7868 1.387 . S
C4998 C4144 1.535 . S
C4993 C15 1.564 . S
C5008 C4732 1.537 . S
C5003 C55 1.565 . S
C5018 C4168 1.536 . S
C5013 C95 1.565 . S
C5028 C4708 1.534 . S
C5023 C135 1.564 . S
C5038 C4216 1.536 . S
C5033 C175 1.564 . S
C5043 C215 1.564 . S
C5048 C4756 1.535 . S
C5058 C4192 1.537 . S
C5053 C255 1.565 . S
C5068 C4780 1.536 . S
C5063 C295 1.565 . S
C5078 C4972 1.534 . S
C5073 C335 1.564 . S
C5083 C375 1.564 . S
C5088 C4900 1.535 . S
C5098 C4984 1.535 . S
C5093 C415 1.565 . S
C5103 C455 1.565 . S
C5108 C4960 1.537 . S
C5118 C4924 1.536 . S
C5113 C495 1.564 . S
C5128 C4360 1.536 . S
C5123 C535 1.565 . S
C5138 C4372 1.535 . S
C5133 C575 1.565 . S
C5143 C615 1.564 . S
C5148 C4336 1.536 . S
C5153 C655 1.565 . S
C5158 C4864 1.537 . S
C5168 C4264 1.537 . S
C5163 C695 1.565 . S
C5178 C4804 1.535 . S
C5173 C735 1.564 . S
C5188 C4240 1.536 . S
C5183 C775 1.565 . S
C5193 C815 1.564 . S
C5198 C4252 1.534 . S
C5208 C4888 1.536 . S
C5203 C855 1.565 . S
C5218 C4852 1.536 . S
C5213 C895 1.564 . S
C5223 C935 1.565 . S
C5228 C4876 1.535 . S
C5233 C975 1.568 . S
C5238 C3856 1.543 . S
C5243 C1015 1.568 . S
C5248 C4444 1.543 . S
C5258 C3880 1.543 . S
C5253 C1055 1.568 . S
C5263 C1095 1.569 . S
C5268 C4420 1.542 . S
C5278 C3928 1.544 . S
C5273 C1135 1.569 . S
C5283 C1175 1.569 . S
C5288 C4468 1.544 . S
C5298 C3904 1.542 . S
C5293 C1215 1.568 . S
C5308 C4492 1.542 . S
C5303 C1255 1.568 . S
C5313 C1295 1.569 . S
C5318 C4684 1.543 . S
C5328 C4612 1.543 . S
C5323 C1335 1.568 . S
C5333 C1375 1.568 . S
C5338 C4696 1.544 . S
C5348 C4672 1.543 . S
C5343 C1415 1.568 . S
C5358 C4636 1.542 . S
C5353 C1455 1.569 . S
C5363 C1495 1.568 . S
C5368 C4072 1.543 . S
C5373 C1535 1.568 . S
C5378 C4084 1.544 . S
C5388 C4048 1.544 . S
C5383 C1575 1.568 . S
C5393 C1615 1.569 . S
C5398 C4576 1.544 . S
C5408 C3976 1.542 . S
C5403 C1655 1.568 . S
C5413 C1695 1.569 . S
C5418 C4516 1.542 . S
C5428 C3952 1.542 . S
C5423 C1735 1.568 . S
C5433 C1775 1.569 . S
C5438 C3964 1.543 . S
C5448 C4600 1.542 . S
C5443 C1815 1.568 . S
C5458 C4564 1.542 . S
C5453 C1855 1.569 . S
C5468 C4588 1.543 . S
C5463 C1895 1.569 . S
C5473 C1935 1.565 . S
C5478 C4720 1.536 . S
C5488 C4156 1.537 . S
C5483 C1975 1.564 . S
C5498 C4744 1.536 . S
C5493 C2015 1.565 . S
C5508 C4132 1.536 . S
C5503 C2055 1.565 . S
C5513 C2095 1.565 . S
C5518 C4792 1.536 . S
C5528 C4180 1.537 . S
C5523 C2135 1.565 . S
C5538 C4768 1.537 . S
C5533 C2175 1.565 . S
C5548 C4204 1.534 . S
C5543 C2215 1.564 . S
C5553 C2255 1.565 . S
C5558 C4396 1.535 . S
C5568 C4324 1.535 . S
C5563 C2295 1.565 . S
C5578 C4408 1.534 . S
C5573 C2335 1.564 . S
C5583 C2375 1.564 . S
C5588 C4384 1.536 . S
C5593 C2415 1.564 . S
C5598 C4348 1.537 . S
C5603 C2455 1.564 . S
C5608 C4936 1.535 . S
C5613 C2495 1.564 . S
C5618 C4948 1.535 . S
C5628 C4912 1.535 . S
C5623 C2535 1.564 . S
C5633 C2575 1.565 . S
C5638 C4288 1.537 . S
C5648 C4840 1.536 . S
C5643 C2615 1.564 . S
C5658 C4228 1.536 . S
C5653 C2655 1.565 . S
C5668 C4816 1.537 . S
C5663 C2695 1.565 . S
C5673 C2735 1.565 . S
C5678 C4828 1.536 . S
C5683 C2775 1.564 . S
C5688 C4312 1.534 . S
C5698 C4276 1.535 . S
C5693 C2815 1.564 . S
C5703 C2855 1.565 . S
C5708 C4300 1.535 . S
C5713 C2895 1.569 . S
C5718 C4432 1.543 . S
C5728 C3868 1.543 . S
C5723 C2935 1.568 . S
C5738 C4456 1.544 . S
C5733 C2975 1.569 . S
C5743 C3015 1.569 . S
C5748 C3844 1.544 . S
C5758 C4504 1.544 . S
C5753 C3055 1.569 . S
C5768 C3892 1.544 . S
C5763 C3095 1.569 . S
C5773 C3135 1.569 . S
C5778 C4480 1.544 . S
C5783 C3175 1.569 . S
C5788 C3916 1.544 . S
C5798 C4108 1.544 . S
C5793 C3215 1.569 . S
C5803 C3255 1.568 . S
C5808 C4036 1.542 . S
C5818 C4120 1.544 . S
C5813 C3295 1.569 . S
C5828 C4096 1.543 . S
C5823 C3335 1.568 . S
C5833 C3375 1.569 . S
C5838 C4060 1.544 . S
C5843 C3415 1.568 . S
C5848 C4648 1.544 . S
C5858 C4660 1.544 . S
C5853 C3455 1.568 . S
C5863 C3495 1.568 . S
C5868 C4624 1.544 . S
C5878 C4000 1.545 . S
C5873 C3535 1.569 . S
C5888 C4552 1.544 . S
C5883 C3575 1.569 . S
C5893 C3615 1.569 . S
C5898 C3940 1.544 . S
C5903 C3655 1.568 . S
C5908 C4528 1.542 . S
C5913 C3695 1.569 . S
C5918 C4540 1.543 . S
C5923 C3735 1.568 . S
C5928 C4024 1.542 . S
C5933 C3775 1.569 . S
C5938 C3988 1.543 . S
C5948 C4012 1.544 . S
C5943 C3815 1.568 . S
C5958 C3954 1.587 . S
C5953 C2 1.563 . S
C5968 C3966 1.585 . S
C5963 C42 1.563 . S
C5973 C82 1.564 . S
C5978 C3978 1.586 . S
C5983 C122 1.565 . S
C5988 C3942 1.588 . S
C5993 C162 1.564 . S
C5998 C4026 1.585 . S
C6008 C3990 1.585 . S
C6003 C202 1.563 . S
C6018 C4002 1.588 . S
C6013 C242 1.564 . S
C6023 C282 1.565 . S
C6028 C4014 1.588 . S
C6033 C322 1.565 . S
C6038 C3882 1.586 . S
C6043 C362 1.566 . S
C6048 C3846 1.587 . S
C6053 C402 1.563 . S
C6058 C3858 1.587 . S
C6068 C3870 1.586 . S
C6063 C442 1.564 . S
C6073 C482 1.563 . S
C6078 C3906 1.585 . S
C6083 C522 1.566 . S
C6088 C3918 1.588 . S
C6093 C562 1.564 . S
C6098 C3930 1.586 . S
C6103 C602 1.564 . S
C6108 C3894 1.588 . S
C6118 C4062 1.585 . S
C6113 C642 1.563 . S
C6123 C682 1.564 . S
C6128 C4686 1.588 . S
C6138 C4038 1.585 . S
C6133 C722 1.562 . S
C6148 C4698 1.587 . S
C6143 C762 1.566 . S
C6153 C802 1.563 . S
C6158 C4674 1.585 . S
C6163 C842 1.565 . S
C6168 C4662 1.588 . S
C6178 C4626 1.587 . S
C6173 C882 1.563 . S
C6188 C4650 1.585 . S
C6183 C922 1.563 . S
C6198 C4242 1.621 . S
C6193 C962 1.652 . S
C6208 C4254 1.621 . S
C6203 C1002 1.651 . S
C6218 C4266 1.621 . S
C6213 C1042 1.652 . S
C6223 C1082 1.651 . S
C6228 C4230 1.623 . S
C6233 C1122 1.652 . S
C6238 C4314 1.623 . S
C6248 C4278 1.621 . S
C6243 C1162 1.651 . S
C6253 C1202 1.651 . S
C6258 C4290 1.621 . S
C6268 C4302 1.623 . S
C6263 C1242 1.652 . S
C6273 C1282 1.652 . S
C6278 C4170 1.623 . S
C6288 C4134 1.623 . S
C6283 C1322 1.652 . S
C6293 C1362 1.652 . S
C6298 C4146 1.623 . S
C6308 C4158 1.621 . S
C6303 C1402 1.652 . S
C6318 C4194 1.623 . S
C6313 C1442 1.652 . S
C6323 C1482 1.651 . S
C6328 C4206 1.623 . S
C6338 C4218 1.621 . S
C6333 C1522 1.651 . S
C6348 C4182 1.621 . S
C6343 C1562 1.651 . S
C6358 C4350 1.621 . S
C6353 C1602 1.651 . S
C6368 C4974 1.621 . S
C6363 C1642 1.651 . S
C6378 C4326 1.622 . S
C6373 C1682 1.651 . S
C6383 C1722 1.652 . S
C6388 C4986 1.621 . S
C6393 C1762 1.651 . S
C6398 C4962 1.621 . S
C6408 C4950 1.623 . S
C6403 C1802 1.652 . S
C6418 C4914 1.621 . S
C6413 C1842 1.651 . S
C6428 C4938 1.621 . S
C6423 C1882 1.652 . S
C6433 C1922 1.565 . S
C6438 C4530 1.588 . S
C6448 C4542 1.588 . S
C6443 C1962 1.565 . S
C6453 C2002 1.563 . S
C6458 C4554 1.585 . S
C6468 C4518 1.588 . S
C6463 C2042 1.565 . S
C6473 C2082 1.564 . S
C6478 C4602 1.587 . S
C6483 C2122 1.565 . S
C6488 C4566 1.588 . S
C6493 C2162 1.564 . S
C6498 C4578 1.588 . S
C6503 C2202 1.563 . S
C6508 C4590 1.585 . S
C6513 C2242 1.563 . S
C6518 C4458 1.587 . S
C6528 C4422 1.588 . S
C6523 C2282 1.564 . S
C6538 C4434 1.588 . S
C6533 C2322 1.566 . S
C6543 C2362 1.564 . S
C6548 C4446 1.585 . S
C6553 C2402 1.563 . S
C6558 C4482 1.587 . S
C6563 C2442 1.564 . S
C6568 C4494 1.588 . S
C6573 C2482 1.563 . S
C6578 C4506 1.585 . S
C6583 C2522 1.564 . S
C6588 C4470 1.588 . S
C6598 C4638 1.585 . S
C6593 C2562 1.563 . S
C6608 C4110 1.588 . S
C6603 C2602 1.565 . S
C6618 C4614 1.588 . S
C6613 C2642 1.566 . S
C6628 C4122 1.585 . S
C6623 C2682 1.563 . S
C6638 C4098 1.588 . S
C6633 C2722 1.565 . S
C6648 C4086 1.588 . S
C6643 C2762 1.565 . S
C6653 C2802 1.566 . S
C6658 C4050 1.588 . S
C6668 C4074 1.585 . S
C6663 C2842 1.563 . S
C6673 C2882 1.651 . S
C6678 C4818 1.621 . S
C6683 C2922 1.652 . S
C6688 C4830 1.623 . S
C6698 C4842 1.623 . S
C6693 C2962 1.652 . S
C6703 C3002 1.652 . S
C6708 C4806 1.623 . S
C6718 C4890 1.621 . S
C6713 C3042 1.652 . S
C6723 C3082 1.651 . S
C6728 C4854 1.621 . S
C6733 C3122 1.652 . S
C6738 C4866 1.623 . S
C6748 C4878 1.623 . S
C6743 C3162 1.651 . S
C6758 C4746 1.621 . S
C6753 C3202 1.651 . S
C6768 C4710 1.621 . S
C6763 C3242 1.651 . S
C6778 C4722 1.621 . S
C6773 C3282 1.651 . S
C6788 C4734 1.624 . S
C6783 C3322 1.652 . S
C6793 C3362 1.652 . S
C6798 C4770 1.623 . S
C6808 C4782 1.621 . S
C6803 C3402 1.651 . S
C6813 C3442 1.652 . S
C6818 C4794 1.623 . S
C6823 C3482 1.651 . S
C6828 C4758 1.621 . S
C6833 C3522 1.651 . S
C6838 C4926 1.621 . S
C6843 C3562 1.651 . S
C6848 C4398 1.621 . S
C6853 C3602 1.651 . S
C6858 C4902 1.621 . S
C6868 C4410 1.623 . S
C6863 C3642 1.652 . S
C6873 C3682 1.652 . S
C6878 C4386 1.622 . S
C6883 C3722 1.652 . S
C6888 C4374 1.623 . S
C6893 C3762 1.651 . S
C6898 C4338 1.621 . S
C6908 C4362 1.621 . S
C6903 C3802 1.651 . S
C6913 C21 1.637 . S
C6918 C3849 1.671 . S
C6923 C61 1.637 . S
C6928 C3861 1.672 . S
C6933 C101 1.635 . S
C6938 C3873 1.671 . S
C6948 C3885 1.673 . S
C6943 C141 1.636 . S
C6958 C3897 1.671 . S
C6953 C181 1.635 . S
C6963 C221 1.634 . S
C6968 C3909 1.671 . S
C6973 C261 1.635 . S
C6978 C3921 1.673 . S
C6983 C301 1.635 . S
C6988 C3933 1.673 . S
C6998 C3945 1.670 . S
C6993 C341 1.635 . S
C7008 C3957 1.671 . S
C7003 C381 1.636 . S
C7013 C421 1.636 . S
C7018 C3969 1.674 . S
C7028 C3981 1.671 . S
C7023 C461 1.636 . S
C7033 C501 1.636 . S
C7038 C3993 1.671 . S
C7043 C541 1.636 . S
C7048 C4005 1.671 . S
C7053 C581 1.635 . S
C7058 C4017 1.671 . S
C7063 C621 1.637 . S
C7068 C4029 1.672 . S
C7073 C661 1.634 . S
C7078 C4041 1.672 . S
C7083 C701 1.634 . S
C7088 C4053 1.671 . S
C7098 C4065 1.674 . S
C7093 C741 1.637 . S
C7108 C4077 1.672 . S
C7103 C781 1.634 . S
C7118 C4089 1.671 . S
C7113 C821 1.636 . S
C7128 C4101 1.671 . S
C7123 C861 1.634 . S
C7133 C901 1.637 . S
C7138 C4113 1.674 . S
C7148 C4125 1.673 . S
C7143 C941 1.635 . S
C7153 C981 1.735 . S
C7158 C4137 1.691 . S
C7163 C1021 1.734 . S
C7168 C4149 1.690 . S
C7173 C1061 1.735 . S
C7178 C4161 1.692 . S
C7188 C4173 1.692 . S
C7183 C1101 1.734 . S
C7193 C1141 1.734 . S
C7198 C4185 1.693 . S
C7208 C4197 1.691 . S
C7203 C1181 1.735 . S
C7213 C1221 1.735 . S
C7218 C4209 1.691 . S
C7223 C1261 1.734 . S
C7228 C4221 1.690 . S
C7238 C4233 1.690 . S
C7233 C1301 1.734 . S
C7243 C1341 1.734 . S
C7248 C4245 1.692 . S
C7258 C4257 1.691 . S
C7253 C1381 1.734 . S
C7263 C1421 1.734 . S
C7268 C4269 1.693 . S
C7278 C4281 1.693 . S
C7273 C1461 1.734 . S
C7288 C4293 1.693 . S
C7283 C1501 1.734 . S
C7298 C4305 1.690 . S
C7293 C1541 1.734 . S
C7303 C1581 1.734 . S
C7308 C4317 1.690 . S
C7313 C1621 1.734 . S
C7318 C4329 1.690 . S
C7323 C1661 1.735 . S
C7328 C4341 1.692 . S
C7333 C1701 1.735 . S
C7338 C4353 1.691 . S
C7343 C1741 1.735 . S
C7348 C4365 1.693 . S
C7353 C1781 1.735 . S
C7358 C4377 1.693 . S
C7368 C4389 1.693 . S
C7363 C1821 1.734 . S
C7373 C1861 1.734 . S
C7378 C4401 1.690 . S
C7388 C4413 1.691 . S
C7383 C1901 1.734 . S
C7393 C1941 1.636 . S
C7398 C4425 1.671 . S
C7408 C4437 1.673 . S
C7403 C1981 1.635 . S
C7418 C4449 1.673 . S
C7413 C2021 1.635 . S
C7428 C4461 1.673 . S
C7423 C2061 1.637 . S
C7433 C2101 1.636 . S
C7438 C4473 1.671 . S
C7443 C2141 1.634 . S
C7448 C4485 1.671 . S
C7458 C4497 1.673 . S
C7453 C2181 1.635 . S
C7468 C4509 1.672 . S
C7463 C2221 1.634 . S
C7473 C2261 1.635 . S
C7478 C4521 1.670 . S
C7483 C2301 1.636 . S
C7488 C4533 1.671 . S
C7493 C2341 1.634 . S
C7498 C4545 1.671 . S
C7503 C2381 1.637 . S
C7508 C4557 1.671 . S
C7513 C2421 1.635 . S
C7518 C4569 1.671 . S
C7528 C4581 1.672 . S
C7523 C2461 1.637 . S
C7538 C4593 1.671 . S
C7533 C2501 1.635 . S
C7548 C4605 1.671 . S
C7543 C2541 1.636 . S
C7558 C4617 1.673 . S
C7553 C2581 1.637 . S
C7563 C2621 1.634 . S
C7568 C4629 1.672 . S
C7573 C2661 1.636 . S
C7578 C4641 1.673 . S
C7588 C4653 1.672 . S
C7583 C2701 1.634 . S
C7593 C2741 1.635 . S
C7598 C4665 1.671 . S
C7608 C4677 1.673 . S
C7603 C2781 1.637 . S
C7618 C4689 1.671 . S
C7613 C2821 1.634 . S
C7628 C4701 1.673 . S
C7623 C2861 1.636 . S
C7633 C2901 1.734 . S
C7638 C4713 1.690 . S
C7643 C2941 1.734 . S
C7648 C4725 1.690 . S
C7653 C2981 1.734 . S
C7658 C4737 1.690 . S
C7663 C3021 1.734 . S
C7668 C4749 1.690 . S
C7678 C4761 1.690 . S
C7673 C3061 1.734 . S
C7688 C4773 1.693 . S
C7683 C3101 1.735 . S
C7698 C4785 1.693 . S
C7693 C3141 1.734 . S
C7703 C3181 1.735 . S
C7708 C4797 1.691 . S
C7713 C3221 1.734 . S
C7718 C4809 1.692 . S
C7728 C4821 1.693 . S
C7723 C3261 1.734 . S
C7738 C4833 1.691 . S
C7733 C3301 1.733 . S
C7748 C4845 1.693 . S
C7743 C3341 1.734 . S
C7758 C4857 1.693 . S
C7753 C3381 1.735 . S
C7768 C4869 1.691 . S
C7763 C3421 1.735 . S
C7778 C4881 1.693 . S
C7773 C3461 1.735 . S
C7788 C4893 1.691 . S
C7783 C3501 1.733 . S
C7798 C4905 1.690 . S
C7793 C3541 1.734 . S
C7808 C4917 1.690 . S
C7803 C3581 1.734 . S
C7818 C4929 1.693 . S
C7813 C3621 1.734 . S
C7823 C3661 1.735 . S
C7828 C4941 1.692 . S
C7838 C4953 1.693 . S
C7833 C3701 1.734 . S
C7843 C3741 1.734 . S
C7848 C4965 1.691 . S
C7858 C4977 1.692 . S
C7853 C3781 1.734 . S
C7868 C4989 1.690 . S
C7863 C3821 1.734 . S
